drugbank_target|P18548 Deacetoxycephalosporin C synthase (DB03229; DB03938; DB04074)
 OpenBabel12092120003D

  0  0  0     0  0            999 V3000
M  V30 BEGIN CTAB
M  V30 COUNTS 4765 4822 0 0 0
M  V30 BEGIN ATOM
M  V30 1 H -0.908 1.98254 -0.117106 0
M  V30 2 N 0 1.576 0 0
M  V30 3 C 0.933 2.03868 1.02534 0
M  V30 4 C 1.911 0.928543 1.3348 0
M  V30 5 O 3.095 1.19667 1.45644 0
M  V30 6 C 0.222 2.43627 2.35294 0
M  V30 7 C -0.732 3.65373 2.2001 0
M  V30 8 S 0.101 5.13292 1.52614 0
M  V30 9 C 1.257 5.56322 2.86805 0
M  V30 10 H 1.49 2.90518 0.631377 0
M  V30 11 H -0.977 1.52953 0.210867 0
M  V30 12 H 0.981 2.67203 3.11629 0
M  V30 13 H -0.358 1.57376 2.7183 0
M  V30 14 H -1.165 3.90944 3.18086 0
M  V30 15 H -1.563 3.418 1.51819 0
M  V30 16 H 0.729 5.58782 3.83104 0
M  V30 17 H 1.672 6.56266 2.65933 0
M  V30 18 H 2.08 4.83886 2.90714 0
M  V30 19 N 1.4781 -0.272755 1.55222 0
M  V30 20 C 2.7551 -1.02562 1.66555 0
M  V30 21 C 3.1351 -2.04282 0.532189 0
M  V30 22 O 2.4831 -2.23662 -0.467717 0
M  V30 23 C 2.6931 -1.6822 3.05782 0
M  V30 24 C 4.0411 -2.19373 3.63539 0
M  V30 25 O 5.0651 -1.78206 3.08417 0
M  V30 26 O 3.9241 -2.94883 4.60115 0
M  V30 27 H 1.0181 -0.475755 0.676451 0
M  V30 28 H 3.5641 -0.268593 1.67561 0
M  V30 29 H 2.3361 -0.945112 3.79715 0
M  V30 30 H 1.9591 -2.50609 3.08676 0
M  V30 31 N 2.9562 -1.48159 -0.537278 0
M  V30 32 C 4.1842 -1.59454 -1.31841 0
M  V30 33 C 4.5992 -0.252065 -1.8711 0
M  V30 34 O 3.9562 0.757621 -1.66031 0
M  V30 35 C 4.0072 -2.63546 -2.47439 0
M  V30 36 O 3.7282 -3.92583 -1.94449 0
M  V30 37 C 5.2292 -2.85212 -3.39366 0
M  V30 38 H 2.4492 -0.53785 -0.401196 0
M  V30 39 H 4.9932 -1.93932 -0.648891 0
M  V30 40 H 3.1482 -2.31946 -3.1029 0
M  V30 41 H 3.5622 -4.49629 -2.70063 0
M  V30 42 H 5.0362 -3.61863 -4.16844 0
M  V30 43 H 5.5132 -1.93765 -3.94147 0
M  V30 44 H 6.1192 -3.18086 -2.82314 0
M  V30 45 N 4.4343 0.785586 -1.36625 0
M  V30 46 C 5.6623 1.57448 -1.3423 0
M  V30 47 C 6.0773 1.88649 0.0755653 0
M  V30 48 O 5.4343 1.50414 1.03354 0
M  V30 49 C 5.4853 2.89316 -2.16745 0
M  V30 50 O 5.2063 2.59459 -3.53005 0
M  V30 51 C 6.7073 3.83606 -2.22174 0
M  V30 52 H 3.9273 0.488226 -0.4603 0
M  V30 53 H 6.4713 0.974733 -1.79775 0
M  V30 54 H 4.6263 3.4575 -1.74745 0
M  V30 55 H 5.0403 3.43804 -3.96105 0
M  V30 56 H 6.5143 4.73181 -2.8426 0
M  V30 57 H 6.9913 4.21734 -1.22627 0
M  V30 58 H 7.5973 3.33104 -2.64427 0
M  V30 59 N 5.9124 1.20967 1.01018 0
M  V30 60 C 7.1584 1.02526 1.74975 0
M  V30 61 C 7.4914 -0.4408 1.89131 0
M  V30 62 O 6.7664 -1.32718 1.42184 0
M  V30 63 C 7.0494 1.71699 3.1653 0
M  V30 64 C 6.9024 3.25791 3.10129 0
M  V30 65 C 8.2214 1.45531 4.15342 0
M  V30 66 H 5.3404 0.373863 0.635134 0
M  V30 67 H 7.9824 1.49071 1.17805 0
M  V30 68 H 6.1324 1.32128 3.65341 0
M  V30 69 H 7.8044 3.74697 2.69072 0
M  V30 70 H 6.0474 3.56363 2.47362 0
M  V30 71 H 6.7184 3.69353 4.10222 0
M  V30 72 H 9.1944 1.79872 3.75213 0
M  V30 73 H 8.0704 1.96453 5.1254 0
M  V30 74 H 8.3314 0.384237 4.40427 0
M  V30 75 N 7.3905 -1.2043 1.01659 0
M  V30 76 C 8.8015 -1.71517 0.737482 0
M  V30 77 C 9.1525 -1.81547 -0.743973 0
M  V30 78 O 8.2775 -1.47803 -1.58061 0
M  V30 79 C 8.8725 -3.11515 1.33206 0
M  V30 80 C 7.4315 -3.59912 1.10183 0
M  V30 81 C 6.5785 -2.37116 1.43776 0
M  V30 82 H 9.5295 -1.05444 1.18606 0
M  V30 83 H 9.5505 -3.73575 0.722636 0
M  V30 84 H 9.0625 -3.04182 2.41028 0
M  V30 85 H 7.1635 -3.72577 0.0412756 0
M  V30 86 H 7.2765 -4.44731 1.78188 0
M  V30 87 H 5.6405 -2.39857 0.856778 0
M  V30 88 H 6.4235 -2.32424 2.52654 0
M  V30 89 N 8.8686 -0.792821 -1.36206 0
M  V30 90 C 10.0966 -0.378825 -2.03402 0
M  V30 91 C 10.5116 1.00586 -1.59774 0
M  V30 92 O 9.8686 1.64574 -0.788764 0
M  V30 93 C 9.9196 -0.43683 -3.58851 0
M  V30 94 O 9.6406 -1.76691 -4.00889 0
M  V30 95 C 11.1416 -0.0138943 -4.43298 0
M  V30 96 H 8.3616 -0.155673 -0.652692 0
M  V30 97 H 10.9056 -1.07261 -1.74113 0
M  V30 98 H 9.0606 0.208575 -3.86838 0
M  V30 99 H 9.4746 -1.72011 -4.95492 0
M  V30 100 H 10.9486 -0.105615 -5.51899 0
M  V30 101 H 11.4256 1.03915 -4.2673 0
M  V30 102 H 12.0316 -0.63192 -4.20579 0
M  V30 103 N 10.3467 1.47872 -0.545128 0
M  V30 104 C 11.5937 2.02493 -0.0165858 0
M  V30 105 C 11.9217 1.42073 1.32836 0
M  V30 106 O 11.1767 0.561459 1.87473 0
M  V30 107 C 11.4757 3.57131 0.13867 0
M  V30 108 C 11.1417 4.36411 -1.13384 0
M  V30 109 C 9.8037 4.57792 -1.48256 0
M  V30 110 C 12.1557 4.82223 -1.97764 0
M  V30 111 C 9.4837 5.22233 -2.67376 0
M  V30 112 C 11.8357 5.47977 -3.16076 0
M  V30 113 C 10.4997 5.67593 -3.51275 0
M  V30 114 H 9.7697 0.740975 -0.00606918 0
M  V30 115 H 12.4167 1.77683 -0.714207 0
M  V30 116 H 10.7217 3.80865 0.919172 0
M  V30 117 H 12.4187 3.97031 0.562782 0
M  V30 118 H 9.0087 4.2004 -0.852297 0
M  V30 119 H 13.1927 4.65493 -1.72132 0
M  V30 120 H 8.4487 5.35616 -2.94831 0
M  V30 121 H 12.6227 5.8244 -3.81755 0
M  V30 122 H 10.2497 6.17298 -4.43675 0
M  V30 123 N 11.8248 0.280983 1.55075 0
M  V30 124 C 13.0498 -0.340154 2.04592 0
M  V30 125 C 13.4748 -1.48246 1.15779 0
M  V30 126 O 12.8328 -1.80614 0.15761 0
M  V30 127 C 12.8808 -0.793104 3.5177 0
M  V30 128 O 11.9848 -1.89981 3.66034 0
M  V30 129 H 11.3258 -0.0694289 0.66036 0
M  V30 130 H 13.8558 0.416993 2.00306 0
M  V30 131 H 13.8658 -1.08729 3.93245 0
M  V30 132 H 12.5408 0.0426163 4.15878 0
M  V30 133 H 11.1178 -1.60771 3.36463 0
M  V30 134 N 13.3029 -1.57598 0.00835791 0
M  V30 135 C 14.2329 -2.1198 -0.979113 0
M  V30 136 C 15.2139 -1.03091 -1.35301 0
M  V30 137 O 16.3989 -1.30818 -1.43528 0
M  V30 138 C 13.5289 -2.62995 -2.26828 0
M  V30 139 C 12.4829 -3.76485 -2.03576 0
M  V30 140 C 11.8089 -4.13846 -3.38579 0
M  V30 141 C 13.1089 -5.0342 -1.39161 0
M  V30 142 H 14.8029 -2.94738 -0.526281 0
M  V30 143 H 12.3489 -1.41783 -0.251704 0
M  V30 144 H 14.3019 -2.99669 -2.96271 0
M  V30 145 H 13.0259 -1.7737 -2.7424 0
M  V30 146 H 11.6849 -3.40217 -1.36557 0
M  V30 147 H 11.3329 -3.25232 -3.83709 0
M  V30 148 H 11.0329 -4.90312 -3.23834 0
M  V30 149 H 12.5569 -4.53086 -4.09323 0
M  V30 150 H 13.9709 -5.37812 -1.98573 0
M  V30 151 H 12.3679 -5.84746 -1.34878 0
M  V30 152 H 13.4379 -4.83548 -0.361868 0
M  V30 153 N 14.781 0.264519 -1.55364 0
M  V30 154 C 15.744 1.31046 -1.88042 0
M  V30 155 C 16.744 1.41943 -0.755569 0
M  V30 156 O 17.934 1.40947 -1.02369 0
M  V30 157 C 15.066 2.69067 -2.09323 0
M  V30 158 H 16.259 1.03297 -2.81549 0
M  V30 159 H 13.812 0.502989 -1.47986 0
M  V30 160 H 14.547 3.01982 -1.18226 0
M  V30 161 H 14.332 2.62542 -2.91229 0
M  V30 162 H 15.822 3.44623 -2.35848 0
M  V30 163 N 16.2591 1.48442 0.529413 0
M  V30 164 C 17.1691 1.6569 1.66084 0
M  V30 165 C 18.1851 0.539432 1.65427 0
M  V30 166 O 19.3611 0.810572 1.84368 0
M  V30 167 C 16.4261 1.69315 3.02545 0
M  V30 168 C 15.4871 2.92694 3.14052 0
M  V30 169 C 14.7201 2.96137 4.44003 0
M  V30 170 O 14.9431 2.07973 5.31134 0
M  V30 171 O 13.8771 3.88312 4.59888 0
M  V30 172 H 17.7031 2.61483 1.54469 0
M  V30 173 H 15.2881 1.3185 0.702567 0
M  V30 174 H 17.1701 1.74217 3.83701 0
M  V30 175 H 15.8451 0.766966 3.14483 0
M  V30 176 H 14.7521 2.93324 2.32189 0
M  V30 177 H 16.0851 3.84699 3.0703 0
M  V30 178 N 17.7372 -0.778329 1.37039 0
M  V30 179 C 18.6672 -1.90546 1.34962 0
M  V30 180 C 19.6482 -1.68681 0.219274 0
M  V30 181 O 20.8332 -1.89634 0.418624 0
M  V30 182 C 17.9632 -3.27734 1.14925 0
M  V30 183 C 16.9172 -3.64147 2.24902 0
M  V30 184 C 16.2432 -4.99806 1.89996 0
M  V30 185 C 17.5432 -3.71579 3.67051 0
M  V30 186 H 19.2372 -1.92541 2.29277 0
M  V30 187 H 16.7832 -0.924948 1.10366 0
M  V30 188 H 18.7362 -4.06215 1.12104 0
M  V30 189 H 17.4602 -3.26154 0.170631 0
M  V30 190 H 16.1192 -2.8797 2.26868 0
M  V30 191 H 15.7672 -4.94759 0.906796 0
M  V30 192 H 15.4672 -5.25139 2.63634 0
M  V30 193 H 16.9912 -5.80694 1.88749 0
M  V30 194 H 18.4052 -4.40227 3.67251 0
M  V30 195 H 16.8022 -4.08405 4.39688 0
M  V30 196 H 17.8722 -2.72404 4.01154 0
M  V30 197 N 19.2153 -1.21501 -1.00376 0
M  V30 198 C 20.1473 -0.933174 -2.09343 0
M  V30 199 C 21.1603 0.0840896 -1.62583 0
M  V30 200 O 22.3493 -0.148563 -1.77881 0
M  V30 201 C 19.4493 -0.379869 -3.36764 0
M  V30 202 C 18.6223 -1.45176 -4.12605 0
M  V30 203 C 17.6813 -0.907476 -5.18316 0
M  V30 204 O 16.7073 -1.5912 -5.46507 0
M  V30 205 N 17.9093 0.276649 -5.7984 0
M  V30 206 H 20.6743 -1.87124 -2.34104 0
M  V30 207 H 18.2353 -1.12043 -1.16867 0
M  V30 208 H 20.2273 -0.00131488 -4.047 0
M  V30 209 H 18.7973 0.463048 -3.09151 0
M  V30 210 H 18.0173 -2.00411 -3.39454 0
M  V30 211 H 19.3053 -2.17328 -4.6005 0
M  V30 212 H 18.7033 0.849147 -5.59291 0
M  V30 213 H 17.2603 0.596702 -6.49063 0
M  V30 214 N 20.6934 1.19889 -1.02296 0
M  V30 215 C 21.6254 2.22334 -0.556787 0
M  V30 216 C 22.6384 1.58674 0.364199 0
M  V30 217 O 23.8274 1.77768 0.161533 0
M  V30 218 C 20.9274 3.38257 0.208694 0
M  V30 219 C 20.1004 4.31504 -0.71577 0
M  V30 220 C 19.1594 5.262 0.00325597 0
M  V30 221 O 18.1854 5.65798 -0.621357 0
M  V30 222 N 19.3874 5.66303 1.27599 0
M  V30 223 H 22.1524 2.62957 -1.43784 0
M  V30 224 H 19.7134 1.34495 -0.901261 0
M  V30 225 H 21.7054 3.98616 0.699111 0
M  V30 226 H 20.2754 2.96472 0.991102 0
M  V30 227 H 19.4954 3.69016 -1.38638 0
M  V30 228 H 20.7834 4.9072 -1.34428 0
M  V30 229 H 20.1814 5.36155 1.80429 0
M  V30 230 H 18.7384 6.28942 1.71102 0
M  V30 231 N 22.1715 0.800033 1.35784 0
M  V30 232 C 23.4195 0.376597 1.9856 0
M  V30 233 C 23.7405 -1.05812 1.63795 0
M  V30 234 O 23.0105 -1.73103 0.917171 0
M  V30 235 H 21.5905 0.136261 0.734467 0
M  V30 236 H 24.2525 1.02442 1.65806 0
M  V30 237 H 23.3485 0.477002 3.08433 0
M  V30 238 N 23.6496 -1.47581 0.552962 0
M  V30 239 C 24.5796 -2.32762 -0.185451 0
M  V30 240 C 25.5606 -1.43527 -0.912905 0
M  V30 241 O 26.7456 -1.72388 -0.894201 0
M  V30 242 C 23.8756 -3.25219 -1.21859 0
M  V30 243 C 22.8296 -4.23661 -0.607864 0
M  V30 244 C 22.1556 -5.05413 -1.74533 0
M  V30 245 C 23.4556 -5.20481 0.435582 0
M  V30 246 H 25.1496 -2.94749 0.525684 0
M  V30 247 H 22.6956 -1.41738 0.254251 0
M  V30 248 H 24.6486 -3.8365 -1.7433 0
M  V30 249 H 23.3726 -2.61279 -1.95961 0
M  V30 250 H 22.0316 -3.66451 -0.104489 0
M  V30 251 H 21.6796 -4.3788 -2.47529 0
M  V30 252 H 21.3796 -5.72059 -1.34249 0
M  V30 253 H 22.9036 -5.66701 -2.27338 0
M  V30 254 H 24.3176 -5.733 -0.00290157 0
M  V30 255 H 22.7146 -5.95305 0.757067 0
M  V30 256 H 23.7846 -4.66217 1.33303 0
M  V30 257 N 25.1277 -0.289203 -1.54924 0
M  V30 258 C 26.0777 0.606939 -2.19773 0
M  V30 259 C 27.0617 1.10783 -1.16687 0
M  V30 260 O 28.2537 1.05057 -1.4245 0
M  V30 261 C 25.3827 1.78398 -2.93307 0
M  V30 262 C 24.4687 1.29961 -4.03697 0
M  V30 263 N 24.8597 0.532377 -5.0299 0
M  V30 264 C 23.1577 1.58136 -4.17024 0
M  V30 265 C 23.8587 0.275912 -5.81045 0
M  V30 266 N 22.8347 0.852365 -5.36876 0
M  V30 267 H 26.6367 0.0130779 -2.93897 0
M  V30 268 H 24.1507 -0.09341 -1.62131 0
M  V30 269 H 26.1477 2.43741 -3.38225 0
M  V30 270 H 24.8077 2.38166 -2.20697 0
M  V30 271 H 25.8187 0.17838 -5.17593 0
M  V30 272 H 22.4957 2.18738 -3.55612 0
M  V30 273 H 23.8857 -0.339502 -6.71042 0
M  V30 274 N 26.6058 1.57591 -0.0167156 0
M  V30 275 C 27.5378 2.06343 0.997753 0
M  V30 276 C 28.5508 0.984469 1.29661 0
M  V30 277 O 29.7398 1.26093 1.26344 0
M  V30 278 C 26.8398 2.46255 2.32834 0
M  V30 279 C 26.0128 3.77083 2.21646 0
M  V30 280 C 25.0718 4.0368 3.37534 0
M  V30 281 O 24.0978 4.7411 3.14973 0
M  V30 282 N 25.2998 3.52881 4.60929 0
M  V30 283 H 28.0648 2.93997 0.581875 0
M  V30 284 H 25.6258 1.61002 0.170316 0
M  V30 285 H 27.6178 2.61149 3.09166 0
M  V30 286 H 26.1878 1.64032 2.66106 0
M  V30 287 H 25.4078 3.72106 1.30119 0
M  V30 288 H 26.6958 4.62822 2.11361 0
M  V30 289 H 26.0938 2.95878 4.82154 0
M  V30 290 H 24.6508 3.73076 5.34469 0
M  V30 291 N 28.0839 -0.256276 1.55502 0
M  V30 292 C 29.3609 -1.00789 1.67633 0
M  V30 293 C 29.7409 -2.03706 0.553826 0
M  V30 294 O 29.0889 -2.24145 -0.443969 0
M  V30 295 C 29.2989 -1.64968 3.07549 0
M  V30 296 C 30.6469 -2.15505 3.65845 0
M  V30 297 O 31.6709 -1.74925 3.1029 0
M  V30 298 O 30.5299 -2.89986 4.63217 0
M  V30 299 H 27.6239 -0.468553 0.681459 0
M  V30 300 H 30.1699 -0.250806 1.67836 0
M  V30 301 H 28.9419 -0.904785 3.80696 0
M  V30 302 H 28.5649 -2.47321 3.11317 0
M  V30 303 N 29.562 -1.4872 -0.521534 0
M  V30 304 C 30.472 -1.66569 -1.65203 0
M  V30 305 C 31.488 -0.548197 -1.65139 0
M  V30 306 O 32.664 -0.820339 -1.83936 0
M  V30 307 C 29.729 -1.70917 -3.01642 0
M  V30 308 C 28.79 -2.94356 -3.12495 0
M  V30 309 C 28.023 -2.98487 -4.42426 0
M  V30 310 O 28.246 -2.10786 -5.30024 0
M  V30 311 O 27.18 -3.90746 -4.57822 0
M  V30 312 H 31.006 -2.62298 -1.5308 0
M  V30 313 H 28.591 -1.3222 -0.695565 0
M  V30 314 H 30.473 -1.7625 -3.82771 0
M  V30 315 H 29.148 -0.783633 -3.14071 0
M  V30 316 H 28.055 -2.94552 -2.3063 0
M  V30 317 H 29.388 -3.86322 -3.04986 0
M  V30 318 N 31.0401 0.771051 -1.3745 0
M  V30 319 C 32.2871 1.52963 -1.32697 0
M  V30 320 C 32.6151 1.94299 0.0883274 0
M  V30 321 O 31.8701 1.64397 1.0617 0
M  V30 322 C 32.1691 2.80676 -2.2126 0
M  V30 323 C 31.8351 2.58389 -3.69521 0
M  V30 324 C 30.4971 2.52019 -4.09927 0
M  V30 325 C 32.8491 2.38469 -4.63446 0
M  V30 326 C 30.1771 2.23721 -5.42371 0
M  V30 327 C 32.5291 2.11694 -5.96128 0
M  V30 328 C 31.1931 2.03769 -6.35637 0
M  V30 329 H 30.4631 0.559732 -0.485573 0
M  V30 330 H 33.1101 0.888083 -1.69662 0
M  V30 331 H 31.4151 3.49392 -1.77291 0
M  V30 332 H 33.1121 3.38557 -2.14895 0
M  V30 333 H 29.7021 2.6421 -3.37478 0
M  V30 334 H 33.8861 2.4238 -4.33089 0
M  V30 335 H 29.1421 2.16081 -5.71943 0
M  V30 336 H 33.3161 1.9528 -6.6846 0
M  V30 337 H 30.9431 1.81606 -7.38189 0
M  V30 338 N 32.5182 1.22032 0.997298 0
M  V30 339 C 33.9342 0.979326 1.26021 0
M  V30 340 C 34.1342 -0.32972 1.98784 0
M  V30 341 O 33.1902 -1.05345 2.29475 0
M  V30 342 C 34.5032 2.17509 2.07631 0
M  V30 343 C 36.0512 2.21817 2.2083 0
M  V30 344 C 36.5262 3.40933 3.05825 0
M  V30 345 N 38.0172 3.41067 3.13412 0
M  V30 346 C 38.7522 4.29885 3.79455 0
M  V30 347 N 38.2482 5.28914 4.47462 0
M  V30 348 N 40.0412 4.17673 3.76173 0
M  V30 349 H 32.1922 2.06202 0.509352 0
M  V30 350 H 34.4552 0.90334 0.287541 0
M  V30 351 H 34.1612 3.12415 1.61524 0
M  V30 352 H 34.0352 2.17206 3.08385 0
M  V30 353 H 36.4222 1.27462 2.66153 0
M  V30 354 H 36.5032 2.2616 1.1952 0
M  V30 355 H 36.1472 4.35586 2.61203 0
M  V30 356 H 36.0772 3.33829 4.07266 0
M  V30 357 H 38.5682 2.69406 2.65007 0
M  V30 358 H 38.8812 5.92973 4.95583 0
M  V30 359 H 37.2262 5.32831 4.46224 0
M  V30 360 H 40.4172 3.39564 3.22202 0
M  V30 361 H 40.5902 4.87098 4.27363 0
M  V30 362 N 33.9963 -1.19345 1.0293 0
M  V30 363 C 35.4123 -1.41069 0.746446 0
M  V30 364 C 35.6123 -1.90078 -0.668776 0
M  V30 365 O 34.6683 -2.0778 -1.4347 0
M  V30 366 C 35.9813 -2.42141 1.78292 0
M  V30 367 C 37.5293 -2.55887 1.80252 0
M  V30 368 C 38.0043 -3.60214 2.8286 0
M  V30 369 N 39.4953 -3.67711 2.81679 0
M  V30 370 C 40.2303 -4.48128 3.57727 0
M  V30 371 N 39.7263 -5.32248 4.43491 0
M  V30 372 N 41.5193 -4.42782 3.46267 0
M  V30 373 H 33.6703 -0.858536 1.94275 0
M  V30 374 H 35.9333 -0.439541 0.839945 0
M  V30 375 H 35.6393 -2.13155 2.79746 0
M  V30 376 H 35.5133 -3.41323 1.60557 0
M  V30 377 H 37.9003 -2.84196 0.794757 0
M  V30 378 H 37.9813 -1.56858 2.02062 0
M  V30 379 H 37.6253 -3.32647 3.83807 0
M  V30 380 H 37.5553 -4.58895 2.58307 0
M  V30 381 H 40.0463 -3.07634 2.19476 0
M  V30 382 H 40.3593 -5.90729 4.98256 0
M  V30 383 H 38.7043 -5.31707 4.47564 0
M  V30 384 H 41.8953 -3.76107 2.78677 0
M  V30 385 H 42.0683 -5.05215 4.05785 0
M  V30 386 N 35.4744 -0.807222 -1.35358 0
M  V30 387 C 36.7144 -0.393534 -2.00576 0
M  V30 388 C 37.0784 1.0203 -1.62647 0
M  V30 389 O 38.2794 1.53603 -2.20589 0
M  V30 390 C 36.5504 -0.572017 -3.52793 0
M  V30 391 S 38.1094 -0.248845 -4.38094 0
M  V30 392 H 34.9274 -0.149425 -0.695121 0
M  V30 393 H 37.5294 -1.04961 -1.64935 0
M  V30 394 H 36.2334 -1.60097 -3.77885 0
M  V30 395 H 35.7644 0.099359 -3.93275 0
M  V30 396 H 37.7794 0.943253 -4.87152 0
M  V30 397 N 36.9525 1.47285 -0.560781 0
M  V30 398 C 37.8825 2.32857 0.173105 0
M  V30 399 C 38.8635 1.44009 0.905281 0
M  V30 400 O 40.0485 1.7286 0.885046 0
M  V30 401 C 37.1785 3.25861 1.20133 0
M  V30 402 C 36.1325 4.23978 0.585388 0
M  V30 403 C 35.4585 5.06332 1.7185 0
M  V30 404 C 36.7585 5.20242 -0.463178 0
M  V30 405 H 38.4525 2.94466 -0.541307 0
M  V30 406 H 35.9985 1.41601 -0.261764 0
M  V30 407 H 37.9515 3.84569 1.72293 0
M  V30 408 H 36.6755 2.62315 1.94573 0
M  V30 409 H 35.3345 3.66501 0.085054 0
M  V30 410 H 34.9825 4.39186 2.45203 0
M  V30 411 H 34.6825 5.72762 1.31213 0
M  V30 412 H 36.2065 5.67899 2.24329 0
M  V30 413 H 37.6205 5.73293 -0.027502 0
M  V30 414 H 36.0175 5.94896 -0.788627 0
M  V30 415 H 37.0875 4.65504 -1.35773 0
M  V30 416 N 38.4306 0.297415 1.54768 0
M  V30 417 C 39.8466 -0.0560823 1.59501 0
M  V30 418 C 40.0466 -1.52725 1.31444 0
M  V30 419 O 39.1026 -2.27947 1.08611 0
M  V30 420 C 40.4156 0.338631 2.98787 0
M  V30 421 C 41.9636 0.287097 3.11681 0
M  V30 422 C 42.4386 0.656579 4.53269 0
M  V30 423 N 43.9296 0.608977 4.59179 0
M  V30 424 C 44.6646 0.867385 5.66802 0
M  V30 425 N 44.1606 1.19157 6.82476 0
M  V30 426 N 45.9536 0.794687 5.56454 0
M  V30 427 H 38.1046 1.25624 1.71267 0
M  V30 428 H 40.3676 0.509057 0.799728 0
M  V30 429 H 40.0736 1.36263 3.2423 0
M  V30 430 H 39.9476 -0.309508 3.75928 0
M  V30 431 H 42.3346 -0.727649 2.85988 0
M  V30 432 H 42.4156 0.969809 2.36703 0
M  V30 433 H 42.0596 1.66912 4.7969 0
M  V30 434 H 41.9896 -0.0481649 5.26578 0
M  V30 435 H 44.4806 0.369198 3.76092 0
M  V30 436 H 44.7936 1.37482 7.60473 0
M  V30 437 H 43.1386 1.22958 6.84037 0
M  V30 438 H 46.3296 0.541098 4.64962 0
M  V30 439 H 46.5026 0.999445 6.40246 0
M  V30 440 N 39.9087 -1.5758 0.0250728 0
M  V30 441 C 41.1857 -1.82917 -0.692873 0
M  V30 442 C 41.5657 -0.908137 -1.90568 0
M  V30 443 O 40.9137 0.0372298 -2.2847 0
M  V30 444 C 41.1237 -3.32034 -1.07492 0
M  V30 445 C 42.4717 -3.98406 -1.46826 0
M  V30 446 O 43.4957 -3.36505 -1.16801 0
M  V30 447 O 42.3547 -5.07497 -2.02754 0
M  V30 448 H 39.4487 -0.754079 -0.33955 0
M  V30 449 H 41.9947 -1.69619 0.0524456 0
M  V30 450 H 40.7667 -3.90728 -0.211552 0
M  V30 451 H 40.3897 -3.50424 -1.87854 0
M  V30 452 N 41.3868 0.248026 -1.55636 0
M  V30 453 C 42.3338 1.30707 -1.90222 0
M  V30 454 C 43.3038 1.47881 -0.756332 0
M  V30 455 O 44.4888 1.61883 -1.00988 0
M  V30 456 C 41.6288 2.65769 -2.20138 0
M  V30 457 C 40.7418 2.56612 -3.47526 0
M  V30 458 C 39.8768 3.8402 -3.67017 0
M  V30 459 C 38.9158 3.69476 -4.8801 0
M  V30 460 N 38.0528 4.88774 -5.04029 0
M  V30 461 H 42.8928 1.00512 -2.80538 0
M  V30 462 H 40.4298 0.485055 -1.38873 0
M  V30 463 H 42.3878 3.44386 -2.35487 0
M  V30 464 H 41.0178 2.94115 -1.33027 0
M  V30 465 H 40.0698 1.69571 -3.40514 0
M  V30 466 H 41.3818 2.41774 -4.36287 0
M  V30 467 H 40.5358 4.7108 -3.8232 0
M  V30 468 H 39.2748 4.01754 -2.76487 0
M  V30 469 H 38.2798 2.80799 -4.72686 0
M  V30 470 H 39.5048 3.53238 -5.8 0
M  V30 471 H 37.4508 5.0687 -4.16435 0
M  V30 472 H 37.3678 4.76562 -5.86877 0
M  V30 473 H 38.6358 5.77335 -5.23741 0
M  V30 474 N 42.8649 1.48995 0.513639 0
M  V30 475 C 44.1129 1.57531 1.26604 0
M  V30 476 C 44.4339 0.258236 1.93283 0
M  V30 477 O 43.7039 -0.721502 1.8213 0
M  V30 478 H 42.2839 0.580387 0.470276 0
M  V30 479 H 44.9459 1.85552 0.596373 0
M  V30 480 H 44.0419 2.36486 2.03669 0
M  V30 481 N 44.343 -0.763751 1.37857 0
M  V30 482 C 45.273 -1.89103 1.36975 0
M  V30 483 C 46.254 -1.68439 0.237152 0
M  V30 484 O 47.439 -1.8918 0.438713 0
M  V30 485 C 44.569 -3.26496 1.18395 0
M  V30 486 C 43.523 -3.61741 2.28751 0
M  V30 487 C 42.849 -4.97762 1.95286 0
M  V30 488 C 44.149 -3.67665 3.70972 0
M  V30 489 H 45.843 -1.90099 2.31307 0
M  V30 490 H 43.389 -0.91319 1.11341 0
M  V30 491 H 45.342 -4.05003 1.16406 0
M  V30 492 H 44.066 -3.25955 0.205215 0
M  V30 493 H 42.725 -2.85547 2.29909 0
M  V30 494 H 42.373 -4.93769 0.959221 0
M  V30 495 H 42.073 -5.22313 2.69189 0
M  V30 496 H 43.597 -5.7866 1.94898 0
M  V30 497 H 45.011 -4.36307 3.719 0
M  V30 498 H 43.408 -4.03718 4.43995 0
M  V30 499 H 44.478 -2.68134 4.0402 0
M  V30 500 N 45.8211 -1.22559 -0.990812 0
M  V30 501 C 47.0681 -1.05141 -1.73065 0
M  V30 502 C 47.3961 0.413191 -1.9006 0
M  V30 503 O 46.6511 1.32257 -1.44245 0
M  V30 504 C 46.9501 -1.71011 -3.13831 0
M  V30 505 C 46.6161 -3.20911 -3.16745 0
M  V30 506 C 45.2781 -3.61812 -3.17247 0
M  V30 507 C 47.6301 -4.16846 -3.12872 0
M  V30 508 C 44.9581 -4.97127 -3.1158 0
M  V30 509 C 47.3101 -5.5214 -3.08746 0
M  V30 510 C 45.9741 -5.92419 -3.07565 0
M  V30 511 H 45.2441 -0.384738 -0.633291 0
M  V30 512 H 47.8911 -1.5235 -1.16025 0
M  V30 513 H 46.1961 -1.16133 -3.74193 0
M  V30 514 H 47.8931 -1.55023 -3.69823 0
M  V30 515 H 44.4831 -2.88344 -3.17105 0
M  V30 516 H 48.6671 -3.86263 -3.11632 0
M  V30 517 H 43.9231 -5.27562 -3.09012 0
M  V30 518 H 48.0971 -6.26201 -3.04705 0
M  V30 519 H 45.7241 -6.97236 -3.02929 0
M  V30 520 N 47.2992 1.18797 -1.03562 0
M  V30 521 C 48.5292 1.92319 -0.754773 0
M  V30 522 C 48.9372 1.7612 0.691248 0
M  V30 523 O 48.2802 1.08491 1.48241 0
M  V30 524 C 48.3422 3.44284 -1.03484 0
M  V30 525 C 48.0062 3.84258 -2.47376 0
M  V30 526 C 49.0032 3.88459 -3.45537 0
M  V30 527 C 46.6882 4.15701 -2.81954 0
M  V30 528 C 48.6822 4.23545 -4.76328 0
M  V30 529 C 46.3692 4.50458 -4.12954 0
M  V30 530 C 47.3672 4.54356 -5.09951 0
M  V30 531 O 47.0552 4.88305 -6.38603 0
M  V30 532 H 46.7872 0.617527 -0.275021 0
M  V30 533 H 49.3412 1.51683 -1.38497 0
M  V30 534 H 47.5712 3.85135 -0.347513 0
M  V30 535 H 49.2602 3.99049 -0.7426 0
M  V30 536 H 50.0262 3.6431 -3.20162 0
M  V30 537 H 45.9052 4.11847 -2.0713 0
M  V30 538 H 49.4492 4.26502 -5.52035 0
M  V30 539 H 45.3462 4.74067 -4.38099 0
M  V30 540 H 46.1142 5.06227 -6.43177 0
M  V30 541 N 48.7773 0.814389 1.34928 0
M  V30 542 C 49.7073 0.244827 2.32213 0
M  V30 543 C 50.6883 -0.634024 1.57842 0
M  V30 544 O 51.8733 -0.562676 1.8587 0
M  V30 545 C 49.0033 -0.601106 3.42058 0
M  V30 546 C 47.9573 0.179896 4.27622 0
M  V30 547 C 47.2833 -0.788237 5.28858 0
M  V30 548 C 48.5833 1.38329 5.03649 0
M  V30 549 H 50.2773 1.05763 2.80097 0
M  V30 550 H 47.8233 0.510029 1.34665 0
M  V30 551 H 49.7763 -1.00968 4.09125 0
M  V30 552 H 48.5003 -1.44688 2.92802 0
M  V30 553 H 47.1593 0.569739 3.62146 0
M  V30 554 H 46.8073 -1.62973 4.75866 0
M  V30 555 H 46.5073 -0.269942 5.8698 0
M  V30 556 H 48.0313 -1.19485 5.98795 0
M  V30 557 H 49.4453 1.04918 5.63618 0
M  V30 558 H 47.8423 1.83662 5.71304 0
M  V30 559 H 48.9123 2.16592 4.33839 0
M  V30 560 N 50.2554 -1.46986 0.568584 0
M  V30 561 C 51.4834 -2.0683 0.0539956 0
M  V30 562 C 51.8984 -1.41953 -1.24478 0
M  V30 563 O 51.2554 -0.519933 -1.74937 0
M  V30 564 C 51.3064 -3.61254 -0.133362 0
M  V30 565 O 51.0274 -4.237 1.11399 0
M  V30 566 C 52.5284 -4.37992 -0.683927 0
M  V30 567 H 49.7484 -0.669058 0.0510141 0
M  V30 568 H 52.2924 -1.88824 0.785234 0
M  V30 569 H 50.4474 -3.78735 -0.81477 0
M  V30 570 H 50.8614 -5.16388 0.91888 0
M  V30 571 H 52.3354 -5.46684 -0.764263 0
M  V30 572 H 52.8124 -4.05058 -1.69778 0
M  V30 573 H 53.4184 -4.25283 -0.0378494 0
M  V30 574 N 51.7335 -0.305618 -1.54608 0
M  V30 575 C 53.0105 0.355652 -1.92339 0
M  V30 576 C 53.3905 1.71324 -1.23335 0
M  V30 577 O 52.7385 2.25473 -0.370702 0
M  V30 578 C 52.9485 0.46572 -3.45879 0
M  V30 579 C 54.2965 0.734426 -4.182 0
M  V30 580 O 55.3205 0.54935 -3.51938 0
M  V30 581 O 54.1795 1.09024 -5.35515 0
M  V30 582 H 51.2735 0.199666 -0.802535 0
M  V30 583 H 53.8195 -0.354017 -1.65966 0
M  V30 584 H 52.5915 -0.488461 -3.88239 0
M  V30 585 H 52.2145 1.22367 -3.78301 0
M  V30 586 N 53.2116 1.57565 -0.0334293 0
M  V30 587 C 54.4516 1.93844 0.648379 0
M  V30 588 C 54.8156 0.910387 1.69044 0
M  V30 589 O 56.0166 1.15952 2.42505 0
M  V30 590 C 54.2876 3.35017 1.24492 0
M  V30 591 S 55.8466 3.93229 1.94721 0
M  V30 592 H 52.6646 0.678231 0.213364 0
M  V30 593 H 55.2666 1.95254 -0.0981253 0
M  V30 594 H 53.9706 4.07652 0.474128 0
M  V30 595 H 53.5016 3.37061 2.02864 0
M  V30 596 H 55.5166 3.77014 3.22606 0
M  V30 597 N 54.6897 -0.239769 1.55765 0
M  V30 598 C 55.9377 -0.964892 1.77579 0
M  V30 599 C 56.2587 -1.85582 0.598699 0
M  V30 600 O 55.5287 -1.92075 -0.385226 0
M  V30 601 H 54.1087 -0.359265 0.654933 0
M  V30 602 H 56.7707 -0.256001 1.93211 0
M  V30 603 H 55.8667 -1.58243 2.69009 0
M  V30 604 N 56.1678 -1.49265 -0.50573 0
M  V30 605 C 57.0978 -1.68495 -1.61653 0
M  V30 606 C 58.0788 -0.53366 -1.61512 0
M  V30 607 O 59.2638 -0.76897 -1.78327 0
M  V30 608 C 56.3938 -1.74709 -3.00157 0
M  V30 609 C 55.3478 -2.89581 -3.15162 0
M  V30 610 C 54.6738 -2.80903 -4.5497 0
M  V30 611 C 55.9738 -4.30578 -2.95634 0
M  V30 612 H 57.6678 -2.61493 -1.45814 0
M  V30 613 H 55.2138 -1.25838 -0.70005 0
M  V30 614 H 57.1668 -1.86748 -3.77761 0
M  V30 615 H 55.8908 -0.783067 -3.17074 0
M  V30 616 H 54.5498 -2.77136 -2.39982 0
M  V30 617 H 54.1978 -1.82419 -4.68756 0
M  V30 618 H 53.8978 -3.57999 -4.65951 0
M  V30 619 H 55.4218 -2.94944 -5.34641 0
M  V30 620 H 56.8358 -4.4373 -3.63011 0
M  V30 621 H 55.2328 -5.0886 -3.18091 0
M  V30 622 H 56.3028 -4.45352 -1.91806 0
M  V30 623 N 57.6459 0.756429 -1.3826 0
M  V30 624 C 58.8739 1.54565 -1.3754 0
M  V30 625 C 59.2889 1.88767 0.0355331 0
M  V30 626 O 58.6459 1.52572 1.0014 0
M  V30 627 C 58.6969 2.84654 -2.22833 0
M  V30 628 O 58.4179 2.51912 -3.5843 0
M  V30 629 C 59.9189 3.78807 -2.30261 0
M  V30 630 H 57.1389 0.478353 -0.470553 0
M  V30 631 H 59.6829 0.936381 -1.81803 0
M  V30 632 H 57.8379 3.41965 -1.8204 0
M  V30 633 H 58.2519 3.35325 -4.03308 0
M  V30 634 H 59.7259 4.67045 -2.94233 0
M  V30 635 H 60.2029 4.19038 -1.31545 0
M  V30 636 H 60.8089 3.2742 -2.71433 0
M  V30 637 N 59.124 1.23083 0.984299 0
M  V30 638 C 60.401 0.9689 1.69917 0
M  V30 639 C 60.781 -0.513604 2.04757 0
M  V30 640 O 60.129 -1.48383 1.73767 0
M  V30 641 C 60.339 1.87518 2.94343 0
M  V30 642 C 61.687 2.13636 3.6694 0
M  V30 643 O 62.711 1.85036 3.04368 0
M  V30 644 O 61.57 2.62119 4.79537 0
M  V30 645 H 58.664 0.365095 0.742048 0
M  V30 646 H 61.21 1.34107 1.03987 0
M  V30 647 H 59.982 2.87756 2.65164 0
M  V30 648 H 59.605 1.50514 3.6801 0
M  V30 649 N 60.6021 -1.18246 1.0419 0
M  V30 650 C 61.8301 -1.92195 0.766072 0
M  V30 651 C 62.2451 -1.76247 -0.676933 0
M  V30 652 O 61.6021 -1.09293 -1.46155 0
M  V30 653 C 61.6531 -3.43568 1.12442 0
M  V30 654 O 61.3741 -3.59015 2.51078 0
M  V30 655 C 62.8751 -4.34613 0.873275 0
M  V30 656 H 60.0951 -0.610114 0.279288 0
M  V30 657 H 62.6391 -1.50007 1.38989 0
M  V30 658 H 60.7941 -3.8354 0.545542 0
M  V30 659 H 61.2081 -4.5273 2.64831 0
M  V30 660 H 62.6821 -5.39374 1.17385 0
M  V30 661 H 63.1591 -4.38781 -0.191909 0
M  V30 662 H 63.7651 -4.00341 1.43551 0
M  V30 663 N 62.0802 -0.821533 -1.34494 0
M  V30 664 C 62.9902 -0.244355 -2.33324 0
M  V30 665 C 64.0062 0.620527 -1.62559 0
M  V30 666 O 65.1822 0.528754 -1.94335 0
M  V30 667 C 62.2472 0.585368 -3.41723 0
M  V30 668 C 61.3082 -0.301752 -4.28238 0
M  V30 669 C 60.5412 0.488466 -5.3146 0
M  V30 670 O 60.7642 1.72186 -5.4379 0
M  V30 671 O 59.6982 -0.12848 -6.01763 0
M  V30 672 H 63.5242 -1.06231 -2.84515 0
M  V30 673 H 61.1092 -0.583645 -1.37528 0
M  V30 674 H 62.9912 1.05747 -4.07916 0
M  V30 675 H 61.6662 1.38068 -2.92778 0
M  V30 676 H 60.5732 -0.821315 -3.64973 0
M  V30 677 H 61.9062 -1.06138 -4.8062 0
M  V30 678 N 63.5583 1.46682 -0.576371 0
M  V30 679 C 64.4883 2.33028 0.148397 0
M  V30 680 C 65.4693 1.44961 0.889956 0
M  V30 681 O 66.6543 1.73789 0.866662 0
M  V30 682 C 63.7843 3.27117 1.1667 0
M  V30 683 C 62.7383 4.24575 0.540386 0
M  V30 684 C 62.0643 5.08126 1.6647 0
M  V30 685 C 63.3643 5.19722 -0.518331 0
M  V30 686 H 65.0583 2.93875 -0.572509 0
M  V30 687 H 62.6043 1.41315 -0.276768 0
M  V30 688 H 64.5573 3.86374 1.68204 0
M  V30 689 H 63.2813 2.64364 1.9178 0
M  V30 690 H 61.9403 3.66571 0.0461769 0
M  V30 691 H 61.5883 4.41762 2.40531 0
M  V30 692 H 61.2883 5.74122 1.25131 0
M  V30 693 H 62.8123 5.70246 2.18293 0
M  V30 694 H 64.2263 5.73232 -0.0883058 0
M  V30 695 H 62.6233 5.94026 -0.851679 0
M  V30 696 H 63.6933 4.64037 -1.40703 0
M  V30 697 N 65.0364 0.313813 1.54444 0
M  V30 698 C 65.9834 -0.55655 2.23989 0
M  V30 699 C 66.9534 -1.11943 1.22711 0
M  V30 700 O 68.1384 -1.16158 1.51367 0
M  V30 701 C 65.2784 -1.71635 2.99392 0
M  V30 702 C 64.3914 -1.18364 4.15468 0
M  V30 703 C 63.5264 -2.30834 4.78424 0
M  V30 704 C 62.5654 -1.74762 5.86622 0
M  V30 705 N 61.7024 -2.80855 6.43479 0
M  V30 706 H 66.5424 0.0430893 2.97969 0
M  V30 707 H 64.0794 0.0330359 1.47063 0
M  V30 708 H 66.0374 -2.39868 3.41349 0
M  V30 709 H 64.6674 -2.28742 2.27765 0
M  V30 710 H 63.7194 -0.393163 3.78363 0
M  V30 711 H 65.0314 -0.733262 4.93381 0
M  V30 712 H 64.1854 -3.0699 5.23299 0
M  V30 713 H 62.9244 -2.79204 3.99871 0
M  V30 714 H 61.9294 -0.970995 5.41158 0
M  V30 715 H 63.1544 -1.2728 6.67066 0
M  V30 716 H 61.1004 -3.28535 5.67804 0
M  V30 717 H 61.0174 -2.40351 7.16776 0
M  V30 718 H 62.2854 -3.5687 6.93011 0
M  V30 719 N 66.5145 -1.57545 0.0417849 0
M  V30 720 C 67.7395 -1.97035 -0.647455 0
M  V30 721 C 68.1645 -0.918775 -1.64135 0
M  V30 722 O 67.5225 0.119006 -1.80909 0
M  V30 723 C 67.5705 -3.35609 -1.31905 0
M  V30 724 O 66.6745 -3.3287 -2.43457 0
M  V30 725 H 66.0155 -0.64211 -0.169086 0
M  V30 726 H 68.5455 -2.04318 0.107399 0
M  V30 727 H 68.5555 -3.72126 -1.67291 0
M  V30 728 H 67.2305 -4.11685 -0.590586 0
M  V30 729 H 65.8075 -3.08087 -2.10088 0
M  V30 730 N 67.9926 0.231505 -1.5589 0
M  V30 731 C 68.9556 1.27028 -1.90779 0
M  V30 732 C 69.9556 1.40308 -0.785507 0
M  V30 733 O 71.1456 1.38744 -1.05336 0
M  V30 734 C 68.2776 2.64566 -2.14983 0
M  V30 735 H 69.4706 0.973017 -2.83677 0
M  V30 736 H 67.0236 0.471486 -1.49019 0
M  V30 737 H 67.7586 2.99406 -1.24604 0
M  V30 738 H 67.5436 2.56305 -2.96732 0
M  V30 739 H 69.0336 3.39543 -2.43105 0
M  V30 740 N 69.4707 1.49531 0.497807 0
M  V30 741 C 70.4177 1.66436 1.59899 0
M  V30 742 C 71.3877 0.505793 1.58212 0
M  V30 743 O 72.5727 0.733202 1.7615 0
M  V30 744 C 69.7127 1.7399 2.98029 0
M  V30 745 C 68.8257 3.01172 3.09708 0
M  V30 746 C 67.9607 2.99686 4.38591 0
M  V30 747 C 66.9997 4.21434 4.43914 0
M  V30 748 N 66.1367 4.1784 5.64229 0
M  V30 749 H 70.9767 2.60459 1.44793 0
M  V30 750 H 68.5137 1.29137 0.704423 0
M  V30 751 H 70.4717 1.76352 3.78095 0
M  V30 752 H 69.1017 0.834301 3.11832 0
M  V30 753 H 68.1537 3.08408 2.22685 0
M  V30 754 H 69.4657 3.91165 3.09502 0
M  V30 755 H 68.6197 3.00628 5.2698 0
M  V30 756 H 67.3587 2.07477 4.41367 0
M  V30 757 H 66.3637 4.20733 3.53926 0
M  V30 758 H 67.5887 5.14839 4.42851 0
M  V30 759 H 65.5347 3.28469 5.67841 0
M  V30 760 H 65.4517 5.01571 5.65652 0
M  V30 761 H 66.7197 4.22889 6.54817 0
M  V30 762 N 70.9488 -0.749086 1.3866 0
M  V30 763 C 72.2258 -1.4992 1.25632 0
M  V30 764 C 72.6058 -2.10633 -0.140317 0
M  V30 765 O 71.9538 -1.97437 -1.15025 0
M  V30 766 C 72.1638 -2.56195 2.36992 0
M  V30 767 C 73.5118 -3.22972 2.75634 0
M  V30 768 O 74.5358 -2.66502 2.36337 0
M  V30 769 O 73.3948 -4.25122 3.43415 0
M  V30 770 H 70.4888 -0.665067 0.491544 0
M  V30 771 H 73.0348 -0.784113 1.50498 0
M  V30 772 H 71.8068 -2.09612 3.30422 0
M  V30 773 H 71.4298 -3.35279 2.13714 0
M  V30 774 N 72.4269 -1.23603 -0.977757 0
M  V30 775 C 73.3569 -1.04401 -2.0886 0
M  V30 776 C 74.3379 0.0399052 -1.70053 0
M  V30 777 O 75.5229 -0.125246 -1.93796 0
M  V30 778 C 72.6529 -0.637269 -3.41403 0
M  V30 779 C 71.6069 -1.66883 -3.94124 0
M  V30 780 C 70.9329 -1.11745 -5.22893 0
M  V30 781 C 72.2329 -3.06247 -4.23096 0
M  V30 782 H 73.9269 -1.97316 -2.25182 0
M  V30 783 H 71.4729 -0.950096 -1.08209 0
M  V30 784 H 73.4259 -0.48998 -4.18542 0
M  V30 785 H 72.1499 0.327557 -3.24953 0
M  V30 786 H 70.8089 -1.80416 -3.19133 0
M  V30 787 H 70.4569 -0.143527 -5.02795 0
M  V30 788 H 70.1569 -1.80672 -5.59134 0
M  V30 789 H 71.6809 -0.982067 -6.02651 0
M  V30 790 H 73.0949 -2.96001 -4.90975 0
M  V30 791 H 71.4919 -3.72436 -4.70544 0
M  V30 792 H 72.5619 -3.55041 -3.30263 0
M  V30 793 N 73.905 1.17692 -1.04816 0
M  V30 794 C 75.151 1.88137 -0.75711 0
M  V30 795 C 75.484 1.80604 0.713841 0
M  V30 796 O 74.759 1.21146 1.52164 0
M  V30 797 C 75.042 3.38318 -1.2334 0
M  V30 798 C 74.895 3.54622 -2.76701 0
M  V30 799 C 76.214 4.32214 -0.829415 0
M  V30 800 H 73.333 0.683163 -0.27651 0
M  V30 801 H 75.975 1.38424 -1.30149 0
M  V30 802 H 74.125 3.80787 -0.770286 0
M  V30 803 H 75.797 3.21194 -3.31107 0
M  V30 804 H 74.04 2.97026 -3.16161 0
M  V30 805 H 74.711 4.60028 -3.05088 0
M  V30 806 H 77.187 3.97565 -1.22805 0
M  V30 807 H 76.063 5.35838 -1.19033 0
M  V30 808 H 76.324 4.41294 0.266891 0
M  V30 809 N 75.3831 0.828654 1.34056 0
M  V30 810 C 76.6321 0.415828 1.97367 0
M  V30 811 C 76.9451 -1.02796 1.6641 0
M  V30 812 O 78.1511 -1.54497 2.23255 0
M  V30 813 C 76.6071 0.692601 3.53173 0
M  V30 814 C 76.2151 2.15038 3.93017 0
M  V30 815 C 77.9591 0.346222 4.23086 0
M  V30 816 C 75.8661 2.37174 5.41758 0
M  V30 817 H 74.7961 0.151755 0.738571 0
M  V30 818 H 77.4471 1.01581 1.52819 0
M  V30 819 H 75.8291 0.0223764 3.95994 0
M  V30 820 H 77.0031 2.86024 3.61285 0
M  V30 821 H 75.3181 2.45875 3.36057 0
M  V30 822 H 77.9151 0.48937 5.32456 0
M  V30 823 H 78.2581 -0.709842 4.10204 0
M  V30 824 H 78.7911 0.971258 3.85761 0
M  V30 825 H 75.5301 3.41308 5.59633 0
M  V30 826 H 75.0501 1.70738 5.74986 0
M  V30 827 H 76.7291 2.19818 6.08514 0
M  V30 828 N 76.8612 -1.46375 0.584142 0
M  V30 829 C 78.1382 -1.956 0.0033388 0
M  V30 830 C 78.5182 -1.52679 -1.45782 0
M  V30 831 O 77.8662 -0.77816 -2.14842 0
M  V30 832 C 78.0762 -3.48551 0.176891 0
M  V30 833 C 79.4242 -4.24576 0.0454609 0
M  V30 834 O 80.4482 -3.56043 0.105801 0
M  V30 835 O 79.3072 -5.46427 -0.0890376 0
M  V30 836 H 76.4012 -0.825547 -0.0490066 0
M  V30 837 H 78.9472 -1.56652 0.65256 0
M  V30 838 H 77.7192 -3.72683 1.1926 0
M  V30 839 H 77.3422 -3.94332 -0.508695 0
M  V30 840 N 78.3393 -0.321999 -1.54275 0
M  V30 841 C 79.5863 0.281044 -2.0054 0
M  V30 842 C 79.9143 1.52265 -1.21019 0
M  V30 843 O 79.1693 1.93687 -0.279982 0
M  V30 844 C 79.4683 0.661769 -3.5122 0
M  V30 845 C 79.1343 -0.480482 -4.48333 0
M  V30 846 C 77.7963 -0.794005 -4.74604 0
M  V30 847 C 80.1483 -1.24783 -5.06042 0
M  V30 848 C 77.4763 -1.87763 -5.55844 0
M  V30 849 C 79.8283 -2.32153 -5.88462 0
M  V30 850 C 78.4923 -2.64089 -6.13036 0
M  V30 851 H 77.7623 0.102841 -0.733829 0
M  V30 852 H 80.4093 -0.445453 -1.86247 0
M  V30 853 H 78.7143 1.46867 -3.63232 0
M  V30 854 H 80.4113 1.13989 -3.84457 0
M  V30 855 H 77.0013 -0.226039 -4.28004 0
M  V30 856 H 81.1853 -1.01887 -4.85729 0
M  V30 857 H 76.4413 -2.12954 -5.73115 0
M  V30 858 H 80.6153 -2.92057 -6.32199 0
M  V30 859 H 78.2423 -3.48185 -6.75775 0
M  V30 860 N 79.8174 1.5752 -0.0501392 0
M  V30 861 C 81.0644 1.9265 0.623874 0
M  V30 862 C 81.3924 0.928411 1.70912 0
M  V30 863 O 80.6474 -0.0594525 1.9561 0
M  V30 864 C 80.9464 3.34467 1.25963 0
M  V30 865 C 80.6124 4.49883 0.302689 0
M  V30 866 C 79.2744 4.81184 0.0393636 0
M  V30 867 C 81.6264 5.20002 -0.353205 0
M  V30 868 C 78.9544 5.79951 -0.887308 0
M  V30 869 C 81.3064 6.1976 -1.26806 0
M  V30 870 C 79.9704 6.49491 -1.54007 0
M  V30 871 H 79.2404 0.704957 0.228292 0
M  V30 872 H 81.8874 1.91146 -0.116398 0
M  V30 873 H 80.1924 3.32333 2.07514 0
M  V30 874 H 81.8894 3.58928 1.78806 0
M  V30 875 H 78.4794 4.25457 0.518109 0
M  V30 876 H 82.6634 4.96033 -0.162854 0
M  V30 877 H 77.9194 6.01322 -1.10553 0
M  V30 878 H 82.0934 6.73205 -1.78236 0
M  V30 879 H 79.7204 7.25837 -2.25976 0
M  V30 880 N 81.2955 -0.223234 1.56011 0
M  V30 881 C 82.2055 -1.29766 1.95443 0
M  V30 882 C 83.2215 -1.51373 0.858028 0
M  V30 883 O 84.3975 -1.64536 1.16146 0
M  V30 884 C 81.4625 -2.62772 2.26167 0
M  V30 885 C 80.5235 -2.49482 3.49367 0
M  V30 886 C 79.7565 -3.76145 3.78616 0
M  V30 887 O 79.9795 -4.79087 3.09568 0
M  V30 888 O 78.9135 -3.73358 4.72109 0
M  V30 889 H 82.7395 -0.99309 2.87004 0
M  V30 890 H 80.3245 -0.425958 1.43199 0
M  V30 891 H 82.2065 -3.41327 2.47131 0
M  V30 892 H 80.8815 -2.92913 1.37781 0
M  V30 893 H 79.7885 -1.69133 3.33684 0
M  V30 894 H 81.1215 -2.2428 4.38131 0
M  V30 895 N 82.7736 -1.49793 -0.48987 0
M  V30 896 C 83.7236 -1.63673 -1.5873 0
M  V30 897 C 84.7076 -0.491956 -1.53195 0
M  V30 898 O 85.8996 -0.745461 -1.60536 0
M  V30 899 C 83.0286 -1.71689 -2.97284 0
M  V30 900 C 82.1146 -2.91781 -3.07774 0
M  V30 901 N 82.5056 -4.15714 -2.88124 0
M  V30 902 C 80.8036 -2.89949 -3.38889 0
M  V30 903 C 81.5046 -4.965 -3.03088 0
M  V30 904 N 80.4806 -4.30083 -3.3246 0
M  V30 905 H 84.2826 -2.57204 -1.42208 0
M  V30 906 H 81.7966 -1.46719 -0.69623 0
M  V30 907 H 83.7936 -1.79732 -3.76168 0
M  V30 908 H 82.4536 -0.793024 -3.14867 0
M  V30 909 H 83.4646 -4.45515 -2.64077 0
M  V30 910 H 80.1416 -2.06987 -3.62578 0
M  V30 911 H 81.5316 -6.04991 -2.92294 0
M  V30 912 N 84.2517 0.741722 -1.39055 0
M  V30 913 C 85.4997 1.49818 -1.35643 0
M  V30 914 C 85.8207 1.94938 0.0491642 0
M  V30 915 O 85.0907 1.68505 0.999141 0
M  V30 916 H 83.6707 0.555755 -0.499144 0
M  V30 917 H 86.3327 0.880957 -1.73854 0
M  V30 918 H 85.4287 2.38348 -2.01486 0
M  V30 919 N 85.7298 1.2412 0.971189 0
M  V30 920 C 86.9548 1.10667 1.75407 0
M  V30 921 C 87.3798 -0.337048 1.85056 0
M  V30 922 O 86.7378 -1.24396 1.31892 0
M  V30 923 C 86.7858 1.74726 3.15441 0
M  V30 924 O 85.8898 1.01566 3.99697 0
M  V30 925 H 85.2308 0.387341 0.539317 0
M  V30 926 H 87.7608 1.64358 1.2185 0
M  V30 927 H 87.7708 1.80341 3.6598 0
M  V30 928 H 86.4458 2.79773 3.07734 0
M  V30 929 H 85.0228 1.03713 3.58187 0
M  V30 930 N 87.2079 -1.17134 1.05439 0
M  V30 931 C 88.1179 -2.24878 0.668365 0
M  V30 932 C 89.1339 -1.71186 -0.311687 0
M  V30 933 O 90.3099 -2.00738 -0.163161 0
M  V30 934 C 87.3749 -3.46662 0.051648 0
M  V30 935 C 86.4359 -4.15429 1.08246 0
M  V30 936 C 85.6689 -5.31399 0.495082 0
M  V30 937 O 85.8919 -5.66153 -0.694743 0
M  V30 938 O 84.8259 -5.89187 1.23056 0
M  V30 939 H 88.6519 -2.60189 1.56637 0
M  V30 940 H 86.2369 -1.24482 0.826104 0
M  V30 941 H 88.1189 -4.20394 -0.290966 0
M  V30 942 H 86.7939 -3.13142 -0.819971 0
M  V30 943 H 85.7009 -3.43704 1.47711 0
M  V30 944 H 87.0339 -4.52982 1.92532 0
M  V30 945 N 88.686 -0.835752 -1.33615 0
M  V30 946 C 89.649 -0.272 -2.2758 0
M  V30 947 C 90.649 0.557487 -1.50827 0
M  V30 948 O 91.839 0.37173 -1.70188 0
M  V30 949 C 88.971 0.617173 -3.35267 0
M  V30 950 H 90.164 -1.10111 -2.78954 0
M  V30 951 H 87.717 -0.608594 -1.43965 0
M  V30 952 H 88.452 1.46884 -2.89129 0
M  V30 953 H 88.237 0.0237066 -3.92093 0
M  V30 954 H 89.727 1.005 -4.05326 0
M  V30 955 N 90.1641 1.46063 -0.591896 0
M  V30 956 C 91.0741 2.34192 0.13831 0
M  V30 957 C 92.0901 1.50305 0.876608 0
M  V30 958 O 93.2661 1.8315 0.837728 0
M  V30 959 C 90.3311 3.27656 1.13326 0
M  V30 960 C 89.3921 4.27445 0.39863 0
M  V30 961 C 88.6251 5.16443 1.34618 0
M  V30 962 O 88.8481 5.08553 2.58321 0
M  V30 963 O 87.7821 5.95843 0.851768 0
M  V30 964 H 91.6081 2.98002 -0.58552 0
M  V30 965 H 89.1931 1.45188 -0.352239 0
M  V30 966 H 91.0751 3.85291 1.70671 0
M  V30 967 H 89.7501 2.6643 1.83839 0
M  V30 968 H 88.6571 3.73471 -0.216895 0
M  V30 969 H 89.9901 4.91482 -0.265709 0
M  V30 970 N 91.6422 0.330177 1.54103 0
M  V30 971 C 92.5892 -0.532762 2.24567 0
M  V30 972 C 93.5592 -1.10635 1.23892 0
M  V30 973 O 94.7442 -1.14546 1.5259 0
M  V30 974 C 91.8842 -1.6845 3.01195 0
M  V30 975 C 90.9972 -1.13951 4.167 0
M  V30 976 C 90.1322 -2.25746 4.80845 0
M  V30 977 C 89.1712 -1.6853 5.88442 0
M  V30 978 N 88.3082 -2.74014 6.46421 0
M  V30 979 H 93.1482 0.0746905 2.97906 0
M  V30 980 H 90.6852 0.048632 1.4702 0
M  V30 981 H 92.6432 -2.36234 3.43874 0
M  V30 982 H 91.2732 -2.26314 2.30178 0
M  V30 983 H 90.3252 -0.35301 3.78758 0
M  V30 984 H 91.6372 -0.680892 4.94131 0
M  V30 985 H 90.7912 -3.01422 5.26526 0
M  V30 986 H 89.5302 -2.74947 4.0281 0
M  V30 987 H 88.5352 -0.913543 5.42157 0
M  V30 988 H 89.7602 -1.20198 6.68378 0
M  V30 989 H 87.7062 -3.22494 5.71256 0
M  V30 990 H 87.6232 -2.32735 7.19285 0
M  V30 991 H 88.8912 -3.49499 6.96757 0
M  V30 992 N 93.1203 -1.57491 0.0584922 0
M  V30 993 C 94.5363 -1.56792 -0.298091 0
M  V30 994 C 94.7363 -1.06679 -1.70944 0
M  V30 995 O 93.7923 -0.726672 -2.41818 0
M  V30 996 C 95.1053 -3.00461 -0.119879 0
M  V30 997 C 96.6533 -3.1242 -0.190428 0
M  V30 998 C 97.1283 -4.57982 -0.0406567 0
M  V30 999 N 98.6193 -4.63099 -0.0966958 0
M  V30 1000 C 99.3543 -5.734 -0.00502943 0
M  V30 1001 N 98.8503 -6.9266 0.139402 0
M  V30 1002 N 100.643 -5.62067 -0.0611391 0
M  V30 1003 H 92.7943 -1.88386 0.98105 0
M  V30 1004 H 95.0573 -0.867865 0.381463 0
M  V30 1005 H 94.7633 -3.41187 0.85349 0
M  V30 1006 H 94.6373 -3.66843 -0.877833 0
M  V30 1007 H 97.0243 -2.71589 -1.15427 0
M  V30 1008 H 97.1053 -2.48702 0.598405 0
M  V30 1009 H 96.7493 -4.995 0.919897 0
M  V30 1010 H 96.6793 -5.19715 -0.848727 0
M  V30 1011 H 99.1703 -3.77331 -0.207277 0
M  V30 1012 H 99.4833 -7.72536 0.201855 0
M  V30 1013 H 97.8283 -6.94781 0.174586 0
M  V30 1014 H 101.019 -4.67782 -0.172583 0
M  V30 1015 H 101.192 -6.47999 0.0137562 0
M  V30 1016 N 94.5984 0.214957 -1.56127 0
M  V30 1017 C 95.5614 1.24997 -1.92116 0
M  V30 1018 C 96.5614 1.39467 -0.800344 0
M  V30 1019 O 97.7514 1.37619 -1.06802 0
M  V30 1020 C 94.8834 2.62271 -2.17777 0
M  V30 1021 H 96.0764 0.942875 -2.84693 0
M  V30 1022 H 93.6294 0.455654 -1.49511 0
M  V30 1023 H 94.3644 2.98068 -1.27773 0
M  V30 1024 H 94.1494 2.53143 -2.99434 0
M  V30 1025 H 95.6394 3.36946 -2.46693 0
M  V30 1026 N 96.0765 1.50051 0.48192 0
M  V30 1027 C 97.3225 1.60736 1.2366 0
M  V30 1028 C 97.6555 0.301786 1.91841 0
M  V30 1029 O 96.9305 -0.696025 1.8162 0
M  V30 1030 C 97.2135 2.78009 2.28874 0
M  V30 1031 C 97.0665 4.18416 1.65069 0
M  V30 1032 C 98.3855 2.90867 3.30279 0
M  V30 1033 H 95.5045 0.585031 0.448228 0
M  V30 1034 H 98.1465 1.82402 0.531946 0
M  V30 1035 H 96.2965 2.59667 2.88973 0
M  V30 1036 H 97.9685 4.48322 1.0865 0
M  V30 1037 H 96.2115 4.23177 0.954148 0
M  V30 1038 H 96.8825 4.96381 2.41474 0
M  V30 1039 H 99.3585 3.07623 2.80191 0
M  V30 1040 H 98.2345 3.74566 4.01238 0
M  V30 1041 H 98.4955 2.01021 3.93755 0
M  V30 1042 N 97.5546 -0.734337 1.39446 0
M  V30 1043 C 98.7826 -1.52358 1.39981 0
M  V30 1044 C 99.1976 -1.88799 -0.0054975 0
M  V30 1045 O 98.5546 -1.54146 -0.976998 0
M  V30 1046 C 98.6056 -2.81072 2.27333 0
M  V30 1047 O 98.3266 -2.46178 3.62392 0
M  V30 1048 C 99.8276 -3.75096 2.36259 0
M  V30 1049 H 97.0476 -0.470806 0.478103 0
M  V30 1050 H 99.5916 -0.907339 1.83269 0
M  V30 1051 H 97.7466 -3.39026 1.87457 0
M  V30 1052 H 98.1606 -3.28866 4.08592 0
M  V30 1053 H 99.6346 -4.62305 3.01626 0
M  V30 1054 H 100.112 -4.16892 1.38194 0
M  V30 1055 H 100.718 -3.23061 2.76608 0
M  V30 1056 N 99.0327 -1.24633 -0.964593 0
M  V30 1057 C 100.258 -1.11596 -1.74818 0
M  V30 1058 C 100.683 0.32723 -1.85232 0
M  V30 1059 O 100.041 1.23695 -1.32549 0
M  V30 1060 C 100.089 -1.76397 -3.1451 0
M  V30 1061 O 99.1927 -1.03685 -3.99153 0
M  V30 1062 H 98.5337 -0.390196 -0.537255 0
M  V30 1063 H 101.064 -1.65002 -1.20977 0
M  V30 1064 H 101.074 -1.8228 -3.65018 0
M  V30 1065 H 99.7487 -2.81401 -3.06246 0
M  V30 1066 H 98.3257 -1.05611 -3.57632 0
M  V30 1067 N 100.511 1.16574 -1.06058 0
M  V30 1068 C 101.922 1.68662 -0.800632 0
M  V30 1069 C 102.273 1.84184 0.67608 0
M  V30 1070 O 101.398 1.53568 1.52466 0
M  V30 1071 C 101.993 3.06356 -1.44676 0
M  V30 1072 C 100.552 3.55575 -1.23465 0
M  V30 1073 C 99.6988 2.31616 -1.52477 0
M  V30 1074 H 102.65 1.00969 -1.22438 0
M  V30 1075 H 102.671 3.70636 -0.860788 0
M  V30 1076 H 102.183 2.95027 -2.52152 0
M  V30 1077 H 100.284 3.72167 -0.179527 0
M  V30 1078 H 100.397 4.37812 -1.94571 0
M  V30 1079 H 98.7608 2.36512 -0.945209 0
M  V30 1080 H 99.5438 2.22887 -2.61106 0
M  V30 1081 N 101.989 0.842826 1.3317 0
M  V30 1082 C 103.235 0.441099 1.97945 0
M  V30 1083 C 103.568 -0.998024 1.66593 0
M  V30 1084 O 102.843 -1.69839 0.947898 0
M  V30 1085 C 103.126 0.666841 3.53872 0
M  V30 1086 C 102.979 2.15352 3.94897 0
M  V30 1087 C 104.298 0.115544 4.39948 0
M  V30 1088 H 101.417 0.161739 0.719034 0
M  V30 1089 H 104.059 1.05907 1.57746 0
M  V30 1090 H 102.209 0.140828 3.88245 0
M  V30 1091 H 103.881 2.7447 3.70761 0
M  V30 1092 H 102.124 2.63653 3.44484 0
M  V30 1093 H 102.795 2.26221 5.03516 0
M  V30 1094 H 105.271 0.565213 4.12243 0
M  V30 1095 H 104.147 0.303152 5.48062 0
M  V30 1096 H 104.408 -0.980935 4.3108 0
M  V30 1097 N 103.467 -1.45747 0.599634 0
M  V30 1098 C 104.878 -1.85853 0.177681 0
M  V30 1099 C 105.229 -1.50102 -1.26348 0
M  V30 1100 O 104.354 -0.923905 -1.95686 0
M  V30 1101 C 104.949 -3.37326 0.315688 0
M  V30 1102 C 103.508 -3.76365 -0.0515144 0
M  V30 1103 C 102.655 -2.69722 0.643822 0
M  V30 1104 H 105.606 -1.36661 0.806814 0
M  V30 1105 H 105.627 -3.77778 -0.454321 0
M  V30 1106 H 105.139 -3.63315 1.36468 0
M  V30 1107 H 103.24 -3.55993 -1.09999 0
M  V30 1108 H 103.353 -4.77916 0.336594 0
M  V30 1109 H 101.717 -2.54567 0.0822881 0
M  V30 1110 H 102.5 -2.98549 1.6948 0
M  V30 1111 N 104.945 -0.338344 -1.53925 0
M  V30 1112 C 106.173 0.261298 -2.05243 0
M  V30 1113 C 106.588 1.44625 -1.21363 0
M  V30 1114 O 105.945 1.80811 -0.247736 0
M  V30 1115 C 105.996 0.681412 -3.5502 0
M  V30 1116 O 105.717 -0.456414 -4.35716 0
M  V30 1117 C 107.218 1.34232 -4.22489 0
M  V30 1118 H 104.438 0.0513685 -0.669031 0
M  V30 1119 H 106.982 -0.488822 -1.98572 0
M  V30 1120 H 105.137 1.38148 -3.61931 0
M  V30 1121 H 105.551 -0.122564 -5.24357 0
M  V30 1122 H 107.025 1.58708 -5.28693 0
M  V30 1123 H 107.502 2.29426 -3.74514 0
M  V30 1124 H 108.108 0.684424 -4.19757 0
M  V30 1125 N 106.423 1.57458 -0.0668435 0
M  V30 1126 C 107.356 2.08033 0.93795 0
M  V30 1127 C 108.334 0.984321 1.29421 0
M  V30 1128 O 109.518 1.25736 1.40437 0
M  V30 1129 C 106.645 2.53388 2.24749 0
M  V30 1130 C 105.691 3.74376 2.04315 0
M  V30 1131 S 106.524 5.19303 1.30706 0
M  V30 1132 C 107.68 5.67986 2.62951 0
M  V30 1133 H 107.913 2.92935 0.50759 0
M  V30 1134 H 105.446 1.5371 0.145804 0
M  V30 1135 H 107.404 2.8018 3.00016 0
M  V30 1136 H 106.065 1.68763 2.64911 0
M  V30 1137 H 105.258 4.04083 3.01218 0
M  V30 1138 H 104.86 3.47931 1.37186 0
M  V30 1139 H 107.152 5.74528 3.5906 0
M  V30 1140 H 108.095 6.66955 2.3786 0
M  V30 1141 H 108.503 4.95781 2.69929 0
M  V30 1142 N 107.901 -0.206675 1.56239 0
M  V30 1143 C 109.317 -0.557025 1.49564 0
M  V30 1144 C 109.517 -1.86424 0.764735 0
M  V30 1145 O 108.573 -2.50584 0.310491 0
M  V30 1146 C 109.886 -0.622478 2.94186 0
M  V30 1147 C 111.434 -0.712099 3.04792 0
M  V30 1148 C 111.909 -0.808767 4.50803 0
M  V30 1149 N 113.4 -0.8726 4.54907 0
M  V30 1150 C 114.135 -0.967365 5.65181 0
M  V30 1151 N 113.631 -1.02515 6.85173 0
M  V30 1152 N 115.424 -1.00366 5.53067 0
M  V30 1153 H 107.575 0.650943 2.02179 0
M  V30 1154 H 109.838 0.230387 0.919579 0
M  V30 1155 H 109.544 0.268727 3.50672 0
M  V30 1156 H 109.418 -1.4811 3.46905 0
M  V30 1157 H 111.805 -1.59374 2.48363 0
M  V30 1158 H 111.886 0.172489 2.55218 0
M  V30 1159 H 111.53 0.0684754 5.07854 0
M  V30 1160 H 111.46 -1.70899 4.98098 0
M  V30 1161 H 113.951 -0.837657 3.68499 0
M  V30 1162 H 114.264 -1.09765 7.64965 0
M  V30 1163 H 112.609 -0.994026 6.87855 0
M  V30 1164 H 115.8 -0.95527 4.58249 0
M  V30 1165 H 115.973 -1.07405 6.39037 0
M  V30 1166 N 109.379 -1.50304 -0.473955 0
M  V30 1167 C 110.795 -1.37667 -0.807466 0
M  V30 1168 C 110.995 -0.430555 -1.96846 0
M  V30 1169 O 110.051 0.127874 -2.52176 0
M  V30 1170 C 111.364 -2.78974 -1.12223 0
M  V30 1171 C 112.912 -2.87868 -1.22885 0
M  V30 1172 C 113.387 -4.30003 -1.57676 0
M  V30 1173 N 114.878 -4.3294 -1.64673 0
M  V30 1174 C 115.613 -5.3991 -1.93091 0
M  V30 1175 N 115.109 -6.57092 -2.1955 0
M  V30 1176 N 116.902 -5.27351 -1.94569 0
M  V30 1177 H 109.053 -2.10394 0.291212 0
M  V30 1178 H 111.316 -0.945575 0.0677609 0
M  V30 1179 H 111.022 -3.50031 -0.342229 0
M  V30 1180 H 110.896 -3.16038 -2.05913 0
M  V30 1181 H 113.283 -2.17032 -1.99953 0
M  V30 1182 H 113.364 -2.54352 -0.271814 0
M  V30 1183 H 113.008 -5.01375 -0.81149 0
M  V30 1184 H 112.938 -4.61004 -2.54525 0
M  V30 1185 H 115.429 -3.48441 -1.46277 0
M  V30 1186 H 115.742 -7.34425 -2.405 0
M  V30 1187 H 114.087 -6.60272 -2.16948 0
M  V30 1188 H 117.278 -4.34801 -1.73394 0
M  V30 1189 H 117.451 -6.10805 -2.16381 0
M  V30 1190 N 110.857 0.726932 -1.39834 0
M  V30 1191 C 112.105 1.4837 -1.37225 0
M  V30 1192 C 112.426 1.94979 0.0284857 0
M  V30 1193 O 111.696 1.69555 0.981213 0
M  V30 1194 H 110.276 0.55043 -0.505011 0
M  V30 1195 H 112.938 0.862468 -1.74778 0
M  V30 1196 H 112.034 2.36198 -2.04003 0
M  V30 1197 N 112.336 1.25143 0.95797 0
M  V30 1198 C 113.583 1.09692 1.70217 0
M  V30 1199 C 113.911 -0.362654 1.91089 0
M  V30 1200 O 113.166 -1.28386 1.47701 0
M  V30 1201 C 113.465 1.79272 3.09187 0
M  V30 1202 C 113.131 3.29196 3.08125 0
M  V30 1203 C 111.793 3.70096 3.07543 0
M  V30 1204 C 114.145 4.24995 3.0171 0
M  V30 1205 C 111.473 5.05213 2.9829 0
M  V30 1206 C 113.825 5.60132 2.93999 0
M  V30 1207 C 112.489 6.00365 2.9175 0
M  V30 1208 H 111.759 0.401393 0.622868 0
M  V30 1209 H 114.406 1.55372 1.11945 0
M  V30 1210 H 112.711 1.26014 3.70982 0
M  V30 1211 H 114.408 1.64773 3.65583 0
M  V30 1212 H 110.998 2.96651 3.09348 0
M  V30 1213 H 115.182 3.9439 3.01281 0
M  V30 1214 H 110.438 5.35569 2.94916 0
M  V30 1215 H 114.612 6.3406 2.87996 0
M  V30 1216 H 112.239 7.05023 2.84336 0
M  V30 1217 N 113.814 -1.1601 1.06675 0
M  V30 1218 C 115.042 -1.90527 0.806667 0
M  V30 1219 C 115.457 -1.77643 -0.639396 0
M  V30 1220 O 114.814 -1.12369 -1.43803 0
M  V30 1221 C 114.865 -3.41106 1.19705 0
M  V30 1222 O 114.586 -3.53608 2.58636 0
M  V30 1223 C 116.087 -4.32663 0.965266 0
M  V30 1224 H 113.307 -0.604053 0.292166 0
M  V30 1225 H 115.851 -1.47026 1.4214 0
M  V30 1226 H 114.006 -3.82296 0.626774 0
M  V30 1227 H 114.42 -4.47011 2.74375 0
M  V30 1228 H 115.894 -5.36763 1.288 0
M  V30 1229 H 116.371 -4.39089 -0.0987936 0
M  V30 1230 H 116.977 -3.97206 1.52011 0
M  V30 1231 N 115.292 -0.849877 -1.32721 0
M  V30 1232 C 116.54 -0.450032 -1.97026 0
M  V30 1233 C 116.861 0.996604 -1.67609 0
M  V30 1234 O 116.131 1.6958 -0.980786 0
M  V30 1235 H 114.711 -0.163426 -0.728904 0
M  V30 1236 H 117.373 -1.08526 -1.6189 0
M  V30 1237 H 116.469 -0.591146 -3.0645 0
M  V30 1238 N 116.77 1.45427 -0.607355 0
M  V30 1239 C 117.7 2.3329 0.0989352 0
M  V30 1240 C 118.681 1.46816 0.859007 0
M  V30 1241 O 119.866 1.75588 0.829604 0
M  V30 1242 C 116.996 3.29518 1.09705 0
M  V30 1243 C 115.95 4.25626 0.450206 0
M  V30 1244 C 115.276 5.11542 1.55655 0
M  V30 1245 C 116.576 5.18505 -0.628455 0
M  V30 1246 H 118.27 2.92595 -0.634716 0
M  V30 1247 H 115.816 1.40696 -0.306681 0
M  V30 1248 H 117.769 3.89855 1.59971 0
M  V30 1249 H 116.493 2.68372 1.86129 0
M  V30 1250 H 115.152 3.66586 -0.0315886 0
M  V30 1251 H 114.8 4.46765 2.31107 0
M  V30 1252 H 114.5 5.76647 1.12925 0
M  V30 1253 H 116.024 5.74748 2.06148 0
M  V30 1254 H 117.438 5.72916 -0.209877 0
M  V30 1255 H 115.835 5.92085 -0.977489 0
M  V30 1256 H 116.905 4.60948 -1.50514 0
M  V30 1257 N 118.248 0.346503 1.53744 0
M  V30 1258 C 119.158 -0.517293 2.28826 0
M  V30 1259 C 120.174 -1.10935 1.3405 0
M  V30 1260 O 121.35 -1.1244 1.6709 0
M  V30 1261 C 118.415 -1.65098 3.04866 0
M  V30 1262 C 117.476 -1.0884 4.15274 0
M  V30 1263 C 116.709 -2.16806 4.87679 0
M  V30 1264 O 116.932 -3.3758 4.59778 0
M  V30 1265 O 115.866 -1.80934 5.74061 0
M  V30 1266 H 119.692 0.0931396 3.03557 0
M  V30 1267 H 117.277 0.111458 1.48984 0
M  V30 1268 H 119.159 -2.31053 3.5241 0
M  V30 1269 H 117.834 -2.24717 2.32989 0
M  V30 1270 H 116.741 -0.3933 3.72027 0
M  V30 1271 H 118.074 -0.537036 4.89261 0
M  V30 1272 N 119.726 -1.57421 0.075193 0
M  V30 1273 C 120.951 -1.98364 -0.605515 0
M  V30 1274 C 121.376 -0.953383 -1.62149 0
M  V30 1275 O 120.734 0.0806053 -1.81121 0
M  V30 1276 C 120.782 -3.38332 -1.24756 0
M  V30 1277 O 119.886 -3.37959 -2.36342 0
M  V30 1278 H 119.227 -0.645553 -0.155428 0
M  V30 1279 H 121.757 -2.04044 0.150714 0
M  V30 1280 H 121.767 -3.75591 -1.5936 0
M  V30 1281 H 120.442 -4.12846 -0.503129 0
M  V30 1282 H 119.019 -3.12474 -2.03506 0
M  V30 1283 N 121.204 0.198386 -1.56346 0
M  V30 1284 C 122.114 1.2664 -1.97483 0
M  V30 1285 C 123.13 1.49989 -0.882002 0
M  V30 1286 O 124.306 1.62668 -1.18748 0
M  V30 1287 C 121.371 2.59141 -2.30319 0
M  V30 1288 C 120.432 2.43892 -3.53292 0
M  V30 1289 C 119.665 3.70074 -3.84553 0
M  V30 1290 O 119.888 4.74101 -3.1715 0
M  V30 1291 O 118.822 3.658 -4.7799 0
M  V30 1292 H 122.648 0.947304 -2.88548 0
M  V30 1293 H 120.233 0.403123 -1.43859 0
M  V30 1294 H 122.115 3.37352 -2.5253 0
M  V30 1295 H 120.79 2.90684 -1.42423 0
M  V30 1296 H 119.697 1.63803 -3.36332 0
M  V30 1297 H 121.03 2.17282 -4.41644 0
M  V30 1298 N 122.682 1.50554 0.465978 0
M  V30 1299 C 123.907 1.65838 1.24549 0
M  V30 1300 C 124.332 0.343486 1.84937 0
M  V30 1301 O 123.69 -0.69324 1.67523 0
M  V30 1302 C 123.738 2.75533 2.32624 0
M  V30 1303 O 122.842 2.37142 3.37398 0
M  V30 1304 H 122.183 0.553893 0.366194 0
M  V30 1305 H 124.713 1.96959 0.553927 0
M  V30 1306 H 124.723 2.98763 2.77857 0
M  V30 1307 H 123.398 3.70962 1.88043 0
M  V30 1308 H 121.975 2.24377 2.97841 0
M  V30 1309 N 124.16 -0.719506 1.40217 0
M  V30 1310 C 125.388 -1.50864 1.41589 0
M  V30 1311 C 125.803 -1.88794 0.0145275 0
M  V30 1312 O 125.16 -1.55174 -0.960594 0
M  V30 1313 C 125.211 -2.78646 2.30302 0
M  V30 1314 O 124.932 -2.42321 3.64983 0
M  V30 1315 C 126.433 -3.72569 2.40224 0
M  V30 1316 H 123.653 -0.465709 0.48307 0
M  V30 1317 H 126.197 -0.88785 1.84221 0
M  V30 1318 H 124.352 -3.37019 1.91042 0
M  V30 1319 H 124.766 -3.24514 4.12057 0
M  V30 1320 H 126.24 -4.5908 3.06512 0
M  V30 1321 H 126.717 -4.15403 1.42608 0
M  V30 1322 H 127.323 -3.20109 2.80019 0
M  V30 1323 N 125.638 -1.25649 -0.95132 0
M  V30 1324 C 126.601 -1.06399 -2.03007 0
M  V30 1325 C 127.601 -0.0156794 -1.60792 0
M  V30 1326 O 128.791 -0.25817 -1.72276 0
M  V30 1327 C 125.923 -0.616184 -3.35285 0
M  V30 1328 H 127.116 -2.02164 -2.21517 0
M  V30 1329 H 124.669 -1.08103 -1.12887 0
M  V30 1330 H 125.404 0.343917 -3.22471 0
M  V30 1331 H 125.189 -1.37301 -3.67275 0
M  V30 1332 H 126.679 -0.503032 -4.14559 0
M  V30 1333 N 127.117 1.15442 -1.07289 0
M  V30 1334 C 128.049 2.19773 -0.650585 0
M  V30 1335 C 129.062 1.60076 0.296572 0
M  V30 1336 O 130.251 1.78293 0.0859905 0
M  V30 1337 C 127.351 3.38838 0.0650398 0
M  V30 1338 C 126.524 4.2808 -0.898141 0
M  V30 1339 C 125.583 5.2574 -0.219926 0
M  V30 1340 O 124.609 5.62654 -0.860773 0
M  V30 1341 N 125.811 5.71205 1.03466 0
M  V30 1342 H 128.576 2.56622 -1.54808 0
M  V30 1343 H 126.137 1.30551 -0.957494 0
M  V30 1344 H 128.129 4.01222 0.529415 0
M  V30 1345 H 126.699 3.00409 0.864466 0
M  V30 1346 H 125.919 3.62804 -1.54165 0
M  V30 1347 H 127.207 4.84577 -1.5512 0
M  V30 1348 H 126.605 5.43325 1.57526 0
M  V30 1349 H 125.162 6.35633 1.44272 0
M  V30 1350 N 128.595 0.856903 1.32268 0
M  V30 1351 C 129.844 0.457599 1.96441 0
M  V30 1352 C 130.157 -0.992426 1.68553 0
M  V30 1353 O 131.363 -1.49727 2.26482 0
M  V30 1354 C 129.819 0.767358 3.51624 0
M  V30 1355 C 129.427 2.23326 3.88367 0
M  V30 1356 C 131.171 0.435887 4.22256 0
M  V30 1357 C 129.078 2.48613 5.36606 0
M  V30 1358 H 128.008 0.167387 0.735185 0
M  V30 1359 H 130.659 1.048 1.5063 0
M  V30 1360 H 129.041 0.106367 3.95857 0
M  V30 1361 H 130.215 2.93623 3.55137 0
M  V30 1362 H 128.53 2.52948 3.30766 0
M  V30 1363 H 131.127 0.602202 5.31298 0
M  V30 1364 H 131.47 -0.622672 4.11617 0
M  V30 1365 H 132.003 1.05286 3.83614 0
M  V30 1366 H 128.742 3.53101 5.52268 0
M  V30 1367 H 128.262 1.82896 5.71235 0
M  V30 1368 H 129.941 2.32676 6.03714 0
M  V30 1369 N 130.073 -1.45103 0.615059 0
M  V30 1370 C 131.301 -2.06553 0.11977 0
M  V30 1371 C 131.716 -1.45842 -1.19898 0
M  V30 1372 O 131.073 -0.575325 -1.73194 0
M  V30 1373 C 131.124 -3.61495 -0.018364 0
M  V30 1374 O 130.845 -4.19942 1.24822 0
M  V30 1375 C 132.346 -4.39947 -0.544237 0
M  V30 1376 H 129.566 -0.667096 0.0722739 0
M  V30 1377 H 132.11 -1.8623 0.84491 0
M  V30 1378 H 130.265 -3.81135 -0.693865 0
M  V30 1379 H 130.679 -5.13204 1.0827 0
M  V30 1380 H 132.153 -5.48838 -0.589953 0
M  V30 1381 H 132.63 -4.10255 -1.56805 0
M  V30 1382 H 133.236 -4.25188 0.0974703 0
M  V30 1383 N 131.551 -0.354651 -1.53558 0
M  V30 1384 C 132.499 0.512195 -2.26891 0
M  V30 1385 C 133.493 1.09263 -1.29452 0
M  V30 1386 O 134.699 1.03709 -1.47121 0
M  V30 1387 H 131.074 0.183878 -0.729173 0
M  V30 1388 H 133.045 -0.128202 -2.98124 0
M  V30 1389 C 131.794 1.64563 -3.06291 0
M  V30 1390 H 131.117 1.20829 -3.81104 0
M  V30 1391 H 132.557 2.22711 -3.60799 0
M  V30 1392 C 131.016 2.58158 -2.16462 0
M  V30 1393 O 131.546 3.60695 -1.76811 0
M  V30 1394 N 129.752 2.27096 -1.81317 0
M  V30 1395 H 129.299 1.43751 -2.1376 0
M  V30 1396 H 129.257 2.89975 -1.21498 0
M  V30 1397 N 133.029 1.57378 -0.0835403 0
M  V30 1398 C 134.257 1.98263 0.59157 0
M  V30 1399 C 134.672 0.962302 1.62435 0
M  V30 1400 O 134.029 -0.049581 1.82433 0
M  V30 1401 C 134.08 3.39214 1.24965 0
M  V30 1402 O 133.801 4.37339 0.258186 0
M  V30 1403 C 135.302 3.95038 2.01147 0
M  V30 1404 H 132.522 0.651773 0.159477 0
M  V30 1405 H 135.066 2.03878 -0.159415 0
M  V30 1406 H 133.221 3.34649 1.95164 0
M  V30 1407 H 133.635 5.19371 0.731734 0
M  V30 1408 H 135.109 4.95848 2.42567 0
M  V30 1409 H 135.586 3.32222 2.87272 0
M  V30 1410 H 136.192 4.0304 1.35789 0
M  V30 1411 N 134.507 -0.190092 1.56449 0
M  V30 1412 C 135.755 -0.907908 1.80559 0
M  V30 1413 C 136.076 -1.83583 0.657438 0
M  V30 1414 O 135.346 -1.93203 -0.323924 0
M  V30 1415 H 133.926 -0.338247 0.666032 0
M  V30 1416 H 136.588 -0.194403 1.93928 0
M  V30 1417 H 135.684 -1.49604 2.73907 0
M  V30 1418 N 135.985 -1.50799 -0.457987 0
M  V30 1419 C 137.21 -1.66496 -1.23668 0
M  V30 1420 C 137.635 -0.353288 -1.84752 0
M  V30 1421 O 136.993 0.684346 -1.67888 0
M  V30 1422 C 137.041 -2.76763 -2.3116 0
M  V30 1423 O 136.145 -2.38928 -3.36136 0
M  V30 1424 H 135.486 -0.555828 -0.363252 0
M  V30 1425 H 138.016 -1.9725 -0.543474 0
M  V30 1426 H 138.026 -3.00232 -2.76269 0
M  V30 1427 H 136.701 -3.71954 -1.86073 0
M  V30 1428 H 135.278 -2.25953 -2.96647 0
M  V30 1429 N 137.463 0.71206 -1.40597 0
M  V30 1430 C 138.693 1.49894 -1.42181 0
M  V30 1431 C 139.101 1.89189 -0.0208078 0
M  V30 1432 O 138.444 1.56223 0.966436 0
M  V30 1433 C 138.506 2.80215 -2.25211 0
M  V30 1434 C 138.17 2.63221 -3.73582 0
M  V30 1435 C 139.167 2.30249 -4.66135 0
M  V30 1436 C 136.852 2.79376 -4.17438 0
M  V30 1437 C 138.846 2.13645 -6.00529 0
M  V30 1438 C 136.533 2.6239 -5.51901 0
M  V30 1439 C 137.531 2.29573 -6.43262 0
M  V30 1440 O 137.219 2.12719 -7.75246 0
M  V30 1441 H 136.951 0.469031 -0.486812 0
M  V30 1442 H 139.505 0.88564 -1.85326 0
M  V30 1443 H 137.735 3.4389 -1.76852 0
M  V30 1444 H 139.424 3.41947 -2.18694 0
M  V30 1445 H 140.19 2.17398 -4.33547 0
M  V30 1446 H 136.069 3.03906 -3.46644 0
M  V30 1447 H 139.613 1.87953 -6.71803 0
M  V30 1448 H 135.51 2.74826 -5.84073 0
M  V30 1449 H 136.278 2.27611 -7.86216 0
M  V30 1450 N 138.941 1.26152 0.944643 0
M  V30 1451 C 140.166 1.14363 1.7302 0
M  V30 1452 C 140.591 -0.29772 1.85729 0
M  V30 1453 O 139.949 -1.2157 1.34501 0
M  V30 1454 C 139.997 1.81378 3.11664 0
M  V30 1455 O 139.101 1.10022 3.97453 0
M  V30 1456 H 138.442 0.398694 0.53098 0
M  V30 1457 H 140.972 1.66906 1.18337 0
M  V30 1458 H 140.982 1.88064 3.62072 0
M  V30 1459 H 139.657 2.86237 3.0173 0
M  V30 1460 H 138.234 1.11287 3.55907 0
M  V30 1461 N 140.419 -1.14872 1.07899 0
M  V30 1462 C 141.696 -1.81928 0.71845 0
M  V30 1463 C 142.076 -1.95417 -0.798455 0
M  V30 1464 O 141.424 -1.50997 -1.715 0
M  V30 1465 C 141.634 -3.17937 1.43935 0
M  V30 1466 C 142.982 -3.93501 1.59506 0
M  V30 1467 O 144.006 -3.27509 1.40058 0
M  V30 1468 O 142.865 -5.1183 1.91551 0
M  V30 1469 H 139.959 -0.78628 0.256305 0
M  V30 1470 H 142.505 -1.21934 1.18026 0
M  V30 1471 H 141.277 -3.0325 2.47295 0
M  V30 1472 H 140.9 -3.85619 0.968687 0
M  V30 1473 N 141.898 -0.863906 -1.31812 0
M  V30 1474 C 143.128 -0.485406 -2.00817 0
M  V30 1475 C 143.536 0.925007 -1.65046 0
M  V30 1476 O 142.879 1.61653 -0.872574 0
M  V30 1477 C 142.941 -0.555589 -3.55181 0
M  V30 1478 C 142.605 -1.92654 -4.14407 0
M  V30 1479 C 143.602 -2.89324 -4.31958 0
M  V30 1480 C 141.287 -2.2262 -4.50273 0
M  V30 1481 C 143.281 -4.14108 -4.84555 0
M  V30 1482 C 140.968 -3.47654 -5.02573 0
M  V30 1483 C 141.966 -4.43214 -5.19664 0
M  V30 1484 O 141.654 -5.66033 -5.70843 0
M  V30 1485 H 141.386 -0.188224 -0.649267 0
M  V30 1486 H 143.94 -1.16514 -1.69156 0
M  V30 1487 H 142.17 0.181037 -3.86276 0
M  V30 1488 H 143.859 -0.19138 -4.05449 0
M  V30 1489 H 144.625 -2.6748 -4.04573 0
M  V30 1490 H 140.504 -1.4902 -4.3625 0
M  V30 1491 H 144.048 -4.88703 -4.9781 0
M  V30 1492 H 139.945 -3.69345 -5.29391 0
M  V30 1493 H 140.713 -5.6812 -5.89222 0
M  V30 1494 N 143.376 1.44774 -0.622745 0
M  V30 1495 C 144.601 2.06999 -0.128968 0
M  V30 1496 C 145.026 1.4617 1.1839 0
M  V30 1497 O 144.384 0.560007 1.72434 0
M  V30 1498 C 144.432 3.60595 -0.0188351 0
M  V30 1499 O 143.536 3.99398 1.02739 0
M  V30 1500 H 142.877 0.659047 -0.0809544 0
M  V30 1501 H 145.407 1.85784 -0.85705 0
M  V30 1502 H 145.417 4.07627 0.174476 0
M  V30 1503 H 144.092 4.04252 -0.977384 0
M  V30 1504 H 142.669 3.64011 0.809326 0
M  V30 1505 N 144.854 0.36279 1.53368 0
M  V30 1506 C 145.787 -0.528507 2.21996 0
M  V30 1507 C 146.765 -1.0852 1.21087 0
M  V30 1508 O 147.949 -1.14186 1.4998 0
M  V30 1509 C 145.076 -1.72893 2.91249 0
M  V30 1510 C 144.122 -1.29994 4.06207 0
M  V30 1511 S 144.955 -0.303575 5.34639 0
M  V30 1512 C 146.111 -1.51039 6.07403 0
M  V30 1513 H 146.344 0.0543423 2.9725 0
M  V30 1514 H 143.877 0.146889 1.537 0
M  V30 1515 H 145.835 -2.41751 3.31763 0
M  V30 1516 H 144.496 -2.28303 2.15724 0
M  V30 1517 H 143.689 -2.19549 4.53667 0
M  V30 1518 H 143.291 -0.690608 3.67569 0
M  V30 1519 H 145.583 -2.44186 6.31965 0
M  V30 1520 H 146.526 -1.07721 6.99858 0
M  V30 1521 H 146.934 -1.71518 5.37812 0
M  V30 1522 N 146.332 -1.57332 0.0918853 0
M  V30 1523 C 147.572 -1.96117 -0.575988 0
M  V30 1524 C 147.936 -0.972499 -1.65549 0
M  V30 1525 O 149.137 -1.24872 -2.38034 0
M  V30 1526 C 147.408 -3.39407 -1.11973 0
M  V30 1527 S 148.967 -4.00185 -1.79992 0
M  V30 1528 H 145.785 -0.685682 -0.188045 0
M  V30 1529 H 148.387 -1.94755 0.170525 0
M  V30 1530 H 147.091 -4.09131 -0.322504 0
M  V30 1531 H 146.622 -3.44358 -1.90214 0
M  V30 1532 H 148.637 -3.88728 -3.08391 0
M  V30 1533 N 147.81 0.181792 -1.56548 0
M  V30 1534 C 149.04 0.914618 -1.85252 0
M  V30 1535 C 149.448 1.76791 -0.673914 0
M  V30 1536 O 148.791 1.80009 0.366416 0
M  V30 1537 C 148.853 1.85019 -3.08234 0
M  V30 1538 C 148.517 1.17754 -4.41569 0
M  V30 1539 C 149.514 0.548035 -5.17003 0
M  V30 1540 C 147.199 1.17742 -4.88305 0
M  V30 1541 C 149.193 -0.0726128 -6.37359 0
M  V30 1542 C 146.88 0.552946 -6.08593 0
M  V30 1543 C 147.878 -0.070978 -6.82963 0
M  V30 1544 O 147.566 -0.685635 -8.00971 0
M  V30 1545 H 147.298 0.271695 -0.618998 0
M  V30 1546 H 149.852 0.189944 -2.0452 0
M  V30 1547 H 148.082 2.61491 -2.84885 0
M  V30 1548 H 149.771 2.45195 -3.23472 0
M  V30 1549 H 150.537 0.540174 -4.81982 0
M  V30 1550 H 146.416 1.65246 -4.30366 0
M  V30 1551 H 149.96 -0.560213 -6.95347 0
M  V30 1552 H 145.857 0.558354 -6.43081 0
M  V30 1553 H 146.625 -0.58385 -8.16415 0
M  V30 1554 N 149.288 1.51039 0.449983 0
M  V30 1555 C 150.513 1.6715 1.22783 0
M  V30 1556 C 150.938 0.363081 1.84563 0
M  V30 1557 O 150.296 -0.675433 1.68249 0
M  V30 1558 C 150.344 2.77985 2.29689 0
M  V30 1559 O 149.448 2.40707 3.34864 0
M  V30 1560 H 148.789 0.557746 0.360299 0
M  V30 1561 H 151.319 1.97535 0.533005 0
M  V30 1562 H 151.329 3.01693 2.74673 0
M  V30 1563 H 150.004 3.72935 1.84098 0
M  V30 1564 H 148.581 2.27523 2.95445 0
M  V30 1565 N 150.766 -0.704594 1.40972 0
M  V30 1566 C 151.699 -1.82861 1.36518 0
M  V30 1567 C 152.677 -1.6091 0.23382 0
M  V30 1568 O 153.861 -1.83778 0.419271 0
M  V30 1569 C 150.988 -3.1939 1.12729 0
M  V30 1570 C 150.034 -3.60148 2.28463 0
M  V30 1571 S 150.867 -3.65994 3.90907 0
M  V30 1572 C 152.023 -5.05264 3.69403 0
M  V30 1573 H 152.256 -1.86361 2.3164 0
M  V30 1574 H 149.789 -0.872439 1.27389 0
M  V30 1575 H 151.747 -3.98211 0.996893 0
M  V30 1576 H 150.408 -3.1351 0.192427 0
M  V30 1577 H 149.601 -4.59309 2.07489 0
M  V30 1578 H 149.203 -2.88612 2.37863 0
M  V30 1579 H 151.495 -5.92504 3.28551 0
M  V30 1580 H 152.438 -5.31278 4.68134 0
M  V30 1581 H 152.846 -4.76377 3.02862 0
M  V30 1582 N 152.244 -1.26651 -0.937939 0
M  V30 1583 C 153.492 -1.12165 -1.68118 0
M  V30 1584 C 153.813 0.334983 -1.92101 0
M  V30 1585 O 153.083 1.23583 -1.52 0
M  V30 1586 H 151.663 -0.412093 -0.623048 0
M  V30 1587 H 154.325 -1.59027 -1.12678 0
M  V30 1588 H 153.421 -1.64289 -2.6536 0
M  V30 1589 N 153.722 1.14298 -1.08507 0
M  V30 1590 C 154.95 1.89219 -0.836876 0
M  V30 1591 C 155.365 1.78638 0.611054 0
M  V30 1592 O 154.722 1.14643 1.41998 0
M  V30 1593 C 154.773 3.39158 -1.25116 0
M  V30 1594 O 154.494 3.49449 -2.64229 0
M  V30 1595 C 155.995 4.31073 -1.03398 0
M  V30 1596 H 153.215 0.599328 -0.301739 0
M  V30 1597 H 155.759 1.44746 -1.44461 0
M  V30 1598 H 153.914 3.81251 -0.687514 0
M  V30 1599 H 154.328 4.42589 -2.81452 0
M  V30 1600 H 155.802 5.34646 -1.37323 0
M  V30 1601 H 156.279 4.3919 0.0289259 0
M  V30 1602 H 156.885 3.94738 -1.58311 0
M  V30 1603 N 155.201 0.870884 1.31352 0
M  V30 1604 C 156.164 0.332243 2.26779 0
M  V30 1605 C 157.164 -0.517302 1.52252 0
M  V30 1606 O 158.354 -0.326477 1.71113 0
M  V30 1607 C 155.486 -0.528066 3.36785 0
M  V30 1608 H 156.679 1.17469 2.75937 0
M  V30 1609 H 154.232 0.64655 1.423 0
M  V30 1610 H 154.967 -1.39167 2.92922 0
M  V30 1611 H 154.752 0.0802582 3.92018 0
M  V30 1612 H 156.242 -0.897179 4.07849 0
M  V30 1613 N 156.679 -1.44442 0.630414 0
M  V30 1614 C 157.956 -1.9549 0.0655657 0
M  V30 1615 C 158.336 -1.5724 -1.40851 0
M  V30 1616 O 157.684 -0.846116 -2.12257 0
M  V30 1617 C 157.894 -3.47812 0.287691 0
M  V30 1618 C 159.242 -4.24216 0.180513 0
M  V30 1619 O 160.266 -3.55526 0.219019 0
M  V30 1620 O 159.125 -5.46434 0.0848493 0
M  V30 1621 H 156.219 -0.826688 -0.0227177 0
M  V30 1622 H 158.765 -1.54496 0.702068 0
M  V30 1623 H 157.537 -3.687 1.31056 0
M  V30 1624 H 157.16 -3.95751 -0.382984 0
M  V30 1625 N 158.157 -0.370918 -1.53173 0
M  V30 1626 C 159.105 0.488101 -2.27421 0
M  V30 1627 C 160.099 1.07884 -1.30604 0
M  V30 1628 O 161.305 1.02143 -1.48212 0
M  V30 1629 H 157.68 0.176134 -0.731082 0
M  V30 1630 H 159.651 -0.159815 -2.97972 0
M  V30 1631 C 158.4 1.61306 -3.08019 0
M  V30 1632 H 157.723 1.1678 -3.82364 0
M  V30 1633 H 159.163 2.18872 -3.63141 0
M  V30 1634 C 157.622 2.55848 -2.19188 0
M  V30 1635 O 158.152 3.58799 -1.80626 0
M  V30 1636 N 156.358 2.2516 -1.83715 0
M  V30 1637 H 155.905 1.41476 -2.15273 0
M  V30 1638 H 155.863 2.8867 -1.24567 0
M  V30 1639 N 159.635 1.57281 -0.100228 0
M  V30 1640 C 160.565 2.17328 0.853857 0
M  V30 1641 C 161.546 1.10804 1.2906 0
M  V30 1642 O 162.731 1.38963 1.35657 0
M  V30 1643 C 159.861 2.75772 2.11109 0
M  V30 1644 C 158.815 3.87713 1.81279 0
M  V30 1645 C 158.141 4.32882 3.13874 0
M  V30 1646 C 159.441 5.10677 1.09574 0
M  V30 1647 H 161.135 2.97305 0.353545 0
M  V30 1648 H 158.681 1.43009 0.168612 0
M  V30 1649 H 160.634 3.16433 2.78296 0
M  V30 1650 H 159.358 1.93057 2.63432 0
M  V30 1651 H 158.017 3.476 1.16489 0
M  V30 1652 H 157.665 3.47051 3.64095 0
M  V30 1653 H 157.365 5.08358 2.94696 0
M  V30 1654 H 158.889 4.7618 3.82211 0
M  V30 1655 H 160.303 5.48474 1.66879 0
M  V30 1656 H 158.7 5.91615 1.00557 0
M  V30 1657 H 159.77 4.84835 0.0793299 0
M  V30 1658 N 161.113 -0.173488 1.56642 0
M  V30 1659 C 162.36 -0.890465 1.81871 0
M  V30 1660 C 162.688 -1.82339 0.67696 0
M  V30 1661 O 161.943 -1.92795 -0.335926 0
M  V30 1662 C 162.242 -1.72069 3.13252 0
M  V30 1663 C 161.908 -0.936878 4.41059 0
M  V30 1664 C 160.57 -0.720545 4.75775 0
M  V30 1665 C 162.922 -0.386919 5.19762 0
M  V30 1666 C 160.25 0.0568829 5.86672 0
M  V30 1667 C 162.602 0.37741 6.31473 0
M  V30 1668 C 161.266 0.604563 6.64757 0
M  V30 1669 H 160.536 -0.325844 0.665512 0
M  V30 1670 H 163.183 -0.155527 1.90867 0
M  V30 1671 H 161.488 -2.52496 2.99588 0
M  V30 1672 H 163.185 -2.27844 3.29982 0
M  V30 1673 H 159.775 -1.11553 4.13828 0
M  V30 1674 H 163.959 -0.541398 4.93338 0
M  V30 1675 H 159.215 0.242635 6.10918 0
M  V30 1676 H 163.389 0.810825 6.91664 0
M  V30 1677 H 161.016 1.20885 7.50527 0
M  V30 1678 N 162.591 -1.51276 -0.441967 0
M  V30 1679 C 164.002 -1.56244 -1.02199 0
M  V30 1680 C 164.353 -0.383149 -1.92422 0
M  V30 1681 O 163.478 0.500613 -2.1053 0
M  V30 1682 C 164.073 -2.83162 -1.86024 0
M  V30 1683 C 162.632 -2.90716 -2.39084 0
M  V30 1684 C 161.779 -2.50858 -1.18175 0
M  V30 1685 H 164.73 -1.5712 -0.223416 0
M  V30 1686 H 164.751 -2.66663 -2.71425 0
M  V30 1687 H 164.263 -3.68974 -1.20331 0
M  V30 1688 H 162.364 -2.09323 -3.08244 0
M  V30 1689 H 162.477 -3.94266 -2.72198 0
M  V30 1690 H 160.841 -2.03951 -1.52565 0
M  V30 1691 H 161.624 -3.3901 -0.541001 0
M  V30 1692 N 164.069 0.697108 -1.41344 0
M  V30 1693 C 165.294 1.49096 -1.44171 0
M  V30 1694 C 165.719 1.88038 -0.0481568 0
M  V30 1695 O 165.077 1.54525 0.948243 0
M  V30 1696 C 165.125 2.73088 -2.3549 0
M  V30 1697 O 164.229 3.70514 -1.81088 0
M  V30 1698 H 163.57 0.448801 -0.489361 0
M  V30 1699 H 166.1 0.856992 -1.85787 0
M  V30 1700 H 166.11 3.21413 -2.51312 0
M  V30 1701 H 164.785 2.44081 -3.36745 0
M  V30 1702 H 163.362 3.29441 -1.74708 0
M  V30 1703 N 165.547 1.27147 0.931209 0
M  V30 1704 C 166.795 1.13055 1.6752 0
M  V30 1705 C 167.116 -0.324791 1.92276 0
M  V30 1706 O 166.386 -1.22775 1.52654 0
M  V30 1707 H 164.966 0.415391 0.620854 0
M  V30 1708 H 167.628 1.59623 1.11833 0
M  V30 1709 H 166.724 1.65694 2.64485 0
M  V30 1710 N 167.025 -1.13721 1.09112 0
M  V30 1711 C 168.302 -1.81155 0.737706 0
M  V30 1712 C 168.682 -1.96253 -0.777683 0
M  V30 1713 O 168.03 -1.52807 -1.69889 0
M  V30 1714 C 168.24 -3.16392 1.47299 0
M  V30 1715 C 169.588 -3.91787 1.63671 0
M  V30 1716 O 170.612 -3.26005 1.43524 0
M  V30 1717 O 169.471 -5.0977 1.96969 0
M  V30 1718 H 166.565 -0.783518 0.26463 0
M  V30 1719 H 169.111 -1.20676 1.19312 0
M  V30 1720 H 167.883 -3.0061 2.50498 0
M  V30 1721 H 167.506 -3.8457 1.00953 0
M  V30 1722 N 168.503 -0.877838 -1.30888 0
M  V30 1723 C 169.75 -0.492696 -1.96415 0
M  V30 1724 C 170.078 0.956671 -1.69346 0
M  V30 1725 O 169.333 1.68993 -0.986913 0
M  V30 1726 C 169.632 -0.705748 -3.50363 0
M  V30 1727 C 169.298 -2.1291 -3.97467 0
M  V30 1728 C 167.96 -2.51834 -4.1004 0
M  V30 1729 C 170.312 -3.05702 -4.22132 0
M  V30 1730 C 167.64 -3.82775 -4.44635 0
M  V30 1731 C 169.992 -4.36166 -4.58194 0
M  V30 1732 C 168.656 -4.74993 -4.68975 0
M  V30 1733 H 167.926 -0.18029 -0.718733 0
M  V30 1734 H 170.573 -1.11233 -1.55883 0
M  V30 1735 H 168.878 -0.00303058 -3.918 0
M  V30 1736 H 170.575 -0.387456 -3.99124 0
M  V30 1737 H 167.165 -1.81694 -3.88182 0
M  V30 1738 H 171.349 -2.76853 -4.11906 0
M  V30 1739 H 166.605 -4.12609 -4.51181 0
M  V30 1740 H 170.779 -5.08111 -4.76231 0
M  V30 1741 H 168.406 -5.76495 -4.95537 0
M  V30 1742 N 169.982 1.44106 -0.638065 0
M  V30 1743 C 170.892 2.34513 0.0637334 0
M  V30 1744 C 171.908 1.53018 0.828346 0
M  V30 1745 O 173.084 1.85723 0.779036 0
M  V30 1746 C 170.149 3.31095 1.02844 0
M  V30 1747 C 169.21 4.28497 0.26244 0
M  V30 1748 C 168.443 5.20465 1.1812 0
M  V30 1749 O 168.666 5.16514 2.42011 0
M  V30 1750 O 167.6 5.98251 0.661774 0
M  V30 1751 H 171.426 2.95989 -0.68003 0
M  V30 1752 H 169.011 1.43994 -0.398252 0
M  V30 1753 H 170.893 3.90526 1.58327 0
M  V30 1754 H 169.568 2.72144 1.7527 0
M  V30 1755 H 168.475 3.72592 -0.335602 0
M  V30 1756 H 169.808 4.90388 -0.421936 0
M  V30 1757 N 171.46 0.379036 1.52974 0
M  V30 1758 C 172.876 0.0285448 1.59574 0
M  V30 1759 C 173.076 -1.45542 1.39355 0
M  V30 1760 O 172.132 -2.2187 1.20541 0
M  V30 1761 C 173.445 0.496535 2.96572 0
M  V30 1762 C 174.993 0.451909 3.0972 0
M  V30 1763 C 175.468 0.895924 4.49152 0
M  V30 1764 N 176.959 0.851522 4.55306 0
M  V30 1765 C 177.694 1.16661 5.61407 0
M  V30 1766 N 177.19 1.55166 6.752 0
M  V30 1767 N 178.983 1.08853 5.51459 0
M  V30 1768 H 171.134 1.34525 1.64367 0
M  V30 1769 H 173.397 0.550733 0.771619 0
M  V30 1770 H 173.103 1.53258 3.16552 0
M  V30 1771 H 172.977 -0.109802 3.7704 0
M  V30 1772 H 175.364 -0.575029 2.89443 0
M  V30 1773 H 175.445 1.09392 2.3123 0
M  V30 1774 H 175.089 1.92104 4.70168 0
M  V30 1775 H 175.019 0.23103 5.26093 0
M  V30 1776 H 177.51 0.568038 3.73606 0
M  V30 1777 H 177.823 1.776 7.52116 0
M  V30 1778 H 176.168 1.59044 6.76557 0
M  V30 1779 H 179.359 0.786803 4.6144 0
M  V30 1780 H 179.532 1.33742 6.34048 0
M  V30 1781 N 172.938 -1.57226 0.108567 0
M  V30 1782 C 174.187 -1.94008 -0.551703 0
M  V30 1783 C 174.5 -0.993442 -1.68494 0
M  V30 1784 O 175.706 -1.25551 -2.40726 0
M  V30 1785 C 174.162 -3.44763 -1.03279 0
M  V30 1786 C 173.77 -4.47943 0.0714193 0
M  V30 1787 C 175.514 -3.90483 -1.66503 0
M  V30 1788 C 173.421 -5.89865 -0.425779 0
M  V30 1789 H 172.351 -0.724206 -0.209863 0
M  V30 1790 H 175.002 -1.82547 0.186741 0
M  V30 1791 H 173.384 -3.51422 -1.82533 0
M  V30 1792 H 174.558 -4.52942 0.847365 0
M  V30 1793 H 172.873 -4.11913 0.609669 0
M  V30 1794 H 175.47 -4.93925 -2.04798 0
M  V30 1795 H 175.813 -3.29877 -2.53942 0
M  V30 1796 H 176.346 -3.86581 -0.938074 0
M  V30 1797 H 173.085 -6.54202 0.412316 0
M  V30 1798 H 172.605 -5.88309 -1.16843 0
M  V30 1799 H 174.284 -6.40844 -0.890397 0
M  V30 1800 N 174.416 0.165178 -1.56732 0
M  V30 1801 C 175.662 0.877389 -1.83503 0
M  V30 1802 C 176.017 1.79602 -0.689996 0
M  V30 1803 O 175.31 1.89023 0.313205 0
M  V30 1804 C 175.504 1.70405 -3.1416 0
M  V30 1805 C 175.333 0.866961 -4.41264 0
M  V30 1806 C 174.103 0.539646 -5.0241 0
M  V30 1807 C 176.301 0.205671 -5.13889 0
M  V30 1808 N 174.283 -0.312946 -6.13102 0
M  V30 1809 C 175.654 -0.507823 -6.17917 0
M  V30 1810 C 177.709 0.124468 -4.97744 0
M  V30 1811 C 176.412 -1.29483 -7.0755 0
M  V30 1812 C 178.438 -0.649222 -5.87826 0
M  V30 1813 C 177.8 -1.35106 -6.91322 0
M  V30 1814 H 173.899 0.299477 -0.722383 0
M  V30 1815 H 176.483 0.143949 -1.94167 0
M  V30 1816 H 174.654 2.40887 -3.04677 0
M  V30 1817 H 176.386 2.35804 -3.28905 0
M  V30 1818 H 173.141 0.871176 -4.65519 0
M  V30 1819 H 173.565 -0.729731 -6.73056 0
M  V30 1820 H 178.207 0.652724 -4.17731 0
M  V30 1821 H 175.925 -1.83441 -7.87004 0
M  V30 1822 H 179.511 -0.713804 -5.77405 0
M  V30 1823 H 178.391 -1.94013 -7.59821 0
M  V30 1824 N 175.894 1.51508 0.433938 0
M  V30 1825 C 177.122 1.68157 1.20543 0
M  V30 1826 C 177.537 0.380362 1.84929 0
M  V30 1827 O 176.894 -0.641446 1.70856 0
M  V30 1828 C 176.945 2.79965 2.28696 0
M  V30 1829 O 176.666 4.05045 1.66943 0
M  V30 1830 C 178.167 3.07912 3.18912 0
M  V30 1831 H 175.387 0.56421 0.363191 0
M  V30 1832 H 177.931 1.97941 0.513754 0
M  V30 1833 H 176.086 2.5277 2.93574 0
M  V30 1834 H 176.5 4.67165 2.38448 0
M  V30 1835 H 177.974 3.89719 3.90926 0
M  V30 1836 H 178.451 2.20456 3.79863 0
M  V30 1837 H 179.057 3.36779 2.59731 0
M  V30 1838 N 177.372 -0.689602 1.41712 0
M  V30 1839 C 178.304 -1.815 1.39966 0
M  V30 1840 C 179.317 -1.59995 0.300917 0
M  V30 1841 O 180.506 -1.69387 0.563039 0
M  V30 1842 C 177.606 -3.18364 1.16179 0
M  V30 1843 C 176.779 -3.66847 2.38206 0
M  V30 1844 C 175.838 -4.82398 2.10186 0
M  V30 1845 O 174.864 -4.93706 2.83272 0
M  V30 1846 N 176.066 -5.70064 1.0958 0
M  V30 1847 H 178.831 -1.83488 2.36965 0
M  V30 1848 H 176.392 -0.872149 1.36401 0
M  V30 1849 H 178.384 -3.93301 0.953756 0
M  V30 1850 H 176.954 -3.11365 0.27756 0
M  V30 1851 H 176.174 -2.82751 2.74673 0
M  V30 1852 H 177.462 -3.95978 3.19498 0
M  V30 1853 H 176.86 -5.63565 0.491019 0
M  V30 1854 H 175.417 -6.44874 0.947656 0
M  V30 1855 N 178.85 -1.27639 -0.924453 0
M  V30 1856 C 180.08 -1.16819 -1.70402 0
M  V30 1857 C 180.488 0.277191 -1.87158 0
M  V30 1858 O 179.831 1.20025 -1.39067 0
M  V30 1859 C 179.893 -1.78305 -3.12166 0
M  V30 1860 C 179.557 -3.27502 -3.18734 0
M  V30 1861 C 180.554 -4.2409 -3.00738 0
M  V30 1862 C 178.239 -3.68269 -3.4159 0
M  V30 1863 C 180.233 -5.59422 -3.05492 0
M  V30 1864 C 177.92 -5.0373 -3.45977 0
M  V30 1865 C 178.918 -5.99116 -3.27946 0
M  V30 1866 O 178.606 -7.32108 -3.32074 0
M  V30 1867 H 178.338 -0.406931 -0.539799 0
M  V30 1868 H 180.892 -1.69078 -1.16626 0
M  V30 1869 H 179.122 -1.20528 -3.67437 0
M  V30 1870 H 180.811 -1.62154 -3.72103 0
M  V30 1871 H 181.577 -3.93931 -2.82919 0
M  V30 1872 H 177.456 -2.94496 -3.54673 0
M  V30 1873 H 181 -6.33852 -2.91337 0
M  V30 1874 H 176.897 -5.33543 -3.63321 0
M  V30 1875 H 177.665 -7.40598 -3.48507 0
M  V30 1876 N 180.328 1.1314 -1.09713 0
M  V30 1877 C 181.575 1.84484 -0.834987 0
M  V30 1878 C 181.903 1.83689 0.639418 0
M  V30 1879 O 181.158 1.2724 1.4869 0
M  V30 1880 C 181.457 3.32167 -1.3191 0
M  V30 1881 C 181.123 3.53139 -2.80363 0
M  V30 1882 C 179.785 3.58571 -3.20905 0
M  V30 1883 C 182.137 3.60866 -3.76065 0
M  V30 1884 C 179.465 3.69267 -4.55916 0
M  V30 1885 C 181.817 3.73089 -5.10869 0
M  V30 1886 C 180.481 3.76775 -5.50996 0
M  V30 1887 H 179.751 0.675073 -0.305544 0
M  V30 1888 H 182.398 1.33554 -1.37243 0
M  V30 1889 H 180.703 3.85469 -0.701517 0
M  V30 1890 H 182.4 3.85821 -1.09284 0
M  V30 1891 H 178.99 3.49569 -2.47991 0
M  V30 1892 H 183.174 3.55946 -3.45855 0
M  V30 1893 H 178.43 3.70388 -4.86438 0
M  V30 1894 H 182.604 3.78011 -5.84877 0
M  V30 1895 H 180.231 3.84815 -6.55608 0
M  V30 1896 N 181.806 0.884767 1.30421 0
M  V30 1897 C 183.083 0.423185 1.90967 0
M  V30 1898 C 183.463 -1.09605 1.80416 0
M  V30 1899 O 182.811 -1.93126 1.22125 0
M  V30 1900 C 183.021 0.921056 3.36627 0
M  V30 1901 C 184.369 0.955903 4.137 0
M  V30 1902 O 185.393 0.867706 3.4547 0
M  V30 1903 O 184.252 1.08614 5.35598 0
M  V30 1904 H 181.346 0.129369 0.816819 0
M  V30 1905 H 183.892 0.973653 1.3899 0
M  V30 1906 H 182.664 1.96489 3.3839 0
M  V30 1907 H 182.287 0.349741 3.96059 0
M  V30 1908 N 183.284 -1.43765 0.645699 0
M  V30 1909 C 184.7 -1.56509 0.312591 0
M  V30 1910 C 184.9 -1.6307 -1.18365 0
M  V30 1911 O 183.956 -1.58167 -1.96824 0
M  V30 1912 C 185.269 -2.82968 1.01733 0
M  V30 1913 C 186.817 -2.96701 0.996865 0
M  V30 1914 C 187.292 -4.25982 1.68236 0
M  V30 1915 N 188.783 -4.32829 1.64964 0
M  V30 1916 C 189.518 -5.31613 2.14885 0
M  V30 1917 N 189.014 -6.36718 2.73061 0
M  V30 1918 N 190.807 -5.23217 2.05428 0
M  V30 1919 H 182.958 -1.3775 1.61675 0
M  V30 1920 H 185.221 -0.661067 0.679481 0
M  V30 1921 H 184.927 -2.84156 2.0724 0
M  V30 1922 H 184.801 -3.72957 0.564177 0
M  V30 1923 H 187.188 -2.95058 -0.0497719 0
M  V30 1924 H 187.269 -2.08022 1.48865 0
M  V30 1925 H 186.913 -4.28386 2.72852 0
M  V30 1926 H 186.843 -5.13545 1.16529 0
M  V30 1927 H 189.334 -3.57493 1.22503 0
M  V30 1928 H 189.647 -7.08401 3.08848 0
M  V30 1929 H 187.992 -6.37362 2.77118 0
M  V30 1930 H 191.183 -4.40019 1.59689 0
M  V30 1931 H 191.356 -6.00045 2.44643 0
M  V30 1932 N 184.763 -0.387143 -1.52771 0
M  V30 1933 C 185.695 0.484089 -2.2403 0
M  V30 1934 C 186.708 1.02849 -1.26198 0
M  V30 1935 O 187.897 0.931186 -1.52286 0
M  V30 1936 C 184.997 1.68337 -2.94136 0
M  V30 1937 C 184.17 1.26672 -4.18656 0
M  V30 1938 C 183.229 2.33045 -4.7178 0
M  V30 1939 O 182.255 1.94541 -5.34923 0
M  V30 1940 N 183.457 3.64929 -4.5145 0
M  V30 1941 H 186.222 -0.126404 -2.99433 0
M  V30 1942 H 183.783 -0.213392 -1.60488 0
M  V30 1943 H 185.775 2.39019 -3.26577 0
M  V30 1944 H 184.345 2.20025 -2.22053 0
M  V30 1945 H 183.565 0.388878 -3.92277 0
M  V30 1946 H 184.853 0.964964 -4.99566 0
M  V30 1947 H 184.251 3.98974 -4.01044 0
M  V30 1948 H 182.808 4.31651 -4.88386 0
M  V30 1949 N 186.241 1.57166 -0.116904 0
M  V30 1950 C 187.471 1.99184 0.548586 0
M  V30 1951 C 187.879 0.995436 1.60897 0
M  V30 1952 O 187.222 -0.0201293 1.83689 0
M  V30 1953 C 187.284 3.37611 1.23526 0
M  V30 1954 C 186.948 4.55857 0.323077 0
M  V30 1955 C 187.945 5.18056 -0.437476 0
M  V30 1956 C 185.63 5.01751 0.234761 0
M  V30 1957 C 187.624 6.24536 -1.2741 0
M  V30 1958 C 185.311 6.08093 -0.605496 0
M  V30 1959 C 186.309 6.69352 -1.35856 0
M  V30 1960 O 185.997 7.7364 -2.18487 0
M  V30 1961 H 185.729 0.659148 0.149999 0
M  V30 1962 H 188.283 2.0443 -0.199428 0
M  V30 1963 H 186.513 3.29113 2.0303 0
M  V30 1964 H 188.202 3.63932 1.79745 0
M  V30 1965 H 188.968 4.83516 -0.379105 0
M  V30 1966 H 184.847 4.53817 0.810601 0
M  V30 1967 H 188.391 6.72281 -1.86237 0
M  V30 1968 H 184.288 6.42063 -0.665268 0
M  V30 1969 H 185.056 7.90727 -2.11406 0
M  V30 1970 N 187.719 -0.156864 1.56817 0
M  V30 1971 C 188.947 -0.886316 1.86955 0
M  V30 1972 C 189.362 -1.75185 0.703975 0
M  V30 1973 O 188.719 -1.79555 -0.326552 0
M  V30 1974 C 188.77 -1.75117 3.16253 0
M  V30 1975 O 188.491 -0.920537 4.2832 0
M  V30 1976 C 189.992 -2.58905 3.59837 0
M  V30 1977 H 187.212 -0.25678 0.619923 0
M  V30 1978 H 189.756 -0.152615 2.0393 0
M  V30 1979 H 187.911 -2.43805 3.01062 0
M  V30 1980 H 188.325 -1.51337 5.02192 0
M  V30 1981 H 189.799 -3.1518 4.53172 0
M  V30 1982 H 190.276 -3.34472 2.84649 0
M  V30 1983 H 190.882 -1.95526 3.7769 0
M  V30 1984 N 189.197 -1.51736 -0.425897 0
M  V30 1985 C 190.16 -1.73271 -1.50032 0
M  V30 1986 C 191.16 -0.602639 -1.4908 0
M  V30 1987 O 192.35 -0.87033 -1.509 0
M  V30 1988 C 189.482 -1.79969 -2.89523 0
M  V30 1989 H 190.675 -2.69172 -1.32237 0
M  V30 1990 H 188.228 -1.41899 -0.65532 0
M  V30 1991 H 188.963 -0.859241 -3.1271 0
M  V30 1992 H 188.748 -2.62109 -2.91619 0
M  V30 1993 H 190.238 -1.9843 -3.67444 0
M  V30 1994 N 190.675 0.682077 -1.42076 0
M  V30 1995 C 191.9 1.47558 -1.45744 0
M  V30 1996 C 192.325 1.87977 -0.0680981 0
M  V30 1997 O 191.683 1.55522 0.9318 0
M  V30 1998 C 191.731 2.70575 -2.38373 0
M  V30 1999 O 190.835 3.68573 -1.85007 0
M  V30 2000 H 190.176 0.443585 -0.494093 0
M  V30 2001 H 192.706 0.837238 -1.86686 0
M  V30 2002 H 192.716 3.18729 -2.54707 0
M  V30 2003 H 191.391 2.40495 -3.39315 0
M  V30 2004 H 189.968 3.2757 -1.78192 0
M  V30 2005 N 192.153 1.28127 0.917671 0
M  V30 2006 C 193.569 1.05749 1.19538 0
M  V30 2007 C 193.769 -0.202633 2.00479 0
M  V30 2008 O 192.825 -0.905382 2.3571 0
M  V30 2009 C 194.138 2.30273 1.93378 0
M  V30 2010 C 195.686 2.35412 2.06277 0
M  V30 2011 C 196.161 3.59692 2.83524 0
M  V30 2012 N 197.652 3.60309 2.91087 0
M  V30 2013 C 198.387 4.53147 3.51348 0
M  V30 2014 N 197.883 5.563 4.12919 0
M  V30 2015 N 199.676 4.40751 3.48849 0
M  V30 2016 H 191.827 2.09024 0.377184 0
M  V30 2017 H 194.09 0.919798 0.22951 0
M  V30 2018 H 193.796 3.22055 1.41328 0
M  V30 2019 H 193.67 2.36378 2.93947 0
M  V30 2020 H 196.057 1.4413 2.57508 0
M  V30 2021 H 196.138 2.33304 1.04895 0
M  V30 2022 H 195.782 4.51316 2.32973 0
M  V30 2023 H 195.712 3.59054 3.85211 0
M  V30 2024 H 198.203 2.85714 2.47338 0
M  V30 2025 H 198.516 6.2329 4.56869 0
M  V30 2026 H 196.861 5.60131 4.11435 0
M  V30 2027 H 200.052 3.59367 2.99955 0
M  V30 2028 H 200.225 5.13291 3.9552 0
M  V30 2029 N 193.631 -1.12557 1.10312 0
M  V30 2030 C 194.594 -2.16434 0.75424 0
M  V30 2031 C 195.594 -1.59278 -0.220685 0
M  V30 2032 O 196.784 -1.742 0.00230591 0
M  V30 2033 C 193.916 -3.40699 0.116987 0
M  V30 2034 H 195.109 -2.48811 1.67431 0
M  V30 2035 H 192.662 -1.27542 0.903475 0
M  V30 2036 H 193.397 -3.13921 -0.813877 0
M  V30 2037 H 193.182 -3.83459 0.818613 0
M  V30 2038 H 194.672 -4.17451 -0.111387 0
M  V30 2039 N 195.109 -0.891671 -1.2995 0
M  V30 2040 C 196.355 -0.514261 -1.96171 0
M  V30 2041 C 196.688 0.935506 -1.70182 0
M  V30 2042 O 195.963 1.66204 -1.01028 0
M  V30 2043 C 196.246 -0.797719 -3.51153 0
M  V30 2044 C 196.099 -2.2986 -3.86632 0
M  V30 2045 C 197.418 -0.278749 -4.39216 0
M  V30 2046 H 194.537 -0.188314 -0.712535 0
M  V30 2047 H 197.179 -1.11689 -1.53706 0
M  V30 2048 H 195.329 -0.284826 -3.87455 0
M  V30 2049 H 197.001 -2.88042 -3.60319 0
M  V30 2050 H 195.244 -2.76257 -3.34462 0
M  V30 2051 H 195.915 -2.44753 -4.94773 0
M  V30 2052 H 198.391 -0.717825 -4.09862 0
M  V30 2053 H 197.267 -0.506353 -5.46559 0
M  V30 2054 H 197.528 0.820266 -4.34424 0
M  V30 2055 N 196.587 1.43421 -0.653314 0
M  V30 2056 C 197.55 2.29182 0.0287951 0
M  V30 2057 C 198.55 1.42213 0.750465 0
M  V30 2058 O 199.74 1.63843 0.591701 0
M  V30 2059 C 196.872 3.24278 1.05151 0
M  V30 2060 H 198.065 2.90985 -0.725786 0
M  V30 2061 H 195.618 1.50702 -0.414545 0
M  V30 2062 H 196.353 2.6737 1.83532 0
M  V30 2063 H 196.138 3.88396 0.537687 0
M  V30 2064 H 197.628 3.88647 1.52786 0
M  V30 2065 N 198.065 0.39524 1.52563 0
M  V30 2066 C 199.481 0.0454682 1.59535 0
M  V30 2067 C 199.681 -1.44056 1.4089 0
M  V30 2068 O 198.737 -2.20579 1.22888 0
M  V30 2069 C 200.05 0.527963 2.96029 0
M  V30 2070 C 201.598 0.484733 3.09224 0
M  V30 2071 C 202.073 0.943512 4.48176 0
M  V30 2072 N 203.564 0.899765 4.54377 0
M  V30 2073 C 204.299 1.22609 5.60138 0
M  V30 2074 N 203.795 1.62319 6.73516 0
M  V30 2075 N 205.588 1.14696 5.50274 0
M  V30 2076 H 197.739 1.36261 1.62931 0
M  V30 2077 H 200.002 0.558887 0.765735 0
M  V30 2078 H 199.708 1.56607 3.14908 0
M  V30 2079 H 199.582 -0.0698056 3.77135 0
M  V30 2080 H 201.969 -0.544298 2.90037 0
M  V30 2081 H 202.05 1.11838 2.30056 0
M  V30 2082 H 201.694 1.9708 4.68104 0
M  V30 2083 H 201.624 0.286817 5.25818 0
M  V30 2084 H 204.115 0.607632 3.72983 0
M  V30 2085 H 204.428 1.85567 7.5019 0
M  V30 2086 H 202.773 1.66211 6.74833 0
M  V30 2087 H 205.964 0.835701 4.6058 0
M  V30 2088 H 206.137 1.40459 6.32594 0
M  V30 2089 N 199.544 -1.57102 0.125237 0
M  V30 2090 C 200.454 -2.19191 -0.8362 0
M  V30 2091 C 201.47 -1.16985 -1.28805 0
M  V30 2092 O 202.646 -1.49479 -1.34974 0
M  V30 2093 C 199.711 -2.78407 -2.06617 0
M  V30 2094 C 198.772 -3.9567 -1.66565 0
M  V30 2095 C 198.005 -4.52052 -2.83698 0
M  V30 2096 O 198.228 -4.07326 -3.99302 0
M  V30 2097 O 197.162 -5.42645 -2.60423 0
M  V30 2098 H 200.988 -3.01816 -0.337776 0
M  V30 2099 H 198.573 -1.4906 -0.100695 0
M  V30 2100 H 200.455 -3.16129 -2.7864 0
M  V30 2101 H 199.13 -1.9881 -2.55453 0
M  V30 2102 H 198.037 -3.62705 -0.916296 0
M  V30 2103 H 199.37 -4.76722 -1.22464 0
M  V30 2104 N 201.022 0.148545 -1.56898 0
M  V30 2105 C 202.268 0.862694 -1.83536 0
M  V30 2106 C 202.601 1.80889 -0.706604 0
M  V30 2107 O 201.876 1.92328 0.289885 0
M  V30 2108 C 202.159 1.63853 -3.20662 0
M  V30 2109 C 202.012 0.713925 -4.44098 0
M  V30 2110 C 203.331 2.60133 -3.54991 0
M  V30 2111 H 200.45 0.312179 -0.667618 0
M  V30 2112 H 203.092 0.127953 -1.89569 0
M  V30 2113 H 201.242 2.26489 -3.1565 0
M  V30 2114 H 202.914 0.098686 -4.61194 0
M  V30 2115 H 201.157 0.0234019 -4.33794 0
M  V30 2116 H 201.828 1.29278 -5.36648 0
M  V30 2117 H 204.304 2.07616 -3.60603 0
M  V30 2118 H 203.18 3.11468 -4.51972 0
M  V30 2119 H 203.441 3.41417 -2.80868 0
M  V30 2120 N 202.5 1.5196 0.417844 0
M  V30 2121 C 203.43 1.77634 1.51554 0
M  V30 2122 C 204.411 0.626918 1.58126 0
M  V30 2123 O 205.596 0.871632 1.7354 0
M  V30 2124 C 202.726 1.91911 2.8946 0
M  V30 2125 C 201.68 3.07463 2.97743 0
M  V30 2126 C 201.006 3.06951 4.37819 0
M  V30 2127 C 202.306 4.47082 2.70027 0
M  V30 2128 H 204 2.6955 1.3032 0
M  V30 2129 H 201.546 1.29706 0.625492 0
M  V30 2130 H 203.499 2.08455 3.6623 0
M  V30 2131 H 202.223 0.966598 3.11969 0
M  V30 2132 H 200.882 2.90656 2.23416 0
M  V30 2133 H 200.53 2.09438 4.57323 0
M  V30 2134 H 200.23 3.84556 4.44286 0
M  V30 2135 H 201.754 3.25613 5.16535 0
M  V30 2136 H 203.168 4.6414 3.36522 0
M  V30 2137 H 201.565 5.2654 2.87881 0
M  V30 2138 H 202.635 4.55777 1.65514 0
M  V30 2139 N 203.978 -0.674533 1.42435 0
M  V30 2140 C 205.394 -0.98769 1.25367 0
M  V30 2141 C 205.594 -2.00879 0.158044 0
M  V30 2142 O 204.65 -2.48075 -0.470633 0
M  V30 2143 C 205.963 -1.49224 2.6106 0
M  V30 2144 C 207.511 -1.61 2.68417 0
M  V30 2145 C 207.986 -2.14852 4.04478 0
M  V30 2146 N 209.477 -2.22185 4.06434 0
M  V30 2147 C 210.212 -2.64928 5.08528 0
M  V30 2148 N 209.708 -3.07121 6.21006 0
M  V30 2149 N 211.501 -2.64679 4.95885 0
M  V30 2150 H 203.652 0.00152503 2.124 0
M  V30 2151 H 205.915 -0.0618434 0.945981 0
M  V30 2152 H 205.621 -0.816453 3.42092 0
M  V30 2153 H 205.495 -2.47094 2.84999 0
M  V30 2154 H 207.882 -2.27686 1.87732 0
M  V30 2155 H 207.963 -0.616195 2.48267 0
M  V30 2156 H 207.607 -1.48775 4.85622 0
M  V30 2157 H 207.537 -3.15024 4.2198 0
M  V30 2158 H 210.028 -1.92435 3.25234 0
M  V30 2159 H 210.341 -3.38423 6.94759 0
M  V30 2160 H 208.686 -3.04978 6.24511 0
M  V30 2161 H 211.877 -2.31078 4.07088 0
M  V30 2162 H 212.05 -2.9767 5.75584 0
M  V30 2163 N 205.456 -1.28612 -0.910864 0
M  V30 2164 C 206.419 -1.12803 -1.9952 0
M  V30 2165 C 207.419 -0.0668264 -1.60661 0
M  V30 2166 O 208.609 -0.312847 -1.71368 0
M  V30 2167 C 205.741 -0.72254 -3.33155 0
M  V30 2168 H 206.934 -2.09109 -2.14973 0
M  V30 2169 H 204.487 -1.11639 -1.09391 0
M  V30 2170 H 205.222 0.241152 -3.23402 0
M  V30 2171 H 205.007 -1.48916 -3.62721 0
M  V30 2172 H 206.497 -0.634666 -4.12749 0
M  V30 2173 N 206.934 1.1197 -1.10907 0
M  V30 2174 C 208.162 1.87402 -0.876824 0
M  V30 2175 C 208.577 1.79894 0.573025 0
M  V30 2176 O 207.934 1.17629 1.39534 0
M  V30 2177 C 207.985 3.36428 -1.32282 0
M  V30 2178 O 207.706 3.43765 -2.71582 0
M  V30 2179 C 209.207 4.28783 -1.12518 0
M  V30 2180 H 206.427 0.592793 -0.314384 0
M  V30 2181 H 208.971 1.41649 -1.47499 0
M  V30 2182 H 207.126 3.79706 -0.768229 0
M  V30 2183 H 207.54 4.3652 -2.90776 0
M  V30 2184 H 209.014 5.31613 -1.48633 0
M  V30 2185 H 209.491 4.39153 -0.0642394 0
M  V30 2186 H 210.097 3.91291 -1.66648 0
M  V30 2187 N 208.412 0.89855 1.29475 0
M  V30 2188 C 209.66 0.522847 1.9522 0
M  V30 2189 C 209.981 -0.93371 1.71192 0
M  V30 2190 O 209.251 -1.65823 1.04305 0
M  V30 2191 H 207.831 0.190366 0.722336 0
M  V30 2192 H 210.493 1.14459 1.5775 0
M  V30 2193 H 209.589 0.704476 3.04045 0
M  V30 2194 N 209.89 -1.43072 0.660911 0
M  V30 2195 C 211.118 -2.06067 0.185422 0
M  V30 2196 C 211.533 -1.49582 -1.15198 0
M  V30 2197 O 210.89 -0.630134 -1.71276 0
M  V30 2198 C 210.941 -3.61371 0.0966523 0
M  V30 2199 O 210.662 -4.15758 1.38119 0
M  V30 2200 C 212.163 -4.41455 -0.403996 0
M  V30 2201 H 209.383 -0.664459 0.0934604 0
M  V30 2202 H 211.927 -1.83447 0.90373 0
M  V30 2203 H 210.082 -3.8315 -0.572259 0
M  V30 2204 H 210.496 -5.09499 1.24542 0
M  V30 2205 H 211.97 -5.50437 -0.415045 0
M  V30 2206 H 212.447 -4.15036 -1.43674 0
M  V30 2207 H 213.053 -4.24663 0.232691 0
M  V30 2208 N 211.368 -0.403325 -1.52352 0
M  V30 2209 C 212.278 0.432009 -2.30588 0
M  V30 2210 C 213.294 1.05884 -1.38075 0
M  V30 2211 O 214.47 1.06161 -1.71148 0
M  V30 2212 C 211.535 1.53669 -3.10784 0
M  V30 2213 C 210.596 0.933525 -4.19027 0
M  V30 2214 C 209.829 1.98557 -4.9539 0
M  V30 2215 O 210.052 3.20283 -4.71991 0
M  V30 2216 O 208.986 1.59504 -5.80381 0
M  V30 2217 H 212.812 -0.205739 -3.03002 0
M  V30 2218 H 210.397 -0.166675 -1.48467 0
M  V30 2219 H 212.279 2.17814 -3.60742 0
M  V30 2220 H 210.954 2.15915 -2.41169 0
M  V30 2221 H 209.861 0.254954 -3.7323 0
M  V30 2222 H 211.194 0.35508 -4.90918 0
M  V30 2223 N 212.846 1.57033 -0.133567 0
M  V30 2224 C 214.257 1.82593 0.389464 0
M  V30 2225 C 214.608 1.05156 1.6564 0
M  V30 2226 O 213.733 0.292644 2.14412 0
M  V30 2227 C 214.328 3.31204 0.713377 0
M  V30 2228 C 212.887 3.57393 1.18098 0
M  V30 2229 C 212.034 2.76598 0.197126 0
M  V30 2230 H 214.985 1.54598 -0.358481 0
M  V30 2231 H 215.006 3.46627 1.56939 0
M  V30 2232 H 214.518 3.87537 -0.2089 0
M  V30 2233 H 212.619 3.06433 2.11966 0
M  V30 2234 H 212.732 4.65915 1.11624 0
M  V30 2235 H 211.096 2.45257 0.687088 0
M  V30 2236 H 211.879 3.35697 -0.718504 0
M  V30 2237 N 214.325 -0.140222 1.56975 0
M  V30 2238 C 215.602 -0.880769 1.74648 0
M  V30 2239 C 215.982 -1.99036 0.703404 0
M  V30 2240 O 215.33 -2.26821 -0.27648 0
M  V30 2241 C 215.54 -1.417 3.18939 0
M  V30 2242 C 216.888 -1.87774 3.80823 0
M  V30 2243 O 217.912 -1.51427 3.2241 0
M  V30 2244 O 216.771 -2.54827 4.83452 0
M  V30 2245 H 213.865 -0.416713 0.714338 0
M  V30 2246 H 216.411 -0.125618 1.69234 0
M  V30 2247 H 215.183 -0.619902 3.86359 0
M  V30 2248 H 214.806 -2.23546 3.28805 0
M  V30 2249 N 215.803 -1.52179 -0.40978 0
M  V30 2250 C 217.051 -1.65878 -1.15451 0
M  V30 2251 C 217.372 -0.390771 -1.91044 0
M  V30 2252 O 216.642 0.594323 -1.86667 0
M  V30 2253 H 215.222 -0.611405 -0.429177 0
M  V30 2254 H 217.884 -1.89219 -0.467134 0
M  V30 2255 H 216.98 -2.49954 -1.86894 0
M  V30 2256 N 217.281 0.66697 -1.42791 0
M  V30 2257 C 218.529 1.42417 -1.43394 0
M  V30 2258 C 218.85 1.94925 -0.0542373 0
M  V30 2259 O 218.12 1.73564 0.908415 0
M  V30 2260 H 216.7 0.528515 -0.527902 0
M  V30 2261 H 219.362 0.787562 -1.78279 0
M  V30 2262 H 218.458 2.27333 -2.13837 0
M  V30 2263 N 218.759 1.29093 0.90403 0
M  V30 2264 C 220.005 1.16986 1.65656 0
M  V30 2265 C 220.338 -0.278925 1.92186 0
M  V30 2266 O 219.613 -1.2019 1.5292 0
M  V30 2267 C 219.896 1.97908 3.0084 0
M  V30 2268 C 219.749 3.50903 2.81403 0
M  V30 2269 C 221.068 1.80208 4.01513 0
M  V30 2270 H 218.187 0.426346 0.601164 0
M  V30 2271 H 220.829 1.58518 1.04747 0
M  V30 2272 H 218.979 1.62616 3.52829 0
M  V30 2273 H 220.651 3.96153 2.36348 0
M  V30 2274 H 218.894 3.76045 2.1627 0
M  V30 2275 H 219.565 4.02791 3.77443 0
M  V30 2276 H 222.041 2.11025 3.58619 0
M  V30 2277 H 220.917 2.39184 4.94047 0
M  V30 2278 H 221.178 0.756119 4.35586 0
M  V30 2279 N 220.237 -1.11381 1.11499 0
M  V30 2280 C 221.147 -2.21019 0.786628 0
M  V30 2281 C 222.163 -1.72597 -0.220507 0
M  V30 2282 O 223.339 -2.01321 -0.0565251 0
M  V30 2283 C 220.404 -3.459 0.235333 0
M  V30 2284 C 219.465 -4.09107 1.30115 0
M  V30 2285 C 218.698 -5.28027 0.776068 0
M  V30 2286 O 218.921 -5.6904 -0.393661 0
M  V30 2287 O 217.855 -5.81835 1.54114 0
M  V30 2288 H 221.681 -2.51521 1.70209 0
M  V30 2289 H 219.266 -1.19928 0.890928 0
M  V30 2290 H 221.148 -4.21346 -0.067715 0
M  V30 2291 H 219.823 -3.17049 -0.652828 0
M  V30 2292 H 218.73 -3.35391 1.65722 0
M  V30 2293 H 220.063 -4.42139 2.16273 0
M  V30 2294 N 221.715 -0.905404 -1.28997 0
M  V30 2295 C 222.678 -0.392253 -2.25819 0
M  V30 2296 C 223.678 0.476753 -1.5357 0
M  V30 2297 O 224.868 0.280994 -1.71919 0
M  V30 2298 C 222 0.438588 -3.38067 0
M  V30 2299 H 223.193 -1.24743 -2.72725 0
M  V30 2300 H 220.746 -0.684051 -1.40536 0
M  V30 2301 H 221.481 1.31352 -2.96508 0
M  V30 2302 H 221.266 -0.184167 -3.91667 0
M  V30 2303 H 222.756 0.78873 -4.10084 0
M  V30 2304 N 223.193 1.4272 -0.668489 0
M  V30 2305 C 224.44 2.01624 -0.18814 0
M  V30 2306 C 224.768 1.5282 1.20317 0
M  V30 2307 O 224.023 0.718323 1.8204 0
M  V30 2308 C 224.322 3.57021 -0.164499 0
M  V30 2309 C 223.988 4.25232 -1.49962 0
M  V30 2310 C 222.65 4.4358 -1.8652 0
M  V30 2311 C 225.002 4.63727 -2.37921 0
M  V30 2312 C 222.33 4.97694 -3.10674 0
M  V30 2313 C 224.682 5.19218 -3.6138 0
M  V30 2314 C 223.346 5.3578 -3.98115 0
M  V30 2315 H 222.616 0.737795 -0.0688454 0
M  V30 2316 H 225.263 1.70991 -0.862225 0
M  V30 2317 H 223.568 3.87285 0.593079 0
M  V30 2318 H 225.265 4.00372 0.224271 0
M  V30 2319 H 221.855 4.11306 -1.20522 0
M  V30 2320 H 226.039 4.4923 -2.10964 0
M  V30 2321 H 221.295 5.08702 -3.39164 0
M  V30 2322 H 225.469 5.4799 -4.29743 0
M  V30 2323 H 223.096 5.77475 -4.94395 0
M  V30 2324 N 224.671 0.411399 1.52136 0
M  V30 2325 C 225.601 -0.404015 2.29978 0
M  V30 2326 C 226.582 -1.04412 1.34284 0
M  V30 2327 O 227.767 -1.0527 1.63192 0
M  V30 2328 C 224.897 -1.5197 3.12286 0
M  V30 2329 C 223.851 -1.00448 4.16046 0
M  V30 2330 C 223.177 -2.21393 4.86712 0
M  V30 2331 C 224.477 -0.0569336 5.22269 0
M  V30 2332 H 226.171 0.245529 2.98392 0
M  V30 2333 H 223.717 0.119525 1.43503 0
M  V30 2334 H 225.67 -2.09715 3.6551 0
M  V30 2335 H 224.394 -2.19716 2.41646 0
M  V30 2336 H 223.053 -0.449421 3.63835 0
M  V30 2337 H 222.701 -2.87699 4.12599 0
M  V30 2338 H 222.401 -1.87571 5.56858 0
M  V30 2339 H 223.925 -2.7974 5.4275 0
M  V30 2340 H 225.339 -0.54325 5.7072 0
M  V30 2341 H 223.736 0.192594 5.99791 0
M  V30 2342 H 224.806 0.887663 4.76706 0
M  V30 2343 N 226.149 -1.5696 0.141893 0
M  V30 2344 C 227.426 -1.87553 -0.555281 0
M  V30 2345 C 227.806 -1.04699 -1.83306 0
M  V30 2346 O 227.154 -0.132346 -2.28116 0
M  V30 2347 C 227.364 -3.39093 -0.825664 0
M  V30 2348 C 228.712 -4.08199 -1.16869 0
M  V30 2349 O 229.736 -3.44242 -0.915185 0
M  V30 2350 O 228.595 -5.21139 -1.6455 0
M  V30 2351 H 225.689 -0.777188 -0.282679 0
M  V30 2352 H 228.235 -1.68763 0.17812 0
M  V30 2353 H 227.007 -3.91221 0.0788633 0
M  V30 2354 H 226.63 -3.63393 -1.61343 0
M  V30 2355 N 227.627 0.131896 -1.57047 0
M  V30 2356 C 228.867 0.847972 -1.85981 0
M  V30 2357 C 229.231 1.77655 -0.7282 0
M  V30 2358 O 230.432 2.53322 -0.898968 0
M  V30 2359 C 228.703 1.58919 -3.20124 0
M  V30 2360 S 230.262 2.34862 -3.70655 0
M  V30 2361 H 227.08 0.283273 -0.652133 0
M  V30 2362 H 229.682 0.107057 -1.95207 0
M  V30 2363 H 228.386 0.898771 -4.00438 0
M  V30 2364 H 227.917 2.37073 -3.13942 0
M  V30 2365 H 229.932 3.60344 -3.41126 0
M  V30 2366 N 229.106 1.52395 0.401703 0
M  V30 2367 C 230.016 1.7917 1.51444 0
M  V30 2368 C 231.032 0.677691 1.6026 0
M  V30 2369 O 232.208 0.963909 1.76835 0
M  V30 2370 C 229.273 1.94347 2.87107 0
M  V30 2371 C 228.334 3.18257 2.88116 0
M  V30 2372 C 227.567 3.32701 4.17308 0
M  V30 2373 O 227.79 2.52238 5.11598 0
M  V30 2374 O 226.724 4.25891 4.25324 0
M  V30 2375 H 230.55 2.73633 1.31752 0
M  V30 2376 H 228.135 1.3733 0.588296 0
M  V30 2377 H 230.017 2.06109 3.67555 0
M  V30 2378 H 228.692 1.03073 3.06851 0
M  V30 2379 H 227.599 3.11947 2.06494 0
M  V30 2380 H 228.932 4.09336 2.73322 0
M  V30 2381 N 230.584 -0.659388 1.43143 0
M  V30 2382 C 231.995 -1.24041 1.39537 0
M  V30 2383 C 232.346 -1.95963 0.0963364 0
M  V30 2384 O 231.471 -2.00892 -0.804438 0
M  V30 2385 C 232.066 -2.25601 2.52764 0
M  V30 2386 C 230.625 -2.79195 2.52443 0
M  V30 2387 C 229.772 -1.53743 2.30778 0
M  V30 2388 H 232.723 -0.451792 1.52133 0
M  V30 2389 H 232.744 -3.07651 2.23899 0
M  V30 2390 H 232.256 -1.73226 3.47296 0
M  V30 2391 H 230.357 -3.35649 1.61773 0
M  V30 2392 H 230.47 -3.2716 3.50004 0
M  V30 2393 H 228.834 -1.80869 1.79328 0
M  V30 2394 H 229.617 -1.03312 3.27386 0
M  V30 2395 N 232.062 -1.29571 -0.897171 0
M  V30 2396 C 232.992 -1.17473 -2.01798 0
M  V30 2397 C 233.973 -0.068323 -1.69963 0
M  V30 2398 O 235.158 -0.248239 -1.92607 0
M  V30 2399 C 232.288 -0.853099 -3.36659 0
M  V30 2400 C 231.242 -1.9161 -3.82713 0
M  V30 2401 C 230.568 -1.44773 -5.14728 0
M  V30 2402 C 231.868 -3.32535 -4.02763 0
M  V30 2403 H 233.562 -2.11237 -2.12177 0
M  V30 2404 H 231.108 -1.01699 -1.01948 0
M  V30 2405 H 233.061 -0.755165 -4.14578 0
M  V30 2406 H 231.785 0.120236 -3.26379 0
M  V30 2407 H 230.444 -2.00346 -3.07013 0
M  V30 2408 H 230.092 -0.462995 -5.00865 0
M  V30 2409 H 229.792 -2.15865 -5.46513 0
M  V30 2410 H 231.316 -1.36334 -5.95185 0
M  V30 2411 H 232.73 -3.26626 -4.71156 0
M  V30 2412 H 231.127 -4.01607 -4.45905 0
M  V30 2413 H 232.197 -3.75326 -3.07016 0
M  V30 2414 N 233.54 1.10788 -1.12088 0
M  V30 2415 C 234.47 2.19083 -0.807755 0
M  V30 2416 C 235.451 1.6858 0.226859 0
M  V30 2417 O 236.636 1.93997 0.0888475 0
M  V30 2418 C 233.766 3.46344 -0.257576 0
M  V30 2419 C 232.72 4.101 -1.22483 0
M  V30 2420 C 232.046 5.32016 -0.535052 0
M  V30 2421 C 233.346 4.54236 -2.57811 0
M  V30 2422 H 235.04 2.45534 -1.71328 0
M  V30 2423 H 232.586 1.1801 -0.825205 0
M  V30 2424 H 234.539 4.21392 -0.0262679 0
M  V30 2425 H 233.263 3.19373 0.683278 0
M  V30 2426 H 231.922 3.37054 -1.44189 0
M  V30 2427 H 231.57 5.01319 0.410827 0
M  V30 2428 H 231.27 5.75625 -1.18024 0
M  V30 2429 H 232.794 6.09799 -0.312695 0
M  V30 2430 H 234.208 5.20575 -2.40155 0
M  V30 2431 H 232.605 5.08682 -3.18375 0
M  V30 2432 H 233.675 3.6734 -3.16528 0
M  V30 2433 N 235.018 0.912232 1.28515 0
M  V30 2434 C 236.434 0.610159 1.47476 0
M  V30 2435 C 236.634 -0.844955 1.82928 0
M  V30 2436 O 235.69 -1.62416 1.93332 0
M  V30 2437 C 237.003 1.54675 2.57868 0
M  V30 2438 C 238.551 1.55331 2.71738 0
M  V30 2439 C 239.026 2.47649 3.85272 0
M  V30 2440 N 240.517 2.45767 3.92623 0
M  V30 2441 C 241.252 3.13896 4.79851 0
M  V30 2442 N 240.748 3.9135 5.71679 0
M  V30 2443 N 242.541 3.02991 4.73448 0
M  V30 2444 H 234.692 1.85318 1.03783 0
M  V30 2445 H 236.955 0.794777 0.516753 0
M  V30 2446 H 236.661 2.5841 2.38574 0
M  V30 2447 H 236.535 1.27671 3.54937 0
M  V30 2448 H 238.922 0.52335 2.90422 0
M  V30 2449 H 239.003 1.86378 1.75205 0
M  V30 2450 H 238.647 3.50745 3.67342 0
M  V30 2451 H 238.577 2.13904 4.81199 0
M  V30 2452 H 241.068 1.89503 3.26951 0
M  V30 2453 H 241.381 4.40359 6.35062 0
M  V30 2454 H 239.726 3.95455 5.71524 0
M  V30 2455 H 242.917 2.41987 4.007 0
M  V30 2456 H 243.09 3.5636 5.41213 0
M  V30 2457 N 236.496 -1.42363 0.676048 0
M  V30 2458 C 237.743 -2.01522 0.19883 0
M  V30 2459 C 238.071 -1.53456 -1.19505 0
M  V30 2460 O 237.326 -0.727967 -1.81657 0
M  V30 2461 C 237.625 -3.56929 0.183431 0
M  V30 2462 C 237.291 -4.24431 1.52215 0
M  V30 2463 C 235.953 -4.42585 1.8887 0
M  V30 2464 C 238.305 -4.62459 2.40377 0
M  V30 2465 C 235.633 -4.96039 3.13309 0
M  V30 2466 C 237.985 -5.17294 3.64129 0
M  V30 2467 C 236.649 -5.33661 4.00951 0
M  V30 2468 H 235.919 -0.737419 0.0727571 0
M  V30 2469 H 238.566 -1.70531 0.871281 0
M  V30 2470 H 236.871 -3.87594 -0.572532 0
M  V30 2471 H 238.568 -4.00486 -0.203035 0
M  V30 2472 H 235.158 -4.10661 1.22701 0
M  V30 2473 H 239.342 -4.48105 2.13343 0
M  V30 2474 H 234.598 -5.06896 3.41857 0
M  V30 2475 H 238.772 -5.45704 4.32644 0
M  V30 2476 H 236.399 -5.74845 4.9745 0
M  V30 2477 N 237.974 -0.419461 -1.51915 0
M  V30 2478 C 239.39 -0.0708431 -1.59443 0
M  V30 2479 C 239.59 1.41796 -1.43164 0
M  V30 2480 O 238.646 2.18596 -1.26381 0
M  V30 2481 C 239.959 -0.574991 -2.95151 0
M  V30 2482 C 241.507 -0.533867 -3.08413 0
M  V30 2483 C 241.982 -1.01469 -4.46618 0
M  V30 2484 N 243.473 -0.971939 -4.52888 0
M  V30 2485 C 244.208 -1.31505 -5.58116 0
M  V30 2486 N 243.704 -1.73014 -6.70849 0
M  V30 2487 N 245.497 -1.23436 -5.48379 0
M  V30 2488 H 237.648 -1.38836 -1.60743 0
M  V30 2489 H 239.911 -0.570998 -0.756747 0
M  V30 2490 H 239.617 -1.61597 -3.12377 0
M  V30 2491 H 239.491 0.00979777 -3.77199 0
M  V30 2492 H 241.878 0.498086 -2.90866 0
M  V30 2493 H 241.959 -1.15484 -2.28248 0
M  V30 2494 H 241.603 -2.04502 -4.6491 0
M  V30 2495 H 241.533 -0.370433 -5.25295 0
M  V30 2496 H 244.024 -0.666893 -3.71969 0
M  V30 2497 H 244.337 -1.97479 -7.47143 0
M  V30 2498 H 242.682 -1.76926 -6.72103 0
M  V30 2499 H 245.873 -0.908869 -4.59192 0
M  V30 2500 H 246.046 -1.50506 -6.30279 0
M  V30 2501 N 239.452 1.56882 -0.150215 0
M  V30 2502 C 240.682 2.00302 0.506213 0
M  V30 2503 C 241.09 1.02934 1.58749 0
M  V30 2504 O 240.433 0.0188384 1.8369 0
M  V30 2505 C 240.495 3.40156 1.16337 0
M  V30 2506 C 240.159 4.56439 0.226311 0
M  V30 2507 C 241.156 5.17012 -0.547265 0
M  V30 2508 C 238.841 5.02136 0.128279 0
M  V30 2509 C 240.835 6.21693 -1.40629 0
M  V30 2510 C 238.522 6.06672 -0.734345 0
M  V30 2511 C 239.52 6.6632 -1.50023 0
M  V30 2512 O 239.208 7.68831 -2.34848 0
M  V30 2513 H 238.94 0.662182 0.135984 0
M  V30 2514 H 241.494 2.03961 -0.242746 0
M  V30 2515 H 239.724 3.33346 1.96004 0
M  V30 2516 H 241.413 3.67663 1.71985 0
M  V30 2517 H 242.179 4.82603 -0.48158 0
M  V30 2518 H 238.058 4.55435 0.714157 0
M  V30 2519 H 241.602 6.68179 -2.00455 0
M  V30 2520 H 237.499 6.40507 -0.801309 0
M  V30 2521 H 238.267 7.86065 -2.28131 0
M  V30 2522 N 240.93 -0.123565 1.57115 0
M  V30 2523 C 242.177 -0.832153 1.84612 0
M  V30 2524 C 242.505 -1.80093 0.734627 0
M  V30 2525 O 241.76 -1.93766 -0.27442 0
M  V30 2526 C 242.059 -1.62016 3.18568 0
M  V30 2527 C 241.725 -0.796084 4.43817 0
M  V30 2528 C 240.387 -0.568816 4.77826 0
M  V30 2529 C 242.739 -0.221364 5.2073 0
M  V30 2530 C 240.067 0.243499 5.86194 0
M  V30 2531 C 242.419 0.578117 6.29953 0
M  V30 2532 C 241.083 0.815744 6.62497 0
M  V30 2533 H 240.353 -0.304507 0.675542 0
M  V30 2534 H 243 -0.0947248 1.91266 0
M  V30 2535 H 241.305 -2.42837 3.0747 0
M  V30 2536 H 243.002 -2.17231 3.37064 0
M  V30 2537 H 239.592 -0.983307 4.17168 0
M  V30 2538 H 243.776 -0.384173 4.94811 0
M  V30 2539 H 239.032 0.436871 6.09837 0
M  V30 2540 H 243.206 1.03046 6.88734 0
M  V30 2541 H 240.833 1.44701 7.46301 0
M  V30 2542 N 242.408 -1.52605 -0.393616 0
M  V30 2543 C 243.819 -1.59417 -0.971761 0
M  V30 2544 C 244.17 -0.444173 -1.91106 0
M  V30 2545 O 243.295 0.433382 -2.12016 0
M  V30 2546 C 243.89 -2.88936 -1.76921 0
M  V30 2547 C 242.449 -2.98175 -2.29714 0
M  V30 2548 C 241.596 -2.54491 -1.10135 0
M  V30 2549 H 244.547 -1.57751 -0.173317 0
M  V30 2550 H 244.568 -2.75163 -2.62804 0
M  V30 2551 H 244.08 -3.72616 -1.08532 0
M  V30 2552 H 242.181 -2.19024 -3.01429 0
M  V30 2553 H 242.294 -4.02726 -2.59517 0
M  V30 2554 H 240.658 -2.08702 -1.45999 0
M  V30 2555 H 241.441 -3.4056 -0.432874 0
M  V30 2556 N 243.887 0.651787 -1.4349 0
M  V30 2557 C 244.819 1.77725 -1.44729 0
M  V30 2558 C 245.832 1.59141 -0.343231 0
M  V30 2559 O 247.021 1.67835 -0.607751 0
M  V30 2560 C 244.121 3.15172 -1.24579 0
M  V30 2561 C 243.294 3.60402 -2.47849 0
M  V30 2562 C 242.353 4.76656 -2.22902 0
M  V30 2563 O 241.379 4.86022 -2.96263 0
M  V30 2564 N 242.581 5.66958 -1.24656 0
M  V30 2565 H 245.346 1.77141 -2.41746 0
M  V30 2566 H 242.907 0.835678 -1.38665 0
M  V30 2567 H 244.899 3.90634 -1.0577 0
M  V30 2568 H 243.469 3.1052 -0.360015 0
M  V30 2569 H 242.689 2.75369 -2.82073 0
M  V30 2570 H 243.977 3.87368 -3.29884 0
M  V30 2571 H 243.375 5.62065 -0.640265 0
M  V30 2572 H 241.932 6.42135 -1.1183 0
M  V30 2573 N 245.365 1.30045 0.890287 0
M  V30 2574 C 246.611 1.18737 1.64406 0
M  V30 2575 C 246.944 -0.258525 1.92472 0
M  V30 2576 O 246.219 -1.18562 1.54186 0
M  V30 2577 C 246.502 2.01087 2.98724 0
M  V30 2578 C 246.355 3.53867 2.77665 0
M  V30 2579 C 247.674 1.84457 3.9958 0
M  V30 2580 H 244.793 0.432698 0.596608 0
M  V30 2581 H 247.435 1.5962 1.0306 0
M  V30 2582 H 245.585 1.66349 3.51084 0
M  V30 2583 H 247.257 3.98637 2.32133 0
M  V30 2584 H 245.5 3.78318 2.12269 0
M  V30 2585 H 246.171 4.06772 3.7315 0
M  V30 2586 H 248.647 2.14817 3.56361 0
M  V30 2587 H 247.523 2.44411 4.91482 0
M  V30 2588 H 247.784 0.802276 4.3476 0
M  V30 2589 N 246.843 -1.10192 1.12674 0
M  V30 2590 C 248.254 -1.63707 0.897604 0
M  V30 2591 C 248.605 -1.87812 -0.567546 0
M  V30 2592 O 247.73 -1.62196 -1.43253 0
M  V30 2593 C 248.325 -2.974 1.62292 0
M  V30 2594 C 246.884 -3.47772 1.43986 0
M  V30 2595 C 246.031 -2.22332 1.65722 0
M  V30 2596 H 248.982 -0.936587 1.28116 0
M  V30 2597 H 249.003 -3.64986 1.07541 0
M  V30 2598 H 248.515 -2.79824 2.68924 0
M  V30 2599 H 246.616 -3.70487 0.396206 0
M  V30 2600 H 246.729 -4.25723 2.19765 0
M  V30 2601 H 245.093 -2.30599 1.08149 0
M  V30 2602 H 245.876 -2.07285 2.73657 0
M  V30 2603 N 248.321 -0.919034 -1.28029 0
M  V30 2604 C 249.231 -0.416756 -2.30869 0
M  V30 2605 C 250.247 0.498235 -1.66714 0
M  V30 2606 O 251.423 0.383144 -1.97722 0
M  V30 2607 C 248.488 0.330274 -3.45123 0
M  V30 2608 C 247.549 -0.618578 -4.2482 0
M  V30 2609 C 246.782 0.0928959 -5.33619 0
M  V30 2610 O 247.005 1.31375 -5.55065 0
M  V30 2611 O 245.939 -0.574499 -5.99152 0
M  V30 2612 H 249.765 -1.27043 -2.75851 0
M  V30 2613 H 247.35 -0.684052 -1.3282 0
M  V30 2614 H 249.232 0.751972 -4.14636 0
M  V30 2615 H 247.907 1.1597 -3.02213 0
M  V30 2616 H 246.814 -1.08978 -3.57875 0
M  V30 2617 H 248.147 -1.41497 -4.71423 0
M  V30 2618 N 249.799 1.42003 -0.683588 0
M  V30 2619 C 250.749 2.27997 0.0121992 0
M  V30 2620 C 251.733 1.4156 0.764822 0
M  V30 2621 O 252.925 1.64935 0.642287 0
M  V30 2622 C 250.054 3.29706 0.956482 0
M  V30 2623 C 249.14 4.23625 0.200739 0
M  V30 2624 N 249.531 4.99448 -0.799087 0
M  V30 2625 C 247.829 4.43845 0.437937 0
M  V30 2626 C 248.53 5.68102 -1.25041 0
M  V30 2627 N 247.506 5.40511 -0.578648 0
M  V30 2628 H 251.308 2.84048 -0.754564 0
M  V30 2629 H 248.822 1.54071 -0.513398 0
M  V30 2630 H 250.819 3.90124 1.47 0
M  V30 2631 H 249.479 2.75216 1.72297 0
M  V30 2632 H 250.49 5.04303 -1.17893 0
M  V30 2633 H 247.167 4.00382 1.18325 0
M  V30 2634 H 248.557 6.38913 -2.07942 0
M  V30 2635 N 251.277 0.427512 1.51691 0
M  V30 2636 C 252.693 0.0792977 1.59403 0
M  V30 2637 C 252.893 -1.41035 1.43914 0
M  V30 2638 O 251.949 -2.17922 1.27539 0
M  V30 2639 C 253.262 0.590636 2.94842 0
M  V30 2640 C 254.81 0.550215 3.08126 0
M  V30 2641 C 255.285 1.03836 4.46074 0
M  V30 2642 N 256.776 0.995943 4.52366 0
M  V30 2643 C 257.511 1.34463 5.57411 0
M  V30 2644 N 257.007 1.76569 6.69922 0
M  V30 2645 N 258.8 1.26343 5.47717 0
M  V30 2646 H 250.951 1.39687 1.60004 0
M  V30 2647 H 253.214 0.575003 0.753708 0
M  V30 2648 H 252.92 1.63251 3.11516 0
M  V30 2649 H 252.794 0.0102061 3.77199 0
M  V30 2650 H 255.181 -0.482654 2.91126 0
M  V30 2651 H 255.262 1.16693 2.27632 0
M  V30 2652 H 254.906 2.06965 4.63819 0
M  V30 2653 H 254.836 0.398286 5.25092 0
M  V30 2654 H 257.327 0.68661 3.7161 0
M  V30 2655 H 257.64 2.01438 7.46085 0
M  V30 2656 H 255.985 1.80488 6.71155 0
M  V30 2657 H 259.176 0.933209 4.58703 0
M  V30 2658 H 259.349 1.53846 6.29472 0
M  V30 2659 N 252.755 -1.56801 0.158532 0
M  V30 2660 C 253.98 -2.01295 -0.499516 0
M  V30 2661 C 254.405 -1.03799 -1.56867 0
M  V30 2662 O 253.763 -0.0155162 -1.81293 0
M  V30 2663 C 253.811 -3.44469 -1.06647 0
M  V30 2664 O 252.915 -3.50012 -2.18095 0
M  V30 2665 H 252.256 -0.652884 -0.12099 0
M  V30 2666 H 254.786 -2.02958 0.258661 0
M  V30 2667 H 254.796 -3.8351 -1.39227 0
M  V30 2668 H 253.471 -4.14932 -0.283581 0
M  V30 2669 H 252.048 -3.22822 -1.86656 0
M  V30 2670 N 254.233 0.115231 -1.57178 0
M  V30 2671 C 255.196 1.12526 -1.99676 0
M  V30 2672 C 256.196 1.34095 -0.88742 0
M  V30 2673 O 257.386 1.30548 -1.15337 0
M  V30 2674 C 254.518 2.4789 -2.34015 0
M  V30 2675 H 255.711 0.759912 -2.90113 0
M  V30 2676 H 253.264 0.359648 -1.52106 0
M  V30 2677 H 253.999 2.89339 -1.4647 0
M  V30 2678 H 253.784 2.33588 -3.14927 0
M  V30 2679 H 255.274 3.20575 -2.67622 0
M  V30 2680 N 255.711 1.52812 0.385517 0
M  V30 2681 C 256.621 1.80766 1.49535 0
M  V30 2682 C 257.637 0.694651 1.59532 0
M  V30 2683 O 258.813 0.982611 1.75803 0
M  V30 2684 C 255.878 1.97381 2.85029 0
M  V30 2685 C 254.939 3.21295 2.84724 0
M  V30 2686 C 254.172 3.37108 4.13756 0
M  V30 2687 O 254.395 2.5765 5.08893 0
M  V30 2688 O 253.329 4.30378 4.20783 0
M  V30 2689 H 257.155 2.75015 1.28842 0
M  V30 2690 H 254.74 1.37946 0.573697 0
M  V30 2691 H 256.622 2.09996 3.65349 0
M  V30 2692 H 255.297 1.06322 3.05741 0
M  V30 2693 H 254.204 3.1412 2.03174 0
M  V30 2694 H 255.537 4.12212 2.68965 0
M  V30 2695 N 257.189 -0.644168 1.43834 0
M  V30 2696 C 258.099 -1.78563 1.52159 0
M  V30 2697 C 259.115 -1.69147 0.408069 0
M  V30 2698 O 260.291 -1.90156 0.663524 0
M  V30 2699 C 257.356 -3.14888 1.45073 0
M  V30 2700 C 256.417 -3.36034 2.6717 0
M  V30 2701 C 255.65 -4.65855 2.60413 0
M  V30 2702 O 255.873 -5.45805 1.65689 0
M  V30 2703 O 254.807 -4.88918 3.5106 0
M  V30 2704 H 258.633 -1.74494 2.48567 0
M  V30 2705 H 256.218 -0.80378 1.25935 0
M  V30 2706 H 258.1 -3.96179 1.43597 0
M  V30 2707 H 256.775 -3.19528 0.518037 0
M  V30 2708 H 255.682 -2.54472 2.74217 0
M  V30 2709 H 257.015 -3.36247 3.59442 0
M  V30 2710 N 258.668 -1.30515 -0.883378 0
M  V30 2711 C 259.6 -1.12846 -1.99496 0
M  V30 2712 C 260.613 -0.0712571 -1.62644 0
M  V30 2713 O 261.802 -0.317432 -1.75655 0
M  V30 2714 C 258.902 -0.699123 -3.3161 0
M  V30 2715 C 258.075 -1.83842 -3.96889 0
M  V30 2716 C 257.134 -1.39737 -5.07307 0
M  V30 2717 O 256.16 -2.10485 -5.28852 0
M  V30 2718 N 257.362 -0.277279 -5.79837 0
M  V30 2719 H 260.127 -2.08585 -2.15203 0
M  V30 2720 H 257.688 -1.22672 -1.05656 0
M  V30 2721 H 259.68 -0.387044 -4.02845 0
M  V30 2722 H 258.25 0.166276 -3.12157 0
M  V30 2723 H 257.47 -2.31853 -3.18807 0
M  V30 2724 H 258.758 -2.60187 -4.37241 0
M  V30 2725 H 258.156 0.3122 -5.64838 0
M  V30 2726 H 256.713 -0.0246623 -6.51795 0
M  V30 2727 N 260.146 1.09593 -1.13257 0
M  V30 2728 C 261.557 1.63229 -0.906274 0
M  V30 2729 C 261.908 1.8811 0.557578 0
M  V30 2730 O 261.033 1.62953 1.42391 0
M  V30 2731 C 261.628 2.96535 -1.63867 0
M  V30 2732 C 260.187 3.47003 -1.45828 0
M  V30 2733 C 259.334 2.2145 -1.66898 0
M  V30 2734 H 262.285 0.92978 -1.28611 0
M  V30 2735 H 262.306 3.64411 -1.09476 0
M  V30 2736 H 261.818 2.78394 -2.70404 0
M  V30 2737 H 259.919 3.70272 -0.415848 0
M  V30 2738 H 260.032 4.24551 -2.2202 0
M  V30 2739 H 258.396 2.30022 -1.09371 0
M  V30 2740 H 259.179 2.0583 -2.74752 0
M  V30 2741 N 261.624 0.925811 1.2754 0
M  V30 2742 C 262.554 0.440748 2.29303 0
M  V30 2743 C 263.535 -0.497971 1.62648 0
M  V30 2744 O 264.72 -0.403126 1.8997 0
M  V30 2745 C 261.85 -0.309048 3.45922 0
M  V30 2746 C 260.804 0.54166 4.24559 0
M  V30 2747 C 260.13 -0.337191 5.33636 0
M  V30 2748 C 261.43 1.80516 4.90114 0
M  V30 2749 H 263.124 1.29121 2.70126 0
M  V30 2750 H 260.67 0.622323 1.29858 0
M  V30 2751 H 262.623 -0.659315 4.1621 0
M  V30 2752 H 261.347 -1.19352 3.04011 0
M  V30 2753 H 260.006 0.874609 3.56014 0
M  V30 2754 H 259.654 -1.22056 4.87966 0
M  V30 2755 H 259.354 0.228497 5.87156 0
M  V30 2756 H 260.878 -0.683072 6.06767 0
M  V30 2757 H 262.292 1.52307 5.52698 0
M  V30 2758 H 260.689 2.3142 5.53683 0
M  V30 2759 H 261.759 2.52581 4.13921 0
M  V30 2760 N 263.102 -1.41638 0.69111 0
M  V30 2761 C 264.518 -1.55435 0.362224 0
M  V30 2762 C 264.718 -1.66754 -1.13117 0
M  V30 2763 O 263.774 -1.64348 -1.91692 0
M  V30 2764 C 265.087 -2.79588 1.10684 0
M  V30 2765 C 266.635 -2.9338 1.09075 0
M  V30 2766 C 267.11 -4.20414 1.81703 0
M  V30 2767 N 268.601 -4.27362 1.7865 0
M  V30 2768 C 269.336 -5.24507 2.31689 0
M  V30 2769 N 268.832 -6.27708 2.93179 0
M  V30 2770 N 270.625 -5.16416 2.2197 0
M  V30 2771 H 262.776 -1.32536 1.65976 0
M  V30 2772 H 265.039 -0.639115 0.700168 0
M  V30 2773 H 264.745 -2.77419 2.16175 0
M  V30 2774 H 264.619 -3.70973 0.682545 0
M  V30 2775 H 267.006 -2.95067 0.0441238 0
M  V30 2776 H 267.087 -2.0318 1.55407 0
M  V30 2777 H 266.731 -4.19488 2.86343 0
M  V30 2778 H 266.661 -5.09578 1.32808 0
M  V30 2779 H 269.152 -3.53415 1.33815 0
M  V30 2780 H 269.465 -6.98217 3.31229 0
M  V30 2781 H 267.81 -6.28223 2.97255 0
M  V30 2782 H 271.001 -4.34716 1.73607 0
M  V30 2783 H 271.174 -5.91958 2.63609 0
M  V30 2784 N 264.58 -0.43555 -1.51462 0
M  V30 2785 C 265.513 0.421989 -2.24264 0
M  V30 2786 C 266.491 1.02619 -1.26127 0
M  V30 2787 O 267.675 1.069 -1.55257 0
M  V30 2788 C 264.802 1.588 -2.99166 0
M  V30 2789 C 263.848 1.10465 -4.11946 0
M  V30 2790 S 264.681 0.048146 -5.35478 0
M  V30 2791 C 265.837 1.21887 -6.13917 0
M  V30 2792 H 266.07 -0.196102 -2.96653 0
M  V30 2793 H 263.603 -0.220054 -1.52824 0
M  V30 2794 H 265.561 2.25647 -3.42919 0
M  V30 2795 H 264.222 2.1775 -2.26371 0
M  V30 2796 H 263.415 1.97654 -4.63626 0
M  V30 2797 H 263.017 0.51445 -3.70445 0
M  V30 2798 H 265.309 2.13756 -6.42895 0
M  V30 2799 H 266.252 0.742076 -7.04201 0
M  V30 2800 H 266.66 1.45663 -5.45383 0
M  V30 2801 N 266.058 1.56714 -0.166846 0
M  V30 2802 C 267.021 2.16539 0.751232 0
M  V30 2803 C 268.021 1.11228 1.16125 0
M  V30 2804 O 269.211 1.36765 1.07894 0
M  V30 2805 C 266.343 2.74462 2.02196 0
M  V30 2806 H 267.536 2.99013 0.230499 0
M  V30 2807 H 265.089 1.56081 0.0826982 0
M  V30 2808 H 265.824 1.95709 2.58589 0
M  V30 2809 H 265.609 3.51527 1.73698 0
M  V30 2810 H 267.099 3.20489 2.67725 0
M  V30 2811 N 267.536 -0.106894 1.57237 0
M  V30 2812 C 268.947 -0.662723 1.74542 0
M  V30 2813 C 269.298 -1.7971 0.787319 0
M  V30 2814 O 268.423 -2.16368 -0.0369636 0
M  V30 2815 C 269.018 -1.20896 3.16496 0
M  V30 2816 C 267.577 -1.71096 3.35266 0
M  V30 2817 C 266.724 -0.615642 2.7038 0
M  V30 2818 H 269.675 0.119106 1.58252 0
M  V30 2819 H 269.696 -2.07847 3.18716 0
M  V30 2820 H 269.208 -0.383122 3.86204 0
M  V30 2821 H 267.309 -2.56119 2.70618 0
M  V30 2822 H 267.422 -1.81208 4.43509 0
M  V30 2823 H 265.786 -1.05222 2.31949 0
M  V30 2824 H 266.569 0.199419 3.4272 0
M  V30 2825 N 269.014 -1.53014 -0.377408 0
M  V30 2826 C 269.964 -1.74996 -1.46152 0
M  V30 2827 C 270.948 -0.604236 -1.49123 0
M  V30 2828 O 272.14 -0.862489 -1.54564 0
M  V30 2829 C 269.269 -1.93267 -2.8373 0
M  V30 2830 C 268.355 -3.13807 -2.85283 0
M  V30 2831 N 268.746 -4.35941 -2.56493 0
M  V30 2832 C 267.044 -3.14288 -3.16448 0
M  V30 2833 C 267.745 -5.17615 -2.65424 0
M  V30 2834 N 266.721 -4.53559 -2.99641 0
M  V30 2835 H 270.523 -2.67044 -1.22738 0
M  V30 2836 H 268.037 -1.51479 -0.585479 0
M  V30 2837 H 270.034 -2.0714 -3.61799 0
M  V30 2838 H 268.694 -1.0244 -3.08117 0
M  V30 2839 H 269.705 -4.63876 -2.30302 0
M  V30 2840 H 266.382 -2.33312 -3.46225 0
M  V30 2841 H 267.772 -6.25006 -2.46612 0
M  V30 2842 N 270.492 0.636531 -1.44174 0
M  V30 2843 C 271.722 1.42146 -1.49927 0
M  V30 2844 C 272.13 1.88812 -0.121063 0
M  V30 2845 O 271.473 1.61126 0.882267 0
M  V30 2846 C 271.535 2.67883 -2.39748 0
M  V30 2847 C 271.199 2.43048 -3.8701 0
M  V30 2848 C 272.196 2.05216 -4.77684 0
M  V30 2849 C 269.881 2.56856 -4.3166 0
M  V30 2850 C 271.875 1.81512 -6.11009 0
M  V30 2851 C 269.562 2.32766 -5.65034 0
M  V30 2852 C 270.56 1.95152 -6.54526 0
M  V30 2853 O 270.248 1.71326 -7.85431 0
M  V30 2854 H 269.98 0.442567 -0.51099 0
M  V30 2855 H 272.534 0.786158 -1.8976 0
M  V30 2856 H 270.764 3.34032 -1.94832 0
M  V30 2857 H 272.453 3.29874 -2.36513 0
M  V30 2858 H 273.219 1.94111 -4.44462 0
M  V30 2859 H 269.098 2.85104 -3.62266 0
M  V30 2860 H 272.642 1.52077 -6.80822 0
M  V30 2861 H 268.539 2.43479 -5.97819 0
M  V30 2862 H 269.307 1.85616 -7.97176 0
M  V30 2863 N 271.97 1.30982 0.876444 0
M  V30 2864 C 273.247 1.10942 1.61094 0
M  V30 2865 C 273.627 -0.338223 2.08373 0
M  V30 2866 O 272.975 -1.33122 1.85717 0
M  V30 2867 C 273.185 2.11789 2.77392 0
M  V30 2868 C 274.533 2.43965 3.47514 0
M  V30 2869 O 275.557 2.10166 2.87591 0
M  V30 2870 O 274.416 3.01817 4.55597 0
M  V30 2871 H 271.51 0.42667 0.708436 0
M  V30 2872 H 274.056 1.42438 0.922474 0
M  V30 2873 H 272.828 3.09194 2.39823 0
M  V30 2874 H 272.451 1.81161 3.5393 0
M  V30 2875 N 273.449 -1.08991 1.13837 0
M  V30 2876 C 274.379 -2.17771 0.842507 0
M  V30 2877 C 275.36 -1.6892 -0.20001 0
M  V30 2878 O 276.545 -1.94113 -0.0579731 0
M  V30 2879 C 273.675 -3.4589 0.312644 0
M  V30 2880 C 272.629 -4.08099 1.28992 0
M  V30 2881 C 271.955 -5.31098 0.619623 0
M  V30 2882 C 273.255 -4.50077 2.65005 0
M  V30 2883 H 274.949 -2.42777 1.75213 0
M  V30 2884 H 272.495 -1.16682 0.843875 0
M  V30 2885 H 274.448 -4.21297 0.0933043 0
M  V30 2886 H 273.172 -3.20419 -0.632382 0
M  V30 2887 H 271.831 -3.34717 1.49533 0
M  V30 2888 H 271.479 -5.0191 -0.33102 0
M  V30 2889 H 271.179 -5.73674 1.27167 0
M  V30 2890 H 272.703 -6.09224 0.409669 0
M  V30 2891 H 274.117 -5.16688 2.48407 0
M  V30 2892 H 272.514 -5.03553 3.26427 0
M  V30 2893 H 273.584 -3.62257 3.22332 0
M  V30 2894 N 274.927 -0.932562 -1.27047 0
M  V30 2895 C 276.152 -0.591474 -1.98787 0
M  V30 2896 C 276.577 0.824601 -1.69062 0
M  V30 2897 O 275.935 1.5541 -0.933677 0
M  V30 2898 C 275.983 -0.829808 -3.50922 0
M  V30 2899 O 275.087 0.102266 -4.12273 0
M  V30 2900 H 274.428 -0.227185 -0.623926 0
M  V30 2901 H 276.958 -1.25314 -1.61733 0
M  V30 2902 H 276.968 -0.747292 -4.01098 0
M  V30 2903 H 275.643 -1.86201 -3.7189 0
M  V30 2904 H 274.22 -0.0305761 -3.72887 0
M  V30 2905 N 276.405 1.4127 -0.698611 0
M  V30 2906 C 277.338 2.28195 0.0153898 0
M  V30 2907 C 278.316 1.42402 0.784883 0
M  V30 2908 O 279.5 1.71828 0.775067 0
M  V30 2909 C 276.627 3.22685 1.02918 0
M  V30 2910 C 275.673 4.25041 0.352501 0
M  V30 2911 S 276.506 5.27757 -0.907322 0
M  V30 2912 C 277.662 6.25812 0.104796 0
M  V30 2913 H 277.895 2.88403 -0.721858 0
M  V30 2914 H 275.428 1.46452 -0.488996 0
M  V30 2915 H 277.386 3.77655 1.60893 0
M  V30 2916 H 276.047 2.61566 1.73902 0
M  V30 2917 H 275.24 4.91437 1.11828 0
M  V30 2918 H 274.842 3.73682 -0.154254 0
M  V30 2919 H 277.134 6.70705 0.957103 0
M  V30 2920 H 278.077 7.06149 -0.525323 0
M  V30 2921 H 278.485 5.62615 0.460931 0
M  V30 2922 N 277.883 0.443576 1.51229 0
M  V30 2923 C 279.129 -0.120975 2.02439 0
M  V30 2924 C 279.462 -1.41815 1.32674 0
M  V30 2925 O 278.737 -1.89373 0.443622 0
M  V30 2926 C 279.02 -0.333291 3.58554 0
M  V30 2927 C 278.873 0.982968 4.38928 0
M  V30 2928 C 280.192 -1.10028 4.26124 0
M  V30 2929 H 277.311 -0.0424923 0.735774 0
M  V30 2930 H 279.953 0.583794 1.80809 0
M  V30 2931 H 278.103 -0.933614 3.77115 0
M  V30 2932 H 279.775 1.61775 4.32003 0
M  V30 2933 H 278.018 1.58611 4.03763 0
M  V30 2934 H 278.689 0.788379 5.46341 0
M  V30 2935 H 281.165 -0.591711 4.11871 0
M  V30 2936 H 280.041 -1.21761 5.35225 0
M  V30 2937 H 280.302 -2.12996 3.87408 0
M  V30 2938 N 279.361 -1.56624 0.175154 0
M  V30 2939 C 280.589 -2.01374 -0.474971 0
M  V30 2940 C 281.004 -1.05537 -1.56548 0
M  V30 2941 O 280.361 -0.0568668 -1.82411 0
M  V30 2942 C 280.412 -3.45923 -1.04975 0
M  V30 2943 O 280.133 -4.381 -0.00276605 0
M  V30 2944 C 281.634 -4.06093 -1.77773 0
M  V30 2945 H 278.854 -0.659962 -0.121206 0
M  V30 2946 H 281.398 -2.02601 0.27801 0
M  V30 2947 H 279.553 -3.45458 -1.75321 0
M  V30 2948 H 279.967 -5.22753 -0.427681 0
M  V30 2949 H 281.441 -5.09147 -2.13245 0
M  V30 2950 H 281.918 -3.48405 -2.67414 0
M  V30 2951 H 282.524 -4.10272 -1.12059 0
M  V30 2952 N 280.839 0.0985539 -1.57292 0
M  V30 2953 C 281.769 1.12064 -2.04851 0
M  V30 2954 C 282.75 1.41981 -0.936767 0
M  V30 2955 O 283.935 1.52071 -1.20781 0
M  V30 2956 C 281.065 2.44144 -2.47004 0
M  V30 2957 C 280.019 2.28643 -3.6181 0
M  V30 2958 C 279.345 3.65869 -3.89929 0
M  V30 2959 C 280.645 1.72986 -4.92822 0
M  V30 2960 H 282.339 0.724979 -2.9049 0
M  V30 2961 H 279.885 0.34729 -1.39749 0
M  V30 2962 H 281.838 3.15914 -2.78884 0
M  V30 2963 H 280.562 2.85639 -1.5836 0
M  V30 2964 H 279.221 1.59318 -3.30172 0
M  V30 2965 H 278.869 4.04885 -2.98458 0
M  V30 2966 H 278.569 3.56344 -4.67218 0
M  V30 2967 H 280.093 4.39112 -4.2428 0
M  V30 2968 H 281.507 2.34593 -5.23105 0
M  V30 2969 H 279.904 1.74229 -5.74251 0
M  V30 2970 H 280.974 0.689007 -4.7998 0
M  V30 2971 N 282.317 1.53212 0.369288 0
M  V30 2972 C 283.566 1.68436 1.10961 0
M  V30 2973 C 283.879 0.440738 1.9057 0
M  V30 2974 O 285.085 0.473446 2.6734 0
M  V30 2975 C 283.541 2.97744 2.0218 0
M  V30 2976 C 283.149 4.29355 1.279 0
M  V30 2977 C 284.893 3.22334 2.76226 0
M  V30 2978 C 282.8 5.49755 2.17999 0
M  V30 2979 H 281.73 0.627568 0.41794 0
M  V30 2980 H 284.381 1.79713 0.370884 0
M  V30 2981 H 282.763 2.8026 2.79768 0
M  V30 2982 H 283.937 4.57458 0.554007 0
M  V30 2983 H 282.252 4.11179 0.657311 0
M  V30 2984 H 284.849 4.09471 3.43857 0
M  V30 2985 H 285.192 2.38238 3.41392 0
M  V30 2986 H 285.725 3.40475 2.05723 0
M  V30 2987 H 282.464 6.36318 1.57417 0
M  V30 2988 H 281.984 5.25937 2.88359 0
M  V30 2989 H 283.663 5.84401 2.77641 0
M  V30 2990 N 283.795 -0.628877 1.44509 0
M  V30 2991 C 284.727 -1.754 1.47538 0
M  V30 2992 C 285.74 -1.58575 0.368506 0
M  V30 2993 O 286.929 -1.66847 0.634376 0
M  V30 2994 C 284.029 -3.1315 1.29577 0
M  V30 2995 C 283.202 -3.56413 2.53551 0
M  V30 2996 C 282.261 -4.7305 2.30457 0
M  V30 2997 O 281.287 -4.81247 3.03957 0
M  V30 2998 N 282.489 -5.64903 1.3366 0
M  V30 2999 H 285.254 -1.73272 2.44534 0
M  V30 3000 H 282.815 -0.813512 1.39977 0
M  V30 3001 H 284.807 -3.88902 1.11971 0
M  V30 3002 H 283.377 -3.09908 0.409371 0
M  V30 3003 H 282.597 -2.70847 2.86419 0
M  V30 3004 H 283.885 -3.82071 3.36005 0
M  V30 3005 H 283.283 -5.60975 0.729604 0
M  V30 3006 H 281.84 -6.40275 1.22032 0
M  V30 3007 N 285.273 -1.31445 -0.869486 0
M  V30 3008 C 286.205 -1.14955 -1.98287 0
M  V30 3009 C 287.218 -0.0885037 -1.62559 0
M  V30 3010 O 288.407 -0.336044 -1.75308 0
M  V30 3011 C 285.507 -0.734255 -3.3085 0
M  V30 3012 C 284.68 -1.88042 -3.94917 0
M  V30 3013 C 283.739 -1.4511 -5.05796 0
M  V30 3014 O 282.765 -2.16082 -5.2659 0
M  V30 3015 N 283.967 -0.338763 -5.79511 0
M  V30 3016 H 286.732 -2.10856 -2.12979 0
M  V30 3017 H 284.293 -1.23786 -1.04349 0
M  V30 3018 H 286.285 -0.42975 -4.02412 0
M  V30 3019 H 284.855 0.133158 -3.12316 0
M  V30 3020 H 284.075 -2.35222 -3.1633 0
M  V30 3021 H 285.363 -2.6481 -4.34457 0
M  V30 3022 H 284.761 0.252274 -5.65137 0
M  V30 3023 H 283.318 -0.0937925 -6.51733 0
M  V30 3024 N 286.751 1.08385 -1.14413 0
M  V30 3025 C 287.979 1.84517 -0.936001 0
M  V30 3026 C 288.394 1.81626 0.515503 0
M  V30 3027 O 287.751 1.22008 1.35721 0
M  V30 3028 C 287.802 3.32049 -1.42918 0
M  V30 3029 O 287.523 3.34951 -2.82381 0
M  V30 3030 C 289.024 4.24986 -1.26103 0
M  V30 3031 H 286.244 0.582491 -0.333084 0
M  V30 3032 H 288.788 1.36885 -1.5193 0
M  V30 3033 H 286.943 3.7707 -0.888641 0
M  V30 3034 H 287.357 4.27048 -3.04517 0
M  V30 3035 H 288.831 5.26615 -1.6547 0
M  V30 3036 H 289.308 4.38726 -0.20392 0
M  V30 3037 H 289.914 3.85791 -1.79012 0
M  V30 3038 N 288.23 0.939286 1.26551 0
M  V30 3039 C 289.641 0.628782 1.75793 0
M  V30 3040 C 289.992 -0.856046 1.7654 0
M  V30 3041 O 289.117 -1.66994 1.3763 0
M  V30 3042 C 289.712 1.13465 3.19235 0
M  V30 3043 C 288.271 0.874601 3.66098 0
M  V30 3044 C 287.418 1.28667 2.45642 0
M  V30 3045 H 290.369 1.1178 1.12654 0
M  V30 3046 H 290.39 0.487609 3.77363 0
M  V30 3047 H 289.902 2.21535 3.1866 0
M  V30 3048 H 288.003 -0.191793 3.72106 0
M  V30 3049 H 288.116 1.50028 4.55004 0
M  V30 3050 H 286.48 0.705109 2.44745 0
M  V30 3051 H 287.263 2.37625 2.47769 0
M  V30 3052 N 289.708 -1.40897 0.706093 0
M  V30 3053 C 290.948 -2.02916 0.245827 0
M  V30 3054 C 291.312 -1.54751 -1.13649 0
M  V30 3055 O 292.513 -2.08768 -1.69321 0
M  V30 3056 C 290.784 -3.56031 0.312537 0
M  V30 3057 S 292.343 -4.38741 -0.0721388 0
M  V30 3058 H 289.161 -0.704186 0.0982007 0
M  V30 3059 H 291.763 -1.72168 0.926207 0
M  V30 3060 H 290.467 -3.88579 1.32039 0
M  V30 3061 H 289.998 -3.91495 -0.386641 0
M  V30 3062 H 292.013 -4.78952 -1.29692 0
M  V30 3063 N 291.186 -0.45159 -1.50991 0
M  V30 3064 C 292.149 0.341117 -2.26647 0
M  V30 3065 C 293.149 0.937422 -1.30649 0
M  V30 3066 O 294.339 0.809644 -1.54241 0
M  V30 3067 C 291.471 1.48398 -3.06905 0
M  V30 3068 H 292.664 -0.322117 -2.98165 0
M  V30 3069 H 290.217 -0.205122 -1.54948 0
M  V30 3070 H 290.952 2.18284 -2.39838 0
M  V30 3071 H 290.737 1.06241 -3.77432 0
M  V30 3072 H 292.227 2.04367 -3.64176 0
M  V30 3073 N 292.664 1.56529 -0.183458 0
M  V30 3074 C 293.612 2.19873 0.758845 0
M  V30 3075 C 294.606 1.16638 1.22849 0
M  V30 3076 O 295.812 1.3481 1.19274 0
M  V30 3077 H 292.187 0.7045 0.263029 0
M  V30 3078 H 294.158 2.97724 0.200755 0
M  V30 3079 C 292.907 2.86314 1.9728 0
M  V30 3080 H 292.23 3.65487 1.62047 0
M  V30 3081 H 293.67 3.3409 2.61075 0
M  V30 3082 C 292.129 1.86729 2.80418 0
M  V30 3083 O 292.659 1.36031 3.77966 0
M  V30 3084 N 290.865 1.55216 2.45675 0
M  V30 3085 H 290.412 1.96636 1.66409 0
M  V30 3086 H 290.37 0.888388 3.01588 0
M  V30 3087 N 294.142 -0.090211 1.57342 0
M  V30 3088 C 295.39 -0.791241 1.85967 0
M  V30 3089 C 295.711 -1.7903 0.772859 0
M  V30 3090 O 294.981 -1.94872 -0.200398 0
M  V30 3091 H 293.561 -0.295205 0.686195 0
M  V30 3092 H 296.223 -0.0706782 1.94772 0
M  V30 3093 H 295.319 -1.31882 2.82867 0
M  V30 3094 N 295.62 -1.53406 -0.361157 0
M  V30 3095 C 296.867 -1.69802 -1.10333 0
M  V30 3096 C 297.195 -0.452087 -1.89173 0
M  V30 3097 O 296.45 0.566017 -1.87336 0
M  V30 3098 C 296.749 -2.90211 -2.08596 0
M  V30 3099 C 296.415 -4.26539 -1.46203 0
M  V30 3100 C 295.077 -4.6361 -1.28915 0
M  V30 3101 C 297.429 -5.113 -1.01101 0
M  V30 3102 C 294.757 -5.83075 -0.651157 0
M  V30 3103 C 297.109 -6.31415 -0.387007 0
M  V30 3104 C 295.773 -6.67195 -0.201657 0
M  V30 3105 H 295.043 -0.621351 -0.403737 0
M  V30 3106 H 297.69 -1.87598 -0.384609 0
M  V30 3107 H 295.995 -2.66946 -2.86788 0
M  V30 3108 H 297.692 -3.00091 -2.65982 0
M  V30 3109 H 294.282 -3.97352 -1.60653 0
M  V30 3110 H 298.466 -4.83206 -1.13249 0
M  V30 3111 H 293.722 -6.09385 -0.496006 0
M  V30 3112 H 297.896 -6.96394 -0.0293563 0
M  V30 3113 H 295.523 -7.59628 0.294766 0
M  V30 3114 N 297.098 0.621204 -1.44841 0
M  V30 3115 C 298.344 1.3826 -1.48365 0
M  V30 3116 C 298.677 1.93831 -0.119624 0
M  V30 3117 O 297.952 1.74251 0.864111 0
M  V30 3118 C 298.235 2.54058 -2.55199 0
M  V30 3119 C 298.088 2.03772 -4.00995 0
M  V30 3120 C 299.407 3.56225 -2.58442 0
M  V30 3121 H 296.526 0.501374 -0.540179 0
M  V30 3122 H 299.168 0.7015 -1.76576 0
M  V30 3123 H 297.318 3.12162 -2.31274 0
M  V30 3124 H 298.99 1.50423 -4.36086 0
M  V30 3125 H 297.233 1.34876 -4.12299 0
M  V30 3126 H 297.904 2.87185 -4.71411 0
M  V30 3127 H 300.38 3.07939 -2.79844 0
M  V30 3128 H 299.256 4.34756 -3.3508 0
M  V30 3129 H 299.517 4.10949 -1.63013 0
M  V30 3130 N 298.576 1.31904 0.862503 0
M  V30 3131 C 299.801 1.25135 1.65397 0
M  V30 3132 C 300.226 -0.179 1.87246 0
M  V30 3133 O 299.584 -1.1277 1.4196 0
M  V30 3134 C 299.632 2.00832 2.99498 0
M  V30 3135 O 298.736 1.35075 3.89652 0
M  V30 3136 H 298.077 0.431655 0.504549 0
M  V30 3137 H 300.607 1.74094 1.07483 0
M  V30 3138 H 300.617 2.10709 3.49379 0
M  V30 3139 H 299.292 3.04847 2.82916 0
M  V30 3140 H 297.869 1.33696 3.48109 0
M  V30 3141 N 300.054 -1.07777 1.14986 0
M  V30 3142 C 300.984 -2.16865 0.865557 0
M  V30 3143 C 301.965 -1.69123 -0.182083 0
M  V30 3144 O 303.15 -1.94164 -0.0373815 0
M  V30 3145 C 300.28 -3.45539 0.349313 0
M  V30 3146 C 299.234 -4.06708 1.33313 0
M  V30 3147 C 298.56 -5.30411 0.675918 0
M  V30 3148 C 299.86 -4.47241 2.69764 0
M  V30 3149 H 301.554 -2.40905 1.77778 0
M  V30 3150 H 299.1 -1.15781 0.856203 0
M  V30 3151 H 301.053 -4.21174 0.137983 0
M  V30 3152 H 299.777 -3.21072 -0.598362 0
M  V30 3153 H 298.436 -3.33112 1.53075 0
M  V30 3154 H 298.084 -5.02232 -0.277767 0
M  V30 3155 H 297.784 -5.72293 1.33244 0
M  V30 3156 H 299.308 -6.08755 0.474262 0
M  V30 3157 H 300.722 -5.14025 2.53873 0
M  V30 3158 H 299.119 -5.00062 3.3175 0
M  V30 3159 H 300.189 -3.58818 3.26156 0
M  V30 3160 N 301.532 -0.945985 -1.26051 0
M  V30 3161 C 302.464 -0.416662 -2.25381 0
M  V30 3162 C 303.477 0.462712 -1.56086 0
M  V30 3163 O 304.666 0.272383 -1.7641 0
M  V30 3164 C 301.766 0.419812 -3.3629 0
M  V30 3165 C 300.939 -0.444531 -4.35135 0
M  V30 3166 C 299.998 0.332305 -5.2515 0
M  V30 3167 O 299.024 -0.266324 -5.68577 0
M  V30 3168 N 300.226 1.62763 -5.57215 0
M  V30 3169 H 302.991 -1.27059 -2.71433 0
M  V30 3170 H 300.552 -0.815392 -1.39868 0
M  V30 3171 H 302.544 0.947013 -3.93464 0
M  V30 3172 H 301.114 1.17456 -2.89694 0
M  V30 3173 H 300.334 -1.15291 -3.76964 0
M  V30 3174 H 301.622 -1.03478 -4.98166 0
M  V30 3175 H 301.02 2.13603 -5.23823 0
M  V30 3176 H 299.577 2.10097 -6.17011 0
M  V30 3177 N 303.011 1.40521 -0.713556 0
M  V30 3178 C 303.974 2.29098 -0.0684347 0
M  V30 3179 C 304.974 1.45268 0.689472 0
M  V30 3180 O 306.164 1.66205 0.521677 0
M  V30 3181 C 303.296 3.28446 0.913024 0
M  V30 3182 H 304.489 2.87645 -0.84855 0
M  V30 3183 H 302.042 1.48809 -0.47809 0
M  V30 3184 H 302.777 2.74913 1.72027 0
M  V30 3185 H 302.562 3.90327 0.372472 0
M  V30 3186 H 304.052 3.94777 1.36165 0
M  V30 3187 N 304.489 0.459591 1.5075 0
M  V30 3188 C 305.399 -0.34613 2.32033 0
M  V30 3189 C 306.415 -1.00686 1.41909 0
M  V30 3190 O 307.591 -0.997361 1.7497 0
M  V30 3191 C 304.656 -1.42029 3.16273 0
M  V30 3192 C 303.717 -0.777362 4.22203 0
M  V30 3193 C 302.95 -1.80034 5.02418 0
M  V30 3194 O 303.173 -3.02544 4.83553 0
M  V30 3195 O 302.107 -1.37853 5.85901 0
M  V30 3196 H 305.933 0.318054 3.0203 0
M  V30 3197 H 303.518 0.221663 1.47746 0
M  V30 3198 H 305.4 -2.04275 3.68578 0
M  V30 3199 H 304.075 -2.06815 2.49016 0
M  V30 3200 H 302.982 -0.116256 3.73919 0
M  V30 3201 H 304.315 -0.172634 4.91897 0
M  V30 3202 N 305.967 -1.56429 0.191757 0
M  V30 3203 C 307.213 -1.97777 -0.448554 0
M  V30 3204 C 307.546 -1.07847 -1.61501 0
M  V30 3205 O 306.821 -0.129774 -1.94067 0
M  V30 3206 C 307.104 -3.48362 -0.911906 0
M  V30 3207 C 306.957 -4.4907 0.256136 0
M  V30 3208 C 308.276 -4.02561 -1.77857 0
M  V30 3209 H 305.395 -0.719071 -0.161572 0
M  V30 3210 H 308.037 -1.87896 0.282007 0
M  V30 3211 H 306.187 -3.56914 -1.53442 0
M  V30 3212 H 307.859 -4.5256 0.893733 0
M  V30 3213 H 306.102 -4.24181 0.908436 0
M  V30 3214 H 306.773 -5.51889 -0.11053 0
M  V30 3215 H 309.249 -3.96767 -1.25359 0
M  V30 3216 H 308.125 -5.08301 -2.07174 0
M  V30 3217 H 308.386 -3.47616 -2.73158 0
M  V30 3218 N 307.445 0.0818655 -1.57387 0
M  V30 3219 C 308.693 0.781368 -1.86384 0
M  V30 3220 C 309.014 1.78618 -0.782342 0
M  V30 3221 O 308.284 1.94976 0.190061 0
M  V30 3222 H 306.864 0.291562 -0.687751 0
M  V30 3223 H 309.526 0.060348 -1.94807 0
M  V30 3224 H 308.622 1.3038 -2.83562 0
M  V30 3225 N 308.923 1.53595 0.353017 0
M  V30 3226 C 310.171 1.70049 1.09215 0
M  V30 3227 C 310.492 0.461406 1.89463 0
M  V30 3228 O 309.762 -0.524633 1.88744 0
M  V30 3229 H 308.342 0.626912 0.40619 0
M  V30 3230 H 311.004 1.90822 0.396585 0
M  V30 3231 H 310.1 2.56718 1.77488 0
M  V30 3232 N 310.401 -0.613514 1.45168 0
M  V30 3233 C 311.364 -1.7065 1.53007 0
M  V30 3234 C 312.364 -1.5548 0.410184 0
M  V30 3235 O 313.554 -1.60656 0.673455 0
M  V30 3236 C 310.686 -3.09875 1.42093 0
M  V30 3237 H 311.879 -1.65068 2.50385 0
M  V30 3238 H 309.432 -0.828728 1.32521 0
M  V30 3239 H 310.167 -3.21039 0.458769 0
M  V30 3240 H 309.952 -3.22293 2.23315 0
M  V30 3241 H 311.442 -3.895 1.50598 0
M  V30 3242 N 311.879 -1.3236 -0.855495 0
M  V30 3243 C 313.126 -1.22872 -1.60962 0
M  V30 3244 C 313.454 0.209658 -1.93367 0
M  V30 3245 O 312.709 1.16243 -1.57436 0
M  V30 3246 C 313.008 -2.03275 -2.93963 0
M  V30 3247 C 312.674 -3.5264 -2.80991 0
M  V30 3248 C 311.336 -3.93364 -2.7716 0
M  V30 3249 C 313.688 -4.47626 -2.66983 0
M  V30 3250 C 311.016 -5.27319 -2.572 0
M  V30 3251 C 313.368 -5.81723 -2.48558 0
M  V30 3252 C 312.032 -6.2165 -2.4312 0
M  V30 3253 H 311.302 -0.44962 -0.589001 0
M  V30 3254 H 313.949 -1.63777 -0.992442 0
M  V30 3255 H 312.254 -1.55095 -3.59795 0
M  V30 3256 H 313.951 -1.93303 -3.51333 0
M  V30 3257 H 310.541 -3.20295 -2.84797 0
M  V30 3258 H 314.725 -4.17084 -2.68988 0
M  V30 3259 H 309.981 -5.57311 -2.51424 0
M  V30 3260 H 314.155 -6.5494 -2.36699 0
M  V30 3261 H 311.782 -7.25388 -2.27412 0
M  V30 3262 N 313.357 1.07166 -1.15556 0
M  V30 3263 C 314.585 1.83514 -0.955519 0
M  V30 3264 C 315 1.82163 0.49621 0
M  V30 3265 O 314.357 1.23441 1.34419 0
M  V30 3266 C 314.408 3.30515 -1.46432 0
M  V30 3267 O 314.129 3.31937 -2.85918 0
M  V30 3268 C 315.63 4.23625 -1.30603 0
M  V30 3269 H 312.85 0.578926 -0.339244 0
M  V30 3270 H 315.394 1.35265 -1.53374 0
M  V30 3271 H 313.549 3.76106 -0.928584 0
M  V30 3272 H 313.963 4.23794 -3.09029 0
M  V30 3273 H 315.437 5.24831 -1.71047 0
M  V30 3274 H 315.914 4.38485 -0.250441 0
M  V30 3275 H 316.52 3.83871 -1.83094 0
M  V30 3276 N 314.835 0.952656 1.25548 0
M  V30 3277 C 316.112 0.523818 1.88456 0
M  V30 3278 C 316.492 -0.998871 1.85973 0
M  V30 3279 O 315.84 -1.86381 1.3219 0
M  V30 3280 C 316.05 1.0982 3.31271 0
M  V30 3281 C 317.398 1.17385 4.08051 0
M  V30 3282 O 318.422 1.04961 3.40384 0
M  V30 3283 O 317.281 1.36852 5.29088 0
M  V30 3284 H 314.375 0.172485 0.808813 0
M  V30 3285 H 316.921 1.04596 1.33633 0
M  V30 3286 H 315.693 2.1415 3.27499 0
M  V30 3287 H 315.316 0.559191 3.93648 0
M  V30 3288 N 316.313 -1.40141 0.720998 0
M  V30 3289 C 317.243 -2.33339 0.0867621 0
M  V30 3290 C 318.224 -1.53178 -0.739622 0
M  V30 3291 O 319.409 -1.81625 -0.687449 0
M  V30 3292 C 316.539 -3.37194 -0.831728 0
M  V30 3293 C 315.493 -4.27857 -0.110558 0
M  V30 3294 C 314.819 -5.22294 -1.14513 0
M  V30 3295 C 316.119 -5.11872 1.0385 0
M  V30 3296 H 317.813 -2.86626 0.865219 0
M  V30 3297 H 315.359 -1.37814 0.417516 0
M  V30 3298 H 317.312 -4.01335 -1.28485 0
M  V30 3299 H 316.036 -2.82314 -1.64214 0
M  V30 3300 H 314.695 -3.65176 0.322797 0
M  V30 3301 H 314.343 -4.63717 -1.94874 0
M  V30 3302 H 314.043 -5.83797 -0.667446 0
M  V30 3303 H 315.567 -5.89312 -1.59824 0
M  V30 3304 H 316.981 -5.69436 0.664482 0
M  V30 3305 H 315.378 -5.82445 1.4449 0
M  V30 3306 H 316.448 -4.4753 1.86668 0
M  V30 3307 N 317.792 -0.46758 -1.50504 0
M  V30 3308 C 319.203 -0.0116166 -1.86696 0
M  V30 3309 C 319.554 1.39202 -1.38265 0
M  V30 3310 O 318.679 2.0313 -0.746132 0
M  V30 3311 C 319.274 -0.0143044 -3.38797 0
M  V30 3312 C 317.833 0.386175 -3.74414 0
M  V30 3313 C 316.98 -0.401287 -2.74381 0
M  V30 3314 H 319.931 -0.682022 -1.43297 0
M  V30 3315 H 319.952 0.788641 -3.72237 0
M  V30 3316 H 319.464 -1.03602 -3.74016 0
M  V30 3317 H 317.565 1.41237 -3.44794 0
M  V30 3318 H 317.678 0.0899596 -4.79016 0
M  V30 3319 H 316.042 0.144536 -2.5429 0
M  V30 3320 H 316.825 -1.42244 -3.12444 0
M  V30 3321 N 319.27 1.56325 -0.20005 0
M  V30 3322 C 320.5 2.01811 0.442232 0
M  V30 3323 C 320.908 1.07932 1.55394 0
M  V30 3324 O 320.251 0.0772685 1.83537 0
M  V30 3325 C 320.313 3.43685 1.05457 0
M  V30 3326 C 319.977 4.56928 0.0809833 0
M  V30 3327 C 320.974 5.15009 -0.711471 0
M  V30 3328 C 318.659 5.0229 -0.0315364 0
M  V30 3329 C 320.653 6.16904 -1.60336 0
M  V30 3330 C 318.34 6.04028 -0.926981 0
M  V30 3331 C 319.338 6.6121 -1.71146 0
M  V30 3332 O 319.026 7.60971 -2.59189 0
M  V30 3333 H 318.758 0.666173 0.114848 0
M  V30 3334 H 321.312 2.03085 -0.307511 0
M  V30 3335 H 319.542 3.39413 1.85299 0
M  V30 3336 H 321.231 3.72948 1.60201 0
M  V30 3337 H 321.997 4.80827 -0.634873 0
M  V30 3338 H 317.876 4.57476 0.568902 0
M  V30 3339 H 321.42 6.61464 -2.21611 0
M  V30 3340 H 317.317 6.37634 -1.00468 0
M  V30 3341 H 318.085 7.7841 -2.53023 0
M  V30 3342 N 320.748 -0.0735177 1.57428 0
M  V30 3343 C 322.164 -0.428264 1.53747 0
M  V30 3344 C 322.364 -1.79272 0.91998 0
M  V30 3345 O 321.42 -2.47051 0.521745 0
M  V30 3346 C 322.733 -0.370914 2.98404 0
M  V30 3347 C 324.281 -0.451224 3.0973 0
M  V30 3348 C 324.756 -0.4238 4.56035 0
M  V30 3349 N 326.247 -0.483925 4.60665 0
M  V30 3350 C 326.982 -0.484891 5.71346 0
M  V30 3351 N 326.478 -0.440775 6.91396 0
M  V30 3352 N 328.271 -0.531319 5.59583 0
M  V30 3353 H 320.422 0.819949 1.95935 0
M  V30 3354 H 322.685 0.307493 0.896745 0
M  V30 3355 H 322.391 0.564956 3.47133 0
M  V30 3356 H 322.265 -1.18176 3.5821 0
M  V30 3357 H 324.652 -1.37752 2.60976 0
M  V30 3358 H 324.733 0.388167 2.52838 0
M  V30 3359 H 324.377 0.498638 5.05446 0
M  V30 3360 H 324.307 -1.2807 5.10789 0
M  V30 3361 H 326.798 -0.522338 3.74273 0
M  V30 3362 H 327.111 -0.44539 7.71515 0
M  V30 3363 H 325.456 -0.40749 6.93804 0
M  V30 3364 H 328.647 -0.563464 4.64696 0
M  V30 3365 H 328.82 -0.528603 6.4584 0
M  V30 3366 N 322.226 -1.5378 -0.344866 0
M  V30 3367 C 323.637 -1.62428 -0.920552 0
M  V30 3368 C 323.988 -0.504747 -1.89596 0
M  V30 3369 O 323.113 0.365711 -2.13287 0
M  V30 3370 C 323.708 -2.94419 -1.67639 0
M  V30 3371 C 322.267 -3.05333 -2.20111 0
M  V30 3372 C 321.414 -2.57866 -1.01982 0
M  V30 3373 H 324.365 -1.58222 -0.123042 0
M  V30 3374 H 324.386 -2.83384 -2.53917 0
M  V30 3375 H 323.898 -3.7588 -0.966224 0
M  V30 3376 H 321.999 -2.28502 -2.94308 0
M  V30 3377 H 322.112 -4.10778 -2.46573 0
M  V30 3378 H 320.476 -2.13241 -1.39285 0
M  V30 3379 H 321.259 -3.41765 -0.324308 0
M  V30 3380 N 323.704 0.605807 -1.45491 0
M  V30 3381 C 324.981 1.36522 -1.40075 0
M  V30 3382 C 325.361 2.10976 -0.0722744 0
M  V30 3383 O 324.709 2.08007 0.945808 0
M  V30 3384 C 324.919 2.31056 -2.61561 0
M  V30 3385 C 326.267 2.93608 -3.06724 0
M  V30 3386 O 327.291 2.41376 -2.61946 0
M  V30 3387 O 326.15 3.88421 -3.84437 0
M  V30 3388 H 323.244 0.612248 -0.555951 0
M  V30 3389 H 325.79 0.628747 -1.57623 0
M  V30 3390 H 324.562 1.75311 -3.49831 0
M  V30 3391 H 324.185 3.12081 -2.46356 0
M  V30 3392 N 325.182 1.32811 0.848464 0
M  V30 3393 C 326.145 1.22194 1.9391 0
M  V30 3394 C 327.145 0.143404 1.60159 0
M  V30 3395 O 328.335 0.394253 1.6968 0
M  V30 3396 C 325.467 0.88067 3.29328 0
M  V30 3397 H 326.66 2.19127 2.04752 0
M  V30 3398 H 324.213 1.16731 1.0394 0
M  V30 3399 H 324.948 -0.0865776 3.24184 0
M  V30 3400 H 324.733 1.66052 3.55203 0
M  V30 3401 H 326.223 0.830871 4.09251 0
M  V30 3402 N 326.66 -1.06551 1.16123 0
M  V30 3403 C 327.906 -1.79567 0.94252 0
M  V30 3404 C 328.239 -1.86869 -0.528547 0
M  V30 3405 O 327.514 -1.35838 -1.39206 0
M  V30 3406 C 327.797 -3.24195 1.56747 0
M  V30 3407 C 327.65 -3.24989 3.10969 0
M  V30 3408 C 328.969 -4.21678 1.25998 0
M  V30 3409 H 326.088 -0.651883 0.343828 0
M  V30 3410 H 328.73 -1.2463 1.43413 0
M  V30 3411 H 326.88 -3.71107 1.14942 0
M  V30 3412 H 328.552 -2.86258 3.61737 0
M  V30 3413 H 326.795 -2.63716 3.44436 0
M  V30 3414 H 327.466 -4.27005 3.49815 0
M  V30 3415 H 329.942 -3.83196 1.62174 0
M  V30 3416 H 328.818 -5.21146 1.7233 0
M  V30 3417 H 329.079 -4.4174 0.178367 0
M  V30 3418 N 328.138 -0.959301 -1.25041 0
M  V30 3419 C 329.068 -0.501388 -2.28053 0
M  V30 3420 C 330.049 0.454673 -1.63911 0
M  V30 3421 O 331.234 0.352618 -1.90972 0
M  V30 3422 C 328.364 0.217224 -3.4662 0
M  V30 3423 C 327.318 -0.654034 -4.22973 0
M  V30 3424 C 326.644 0.195589 -5.34342 0
M  V30 3425 C 327.944 -1.93447 -4.85155 0
M  V30 3426 H 329.638 -1.36238 -2.66608 0
M  V30 3427 H 327.184 -0.656534 -1.28163 0
M  V30 3428 H 329.137 0.548732 -4.17812 0
M  V30 3429 H 327.861 1.1125 -3.07068 0
M  V30 3430 H 326.52 -0.968693 -3.5357 0
M  V30 3431 H 326.168 1.09076 -4.91031 0
M  V30 3432 H 325.868 -0.384091 -5.86343 0
M  V30 3433 H 327.392 0.521958 -6.08365 0
M  V30 3434 H 328.806 -1.66908 -5.48466 0
M  V30 3435 H 327.203 -2.46018 -5.47353 0
M  V30 3436 H 328.273 -2.63466 -4.07079 0
M  V30 3437 N 329.616 1.39756 -0.72842 0
M  V30 3438 C 330.862 2.00942 -0.273892 0
M  V30 3439 C 331.195 1.57656 1.13394 0
M  V30 3440 O 330.47 0.802434 1.77176 0
M  V30 3441 C 330.753 3.58211 -0.368346 0
M  V30 3442 C 330.606 4.11534 -1.81548 0
M  V30 3443 C 331.925 4.39372 0.253054 0
M  V30 3444 H 329.044 0.730047 -0.100996 0
M  V30 3445 H 331.686 1.66056 -0.923337 0
M  V30 3446 H 329.836 3.88061 0.184588 0
M  V30 3447 H 331.508 3.92431 -2.42478 0
M  V30 3448 H 329.751 3.65341 -2.33898 0
M  V30 3449 H 330.422 5.20682 -1.83288 0
M  V30 3450 H 332.898 4.15527 -0.218224 0
M  V30 3451 H 331.774 5.48677 0.156585 0
M  V30 3452 H 332.035 4.21358 1.33826 0
M  V30 3453 N 331.094 0.475555 1.50254 0
M  V30 3454 C 332.341 -0.0778919 2.0235 0
M  V30 3455 C 332.669 -1.39319 1.35722 0
M  V30 3456 O 331.924 -1.89888 0.473395 0
M  V30 3457 C 332.223 -0.305114 3.56095 0
M  V30 3458 C 331.889 0.92903 4.41225 0
M  V30 3459 C 330.551 1.26739 4.6421 0
M  V30 3460 C 332.903 1.75054 4.90923 0
M  V30 3461 C 330.231 2.42724 5.34137 0
M  V30 3462 C 332.583 2.9017 5.62125 0
M  V30 3463 C 331.247 3.24416 5.83362 0
M  V30 3464 H 330.517 -0.0285027 0.740452 0
M  V30 3465 H 333.164 0.630543 1.80821 0
M  V30 3466 H 331.469 -1.09584 3.76163 0
M  V30 3467 H 333.166 -0.747377 3.93974 0
M  V30 3468 H 329.756 0.655428 4.23559 0
M  V30 3469 H 333.94 1.50231 4.73016 0
M  V30 3470 H 329.196 2.69525 5.48786 0
M  V30 3471 H 333.37 3.54169 5.99614 0
M  V30 3472 H 330.997 4.14396 6.37323 0
M  V30 3473 N 332.573 -1.56217 0.208337 0
M  V30 3474 C 333.813 -1.99849 -0.428927 0
M  V30 3475 C 334.177 -1.09262 -1.57879 0
M  V30 3476 O 335.378 -1.42185 -2.28116 0
M  V30 3477 C 333.649 -3.46777 -0.864879 0
M  V30 3478 S 335.208 -4.12434 -1.49811 0
M  V30 3479 H 332.026 -0.697742 -0.136665 0
M  V30 3480 H 334.628 -1.92953 0.314519 0
M  V30 3481 H 333.332 -4.10396 -0.0181326 0
M  V30 3482 H 332.863 -3.57518 -1.64147 0
M  V30 3483 H 334.878 -4.10532 -2.78707 0
M  V30 3484 N 334.051 0.0651679 -1.57465 0
M  V30 3485 C 335.299 0.761555 -1.87202 0
M  V30 3486 C 335.62 1.77778 -0.801243 0
M  V30 3487 O 334.89 1.95166 0.16937 0
M  V30 3488 H 333.47 0.284251 -0.690804 0
M  V30 3489 H 336.132 0.0396827 -1.9486 0
M  V30 3490 H 335.228 1.27365 -2.84929 0
M  V30 3491 N 335.529 1.53961 0.336706 0
M  V30 3492 C 336.492 1.81724 1.39675 0
M  V30 3493 C 337.492 0.688532 1.45313 0
M  V30 3494 O 338.682 0.956829 1.45569 0
M  V30 3495 C 335.814 1.96543 2.78538 0
M  V30 3496 H 337.007 2.76424 1.16318 0
M  V30 3497 H 334.56 1.45478 0.571474 0
M  V30 3498 H 335.295 1.0401 3.07168 0
M  V30 3499 H 335.08 2.78665 2.75841 0
M  V30 3500 H 336.57 2.19516 3.5525 0
M  V30 3501 N 337.007 -0.598083 1.45811 0
M  V30 3502 C 338.256 -1.35295 1.49594 0
M  V30 3503 C 338.569 -1.95057 0.145679 0
M  V30 3504 O 339.775 -2.71431 0.0612099 0
M  V30 3505 C 338.231 -2.45124 2.63519 0
M  V30 3506 C 337.839 -1.91732 4.04899 0
M  V30 3507 C 339.583 -3.2205 2.76558 0
M  V30 3508 C 337.49 -2.991 5.1019 0
M  V30 3509 H 336.42 -0.508552 0.556679 0
M  V30 3510 H 339.071 -0.639977 1.71978 0
M  V30 3511 H 337.453 -3.19149 2.34435 0
M  V30 3512 H 338.627 -1.24352 4.43704 0
M  V30 3513 H 336.942 -1.27522 3.96393 0
M  V30 3514 H 339.539 -4.0215 3.52391 0
M  V30 3515 H 339.882 -3.73663 1.83526 0
M  V30 3516 H 340.415 -2.55127 3.05213 0
M  V30 3517 H 337.154 -2.52393 6.04961 0
M  V30 3518 H 336.674 -3.65017 4.75944 0
M  V30 3519 H 338.353 -3.63318 5.35359 0
M  V30 3520 N 338.485 -1.33259 -0.841409 0
M  V30 3521 C 339.448 -1.23221 -1.9326 0
M  V30 3522 C 340.448 -0.151895 -1.60081 0
M  V30 3523 O 341.638 -0.403246 -1.69468 0
M  V30 3524 C 338.77 -0.898123 -3.28856 0
M  V30 3525 H 339.963 -2.2021 -2.03587 0
M  V30 3526 H 337.516 -1.17281 -1.03319 0
M  V30 3527 H 338.251 0.0693841 -3.24226 0
M  V30 3528 H 338.036 -1.67934 -3.54317 0
M  V30 3529 H 339.526 -0.852563 -4.08805 0
M  V30 3530 N 339.963 1.05934 -1.16686 0
M  V30 3531 C 341.191 1.8249 -0.974929 0
M  V30 3532 C 341.606 1.82679 0.476861 0
M  V30 3533 O 340.963 1.2486 1.33103 0
M  V30 3534 C 341.014 3.28943 -1.49929 0
M  V30 3535 O 340.735 3.28886 -2.89423 0
M  V30 3536 C 342.236 4.22215 -1.35089 0
M  V30 3537 H 339.456 0.575295 -0.345365 0
M  V30 3538 H 342 1.33631 -1.548 0
M  V30 3539 H 340.155 3.751 -0.968423 0
M  V30 3540 H 340.569 4.20493 -3.13506 0
M  V30 3541 H 342.043 5.22987 -1.76603 0
M  V30 3542 H 342.52 4.38195 -0.296935 0
M  V30 3543 H 343.126 3.81907 -1.87155 0
M  V30 3544 N 341.441 0.965919 1.2453 0
M  V30 3545 C 342.371 0.513476 2.27784 0
M  V30 3546 C 343.352 -0.445974 1.6415 0
M  V30 3547 O 344.537 -0.342485 1.91156 0
M  V30 3548 C 341.667 -0.198839 3.4673 0
M  V30 3549 C 340.621 0.676456 4.2262 0
M  V30 3550 C 339.947 -0.167248 5.34438 0
M  V30 3551 C 341.247 1.96017 4.84123 0
M  V30 3552 H 342.941 1.3765 2.65881 0
M  V30 3553 H 340.487 0.663321 1.27813 0
M  V30 3554 H 342.44 -0.526567 4.18097 0
M  V30 3555 H 341.164 -1.0962 3.07654 0
M  V30 3556 H 339.823 0.98743 3.53052 0
M  V30 3557 H 339.471 -1.0647 4.91603 0
M  V30 3558 H 339.171 0.415181 5.86131 0
M  V30 3559 H 340.695 -0.489688 6.08633 0
M  V30 3560 H 342.109 1.69814 5.47573 0
M  V30 3561 H 340.506 2.48918 5.4604 0
M  V30 3562 H 341.576 2.65622 4.05676 0
M  V30 3563 N 342.919 -1.39368 0.735821 0
M  V30 3564 C 344.165 -2.00794 0.284544 0
M  V30 3565 C 344.498 -1.58255 -1.12557 0
M  V30 3566 O 343.773 -0.811819 -1.76748 0
M  V30 3567 C 344.056 -3.58011 0.387337 0
M  V30 3568 C 343.909 -4.10566 1.83728 0
M  V30 3569 C 345.228 -4.395 -0.22975 0
M  V30 3570 H 342.347 -0.729501 0.104866 0
M  V30 3571 H 344.989 -1.65564 0.93213 0
M  V30 3572 H 343.139 -3.88154 -0.164006 0
M  V30 3573 H 344.811 -3.91139 2.44556 0
M  V30 3574 H 343.054 -3.64095 2.35833 0
M  V30 3575 H 343.725 -5.19702 1.86047 0
M  V30 3576 H 346.201 -4.15406 0.240257 0
M  V30 3577 H 345.077 -5.48752 -0.127485 0
M  V30 3578 H 345.338 -4.22062 -1.3159 0
M  V30 3579 N 344.397 -0.483516 -1.5 0
M  V30 3580 C 345.625 0.0644831 -2.06799 0
M  V30 3581 C 346.04 1.32399 -1.34596 0
M  V30 3582 O 345.397 1.77626 -0.418946 0
M  V30 3583 C 345.448 0.339927 -3.59898 0
M  V30 3584 O 345.169 -0.869635 -4.29382 0
M  V30 3585 C 346.67 0.933515 -4.33359 0
M  V30 3586 H 343.89 -0.0126333 -0.670881 0
M  V30 3587 H 346.434 -0.675864 -1.93009 0
M  V30 3588 H 344.589 1.03022 -3.7345 0
M  V30 3589 H 345.003 -0.62179 -5.20801 0
M  V30 3590 H 346.477 1.07593 -5.41413 0
M  V30 3591 H 346.954 1.92685 -3.94676 0
M  V30 3592 H 347.56 0.281221 -4.24369 0
M  V30 3593 N 345.875 1.56104 -0.216619 0
M  V30 3594 C 347.123 1.97781 0.415593 0
M  V30 3595 C 347.444 1.10536 1.60645 0
M  V30 3596 O 346.714 0.181303 1.95059 0
M  V30 3597 H 345.294 0.730415 0.156534 0
M  V30 3598 H 347.956 1.92445 -0.308366 0
M  V30 3599 H 347.052 3.03072 0.74525 0
M  V30 3600 N 347.353 -0.0568162 1.57498 0
M  V30 3601 C 348.601 -0.751617 1.87604 0
M  V30 3602 C 348.922 -1.77351 0.81066 0
M  V30 3603 O 348.192 -1.95254 -0.159018 0
M  V30 3604 H 346.772 -0.280583 0.692302 0
M  V30 3605 H 349.434 -0.0293483 1.94878 0
M  V30 3606 H 348.53 -1.25852 2.856 0
M  V30 3607 N 348.832 -1.54138 -0.328536 0
M  V30 3608 C 349.764 -1.79509 -1.4251 0
M  V30 3609 C 350.777 -0.67688 -1.48061 0
M  V30 3610 O 351.966 -0.953898 -1.50874 0
M  V30 3611 C 349.066 -1.89337 -2.81078 0
M  V30 3612 C 348.239 -3.19443 -2.98789 0
M  V30 3613 C 347.298 -3.20036 -4.17688 0
M  V30 3614 O 346.324 -3.93697 -4.11086 0
M  V30 3615 N 347.526 -2.43467 -5.26976 0
M  V30 3616 H 350.291 -2.74139 -1.21111 0
M  V30 3617 H 347.852 -1.53373 -0.518499 0
M  V30 3618 H 349.844 -1.87167 -3.58818 0
M  V30 3619 H 348.414 -1.01826 -2.95551 0
M  V30 3620 H 347.634 -3.34614 -2.08391 0
M  V30 3621 H 348.922 -4.05354 -3.07515 0
M  V30 3622 H 348.32 -1.83201 -5.35214 0
M  V30 3623 H 346.877 -2.4708 -6.03154 0
M  V30 3624 N 350.31 0.590341 -1.46126 0
M  V30 3625 C 351.556 1.35082 -1.51264 0
M  V30 3626 C 351.889 1.93534 -0.160711 0
M  V30 3627 O 351.164 1.76045 0.826956 0
M  V30 3628 C 351.447 2.48588 -2.6053 0
M  V30 3629 C 351.3 1.95221 -4.05227 0
M  V30 3630 C 352.619 3.50662 -2.6594 0
M  V30 3631 H 349.738 0.489803 -0.550692 0
M  V30 3632 H 352.38 0.663887 -1.78024 0
M  V30 3633 H 350.53 3.07186 -2.37843 0
M  V30 3634 H 352.202 1.41139 -4.39178 0
M  V30 3635 H 350.445 1.26101 -4.15068 0
M  V30 3636 H 351.116 2.77121 -4.77397 0
M  V30 3637 H 353.592 3.01934 -2.86313 0
M  V30 3638 H 352.468 4.27551 -3.44226 0
M  V30 3639 H 352.729 4.07399 -1.71694 0
M  V30 3640 N 351.788 1.33704 0.83433 0
M  V30 3641 C 352.735 1.24335 1.94447 0
M  V30 3642 C 353.705 0.120991 1.65659 0
M  V30 3643 O 354.89 0.300035 1.88426 0
M  V30 3644 C 352.03 0.993124 3.30501 0
M  V30 3645 C 351.143 2.20217 3.71657 0
M  V30 3646 C 350.278 1.88572 4.96602 0
M  V30 3647 C 349.317 3.05683 5.30306 0
M  V30 3648 N 348.454 2.73997 6.46429 0
M  V30 3649 H 353.294 2.1928 2.01792 0
M  V30 3650 H 350.831 1.09035 0.987404 0
M  V30 3651 H 352.789 0.828467 4.08892 0
M  V30 3652 H 351.419 0.0803902 3.227 0
M  V30 3653 H 350.471 2.47642 2.88752 0
M  V30 3654 H 351.783 3.07752 3.92543 0
M  V30 3655 H 350.937 1.68776 5.82752 0
M  V30 3656 H 349.676 0.982799 4.77695 0
M  V30 3657 H 348.681 3.26088 4.42659 0
M  V30 3658 H 349.906 3.96737 5.51159 0
M  V30 3659 H 347.852 1.86268 6.28999 0
M  V30 3660 H 347.769 3.55064 6.67432 0
M  V30 3661 H 349.037 2.57679 7.35678 0
M  V30 3662 N 353.266 -1.05314 1.17247 0
M  V30 3663 C 354.229 -2.112 0.890357 0
M  V30 3664 C 355.229 -1.60359 -0.118943 0
M  V30 3665 O 356.419 -1.73833 0.113086 0
M  V30 3666 C 353.551 -3.39266 0.333422 0
M  V30 3667 H 354.744 -2.37659 1.82916 0
M  V30 3668 H 352.297 -1.21538 0.982758 0
M  V30 3669 H 353.032 -3.18462 -0.612587 0
M  V30 3670 H 352.817 -3.77477 1.06082 0
M  V30 3671 H 354.307 -4.17315 0.154322 0
M  V30 3672 N 354.744 -0.972509 -1.24016 0
M  V30 3673 C 356.155 -0.67517 -1.74064 0
M  V30 3674 C 356.506 0.808939 -1.78747 0
M  V30 3675 O 355.631 1.63286 -1.42009 0
M  V30 3676 C 356.226 -1.21889 -3.16115 0
M  V30 3677 C 354.785 -0.971358 -3.6365 0
M  V30 3678 C 353.932 -1.35134 -2.42145 0
M  V30 3679 H 356.883 -1.14727 -1.09651 0
M  V30 3680 H 356.904 -0.587489 -3.75937 0
M  V30 3681 H 356.416 -2.29906 -3.12674 0
M  V30 3682 H 354.517 0.0930686 -3.72484 0
M  V30 3683 H 354.63 -1.62039 -4.50866 0
M  V30 3684 H 352.994 -0.769751 -2.4279 0
M  V30 3685 H 353.777 -2.4411 -2.41381 0
M  V30 3686 N 356.222 1.38976 -0.743202 0
M  V30 3687 C 357.638 1.53984 -0.419664 0
M  V30 3688 C 357.838 1.70837 1.0685 0
M  V30 3689 O 356.894 1.7135 1.8546 0
M  V30 3690 C 358.207 2.75287 -1.20985 0
M  V30 3691 C 359.755 2.89129 -1.19889 0
M  V30 3692 C 360.23 4.13381 -1.97181 0
M  V30 3693 N 361.721 4.20437 -1.94389 0
M  V30 3694 C 362.456 5.15547 -2.50996 0
M  V30 3695 N 361.952 6.16395 -3.16274 0
M  V30 3696 N 363.745 5.07822 -2.40984 0
M  V30 3697 H 355.896 1.26285 -1.7078 0
M  V30 3698 H 358.159 0.612689 -0.723406 0
M  V30 3699 H 357.865 2.69204 -2.26323 0
M  V30 3700 H 357.739 3.68184 -0.819759 0
M  V30 3701 H 360.126 2.947 -0.153606 0
M  V30 3702 H 360.207 1.97272 -1.62841 0
M  V30 3703 H 359.851 4.08572 -3.01714 0
M  V30 3704 H 359.781 5.04298 -1.51629 0
M  V30 3705 H 362.272 3.48205 -1.46839 0
M  V30 3706 H 362.585 6.85443 -3.56915 0
M  V30 3707 H 360.93 6.16758 -3.20367 0
M  V30 3708 H 364.121 4.27973 -1.89622 0
M  V30 3709 H 364.294 5.81767 -2.85397 0
M  V30 3710 N 357.7 0.491464 1.49741 0
M  V30 3711 C 358.65 -0.311086 2.25868 0
M  V30 3712 C 359.634 -0.943857 1.30308 0
M  V30 3713 O 360.826 -0.853035 1.55088 0
M  V30 3714 C 357.955 -1.38059 3.14316 0
M  V30 3715 C 357.041 -0.754541 4.17334 0
M  V30 3716 N 357.432 0.137216 5.05614 0
M  V30 3717 C 355.73 -1.01621 4.34269 0
M  V30 3718 C 356.431 0.494614 5.79593 0
M  V30 3719 N 355.407 -0.135169 5.43432 0
M  V30 3720 H 359.209 0.37555 2.91491 0
M  V30 3721 H 356.723 0.306917 1.59473 0
M  V30 3722 H 358.72 -1.96891 3.67477 0
M  V30 3723 H 357.38 -2.06901 2.50244 0
M  V30 3724 H 358.391 0.50741 5.15408 0
M  V30 3725 H 355.068 -1.69808 3.81407 0
M  V30 3726 H 356.458 1.2236 6.60665 0
M  V30 3727 N 359.178 -1.55987 0.224894 0
M  V30 3728 C 360.128 -2.17076 -0.697296 0
M  V30 3729 C 361.112 -1.12006 -1.15514 0
M  V30 3730 O 362.304 -1.37985 -1.10857 0
M  V30 3731 C 359.433 -2.85679 -1.90374 0
M  V30 3732 C 358.519 -3.97977 -1.46543 0
M  V30 3733 N 358.91 -5.00359 -0.739909 0
M  V30 3734 C 357.208 -4.10128 -1.75245 0
M  V30 3735 C 357.909 -5.79407 -0.515939 0
M  V30 3736 N 356.885 -5.32892 -1.07364 0
M  V30 3737 H 360.687 -2.93592 -0.134594 0
M  V30 3738 H 358.201 -1.62379 0.0262885 0
M  V30 3739 H 360.198 -3.27857 -2.57518 0
M  V30 3740 H 358.858 -2.1066 -2.47088 0
M  V30 3741 H 359.869 -5.16412 -0.392253 0
M  V30 3742 H 356.546 -3.46263 -2.33255 0
M  V30 3743 H 357.936 -6.71872 0.0617349 0
M  V30 3744 N 360.656 0.0484629 -1.57525 0
M  V30 3745 C 361.902 0.744226 -1.88651 0
M  V30 3746 C 362.235 1.76029 -0.820212 0
M  V30 3747 O 361.51 1.93782 0.166985 0
M  V30 3748 C 361.793 1.43128 -3.30434 0
M  V30 3749 C 361.646 0.43005 -4.47739 0
M  V30 3750 C 362.965 2.37031 -3.70816 0
M  V30 3751 H 360.084 0.269089 -0.68612 0
M  V30 3752 H 362.726 0.00713532 -1.89999 0
M  V30 3753 H 360.876 2.05956 -3.29415 0
M  V30 3754 H 362.548 -0.194816 -4.60888 0
M  V30 3755 H 360.791 -0.252522 -4.33064 0
M  V30 3756 H 361.462 0.948874 -5.43783 0
M  V30 3757 H 363.938 1.84263 -3.73077 0
M  V30 3758 H 362.814 2.82094 -4.70865 0
M  V30 3759 H 363.075 3.22864 -3.02012 0
M  V30 3760 N 362.134 1.5431 0.320358 0
M  V30 3761 C 363.097 1.83195 1.3774 0
M  V30 3762 C 364.097 0.703906 1.44575 0
M  V30 3763 O 365.287 0.972214 1.44546 0
M  V30 3764 C 362.419 1.99487 2.76438 0
M  V30 3765 H 363.612 2.77642 1.1338 0
M  V30 3766 H 361.165 1.46076 0.556012 0
M  V30 3767 H 361.9 1.07262 3.06048 0
M  V30 3768 H 361.685 2.81575 2.7287 0
M  V30 3769 H 363.175 2.23271 3.52902 0
M  V30 3770 N 363.613 -0.582584 1.46437 0
M  V30 3771 C 364.576 -1.67366 1.56592 0
M  V30 3772 C 365.576 -1.54575 0.443072 0
M  V30 3773 O 366.766 -1.59191 0.707381 0
M  V30 3774 C 363.898 -3.06791 1.48634 0
M  V30 3775 H 365.091 -1.5972 2.5383 0
M  V30 3776 H 362.644 -0.800432 1.34249 0
M  V30 3777 H 363.379 -3.19993 0.526763 0
M  V30 3778 H 363.164 -3.17484 2.30101 0
M  V30 3779 H 364.654 -3.86218 1.58826 0
M  V30 3780 N 365.091 -1.34144 -0.827227 0
M  V30 3781 C 366.502 -1.23557 -1.39966 0
M  V30 3782 C 366.853 0.140731 -1.95695 0
M  V30 3783 O 365.978 1.04087 -1.89723 0
M  V30 3784 C 366.573 -2.23708 -2.54441 0
M  V30 3785 C 365.132 -2.16924 -3.07605 0
M  V30 3786 C 364.279 -2.10549 -1.80456 0
M  V30 3787 H 367.23 -1.45573 -0.631991 0
M  V30 3788 H 367.251 -1.85157 -3.32411 0
M  V30 3789 H 366.763 -3.23866 -2.13851 0
M  V30 3790 H 364.864 -1.20107 -3.52711 0
M  V30 3791 H 364.977 -3.07988 -3.66988 0
M  V30 3792 H 363.341 -1.56203 -2.01178 0
M  V30 3793 H 364.124 -3.12535 -1.42046 0
M  V30 3794 N 366.569 1.04691 -1.17803 0
M  V30 3795 C 367.985 1.29963 -0.926379 0
M  V30 3796 C 368.185 1.97251 0.411635 0
M  V30 3797 O 367.241 2.24922 1.14744 0
M  V30 3798 C 368.554 2.16447 -2.08737 0
M  V30 3799 C 370.102 2.29814 -2.12496 0
M  V30 3800 C 370.577 3.19661 -3.27995 0
M  V30 3801 N 372.068 3.27247 -3.27816 0
M  V30 3802 C 372.803 3.96906 -4.13827 0
M  V30 3803 N 372.299 4.6895 -5.09959 0
M  V30 3804 N 374.092 3.93122 -4.01761 0
M  V30 3805 H 366.243 0.594182 -2.0392 0
M  V30 3806 H 368.506 0.324649 -0.890678 0
M  V30 3807 H 368.212 1.74304 -3.05469 0
M  V30 3808 H 368.086 3.17103 -2.04268 0
M  V30 3809 H 370.473 2.71196 -1.16347 0
M  V30 3810 H 370.554 1.2877 -2.21025 0
M  V30 3811 H 370.198 2.78991 -4.24413 0
M  V30 3812 H 370.128 4.20722 -3.16703 0
M  V30 3813 H 372.619 2.75921 -2.58217 0
M  V30 3814 H 372.932 5.19679 -5.71974 0
M  V30 3815 H 371.277 4.67875 -5.13924 0
M  V30 3816 H 374.468 3.35967 -3.2595 0
M  V30 3817 H 374.641 4.47139 -4.6901 0
M  V30 3818 N 368.047 0.979072 1.23499 0
M  V30 3819 C 369.463 0.687475 1.44034 0
M  V30 3820 C 369.663 -0.746801 1.8715 0
M  V30 3821 O 368.719 -1.51939 2.0167 0
M  V30 3822 C 370.032 1.68127 2.49307 0
M  V30 3823 C 371.58 1.69516 2.63122 0
M  V30 3824 C 372.055 2.67723 3.71603 0
M  V30 3825 N 373.546 2.66233 3.79044 0
M  V30 3826 C 374.281 3.38891 4.62537 0
M  V30 3827 N 373.777 4.21103 5.50131 0
M  V30 3828 N 375.57 3.27661 4.56721 0
M  V30 3829 H 367.721 1.90559 0.938135 0
M  V30 3830 H 369.984 0.821051 0.473897 0
M  V30 3831 H 369.69 2.70693 2.2454 0
M  V30 3832 H 369.564 1.46306 3.4767 0
M  V30 3833 H 371.951 0.676561 2.8724 0
M  V30 3834 H 372.032 1.95404 1.65079 0
M  V30 3835 H 371.676 3.69724 3.48233 0
M  V30 3836 H 371.606 2.39111 4.69184 0
M  V30 3837 H 374.097 2.06568 3.16446 0
M  V30 3838 H 374.41 4.73403 6.10827 0
M  V30 3839 H 372.755 4.25195 5.49759 0
M  V30 3840 H 375.946 2.62887 3.87309 0
M  V30 3841 H 376.119 3.84547 5.21562 0
M  V30 3842 N 369.525 -1.3858 0.750561 0
M  V30 3843 C 370.802 -1.94231 0.231009 0
M  V30 3844 C 371.182 -1.68611 -1.27018 0
M  V30 3845 O 370.53 -1.02296 -2.04323 0
M  V30 3846 C 370.74 -3.44123 0.581428 0
M  V30 3847 C 372.088 -4.2116 0.539389 0
M  V30 3848 O 373.112 -3.52391 0.519541 0
M  V30 3849 O 371.971 -5.43749 0.54765 0
M  V30 3850 H 369.065 -0.825639 0.0474263 0
M  V30 3851 H 371.611 -1.4799 0.830478 0
M  V30 3852 H 370.383 -3.56267 1.61833 0
M  V30 3853 H 370.006 -3.97573 -0.0462047 0
M  V30 3854 N 371.003 -0.499398 -1.49478 0
M  V30 3855 C 371.935 0.316575 -2.27003 0
M  V30 3856 C 372.948 0.932047 -1.33479 0
M  V30 3857 O 374.137 0.815658 -1.58774 0
M  V30 3858 C 371.237 1.46055 -3.05812 0
M  V30 3859 C 370.41 0.952679 -4.26899 0
M  V30 3860 C 369.469 1.97407 -4.87767 0
M  V30 3861 O 368.495 1.54326 -5.4788 0
M  V30 3862 N 369.697 3.30436 -4.77276 0
M  V30 3863 H 372.462 -0.348168 -2.97671 0
M  V30 3864 H 370.023 -0.33185 -1.58463 0
M  V30 3865 H 372.015 2.14135 -3.43407 0
M  V30 3866 H 370.585 2.02948 -2.37762 0
M  V30 3867 H 369.805 0.0968248 -3.94081 0
M  V30 3868 H 371.093 0.59174 -5.05347 0
M  V30 3869 H 370.491 3.68126 -4.29534 0
M  V30 3870 H 369.048 3.94235 -5.19059 0
M  V30 3871 N 372.481 1.55866 -0.233164 0
M  V30 3872 C 373.73 1.97779 0.39579 0
M  V30 3873 C 374.043 1.12419 1.60066 0
M  V30 3874 O 375.249 1.44283 2.29988 0
M  V30 3875 C 373.705 3.5188 0.755556 0
M  V30 3876 C 373.313 4.45959 -0.427152 0
M  V30 3877 C 375.057 4.02479 1.34946 0
M  V30 3878 C 372.964 5.91383 -0.0443043 0
M  V30 3879 H 371.894 0.738592 0.15165 0
M  V30 3880 H 374.545 1.80486 -0.331212 0
M  V30 3881 H 372.927 3.64816 1.5403 0
M  V30 3882 H 374.101 4.44776 -1.20462 0
M  V30 3883 H 372.416 4.05765 -0.935068 0
M  V30 3884 H 375.013 5.08637 1.649 0
M  V30 3885 H 375.356 3.49014 2.26925 0
M  V30 3886 H 375.889 3.92813 0.62791 0
M  V30 3887 H 372.628 6.48857 -0.930874 0
M  V30 3888 H 372.148 5.95734 0.697238 0
M  V30 3889 H 373.827 6.45893 0.378334 0
M  V30 3890 N 373.959 -0.0401083 1.57549 0
M  V30 3891 C 374.922 -1.02871 2.04817 0
M  V30 3892 C 375.922 -1.29708 0.950388 0
M  V30 3893 O 377.112 -1.24897 1.21435 0
M  V30 3894 C 374.244 -2.36443 2.45576 0
M  V30 3895 H 375.437 -0.620631 2.93408 0
M  V30 3896 H 372.99 -0.286667 1.53649 0
M  V30 3897 H 373.725 -2.82021 1.60108 0
M  V30 3898 H 373.51 -2.18296 3.25713 0
M  V30 3899 H 375 -3.07441 2.82612 0
M  V30 3900 N 375.437 -1.54477 -0.31217 0
M  V30 3901 C 376.685 -1.72884 -1.04668 0
M  V30 3902 C 377.006 -0.511477 -1.88173 0
M  V30 3903 O 376.276 0.474407 -1.90069 0
M  V30 3904 H 374.856 -0.637461 -0.389425 0
M  V30 3905 H 377.518 -1.91807 -0.345852 0
M  V30 3906 H 376.614 -2.61334 -1.70619 0
M  V30 3907 N 376.915 0.57481 -1.46744 0
M  V30 3908 C 378.14 1.36341 -1.56288 0
M  V30 3909 C 378.565 1.86954 -0.207347 0
M  V30 3910 O 377.923 1.62006 0.813871 0
M  V30 3911 C 377.971 2.52147 -2.57787 0
M  V30 3912 O 377.075 3.53834 -2.11838 0
M  V30 3913 H 376.416 0.405713 -0.525636 0
M  V30 3914 H 378.946 0.696453 -1.92382 0
M  V30 3915 H 378.956 2.98958 -2.77648 0
M  V30 3916 H 377.631 2.14663 -3.5622 0
M  V30 3917 H 376.208 3.1345 -2.01999 0
M  V30 3918 N 378.394 1.34581 0.820102 0
M  V30 3919 C 379.619 1.30333 1.61332 0
M  V30 3920 C 380.044 -0.119339 1.87721 0
M  V30 3921 O 379.402 -1.08197 1.45475 0
M  V30 3922 C 379.45 2.10258 2.92957 0
M  V30 3923 O 378.554 1.47404 3.85157 0
M  V30 3924 H 377.895 0.447488 0.490561 0
M  V30 3925 H 380.425 1.77425 1.01889 0
M  V30 3926 H 380.435 2.21718 3.42498 0
M  V30 3927 H 379.11 3.13693 2.73074 0
M  V30 3928 H 377.687 1.44703 3.43679 0
M  V30 3929 N 379.872 -1.04064 1.18357 0
M  V30 3930 C 381.288 -1.2947 0.933258 0
M  V30 3931 C 381.488 -1.97466 -0.401169 0
M  V30 3932 O 380.544 -2.25528 -1.13549 0
M  V30 3933 C 381.857 -2.15337 2.09882 0
M  V30 3934 C 383.405 -2.28683 2.13712 0
M  V30 3935 C 383.88 -3.17917 3.29686 0
M  V30 3936 N 385.371 -3.25504 3.29547 0
M  V30 3937 C 386.106 -3.94706 4.15926 0
M  V30 3938 N 385.602 -4.66239 5.12439 0
M  V30 3939 N 387.395 -3.90986 4.0384 0
M  V30 3940 H 379.546 -0.583359 2.04232 0
M  V30 3941 H 381.809 -0.319921 0.892387 0
M  V30 3942 H 381.515 -1.72682 3.06389 0
M  V30 3943 H 381.389 -3.16015 2.05947 0
M  V30 3944 H 383.776 -2.70575 1.17784 0
M  V30 3945 H 383.857 -1.27596 2.21705 0
M  V30 3946 H 383.501 -2.76736 4.25887 0
M  V30 3947 H 383.431 -4.19036 3.1893 0
M  V30 3948 H 385.922 -2.74547 2.59677 0
M  V30 3949 H 386.235 -5.16638 5.74722 0
M  V30 3950 H 384.58 -4.65143 5.16398 0
M  V30 3951 H 387.771 -3.34234 3.27727 0
M  V30 3952 H 387.944 -4.44646 4.71375 0
M  V30 3953 N 381.35 -0.985608 -1.22978 0
M  V30 3954 C 382.578 -0.675582 -1.95559 0
M  V30 3955 C 382.993 0.758413 -1.72897 0
M  V30 3956 O 382.35 1.51094 -1.02357 0
M  V30 3957 C 382.401 -0.96293 -3.48439 0
M  V30 3958 O 382.122 -2.34057 -3.70336 0
M  V30 3959 C 383.623 -0.669585 -4.38214 0
M  V30 3960 H 380.843 -0.250523 -0.622478 0
M  V30 3961 H 383.387 -1.3184 -1.56328 0
M  V30 3962 H 381.542 -0.366033 -3.85667 0
M  V30 3963 H 381.956 -2.43424 -4.64591 0
M  V30 3964 H 383.43 -0.920967 -5.44263 0
M  V30 3965 H 383.907 0.396383 -4.37408 0
M  V30 3966 H 384.513 -1.2472 -4.06602 0
M  V30 3967 N 382.828 1.3818 -0.7579 0
M  V30 3968 C 384.053 2.04827 -0.325679 0
M  V30 3969 C 384.478 1.56788 1.03919 0
M  V30 3970 O 383.836 0.721811 1.66312 0
M  V30 3971 C 383.884 3.58774 -0.362447 0
M  V30 3972 O 382.988 4.07372 0.642033 0
M  V30 3973 H 382.329 0.64833 -0.143402 0
M  V30 3974 H 384.859 1.7677 -1.03023 0
M  V30 3975 H 384.869 4.07434 -0.214844 0
M  V30 3976 H 383.544 3.93096 -1.35824 0
M  V30 3977 H 382.121 3.70068 0.458688 0
M  V30 3978 N 384.306 0.507319 1.49211 0
M  V30 3979 C 385.531 -0.033725 2.07373 0
M  V30 3980 C 385.956 -1.29485 1.36437 0
M  V30 3981 O 385.314 -1.76294 0.423087 0
M  V30 3982 C 385.362 -0.263945 3.59633 0
M  V30 3983 O 384.466 -1.33737 3.90113 0
M  V30 3984 H 383.807 0.0290331 0.663365 0
M  V30 3985 H 386.337 0.708749 1.91932 0
M  V30 3986 H 386.347 -0.493536 4.05004 0
M  V30 3987 H 385.022 0.657424 4.10671 0
M  V30 3988 H 383.599 -1.09224 3.56545 0
M  V30 3989 N 385.784 -1.5574 0.241426 0
M  V30 3990 C 387.03 -1.99104 -0.385406 0
M  V30 3991 C 387.363 -1.1293 -1.57988 0
M  V30 3992 O 386.638 -0.191449 -1.93555 0
M  V30 3993 C 386.921 -3.51087 -0.800616 0
M  V30 3994 C 386.774 -4.48028 0.398874 0
M  V30 3995 C 388.093 -4.08015 -1.64959 0
M  V30 3996 H 385.212 -0.723848 -0.138614 0
M  V30 3997 H 387.854 -1.86903 0.341642 0
M  V30 3998 H 386.004 -3.61615 -1.4201 0
M  V30 3999 H 387.676 -4.49487 1.03726 0
M  V30 4000 H 385.919 -4.21077 1.04293 0
M  V30 4001 H 386.59 -5.51962 0.0651056 0
M  V30 4002 H 389.066 -4.00555 -1.12672 0
M  V30 4003 H 387.942 -5.14635 -1.90898 0
M  V30 4004 H 388.203 -3.56131 -2.61961 0
M  V30 4005 N 387.262 0.0317525 -1.57568 0
M  V30 4006 C 388.509 0.723104 -1.89149 0
M  V30 4007 C 388.837 1.75504 -0.838377 0
M  V30 4008 O 388.092 1.95037 0.160982 0
M  V30 4009 C 388.391 1.43167 -3.27472 0
M  V30 4010 C 388.057 0.535972 -4.47703 0
M  V30 4011 C 386.719 0.289262 -4.8033 0
M  V30 4012 C 389.071 -0.0826125 -5.21135 0
M  V30 4013 C 386.399 -0.584853 -5.83778 0
M  V30 4014 C 388.751 -0.944414 -6.25511 0
M  V30 4015 C 387.415 -1.20061 -6.56614 0
M  V30 4016 H 386.685 0.264602 -0.692146 0
M  V30 4017 H 389.332 -0.0169496 -1.91492 0
M  V30 4018 H 387.637 2.24497 -3.21105 0
M  V30 4019 H 389.334 1.97209 -3.49155 0
M  V30 4020 H 385.924 0.738414 -4.22191 0
M  V30 4021 H 390.108 0.0950302 -4.96209 0
M  V30 4022 H 385.364 -0.79168 -6.06253 0
M  V30 4023 H 389.538 -1.43026 -6.81554 0
M  V30 4024 H 387.165 -1.87967 -7.36595 0
M  V30 4025 N 388.74 1.54641 0.303973 0
M  V30 4026 C 389.987 1.7378 1.03955 0
M  V30 4027 C 390.315 0.521986 1.87365 0
M  V30 4028 O 389.57 -0.496099 1.89308 0
M  V30 4029 C 389.869 2.97753 1.97681 0
M  V30 4030 C 389.535 4.31671 1.30271 0
M  V30 4031 C 388.197 4.68075 1.11619 0
M  V30 4032 C 390.549 5.147 0.82055 0
M  V30 4033 C 387.877 5.8509 0.434304 0
M  V30 4034 C 390.229 6.32416 0.152395 0
M  V30 4035 C 388.893 6.67484 -0.0461067 0
M  V30 4036 H 388.163 0.635908 0.380398 0
M  V30 4037 H 390.81 1.88896 0.314718 0
M  V30 4038 H 389.115 2.77406 2.76682 0
M  V30 4039 H 390.812 3.09756 2.54661 0
M  V30 4040 H 387.402 4.03041 1.45795 0
M  V30 4041 H 391.586 4.87077 0.952374 0
M  V30 4042 H 386.842 6.10806 0.269495 0
M  V30 4043 H 391.016 6.96023 -0.229126 0
M  V30 4044 H 388.643 7.58011 -0.576494 0
M  V30 4045 N 390.218 -0.567019 1.47046 0
M  V30 4046 C 391.148 -1.68482 1.61667 0
M  V30 4047 C 392.129 -1.6358 0.466418 0
M  V30 4048 O 393.314 -1.81354 0.694574 0
M  V30 4049 C 390.444 -3.07124 1.62148 0
M  V30 4050 C 389.398 -3.26867 2.76301 0
M  V30 4051 C 388.724 -4.66196 2.61849 0
M  V30 4052 C 390.024 -3.13186 4.17986 0
M  V30 4053 H 391.718 -1.56502 2.5524 0
M  V30 4054 H 389.264 -0.751486 1.22836 0
M  V30 4055 H 391.217 -3.8516 1.70968 0
M  V30 4056 H 389.941 -3.2004 0.651287 0
M  V30 4057 H 388.6 -2.51237 2.66975 0
M  V30 4058 H 388.248 -4.75898 1.62879 0
M  V30 4059 H 387.948 -4.80356 3.38425 0
M  V30 4060 H 389.472 -5.46379 2.72584 0
M  V30 4061 H 390.886 -3.81049 4.2834 0
M  V30 4062 H 389.283 -3.3886 4.95272 0
M  V30 4063 H 390.353 -2.10057 4.3704 0
M  V30 4064 N 391.696 -1.35014 -0.812953 0
M  V30 4065 C 393.112 -1.14914 -1.10757 0
M  V30 4066 C 393.312 0.0426818 -2.01455 0
M  V30 4067 O 392.368 0.715212 -2.42159 0
M  V30 4068 C 393.681 -2.44911 -1.74468 0
M  V30 4069 C 395.229 -2.5106 -1.86917 0
M  V30 4070 C 395.704 -3.81085 -2.54044 0
M  V30 4071 N 397.195 -3.82301 -2.61535 0
M  V30 4072 C 397.93 -4.79634 -3.14227 0
M  V30 4073 N 397.426 -5.87353 -3.67407 0
M  V30 4074 N 399.219 -4.67078 -3.12721 0
M  V30 4075 H 391.37 -2.1136 -0.20989 0
M  V30 4076 H 393.633 -0.935128 -0.155692 0
M  V30 4077 H 393.339 -3.32267 -1.15289 0
M  V30 4078 H 393.213 -2.58989 -2.74234 0
M  V30 4079 H 395.6 -1.64137 -2.45241 0
M  V30 4080 H 395.681 -2.40901 -0.860242 0
M  V30 4081 H 395.325 -4.68402 -1.96372 0
M  V30 4082 H 395.255 -3.88529 -3.55461 0
M  V30 4083 H 397.746 -3.04465 -2.23851 0
M  V30 4084 H 398.059 -6.57624 -4.05894 0
M  V30 4085 H 396.404 -5.91054 -3.65623 0
M  V30 4086 H 399.595 -3.82067 -2.70449 0
M  V30 4087 H 399.768 -5.43098 -3.53481 0
M  V30 4088 N 393.175 1.03435 -1.18907 0
M  V30 4089 C 394.586 1.58195 -0.991523 0
M  V30 4090 C 394.937 1.90801 0.457081 0
M  V30 4091 O 394.062 1.70272 1.33553 0
M  V30 4092 C 394.657 2.87432 -1.79355 0
M  V30 4093 C 393.216 3.38785 -1.64017 0
M  V30 4094 C 392.363 2.12292 -1.78402 0
M  V30 4095 H 395.314 0.860299 -1.33359 0
M  V30 4096 H 395.335 3.58096 -1.28638 0
M  V30 4097 H 394.847 2.63669 -2.84781 0
M  V30 4098 H 392.948 3.67547 -0.611536 0
M  V30 4099 H 393.061 4.12186 -2.44212 0
M  V30 4100 H 391.425 2.23901 -1.2141 0
M  V30 4101 H 392.208 1.90977 -2.85277 0
M  V30 4102 N 394.653 0.992116 1.22453 0
M  V30 4103 C 395.601 0.534644 2.26372 0
M  V30 4104 C 396.595 -0.414293 1.64256 0
M  V30 4105 O 397.801 -0.286899 1.77699 0
M  V30 4106 H 394.176 0.154502 0.735957 0
M  V30 4107 H 396.147 1.42256 2.62309 0
M  V30 4108 C 394.896 -0.135815 3.47435 0
M  V30 4109 H 394.219 0.585311 3.95492 0
M  V30 4110 H 395.659 -0.419374 4.21921 0
M  V30 4111 C 394.118 -1.37089 3.07747 0
M  V30 4112 O 394.648 -2.46629 3.17076 0
M  V30 4113 N 392.854 -1.24585 2.62539 0
M  V30 4114 H 392.401 -0.354542 2.55149 0
M  V30 4115 H 392.359 -2.07327 2.36353 0
M  V30 4116 N 396.131 -1.37776 0.765217 0
M  V30 4117 C 397.094 -2.28686 0.153416 0
M  V30 4118 C 398.094 -1.47727 -0.635081 0
M  V30 4119 O 399.284 -1.68027 -0.459632 0
M  V30 4120 C 396.416 -3.31608 -0.790495 0
M  V30 4121 H 397.609 -2.84297 0.954723 0
M  V30 4122 H 395.162 -1.46932 0.53299 0
M  V30 4123 H 395.897 -2.81109 -1.61705 0
M  V30 4124 H 395.682 -3.9144 -0.227348 0
M  V30 4125 H 397.172 -3.99559 -1.21419 0
M  V30 4126 N 397.609 -0.515225 -1.4894 0
M  V30 4127 C 398.886 0.0879088 -1.95402 0
M  V30 4128 C 399.266 1.52745 -1.45712 0
M  V30 4129 O 398.614 2.18238 -0.677093 0
M  V30 4130 C 398.824 -0.0141055 -3.48997 0
M  V30 4131 C 400.172 0.152646 -4.24326 0
M  V30 4132 O 401.196 0.0604025 -3.56149 0
M  V30 4133 O 400.055 0.34384 -5.45417 0
M  V30 4134 H 397.149 0.0874636 -0.822362 0
M  V30 4135 H 399.695 -0.578775 -1.59525 0
M  V30 4136 H 398.467 -1.01745 -3.77841 0
M  V30 4137 H 398.09 0.692091 -3.9153 0
M  V30 4138 N 399.087 1.5561 -0.249682 0
M  V30 4139 C 400.334 1.99011 0.374287 0
M  V30 4140 C 400.662 1.13785 1.57744 0
M  V30 4141 O 399.917 0.189326 1.94782 0
M  V30 4142 C 400.216 3.4775 0.824887 0
M  V30 4143 C 399.882 4.50086 -0.270819 0
M  V30 4144 C 398.544 4.77791 -0.571746 0
M  V30 4145 C 400.896 5.11312 -1.01041 0
M  V30 4146 C 398.224 5.63997 -1.61629 0
M  V30 4147 C 400.576 5.98651 -2.0445 0
M  V30 4148 C 399.24 6.24688 -2.35204 0
M  V30 4149 H 398.51 0.728233 0.136961 0
M  V30 4150 H 401.157 1.88122 -0.358087 0
M  V30 4151 H 399.462 3.55985 1.63651 0
M  V30 4152 H 401.159 3.78721 1.31799 0
M  V30 4153 H 397.749 4.28592 -0.026136 0
M  V30 4154 H 401.933 4.89953 -0.791177 0
M  V30 4155 H 397.189 5.82425 -1.85988 0
M  V30 4156 H 401.363 6.45135 -2.62248 0
M  V30 4157 H 398.99 6.91281 -3.16282 0
M  V30 4158 N 400.565 -0.0233959 1.57583 0
M  V30 4159 C 401.793 -0.724682 1.93794 0
M  V30 4160 C 402.208 -1.68588 0.849912 0
M  V30 4161 O 401.565 -1.81676 -0.173204 0
M  V30 4162 C 401.616 -1.47684 3.29957 0
M  V30 4163 O 401.337 -0.554222 4.3458 0
M  V30 4164 C 402.838 -2.27477 3.80485 0
M  V30 4165 H 400.058 -0.203317 0.639455 0
M  V30 4166 H 402.602 0.0207653 2.04489 0
M  V30 4167 H 400.757 -2.17412 3.20641 0
M  V30 4168 H 401.171 -1.08232 5.13212 0
M  V30 4169 H 402.645 -2.7564 4.78254 0
M  V30 4170 H 403.122 -3.09144 3.11972 0
M  V30 4171 H 403.728 -1.62813 3.92902 0
M  V30 4172 N 402.043 -1.548 -0.295768 0
M  V30 4173 C 403.29 -1.74329 -1.03032 0
M  V30 4174 C 403.618 -0.531915 -1.87085 0
M  V30 4175 O 402.873 0.486052 -1.89568 0
M  V30 4176 C 403.172 -2.98797 -1.961 0
M  V30 4177 C 402.838 -4.32356 -1.2798 0
M  V30 4178 C 401.5 -4.68661 -1.09135 0
M  V30 4179 C 403.852 -5.15128 -0.793243 0
M  V30 4180 C 401.18 -5.85312 -0.403269 0
M  V30 4181 C 403.532 -6.32488 -0.118854 0
M  V30 4182 C 402.196 -6.6745 0.0815043 0
M  V30 4183 H 401.466 -0.637916 -0.37702 0
M  V30 4184 H 404.113 -1.8906 -0.304696 0
M  V30 4185 H 402.418 -2.78869 -2.75207 0
M  V30 4186 H 404.115 -3.11102 -2.53015 0
M  V30 4187 H 400.705 -4.03808 -1.43655 0
M  V30 4188 H 404.889 -4.87575 -0.92653 0
M  V30 4189 H 400.145 -6.1094 -0.237098 0
M  V30 4190 H 404.319 -6.95892 0.266035 0
M  V30 4191 H 401.946 -7.57695 0.616685 0
M  V30 4192 N 403.521 0.559213 -1.47345 0
M  V30 4193 C 404.746 1.34676 -1.57725 0
M  V30 4194 C 405.171 1.86723 -0.227164 0
M  V30 4195 O 404.529 1.6286 0.796642 0
M  V30 4196 C 404.577 2.49399 -2.60447 0
M  V30 4197 O 403.681 3.51567 -2.15578 0
M  V30 4198 H 403.022 0.400115 -0.52991 0
M  V30 4199 H 405.552 0.676009 -1.93109 0
M  V30 4200 H 405.562 2.95996 -2.80803 0
M  V30 4201 H 404.237 2.10873 -3.58477 0
M  V30 4202 H 402.814 3.11289 -2.05313 0
M  V30 4203 N 404.999 1.35443 0.805782 0
M  V30 4204 C 406.245 1.28952 1.56522 0
M  V30 4205 C 406.578 -0.135597 1.93726 0
M  V30 4206 O 405.853 -1.08516 1.61414 0
M  V30 4207 C 406.136 2.19678 2.85331 0
M  V30 4208 C 405.989 3.7081 2.54598 0
M  V30 4209 C 407.308 2.09495 3.8704 0
M  V30 4210 H 404.427 0.469764 0.567883 0
M  V30 4211 H 407.069 1.65851 0.927001 0
M  V30 4212 H 405.219 1.8834 3.39795 0
M  V30 4213 H 406.891 4.12593 2.06312 0
M  V30 4214 H 405.134 3.91051 1.8778 0
M  V30 4215 H 405.805 4.29679 3.46525 0
M  V30 4216 H 408.281 2.37045 3.41978 0
M  V30 4217 H 407.157 2.75173 4.74943 0
M  V30 4218 H 407.418 1.07714 4.28777 0
M  V30 4219 N 406.477 -1.02803 1.19454 0
M  V30 4220 C 407.888 -1.57667 0.999899 0
M  V30 4221 C 408.239 -1.91041 -0.446956 0
M  V30 4222 O 407.364 -1.70978 -1.32648 0
M  V30 4223 C 407.959 -2.86477 1.80877 0
M  V30 4224 C 406.518 -3.37911 1.65811 0
M  V30 4225 C 405.665 -2.11343 1.79526 0
M  V30 4226 H 408.616 -0.853214 1.33813 0
M  V30 4227 H 408.637 -3.57408 1.30536 0
M  V30 4228 H 408.149 -2.62155 2.86175 0
M  V30 4229 H 406.25 -3.67218 0.63102 0
M  V30 4230 H 406.363 -4.10885 2.46395 0
M  V30 4231 H 404.727 -2.23254 1.22596 0
M  V30 4232 H 405.51 -1.89461 2.86285 0
M  V30 4233 N 407.956 -0.998596 -1.21925 0
M  V30 4234 C 408.886 -0.573688 -2.26343 0
M  V30 4235 C 409.867 0.402296 -1.65274 0
M  V30 4236 O 411.052 0.291683 -1.91997 0
M  V30 4237 C 408.182 0.106839 -3.47136 0
M  V30 4238 C 407.136 -0.788269 -4.20678 0
M  V30 4239 C 406.462 0.0254927 -5.34694 0
M  V30 4240 C 407.762 -2.08784 -4.78755 0
M  V30 4241 H 409.456 -1.44651 -2.62138 0
M  V30 4242 H 407.002 -0.696975 -1.26009 0
M  V30 4243 H 408.955 0.415531 -4.19346 0
M  V30 4244 H 407.679 1.01424 -3.10452 0
M  V30 4245 H 406.338 -1.08069 -3.50309 0
M  V30 4246 H 405.986 0.933989 -4.94253 0
M  V30 4247 H 405.686 -0.570437 -5.84825 0
M  V30 4248 H 407.21 0.328147 -6.09718 0
M  V30 4249 H 408.624 -1.84272 -5.42878 0
M  V30 4250 H 407.021 -2.63307 -5.39249 0
M  V30 4251 H 408.091 -2.76284 -3.98491 0
M  V30 4252 N 409.434 1.37368 -0.772513 0
M  V30 4253 C 410.397 2.28601 -0.165541 0
M  V30 4254 C 411.397 1.48062 0.627238 0
M  V30 4255 O 412.587 1.68268 0.450715 0
M  V30 4256 C 409.719 3.32023 0.772897 0
M  V30 4257 H 410.912 2.83787 -0.969787 0
M  V30 4258 H 408.465 1.46647 -0.540775 0
M  V30 4259 H 409.2 2.81962 1.60212 0
M  V30 4260 H 408.985 3.91555 0.206585 0
M  V30 4261 H 410.475 4.00197 1.19298 0
M  V30 4262 N 410.912 0.523116 1.48665 0
M  V30 4263 C 412.328 0.180511 1.58576 0
M  V30 4264 C 412.528 -1.31597 1.52592 0
M  V30 4265 O 411.584 -2.0937 1.4114 0
M  V30 4266 C 412.897 0.776949 2.90489 0
M  V30 4267 C 414.445 0.745058 3.04003 0
M  V30 4268 C 414.92 1.31995 4.38567 0
M  V30 4269 N 416.411 1.28162 4.45117 0
M  V30 4270 C 417.146 1.6964 5.47731 0
M  V30 4271 N 416.642 2.18816 6.57337 0
M  V30 4272 N 418.435 1.6092 5.38573 0
M  V30 4273 H 410.586 1.4958 1.50797 0
M  V30 4274 H 412.849 0.621772 0.715614 0
M  V30 4275 H 412.555 1.82732 3.00503 0
M  V30 4276 H 412.429 0.25007 3.7637 0
M  V30 4277 H 414.816 -0.296532 2.93606 0
M  V30 4278 H 414.897 1.30933 2.1975 0
M  V30 4279 H 414.541 2.36043 4.49718 0
M  V30 4280 H 414.471 0.731418 5.21496 0
M  V30 4281 H 416.962 0.92155 3.66491 0
M  V30 4282 H 417.275 2.48478 7.31764 0
M  V30 4283 H 415.62 2.22805 6.58318 0
M  V30 4284 H 418.811 1.22304 4.5184 0
M  V30 4285 H 418.984 1.93567 6.18414 0
M  V30 4286 N 412.39 -1.55475 0.257931 0
M  V30 4287 C 413.3 -2.2549 -0.647425 0
M  V30 4288 C 414.316 -1.2748 -1.18427 0
M  V30 4289 O 415.492 -1.6038 -1.2182 0
M  V30 4290 C 412.557 -2.94916 -1.82278 0
M  V30 4291 C 411.618 -4.08363 -1.32432 0
M  V30 4292 C 410.851 -4.74469 -2.44366 0
M  V30 4293 O 411.074 -4.39701 -3.63344 0
M  V30 4294 O 410.008 -5.62763 -2.13497 0
M  V30 4295 H 413.834 -3.03593 -0.0807707 0
M  V30 4296 H 411.419 -1.49377 0.0259962 0
M  V30 4297 H 413.301 -3.38606 -2.50846 0
M  V30 4298 H 411.976 -2.19744 -2.37685 0
M  V30 4299 H 410.883 -3.69166 -0.605605 0
M  V30 4300 H 412.216 -4.85385 -0.816211 0
M  V30 4301 N 413.868 0.0150385 -1.57593 0
M  V30 4302 C 415.108 0.70768 -1.91758 0
M  V30 4303 C 415.472 1.71764 -0.857974 0
M  V30 4304 O 416.673 2.45956 -1.0844 0
M  V30 4305 C 414.944 1.34736 -3.3103 0
M  V30 4306 S 416.503 2.06721 -3.87056 0
M  V30 4307 H 413.321 0.234119 -0.671349 0
M  V30 4308 H 415.923 -0.0380373 -1.95463 0
M  V30 4309 H 414.627 0.59926 -4.06001 0
M  V30 4310 H 414.158 2.13133 -3.30663 0
M  V30 4311 H 416.173 3.34047 -3.66915 0
M  V30 4312 N 415.346 1.54954 0.287554 0
M  V30 4313 C 416.594 1.74528 1.01904 0
M  V30 4314 C 416.915 0.541349 1.87335 0
M  V30 4315 O 416.185 -0.444108 1.908 0
M  V30 4316 H 414.765 0.643576 0.379235 0
M  V30 4317 H 417.427 1.92333 0.315294 0
M  V30 4318 H 416.523 2.64015 1.6644 0
M  V30 4319 N 416.824 -0.551391 1.4764 0
M  V30 4320 C 418.071 -1.3083 1.54563 0
M  V30 4321 C 418.399 -1.93359 0.210361 0
M  V30 4322 O 417.654 -1.78721 -0.797332 0
M  V30 4323 C 417.953 -2.43469 2.61644 0
M  V30 4324 C 417.619 -1.98732 4.04742 0
M  V30 4325 C 416.281 -1.86248 4.43695 0
M  V30 4326 C 418.633 -1.64659 4.94507 0
M  V30 4327 C 415.961 -1.37995 5.70241 0
M  V30 4328 C 418.313 -1.17875 6.21521 0
M  V30 4329 C 416.977 -1.03992 6.5935 0
M  V30 4330 H 416.247 -0.478741 0.565587 0
M  V30 4331 H 418.894 -0.617697 1.81264 0
M  V30 4332 H 417.199 -3.18109 2.28722 0
M  V30 4333 H 418.896 -3.01642 2.64222 0
M  V30 4334 H 415.486 -2.09393 3.73968 0
M  V30 4335 H 419.67 -1.73174 4.65107 0
M  V30 4336 H 414.926 -1.25915 5.98294 0
M  V30 4337 H 419.1 -0.905739 6.90485 0
M  V30 4338 H 416.727 -0.663794 7.57296 0
M  V30 4339 N 418.302 -1.35869 -0.798587 0
M  V30 4340 C 419.579 -1.20145 -1.54352 0
M  V30 4341 C 419.959 0.216161 -2.0999 0
M  V30 4342 O 419.307 1.22068 -1.93162 0
M  V30 4343 C 419.517 -2.27602 -2.64572 0
M  V30 4344 C 420.865 -2.63811 -3.32699 0
M  V30 4345 O 421.889 -2.26576 -2.74849 0
M  V30 4346 O 420.748 -3.27866 -4.37226 0
M  V30 4347 H 417.842 -0.467248 -0.682355 0
M  V30 4348 H 420.388 -1.47574 -0.837859 0
M  V30 4349 H 419.16 -3.2265 -2.21388 0
M  V30 4350 H 418.783 -2.01488 -3.42766 0
M  V30 4351 N 419.78 1.02168 -1.19998 0
M  V30 4352 C 421.026 1.75945 -1.00852 0
M  V30 4353 C 421.359 1.88702 0.458828 0
M  V30 4354 O 420.634 1.40911 1.34069 0
M  V30 4355 C 420.917 3.18154 -1.68671 0
M  V30 4356 C 420.77 3.13224 -3.22817 0
M  V30 4357 C 422.089 4.16711 -1.41561 0
M  V30 4358 H 419.208 0.638673 -0.367785 0
M  V30 4359 H 421.85 1.19222 -1.4794 0
M  V30 4360 H 420 3.66586 -1.28636 0
M  V30 4361 H 421.672 2.72635 -3.72112 0
M  V30 4362 H 419.915 2.50751 -3.53986 0
M  V30 4363 H 420.586 4.13728 -3.65422 0
M  V30 4364 H 423.062 3.76913 -1.76284 0
M  V30 4365 H 421.938 5.14391 -1.91553 0
M  V30 4366 H 422.199 4.40774 -0.342193 0
M  V30 4367 N 421.258 1.00505 1.21394 0
M  V30 4368 C 422.483 0.706367 1.95001 0
M  V30 4369 C 422.908 -0.72463 1.73582 0
M  V30 4370 O 422.266 -1.49702 1.0227 0
M  V30 4371 C 422.314 1.03299 3.45487 0
M  V30 4372 O 421.418 0.138275 4.12168 0
M  V30 4373 H 420.759 0.263175 0.609619 0
M  V30 4374 H 423.289 1.34531 1.54151 0
M  V30 4375 H 423.299 0.979872 3.96059 0
M  V30 4376 H 421.974 2.07567 3.60401 0
M  V30 4377 H 420.551 0.247928 3.72075 0
M  V30 4378 N 422.737 -1.36956 0.779787 0
M  V30 4379 C 423.667 -2.32761 0.185651 0
M  V30 4380 C 424.648 -1.56177 -0.673989 0
M  V30 4381 O 425.833 -1.84378 -0.609797 0
M  V30 4382 C 422.963 -3.40418 -0.687964 0
M  V30 4383 C 421.917 -4.27941 0.0710102 0
M  V30 4384 C 421.243 -5.26681 -0.922573 0
M  V30 4385 C 422.543 -5.07006 1.25467 0
M  V30 4386 H 424.237 -2.82698 0.986008 0
M  V30 4387 H 421.783 -1.3592 0.475592 0
M  V30 4388 H 423.736 -4.06423 -1.11348 0
M  V30 4389 H 422.46 -2.89025 -1.52093 0
M  V30 4390 H 421.119 -3.63478 0.47739 0
M  V30 4391 H 420.767 -4.71565 -1.7503 0
M  V30 4392 H 420.467 -5.86103 -0.419237 0
M  V30 4393 H 421.991 -5.9556 -1.34686 0
M  V30 4394 H 423.405 -5.66105 0.905401 0
M  V30 4395 H 421.802 -5.75793 1.69063 0
M  V30 4396 H 422.872 -4.3921 2.05481 0
M  V30 4397 N 424.215 -0.530993 -1.48385 0
M  V30 4398 C 425.492 0.0671788 -1.95485 0
M  V30 4399 C 425.872 1.51191 -1.47324 0
M  V30 4400 O 425.22 2.17507 -0.700202 0
M  V30 4401 C 425.43 -0.0511206 -3.48963 0
M  V30 4402 C 426.778 0.107632 -4.24464 0
M  V30 4403 O 427.802 0.0226248 -3.56193 0
M  V30 4404 O 426.661 0.285972 -5.45751 0
M  V30 4405 H 423.755 0.0787365 -0.823243 0
M  V30 4406 H 426.301 -0.595662 -1.58902 0
M  V30 4407 H 425.073 -1.05747 -3.7674 0
M  V30 4408 H 424.696 0.650525 -3.92242 0
M  V30 4409 N 425.693 1.55336 -0.266172 0
M  V30 4410 C 426.941 1.99003 0.35246 0
M  V30 4411 C 427.262 1.15591 1.57047 0
M  V30 4412 O 426.532 0.243268 1.94384 0
M  V30 4413 H 425.112 0.735025 0.133217 0
M  V30 4414 H 427.774 1.91367 -0.369434 0
M  V30 4415 H 426.87 3.05289 0.648453 0
M  V30 4416 N 427.171 -0.0066808 1.57599 0
M  V30 4417 C 428.081 -1.01671 2.11424 0
M  V30 4418 C 429.097 -1.38143 1.05795 0
M  V30 4419 O 430.273 -1.47011 1.37658 0
M  V30 4420 C 427.338 -2.29192 2.60139 0
M  V30 4421 C 426.399 -1.99094 3.80342 0
M  V30 4422 C 425.632 -3.20535 4.26724 0
M  V30 4423 O 425.855 -4.3199 3.72479 0
M  V30 4424 O 424.789 -3.04924 5.18946 0
M  V30 4425 H 428.615 -0.589181 2.9793 0
M  V30 4426 H 426.2 -0.225091 1.47695 0
M  V30 4427 H 428.082 -3.0412 2.917 0
M  V30 4428 H 426.757 -2.71195 1.76733 0
M  V30 4429 H 425.664 -1.21663 3.53764 0
M  V30 4430 H 426.997 -1.61931 4.648 0
M  V30 4431 N 428.649 -1.55105 -0.279332 0
M  V30 4432 C 429.877 -1.7943 -1.03017 0
M  V30 4433 C 430.292 -0.564456 -1.80165 0
M  V30 4434 O 429.649 0.466326 -1.76442 0
M  V30 4435 C 429.7 -3.0155 -1.99374 0
M  V30 4436 O 429.421 -4.19784 -1.25352 0
M  V30 4437 C 430.922 -3.3843 -2.86321 0
M  V30 4438 H 428.142 -0.597882 -0.304594 0
M  V30 4439 H 430.686 -2.02105 -0.312035 0
M  V30 4440 H 428.841 -2.81019 -2.66659 0
M  V30 4441 H 429.255 -4.88781 -1.90246 0
M  V30 4442 H 430.729 -4.27066 -3.49741 0
M  V30 4443 H 431.206 -2.57549 -3.5576 0
M  V30 4444 H 431.812 -3.61197 -2.24536 0
M  V30 4445 N 430.127 0.543554 -1.4793 0
M  V30 4446 C 431.09 1.63156 -1.60975 0
M  V30 4447 C 432.09 1.53346 -0.483899 0
M  V30 4448 O 433.28 1.5726 -0.749339 0
M  V30 4449 C 430.412 3.02743 -1.56716 0
M  V30 4450 H 431.605 1.52934 -2.57975 0
M  V30 4451 H 429.158 0.764557 -1.36324 0
M  V30 4452 H 429.893 3.18484 -0.611418 0
M  V30 4453 H 429.678 3.11272 -2.38438 0
M  V30 4454 H 431.168 3.81871 -1.6901 0
M  V30 4455 N 431.605 1.3629 0.791371 0
M  V30 4456 C 432.833 1.33562 1.58016 0
M  V30 4457 C 433.248 -0.0835616 1.88615 0
M  V30 4458 O 432.605 -1.0399 1.49974 0
M  V30 4459 C 432.656 2.15517 2.90232 0
M  V30 4460 O 432.377 3.51902 2.60953 0
M  V30 4461 C 433.878 2.20546 3.84544 0
M  V30 4462 H 431.098 0.458226 0.490173 0
M  V30 4463 H 433.642 1.79361 0.982345 0
M  V30 4464 H 431.797 1.73278 3.46487 0
M  V30 4465 H 432.211 3.94644 3.4548 0
M  V30 4466 H 433.685 2.82252 4.74382 0
M  V30 4467 H 434.162 1.20838 4.2225 0
M  V30 4468 H 434.768 2.63013 3.34222 0
M  V30 4469 N 433.083 -1.0153 1.20538 0
M  V30 4470 C 434.33 -1.75149 1.01633 0
M  V30 4471 C 434.658 -1.89189 -0.451399 0
M  V30 4472 O 433.913 -1.41551 -1.35136 0
M  V30 4473 C 434.212 -3.17213 1.64654 0
M  V30 4474 C 433.878 -3.23146 3.14464 0
M  V30 4475 C 432.54 -3.24472 3.55347 0
M  V30 4476 C 434.892 -3.21207 4.10458 0
M  V30 4477 C 432.22 -3.21532 4.90748 0
M  V30 4478 C 434.572 -3.19808 5.45807 0
M  V30 4479 C 433.236 -3.19439 5.86102 0
M  V30 4480 H 432.506 -0.640914 0.3719 0
M  V30 4481 H 435.153 -1.19071 1.49981 0
M  V30 4482 H 433.458 -3.76457 1.08571 0
M  V30 4483 H 435.155 -3.72871 1.4754 0
M  V30 4484 H 431.745 -3.2285 2.81897 0
M  V30 4485 H 435.929 -3.19351 3.79906 0
M  V30 4486 H 431.185 -3.19578 5.21229 0
M  V30 4487 H 435.359 -3.1726 6.19935 0
M  V30 4488 H 432.986 -3.16915 6.90991 0
M  V30 4489 N 434.561 -1.01147 -1.20859 0
M  V30 4490 C 435.493 -0.535546 -2.22855 0
M  V30 4491 C 436.506 0.379323 -1.58319 0
M  V30 4492 O 437.695 0.178489 -1.77605 0
M  V30 4493 C 434.795 0.240962 -3.38042 0
M  V30 4494 C 433.968 -0.674562 -4.32167 0
M  V30 4495 C 433.027 0.053467 -5.26173 0
M  V30 4496 O 432.053 -0.567339 -5.66366 0
M  V30 4497 N 433.255 1.32997 -5.65059 0
M  V30 4498 H 436.02 -1.41268 -2.64317 0
M  V30 4499 H 433.581 -0.888386 -1.35349 0
M  V30 4500 H 435.573 0.737115 -3.97931 0
M  V30 4501 H 434.143 1.01935 -2.95513 0
M  V30 4502 H 433.363 -1.35111 -3.70322 0
M  V30 4503 H 434.651 -1.2974 -4.91981 0
M  V30 4504 H 434.049 1.85536 -5.34409 0
M  V30 4505 H 432.606 1.77095 -6.2728 0
M  V30 4506 N 436.039 1.36541 -0.78704 0
M  V30 4507 C 437.316 1.9355 -0.282424 0
M  V30 4508 C 437.696 1.71919 1.22503 0
M  V30 4509 O 437.044 1.07677 2.01539 0
M  V30 4510 C 437.254 3.4246 -0.672462 0
M  V30 4511 C 438.602 4.19582 -0.650863 0
M  V30 4512 O 439.626 3.50889 -0.612789 0
M  V30 4513 O 438.485 5.42106 -0.691623 0
M  V30 4514 H 435.579 0.824091 -0.0693 0
M  V30 4515 H 438.125 1.45736 -0.869423 0
M  V30 4516 H 436.897 3.51851 -1.71221 0
M  V30 4517 H 436.52 3.97556 -0.0592211 0
M  V30 4518 N 437.518 0.538854 1.48102 0
M  V30 4519 C 438.764 0.0161732 2.03394 0
M  V30 4520 C 439.119 -1.31154 1.40771 0
M  V30 4521 O 438.412 -1.83613 0.547421 0
M  V30 4522 C 438.606 -0.153808 3.57069 0
M  V30 4523 C 438.435 1.15588 4.34591 0
M  V30 4524 C 437.205 1.71818 4.75191 0
M  V30 4525 C 439.403 2.06867 4.70861 0
M  V30 4526 N 437.385 2.96983 5.37284 0
M  V30 4527 C 438.756 3.16609 5.33066 0
M  V30 4528 C 440.811 2.07085 4.52791 0
M  V30 4529 C 439.514 4.26645 5.79109 0
M  V30 4530 C 441.54 3.16121 4.99821 0
M  V30 4531 C 440.902 4.24582 5.62058 0
M  V30 4532 H 437.001 0.0476346 0.780548 0
M  V30 4533 H 439.585 0.722094 1.80815 0
M  V30 4534 H 437.756 -0.828825 3.79454 0
M  V30 4535 H 439.488 -0.676896 3.98999 0
M  V30 4536 H 436.243 1.25845 4.56574 0
M  V30 4537 H 436.667 3.60732 5.72889 0
M  V30 4538 H 441.309 1.24522 4.04047 0
M  V30 4539 H 439.027 5.0998 6.26854 0
M  V30 4540 H 442.613 3.17355 4.87624 0
M  V30 4541 H 441.493 5.07562 5.97788 0
M  V30 4542 N 438.996 -1.55193 0.274407 0
M  V30 4543 C 440.245 -1.98758 -0.343213 0
M  V30 4544 C 440.558 -1.16624 -1.5703 0
M  V30 4545 O 441.764 -1.5033 -2.26082 0
M  V30 4546 C 440.22 -3.53759 -0.661996 0
M  V30 4547 C 439.828 -4.4467 0.54524 0
M  V30 4548 C 441.572 -4.05916 -1.24228 0
M  V30 4549 C 439.479 -5.91058 0.201084 0
M  V30 4550 H 438.409 -0.742353 -0.132014 0
M  V30 4551 H 441.06 -1.79545 0.378948 0
M  V30 4552 H 439.442 -3.68772 -1.44304 0
M  V30 4553 H 440.616 -4.41426 1.32212 0
M  V30 4554 H 438.931 -4.03143 1.04232 0
M  V30 4555 H 441.528 -5.12831 -1.51357 0
M  V30 4556 H 441.871 -3.54908 -2.17592 0
M  V30 4557 H 442.404 -3.9434 -0.523542 0
M  V30 4558 H 439.143 -6.46161 1.10258 0
M  V30 4559 H 438.663 -5.97373 -0.539045 0
M  V30 4560 H 440.342 -6.46669 -0.206954 0
M  V30 4561 N 440.474 -0.00167713 -1.576 0
M  V30 4562 C 441.722 0.681471 -1.90264 0
M  V30 4563 C 442.043 1.7422 -0.875924 0
M  V30 4564 O 441.313 1.95709 0.0864412 0
M  V30 4565 H 439.893 0.254696 -0.702239 0
M  V30 4566 H 442.555 -0.0429996 -1.94853 0
M  V30 4567 H 441.651 1.15166 -2.90075 0
M  V30 4568 N 441.952 1.55251 0.271103 0
M  V30 4569 C 443.2 1.75599 1.00047 0
M  V30 4570 C 443.521 0.561188 1.8675 0
M  V30 4571 O 442.791 -0.423846 1.9126 0
M  V30 4572 H 441.371 0.647562 0.372387 0
M  V30 4573 H 444.033 1.92656 0.294876 0
M  V30 4574 H 443.129 2.65766 1.6363 0
M  V30 4575 N 443.43 -0.535701 1.48216 0
M  V30 4576 C 444.378 -1.66179 1.62749 0
M  V30 4577 C 445.372 -1.62034 0.49409 0
M  V30 4578 O 446.578 -1.6696 0.672624 0
M  V30 4579 H 442.953 -0.550244 0.512578 0
M  V30 4580 H 444.924 -1.51063 2.57337 0
M  V30 4581 C 443.673 -3.04471 1.67907 0
M  V30 4582 H 442.996 -3.08351 2.54479 0
M  V30 4583 H 444.436 -3.82894 1.82121 0
M  V30 4584 C 442.895 -3.34314 0.416596 0
M  V30 4585 O 443.425 -3.98905 -0.473014 0
M  V30 4586 N 441.631 -2.89149 0.290038 0
M  V30 4587 H 441.178 -2.36764 1.01493 0
M  V30 4588 H 441.136 -3.09486 -0.55367 0
M  V30 4589 N 444.908 -1.36708 -0.784132 0
M  V30 4590 C 446.138 -1.34203 -1.57077 0
M  V30 4591 C 446.546 0.0774945 -1.89041 0
M  V30 4592 O 445.889 1.04628 -1.50992 0
M  V30 4593 C 445.951 -2.10351 -2.91535 0
M  V30 4594 C 445.615 -3.59405 -2.82272 0
M  V30 4595 C 446.612 -4.53545 -2.54151 0
M  V30 4596 C 444.297 -4.02362 -3.00683 0
M  V30 4597 C 446.291 -5.8862 -2.44551 0
M  V30 4598 C 443.978 -5.37526 -2.90704 0
M  V30 4599 C 444.976 -6.30468 -2.62677 0
M  V30 4600 O 444.664 -7.63149 -2.52702 0
M  V30 4601 H 444.396 -0.461791 -0.493685 0
M  V30 4602 H 446.95 -1.80475 -0.980712 0
M  V30 4603 H 445.18 -1.5875 -3.52612 0
M  V30 4604 H 446.869 -2.00636 -3.52845 0
M  V30 4605 H 447.635 -4.21669 -2.39625 0
M  V30 4606 H 443.514 -3.30389 -3.21503 0
M  V30 4607 H 447.058 -6.61133 -2.22596 0
M  V30 4608 H 442.955 -5.69008 -3.04795 0
M  V30 4609 H 443.723 -7.73331 -2.68144 0
M  V30 4610 N 446.386 1.0089 -1.21074 0
M  V30 4611 C 447.632 1.74866 -1.02712 0
M  V30 4612 C 447.965 1.89178 0.438787 0
M  V30 4613 O 447.24 1.42325 1.32567 0
M  V30 4614 C 447.523 3.16347 -1.72036 0
M  V30 4615 C 447.376 3.09782 -3.26121 0
M  V30 4616 C 448.695 4.15187 -1.45973 0
M  V30 4617 H 445.814 0.634736 -0.374539 0
M  V30 4618 H 448.456 1.17646 -1.49196 0
M  V30 4619 H 446.606 3.65201 -1.32517 0
M  V30 4620 H 448.278 2.68673 -3.74983 0
M  V30 4621 H 446.521 2.46982 -3.56626 0
M  V30 4622 H 447.192 4.09829 -3.6979 0
M  V30 4623 H 449.668 3.75022 -1.80272 0
M  V30 4624 H 448.544 5.12331 -1.96999 0
M  V30 4625 H 448.805 4.40386 -0.388924 0
M  V30 4626 N 447.864 1.01787 1.20321 0
M  V30 4627 C 448.812 0.58254 2.25187 0
M  V30 4628 C 449.806 -0.379359 1.65098 0
M  V30 4629 O 451.012 -0.249142 1.78267 0
M  V30 4630 H 447.387 0.170078 0.732514 0
M  V30 4631 H 449.358 1.47788 2.59232 0
M  V30 4632 C 448.107 -0.0620885 3.47645 0
M  V30 4633 H 447.43 0.669069 3.94162 0
M  V30 4634 H 448.87 -0.329784 4.22716 0
M  V30 4635 C 447.329 -1.3053 3.10586 0
M  V30 4636 O 447.859 -2.39848 3.22236 0
M  V30 4637 N 446.065 -1.18988 2.65123 0
M  V30 4638 H 445.612 -0.300341 2.55843 0
M  V30 4639 H 445.57 -2.02267 2.40698 0
M  V30 4640 N 449.342 -1.36122 0.79427 0
M  V30 4641 C 450.591 -1.98361 0.365464 0
M  V30 4642 C 450.904 -1.6374 -1.06997 0
M  V30 4643 O 452.11 -2.19251 -1.60129 0
M  V30 4644 C 450.566 -3.54821 0.602496 0
M  V30 4645 C 450.174 -3.98362 2.04967 0
M  V30 4646 C 451.918 -4.2383 0.238437 0
M  V30 4647 C 449.825 -5.47619 2.2331 0
M  V30 4648 H 448.755 -0.742193 0.13291 0
M  V30 4649 H 451.406 -1.55354 0.976589 0
M  V30 4650 H 449.788 -3.95922 -0.078409 0
M  V30 4651 H 450.962 -3.68447 2.76737 0
M  V30 4652 H 449.277 -3.42206 2.37243 0
M  V30 4653 H 451.874 -5.33529 0.353705 0
M  V30 4654 H 452.217 -4.08264 -0.814006 0
M  V30 4655 H 452.75 -3.88108 0.872769 0
M  V30 4656 H 449.489 -5.68138 3.26955 0
M  V30 4657 H 449.009 -5.79145 1.5605 0
M  V30 4658 H 450.688 -6.13911 2.0426 0
M  V30 4659 N 450.82 -0.546701 -1.47814 0
M  V30 4660 C 452.236 -0.205717 -1.58269 0
M  V30 4661 C 452.436 1.29153 -1.54667 0
M  V30 4662 O 451.492 2.07098 -1.44453 0
M  V30 4663 C 452.805 -0.823065 -2.89216 0
M  V30 4664 C 454.353 -0.793328 -3.02779 0
M  V30 4665 C 454.828 -1.38955 -4.36412 0
M  V30 4666 N 456.319 -1.35227 -4.43021 0
M  V30 4667 C 457.054 -1.78333 -5.44963 0
M  V30 4668 N 456.55 -2.29246 -6.53772 0
M  V30 4669 N 458.343 -1.69467 -5.35945 0
M  V30 4670 H 450.494 -1.5196 -1.48398 0
M  V30 4671 H 452.757 -0.633078 -0.705632 0
M  V30 4672 H 452.463 -1.8749 -2.97558 0
M  V30 4673 H 452.337 -0.309915 -3.75925 0
M  V30 4674 H 454.724 0.249784 -2.94041 0
M  V30 4675 H 454.805 -1.34412 -2.17639 0
M  V30 4676 H 454.449 -2.43168 -4.45906 0
M  V30 4677 H 454.379 -0.814291 -5.20266 0
M  V30 4678 H 456.87 -0.979739 -3.64979 0
M  V30 4679 H 457.183 -2.60089 -7.27718 0
M  V30 4680 H 455.528 -2.3325 -6.5469 0
M  V30 4681 H 458.719 -1.29477 -4.49837 0
M  V30 4682 H 458.892 -2.03381 -6.15256 0
M  V30 4683 N 452.299 1.55045 -0.282633 0
M  V30 4684 C 453.715 1.59441 0.0712997 0
M  V30 4685 C 453.915 1.2998 1.53972 0
M  V30 4686 O 452.971 1.06431 2.28973 0
M  V30 4687 C 454.284 2.99097 -0.310104 0
M  V30 4688 C 455.832 3.1194 -0.257343 0
M  V30 4689 C 456.307 4.53875 -0.613297 0
M  V30 4690 N 457.798 4.5974 -0.565134 0
M  V30 4691 C 458.533 5.67603 -0.81326 0
M  V30 4692 N 458.029 6.83582 -1.1264 0
M  V30 4693 N 459.822 5.57187 -0.741553 0
M  V30 4694 H 451.973 1.72458 -1.23984 0
M  V30 4695 H 454.236 0.804549 -0.501403 0
M  V30 4696 H 453.942 3.25516 -1.33163 0
M  V30 4697 H 453.816 3.75616 0.345366 0
M  V30 4698 H 456.203 2.85281 0.754905 0
M  V30 4699 H 456.284 2.37618 -0.947178 0
M  V30 4700 H 455.928 4.81261 -1.62327 0
M  V30 4701 H 455.858 5.26508 0.09841 0
M  V30 4702 H 458.349 3.76427 -0.333294 0
M  V30 4703 H 458.662 7.6175 -1.30219 0
M  V30 4704 H 457.007 6.85179 -1.16425 0
M  V30 4705 H 460.198 4.65457 -0.496705 0
M  V30 4706 H 460.371 6.41171 -0.938306 0
M  V30 4707 N 453.777 0.010035 1.57597 0
M  V30 4708 C 455.005 -0.683413 1.95287 0
M  V30 4709 C 455.42 -1.66747 0.885481 0
M  V30 4710 O 454.777 -1.82003 -0.134629 0
M  V30 4711 C 454.828 -1.40652 3.33015 0
M  V30 4712 O 454.549 -0.461916 4.35658 0
M  V30 4713 C 456.05 -2.19356 3.85225 0
M  V30 4714 H 453.27 -0.189708 0.643624 0
M  V30 4715 H 455.814 0.0641359 2.04399 0
M  V30 4716 H 453.969 -2.10562 3.2518 0
M  V30 4717 H 454.383 -0.973215 5.15392 0
M  V30 4718 H 455.857 -2.65433 4.83993 0
M  V30 4719 H 456.334 -3.02457 3.18459 0
M  V30 4720 H 456.94 -1.54442 3.96267 0
M  V30 4721 N 455.255 -1.55392 -0.262866 0
M  V30 4722 C 456.48 -1.80847 -1.01533 0
M  V30 4723 C 456.905 -0.584946 -1.78774 0
M  V30 4724 O 456.263 0.465701 -1.75217 0
M  V30 4725 C 456.311 -3.03866 -1.94159 0
M  V30 4726 O 455.415 -2.79662 -3.03089 0
M  V30 4727 H 454.756 -0.597441 -0.289759 0
M  V30 4728 H 457.286 -2.02553 -0.288698 0
M  V30 4729 H 457.296 -3.32872 -2.35924 0
M  V30 4730 H 455.971 -3.92564 -1.37354 0
M  V30 4731 H 454.548 -2.61781 -2.65566 0
M  V30 4732 N 456.733 0.527833 -1.48498 0
M  V30 4733 C 457.68 1.6322 -1.6318 0
M  V30 4734 C 458.65 1.59199 -0.473815 0
M  V30 4735 O 459.835 1.77591 -0.697563 0
M  V30 4736 C 456.975 3.01474 -1.67951 0
M  V30 4737 C 456.088 3.15713 -2.94871 0
M  V30 4738 C 455.223 4.44539 -2.90789 0
M  V30 4739 C 454.262 4.52315 -4.12404 0
M  V30 4740 N 453.399 5.72533 -4.06387 0
M  V30 4741 H 458.239 1.50011 -2.57489 0
M  V30 4742 H 455.776 0.730298 -1.27691 0
M  V30 4743 H 457.734 3.81572 -1.68698 0
M  V30 4744 H 456.364 3.1345 -0.771306 0
M  V30 4745 H 455.416 2.28854 -3.03859 0
M  V30 4746 H 456.728 3.1732 -3.8485 0
M  V30 4747 H 455.882 5.3293 -2.89949 0
M  V30 4748 H 454.621 4.45457 -1.98542 0
M  V30 4749 H 453.626 3.62331 -4.13517 0
M  V30 4750 H 454.851 4.53134 -5.05812 0
M  V30 4751 H 452.797 5.74344 -3.16962 0
M  V30 4752 H 452.714 5.75643 -4.90073 0
M  V30 4753 H 453.982 6.63204 -4.0961 0
M  V30 4754 N 458.211 1.37122 0.776871 0
M  V30 4755 C 459.174 1.32301 1.8716 0
M  V30 4756 C 460.174 0.228099 1.59174 0
M  V30 4757 O 461.364 0.483642 1.67352 0
M  V30 4758 C 458.496 1.054 3.24197 0
M  V30 4759 H 459.689 2.29673 1.92848 0
M  V30 4760 H 457.242 1.22077 0.97606 0
M  V30 4761 H 457.977 0.0853872 3.24188 0
M  V30 4762 H 457.762 1.84648 3.45901 0
M  V30 4763 H 459.252 1.04664 4.04271 0
M  V30 4764 O 459.728 -0.91678 1.32956 0
M  V30 4765 H 460.419 -1.55003 1.16162 0
M  V30 END ATOM
M  V30 BEGIN BOND
M  V30 END BOND
M  V30 END CTAB
M  END
$$$$
