drugbank_target|O15439 Multidrug resistance-associated protein 4 (DB00171)
 OpenBabel12092119493D

  0  0  0     0  0            999 V3000
M  V30 BEGIN CTAB
M  V30 COUNTS 21304 21531 0 0 0
M  V30 BEGIN ATOM
M  V30 1 H -0.908 1.98254 -0.117106 0
M  V30 2 N 0 1.576 0 0
M  V30 3 C 0.933 2.03868 1.02534 0
M  V30 4 C 1.911 0.928543 1.3348 0
M  V30 5 O 3.095 1.19667 1.45644 0
M  V30 6 C 0.222 2.43627 2.35294 0
M  V30 7 C -0.732 3.65373 2.2001 0
M  V30 8 S 0.101 5.13292 1.52614 0
M  V30 9 C 1.257 5.56322 2.86805 0
M  V30 10 H 1.49 2.90518 0.631377 0
M  V30 11 H -0.977 1.52953 0.210867 0
M  V30 12 H 0.981 2.67203 3.11629 0
M  V30 13 H -0.358 1.57376 2.7183 0
M  V30 14 H -1.165 3.90944 3.18086 0
M  V30 15 H -1.563 3.418 1.51819 0
M  V30 16 H 0.729 5.58782 3.83104 0
M  V30 17 H 1.672 6.56266 2.65933 0
M  V30 18 H 2.08 4.83886 2.90714 0
M  V30 19 N 1.4781 -0.272755 1.55222 0
M  V30 20 C 2.4081 -1.34136 1.91127 0
M  V30 21 C 3.3891 -1.51513 0.773168 0
M  V30 22 O 4.5741 -1.64552 1.03132 0
M  V30 23 C 1.7041 -2.70083 2.1834 0
M  V30 24 C 0.6581 -2.67437 3.34158 0
M  V30 25 C -0.0159 -4.06938 3.46851 0
M  V30 26 C 1.2841 -2.26686 4.70543 0
M  V30 27 H 2.9781 -1.04333 2.80633 0
M  V30 28 H 0.5241 -0.500454 1.35024 0
M  V30 29 H 2.4771 -3.44952 2.42046 0
M  V30 30 H 1.2011 -3.01469 1.25634 0
M  V30 31 H -0.1399 -1.95026 3.1042 0
M  V30 32 H -0.4919 -4.35547 2.51611 0
M  V30 33 H -0.7919 -4.06062 4.2472 0
M  V30 34 H 0.7321 -4.83545 3.72849 0
M  V30 35 H 2.1461 -2.91277 4.93792 0
M  V30 36 H 0.5431 -2.36971 5.5133 0
M  V30 37 H 1.6131 -1.21818 4.69349 0
M  V30 38 N 2.9562 -1.48159 -0.537278 0
M  V30 39 C 4.3672 -1.49429 -1.11928 0
M  V30 40 C 4.7182 -0.26 -1.9447 0
M  V30 41 O 3.8432 0.633489 -2.0692 0
M  V30 42 C 4.4382 -2.70758 -2.03656 0
M  V30 43 C 2.9972 -2.74923 -2.57088 0
M  V30 44 C 2.1442 -2.42835 -1.3389 0
M  V30 45 H 5.0952 -1.55381 -0.322886 0
M  V30 46 H 5.1162 -2.48861 -2.87834 0
M  V30 47 H 4.6282 -3.60575 -1.43553 0
M  V30 48 H 2.7292 -1.89296 -3.20933 0
M  V30 49 H 2.8422 -3.76157 -2.9672 0
M  V30 50 H 1.2062 -1.93836 -1.65226 0
M  V30 51 H 1.9892 -3.34884 -0.755504 0
M  V30 52 N 4.4343 0.785586 -1.36625 0
M  V30 53 C 5.6803 1.54591 -1.31261 0
M  V30 54 C 6.0133 1.93906 0.106823 0
M  V30 55 O 5.2883 1.63007 1.06108 0
M  V30 56 C 5.5713 2.82038 -2.23889 0
M  V30 57 C 5.4243 2.49066 -3.74548 0
M  V30 58 C 6.7433 3.83887 -2.15217 0
M  V30 59 H 3.8623 0.560846 -0.478143 0
M  V30 60 H 6.5043 0.902278 -1.67209 0
M  V30 61 H 4.6543 3.36961 -1.93363 0
M  V30 62 H 6.3263 2.00164 -4.15611 0
M  V30 63 H 4.5693 1.81954 -3.93796 0
M  V30 64 H 5.2403 3.40109 -4.34776 0
M  V30 65 H 7.7163 3.38421 -2.42096 0
M  V30 66 H 6.5923 4.70806 -2.82193 0
M  V30 67 H 6.8533 4.27131 -1.14068 0
M  V30 68 N 5.9124 1.20967 1.01018 0
M  V30 69 C 7.1424 1.04803 1.78044 0
M  V30 70 C 7.5504 -0.405462 1.84804 0
M  V30 71 O 6.8934 -1.2932 1.30468 0
M  V30 72 C 6.9554 1.56377 3.23707 0
M  V30 73 C 6.6194 3.04767 3.40538 0
M  V30 74 C 7.6164 4.02366 3.29239 0
M  V30 75 C 5.3014 3.43862 3.66147 0
M  V30 76 C 7.2954 5.37049 3.43304 0
M  V30 77 C 4.9824 4.78699 3.79855 0
M  V30 78 C 5.9804 5.75101 3.68439 0
M  V30 79 O 5.6684 7.07493 3.81719 0
M  V30 80 H 5.4004 0.368778 0.56655 0
M  V30 81 H 7.9544 1.60642 1.27997 0
M  V30 82 H 6.1844 0.949297 3.74867 0
M  V30 83 H 7.8734 1.36136 3.8239 0
M  V30 84 H 8.6394 3.73506 3.09384 0
M  V30 85 H 4.5184 2.69364 3.74118 0
M  V30 86 H 8.0624 6.12277 3.34309 0
M  V30 87 H 3.9594 5.07247 3.99213 0
M  V30 88 H 4.7274 7.1483 3.98697 0
M  V30 89 N 7.3905 -1.2043 1.01659 0
M  V30 90 C 8.3225 -2.22626 0.544988 0
M  V30 91 C 9.3355 -1.58479 -0.372609 0
M  V30 92 O 10.5245 -1.77679 -0.170958 0
M  V30 93 C 7.6245 -3.38141 -0.22663 0
M  V30 94 C 6.7975 -4.31877 0.692876 0
M  V30 95 C 5.8565 -5.26191 -0.0311616 0
M  V30 96 O 4.8825 -5.6612 0.591343 0
M  V30 97 N 6.0845 -5.65618 -1.30601 0
M  V30 98 H 8.8495 -2.63716 1.42388 0
M  V30 99 H 6.4105 -1.34971 0.894116 0
M  V30 100 H 8.4025 -3.98239 -0.72024 0
M  V30 101 H 6.9725 -2.95943 -1.00681 0
M  V30 102 H 6.1925 -3.69746 1.36679 0
M  V30 103 H 7.4805 -4.91426 1.31824 0
M  V30 104 H 6.8785 -5.3519 -1.83269 0
M  V30 105 H 5.4355 -6.28025 -1.74435 0
M  V30 106 N 8.8686 -0.792821 -1.36206 0
M  V30 107 C 9.7786 -0.194808 -2.3379 0
M  V30 108 C 10.7946 0.654869 -1.61206 0
M  V30 109 O 11.9706 0.569856 -1.9317 0
M  V30 110 C 9.0356 0.657721 -3.40404 0
M  V30 111 C 8.0966 -0.210849 -4.28782 0
M  V30 112 C 7.3296 0.601086 -5.30304 0
M  V30 113 O 7.5526 1.83682 -5.40016 0
M  V30 114 O 6.4866 -0.000808277 -6.019 0
M  V30 115 H 10.3126 -1.00172 -2.86704 0
M  V30 116 H 7.8976 -0.554341 -1.38735 0
M  V30 117 H 9.7796 1.14375 -4.05581 0
M  V30 118 H 8.4546 1.44247 -2.89784 0
M  V30 119 H 7.3616 -0.743714 -3.66633 0
M  V30 120 H 8.6946 -0.959195 -4.82763 0
M  V30 121 N 10.3467 1.47872 -0.545128 0
M  V30 122 C 11.5927 2.02793 -0.0166104 0
M  V30 123 C 11.9257 1.41987 1.32489 0
M  V30 124 O 11.2007 0.571045 1.85928 0
M  V30 125 C 11.4837 3.59989 0.0893294 0
M  V30 126 C 11.3367 4.3125 -1.27841 0
M  V30 127 C 12.6557 4.32606 0.808724 0
M  V30 128 H 9.7747 0.736962 -0.00751035 0
M  V30 129 H 12.4167 1.76433 -0.705085 0
M  V30 130 H 10.5667 3.82579 0.675681 0
M  V30 131 H 12.2387 4.20035 -1.90704 0
M  V30 132 H 10.4817 3.92076 -1.85632 0
M  V30 133 H 11.1527 5.39736 -1.15713 0
M  V30 134 H 13.6287 4.14936 0.310992 0
M  V30 135 H 12.5047 5.42251 0.851782 0
M  V30 136 H 12.7657 4.00963 1.86229 0
M  V30 137 N 11.8248 0.280983 1.55075 0
M  V30 138 C 12.7718 -0.603937 2.22758 0
M  V30 139 C 13.7418 -1.1452 1.20309 0
M  V30 140 O 14.9268 -1.19343 1.48869 0
M  V30 141 C 12.0668 -1.77947 2.95684 0
M  V30 142 C 11.1798 -1.2715 4.12864 0
M  V30 143 C 10.3148 -2.4093 4.7342 0
M  V30 144 C 9.3538 -1.87165 5.82783 0
M  V30 145 N 8.4908 -2.94441 6.37377 0
M  V30 146 H 13.3308 -0.020124 2.97993 0
M  V30 147 H 10.8678 0.00183425 1.471 0
M  V30 148 H 12.8258 -2.47055 3.36184 0
M  V30 149 H 11.4558 -2.33522 2.22861 0
M  V30 150 H 10.5078 -0.473331 3.77444 0
M  V30 151 H 11.8198 -0.837751 4.91715 0
M  V30 152 H 10.9738 -3.18021 5.1667 0
M  V30 153 H 9.7128 -2.87623 3.93859 0
M  V30 154 H 8.7178 -1.08556 5.38976 0
M  V30 155 H 9.9428 -1.41401 6.64216 0
M  V30 156 H 7.8888 -3.40505 5.60707 0
M  V30 157 H 7.8058 -2.55501 7.11516 0
M  V30 158 H 9.0738 -3.71489 6.85285 0
M  V30 159 N 13.3029 -1.57598 0.00835791 0
M  V30 160 C 14.7139 -1.7892 -0.53333 0
M  V30 161 C 15.0649 -0.916609 -1.73473 0
M  V30 162 O 14.1899 -0.121336 -2.1606 0
M  V30 163 C 14.7849 -3.24488 -0.974313 0
M  V30 164 C 13.3439 -3.46878 -1.46125 0
M  V30 165 C 12.4909 -2.74157 -0.416302 0
M  V30 166 H 15.4419 -1.56958 0.234495 0
M  V30 167 H 15.4629 -3.3306 -1.83988 0
M  V30 168 H 14.9749 -3.87972 -0.099718 0
M  V30 169 H 13.0759 -2.8862 -2.35646 0
M  V30 170 H 13.1889 -4.55572 -1.48295 0
M  V30 171 H 11.5529 -2.39022 -0.87981 0
M  V30 172 H 12.3359 -3.40345 0.44947 0
M  V30 173 N 14.781 0.264519 -1.55364 0
M  V30 174 C 15.729 1.34702 -1.89626 0
M  V30 175 C 16.723 1.50712 -0.773459 0
M  V30 176 O 17.929 1.52395 -0.957897 0
M  V30 177 H 14.304 0.450682 -0.601988 0
M  V30 178 H 16.275 1.0306 -2.80038 0
M  V30 179 C 15.024 2.6989 -2.19214 0
M  V30 180 H 14.347 2.58365 -3.05103 0
M  V30 181 H 15.787 3.44553 -2.47102 0
M  V30 182 C 14.246 3.21637 -1.00254 0
M  V30 183 O 14.776 4.00973 -0.241501 0
M  V30 184 N 12.982 2.7943 -0.797938 0
M  V30 185 H 12.529 2.15026 -1.4185 0
M  V30 186 H 12.487 3.144 -0.00363422 0
M  V30 187 N 16.2591 1.48442 0.529413 0
M  V30 188 C 17.6701 1.5002 1.11134 0
M  V30 189 C 18.0211 0.27031 1.94329 0
M  V30 190 O 17.1461 -0.622507 2.07253 0
M  V30 191 C 17.7411 2.71834 2.02217 0
M  V30 192 C 16.3001 2.76283 2.55627 0
M  V30 193 C 15.4471 2.43542 1.326 0
M  V30 194 H 18.3981 1.5555 0.314641 0
M  V30 195 H 18.4191 2.50384 2.8651 0
M  V30 196 H 17.9311 3.61331 1.41639 0
M  V30 197 H 16.0321 1.90995 3.19924 0
M  V30 198 H 16.1451 3.77725 2.94721 0
M  V30 199 H 14.5091 1.94709 1.64196 0
M  V30 200 H 15.2921 3.3528 0.737734 0
M  V30 201 N 17.7372 -0.778329 1.37039 0
M  V30 202 C 18.6672 -1.90546 1.34962 0
M  V30 203 C 19.6482 -1.68681 0.219274 0
M  V30 204 O 20.8332 -1.89634 0.418624 0
M  V30 205 C 17.9632 -3.27734 1.14925 0
M  V30 206 C 16.9172 -3.64147 2.24902 0
M  V30 207 C 16.2432 -4.99806 1.89996 0
M  V30 208 C 17.5432 -3.71579 3.67051 0
M  V30 209 H 19.2372 -1.92541 2.29277 0
M  V30 210 H 16.7832 -0.924948 1.10366 0
M  V30 211 H 18.7362 -4.06215 1.12104 0
M  V30 212 H 17.4602 -3.26154 0.170631 0
M  V30 213 H 16.1192 -2.8797 2.26868 0
M  V30 214 H 15.7672 -4.94759 0.906796 0
M  V30 215 H 15.4672 -5.25139 2.63634 0
M  V30 216 H 16.9912 -5.80694 1.88749 0
M  V30 217 H 18.4052 -4.40227 3.67251 0
M  V30 218 H 16.8022 -4.08405 4.39688 0
M  V30 219 H 17.8722 -2.72404 4.01154 0
M  V30 220 N 19.2153 -1.21501 -1.00376 0
M  V30 221 C 20.1473 -0.933174 -2.09343 0
M  V30 222 C 21.1603 0.0840896 -1.62583 0
M  V30 223 O 22.3493 -0.148563 -1.77881 0
M  V30 224 C 19.4493 -0.379869 -3.36764 0
M  V30 225 C 18.6223 -1.45176 -4.12605 0
M  V30 226 C 17.6813 -0.907476 -5.18316 0
M  V30 227 O 16.7073 -1.5912 -5.46507 0
M  V30 228 N 17.9093 0.276649 -5.7984 0
M  V30 229 H 20.6743 -1.87124 -2.34104 0
M  V30 230 H 18.2353 -1.12043 -1.16867 0
M  V30 231 H 20.2273 -0.00131488 -4.047 0
M  V30 232 H 18.7973 0.463048 -3.09151 0
M  V30 233 H 18.0173 -2.00411 -3.39454 0
M  V30 234 H 19.3053 -2.17328 -4.6005 0
M  V30 235 H 18.7033 0.849147 -5.59291 0
M  V30 236 H 17.2603 0.596702 -6.49063 0
M  V30 237 N 20.6934 1.19889 -1.02296 0
M  V30 238 C 21.9704 1.85148 -0.630832 0
M  V30 239 C 22.3504 1.91385 0.890782 0
M  V30 240 O 21.6984 1.42642 1.78509 0
M  V30 241 C 21.9084 3.24442 -1.28602 0
M  V30 242 C 23.2564 4.00663 -1.4055 0
M  V30 243 O 24.2804 3.33818 -1.24273 0
M  V30 244 O 23.1394 5.20387 -1.66913 0
M  V30 245 H 20.2334 0.797613 -0.218499 0
M  V30 246 H 22.7794 1.27427 -1.12074 0
M  V30 247 H 21.5514 3.14704 -2.32545 0
M  V30 248 H 21.1744 3.89802 -0.7836 0
M  V30 249 N 22.1715 0.800033 1.35784 0
M  V30 250 C 23.1345 0.211565 2.28221 0
M  V30 251 C 24.1345 -0.59728 1.49296 0
M  V30 252 O 25.3245 -0.416721 1.69142 0
M  V30 253 C 22.4565 -0.705846 3.33513 0
M  V30 254 H 23.6495 1.02677 2.81776 0
M  V30 255 H 21.2025 0.570211 1.45528 0
M  V30 256 H 21.9375 -1.54498 2.85133 0
M  V30 257 H 21.7225 -0.127655 3.91892 0
M  V30 258 H 23.2125 -1.11211 4.02519 0
M  V30 259 N 23.6496 -1.47581 0.552962 0
M  V30 260 C 24.5976 -2.31648 -0.21023 0
M  V30 261 C 25.5916 -1.42663 -0.913432 0
M  V30 262 O 26.7976 -1.5945 -0.835201 0
M  V30 263 H 23.1726 -0.746989 -0.0866676 0
M  V30 264 H 25.1436 -2.93869 0.518051 0
M  V30 265 C 23.8926 -3.25226 -1.22976 0
M  V30 266 H 23.2156 -3.93658 -0.698077 0
M  V30 267 H 24.6556 -3.86889 -1.73473 0
M  V30 268 C 23.1146 -2.48448 -2.27542 0
M  V30 269 O 23.6446 -2.22585 -3.34393 0
M  V30 270 N 21.8506 -2.09532 -2.01357 0
M  V30 271 H 21.3976 -2.30765 -1.14478 0
M  V30 272 H 21.3556 -1.58476 -2.71538 0
M  V30 273 N 25.1277 -0.289203 -1.54924 0
M  V30 274 C 26.0577 0.58549 -2.2604 0
M  V30 275 C 27.0387 1.14753 -1.25562 0
M  V30 276 O 28.2237 1.17906 -1.54311 0
M  V30 277 C 25.3537 1.76305 -2.99222 0
M  V30 278 C 24.3077 1.33191 -4.06748 0
M  V30 279 C 23.6337 2.5937 -4.6758 0
M  V30 280 C 24.9337 0.471775 -5.20165 0
M  V30 281 H 26.6277 -0.00763532 -2.99399 0
M  V30 282 H 24.1737 -0.00511229 -1.43999 0
M  V30 283 H 26.1267 2.38097 -3.47689 0
M  V30 284 H 24.8507 2.38223 -2.23422 0
M  V30 285 H 23.5097 0.737121 -3.59113 0
M  V30 286 H 23.1577 3.19576 -3.88433 0
M  V30 287 H 22.8577 2.31228 -5.40192 0
M  V30 288 H 24.3817 3.21985 -5.18804 0
M  V30 289 H 25.7957 0.995056 -5.64599 0
M  V30 290 H 24.1927 0.284639 -5.99425 0
M  V30 291 H 25.2627 -0.506041 -4.82252 0
M  V30 292 N 26.6058 1.57591 -0.0167156 0
M  V30 293 C 27.8458 1.93145 0.668902 0
M  V30 294 C 28.2098 0.892406 1.7 0
M  V30 295 O 29.4108 1.13373 2.43721 0
M  V30 296 C 27.6818 3.33678 1.28039 0
M  V30 297 S 29.2408 3.91142 1.9888 0
M  V30 298 H 26.0588 0.67593 0.220545 0
M  V30 299 H 28.6608 1.95347 -0.0774105 0
M  V30 300 H 27.3648 4.07126 0.517339 0
M  V30 301 H 26.8958 3.3489 2.06427 0
M  V30 302 H 28.9108 3.73571 3.26587 0
M  V30 303 N 28.0839 -0.256276 1.55502 0
M  V30 304 C 29.3089 -1.00766 1.81276 0
M  V30 305 C 29.7339 -1.78524 0.59252 0
M  V30 306 O 29.0919 -1.75413 -0.45827 0
M  V30 307 C 29.1399 -1.92869 3.04687 0
M  V30 308 O 28.2439 -3.019 2.80945 0
M  V30 309 H 27.5849 -0.287224 0.598664 0
M  V30 310 H 30.1149 -0.280109 2.02674 0
M  V30 311 H 30.1249 -2.34511 3.33869 0
M  V30 312 H 28.7999 -1.35689 3.93143 0
M  V30 313 H 27.3769 -2.64454 2.62904 0
M  V30 314 N 29.562 -1.4872 -0.521534 0
M  V30 315 C 30.978 -1.35028 -0.850855 0
M  V30 316 C 31.178 -0.367712 -1.98116 0
M  V30 317 O 30.234 0.208037 -2.51642 0
M  V30 318 C 31.547 -2.75263 -1.21041 0
M  V30 319 C 33.095 -2.83813 -1.31981 0
M  V30 320 C 33.57 -4.24769 -1.71276 0
M  V30 321 N 35.061 -4.27482 -1.78363 0
M  V30 322 C 35.796 -5.33494 -2.1017 0
M  V30 323 N 35.292 -6.49775 -2.40343 0
M  V30 324 N 37.085 -5.20894 -2.11248 0
M  V30 325 H 29.236 -2.11214 0.22413 0
M  V30 326 H 31.499 -0.947252 0.0376439 0
M  V30 327 H 31.205 -3.48765 -0.453415 0
M  V30 328 H 31.079 -3.09327 -2.15863 0
M  V30 329 H 33.466 -2.10561 -2.06756 0
M  V30 330 H 33.547 -2.53358 -0.352596 0
M  V30 331 H 33.191 -4.9854 -0.970588 0
M  V30 332 H 33.121 -4.52673 -2.69062 0
M  V30 333 H 35.612 -3.43611 -1.57288 0
M  V30 334 H 35.925 -7.26402 -2.63743 0
M  V30 335 H 34.27 -6.53035 -2.37844 0
M  V30 336 H 37.461 -4.29065 -1.87139 0
M  V30 337 H 37.634 -6.03612 -2.35704 0
M  V30 338 N 31.0401 0.771051 -1.3745 0
M  V30 339 C 32.2861 1.5319 -1.32894 0
M  V30 340 C 32.6191 1.94008 0.0862511 0
M  V30 341 O 31.8941 1.64124 1.04373 0
M  V30 342 C 32.1771 2.79648 -2.26868 0
M  V30 343 C 32.0301 2.45079 -3.77169 0
M  V30 344 C 33.3491 3.81583 -2.19277 0
M  V30 345 H 30.4681 0.555744 -0.484064 0
M  V30 346 H 33.1101 0.884492 -1.68157 0
M  V30 347 H 31.2601 3.34891 -1.96926 0
M  V30 348 H 32.9321 1.95745 -4.1771 0
M  V30 349 H 31.1751 1.77767 -3.95704 0
M  V30 350 H 31.8461 3.35478 -4.38359 0
M  V30 351 H 34.3221 3.35835 -2.45671 0
M  V30 352 H 33.1981 4.67787 -2.87171 0
M  V30 353 H 33.4591 4.25897 -1.18592 0
M  V30 354 N 32.5182 1.22032 0.997298 0
M  V30 355 C 33.7652 1.04222 1.73621 0
M  V30 356 C 34.0932 -0.423264 1.89839 0
M  V30 357 O 33.3482 -1.3302 1.43542 0
M  V30 358 C 33.6472 1.69345 3.14733 0
M  V30 359 C 33.3132 3.19226 3.18442 0
M  V30 360 C 31.9752 3.60124 3.19161 0
M  V30 361 C 34.3272 4.15181 3.15078 0
M  V30 362 C 31.6552 4.95467 3.14212 0
M  V30 363 C 34.0072 5.50495 3.1167 0
M  V30 364 C 32.6712 5.90779 3.10703 0
M  V30 365 H 31.9412 0.381374 0.635323 0
M  V30 366 H 34.5882 1.51732 1.16831 0
M  V30 367 H 32.8932 1.14147 3.74803 0
M  V30 368 H 34.5902 1.53059 3.7064 0
M  V30 369 H 31.1802 2.86659 3.18629 0
M  V30 370 H 35.3642 3.84605 3.13676 0
M  V30 371 H 30.6202 5.25916 3.11805 0
M  V30 372 H 34.7942 6.24576 3.08022 0
M  V30 373 H 32.4212 6.9562 3.06622 0
M  V30 374 N 33.9963 -1.19345 1.0293 0
M  V30 375 C 35.2433 -1.89038 0.726008 0
M  V30 376 C 35.5713 -1.79649 -0.745427 0
M  V30 377 O 34.8263 -1.18354 -1.55855 0
M  V30 378 C 35.1253 -3.39292 1.12319 0
M  V30 379 C 34.7913 -3.68885 2.59297 0
M  V30 380 C 33.4533 -3.76671 2.99453 0
M  V30 381 C 35.8053 -3.82178 3.54386 0
M  V30 382 C 33.1333 -3.9522 4.33611 0
M  V30 383 C 35.4853 -4.0224 4.88248 0
M  V30 384 C 34.1493 -4.08259 5.28092 0
M  V30 385 H 33.4193 -0.691739 0.265665 0
M  V30 386 H 36.0663 -1.41328 1.29223 0
M  V30 387 H 34.3713 -3.88903 0.475584 0
M  V30 388 H 36.0683 -3.91536 0.866037 0
M  V30 389 H 32.6583 -3.63433 2.27189 0
M  V30 390 H 36.8423 -3.75505 3.24514 0
M  V30 391 H 32.0983 -3.98119 4.64016 0
M  V30 392 H 36.2723 -4.11468 5.61843 0
M  V30 393 H 33.8993 -4.22384 6.32057 0
M  V30 394 N 35.4744 -0.807222 -1.35358 0
M  V30 395 C 36.7204 -0.397594 -1.99476 0
M  V30 396 C 37.0754 1.02405 -1.62883 0
M  V30 397 O 36.3684 1.70077 -0.882282 0
M  V30 398 C 36.5624 -0.519036 -3.53611 0
M  V30 399 C 36.3914 -1.95094 -4.05177 0
M  V30 400 C 35.1614 -2.57945 -4.34503 0
M  V30 401 C 37.3594 -2.91558 -4.23673 0
M  V30 402 N 35.3414 -3.92539 -4.72003 0
M  V30 403 C 36.7124 -4.11024 -4.64176 0
M  V30 404 C 38.7674 -2.88381 -4.05883 0
M  V30 405 C 37.4704 -5.27745 -4.88751 0
M  V30 406 C 39.4964 -4.04306 -4.31614 0
M  V30 407 C 38.8584 -5.22519 -4.72391 0
M  V30 408 H 34.9574 -0.193274 -0.75774 0
M  V30 409 H 37.5414 -1.0486 -1.6405 0
M  V30 410 H 35.7124 0.101979 -3.88266 0
M  V30 411 H 37.4444 -0.0839321 -4.04613 0
M  V30 412 H 34.1994 -2.09295 -4.24844 0
M  V30 413 H 34.6234 -4.61836 -4.95011 0
M  V30 414 H 39.2654 -1.98137 -3.73499 0
M  V30 415 H 36.9834 -6.1856 -5.20008 0
M  V30 416 H 40.5694 -4.03229 -4.19402 0
M  V30 417 H 39.4494 -6.1073 -4.91913 0
M  V30 418 N 36.9525 1.47285 -0.560781 0
M  V30 419 C 38.1985 2.03347 -0.0463654 0
M  V30 420 C 38.5535 1.42702 1.2905 0
M  V30 421 O 37.8465 0.574619 1.8278 0
M  V30 422 C 38.0405 3.57258 0.100784 0
M  V30 423 C 37.8695 4.32827 -1.22027 0
M  V30 424 C 36.6395 4.72588 -1.78854 0
M  V30 425 C 38.8375 4.67739 -2.13834 0
M  V30 426 N 36.8195 5.32816 -3.04927 0
M  V30 427 C 38.1905 5.28307 -3.24487 0
M  V30 428 C 40.2455 4.49667 -2.13784 0
M  V30 429 C 38.9485 5.72711 -4.35194 0
M  V30 430 C 40.9745 4.95073 -3.23506 0
M  V30 431 C 40.3365 5.55693 -4.32879 0
M  V30 432 H 36.4355 0.779755 -0.0592166 0
M  V30 433 H 39.0195 1.79723 -0.748857 0
M  V30 434 H 37.1905 3.80642 0.772404 0
M  V30 435 H 38.9225 3.9996 0.617589 0
M  V30 436 H 35.6775 4.54656 -1.32609 0
M  V30 437 H 36.1015 5.67471 -3.69197 0
M  V30 438 H 40.7435 4.02154 -1.30507 0
M  V30 439 H 38.4615 6.19214 -5.1923 0
M  V30 440 H 42.0475 4.82859 -3.24559 0
M  V30 441 H 40.9275 5.90188 -5.1638 0
M  V30 442 N 38.4306 0.297415 1.54768 0
M  V30 443 C 39.3606 -0.573494 2.26348 0
M  V30 444 C 40.3416 -1.14085 1.26169 0
M  V30 445 O 41.5266 -1.17086 1.54934 0
M  V30 446 C 38.6566 -1.74716 3.00153 0
M  V30 447 C 37.6106 -1.31032 4.07449 0
M  V30 448 C 36.9366 -2.56887 4.68949 0
M  V30 449 C 38.2366 -0.444183 5.20408 0
M  V30 450 H 39.9306 0.0235131 2.99391 0
M  V30 451 H 37.4766 0.0127488 1.43994 0
M  V30 452 H 39.4296 -2.3625 3.48947 0
M  V30 453 H 38.1536 -2.37035 2.24682 0
M  V30 454 H 36.8126 -0.718066 3.59499 0
M  V30 455 H 36.4606 -3.17512 3.90122 0
M  V30 456 H 36.1606 -2.2836 5.41411 0
M  V30 457 H 37.6846 -3.19229 5.20505 0
M  V30 458 H 39.0986 -0.9651 5.65118 0
M  V30 459 H 37.4956 -0.252846 5.99567 0
M  V30 460 H 38.5656 0.531609 4.81977 0
M  V30 461 N 39.9087 -1.5758 0.0250728 0
M  V30 462 C 40.8567 -2.11125 -0.97617 0
M  V30 463 C 41.8507 -1.03689 -1.33959 0
M  V30 464 O 43.0567 -1.22128 -1.3223 0
M  V30 465 H 39.4317 -0.674468 -0.332561 0
M  V30 466 H 41.4027 -2.94194 -0.499223 0
M  V30 467 C 40.1517 -2.65017 -2.2508 0
M  V30 468 H 39.4747 -3.47333 -1.9799 0
M  V30 469 H 40.9147 -3.06133 -2.93357 0
M  V30 470 C 39.3737 -1.57574 -2.97779 0
M  V30 471 O 39.9037 -0.973203 -3.89733 0
M  V30 472 N 38.1097 -1.29716 -2.60043 0
M  V30 473 H 37.6567 -1.789 -1.85345 0
M  V30 474 H 37.6147 -0.58051 -3.08994 0
M  V30 475 N 41.3868 0.248026 -1.55636 0
M  V30 476 C 42.7978 0.817177 -1.67866 0
M  V30 477 C 43.1488 1.86069 -0.622322 0
M  V30 478 O 42.2738 2.15157 0.231618 0
M  V30 479 C 42.8688 1.489 -3.04326 0
M  V30 480 C 41.4278 2.00587 -3.185 0
M  V30 481 C 40.5748 0.856573 -2.63739 0
M  V30 482 H 43.5258 0.0238579 -1.58682 0
M  V30 483 H 43.5468 2.35698 -2.98708 0
M  V30 484 H 43.0588 0.729279 -3.81186 0
M  V30 485 H 41.1598 2.79443 -2.4646 0
M  V30 486 H 41.2728 2.20402 -4.25393 0
M  V30 487 H 39.6368 1.25678 -2.21534 0
M  V30 488 H 40.4198 0.109953 -3.43124 0
M  V30 489 N 42.8649 1.48995 0.513639 0
M  V30 490 C 43.7949 1.67636 1.62544 0
M  V30 491 C 44.7759 0.525087 1.61793 0
M  V30 492 O 45.9609 0.759502 1.78732 0
M  V30 493 C 43.0909 1.73114 3.01079 0
M  V30 494 C 42.0449 2.87905 3.16693 0
M  V30 495 C 41.3709 2.78486 4.56453 0
M  V30 496 C 42.6709 4.29005 2.97913 0
M  V30 497 H 44.3649 2.60716 1.47198 0
M  V30 498 H 41.9109 1.25465 0.706714 0
M  V30 499 H 43.8639 1.84742 3.78746 0
M  V30 500 H 42.5879 0.766241 3.17484 0
M  V30 501 H 41.2469 2.75859 2.41448 0
M  V30 502 H 40.8949 1.7993 4.69717 0
M  V30 503 H 40.5949 3.55523 4.67843 0
M  V30 504 H 42.1189 2.92104 5.36197 0
M  V30 505 H 43.5329 4.41798 3.65359 0
M  V30 506 H 41.9299 5.07166 3.20785 0
M  V30 507 H 42.9999 4.44329 1.94165 0
M  V30 508 N 44.343 -0.763751 1.37857 0
M  V30 509 C 45.59 -1.52257 1.33506 0
M  V30 510 C 45.918 -1.94343 -0.078022 0
M  V30 511 O 45.173 -1.64958 -1.05297 0
M  V30 512 C 45.472 -2.79499 2.22745 0
M  V30 513 C 45.138 -2.56426 3.70886 0
M  V30 514 C 43.8 -2.49842 4.11257 0
M  V30 515 C 46.152 -2.36008 4.64704 0
M  V30 516 C 43.48 -2.20841 5.43549 0
M  V30 517 C 45.832 -2.0853 5.97242 0
M  V30 518 C 44.496 -2.00396 6.36709 0
M  V30 519 H 43.766 -0.557149 0.488534 0
M  V30 520 H 46.413 -0.879073 1.70131 0
M  V30 521 H 44.718 -3.48447 1.79142 0
M  V30 522 H 46.415 -3.37413 2.16688 0
M  V30 523 H 43.005 -2.62416 3.38874 0
M  V30 524 H 47.189 -2.40079 4.34368 0
M  V30 525 H 42.445 -2.13045 5.73081 0
M  V30 526 H 46.619 -1.91732 6.69486 0
M  V30 527 H 44.246 -1.77688 7.39142 0
M  V30 528 N 45.8211 -1.22559 -0.990812 0
M  V30 529 C 46.7681 -0.997519 -2.0813 0
M  V30 530 C 47.7381 0.0814702 -1.659 0
M  V30 531 O 48.9231 -0.0685424 -1.90677 0
M  V30 532 C 46.0631 -0.583615 -3.40129 0
M  V30 533 C 45.1761 -1.7336 -3.9569 0
M  V30 534 C 44.3111 -1.26748 -5.15857 0
M  V30 535 C 43.3501 -2.38888 -5.63559 0
M  V30 536 N 42.4871 -1.93308 -6.74964 0
M  V30 537 H 47.3271 -1.93099 -2.26973 0
M  V30 538 H 44.8641 -0.962114 -1.11273 0
M  V30 539 H 46.8221 -0.324801 -4.15934 0
M  V30 540 H 45.4521 0.312845 -3.2128 0
M  V30 541 H 44.5041 -2.10669 -3.16738 0
M  V30 542 H 45.8161 -2.57704 -4.27071 0
M  V30 543 H 44.9701 -0.966173 -5.98957 0
M  V30 544 H 43.7091 -0.394272 -4.86104 0
M  V30 545 H 42.7141 -2.69805 -4.79046 0
M  V30 546 H 43.9391 -3.26728 -5.95336 0
M  V30 547 H 41.8851 -1.08352 -6.4699 0
M  V30 548 H 41.8021 -2.71217 -7.05675 0
M  V30 549 H 43.0701 -1.66252 -7.61564 0
M  V30 550 N 47.2992 1.18797 -1.03562 0
M  V30 551 C 48.5482 1.87978 -0.731235 0
M  V30 552 C 48.8612 1.80911 0.743671 0
M  V30 553 O 50.0672 2.45407 1.16137 0
M  V30 554 C 48.5232 3.3721 -1.25768 0
M  V30 555 C 48.1312 3.52818 -2.76085 0
M  V30 556 C 49.8752 4.11825 -1.0296 0
M  V30 557 C 47.7822 4.9598 -3.22114 0
M  V30 558 H 46.7122 0.704063 -0.269835 0
M  V30 559 H 49.3632 1.34266 -1.25079 0
M  V30 560 H 47.7452 3.90359 -0.666011 0
M  V30 561 H 48.9192 3.09965 -3.40966 0
M  V30 562 H 47.2342 2.91602 -2.97249 0
M  V30 563 H 49.8312 5.17411 -1.34869 0
M  V30 564 H 50.1742 4.16287 0.0333546 0
M  V30 565 H 50.7072 3.64833 -1.58562 0
M  V30 566 H 47.4462 4.96684 -4.27768 0
M  V30 567 H 46.9662 5.39569 -2.61965 0
M  V30 568 H 48.6452 5.6467 -3.15844 0
M  V30 569 N 48.7773 0.814389 1.34928 0
M  V30 570 C 50.0253 0.397636 1.9815 0
M  V30 571 C 50.3463 -1.04069 1.64908 0
M  V30 572 O 49.6163 -1.72121 0.93548 0
M  V30 573 H 48.1963 0.144043 0.732981 0
M  V30 574 H 50.8583 1.04195 1.6471 0
M  V30 575 H 49.9543 0.509688 3.0791 0
M  V30 576 N 50.2554 -1.46986 0.568584 0
M  V30 577 C 51.2054 -2.27179 -0.193339 0
M  V30 578 C 52.1894 -1.35035 -0.874895 0
M  V30 579 O 53.3814 -1.5931 -0.771322 0
M  V30 580 C 50.5104 -3.21063 -1.21546 0
M  V30 581 C 49.5964 -4.2069 -0.536738 0
M  V30 582 N 49.9874 -5.04218 0.399673 0
M  V30 583 C 48.2854 -4.38961 -0.789254 0
M  V30 584 C 48.9864 -5.76242 0.795017 0
M  V30 585 N 47.9624 -5.434 0.1473 0
M  V30 586 H 51.7644 -2.89146 0.526458 0
M  V30 587 H 49.2784 -1.57664 0.389342 0
M  V30 588 H 51.2754 -3.77209 -1.77536 0
M  V30 589 H 49.9354 -2.60654 -1.93623 0
M  V30 590 H 50.9464 -5.12077 0.774454 0
M  V30 591 H 47.6234 -3.89713 -1.49767 0
M  V30 592 H 49.0134 -6.53417 1.56513 0
M  V30 593 N 51.7335 -0.305618 -1.54608 0
M  V30 594 C 52.6805 0.568421 -2.23691 0
M  V30 595 C 53.6505 1.12592 -1.22116 0
M  V30 596 O 54.8355 1.16959 -1.50749 0
M  V30 597 C 51.9755 1.7322 -2.98477 0
M  V30 598 C 51.0885 1.20566 -4.14835 0
M  V30 599 C 50.2235 2.33368 -4.77193 0
M  V30 600 C 49.2625 1.7787 -5.85686 0
M  V30 601 N 48.3995 2.84263 -6.4198 0
M  V30 602 H 53.2395 -0.0272867 -2.97988 0
M  V30 603 H 50.7765 -0.0252363 -1.47078 0
M  V30 604 H 52.7345 2.41675 -3.40072 0
M  V30 605 H 51.3645 2.29947 -2.26548 0
M  V30 606 H 50.4165 0.413223 -3.78149 0
M  V30 607 H 51.7285 0.759417 -4.92985 0
M  V30 608 H 50.8825 3.09761 -5.21664 0
M  V30 609 H 49.6215 2.8132 -3.98385 0
M  V30 610 H 48.6265 0.99968 -5.40635 0
M  V30 611 H 49.8515 1.30816 -6.66381 0
M  V30 612 H 47.7975 3.31541 -5.66053 0
M  V30 613 H 47.7145 2.44149 -7.15491 0
M  V30 614 H 48.9825 3.6054 -6.91109 0
M  V30 615 N 53.2116 1.57565 -0.0334293 0
M  V30 616 C 54.6276 1.56297 0.322997 0
M  V30 617 C 54.8276 1.03945 1.7262 0
M  V30 618 O 53.8836 0.688109 2.42943 0
M  V30 619 C 55.1966 3.00232 0.167664 0
M  V30 620 C 56.7446 3.12078 0.240107 0
M  V30 621 C 57.2196 4.57859 0.113513 0
M  V30 622 N 58.7106 4.62887 0.170359 0
M  V30 623 C 59.4456 5.73319 0.0962517 0
M  V30 624 N 58.9416 6.92794 -0.0291881 0
M  V30 625 N 60.7346 5.61898 0.150551 0
M  V30 626 H 52.8856 1.89923 -0.950956 0
M  V30 627 H 55.1486 0.873824 -0.367608 0
M  V30 628 H 54.8546 3.42501 -0.799102 0
M  V30 629 H 54.7286 3.654 0.936083 0
M  V30 630 H 57.1156 2.69718 1.19733 0
M  V30 631 H 57.1966 2.49623 -0.558763 0
M  V30 632 H 56.8406 5.009 -0.840314 0
M  V30 633 H 56.7706 5.18299 0.931302 0
M  V30 634 H 59.2616 3.76954 0.26728 0
M  V30 635 H 59.5746 7.7276 -0.0789252 0
M  V30 636 H 57.9196 6.94971 -0.0640299 0
M  V30 637 H 61.1106 4.67448 0.246981 0
M  V30 638 H 61.2836 6.47938 0.0893365 0
M  V30 639 N 54.6897 -0.239769 1.55765 0
M  V30 640 C 56.1057 -0.588624 1.48349 0
M  V30 641 C 56.3057 -1.88005 0.72502 0
M  V30 642 O 55.3617 -2.51186 0.257269 0
M  V30 643 C 56.6747 -0.68474 2.928 0
M  V30 644 C 58.2227 -0.77659 3.03213 0
M  V30 645 C 58.6977 -0.904207 4.48986 0
M  V30 646 N 60.1887 -0.968896 4.52953 0
M  V30 647 C 60.9237 -1.08703 5.63002 0
M  V30 648 N 60.4197 -1.17026 6.82845 0
M  V30 649 N 62.2127 -1.12074 5.50814 0
M  V30 650 H 54.3637 0.607911 2.03515 0
M  V30 651 H 56.6267 0.21083 0.924259 0
M  V30 652 H 56.3327 0.194284 3.51163 0
M  V30 653 H 56.2067 -1.55435 3.43686 0
M  V30 654 H 58.5937 -1.64606 2.44926 0
M  V30 655 H 58.6747 0.118315 2.55526 0
M  V30 656 H 58.3187 -0.0392633 5.07885 0
M  V30 657 H 58.2487 -1.81426 4.9436 0
M  V30 658 H 60.7397 -0.915633 3.6664 0
M  V30 659 H 61.0527 -1.25966 7.62465 0
M  V30 660 H 59.3977 -1.13971 6.85591 0
M  V30 661 H 62.5887 -1.05226 4.5612 0
M  V30 662 H 62.7617 -1.20936 6.36615 0
M  V30 663 N 56.1678 -1.49265 -0.50573 0
M  V30 664 C 57.0978 -1.68495 -1.61653 0
M  V30 665 C 58.0788 -0.53366 -1.61512 0
M  V30 666 O 59.2638 -0.76897 -1.78327 0
M  V30 667 C 56.3938 -1.74709 -3.00157 0
M  V30 668 C 55.3478 -2.89581 -3.15162 0
M  V30 669 C 54.6738 -2.80903 -4.5497 0
M  V30 670 C 55.9738 -4.30578 -2.95634 0
M  V30 671 H 57.6678 -2.61493 -1.45814 0
M  V30 672 H 55.2138 -1.25838 -0.70005 0
M  V30 673 H 57.1668 -1.86748 -3.77761 0
M  V30 674 H 55.8908 -0.783067 -3.17074 0
M  V30 675 H 54.5498 -2.77136 -2.39982 0
M  V30 676 H 54.1978 -1.82419 -4.68756 0
M  V30 677 H 53.8978 -3.57999 -4.65951 0
M  V30 678 H 55.4218 -2.94944 -5.34641 0
M  V30 679 H 56.8358 -4.4373 -3.63011 0
M  V30 680 H 55.2328 -5.0886 -3.18091 0
M  V30 681 H 56.3028 -4.45352 -1.91806 0
M  V30 682 N 57.6459 0.756429 -1.3826 0
M  V30 683 C 58.5559 1.9009 -1.37488 0
M  V30 684 C 59.5719 1.71855 -0.272366 0
M  V30 685 O 60.7479 1.94827 -0.510318 0
M  V30 686 C 57.8129 3.25421 -1.19592 0
M  V30 687 C 56.8739 3.56202 -2.39622 0
M  V30 688 C 56.1069 4.85075 -2.2257 0
M  V30 689 O 56.3299 5.57246 -1.21793 0
M  V30 690 O 55.2639 5.15269 -3.11098 0
M  V30 691 H 59.0899 1.93695 -2.33914 0
M  V30 692 H 56.6749 0.901313 -1.1915 0
M  V30 693 H 58.5569 4.06337 -1.11661 0
M  V30 694 H 57.2319 3.22634 -0.262486 0
M  V30 695 H 56.1389 2.75458 -2.53128 0
M  V30 696 H 57.4719 3.63747 -3.31586 0
M  V30 697 N 59.124 1.23083 0.984299 0
M  V30 698 C 60.034 1.02515 2.11016 0
M  V30 699 C 61.05 -0.0291702 1.73976 0
M  V30 700 O 62.226 0.165434 2.00719 0
M  V30 701 C 59.291 0.614673 3.41208 0
M  V30 702 C 58.352 1.74359 3.92297 0
M  V30 703 C 57.585 1.35261 5.16275 0
M  V30 704 O 57.808 0.235136 5.69915 0
M  V30 705 O 56.742 2.17227 5.61334 0
M  V30 706 H 60.568 1.96862 2.31255 0
M  V30 707 H 58.153 1.01753 1.09392 0
M  V30 708 H 60.035 0.396518 4.1953 0
M  V30 709 H 58.71 -0.299851 3.22308 0
M  V30 710 H 57.617 2.01635 3.1511 0
M  V30 711 H 58.95 2.63629 4.15645 0
M  V30 712 N 60.6021 -1.18246 1.0419 0
M  V30 713 C 61.8791 -1.84121 0.660208 0
M  V30 714 C 62.2591 -1.92778 -0.860221 0
M  V30 715 O 61.6071 -1.45464 -1.76217 0
M  V30 716 C 61.8171 -3.22355 1.33747 0
M  V30 717 C 63.1651 -3.98376 1.46906 0
M  V30 718 O 64.1891 -3.31799 1.29568 0
M  V30 719 O 63.0481 -5.17665 1.75171 0
M  V30 720 H 60.1421 -0.794036 0.231161 0
M  V30 721 H 62.6881 -1.25628 1.14087 0
M  V30 722 H 61.4601 -3.10964 2.37522 0
M  V30 723 H 61.0831 -3.88506 0.845515 0
M  V30 724 N 62.0802 -0.821533 -1.34494 0
M  V30 725 C 63.3572 -0.33159 -1.92769 0
M  V30 726 C 63.7372 1.18088 -1.74981 0
M  V30 727 O 63.0852 1.98733 -1.12772 0
M  V30 728 C 63.2952 -0.759398 -3.40638 0
M  V30 729 C 64.6432 -0.757433 -4.1779 0
M  V30 730 O 65.6672 -0.70189 -3.49216 0
M  V30 731 O 64.5262 -0.829361 -5.4017 0
M  V30 732 H 61.6202 -0.0902502 -0.822061 0
M  V30 733 H 64.1662 -0.906231 -1.43477 0
M  V30 734 H 62.9382 -1.8012 -3.47379 0
M  V30 735 H 62.5612 -0.160378 -3.97276 0
M  V30 736 N 63.5583 1.46682 -0.576371 0
M  V30 737 C 64.4913 2.27243 0.208731 0
M  V30 738 C 65.4693 1.35238 0.902746 0
M  V30 739 O 66.6533 1.64641 0.917904 0
M  V30 740 C 63.7803 3.12802 1.29896 0
M  V30 741 C 62.8263 4.20524 0.711457 0
M  V30 742 S 63.6593 5.33548 -0.456781 0
M  V30 743 C 64.8153 6.22673 0.634798 0
M  V30 744 H 65.0483 2.93484 -0.474838 0
M  V30 745 H 62.5813 1.50069 -0.363118 0
M  V30 746 H 64.5393 3.62661 1.92321 0
M  V30 747 H 63.2003 2.45887 1.95444 0
M  V30 748 H 62.3933 4.80191 1.53076 0
M  V30 749 H 61.9953 3.73645 0.162999 0
M  V30 750 H 64.2873 6.60181 1.52209 0
M  V30 751 H 65.2303 7.0806 0.0750311 0
M  V30 752 H 65.6383 5.56684 0.936092 0
M  V30 753 N 65.0364 0.313813 1.54444 0
M  V30 754 C 66.2664 -0.293491 2.04505 0
M  V30 755 C 66.6744 -1.47086 1.19005 0
M  V30 756 O 66.0174 -1.82481 0.211257 0
M  V30 757 C 66.0794 -0.800455 3.50475 0
M  V30 758 C 65.7434 0.253322 4.56297 0
M  V30 759 C 66.7404 1.08612 5.08428 0
M  V30 760 C 64.4254 0.398708 5.00715 0
M  V30 761 C 66.4194 2.05013 6.0353 0
M  V30 762 C 64.1064 1.36614 5.95634 0
M  V30 763 C 65.1044 2.19033 6.46926 0
M  V30 764 O 64.7924 3.14134 7.39983 0
M  V30 765 H 64.5244 -0.0658325 0.672787 0
M  V30 766 H 67.0784 0.455177 2.00293 0
M  V30 767 H 65.3084 -1.59987 3.52053 0
M  V30 768 H 66.9974 -1.32504 3.83663 0
M  V30 769 H 67.7634 0.984736 4.74898 0
M  V30 770 H 63.6424 -0.23289 4.60411 0
M  V30 771 H 67.1864 2.69382 6.4349 0
M  V30 772 H 63.0834 1.4682 6.28581 0
M  V30 773 H 63.8514 3.0926 7.57826 0
M  V30 774 N 66.5145 -1.57545 0.0417849 0
M  V30 775 C 67.7395 -1.97035 -0.647455 0
M  V30 776 C 68.1645 -0.918775 -1.64135 0
M  V30 777 O 67.5225 0.119006 -1.80909 0
M  V30 778 C 67.5705 -3.35609 -1.31905 0
M  V30 779 O 66.6745 -3.3287 -2.43457 0
M  V30 780 H 66.0155 -0.64211 -0.169086 0
M  V30 781 H 68.5455 -2.04318 0.107399 0
M  V30 782 H 68.5555 -3.72126 -1.67291 0
M  V30 783 H 67.2305 -4.11685 -0.590586 0
M  V30 784 H 65.8075 -3.08087 -2.10088 0
M  V30 785 N 67.9926 0.231505 -1.5589 0
M  V30 786 C 69.2386 0.95877 -1.78705 0
M  V30 787 C 69.5716 1.8438 -0.609725 0
M  V30 788 O 68.8466 1.90521 0.391426 0
M  V30 789 C 69.1296 1.8062 -3.11526 0
M  V30 790 C 68.9826 0.948328 -4.39689 0
M  V30 791 C 70.3016 2.78585 -3.40703 0
M  V30 792 H 67.4206 0.347129 -0.650131 0
M  V30 793 H 70.0626 0.228259 -1.88624 0
M  V30 794 H 68.2126 2.42902 -3.03201 0
M  V30 795 H 69.8846 0.343016 -4.60023 0
M  V30 796 H 68.1276 0.253314 -4.3306 0
M  V30 797 H 68.7986 1.57543 -5.29041 0
M  V30 798 H 71.2746 2.26439 -3.49091 0
M  V30 799 H 70.1506 3.34988 -4.34826 0
M  V30 800 H 70.4116 3.55825 -2.62375 0
M  V30 801 N 69.4707 1.49531 0.497807 0
M  V30 802 C 70.4007 1.6935 1.60757 0
M  V30 803 C 71.3817 0.542218 1.61227 0
M  V30 804 O 72.5667 0.778417 1.77917 0
M  V30 805 C 69.6967 1.76298 2.99226 0
M  V30 806 C 68.6507 2.91248 3.13622 0
M  V30 807 C 67.9767 2.83312 4.53474 0
M  V30 808 C 69.2767 4.3214 2.93346 0
M  V30 809 H 70.9707 2.62263 1.44425 0
M  V30 810 H 68.5167 1.26208 0.693367 0
M  V30 811 H 70.4697 1.88749 3.76765 0
M  V30 812 H 69.1937 0.799871 3.16654 0
M  V30 813 H 67.8527 2.78404 2.38509 0
M  V30 814 H 67.5007 1.84902 4.67782 0
M  V30 815 H 67.2007 3.60465 4.64046 0
M  V30 816 H 68.7247 2.97775 5.33069 0
M  V30 817 H 70.1387 4.45649 3.60652 0
M  V30 818 H 68.5357 5.1054 3.15387 0
M  V30 819 H 69.6057 4.46363 1.89441 0
M  V30 820 N 70.9488 -0.749086 1.3866 0
M  V30 821 C 72.3598 -1.32664 1.31366 0
M  V30 822 C 72.7108 -1.96179 -0.028484 0
M  V30 823 O 71.8358 -1.9537 -0.93057 0
M  V30 824 C 72.4308 -2.41219 2.37905 0
M  V30 825 C 70.9898 -2.94684 2.34176 0
M  V30 826 C 70.1368 -1.68108 2.20533 0
M  V30 827 H 73.0878 -0.547628 1.48952 0
M  V30 828 H 73.1088 -3.21268 2.0388 0
M  V30 829 H 72.6208 -1.94962 3.35576 0
M  V30 830 H 70.7218 -3.45258 1.401 0
M  V30 831 H 70.8348 -3.48757 3.2849 0
M  V30 832 H 69.1988 -1.91907 1.67463 0
M  V30 833 H 69.9818 -1.23923 3.20153 0
M  V30 834 N 72.4269 -1.23603 -0.977757 0
M  V30 835 C 73.3369 -1.03632 -2.1047 0
M  V30 836 C 74.3529 0.0199435 -1.73989 0
M  V30 837 O 75.5289 -0.176076 -2.00629 0
M  V30 838 C 72.5939 -0.63276 -3.40877 0
M  V30 839 C 71.6549 -1.76437 -3.91367 0
M  V30 840 C 70.8879 -1.37997 -5.15551 0
M  V30 841 O 71.1109 -0.265357 -5.69782 0
M  V30 842 O 70.0449 -2.20201 -5.60174 0
M  V30 843 H 73.8709 -1.98086 -2.30208 0
M  V30 844 H 71.4559 -1.02332 -1.08851 0
M  V30 845 H 73.3379 -0.418761 -4.19314 0
M  V30 846 H 72.0129 0.282754 -3.22463 0
M  V30 847 H 70.9199 -2.03304 -3.14036 0
M  V30 848 H 72.2529 -2.6583 -4.14241 0
M  V30 849 N 73.905 1.17692 -1.04816 0
M  V30 850 C 75.182 1.83768 -0.669963 0
M  V30 851 C 75.562 1.93232 0.849986 0
M  V30 852 O 74.91 1.46397 1.75443 0
M  V30 853 C 75.12 3.21641 -1.35455 0
M  V30 854 C 76.468 3.97592 -1.49017 0
M  V30 855 O 77.492 3.31107 -1.31326 0
M  V30 856 O 76.351 5.16729 -1.77914 0
M  V30 857 H 73.445 0.792799 -0.235368 0
M  V30 858 H 75.991 1.25021 -1.14751 0
M  V30 859 H 74.763 3.097 -2.39168 0
M  V30 860 H 74.386 3.88052 -0.866107 0
M  V30 861 N 75.3831 0.828654 1.34056 0
M  V30 862 C 76.7991 0.515135 1.51058 0
M  V30 863 C 76.9991 -0.959581 1.77184 0
M  V30 864 O 76.0551 -1.74382 1.82612 0
M  V30 865 C 77.3681 1.37963 2.67183 0
M  V30 866 C 78.9161 1.37735 2.81066 0
M  V30 867 C 79.3911 2.22645 4.00241 0
M  V30 868 N 80.8821 2.203 4.07458 0
M  V30 869 C 81.6171 2.82744 4.98842 0
M  V30 870 N 81.1131 3.54201 5.9541 0
M  V30 871 N 82.9061 2.72268 4.91759 0
M  V30 872 H 75.0571 1.78343 1.15358 0
M  V30 873 H 77.3201 0.760304 0.566252 0
M  V30 874 H 77.0261 2.42714 2.54525 0
M  V30 875 H 76.9001 1.0484 3.62338 0
M  V30 876 H 79.2871 0.337593 2.93163 0
M  V30 877 H 79.3681 1.74859 1.86703 0
M  V30 878 H 79.0121 3.26674 3.88905 0
M  V30 879 H 78.9421 1.82869 4.93829 0
M  V30 880 H 81.4331 1.68327 3.38341 0
M  V30 881 H 81.7461 3.9908 6.61782 0
M  V30 882 H 80.0911 3.58308 5.95517 0
M  V30 883 H 83.2821 2.16014 4.15278 0
M  V30 884 H 83.4551 3.21219 5.62781 0
M  V30 885 N 76.8612 -1.46375 0.584142 0
M  V30 886 C 78.0862 -2.07268 0.0740405 0
M  V30 887 C 78.5112 -1.42979 -1.22223 0
M  V30 888 O 77.8692 -0.514092 -1.73859 0
M  V30 889 C 77.9172 -3.60518 -0.0767769 0
M  V30 890 O 77.0212 -3.96533 -1.13292 0
M  V30 891 H 76.3622 -0.660961 0.0634524 0
M  V30 892 H 78.8922 -1.87991 0.807492 0
M  V30 893 H 78.9022 -4.07021 -0.282489 0
M  V30 894 H 77.5772 -4.06702 0.86986 0
M  V30 895 H 76.1542 -3.61738 -0.905553 0
M  V30 896 N 78.3393 -0.321999 -1.54275 0
M  V30 897 C 79.2713 0.578671 -2.21775 0
M  V30 898 C 80.2843 1.08109 -1.21722 0
M  V30 899 O 81.4733 0.994938 -1.482 0
M  V30 900 C 78.5733 1.80661 -2.86731 0
M  V30 901 C 77.7463 1.44314 -4.12907 0
M  V30 902 C 76.8053 2.52845 -4.61472 0
M  V30 903 O 75.8313 2.17054 -5.2619 0
M  V30 904 N 77.0333 3.83748 -4.35566 0
M  V30 905 H 79.7983 0.000709447 -2.997 0
M  V30 906 H 77.3593 -0.145132 -1.61248 0
M  V30 907 H 79.3513 2.52655 -3.16145 0
M  V30 908 H 77.9213 2.29245 -2.12521 0
M  V30 909 H 77.1413 0.554906 -3.90275 0
M  V30 910 H 78.4293 1.17598 -4.95023 0
M  V30 911 H 77.8273 4.15625 -3.83761 0
M  V30 912 H 76.3843 4.51977 -4.69638 0
M  V30 913 N 79.8174 1.5752 -0.0501392 0
M  V30 914 C 80.7674 2.07981 0.934231 0
M  V30 915 C 81.7514 0.984745 1.27246 0
M  V30 916 O 82.9434 1.24809 1.25506 0
M  V30 917 C 80.0724 2.62751 2.20945 0
M  V30 918 C 79.1584 3.79225 1.89865 0
M  V30 919 N 79.5494 4.89036 1.29142 0
M  V30 920 C 77.8474 3.88111 2.19741 0
M  V30 921 C 78.5484 5.70084 1.15669 0
M  V30 922 N 77.5244 5.17659 1.65923 0
M  V30 923 H 81.3264 2.90277 0.460053 0
M  V30 924 H 78.8404 1.61665 0.15434 0
M  V30 925 H 80.8374 2.97205 2.9236 0
M  V30 926 H 79.4974 1.81894 2.6897 0
M  V30 927 H 80.5084 5.08854 0.963756 0
M  V30 928 H 77.1854 3.18194 2.70293 0
M  V30 929 H 78.5754 6.68395 0.685356 0
M  V30 930 N 81.2955 -0.223234 1.56011 0
M  V30 931 C 82.2255 -1.27988 1.95298 0
M  V30 932 C 83.2065 -1.48976 0.820979 0
M  V30 933 O 84.3915 -1.61188 1.08315 0
M  V30 934 C 81.5215 -2.63 2.26822 0
M  V30 935 C 80.4755 -2.56671 3.42497 0
M  V30 936 C 79.8015 -3.95697 3.59622 0
M  V30 937 C 81.1015 -2.11601 4.77517 0
M  V30 938 H 82.7955 -0.953525 2.8381 0
M  V30 939 H 80.3415 -0.457244 1.36548 0
M  V30 940 H 82.2945 -3.37077 2.52898 0
M  V30 941 H 81.0185 -2.9732 1.35161 0
M  V30 942 H 79.6775 -1.85051 3.16467 0
M  V30 943 H 79.3255 -4.27322 2.6534 0
M  V30 944 H 79.0255 -3.92345 4.37424 0
M  V30 945 H 80.5495 -4.71438 3.88044 0
M  V30 946 H 81.9635 -2.7542 5.02809 0
M  V30 947 H 80.3605 -2.19311 5.5859 0
M  V30 948 H 81.4305 -1.06824 4.72987 0
M  V30 949 N 82.7736 -1.49793 -0.48987 0
M  V30 950 C 84.0216 -1.59525 -1.24081 0
M  V30 951 C 84.3426 -0.288953 -1.92847 0
M  V30 952 O 83.6126 0.692436 -1.83254 0
M  V30 953 H 82.1926 -0.587796 -0.460983 0
M  V30 954 H 84.8546 -1.86477 -0.566778 0
M  V30 955 H 83.9506 -2.39696 -1.99881 0
M  V30 956 N 84.2517 0.741722 -1.39055 0
M  V30 957 C 85.1617 1.88621 -1.39496 0
M  V30 958 C 86.1777 1.71557 -0.290578 0
M  V30 959 O 87.3537 1.94275 -0.530954 0
M  V30 960 C 84.4187 3.24134 -1.23037 0
M  V30 961 C 83.4797 3.5364 -2.43387 0
M  V30 962 C 82.7127 4.82687 -2.27703 0
M  V30 963 O 82.9357 5.55922 -1.27696 0
M  V30 964 O 81.8697 5.1194 -3.16545 0
M  V30 965 H 85.6957 1.91203 -2.35956 0
M  V30 966 H 83.2807 0.888625 -1.20099 0
M  V30 967 H 85.1627 4.0513 -1.15964 0
M  V30 968 H 83.8377 3.22337 -0.296691 0
M  V30 969 H 82.7447 2.72758 -2.56035 0
M  V30 970 H 84.0777 3.60209 -3.35425 0
M  V30 971 N 85.7298 1.2412 0.971189 0
M  V30 972 C 86.6398 1.04747 2.09917 0
M  V30 973 C 87.6558 -0.0107162 1.73997 0
M  V30 974 O 88.8318 0.186714 2.00533 0
M  V30 975 C 85.8968 0.650828 3.40537 0
M  V30 976 C 84.9578 1.7851 3.90426 0
M  V30 977 C 84.1908 1.40729 5.14812 0
M  V30 978 O 84.4138 0.29557 5.69634 0
M  V30 979 O 83.3478 2.23168 5.58999 0
M  V30 980 H 87.1738 1.99304 2.29154 0
M  V30 981 H 84.7588 1.02908 1.08307 0
M  V30 982 H 86.6408 0.440992 4.19086 0
M  V30 983 H 85.3158 -0.265649 3.22608 0
M  V30 984 H 84.2228 2.04966 3.12953 0
M  V30 985 H 85.5558 2.68023 4.12825 0
M  V30 986 N 87.2079 -1.17134 1.05439 0
M  V30 987 C 88.1379 -2.2342 0.678649 0
M  V30 988 C 89.1189 -1.66971 -0.32476 0
M  V30 989 O 90.3039 -1.93149 -0.201802 0
M  V30 990 C 87.4339 -3.47256 0.0552099 0
M  V30 991 C 86.3879 -4.16543 0.98365 0
M  V30 992 C 85.7139 -5.34231 0.223961 0
M  V30 993 C 87.0139 -4.68495 2.3089 0
M  V30 994 H 88.7079 -2.55105 1.56722 0
M  V30 995 H 86.2539 -1.2262 0.754998 0
M  V30 996 H 88.2069 -4.20828 -0.21946 0
M  V30 997 H 86.9309 -3.14846 -0.868319 0
M  V30 998 H 85.5899 -3.44887 1.24293 0
M  V30 999 H 85.2379 -4.98071 -0.702412 0
M  V30 1000 H 84.9379 -5.81527 0.842627 0
M  V30 1001 H 86.4619 -6.10585 -0.0433671 0
M  V30 1002 H 87.8759 -5.33691 2.09396 0
M  V30 1003 H 86.2729 -5.26379 2.88176 0
M  V30 1004 H 87.3429 -3.85169 2.94572 0
M  V30 1005 N 88.686 -0.835752 -1.33615 0
M  V30 1006 C 89.618 -0.224151 -2.28101 0
M  V30 1007 C 90.631 0.593331 -1.51603 0
M  V30 1008 O 91.82 0.420911 -1.73466 0
M  V30 1009 C 88.92 0.703309 -3.31522 0
M  V30 1010 C 88.093 -0.0741528 -4.37337 0
M  V30 1011 C 87.152 0.776176 -5.20444 0
M  V30 1012 O 86.178 0.216506 -5.68788 0
M  V30 1013 N 87.38 2.09401 -5.41416 0
M  V30 1014 H 90.145 -1.03598 -2.81225 0
M  V30 1015 H 87.706 -0.69392 -1.46275 0
M  V30 1016 H 89.698 1.27707 -3.84022 0
M  V30 1017 H 88.268 1.41585 -2.78698 0
M  V30 1018 H 87.488 -0.82928 -3.85378 0
M  V30 1019 H 88.776 -0.608863 -5.05144 0
M  V30 1020 H 88.174 2.57229 -5.03835 0
M  V30 1021 H 86.731 2.61633 -5.96985 0
M  V30 1022 N 90.1641 1.46063 -0.591896 0
M  V30 1023 C 91.4121 2.01938 -0.0808391 0
M  V30 1024 C 91.7331 1.46475 1.28725 0
M  V30 1025 O 91.0031 0.652944 1.84698 0
M  V30 1026 H 89.5831 0.746516 -0.0268938 0
M  V30 1027 H 92.2451 1.79055 -0.769752 0
M  V30 1028 H 91.3411 3.12094 -0.0187578 0
M  V30 1029 N 91.6422 0.330177 1.54103 0
M  V30 1030 C 92.8892 -0.270405 2.00686 0
M  V30 1031 C 93.2172 -1.51621 1.21825 0
M  V30 1032 O 92.4722 -1.93536 0.29025 0
M  V30 1033 C 92.7712 -0.643134 3.51566 0
M  V30 1034 C 92.4372 0.504251 4.48072 0
M  V30 1035 C 91.0992 0.819163 4.74176 0
M  V30 1036 C 93.4512 1.27465 5.05373 0
M  V30 1037 C 90.7792 1.90708 5.5484 0
M  V30 1038 C 93.1312 2.35271 5.87223 0
M  V30 1039 C 91.7952 2.67336 6.11627 0
M  V30 1040 H 91.0652 -0.0989482 0.734364 0
M  V30 1041 H 93.7122 0.455324 1.86008 0
M  V30 1042 H 92.0172 -1.44938 3.64006 0
M  V30 1043 H 93.7142 -1.11949 3.85056 0
M  V30 1044 H 90.3042 0.248733 4.27878 0
M  V30 1045 H 94.4882 1.04462 4.85182 0
M  V30 1046 H 89.7442 2.15991 5.71977 0
M  V30 1047 H 93.9182 2.95405 6.30641 0
M  V30 1048 H 91.5452 3.51763 6.73919 0
M  V30 1049 N 93.1203 -1.57491 0.0584922 0
M  V30 1050 C 94.3663 -1.94081 -0.608617 0
M  V30 1051 C 94.7213 -0.937438 -1.68017 0
M  V30 1052 O 94.0143 0.0423034 -1.91553 0
M  V30 1053 C 94.2083 -3.3513 -1.24188 0
M  V30 1054 C 94.0373 -4.49095 -0.233187 0
M  V30 1055 C 92.8073 -5.04988 0.177439 0
M  V30 1056 C 95.0053 -5.1162 0.524306 0
M  V30 1057 N 92.9873 -6.02487 1.17823 0
M  V30 1058 C 94.3583 -6.04493 1.37796 0
M  V30 1059 C 96.4133 -4.94489 0.581822 0
M  V30 1060 C 95.1163 -6.82075 2.28399 0
M  V30 1061 C 97.1423 -5.72703 1.47531 0
M  V30 1062 C 96.5043 -6.65214 2.31667 0
M  V30 1063 H 92.6033 -0.75752 -0.194134 0
M  V30 1064 H 95.1873 -1.94248 0.132533 0
M  V30 1065 H 93.3583 -3.35726 -1.95302 0
M  V30 1066 H 95.0903 -3.5899 -1.86838 0
M  V30 1067 H 91.8453 -4.73165 -0.203004 0
M  V30 1068 H 92.2693 -6.55933 1.67573 0
M  V30 1069 H 96.9113 -4.22765 -0.054443 0
M  V30 1070 H 94.6293 -7.53085 2.93067 0
M  V30 1071 H 98.2153 -5.61472 1.52448 0
M  V30 1072 H 97.0953 -7.24679 2.99683 0
M  V30 1073 N 94.5984 0.214957 -1.56127 0
M  V30 1074 C 95.8754 0.963093 -1.70247 0
M  V30 1075 C 96.2554 2.02166 -0.60764 0
M  V30 1076 O 95.6034 2.25244 0.384385 0
M  V30 1077 C 95.8134 1.56756 -3.11815 0
M  V30 1078 C 97.1614 2.0573 -3.7143 0
M  V30 1079 O 98.1854 1.66637 -3.14818 0
M  V30 1080 O 97.0444 2.77603 -4.70743 0
M  V30 1081 H 94.1384 0.450321 -0.693643 0
M  V30 1082 H 96.6844 0.206219 -1.68442 0
M  V30 1083 H 95.4564 0.803533 -3.82961 0
M  V30 1084 H 95.0794 2.3898 -3.17765 0
M  V30 1085 N 96.0765 1.50051 0.48192 0
M  V30 1086 C 97.0235 1.68122 1.58125 0
M  V30 1087 C 97.9935 0.522545 1.57666 0
M  V30 1088 O 99.1785 0.751844 1.75362 0
M  V30 1089 C 96.3185 1.77142 2.96167 0
M  V30 1090 C 95.4315 3.0444 3.06497 0
M  V30 1091 C 94.5665 3.04321 4.35387 0
M  V30 1092 C 93.6055 4.26118 4.3942 0
M  V30 1093 N 92.7425 4.238 5.59766 0
M  V30 1094 H 97.5825 2.6198 1.42022 0
M  V30 1095 H 95.1195 1.29877 0.690687 0
M  V30 1096 H 97.0775 1.80352 3.76203 0
M  V30 1097 H 95.7075 0.867329 3.1093 0
M  V30 1098 H 94.7595 3.10752 2.19402 0
M  V30 1099 H 96.0715 3.94426 3.05336 0
M  V30 1100 H 95.2255 3.062 5.23762 0
M  V30 1101 H 93.9645 2.12147 4.39141 0
M  V30 1102 H 92.9695 4.24463 3.49444 0
M  V30 1103 H 94.1945 5.19507 4.37366 0
M  V30 1104 H 92.1405 3.34474 5.64326 0
M  V30 1105 H 92.0575 5.07542 5.60301 0
M  V30 1106 H 93.3255 4.2981 6.50295 0
M  V30 1107 N 97.5546 -0.734337 1.39446 0
M  V30 1108 C 98.4646 -1.87879 1.40495 0
M  V30 1109 C 99.4806 -1.714 0.299672 0
M  V30 1110 O 100.657 -1.93991 0.541249 0
M  V30 1111 C 97.7216 -3.23477 1.24754 0
M  V30 1112 C 96.7826 -3.52344 2.45259 0
M  V30 1113 C 96.0156 -4.81473 2.30259 0
M  V30 1114 O 96.2386 -5.55237 1.30643 0
M  V30 1115 O 95.1726 -5.10254 3.19256 0
M  V30 1116 H 98.9986 -1.89949 2.36966 0
M  V30 1117 H 96.5836 -0.882243 1.20569 0
M  V30 1118 H 98.4656 -4.04509 1.18111 0
M  V30 1119 H 97.1406 -3.22176 0.313781 0
M  V30 1120 H 96.0476 -2.71396 2.57478 0
M  V30 1121 H 97.3806 -3.58426 3.37331 0
M  V30 1122 N 99.0327 -1.24633 -0.964593 0
M  V30 1123 C 100.279 -1.08949 -1.71049 0
M  V30 1124 C 100.612 0.370302 -1.90637 0
M  V30 1125 O 99.8867 1.27349 -1.47011 0
M  V30 1126 C 100.17 -1.83329 -3.0994 0
M  V30 1127 C 100.023 -3.37077 -2.97824 0
M  V30 1128 C 101.342 -1.60846 -4.09654 0
M  V30 1129 H 98.4607 -0.397178 -0.620821 0
M  V30 1130 H 101.103 -1.5334 -1.12191 0
M  V30 1131 H 99.2527 -1.45597 -3.60186 0
M  V30 1132 H 100.925 -3.84425 -2.5498 0
M  V30 1133 H 99.1677 -3.65298 -2.33965 0
M  V30 1134 H 99.8387 -3.84324 -3.96231 0
M  V30 1135 H 102.315 -1.93674 -3.68279 0
M  V30 1136 H 101.191 -2.1534 -5.04896 0
M  V30 1137 H 101.452 -0.547434 -4.38698 0
M  V30 1138 N 100.511 1.16574 -1.06058 0
M  V30 1139 C 101.441 2.23057 -0.690488 0
M  V30 1140 C 102.422 1.67141 0.315901 0
M  V30 1141 O 103.607 1.93253 0.191556 0
M  V30 1142 C 100.737 3.47222 -0.073625 0
M  V30 1143 C 99.6908 4.16016 -1.00573 0
M  V30 1144 C 99.0168 5.34104 -0.252289 0
M  V30 1145 C 100.317 4.67264 -2.33371 0
M  V30 1146 H 102.011 2.54271 -1.58072 0
M  V30 1147 H 99.5568 1.22218 -0.76149 0
M  V30 1148 H 101.51 4.20939 0.19714 0
M  V30 1149 H 100.234 3.15302 0.85161 0
M  V30 1150 H 98.8928 3.44223 -1.2612 0
M  V30 1151 H 98.5408 4.98437 0.675988 0
M  V30 1152 H 98.2408 5.81072 -0.873455 0
M  V30 1153 H 99.7648 6.10599 0.0109857 0
M  V30 1154 H 101.179 5.32573 -2.12223 0
M  V30 1155 H 99.5758 5.24843 -2.90963 0
M  V30 1156 H 100.646 3.83602 -2.96611 0
M  V30 1157 N 101.989 0.842826 1.3317 0
M  V30 1158 C 103.405 0.531128 1.50503 0
M  V30 1159 C 103.605 -0.940734 1.78192 0
M  V30 1160 O 102.661 -1.72436 1.84451 0
M  V30 1161 C 103.974 1.40789 2.65705 0
M  V30 1162 C 105.522 1.40708 2.79589 0
M  V30 1163 C 105.997 2.26878 3.97857 0
M  V30 1164 N 107.488 2.24609 4.05099 0
M  V30 1165 C 108.223 2.88019 4.95815 0
M  V30 1166 N 107.719 3.60496 5.9162 0
M  V30 1167 N 109.512 2.77469 4.88843 0
M  V30 1168 H 101.663 1.79557 1.1346 0
M  V30 1169 H 103.926 0.766267 0.558156 0
M  V30 1170 H 103.632 2.454 2.51936 0
M  V30 1171 H 103.506 1.08677 3.61205 0
M  V30 1172 H 105.893 0.368668 2.92788 0
M  V30 1173 H 105.974 1.76829 1.84838 0
M  V30 1174 H 105.618 3.3078 3.85418 0
M  V30 1175 H 105.548 1.88096 4.91861 0
M  V30 1176 H 108.039 1.71906 3.36536 0
M  V30 1177 H 108.352 4.06076 6.57512 0
M  V30 1178 H 106.697 3.64604 5.91683 0
M  V30 1179 H 109.888 2.20406 4.12963 0
M  V30 1180 H 110.061 3.2717 5.59342 0
M  V30 1181 N 103.467 -1.45747 0.599634 0
M  V30 1182 C 104.43 -2.28917 -0.113835 0
M  V30 1183 C 105.43 -1.3933 -0.802729 0
M  V30 1184 O 106.62 -1.61534 -0.652103 0
M  V30 1185 C 103.752 -3.20152 -1.17114 0
M  V30 1186 H 104.945 -2.93478 0.617289 0
M  V30 1187 H 102.498 -1.52137 0.358327 0
M  V30 1188 H 103.233 -2.60374 -1.93329 0
M  V30 1189 H 103.018 -3.86133 -0.681468 0
M  V30 1190 H 104.508 -3.82708 -1.67105 0
M  V30 1191 N 104.945 -0.338344 -1.53925 0
M  V30 1192 C 105.855 0.529421 -2.28548 0
M  V30 1193 C 106.871 1.11645 -1.3346 0
M  V30 1194 O 108.047 1.13325 -1.66492 0
M  V30 1195 C 105.112 1.66713 -3.03987 0
M  V30 1196 C 104.173 1.11041 -4.14691 0
M  V30 1197 C 103.406 2.19389 -4.86522 0
M  V30 1198 O 103.629 3.40013 -4.57982 0
M  V30 1199 O 102.563 1.83976 -5.73094 0
M  V30 1200 H 106.389 -0.0770399 -3.03602 0
M  V30 1201 H 103.974 -0.103555 -1.49041 0
M  V30 1202 H 105.856 2.32918 -3.5118 0
M  V30 1203 H 104.531 2.25949 -2.31794 0
M  V30 1204 H 103.438 0.413024 -3.71813 0
M  V30 1205 H 104.771 0.562975 -4.8897 0
M  V30 1206 N 106.423 1.57458 -0.0668435 0
M  V30 1207 C 107.371 2.13639 0.919851 0
M  V30 1208 C 108.365 1.07204 1.31163 0
M  V30 1209 O 109.571 1.25591 1.28945 0
M  V30 1210 H 105.946 0.683048 0.314562 0
M  V30 1211 H 107.917 2.95415 0.421047 0
M  V30 1212 C 106.666 2.70892 2.17975 0
M  V30 1213 H 105.989 3.5246 1.88711 0
M  V30 1214 H 107.429 3.13803 2.85138 0
M  V30 1215 C 105.888 1.65414 2.93496 0
M  V30 1216 O 106.418 1.07619 3.87015 0
M  V30 1217 N 104.624 1.36564 2.56512 0
M  V30 1218 H 104.171 1.83751 1.80536 0
M  V30 1219 H 104.129 0.66223 3.07347 0
M  V30 1220 N 107.901 -0.206675 1.56239 0
M  V30 1221 C 109.178 -0.954051 1.70755 0
M  V30 1222 C 109.558 -2.01841 0.618353 0
M  V30 1223 O 108.906 -2.25444 -0.372434 0
M  V30 1224 C 109.116 -1.551 3.12642 0
M  V30 1225 C 110.464 -2.03757 3.72516 0
M  V30 1226 O 111.488 -1.64965 3.15698 0
M  V30 1227 O 110.347 -2.75103 4.72208 0
M  V30 1228 H 107.441 -0.446636 0.696021 0
M  V30 1229 H 109.987 -0.197283 1.68549 0
M  V30 1230 H 108.759 -0.783212 3.83382 0
M  V30 1231 H 108.382 -2.37291 3.19028 0
M  V30 1232 N 109.379 -1.50304 -0.473955 0
M  V30 1233 C 110.342 -1.6841 -1.55469 0
M  V30 1234 C 111.342 -0.554905 -1.50922 0
M  V30 1235 O 112.532 -0.821882 -1.53593 0
M  V30 1236 C 109.664 -1.70667 -2.95102 0
M  V30 1237 H 110.857 -2.64828 -1.40733 0
M  V30 1238 H 108.41 -1.39742 -0.700132 0
M  V30 1239 H 109.145 -0.75932 -3.15285 0
M  V30 1240 H 108.93 -2.52698 -2.9981 0
M  V30 1241 H 110.42 -1.8664 -3.73571 0
M  V30 1242 N 110.857 0.726932 -1.39834 0
M  V30 1243 C 111.789 1.85147 -1.35104 0
M  V30 1244 C 112.802 1.60736 -0.258392 0
M  V30 1245 O 113.991 1.70821 -0.517931 0
M  V30 1246 C 111.091 3.21332 -1.07697 0
M  V30 1247 C 110.264 3.73033 -2.28396 0
M  V30 1248 C 109.323 4.87802 -1.97322 0
M  V30 1249 O 108.349 5.01043 -2.70083 0
M  V30 1250 N 109.551 5.72768 -0.944273 0
M  V30 1251 H 112.316 1.89706 -2.32017 0
M  V30 1252 H 109.877 0.908006 -1.3404 0
M  V30 1253 H 111.869 3.95691 -0.849144 0
M  V30 1254 H 110.439 3.11992 -0.194909 0
M  V30 1255 H 109.659 2.89934 -2.6708 0
M  V30 1256 H 110.947 4.0431 -3.08887 0
M  V30 1257 H 110.345 5.64669 -0.341427 0
M  V30 1258 H 108.902 6.4716 -0.776346 0
M  V30 1259 N 112.336 1.25143 0.95797 0
M  V30 1260 C 113.283 1.05235 2.05412 0
M  V30 1261 C 114.253 -0.0374561 1.66058 0
M  V30 1262 O 115.438 0.119073 1.90428 0
M  V30 1263 C 112.578 0.673589 3.38462 0
M  V30 1264 C 111.691 1.8379 3.90954 0
M  V30 1265 C 110.826 1.40381 5.12315 0
M  V30 1266 C 109.865 2.53746 5.57027 0
M  V30 1267 N 109.002 2.11136 6.69601 0
M  V30 1268 H 113.842 1.99048 2.21774 0
M  V30 1269 H 111.379 0.991277 1.08683 0
M  V30 1270 H 113.337 0.434964 4.14926 0
M  V30 1271 H 111.967 -0.227554 3.21997 0
M  V30 1272 H 111.019 2.18992 3.11041 0
M  V30 1273 H 112.331 2.68937 4.20089 0
M  V30 1274 H 111.485 1.12464 5.96185 0
M  V30 1275 H 110.224 0.523015 4.84887 0
M  V30 1276 H 109.229 2.82412 4.71724 0
M  V30 1277 H 110.454 3.42398 5.86464 0
M  V30 1278 H 108.4 1.25468 6.4389 0
M  V30 1279 H 108.317 2.89832 6.98236 0
M  V30 1280 H 109.585 1.86385 7.56889 0
M  V30 1281 N 113.814 -1.1601 1.06675 0
M  V30 1282 C 115.225 -1.68235 0.809565 0
M  V30 1283 C 115.576 -1.8454 -0.666303 0
M  V30 1284 O 114.701 -1.54374 -1.5165 0
M  V30 1285 C 115.296 -3.05585 1.46299 0
M  V30 1286 C 113.855 -3.54915 1.25349 0
M  V30 1287 C 113.002 -2.30804 1.53703 0
M  V30 1288 H 115.953 -1.00318 1.22971 0
M  V30 1289 H 115.974 -3.70174 0.880431 0
M  V30 1290 H 115.486 -2.93686 2.53713 0
M  V30 1291 H 113.587 -3.72067 0.199261 0
M  V30 1292 H 113.7 -4.36774 1.9689 0
M  V30 1293 H 112.064 -2.36007 0.957739 0
M  V30 1294 H 112.847 -2.21499 2.62284 0
M  V30 1295 N 115.292 -0.849877 -1.32721 0
M  V30 1296 C 116.517 -0.463856 -2.02146 0
M  V30 1297 C 116.942 0.930449 -1.63476 0
M  V30 1298 O 116.3 1.61033 -0.832952 0
M  V30 1299 C 116.348 -0.604955 -3.55489 0
M  V30 1300 O 115.452 0.36425 -4.10788 0
M  V30 1301 H 114.793 -0.187046 -0.637111 0
M  V30 1302 H 117.323 -1.14775 -1.69375 0
M  V30 1303 H 117.333 -0.490696 -4.05038 0
M  V30 1304 H 116.008 -1.62174 -3.82978 0
M  V30 1305 H 114.585 0.206628 -3.72327 0
M  V30 1306 N 116.77 1.45427 -0.607355 0
M  V30 1307 C 117.7 2.3329 0.0989352 0
M  V30 1308 C 118.681 1.46816 0.859007 0
M  V30 1309 O 119.866 1.75588 0.829604 0
M  V30 1310 C 116.996 3.29518 1.09705 0
M  V30 1311 C 115.95 4.25626 0.450206 0
M  V30 1312 C 115.276 5.11542 1.55655 0
M  V30 1313 C 116.576 5.18505 -0.628455 0
M  V30 1314 H 118.27 2.92595 -0.634716 0
M  V30 1315 H 115.816 1.40696 -0.306681 0
M  V30 1316 H 117.769 3.89855 1.59971 0
M  V30 1317 H 116.493 2.68372 1.86129 0
M  V30 1318 H 115.152 3.66586 -0.0315886 0
M  V30 1319 H 114.8 4.46765 2.31107 0
M  V30 1320 H 114.5 5.76647 1.12925 0
M  V30 1321 H 116.024 5.74748 2.06148 0
M  V30 1322 H 117.438 5.72916 -0.209877 0
M  V30 1323 H 115.835 5.92085 -0.977489 0
M  V30 1324 H 116.905 4.60948 -1.50514 0
M  V30 1325 N 118.248 0.346503 1.53744 0
M  V30 1326 C 119.476 -0.25041 2.05379 0
M  V30 1327 C 119.891 -1.43979 1.22129 0
M  V30 1328 O 119.248 -1.80677 0.257321 0
M  V30 1329 C 119.299 -0.662575 3.55376 0
M  V30 1330 O 119.02 0.479515 4.35468 0
M  V30 1331 C 120.521 -1.31989 4.23195 0
M  V30 1332 H 117.741 -0.0478198 0.669294 0
M  V30 1333 H 120.285 0.499346 1.9831 0
M  V30 1334 H 118.44 -1.36227 3.62658 0
M  V30 1335 H 118.854 0.15037 5.24284 0
M  V30 1336 H 120.328 -1.55902 5.29527 0
M  V30 1337 H 120.805 -2.27436 3.75725 0
M  V30 1338 H 121.411 -0.662154 4.20114 0
M  V30 1339 N 119.726 -1.57421 0.075193 0
M  V30 1340 C 121.142 -1.57099 -0.281444 0
M  V30 1341 C 121.342 -1.08486 -1.69803 0
M  V30 1342 O 120.398 -0.752279 -2.41033 0
M  V30 1343 C 121.711 -3.00571 -0.0880041 0
M  V30 1344 C 123.259 -3.12605 -0.157281 0
M  V30 1345 C 123.734 -4.57999 0.0079207 0
M  V30 1346 N 125.225 -4.63176 -0.0475725 0
M  V30 1347 C 125.96 -5.73373 0.0557876 0
M  V30 1348 N 125.456 -6.92473 0.21286 0
M  V30 1349 N 127.249 -5.621 -0.00152098 0
M  V30 1350 H 119.4 -1.87335 1.00098 0
M  V30 1351 H 121.663 -0.86377 0.390646 0
M  V30 1352 H 121.369 -3.40262 0.889629 0
M  V30 1353 H 121.243 -3.67754 -0.838875 0
M  V30 1354 H 123.63 -2.72798 -1.1254 0
M  V30 1355 H 123.711 -2.48053 0.62475 0
M  V30 1356 H 123.355 -4.98496 0.972824 0
M  V30 1357 H 123.285 -5.20586 -0.793556 0
M  V30 1358 H 125.776 -3.7753 -0.167244 0
M  V30 1359 H 126.089 -7.72279 0.283781 0
M  V30 1360 H 124.434 -6.94556 0.248267 0
M  V30 1361 H 127.625 -4.67938 -0.122958 0
M  V30 1362 H 127.798 -6.47948 0.0824844 0
M  V30 1363 N 121.204 0.198386 -1.56346 0
M  V30 1364 C 122.167 1.22952 -1.93431 0
M  V30 1365 C 123.167 1.38611 -0.815092 0
M  V30 1366 O 124.357 1.36479 -1.08255 0
M  V30 1367 C 121.489 2.59946 -2.20546 0
M  V30 1368 H 122.682 0.912626 -2.85677 0
M  V30 1369 H 120.235 0.43977 -1.49986 0
M  V30 1370 H 120.97 2.96696 -1.30927 0
M  V30 1371 H 120.755 2.49953 -3.02102 0
M  V30 1372 H 122.245 3.3431 -2.50253 0
M  V30 1373 N 122.682 1.50554 0.465978 0
M  V30 1374 C 123.931 1.61038 1.21448 0
M  V30 1375 C 124.244 0.31865 1.92987 0
M  V30 1376 O 125.45 0.302469 2.6981 0
M  V30 1377 C 123.906 2.84283 2.20706 0
M  V30 1378 C 123.514 4.20352 1.54946 0
M  V30 1379 C 125.258 3.04115 2.96166 0
M  V30 1380 C 123.165 5.34778 2.5252 0
M  V30 1381 H 122.095 0.599718 0.457005 0
M  V30 1382 H 124.746 1.7699 0.484424 0
M  V30 1383 H 123.128 2.61901 2.97025 0
M  V30 1384 H 124.302 4.53008 0.843811 0
M  V30 1385 H 122.617 4.06167 0.917475 0
M  V30 1386 H 125.214 3.86774 3.69202 0
M  V30 1387 H 125.557 2.16045 3.55852 0
M  V30 1388 H 126.09 3.26702 2.26959 0
M  V30 1389 H 122.829 6.25018 1.97566 0
M  V30 1390 H 122.349 5.06534 3.21222 0
M  V30 1391 H 124.028 5.65561 3.14245 0
M  V30 1392 N 124.16 -0.719506 1.40217 0
M  V30 1393 C 125.409 -1.47486 1.37589 0
M  V30 1394 C 125.722 -1.9559 -0.0201568 0
M  V30 1395 O 126.928 -2.70973 -0.169049 0
M  V30 1396 C 125.384 -2.66575 2.41796 0
M  V30 1397 C 124.992 -2.25358 3.87192 0
M  V30 1398 C 126.736 -3.4433 2.48269 0
M  V30 1399 C 124.643 -3.41262 4.83005 0
M  V30 1400 H 123.573 -0.553901 0.511576 0
M  V30 1401 H 126.224 -0.783427 1.65936 0
M  V30 1402 H 124.606 -3.3787 2.06543 0
M  V30 1403 H 125.78 -1.61509 4.31569 0
M  V30 1404 H 124.095 -1.60657 3.84159 0
M  V30 1405 H 126.692 -4.30569 3.17041 0
M  V30 1406 H 127.035 -3.87872 1.51198 0
M  V30 1407 H 127.568 -2.80076 2.82493 0
M  V30 1408 H 124.307 -3.02755 5.81394 0
M  V30 1409 H 123.827 -4.0404 4.43297 0
M  V30 1410 H 125.506 -4.07383 5.02641 0
M  V30 1411 N 125.638 -1.25649 -0.95132 0
M  V30 1412 C 126.585 -1.06323 -2.04851 0
M  V30 1413 C 127.555 0.0286491 -1.66075 0
M  V30 1414 O 128.74 -0.12917 -1.90362 0
M  V30 1415 C 125.88 -0.691529 -3.381 0
M  V30 1416 C 124.993 -1.85861 -3.89974 0
M  V30 1417 C 124.128 -1.43096 -5.11563 0
M  V30 1418 C 123.167 -2.56696 -5.55674 0
M  V30 1419 N 122.304 -2.14684 -6.68472 0
M  V30 1420 H 127.144 -2.00222 -2.20715 0
M  V30 1421 H 124.681 -0.997027 -1.08156 0
M  V30 1422 H 126.639 -0.456963 -4.1469 0
M  V30 1423 H 125.269 0.210474 -3.22113 0
M  V30 1424 H 124.321 -2.20639 -3.09875 0
M  V30 1425 H 125.633 -2.71161 -4.18657 0
M  V30 1426 H 124.787 -1.15624 -5.9558 0
M  V30 1427 H 123.526 -0.548722 -4.84603 0
M  V30 1428 H 122.531 -2.84909 -4.7022 0
M  V30 1429 H 123.756 -3.45503 -5.8464 0
M  V30 1430 H 121.702 -1.28881 -6.43215 0
M  V30 1431 H 121.619 -2.9353 -6.96689 0
M  V30 1432 H 122.887 -1.90397 -7.5589 0
M  V30 1433 N 127.117 1.15442 -1.07289 0
M  V30 1434 C 128.357 1.8788 -0.805012 0
M  V30 1435 C 128.721 1.80413 0.656907 0
M  V30 1436 O 129.922 2.47874 1.0398 0
M  V30 1437 C 128.193 3.3298 -1.29843 0
M  V30 1438 S 129.752 4.23158 -1.16114 0
M  V30 1439 H 126.57 0.64839 -0.291739 0
M  V30 1440 H 129.172 1.39285 -1.37186 0
M  V30 1441 H 127.876 3.35958 -2.35712 0
M  V30 1442 H 127.407 3.86629 -0.726767 0
M  V30 1443 H 129.422 4.96103 -0.0982778 0
M  V30 1444 N 128.595 0.856903 1.32268 0
M  V30 1445 C 129.825 0.47475 2.01071 0
M  V30 1446 C 130.233 -0.933746 1.64553 0
M  V30 1447 O 129.576 -1.62114 0.863989 0
M  V30 1448 C 129.638 0.536746 3.55471 0
M  V30 1449 C 129.302 1.90453 4.15423 0
M  V30 1450 C 130.299 2.87029 4.33486 0
M  V30 1451 C 127.984 2.20229 4.51447 0
M  V30 1452 C 129.978 4.11532 4.86744 0
M  V30 1453 C 127.665 3.44984 5.0441 0
M  V30 1454 C 128.663 4.40452 5.22007 0
M  V30 1455 O 128.351 5.62998 5.73837 0
M  V30 1456 H 128.083 0.184778 0.650256 0
M  V30 1457 H 130.637 1.15615 1.69771 0
M  V30 1458 H 128.867 -0.20152 3.86175 0
M  V30 1459 H 130.556 0.169875 4.05544 0
M  V30 1460 H 131.322 2.6533 4.05986 0
M  V30 1461 H 127.201 1.46705 4.37034 0
M  V30 1462 H 130.745 4.86056 5.00395 0
M  V30 1463 H 126.642 3.66532 5.31342 0
M  V30 1464 H 127.41 5.64987 5.92226 0
M  V30 1465 N 130.073 -1.45103 0.615059 0
M  V30 1466 C 131.319 -2.03035 0.121804 0
M  V30 1467 C 131.674 -1.47393 -1.23665 0
M  V30 1468 O 130.967 -0.642061 -1.80522 0
M  V30 1469 C 131.161 -3.57386 0.0318797 0
M  V30 1470 C 130.99 -4.28 1.38007 0
M  V30 1471 C 129.76 -4.65624 1.9627 0
M  V30 1472 C 131.958 -4.5948 2.31047 0
M  V30 1473 N 129.94 -5.21132 3.24492 0
M  V30 1474 C 131.311 -5.159 3.43872 0
M  V30 1475 C 133.366 -4.41423 2.30326 0
M  V30 1476 C 132.069 -5.56165 4.5615 0
M  V30 1477 C 134.095 -4.82726 3.41658 0
M  V30 1478 C 133.457 -5.39245 4.53205 0
M  V30 1479 H 129.556 -0.77702 0.0881159 0
M  V30 1480 H 132.14 -1.76819 0.815044 0
M  V30 1481 H 130.311 -3.83247 -0.630599 0
M  V30 1482 H 132.043 -4.01976 -0.468721 0
M  V30 1483 H 128.798 -4.49421 1.49392 0
M  V30 1484 H 129.222 -5.53377 3.90004 0
M  V30 1485 H 133.864 -3.97033 1.45343 0
M  V30 1486 H 131.582 -5.99517 5.41854 0
M  V30 1487 H 135.168 -4.7048 3.42257 0
M  V30 1488 H 134.048 -5.70616 5.37929 0
M  V30 1489 N 131.551 -0.354651 -1.53558 0
M  V30 1490 C 132.498 0.496968 -2.25386 0
M  V30 1491 C 133.468 1.0865 -1.25636 0
M  V30 1492 O 134.653 1.12104 -1.54394 0
M  V30 1493 C 131.793 1.63637 -3.03837 0
M  V30 1494 C 130.906 1.07307 -4.18461 0
M  V30 1495 C 130.041 2.18068 -4.84376 0
M  V30 1496 C 129.08 1.59147 -5.91049 0
M  V30 1497 N 128.217 2.63695 -6.50699 0
M  V30 1498 H 133.057 -0.122075 -2.9775 0
M  V30 1499 H 130.594 -0.0720154 -1.46924 0
M  V30 1500 H 132.552 2.30734 -3.47589 0
M  V30 1501 H 131.182 2.22623 -2.33749 0
M  V30 1502 H 130.234 0.292708 -3.79272 0
M  V30 1503 H 131.546 0.602193 -4.95152 0
M  V30 1504 H 130.7 2.93007 -5.31255 0
M  V30 1505 H 129.439 2.68504 -4.07133 0
M  V30 1506 H 128.444 0.827175 -5.43542 0
M  V30 1507 H 129.669 1.09549 -6.70206 0
M  V30 1508 H 127.615 3.13365 -5.76315 0
M  V30 1509 H 127.532 2.21263 -7.22896 0
M  V30 1510 H 128.8 3.3837 -7.02229 0
M  V30 1511 N 133.029 1.57378 -0.0835403 0
M  V30 1512 C 134.254 1.98682 0.594987 0
M  V30 1513 C 134.679 0.961969 1.61641 0
M  V30 1514 O 134.037 -0.0709989 1.81161 0
M  V30 1515 C 134.085 3.38988 1.2296 0
M  V30 1516 O 133.189 3.39208 2.34546 0
M  V30 1517 H 132.53 0.646368 0.152002 0
M  V30 1518 H 135.06 2.03961 -0.161533 0
M  V30 1519 H 135.07 3.76431 1.57366 0
M  V30 1520 H 133.745 4.13107 0.481228 0
M  V30 1521 H 132.322 3.13548 2.01846 0
M  V30 1522 N 134.507 -0.190092 1.56449 0
M  V30 1523 C 135.737 -0.92443 1.84764 0
M  V30 1524 C 136.145 -1.77146 0.664529 0
M  V30 1525 O 135.488 -1.79812 -0.375957 0
M  V30 1526 C 135.55 -1.86651 3.07248 0
M  V30 1527 C 135.214 -1.20094 4.40938 0
M  V30 1528 C 136.211 -0.575445 5.16706 0
M  V30 1529 C 133.896 -1.2033 4.87674 0
M  V30 1530 C 135.89 0.0388111 6.37388 0
M  V30 1531 C 133.577 -0.585214 6.08291 0
M  V30 1532 C 134.575 0.0347578 6.82991 0
M  V30 1533 O 134.263 0.643147 8.01323 0
M  V30 1534 H 133.995 -0.274974 0.617548 0
M  V30 1535 H 136.549 -0.200788 2.04416 0
M  V30 1536 H 134.779 -2.62998 2.83494 0
M  V30 1537 H 136.468 -2.46907 3.22167 0
M  V30 1538 H 137.234 -0.565728 4.81689 0
M  V30 1539 H 133.113 -1.67526 4.29484 0
M  V30 1540 H 136.657 0.523329 6.95634 0
M  V30 1541 H 132.554 -0.592451 6.42775 0
M  V30 1542 H 133.322 0.540545 8.16713 0
M  V30 1543 N 135.985 -1.50799 -0.457987 0
M  V30 1544 C 136.915 -1.73553 -1.5621 0
M  V30 1545 C 137.896 -0.584774 -1.59732 0
M  V30 1546 O 139.081 -0.825314 -1.7579 0
M  V30 1547 C 136.211 -1.84169 -2.94447 0
M  V30 1548 C 135.165 -2.99461 -3.0579 0
M  V30 1549 C 134.491 -2.95235 -4.45803 0
M  V30 1550 C 135.791 -4.39766 -2.81786 0
M  V30 1551 H 137.485 -2.66 -1.37421 0
M  V30 1552 H 135.031 -1.28002 -0.659662 0
M  V30 1553 H 136.984 -1.98672 -3.71628 0
M  V30 1554 H 135.708 -0.883545 -3.14422 0
M  V30 1555 H 134.367 -2.8463 -2.31044 0
M  V30 1556 H 134.015 -1.97239 -4.62715 0
M  V30 1557 H 133.715 -3.72642 -4.54326 0
M  V30 1558 H 135.239 -3.11803 -5.24987 0
M  V30 1559 H 136.653 -4.55054 -3.4871 0
M  V30 1560 H 135.05 -5.18722 -3.0174 0
M  V30 1561 H 136.12 -4.51229 -1.7754 0
M  V30 1562 N 137.463 0.71206 -1.40597 0
M  V30 1563 C 138.709 1.47416 -1.39271 0
M  V30 1564 C 139.042 1.942 0.00388791 0
M  V30 1565 O 138.317 1.68403 0.973179 0
M  V30 1566 C 138.6 2.69774 -2.38525 0
M  V30 1567 C 138.453 2.28861 -3.87224 0
M  V30 1568 C 139.772 3.71939 -2.35264 0
M  V30 1569 H 136.891 0.534713 -0.5072 0
M  V30 1570 H 139.533 0.812375 -1.71757 0
M  V30 1571 H 137.683 3.26238 -2.10953 0
M  V30 1572 H 139.355 1.77852 -4.25636 0
M  V30 1573 H 137.598 1.60824 -4.02887 0
M  V30 1574 H 138.269 3.16584 -4.52193 0
M  V30 1575 H 140.745 3.25113 -2.59694 0
M  V30 1576 H 139.621 4.55186 -3.06753 0
M  V30 1577 H 139.882 4.20484 -1.36549 0
M  V30 1578 N 138.941 1.26152 0.944643 0
M  V30 1579 C 139.871 1.09902 2.06019 0
M  V30 1580 C 140.852 0.00519538 1.70099 0
M  V30 1581 O 142.037 0.176583 1.93396 0
M  V30 1582 C 139.167 0.727562 3.39594 0
M  V30 1583 C 138.121 1.77274 3.89561 0
M  V30 1584 C 137.447 1.25569 5.19747 0
M  V30 1585 C 138.747 3.17357 4.14827 0
M  V30 1586 H 140.441 2.03217 2.19871 0
M  V30 1587 H 137.987 0.978452 1.05652 0
M  V30 1588 H 139.94 0.600777 4.17095 0
M  V30 1589 H 138.664 -0.241287 3.25707 0
M  V30 1590 H 137.323 1.88814 3.14237 0
M  V30 1591 H 136.971 0.276783 5.02238 0
M  V30 1592 H 136.671 1.95433 5.54148 0
M  V30 1593 H 138.195 1.1415 5.99835 0
M  V30 1594 H 139.609 3.08914 4.82954 0
M  V30 1595 H 138.006 3.84781 4.60504 0
M  V30 1596 H 139.076 3.63673 3.20734 0
M  V30 1597 N 140.419 -1.14872 1.07899 0
M  V30 1598 C 141.667 -1.85422 0.803941 0
M  V30 1599 C 141.988 -1.83051 -0.67211 0
M  V30 1600 O 141.258 -1.27532 -1.48703 0
M  V30 1601 H 139.838 -0.686537 0.294408 0
M  V30 1602 H 142.5 -1.39226 1.3639 0
M  V30 1603 H 141.596 -2.90399 1.14346 0
M  V30 1604 N 141.898 -0.863906 -1.31812 0
M  V30 1605 C 143.147 -0.46801 -1.96195 0
M  V30 1606 C 143.46 0.983474 -1.69077 0
M  V30 1607 O 144.666 1.48523 -2.27273 0
M  V30 1608 C 143.122 -0.785995 -3.51212 0
M  V30 1609 C 142.73 -2.25383 -3.87178 0
M  V30 1610 C 144.474 -0.458274 -4.22019 0
M  V30 1611 C 142.381 -2.51455 -5.3528 0
M  V30 1612 H 141.311 -0.171283 -0.734287 0
M  V30 1613 H 143.962 -1.05597 -1.50072 0
M  V30 1614 H 142.344 -0.127359 -3.95795 0
M  V30 1615 H 143.518 -2.95502 -3.53575 0
M  V30 1616 H 141.833 -2.54698 -3.2942 0
M  V30 1617 H 144.43 -0.630369 -5.30971 0
M  V30 1618 H 144.773 0.600834 -4.11941 0
M  V30 1619 H 145.306 -1.07319 -3.8305 0
M  V30 1620 H 142.045 -3.56025 -5.50387 0
M  V30 1621 H 141.565 -1.85923 -5.70257 0
M  V30 1622 H 143.244 -2.35874 -6.02472 0
M  V30 1623 N 143.376 1.44774 -0.622745 0
M  V30 1624 C 144.623 2.02121 -0.1239 0
M  V30 1625 C 144.951 1.48915 1.25118 0
M  V30 1626 O 144.206 0.660045 1.84233 0
M  V30 1627 C 144.505 3.57364 -0.0508323 0
M  V30 1628 C 144.171 4.29787 -1.36358 0
M  V30 1629 C 142.833 4.4929 -1.72314 0
M  V30 1630 C 145.185 4.71062 -2.23048 0
M  V30 1631 C 142.513 5.07325 -2.94682 0
M  V30 1632 C 144.865 5.30452 -3.44679 0
M  V30 1633 C 143.529 5.48175 -3.80868 0
M  V30 1634 H 142.799 0.739612 -0.0453381 0
M  V30 1635 H 145.446 1.73648 -0.807389 0
M  V30 1636 H 143.751 3.85202 0.715991 0
M  V30 1637 H 145.448 3.99456 0.351533 0
M  V30 1638 H 142.038 4.14932 -1.07375 0
M  V30 1639 H 146.222 4.55715 -1.96565 0
M  V30 1640 H 141.478 5.19235 -3.22809 0
M  V30 1641 H 145.652 5.61385 -4.12092 0
M  V30 1642 H 143.279 5.92912 -4.75773 0
M  V30 1643 N 144.854 0.36279 1.53368 0
M  V30 1644 C 146.082 -0.228613 2.05633 0
M  V30 1645 C 146.497 -1.42676 1.23649 0
M  V30 1646 O 145.854 -1.80394 0.27647 0
M  V30 1647 C 145.905 -0.624845 3.56059 0
M  V30 1648 O 145.626 0.525675 4.34935 0
M  V30 1649 C 147.127 -1.27493 4.24571 0
M  V30 1650 H 144.347 -0.0407183 0.669763 0
M  V30 1651 H 146.891 0.520352 1.97769 0
M  V30 1652 H 145.046 -1.32373 3.64083 0
M  V30 1653 H 145.46 0.205969 5.24095 0
M  V30 1654 H 146.934 -1.50277 5.31151 0
M  V30 1655 H 147.411 -2.23439 3.78116 0
M  V30 1656 H 148.017 -0.617558 4.20792 0
M  V30 1657 N 146.332 -1.57332 0.0918853 0
M  V30 1658 C 147.262 -2.16872 -0.865371 0
M  V30 1659 C 148.243 -1.10118 -1.29646 0
M  V30 1660 O 149.428 -1.38242 -1.36392 0
M  V30 1661 C 146.558 -2.74649 -2.12569 0
M  V30 1662 C 145.512 -3.86747 -1.83333 0
M  V30 1663 C 144.838 -4.31212 -3.16166 0
M  V30 1664 C 146.138 -5.10089 -1.1228 0
M  V30 1665 H 147.832 -2.97114 -0.369307 0
M  V30 1666 H 145.378 -1.42918 -0.176194 0
M  V30 1667 H 147.331 -3.14952 -2.7997 0
M  V30 1668 H 146.055 -1.91657 -2.64452 0
M  V30 1669 H 144.714 -3.46978 -1.18331 0
M  V30 1670 H 144.362 -3.45115 -3.6593 0
M  V30 1671 H 144.062 -5.06788 -2.97388 0
M  V30 1672 H 145.586 -4.74146 -3.84731 0
M  V30 1673 H 147 -5.47582 -1.69785 0
M  V30 1674 H 145.397 -5.91073 -1.03693 0
M  V30 1675 H 146.467 -4.84786 -0.105041 0
M  V30 1676 N 147.81 0.181792 -1.56548 0
M  V30 1677 C 149.059 0.898348 -1.8059 0
M  V30 1678 C 149.372 1.83862 -0.667379 0
M  V30 1679 O 150.578 2.59678 -0.792446 0
M  V30 1680 C 149.034 1.64791 -3.19956 0
M  V30 1681 C 148.642 0.751789 -4.41647 0
M  V30 1682 C 150.386 2.35331 -3.53298 0
M  V30 1683 C 148.293 1.50098 -5.72035 0
M  V30 1684 H 147.223 0.339194 -0.673397 0
M  V30 1685 H 149.874 0.151413 -1.82874 0
M  V30 1686 H 148.256 2.43921 -3.11959 0
M  V30 1687 H 149.43 -0.0018076 -4.608 0
M  V30 1688 H 147.745 0.156562 -4.16106 0
M  V30 1689 H 150.342 2.91958 -4.47956 0
M  V30 1690 H 150.685 3.10164 -2.77676 0
M  V30 1691 H 151.218 1.63154 -3.62803 0
M  V30 1692 H 147.957 0.795175 -6.50659 0
M  V30 1693 H 147.477 2.22817 -5.56878 0
M  V30 1694 H 149.156 2.05125 -6.13622 0
M  V30 1695 N 149.288 1.51039 0.449983 0
M  V30 1696 C 150.198 1.74261 1.57067 0
M  V30 1697 C 151.214 0.626363 1.62335 0
M  V30 1698 O 152.39 0.907162 1.79812 0
M  V30 1699 C 149.455 1.85114 2.93144 0
M  V30 1700 C 148.516 3.0893 2.98095 0
M  V30 1701 C 147.749 3.19256 4.27681 0
M  V30 1702 O 147.972 2.35835 5.19363 0
M  V30 1703 O 146.906 4.12144 4.38658 0
M  V30 1704 H 150.732 2.69303 1.40391 0
M  V30 1705 H 148.317 1.35389 0.631688 0
M  V30 1706 H 150.199 1.94311 3.73926 0
M  V30 1707 H 148.874 0.932588 3.09975 0
M  V30 1708 H 147.781 3.0522 2.16314 0
M  V30 1709 H 149.114 4.00433 2.86206 0
M  V30 1710 N 150.766 -0.704594 1.40972 0
M  V30 1711 C 151.676 -1.84856 1.44448 0
M  V30 1712 C 152.692 -1.70726 0.335961 0
M  V30 1713 O 153.868 -1.92799 0.582276 0
M  V30 1714 C 150.933 -3.20758 1.31587 0
M  V30 1715 C 149.994 -3.47063 2.52677 0
M  V30 1716 C 149.227 -4.76481 2.4042 0
M  V30 1717 O 149.45 -5.52341 1.42391 0
M  V30 1718 O 148.384 -5.03367 3.30007 0
M  V30 1719 H 152.21 -1.8488 2.40942 0
M  V30 1720 H 149.795 -0.85647 1.22413 0
M  V30 1721 H 151.677 -4.01913 1.26665 0
M  V30 1722 H 150.352 -3.21438 0.382049 0
M  V30 1723 H 149.259 -2.65873 2.63177 0
M  V30 1724 H 150.592 -3.5119 3.44858 0
M  V30 1725 N 152.244 -1.26651 -0.937939 0
M  V30 1726 C 153.469 -1.15279 -1.72411 0
M  V30 1727 C 153.894 0.287866 -1.85884 0
M  V30 1728 O 153.252 1.20855 -1.35143 0
M  V30 1729 C 153.3 -1.83028 -3.10698 0
M  V30 1730 O 152.404 -1.12128 -3.96864 0
M  V30 1731 H 151.745 -0.401504 -0.528858 0
M  V30 1732 H 154.275 -1.67531 -1.1745 0
M  V30 1733 H 154.285 -1.89981 -3.6107 0
M  V30 1734 H 152.96 -2.87833 -3.00208 0
M  V30 1735 H 151.537 -1.13173 -3.55312 0
M  V30 1736 N 153.722 1.14298 -1.08507 0
M  V30 1737 C 154.685 2.17607 -0.719711 0
M  V30 1738 C 155.685 1.58907 0.245997 0
M  V30 1739 O 156.875 1.74181 0.0254081 0
M  V30 1740 C 154.007 3.40842 -0.0627695 0
M  V30 1741 H 155.2 2.51443 -1.63452 0
M  V30 1742 H 152.753 1.28963 -0.88307 0
M  V30 1743 H 153.488 3.12587 0.863716 0
M  V30 1744 H 153.273 3.84713 -0.757504 0
M  V30 1745 H 154.763 4.17221 0.177786 0
M  V30 1746 N 155.201 0.870884 1.31352 0
M  V30 1747 C 156.148 0.325425 2.28494 0
M  V30 1748 C 157.118 -0.576615 1.5577 0
M  V30 1749 O 158.303 -0.508059 1.83911 0
M  V30 1750 C 155.443 -0.466283 3.41935 0
M  V30 1751 C 154.556 0.463378 4.29508 0
M  V30 1752 C 153.691 -0.342544 5.30094 0
M  V30 1753 C 152.73 0.583486 6.09313 0
M  V30 1754 N 151.867 -0.186244 7.01853 0
M  V30 1755 H 156.707 1.15901 2.74538 0
M  V30 1756 H 154.244 0.58294 1.35056 0
M  V30 1757 H 156.202 -0.941085 4.06447 0
M  V30 1758 H 154.832 -1.26456 2.97 0
M  V30 1759 H 153.884 1.05663 3.65431 0
M  V30 1760 H 155.196 1.1734 4.84802 0
M  V30 1761 H 154.35 -0.879816 6.00287 0
M  V30 1762 H 153.089 -1.08585 4.75458 0
M  V30 1763 H 152.094 1.13251 5.3801 0
M  V30 1764 H 153.319 1.32566 6.66035 0
M  V30 1765 H 151.265 -0.912348 6.49625 0
M  V30 1766 H 151.182 0.464422 7.54572 0
M  V30 1767 H 152.45 -0.704716 7.76308 0
M  V30 1768 N 156.679 -1.44442 0.630414 0
M  V30 1769 C 157.925 -2.02351 0.134816 0
M  V30 1770 C 158.258 -1.4947 -1.23986 0
M  V30 1771 O 157.533 -0.678475 -1.82283 0
M  V30 1772 C 157.816 -3.59898 0.120707 0
M  V30 1773 C 157.669 -4.23063 1.52767 0
M  V30 1774 C 158.988 -4.36585 -0.555127 0
M  V30 1775 H 156.107 -0.73527 0.0504646 0
M  V30 1776 H 158.749 -1.72022 0.806751 0
M  V30 1777 H 156.899 -3.85868 -0.451477 0
M  V30 1778 H 158.571 -4.08202 2.14869 0
M  V30 1779 H 156.814 -3.80586 2.08175 0
M  V30 1780 H 157.485 -5.32071 1.46984 0
M  V30 1781 H 159.961 -4.16044 -0.0685429 0
M  V30 1782 H 158.837 -5.46294 -0.534185 0
M  V30 1783 H 159.098 -4.11138 -1.62535 0
M  V30 1784 N 158.157 -0.370918 -1.53173 0
M  V30 1785 C 159.406 0.218249 -2.00516 0
M  V30 1786 C 159.719 1.49429 -1.26215 0
M  V30 1787 O 160.925 2.16239 -1.64174 0
M  V30 1788 C 159.381 0.43948 -3.57207 0
M  V30 1789 C 158.989 -0.822244 -4.4039 0
M  V30 1790 C 160.733 0.986012 -4.1289 0
M  V30 1791 C 158.64 -0.570304 -5.88644 0
M  V30 1792 H 157.57 0.0853333 -0.749156 0
M  V30 1793 H 160.221 -0.490483 -1.76823 0
M  V30 1794 H 158.603 1.20961 -3.77074 0
M  V30 1795 H 159.777 -1.59557 -4.32294 0
M  V30 1796 H 158.092 -1.29238 -3.95836 0
M  V30 1797 H 160.689 1.18991 -5.21292 0
M  V30 1798 H 161.032 1.94972 -3.6782 0
M  V30 1799 H 161.565 0.27592 -3.96842 0
M  V30 1800 H 158.304 -1.50449 -6.38001 0
M  V30 1801 H 157.824 0.164427 -5.99575 0
M  V30 1802 H 159.503 -0.19784 -6.46697 0
M  V30 1803 N 159.635 1.57281 -0.100228 0
M  V30 1804 C 160.567 2.11342 0.886972 0
M  V30 1805 C 161.58 1.05182 1.24261 0
M  V30 1806 O 162.769 1.32613 1.19483 0
M  V30 1807 C 159.869 2.5825 2.19454 0
M  V30 1808 C 159.042 3.88302 2.01346 0
M  V30 1809 C 158.101 4.21004 3.15661 0
M  V30 1810 O 157.127 4.9014 2.89398 0
M  V30 1811 N 158.329 3.76818 4.41575 0
M  V30 1812 H 161.094 2.96668 0.425216 0
M  V30 1813 H 158.655 1.61678 0.0847334 0
M  V30 1814 H 160.647 2.7717 2.94888 0
M  V30 1815 H 159.217 1.77907 2.57037 0
M  V30 1816 H 158.437 3.7848 1.10212 0
M  V30 1817 H 159.725 4.73375 1.8653 0
M  V30 1818 H 159.123 3.2102 4.65792 0
M  V30 1819 H 157.68 4.00882 5.13942 0
M  V30 1820 N 161.113 -0.173488 1.56642 0
M  V30 1821 C 162.524 -0.736155 1.71574 0
M  V30 1822 C 162.875 -1.82888 0.710389 0
M  V30 1823 O 162 -2.16017 -0.1287 0
M  V30 1824 C 162.595 -1.34211 3.11083 0
M  V30 1825 C 161.154 -1.85162 3.27707 0
M  V30 1826 C 160.301 -0.729765 2.67525 0
M  V30 1827 H 163.252 0.0518786 1.58615 0
M  V30 1828 H 163.273 -2.21178 3.09613 0
M  V30 1829 H 162.785 -0.546579 3.84232 0
M  V30 1830 H 160.886 -2.67366 2.59512 0
M  V30 1831 H 160.999 -1.99855 4.35425 0
M  V30 1832 H 159.363 -1.14965 2.27278 0
M  V30 1833 H 160.146 0.0538806 3.43258 0
M  V30 1834 N 162.591 -1.51276 -0.441967 0
M  V30 1835 C 163.84 -1.6295 -1.18871 0
M  V30 1836 C 164.153 -0.349312 -1.92456 0
M  V30 1837 O 165.359 -0.345355 -2.69295 0
M  V30 1838 C 163.815 -2.87759 -2.16155 0
M  V30 1839 C 163.423 -4.22764 -1.48239 0
M  V30 1840 C 165.167 -3.08788 -2.91291 0
M  V30 1841 C 163.074 -5.38728 -2.4398 0
M  V30 1842 H 162.004 -0.606913 -0.447406 0
M  V30 1843 H 164.655 -1.77739 -0.456205 0
M  V30 1844 H 163.037 -2.66593 -2.92821 0
M  V30 1845 H 164.211 -4.54293 -0.771635 0
M  V30 1846 H 162.526 -4.07575 -0.852741 0
M  V30 1847 H 165.123 -3.92599 -3.63002 0
M  V30 1848 H 165.466 -2.21679 -3.5237 0
M  V30 1849 H 165.999 -3.30272 -2.21733 0
M  V30 1850 H 162.738 -6.28082 -1.87598 0
M  V30 1851 H 162.258 -5.1158 -3.13123 0
M  V30 1852 H 163.937 -5.70489 -3.05207 0
M  V30 1853 N 164.069 0.697108 -1.41344 0
M  V30 1854 C 165.316 1.45714 -1.40619 0
M  V30 1855 C 165.644 1.94494 -0.0147907 0
M  V30 1856 O 164.899 1.69794 0.973066 0
M  V30 1857 C 165.198 2.68553 -2.35826 0
M  V30 1858 C 164.864 2.38438 -3.82698 0
M  V30 1859 C 163.526 2.29936 -4.22709 0
M  V30 1860 C 165.878 2.13567 -4.75435 0
M  V30 1861 C 163.206 1.94656 -5.53467 0
M  V30 1862 C 165.558 1.79797 -6.06511 0
M  V30 1863 C 164.222 1.69789 -6.45545 0
M  V30 1864 H 163.492 0.533206 -0.51456 0
M  V30 1865 H 166.139 0.796901 -1.74131 0
M  V30 1866 H 164.444 3.39503 -1.95563 0
M  V30 1867 H 166.141 3.2669 -2.32539 0
M  V30 1868 H 162.731 2.4595 -3.51008 0
M  V30 1869 H 166.915 2.19082 -4.45328 0
M  V30 1870 H 162.171 1.8546 -5.82593 0
M  V30 1871 H 166.345 1.59572 -6.77872 0
M  V30 1872 H 163.972 1.4222 -7.46778 0
M  V30 1873 N 165.547 1.27147 0.931209 0
M  V30 1874 C 166.477 1.12081 2.04842 0
M  V30 1875 C 167.458 0.0232364 1.70084 0
M  V30 1876 O 168.643 0.197085 1.93197 0
M  V30 1877 C 165.773 0.76354 3.38803 0
M  V30 1878 C 164.727 1.81396 3.87659 0
M  V30 1879 C 164.053 1.31075 5.18385 0
M  V30 1880 C 165.353 3.21739 4.11438 0
M  V30 1881 H 167.047 2.05537 2.17703 0
M  V30 1882 H 164.593 0.989603 1.04608 0
M  V30 1883 H 166.546 0.644982 4.16435 0
M  V30 1884 H 165.27 -0.206727 3.25945 0
M  V30 1885 H 163.929 1.92136 3.12217 0
M  V30 1886 H 163.577 0.330037 5.01916 0
M  V30 1887 H 163.277 2.013 5.52044 0
M  V30 1888 H 164.801 1.20506 5.98591 0
M  V30 1889 H 166.215 3.14019 4.79651 0
M  V30 1890 H 164.612 3.89644 4.56397 0
M  V30 1891 H 165.682 3.67054 3.16859 0
M  V30 1892 N 167.025 -1.13721 1.09112 0
M  V30 1893 C 168.273 -1.84559 0.823562 0
M  V30 1894 C 168.594 -1.83754 -0.652658 0
M  V30 1895 O 167.864 -1.29102 -1.47342 0
M  V30 1896 H 166.444 -0.683376 0.301673 0
M  V30 1897 H 169.106 -1.37771 1.37859 0
M  V30 1898 H 168.202 -2.8917 1.17419 0
M  V30 1899 N 168.503 -0.877838 -1.30888 0
M  V30 1900 C 169.45 -0.337538 -2.28318 0
M  V30 1901 C 170.42 0.568346 -1.56074 0
M  V30 1902 O 171.605 0.498298 -1.84178 0
M  V30 1903 C 168.745 0.448142 -3.42178 0
M  V30 1904 C 167.858 -0.48615 -4.29256 0
M  V30 1905 C 166.993 0.314427 -5.30269 0
M  V30 1906 C 166.032 -0.615791 -6.08995 0
M  V30 1907 N 165.169 0.14902 -7.01942 0
M  V30 1908 H 170.009 -1.17356 -2.73919 0
M  V30 1909 H 167.546 -0.590094 -1.34745 0
M  V30 1910 H 169.504 0.919517 -4.06941 0
M  V30 1911 H 168.134 1.24879 -2.97666 0
M  V30 1912 H 167.186 -1.076 -3.64865 0
M  V30 1913 H 168.498 -1.19909 -4.84173 0
M  V30 1914 H 167.652 0.847969 -6.00745 0
M  V30 1915 H 166.391 1.06062 -4.76027 0
M  V30 1916 H 165.396 -1.16102 -5.37401 0
M  V30 1917 H 166.621 -1.36097 -6.65323 0
M  V30 1918 H 164.567 0.877884 -6.50099 0
M  V30 1919 H 164.484 -0.504433 -7.54315 0
M  V30 1920 H 165.752 0.663537 -7.76671 0
M  V30 1921 N 169.982 1.44106 -0.638065 0
M  V30 1922 C 171.231 2.01194 -0.142744 0
M  V30 1923 C 171.544 1.50835 1.24532 0
M  V30 1924 O 172.75 2.00096 1.83504 0
M  V30 1925 C 171.206 3.59319 -0.20442 0
M  V30 1926 C 170.814 4.18674 -1.59423 0
M  V30 1927 C 172.558 4.23854 0.234079 0
M  V30 1928 C 170.465 5.69045 -1.61065 0
M  V30 1929 H 169.395 0.752367 -0.0495998 0
M  V30 1930 H 172.046 1.65246 -0.797881 0
M  V30 1931 H 170.428 3.92598 0.517946 0
M  V30 1932 H 171.602 3.96921 -2.34074 0
M  V30 1933 H 169.917 3.66453 -1.97741 0
M  V30 1934 H 172.514 5.34155 0.241443 0
M  V30 1935 H 172.857 3.96688 1.2627 0
M  V30 1936 H 173.39 3.95403 -0.436025 0
M  V30 1937 H 170.129 6.00956 -2.61787 0
M  V30 1938 H 169.649 5.929 -0.90718 0
M  V30 1939 H 171.328 6.32809 -1.34766 0
M  V30 1940 N 171.46 0.379036 1.52974 0
M  V30 1941 C 172.709 -0.207612 2.00629 0
M  V30 1942 C 173.022 -1.48758 1.27006 0
M  V30 1943 O 174.228 -2.15365 1.65318 0
M  V30 1944 C 172.684 -0.42053 3.57435 0
M  V30 1945 C 172.292 0.845587 4.39948 0
M  V30 1946 C 174.036 -0.964102 4.13407 0
M  V30 1947 C 171.943 0.601513 5.88333 0
M  V30 1948 H 170.873 -0.0813591 0.749598 0
M  V30 1949 H 173.524 0.499853 1.76561 0
M  V30 1950 H 171.906 -1.18959 3.7771 0
M  V30 1951 H 173.08 1.61848 4.31442 0
M  V30 1952 H 171.395 1.31336 3.95145 0
M  V30 1953 H 173.992 -1.16225 5.21916 0
M  V30 1954 H 174.335 -1.93019 3.68849 0
M  V30 1955 H 174.868 -0.25487 3.96983 0
M  V30 1956 H 171.607 1.53831 6.37194 0
M  V30 1957 H 171.127 -0.132628 5.99653 0
M  V30 1958 H 172.806 0.232134 6.46583 0
M  V30 1959 N 172.938 -1.57226 0.108567 0
M  V30 1960 C 173.886 -2.16002 -0.862885 0
M  V30 1961 C 174.88 -1.10644 -1.28274 0
M  V30 1962 O 176.086 -1.28966 -1.2557 0
M  V30 1963 H 172.461 -0.691148 -0.296342 0
M  V30 1964 H 174.432 -2.96427 -0.342575 0
M  V30 1965 C 173.181 -2.76576 -2.10716 0
M  V30 1966 H 172.504 -3.5734 -1.793 0
M  V30 1967 H 173.944 -3.21253 -2.76717 0
M  V30 1968 C 172.403 -1.73137 -2.89007 0
M  V30 1969 O 172.933 -1.17842 -3.84026 0
M  V30 1970 N 171.139 -1.43317 -2.52801 0
M  V30 1971 H 170.686 -1.88473 -1.75601 0
M  V30 1972 H 170.644 -0.743485 -3.05483 0
M  V30 1973 N 174.416 0.165178 -1.56732 0
M  V30 1974 C 175.646 0.894919 -1.86212 0
M  V30 1975 C 176.054 1.76066 -0.692627 0
M  V30 1976 O 175.397 1.80387 0.347303 0
M  V30 1977 C 175.459 1.8174 -3.10179 0
M  V30 1978 C 175.123 1.13064 -4.42793 0
M  V30 1979 C 176.12 0.493169 -5.17556 0
M  V30 1980 C 173.805 1.12556 -4.89527 0
M  V30 1981 C 175.799 -0.140209 -6.37246 0
M  V30 1982 C 173.486 0.488366 -6.09145 0
M  V30 1983 C 174.484 -0.143411 -6.82849 0
M  V30 1984 O 174.172 -0.77055 -8.00199 0
M  V30 1985 H 173.904 0.265114 -0.621844 0
M  V30 1986 H 176.458 0.168242 -2.0471 0
M  V30 1987 H 174.688 2.58455 -2.87642 0
M  V30 1988 H 176.377 2.4175 -3.26055 0
M  V30 1989 H 177.143 0.489023 -4.82528 0
M  V30 1990 H 173.022 1.60672 -4.32094 0
M  V30 1991 H 176.566 -0.633932 -6.94714 0
M  V30 1992 H 172.463 0.490116 -6.43637 0
M  V30 1993 H 173.231 -0.670408 -8.1575 0
M  V30 1994 N 175.894 1.51508 0.433938 0
M  V30 1995 C 177.141 1.64345 1.18309 0
M  V30 1996 C 177.469 0.361315 1.91115 0
M  V30 1997 O 176.724 -0.654753 1.84422 0
M  V30 1998 C 177.023 2.79928 2.22205 0
M  V30 1999 C 176.689 4.19078 1.66387 0
M  V30 2000 C 175.351 4.56932 1.50887 0
M  V30 2001 C 177.703 5.05894 1.25381 0
M  V30 2002 C 175.031 5.79305 0.928608 0
M  V30 2003 C 177.383 6.2885 0.687823 0
M  V30 2004 C 176.047 6.65473 0.519755 0
M  V30 2005 H 175.317 0.601381 0.432923 0
M  V30 2006 H 177.964 1.85549 0.473676 0
M  V30 2007 H 176.269 2.52959 2.99197 0
M  V30 2008 H 177.966 2.87059 2.79997 0
M  V30 2009 H 174.556 3.89234 1.79428 0
M  V30 2010 H 178.74 4.77253 1.36175 0
M  V30 2011 H 173.996 6.06324 0.786186 0
M  V30 2012 H 178.17 6.95461 0.361581 0
M  V30 2013 H 175.797 7.6017 0.0679979 0
M  V30 2014 N 177.372 -0.689602 1.41712 0
M  V30 2015 C 178.282 -1.83314 1.46401 0
M  V30 2016 C 179.298 -1.7036 0.35405 0
M  V30 2017 O 180.474 -1.92171 0.602692 0
M  V30 2018 C 177.539 -3.19344 1.34982 0
M  V30 2019 C 176.6 -3.44363 2.56344 0
M  V30 2020 C 175.833 -4.73904 2.45461 0
M  V30 2021 O 176.056 -5.508 1.48241 0
M  V30 2022 O 174.99 -4.99839 3.35328 0
M  V30 2023 H 178.816 -1.82314 2.42889 0
M  V30 2024 H 176.401 -0.843438 1.23315 0
M  V30 2025 H 178.283 -4.00547 1.3092 0
M  V30 2026 H 176.958 -3.21014 0.41612 0
M  V30 2027 H 175.865 -2.63067 2.65982 0
M  V30 2028 H 177.198 -3.47512 3.48563 0
M  V30 2029 N 178.85 -1.27639 -0.924453 0
M  V30 2030 C 179.798 -1.10485 -2.04685 0
M  V30 2031 C 180.792 -0.0270421 -1.69378 0
M  V30 2032 O 181.998 -0.185008 -1.79047 0
M  V30 2033 H 178.373 -0.340546 -0.670472 0
M  V30 2034 H 180.344 -2.05566 -2.16298 0
M  V30 2035 C 179.093 -0.772229 -3.39016 0
M  V30 2036 H 178.416 -1.59351 -3.66671 0
M  V30 2037 H 179.856 -0.692097 -4.18313 0
M  V30 2038 C 178.315 0.523554 -3.32807 0
M  V30 2039 O 178.845 1.55702 -3.70297 0
M  V30 2040 N 177.051 0.520363 -2.85903 0
M  V30 2041 H 176.598 -0.32107 -2.55591 0
M  V30 2042 H 176.556 1.38742 -2.82131 0
M  V30 2043 N 180.328 1.1314 -1.09713 0
M  V30 2044 C 181.558 1.88048 -0.855656 0
M  V30 2045 C 181.966 1.79537 0.596919 0
M  V30 2046 O 181.309 1.16196 1.42282 0
M  V30 2047 C 181.371 3.38314 -1.21589 0
M  V30 2048 C 181.035 3.70605 -2.67397 0
M  V30 2049 C 182.032 3.69596 -3.65643 0
M  V30 2050 C 179.717 4.0017 -3.03593 0
M  V30 2051 C 181.711 3.977 -4.9811 0
M  V30 2052 C 179.398 4.27935 -4.36251 0
M  V30 2053 C 180.396 4.26685 -5.33318 0
M  V30 2054 O 180.084 4.53767 -6.63589 0
M  V30 2055 H 179.816 0.60208 -0.307368 0
M  V30 2056 H 182.37 1.44128 -1.46343 0
M  V30 2057 H 180.6 3.82752 -0.551177 0
M  V30 2058 H 182.289 3.94552 -0.953083 0
M  V30 2059 H 183.055 3.46826 -3.39023 0
M  V30 2060 H 178.934 4.00289 -2.2867 0
M  V30 2061 H 182.478 3.9664 -5.73866 0
M  V30 2062 H 178.375 4.50178 -4.62613 0
M  V30 2063 H 179.143 4.71422 -6.69107 0
M  V30 2064 N 181.806 0.884767 1.30421 0
M  V30 2065 C 183.083 0.423185 1.90967 0
M  V30 2066 C 183.463 -1.09605 1.80416 0
M  V30 2067 O 182.811 -1.93126 1.22125 0
M  V30 2068 C 183.021 0.921056 3.36627 0
M  V30 2069 C 184.369 0.955903 4.137 0
M  V30 2070 O 185.393 0.867706 3.4547 0
M  V30 2071 O 184.252 1.08614 5.35598 0
M  V30 2072 H 181.346 0.129369 0.816819 0
M  V30 2073 H 183.892 0.973653 1.3899 0
M  V30 2074 H 182.664 1.96489 3.3839 0
M  V30 2075 H 182.287 0.349741 3.96059 0
M  V30 2076 N 183.284 -1.43765 0.645699 0
M  V30 2077 C 184.695 -1.85193 0.236719 0
M  V30 2078 C 185.046 -1.54045 -1.21509 0
M  V30 2079 O 184.171 -0.985694 -1.92647 0
M  V30 2080 C 184.766 -3.36151 0.422845 0
M  V30 2081 C 183.325 -3.76338 0.0682492 0
M  V30 2082 C 182.472 -2.67538 0.729306 0
M  V30 2083 H 185.423 -1.34025 0.849883 0
M  V30 2084 H 185.444 -3.79032 -0.333904 0
M  V30 2085 H 184.956 -3.5879 1.47958 0
M  V30 2086 H 183.057 -3.59312 -0.986179 0
M  V30 2087 H 183.17 -4.76603 0.488469 0
M  V30 2088 H 181.534 -2.54176 0.163235 0
M  V30 2089 H 182.317 -2.93006 1.78892 0
M  V30 2090 N 184.763 -0.387143 -1.52771 0
M  V30 2091 C 185.696 0.493123 -2.22808 0
M  V30 2092 C 186.674 1.0658 -1.22798 0
M  V30 2093 O 187.858 1.11785 -1.51777 0
M  V30 2094 C 184.985 1.68238 -2.93962 0
M  V30 2095 C 184.031 1.23515 -4.08223 0
M  V30 2096 S 184.864 0.21848 -5.35054 0
M  V30 2097 C 186.02 1.41357 -6.09729 0
M  V30 2098 H 186.253 -0.101625 -2.97126 0
M  V30 2099 H 183.786 -0.171323 -1.53447 0
M  V30 2100 H 185.744 2.36443 -3.35567 0
M  V30 2101 H 184.405 2.24842 -2.19328 0
M  V30 2102 H 183.598 2.12304 -4.57103 0
M  V30 2103 H 183.2 0.632044 -3.68621 0
M  V30 2104 H 185.492 2.34101 -6.3577 0
M  V30 2105 H 186.435 0.965736 -7.01484 0
M  V30 2106 H 186.843 1.6294 -5.40473 0
M  V30 2107 N 186.241 1.57166 -0.116904 0
M  V30 2108 C 187.518 1.86645 0.585049 0
M  V30 2109 C 187.898 1.0177 1.84949 0
M  V30 2110 O 187.246 0.0960379 2.28298 0
M  V30 2111 C 187.456 3.37736 0.879507 0
M  V30 2112 C 188.804 4.06289 1.23348 0
M  V30 2113 O 189.828 3.42743 0.969836 0
M  V30 2114 O 188.687 5.18455 1.7282 0
M  V30 2115 H 185.781 0.772593 0.295007 0
M  V30 2116 H 188.327 1.69025 -0.151249 0
M  V30 2117 H 187.099 3.91296 -0.0166136 0
M  V30 2118 H 186.722 3.6078 1.67103 0
M  V30 2119 N 187.719 -0.156864 1.56817 0
M  V30 2120 C 188.944 -0.890331 1.87318 0
M  V30 2121 C 189.369 -1.74394 0.704855 0
M  V30 2122 O 188.727 -1.77972 -0.345786 0
M  V30 2123 C 188.775 -1.73102 3.16336 0
M  V30 2124 O 187.879 -2.83422 2.99576 0
M  V30 2125 H 187.22 -0.24857 0.615718 0
M  V30 2126 H 189.75 -0.150649 2.04045 0
M  V30 2127 H 189.76 -2.12803 3.48107 0
M  V30 2128 H 188.435 -1.10412 4.00976 0
M  V30 2129 H 187.012 -2.47199 2.7919 0
M  V30 2130 N 189.197 -1.51736 -0.425897 0
M  V30 2131 C 190.443 -1.65214 -1.1761 0
M  V30 2132 C 190.776 -0.372778 -1.90589 0
M  V30 2133 O 190.051 0.628139 -1.84078 0
M  V30 2134 C 190.334 -2.86312 -2.18398 0
M  V30 2135 C 190.187 -4.24254 -1.49426 0
M  V30 2136 C 191.506 -3.02925 -3.19256 0
M  V30 2137 H 188.625 -0.601263 -0.426206 0
M  V30 2138 H 191.267 -1.8425 -0.463882 0
M  V30 2139 H 189.417 -2.70213 -2.79137 0
M  V30 2140 H 191.089 -4.52046 -0.919362 0
M  V30 2141 H 189.332 -4.26426 -0.796432 0
M  V30 2142 H 190.003 -5.05001 -2.22885 0
M  V30 2143 H 192.479 -3.1781 -2.68581 0
M  V30 2144 H 191.355 -3.89199 -3.8706 0
M  V30 2145 H 191.616 -2.15497 -3.86023 0
M  V30 2146 N 190.675 0.682077 -1.42076 0
M  V30 2147 C 191.638 1.77756 -1.44691 0
M  V30 2148 C 192.638 1.5726 -0.335535 0
M  V30 2149 O 193.828 1.63686 -0.596037 0
M  V30 2150 C 190.96 3.16301 -1.27146 0
M  V30 2151 H 192.153 1.76826 -2.42224 0
M  V30 2152 H 189.706 0.891012 -1.28416 0
M  V30 2153 H 190.441 3.22862 -0.305075 0
M  V30 2154 H 190.226 3.32581 -2.07683 0
M  V30 2155 H 191.716 3.96241 -1.31843 0
M  V30 2156 N 192.153 1.28127 0.917671 0
M  V30 2157 C 193.083 1.14248 2.03641 0
M  V30 2158 C 194.064 0.0412748 1.7005 0
M  V30 2159 O 195.249 0.217566 1.92977 0
M  V30 2160 C 192.379 0.799431 3.37974 0
M  V30 2161 C 191.333 1.85497 3.85713 0
M  V30 2162 C 190.659 1.36565 5.16966 0
M  V30 2163 C 191.959 3.26085 4.08002 0
M  V30 2164 H 193.653 2.07835 2.15511 0
M  V30 2165 H 191.199 1.00064 1.03553 0
M  V30 2166 H 193.152 0.689114 4.15727 0
M  V30 2167 H 191.876 -0.172145 3.26146 0
M  V30 2168 H 190.535 1.95437 3.10161 0
M  V30 2169 H 190.183 0.383253 5.01538 0
M  V30 2170 H 189.883 2.07143 5.49878 0
M  V30 2171 H 191.407 1.26848 5.97279 0
M  V30 2172 H 192.821 3.19089 4.76293 0
M  V30 2173 H 191.218 3.94462 4.52238 0
M  V30 2174 H 192.288 3.70394 3.12948 0
M  V30 2175 N 193.631 -1.12557 1.10312 0
M  V30 2176 C 194.579 -2.20325 0.745629 0
M  V30 2177 C 195.573 -1.67429 -0.25763 0
M  V30 2178 O 196.779 -1.79612 -0.118132 0
M  V30 2179 H 193.154 -0.718118 0.223182 0
M  V30 2180 H 195.125 -2.47733 1.66346 0
M  V30 2181 C 193.874 -3.47168 0.192262 0
M  V30 2182 H 193.197 -3.88215 0.955475 0
M  V30 2183 H 194.637 -4.23995 -0.0198274 0
M  V30 2184 C 193.096 -3.19298 -1.07472 0
M  V30 2185 O 193.626 -3.3891 -2.15645 0
M  V30 2186 N 191.832 -2.73113 -0.992847 0
M  V30 2187 H 191.379 -2.57354 -0.112474 0
M  V30 2188 H 191.337 -2.54842 -1.84127 0
M  V30 2189 N 195.109 -0.891671 -1.2995 0
M  V30 2190 C 196.337 -0.52866 -2.00032 0
M  V30 2191 C 196.752 0.884574 -1.66795 0
M  V30 2192 O 196.109 1.5827 -0.908669 0
M  V30 2193 C 196.16 -0.701814 -3.54622 0
M  V30 2194 O 195.881 -2.05942 -3.86678 0
M  V30 2195 C 197.382 -0.342683 -4.41973 0
M  V30 2196 H 194.602 -0.203659 -0.639347 0
M  V30 2197 H 197.146 -1.19881 -1.65677 0
M  V30 2198 H 195.301 -0.0789468 -3.8732 0
M  V30 2199 H 195.715 -2.08291 -4.81368 0
M  V30 2200 H 197.189 -0.514709 -5.49595 0
M  V30 2201 H 197.666 0.71975 -4.33262 0
M  V30 2202 H 198.272 -0.942154 -4.14733 0
M  V30 2203 N 196.587 1.43421 -0.653314 0
M  V30 2204 C 197.55 2.29182 0.0287951 0
M  V30 2205 C 198.55 1.42213 0.750465 0
M  V30 2206 O 199.74 1.63843 0.591701 0
M  V30 2207 C 196.872 3.24278 1.05151 0
M  V30 2208 H 198.065 2.90985 -0.725786 0
M  V30 2209 H 195.618 1.50702 -0.414545 0
M  V30 2210 H 196.353 2.6737 1.83532 0
M  V30 2211 H 196.138 3.88396 0.537687 0
M  V30 2212 H 197.628 3.88647 1.52786 0
M  V30 2213 N 198.065 0.39524 1.52563 0
M  V30 2214 C 199.295 -0.184675 2.05773 0
M  V30 2215 C 199.703 -1.40571 1.26635 0
M  V30 2216 O 199.046 -1.81105 0.30769 0
M  V30 2217 C 199.108 -0.613551 3.54226 0
M  V30 2218 C 198.772 0.49484 4.54313 0
M  V30 2219 C 199.769 1.3541 5.01956 0
M  V30 2220 C 197.454 0.663565 4.97898 0
M  V30 2221 C 199.448 2.36716 5.91814 0
M  V30 2222 C 197.135 1.67996 5.87555 0
M  V30 2223 C 198.133 2.53017 6.34406 0
M  V30 2224 O 197.821 3.52917 7.22291 0
M  V30 2225 H 197.553 -0.030077 0.675331 0
M  V30 2226 H 200.107 0.560708 1.97599 0
M  V30 2227 H 198.337 -1.411 3.60038 0
M  V30 2228 H 200.026 -1.11981 3.90148 0
M  V30 2229 H 200.792 1.23509 4.6901 0
M  V30 2230 H 196.671 0.0114913 4.60999 0
M  V30 2231 H 200.215 3.03113 6.28306 0
M  V30 2232 H 196.112 1.79933 6.19915 0
M  V30 2233 H 196.88 3.48996 7.40367 0
M  V30 2234 N 199.544 -1.57102 0.125237 0
M  V30 2235 C 200.507 -2.14471 -0.80838 0
M  V30 2236 C 201.507 -1.0811 -1.19033 0
M  V30 2237 O 202.697 -1.33856 -1.11482 0
M  V30 2238 C 199.829 -2.69005 -2.09402 0
M  V30 2239 H 201.022 -2.98297 -0.309696 0
M  V30 2240 H 198.575 -1.55807 -0.124051 0
M  V30 2241 H 199.31 -1.88785 -2.63687 0
M  V30 2242 H 199.095 -3.46799 -1.82957 0
M  V30 2243 H 200.585 -3.13278 -2.76128 0
M  V30 2244 N 201.022 0.148545 -1.56898 0
M  V30 2245 C 202.252 0.875118 -1.8715 0
M  V30 2246 C 202.66 1.75322 -0.711262 0
M  V30 2247 O 202.003 1.80745 0.328151 0
M  V30 2248 C 202.065 1.7844 -3.12089 0
M  V30 2249 C 201.729 1.08361 -4.43967 0
M  V30 2250 C 202.726 0.438247 -5.1805 0
M  V30 2251 C 200.411 1.07358 -4.90693 0
M  V30 2252 C 202.405 -0.20779 -6.37061 0
M  V30 2253 C 200.092 0.42373 -6.09629 0
M  V30 2254 C 201.09 -0.215829 -6.82659 0
M  V30 2255 O 200.778 -0.855378 -7.99336 0
M  V30 2256 H 200.51 0.258504 -0.624621 0
M  V30 2257 H 203.064 0.14652 -2.04877 0
M  V30 2258 H 201.294 2.55389 -2.90367 0
M  V30 2259 H 202.983 2.38279 -3.286 0
M  V30 2260 H 203.749 0.437817 -4.8302 0
M  V30 2261 H 199.628 1.5608 -4.33774 0
M  V30 2262 H 203.172 -0.70758 -6.94002 0
M  V30 2263 H 199.069 0.421822 -6.4412 0
M  V30 2264 H 199.837 -0.756892 -8.14993 0
M  V30 2265 N 202.5 1.5196 0.417844 0
M  V30 2266 C 203.463 1.74065 1.49111 0
M  V30 2267 C 204.463 0.610537 1.48758 0
M  V30 2268 O 205.653 0.87832 1.50437 0
M  V30 2269 C 202.785 1.81502 2.88565 0
M  V30 2270 H 203.978 2.69869 1.30807 0
M  V30 2271 H 201.531 1.42244 0.647785 0
M  V30 2272 H 202.266 0.875813 3.1225 0
M  V30 2273 H 202.051 2.63651 2.90225 0
M  V30 2274 H 203.541 2.00376 3.66387 0
M  V30 2275 N 203.978 -0.674533 1.42435 0
M  V30 2276 C 205.206 -1.46283 1.46317 0
M  V30 2277 C 205.621 -1.88653 0.0745836 0
M  V30 2278 O 204.978 -1.58151 -0.91074 0
M  V30 2279 C 205.029 -2.71178 2.3905 0
M  V30 2280 O 204.75 -2.30586 3.72507 0
M  V30 2281 C 206.251 -3.64738 2.51955 0
M  V30 2282 H 203.471 -0.450104 0.497642 0
M  V30 2283 H 206.015 -0.828792 1.86953 0
M  V30 2284 H 204.17 -3.3077 2.01667 0
M  V30 2285 H 204.584 -3.11241 4.22172 0
M  V30 2286 H 206.058 -4.49096 3.20962 0
M  V30 2287 H 206.535 -4.10656 1.55752 0
M  V30 2288 H 207.141 -3.11038 2.90061 0
M  V30 2289 N 205.456 -1.28612 -0.910864 0
M  V30 2290 C 206.702 -1.16106 -1.66274 0
M  V30 2291 C 207.035 0.289113 -1.92036 0
M  V30 2292 O 206.31 1.21 -1.52281 0
M  V30 2293 C 206.593 -1.96309 -3.01885 0
M  V30 2294 C 206.446 -3.49405 -2.8326 0
M  V30 2295 C 207.765 -1.78076 -4.02463 0
M  V30 2296 H 204.884 -0.423152 -0.603417 0
M  V30 2297 H 207.526 -1.57961 -1.05586 0
M  V30 2298 H 205.676 -1.60742 -3.53687 0
M  V30 2299 H 207.348 -3.94894 -2.38446 0
M  V30 2300 H 205.591 -3.74893 -2.18261 0
M  V30 2301 H 206.262 -4.00784 -3.79574 0
M  V30 2302 H 208.738 -2.0912 -3.59733 0
M  V30 2303 H 207.614 -2.36561 -4.95308 0
M  V30 2304 H 207.875 -0.733008 -4.35981 0
M  V30 2305 N 206.934 1.1197 -1.10907 0
M  V30 2306 C 207.864 2.19928 -0.784473 0
M  V30 2307 C 208.845 1.6833 0.244726 0
M  V30 2308 O 210.03 1.93892 0.109418 0
M  V30 2309 C 207.16 3.46597 -0.220827 0
M  V30 2310 C 206.114 4.11376 -1.18127 0
M  V30 2311 C 205.44 5.32554 -0.478594 0
M  V30 2312 C 206.74 4.56945 -2.52979 0
M  V30 2313 H 208.434 2.47337 -1.68715 0
M  V30 2314 H 205.98 1.18879 -0.812642 0
M  V30 2315 H 207.933 4.21396 0.0184278 0
M  V30 2316 H 206.657 3.1863 0.717113 0
M  V30 2317 H 205.316 3.38564 -1.40606 0
M  V30 2318 H 204.964 5.00856 0.463976 0
M  V30 2319 H 204.664 5.76844 -1.11912 0
M  V30 2320 H 206.188 6.10096 -0.248 0
M  V30 2321 H 207.602 5.23093 -2.3462 0
M  V30 2322 H 205.999 5.1203 -3.12962 0
M  V30 2323 H 207.069 3.70676 -3.12614 0
M  V30 2324 N 208.412 0.89855 1.29475 0
M  V30 2325 C 209.64 0.539261 1.99749 0
M  V30 2326 C 210.055 -0.875716 1.67262 0
M  V30 2327 O 209.412 -1.57786 0.917049 0
M  V30 2328 C 209.463 0.72061 3.54245 0
M  V30 2329 O 209.184 2.07989 3.8558 0
M  V30 2330 C 210.685 0.366118 4.41786 0
M  V30 2331 H 207.905 0.207047 0.638258 0
M  V30 2332 H 210.449 1.20758 1.65039 0
M  V30 2333 H 208.604 0.0994862 3.87272 0
M  V30 2334 H 209.018 2.10841 4.80257 0
M  V30 2335 H 210.492 0.543848 5.49314 0
M  V30 2336 H 210.969 -0.696763 4.33638 0
M  V30 2337 H 211.575 0.964135 4.14228 0
M  V30 2338 N 209.89 -1.43072 0.660911 0
M  V30 2339 C 211.137 -2.01721 0.177445 0
M  V30 2340 C 211.465 -1.5218 -1.21126 0
M  V30 2341 O 210.72 -0.708659 -1.82419 0
M  V30 2342 C 211.019 -3.57103 0.145563 0
M  V30 2343 C 210.685 -4.26021 1.47705 0
M  V30 2344 C 209.347 -4.44563 1.84165 0
M  V30 2345 C 211.699 -4.64983 2.35458 0
M  V30 2346 C 209.027 -4.99334 3.0803 0
M  V30 2347 C 211.379 -5.21127 3.58622 0
M  V30 2348 C 210.043 -5.37884 3.95268 0
M  V30 2349 H 209.313 -0.73815 0.0649317 0
M  V30 2350 H 211.96 -1.71446 0.853144 0
M  V30 2351 H 210.265 -3.86965 -0.61361 0
M  V30 2352 H 211.962 -4.00248 -0.2455 0
M  V30 2353 H 208.552 -4.11939 1.18339 0
M  V30 2354 H 212.736 -4.50343 2.08579 0
M  V30 2355 H 207.992 -5.10493 3.36462 0
M  V30 2356 H 212.166 -5.50262 4.26831 0
M  V30 2357 H 209.793 -5.80089 4.91325 0
M  V30 2358 N 211.368 -0.403325 -1.52352 0
M  V30 2359 C 212.608 0.173946 -2.03659 0
M  V30 2360 C 212.972 1.42869 -1.28267 0
M  V30 2361 O 214.173 2.08403 -1.69769 0
M  V30 2362 C 212.444 0.421478 -3.54906 0
M  V30 2363 S 214.003 0.967027 -4.28012 0
M  V30 2364 H 210.821 0.0477461 -0.709395 0
M  V30 2365 H 213.423 -0.554906 -1.87459 0
M  V30 2366 H 212.127 -0.498616 -4.0736 0
M  V30 2367 H 211.658 1.17837 -3.75337 0
M  V30 2368 H 213.673 2.24812 -4.4235 0
M  V30 2369 N 212.846 1.57033 -0.133567 0
M  V30 2370 C 214.074 2.00044 0.528195 0
M  V30 2371 C 214.489 1.01349 1.59291 0
M  V30 2372 O 213.846 0.00848369 1.82498 0
M  V30 2373 C 213.897 3.43018 1.1411 0
M  V30 2374 O 213.618 4.37939 0.11892 0
M  V30 2375 C 215.119 4.01237 1.88477 0
M  V30 2376 H 212.339 0.656517 0.138661 0
M  V30 2377 H 214.883 2.03267 -0.224196 0
M  V30 2378 H 213.038 3.40688 1.84418 0
M  V30 2379 H 213.452 5.21436 0.56613 0
M  V30 2380 H 214.926 5.03314 2.26669 0
M  V30 2381 H 215.403 3.41193 2.76558 0
M  V30 2382 H 216.009 4.07156 1.22898 0
M  V30 2383 N 214.325 -0.140222 1.56975 0
M  V30 2384 C 215.255 -1.17456 2.01808 0
M  V30 2385 C 216.236 -1.44415 0.898794 0
M  V30 2386 O 217.421 -1.5522 1.16707 0
M  V30 2387 C 214.551 -2.50607 2.40444 0
M  V30 2388 C 213.505 -2.38155 3.55621 0
M  V30 2389 C 212.831 -3.76078 3.80091 0
M  V30 2390 C 214.131 -1.85991 4.88062 0
M  V30 2391 H 215.825 -0.801743 2.88466 0
M  V30 2392 H 213.371 -0.38422 1.38779 0
M  V30 2393 H 215.324 -3.23197 2.7041 0
M  V30 2394 H 214.048 -2.89737 1.50732 0
M  V30 2395 H 212.707 -1.68016 3.25832 0
M  V30 2396 H 212.355 -4.12656 2.87618 0
M  V30 2397 H 212.055 -3.68606 4.57606 0
M  V30 2398 H 213.579 -4.50206 4.12488 0
M  V30 2399 H 214.993 -2.4838 5.16701 0
M  V30 2400 H 213.39 -1.89393 5.6943 0
M  V30 2401 H 214.46 -0.816023 4.77984 0
M  V30 2402 N 215.803 -1.52179 -0.40978 0
M  V30 2403 C 217.052 -1.65434 -1.15388 0
M  V30 2404 C 217.365 -0.390056 -1.91671 0
M  V30 2405 O 218.571 -0.402399 -2.68501 0
M  V30 2406 C 217.027 -2.92279 -2.10003 0
M  V30 2407 C 216.635 -4.25813 -1.39239 0
M  V30 2408 C 218.379 -3.14897 -2.84675 0
M  V30 2409 C 216.286 -5.43782 -2.32498 0
M  V30 2410 H 215.216 -0.616267 -0.434432 0
M  V30 2411 H 217.867 -1.78666 -0.418401 0
M  V30 2412 H 216.249 -2.72744 -2.871 0
M  V30 2413 H 217.423 -4.55828 -0.675099 0
M  V30 2414 H 215.738 -4.09292 -0.766097 0
M  V30 2415 H 218.335 -4.0021 -3.54593 0
M  V30 2416 H 218.678 -2.29103 -3.47588 0
M  V30 2417 H 219.211 -3.34901 -2.14677 0
M  V30 2418 H 215.95 -6.3192 -1.74233 0
M  V30 2419 H 215.47 -5.18106 -3.02201 0
M  V30 2420 H 217.149 -5.76834 -2.93038 0
M  V30 2421 N 217.281 0.66697 -1.42791 0
M  V30 2422 C 218.211 1.79218 -1.49677 0
M  V30 2423 C 219.192 1.66405 -0.352623 0
M  V30 2424 O 220.377 1.85708 -0.567993 0
M  V30 2425 C 217.507 3.17565 -1.40605 0
M  V30 2426 C 216.461 3.45124 -2.53127 0
M  V30 2427 C 215.787 4.83127 -2.29112 0
M  V30 2428 C 217.087 3.41236 -3.95418 0
M  V30 2429 H 218.781 1.73713 -2.43853 0
M  V30 2430 H 216.327 0.83432 -1.17367 0
M  V30 2431 H 218.28 3.96022 -1.44029 0
M  V30 2432 H 217.004 3.23767 -0.429271 0
M  V30 2433 H 215.663 2.69031 -2.49034 0
M  V30 2434 H 215.311 4.85988 -1.29709 0
M  V30 2435 H 215.011 5.02528 -3.04531 0
M  V30 2436 H 216.535 5.63859 -2.34297 0
M  V30 2437 H 217.949 4.09651 -4.01073 0
M  V30 2438 H 216.346 3.72173 -4.70752 0
M  V30 2439 H 217.416 2.39665 -4.21532 0
M  V30 2440 N 218.759 1.29093 0.90403 0
M  V30 2441 C 219.722 1.1386 1.98919 0
M  V30 2442 C 220.722 0.0753457 1.60623 0
M  V30 2443 O 221.912 0.321931 1.71199 0
M  V30 2444 C 219.044 0.740198 3.32767 0
M  V30 2445 H 220.237 2.10246 2.13861 0
M  V30 2446 H 217.79 1.12218 1.08797 0
M  V30 2447 H 218.525 -0.223997 3.23525 0
M  V30 2448 H 218.31 1.50838 3.61926 0
M  V30 2449 H 219.8 0.656546 4.12407 0
M  V30 2450 N 220.237 -1.11381 1.11499 0
M  V30 2451 C 221.486 -1.82494 0.858993 0
M  V30 2452 C 221.799 -1.85605 -0.617278 0
M  V30 2453 O 223.005 -2.52824 -0.989552 0
M  V30 2454 C 221.461 -3.27745 1.48699 0
M  V30 2455 C 221.069 -3.32961 2.99735 0
M  V30 2456 C 222.813 -4.03754 1.31085 0
M  V30 2457 C 220.72 -4.72612 3.55516 0
M  V30 2458 H 219.65 -0.683802 0.317696 0
M  V30 2459 H 222.301 -1.25331 1.34031 0
M  V30 2460 H 220.683 -3.84844 0.933339 0
M  V30 2461 H 221.857 -2.85741 3.61509 0
M  V30 2462 H 220.172 -2.70433 3.16631 0
M  V30 2463 H 222.769 -5.06891 1.70192 0
M  V30 2464 H 223.112 -4.15527 0.253496 0
M  V30 2465 H 223.645 -3.53043 1.83318 0
M  V30 2466 H 220.384 -4.66036 4.60967 0
M  V30 2467 H 219.904 -5.2024 2.98513 0
M  V30 2468 H 221.583 -5.4157 3.53992 0
M  V30 2469 N 221.715 -0.905404 -1.28997 0
M  V30 2470 C 222.645 -0.404212 -2.29975 0
M  V30 2471 C 223.626 0.523784 -1.61835 0
M  V30 2472 O 224.811 0.433298 -1.89304 0
M  V30 2473 C 221.941 0.364042 -3.45387 0
M  V30 2474 C 220.895 -0.474048 -4.25367 0
M  V30 2475 C 220.221 0.422045 -5.33032 0
M  V30 2476 C 221.521 -1.72696 -4.92923 0
M  V30 2477 H 223.215 -1.24807 -2.72146 0
M  V30 2478 H 220.761 -0.601585 -1.30832 0
M  V30 2479 H 222.714 0.725447 -4.15109 0
M  V30 2480 H 221.438 1.24174 -3.02074 0
M  V30 2481 H 220.097 -0.81786 -3.57361 0
M  V30 2482 H 219.745 1.29804 -4.85963 0
M  V30 2483 H 219.445 -0.135057 -5.87445 0
M  V30 2484 H 220.969 0.779517 -6.05604 0
M  V30 2485 H 222.383 -1.43495 -5.55051 0
M  V30 2486 H 220.78 -2.22582 -5.57295 0
M  V30 2487 H 221.85 -2.45964 -4.17887 0
M  V30 2488 N 223.193 1.4272 -0.668489 0
M  V30 2489 C 224.143 2.27971 0.0363806 0
M  V30 2490 C 225.127 1.40741 0.779794 0
M  V30 2491 O 226.319 1.64245 0.659745 0
M  V30 2492 C 223.448 3.28673 0.991398 0
M  V30 2493 C 222.534 4.23388 0.245658 0
M  V30 2494 N 222.925 5.00267 -0.746069 0
M  V30 2495 C 221.223 4.43355 0.484988 0
M  V30 2496 C 221.924 5.69396 -1.19009 0
M  V30 2497 N 220.9 5.41095 -0.521287 0
M  V30 2498 H 224.702 2.84833 -0.724394 0
M  V30 2499 H 222.216 1.54607 -0.497028 0
M  V30 2500 H 224.213 3.88543 1.51129 0
M  V30 2501 H 222.873 2.73373 1.75207 0
M  V30 2502 H 223.884 5.05525 -1.12537 0
M  V30 2503 H 220.561 3.99104 1.22565 0
M  V30 2504 H 221.951 6.41083 -2.01153 0
M  V30 2505 N 224.671 0.411399 1.52136 0
M  V30 2506 C 225.621 -0.430376 2.23901 0
M  V30 2507 C 226.605 -1.0116 1.25121 0
M  V30 2508 O 227.797 -0.934044 1.50348 0
M  V30 2509 C 224.926 -1.54527 3.06556 0
M  V30 2510 C 224.012 -0.9747 4.12747 0
M  V30 2511 N 224.403 -0.130991 5.0563 0
M  V30 2512 C 222.701 -1.24497 4.28271 0
M  V30 2513 C 223.402 0.186689 5.814 0
M  V30 2514 N 222.378 -0.42304 5.41951 0
M  V30 2515 H 226.18 0.220509 2.93072 0
M  V30 2516 H 223.694 0.221952 1.60876 0
M  V30 2517 H 225.691 -2.16093 3.56524 0
M  V30 2518 H 224.351 -2.19875 2.38925 0
M  V30 2519 H 225.362 0.23349 5.17373 0
M  V30 2520 H 222.039 -1.89787 3.7187 0
M  V30 2521 H 223.429 0.871673 6.66222 0
M  V30 2522 N 226.149 -1.5696 0.141893 0
M  V30 2523 C 227.079 -2.19516 -0.795936 0
M  V30 2524 C 228.06 -1.14187 -1.26077 0
M  V30 2525 O 229.245 -1.42511 -1.31925 0
M  V30 2526 C 226.375 -2.81272 -2.03723 0
M  V30 2527 C 225.329 -3.92384 -1.70936 0
M  V30 2528 C 224.655 -4.41052 -3.02287 0
M  V30 2529 C 225.955 -5.13403 -0.959954 0
M  V30 2530 H 227.649 -2.98138 -0.274596 0
M  V30 2531 H 225.195 -1.43406 -0.130636 0
M  V30 2532 H 227.148 -3.237 -2.69808 0
M  V30 2533 H 225.872 -1.99973 -2.58221 0
M  V30 2534 H 224.531 -3.50566 -1.07232 0
M  V30 2535 H 224.179 -3.56582 -3.54765 0
M  V30 2536 H 223.879 -5.15993 -2.81114 0
M  V30 2537 H 225.403 -4.86146 -3.69451 0
M  V30 2538 H 226.817 -5.52706 -1.52279 0
M  V30 2539 H 225.214 -5.94073 -0.848357 0
M  V30 2540 H 226.284 -4.84875 0.0492434 0
M  V30 2541 N 227.627 0.131896 -1.57047 0
M  V30 2542 C 228.857 0.855219 -1.88068 0
M  V30 2543 C 229.265 1.74557 -0.729817 0
M  V30 2544 O 228.608 1.81083 0.308962 0
M  V30 2545 C 228.67 1.75119 -3.13964 0
M  V30 2546 C 228.334 1.03646 -4.45091 0
M  V30 2547 C 229.331 0.383276 -5.18485 0
M  V30 2548 C 227.016 1.02148 -4.91804 0
M  V30 2549 C 229.01 -0.275347 -6.36805 0
M  V30 2550 C 226.697 0.359047 -6.10044 0
M  V30 2551 C 227.695 -0.288222 -6.82392 0
M  V30 2552 O 227.383 -0.94011 -7.98384 0
M  V30 2553 H 227.115 0.251864 -0.627328 0
M  V30 2554 H 229.669 0.124782 -2.05021 0
M  V30 2555 H 227.899 2.52295 -2.9306 0
M  V30 2556 H 229.588 2.3478 -3.31109 0
M  V30 2557 H 230.354 0.386562 -4.83457 0
M  V30 2558 H 226.233 1.5147 -4.35405 0
M  V30 2559 H 229.777 -0.781148 -6.93213 0
M  V30 2560 H 225.674 0.35348 -6.44531 0
M  V30 2561 H 226.442 -0.84329 -8.14144 0
M  V30 2562 N 229.106 1.52395 0.401703 0
M  V30 2563 C 230.353 1.66817 1.14796 0
M  V30 2564 C 230.681 0.401772 1.90305 0
M  V30 2565 O 229.936 -0.615487 1.85769 0
M  V30 2566 C 230.235 2.84578 2.16217 0
M  V30 2567 C 229.901 4.22513 1.5746 0
M  V30 2568 C 228.563 4.60029 1.41161 0
M  V30 2569 C 230.915 5.0844 1.14622 0
M  V30 2570 C 228.243 5.81144 0.80552 0
M  V30 2571 C 230.595 6.30167 0.55428 0
M  V30 2572 C 229.259 6.66426 0.378482 0
M  V30 2573 H 228.529 0.610428 0.420069 0
M  V30 2574 H 231.176 1.86512 0.434212 0
M  V30 2575 H 229.481 2.59248 2.93764 0
M  V30 2576 H 231.178 2.92933 2.73845 0
M  V30 2577 H 227.768 3.92953 1.71132 0
M  V30 2578 H 231.952 4.80034 1.26021 0
M  V30 2579 H 227.208 6.07855 0.657399 0
M  V30 2580 H 231.382 6.96071 0.213983 0
M  V30 2581 H 229.009 7.60143 -0.0932606 0
M  V30 2582 N 230.584 -0.659388 1.43143 0
M  V30 2583 C 231.814 -1.44513 1.47646 0
M  V30 2584 C 232.222 -1.88981 0.0910095 0
M  V30 2585 O 231.565 -1.59702 -0.907789 0
M  V30 2586 C 231.627 -2.71663 2.35456 0
M  V30 2587 C 231.291 -2.49175 3.83094 0
M  V30 2588 C 232.288 -2.1279 4.74359 0
M  V30 2589 C 229.973 -2.63691 4.27519 0
M  V30 2590 C 231.967 -1.9121 6.08044 0
M  V30 2591 C 229.654 -2.41726 5.61259 0
M  V30 2592 C 230.652 -2.0554 6.51339 0
M  V30 2593 O 230.34 -1.838 7.82606 0
M  V30 2594 H 230.072 -0.45064 0.503884 0
M  V30 2595 H 232.626 -0.816248 1.88485 0
M  V30 2596 H 230.856 -3.37089 1.89493 0
M  V30 2597 H 232.545 -3.33595 2.31235 0
M  V30 2598 H 233.311 -2.01157 4.41317 0
M  V30 2599 H 229.19 -2.90832 3.57684 0
M  V30 2600 H 232.734 -1.62889 6.78316 0
M  V30 2601 H 228.631 -2.52959 5.9387 0
M  V30 2602 H 229.399 -1.98275 7.94122 0
M  V30 2603 N 232.062 -1.29571 -0.897171 0
M  V30 2604 C 233.012 -1.11539 -1.98855 0
M  V30 2605 C 233.996 -0.0340716 -1.60864 0
M  V30 2606 O 235.188 -0.256062 -1.75138 0
M  V30 2607 C 232.317 -0.796603 -3.3393 0
M  V30 2608 C 231.403 -1.91758 -3.78272 0
M  V30 2609 N 231.794 -3.16143 -3.94826 0
M  V30 2610 C 230.092 -1.81119 -4.07568 0
M  V30 2611 C 230.793 -3.89293 -4.32233 0
M  V30 2612 N 229.769 -3.17255 -4.41419 0
M  V30 2613 H 233.571 -2.05894 -2.09726 0
M  V30 2614 H 231.085 -1.20732 -1.08616 0
M  V30 2615 H 233.082 -0.648459 -4.11826 0
M  V30 2616 H 231.742 0.139003 -3.24402 0
M  V30 2617 H 232.753 -3.5157 -3.80288 0
M  V30 2618 H 229.43 -0.948461 -4.06584 0
M  V30 2619 H 230.82 -4.9635 -4.52865 0
M  V30 2620 N 233.54 1.10788 -1.12088 0
M  V30 2621 C 234.786 1.82942 -0.875226 0
M  V30 2622 C 235.119 1.84779 0.597538 0
M  V30 2623 O 234.394 1.30578 1.44152 0
M  V30 2624 C 234.677 3.29789 -1.44606 0
M  V30 2625 C 234.53 3.36307 -2.98693 0
M  V30 2626 C 235.849 4.26064 -1.10261 0
M  V30 2627 H 232.968 0.664195 -0.319397 0
M  V30 2628 H 235.61 1.29867 -1.38689 0
M  V30 2629 H 233.76 3.75118 -1.01089 0
M  V30 2630 H 235.432 2.99487 -3.50864 0
M  V30 2631 H 233.675 2.76318 -3.34411 0
M  V30 2632 H 234.346 4.39694 -3.33726 0
M  V30 2633 H 236.822 3.88951 -1.4784 0
M  V30 2634 H 235.698 5.27183 -1.52869 0
M  V30 2635 H 235.959 4.42098 -0.0142953 0
M  V30 2636 N 235.018 0.912232 1.28515 0
M  V30 2637 C 235.95 0.35676 2.26406 0
M  V30 2638 C 236.963 -0.503933 1.54804 0
M  V30 2639 O 238.152 -0.319059 1.75625 0
M  V30 2640 C 235.252 -0.508825 3.35058 0
M  V30 2641 C 234.425 0.329007 4.36161 0
M  V30 2642 C 233.484 -0.471422 5.24084 0
M  V30 2643 O 232.51 0.115482 5.69083 0
M  V30 2644 N 233.712 -1.77479 5.52704 0
M  V30 2645 H 236.477 1.19818 2.74707 0
M  V30 2646 H 234.038 0.778022 1.4198 0
M  V30 2647 H 236.03 -1.051 3.90815 0
M  V30 2648 H 234.6 -1.25095 2.86478 0
M  V30 2649 H 233.82 1.05256 3.79888 0
M  V30 2650 H 235.108 0.90234 5.00735 0
M  V30 2651 H 234.506 -2.27417 5.17975 0
M  V30 2652 H 233.063 -2.26382 6.11224 0
M  V30 2653 N 236.496 -1.42363 0.676048 0
M  V30 2654 C 237.736 -2.03392 0.20273 0
M  V30 2655 C 238.1 -1.52306 -1.16906 0
M  V30 2656 O 239.301 -2.05129 -1.73711 0
M  V30 2657 C 237.572 -3.56614 0.236947 0
M  V30 2658 S 239.131 -4.38489 -0.165186 0
M  V30 2659 H 235.949 -0.70611 0.0832418 0
M  V30 2660 H 238.551 -1.74093 0.88948 0
M  V30 2661 H 237.255 -3.91293 1.23767 0
M  V30 2662 H 236.786 -3.90587 -0.469596 0
M  V30 2663 H 238.801 -4.76093 -1.39822 0
M  V30 2664 N 237.974 -0.419461 -1.51915 0
M  V30 2665 C 238.937 0.389116 -2.25873 0
M  V30 2666 C 239.937 0.964924 -1.28631 0
M  V30 2667 O 241.127 0.842179 -1.52489 0
M  V30 2668 C 238.259 1.54874 -3.03689 0
M  V30 2669 H 239.452 -0.258799 -2.98781 0
M  V30 2670 H 237.005 -0.172209 -1.55348 0
M  V30 2671 H 237.74 2.23323 -2.35154 0
M  V30 2672 H 237.525 1.14223 -3.75094 0
M  V30 2673 H 239.015 2.12046 -3.59759 0
M  V30 2674 N 239.452 1.56882 -0.150215 0
M  V30 2675 C 240.7 1.9584 0.499105 0
M  V30 2676 C 241.021 1.03623 1.65188 0
M  V30 2677 O 240.291 0.0984084 1.95653 0
M  V30 2678 H 238.871 0.723119 0.187373 0
M  V30 2679 H 241.533 1.9358 -0.226466 0
M  V30 2680 H 240.629 2.99638 0.873122 0
M  V30 2681 N 240.93 -0.123565 1.57115 0
M  V30 2682 C 241.863 -1.18202 1.95201 0
M  V30 2683 C 242.841 -1.40349 0.821031 0
M  V30 2684 O 244.025 -1.54578 1.07879 0
M  V30 2685 C 241.152 -2.53671 2.24429 0
M  V30 2686 C 240.198 -2.4798 3.46999 0
M  V30 2687 S 241.031 -1.92389 4.99747 0
M  V30 2688 C 242.187 -3.2954 5.32123 0
M  V30 2689 H 242.42 -0.857212 2.84674 0
M  V30 2690 H 239.953 -0.33014 1.50829 0
M  V30 2691 H 241.911 -3.3162 2.41947 0
M  V30 2692 H 240.572 -2.83332 1.35579 0
M  V30 2693 H 239.765 -3.47758 3.64801 0
M  V30 2694 H 239.367 -1.7815 3.28844 0
M  V30 2695 H 241.659 -4.25736 5.27025 0
M  V30 2696 H 242.602 -3.16569 6.33395 0
M  V30 2697 H 243.01 -3.27758 4.59603 0
M  V30 2698 N 242.408 -1.52605 -0.393616 0
M  V30 2699 C 243.824 -1.41753 -0.733357 0
M  V30 2700 C 244.024 -0.534293 -1.94287 0
M  V30 2701 O 243.08 -0.0059787 -2.52499 0
M  V30 2702 C 244.393 -2.84531 -0.972772 0
M  V30 2703 C 245.941 -2.93978 -1.07453 0
M  V30 2704 C 246.416 -4.37756 -1.3466 0
M  V30 2705 N 247.907 -4.4106 -1.41492 0
M  V30 2706 C 248.642 -5.49387 -1.642 0
M  V30 2707 N 248.138 -6.67806 -1.8441 0
M  V30 2708 N 249.931 -5.36923 -1.66342 0
M  V30 2709 H 242.082 -2.08555 0.402328 0
M  V30 2710 H 244.345 -0.940654 0.117789 0
M  V30 2711 H 244.051 -3.51353 -0.156204 0
M  V30 2712 H 243.925 -3.26508 -1.88871 0
M  V30 2713 H 246.312 -2.27326 -1.88167 0
M  V30 2714 H 246.393 -2.55435 -0.136605 0
M  V30 2715 H 246.037 -5.04972 -0.544581 0
M  V30 2716 H 245.967 -4.73848 -2.2973 0
M  V30 2717 H 248.458 -3.55705 -1.27601 0
M  V30 2718 H 248.771 -7.46141 -2.01231 0
M  V30 2719 H 247.116 -6.70843 -1.81644 0
M  V30 2720 H 250.307 -4.43381 -1.50102 0
M  V30 2721 H 250.48 -6.21416 -1.837 0
M  V30 2722 N 243.887 0.651787 -1.4349 0
M  V30 2723 C 244.817 1.77621 -1.51569 0
M  V30 2724 C 245.798 1.66022 -0.370253 0
M  V30 2725 O 246.983 1.85095 -0.587658 0
M  V30 2726 C 244.113 3.16056 -1.43966 0
M  V30 2727 C 243.067 3.4242 -2.56774 0
M  V30 2728 C 242.393 4.8067 -2.34223 0
M  V30 2729 C 243.693 3.37023 -3.99015 0
M  V30 2730 H 245.387 1.71117 -2.45681 0
M  V30 2731 H 242.933 0.821825 -1.18246 0
M  V30 2732 H 244.886 3.94472 -1.48221 0
M  V30 2733 H 243.61 3.23293 -0.463586 0
M  V30 2734 H 242.269 2.66375 -2.51873 0
M  V30 2735 H 241.917 4.84585 -1.34856 0
M  V30 2736 H 241.617 4.9927 -3.09844 0
M  V30 2737 H 243.141 5.61342 -2.40265 0
M  V30 2738 H 244.555 4.05374 -4.05395 0
M  V30 2739 H 242.952 3.67159 -4.74673 0
M  V30 2740 H 244.022 2.3518 -4.2405 0
M  V30 2741 N 245.365 1.30045 0.890287 0
M  V30 2742 C 246.781 1.08261 1.17268 0
M  V30 2743 C 246.981 -0.160063 2.00863 0
M  V30 2744 O 246.037 -0.855181 2.37577 0
M  V30 2745 C 247.35 2.34323 1.8845 0
M  V30 2746 C 248.898 2.39735 2.01237 0
M  V30 2747 C 249.373 3.65625 2.7583 0
M  V30 2748 N 250.864 3.66402 2.83379 0
M  V30 2749 C 251.599 4.60498 3.41657 0
M  V30 2750 N 251.095 5.64933 4.01026 0
M  V30 2751 N 252.888 4.48051 3.39421 0
M  V30 2752 H 245.039 2.09777 0.332762 0
M  V30 2753 H 247.302 0.92446 0.209948 0
M  V30 2754 H 247.008 3.2498 1.34465 0
M  V30 2755 H 246.882 2.4256 2.88867 0
M  V30 2756 H 249.269 1.4956 2.54393 0
M  V30 2757 H 249.35 2.35476 0.999232 0
M  V30 2758 H 248.994 4.56156 2.23347 0
M  V30 2759 H 248.924 3.67144 3.77509 0
M  V30 2760 H 251.415 2.90896 2.41222 0
M  V30 2761 H 251.728 6.32841 4.43545 0
M  V30 2762 H 250.073 5.68732 3.99461 0
M  V30 2763 H 253.264 3.65649 2.92264 0
M  V30 2764 H 253.437 5.21565 3.84544 0
M  V30 2765 N 246.843 -1.10192 1.12674 0
M  V30 2766 C 248.089 -1.82475 0.884915 0
M  V30 2767 C 248.422 -1.85093 -0.58773 0
M  V30 2768 O 247.697 -1.3134 -1.43457 0
M  V30 2769 C 247.98 -3.29018 1.46353 0
M  V30 2770 C 247.833 -3.34718 3.00473 0
M  V30 2771 C 249.152 -4.25473 1.12519 0
M  V30 2772 H 246.271 -0.662492 0.322915 0
M  V30 2773 H 248.913 -1.2913 1.39375 0
M  V30 2774 H 247.063 -3.74576 1.03077 0
M  V30 2775 H 248.735 -2.97622 3.52447 0
M  V30 2776 H 246.978 -2.74541 3.35872 0
M  V30 2777 H 247.649 -4.37918 3.36053 0
M  V30 2778 H 250.125 -3.88161 1.499 0
M  V30 2779 H 249.001 -5.26365 1.55663 0
M  V30 2780 H 249.262 -4.42084 0.0377407 0
M  V30 2781 N 248.321 -0.919034 -1.28029 0
M  V30 2782 C 249.284 -0.416182 -2.2539 0
M  V30 2783 C 250.284 0.460438 -1.54067 0
M  V30 2784 O 251.474 0.262744 -1.72207 0
M  V30 2785 C 248.606 0.402707 -3.38513 0
M  V30 2786 H 249.799 -1.27629 -2.71387 0
M  V30 2787 H 247.352 -0.698919 -1.39803 0
M  V30 2788 H 248.087 1.282 -2.97885 0
M  V30 2789 H 247.872 -0.225698 -3.9145 0
M  V30 2790 H 249.362 0.745191 -4.10897 0
M  V30 2791 N 249.799 1.42003 -0.683588 0
M  V30 2792 C 250.732 2.28166 0.039592 0
M  V30 2793 C 251.71 1.41562 0.799942 0
M  V30 2794 O 252.894 1.70997 0.793248 0
M  V30 2795 C 250.021 3.21575 1.06335 0
M  V30 2796 C 249.067 4.24643 0.397562 0
M  V30 2797 S 249.9 5.2869 -0.851296 0
M  V30 2798 C 251.056 6.25666 0.171166 0
M  V30 2799 H 251.289 2.89153 -0.691229 0
M  V30 2800 H 248.822 1.46962 -0.473435 0
M  V30 2801 H 250.78 3.75928 1.6489 0
M  V30 2802 H 249.441 2.59707 1.76667 0
M  V30 2803 H 248.634 4.90223 1.17035 0
M  V30 2804 H 248.236 3.73824 -0.114611 0
M  V30 2805 H 250.528 6.69653 1.02819 0
M  V30 2806 H 251.471 7.06666 -0.450397 0
M  V30 2807 H 251.879 5.62095 0.520578 0
M  V30 2808 N 251.277 0.427512 1.51691 0
M  V30 2809 C 252.517 -0.141524 2.03909 0
M  V30 2810 C 252.881 -1.40811 1.30523 0
M  V30 2811 O 254.082 -2.05676 1.73063 0
M  V30 2812 C 252.353 -0.364962 3.55532 0
M  V30 2813 S 253.912 -0.898812 4.29496 0
M  V30 2814 H 250.73 -0.0364542 0.710065 0
M  V30 2815 H 253.332 0.584659 1.86553 0
M  V30 2816 H 252.036 0.56336 4.06515 0
M  V30 2817 H 251.567 -1.1185 3.77164 0
M  V30 2818 H 253.582 -2.17747 4.45871 0
M  V30 2819 N 252.755 -1.56801 0.158532 0
M  V30 2820 C 253.705 -2.13923 -0.788738 0
M  V30 2821 C 254.689 -1.07006 -1.2016 0
M  V30 2822 O 255.881 -1.33159 -1.1661 0
M  V30 2823 C 253.01 -2.77348 -2.02319 0
M  V30 2824 C 252.096 -3.91404 -1.6329 0
M  V30 2825 N 252.487 -4.9677 -0.951463 0
M  V30 2826 C 250.785 -4.02326 -1.92482 0
M  V30 2827 C 251.486 -5.76698 -0.761221 0
M  V30 2828 N 250.462 -5.27859 -1.29869 0
M  V30 2829 H 254.264 -2.92757 -0.258995 0
M  V30 2830 H 251.778 -1.62344 -0.0426055 0
M  V30 2831 H 253.775 -3.16639 -2.71192 0
M  V30 2832 H 252.435 -1.99991 -2.558 0
M  V30 2833 H 253.446 -5.14284 -0.610928 0
M  V30 2834 H 250.123 -3.36059 -2.47732 0
M  V30 2835 H 251.513 -6.71529 -0.223284 0
M  V30 2836 N 254.233 0.115231 -1.57178 0
M  V30 2837 C 255.166 1.17166 -1.95825 0
M  V30 2838 C 256.144 1.39912 -0.828463 0
M  V30 2839 O 257.328 1.54004 -1.08697 0
M  V30 2840 C 254.455 2.52478 -2.25771 0
M  V30 2841 C 253.501 2.46136 -3.48309 0
M  V30 2842 S 254.334 1.89736 -5.0076 0
M  V30 2843 C 255.49 3.26713 -5.33863 0
M  V30 2844 H 255.723 0.842103 -2.85124 0
M  V30 2845 H 253.256 0.322136 -1.51002 0
M  V30 2846 H 255.214 3.30332 -2.43702 0
M  V30 2847 H 253.875 2.82609 -1.37079 0
M  V30 2848 H 253.068 3.45819 -3.66641 0
M  V30 2849 H 252.67 1.76404 -3.29784 0
M  V30 2850 H 254.962 4.22935 -5.29275 0
M  V30 2851 H 255.905 3.13205 -6.35065 0
M  V30 2852 H 256.313 3.25316 -4.61335 0
M  V30 2853 N 255.711 1.52812 0.385517 0
M  V30 2854 C 256.96 1.67249 1.12741 0
M  V30 2855 C 257.273 0.4205 1.91027 0
M  V30 2856 O 258.479 0.445064 2.67827 0
M  V30 2857 C 256.935 2.95583 2.05326 0
M  V30 2858 C 256.543 4.27974 1.32447 0
M  V30 2859 C 258.287 3.19386 2.7963 0
M  V30 2860 C 256.194 5.47412 2.23818 0
M  V30 2861 H 255.124 0.6231 0.424573 0
M  V30 2862 H 257.775 1.79309 0.389924 0
M  V30 2863 H 256.157 2.77277 2.82725 0
M  V30 2864 H 257.331 4.56844 0.602495 0
M  V30 2865 H 255.646 4.10459 0.700885 0
M  V30 2866 H 258.243 4.05801 3.48181 0
M  V30 2867 H 258.586 2.34604 3.43899 0
M  V30 2868 H 259.119 3.38274 2.09322 0
M  V30 2869 H 255.858 6.34612 1.64157 0
M  V30 2870 H 255.378 5.22849 2.93921 0
M  V30 2871 H 257.057 5.81423 2.83824 0
M  V30 2872 N 257.189 -0.644168 1.43834 0
M  V30 2873 C 258.419 -1.42939 1.49171 0
M  V30 2874 C 258.827 -1.88874 0.111048 0
M  V30 2875 O 258.17 -1.60656 -0.8908 0
M  V30 2876 C 258.232 -2.69151 2.38324 0
M  V30 2877 C 257.896 -2.45097 3.85715 0
M  V30 2878 C 258.893 -2.07747 4.76589 0
M  V30 2879 C 256.578 -2.59141 4.30292 0
M  V30 2880 C 258.572 -1.8475 6.10038 0
M  V30 2881 C 256.259 -2.35759 5.63792 0
M  V30 2882 C 257.257 -1.9862 6.53482 0
M  V30 2883 O 256.945 -1.75489 7.84512 0
M  V30 2884 H 256.677 -0.445271 0.508635 0
M  V30 2885 H 259.231 -0.79621 1.8934 0
M  V30 2886 H 257.461 -3.3506 1.93058 0
M  V30 2887 H 259.15 -3.31123 2.3476 0
M  V30 2888 H 259.916 -1.96465 4.43426 0
M  V30 2889 H 255.795 -2.87022 3.60749 0
M  V30 2890 H 259.339 -1.55686 6.80006 0
M  V30 2891 H 255.236 -2.46646 5.9652 0
M  V30 2892 H 256.004 -1.89841 7.9618 0
M  V30 2893 N 258.668 -1.30515 -0.883378 0
M  V30 2894 C 260.084 -1.08881 -1.16692 0
M  V30 2895 C 260.284 0.149409 -2.00945 0
M  V30 2896 O 259.34 0.84257 -2.38027 0
M  V30 2897 C 260.653 -2.35319 -1.87204 0
M  V30 2898 C 262.201 -2.40799 -1.99962 0
M  V30 2899 C 262.676 -3.67083 -2.73887 0
M  V30 2900 N 264.167 -3.679 -2.81432 0
M  V30 2901 C 264.902 -4.62303 -3.3921 0
M  V30 2902 N 264.398 -5.67052 -3.98025 0
M  V30 2903 N 266.191 -4.49845 -3.3704 0
M  V30 2904 H 258.342 -2.09951 -0.321633 0
M  V30 2905 H 260.605 -0.92556 -0.205043 0
M  V30 2906 H 260.311 -3.25689 -1.3274 0
M  V30 2907 H 260.185 -2.44089 -2.87577 0
M  V30 2908 H 262.572 -1.50907 -2.53597 0
M  V30 2909 H 262.653 -2.36003 -0.98673 0
M  V30 2910 H 262.297 -4.57334 -2.20925 0
M  V30 2911 H 262.227 -3.69141 -3.75556 0
M  V30 2912 H 264.718 -2.92171 -2.39676 0
M  V30 2913 H 265.031 -6.35184 -4.40183 0
M  V30 2914 H 263.376 -5.70842 -3.96439 0
M  V30 2915 H 266.567 -3.67194 -2.90321 0
M  V30 2916 H 266.74 -5.23597 -3.81772 0
M  V30 2917 N 260.146 1.09593 -1.13257 0
M  V30 2918 C 261.093 2.1618 -0.808381 0
M  V30 2919 C 262.063 1.64517 0.228754 0
M  V30 2920 O 263.248 1.9053 0.101381 0
M  V30 2921 C 260.388 3.43973 -0.278675 0
M  V30 2922 C 259.501 4.09545 -1.37466 0
M  V30 2923 C 258.636 5.25088 -0.803479 0
M  V30 2924 C 257.675 5.82579 -1.87799 0
M  V30 2925 N 256.812 6.89486 -1.32488 0
M  V30 2926 H 261.652 2.43254 -1.72138 0
M  V30 2927 H 259.189 1.19392 -0.859294 0
M  V30 2928 H 261.147 4.17174 0.0465583 0
M  V30 2929 H 259.777 3.17223 0.597459 0
M  V30 2930 H 258.829 3.34226 -1.81652 0
M  V30 2931 H 260.141 4.48307 -2.18684 0
M  V30 2932 H 259.295 6.05178 -0.429427 0
M  V30 2933 H 258.034 4.87684 0.0397956 0
M  V30 2934 H 257.039 5.01152 -2.26113 0
M  V30 2935 H 258.264 6.22045 -2.72463 0
M  V30 2936 H 256.21 6.54064 -0.503575 0
M  V30 2937 H 256.127 7.27007 -2.07355 0
M  V30 2938 H 257.395 7.73336 -0.978336 0
M  V30 2939 N 261.624 0.925811 1.2754 0
M  V30 2940 C 262.587 0.428129 2.25166 0
M  V30 2941 C 263.587 -0.452261 1.54309 0
M  V30 2942 O 264.777 -0.253608 1.72344 0
M  V30 2943 C 261.909 -0.384749 3.38722 0
M  V30 2944 H 263.102 1.29066 2.70706 0
M  V30 2945 H 260.655 0.706323 1.3943 0
M  V30 2946 H 261.39 -1.26618 2.98561 0
M  V30 2947 H 261.175 0.246454 3.91325 0
M  V30 2948 H 262.665 -0.723389 4.11287 0
M  V30 2949 N 263.102 -1.41638 0.69111 0
M  V30 2950 C 264.032 -2.3347 0.037248 0
M  V30 2951 C 265.013 -1.51575 -0.771947 0
M  V30 2952 O 266.198 -1.80126 -0.72582 0
M  V30 2953 C 263.328 -3.35354 -0.903064 0
M  V30 2954 C 262.282 -4.27526 -0.201288 0
M  V30 2955 C 261.608 -5.19747 -1.25565 0
M  V30 2956 C 262.908 -5.13959 0.929689 0
M  V30 2957 H 264.602 -2.88397 0.804227 0
M  V30 2958 H 262.148 -1.38669 0.388189 0
M  V30 2959 H 264.101 -3.98519 -1.36969 0
M  V30 2960 H 262.825 -2.78767 -1.70166 0
M  V30 2961 H 261.484 -3.65779 0.245265 0
M  V30 2962 H 261.132 -4.59479 -2.04666 0
M  V30 2963 H 260.832 -5.8225 -0.791128 0
M  V30 2964 H 262.356 -5.85789 -1.72288 0
M  V30 2965 H 263.77 -5.70718 0.543546 0
M  V30 2966 H 262.167 -5.85379 1.32103 0
M  V30 2967 H 263.237 -4.51389 1.77133 0
M  V30 2968 N 264.58 -0.43555 -1.51462 0
M  V30 2969 C 265.996 -0.0877501 -1.59359 0
M  V30 2970 C 266.196 1.4027 -1.4466 0
M  V30 2971 O 265.252 2.17243 -1.28693 0
M  V30 2972 C 266.565 -0.606264 -2.94525 0
M  V30 2973 C 268.113 -0.566548 -3.0783 0
M  V30 2974 C 268.588 -1.06201 -4.45517 0
M  V30 2975 N 270.079 -1.01992 -4.51832 0
M  V30 2976 C 270.814 -1.37417 -5.5669 0
M  V30 2977 N 270.31 -1.80119 -6.68976 0
M  V30 2978 N 272.103 -1.29245 -5.47039 0
M  V30 2979 H 264.254 -1.40533 -1.59261 0
M  V30 2980 H 266.517 -0.578992 -0.750648 0
M  V30 2981 H 266.223 -1.64901 -3.10645 0
M  V30 2982 H 266.097 -0.0302097 -3.77188 0
M  V30 2983 H 268.484 0.467208 -2.91378 0
M  V30 2984 H 268.565 -1.17898 -2.2701 0
M  V30 2985 H 268.209 -2.09422 -4.62715 0
M  V30 2986 H 268.139 -0.426127 -5.24873 0
M  V30 2987 H 270.63 -0.706308 -3.71241 0
M  V30 2988 H 270.943 -2.05392 -7.45006 0
M  V30 2989 H 269.288 -1.84044 -6.70189 0
M  V30 2990 H 272.479 -0.957522 -4.58202 0
M  V30 2991 H 272.652 -1.57182 -6.28648 0
M  V30 2992 N 266.058 1.56714 -0.166846 0
M  V30 2993 C 266.988 2.20754 0.760913 0
M  V30 2994 C 267.969 1.16178 1.24244 0
M  V30 2995 O 269.154 1.44592 1.29641 0
M  V30 2996 C 266.284 2.84478 1.99223 0
M  V30 2997 C 265.238 3.95053 1.64672 0
M  V30 2998 C 264.564 4.45805 2.95232 0
M  V30 2999 C 265.864 5.14865 0.878155 0
M  V30 3000 H 267.558 2.98537 0.22713 0
M  V30 3001 H 265.104 1.43596 0.107805 0
M  V30 3002 H 267.057 3.27951 2.64624 0
M  V30 3003 H 265.781 2.04056 2.55007 0
M  V30 3004 H 264.44 3.52228 1.01641 0
M  V30 3005 H 264.088 3.62181 3.49047 0
M  V30 3006 H 263.788 5.204 2.7287 0
M  V30 3007 H 265.312 4.91962 3.6167 0
M  V30 3008 H 266.726 5.55059 1.43466 0
M  V30 3009 H 265.123 5.95348 0.753738 0
M  V30 3010 H 266.193 4.84735 -0.126377 0
M  V30 3011 N 267.536 -0.106894 1.57237 0
M  V30 3012 C 268.761 -0.830287 1.90055 0
M  V30 3013 C 269.186 -1.72064 0.75998 0
M  V30 3014 O 268.544 -1.78982 -0.288991 0
M  V30 3015 C 268.592 -1.6295 3.21683 0
M  V30 3016 O 267.696 -2.73748 3.08441 0
M  V30 3017 H 267.037 -0.228855 0.623315 0
M  V30 3018 H 269.567 -0.085658 2.04421 0
M  V30 3019 H 269.577 -2.01621 3.54701 0
M  V30 3020 H 268.252 -0.975989 4.04286 0
M  V30 3021 H 266.829 -2.38192 2.86913 0
M  V30 3022 N 269.014 -1.53014 -0.377408 0
M  V30 3023 C 269.962 -1.7927 -1.48206 0
M  V30 3024 C 270.956 -0.661195 -1.55963 0
M  V30 3025 O 272.162 -0.843908 -1.58991 0
M  V30 3026 H 268.537 -0.567425 -0.493491 0
M  V30 3027 H 270.508 -2.71753 -1.2326 0
M  V30 3028 C 269.257 -1.98894 -2.85196 0
M  V30 3029 H 268.58 -2.85395 -2.79981 0
M  V30 3030 H 270.02 -2.21249 -3.61698 0
M  V30 3031 C 268.479 -0.764691 -3.28107 0
M  V30 3032 O 269.009 0.0523226 -4.01666 0
M  V30 3033 N 267.215 -0.591493 -2.84517 0
M  V30 3034 H 266.762 -1.25749 -2.24822 0
M  V30 3035 H 266.72 0.226253 -3.13585 0
M  V30 3036 N 270.492 0.636531 -1.44174 0
M  V30 3037 C 271.425 1.76139 -1.45087 0
M  V30 3038 C 272.403 1.59611 -0.310326 0
M  V30 3039 O 273.587 1.81568 -0.506477 0
M  V30 3040 C 270.714 3.13648 -1.27839 0
M  V30 3041 C 269.76 3.48838 -2.45386 0
M  V30 3042 S 270.593 3.46927 -4.07924 0
M  V30 3043 C 271.749 4.87064 -3.9309 0
M  V30 3044 H 271.982 1.75096 -2.40268 0
M  V30 3045 H 269.515 0.810666 -1.31406 0
M  V30 3046 H 271.473 3.93002 -1.18575 0
M  V30 3047 H 270.134 3.12235 -0.341787 0
M  V30 3048 H 269.327 4.48886 -2.29167 0
M  V30 3049 H 268.929 2.76935 -2.51362 0
M  V30 3050 H 271.221 5.76153 -3.56446 0
M  V30 3051 H 272.164 5.08337 -4.92949 0
M  V30 3052 H 272.572 4.61384 -3.25246 0
M  V30 3053 N 271.97 1.30982 0.876444 0
M  V30 3054 C 272.933 1.18054 1.96459 0
M  V30 3055 C 273.933 0.109399 1.60427 0
M  V30 3056 O 275.123 0.358173 1.70478 0
M  V30 3057 C 272.255 0.810616 3.31122 0
M  V30 3058 H 273.448 2.14735 2.09354 0
M  V30 3059 H 271.001 1.145 1.06392 0
M  V30 3060 H 271.736 -0.155322 3.23928 0
M  V30 3061 H 271.521 1.58481 3.58645 0
M  V30 3062 H 273.011 0.743876 4.10921 0
M  V30 3063 N 273.449 -1.08991 1.13837 0
M  V30 3064 C 274.382 -2.15049 0.763477 0
M  V30 3065 C 275.36 -1.60629 -0.252398 0
M  V30 3066 O 276.544 -1.87958 -0.142853 0
M  V30 3067 C 273.671 -3.38441 0.132545 0
M  V30 3068 C 272.717 -4.11596 1.11763 0
M  V30 3069 S 273.55 -4.6521 2.65216 0
M  V30 3070 C 274.706 -5.91896 2.03495 0
M  V30 3071 H 274.939 -2.46518 1.66182 0
M  V30 3072 H 272.472 -1.21008 0.958976 0
M  V30 3073 H 274.43 -4.09883 -0.225074 0
M  V30 3074 H 273.091 -3.05182 -0.743135 0
M  V30 3075 H 272.284 -5.00121 0.624076 0
M  V30 3076 H 271.886 -3.46038 1.41894 0
M  V30 3077 H 274.178 -6.63156 1.38675 0
M  V30 3078 H 275.121 -6.45938 2.9012 0
M  V30 3079 H 275.529 -5.44625 1.48471 0
M  V30 3080 N 274.927 -0.932562 -1.27047 0
M  V30 3081 C 276.175 -0.574422 -1.93765 0
M  V30 3082 C 276.496 0.887993 -1.73608 0
M  V30 3083 O 275.766 1.62999 -1.08665 0
M  V30 3084 H 274.346 -0.209451 -0.717035 0
M  V30 3085 H 277.008 -1.18601 -1.5466 0
M  V30 3086 H 276.104 -0.784841 -3.02071 0
M  V30 3087 N 276.405 1.4127 -0.698611 0
M  V30 3088 C 277.352 2.30773 -0.0352094 0
M  V30 3089 C 278.322 1.47273 0.768111 0
M  V30 3090 O 279.507 1.76053 0.735524 0
M  V30 3091 C 276.647 3.33346 0.893 0
M  V30 3092 C 275.76 4.31924 0.0809695 0
M  V30 3093 C 274.895 5.21566 1.0071 0
M  V30 3094 C 273.934 6.11811 0.188155 0
M  V30 3095 N 273.071 6.93926 1.06825 0
M  V30 3096 H 277.911 2.86943 -0.804207 0
M  V30 3097 H 275.448 1.4132 -0.408294 0
M  V30 3098 H 277.406 3.91368 1.44523 0
M  V30 3099 H 276.036 2.78719 1.62836 0
M  V30 3100 H 275.088 3.75825 -0.588224 0
M  V30 3101 H 276.4 4.95716 -0.553801 0
M  V30 3102 H 275.554 5.84437 1.62845 0
M  V30 3103 H 274.293 4.58008 1.67572 0
M  V30 3104 H 273.298 5.47986 -0.446254 0
M  V30 3105 H 274.523 6.77425 -0.476716 0
M  V30 3106 H 272.469 6.32973 1.72283 0
M  V30 3107 H 272.386 7.54416 0.489123 0
M  V30 3108 H 273.654 7.61262 1.67632 0
M  V30 3109 N 277.883 0.443576 1.51229 0
M  V30 3110 C 279.111 -0.11929 2.06556 0
M  V30 3111 C 279.526 -1.35921 1.31038 0
M  V30 3112 O 278.883 -1.78675 0.371704 0
M  V30 3113 C 278.934 -0.435228 3.5887 0
M  V30 3114 O 278.655 0.755486 4.31537 0
M  V30 3115 C 280.156 -1.04808 4.30732 0
M  V30 3116 H 277.376 -0.0051584 0.67098 0
M  V30 3117 H 279.92 0.624453 1.94733 0
M  V30 3118 H 278.075 -1.12887 3.70588 0
M  V30 3119 H 278.489 0.483491 5.22267 0
M  V30 3120 H 279.963 -1.2191 5.3837 0
M  V30 3121 H 280.44 -2.03081 3.89429 0
M  V30 3122 H 281.046 -0.393637 4.23474 0
M  V30 3123 N 279.361 -1.56624 0.175154 0
M  V30 3124 C 280.589 -2.01374 -0.474971 0
M  V30 3125 C 281.004 -1.05537 -1.56548 0
M  V30 3126 O 280.361 -0.0568668 -1.82411 0
M  V30 3127 C 280.412 -3.45923 -1.04975 0
M  V30 3128 O 280.133 -4.381 -0.00276605 0
M  V30 3129 C 281.634 -4.06093 -1.77773 0
M  V30 3130 H 278.854 -0.659962 -0.121206 0
M  V30 3131 H 281.398 -2.02601 0.27801 0
M  V30 3132 H 279.553 -3.45458 -1.75321 0
M  V30 3133 H 279.967 -5.22753 -0.427681 0
M  V30 3134 H 281.441 -5.09147 -2.13245 0
M  V30 3135 H 281.918 -3.48405 -2.67414 0
M  V30 3136 H 282.524 -4.10272 -1.12059 0
M  V30 3137 N 280.839 0.0985539 -1.57292 0
M  V30 3138 C 282.067 0.816318 -1.90115 0
M  V30 3139 C 282.482 1.72451 -0.768509 0
M  V30 3140 O 281.839 1.80643 0.259687 0
M  V30 3141 C 281.89 1.63259 -3.22535 0
M  V30 3142 O 281.611 0.760934 -4.31441 0
M  V30 3143 C 283.112 2.45372 -3.69199 0
M  V30 3144 H 280.332 0.233595 -0.629027 0
M  V30 3145 H 282.876 0.0768229 -2.04356 0
M  V30 3146 H 281.031 2.32463 -3.09903 0
M  V30 3147 H 281.445 1.32595 -5.07463 0
M  V30 3148 H 282.919 2.98144 -4.64558 0
M  V30 3149 H 283.396 3.23677 -2.96867 0
M  V30 3150 H 284.002 1.81373 -3.84687 0
M  V30 3151 N 282.317 1.53212 0.369288 0
M  V30 3152 C 283.565 1.68881 1.11012 0
M  V30 3153 C 283.886 0.441285 1.89941 0
M  V30 3154 O 283.156 -0.544623 1.88177 0
M  V30 3155 H 281.736 0.622569 0.412816 0
M  V30 3156 H 284.398 1.90391 0.416802 0
M  V30 3157 H 283.494 2.54822 1.80201 0
M  V30 3158 N 283.795 -0.628877 1.44509 0
M  V30 3159 C 284.727 -1.754 1.47538 0
M  V30 3160 C 285.74 -1.58575 0.368506 0
M  V30 3161 O 286.929 -1.66847 0.634376 0
M  V30 3162 C 284.029 -3.1315 1.29577 0
M  V30 3163 C 283.202 -3.56413 2.53551 0
M  V30 3164 C 282.261 -4.7305 2.30457 0
M  V30 3165 O 281.287 -4.81247 3.03957 0
M  V30 3166 N 282.489 -5.64903 1.3366 0
M  V30 3167 H 285.254 -1.73272 2.44534 0
M  V30 3168 H 282.815 -0.813512 1.39977 0
M  V30 3169 H 284.807 -3.88902 1.11971 0
M  V30 3170 H 283.377 -3.09908 0.409371 0
M  V30 3171 H 282.597 -2.70847 2.86419 0
M  V30 3172 H 283.885 -3.82071 3.36005 0
M  V30 3173 H 283.283 -5.60975 0.729604 0
M  V30 3174 H 281.84 -6.40275 1.22032 0
M  V30 3175 N 285.273 -1.31445 -0.869486 0
M  V30 3176 C 286.522 -1.20517 -1.61736 0
M  V30 3177 C 286.835 0.235341 -1.94179 0
M  V30 3178 O 288.041 0.466312 -2.67465 0
M  V30 3179 C 286.497 -2.10982 -2.91573 0
M  V30 3180 C 286.105 -3.60032 -2.66611 0
M  V30 3181 C 287.849 -2.08856 -3.69567 0
M  V30 3182 C 285.756 -4.42503 -3.92358 0
M  V30 3183 H 284.686 -0.447493 -0.606849 0
M  V30 3184 H 287.337 -1.56303 -0.96133 0
M  V30 3185 H 285.719 -1.68095 -3.58553 0
M  V30 3186 H 286.893 -4.11167 -2.08035 0
M  V30 3187 H 285.208 -3.64139 -2.0197 0
M  V30 3188 H 287.805 -2.67716 -4.62852 0
M  V30 3189 H 288.148 -1.07582 -4.02159 0
M  V30 3190 H 288.681 -2.49945 -3.09471 0
M  V30 3191 H 285.42 -5.44533 -3.64916 0
M  V30 3192 H 284.94 -3.96125 -4.50383 0
M  V30 3193 H 286.619 -4.54741 -4.60238 0
M  V30 3194 N 286.751 1.08385 -1.14413 0
M  V30 3195 C 287.997 1.81044 -0.913834 0
M  V30 3196 C 288.33 1.86004 0.558209 0
M  V30 3197 O 287.605 1.33606 1.4135 0
M  V30 3198 C 287.888 3.26648 -1.51569 0
M  V30 3199 C 287.741 3.29895 -3.0576 0
M  V30 3200 C 289.06 4.23629 -1.19273 0
M  V30 3201 H 286.179 0.65727 -0.333414 0
M  V30 3202 H 288.821 1.26896 -1.41412 0
M  V30 3203 H 286.971 3.72889 -1.09023 0
M  V30 3204 H 288.643 2.91977 -3.57137 0
M  V30 3205 H 286.886 2.69163 -3.40197 0
M  V30 3206 H 287.557 4.32516 -3.42977 0
M  V30 3207 H 290.033 3.85727 -1.56057 0
M  V30 3208 H 288.909 5.23822 -1.64017 0
M  V30 3209 H 289.17 4.41968 -0.108068 0
M  V30 3210 N 288.23 0.939286 1.26551 0
M  V30 3211 C 289.178 0.43815 2.28436 0
M  V30 3212 C 290.172 -0.483587 1.62351 0
M  V30 3213 O 291.378 -0.362009 1.76322 0
M  V30 3214 H 287.753 0.123149 0.741848 0
M  V30 3215 H 289.724 1.31002 2.68106 0
M  V30 3216 C 288.473 -0.283052 3.46546 0
M  V30 3217 H 287.796 0.417043 3.97619 0
M  V30 3218 H 289.236 -0.597948 4.19763 0
M  V30 3219 C 287.695 -1.50018 3.01656 0
M  V30 3220 O 288.225 -2.59855 3.0633 0
M  V30 3221 N 286.431 -1.35608 2.57019 0
M  V30 3222 H 285.978 -0.46244 2.53415 0
M  V30 3223 H 285.936 -2.17165 2.27347 0
M  V30 3224 N 289.708 -1.40897 0.706093 0
M  V30 3225 C 290.638 -2.33418 0.0620085 0
M  V30 3226 C 291.619 -1.52385 -0.755827 0
M  V30 3227 O 292.804 -1.80886 -0.706674 0
M  V30 3228 C 289.934 -3.36293 -0.867445 0
M  V30 3229 C 288.888 -4.27716 -0.155932 0
M  V30 3230 C 288.214 -5.2105 -1.20046 0
M  V30 3231 C 289.514 -5.12944 0.984149 0
M  V30 3232 H 291.208 -2.87527 0.83477 0
M  V30 3233 H 288.754 -1.38249 0.402875 0
M  V30 3234 H 290.707 -3.99949 -1.32735 0
M  V30 3235 H 289.431 -2.80556 -1.67199 0
M  V30 3236 H 288.09 -3.65498 0.284047 0
M  V30 3237 H 287.738 -4.61624 -1.99781 0
M  V30 3238 H 287.438 -5.83056 -0.729328 0
M  V30 3239 H 288.962 -5.87584 -1.66066 0
M  V30 3240 H 290.376 -5.70109 0.604048 0
M  V30 3241 H 288.773 -5.83945 1.38304 0
M  V30 3242 H 289.843 -4.49485 1.81911 0
M  V30 3243 N 291.186 -0.45159 -1.50991 0
M  V30 3244 C 292.116 0.342898 -2.30969 0
M  V30 3245 C 293.097 1.00815 -1.37005 0
M  V30 3246 O 294.282 1.00907 -1.65926 0
M  V30 3247 C 291.412 1.43637 -3.16205 0
M  V30 3248 C 290.366 0.893818 -4.18563 0
M  V30 3249 C 289.692 2.08411 -4.92411 0
M  V30 3250 C 290.992 -0.0815568 -5.22236 0
M  V30 3251 H 292.686 -0.324556 -2.97636 0
M  V30 3252 H 290.232 -0.157531 -1.43136 0
M  V30 3253 H 292.185 1.9995 -3.70942 0
M  V30 3254 H 290.909 2.13232 -2.47386 0
M  V30 3255 H 289.568 0.352798 -3.64898 0
M  V30 3256 H 289.216 2.76658 -4.20082 0
M  V30 3257 H 288.916 1.72741 -5.61636 0
M  V30 3258 H 290.44 2.65251 -5.49976 0
M  V30 3259 H 291.854 0.391742 -5.7196 0
M  V30 3260 H 290.251 -0.351551 -5.99069 0
M  V30 3261 H 291.321 -1.01374 -4.74185 0
M  V30 3262 N 292.664 1.56529 -0.183458 0
M  V30 3263 C 293.889 2.02064 0.467428 0
M  V30 3264 C 294.314 1.06282 1.55196 0
M  V30 3265 O 293.672 0.0443565 1.81246 0
M  V30 3266 C 293.72 3.46122 1.01153 0
M  V30 3267 O 292.824 3.53437 2.12499 0
M  V30 3268 H 292.165 0.654726 0.110588 0
M  V30 3269 H 294.695 2.02521 -0.290917 0
M  V30 3270 H 294.705 3.85676 1.33108 0
M  V30 3271 H 293.38 4.15331 0.217533 0
M  V30 3272 H 291.957 3.2575 1.81497 0
M  V30 3273 N 294.142 -0.090211 1.57342 0
M  V30 3274 C 295.09 -1.12792 2.03422 0
M  V30 3275 C 296.084 -1.41182 0.936166 0
M  V30 3276 O 297.29 -1.40805 1.12133 0
M  V30 3277 H 293.665 -0.380986 0.648347 0
M  V30 3278 H 295.636 -0.71299 2.89757 0
M  V30 3279 C 294.385 -2.43855 2.47851 0
M  V30 3280 H 293.708 -2.22855 3.31927 0
M  V30 3281 H 295.148 -3.14955 2.83865 0
M  V30 3282 C 293.607 -3.08503 1.3538 0
M  V30 3283 O 294.137 -3.95805 0.685641 0
M  V30 3284 N 292.343 -2.68831 1.10355 0
M  V30 3285 H 291.89 -1.97929 1.64869 0
M  V30 3286 H 291.848 -3.12412 0.353031 0
M  V30 3287 N 295.62 -1.53406 -0.361157 0
M  V30 3288 C 296.897 -1.60411 -1.11927 0
M  V30 3289 C 297.277 -0.414385 -2.06993 0
M  V30 3290 O 296.625 0.594976 -2.20618 0
M  V30 3291 C 296.835 -2.95652 -1.85448 0
M  V30 3292 C 298.183 -3.50386 -2.39823 0
M  V30 3293 O 299.207 -2.97711 -1.95568 0
M  V30 3294 O 298.066 -4.42482 -3.20737 0
M  V30 3295 H 295.16 -0.64811 -0.513695 0
M  V30 3296 H 297.706 -1.65749 -0.364065 0
M  V30 3297 H 296.478 -3.73682 -1.16091 0
M  V30 3298 H 296.101 -2.93825 -2.67866 0
M  V30 3299 N 297.098 0.621204 -1.44841 0
M  V30 3300 C 298.344 1.3826 -1.48365 0
M  V30 3301 C 298.677 1.93831 -0.119624 0
M  V30 3302 O 297.952 1.74251 0.864111 0
M  V30 3303 C 298.235 2.54058 -2.55199 0
M  V30 3304 C 298.088 2.03772 -4.00995 0
M  V30 3305 C 299.407 3.56225 -2.58442 0
M  V30 3306 H 296.526 0.501374 -0.540179 0
M  V30 3307 H 299.168 0.7015 -1.76576 0
M  V30 3308 H 297.318 3.12162 -2.31274 0
M  V30 3309 H 298.99 1.50423 -4.36086 0
M  V30 3310 H 297.233 1.34876 -4.12299 0
M  V30 3311 H 297.904 2.87185 -4.71411 0
M  V30 3312 H 300.38 3.07939 -2.79844 0
M  V30 3313 H 299.256 4.34756 -3.3508 0
M  V30 3314 H 299.517 4.10949 -1.63013 0
M  V30 3315 N 298.576 1.31904 0.862503 0
M  V30 3316 C 299.524 1.20125 1.9918 0
M  V30 3317 C 300.518 0.107824 1.69056 0
M  V30 3318 O 301.724 0.270223 1.7796 0
M  V30 3319 H 298.099 0.372148 0.65346 0
M  V30 3320 H 300.07 2.15652 2.06244 0
M  V30 3321 C 298.819 0.933099 3.34946 0
M  V30 3322 H 298.142 1.76664 3.5865 0
M  V30 3323 H 299.582 0.890892 4.14535 0
M  V30 3324 C 298.041 -0.364172 3.34926 0
M  V30 3325 O 298.571 -1.37858 3.77304 0
M  V30 3326 N 296.777 -0.383362 2.8806 0
M  V30 3327 H 296.324 0.442651 2.53768 0
M  V30 3328 H 296.282 -1.25123 2.8843 0
M  V30 3329 N 300.054 -1.07777 1.14986 0
M  V30 3330 C 301.001 -2.14867 0.842672 0
M  V30 3331 C 301.971 -1.6486 -0.202552 0
M  V30 3332 O 303.156 -1.90668 -0.0710568 0
M  V30 3333 C 300.296 -3.43486 0.333363 0
M  V30 3334 C 299.409 -4.07306 1.43965 0
M  V30 3335 C 298.544 -5.23744 0.886914 0
M  V30 3336 C 297.583 -5.79517 1.97043 0
M  V30 3337 N 296.72 -6.87291 1.4344 0
M  V30 3338 H 301.56 -2.40485 1.75986 0
M  V30 3339 H 299.097 -1.1801 0.878179 0
M  V30 3340 H 301.055 -4.17195 0.0198163 0
M  V30 3341 H 299.685 -3.18133 -0.546916 0
M  V30 3342 H 298.737 -3.31293 1.86946 0
M  V30 3343 H 300.049 -4.44771 2.25788 0
M  V30 3344 H 299.203 -6.04419 0.525651 0
M  V30 3345 H 297.942 -4.87685 0.0377957 0
M  V30 3346 H 296.947 -4.97491 2.34057 0
M  V30 3347 H 298.172 -6.17632 2.82325 0
M  V30 3348 H 296.118 -6.5318 0.607567 0
M  V30 3349 H 296.035 -7.23617 2.18895 0
M  V30 3350 H 297.303 -7.71682 1.10124 0
M  V30 3351 N 301.532 -0.945985 -1.26051 0
M  V30 3352 C 302.779 -0.596118 -1.93527 0
M  V30 3353 C 303.107 0.865559 -1.74179 0
M  V30 3354 O 302.362 1.63524 -1.0751 0
M  V30 3355 C 302.661 -0.890475 -3.46129 0
M  V30 3356 C 302.327 -2.3368 -3.85622 0
M  V30 3357 C 300.989 -2.73216 -3.96114 0
M  V30 3358 C 303.341 -3.27648 -4.05334 0
M  V30 3359 C 300.669 -4.05806 -4.2372 0
M  V30 3360 C 303.021 -4.59841 -4.3443 0
M  V30 3361 C 301.685 -4.99185 -4.43137 0
M  V30 3362 H 300.955 -0.218135 -0.708165 0
M  V30 3363 H 303.602 -1.1934 -1.49768 0
M  V30 3364 H 301.907 -0.210711 -3.91233 0
M  V30 3365 H 303.604 -0.598478 -3.96509 0
M  V30 3366 H 300.194 -2.02015 -3.78005 0
M  V30 3367 H 304.378 -2.98298 -3.96651 0
M  V30 3368 H 299.634 -4.35945 -4.28675 0
M  V30 3369 H 303.808 -5.32641 -4.48628 0
M  V30 3370 H 301.435 -6.01952 -4.64282 0
M  V30 3371 N 303.011 1.40521 -0.713556 0
M  V30 3372 C 304.288 1.94775 -0.17943 0
M  V30 3373 C 304.668 1.65184 1.31444 0
M  V30 3374 O 304.016 0.968429 2.06963 0
M  V30 3375 C 304.226 3.45543 -0.489986 0
M  V30 3376 C 305.574 4.22442 -0.427536 0
M  V30 3377 O 306.598 3.53644 -0.425929 0
M  V30 3378 O 305.457 5.4501 -0.403292 0
M  V30 3379 H 302.551 0.826606 -0.0255192 0
M  V30 3380 H 305.097 1.5014 -0.790949 0
M  V30 3381 H 303.869 3.60432 -1.5233 0
M  V30 3382 H 303.492 3.97311 0.151598 0
M  V30 3383 N 304.489 0.459591 1.5075 0
M  V30 3384 C 305.421 -0.37665 2.26084 0
M  V30 3385 C 306.434 -0.967109 1.30961 0
M  V30 3386 O 307.623 -0.857468 1.56556 0
M  V30 3387 C 304.723 -1.54112 3.01832 0
M  V30 3388 C 303.896 -1.06553 4.24223 0
M  V30 3389 C 302.955 -2.1027 4.82362 0
M  V30 3390 O 301.981 -1.68798 5.43595 0
M  V30 3391 N 303.183 -3.42974 4.68347 0
M  V30 3392 H 305.948 0.269124 2.98489 0
M  V30 3393 H 303.509 0.28972 1.59287 0
M  V30 3394 H 305.501 -2.23165 3.37608 0
M  V30 3395 H 304.071 -2.0918 2.32298 0
M  V30 3396 H 303.291 -0.201274 3.93686 0
M  V30 3397 H 304.579 -0.725516 5.03601 0
M  V30 3398 H 303.977 -3.79385 4.19623 0
M  V30 3399 H 302.534 -4.07858 5.08424 0
M  V30 3400 N 305.967 -1.56429 0.191757 0
M  V30 3401 C 307.213 -1.97777 -0.448554 0
M  V30 3402 C 307.546 -1.07847 -1.61501 0
M  V30 3403 O 306.821 -0.129774 -1.94067 0
M  V30 3404 C 307.104 -3.48362 -0.911906 0
M  V30 3405 C 306.957 -4.4907 0.256136 0
M  V30 3406 C 308.276 -4.02561 -1.77857 0
M  V30 3407 H 305.395 -0.719071 -0.161572 0
M  V30 3408 H 308.037 -1.87896 0.282007 0
M  V30 3409 H 306.187 -3.56914 -1.53442 0
M  V30 3410 H 307.859 -4.5256 0.893733 0
M  V30 3411 H 306.102 -4.24181 0.908436 0
M  V30 3412 H 306.773 -5.51889 -0.11053 0
M  V30 3413 H 309.249 -3.96767 -1.25359 0
M  V30 3414 H 308.125 -5.08301 -2.07174 0
M  V30 3415 H 308.386 -3.47616 -2.73158 0
M  V30 3416 N 307.445 0.0818655 -1.57387 0
M  V30 3417 C 308.673 0.796108 -1.9097 0
M  V30 3418 C 309.088 1.71626 -0.786757 0
M  V30 3419 O 308.445 1.80908 0.240513 0
M  V30 3420 C 308.496 1.59829 -3.24248 0
M  V30 3421 O 308.217 0.715131 -4.32224 0
M  V30 3422 C 309.718 2.41442 -3.7178 0
M  V30 3423 H 306.938 0.22691 -0.631469 0
M  V30 3424 H 309.482 0.0551439 -2.04426 0
M  V30 3425 H 307.637 2.29163 -3.12351 0
M  V30 3426 H 308.051 1.27205 -5.08841 0
M  V30 3427 H 309.525 2.932 -4.67694 0
M  V30 3428 H 310.002 3.2051 -3.00283 0
M  V30 3429 H 310.608 1.77283 -3.86589 0
M  V30 3430 N 308.923 1.53595 0.353017 0
M  V30 3431 C 310.169 1.70638 1.09593 0
M  V30 3432 C 310.502 0.463286 1.88593 0
M  V30 3433 O 309.777 -0.539597 1.86865 0
M  V30 3434 C 310.06 2.96406 2.04489 0
M  V30 3435 C 309.913 4.30901 1.29014 0
M  V30 3436 C 311.232 3.17812 3.0444 0
M  V30 3437 H 308.351 0.620913 0.397034 0
M  V30 3438 H 310.993 1.86254 0.375446 0
M  V30 3439 H 309.143 2.83223 2.65927 0
M  V30 3440 H 310.815 4.55917 0.702638 0
M  V30 3441 H 309.058 4.29741 0.592071 0
M  V30 3442 H 309.729 5.1506 1.98537 0
M  V30 3443 H 312.205 3.30263 2.53112 0
M  V30 3444 H 311.081 4.07223 3.6805 0
M  V30 3445 H 311.342 2.33669 3.75301 0
M  V30 3446 N 310.401 -0.613514 1.45168 0
M  V30 3447 C 311.648 -1.37268 1.48875 0
M  V30 3448 C 311.976 -1.94077 0.128161 0
M  V30 3449 O 311.231 -1.75178 -0.872416 0
M  V30 3450 C 311.53 -2.54347 2.51083 0
M  V30 3451 C 311.196 -2.1572 3.95949 0
M  V30 3452 C 309.858 -2.04899 4.35396 0
M  V30 3453 C 312.21 -1.85485 4.87078 0
M  V30 3454 C 309.538 -1.62057 5.63875 0
M  V30 3455 C 311.89 -1.4413 6.15962 0
M  V30 3456 C 310.554 -1.31863 6.54346 0
M  V30 3457 H 309.824 -0.502299 0.544773 0
M  V30 3458 H 312.471 -0.694021 1.78481 0
M  V30 3459 H 310.776 -3.27524 2.15024 0
M  V30 3460 H 312.473 -3.12577 2.51191 0
M  V30 3461 H 309.063 -2.25066 3.64751 0
M  V30 3462 H 313.247 -1.92745 4.57343 0
M  V30 3463 H 308.503 -1.51177 5.92415 0
M  V30 3464 H 312.677 -1.19778 6.86022 0
M  V30 3465 H 310.304 -0.984392 7.538 0
M  V30 3466 N 311.879 -1.3236 -0.855495 0
M  V30 3467 C 312.809 -1.23833 -1.97958 0
M  V30 3468 C 313.79 -0.122361 -1.69659 0
M  V30 3469 O 314.975 -0.30939 -1.9172 0
M  V30 3470 C 312.105 -0.959772 -3.33775 0
M  V30 3471 C 311.059 -2.03689 -3.76424 0
M  V30 3472 C 310.385 -1.61075 -5.09862 0
M  V30 3473 C 311.685 -3.4518 -3.9198 0
M  V30 3474 H 313.379 -2.1788 -2.0535 0
M  V30 3475 H 310.925 -1.04891 -0.986605 0
M  V30 3476 H 312.878 -0.886678 -4.11966 0
M  V30 3477 H 311.602 0.0163404 -3.26596 0
M  V30 3478 H 310.261 -2.10012 -3.00484 0
M  V30 3479 H 309.909 -0.622107 -4.99138 0
M  V30 3480 H 309.609 -2.33143 -5.39368 0
M  V30 3481 H 311.133 -1.55201 -5.90546 0
M  V30 3482 H 312.547 -3.4145 -4.60526 0
M  V30 3483 H 310.944 -4.1559 -4.32903 0
M  V30 3484 H 312.014 -3.84903 -2.94919 0
M  V30 3485 N 313.357 1.07166 -1.15556 0
M  V30 3486 C 314.307 2.12649 -0.82247 0
M  V30 3487 C 315.291 1.59725 0.194129 0
M  V30 3488 O 316.483 1.76999 -0.00540402 0
M  V30 3489 C 313.612 3.41847 -0.315572 0
M  V30 3490 C 312.698 4.0162 -1.36244 0
M  V30 3491 N 313.089 4.35625 -2.5703 0
M  V30 3492 C 311.387 4.29114 -1.21562 0
M  V30 3493 C 312.088 4.83017 -3.24144 0
M  V30 3494 N 311.064 4.81906 -2.51531 0
M  V30 3495 H 314.866 2.36776 -1.74111 0
M  V30 3496 H 312.38 1.24622 -1.0413 0
M  V30 3497 H 314.377 4.16859 -0.0585855 0
M  V30 3498 H 313.037 3.19163 0.597105 0
M  V30 3499 H 314.048 4.26253 -2.94158 0
M  V30 3500 H 310.725 4.15919 -0.362988 0
M  V30 3501 H 312.115 5.18605 -4.27198 0
M  V30 3502 N 314.835 0.952656 1.25548 0
M  V30 3503 C 316.082 0.606373 1.93208 0
M  V30 3504 C 316.41 -0.85631 1.74636 0
M  V30 3505 O 315.665 -1.62951 1.08376 0
M  V30 3506 C 315.964 0.908818 3.45652 0
M  V30 3507 C 315.63 2.35722 3.84378 0
M  V30 3508 C 314.292 2.75312 3.9466 0
M  V30 3509 C 316.644 3.29793 4.03591 0
M  V30 3510 C 313.972 4.08047 4.21562 0
M  V30 3511 C 316.324 4.62138 4.31985 0
M  V30 3512 C 314.988 5.01528 4.40484 0
M  V30 3513 H 314.258 0.221888 0.706998 0
M  V30 3514 H 316.905 1.20132 1.49133 0
M  V30 3515 H 315.21 0.231456 3.91116 0
M  V30 3516 H 316.907 0.619498 3.96186 0
M  V30 3517 H 313.497 2.04017 3.76928 0
M  V30 3518 H 317.681 3.00397 3.95064 0
M  V30 3519 H 312.937 4.38212 4.26357 0
M  V30 3520 H 317.111 5.35012 4.45797 0
M  V30 3521 H 314.738 6.04406 4.61083 0
M  V30 3522 N 316.313 -1.40141 0.720998 0
M  V30 3523 C 317.243 -2.33339 0.0867621 0
M  V30 3524 C 318.224 -1.53178 -0.739622 0
M  V30 3525 O 319.409 -1.81625 -0.687449 0
M  V30 3526 C 316.539 -3.37194 -0.831728 0
M  V30 3527 C 315.493 -4.27857 -0.110558 0
M  V30 3528 C 314.819 -5.22294 -1.14513 0
M  V30 3529 C 316.119 -5.11872 1.0385 0
M  V30 3530 H 317.813 -2.86626 0.865219 0
M  V30 3531 H 315.359 -1.37814 0.417516 0
M  V30 3532 H 317.312 -4.01335 -1.28485 0
M  V30 3533 H 316.036 -2.82314 -1.64214 0
M  V30 3534 H 314.695 -3.65176 0.322797 0
M  V30 3535 H 314.343 -4.63717 -1.94874 0
M  V30 3536 H 314.043 -5.83797 -0.667446 0
M  V30 3537 H 315.567 -5.89312 -1.59824 0
M  V30 3538 H 316.981 -5.69436 0.664482 0
M  V30 3539 H 315.378 -5.82445 1.4449 0
M  V30 3540 H 316.448 -4.4753 1.86668 0
M  V30 3541 N 317.792 -0.46758 -1.50504 0
M  V30 3542 C 319.038 0.0808869 -2.03239 0
M  V30 3543 C 319.393 1.37721 -1.34353 0
M  V30 3544 O 318.686 1.86016 -0.459194 0
M  V30 3545 C 318.88 0.323995 -3.55928 0
M  V30 3546 C 318.709 -0.947215 -4.39611 0
M  V30 3547 C 317.479 -1.48951 -4.82848 0
M  V30 3548 C 319.677 -1.84166 -4.80195 0
M  V30 3549 N 317.659 -2.71011 -5.50842 0
M  V30 3550 C 319.03 -2.90815 -5.47564 0
M  V30 3551 C 321.085 -1.85246 -4.62156 0
M  V30 3552 C 319.788 -3.98529 -5.98805 0
M  V30 3553 C 321.814 -2.91914 -5.14335 0
M  V30 3554 C 321.176 -3.97282 -5.81676 0
M  V30 3555 H 317.275 -0.0103394 -0.781932 0
M  V30 3556 H 319.859 -0.635003 -1.84054 0
M  V30 3557 H 318.03 1.00892 -3.75067 0
M  V30 3558 H 319.762 0.866492 -3.95315 0
M  V30 3559 H 316.517 -1.03918 -4.62058 0
M  V30 3560 H 316.941 -3.32988 -5.89447 0
M  V30 3561 H 321.583 -1.05103 -4.09528 0
M  V30 3562 H 319.301 -4.79491 -6.50472 0
M  V30 3563 H 322.887 -2.93729 -5.0221 0
M  V30 3564 H 321.767 -4.78462 -6.21324 0
M  V30 3565 N 319.27 1.56325 -0.20005 0
M  V30 3566 C 320.233 2.18084 0.705132 0
M  V30 3567 C 321.233 1.13666 1.1374 0
M  V30 3568 O 322.423 1.39023 1.04968 0
M  V30 3569 C 319.555 2.78689 1.96329 0
M  V30 3570 H 320.748 2.99435 0.167023 0
M  V30 3571 H 318.301 1.56221 0.0495725 0
M  V30 3572 H 319.036 2.0115 2.5438 0
M  V30 3573 H 318.821 3.55133 1.66202 0
M  V30 3574 H 320.311 3.26096 2.60866 0
M  V30 3575 N 320.748 -0.0735177 1.57428 0
M  V30 3576 C 321.996 -0.771472 1.86796 0
M  V30 3577 C 322.317 -1.78201 0.791804 0
M  V30 3578 O 321.587 -1.95074 -0.179718 0
M  V30 3579 H 320.167 -0.28791 0.689287 0
M  V30 3580 H 322.829 -0.0500161 1.94836 0
M  V30 3581 H 321.925 -1.28874 2.8425 0
M  V30 3582 N 322.226 -1.5378 -0.344866 0
M  V30 3583 C 323.637 -1.62428 -0.920552 0
M  V30 3584 C 323.988 -0.504747 -1.89596 0
M  V30 3585 O 323.113 0.365711 -2.13287 0
M  V30 3586 C 323.708 -2.94419 -1.67639 0
M  V30 3587 C 322.267 -3.05333 -2.20111 0
M  V30 3588 C 321.414 -2.57866 -1.01982 0
M  V30 3589 H 324.365 -1.58222 -0.123042 0
M  V30 3590 H 324.386 -2.83384 -2.53917 0
M  V30 3591 H 323.898 -3.7588 -0.966224 0
M  V30 3592 H 321.999 -2.28502 -2.94308 0
M  V30 3593 H 322.112 -4.10778 -2.46573 0
M  V30 3594 H 320.476 -2.13241 -1.39285 0
M  V30 3595 H 321.259 -3.41765 -0.324308 0
M  V30 3596 N 323.704 0.605807 -1.45491 0
M  V30 3597 C 324.634 1.72709 -1.57143 0
M  V30 3598 C 325.615 1.6476 -0.422884 0
M  V30 3599 O 326.8 1.83132 -0.646247 0
M  V30 3600 C 323.93 3.11316 -1.53948 0
M  V30 3601 C 322.884 3.34077 -2.67537 0
M  V30 3602 C 322.21 4.72975 -2.49397 0
M  V30 3603 C 323.51 3.24158 -4.09535 0
M  V30 3604 H 325.204 1.63214 -2.51001 0
M  V30 3605 H 322.75 0.78379 -1.208 0
M  V30 3606 H 324.703 3.89557 -1.60696 0
M  V30 3607 H 323.427 3.21655 -0.566205 0
M  V30 3608 H 322.086 2.58227 -2.6022 0
M  V30 3609 H 321.734 4.8005 -1.50205 0
M  V30 3610 H 321.434 4.8916 -3.25571 0
M  V30 3611 H 322.958 5.53414 -2.58002 0
M  V30 3612 H 324.372 3.92271 -4.18086 0
M  V30 3613 H 322.769 3.51872 -4.86113 0
M  V30 3614 H 323.839 2.2157 -4.31317 0
M  V30 3615 N 325.182 1.32811 0.848464 0
M  V30 3616 C 326.114 1.18095 1.96433 0
M  V30 3617 C 327.127 0.114354 1.62398 0
M  V30 3618 O 328.316 0.363892 1.74751 0
M  V30 3619 C 325.416 0.786798 3.2964 0
M  V30 3620 C 324.589 1.943 3.91875 0
M  V30 3621 C 323.648 1.53138 5.03423 0
M  V30 3622 O 322.674 2.24432 5.23086 0
M  V30 3623 N 323.876 0.430915 5.78898 0
M  V30 3624 H 326.641 2.14218 2.09597 0
M  V30 3625 H 324.202 1.2543 1.02367 0
M  V30 3626 H 326.194 0.493715 4.01677 0
M  V30 3627 H 324.764 -0.0834541 3.12489 0
M  V30 3628 H 323.984 2.40224 3.12547 0
M  V30 3629 H 325.272 2.71689 4.30189 0
M  V30 3630 H 324.67 -0.162333 5.65467 0
M  V30 3631 H 323.227 0.197466 6.51501 0
M  V30 3632 N 326.66 -1.06551 1.16123 0
M  V30 3633 C 327.623 -2.12132 0.867906 0
M  V30 3634 C 328.623 -1.60224 -0.135944 0
M  V30 3635 O 329.813 -1.73943 0.0946422 0
M  V30 3636 C 326.945 -3.396 0.297419 0
M  V30 3637 H 328.138 -2.39586 1.80385 0
M  V30 3638 H 325.691 -1.22574 0.969812 0
M  V30 3639 H 326.426 -3.17794 -0.64633 0
M  V30 3640 H 326.211 -3.78581 1.02073 0
M  V30 3641 H 327.701 -4.17455 0.110052 0
M  V30 3642 N 328.138 -0.959301 -1.25041 0
M  V30 3643 C 329.387 -0.612254 -1.92183 0
M  V30 3644 C 329.7 0.855347 -1.75907 0
M  V30 3645 O 330.906 1.31256 -2.37664 0
M  V30 3646 C 329.362 -1.04435 -3.44414 0
M  V30 3647 C 328.97 -2.53482 -3.69393 0
M  V30 3648 C 330.714 -0.770055 -4.17457 0
M  V30 3649 C 328.621 -2.90468 -5.15153 0
M  V30 3650 H 327.551 -0.225279 -0.719559 0
M  V30 3651 H 330.202 -1.16438 -1.41825 0
M  V30 3652 H 328.584 -0.4206 -3.9376 0
M  V30 3653 H 329.758 -3.20916 -3.30681 0
M  V30 3654 H 328.073 -2.78432 -3.0962 0
M  V30 3655 H 330.67 -1.02249 -5.24832 0
M  V30 3656 H 331.013 0.293611 -4.15263 0
M  V30 3657 H 331.546 -1.35437 -3.74034 0
M  V30 3658 H 328.285 -3.95871 -5.22462 0
M  V30 3659 H 327.805 -2.27711 -5.54894 0
M  V30 3660 H 329.484 -2.79914 -5.83315 0
M  V30 3661 N 329.616 1.39756 -0.72842 0
M  V30 3662 C 330.579 2.29012 -0.0927297 0
M  V30 3663 C 331.579 1.45992 0.674025 0
M  V30 3664 O 332.769 1.66749 0.50402 0
M  V30 3665 C 329.901 3.29396 0.878137 0
M  V30 3666 H 331.094 2.86729 -0.879011 0
M  V30 3667 H 328.647 1.48293 -0.493847 0
M  V30 3668 H 329.382 2.76722 1.69101 0
M  V30 3669 H 329.167 3.907 0.331051 0
M  V30 3670 H 330.657 3.96199 1.3197 0
M  V30 3671 N 331.094 0.475555 1.50254 0
M  V30 3672 C 332.34 -0.0780073 2.0265 0
M  V30 3673 C 332.673 -1.38968 1.35652 0
M  V30 3674 O 331.948 -1.8839 0.483691 0
M  V30 3675 C 332.231 -0.257161 3.59181 0
M  V30 3676 C 332.084 1.07585 4.36744 0
M  V30 3677 C 333.403 -1.00965 4.28362 0
M  V30 3678 H 330.522 -0.0268758 0.73651 0
M  V30 3679 H 333.164 0.622015 1.7953 0
M  V30 3680 H 331.314 -0.853412 3.79011 0
M  V30 3681 H 332.986 1.70902 4.28474 0
M  V30 3682 H 331.229 1.6714 4.00308 0
M  V30 3683 H 331.9 0.904088 5.44546 0
M  V30 3684 H 334.376 -0.504214 4.13034 0
M  V30 3685 H 333.252 -1.10381 5.37687 0
M  V30 3686 H 333.513 -2.04731 3.91839 0
M  V30 3687 N 332.573 -1.56217 0.208337 0
M  V30 3688 C 333.801 -2.02337 -0.43215 0
M  V30 3689 C 334.216 -1.08834 -1.54275 0
M  V30 3690 O 333.573 -0.0955462 -1.8225 0
M  V30 3691 C 333.624 -3.48072 -0.976138 0
M  V30 3692 O 333.345 -4.38007 0.0901621 0
M  V30 3693 C 334.846 -4.09773 -1.69119 0
M  V30 3694 H 332.066 -0.662385 -0.10718 0
M  V30 3695 H 334.61 -2.01966 0.320923 0
M  V30 3696 H 332.765 -3.49099 -1.67954 0
M  V30 3697 H 333.179 -5.23543 -0.316701 0
M  V30 3698 H 334.653 -5.13556 -2.02397 0
M  V30 3699 H 335.13 -3.53999 -2.59964 0
M  V30 3700 H 335.736 -4.12556 -1.03332 0
M  V30 3701 N 334.051 0.0651679 -1.57465 0
M  V30 3702 C 335.014 1.06117 -2.03155 0
M  V30 3703 C 336.014 1.31204 -0.929632 0
M  V30 3704 O 337.204 1.26813 -1.19432 0
M  V30 3705 C 334.336 2.4032 -2.41783 0
M  V30 3706 H 335.529 0.667231 -2.92383 0
M  V30 3707 H 333.082 0.311075 -1.53173 0
M  V30 3708 H 333.817 2.84532 -1.55601 0
M  V30 3709 H 333.602 2.23451 -3.22199 0
M  V30 3710 H 335.092 3.11898 -2.77685 0
M  V30 3711 N 335.529 1.53961 0.336706 0
M  V30 3712 C 336.459 1.85417 1.41925 0
M  V30 3713 C 337.44 0.709856 1.5458 0
M  V30 3714 O 338.625 0.962396 1.68676 0
M  V30 3715 C 335.755 2.06985 2.78881 0
M  V30 3716 C 334.709 3.22813 2.81026 0
M  V30 3717 C 334.035 3.29727 4.20932 0
M  V30 3718 C 335.335 4.60767 2.45949 0
M  V30 3719 H 337.029 2.76079 1.15848 0
M  V30 3720 H 334.575 1.32839 0.555859 0
M  V30 3721 H 336.528 2.27575 3.54665 0
M  V30 3722 H 335.252 1.13061 3.06406 0
M  V30 3723 H 333.911 3.0209 2.07695 0
M  V30 3724 H 333.559 2.33385 4.45579 0
M  V30 3725 H 333.259 4.07566 4.23277 0
M  V30 3726 H 334.783 3.52536 4.98549 0
M  V30 3727 H 336.197 4.81325 3.11446 0
M  V30 3728 H 334.594 5.4106 2.59566 0
M  V30 3729 H 335.664 4.6391 1.41122 0
M  V30 3730 N 337.007 -0.598083 1.45811 0
M  V30 3731 C 337.937 -1.71873 1.58057 0
M  V30 3732 C 338.918 -1.64533 0.431615 0
M  V30 3733 O 340.103 -1.82787 0.65595 0
M  V30 3734 C 337.233 -3.10495 1.55597 0
M  V30 3735 C 336.187 -3.32654 2.69305 0
M  V30 3736 C 335.513 -4.71646 2.51902 0
M  V30 3737 C 336.813 -3.21981 4.11248 0
M  V30 3738 H 338.507 -1.61881 2.51863 0
M  V30 3739 H 336.053 -0.777372 1.21214 0
M  V30 3740 H 338.006 -3.88699 1.6276 0
M  V30 3741 H 336.73 -3.2135 0.583255 0
M  V30 3742 H 335.389 -2.56843 2.61586 0
M  V30 3743 H 335.037 -4.79246 1.52748 0
M  V30 3744 H 334.737 -4.87426 3.2816 0
M  V30 3745 H 336.261 -5.52038 2.60933 0
M  V30 3746 H 337.675 -3.90049 4.20161 0
M  V30 3747 H 336.072 -3.49289 4.87972 0
M  V30 3748 H 337.142 -2.1928 4.32486 0
M  V30 3749 N 338.485 -1.33259 -0.841409 0
M  V30 3750 C 339.731 -1.25766 -1.59857 0
M  V30 3751 C 340.086 0.175602 -1.91597 0
M  V30 3752 O 339.379 1.117 -1.55672 0
M  V30 3753 C 339.573 -2.06381 -2.9179 0
M  V30 3754 C 339.402 -3.57401 -2.72937 0
M  V30 3755 C 338.172 -4.26718 -2.70628 0
M  V30 3756 C 340.37 -4.51786 -2.45753 0
M  V30 3757 N 338.352 -5.63705 -2.43125 0
M  V30 3758 C 339.723 -5.76643 -2.27777 0
M  V30 3759 C 341.778 -4.40898 -2.31329 0
M  V30 3760 C 340.481 -6.91842 -1.96841 0
M  V30 3761 C 342.507 -5.55911 -2.01786 0
M  V30 3762 C 341.869 -6.79776 -1.8462 0
M  V30 3763 H 337.968 -0.515406 -0.588117 0
M  V30 3764 H 340.552 -1.67772 -0.987955 0
M  V30 3765 H 338.723 -1.667 -3.50807 0
M  V30 3766 H 340.455 -1.90678 -3.56965 0
M  V30 3767 H 337.21 -3.78968 -2.84043 0
M  V30 3768 H 337.634 -6.35911 -2.32265 0
M  V30 3769 H 342.276 -3.45772 -2.43314 0
M  V30 3770 H 339.994 -7.86968 -1.83594 0
M  V30 3771 H 343.58 -5.49421 -1.91384 0
M  V30 3772 H 342.46 -7.67266 -1.62088 0
M  V30 3773 N 339.963 1.05934 -1.16686 0
M  V30 3774 C 340.896 2.1295 -0.820225 0
M  V30 3775 C 341.874 1.61242 0.209722 0
M  V30 3776 O 343.058 1.88271 0.0929688 0
M  V30 3777 C 340.185 3.3797 -0.22223 0
M  V30 3778 C 339.231 4.08488 -1.22637 0
M  V30 3779 S 340.064 4.58015 -2.77457 0
M  V30 3780 C 341.22 5.86292 -2.19117 0
M  V30 3781 H 341.453 2.42025 -1.72659 0
M  V30 3782 H 338.986 1.18423 -0.990722 0
M  V30 3783 H 340.944 4.10335 0.116322 0
M  V30 3784 H 339.605 3.07045 0.66196 0
M  V30 3785 H 338.798 4.98291 -0.756455 0
M  V30 3786 H 338.4 3.42154 -1.51019 0
M  V30 3787 H 340.692 6.59246 -1.56209 0
M  V30 3788 H 341.635 6.38019 -3.07144 0
M  V30 3789 H 342.043 5.40497 -1.62858 0
M  V30 3790 N 341.441 0.965919 1.2453 0
M  V30 3791 C 342.351 0.502154 2.29163 0
M  V30 3792 C 343.367 -0.436017 1.68448 0
M  V30 3793 O 344.543 -0.309497 1.99008 0
M  V30 3794 C 341.608 -0.201956 3.46111 0
M  V30 3795 C 340.669 0.775821 4.22232 0
M  V30 3796 C 339.902 0.105217 5.33596 0
M  V30 3797 O 340.125 -1.10683 5.59558 0
M  V30 3798 O 339.059 0.796475 5.96607 0
M  V30 3799 H 342.885 1.37194 2.70946 0
M  V30 3800 H 340.47 0.732875 1.30189 0
M  V30 3801 H 342.352 -0.597564 4.17142 0
M  V30 3802 H 341.027 -1.04673 3.06309 0
M  V30 3803 H 339.934 1.22185 3.53584 0
M  V30 3804 H 341.267 1.58896 4.65846 0
M  V30 3805 N 342.919 -1.39368 0.735821 0
M  V30 3806 C 344.168 -1.99733 0.281004 0
M  V30 3807 C 344.481 -1.59055 -1.13846 0
M  V30 3808 O 345.687 -2.12262 -1.69284 0
M  V30 3809 C 344.143 -3.57057 0.451462 0
M  V30 3810 C 343.751 -4.06697 1.87886 0
M  V30 3811 C 345.495 -4.2446 0.0584616 0
M  V30 3812 C 343.402 -5.56598 1.99883 0
M  V30 3813 H 342.332 -0.747163 0.101311 0
M  V30 3814 H 344.983 -1.59357 0.909819 0
M  V30 3815 H 343.365 -3.95234 -0.246263 0
M  V30 3816 H 344.539 -3.79853 2.60861 0
M  V30 3817 H 342.854 -3.5196 2.22515 0
M  V30 3818 H 345.451 -5.34549 0.127099 0
M  V30 3819 H 345.794 -4.04444 -0.986433 0
M  V30 3820 H 346.327 -3.9146 0.707374 0
M  V30 3821 H 343.066 -5.81494 3.02564 0
M  V30 3822 H 342.586 -5.85242 1.31346 0
M  V30 3823 H 344.265 -6.22022 1.78039 0
M  V30 3824 N 344.397 -0.483516 -1.5 0
M  V30 3825 C 345.645 0.067027 -2.01989 0
M  V30 3826 C 345.966 1.3909 -1.36671 0
M  V30 3827 O 345.236 1.88978 -0.516152 0
M  V30 3828 H 343.816 0.0277606 -0.746484 0
M  V30 3829 H 346.478 -0.636773 -1.84204 0
M  V30 3830 H 345.574 0.209484 -3.11396 0
M  V30 3831 N 345.875 1.56104 -0.216619 0
M  V30 3832 C 347.124 1.97348 0.416744 0
M  V30 3833 C 347.437 1.10715 1.6125 0
M  V30 3834 O 348.643 1.41836 2.31506 0
M  V30 3835 C 347.099 3.51059 0.792835 0
M  V30 3836 C 346.707 4.46387 -0.379828 0
M  V30 3837 C 348.451 4.01026 1.39208 0
M  V30 3838 C 346.358 5.91397 0.0184223 0
M  V30 3839 H 345.288 0.736942 0.159475 0
M  V30 3840 H 347.939 1.80827 -0.31205 0
M  V30 3841 H 346.321 3.63162 1.57891 0
M  V30 3842 H 347.495 4.46029 -1.15737 0
M  V30 3843 H 345.81 4.06734 -0.891979 0
M  V30 3844 H 348.407 5.0686 1.70286 0
M  V30 3845 H 348.75 3.46587 2.30614 0
M  V30 3846 H 349.283 3.92125 0.669537 0
M  V30 3847 H 346.022 6.49807 -0.862002 0
M  V30 3848 H 345.542 5.94961 0.760384 0
M  V30 3849 H 347.221 6.45455 0.446818 0
M  V30 3850 N 347.353 -0.0568162 1.57498 0
M  V30 3851 C 348.578 -0.769402 1.92601 0
M  V30 3852 C 349.003 -1.69559 0.814336 0
M  V30 3853 O 348.361 -1.79811 -0.231903 0
M  V30 3854 C 348.409 -1.52634 3.26704 0
M  V30 3855 O 347.513 -2.63797 3.16994 0
M  V30 3856 H 346.854 -0.208909 0.63028 0
M  V30 3857 H 349.384 -0.0205798 2.0459 0
M  V30 3858 H 349.394 -1.90234 3.60936 0
M  V30 3859 H 348.069 -0.846875 4.07186 0
M  V30 3860 H 346.646 -2.28943 2.94346 0
M  V30 3861 N 348.832 -1.54138 -0.328536 0
M  V30 3862 C 350.072 -1.73827 -1.07534 0
M  V30 3863 C 350.436 -0.498777 -1.85408 0
M  V30 3864 O 351.637 -0.572937 -2.62623 0
M  V30 3865 C 349.908 -2.97573 -1.97952 0
M  V30 3866 S 351.467 -3.38143 -2.79652 0
M  V30 3867 H 348.285 -0.611287 -0.36311 0
M  V30 3868 H 350.887 -1.92306 -0.351931 0
M  V30 3869 H 349.591 -3.85939 -1.39569 0
M  V30 3870 H 349.122 -2.81603 -2.74706 0
M  V30 3871 H 351.137 -2.93052 -4.00418 0
M  V30 3872 N 350.31 0.590341 -1.46126 0
M  V30 3873 C 351.24 1.71032 -1.58966 0
M  V30 3874 C 352.221 1.64302 -0.440335 0
M  V30 3875 O 353.406 1.82436 -0.665634 0
M  V30 3876 C 350.536 3.09665 -1.57241 0
M  V30 3877 C 349.49 3.31221 -2.71066 0
M  V30 3878 C 348.816 4.70303 -2.54399 0
M  V30 3879 C 350.116 3.19796 -4.1295 0
M  V30 3880 H 351.81 1.60543 -2.52718 0
M  V30 3881 H 349.356 0.770933 -1.21625 0
M  V30 3882 H 351.309 3.87831 -1.64819 0
M  V30 3883 H 350.033 3.21036 -0.600289 0
M  V30 3884 H 348.692 2.55452 -2.62944 0
M  V30 3885 H 348.34 4.78429 -1.55288 0
M  V30 3886 H 348.04 4.85679 -3.30741 0
M  V30 3887 H 349.564 5.50647 -2.63857 0
M  V30 3888 H 350.978 3.87815 -4.22223 0
M  V30 3889 H 349.375 3.46696 -4.89818 0
M  V30 3890 H 350.445 2.16983 -4.33643 0
M  V30 3891 N 351.788 1.33704 0.83433 0
M  V30 3892 C 352.751 1.24244 1.92603 0
M  V30 3893 C 353.751 0.160383 1.59998 0
M  V30 3894 O 354.941 0.412228 1.69252 0
M  V30 3895 C 352.073 0.91555 3.28376 0
M  V30 3896 H 353.266 2.21287 2.02416 0
M  V30 3897 H 350.819 1.17827 1.02696 0
M  V30 3898 H 351.554 -0.0521886 3.24258 0
M  V30 3899 H 351.339 1.69811 3.53422 0
M  V30 3900 H 352.829 0.874231 4.08347 0
M  V30 3901 N 353.266 -1.05314 1.17247 0
M  V30 3902 C 354.514 -1.77941 0.958194 0
M  V30 3903 C 354.835 -1.88089 -0.514556 0
M  V30 3904 O 354.105 -1.39676 -1.37359 0
M  V30 3905 H 352.685 -0.659116 0.351533 0
M  V30 3906 H 355.347 -1.27166 1.47699 0
M  V30 3907 H 354.443 -2.79663 1.38546 0
M  V30 3908 N 354.744 -0.972509 -1.24016 0
M  V30 3909 C 355.677 -0.45117 -2.23696 0
M  V30 3910 C 356.655 0.477378 -1.55434 0
M  V30 3911 O 357.839 0.407647 -1.84039 0
M  V30 3912 C 354.966 0.34818 -3.36906 0
M  V30 3913 C 354.012 -0.523355 -4.23277 0
M  V30 3914 S 354.845 -1.96647 -4.98087 0
M  V30 3915 C 356.001 -1.17604 -6.14752 0
M  V30 3916 H 356.234 -1.29588 -2.67571 0
M  V30 3917 H 353.767 -0.777903 -1.33372 0
M  V30 3918 H 355.725 0.803387 -4.02562 0
M  V30 3919 H 354.386 1.16792 -2.91579 0
M  V30 3920 H 353.579 0.0906181 -5.03919 0
M  V30 3921 H 353.181 -0.914485 -3.62647 0
M  V30 3922 H 355.473 -0.433434 -6.76112 0
M  V30 3923 H 356.416 -1.95701 -6.8052 0
M  V30 3924 H 356.824 -0.698295 -5.60164 0
M  V30 3925 N 356.222 1.38976 -0.743202 0
M  V30 3926 C 357.185 2.28901 -0.117014 0
M  V30 3927 C 358.185 1.46698 0.658503 0
M  V30 3928 O 359.375 1.67274 0.486305 0
M  V30 3929 C 356.507 3.30309 0.84315 0
M  V30 3930 H 357.7 2.8578 -0.909373 0
M  V30 3931 H 355.253 1.47761 -0.509547 0
M  V30 3932 H 355.988 2.785 1.66157 0
M  V30 3933 H 355.773 3.91029 0.289594 0
M  V30 3934 H 357.263 3.97577 1.2776 0
M  V30 3935 N 357.7 0.491464 1.49741 0
M  V30 3936 C 358.946 -0.0565092 2.02721 0
M  V30 3937 C 359.279 -1.37522 1.37118 0
M  V30 3938 O 358.554 -1.87866 0.503645 0
M  V30 3939 C 358.837 -0.219051 3.59433 0
M  V30 3940 C 358.69 1.12211 4.35579 0
M  V30 3941 C 360.009 -0.964157 4.29409 0
M  V30 3942 H 357.128 -0.0190627 0.736753 0
M  V30 3943 H 359.77 0.641021 1.7886 0
M  V30 3944 H 357.92 -0.813165 3.79895 0
M  V30 3945 H 359.592 1.75437 4.26637 0
M  V30 3946 H 357.835 1.71377 3.98513 0
M  V30 3947 H 358.506 0.961794 5.43556 0
M  V30 3948 H 360.982 -0.460378 4.13545 0
M  V30 3949 H 359.858 -1.04671 5.38828 0
M  V30 3950 H 360.119 -2.00563 3.93988 0
M  V30 3951 N 359.178 -1.55987 0.224894 0
M  V30 3952 C 360.108 -2.23426 -0.678457 0
M  V30 3953 C 361.089 -1.20709 -1.19847 0
M  V30 3954 O 362.274 -1.49304 -1.24186 0
M  V30 3955 C 359.404 -2.91676 -1.88527 0
M  V30 3956 C 358.358 -4.00893 -1.49896 0
M  V30 3957 C 357.684 -4.56455 -2.78483 0
M  V30 3958 C 358.984 -5.17769 -0.686461 0
M  V30 3959 H 360.678 -2.99175 -0.116173 0
M  V30 3960 H 358.224 -1.43897 -0.054436 0
M  V30 3961 H 360.177 -3.37547 -2.5227 0
M  V30 3962 H 358.901 -2.1338 -2.47258 0
M  V30 3963 H 357.56 -3.55758 -0.884985 0
M  V30 3964 H 357.208 -3.74886 -3.35365 0
M  V30 3965 H 356.908 -5.30169 -2.53368 0
M  V30 3966 H 358.432 -5.05047 -3.43162 0
M  V30 3967 H 359.846 -5.60001 -1.22767 0
M  V30 3968 H 358.243 -5.97735 -0.532259 0
M  V30 3969 H 359.313 -4.83932 0.306196 0
M  V30 3970 N 360.656 0.0484629 -1.57525 0
M  V30 3971 C 361.905 0.742065 -1.87553 0
M  V30 3972 C 362.218 1.77545 -0.820802 0
M  V30 3973 O 363.424 2.52027 -1.00967 0
M  V30 3974 C 361.88 1.37081 -3.32771 0
M  V30 3975 C 361.488 0.374786 -4.4643 0
M  V30 3976 C 363.232 2.04542 -3.71972 0
M  V30 3977 C 361.139 1.01077 -5.82698 0
M  V30 3978 H 360.069 0.280903 -0.699721 0
M  V30 3979 H 362.72 -0.00411877 -1.835 0
M  V30 3980 H 361.102 2.16605 -3.31509 0
M  V30 3981 H 362.276 -0.392331 -4.59127 0
M  V30 3982 H 360.591 -0.196653 -4.15935 0
M  V30 3983 H 363.188 2.52943 -4.71088 0
M  V30 3984 H 363.531 2.85515 -3.02964 0
M  V30 3985 H 364.064 1.31819 -3.75325 0
M  V30 3986 H 360.803 0.240878 -6.55057 0
M  V30 3987 H 360.323 1.74819 -5.73758 0
M  V30 3988 H 362.002 1.52383 -6.28799 0
M  V30 3989 N 362.134 1.5431 0.320358 0
M  V30 3990 C 363.383 1.7188 1.05546 0
M  V30 3991 C 363.696 0.501143 1.89071 0
M  V30 3992 O 364.902 0.558258 2.65699 0
M  V30 3993 C 363.358 3.04025 1.92605 0
M  V30 3994 C 362.966 4.33207 1.14176 0
M  V30 3995 C 364.71 3.30959 2.65832 0
M  V30 3996 C 362.617 5.56412 2.00399 0
M  V30 3997 H 361.547 0.640547 0.397763 0
M  V30 3998 H 364.198 1.80802 0.313522 0
M  V30 3999 H 362.58 2.89019 2.7071 0
M  V30 4000 H 363.754 4.58989 0.40819 0
M  V30 4001 H 362.069 4.13062 0.526165 0
M  V30 4002 H 364.666 4.20203 3.30656 0
M  V30 4003 H 365.009 2.48979 3.33639 0
M  V30 4004 H 365.542 3.46847 1.94787 0
M  V30 4005 H 362.281 6.41004 1.37094 0
M  V30 4006 H 361.801 5.34844 2.7148 0
M  V30 4007 H 363.48 5.92938 2.58908 0
M  V30 4008 N 363.613 -0.582584 1.46437 0
M  V30 4009 C 364.543 -1.70187 1.59871 0
M  V30 4010 C 365.524 -1.64066 0.449042 0
M  V30 4011 O 366.709 -1.82081 0.6753 0
M  V30 4012 C 363.839 -3.08827 1.58881 0
M  V30 4013 C 362.793 -3.29779 2.72819 0
M  V30 4014 C 362.119 -4.68947 2.5689 0
M  V30 4015 C 363.419 -3.17601 4.1464 0
M  V30 4016 H 365.113 -1.592 2.53566 0
M  V30 4017 H 362.659 -0.764472 1.22032 0
M  V30 4018 H 364.612 -3.86951 1.66873 0
M  V30 4019 H 363.336 -3.20713 0.617306 0
M  V30 4020 H 361.995 -2.54054 2.64296 0
M  V30 4021 H 361.643 -4.77599 1.57823 0
M  V30 4022 H 361.343 -4.83919 3.33312 0
M  V30 4023 H 362.867 -5.4924 2.66773 0
M  V30 4024 H 364.281 -3.8557 4.24274 0
M  V30 4025 H 362.678 -3.44094 4.9165 0
M  V30 4026 H 363.748 -2.14681 4.34788 0
M  V30 4027 N 365.091 -1.34144 -0.827227 0
M  V30 4028 C 366.021 -1.28005 -1.95287 0
M  V30 4029 C 367.002 -0.158321 -1.69362 0
M  V30 4030 O 368.187 -0.349987 -1.9102 0
M  V30 4031 C 365.317 -1.03036 -3.31664 0
M  V30 4032 C 364.271 -2.11628 -3.72019 0
M  V30 4033 C 363.597 -1.71854 -5.0633 0
M  V30 4034 C 364.897 -3.53417 -3.8457 0
M  V30 4035 H 366.591 -2.22187 -2.00682 0
M  V30 4036 H 364.137 -1.0696 -0.964135 0
M  V30 4037 H 366.09 -0.973863 -4.09993 0
M  V30 4038 H 364.814 -0.0529391 -3.26557 0
M  V30 4039 H 363.473 -2.16339 -2.95961 0
M  V30 4040 H 363.121 -0.727841 -4.97706 0
M  V30 4041 H 362.821 -2.44531 -5.34302 0
M  V30 4042 H 364.345 -1.67692 -5.87122 0
M  V30 4043 H 365.759 -3.51142 -4.5318 0
M  V30 4044 H 364.156 -4.24679 -4.2399 0
M  V30 4045 H 365.226 -3.91072 -2.86689 0
M  V30 4046 N 366.569 1.04691 -1.17803 0
M  V30 4047 C 367.98 1.59238 -0.974689 0
M  V30 4048 C 368.331 1.90306 0.477292 0
M  V30 4049 O 367.456 1.68846 1.35352 0
M  V30 4050 C 368.051 2.89318 -1.76296 0
M  V30 4051 C 366.61 3.40506 -1.60414 0
M  V30 4052 C 365.757 2.14172 -1.76141 0
M  V30 4053 H 368.708 0.874395 -1.32439 0
M  V30 4054 H 368.729 3.5944 -1.24833 0
M  V30 4055 H 368.241 2.66675 -2.81968 0
M  V30 4056 H 366.342 3.68175 -0.572519 0
M  V30 4057 H 366.455 4.14753 -2.39827 0
M  V30 4058 H 364.819 2.25176 -1.19028 0
M  V30 4059 H 365.602 1.93992 -2.83235 0
M  V30 4060 N 368.047 0.979072 1.23499 0
M  V30 4061 C 368.977 0.537606 2.27227 0
M  V30 4062 C 369.958 -0.428539 1.64613 0
M  V30 4063 O 371.143 -0.322191 1.91509 0
M  V30 4064 C 368.273 -0.162052 3.46922 0
M  V30 4065 C 367.227 0.721242 4.21879 0
M  V30 4066 C 366.553 -0.110555 5.34586 0
M  V30 4067 C 367.853 2.01141 4.82016 0
M  V30 4068 H 369.547 1.40462 2.64406 0
M  V30 4069 H 367.093 0.67684 1.27102 0
M  V30 4070 H 369.046 -0.482192 4.18632 0
M  V30 4071 H 367.77 -1.06351 3.08799 0
M  V30 4072 H 366.429 1.02482 3.51984 0
M  V30 4073 H 366.077 -1.0125 4.92704 0
M  V30 4074 H 365.777 0.477325 5.85658 0
M  V30 4075 H 367.301 -0.425107 6.09118 0
M  V30 4076 H 368.715 1.75612 5.45741 0
M  V30 4077 H 367.112 2.54695 5.43369 0
M  V30 4078 H 368.182 2.69909 4.02836 0
M  V30 4079 N 369.525 -1.3858 0.750561 0
M  V30 4080 C 370.457 -2.29057 0.0810714 0
M  V30 4081 C 371.47 -1.47596 -0.686973 0
M  V30 4082 O 372.659 -1.70495 -0.528563 0
M  V30 4083 C 369.759 -3.26475 -0.909247 0
M  V30 4084 C 368.932 -4.36945 -0.199478 0
M  V30 4085 C 367.991 -5.14572 -1.10011 0
M  V30 4086 O 367.017 -5.66321 -0.57177 0
M  V30 4087 N 368.219 -5.27262 -2.42849 0
M  V30 4088 H 370.984 -2.87153 0.858087 0
M  V30 4089 H 368.545 -1.50328 0.60109 0
M  V30 4090 H 370.537 -3.75285 -1.51471 0
M  V30 4091 H 369.107 -2.69298 -1.58736 0
M  V30 4092 H 368.327 -3.8981 0.586664 0
M  V30 4093 H 369.615 -5.07963 0.291783 0
M  V30 4094 H 369.013 -4.86763 -2.88233 0
M  V30 4095 H 367.57 -5.79456 -2.98453 0
M  V30 4096 N 371.003 -0.499398 -1.49478 0
M  V30 4097 C 372.228 0.044722 -2.07352 0
M  V30 4098 C 372.653 1.30207 -1.35749 0
M  V30 4099 O 372.011 1.76516 -0.413732 0
M  V30 4100 C 372.059 0.283013 -3.59488 0
M  V30 4101 O 371.163 1.35804 -3.89398 0
M  V30 4102 H 370.504 -0.0255147 -0.66351 0
M  V30 4103 H 373.034 -0.698561 -1.92305 0
M  V30 4104 H 373.044 0.515007 -4.04737 0
M  V30 4105 H 371.719 -0.635636 -4.11014 0
M  V30 4106 H 370.296 1.11113 -3.55961 0
M  V30 4107 N 372.481 1.55866 -0.233164 0
M  V30 4108 C 373.721 2.00506 0.397078 0
M  V30 4109 C 374.085 1.1176 1.56121 0
M  V30 4110 O 375.286 1.45796 2.25825 0
M  V30 4111 C 373.557 3.4811 0.809601 0
M  V30 4112 S 375.116 4.14765 1.43231 0
M  V30 4113 H 371.934 0.699828 0.125547 0
M  V30 4114 H 374.536 1.92429 -0.345177 0
M  V30 4115 H 373.24 4.10373 -0.0471601 0
M  V30 4116 H 372.771 3.60085 1.58438 0
M  V30 4117 H 374.786 4.14914 2.7214 0
M  V30 4118 N 373.959 -0.0401083 1.57549 0
M  V30 4119 C 375.206 -0.733125 1.88763 0
M  V30 4120 C 375.534 -1.75946 0.829058 0
M  V30 4121 O 374.789 -1.94949 -0.171323 0
M  V30 4122 C 375.088 -1.44902 3.26708 0
M  V30 4123 C 374.754 -0.559707 4.47413 0
M  V30 4124 C 373.416 -0.314731 4.8017 0
M  V30 4125 C 375.768 0.0549743 5.21171 0
M  V30 4126 C 373.096 0.553886 5.8408 0
M  V30 4127 C 375.448 0.911229 6.26003 0
M  V30 4128 C 374.112 1.16577 6.57241 0
M  V30 4129 H 373.382 -0.268269 0.690733 0
M  V30 4130 H 376.029 0.00679408 1.91499 0
M  V30 4131 H 374.334 -2.26197 3.1991 0
M  V30 4132 H 376.031 -1.99058 3.48105 0
M  V30 4133 H 372.621 -0.760793 4.21794 0
M  V30 4134 H 376.805 -0.121344 4.96152 0
M  V30 4135 H 372.061 0.759518 6.06664 0
M  V30 4136 H 376.235 1.3941 6.82303 0
M  V30 4137 H 373.862 1.84058 7.37582 0
M  V30 4138 N 375.437 -1.54477 -0.31217 0
M  V30 4139 C 376.685 -1.72884 -1.04668 0
M  V30 4140 C 377.006 -0.511477 -1.88173 0
M  V30 4141 O 376.276 0.474407 -1.90069 0
M  V30 4142 H 374.856 -0.637461 -0.389425 0
M  V30 4143 H 377.518 -1.91807 -0.345852 0
M  V30 4144 H 376.614 -2.61334 -1.70619 0
M  V30 4145 N 376.915 0.57481 -1.46744 0
M  V30 4146 C 377.862 1.68329 -1.57905 0
M  V30 4147 C 378.832 1.60625 -0.422927 0
M  V30 4148 O 380.017 1.79721 -0.640711 0
M  V30 4149 C 377.157 3.06665 -1.58274 0
M  V30 4150 C 376.27 3.24935 -2.84678 0
M  V30 4151 C 375.405 4.53566 -2.76499 0
M  V30 4152 C 374.444 4.65207 -3.97806 0
M  V30 4153 N 373.581 5.85172 -3.87967 0
M  V30 4154 H 378.421 1.58127 -2.52587 0
M  V30 4155 H 375.958 0.770552 -1.25303 0
M  V30 4156 H 377.916 3.86745 -1.56473 0
M  V30 4157 H 376.546 3.15745 -0.671194 0
M  V30 4158 H 375.598 2.38405 -2.96424 0
M  V30 4159 H 376.91 3.29403 -3.7456 0
M  V30 4160 H 376.064 5.41885 -2.72848 0
M  V30 4161 H 374.803 4.51548 -1.8427 0
M  V30 4162 H 373.808 3.75304 -4.0178 0
M  V30 4163 H 375.033 4.68997 -4.9114 0
M  V30 4164 H 372.979 5.84137 -2.98529 0
M  V30 4165 H 372.896 5.90943 -4.71511 0
M  V30 4166 H 374.164 6.759 -3.88303 0
M  V30 4167 N 378.394 1.34581 0.820102 0
M  V30 4168 C 379.324 1.29038 1.94606 0
M  V30 4169 C 380.305 0.1673 1.69275 0
M  V30 4170 O 381.49 0.360112 1.90832 0
M  V30 4171 C 378.62 1.04793 3.31113 0
M  V30 4172 C 377.574 2.13597 3.70891 0
M  V30 4173 C 376.9 1.74537 5.05412 0
M  V30 4174 C 378.2 3.55451 3.8269 0
M  V30 4175 H 379.894 2.23248 1.99501 0
M  V30 4176 H 377.44 1.0747 0.958449 0
M  V30 4177 H 379.393 0.995592 4.0947 0
M  V30 4178 H 378.117 0.0702565 3.26524 0
M  V30 4179 H 376.776 2.17905 2.9481 0
M  V30 4180 H 376.424 0.754226 4.97313 0
M  V30 4181 H 376.124 2.47361 5.32997 0
M  V30 4182 H 377.648 1.70803 5.86224 0
M  V30 4183 H 379.062 3.5354 4.51312 0
M  V30 4184 H 377.459 4.26922 4.21732 0
M  V30 4185 H 378.529 3.92587 2.84611 0
M  V30 4186 N 379.872 -1.04064 1.18357 0
M  V30 4187 C 381.119 -1.77265 0.978947 0
M  V30 4188 C 381.447 -1.88189 -0.491428 0
M  V30 4189 O 380.702 -1.38653 -1.38108 0
M  V30 4190 C 381.001 -3.20634 1.57888 0
M  V30 4191 C 380.667 -3.29743 3.07539 0
M  V30 4192 C 379.329 -3.31937 3.48384 0
M  V30 4193 C 381.681 -3.29841 4.03552 0
M  V30 4194 C 379.009 -3.3187 4.83818 0
M  V30 4195 C 381.361 -3.31313 5.38901 0
M  V30 4196 C 380.025 -3.31799 5.79194 0
M  V30 4197 H 379.295 -0.648659 0.358222 0
M  V30 4198 H 381.942 -1.22225 1.47422 0
M  V30 4199 H 380.247 -3.78675 1.00561 0
M  V30 4200 H 381.944 -3.75917 1.39598 0
M  V30 4201 H 378.534 -3.28757 2.74986 0
M  V30 4202 H 382.718 -3.27337 3.73047 0
M  V30 4203 H 377.974 -3.30562 5.14333 0
M  V30 4204 H 382.148 -3.30338 6.13066 0
M  V30 4205 H 379.775 -3.315 6.84114 0
M  V30 4206 N 381.35 -0.985608 -1.22978 0
M  V30 4207 C 382.575 -0.675254 -1.961 0
M  V30 4208 C 383 0.752154 -1.72407 0
M  V30 4209 O 382.358 1.5131 -0.998751 0
M  V30 4210 C 382.406 -0.977899 -3.47087 0
M  V30 4211 O 381.51 -0.072685 -4.12336 0
M  V30 4212 H 380.851 -0.253443 -0.613728 0
M  V30 4213 H 383.381 -1.32061 -1.56272 0
M  V30 4214 H 383.391 -0.916739 -3.97567 0
M  V30 4215 H 382.066 -2.01807 -3.63657 0
M  V30 4216 H 380.643 -0.188703 -3.72422 0
M  V30 4217 N 382.828 1.3818 -0.7579 0
M  V30 4218 C 384.053 2.04827 -0.325679 0
M  V30 4219 C 384.478 1.56788 1.03919 0
M  V30 4220 O 383.836 0.721811 1.66312 0
M  V30 4221 C 383.884 3.58774 -0.362447 0
M  V30 4222 O 382.988 4.07372 0.642033 0
M  V30 4223 H 382.329 0.64833 -0.143402 0
M  V30 4224 H 384.859 1.7677 -1.03023 0
M  V30 4225 H 384.869 4.07434 -0.214844 0
M  V30 4226 H 383.544 3.93096 -1.35824 0
M  V30 4227 H 382.121 3.70068 0.458688 0
M  V30 4228 N 384.306 0.507319 1.49211 0
M  V30 4229 C 385.236 -0.256939 2.32082 0
M  V30 4230 C 386.217 -0.956609 1.40652 0
M  V30 4231 O 387.402 -0.946788 1.69557 0
M  V30 4232 C 384.532 -1.31802 3.21318 0
M  V30 4233 C 383.486 -0.737855 4.21592 0
M  V30 4234 C 382.812 -1.89992 4.99807 0
M  V30 4235 C 384.112 0.275325 5.21574 0
M  V30 4236 H 385.806 0.434798 2.96226 0
M  V30 4237 H 383.352 0.210546 1.42452 0
M  V30 4238 H 385.305 -1.86045 3.78107 0
M  V30 4239 H 384.029 -2.03903 2.5513 0
M  V30 4240 H 382.688 -0.217126 3.65956 0
M  V30 4241 H 382.336 -2.60877 4.30061 0
M  V30 4242 H 382.036 -1.51777 5.6766 0
M  V30 4243 H 383.56 -2.44657 5.59442 0
M  V30 4244 H 384.974 -0.179193 5.7302 0
M  V30 4245 H 383.371 0.573649 5.97352 0
M  V30 4246 H 384.441 1.18903 4.70096 0
M  V30 4247 N 385.784 -1.5574 0.241426 0
M  V30 4248 C 387.2 -1.59196 -0.113548 0
M  V30 4249 C 387.4 -1.25852 -1.57364 0
M  V30 4250 O 386.456 -1.00322 -2.31715 0
M  V30 4251 C 387.769 -2.99814 0.230695 0
M  V30 4252 C 389.317 -3.12513 0.174547 0
M  V30 4253 C 389.792 -4.55342 0.492744 0
M  V30 4254 N 391.283 -4.61076 0.443043 0
M  V30 4255 C 392.018 -5.6956 0.662484 0
M  V30 4256 N 391.514 -6.86328 0.944761 0
M  V30 4257 N 393.307 -5.58957 0.593564 0
M  V30 4258 H 385.458 -1.75685 1.19368 0
M  V30 4259 H 387.721 -0.81756 0.479896 0
M  V30 4260 H 387.427 -3.28932 1.24485 0
M  V30 4261 H 387.301 -3.74568 -0.444833 0
M  V30 4262 H 389.688 -2.83179 -0.830277 0
M  V30 4263 H 389.769 -2.40045 0.883845 0
M  V30 4264 H 389.413 -4.85396 1.4951 0
M  V30 4265 H 389.343 -5.26062 -0.23797 0
M  V30 4266 H 391.834 -3.77179 0.233374 0
M  V30 4267 H 392.147 -7.64935 1.09977 0
M  V30 4268 H 390.492 -6.88025 0.982175 0
M  V30 4269 H 393.683 -4.66611 0.373123 0
M  V30 4270 H 393.856 -6.43433 0.767981 0
M  V30 4271 N 387.262 0.0317525 -1.57568 0
M  V30 4272 C 388.487 0.738664 -1.938 0
M  V30 4273 C 388.912 1.68242 -0.841208 0
M  V30 4274 O 388.27 1.80157 0.203267 0
M  V30 4275 C 388.318 1.47417 -3.29091 0
M  V30 4276 O 387.422 2.5872 -3.2115 0
M  V30 4277 H 386.763 0.198856 -0.633524 0
M  V30 4278 H 389.293 -0.0119713 -2.04596 0
M  V30 4279 H 389.303 1.84468 -3.63917 0
M  V30 4280 H 387.978 0.781988 -4.08482 0
M  V30 4281 H 386.555 2.24231 -2.97951 0
M  V30 4282 N 388.74 1.54641 0.303973 0
M  V30 4283 C 389.687 1.85386 1.37479 0
M  V30 4284 C 390.657 0.702528 1.50512 0
M  V30 4285 O 391.842 0.950867 1.65418 0
M  V30 4286 C 388.982 2.10413 2.73533 0
M  V30 4287 C 388.095 3.38049 2.68974 0
M  V30 4288 C 387.23 3.52934 3.97002 0
M  V30 4289 C 386.269 4.74373 3.86829 0
M  V30 4290 N 385.406 4.8608 5.06627 0
M  V30 4291 H 390.246 2.76732 1.1056 0
M  V30 4292 H 387.783 1.37034 0.534805 0
M  V30 4293 H 389.741 2.22919 3.52652 0
M  V30 4294 H 388.371 1.22338 2.98719 0
M  V30 4295 H 387.423 3.3418 1.81736 0
M  V30 4296 H 388.735 4.27288 2.57346 0
M  V30 4297 H 387.889 3.65088 4.84557 0
M  V30 4298 H 386.628 2.61824 4.1146 0
M  V30 4299 H 385.633 4.62255 2.97658 0
M  V30 4300 H 386.858 5.66888 3.73918 0
M  V30 4301 H 384.804 3.97891 5.21554 0
M  V30 4302 H 384.721 5.69315 4.9741 0
M  V30 4303 H 385.989 5.02587 5.95841 0
M  V30 4304 N 390.218 -0.567019 1.47046 0
M  V30 4305 C 391.446 -1.35027 1.56765 0
M  V30 4306 C 391.861 -1.8758 0.214316 0
M  V30 4307 O 391.218 -1.64471 -0.790919 0
M  V30 4308 C 391.269 -2.52698 2.58507 0
M  V30 4309 O 390.99 -2.0232 3.88585 0
M  V30 4310 C 392.491 -3.45043 2.78316 0
M  V30 4311 H 389.711 -0.41195 0.529658 0
M  V30 4312 H 392.255 -0.687832 1.92585 0
M  V30 4313 H 390.41 -3.149 2.25648 0
M  V30 4314 H 390.824 -2.79068 4.44096 0
M  V30 4315 H 392.298 -4.2405 3.53391 0
M  V30 4316 H 392.775 -3.97971 1.85784 0
M  V30 4317 H 393.381 -2.88665 3.12334 0
M  V30 4318 N 391.696 -1.35014 -0.812953 0
M  V30 4319 C 392.659 -1.27292 -1.90602 0
M  V30 4320 C 393.659 -0.185817 -1.59723 0
M  V30 4321 O 394.849 -0.439102 -1.68575 0
M  V30 4322 C 391.981 -0.967676 -3.26877 0
M  V30 4323 H 393.174 -2.24479 -1.9887 0
M  V30 4324 H 390.727 -1.19446 -1.00808 0
M  V30 4325 H 391.462 0.0005954 -3.243 0
M  V30 4326 H 391.247 -1.75412 -3.50675 0
M  V30 4327 H 392.737 -0.939085 -4.06904 0
M  V30 4328 N 393.175 1.03435 -1.18907 0
M  V30 4329 C 394.403 1.80381 -1.01342 0
M  V30 4330 C 394.818 1.83649 0.438005 0
M  V30 4331 O 394.175 1.27655 1.30424 0
M  V30 4332 C 394.226 3.25689 -1.56873 0
M  V30 4333 O 393.947 3.22673 -2.96334 0
M  V30 4334 C 395.448 4.19255 -1.44014 0
M  V30 4335 H 392.668 0.56784 -0.35749 0
M  V30 4336 H 395.212 1.30317 -1.576 0
M  V30 4337 H 393.367 3.72962 -1.04777 0
M  V30 4338 H 393.781 4.13748 -3.22355 0
M  V30 4339 H 395.255 5.19123 -1.87657 0
M  V30 4340 H 395.732 4.37467 -0.389815 0
M  V30 4341 H 396.338 3.77851 -1.95214 0
M  V30 4342 N 394.653 0.992116 1.22453 0
M  V30 4343 C 395.9 0.667534 1.91181 0
M  V30 4344 C 396.228 -0.800317 1.77271 0
M  V30 4345 O 395.483 -1.59421 1.13505 0
M  V30 4346 C 395.782 1.01832 3.42586 0
M  V30 4347 C 395.448 2.47831 3.76684 0
M  V30 4348 C 394.11 2.87729 3.85701 0
M  V30 4349 C 396.462 3.42466 3.92895 0
M  V30 4350 C 393.79 4.21252 4.08367 0
M  V30 4351 C 396.142 4.75648 4.17064 0
M  V30 4352 C 394.806 5.15288 4.24305 0
M  V30 4353 H 394.076 0.244268 0.699581 0
M  V30 4354 H 396.723 1.24816 1.45235 0
M  V30 4355 H 395.028 0.355769 3.90181 0
M  V30 4356 H 396.725 0.745228 3.94014 0
M  V30 4357 H 393.315 2.15905 3.70247 0
M  V30 4358 H 397.499 3.12814 3.85307 0
M  V30 4359 H 392.755 4.51554 4.122 0
M  V30 4360 H 396.929 5.48924 4.2855 0
M  V30 4361 H 394.556 6.18769 4.41621 0
M  V30 4362 N 396.131 -1.37776 0.765217 0
M  V30 4363 C 397.359 -2.04124 0.337767 0
M  V30 4364 C 397.774 -1.57715 -1.03785 0
M  V30 4365 O 397.131 -0.755447 -1.6613 0
M  V30 4366 C 397.182 -3.59658 0.364442 0
M  V30 4367 O 396.903 -4.04367 1.68579 0
M  V30 4368 C 398.404 -4.43236 -0.0754221 0
M  V30 4369 H 395.624 -0.655696 0.142491 0
M  V30 4370 H 398.168 -1.76238 1.03732 0
M  V30 4371 H 396.323 -3.86339 -0.286471 0
M  V30 4372 H 396.737 -4.98857 1.61993 0
M  V30 4373 H 398.211 -5.52 -0.00560067 0
M  V30 4374 H 398.688 -4.2455 -1.12491 0
M  V30 4375 H 399.294 -4.21767 0.547055 0
M  V30 4376 N 397.609 -0.515225 -1.4894 0
M  V30 4377 C 398.886 0.0879088 -1.95402 0
M  V30 4378 C 399.266 1.52745 -1.45712 0
M  V30 4379 O 398.614 2.18238 -0.677093 0
M  V30 4380 C 398.824 -0.0141055 -3.48997 0
M  V30 4381 C 400.172 0.152646 -4.24326 0
M  V30 4382 O 401.196 0.0604025 -3.56149 0
M  V30 4383 O 400.055 0.34384 -5.45417 0
M  V30 4384 H 397.149 0.0874636 -0.822362 0
M  V30 4385 H 399.695 -0.578775 -1.59525 0
M  V30 4386 H 398.467 -1.01745 -3.77841 0
M  V30 4387 H 398.09 0.692091 -3.9153 0
M  V30 4388 N 399.087 1.5561 -0.249682 0
M  V30 4389 C 400.05 2.20217 0.635394 0
M  V30 4390 C 401.05 1.17227 1.10066 0
M  V30 4391 O 402.24 1.42292 1.00492 0
M  V30 4392 C 399.372 2.84794 1.87363 0
M  V30 4393 H 400.565 2.99814 0.0716752 0
M  V30 4394 H 398.118 1.563 -0.000153234 0
M  V30 4395 H 398.853 2.09142 2.47851 0
M  V30 4396 H 398.638 3.60241 1.5482 0
M  V30 4397 H 400.128 3.3423 2.5036 0
M  V30 4398 N 400.565 -0.0233959 1.57583 0
M  V30 4399 C 401.981 -0.379134 1.55031 0
M  V30 4400 C 402.181 -1.76255 0.976548 0
M  V30 4401 O 401.237 -2.45266 0.600078 0
M  V30 4402 C 402.55 -0.275792 2.99433 0
M  V30 4403 C 404.098 -0.352458 3.11009 0
M  V30 4404 C 404.573 -0.278501 4.57152 0
M  V30 4405 N 406.064 -0.337123 4.61972 0
M  V30 4406 C 406.799 -0.302876 5.726 0
M  V30 4407 N 406.295 -0.220589 6.92449 0
M  V30 4408 N 408.088 -0.353023 5.6099 0
M  V30 4409 H 400.239 0.881869 1.93227 0
M  V30 4410 H 402.502 0.335867 0.886509 0
M  V30 4411 H 402.208 0.675108 3.4516 0
M  V30 4412 H 402.082 -1.06721 3.61788 0
M  V30 4413 H 404.469 -1.29379 2.65226 0
M  V30 4414 H 404.55 0.468409 2.51475 0
M  V30 4415 H 404.194 0.659189 5.03604 0
M  V30 4416 H 404.124 -1.11755 5.14605 0
M  V30 4417 H 406.615 -0.403002 3.75745 0
M  V30 4418 H 406.928 -0.199713 7.72542 0
M  V30 4419 H 405.273 -0.186555 6.9475 0
M  V30 4420 H 408.464 -0.415339 4.66254 0
M  V30 4421 H 408.637 -0.322866 6.47195 0
M  V30 4422 N 402.043 -1.548 -0.295768 0
M  V30 4423 C 403.292 -1.73538 -1.02798 0
M  V30 4424 C 403.605 -0.531159 -1.8825 0
M  V30 4425 O 404.811 -0.600458 -2.64777 0
M  V30 4426 C 403.267 -3.07051 -1.87744 0
M  V30 4427 C 402.875 -4.34968 -1.07269 0
M  V30 4428 C 404.619 -3.35146 -2.60533 0
M  V30 4429 C 402.526 -5.5953 -1.91521 0
M  V30 4430 H 401.456 -0.646794 -0.387522 0
M  V30 4431 H 404.107 -1.81278 -0.284718 0
M  V30 4432 H 402.489 -2.93289 -2.66078 0
M  V30 4433 H 403.663 -4.5958 -0.335117 0
M  V30 4434 H 401.978 -4.13847 -0.460384 0
M  V30 4435 H 404.575 -4.2541 -3.23929 0
M  V30 4436 H 404.918 -2.54255 -3.29636 0
M  V30 4437 H 405.451 -3.49902 -1.89244 0
M  V30 4438 H 402.19 -6.43103 -1.26878 0
M  V30 4439 H 401.71 -5.39096 -2.62937 0
M  V30 4440 H 403.389 -5.96982 -2.49442 0
M  V30 4441 N 403.521 0.559213 -1.47345 0
M  V30 4442 C 404.937 0.884943 -1.32819 0
M  V30 4443 C 405.137 1.98988 -0.317173 0
M  V30 4444 O 404.193 2.51031 0.272011 0
M  V30 4445 C 405.506 1.28007 -2.72093 0
M  V30 4446 C 407.054 1.39161 -2.80363 0
M  V30 4447 C 407.529 1.82031 -4.20272 0
M  V30 4448 N 409.02 1.89185 -4.22804 0
M  V30 4449 C 409.755 2.2368 -5.27973 0
M  V30 4450 N 409.251 2.56802 -6.43447 0
M  V30 4451 N 411.044 2.24436 -5.15349 0
M  V30 4452 H 403.195 -0.170304 -2.11716 0
M  V30 4453 H 405.458 -0.0135247 -0.947904 0
M  V30 4454 H 405.164 0.542027 -3.47498 0
M  V30 4455 H 405.038 2.23665 -3.03733 0
M  V30 4456 H 407.425 2.12048 -2.05231 0
M  V30 4457 H 407.506 0.41696 -2.52379 0
M  V30 4458 H 407.15 1.09715 -4.95908 0
M  V30 4459 H 407.08 2.80495 -4.45679 0
M  V30 4460 H 409.571 1.65982 -3.39497 0
M  V30 4461 H 409.884 2.82144 -7.19454 0
M  V30 4462 H 408.229 2.54387 -6.46771 0
M  V30 4463 H 411.42 1.97998 -4.24163 0
M  V30 4464 H 411.593 2.50989 -5.97418 0
M  V30 4465 N 404.999 1.35443 0.805782 0
M  V30 4466 C 406.227 1.31878 1.59423 0
M  V30 4467 C 406.642 -0.103562 1.88516 0
M  V30 4468 O 405.999 -1.05575 1.48863 0
M  V30 4469 C 406.05 2.12426 2.92502 0
M  V30 4470 O 405.771 3.49115 2.6467 0
M  V30 4471 C 407.272 2.16455 3.86862 0
M  V30 4472 H 404.492 0.453002 0.495005 0
M  V30 4473 H 407.036 1.78309 1.00131 0
M  V30 4474 H 405.191 1.69593 3.48306 0
M  V30 4475 H 405.605 3.90957 3.49647 0
M  V30 4476 H 407.079 2.77204 4.77349 0
M  V30 4477 H 407.556 1.16352 4.23508 0
M  V30 4478 H 408.162 2.59453 3.36993 0
M  V30 4479 N 406.477 -1.02803 1.19454 0
M  V30 4480 C 407.41 -2.107 0.876396 0
M  V30 4481 C 408.388 -1.61741 -0.166897 0
M  V30 4482 O 409.572 -1.88451 -0.0430195 0
M  V30 4483 C 406.699 -3.37262 0.311758 0
M  V30 4484 C 405.745 -4.05093 1.33424 0
M  V30 4485 S 406.578 -4.50498 2.89503 0
M  V30 4486 C 407.734 -5.80277 2.34584 0
M  V30 4487 H 407.967 -2.37362 1.79016 0
M  V30 4488 H 405.5 -1.15755 1.02177 0
M  V30 4489 H 407.458 -4.10499 -0.00748752 0
M  V30 4490 H 406.119 -3.08693 -0.58032 0
M  V30 4491 H 405.312 -4.9611 0.888302 0
M  V30 4492 H 404.914 -3.3803 1.60037 0
M  V30 4493 H 407.206 -6.54873 1.73633 0
M  V30 4494 H 408.149 -6.29651 3.23952 0
M  V30 4495 H 408.557 -5.3599 1.77131 0
M  V30 4496 N 407.956 -0.998596 -1.21925 0
M  V30 4497 C 408.904 -0.546641 -2.26085 0
M  V30 4498 C 409.898 0.405576 -1.64473 0
M  V30 4499 O 411.104 0.277471 -1.77849 0
M  V30 4500 H 407.479 -0.158403 -0.735127 0
M  V30 4501 H 409.45 -1.43645 -2.61551 0
M  V30 4502 C 408.199 0.117388 -3.47502 0
M  V30 4503 H 407.522 -0.606277 -3.95176 0
M  V30 4504 H 408.962 0.396993 -4.22137 0
M  V30 4505 C 407.421 1.35455 -3.0847 0
M  V30 4506 O 407.951 2.44944 -3.18379 0
M  V30 4507 N 406.157 1.23191 -2.63196 0
M  V30 4508 H 405.704 0.341006 -2.55333 0
M  V30 4509 H 405.662 2.06071 -2.37449 0
M  V30 4510 N 409.434 1.37368 -0.772513 0
M  V30 4511 C 410.344 2.34053 -0.160081 0
M  V30 4512 C 411.36 1.60216 0.678728 0
M  V30 4513 O 412.536 1.92303 0.59847 0
M  V30 4514 C 409.601 3.3939 0.708182 0
M  V30 4515 C 408.662 4.29048 -0.147172 0
M  V30 4516 C 407.895 5.29354 0.679744 0
M  V30 4517 O 408.118 5.3723 1.91678 0
M  V30 4518 O 407.052 6.01835 0.0885444 0
M  V30 4519 H 410.878 2.88159 -0.959053 0
M  V30 4520 H 408.463 1.39543 -0.533685 0
M  V30 4521 H 410.345 4.03839 1.20384 0
M  V30 4522 H 409.02 2.8761 1.48533 0
M  V30 4523 H 407.927 3.67697 -0.689205 0
M  V30 4524 H 409.26 4.84134 -0.887423 0
M  V30 4525 N 410.912 0.523116 1.48665 0
M  V30 4526 C 412.158 -0.0134963 2.02796 0
M  V30 4527 C 412.491 -1.34582 1.40004 0
M  V30 4528 O 411.766 -1.86756 0.543381 0
M  V30 4529 C 412.049 -0.14276 3.59817 0
M  V30 4530 C 411.902 1.21425 4.331 0
M  V30 4531 C 413.221 -0.872856 4.31357 0
M  V30 4532 H 410.34 -0.00343074 0.736992 0
M  V30 4533 H 412.982 0.678816 1.7746 0
M  V30 4534 H 411.132 -0.732401 3.81534 0
M  V30 4535 H 412.804 1.84447 4.2282 0
M  V30 4536 H 411.047 1.79791 3.94788 0
M  V30 4537 H 411.718 1.07687 5.41394 0
M  V30 4538 H 414.194 -0.372555 4.14429 0
M  V30 4539 H 413.07 -0.932185 5.40927 0
M  V30 4540 H 413.331 -1.92161 3.98154 0
M  V30 4541 N 412.39 -1.55475 0.257931 0
M  V30 4542 C 413.639 -1.98383 -0.364275 0
M  V30 4543 C 413.952 -1.14952 -1.58258 0
M  V30 4544 O 415.158 -1.47924 -2.27664 0
M  V30 4545 C 413.614 -3.53037 -0.699479 0
M  V30 4546 C 413.222 -4.45223 0.498046 0
M  V30 4547 C 414.966 -4.04575 -1.28526 0
M  V30 4548 C 412.873 -5.91238 0.138383 0
M  V30 4549 H 411.803 -0.740911 -0.13988 0
M  V30 4550 H 414.454 -1.79936 0.359883 0
M  V30 4551 H 412.836 -3.6722 -1.48207 0
M  V30 4552 H 414.01 -4.42803 1.27522 0
M  V30 4553 H 412.325 -4.04226 0.999503 0
M  V30 4554 H 414.922 -5.11196 -1.56788 0
M  V30 4555 H 415.265 -3.5258 -2.21344 0
M  V30 4556 H 415.798 -3.93762 -0.565337 0
M  V30 4557 H 412.537 -6.47294 1.03398 0
M  V30 4558 H 412.057 -5.96768 -0.602374 0
M  V30 4559 H 413.736 -6.46413 -0.27553 0
M  V30 4560 N 413.868 0.0150385 -1.57593 0
M  V30 4561 C 415.096 0.714395 -1.94175 0
M  V30 4562 C 415.511 1.68135 -0.858841 0
M  V30 4563 O 414.868 1.81766 0.163567 0
M  V30 4564 C 414.919 1.45933 -3.30735 0
M  V30 4565 O 414.64 0.531167 -4.34868 0
M  V30 4566 C 416.141 2.25456 -3.81686 0
M  V30 4567 H 413.361 0.199923 -0.640525 0
M  V30 4568 H 415.905 -0.0316096 -2.04476 0
M  V30 4569 H 414.06 2.15709 -3.21789 0
M  V30 4570 H 414.474 1.05509 -5.13778 0
M  V30 4571 H 415.948 2.731 -4.79709 0
M  V30 4572 H 416.425 3.07485 -3.13607 0
M  V30 4573 H 417.031 1.60727 -3.9376 0
M  V30 4574 N 415.346 1.54954 0.287554 0
M  V30 4575 C 416.594 1.74528 1.01904 0
M  V30 4576 C 416.915 0.541349 1.87335 0
M  V30 4577 O 416.185 -0.444108 1.908 0
M  V30 4578 H 414.765 0.643576 0.379235 0
M  V30 4579 H 417.427 1.92333 0.315294 0
M  V30 4580 H 416.523 2.64015 1.6644 0
M  V30 4581 N 416.824 -0.551391 1.4764 0
M  V30 4582 C 418.073 -1.30467 1.53822 0
M  V30 4583 C 418.386 -1.94495 0.207661 0
M  V30 4584 O 419.592 -2.71099 0.147533 0
M  V30 4585 C 418.048 -2.36616 2.71184 0
M  V30 4586 C 417.656 -1.78754 4.10793 0
M  V30 4587 C 419.4 -3.13088 2.86663 0
M  V30 4588 C 417.307 -2.82717 5.19447 0
M  V30 4589 H 416.237 -0.490584 0.572576 0
M  V30 4590 H 418.888 -0.58494 1.73927 0
M  V30 4591 H 417.27 -3.11529 2.4447 0
M  V30 4592 H 418.444 -1.10173 4.47435 0
M  V30 4593 H 416.759 -1.14846 4.00249 0
M  V30 4594 H 419.356 -3.90736 3.65007 0
M  V30 4595 H 419.699 -3.67635 1.95321 0
M  V30 4596 H 420.232 -2.45288 3.13175 0
M  V30 4597 H 416.971 -2.33018 6.12685 0
M  V30 4598 H 416.491 -3.4969 4.87316 0
M  V30 4599 H 418.17 -3.46102 5.46646 0
M  V30 4600 N 418.302 -1.35869 -0.798587 0
M  V30 4601 C 419.718 -1.16082 -1.09532 0
M  V30 4602 C 419.918 0.0213124 -2.01489 0
M  V30 4603 O 418.974 0.689488 -2.42904 0
M  V30 4604 C 420.287 -2.46748 -1.7186 0
M  V30 4605 C 421.835 -2.53028 -1.84244 0
M  V30 4606 C 422.31 -3.83758 -2.49988 0
M  V30 4607 N 423.801 -3.85053 -2.57465 0
M  V30 4608 C 424.536 -4.8294 -3.09122 0
M  V30 4609 N 424.032 -5.91217 -3.61157 0
M  V30 4610 N 425.825 -4.70369 -3.0775 0
M  V30 4611 H 417.976 -2.11571 -0.187461 0
M  V30 4612 H 420.239 -0.936726 -0.145765 0
M  V30 4613 H 419.945 -3.33471 -1.11759 0
M  V30 4614 H 419.819 -2.61883 -2.71472 0
M  V30 4615 H 422.206 -1.66729 -2.43486 0
M  V30 4616 H 422.287 -2.418 -0.834643 0
M  V30 4617 H 421.931 -4.70459 -1.91393 0
M  V30 4618 H 421.861 -3.92278 -3.5132 0
M  V30 4619 H 424.352 -3.06822 -2.20609 0
M  V30 4620 H 424.665 -6.61892 -3.98896 0
M  V30 4621 H 423.01 -5.94899 -3.59333 0
M  V30 4622 H 426.201 -3.84914 -2.66381 0
M  V30 4623 H 426.374 -5.46816 -3.47701 0
M  V30 4624 N 419.78 1.02168 -1.19998 0
M  V30 4625 C 421.029 1.75091 -1.0013 0
M  V30 4626 C 421.342 1.89923 0.467835 0
M  V30 4627 O 422.548 2.59888 0.785515 0
M  V30 4628 C 421.004 3.14892 -1.74273 0
M  V30 4629 C 420.612 3.0809 -3.25245 0
M  V30 4630 C 422.356 3.9206 -1.62755 0
M  V30 4631 C 420.263 4.42867 -3.91948 0
M  V30 4632 H 419.193 0.656394 -0.37103 0
M  V30 4633 H 421.844 1.14284 -1.43567 0
M  V30 4634 H 420.226 3.7621 -1.2362 0
M  V30 4635 H 421.4 2.5611 -3.83072 0
M  V30 4636 H 419.715 2.44416 -3.3712 0
M  V30 4637 H 422.312 4.91764 -2.09934 0
M  V30 4638 H 422.655 4.12199 -0.582894 0
M  V30 4639 H 423.188 3.37359 -2.10793 0
M  V30 4640 H 419.927 4.27931 -4.96543 0
M  V30 4641 H 419.447 4.94874 -3.3891 0
M  V30 4642 H 421.126 5.11728 -3.95909 0
M  V30 4643 N 421.258 1.00505 1.21394 0
M  V30 4644 C 422.507 0.683159 1.89778 0
M  V30 4645 C 422.82 -0.789471 1.7896 0
M  V30 4646 O 424.026 -1.22344 2.42372 0
M  V30 4647 C 422.482 1.17146 3.40301 0
M  V30 4648 C 422.09 2.67017 3.5973 0
M  V30 4649 C 423.834 0.924461 4.14311 0
M  V30 4650 C 421.741 3.09387 5.04017 0
M  V30 4651 H 420.671 0.25183 0.710702 0
M  V30 4652 H 423.322 1.21622 1.37406 0
M  V30 4653 H 421.704 0.566451 3.91928 0
M  V30 4654 H 422.878 3.32968 3.18542 0
M  V30 4655 H 421.193 2.89732 2.99073 0
M  V30 4656 H 423.79 1.21658 5.20676 0
M  V30 4657 H 424.133 -0.139286 4.16067 0
M  V30 4658 H 424.666 1.49226 3.6875 0
M  V30 4659 H 421.405 4.14989 5.07409 0
M  V30 4660 H 420.925 2.48149 5.46061 0
M  V30 4661 H 422.604 3.01371 5.72525 0
M  V30 4662 N 422.737 -1.36956 0.779787 0
M  V30 4663 C 423.684 -2.30175 0.169697 0
M  V30 4664 C 424.654 -1.51501 -0.68094 0
M  V30 4665 O 425.839 -1.80042 -0.631629 0
M  V30 4666 C 422.979 -3.37985 -0.697131 0
M  V30 4667 C 422.092 -4.31661 0.170992 0
M  V30 4668 C 421.227 -5.2655 -0.701298 0
M  V30 4669 C 420.266 -6.11867 0.168869 0
M  V30 4670 N 419.403 -6.98973 -0.661855 0
M  V30 4671 H 424.243 -2.81767 0.970135 0
M  V30 4672 H 421.78 -1.38699 0.489994 0
M  V30 4673 H 423.738 -3.99128 -1.2146 0
M  V30 4674 H 422.368 -2.87739 -1.46309 0
M  V30 4675 H 421.42 -3.71756 0.80634 0
M  V30 4676 H 422.732 -4.91644 0.841875 0
M  V30 4677 H 421.886 -5.92937 -1.28494 0
M  V30 4678 H 420.625 -4.66998 -1.40584 0
M  V30 4679 H 419.63 -5.44452 0.764986 0
M  V30 4680 H 420.855 -6.73493 0.870863 0
M  V30 4681 H 418.801 -6.41941 -1.35086 0
M  V30 4682 H 418.718 -7.55984 -0.0484447 0
M  V30 4683 H 419.986 -7.6974 -1.22963 0
M  V30 4684 N 424.215 -0.530993 -1.48385 0
M  V30 4685 C 425.148 0.278511 -2.26494 0
M  V30 4686 C 426.126 0.943905 -1.32398 0
M  V30 4687 O 427.31 0.968098 -1.61741 0
M  V30 4688 C 424.437 1.39453 -3.08659 0
M  V30 4689 C 423.483 0.840434 -4.18137 0
M  V30 4690 S 424.316 -0.292496 -5.34701 0
M  V30 4691 C 425.472 0.825973 -6.20426 0
M  V30 4692 H 425.705 -0.384365 -2.94805 0
M  V30 4693 H 423.238 -0.316799 -1.51115 0
M  V30 4694 H 425.196 2.03382 -3.56575 0
M  V30 4695 H 423.857 2.02913 -2.3976 0
M  V30 4696 H 423.05 1.67769 -4.75257 0
M  V30 4697 H 422.652 0.277819 -3.72967 0
M  V30 4698 H 424.944 1.72438 -6.55188 0
M  V30 4699 H 425.887 0.292728 -7.07495 0
M  V30 4700 H 426.295 1.10683 -5.53543 0
M  V30 4701 N 425.693 1.55336 -0.266172 0
M  V30 4702 C 426.923 2.03506 0.356239 0
M  V30 4703 C 427.331 1.14426 1.50676 0
M  V30 4704 O 426.674 0.155043 1.83045 0
M  V30 4705 C 426.736 3.47848 0.90785 0
M  V30 4706 C 426.4 4.56861 -0.112888 0
M  V30 4707 C 427.397 5.11528 -0.929264 0
M  V30 4708 C 425.082 5.01704 -0.244546 0
M  V30 4709 C 427.076 6.09549 -1.86357 0
M  V30 4710 C 424.763 5.99553 -1.18234 0
M  V30 4711 C 425.761 6.53356 -1.99036 0
M  V30 4712 O 425.449 7.49293 -2.91231 0
M  V30 4713 H 425.181 0.670444 0.08649 0
M  V30 4714 H 427.735 2.01598 -0.39337 0
M  V30 4715 H 425.965 3.46967 1.70737 0
M  V30 4716 H 427.654 3.79407 1.44239 0
M  V30 4717 H 428.42 4.77701 -0.838237 0
M  V30 4718 H 424.299 4.59477 0.374359 0
M  V30 4719 H 427.843 6.51469 -2.49467 0
M  V30 4720 H 423.74 6.32799 -1.27421 0
M  V30 4721 H 424.508 7.66978 -2.8581 0
M  V30 4722 N 427.171 -0.0066808 1.57599 0
M  V30 4723 C 428.134 -0.985035 2.06953 0
M  V30 4724 C 429.134 -1.27663 0.977687 0
M  V30 4725 O 430.324 -1.22293 1.24057 0
M  V30 4726 C 427.456 -2.3118 2.50536 0
M  V30 4727 H 428.649 -0.558255 2.94658 0
M  V30 4728 H 426.202 -0.254011 1.54222 0
M  V30 4729 H 426.937 -2.78561 1.66054 0
M  V30 4730 H 426.722 -2.11338 3.3027 0
M  V30 4731 H 428.212 -3.01377 2.8907 0
M  V30 4732 N 428.649 -1.55105 -0.279332 0
M  V30 4733 C 429.895 -1.76597 -1.00921 0
M  V30 4734 C 430.25 -0.556831 -1.84166 0
M  V30 4735 O 429.543 0.450573 -1.86227 0
M  V30 4736 C 429.737 -3.0086 -1.92919 0
M  V30 4737 C 429.566 -4.33744 -1.18728 0
M  V30 4738 C 428.336 -4.9712 -0.905545 0
M  V30 4739 C 430.534 -5.11009 -0.580857 0
M  V30 4740 N 428.516 -6.13749 -0.136169 0
M  V30 4741 C 429.887 -6.19976 0.0546661 0
M  V30 4742 C 431.942 -4.95502 -0.488067 0
M  V30 4743 C 430.645 -7.15123 0.774028 0
M  V30 4744 C 432.671 -5.90999 0.217688 0
M  V30 4745 C 432.033 -6.9935 0.841975 0
M  V30 4746 H 428.132 -0.698553 -0.351493 0
M  V30 4747 H 430.716 -1.92595 -0.285531 0
M  V30 4748 H 428.887 -2.86249 -2.62519 0
M  V30 4749 H 430.619 -3.10784 -2.59221 0
M  V30 4750 H 427.374 -4.57903 -1.20921 0
M  V30 4751 H 427.798 -6.7659 0.235665 0
M  V30 4752 H 432.44 -4.11841 -0.956406 0
M  V30 4753 H 430.158 -7.9831 1.25407 0
M  V30 4754 H 433.744 -5.81078 0.289717 0
M  V30 4755 H 432.624 -7.71973 1.37939 0
M  V30 4756 N 430.127 0.543554 -1.4793 0
M  V30 4757 C 431.037 1.67657 -1.64098 0
M  V30 4758 C 432.053 1.65934 -0.523622 0
M  V30 4759 O 433.229 1.85133 -0.792943 0
M  V30 4760 C 430.294 3.04146 -1.66421 0
M  V30 4761 C 429.355 3.16831 -2.89684 0
M  V30 4762 C 428.588 4.46809 -2.91886 0
M  V30 4763 O 428.811 5.33095 -2.02895 0
M  V30 4764 O 427.745 4.63573 -3.83906 0
M  V30 4765 H 431.571 1.56957 -2.59997 0
M  V30 4766 H 429.156 0.715116 -1.31173 0
M  V30 4767 H 431.038 3.85346 -1.70548 0
M  V30 4768 H 429.713 3.152 -0.736923 0
M  V30 4769 H 428.62 2.34977 -2.91095 0
M  V30 4770 H 429.953 3.10687 -3.81752 0
M  V30 4771 N 431.605 1.3629 0.791371 0
M  V30 4772 C 432.552 1.30458 1.90393 0
M  V30 4773 C 433.522 0.173632 1.6519 0
M  V30 4774 O 434.707 0.35983 1.87376 0
M  V30 4775 C 431.847 1.09777 3.27174 0
M  V30 4776 C 430.96 2.31929 3.64462 0
M  V30 4777 C 430.095 2.04276 4.90352 0
M  V30 4778 C 429.134 3.224 5.20312 0
M  V30 4779 N 428.271 2.94424 6.37385 0
M  V30 4780 H 433.111 2.25589 1.94714 0
M  V30 4781 H 430.648 1.12122 0.952216 0
M  V30 4782 H 432.606 0.958133 4.06049 0
M  V30 4783 H 431.236 0.183014 3.22281 0
M  V30 4784 H 430.288 2.56703 2.80727 0
M  V30 4785 H 431.6 3.20085 3.82553 0
M  V30 4786 H 430.754 1.87231 5.77087 0
M  V30 4787 H 429.493 1.13428 4.74326 0
M  V30 4788 H 428.498 3.40005 4.32061 0
M  V30 4789 H 429.723 4.14071 5.38258 0
M  V30 4790 H 427.669 2.06185 6.22755 0
M  V30 4791 H 427.586 3.76118 6.55798 0
M  V30 4792 H 428.854 2.80953 7.27108 0
M  V30 4793 N 433.083 -1.0153 1.20538 0
M  V30 4794 C 434.308 -1.79283 1.04271 0
M  V30 4795 C 434.733 -1.8372 -0.403544 0
M  V30 4796 O 434.091 -1.27321 -1.2907 0
M  V30 4797 C 434.139 -3.21535 1.63241 0
M  V30 4798 O 433.243 -4.03099 0.870908 0
M  V30 4799 H 432.584 -0.55293 0.367647 0
M  V30 4800 H 435.114 -1.27696 1.59859 0
M  V30 4801 H 435.124 -3.72243 1.6703 0
M  V30 4802 H 433.799 -3.1762 2.68497 0
M  V30 4803 H 432.376 -3.61693 0.907323 0
M  V30 4804 N 434.561 -1.01147 -1.20859 0
M  V30 4805 C 435.808 -0.697865 -1.90095 0
M  V30 4806 C 436.136 0.772014 -1.78522 0
M  V30 4807 O 435.391 1.57595 -1.16027 0
M  V30 4808 C 435.69 -1.0727 -3.40922 0
M  V30 4809 C 435.356 -2.53792 -3.72693 0
M  V30 4810 C 434.018 -2.93829 -3.81075 0
M  V30 4811 C 436.37 -3.48674 -3.87397 0
M  V30 4812 C 433.698 -4.27696 -4.01613 0
M  V30 4813 C 436.05 -4.82223 -4.09444 0
M  V30 4814 C 434.714 -5.21973 -4.16054 0
M  V30 4815 H 433.984 -0.255367 -0.695607 0
M  V30 4816 H 436.631 -1.27111 -1.43231 0
M  V30 4817 H 434.936 -0.417799 -3.89566 0
M  V30 4818 H 436.633 -0.807818 -3.92779 0
M  V30 4819 H 433.223 -2.21768 -3.66765 0
M  V30 4820 H 437.407 -3.18904 -3.80281 0
M  V30 4821 H 432.663 -4.58055 -4.04964 0
M  V30 4822 H 436.837 -5.55672 -4.19763 0
M  V30 4823 H 434.464 -6.25717 -4.31721 0
M  V30 4824 N 436.039 1.36541 -0.78704 0
M  V30 4825 C 437.264 2.0409 -0.369053 0
M  V30 4826 C 437.689 1.58957 1.00569 0
M  V30 4827 O 437.047 0.756926 1.64743 0
M  V30 4828 C 437.095 3.57924 -0.438466 0
M  V30 4829 O 436.199 4.08642 0.555479 0
M  V30 4830 H 435.54 0.645142 -0.157122 0
M  V30 4831 H 438.07 1.74545 -1.06749 0
M  V30 4832 H 438.08 4.06887 -0.301218 0
M  V30 4833 H 436.755 3.90127 -1.44132 0
M  V30 4834 H 435.332 3.70958 0.380088 0
M  V30 4835 N 437.518 0.538854 1.48102 0
M  V30 4836 C 438.466 -0.232325 2.31437 0
M  V30 4837 C 439.46 -0.927004 1.41785 0
M  V30 4838 O 440.666 -0.850378 1.58646 0
M  V30 4839 H 437.041 -0.0937916 0.746128 0
M  V30 4840 H 439.012 0.489986 2.9435 0
M  V30 4841 C 437.761 -1.26074 3.24038 0
M  V30 4842 H 437.084 -0.735609 3.92974 0
M  V30 4843 H 438.524 -1.77157 3.85216 0
M  V30 4844 C 436.983 -2.29902 2.46265 0
M  V30 4845 O 437.513 -3.36502 2.19384 0
M  V30 4846 N 435.719 -2.03348 2.07601 0
M  V30 4847 H 435.266 -1.16675 2.29662 0
M  V30 4848 H 435.224 -2.73038 1.55877 0
M  V30 4849 N 438.996 -1.55193 0.274407 0
M  V30 4850 C 439.926 -2.25471 -0.607032 0
M  V30 4851 C 440.907 -1.24461 -1.15946 0
M  V30 4852 O 442.092 -1.53179 -1.19373 0
M  V30 4853 C 439.222 -2.97526 -1.79153 0
M  V30 4854 C 438.176 -4.05459 -1.37067 0
M  V30 4855 C 437.502 -4.65084 -2.6382 0
M  V30 4856 C 438.802 -5.19691 -0.521389 0
M  V30 4857 H 440.496 -2.99393 -0.0209343 0
M  V30 4858 H 438.042 -1.43997 -0.00862866 0
M  V30 4859 H 439.995 -3.45402 -2.41404 0
M  V30 4860 H 438.719 -2.21138 -2.40344 0
M  V30 4861 H 437.378 -3.58393 -0.771355 0
M  V30 4862 H 437.026 -3.85365 -3.23268 0
M  V30 4863 H 436.726 -5.37961 -2.36372 0
M  V30 4864 H 438.25 -5.15708 -3.26921 0
M  V30 4865 H 439.664 -5.63623 -1.04889 0
M  V30 4866 H 438.061 -5.99126 -0.341825 0
M  V30 4867 H 439.131 -4.82713 0.46 0
M  V30 4868 N 440.474 -0.00167713 -1.576 0
M  V30 4869 C 441.723 0.682021 -1.89819 0
M  V30 4870 C 442.036 1.74844 -0.876871 0
M  V30 4871 O 443.242 2.48688 -1.08934 0
M  V30 4872 C 441.698 1.26425 -3.36964 0
M  V30 4873 C 441.306 0.232568 -4.47396 0
M  V30 4874 C 443.05 1.92604 -3.78291 0
M  V30 4875 C 440.957 0.824882 -5.85619 0
M  V30 4876 H 439.887 0.258499 -0.708304 0
M  V30 4877 H 442.538 -0.0624957 -1.83394 0
M  V30 4878 H 440.92 2.05949 -3.38232 0
M  V30 4879 H 442.094 -0.5382 -4.57646 0
M  V30 4880 H 440.409 -0.32888 -4.15099 0
M  V30 4881 H 443.006 2.37827 -4.78897 0
M  V30 4882 H 443.349 2.75732 -3.11894 0
M  V30 4883 H 443.882 1.19812 -3.79328 0
M  V30 4884 H 440.621 0.0323542 -6.55492 0
M  V30 4885 H 440.141 1.56477 -5.79029 0
M  V30 4886 H 441.82 1.32301 -6.33329 0
M  V30 4887 N 441.952 1.55251 0.271103 0
M  V30 4888 C 443.18 1.79974 1.02064 0
M  V30 4889 C 443.595 0.574003 1.79863 0
M  V30 4890 O 442.952 -0.456962 1.76686 0
M  V30 4891 C 443.003 3.02603 1.97772 0
M  V30 4892 O 442.724 4.20443 1.23124 0
M  V30 4893 C 444.225 3.39944 2.84522 0
M  V30 4894 H 441.445 0.599489 0.301419 0
M  V30 4895 H 443.989 2.02268 0.301313 0
M  V30 4896 H 442.144 2.8243 2.65165 0
M  V30 4897 H 442.558 4.89783 1.87651 0
M  V30 4898 H 444.032 4.28915 3.47471 0
M  V30 4899 H 444.509 2.59432 3.54389 0
M  V30 4900 H 445.115 3.62383 2.22618 0
M  V30 4901 N 443.43 -0.535701 1.48216 0
M  V30 4902 C 444.378 -1.66179 1.62749 0
M  V30 4903 C 445.372 -1.62034 0.49409 0
M  V30 4904 O 446.578 -1.6696 0.672624 0
M  V30 4905 H 442.953 -0.550244 0.512578 0
M  V30 4906 H 444.924 -1.51063 2.57337 0
M  V30 4907 C 443.673 -3.04471 1.67907 0
M  V30 4908 H 442.996 -3.08351 2.54479 0
M  V30 4909 H 444.436 -3.82894 1.82121 0
M  V30 4910 C 442.895 -3.34314 0.416596 0
M  V30 4911 O 443.425 -3.98905 -0.473014 0
M  V30 4912 N 441.631 -2.89149 0.290038 0
M  V30 4913 H 441.178 -2.36764 1.01493 0
M  V30 4914 H 441.136 -3.09486 -0.55367 0
M  V30 4915 N 444.908 -1.36708 -0.784132 0
M  V30 4916 C 445.838 -1.34153 -1.91116 0
M  V30 4917 C 446.819 -0.212121 -1.68772 0
M  V30 4918 O 448.004 -0.410581 -1.8981 0
M  V30 4919 C 445.134 -1.13535 -3.28218 0
M  V30 4920 C 444.088 -2.23356 -3.65097 0
M  V30 4921 C 443.414 -1.87875 -5.00607 0
M  V30 4922 C 444.714 -3.65473 -3.73131 0
M  V30 4923 H 446.408 -2.28459 -1.93512 0
M  V30 4924 H 443.954 -1.09973 -0.929618 0
M  V30 4925 H 445.907 -1.10381 -4.06687 0
M  V30 4926 H 444.631 -0.156804 -3.26223 0
M  V30 4927 H 443.29 -2.25645 -2.88929 0
M  V30 4928 H 442.938 -0.885814 -4.95139 0
M  V30 4929 H 442.638 -2.61406 -5.26252 0
M  V30 4930 H 444.162 -1.86286 -5.81489 0
M  V30 4931 H 445.576 -3.65382 -4.41779 0
M  V30 4932 H 443.973 -4.37953 -4.10265 0
M  V30 4933 H 445.043 -3.99995 -2.74102 0
M  V30 4934 N 446.386 1.0089 -1.21074 0
M  V30 4935 C 447.802 1.2695 -0.967257 0
M  V30 4936 C 448.002 1.9846 0.348673 0
M  V30 4937 O 447.058 2.28459 1.0753 0
M  V30 4938 C 448.371 2.09697 -2.15517 0
M  V30 4939 C 449.919 2.22937 -2.197 0
M  V30 4940 C 450.394 3.09064 -3.37999 0
M  V30 4941 N 451.885 3.16653 -3.38061 0
M  V30 4942 C 452.62 3.8354 -4.26245 0
M  V30 4943 N 452.116 4.52488 -5.2462 0
M  V30 4944 N 453.909 3.80141 -4.14064 0
M  V30 4945 H 446.06 0.529005 -2.05707 0
M  V30 4946 H 448.323 0.296148 -0.900556 0
M  V30 4947 H 448.029 1.64497 -3.10859 0
M  V30 4948 H 447.903 3.10444 -2.14253 0
M  V30 4949 H 450.29 2.67357 -1.24916 0
M  V30 4950 H 450.371 1.21673 -2.2501 0
M  V30 4951 H 450.015 2.65347 -4.33074 0
M  V30 4952 H 449.945 4.10433 -3.29928 0
M  V30 4953 H 452.436 2.67566 -2.66865 0
M  V30 4954 H 452.749 5.01219 -5.88217 0
M  V30 4955 H 451.094 4.51288 -5.28549 0
M  V30 4956 H 454.285 3.25427 -3.36474 0
M  V30 4957 H 454.458 4.31992 -4.82998 0
M  V30 4958 N 447.864 1.01787 1.20321 0
M  V30 4959 C 448.811 0.589197 2.23153 0
M  V30 4960 C 449.781 -0.391367 1.61423 0
M  V30 4961 O 450.966 -0.290518 1.88575 0
M  V30 4962 C 448.106 -0.0650747 3.45039 0
M  V30 4963 C 447.219 0.960207 4.21194 0
M  V30 4964 C 446.354 0.276854 5.30478 0
M  V30 4965 C 445.393 1.2888 5.98378 0
M  V30 4966 N 444.53 0.632031 6.99249 0
M  V30 4967 H 449.37 1.47071 2.59179 0
M  V30 4968 H 446.907 0.736192 1.27352 0
M  V30 4969 H 448.865 -0.461552 4.14639 0
M  V30 4970 H 447.495 -0.910233 3.09701 0
M  V30 4971 H 446.547 1.47484 3.50646 0
M  V30 4972 H 447.859 1.72977 4.67847 0
M  V30 4973 H 447.013 -0.175056 6.06447 0
M  V30 4974 H 445.752 -0.525004 4.84866 0
M  V30 4975 H 444.757 1.75109 5.21169 0
M  V30 4976 H 445.982 2.09196 6.46076 0
M  V30 4977 H 443.928 -0.149935 6.55829 0
M  V30 4978 H 443.845 1.33964 7.44036 0
M  V30 4979 H 445.113 0.203755 7.79234 0
M  V30 4980 N 449.342 -1.36122 0.79427 0
M  V30 4981 C 450.289 -2.29982 0.194101 0
M  V30 4982 C 451.259 -1.52214 -0.664833 0
M  V30 4983 O 452.444 -1.80702 -0.612498 0
M  V30 4984 C 449.584 -3.38706 -0.661244 0
M  V30 4985 C 448.697 -4.31456 0.216766 0
M  V30 4986 C 447.832 -5.27265 -0.645411 0
M  V30 4987 C 446.871 -6.11653 0.233756 0
M  V30 4988 N 446.008 -6.99636 -0.587682 0
M  V30 4989 H 450.848 -2.80722 0.999965 0
M  V30 4990 H 448.385 -1.38172 0.504677 0
M  V30 4991 H 450.343 -4.00394 -1.17219 0
M  V30 4992 H 448.973 -2.89274 -1.43249 0
M  V30 4993 H 448.025 -3.7088 0.845724 0
M  V30 4994 H 449.337 -4.90724 0.893973 0
M  V30 4995 H 448.491 -5.94266 -1.22198 0
M  V30 4996 H 447.23 -4.68463 -1.35623 0
M  V30 4997 H 446.235 -5.4361 0.82269 0
M  V30 4998 H 447.46 -6.72531 0.942247 0
M  V30 4999 H 445.406 -6.43337 -1.2827 0
M  V30 5000 H 445.323 -7.55993 0.0317402 0
M  V30 5001 H 446.591 -7.71001 -1.14792 0
M  V30 5002 N 450.82 -0.546701 -1.47814 0
M  V30 5003 C 451.73 0.21026 -2.33656 0
M  V30 5004 C 452.746 0.922413 -1.47538 0
M  V30 5005 O 453.922 0.893652 -1.80488 0
M  V30 5006 C 450.987 1.23348 -3.24016 0
M  V30 5007 C 450.048 0.529883 -4.26017 0
M  V30 5008 C 449.281 1.50435 -5.12059 0
M  V30 5009 O 449.504 2.73837 -5.00369 0
M  V30 5010 O 448.438 1.03459 -5.92942 0
M  V30 5011 H 452.264 -0.493605 -2.99662 0
M  V30 5012 H 449.849 -0.307427 -1.46203 0
M  V30 5013 H 451.731 1.82438 -3.79861 0
M  V30 5014 H 450.406 1.91945 -2.60651 0
M  V30 5015 H 449.313 -0.101948 -3.73961 0
M  V30 5016 H 450.646 -0.11445 -4.92067 0
M  V30 5017 N 452.299 1.55045 -0.282633 0
M  V30 5018 C 453.548 1.98938 0.332667 0
M  V30 5019 C 453.861 1.17455 1.56409 0
M  V30 5020 O 455.067 1.51527 2.25282 0
M  V30 5021 C 453.523 3.54105 0.643226 0
M  V30 5022 C 453.131 4.44374 -0.568814 0
M  V30 5023 C 454.875 4.06569 1.22074 0
M  V30 5024 C 452.782 5.90943 -0.232426 0
M  V30 5025 H 451.712 0.743043 0.128075 0
M  V30 5026 H 454.363 1.79341 -0.388464 0
M  V30 5027 H 452.745 3.69532 1.42346 0
M  V30 5028 H 453.919 4.40718 -1.34551 0
M  V30 5029 H 452.234 4.02585 -1.06369 0
M  V30 5030 H 454.831 5.13626 1.48635 0
M  V30 5031 H 455.174 3.56057 2.15707 0
M  V30 5032 H 455.707 3.94612 0.502621 0
M  V30 5033 H 452.446 6.45567 -1.13683 0
M  V30 5034 H 451.966 5.9765 0.507357 0
M  V30 5035 H 453.645 6.4677 0.172657 0
M  V30 5036 N 453.777 0.010035 1.57597 0
M  V30 5037 C 455.002 -0.687021 1.95691 0
M  V30 5038 C 455.427 -1.65952 0.885519 0
M  V30 5039 O 454.785 -1.80633 -0.15543 0
M  V30 5040 C 454.833 -1.3864 3.32884 0
M  V30 5041 O 453.937 -2.50115 3.27897 0
M  V30 5042 H 453.278 -0.181989 0.638573 0
M  V30 5043 H 455.808 0.0662122 2.04493 0
M  V30 5044 H 455.818 -1.74754 3.6868 0
M  V30 5045 H 454.493 -0.673411 4.10412 0
M  V30 5046 H 453.07 -2.16253 3.03791 0
M  V30 5047 N 455.255 -1.55392 -0.262866 0
M  V30 5048 C 456.202 -1.88966 -1.32516 0
M  V30 5049 C 457.172 -0.742187 -1.48596 0
M  V30 5050 O 458.357 -0.99439 -1.62839 0
M  V30 5051 C 455.497 -2.17592 -2.67858 0
M  V30 5052 C 454.61 -3.45061 -2.59917 0
M  V30 5053 C 453.745 -3.63336 -3.87505 0
M  V30 5054 C 452.784 -4.84462 -3.74116 0
M  V30 5055 N 451.921 -4.99342 -4.93561 0
M  V30 5056 H 456.761 -2.79566 -1.03184 0
M  V30 5057 H 454.298 -1.38404 -0.498285 0
M  V30 5058 H 456.256 -2.3219 -3.46617 0
M  V30 5059 H 454.886 -1.30215 -2.95371 0
M  V30 5060 H 453.938 -3.38881 -1.72812 0
M  V30 5061 H 455.25 -4.3396 -2.45926 0
M  V30 5062 H 454.404 -3.77807 -4.74707 0
M  V30 5063 H 453.143 -2.72641 -4.04374 0
M  V30 5064 H 452.148 -4.69985 -2.85297 0
M  V30 5065 H 453.373 -5.76603 -3.58757 0
M  V30 5066 H 451.319 -4.1158 -5.10821 0
M  V30 5067 H 451.236 -5.82303 -4.82141 0
M  V30 5068 H 452.504 -5.18208 -5.82306 0
M  V30 5069 N 456.733 0.527833 -1.48498 0
M  V30 5070 C 457.982 1.28003 -1.55878 0
M  V30 5071 C 458.295 1.9414 -0.238577 0
M  V30 5072 O 459.501 2.7083 -0.190643 0
M  V30 5073 C 457.957 2.32272 -2.74914 0
M  V30 5074 C 457.565 1.72196 -4.13585 0
M  V30 5075 C 459.309 3.08488 -2.91608 0
M  V30 5076 C 457.216 2.74417 -5.23879 0
M  V30 5077 H 456.146 0.481413 -0.580308 0
M  V30 5078 H 458.797 0.557195 -1.74836 0
M  V30 5079 H 457.179 3.07601 -2.49395 0
M  V30 5080 H 458.353 1.03041 -4.49132 0
M  V30 5081 H 456.668 1.08464 -4.02025 0
M  V30 5082 H 459.265 3.84879 -3.71177 0
M  V30 5083 H 459.608 3.64481 -2.01145 0
M  V30 5084 H 460.141 2.40274 -3.17038 0
M  V30 5085 H 456.88 2.23242 -6.16314 0
M  V30 5086 H 456.4 3.41893 -4.92818 0
M  V30 5087 H 458.079 3.37362 -5.52083 0
M  V30 5088 N 458.211 1.37122 0.776871 0
M  V30 5089 C 459.141 1.35164 1.90402 0
M  V30 5090 C 460.122 0.221069 1.68657 0
M  V30 5091 O 461.307 0.420642 1.8959 0
M  V30 5092 C 458.437 1.15274 3.27611 0
M  V30 5093 C 457.391 2.25289 3.63908 0
M  V30 5094 C 456.717 1.90527 4.99603 0
M  V30 5095 C 458.017 3.67446 3.71188 0
M  V30 5096 H 459.711 2.29482 1.92297 0
M  V30 5097 H 457.257 1.10465 0.923773 0
M  V30 5098 H 459.21 1.12536 4.06096 0
M  V30 5099 H 457.934 0.174102 3.26136 0
M  V30 5100 H 456.593 2.27174 2.87728 0
M  V30 5101 H 456.241 0.91206 4.94662 0
M  V30 5102 H 455.941 2.64193 5.24858 0
M  V30 5103 H 457.465 1.89367 5.80493 0
M  V30 5104 H 458.879 3.67719 4.39836 0
M  V30 5105 H 457.276 4.40123 4.07936 0
M  V30 5106 H 458.346 4.01443 2.71977 0
M  V30 5107 N 459.689 -1.00246 1.21608 0
M  V30 5108 C 461.105 -1.26435 0.973975 0
M  V30 5109 C 461.305 -1.98642 -0.338143 0
M  V30 5110 O 460.361 -2.29026 -1.06317 0
M  V30 5111 C 461.674 -2.08551 2.16626 0
M  V30 5112 C 463.222 -2.21769 2.20879 0
M  V30 5113 C 463.697 -3.07267 3.39633 0
M  V30 5114 N 465.188 -3.14855 3.39736 0
M  V30 5115 C 465.923 -3.81274 4.28273 0
M  V30 5116 N 465.419 -4.497 5.27012 0
M  V30 5117 N 467.212 -3.7794 4.16074 0
M  V30 5118 H 459.363 -0.518089 2.05984 0
M  V30 5119 H 461.626 -0.291368 0.902113 0
M  V30 5120 H 461.332 -1.62847 3.11727 0
M  V30 5121 H 461.206 -3.09303 2.15897 0
M  V30 5122 H 463.593 -2.66691 1.26332 0
M  V30 5123 H 463.674 -1.20478 2.25652 0
M  V30 5124 H 463.318 -2.63047 4.34475 0
M  V30 5125 H 463.248 -4.08678 3.321 0
M  V30 5126 H 465.739 -2.66147 2.6828 0
M  V30 5127 H 466.052 -4.98092 5.90867 0
M  V30 5128 H 464.397 -4.48479 5.30935 0
M  V30 5129 H 467.588 -3.23638 3.38195 0
M  V30 5130 H 467.761 -4.29424 4.85282 0
M  V30 5131 N 461.167 -1.02423 -1.1978 0
M  V30 5132 C 462.392 -0.7373 -1.93852 0
M  V30 5133 C 462.817 0.696923 -1.74713 0
M  V30 5134 O 462.175 1.48056 -1.04638 0
M  V30 5135 C 462.223 -1.08783 -3.438 0
M  V30 5136 O 461.327 -0.20383 -4.11896 0
M  V30 5137 H 460.668 -0.27284 -0.605355 0
M  V30 5138 H 463.198 -1.36966 -1.51992 0
M  V30 5139 H 463.208 -1.04276 -3.9445 0
M  V30 5140 H 461.883 -2.13274 -3.57053 0
M  V30 5141 H 460.46 -0.307091 -3.71633 0
M  V30 5142 N 462.645 1.35699 -0.801477 0
M  V30 5143 C 463.87 2.03687 -0.390678 0
M  V30 5144 C 464.295 1.60015 0.988778 0
M  V30 5145 O 463.653 0.774357 1.63931 0
M  V30 5146 C 463.701 3.57439 -0.476404 0
M  V30 5147 O 462.805 4.09208 0.512106 0
M  V30 5148 H 462.146 0.64344 -0.163956 0
M  V30 5149 H 464.676 1.73403 -1.08594 0
M  V30 5150 H 464.686 4.06544 -0.344357 0
M  V30 5151 H 463.361 3.88576 -1.48262 0
M  V30 5152 H 461.938 3.7134 0.340721 0
M  V30 5153 N 464.123 0.554532 1.47522 0
M  V30 5154 C 465.363 0.0317994 2.04375 0
M  V30 5155 C 465.727 -1.29242 1.41988 0
M  V30 5156 O 466.928 -1.90269 1.89872 0
M  V30 5157 C 465.199 -0.0623344 3.57346 0
M  V30 5158 S 466.758 -0.531578 4.35568 0
M  V30 5159 H 463.576 0.0238553 0.7106 0
M  V30 5160 H 466.178 0.74066 1.80927 0
M  V30 5161 H 464.882 0.905857 4.00278 0
M  V30 5162 H 464.413 -0.794831 3.85287 0
M  V30 5163 H 466.428 -1.79175 4.62721 0
M  V30 5164 N 465.601 -1.54893 0.290851 0
M  V30 5165 C 466.531 -2.26103 -0.583084 0
M  V30 5166 C 467.512 -1.25684 -1.14619 0
M  V30 5167 O 468.697 -1.54436 -1.17741 0
M  V30 5168 C 465.827 -2.99409 -1.75987 0
M  V30 5169 C 464.781 -4.0689 -1.32758 0
M  V30 5170 C 464.107 -4.67856 -2.58872 0
M  V30 5171 C 465.407 -5.20215 -0.46624 0
M  V30 5172 H 467.101 -2.99398 0.0108214 0
M  V30 5173 H 464.647 -1.43998 0.00664468 0
M  V30 5174 H 466.6 -3.47943 -2.37727 0
M  V30 5175 H 465.324 -2.23675 -2.37985 0
M  V30 5176 H 463.983 -3.59191 -0.733299 0
M  V30 5177 H 463.631 -3.88772 -3.19163 0
M  V30 5178 H 463.331 -5.40438 -2.30653 0
M  V30 5179 H 464.855 -5.19147 -3.21433 0
M  V30 5180 H 466.269 -5.64704 -0.989047 0
M  V30 5181 H 464.666 -5.99455 -0.27826 0
M  V30 5182 H 465.736 -4.82198 0.511173 0
M  V30 5183 N 467.08 -0.0183926 -1.57589 0
M  V30 5184 C 468.496 0.337897 -1.55982 0
M  V30 5185 C 468.696 1.73604 -1.02294 0
M  V30 5186 O 467.752 2.43589 -0.664895 0
M  V30 5187 C 469.065 0.196305 -3.00059 0
M  V30 5188 C 470.613 0.269875 -3.11834 0
M  V30 5189 C 471.088 0.157197 -4.5773 0
M  V30 5190 N 472.579 0.214521 -4.62703 0
M  V30 5191 C 473.314 0.150955 -5.73201 0
M  V30 5192 N 472.81 0.0369212 -6.9279 0
M  V30 5193 N 474.603 0.204162 -5.61729 0
M  V30 5194 H 466.754 -0.93279 -1.90821 0
M  V30 5195 H 469.017 -0.359253 -0.877292 0
M  V30 5196 H 468.723 -0.766383 -3.43248 0
M  V30 5197 H 468.597 0.970908 -3.6449 0
M  V30 5198 H 470.984 1.22302 -2.68563 0
M  V30 5199 H 471.065 -0.534918 -2.50144 0
M  V30 5200 H 470.709 -0.792479 -5.01679 0
M  V30 5201 H 470.639 0.980717 -5.17387 0
M  V30 5202 H 473.13 0.303238 -3.76681 0
M  V30 5203 H 473.443 -0.00518321 -7.728 0
M  V30 5204 H 471.788 0.0022886 -6.95 0
M  V30 5205 H 474.979 0.291575 -4.67191 0
M  V30 5206 H 475.152 0.15116 -6.47824 0
M  V30 5207 N 468.558 1.5553 0.254621 0
M  V30 5208 C 469.806 1.7665 0.981793 0
M  V30 5209 C 470.127 0.580963 1.86145 0
M  V30 5210 O 469.397 -0.403537 1.91699 0
M  V30 5211 H 467.977 0.651475 0.365498 0
M  V30 5212 H 470.639 1.92958 0.274426 0
M  V30 5213 H 469.735 2.67486 1.60802 0
M  V30 5214 N 470.036 -0.519951 1.48776 0
M  V30 5215 C 470.969 -1.64053 1.58625 0
M  V30 5216 C 471.947 -1.5664 0.43618 0
M  V30 5217 O 473.131 -1.76969 0.649159 0
M  V30 5218 C 470.258 -3.02497 1.52359 0
M  V30 5219 C 469.304 -3.28235 2.72331 0
M  V30 5220 S 470.137 -3.13414 4.34203 0
M  V30 5221 C 471.293 -4.54287 4.30551 0
M  V30 5222 H 471.526 -1.5545 2.53422 0
M  V30 5223 H 469.059 -0.703681 1.37433 0
M  V30 5224 H 471.017 -3.82336 1.4943 0
M  V30 5225 H 469.678 -3.08531 0.588824 0
M  V30 5226 H 468.871 -4.29256 2.64113 0
M  V30 5227 H 468.473 -2.56085 2.72574 0
M  V30 5228 H 470.765 -5.46006 4.01103 0
M  V30 5229 H 471.708 -4.67558 5.31785 0
M  V30 5230 H 472.116 -4.34079 3.60881 0
M  V30 5231 N 471.514 -1.37532 -0.769588 0
M  V30 5232 C 472.462 -1.33561 -1.90432 0
M  V30 5233 C 473.456 -0.224027 -1.67912 0
M  V30 5234 O 474.662 -0.392174 -1.75676 0
M  V30 5235 H 471.037 -0.416279 -0.626271 0
M  V30 5236 H 473.008 -2.29348 -1.90899 0
M  V30 5237 C 471.757 -1.16162 -3.27722 0
M  V30 5238 H 471.08 -2.00951 -3.45628 0
M  V30 5239 H 472.52 -1.17434 -4.07413 0
M  V30 5240 C 470.979 0.132583 -3.36639 0
M  V30 5241 O 471.509 1.11539 -3.85904 0
M  V30 5242 N 469.715 0.184013 -2.90017 0
M  V30 5243 H 469.262 -0.616415 -2.50116 0
M  V30 5244 H 469.22 1.04956 -2.96364 0
M  V30 5245 N 472.992 0.995999 -1.22138 0
M  V30 5246 C 473.922 2.10387 -1.01289 0
M  V30 5247 C 474.903 1.69975 0.0651454 0
M  V30 5248 O 476.088 1.9396 -0.0964628 0
M  V30 5249 C 473.218 3.42312 -0.586517 0
M  V30 5250 C 472.172 3.96558 -1.61014 0
M  V30 5251 C 471.498 5.24494 -1.0397 0
M  V30 5252 C 472.798 4.27595 -2.99933 0
M  V30 5253 H 474.492 2.28086 -1.93951 0
M  V30 5254 H 472.038 1.09607 -0.933928 0
M  V30 5255 H 473.991 4.19223 -0.427793 0
M  V30 5256 H 472.715 3.24431 0.375761 0
M  V30 5257 H 471.374 3.21776 -1.75658 0
M  V30 5258 H 471.022 5.02953 -0.0688703 0
M  V30 5259 H 470.722 5.61755 -1.72352 0
M  V30 5260 H 472.246 6.04042 -0.892494 0
M  V30 5261 H 473.66 4.95315 -2.8868 0
M  V30 5262 H 472.057 4.76021 -3.6541 0
M  V30 5263 H 473.127 3.35498 -3.50099 0
M  V30 5264 N 474.47 1.03057 1.19235 0
M  V30 5265 C 475.433 0.617418 2.20727 0
M  V30 5266 C 476.433 -0.319856 1.57587 0
M  V30 5267 O 477.623 -0.106633 1.73873 0
M  V30 5268 C 474.755 -0.096296 3.40764 0
M  V30 5269 H 475.948 1.51544 2.58794 0
M  V30 5270 H 473.501 0.821949 1.32942 0
M  V30 5271 H 474.236 -1.00859 3.08217 0
M  V30 5272 H 474.021 0.577217 3.87828 0
M  V30 5273 H 475.511 -0.372219 4.15938 0
M  V30 5274 N 475.948 -1.35272 0.808662 0
M  V30 5275 C 477.173 -2.03477 0.401475 0
M  V30 5276 C 477.598 -1.60537 -0.980279 0
M  V30 5277 O 476.956 -0.78304 -1.63518 0
M  V30 5278 C 477.004 -3.57181 0.495354 0
M  V30 5279 O 476.108 -4.09474 -0.490397 0
M  V30 5280 H 475.449 -0.642561 0.167366 0
M  V30 5281 H 477.979 -1.72824 1.09512 0
M  V30 5282 H 477.989 -4.06356 0.365912 0
M  V30 5283 H 476.664 -3.87784 1.5032 0
M  V30 5284 H 475.241 -3.71516 -0.321023 0
M  V30 5285 N 477.426 -0.562348 -1.47226 0
M  V30 5286 C 478.673 -0.0402165 -2.0246 0
M  V30 5287 C 479.001 1.31169 -1.43614 0
M  V30 5288 O 478.256 1.86805 -0.5833 0
M  V30 5289 C 478.555 0.0969817 -3.57268 0
M  V30 5290 C 478.221 -1.1847 -4.35058 0
M  V30 5291 C 476.883 -1.53588 -4.56031 0
M  V30 5292 C 479.235 -2.03378 -4.79882 0
M  V30 5293 C 476.563 -2.73452 -5.19077 0
M  V30 5294 C 478.915 -3.2245 -5.44251 0
M  V30 5295 C 477.579 -3.57876 -5.63455 0
M  V30 5296 H 476.849 -0.0147163 -0.740854 0
M  V30 5297 H 479.496 -0.734895 -1.76838 0
M  V30 5298 H 477.801 0.87466 -3.81912 0
M  V30 5299 H 479.498 0.516408 -3.97661 0
M  V30 5300 H 476.088 -0.90126 -4.19017 0
M  V30 5301 H 480.272 -1.77553 -4.63453 0
M  V30 5302 H 475.528 -3.01062 -5.32139 0
M  V30 5303 H 479.702 -3.88526 -5.77945 0
M  V30 5304 H 477.329 -4.50849 -6.12078 0
M  V30 5305 N 478.904 1.54736 -0.299062 0
M  V30 5306 C 480.151 2.00101 0.310784 0
M  V30 5307 C 480.479 1.18746 1.54045 0
M  V30 5308 O 479.734 0.251198 1.94081 0
M  V30 5309 C 480.033 3.50199 0.713835 0
M  V30 5310 C 479.699 4.48997 -0.413873 0
M  V30 5311 C 478.361 4.7573 -0.723462 0
M  V30 5312 C 480.713 5.07839 -1.17257 0
M  V30 5313 C 478.041 5.5857 -1.79491 0
M  V30 5314 C 480.393 5.91844 -2.23392 0
M  V30 5315 C 479.057 6.16889 -2.54959 0
M  V30 5316 H 478.327 0.732221 0.113724 0
M  V30 5317 H 480.974 1.86888 -0.417756 0
M  V30 5318 H 479.279 3.61012 1.52243 0
M  V30 5319 H 480.976 3.82723 1.19684 0
M  V30 5320 H 477.566 4.28292 -0.162476 0
M  V30 5321 H 481.75 4.87188 -0.946651 0
M  V30 5322 H 477.006 5.76213 -2.04423 0
M  V30 5323 H 481.18 6.36465 -2.8264 0
M  V30 5324 H 478.807 6.80869 -3.38114 0
M  V30 5325 N 480.382 0.0267497 1.57577 0
M  V30 5326 C 481.607 -0.666227 1.96408 0
M  V30 5327 C 482.032 -1.65004 0.903071 0
M  V30 5328 O 481.39 -1.80787 -0.136263 0
M  V30 5329 C 481.438 -1.35101 3.34335 0
M  V30 5330 O 480.542 -2.46623 3.30531 0
M  V30 5331 H 479.883 -0.175206 0.640468 0
M  V30 5332 H 482.413 0.0878977 2.04411 0
M  V30 5333 H 482.423 -1.70834 3.70513 0
M  V30 5334 H 481.098 -0.629844 4.11103 0
M  V30 5335 H 479.675 -2.13019 3.06068 0
M  V30 5336 N 481.861 -1.55662 -0.24637 0
M  V30 5337 C 482.824 -1.89558 -1.28842 0
M  V30 5338 C 483.824 -0.772082 -1.41052 0
M  V30 5339 O 485.014 -1.04007 -1.39743 0
M  V30 5340 C 482.146 -2.12449 -2.66605 0
M  V30 5341 H 483.339 -2.82735 -1.00004 0
M  V30 5342 H 480.892 -1.48562 -0.485684 0
M  V30 5343 H 481.627 -1.21742 -3.00582 0
M  V30 5344 H 481.412 -2.94273 -2.59125 0
M  V30 5345 H 482.902 -2.39854 -3.41847 0
M  V30 5346 N 483.339 0.512053 -1.4905 0
M  V30 5347 C 484.564 1.2959 -1.6193 0
M  V30 5348 C 484.989 1.85906 -0.286454 0
M  V30 5349 O 484.347 1.65312 0.744426 0
M  V30 5350 C 484.395 2.40987 -2.68249 0
M  V30 5351 O 483.499 3.44531 -2.26654 0
M  V30 5352 H 482.84 0.383053 -0.542371 0
M  V30 5353 H 485.37 0.614231 -1.95162 0
M  V30 5354 H 485.38 2.86913 -2.90078 0
M  V30 5355 H 484.055 1.99361 -3.65004 0
M  V30 5356 H 482.632 3.046 -2.15112 0
M  V30 5357 N 484.817 1.37938 0.762283 0
M  V30 5358 C 485.764 1.34467 1.87583 0
M  V30 5359 C 486.734 0.208633 1.64785 0
M  V30 5360 O 487.919 0.399494 1.86571 0
M  V30 5361 C 485.059 1.16692 3.24772 0
M  V30 5362 C 484.172 2.39608 3.59461 0
M  V30 5363 C 483.307 2.14631 4.85908 0
M  V30 5364 C 482.346 3.33364 5.13357 0
M  V30 5365 N 481.483 3.07877 6.30996 0
M  V30 5366 H 486.323 2.29669 1.89885 0
M  V30 5367 H 483.86 1.14116 0.928219 0
M  V30 5368 H 485.818 1.04405 4.03925 0
M  V30 5369 H 484.448 0.251333 3.2182 0
M  V30 5370 H 483.5 2.626 2.75219 0
M  V30 5371 H 484.812 3.28128 3.75678 0
M  V30 5372 H 483.966 1.99429 5.72986 0
M  V30 5373 H 482.705 1.23463 4.71814 0
M  V30 5374 H 481.71 3.49094 4.24751 0
M  V30 5375 H 482.935 4.25395 5.29354 0
M  V30 5376 H 480.881 2.19348 6.18241 0
M  V30 5377 H 480.798 3.89944 6.47673 0
M  V30 5378 H 482.066 2.96313 7.20985 0
M  V30 5379 N 486.295 -0.989507 1.22664 0
M  V30 5380 C 487.544 -1.72375 1.04737 0
M  V30 5381 C 487.857 -1.91096 -0.417316 0
M  V30 5382 O 489.063 -2.6188 -0.716334 0
M  V30 5383 C 487.519 -3.10161 1.82561 0
M  V30 5384 C 487.127 -2.99358 3.333 0
M  V30 5385 C 488.871 -3.87607 1.73093 0
M  V30 5386 C 486.778 -4.32319 4.03552 0
M  V30 5387 H 485.708 -0.646326 0.388302 0
M  V30 5388 H 488.359 -1.10437 1.46546 0
M  V30 5389 H 486.741 -3.728 1.33552 0
M  V30 5390 H 487.915 -2.45863 3.89728 0
M  V30 5391 H 486.23 -2.35392 3.43481 0
M  V30 5392 H 488.827 -4.86025 2.22899 0
M  V30 5393 H 489.17 -4.10509 0.691976 0
M  V30 5394 H 489.703 -3.31652 2.19663 0
M  V30 5395 H 486.442 -4.14616 5.07714 0
M  V30 5396 H 485.962 -4.85714 3.51911 0
M  V30 5397 H 487.641 -5.01051 4.09337 0
M  V30 5398 N 487.773 -1.03688 -1.18687 0
M  V30 5399 C 489.022 -0.733235 -1.879 0
M  V30 5400 C 489.335 0.741745 -1.8099 0
M  V30 5401 O 490.541 1.15875 -2.4553 0
M  V30 5402 C 488.997 -1.26127 -3.37076 0
M  V30 5403 C 488.605 -2.76461 -3.52524 0
M  V30 5404 C 490.349 -1.03398 -4.11715 0
M  V30 5405 C 488.256 -3.22642 -4.95637 0
M  V30 5406 H 487.186 -0.270584 -0.703776 0
M  V30 5407 H 489.837 -1.25222 -1.34133 0
M  V30 5408 H 488.219 -0.670165 -3.90288 0
M  V30 5409 H 489.393 -3.41296 -3.09602 0
M  V30 5410 H 487.708 -2.97559 -2.91286 0
M  V30 5411 H 490.305 -1.3542 -5.17267 0
M  V30 5412 H 490.648 0.0289246 -4.1629 0
M  V30 5413 H 491.181 -1.5895 -3.64664 0
M  V30 5414 H 487.92 -4.28296 -4.96228 0
M  V30 5415 H 487.44 -2.62539 -5.39289 0
M  V30 5416 H 489.119 -3.16444 -5.64333 0
M  V30 5417 N 489.251 1.34841 -0.815825 0
M  V30 5418 C 490.497 1.98793 -0.401129 0
M  V30 5419 C 490.83 1.64548 1.03139 0
M  V30 5420 O 490.105 0.913487 1.71714 0
M  V30 5421 C 490.388 3.55143 -0.595409 0
M  V30 5422 C 490.241 3.99155 -2.07352 0
M  V30 5423 C 491.56 4.40092 -0.0268823 0
M  V30 5424 H 488.679 0.722146 -0.14722 0
M  V30 5425 H 491.321 1.59847 -1.02707 0
M  V30 5426 H 489.471 3.8845 -0.0625779 0
M  V30 5427 H 491.143 3.76216 -2.66945 0
M  V30 5428 H 489.386 3.49726 -2.56659 0
M  V30 5429 H 490.057 5.07971 -2.1603 0
M  V30 5430 H 492.533 4.13298 -0.482042 0
M  V30 5431 H 491.409 5.48562 -0.19267 0
M  V30 5432 H 491.67 4.29016 1.06759 0
M  V30 5433 N 490.729 0.570148 1.46925 0
M  V30 5434 C 491.976 0.0509529 2.02436 0
M  V30 5435 C 492.304 -1.30405 1.44308 0
M  V30 5436 O 491.559 -1.86493 0.593198 0
M  V30 5437 C 491.858 -0.0780336 3.57315 0
M  V30 5438 C 491.524 1.20775 4.34424 0
M  V30 5439 C 490.186 1.56004 4.5521 0
M  V30 5440 C 492.538 2.0592 4.78797 0
M  V30 5441 C 489.866 2.76201 5.17619 0
M  V30 5442 C 492.218 3.25332 5.42533 0
M  V30 5443 C 490.882 3.60859 5.61549 0
M  V30 5444 H 490.152 0.018645 0.740765 0
M  V30 5445 H 492.799 0.744262 1.76445 0
M  V30 5446 H 491.104 -0.854394 3.82371 0
M  V30 5447 H 492.801 -0.495312 3.97929 0
M  V30 5448 H 489.391 0.923469 4.18533 0
M  V30 5449 H 493.575 1.80008 4.62505 0
M  V30 5450 H 488.831 3.0388 5.30535 0
M  V30 5451 H 493.005 3.91586 5.75876 0
M  V30 5452 H 490.632 4.54088 6.09678 0
M  V30 5453 N 492.207 -1.54576 0.307264 0
M  V30 5454 C 493.453 -2.0056 -0.300612 0
M  V30 5455 C 493.786 -1.1953 -1.53057 0
M  V30 5456 O 493.061 -0.27337 -1.92569 0
M  V30 5457 C 493.344 -3.54167 -0.650987 0
M  V30 5458 C 493.197 -4.45933 0.588539 0
M  V30 5459 C 494.516 -4.14645 -1.47506 0
M  V30 5460 H 491.635 -0.729075 -0.107788 0
M  V30 5461 H 494.277 -1.85286 0.420606 0
M  V30 5462 H 492.427 -3.67313 -1.26544 0
M  V30 5463 H 494.099 -4.44683 1.22697 0
M  V30 5464 H 492.342 -4.16274 1.22058 0
M  V30 5465 H 493.013 -5.51189 0.299153 0
M  V30 5466 H 495.489 -4.04973 -0.955821 0
M  V30 5467 H 494.365 -5.22269 -1.68899 0
M  V30 5468 H 494.626 -3.66921 -2.4662 0
M  V30 5469 N 493.685 -0.035106 -1.57561 0
M  V30 5470 C 494.913 0.652258 -1.9635 0
M  V30 5471 C 495.328 1.65317 -0.911897 0
M  V30 5472 O 494.685 1.82194 0.105657 0
M  V30 5473 C 494.736 1.35337 -3.35211 0
M  V30 5474 O 494.457 0.392548 -4.36338 0
M  V30 5475 C 495.958 2.13199 -3.88666 0
M  V30 5476 H 493.178 0.179444 -0.646561 0
M  V30 5477 H 495.722 -0.0966459 -2.04271 0
M  V30 5478 H 493.877 2.05362 -3.28489 0
M  V30 5479 H 494.291 0.891097 -5.16875 0
M  V30 5480 H 495.765 2.577 -4.88154 0
M  V30 5481 H 496.242 2.97353 -3.23231 0
M  V30 5482 H 496.848 1.48118 -3.98674 0
M  V30 5483 N 495.163 1.55791 0.238111 0
M  V30 5484 C 496.41 1.78033 0.964907 0
M  V30 5485 C 496.738 0.600984 1.84982 0
M  V30 5486 O 495.993 -0.41536 1.91241 0
M  V30 5487 C 496.292 3.05869 1.84875 0
M  V30 5488 C 495.958 4.36808 1.11846 0
M  V30 5489 C 494.62 4.72388 0.916662 0
M  V30 5490 C 496.972 5.17717 0.60151 0
M  V30 5491 C 494.3 5.86406 0.185756 0
M  V30 5492 C 496.652 6.32494 -0.115972 0
M  V30 5493 C 495.316 6.66688 -0.329168 0
M  V30 5494 H 494.586 0.651469 0.353085 0
M  V30 5495 H 497.233 1.90061 0.234318 0
M  V30 5496 H 495.538 2.88891 2.64668 0
M  V30 5497 H 497.235 3.20278 2.41294 0
M  V30 5498 H 493.825 4.08862 1.28569 0
M  V30 5499 H 498.009 4.90678 0.744932 0
M  V30 5500 H 493.265 6.11399 0.0101886 0
M  V30 5501 H 497.439 6.94425 -0.524127 0
M  V30 5502 H 495.066 7.54884 -0.897474 0
M  V30 5503 N 496.642 -0.504142 1.49319 0
M  V30 5504 C 497.87 -1.28256 1.62351 0
M  V30 5505 C 498.285 -1.86502 0.293682 0
M  V30 5506 O 497.642 -1.67678 -0.720449 0
M  V30 5507 C 497.693 -2.41507 2.68992 0
M  V30 5508 O 497.414 -1.85656 3.96817 0
M  V30 5509 C 498.915 -3.32929 2.927 0
M  V30 5510 H 496.135 -0.389115 0.546654 0
M  V30 5511 H 498.679 -0.605531 1.95329 0
M  V30 5512 H 496.834 -3.05046 2.38801 0
M  V30 5513 H 497.248 -2.59981 4.55533 0
M  V30 5514 H 498.722 -4.0868 3.71058 0
M  V30 5515 H 499.199 -3.89733 2.02496 0
M  V30 5516 H 499.805 -2.75158 3.24296 0
M  V30 5517 N 498.12 -1.38341 -0.754957 0
M  V30 5518 C 499.348 -1.37704 -1.54419 0
M  V30 5519 C 499.763 0.0335243 -1.8877 0
M  V30 5520 O 499.12 0.999773 -1.52679 0
M  V30 5521 C 499.171 -2.23136 -2.84416 0
M  V30 5522 O 498.892 -3.58697 -2.51531 0
M  V30 5523 C 500.393 -2.30664 -3.78562 0
M  V30 5524 H 497.613 -0.471061 -0.477852 0
M  V30 5525 H 500.157 -1.81902 -0.934446 0
M  V30 5526 H 498.312 -1.82403 -3.41772 0
M  V30 5527 H 498.726 -4.03665 -3.34896 0
M  V30 5528 H 500.2 -2.9473 -4.66732 0
M  V30 5529 H 500.677 -1.3199 -4.18898 0
M  V30 5530 H 501.283 -2.71781 -3.27131 0
M  V30 5531 N 499.598 0.982988 -1.23187 0
M  V30 5532 C 500.828 1.75666 -1.08743 0
M  V30 5533 C 501.236 1.85662 0.364195 0
M  V30 5534 O 500.579 1.33317 1.26382 0
M  V30 5535 C 500.641 3.20144 -1.63549 0
M  V30 5536 C 500.305 3.33665 -3.12277 0
M  V30 5537 C 501.302 3.20194 -4.096 0
M  V30 5538 C 498.987 3.58397 -3.51933 0
M  V30 5539 C 500.981 3.31256 -5.44563 0
M  V30 5540 C 498.668 3.69098 -4.87042 0
M  V30 5541 C 499.666 3.55537 -5.83166 0
M  V30 5542 O 499.354 3.65864 -7.1582 0
M  V30 5543 H 499.086 0.558194 -0.381307 0
M  V30 5544 H 501.64 1.24387 -1.63454 0
M  V30 5545 H 499.87 3.72659 -1.03256 0
M  V30 5546 H 501.559 3.79262 -1.4462 0
M  V30 5547 H 502.325 3.00987 -3.80305 0
M  V30 5548 H 498.204 3.68025 -2.77631 0
M  V30 5549 H 501.748 3.20588 -6.19572 0
M  V30 5550 H 497.645 3.87814 -5.16014 0
M  V30 5551 H 498.413 3.82675 -7.23534 0
M  V30 5552 N 501.076 1.04316 1.18135 0
M  V30 5553 C 502.322 0.749128 1.88457 0
M  V30 5554 C 502.655 -0.72149 1.803 0
M  V30 5555 O 501.93 -1.52676 1.205 0
M  V30 5556 C 502.213 1.21905 3.38838 0
M  V30 5557 C 502.066 2.75195 3.55792 0
M  V30 5558 C 503.385 0.811085 4.32561 0
M  V30 5559 H 500.504 0.273611 0.684329 0
M  V30 5560 H 503.146 1.29561 1.38975 0
M  V30 5561 H 501.296 0.754137 3.8111 0
M  V30 5562 H 502.968 3.29743 3.22595 0
M  V30 5563 H 501.211 3.14899 2.98364 0
M  V30 5564 H 501.882 3.03135 4.61317 0
M  V30 5565 H 504.358 1.21118 3.98082 0
M  V30 5566 H 503.234 1.16761 5.36338 0
M  V30 5567 H 503.495 -0.285596 4.41177 0
M  V30 5568 N 502.554 -1.34406 0.822964 0
M  V30 5569 C 503.484 -2.32052 0.259608 0
M  V30 5570 C 504.465 -1.58243 -0.623961 0
M  V30 5571 O 505.65 -1.86224 -0.55083 0
M  V30 5572 C 502.78 -3.42434 -0.579314 0
M  V30 5573 C 501.734 -4.27499 0.20712 0
M  V30 5574 C 501.06 -5.29349 -0.754547 0
M  V30 5575 C 502.36 -5.02758 1.41533 0
M  V30 5576 H 504.054 -2.79418 1.07545 0
M  V30 5577 H 501.6 -1.34338 0.518593 0
M  V30 5578 H 503.553 -4.0976 -0.983612 0
M  V30 5579 H 502.277 -2.93717 -1.4282 0
M  V30 5580 H 500.936 -3.61776 0.592787 0
M  V30 5581 H 500.584 -4.76895 -1.59939 0
M  V30 5582 H 500.284 -5.8714 -0.232561 0
M  V30 5583 H 501.808 -5.99544 -1.1567 0
M  V30 5584 H 503.222 -5.62938 1.08504 0
M  V30 5585 H 501.619 -5.70123 1.87296 0
M  V30 5586 H 502.689 -4.32451 2.1935 0
M  V30 5587 N 504.032 -0.577932 -1.46621 0
M  V30 5588 C 504.962 0.145917 -2.33044 0
M  V30 5589 C 505.943 0.888412 -1.45056 0
M  V30 5590 O 507.128 0.864812 -1.73881 0
M  V30 5591 C 504.258 1.16322 -3.27241 0
M  V30 5592 C 503.212 0.535868 -4.24632 0
M  V30 5593 C 502.538 1.65929 -5.08303 0
M  V30 5594 C 503.838 -0.523861 -5.19666 0
M  V30 5595 H 505.532 -0.575636 -2.93814 0
M  V30 5596 H 503.078 -0.278272 -1.41286 0
M  V30 5597 H 505.031 1.67793 -3.86553 0
M  V30 5598 H 503.755 1.91498 -2.64567 0
M  V30 5599 H 502.414 0.0422759 -3.66576 0
M  V30 5600 H 502.062 2.40061 -4.42018 0
M  V30 5601 H 501.762 1.2452 -5.74255 0
M  V30 5602 H 503.286 2.17686 -5.70478 0
M  V30 5603 H 504.7 -0.0944059 -5.73222 0
M  V30 5604 H 503.097 -0.858 -5.93935 0
M  V30 5605 H 504.167 -1.41197 -4.63887 0
M  V30 5606 N 505.51 1.54411 -0.315457 0
M  V30 5607 C 506.758 2.00023 0.288971 0
M  V30 5608 C 507.079 1.20529 1.5329 0
M  V30 5609 O 506.349 0.304986 1.93511 0
M  V30 5610 H 504.929 0.738891 0.109766 0
M  V30 5611 H 507.591 1.90094 -0.430129 0
M  V30 5612 H 506.687 3.07198 0.550999 0
M  V30 5613 N 506.988 0.0434614 1.5754 0
M  V30 5614 C 508.213 -0.645358 1.97104 0
M  V30 5615 C 508.638 -1.64037 0.920521 0
M  V30 5616 O 507.996 -1.80922 -0.11708 0
M  V30 5617 C 508.044 -1.31547 3.35749 0
M  V30 5618 O 507.148 -2.43103 3.33129 0
M  V30 5619 H 506.489 -0.168403 0.64229 0
M  V30 5620 H 509.019 0.109573 2.04306 0
M  V30 5621 H 509.029 -1.66895 3.72304 0
M  V30 5622 H 507.704 -0.586205 4.11748 0
M  V30 5623 H 506.281 -2.0976 3.0831 0
M  V30 5624 N 508.466 -1.55915 -0.229846 0
M  V30 5625 C 509.712 -1.78807 -0.956868 0
M  V30 5626 C 510.045 -0.611687 -1.84315 0
M  V30 5627 O 509.32 0.389398 -1.90562 0
M  V30 5628 C 509.603 -3.11718 -1.80288 0
M  V30 5629 C 509.456 -4.3979 -0.943649 0
M  V30 5630 C 510.775 -3.40999 -2.78222 0
M  V30 5631 H 507.894 -0.6505 -0.346437 0
M  V30 5632 H 510.536 -1.88648 -0.226252 0
M  V30 5633 H 508.686 -3.03459 -2.42579 0
M  V30 5634 H 510.358 -4.60059 -0.338121 0
M  V30 5635 H 508.601 -4.33086 -0.248705 0
M  V30 5636 H 509.272 -5.29208 -1.5698 0
M  V30 5637 H 511.748 -3.49332 -2.26067 0
M  V30 5638 H 510.624 -4.35183 -3.34526 0
M  V30 5639 H 510.885 -2.62754 -3.55546 0
M  V30 5640 N 509.944 0.496216 -1.49584 0
M  V30 5641 C 511.193 1.24668 -1.58558 0
M  V30 5642 C 511.506 1.9359 -0.279703 0
M  V30 5643 O 512.712 2.70365 -0.248048 0
M  V30 5644 C 511.168 2.26388 -2.79779 0
M  V30 5645 C 510.776 1.63384 -4.17145 0
M  V30 5646 C 512.52 3.02233 -2.98086 0
M  V30 5647 C 510.427 2.63243 -5.29582 0
M  V30 5648 H 509.357 0.468995 -0.590389 0
M  V30 5649 H 512.008 0.519985 -1.75978 0
M  V30 5650 H 510.39 3.02241 -2.55863 0
M  V30 5651 H 511.564 0.93491 -4.51216 0
M  V30 5652 H 509.879 0.999121 -4.04236 0
M  V30 5653 H 512.476 3.76919 -3.79257 0
M  V30 5654 H 512.819 3.60132 -2.08831 0
M  V30 5655 H 513.352 2.33495 -3.22063 0
M  V30 5656 H 510.091 2.10119 -6.20911 0
M  V30 5657 H 509.611 3.31363 -4.99959 0
M  V30 5658 H 511.29 3.25575 -5.59115 0
M  V30 5659 N 511.423 1.38739 0.74761 0
M  V30 5660 C 512.651 1.38521 1.53686 0
M  V30 5661 C 513.066 -0.0235129 1.88785 0
M  V30 5662 O 512.423 -0.991662 1.53207 0
M  V30 5663 C 512.474 2.24641 2.83229 0
M  V30 5664 O 512.195 3.60026 2.49625 0
M  V30 5665 C 513.696 2.32669 3.77333 0
M  V30 5666 H 510.916 0.473589 0.475347 0
M  V30 5667 H 513.46 1.82395 0.924786 0
M  V30 5668 H 511.615 1.84213 3.40799 0
M  V30 5669 H 512.029 4.05435 3.3275 0
M  V30 5670 H 513.503 2.97201 4.65162 0
M  V30 5671 H 513.98 1.3421 4.18192 0
M  V30 5672 H 514.586 2.73512 3.25685 0
M  V30 5673 N 512.901 -0.976442 1.23707 0
M  V30 5674 C 513.864 -2.0511 1.02287 0
M  V30 5675 C 514.864 -1.60791 -0.0167195 0
M  V30 5676 O 516.054 -1.72761 0.223408 0
M  V30 5677 C 513.186 -3.36458 0.548507 0
M  V30 5678 H 514.379 -2.25545 1.9766 0
M  V30 5679 H 511.932 -1.15042 1.05806 0
M  V30 5680 H 512.667 -3.21713 -0.408818 0
M  V30 5681 H 512.452 -3.69967 1.29874 0
M  V30 5682 H 513.942 -4.15489 0.419406 0
M  V30 5683 N 514.379 -1.04941 -1.1758 0
M  V30 5684 C 515.604 -0.778253 -1.92245 0
M  V30 5685 C 516.029 0.659707 -1.76152 0
M  V30 5686 O 515.387 1.45803 -1.07755 0
M  V30 5687 C 515.435 -1.16051 -3.41416 0
M  V30 5688 O 514.539 -0.291153 -4.11371 0
M  V30 5689 H 513.88 -0.285619 -0.599431 0
M  V30 5690 H 516.41 -1.40159 -1.49052 0
M  V30 5691 H 516.42 -1.12619 -3.92149 0
M  V30 5692 H 515.095 -2.208 -3.52449 0
M  V30 5693 H 513.672 -0.385851 -3.70898 0
M  V30 5694 N 515.857 1.33968 -0.830081 0
M  V30 5695 C 517.273 1.51003 -0.516742 0
M  V30 5696 C 517.473 1.77286 0.957694 0
M  V30 5697 O 516.529 1.82797 1.74188 0
M  V30 5698 C 517.842 2.67036 -1.38247 0
M  V30 5699 C 519.39 2.80919 -1.38034 0
M  V30 5700 C 519.865 4.00004 -2.23071 0
M  V30 5701 N 521.356 4.07224 -2.20733 0
M  V30 5702 C 522.091 4.98541 -2.83275 0
M  V30 5703 N 521.587 5.95033 -3.54835 0
M  V30 5704 N 523.38 4.91469 -2.72791 0
M  V30 5705 H 515.531 1.15168 -1.78466 0
M  V30 5706 H 517.794 0.565443 -0.760906 0
M  V30 5707 H 517.5 2.54266 -2.42985 0
M  V30 5708 H 517.374 3.62226 -1.05225 0
M  V30 5709 H 519.761 2.93127 -0.340713 0
M  V30 5710 H 519.842 1.86517 -1.75057 0
M  V30 5711 H 519.486 3.88557 -3.27087 0
M  V30 5712 H 519.416 4.93634 -1.83394 0
M  V30 5713 H 521.907 3.38162 -1.68687 0
M  V30 5714 H 522.22 6.61357 -3.99784 0
M  V30 5715 H 520.565 5.95135 -3.58942 0
M  V30 5716 H 523.756 4.15048 -2.16456 0
M  V30 5717 H 523.929 5.62439 -3.21818 0
M  V30 5718 N 517.335 0.585699 1.46312 0
M  V30 5719 C 518.581 0.0725284 2.0267 0
M  V30 5720 C 518.914 -1.28523 1.45586 0
M  V30 5721 O 518.189 -1.84283 0.622101 0
M  V30 5722 C 518.472 0.0099788 3.60099 0
M  V30 5723 C 518.325 1.39685 4.27561 0
M  V30 5724 C 519.644 -0.689117 4.34671 0
M  V30 5725 H 516.763 0.0278307 0.736474 0
M  V30 5726 H 519.405 0.753472 1.74421 0
M  V30 5727 H 517.555 -0.56992 3.84297 0
M  V30 5728 H 519.227 2.02215 4.14617 0
M  V30 5729 H 517.47 1.96374 3.86807 0
M  V30 5730 H 518.141 1.30553 5.36339 0
M  V30 5731 H 520.617 -0.196446 4.15636 0
M  V30 5732 H 519.493 -0.701921 5.44393 0
M  V30 5733 H 519.754 -1.75101 4.05946 0
M  V30 5734 N 518.813 -1.54241 0.323641 0
M  V30 5735 C 520.06 -2.0057 -0.27891 0
M  V30 5736 C 520.388 -1.21181 -1.52136 0
M  V30 5737 O 519.643 -0.282043 -1.93657 0
M  V30 5738 C 519.942 -3.5129 -0.658031 0
M  V30 5739 C 519.608 -4.48281 0.485252 0
M  V30 5740 C 518.27 -4.74519 0.799055 0
M  V30 5741 C 520.622 -5.05909 1.25322 0
M  V30 5742 C 517.95 -5.55643 1.88354 0
M  V30 5743 C 520.302 -5.88215 2.32779 0
M  V30 5744 C 518.966 -6.12755 2.64741 0
M  V30 5745 H 518.236 -0.733938 -0.10206 0
M  V30 5746 H 520.883 -1.862 0.447435 0
M  V30 5747 H 519.188 -3.63388 -1.4648 0
M  V30 5748 H 520.885 -3.84578 -1.1358 0
M  V30 5749 H 517.475 -4.27979 0.230593 0
M  V30 5750 H 521.659 -4.8562 1.02404 0
M  V30 5751 H 516.915 -5.72888 2.13564 0
M  V30 5752 H 521.089 -6.31888 2.92729 0
M  V30 5753 H 518.716 -6.75404 3.48904 0
M  V30 5754 N 520.291 -0.0518155 -1.57515 0
M  V30 5755 C 521.537 0.622745 -1.93002 0
M  V30 5756 C 521.87 1.70456 -0.930499 0
M  V30 5757 O 521.145 1.94452 0.0434086 0
M  V30 5758 C 521.428 1.21824 -3.38867 0
M  V30 5759 C 521.281 0.144434 -4.49568 0
M  V30 5760 C 522.6 2.12968 -3.8514 0
M  V30 5761 H 519.719 0.22491 -0.701844 0
M  V30 5762 H 522.361 -0.113711 -1.89659 0
M  V30 5763 H 520.511 1.8459 -3.41846 0
M  V30 5764 H 522.183 -0.48753 -4.58717 0
M  V30 5765 H 520.426 -0.527424 -4.30582 0
M  V30 5766 H 521.097 0.601127 -5.48717 0
M  V30 5767 H 523.573 1.60163 -3.8404 0
M  V30 5768 H 522.449 2.51578 -4.87852 0
M  V30 5769 H 522.71 3.03004 -3.21934 0
M  V30 5770 N 521.769 1.56035 0.221574 0
M  V30 5771 C 522.732 1.91584 1.2581 0
M  V30 5772 C 523.732 0.794425 1.39805 0
M  V30 5773 O 524.922 1.06217 1.38071 0
M  V30 5774 C 522.054 2.16663 2.63192 0
M  V30 5775 H 523.247 2.8429 0.954935 0
M  V30 5776 H 520.8 1.49316 0.461988 0
M  V30 5777 H 521.535 1.26508 2.98607 0
M  V30 5778 H 521.32 2.98358 2.5441 0
M  V30 5779 H 522.81 2.45262 3.37988 0
M  V30 5780 N 523.247 -0.488276 1.49845 0
M  V30 5781 C 524.493 -1.24341 1.6021 0
M  V30 5782 C 524.826 -1.91967 0.293651 0
M  V30 5783 O 524.101 -1.81323 -0.703718 0
M  V30 5784 C 524.384 -2.3005 2.77036 0
M  V30 5785 C 524.237 -1.66842 4.17713 0
M  V30 5786 C 525.556 -3.31509 2.89464 0
M  V30 5787 H 522.675 -0.450704 0.583125 0
M  V30 5788 H 525.317 -0.539673 1.82174 0
M  V30 5789 H 523.467 -2.90071 2.58439 0
M  V30 5790 H 525.139 -1.1055 4.47858 0
M  V30 5791 H 523.382 -0.972079 4.22768 0
M  V30 5792 H 524.053 -2.43576 4.95353 0
M  V30 5793 H 526.529 -2.81493 3.06433 0
M  V30 5794 H 525.405 -4.02822 3.72861 0
M  V30 5795 H 525.666 -3.94603 1.99351 0
M  V30 5796 N 524.725 -1.39134 -0.740242 0
M  V30 5797 C 525.953 -1.39334 -1.5295 0
M  V30 5798 C 526.368 0.0135008 -1.88795 0
M  V30 5799 O 525.725 0.983524 -1.5373 0
M  V30 5800 C 525.776 -2.2614 -2.82034 0
M  V30 5801 O 525.497 -3.61345 -2.47712 0
M  V30 5802 C 526.998 -2.34666 -3.76094 0
M  V30 5803 H 524.218 -0.476103 -0.472828 0
M  V30 5804 H 526.762 -1.82883 -0.9151 0
M  V30 5805 H 524.917 -1.86018 -3.39818 0
M  V30 5806 H 525.331 -4.07194 -3.30595 0
M  V30 5807 H 526.805 -2.99663 -4.63579 0
M  V30 5808 H 527.282 -1.36426 -4.17474 0
M  V30 5809 H 527.888 -2.75236 -3.2423 0
M  V30 5810 N 526.204 0.969867 -1.24223 0
M  V30 5811 C 527.134 2.08191 -1.05729 0
M  V30 5812 C 528.115 1.70075 0.0290765 0
M  V30 5813 O 529.3 1.93712 -0.137583 0
M  V30 5814 C 526.43 3.40991 -0.658995 0
M  V30 5815 C 525.384 3.93054 -1.69389 0
M  V30 5816 C 524.71 5.22171 -1.15072 0
M  V30 5817 C 526.01 4.21137 -3.08935 0
M  V30 5818 H 527.704 2.23921 -1.98746 0
M  V30 5819 H 525.25 1.07602 -0.956967 0
M  V30 5820 H 527.203 4.18221 -0.51662 0
M  V30 5821 H 525.927 3.25155 0.30686 0
M  V30 5822 H 524.586 3.17977 -1.82444 0
M  V30 5823 H 524.234 5.02694 -0.175539 0
M  V30 5824 H 523.934 5.57973 -1.84229 0
M  V30 5825 H 525.458 6.02013 -1.02042 0
M  V30 5826 H 526.872 4.8908 -2.99121 0
M  V30 5827 H 525.269 4.68163 -3.75425 0
M  V30 5828 H 526.339 3.27996 -3.57137 0
M  V30 5829 N 527.682 1.05563 1.17022 0
M  V30 5830 C 528.912 0.787307 1.91011 0
M  V30 5831 C 529.32 -0.661256 1.77268 0
M  V30 5832 O 528.663 -1.46379 1.10991 0
M  V30 5833 C 528.725 1.09313 3.42478 0
M  V30 5834 C 528.389 2.53863 3.80004 0
M  V30 5835 C 529.386 3.52081 3.82538 0
M  V30 5836 C 527.071 2.88969 4.10855 0
M  V30 5837 C 529.065 4.83449 4.15399 0
M  V30 5838 C 526.752 4.2054 4.43384 0
M  V30 5839 C 527.75 5.17589 4.45635 0
M  V30 5840 O 527.438 6.46799 4.77395 0
M  V30 5841 H 527.17 0.285463 0.61277 0
M  V30 5842 H 529.724 1.41051 1.49311 0
M  V30 5843 H 527.954 0.412833 3.8449 0
M  V30 5844 H 529.643 0.810224 3.97731 0
M  V30 5845 H 530.409 3.26299 3.58823 0
M  V30 5846 H 526.288 2.1409 4.08272 0
M  V30 5847 H 529.832 5.59194 4.1707 0
M  V30 5848 H 525.729 4.46083 4.66563 0
M  V30 5849 H 526.497 6.51677 4.95237 0
M  V30 5850 N 529.16 -1.33526 0.837174 0
M  V30 5851 C 530.408 -1.97446 0.431211 0
M  V30 5852 C 530.729 -1.6665 -1.01255 0
M  V30 5853 O 529.999 -0.964559 -1.70508 0
M  V30 5854 H 528.579 -0.73043 0.156463 0
M  V30 5855 H 531.241 -1.62918 1.06976 0
M  V30 5856 H 530.337 -3.07001 0.561877 0
M  V30 5857 N 530.638 -0.59345 -1.46 0
M  V30 5858 C 531.601 0.123538 -2.28867 0
M  V30 5859 C 532.601 0.808628 -1.38989 0
M  V30 5860 O 533.791 0.658945 -1.61256 0
M  V30 5861 C 530.923 1.1847 -3.19653 0
M  V30 5862 H 532.116 -0.604843 -2.93737 0
M  V30 5863 H 529.669 -0.351875 -1.52288 0
M  V30 5864 H 530.404 1.94431 -2.59552 0
M  V30 5865 H 530.189 0.69783 -3.8584 0
M  V30 5866 H 531.679 1.68726 -3.81997 0
M  V30 5867 N 532.116 1.54067 -0.331816 0
M  V30 5868 C 533.362 2.01012 0.268667 0
M  V30 5869 C 533.695 1.2195 1.51136 0
M  V30 5870 O 532.97 0.303972 1.9211 0
M  V30 5871 C 533.253 3.55158 0.59456 0
M  V30 5872 C 533.106 4.4494 -0.659409 0
M  V30 5873 C 534.425 4.16939 1.4089 0
M  V30 5874 H 531.544 0.730698 0.0961756 0
M  V30 5875 H 534.186 1.84593 -0.450031 0
M  V30 5876 H 532.336 3.6928 1.20685 0
M  V30 5877 H 534.008 4.42675 -1.29756 0
M  V30 5878 H 532.251 4.1428 -1.28665 0
M  V30 5879 H 532.922 5.50643 -0.386804 0
M  V30 5880 H 535.398 4.06443 0.891272 0
M  V30 5881 H 534.274 5.24889 1.60569 0
M  V30 5882 H 534.535 3.70798 2.40752 0
M  V30 5883 N 533.594 0.0601682 1.57485 0
M  V30 5884 C 535.01 -0.296422 1.56823 0
M  V30 5885 C 535.21 -1.70831 1.0686 0
M  V30 5886 O 534.266 -2.4174 0.729245 0
M  V30 5887 C 535.579 -0.116681 3.00474 0
M  V30 5888 C 537.127 -0.187103 3.1244 0
M  V30 5889 C 537.602 -0.035783 4.57986 0
M  V30 5890 N 539.093 -0.0917676 4.63109 0
M  V30 5891 C 539.828 0.00107251 5.734 0
M  V30 5892 N 539.324 0.146773 6.92645 0
M  V30 5893 N 541.117 -0.0551577 5.62073 0
M  V30 5894 H 533.268 0.983055 1.88281 0
M  V30 5895 H 535.531 0.382386 0.867459 0
M  V30 5896 H 535.237 0.85712 3.41096 0
M  V30 5897 H 535.111 -0.873929 3.66936 0
M  V30 5898 H 537.498 -1.15138 2.71712 0
M  V30 5899 H 537.579 0.601052 2.48638 0
M  V30 5900 H 537.223 0.925212 4.99402 0
M  V30 5901 H 537.153 -0.843196 5.19806 0
M  V30 5902 H 539.644 -0.203261 3.77353 0
M  V30 5903 H 539.957 0.210076 7.72514 0
M  V30 5904 H 538.302 0.181979 6.94762 0
M  V30 5905 H 541.493 -0.167605 4.678 0
M  V30 5906 H 541.666 0.020652 6.47997 0
M  V30 5907 N 535.072 -1.5615 -0.213296 0
M  V30 5908 C 536.002 -1.96109 -1.26742 0
M  V30 5909 C 536.983 -0.830448 -1.48451 0
M  V30 5910 O 538.168 -1.09339 -1.60495 0
M  V30 5911 C 535.298 -2.28492 -2.61551 0
M  V30 5912 C 534.252 -3.44124 -2.54485 0
M  V30 5913 C 533.578 -3.62134 -3.93399 0
M  V30 5914 C 534.878 -4.78855 -2.08556 0
M  V30 5915 H 536.572 -2.84412 -0.935434 0
M  V30 5916 H 534.118 -1.36836 -0.44854 0
M  V30 5917 H 536.071 -2.55039 -3.3546 0
M  V30 5918 H 534.795 -1.37052 -2.96453 0
M  V30 5919 H 533.454 -3.17639 -1.83033 0
M  V30 5920 H 533.102 -2.68055 -4.25623 0
M  V30 5921 H 532.802 -4.39913 -3.89551 0
M  V30 5922 H 534.326 -3.91038 -4.68958 0
M  V30 5923 H 535.74 -5.04552 -2.72213 0
M  V30 5924 H 534.137 -5.59975 -2.1575 0
M  V30 5925 H 535.207 -4.73657 -1.03811 0
M  V30 5926 N 536.55 0.480323 -1.50102 0
M  V30 5927 C 537.778 1.25657 -1.64371 0
M  V30 5928 C 538.193 1.86011 -0.323316 0
M  V30 5929 O 537.55 1.68803 0.693682 0
M  V30 5930 C 537.601 2.37197 -2.728 0
M  V30 5931 O 537.322 1.7932 -3.9972 0
M  V30 5932 C 538.823 3.2823 -2.9796 0
M  V30 5933 H 536.043 0.380369 -0.552775 0
M  V30 5934 H 538.587 0.574379 -1.96268 0
M  V30 5935 H 536.742 3.01208 -2.43623 0
M  V30 5936 H 537.156 2.52701 -4.59611 0
M  V30 5937 H 538.63 4.02725 -3.77513 0
M  V30 5938 H 539.107 3.86462 -2.08671 0
M  V30 5939 H 539.713 2.69964 -3.28633 0
M  V30 5940 N 538.028 1.39524 0.732853 0
M  V30 5941 C 539.274 1.37068 1.49467 0
M  V30 5942 C 539.607 -0.0327166 1.94172 0
M  V30 5943 O 538.882 -0.998071 1.66939 0
M  V30 5944 C 539.165 2.34494 2.73285 0
M  V30 5945 C 539.018 3.83784 2.34585 0
M  V30 5946 C 540.337 2.29717 3.75391 0
M  V30 5947 H 537.456 0.499206 0.542183 0
M  V30 5948 H 540.098 1.70532 0.837783 0
M  V30 5949 H 538.248 2.06087 3.29333 0
M  V30 5950 H 539.92 4.22949 1.84151 0
M  V30 5951 H 538.163 4.00455 1.66787 0
M  V30 5952 H 538.834 4.47444 3.23262 0
M  V30 5953 H 541.31 2.54839 3.28932 0
M  V30 5954 H 540.186 2.99962 4.59689 0
M  V30 5955 H 540.447 1.30291 4.22465 0
M  V30 5956 N 539.506 -0.963266 1.24736 0
M  V30 5957 C 540.734 -1.74166 1.11686 0
M  V30 5958 C 541.149 -1.8589 -0.330187 0
M  V30 5959 O 540.506 -1.35042 -1.2276 0
M  V30 5960 C 540.557 -3.15989 1.75595 0
M  V30 5961 O 540.278 -3.04847 3.14642 0
M  V30 5962 C 541.779 -4.10145 1.68213 0
M  V30 5963 H 538.999 -0.546031 0.389989 0
M  V30 5964 H 541.543 -1.20907 1.64929 0
M  V30 5965 H 539.698 -3.66219 1.26343 0
M  V30 5966 H 540.112 -3.9425 3.4593 0
M  V30 5967 H 541.586 -5.07299 2.17604 0
M  V30 5968 H 542.063 -4.3445 0.644208 0
M  V30 5969 H 542.669 -3.65827 2.16912 0
M  V30 5970 N 540.985 -1.06182 -1.16461 0
M  V30 5971 C 541.915 -0.692861 -2.22984 0
M  V30 5972 C 542.896 0.314122 -1.67174 0
M  V30 5973 O 544.081 0.189499 -1.93273 0
M  V30 5974 C 541.211 -0.07732 -3.47214 0
M  V30 5975 C 540.165 -1.01015 -4.15909 0
M  V30 5976 C 539.491 -0.257973 -5.34077 0
M  V30 5977 C 540.791 -2.33868 -4.67015 0
M  V30 5978 H 542.485 -1.58343 -2.54102 0
M  V30 5979 H 540.031 -0.76279 -1.22137 0
M  V30 5980 H 541.984 0.19266 -4.20959 0
M  V30 5981 H 540.708 0.848254 -3.15392 0
M  V30 5982 H 539.367 -1.26486 -3.44088 0
M  V30 5983 H 539.015 0.670684 -4.98509 0
M  V30 5984 H 538.715 -0.879638 -5.80979 0
M  V30 5985 H 540.239 0.00448788 -6.106 0
M  V30 5986 H 541.653 -2.1279 -5.32347 0
M  V30 5987 H 540.05 -2.91522 -5.24533 0
M  V30 5988 H 541.12 -2.97019 -3.83286 0
M  V30 5989 N 542.463 1.3308 -0.844243 0
M  V30 5990 C 543.71 1.97605 -0.44255 0
M  V30 5991 C 544.038 1.66856 0.999458 0
M  V30 5992 O 543.293 0.943586 1.7145 0
M  V30 5993 C 543.592 3.52045 -0.616354 0
M  V30 5994 C 543.258 4.02757 -2.02726 0
M  V30 5995 C 541.92 4.16316 -2.41317 0
M  V30 5996 C 544.272 4.29776 -2.9486 0
M  V30 5997 C 541.6 4.54232 -3.71335 0
M  V30 5998 C 543.952 4.69146 -4.24364 0
M  V30 5999 C 542.616 4.80911 -4.62904 0
M  V30 6000 H 541.886 0.723088 -0.161941 0
M  V30 6001 H 544.533 1.58663 -1.0723 0
M  V30 6002 H 542.838 3.91681 0.0966812 0
M  V30 6003 H 544.535 3.99981 -0.285756 0
M  V30 6004 H 541.125 3.9268 -1.71756 0
M  V30 6005 H 545.309 4.18818 -2.6628 0
M  V30 6006 H 540.565 4.61535 -4.00993 0
M  V30 6007 H 544.739 4.89008 -4.95827 0
M  V30 6008 H 542.366 5.10048 -5.63698 0
M  V30 6009 N 543.941 0.601185 1.45683 0
M  V30 6010 C 545.188 0.0938811 2.02282 0
M  V30 6011 C 545.516 -1.27315 1.47041 0
M  V30 6012 O 544.771 -1.85193 0.632623 0
M  V30 6013 C 545.07 -0.00222425 3.574 0
M  V30 6014 C 544.736 1.29963 4.31764 0
M  V30 6015 C 543.398 1.65625 4.51798 0
M  V30 6016 C 545.75 2.1603 4.74321 0
M  V30 6017 C 543.078 2.87119 5.11644 0
M  V30 6018 C 545.43 3.36766 5.3551 0
M  V30 6019 C 544.094 3.72689 5.53768 0
M  V30 6020 H 543.364 0.0343535 0.740203 0
M  V30 6021 H 546.011 0.781522 1.74827 0
M  V30 6022 H 544.316 -0.773096 3.84097 0
M  V30 6023 H 546.013 -0.410794 3.9889 0
M  V30 6024 H 542.603 1.01204 4.1648 0
M  V30 6025 H 546.787 1.89778 4.58582 0
M  V30 6026 H 542.043 3.15065 5.2397 0
M  V30 6027 H 546.217 4.03713 5.67441 0
M  V30 6028 H 543.844 4.66918 5.99909 0
M  V30 6029 N 545.419 -1.53889 0.339982 0
M  V30 6030 C 546.83 -1.86139 -0.144671 0
M  V30 6031 C 547.181 -1.2613 -1.50285 0
M  V30 6032 O 546.306 -0.573515 -2.08662 0
M  V30 6033 C 546.901 -3.37728 -0.269285 0
M  V30 6034 C 545.46 -3.69868 -0.698168 0
M  V30 6035 C 544.607 -2.76777 0.170249 0
M  V30 6036 H 547.558 -1.48503 0.559704 0
M  V30 6037 H 547.579 -3.64331 -1.0974 0
M  V30 6038 H 547.091 -3.81375 0.719366 0
M  V30 6039 H 545.192 -3.31764 -1.69597 0
M  V30 6040 H 545.305 -4.76582 -0.490533 0
M  V30 6041 H 543.669 -2.52188 -0.356844 0
M  V30 6042 H 544.452 -3.23253 1.15597 0
M  V30 6043 N 546.897 -0.0685191 -1.57451 0
M  V30 6044 C 548.122 0.613919 -1.98106 0
M  V30 6045 C 548.547 1.62551 -0.946501 0
M  V30 6046 O 547.905 1.81085 0.0882824 0
M  V30 6047 C 547.953 1.26189 -3.378 0
M  V30 6048 O 547.057 2.37773 -3.36954 0
M  V30 6049 H 546.398 0.158163 -0.644888 0
M  V30 6050 H 548.928 -0.142063 -2.04106 0
M  V30 6051 H 548.938 1.60951 -3.74912 0
M  V30 6052 H 547.613 0.520625 -4.12629 0
M  V30 6053 H 546.19 2.04829 -3.11608 0
M  V30 6054 N 548.375 1.56261 0.205012 0
M  V30 6055 C 549.338 1.92908 1.23771 0
M  V30 6056 C 550.338 0.809208 1.38955 0
M  V30 6057 O 551.528 1.07676 1.36936 0
M  V30 6058 C 548.66 2.19442 2.60879 0
M  V30 6059 H 549.853 2.85287 0.924728 0
M  V30 6060 H 547.406 1.49798 0.446125 0
M  V30 6061 H 548.141 1.29668 2.97248 0
M  V30 6062 H 547.926 3.0104 2.51232 0
M  V30 6063 H 549.416 2.48833 3.35368 0
M  V30 6064 N 549.853 -0.472356 1.50355 0
M  V30 6065 C 551.102 -1.2213 1.60522 0
M  V30 6066 C 551.415 -1.9312 0.310466 0
M  V30 6067 O 552.621 -2.69936 0.291029 0
M  V30 6068 C 551.077 -2.21909 2.83345 0
M  V30 6069 C 550.685 -1.56727 4.19691 0
M  V30 6070 C 552.429 -2.97453 3.02856 0
M  V30 6071 C 550.336 -2.54785 5.33703 0
M  V30 6072 H 549.266 -0.459543 0.597776 0
M  V30 6073 H 551.917 -0.491922 1.76783 0
M  V30 6074 H 550.299 -2.98133 2.60639 0
M  V30 6075 H 551.473 -0.863007 4.52646 0
M  V30 6076 H 549.788 -0.934685 4.05774 0
M  V30 6077 H 552.385 -3.70838 3.85205 0
M  V30 6078 H 552.728 -3.56764 2.14534 0
M  V30 6079 H 553.261 -2.28342 3.25737 0
M  V30 6080 H 550 -2.00214 6.24175 0
M  V30 6081 H 549.52 -3.23367 5.05167 0
M  V30 6082 H 551.199 -3.16639 5.64224 0
M  V30 6083 N 551.331 -1.39911 -0.725443 0
M  V30 6084 C 552.241 -1.41688 -1.8698 0
M  V30 6085 C 553.257 -0.310579 -1.71206 0
M  V30 6086 O 554.433 -0.55359 -1.93642 0
M  V30 6087 C 551.498 -1.26811 -3.22676 0
M  V30 6088 C 550.559 -2.47497 -3.50776 0
M  V30 6089 C 549.792 -2.3332 -4.79997 0
M  V30 6090 O 550.015 -1.34175 -5.54394 0
M  V30 6091 O 548.949 -3.22498 -5.08211 0
M  V30 6092 H 552.775 -2.38171 -1.88436 0
M  V30 6093 H 550.36 -1.21128 -0.874548 0
M  V30 6094 H 552.242 -1.20684 -4.03749 0
M  V30 6095 H 550.917 -0.334289 -3.21969 0
M  V30 6096 H 549.824 -2.59201 -2.69751 0
M  V30 6097 H 551.157 -3.39606 -3.5627 0
M  V30 6098 N 552.809 0.956637 -1.25245 0
M  V30 6099 C 554.225 1.22733 -1.02023 0
M  V30 6100 C 554.425 1.99761 0.264186 0
M  V30 6101 O 553.481 2.32814 0.977436 0
M  V30 6102 C 554.794 2.00367 -2.24217 0
M  V30 6103 C 556.342 2.13418 -2.28958 0
M  V30 6104 C 556.817 2.9445 -3.50803 0
M  V30 6105 N 558.308 3.02029 -3.51187 0
M  V30 6106 C 559.043 3.65116 -4.42129 0
M  V30 6107 N 558.539 4.2983 -5.43339 0
M  V30 6108 N 560.332 3.62237 -4.29815 0
M  V30 6109 H 552.483 0.441282 -2.07765 0
M  V30 6110 H 554.746 0.257686 -0.912306 0
M  V30 6111 H 554.452 1.51165 -3.17556 0
M  V30 6112 H 554.326 3.01077 -2.27228 0
M  V30 6113 H 556.713 2.61819 -1.36143 0
M  V30 6114 H 556.794 1.1202 -2.29968 0
M  V30 6115 H 556.438 2.46741 -4.43939 0
M  V30 6116 H 556.368 3.9607 -3.47039 0
M  V30 6117 H 558.859 2.56007 -2.77973 0
M  V30 6118 H 559.172 4.75819 -6.08947 0
M  V30 6119 H 557.517 4.28465 -5.47214 0
M  V30 6120 H 560.708 3.10863 -3.49974 0
M  V30 6121 H 560.881 4.11117 -5.00886 0
M  V30 6122 N 554.287 1.06798 1.15896 0
M  V30 6123 C 555.533 0.788934 1.86825 0
M  V30 6124 C 555.866 -0.683084 1.8179 0
M  V30 6125 O 555.141 -1.50086 1.23711 0
M  V30 6126 C 555.424 1.29065 3.36176 0
M  V30 6127 C 555.277 2.8268 3.49874 0
M  V30 6128 C 556.596 0.902655 4.30744 0
M  V30 6129 H 553.715 0.288066 0.678371 0
M  V30 6130 H 556.357 1.32479 1.36195 0
M  V30 6131 H 554.507 0.834806 3.79425 0
M  V30 6132 H 556.179 3.36511 3.15528 0
M  V30 6133 H 554.422 3.21157 2.91617 0
M  V30 6134 H 555.093 3.12852 4.54783 0
M  V30 6135 H 557.569 1.29535 3.95424 0
M  V30 6136 H 556.445 1.28111 5.3374 0
M  V30 6137 H 556.706 -0.191951 4.41683 0
M  V30 6138 N 555.766 -1.3263 0.851289 0
M  V30 6139 C 556.991 -2.02097 0.466006 0
M  V30 6140 C 557.416 -1.63574 -0.928709 0
M  V30 6141 O 556.774 -0.834665 -1.60944 0
M  V30 6142 C 556.822 -3.55425 0.608737 0
M  V30 6143 O 555.926 -4.10827 -0.359878 0
M  V30 6144 H 555.267 -0.636911 0.187724 0
M  V30 6145 H 557.797 -1.69253 1.14955 0
M  V30 6146 H 557.807 -4.04986 0.495006 0
M  V30 6147 H 556.482 -3.82806 1.62581 0
M  V30 6148 H 555.059 -3.72349 -0.202666 0
M  V30 6149 N 557.244 -0.608902 -1.45362 0
M  V30 6150 C 558.154 0.110969 -2.34337 0
M  V30 6151 C 559.17 0.859007 -1.51318 0
M  V30 6152 O 560.346 0.816296 -1.84116 0
M  V30 6153 C 557.411 1.09494 -3.28956 0
M  V30 6154 C 556.472 0.348718 -4.27881 0
M  V30 6155 C 555.705 1.28582 -5.17979 0
M  V30 6156 O 555.928 2.52369 -5.11533 0
M  V30 6157 O 554.862 0.782172 -5.96796 0
M  V30 6158 H 558.688 -0.620258 -2.97299 0
M  V30 6159 H 556.273 -0.36916 -1.44767 0
M  V30 6160 H 558.155 1.66163 -3.87257 0
M  V30 6161 H 556.83 1.80717 -2.68557 0
M  V30 6162 H 555.737 -0.260465 -3.73192 0
M  V30 6163 H 557.07 -0.323049 -4.91139 0
M  V30 6164 N 558.722 1.53707 -0.348139 0
M  V30 6165 C 559.685 2.23812 0.494058 0
M  V30 6166 C 560.685 1.23989 1.02388 0
M  V30 6167 O 561.875 1.48395 0.912396 0
M  V30 6168 C 559.007 2.96133 1.68872 0
M  V30 6169 H 560.2 2.99663 -0.119141 0
M  V30 6170 H 557.753 1.55983 -0.0995539 0
M  V30 6171 H 558.488 2.24481 2.34049 0
M  V30 6172 H 558.273 3.69357 1.31596 0
M  V30 6173 H 559.763 3.49475 2.28597 0
M  V30 6174 N 560.2 0.0768682 1.57412 0
M  V30 6175 C 561.449 -0.590679 1.92857 0
M  V30 6176 C 561.762 -1.70461 0.959293 0
M  V30 6177 O 562.968 -2.43207 1.20675 0
M  V30 6178 C 561.424 -1.10204 3.42612 0
M  V30 6179 C 561.032 -0.0188447 4.47996 0
M  V30 6180 C 562.776 -1.74336 3.87049 0
M  V30 6181 C 560.683 -0.544536 5.88888 0
M  V30 6182 H 559.613 -0.224411 0.71983 0
M  V30 6183 H 562.264 0.149924 1.82887 0
M  V30 6184 H 560.646 -1.89577 3.47673 0
M  V30 6185 H 561.82 0.755936 4.54557 0
M  V30 6186 H 560.135 0.526555 4.13057 0
M  V30 6187 H 562.732 -2.14708 4.89699 0
M  V30 6188 H 563.075 -2.60537 3.24694 0
M  V30 6189 H 563.608 -1.01577 3.84613 0
M  V30 6190 H 560.347 0.280426 6.549 0
M  V30 6191 H 559.867 -1.28673 5.85836 0
M  V30 6192 H 561.546 -1.01933 6.3892 0
M  V30 6193 N 561.678 -1.56367 -0.196722 0
M  V30 6194 C 562.924 -1.80796 -0.918725 0
M  V30 6195 C 563.257 -0.650645 -1.82976 0
M  V30 6196 O 562.532 0.348889 -1.91345 0
M  V30 6197 C 562.815 -3.15472 -1.73636 0
M  V30 6198 C 562.668 -4.41693 -0.85015 0
M  V30 6199 C 563.987 -3.46824 -2.70927 0
M  V30 6200 H 561.106 -0.657702 -0.332561 0
M  V30 6201 H 563.748 -1.89086 -0.186186 0
M  V30 6202 H 561.898 -3.08536 -2.36088 0
M  V30 6203 H 563.57 -4.60673 -0.240459 0
M  V30 6204 H 561.813 -4.33517 -0.156785 0
M  V30 6205 H 562.484 -5.32419 -1.45719 0
M  V30 6206 H 564.96 -3.54049 -2.18607 0
M  V30 6207 H 563.836 -4.4218 -3.25219 0
M  V30 6208 H 564.097 -2.70236 -3.49893 0
M  V30 6209 N 563.156 0.464375 -1.50603 0
M  V30 6210 C 564.381 1.24372 -1.65971 0
M  V30 6211 C 564.806 1.84901 -0.345453 0
M  V30 6212 O 564.164 1.67596 0.691457 0
M  V30 6213 C 564.212 2.32331 -2.7578 0
M  V30 6214 O 563.316 3.37146 -2.375 0
M  V30 6215 H 562.657 0.365604 -0.554283 0
M  V30 6216 H 565.187 0.55183 -1.97018 0
M  V30 6217 H 565.197 2.77539 -2.99059 0
M  V30 6218 H 563.872 1.87648 -3.71162 0
M  V30 6219 H 562.449 2.97602 -2.24694 0
M  V30 6220 N 564.634 1.40294 0.718013 0
M  V30 6221 C 565.883 1.37746 1.4734 0
M  V30 6222 C 566.196 -0.0180754 1.95592 0
M  V30 6223 O 567.402 -0.166166 2.70991 0
M  V30 6224 C 565.858 2.4208 2.66318 0
M  V30 6225 C 565.466 3.87432 2.24945 0
M  V30 6226 C 567.21 2.48635 3.44065 0
M  V30 6227 C 565.117 4.83368 3.40748 0
M  V30 6228 H 564.047 0.512165 0.553356 0
M  V30 6229 H 566.698 1.66019 0.781661 0
M  V30 6230 H 565.08 2.06903 3.3765 0
M  V30 6231 H 566.254 4.3174 1.6105 0
M  V30 6232 H 564.569 3.8433 1.60249 0
M  V30 6233 H 567.166 3.17499 4.30231 0
M  V30 6234 H 567.509 1.51611 3.87711 0
M  V30 6235 H 568.042 2.82791 2.79775 0
M  V30 6236 H 564.781 5.81716 3.02136 0
M  V30 6237 H 564.301 4.43726 4.03568 0
M  V30 6238 H 565.98 5.03074 4.06848 0
M  V30 6239 N 566.112 -0.949982 1.2575 0
M  V30 6240 C 567.528 -1.22191 1.02672 0
M  V30 6241 C 567.728 -1.99898 -0.253588 0
M  V30 6242 O 566.784 -2.33329 -0.965076 0
M  V30 6243 C 568.097 -1.99175 2.25277 0
M  V30 6244 C 569.645 -2.12201 2.30087 0
M  V30 6245 C 570.12 -2.92586 3.5236 0
M  V30 6246 N 571.611 -3.00163 3.52784 0
M  V30 6247 C 572.346 -3.62766 4.44059 0
M  V30 6248 N 571.842 -4.26943 5.45611 0
M  V30 6249 N 573.635 -3.59953 4.3173 0
M  V30 6250 H 565.786 -0.430258 2.07996 0
M  V30 6251 H 568.049 -0.252844 0.91366 0
M  V30 6252 H 567.755 -1.49479 3.18354 0
M  V30 6253 H 567.629 -2.99868 2.28821 0
M  V30 6254 H 570.016 -2.61093 1.3753 0
M  V30 6255 H 570.097 -1.10799 2.30559 0
M  V30 6256 H 569.741 -2.44383 4.45241 0
M  V30 6257 H 569.671 -3.94224 3.49134 0
M  V30 6258 H 572.162 -2.54529 2.79327 0
M  V30 6259 H 572.475 -4.72583 6.11461 0
M  V30 6260 H 570.82 -4.25557 5.49478 0
M  V30 6261 H 574.011 -3.09003 3.51617 0
M  V30 6262 H 574.184 -4.08455 5.03059 0
M  V30 6263 N 567.59 -1.07411 -1.15328 0
M  V30 6264 C 569.006 -0.799759 -1.38116 0
M  V30 6265 C 569.206 0.59572 -1.92493 0
M  V30 6266 O 568.262 1.35433 -2.13106 0
M  V30 6267 C 569.575 -1.87407 -2.35158 0
M  V30 6268 C 571.123 -1.89889 -2.48819 0
M  V30 6269 C 571.598 -2.96406 -3.49153 0
M  V30 6270 N 573.089 -2.95512 -3.56689 0
M  V30 6271 C 573.824 -3.74575 -4.34144 0
M  V30 6272 N 573.32 -4.63488 -5.14928 0
M  V30 6273 N 575.113 -3.62919 -4.29239 0
M  V30 6274 H 567.264 -1.97411 -0.78374 0
M  V30 6275 H 569.527 -0.856113 -0.407154 0
M  V30 6276 H 569.233 -2.8768 -2.0232 0
M  V30 6277 H 569.107 -1.73471 -3.34944 0
M  V30 6278 H 571.494 -0.902677 -2.80955 0
M  V30 6279 H 571.575 -2.07904 -1.49029 0
M  V30 6280 H 571.219 -3.96227 -3.17752 0
M  V30 6281 H 571.149 -2.75638 -4.48699 0
M  V30 6282 H 573.64 -2.31061 -2.99031 0
M  V30 6283 H 573.953 -5.20445 -5.71276 0
M  V30 6284 H 572.298 -4.67537 -5.14232 0
M  V30 6285 H 575.489 -2.92833 -3.65194 0
M  V30 6286 H 575.662 -4.24777 -4.89355 0
M  V30 6287 N 569.068 1.32177 -0.85831 0
M  V30 6288 C 570.317 1.96392 -0.459689 0
M  V30 6289 C 570.63 1.68659 0.990632 0
M  V30 6290 O 571.836 2.26641 1.49485 0
M  V30 6291 C 570.292 3.51542 -0.7711 0
M  V30 6292 C 569.9 3.8813 -2.2374 0
M  V30 6293 C 571.644 4.2221 -0.44038 0
M  V30 6294 C 569.551 5.36341 -2.49183 0
M  V30 6295 H 568.481 0.735007 -0.168169 0
M  V30 6296 H 571.132 1.50518 -1.0496 0
M  V30 6297 H 569.514 3.95846 -0.11058 0
M  V30 6298 H 570.688 3.54824 -2.94001 0
M  V30 6299 H 569.003 3.30497 -2.533 0
M  V30 6300 H 571.6 5.31234 -0.607855 0
M  V30 6301 H 571.943 4.11683 0.618291 0
M  V30 6302 H 572.476 3.83502 -1.05695 0
M  V30 6303 H 569.215 5.51892 -3.53689 0
M  V30 6304 H 568.735 5.7104 -1.83504 0
M  V30 6305 H 570.414 6.03466 -2.33318 0
M  V30 6306 N 570.547 0.616602 1.45037 0
M  V30 6307 C 571.479 -0.135186 2.28801 0
M  V30 6308 C 572.492 -0.82303 1.40464 0
M  V30 6309 O 573.681 -0.686909 1.64754 0
M  V30 6310 C 570.781 -1.21292 3.16451 0
M  V30 6311 C 569.954 -0.61043 4.3312 0
M  V30 6312 C 569.013 -1.58022 5.01912 0
M  V30 6313 O 568.039 -1.10301 5.58411 0
M  V30 6314 N 569.241 -2.91464 5.02025 0
M  V30 6315 H 572.006 0.583612 2.93963 0
M  V30 6316 H 569.567 0.456723 1.55324 0
M  V30 6317 H 571.559 -1.86169 3.59337 0
M  V30 6318 H 570.129 -1.83412 2.53138 0
M  V30 6319 H 569.349 0.216638 3.93604 0
M  V30 6320 H 570.637 -0.188293 5.08451 0
M  V30 6321 H 570.035 -3.32829 4.57429 0
M  V30 6322 H 568.592 -3.51741 5.48745 0
M  V30 6323 N 572.025 -1.5352 0.356285 0
M  V30 6324 C 573.253 -2.05534 -0.237328 0
M  V30 6325 C 573.668 -1.23043 -1.43199 0
M  V30 6326 O 573.025 -0.268821 -1.80509 0
M  V30 6327 C 573.076 -3.55791 -0.639933 0
M  V30 6328 O 572.797 -4.35154 0.507233 0
M  V30 6329 C 574.298 -4.24027 -1.29292 0
M  V30 6330 H 571.518 -0.669585 -0.0435572 0
M  V30 6331 H 574.062 -1.97988 0.511963 0
M  V30 6332 H 572.217 -3.63518 -1.33915 0
M  V30 6333 H 572.631 -5.24178 0.18375 0
M  V30 6334 H 574.105 -5.30509 -1.52527 0
M  V30 6335 H 574.582 -3.77166 -2.25039 0
M  V30 6336 H 575.188 -4.20527 -0.63539 0
M  V30 6337 N 573.503 -0.0852151 -1.57369 0
M  V30 6338 C 574.75 0.580806 -1.93992 0
M  V30 6339 C 575.078 1.68801 -0.966252 0
M  V30 6340 O 574.333 1.95694 0.0158649 0
M  V30 6341 C 574.632 1.18482 -3.3719 0
M  V30 6342 C 574.298 0.2024 -4.50446 0
M  V30 6343 C 572.96 -0.0678318 -4.81152 0
M  V30 6344 C 575.312 -0.46895 -5.19086 0
M  V30 6345 C 572.64 -1.01627 -5.77831 0
M  V30 6346 C 574.992 -1.4058 -6.16782 0
M  V30 6347 C 573.656 -1.68436 -6.45899 0
M  V30 6348 H 572.926 0.212532 -0.709867 0
M  V30 6349 H 575.573 -0.158947 -1.90839 0
M  V30 6350 H 573.878 2.0006 -3.36873 0
M  V30 6351 H 575.575 1.70767 -3.62822 0
M  V30 6352 H 572.165 0.423208 -4.26505 0
M  V30 6353 H 576.349 -0.273307 -4.95547 0
M  V30 6354 H 571.605 -1.2392 -5.9871 0
M  V30 6355 H 575.779 -1.93188 -6.69068 0
M  V30 6356 H 573.406 -2.42088 -7.20623 0
M  V30 6357 N 574.981 1.5647 0.188427 0
M  V30 6358 C 575.911 1.98101 1.23606 0
M  V30 6359 C 576.892 0.853961 1.47111 0
M  V30 6360 O 578.077 1.11879 1.58735 0
M  V30 6361 C 575.207 2.32624 2.57882 0
M  V30 6362 C 574.161 3.48129 2.48978 0
M  V30 6363 C 573.487 3.68347 3.87588 0
M  V30 6364 C 574.787 4.82112 2.00911 0
M  V30 6365 H 576.481 2.85864 0.890068 0
M  V30 6366 H 574.027 1.37532 0.426714 0
M  V30 6367 H 575.98 2.60343 3.3136 0
M  V30 6368 H 574.704 1.41751 2.94235 0
M  V30 6369 H 573.363 3.20511 1.77956 0
M  V30 6370 H 573.011 2.74793 4.21305 0
M  V30 6371 H 572.711 4.46055 3.82503 0
M  V30 6372 H 574.235 3.98449 4.62678 0
M  V30 6373 H 575.649 5.08819 2.64151 0
M  V30 6374 H 574.046 5.63337 2.06814 0
M  V30 6375 H 575.116 4.75249 0.96262 0
M  V30 6376 N 576.459 -0.456382 1.50847 0
M  V30 6377 C 577.389 -1.56025 1.73719 0
M  V30 6378 C 578.37 -1.5967 0.586473 0
M  V30 6379 O 579.555 -1.75702 0.827185 0
M  V30 6380 C 576.685 -2.94251 1.84483 0
M  V30 6381 C 575.639 -3.05471 2.99786 0
M  V30 6382 C 574.965 -4.45489 2.95709 0
M  V30 6383 C 576.265 -2.81318 4.40065 0
M  V30 6384 H 577.959 -1.37138 2.66146 0
M  V30 6385 H 575.505 -0.658299 1.28072 0
M  V30 6386 H 577.458 -3.71417 1.99067 0
M  V30 6387 H 576.182 -3.14328 0.886891 0
M  V30 6388 H 574.841 -2.30741 2.84876 0
M  V30 6389 H 574.489 -4.62505 1.97732 0
M  V30 6390 H 574.189 -4.53929 3.73125 0
M  V30 6391 H 575.713 -5.24655 3.12362 0
M  V30 6392 H 577.127 -3.48226 4.55425 0
M  V30 6393 H 575.524 -3.01188 5.19043 0
M  V30 6394 H 576.594 -1.7706 4.51418 0
M  V30 6395 N 577.937 -1.40673 -0.710563 0
M  V30 6396 C 578.867 -1.44095 -1.83736 0
M  V30 6397 C 579.848 -0.301286 -1.67411 0
M  V30 6398 O 581.033 -0.510618 -1.87367 0
M  V30 6399 C 578.163 -1.30773 -3.21738 0
M  V30 6400 C 577.117 -2.42395 -3.52745 0
M  V30 6401 C 576.443 -2.14147 -4.89944 0
M  V30 6402 C 577.743 -3.84738 -3.53234 0
M  V30 6403 H 579.437 -2.38396 -1.81129 0
M  V30 6404 H 576.983 -1.14746 -0.870017 0
M  V30 6405 H 578.936 -1.31783 -4.00264 0
M  V30 6406 H 577.66 -0.329507 -3.24934 0
M  V30 6407 H 576.319 -2.40643 -2.76562 0
M  V30 6408 H 575.967 -1.14703 -4.89747 0
M  V30 6409 H 575.667 -2.88934 -5.11655 0
M  V30 6410 H 577.191 -2.16848 -5.70797 0
M  V30 6411 H 578.605 -3.88286 -4.2179 0
M  V30 6412 H 577.002 -4.59085 -3.86473 0
M  V30 6413 H 578.072 -4.13962 -2.52514 0
M  V30 6414 N 579.415 0.9433 -1.26252 0
M  V30 6415 C 580.692 1.66639 -1.02424 0
M  V30 6416 C 581.072 2.06335 0.446006 0
M  V30 6417 O 580.42 1.78551 1.42589 0
M  V30 6418 C 580.63 2.88019 -1.97094 0
M  V30 6419 C 581.978 3.59718 -2.25584 0
M  V30 6420 O 583.002 2.9812 -1.94943 0
M  V30 6421 O 581.861 4.7066 -2.77743 0
M  V30 6422 H 578.955 0.729643 -0.389294 0
M  V30 6423 H 581.501 0.995218 -1.37454 0
M  V30 6424 H 580.273 2.5556 -2.96319 0
M  V30 6425 H 579.896 3.62863 -1.62532 0
M  V30 6426 N 580.893 1.08022 1.14757 0
M  V30 6427 C 581.803 0.718292 2.23333 0
M  V30 6428 C 582.819 -0.273477 1.71837 0
M  V30 6429 O 583.995 -0.118406 2.01052 0
M  V30 6430 C 581.06 0.128855 3.4646 0
M  V30 6431 C 580.121 1.17473 4.12915 0
M  V30 6432 C 579.354 0.61333 5.30164 0
M  V30 6433 O 579.577 -0.568458 5.6756 0
M  V30 6434 O 578.511 1.3615 5.86299 0
M  V30 6435 H 582.337 1.62394 2.56636 0
M  V30 6436 H 579.922 0.853628 1.22611 0
M  V30 6437 H 581.804 -0.197249 4.20938 0
M  V30 6438 H 580.479 -0.750014 3.14891 0
M  V30 6439 H 579.386 1.5533 3.40328 0
M  V30 6440 H 580.719 2.02574 4.48581 0
M  V30 6441 N 582.371 -1.3172 0.865308 0
M  V30 6442 C 583.62 -1.96145 0.470098 0
M  V30 6443 C 583.933 -1.69182 -0.981674 0
M  V30 6444 O 585.139 -2.27431 -1.48281 0
M  V30 6445 C 583.595 -3.51129 0.789732 0
M  V30 6446 C 583.203 -3.86938 2.25795 0
M  V30 6447 C 584.947 -4.2197 0.462765 0
M  V30 6448 C 582.854 -5.35012 2.52024 0
M  V30 6449 H 581.784 -0.734105 0.172065 0
M  V30 6450 H 584.435 -1.49959 1.05757 0
M  V30 6451 H 582.817 -3.95781 0.131571 0
M  V30 6452 H 583.991 -3.5326 2.95879 0
M  V30 6453 H 582.306 -3.29149 2.55049 0
M  V30 6454 H 584.903 -5.30904 0.636019 0
M  V30 6455 H 585.246 -4.12005 -0.59645 0
M  V30 6456 H 585.779 -3.82936 1.07727 0
M  V30 6457 H 582.518 -5.50008 3.56611 0
M  V30 6458 H 582.038 -5.70058 1.8653 0
M  V30 6459 H 583.717 -6.0222 2.36515 0
M  V30 6460 N 583.85 -0.624285 -1.44708 0
M  V30 6461 C 585.075 -0.131171 -2.06985 0
M  V30 6462 C 585.5 1.18234 -1.46295 0
M  V30 6463 O 584.858 1.72375 -0.561842 0
M  V30 6464 C 584.906 -0.0226724 -3.60593 0
M  V30 6465 O 584.01 1.02314 -3.99507 0
M  V30 6466 H 583.351 -0.0816556 -0.65896 0
M  V30 6467 H 585.88 -0.859027 -1.85693 0
M  V30 6468 H 585.891 0.170138 -4.07645 0
M  V30 6469 H 584.566 -0.981685 -4.04148 0
M  V30 6470 H 583.143 0.805452 -3.64097 0
M  V30 6471 N 585.328 1.53329 -0.364422 0
M  V30 6472 C 586.26 2.23286 0.517293 0
M  V30 6473 C 587.273 1.24657 1.04711 0
M  V30 6474 O 588.462 1.50887 0.95369 0
M  V30 6475 C 585.562 2.91604 1.72685 0
M  V30 6476 C 584.735 4.1673 1.32873 0
M  V30 6477 C 583.794 4.68269 2.40022 0
M  V30 6478 O 582.82 5.31976 2.02461 0
M  V30 6479 N 584.022 4.45983 3.7159 0
M  V30 6480 H 586.787 2.99588 -0.0819391 0
M  V30 6481 H 584.348 1.60787 -0.189544 0
M  V30 6482 H 586.34 3.22992 2.4384 0
M  V30 6483 H 584.91 2.18763 2.23297 0
M  V30 6484 H 584.13 3.91657 0.447069 0
M  V30 6485 H 585.418 4.98078 1.03902 0
M  V30 6486 H 584.816 3.95077 4.04883 0
M  V30 6487 H 583.373 4.81924 4.38854 0
M  V30 6488 N 586.806 0.0935595 1.57322 0
M  V30 6489 C 588.222 -0.263091 1.57417 0
M  V30 6490 C 588.422 -1.68526 1.1046 0
M  V30 6491 O 587.478 -2.40139 0.780357 0
M  V30 6492 C 588.791 -0.0529201 3.00653 0
M  V30 6493 C 590.339 -0.120788 3.12767 0
M  V30 6494 C 590.814 0.0613707 4.57959 0
M  V30 6495 N 592.305 0.00648534 4.632 0
M  V30 6496 C 593.04 0.122699 5.73269 0
M  V30 6497 N 592.536 0.29366 6.92177 0
M  V30 6498 N 594.329 0.0640787 5.62063 0
M  V30 6499 H 586.48 1.02277 1.86154 0
M  V30 6500 H 588.743 0.4007 0.859153 0
M  V30 6501 H 588.449 0.929279 3.39201 0
M  V30 6502 H 588.323 -0.795899 3.68708 0
M  V30 6503 H 590.71 -1.09349 2.74093 0
M  V30 6504 H 590.791 0.653656 2.47307 0
M  V30 6505 H 590.435 1.03093 4.97327 0
M  V30 6506 H 590.365 -0.732748 5.21477 0
M  V30 6507 H 592.856 -0.123173 3.77699 0
M  V30 6508 H 593.169 0.37389 7.71895 0
M  V30 6509 H 591.514 0.329307 6.94219 0
M  V30 6510 H 594.705 -0.0683396 4.6805 0
M  V30 6511 H 594.878 0.158097 6.47807 0
M  V30 6512 N 588.284 -1.56567 -0.180126 0
M  V30 6513 C 589.232 -1.96632 -1.24251 0
M  V30 6514 C 590.226 -0.853818 -1.46309 0
M  V30 6515 O 591.432 -1.0389 -1.46993 0
M  V30 6516 H 587.807 -0.625476 -0.417473 0
M  V30 6517 H 589.778 -2.85201 -0.877679 0
M  V30 6518 C 588.527 -2.33486 -2.57642 0
M  V30 6519 H 587.85 -3.18626 -2.4149 0
M  V30 6520 H 589.29 -2.65371 -3.30688 0
M  V30 6521 C 587.749 -1.17499 -3.15746 0
M  V30 6522 O 588.279 -0.457956 -3.99081 0
M  V30 6523 N 586.485 -0.94786 -2.74707 0
M  V30 6524 H 586.032 -1.53269 -2.07042 0
M  V30 6525 H 585.99 -0.173626 -3.1392 0
M  V30 6526 N 589.762 0.448376 -1.51087 0
M  V30 6527 C 591.178 0.783984 -1.39017 0
M  V30 6528 C 591.378 1.96087 -0.463904 0
M  V30 6529 O 590.434 2.52357 0.0850534 0
M  V30 6530 C 591.747 1.07471 -2.80839 0
M  V30 6531 C 593.295 1.17981 -2.89913 0
M  V30 6532 C 593.77 1.50354 -4.32617 0
M  V30 6533 N 595.261 1.57301 -4.35673 0
M  V30 6534 C 595.996 1.839 -5.4311 0
M  V30 6535 N 595.492 2.08365 -6.60724 0
M  V30 6536 N 597.285 1.8559 -5.30578 0
M  V30 6537 H 589.436 -0.326881 -2.0987 0
M  V30 6538 H 591.699 -0.0838006 -0.944289 0
M  V30 6539 H 591.405 0.282768 -3.50561 0
M  V30 6540 H 591.279 2.00519 -3.19487 0
M  V30 6541 H 593.666 1.9624 -2.20395 0
M  V30 6542 H 593.747 0.228603 -2.54776 0
M  V30 6543 H 593.391 0.726273 -5.0268 0
M  V30 6544 H 593.321 2.46663 -4.65258 0
M  V30 6545 H 595.812 1.40342 -3.50874 0
M  V30 6546 H 596.125 2.27999 -7.38401 0
M  V30 6547 H 594.47 2.0571 -6.63859 0
M  V30 6548 H 597.661 1.65989 -4.37682 0
M  V30 6549 H 597.834 2.05983 -6.1439 0
M  V30 6550 N 591.24 1.41047 0.703093 0
M  V30 6551 C 592.172 1.38228 1.82827 0
M  V30 6552 C 593.185 0.285637 1.60275 0
M  V30 6553 O 594.374 0.54685 1.69917 0
M  V30 6554 C 591.474 1.13136 3.19458 0
M  V30 6555 C 590.647 2.34695 3.69103 0
M  V30 6556 C 589.706 2.05574 4.84382 0
M  V30 6557 O 588.732 2.78549 4.96386 0
M  V30 6558 N 589.934 1.04135 5.71083 0
M  V30 6559 H 592.699 2.35203 1.85741 0
M  V30 6560 H 590.26 1.35562 0.885125 0
M  V30 6561 H 592.252 0.916183 3.94193 0
M  V30 6562 H 590.822 0.247836 3.11616 0
M  V30 6563 H 590.042 2.71963 2.85359 0
M  V30 6564 H 591.33 3.15705 3.99009 0
M  V30 6565 H 590.728 0.43722 5.64008 0
M  V30 6566 H 589.285 0.886078 6.45749 0
M  V30 6567 N 592.718 -0.936591 1.26751 0
M  V30 6568 C 593.648 -2.05315 1.11212 0
M  V30 6569 C 594.629 -1.70092 0.0160262 0
M  V30 6570 O 595.814 -1.93279 0.188894 0
M  V30 6571 C 592.944 -3.39123 0.749171 0
M  V30 6572 C 591.898 -3.88425 1.79751 0
M  V30 6573 C 591.224 -5.18936 1.28876 0
M  V30 6574 C 592.524 -4.12798 3.19992 0
M  V30 6575 H 594.218 -2.18573 2.04613 0
M  V30 6576 H 591.764 -1.05027 0.985159 0
M  V30 6577 H 593.717 -4.16704 0.627323 0
M  V30 6578 H 592.441 -3.25855 -0.220543 0
M  V30 6579 H 591.1 -3.13028 1.90811 0
M  V30 6580 H 590.748 -5.02051 0.308757 0
M  V30 6581 H 590.448 -5.52892 1.98958 0
M  V30 6582 H 591.972 -5.99096 1.17967 0
M  V30 6583 H 593.386 -4.80977 3.11983 0
M  V30 6584 H 591.783 -4.58044 3.87705 0
M  V30 6585 H 592.853 -3.18412 3.65707 0
M  V30 6586 N 594.196 -1.08629 -1.14182 0
M  V30 6587 C 595.607 -0.838003 -1.66836 0
M  V30 6588 C 595.958 0.634885 -1.85644 0
M  V30 6589 O 595.083 1.49008 -1.56926 0
M  V30 6590 C 595.678 -1.51465 -3.03058 0
M  V30 6591 C 594.237 -1.31355 -3.52736 0
M  V30 6592 C 593.384 -1.57599 -2.28162 0
M  V30 6593 H 596.335 -1.24656 -0.982165 0
M  V30 6594 H 596.356 -0.943134 -3.68626 0
M  V30 6595 H 595.868 -2.58661 -2.89337 0
M  V30 6596 H 593.969 -0.262384 -3.71675 0
M  V30 6597 H 594.082 -2.04275 -4.33369 0
M  V30 6598 H 592.446 -0.997659 -2.34348 0
M  V30 6599 H 593.229 -2.66006 -2.17015 0
M  V30 6600 N 595.674 1.31259 -0.872281 0
M  V30 6601 C 596.899 2.0133 -0.498099 0
M  V30 6602 C 597.324 1.65031 0.902568 0
M  V30 6603 O 596.682 0.860164 1.59596 0
M  V30 6604 C 596.73 3.54411 -0.665205 0
M  V30 6605 O 595.834 4.11347 0.294473 0
M  V30 6606 H 595.175 0.633844 -0.197832 0
M  V30 6607 H 597.705 1.67402 -1.17633 0
M  V30 6608 H 597.715 4.04147 -0.559373 0
M  V30 6609 H 596.39 3.80171 -1.68651 0
M  V30 6610 H 594.967 3.72624 0.143403 0
M  V30 6611 N 597.152 0.631951 1.44375 0
M  V30 6612 C 598.429 0.067646 1.95483 0
M  V30 6613 C 598.809 -1.40683 1.57389 0
M  V30 6614 O 598.157 -2.12167 0.848375 0
M  V30 6615 C 598.367 0.291392 3.47781 0
M  V30 6616 C 599.715 0.185028 4.24197 0
M  V30 6617 O 600.739 0.222803 3.55503 0
M  V30 6618 O 599.598 0.0906642 5.46425 0
M  V30 6619 H 596.692 -0.0218379 0.826712 0
M  V30 6620 H 599.238 0.703711 1.54421 0
M  V30 6621 H 598.01 1.31449 3.68561 0
M  V30 6622 H 597.633 -0.378772 3.95792 0
M  V30 6623 N 598.631 -1.53133 0.372548 0
M  V30 6624 C 599.879 -2.00958 -0.214534 0
M  V30 6625 C 600.2 -1.26135 -1.48711 0
M  V30 6626 O 599.47 -0.376597 -1.92246 0
M  V30 6627 H 598.05 -0.742456 -0.0822664 0
M  V30 6628 H 600.712 -1.88367 0.500385 0
M  V30 6629 H 599.808 -3.09031 -0.436605 0
M  V30 6630 N 600.109 -0.101901 -1.5727 0
M  V30 6631 C 601.056 0.854577 -2.14396 0
M  V30 6632 C 602.026 1.27521 -1.06432 0
M  V30 6633 O 603.211 1.35575 -1.34253 0
M  V30 6634 C 600.351 2.10576 -2.73408 0
M  V30 6635 C 599.464 1.73504 -3.95626 0
M  V30 6636 C 598.599 2.9346 -4.42781 0
M  V30 6637 C 597.638 2.52547 -5.57572 0
M  V30 6638 N 596.775 3.65359 -5.99547 0
M  V30 6639 H 601.615 0.360578 -2.9581 0
M  V30 6640 H 599.152 0.166303 -1.46157 0
M  V30 6641 H 601.11 2.83859 -3.05745 0
M  V30 6642 H 599.74 2.57463 -1.94711 0
M  V30 6643 H 598.792 0.901622 -3.6956 0
M  V30 6644 H 600.104 1.39426 -4.78917 0
M  V30 6645 H 599.258 3.74988 -4.76937 0
M  V30 6646 H 597.997 3.30753 -3.58404 0
M  V30 6647 H 597.002 1.69446 -5.23037 0
M  V30 6648 H 598.227 2.1639 -6.43702 0
M  V30 6649 H 596.173 4.02358 -5.18116 0
M  V30 6650 H 596.09 3.35148 -6.77652 0
M  V30 6651 H 597.358 4.47378 -6.38336 0
M  V30 6652 N 601.587 1.56661 0.17182 0
M  V30 6653 C 602.534 1.96371 1.21273 0
M  V30 6654 C 603.504 0.82756 1.44016 0
M  V30 6655 O 604.689 1.08764 1.56764 0
M  V30 6656 C 601.829 2.32838 2.54716 0
M  V30 6657 C 600.942 3.59628 2.39356 0
M  V30 6658 C 600.077 3.85311 3.65662 0
M  V30 6659 C 599.116 5.0545 3.45234 0
M  V30 6660 N 598.253 5.27268 4.63608 0
M  V30 6661 H 603.093 2.85106 0.86709 0
M  V30 6662 H 600.63 1.41073 0.416744 0
M  V30 6663 H 602.588 2.52004 3.3249 0
M  V30 6664 H 601.218 1.47214 2.87277 0
M  V30 6665 H 600.27 3.4838 1.52761 0
M  V30 6666 H 601.582 4.4756 2.20207 0
M  V30 6667 H 600.736 4.04841 4.51872 0
M  V30 6668 H 599.475 2.95753 3.8779 0
M  V30 6669 H 598.48 4.85819 2.5741 0
M  V30 6670 H 599.705 5.96538 3.24529 0
M  V30 6671 H 597.651 4.40662 4.85956 0
M  V30 6672 H 597.568 6.09422 4.4737 0
M  V30 6673 H 598.836 5.51277 5.51103 0
M  V30 6674 N 603.065 -0.440357 1.51323 0
M  V30 6675 C 603.998 -1.55414 1.67098 0
M  V30 6676 C 604.976 -1.54108 0.518599 0
M  V30 6677 O 606.16 -1.7328 0.742054 0
M  V30 6678 C 603.287 -2.93996 1.68179 0
M  V30 6679 C 602.333 -3.13338 2.89347 0
M  V30 6680 S 603.166 -2.89957 4.50206 0
M  V30 6681 C 604.322 -4.30826 4.54027 0
M  V30 6682 H 604.555 -1.41798 2.61306 0
M  V30 6683 H 602.088 -0.629841 1.40969 0
M  V30 6684 H 604.046 -3.73878 1.69487 0
M  V30 6685 H 602.707 -3.04976 0.751542 0
M  V30 6686 H 601.9 -4.14652 2.86495 0
M  V30 6687 H 601.502 -2.41276 2.85766 0
M  V30 6688 H 603.794 -5.23977 4.29481 0
M  V30 6689 H 604.737 -4.38712 5.55822 0
M  V30 6690 H 605.145 -4.1434 3.83384 0
M  V30 6691 N 604.543 -1.41418 -0.695603 0
M  V30 6692 C 605.789 -1.40982 -1.4578 0
M  V30 6693 C 606.122 -0.0187763 -1.94191 0
M  V30 6694 O 605.397 0.95346 -1.69527 0
M  V30 6695 C 605.68 -2.41657 -2.66972 0
M  V30 6696 C 605.533 -3.89869 -2.24327 0
M  V30 6697 C 606.852 -2.39589 -3.69168 0
M  V30 6698 H 603.971 -0.513405 -0.528757 0
M  V30 6699 H 606.613 -1.72693 -0.792275 0
M  V30 6700 H 604.763 -2.14746 -3.23754 0
M  V30 6701 H 606.435 -4.27683 -1.72872 0
M  V30 6702 H 604.678 -4.04737 -1.56111 0
M  V30 6703 H 605.349 -4.55857 -3.11285 0
M  V30 6704 H 607.825 -2.63471 -3.2206 0
M  V30 6705 H 606.701 -3.12044 -4.51575 0
M  V30 6706 H 606.962 -1.41447 -4.18862 0
M  V30 6707 N 606.021 0.929856 -1.27246 0
M  V30 6708 C 606.971 2.01629 -1.06442 0
M  V30 6709 C 607.955 1.60899 0.00687842 0
M  V30 6710 O 609.147 1.75733 -0.211407 0
M  V30 6711 C 606.276 3.35849 -0.711361 0
M  V30 6712 C 605.362 3.8303 -1.82069 0
M  V30 6713 N 605.753 4.02743 -3.05993 0
M  V30 6714 C 604.051 4.12046 -1.70687 0
M  V30 6715 C 604.752 4.42001 -3.78167 0
M  V30 6716 N 603.728 4.4935 -3.05918 0
M  V30 6717 H 607.53 2.14898 -2.00489 0
M  V30 6718 H 605.044 1.11654 -1.17929 0
M  V30 6719 H 607.041 4.13343 -0.543442 0
M  V30 6720 H 605.701 3.23944 0.221517 0
M  V30 6721 H 606.712 3.89112 -3.41778 0
M  V30 6722 H 603.389 4.08866 -0.844681 0
M  V30 6723 H 604.779 4.6535 -4.84664 0
M  V30 6724 N 607.499 1.09233 1.13605 0
M  V30 6725 C 608.745 0.828385 1.8511 0
M  V30 6726 C 609.078 -0.64437 1.83198 0
M  V30 6727 O 608.353 -1.47428 1.26867 0
M  V30 6728 C 608.636 1.36167 3.33363 0
M  V30 6729 C 608.489 2.90038 3.438 0
M  V30 6730 C 609.808 0.993819 4.28732 0
M  V30 6731 H 606.927 0.30239 0.672108 0
M  V30 6732 H 609.569 1.35339 1.33355 0
M  V30 6733 H 607.719 0.9151 3.77569 0
M  V30 6734 H 609.391 3.43128 3.08319 0
M  V30 6735 H 607.634 3.27271 2.84739 0
M  V30 6736 H 608.305 3.22428 4.48045 0
M  V30 6737 H 610.781 1.37893 3.92587 0
M  V30 6738 H 609.657 1.39403 5.30903 0
M  V30 6739 H 609.918 -0.0982206 4.41991 0
M  V30 6740 N 608.977 -1.30795 0.87923 0
M  V30 6741 C 609.909 -2.27241 0.299025 0
M  V30 6742 C 610.922 -1.53472 -0.543166 0
M  V30 6743 O 612.111 -1.74756 -0.363651 0
M  V30 6744 C 609.211 -3.33655 -0.593931 0
M  V30 6745 C 608.384 -4.36857 0.2179 0
M  V30 6746 C 607.443 -5.22715 -0.604646 0
M  V30 6747 O 606.469 -5.69192 -0.0293838 0
M  V30 6748 N 607.671 -5.48008 -1.91488 0
M  V30 6749 H 610.436 -2.77667 1.12788 0
M  V30 6750 H 607.997 -1.43914 0.741637 0
M  V30 6751 H 609.989 -3.88013 -1.15012 0
M  V30 6752 H 608.559 -2.83202 -1.32346 0
M  V30 6753 H 607.779 -3.82444 0.955536 0
M  V30 6754 H 609.067 -5.02869 0.774614 0
M  V30 6755 H 608.465 -5.1202 -2.40525 0
M  V30 6756 H 607.022 -6.05264 -2.41864 0
M  V30 6757 N 610.455 -0.639598 -1.44038 0
M  V30 6758 C 611.732 -0.078012 -1.95444 0
M  V30 6759 C 612.112 1.39847 -1.58133 0
M  V30 6760 O 611.46 2.11714 -0.859614 0
M  V30 6761 C 611.67 -0.309832 -3.47622 0
M  V30 6762 C 613.018 -0.207521 -4.24093 0
M  V30 6763 O 614.042 -0.241653 -3.55379 0
M  V30 6764 O 612.901 -0.119641 -5.46369 0
M  V30 6765 H 609.995 0.0174534 -0.826816 0
M  V30 6766 H 612.541 -0.711891 -1.54046 0
M  V30 6767 H 611.313 -1.33401 -3.67858 0
M  V30 6768 H 610.936 0.357777 -3.95987 0
M  V30 6769 N 611.933 1.52934 -0.380664 0
M  V30 6770 C 613.18 2.01467 0.204278 0
M  V30 6771 C 613.508 1.26744 1.47533 0
M  V30 6772 O 612.763 0.353723 1.92477 0
M  V30 6773 C 613.062 3.5349 0.527199 0
M  V30 6774 C 612.728 4.46171 -0.651295 0
M  V30 6775 C 611.39 4.71227 -0.974619 0
M  V30 6776 C 613.742 5.00909 -1.44012 0
M  V30 6777 C 611.07 5.4827 -2.08847 0
M  V30 6778 C 613.422 5.7917 -2.5445 0
M  V30 6779 C 612.086 6.02507 -2.87301 0
M  V30 6780 H 611.356 0.73722 0.0747504 0
M  V30 6781 H 614.003 1.84411 -0.516234 0
M  V30 6782 H 612.308 3.68574 1.32892 0
M  V30 6783 H 614.005 3.88529 0.992283 0
M  V30 6784 H 610.595 4.26829 -0.389276 0
M  V30 6785 H 614.779 4.81485 -1.20357 0
M  V30 6786 H 610.035 5.64567 -2.34679 0
M  V30 6787 H 614.209 6.20588 -3.1598 0
M  V30 6788 H 611.836 6.61989 -3.7373 0
M  V30 6789 N 613.412 0.11024 1.57214 0
M  V30 6790 C 614.64 -0.557834 1.99238 0
M  V30 6791 C 615.055 -1.60778 0.989734 0
M  V30 6792 O 614.412 -1.82491 -0.0186092 0
M  V30 6793 C 614.463 -1.19189 3.41286 0
M  V30 6794 O 614.184 -0.183919 4.37714 0
M  V30 6795 C 615.685 -1.94413 3.98395 0
M  V30 6796 H 612.905 -0.148392 0.654386 0
M  V30 6797 H 615.449 0.193996 2.03578 0
M  V30 6798 H 613.604 -1.89456 3.37913 0
M  V30 6799 H 614.018 -0.643475 5.20538 0
M  V30 6800 H 615.492 -2.34116 4.99894 0
M  V30 6801 H 615.969 -2.81592 3.3705 0
M  V30 6802 H 616.575 -1.28928 4.05287 0
M  V30 6803 N 614.89 -1.56749 -0.16351 0
M  V30 6804 C 615.853 -1.96121 -1.18613 0
M  V30 6805 C 616.853 -0.845765 -1.36761 0
M  V30 6806 O 618.043 -1.11268 -1.34033 0
M  V30 6807 C 615.175 -2.26282 -2.54969 0
M  V30 6808 H 616.368 -2.87639 -0.848764 0
M  V30 6809 H 613.921 -1.50928 -0.406251 0
M  V30 6810 H 614.656 -1.37504 -2.93706 0
M  V30 6811 H 614.441 -3.07595 -2.43162 0
M  V30 6812 H 615.931 -2.57638 -3.28653 0
M  V30 6813 N 616.368 0.432326 -1.51554 0
M  V30 6814 C 617.615 1.18134 -1.64471 0
M  V30 6815 C 617.943 1.91076 -0.363349 0
M  V30 6816 O 617.198 1.84492 0.65279 0
M  V30 6817 C 617.497 2.21907 -2.80164 0
M  V30 6818 C 617.163 1.65941 -4.19255 0
M  V30 6819 C 615.825 1.50401 -4.57092 0
M  V30 6820 C 618.177 1.24843 -5.06027 0
M  V30 6821 C 615.505 0.922443 -5.79403 0
M  V30 6822 C 617.857 0.68113 -6.28922 0
M  V30 6823 C 616.521 0.512673 -6.65528 0
M  V30 6824 H 615.791 0.432283 -0.601841 0
M  V30 6825 H 618.438 0.471701 -1.856 0
M  V30 6826 H 616.743 2.98928 -2.53277 0
M  V30 6827 H 618.44 2.79691 -2.87357 0
M  V30 6828 H 615.03 1.79014 -3.89425 0
M  V30 6829 H 619.214 1.35667 -4.77397 0
M  V30 6830 H 614.47 0.779733 -6.06408 0
M  V30 6831 H 618.644 0.35418 -6.95499 0
M  V30 6832 H 616.271 0.0599084 -7.60176 0
M  V30 6833 N 617.846 1.41785 0.688094 0
M  V30 6834 C 619.092 1.42753 1.4489 0
M  V30 6835 C 619.447 0.0384235 1.92362 0
M  V30 6836 O 618.74 -0.937066 1.67122 0
M  V30 6837 C 618.934 2.37532 2.67046 0
M  V30 6838 C 618.763 3.85521 2.31525 0
M  V30 6839 C 617.533 4.54152 2.21527 0
M  V30 6840 C 619.731 4.76299 1.94019 0
M  V30 6841 N 617.713 5.87233 1.78969 0
M  V30 6842 C 619.084 5.98386 1.62279 0
M  V30 6843 C 621.139 4.63877 1.80895 0
M  V30 6844 C 619.842 7.09433 1.18732 0
M  V30 6845 C 621.868 5.74893 1.38752 0
M  V30 6846 C 621.23 6.96083 1.07927 0
M  V30 6847 H 617.329 0.577575 0.527192 0
M  V30 6848 H 619.913 1.77713 0.795375 0
M  V30 6849 H 618.084 2.04656 3.30107 0
M  V30 6850 H 619.816 2.29169 3.33562 0
M  V30 6851 H 616.571 4.08188 2.40166 0
M  V30 6852 H 616.995 6.57785 1.60151 0
M  V30 6853 H 621.637 3.70671 2.03378 0
M  V30 6854 H 619.355 8.02497 0.949937 0
M  V30 6855 H 622.941 5.67287 1.29136 0
M  V30 6856 H 621.821 7.80527 0.758111 0
M  V30 6857 N 619.324 -0.923095 1.27737 0
M  V30 6858 C 620.601 -1.64989 1.05062 0
M  V30 6859 C 620.981 -2.07018 -0.413124 0
M  V30 6860 O 620.329 -1.80797 -1.39731 0
M  V30 6861 C 620.539 -2.84847 2.01652 0
M  V30 6862 C 621.887 -3.56083 2.31279 0
M  V30 6863 O 622.911 -2.94981 1.99662 0
M  V30 6864 O 621.77 -4.66182 2.85196 0
M  V30 6865 H 618.864 -0.723357 0.400853 0
M  V30 6866 H 621.41 -0.973224 1.3902 0
M  V30 6867 H 620.182 -2.50814 3.00347 0
M  V30 6868 H 619.805 -3.60231 1.68284 0
M  V30 6869 N 620.802 -1.09834 -1.13024 0
M  V30 6870 C 621.749 -0.741522 -2.18564 0
M  V30 6871 C 622.719 0.279236 -1.63736 0
M  V30 6872 O 623.904 0.159923 -1.90129 0
M  V30 6873 C 621.044 -0.17277 -3.44667 0
M  V30 6874 C 620.157 -1.24808 -4.13578 0
M  V30 6875 C 619.292 -0.641631 -5.27311 0
M  V30 6876 C 618.331 -1.69795 -5.88078 0
M  V30 6877 N 617.468 -1.11223 -6.93234 0
M  V30 6878 H 622.308 -1.64576 -2.48432 0
M  V30 6879 H 619.845 -0.822174 -1.21978 0
M  V30 6880 H 621.803 0.17482 -4.16834 0
M  V30 6881 H 620.433 0.694725 -3.15235 0
M  V30 6882 H 619.485 -1.71288 -3.39653 0
M  V30 6883 H 620.797 -2.04795 -4.54819 0
M  V30 6884 H 619.951 -0.243128 -6.06213 0
M  V30 6885 H 618.69 0.189742 -4.87331 0
M  V30 6886 H 617.695 -2.10595 -5.07868 0
M  V30 6887 H 618.92 -2.53206 -6.3013 0
M  V30 6888 H 616.866 -0.302208 -6.55304 0
M  V30 6889 H 616.783 -1.84901 -7.3304 0
M  V30 6890 H 618.051 -0.740068 -7.75979 0
M  V30 6891 N 622.28 1.30327 -0.886154 0
M  V30 6892 C 623.243 2.26376 -0.358687 0
M  V30 6893 C 624.243 1.52845 0.499498 0
M  V30 6894 O 625.433 1.71483 0.306485 0
M  V30 6895 C 622.565 3.37379 0.488726 0
M  V30 6896 H 623.758 2.74547 -1.20681 0
M  V30 6897 H 621.311 1.41536 -0.663113 0
M  V30 6898 H 622.046 2.94526 1.35739 0
M  V30 6899 H 621.831 3.91897 -0.126003 0
M  V30 6900 H 623.321 4.08868 0.84952 0
M  V30 6901 N 623.758 0.647228 1.43697 0
M  V30 6902 C 624.983 0.164083 2.0675 0
M  V30 6903 C 625.408 -1.15892 1.48158 0
M  V30 6904 O 624.766 -1.71459 0.589194 0
M  V30 6905 C 624.814 0.0800368 3.60511 0
M  V30 6906 O 623.918 -0.959453 4.01084 0
M  V30 6907 H 623.259 0.0921288 0.657578 0
M  V30 6908 H 625.789 0.88846 1.84303 0
M  V30 6909 H 625.799 -0.105263 4.07864 0
M  V30 6910 H 624.474 1.04586 4.02535 0
M  V30 6911 H 623.051 -0.747425 3.65333 0
M  V30 6912 N 625.236 -1.5273 0.388769 0
M  V30 6913 C 626.146 -2.30165 -0.453993 0
M  V30 6914 C 627.162 -1.37058 -1.07197 0
M  V30 6915 O 628.338 -1.70127 -1.0779 0
M  V30 6916 C 625.403 -3.09303 -1.56628 0
M  V30 6917 C 624.464 -4.18117 -0.973467 0
M  V30 6918 C 623.697 -4.93472 -2.03275 0
M  V30 6919 O 623.92 -4.68913 -3.24772 0
M  V30 6920 O 622.854 -5.78833 -1.65034 0
M  V30 6921 H 626.68 -3.03185 0.176816 0
M  V30 6922 H 624.265 -1.4862 0.152501 0
M  V30 6923 H 626.147 -3.58648 -2.21246 0
M  V30 6924 H 624.822 -2.39098 -2.18206 0
M  V30 6925 H 623.729 -3.7297 -0.290556 0
M  V30 6926 H 625.062 -4.90556 -0.401908 0
M  V30 6927 N 626.714 -0.118576 -1.57153 0
M  V30 6928 C 627.942 0.54726 -1.99531 0
M  V30 6929 C 628.357 1.60251 -0.998246 0
M  V30 6930 O 627.714 1.82498 0.00893106 0
M  V30 6931 C 627.765 1.17378 -3.41913 0
M  V30 6932 O 627.486 0.160703 -4.37805 0
M  V30 6933 C 628.987 1.92297 -3.9942 0
M  V30 6934 H 626.207 0.144919 -0.655164 0
M  V30 6935 H 628.751 -0.20479 -2.03472 0
M  V30 6936 H 626.906 1.87661 -3.38913 0
M  V30 6937 H 627.32 0.61586 -5.20872 0
M  V30 6938 H 628.794 2.31462 -5.01128 0
M  V30 6939 H 629.271 2.79801 -3.38538 0
M  V30 6940 H 629.877 1.26777 -4.05965 0
M  V30 6941 N 628.193 1.56834 0.155195 0
M  V30 6942 C 629.604 1.72421 0.716082 0
M  V30 6943 C 629.955 0.731685 1.82046 0
M  V30 6944 O 629.08 -0.103481 2.16152 0
M  V30 6945 C 629.675 3.12629 1.30571 0
M  V30 6946 C 628.234 3.29846 1.81325 0
M  V30 6947 C 627.381 2.68359 0.698494 0
M  V30 6948 H 630.332 1.58544 -0.0703861 0
M  V30 6949 H 630.353 3.12174 2.1755 0
M  V30 6950 H 629.865 3.84844 0.501701 0
M  V30 6951 H 627.966 2.62614 2.64319 0
M  V30 6952 H 628.079 4.37727 1.9476 0
M  V30 6953 H 626.443 2.28604 1.12305 0
M  V30 6954 H 627.226 3.43171 -0.0939366 0
M  V30 6955 N 629.671 -0.424282 1.51781 0
M  V30 6956 C 630.899 -1.1947 1.68921 0
M  V30 6957 C 631.314 -1.84683 0.39213 0
M  V30 6958 O 630.671 -1.71261 -0.630554 0
M  V30 6959 C 630.722 -2.26909 2.81416 0
M  V30 6960 O 630.443 -1.64361 4.061 0
M  V30 6961 C 631.944 -3.16945 3.09937 0
M  V30 6962 H 629.164 -0.359591 0.566511 0
M  V30 6963 H 631.708 -0.501139 1.98265 0
M  V30 6964 H 629.863 -2.91959 2.54635 0
M  V30 6965 H 630.277 -2.35468 4.68674 0
M  V30 6966 H 631.751 -3.88437 3.922 0
M  V30 6967 H 632.228 -3.78451 2.22871 0
M  V30 6968 H 632.834 -2.57581 3.38426 0
M  V30 6969 N 631.149 -1.42148 -0.680565 0
M  V30 6970 C 632.079 -1.4796 -1.80638 0
M  V30 6971 C 633.06 -0.336728 -1.66734 0
M  V30 6972 O 634.245 -0.550247 -1.86242 0
M  V30 6973 C 631.375 -1.37569 -3.18892 0
M  V30 6974 C 630.329 -2.49823 -3.47524 0
M  V30 6975 C 629.655 -2.24491 -4.85291 0
M  V30 6976 C 630.955 -3.92144 -3.44994 0
M  V30 6977 H 632.649 -2.42184 -1.76032 0
M  V30 6978 H 630.195 -1.16566 -0.845481 0
M  V30 6979 H 632.148 -1.40243 -3.97379 0
M  V30 6980 H 630.872 -0.398357 -3.24162 0
M  V30 6981 H 629.531 -2.46455 -2.71395 0
M  V30 6982 H 629.179 -1.25066 -4.87204 0
M  V30 6983 H 628.879 -2.99722 -5.05411 0
M  V30 6984 H 630.403 -2.28906 -5.66069 0
M  V30 6985 H 631.817 -3.97145 -4.13459 0
M  V30 6986 H 630.214 -4.67179 -3.76648 0
M  V30 6987 H 631.284 -4.19225 -2.43676 0
M  V30 6988 N 632.627 0.916307 -1.28225 0
M  V30 6989 C 633.559 2.02303 -1.07732 0
M  V30 6990 C 634.572 1.62773 -0.0298421 0
M  V30 6991 O 635.761 1.76406 -0.272626 0
M  V30 6992 C 632.861 3.33282 -0.614504 0
M  V30 6993 C 632.034 4.01439 -1.73682 0
M  V30 6994 C 631.093 5.10698 -1.26781 0
M  V30 6995 O 630.119 5.34038 -1.96958 0
M  V30 6996 N 631.321 5.80355 -0.129624 0
M  V30 6997 H 634.086 2.20442 -2.03041 0
M  V30 6998 H 631.647 1.08744 -1.19943 0
M  V30 6999 H 633.639 4.03699 -0.284397 0
M  V30 7000 H 632.209 3.11633 0.245664 0
M  V30 7001 H 631.429 3.24604 -2.23665 0
M  V30 7002 H 632.717 4.43721 -2.48976 0
M  V30 7003 H 632.115 5.6386 0.455847 0
M  V30 7004 H 630.672 6.51647 0.141224 0
M  V30 7005 N 634.105 1.10431 1.1244 0
M  V30 7006 C 635.353 0.845045 1.83585 0
M  V30 7007 C 635.674 -0.631168 1.84503 0
M  V30 7008 O 634.944 -1.45825 1.30813 0
M  V30 7009 H 633.524 0.309628 0.679809 0
M  V30 7010 H 636.186 1.39458 1.36153 0
M  V30 7011 H 635.282 1.20786 2.8778 0
M  V30 7012 N 635.583 -1.29855 0.893053 0
M  V30 7013 C 636.513 -2.3035 0.382249 0
M  V30 7014 C 637.494 -1.61328 -0.539203 0
M  V30 7015 O 638.679 -1.88882 -0.451342 0
M  V30 7016 C 635.809 -3.45024 -0.396983 0
M  V30 7017 C 634.763 -4.258 0.433437 0
M  V30 7018 C 634.089 -5.32605 -0.472889 0
M  V30 7019 C 635.389 -4.94549 1.67984 0
M  V30 7020 H 637.083 -2.73325 1.22205 0
M  V30 7021 H 634.629 -1.314 0.589073 0
M  V30 7022 H 636.582 -4.14398 -0.765024 0
M  V30 7023 H 635.306 -3.00875 -1.2705 0
M  V30 7024 H 633.965 -3.58125 0.783723 0
M  V30 7025 H 633.613 -4.84702 -1.34435 0
M  V30 7026 H 633.313 -5.87547 0.0789958 0
M  V30 7027 H 634.837 -6.04832 -0.837269 0
M  V30 7028 H 636.251 -5.56395 1.38192 0
M  V30 7029 H 634.648 -5.59393 2.17254 0
M  V30 7030 H 635.718 -4.20215 2.41965 0
M  V30 7031 N 637.061 -0.65484 -1.43351 0
M  V30 7032 C 638.286 -0.175046 -2.0666 0
M  V30 7033 C 638.711 1.15104 -1.4877 0
M  V30 7034 O 638.069 1.71144 -0.598279 0
M  V30 7035 C 638.117 -0.0991544 -3.60464 0
M  V30 7036 O 637.221 0.938169 -4.01587 0
M  V30 7037 H 636.562 -0.0956148 -0.65708 0
M  V30 7038 H 639.092 -0.898222 -1.83829 0
M  V30 7039 H 639.102 0.083632 -4.07914 0
M  V30 7040 H 637.777 -1.06719 -4.01975 0
M  V30 7041 H 636.354 0.72804 -3.65724 0
M  V30 7042 N 638.539 1.52521 -0.396863 0
M  V30 7043 C 639.786 2.01672 0.182898 0
M  V30 7044 C 640.114 1.28302 1.46181 0
M  V30 7045 O 639.369 0.374118 1.92091 0
M  V30 7046 C 639.668 3.5403 0.489677 0
M  V30 7047 C 639.334 4.45456 -0.698581 0
M  V30 7048 C 637.996 4.70166 -1.02454 0
M  V30 7049 C 640.348 4.99354 -1.49316 0
M  V30 7050 C 637.676 5.46024 -2.1465 0
M  V30 7051 C 640.028 5.76439 -2.60579 0
M  V30 7052 C 638.692 5.99426 -2.93675 0
M  V30 7053 H 637.962 0.737971 0.066927 0
M  V30 7054 H 640.609 1.83853 -0.535764 0
M  V30 7055 H 638.914 3.69963 1.28976 0
M  V30 7056 H 640.611 3.8956 0.951018 0
M  V30 7057 H 637.201 4.26392 -0.434525 0
M  V30 7058 H 641.385 4.80182 -1.25457 0
M  V30 7059 H 636.641 5.62046 -2.40654 0
M  V30 7060 H 640.815 6.17202 -3.22544 0
M  V30 7061 H 638.442 6.57988 -3.80731 0
M  V30 7062 N 640.017 0.126909 1.57088 0
M  V30 7063 C 641.245 -0.53667 1.99819 0
M  V30 7064 C 641.66 -1.5972 1.00673 0
M  V30 7065 O 641.017 -1.825 0.000747365 0
M  V30 7066 C 641.068 -1.15563 3.42531 0
M  V30 7067 O 640.789 -0.137483 4.37884 0
M  V30 7068 C 642.29 -1.90176 4.00435 0
M  V30 7069 H 639.51 -0.141443 0.655923 0
M  V30 7070 H 642.054 0.215578 2.03361 0
M  V30 7071 H 640.209 -1.85861 3.39904 0
M  V30 7072 H 640.623 -0.588229 5.21191 0
M  V30 7073 H 642.097 -2.28801 5.02349 0
M  V30 7074 H 642.574 -2.78002 3.40017 0
M  V30 7075 H 643.18 -1.24623 4.06632 0
M  V30 7076 N 641.495 -1.56914 -0.146875 0
M  V30 7077 C 642.741 -1.83628 -0.860741 0
M  V30 7078 C 643.074 -0.708528 -1.80813 0
M  V30 7079 O 642.349 0.287838 -1.92358 0
M  V30 7080 C 642.632 -3.20836 -1.63511 0
M  V30 7081 C 642.485 -4.44174 -0.709199 0
M  V30 7082 C 643.804 -3.55268 -2.59756 0
M  V30 7083 H 640.923 -0.667949 -0.311468 0
M  V30 7084 H 643.565 -1.89582 -0.125936 0
M  V30 7085 H 641.715 -3.15891 -2.26153 0
M  V30 7086 H 643.387 -4.61205 -0.0937781 0
M  V30 7087 H 641.63 -4.33796 -0.0187856 0
M  V30 7088 H 642.301 -5.36785 -1.28707 0
M  V30 7089 H 644.777 -3.60824 -2.07232 0
M  V30 7090 H 643.653 -4.52303 -3.10987 0
M  V30 7091 H 643.914 -2.81231 -3.41118 0
M  V30 7092 N 642.974 0.416227 -1.52004 0
M  V30 7093 C 644.39 0.754319 -1.40649 0
M  V30 7094 C 644.59 1.95059 -0.505392 0
M  V30 7095 O 643.646 2.5248 0.0315057 0
M  V30 7096 C 644.959 1.0149 -2.83055 0
M  V30 7097 C 646.507 1.11805 -2.9235 0
M  V30 7098 C 646.982 1.41144 -4.35709 0
M  V30 7099 N 648.473 1.48024 -4.38911 0
M  V30 7100 C 649.208 1.72338 -5.46889 0
M  V30 7101 N 648.704 1.94303 -6.64995 0
M  V30 7102 N 650.497 1.74294 -5.34395 0
M  V30 7103 H 642.648 -0.371324 -2.09129 0
M  V30 7104 H 644.911 -0.103811 -0.942299 0
M  V30 7105 H 644.617 0.208345 -3.51082 0
M  V30 7106 H 644.491 1.93697 -3.23668 0
M  V30 7107 H 646.878 1.91521 -2.24508 0
M  V30 7108 H 646.959 0.17451 -2.55204 0
M  V30 7109 H 646.603 0.619484 -5.04108 0
M  V30 7110 H 646.533 2.36739 -4.70385 0
M  V30 7111 H 649.024 1.32868 -3.53772 0
M  V30 7112 H 649.337 2.12286 -7.43071 0
M  V30 7113 H 647.682 1.91582 -6.68073 0
M  V30 7114 H 650.873 1.56667 -4.41104 0
M  V30 7115 H 651.046 1.92904 -6.18621 0
M  V30 7116 N 644.452 1.42507 0.673017 0
M  V30 7117 C 645.863 1.38347 1.25367 0
M  V30 7118 C 646.214 0.0776327 1.96046 0
M  V30 7119 O 645.339 -0.823571 2.00116 0
M  V30 7120 C 645.934 2.506 2.28002 0
M  V30 7121 C 644.493 2.49767 2.81591 0
M  V30 7122 C 643.64 2.293 1.55938 0
M  V30 7123 H 646.591 1.51695 0.466288 0
M  V30 7124 H 646.612 2.20953 3.09774 0
M  V30 7125 H 646.124 3.45627 1.76532 0
M  V30 7126 H 644.225 1.58563 3.37177 0
M  V30 7127 H 644.338 3.46867 3.30485 0
M  V30 7128 H 642.702 1.77594 1.82572 0
M  V30 7129 H 643.485 3.26385 1.06431 0
M  V30 7130 N 645.93 -0.909495 1.28709 0
M  V30 7131 C 647.178 -1.65577 1.15882 0
M  V30 7132 C 647.499 -1.928 -0.292108 0
M  V30 7133 O 646.769 -1.54716 -1.20166 0
M  V30 7134 H 645.349 -0.613714 0.425869 0
M  V30 7135 H 648.011 -1.09108 1.61498 0
M  V30 7136 H 647.107 -2.61634 1.70159 0
M  V30 7137 N 647.408 -1.11026 -1.11852 0
M  V30 7138 C 648.318 -0.777252 -2.2135 0
M  V30 7139 C 649.334 0.227821 -1.72502 0
M  V30 7140 O 650.51 0.0650587 -2.01295 0
M  V30 7141 C 647.575 -0.220668 -3.45997 0
M  V30 7142 C 646.636 -1.2838 -4.09655 0
M  V30 7143 C 645.869 -0.753678 -5.28352 0
M  V30 7144 O 646.092 0.417779 -5.68868 0
M  V30 7145 O 645.026 -1.51647 -5.82483 0
M  V30 7146 H 648.852 -1.69141 -2.5224 0
M  V30 7147 H 646.437 -0.885836 -1.20305 0
M  V30 7148 H 648.319 0.0855756 -4.21313 0
M  V30 7149 H 646.994 0.666262 -3.16769 0
M  V30 7150 H 645.901 -1.64299 -3.3609 0
M  V30 7151 H 647.234 -2.14396 -4.43052 0
M  V30 7152 N 648.886 1.2938 -0.899927 0
M  V30 7153 C 649.816 2.30144 -0.39446 0
M  V30 7154 C 650.797 1.61611 0.530639 0
M  V30 7155 O 651.982 1.89119 0.441319 0
M  V30 7156 C 649.112 3.45229 0.37868 0
M  V30 7157 C 648.066 4.25564 -0.456012 0
M  V30 7158 C 647.392 5.32848 0.444637 0
M  V30 7159 C 648.692 4.93651 -1.70605 0
M  V30 7160 H 650.386 2.72673 -1.23653 0
M  V30 7161 H 647.932 1.31086 -0.596034 0
M  V30 7162 H 649.885 4.14797 0.743037 0
M  V30 7163 H 648.609 3.01545 1.25453 0
M  V30 7164 H 647.268 3.57704 -0.802704 0
M  V30 7165 H 646.916 4.85408 1.31863 0
M  V30 7166 H 646.616 5.87497 -0.110154 0
M  V30 7167 H 648.14 6.05268 0.805182 0
M  V30 7168 H 649.554 5.55655 -1.41141 0
M  V30 7169 H 647.951 5.58233 -2.20217 0
M  V30 7170 H 649.021 4.18926 -2.4419 0
M  V30 7171 N 650.364 0.662433 1.43002 0
M  V30 7172 C 651.294 -0.00979809 2.33498 0
M  V30 7173 C 652.275 -0.802329 1.49989 0
M  V30 7174 O 653.46 -0.761964 1.78627 0
M  V30 7175 C 650.59 -0.970446 3.33466 0
M  V30 7176 C 649.544 -0.287383 4.27034 0
M  V30 7177 C 648.87 -1.36012 5.17112 0
M  V30 7178 C 650.17 0.82595 5.15728 0
M  V30 7179 H 651.864 0.745959 2.89958 0
M  V30 7180 H 649.41 0.360172 1.39423 0
M  V30 7181 H 651.363 -1.44971 3.95679 0
M  V30 7182 H 650.087 -1.75748 2.75282 0
M  V30 7183 H 648.746 0.17152 3.66199 0
M  V30 7184 H 648.394 -2.13882 4.55262 0
M  V30 7185 H 648.094 -0.908276 5.80538 0
M  V30 7186 H 649.618 -1.84056 5.82199 0
M  V30 7187 H 651.032 0.42845 5.71697 0
M  V30 7188 H 649.429 1.20282 5.87922 0
M  V30 7189 H 650.499 1.68003 4.54866 0
M  V30 7190 N 651.842 -1.52309 0.404946 0
M  V30 7191 C 652.805 -2.25491 -0.410651 0
M  V30 7192 C 653.805 -1.27704 -0.977154 0
M  V30 7193 O 654.995 -1.51679 -0.856691 0
M  V30 7194 C 652.127 -3.02197 -1.57765 0
M  V30 7195 H 653.32 -2.99015 0.230277 0
M  V30 7196 H 650.873 -1.55506 0.157377 0
M  V30 7197 H 651.608 -2.33013 -2.25556 0
M  V30 7198 H 651.393 -3.73987 -1.17797 0
M  V30 7199 H 652.883 -3.57719 -2.15469 0
M  V30 7200 N 653.32 -0.135238 -1.57019 0
M  V30 7201 C 654.566 0.519563 -1.96032 0
M  V30 7202 C 654.899 1.65284 -1.01955 0
M  V30 7203 O 654.174 1.94408 -0.059727 0
M  V30 7204 C 654.457 1.0369 -3.44848 0
M  V30 7205 C 654.31 -0.0940754 -4.49702 0
M  V30 7206 C 655.629 1.92254 -3.95887 0
M  V30 7207 H 652.748 0.18739 -0.712779 0
M  V30 7208 H 655.39 -0.214086 -1.8879 0
M  V30 7209 H 653.54 1.66209 -3.5115 0
M  V30 7210 H 655.212 -0.73 -4.55487 0
M  V30 7211 H 653.455 -0.754924 -4.27181 0
M  V30 7212 H 654.126 0.309419 -5.51132 0
M  V30 7213 H 656.602 1.39581 -3.9199 0
M  V30 7214 H 655.478 2.25364 -5.00502 0
M  V30 7215 H 655.739 2.85513 -3.37543 0
M  V30 7216 N 654.798 1.5699 0.138552 0
M  V30 7217 C 656.044 1.84081 0.85099 0
M  V30 7218 C 656.377 0.718107 1.80435 0
M  V30 7219 O 655.652 -0.277633 1.92508 0
M  V30 7220 C 655.935 3.21699 1.61808 0
M  V30 7221 C 655.788 4.44544 0.685633 0
M  V30 7222 C 657.107 3.5664 2.57868 0
M  V30 7223 H 654.226 0.669592 0.307922 0
M  V30 7224 H 656.868 1.89646 0.11588 0
M  V30 7225 H 655.018 3.17086 2.24474 0
M  V30 7226 H 656.69 4.61248 0.0693179 0
M  V30 7227 H 654.933 4.338 -0.00421993 0
M  V30 7228 H 655.604 5.3746 1.25858 0
M  V30 7229 H 658.08 3.61918 2.05316 0
M  V30 7230 H 656.956 4.53946 3.08584 0
M  V30 7231 H 657.217 2.83036 3.39622 0
M  V30 7232 N 656.276 -0.40816 1.52223 0
M  V30 7233 C 657.524 -1.15274 1.66001 0
M  V30 7234 C 657.845 -1.91003 0.392803 0
M  V30 7235 O 657.115 -1.8673 -0.592336 0
M  V30 7236 H 655.695 -0.428526 0.611861 0
M  V30 7237 H 658.357 -0.46512 1.89269 0
M  V30 7238 H 657.453 -1.86628 2.50153 0
M  V30 7239 N 657.755 -1.42862 -0.66545 0
M  V30 7240 C 659.166 -1.3901 -1.24632 0
M  V30 7241 C 659.517 -0.0880285 -1.96002 0
M  V30 7242 O 658.642 0.812947 -2.0055 0
M  V30 7243 C 659.237 -2.51806 -2.2667 0
M  V30 7244 C 657.796 -2.51257 -2.80262 0
M  V30 7245 C 656.943 -2.30124 -1.5472 0
M  V30 7246 H 659.894 -1.5194 -0.458237 0
M  V30 7247 H 659.915 -2.22593 -3.08598 0
M  V30 7248 H 659.427 -3.46558 -1.74697 0
M  V30 7249 H 657.528 -1.60349 -3.36332 0
M  V30 7250 H 657.641 -3.48614 -3.28641 0
M  V30 7251 H 656.005 -1.7856 -1.81627 0
M  V30 7252 H 656.788 -3.26945 -1.04699 0
M  V30 7253 N 659.233 0.902656 -1.29189 0
M  V30 7254 C 660.479 1.65532 -1.17163 0
M  V30 7255 C 660.812 1.92216 0.276879 0
M  V30 7256 O 660.087 1.53048 1.20027 0
M  V30 7257 C 660.37 3.00629 -1.98228 0
M  V30 7258 C 660.223 2.81029 -3.51202 0
M  V30 7259 C 661.542 4.01321 -1.80635 0
M  V30 7260 H 658.661 0.60071 -0.426985 0
M  V30 7261 H 661.303 1.04578 -1.5863 0
M  V30 7262 H 659.453 3.52656 -1.62991 0
M  V30 7263 H 661.125 2.35927 -3.96404 0
M  V30 7264 H 659.368 2.1587 -3.76275 0
M  V30 7265 H 660.039 3.77014 -4.03192 0
M  V30 7266 H 662.515 3.58394 -2.11406 0
M  V30 7267 H 661.391 4.93792 -2.3971 0
M  V30 7268 H 661.652 4.35505 -0.760754 0
M  V30 7269 N 660.711 1.11618 1.11262 0
M  V30 7270 C 661.959 0.864469 1.82678 0
M  V30 7271 C 662.28 -0.611564 1.85162 0
M  V30 7272 O 661.55 -1.44429 1.32352 0
M  V30 7273 H 660.13 0.316821 0.676486 0
M  V30 7274 H 662.792 1.40894 1.34666 0
M  V30 7275 H 661.888 1.23832 2.86482 0
M  V30 7276 N 662.189 -1.289 0.906776 0
M  V30 7277 C 663.152 -2.25777 0.394656 0
M  V30 7278 C 664.152 -1.53621 -0.475119 0
M  V30 7279 O 665.342 -1.71949 -0.279165 0
M  V30 7280 C 662.474 -3.38113 -0.43499 0
M  V30 7281 H 663.667 -2.72592 1.25033 0
M  V30 7282 H 661.22 -1.40463 0.685547 0
M  V30 7283 H 661.955 -2.96648 -1.31036 0
M  V30 7284 H 661.74 -3.91647 0.188334 0
M  V30 7285 H 663.23 -4.10168 -0.784365 0
M  V30 7286 N 663.667 -0.670007 -1.42649 0
M  V30 7287 C 664.915 -0.18991 -2.01206 0
M  V30 7288 C 665.236 1.20617 -1.53221 0
M  V30 7289 O 664.506 1.80898 -0.751856 0
M  V30 7290 H 663.086 -0.0672189 -0.743969 0
M  V30 7291 H 665.748 -0.865442 -1.74631 0
M  V30 7292 H 664.844 -0.187481 -3.11536 0
M  V30 7293 N 665.145 1.52092 -0.413018 0
M  V30 7294 C 666.092 2.27119 0.410558 0
M  V30 7295 C 667.062 1.29692 1.03774 0
M  V30 7296 O 668.247 1.58561 1.06128 0
M  V30 7297 C 665.387 3.09863 1.51918 0
M  V30 7298 C 664.5 4.22252 0.912528 0
M  V30 7299 C 663.635 4.92348 1.99417 0
M  V30 7300 C 662.674 5.96694 1.36466 0
M  V30 7301 N 661.811 6.60292 2.38661 0
M  V30 7302 H 666.651 2.97067 -0.235661 0
M  V30 7303 H 664.188 1.46542 -0.128055 0
M  V30 7304 H 666.146 3.56144 2.17295 0
M  V30 7305 H 664.776 2.42078 2.13537 0
M  V30 7306 H 663.828 3.80113 0.147697 0
M  V30 7307 H 665.14 4.9709 0.412717 0
M  V30 7308 H 664.294 5.42054 2.72512 0
M  V30 7309 H 663.033 4.17087 2.52764 0
M  V30 7310 H 662.038 5.46304 0.61906 0
M  V30 7311 H 663.263 6.73899 0.838827 0
M  V30 7312 H 661.209 5.87858 2.91134 0
M  V30 7313 H 661.126 7.30816 1.93503 0
M  V30 7314 H 662.394 7.14635 3.11314 0
M  V30 7315 N 666.623 0.143563 1.56945 0
M  V30 7316 C 667.848 -0.518701 2.00809 0
M  V30 7317 C 668.273 -1.5785 1.02298 0
M  V30 7318 O 667.631 -1.813 -0.0017839 0
M  V30 7319 C 667.679 -1.09929 3.43436 0
M  V30 7320 O 666.783 -2.21425 3.47915 0
M  V30 7321 H 666.124 -0.127215 0.6517 0
M  V30 7322 H 668.654 0.239283 2.03196 0
M  V30 7323 H 668.664 -1.4288 3.82164 0
M  V30 7324 H 667.339 -0.323162 4.14643 0
M  V30 7325 H 665.916 -1.89728 3.21026 0
M  V30 7326 N 668.101 -1.57061 -0.130224 0
M  V30 7327 C 669.326 -1.88802 -0.858409 0
M  V30 7328 C 669.751 -0.734353 -1.73173 0
M  V30 7329 O 669.109 0.315529 -1.78533 0
M  V30 7330 C 669.157 -3.19228 -1.67708 0
M  V30 7331 O 668.261 -3.04343 -2.78297 0
M  V30 7332 H 667.602 -0.619849 -0.238083 0
M  V30 7333 H 670.132 -2.04271 -0.115995 0
M  V30 7334 H 670.142 -3.51669 -2.06864 0
M  V30 7335 H 668.817 -4.02793 -1.0359 0
M  V30 7336 H 667.394 -2.83346 -2.42425 0
M  V30 7337 N 669.579 0.400081 -1.52437 0
M  V30 7338 C 670.509 1.4947 -1.7939 0
M  V30 7339 C 671.49 1.57383 -0.645329 0
M  V30 7340 O 672.675 1.72511 -0.891826 0
M  V30 7341 C 669.805 2.87201 -1.95276 0
M  V30 7342 C 668.759 2.94134 -3.10917 0
M  V30 7343 C 668.085 4.34207 -3.1204 0
M  V30 7344 C 669.385 2.64791 -4.50203 0
M  V30 7345 H 671.079 1.27165 -2.71052 0
M  V30 7346 H 668.625 0.610312 -1.30427 0
M  V30 7347 H 670.578 3.63772 -2.12715 0
M  V30 7348 H 669.302 3.10819 -1.00294 0
M  V30 7349 H 667.961 2.20009 -2.93243 0
M  V30 7350 H 667.609 4.54848 -2.14761 0
M  V30 7351 H 667.309 4.39768 -3.89715 0
M  V30 7352 H 668.833 5.127 -3.31619 0
M  V30 7353 H 670.247 3.31083 -4.68035 0
M  V30 7354 H 668.644 2.81717 -5.29864 0
M  V30 7355 H 669.714 1.60184 -4.57678 0
M  V30 7356 N 671.057 1.43213 0.657864 0
M  V30 7357 C 671.987 1.50815 1.78262 0
M  V30 7358 C 672.968 0.363211 1.66177 0
M  V30 7359 O 674.153 0.579806 1.85343 0
M  V30 7360 C 671.283 1.42625 3.16663 0
M  V30 7361 C 670.237 2.5532 3.43505 0
M  V30 7362 C 669.563 2.32184 4.81658 0
M  V30 7363 C 670.863 3.97583 3.38711 0
M  V30 7364 H 672.557 2.44954 1.72157 0
M  V30 7365 H 670.103 1.17896 0.82683 0
M  V30 7366 H 672.056 1.46548 3.95097 0
M  V30 7367 H 670.78 0.449877 3.23487 0
M  V30 7368 H 669.439 2.50742 2.6744 0
M  V30 7369 H 669.087 1.32801 4.85153 0
M  V30 7370 H 668.787 3.07724 5.00579 0
M  V30 7371 H 670.311 2.37883 5.62356 0
M  V30 7372 H 671.725 4.03673 4.07089 0
M  V30 7373 H 670.122 4.73112 3.69168 0
M  V30 7374 H 671.192 4.23049 2.36976 0
M  V30 7375 N 672.536 -0.895792 1.29666 0
M  V30 7376 C 673.761 -1.68528 1.20885 0
M  V30 7377 C 674.186 -1.8673 -0.226595 0
M  V30 7378 O 673.544 -1.39044 -1.16347 0
M  V30 7379 C 673.592 -3.04512 1.93144 0
M  V30 7380 O 672.696 -3.92963 1.25115 0
M  V30 7381 H 672.037 -0.515371 0.418675 0
M  V30 7382 H 674.567 -1.11878 1.71302 0
M  V30 7383 H 674.577 -3.54628 2.0175 0
M  V30 7384 H 673.252 -2.90582 2.97548 0
M  V30 7385 H 671.829 -3.51399 1.24794 0
M  V30 7386 N 674.014 -1.12206 -1.10668 0
M  V30 7387 C 674.977 -0.790867 -2.15123 0
M  V30 7388 C 675.977 0.193618 -1.5963 0
M  V30 7389 O 677.167 -0.0318728 -1.74171 0
M  V30 7390 C 674.299 -0.174797 -3.40452 0
M  V30 7391 H 675.492 -1.7163 -2.45933 0
M  V30 7392 H 673.045 -0.924993 -1.2599 0
M  V30 7393 H 673.78 0.760478 -3.15257 0
M  V30 7394 H 673.565 -0.88358 -3.82015 0
M  V30 7395 H 675.055 0.0405162 -4.1758 0
M  V30 7396 N 675.492 1.28418 -0.913599 0
M  V30 7397 C 676.738 1.9527 -0.547484 0
M  V30 7398 C 677.071 1.71745 0.906486 0
M  V30 7399 O 676.346 1.03834 1.64465 0
M  V30 7400 C 676.629 3.49748 -0.857205 0
M  V30 7401 C 676.482 3.82675 -2.3639 0
M  V30 7402 C 677.801 4.3868 -0.353258 0
M  V30 7403 H 674.92 0.709236 -0.200381 0
M  V30 7404 H 677.562 1.51789 -1.14281 0
M  V30 7405 H 675.712 3.86915 -0.350548 0
M  V30 7406 H 677.384 3.55378 -2.94116 0
M  V30 7407 H 675.627 3.29724 -2.81894 0
M  V30 7408 H 676.298 4.90547 -2.53115 0
M  V30 7409 H 678.774 4.08584 -0.787288 0
M  V30 7410 H 677.65 5.45621 -0.599049 0
M  V30 7411 H 677.911 4.35753 0.746413 0
M  V30 7412 N 676.97 0.677563 1.42291 0
M  V30 7413 C 677.9 0.014968 2.33495 0
M  V30 7414 C 678.881 -0.786376 1.50831 0
M  V30 7415 O 680.066 -0.742975 1.79426 0
M  V30 7416 C 677.196 -0.935023 3.34477 0
M  V30 7417 C 676.15 -0.242074 4.27315 0
M  V30 7418 C 675.476 -1.30519 5.18526 0
M  V30 7419 C 676.776 0.880604 5.14823 0
M  V30 7420 H 678.47 0.776671 2.89151 0
M  V30 7421 H 676.016 0.37494 1.39033 0
M  V30 7422 H 677.969 -1.40766 3.97194 0
M  V30 7423 H 676.693 -1.72818 2.77131 0
M  V30 7424 H 675.352 0.210351 3.65996 0
M  V30 7425 H 675 -2.09041 4.57505 0
M  V30 7426 H 674.7 -0.846652 5.81468 0
M  V30 7427 H 676.224 -1.7787 5.84119 0
M  V30 7428 H 677.638 0.489062 5.7121 0
M  V30 7429 H 676.035 1.26511 5.86613 0
M  V30 7430 H 677.105 1.72818 4.53059 0
M  V30 7431 N 678.448 -1.51871 0.421078 0
M  V30 7432 C 679.696 -2.01539 -0.150492 0
M  V30 7433 C 680.017 -1.30803 -1.44623 0
M  V30 7434 O 679.287 -0.437568 -1.90951 0
M  V30 7435 H 677.867 -0.744698 -0.0586041 0
M  V30 7436 H 680.529 -1.8668 0.560059 0
M  V30 7437 H 679.625 -3.10264 -0.338068 0
M  V30 7438 N 679.926 -0.151884 -1.56866 0
M  V30 7439 C 680.836 0.798876 -2.20579 0
M  V30 7440 C 681.852 1.268 -1.19154 0
M  V30 7441 O 683.028 1.32418 -1.51748 0
M  V30 7442 C 680.093 2.01861 -2.81874 0
M  V30 7443 C 679.154 1.59825 -3.9844 0
M  V30 7444 C 678.387 2.75984 -4.56802 0
M  V30 7445 O 678.61 3.92331 -4.14044 0
M  V30 7446 O 677.544 2.51175 -5.46987 0
M  V30 7447 H 681.37 0.2865 -3.02346 0
M  V30 7448 H 678.955 0.0753806 -1.4921 0
M  V30 7449 H 680.837 2.73235 -3.20813 0
M  V30 7450 H 679.512 2.52042 -2.03117 0
M  V30 7451 H 678.419 0.854601 -3.64208 0
M  V30 7452 H 679.752 1.14355 -4.78731 0
M  V30 7453 N 681.404 1.57128 0.121893 0
M  V30 7454 C 682.334 2.03165 1.15092 0
M  V30 7455 C 683.315 0.915587 1.43356 0
M  V30 7456 O 684.5 1.1851 1.53847 0
M  V30 7457 C 681.63 2.43352 2.47784 0
M  V30 7458 C 680.584 3.58376 2.33989 0
M  V30 7459 C 679.91 3.84454 3.71617 0
M  V30 7460 C 681.21 4.90199 1.80283 0
M  V30 7461 H 682.904 2.89382 0.768023 0
M  V30 7462 H 680.45 1.39218 0.367998 0
M  V30 7463 H 682.403 2.74163 3.20019 0
M  V30 7464 H 681.127 1.54103 2.87958 0
M  V30 7465 H 679.786 3.2777 1.64202 0
M  V30 7466 H 679.434 2.92414 4.09271 0
M  V30 7467 H 679.134 4.61877 3.6324 0
M  V30 7468 H 680.658 4.17714 4.45362 0
M  V30 7469 H 682.072 5.19565 2.42333 0
M  V30 7470 H 680.469 5.71601 1.82735 0
M  V30 7471 H 681.539 4.78904 0.760184 0
M  V30 7472 N 682.882 -0.391992 1.52647 0
M  V30 7473 C 683.845 -1.46135 1.7657 0
M  V30 7474 C 684.845 -1.47701 0.635698 0
M  V30 7475 O 686.035 -1.48924 0.903728 0
M  V30 7476 C 683.167 -2.85443 1.86374 0
M  V30 7477 H 684.36 -1.26208 2.72051 0
M  V30 7478 H 681.913 -0.623549 1.43323 0
M  V30 7479 H 682.648 -3.10718 0.928685 0
M  V30 7480 H 682.433 -2.85708 2.68539 0
M  V30 7481 H 683.923 -3.62933 2.06566 0
M  V30 7482 N 684.36 -1.4356 -0.65026 0
M  V30 7483 C 685.771 -1.40324 -1.2315 0
M  V30 7484 C 686.122 -0.108812 -1.95898 0
M  V30 7485 O 685.247 0.79163 -2.01401 0
M  V30 7486 C 685.842 -2.54195 -2.23987 0
M  V30 7487 C 684.401 -2.54215 -2.77582 0
M  V30 7488 C 683.548 -2.31752 -1.5227 0
M  V30 7489 H 686.499 -1.52418 -0.442095 0
M  V30 7490 H 686.52 -2.25854 -3.0622 0
M  V30 7491 H 686.032 -3.48392 -1.71011 0
M  V30 7492 H 684.133 -1.63907 -3.34612 0
M  V30 7493 H 684.246 -3.52081 -3.24925 0
M  V30 7494 H 682.61 -1.80476 -1.79723 0
M  V30 7495 H 683.393 -3.28037 -1.01225 0
M  V30 7496 N 685.838 0.888903 -1.30139 0
M  V30 7497 C 687.063 1.67884 -1.21777 0
M  V30 7498 C 687.488 1.86848 0.216689 0
M  V30 7499 O 686.846 1.39659 1.15608 0
M  V30 7500 C 686.894 3.03483 -1.94757 0
M  V30 7501 O 685.998 3.92294 -1.27198 0
M  V30 7502 H 685.339 0.513144 -0.421402 0
M  V30 7503 H 687.869 1.10968 -1.71893 0
M  V30 7504 H 687.879 3.53553 -2.03627 0
M  V30 7505 H 686.554 2.89 -2.99085 0
M  V30 7506 H 685.131 3.50732 -1.26655 0
M  V30 7507 N 687.317 1.12792 1.10072 0
M  V30 7508 C 688.267 0.768086 2.14673 0
M  V30 7509 C 689.251 -0.234716 1.59179 0
M  V30 7510 O 690.443 -0.039643 1.76956 0
M  V30 7511 C 687.572 0.228472 3.42539 0
M  V30 7512 C 686.658 1.25979 4.04957 0
M  V30 7513 N 687.049 2.4586 4.42025 0
M  V30 7514 C 685.347 1.10602 4.32069 0
M  V30 7515 C 686.048 3.11747 4.9111 0
M  V30 7516 N 685.024 2.39185 4.88151 0
M  V30 7517 H 688.826 1.68029 2.4113 0
M  V30 7518 H 686.34 1.00925 1.27232 0
M  V30 7519 H 688.337 -0.0475216 4.16873 0
M  V30 7520 H 686.997 -0.678136 3.1754 0
M  V30 7521 H 688.008 2.83215 4.33601 0
M  V30 7522 H 684.685 0.257021 4.16708 0
M  V30 7523 H 686.075 4.13862 5.29309 0
M  V30 7524 N 688.795 -1.27931 0.920396 0
M  V30 7525 C 690.043 -1.94304 0.555906 0
M  V30 7526 C 690.364 -1.72753 -0.904519 0
M  V30 7527 O 689.634 -1.07104 -1.64029 0
M  V30 7528 H 688.214 -0.719001 0.202599 0
M  V30 7529 H 690.876 -1.55785 1.1712 0
M  V30 7530 H 689.972 -3.02806 0.755981 0
M  V30 7531 N 690.273 -0.685099 -1.4193 0
M  V30 7532 C 691.203 -0.0273506 -2.33484 0
M  V30 7533 C 692.184 0.778366 -1.51246 0
M  V30 7534 O 693.369 0.733449 -1.79817 0
M  V30 7535 C 690.499 0.917272 -3.34968 0
M  V30 7536 C 689.453 0.21941 -4.27437 0
M  V30 7537 C 688.779 1.27768 -5.1921 0
M  V30 7538 C 690.079 -0.907894 -5.14349 0
M  V30 7539 H 691.773 -0.791994 -2.88735 0
M  V30 7540 H 689.319 -0.382308 -1.38832 0
M  V30 7541 H 691.272 1.38657 -3.97935 0
M  V30 7542 H 689.996 1.71346 -2.78043 0
M  V30 7543 H 688.655 -0.229757 -3.65879 0
M  V30 7544 H 688.303 2.06612 -4.58607 0
M  V30 7545 H 688.003 0.815803 -5.81909 0
M  V30 7546 H 689.527 1.7477 -5.85054 0
M  V30 7547 H 690.941 -0.519348 -5.70943 0
M  V30 7548 H 689.338 -1.2962 -5.85934 0
M  V30 7549 H 690.408 -1.75218 -4.52136 0
M  V30 7550 N 691.751 1.51645 -0.429126 0
M  V30 7551 C 692.997 2.02314 0.140286 0
M  V30 7552 C 693.33 1.31314 1.43074 0
M  V30 7553 O 692.605 0.425531 1.89788 0
M  V30 7554 C 692.888 3.5822 0.36749 0
M  V30 7555 C 692.741 4.39846 -0.941039 0
M  V30 7556 C 694.06 4.25055 1.14089 0
M  V30 7557 H 691.179 0.735335 0.0495112 0
M  V30 7558 H 693.821 1.81358 -0.566514 0
M  V30 7559 H 691.971 3.76207 0.969556 0
M  V30 7560 H 693.643 4.33527 -1.57646 0
M  V30 7561 H 691.886 4.05259 -1.54751 0
M  V30 7562 H 692.557 5.47069 -0.73621 0
M  V30 7563 H 695.033 4.11288 0.630986 0
M  V30 7564 H 693.909 5.34038 1.26863 0
M  V30 7565 H 694.17 3.85358 2.16683 0
M  V30 7566 N 693.229 0.160201 1.56784 0
M  V30 7567 C 694.454 -0.497373 2.01348 0
M  V30 7568 C 694.879 -1.56757 1.03966 0
M  V30 7569 O 694.237 -1.81292 0.0174455 0
M  V30 7570 C 694.285 -1.0628 3.44582 0
M  V30 7571 O 693.389 -2.17723 3.50244 0
M  V30 7572 H 692.73 -0.120295 0.653012 0
M  V30 7573 H 695.26 0.260821 2.02931 0
M  V30 7574 H 695.27 -1.38819 3.83658 0
M  V30 7575 H 693.945 -0.279166 4.14962 0
M  V30 7576 H 692.522 -1.86313 3.2302 0
M  V30 7577 N 694.707 -1.5719 -0.113559 0
M  V30 7578 C 695.953 -1.85412 -0.821597 0
M  V30 7579 C 696.286 -0.746722 -1.7927 0
M  V30 7580 O 695.561 0.246971 -1.92926 0
M  V30 7581 C 695.844 -3.24233 -1.56669 0
M  V30 7582 C 695.697 -4.45578 -0.614823 0
M  V30 7583 C 697.016 -3.60697 -2.52161 0
M  V30 7584 H 694.135 -0.674406 -0.29723 0
M  V30 7585 H 696.777 -1.89807 -0.085694 0
M  V30 7586 H 694.927 -3.20617 -2.19401 0
M  V30 7587 H 696.599 -4.613 0.00407137 0
M  V30 7588 H 694.842 -4.33738 0.0732332 0
M  V30 7589 H 695.513 -5.39395 -1.17292 0
M  V30 7590 H 697.989 -3.65139 -1.99532 0
M  V30 7591 H 696.865 -4.58798 -3.01323 0
M  V30 7592 H 697.126 -2.88403 -3.35076 0
M  V30 7593 N 696.185 0.383891 -1.52853 0
M  V30 7594 C 697.135 1.46892 -1.74375 0
M  V30 7595 C 698.119 1.49378 -0.597909 0
M  V30 7596 O 699.311 1.54929 -0.855929 0
M  V30 7597 C 696.44 2.84547 -1.92063 0
M  V30 7598 C 695.526 2.8661 -3.12594 0
M  V30 7599 N 695.917 2.58339 -4.3485 0
M  V30 7600 C 694.215 3.17777 -3.12944 0
M  V30 7601 C 694.916 2.67616 -5.16485 0
M  V30 7602 N 693.892 3.01561 -4.52285 0
M  V30 7603 H 697.694 1.23869 -2.66522 0
M  V30 7604 H 695.208 0.591895 -1.51229 0
M  V30 7605 H 697.205 3.62674 -2.05604 0
M  V30 7606 H 695.865 3.08549 -1.01133 0
M  V30 7607 H 696.876 2.32266 -4.62896 0
M  V30 7608 H 693.553 3.47211 -2.31842 0
M  V30 7609 H 694.943 2.4926 -6.23955 0
M  V30 7610 N 697.663 1.43903 0.642637 0
M  V30 7611 C 698.911 1.45791 1.39962 0
M  V30 7612 C 699.232 0.0873144 1.94804 0
M  V30 7613 O 698.502 -0.878825 1.75081 0
M  V30 7614 H 697.082 0.536797 0.519479 0
M  V30 7615 H 699.744 1.7959 0.757189 0
M  V30 7616 H 698.84 2.17665 2.2367 0
M  V30 7617 N 699.141 -0.881989 1.30609 0
M  V30 7618 C 700.557 -1.16576 1.09005 0
M  V30 7619 C 700.757 -2.00961 -0.14727 0
M  V30 7620 O 699.813 -2.38117 -0.840036 0
M  V30 7621 C 701.126 -1.86954 2.35518 0
M  V30 7622 C 702.674 -1.99706 2.41011 0
M  V30 7623 C 703.149 -2.73497 3.67374 0
M  V30 7624 N 704.64 -2.8104 3.68199 0
M  V30 7625 C 705.375 -3.38718 4.62664 0
M  V30 7626 N 704.871 -3.97421 5.67475 0
M  V30 7627 N 706.664 -3.36561 4.50203 0
M  V30 7628 H 698.815 -0.319398 2.09985 0
M  V30 7629 H 701.078 -0.204058 0.925778 0
M  V30 7630 H 700.784 -1.32393 3.2583 0
M  V30 7631 H 700.658 -2.87317 2.44395 0
M  V30 7632 H 703.045 -2.53436 1.51176 0
M  V30 7633 H 703.126 -0.984218 2.36108 0
M  V30 7634 H 702.77 -2.20438 4.57569 0
M  V30 7635 H 702.7 -3.75163 3.6954 0
M  V30 7636 H 705.191 -2.39365 2.92426 0
M  V30 7637 H 705.504 -4.39507 6.35652 0
M  V30 7638 H 703.849 -3.95832 5.71264 0
M  V30 7639 H 707.04 -2.8993 3.67503 0
M  V30 7640 H 707.213 -3.81215 5.24003 0
M  V30 7641 N 700.619 -1.13374 -1.09472 0
M  V30 7642 C 701.868 -0.889844 -1.8101 0
M  V30 7643 C 702.181 0.585686 -1.86625 0
M  V30 7644 O 703.387 0.946497 -2.54467 0
M  V30 7645 C 701.843 -1.54241 -3.25174 0
M  V30 7646 C 701.451 -3.05343 -3.27826 0
M  V30 7647 C 703.195 -1.37919 -4.0147 0
M  V30 7648 C 701.102 -3.63486 -4.6651 0
M  V30 7649 H 700.032 -0.329256 -0.678311 0
M  V30 7650 H 702.683 -1.36139 -1.23038 0
M  V30 7651 H 701.065 -0.998525 -3.83204 0
M  V30 7652 H 702.239 -3.66307 -2.79563 0
M  V30 7653 H 700.554 -3.21175 -2.65019 0
M  V30 7654 H 703.151 -1.78771 -5.03929 0
M  V30 7655 H 703.494 -0.323987 -4.15037 0
M  V30 7656 H 704.027 -1.89284 -3.49881 0
M  V30 7657 H 700.766 -4.68811 -4.58145 0
M  V30 7658 H 700.286 -3.073 -5.15099 0
M  V30 7659 H 701.965 -3.63134 -5.35484 0
M  V30 7660 N 702.098 1.27442 -0.927168 0
M  V30 7661 C 703.061 2.2512 -0.430525 0
M  V30 7662 C 704.061 1.54357 0.450619 0
M  V30 7663 O 705.251 1.72371 0.251774 0
M  V30 7664 C 702.383 3.38763 0.381144 0
M  V30 7665 H 703.576 2.70569 -1.29354 0
M  V30 7666 H 701.129 1.39355 -0.707806 0
M  V30 7667 H 701.864 2.98695 1.263 0
M  V30 7668 H 701.649 3.91298 -0.250618 0
M  V30 7669 H 703.139 4.11364 0.719012 0
M  V30 7670 N 703.576 0.692616 1.41565 0
M  V30 7671 C 704.806 0.230943 2.05305 0
M  V30 7672 C 705.214 -1.12379 1.52209 0
M  V30 7673 O 704.557 -1.71281 0.663968 0
M  V30 7674 C 704.619 0.107894 3.59338 0
M  V30 7675 C 704.283 1.39419 4.35214 0
M  V30 7676 C 705.28 2.33143 4.64694 0
M  V30 7677 C 702.965 1.64674 4.74539 0
M  V30 7678 C 704.959 3.50385 5.32456 0
M  V30 7679 C 702.646 2.82202 5.42038 0
M  V30 7680 C 703.644 3.74881 5.70923 0
M  V30 7681 O 703.332 4.90351 6.37033 0
M  V30 7682 H 703.064 0.105708 0.667684 0
M  V30 7683 H 705.618 0.94488 1.82376 0
M  V30 7684 H 703.848 -0.661785 3.80995 0
M  V30 7685 H 705.537 -0.316213 4.04666 0
M  V30 7686 H 706.303 2.14887 4.34797 0
M  V30 7687 H 702.182 0.934007 4.51439 0
M  V30 7688 H 705.726 4.22743 5.54918 0
M  V30 7689 H 701.623 3.00376 5.71353 0
M  V30 7690 H 702.391 4.90128 6.55528 0
M  V30 7691 N 705.054 -1.51416 0.437162 0
M  V30 7692 C 706.3 -2.02386 -0.129555 0
M  V30 7693 C 706.633 -1.32071 -1.42376 0
M  V30 7694 O 705.908 -0.43559 -1.8956 0
M  V30 7695 C 706.191 -3.5841 -0.348487 0
M  V30 7696 C 706.044 -4.39341 0.964352 0
M  V30 7697 C 707.363 -4.25654 -1.11834 0
M  V30 7698 H 704.482 -0.735587 -0.0456109 0
M  V30 7699 H 707.124 -1.81055 0.576124 0
M  V30 7700 H 705.274 -3.76716 -0.949592 0
M  V30 7701 H 706.946 -4.32685 1.59942 0
M  V30 7702 H 705.189 -4.04432 1.56898 0
M  V30 7703 H 705.86 -5.4667 0.765212 0
M  V30 7704 H 708.336 -4.11617 -0.609165 0
M  V30 7705 H 707.212 -5.34704 -1.24029 0
M  V30 7706 H 707.473 -3.86502 -2.14636 0
M  V30 7707 N 706.532 -0.168513 -1.56696 0
M  V30 7708 C 707.757 0.486688 -2.01609 0
M  V30 7709 C 708.182 1.56203 -1.04796 0
M  V30 7710 O 707.54 1.8128 -0.0270596 0
M  V30 7711 C 707.588 1.04451 -3.45141 0
M  V30 7712 O 706.692 2.15862 -3.51393 0
M  V30 7713 H 706.033 0.116831 -0.653641 0
M  V30 7714 H 708.563 -0.271579 -2.0279 0
M  V30 7715 H 708.573 1.36782 -3.84389 0
M  V30 7716 H 707.248 0.257155 -4.15104 0
M  V30 7717 H 705.825 1.84597 -3.24004 0
M  V30 7718 N 708.01 1.57248 0.105221 0
M  V30 7719 C 708.942 1.98008 1.15436 0
M  V30 7720 C 709.955 0.881236 1.36887 0
M  V30 7721 O 711.144 1.15943 1.35718 0
M  V30 7722 C 708.244 2.27509 2.51183 0
M  V30 7723 C 707.417 3.58811 2.50147 0
M  V30 7724 C 706.476 3.76365 3.67745 0
M  V30 7725 O 705.502 4.48329 3.50699 0
M  V30 7726 N 706.704 3.16174 4.86841 0
M  V30 7727 H 709.469 2.88616 0.807519 0
M  V30 7728 H 707.03 1.59202 0.29433 0
M  V30 7729 H 709.022 2.36455 3.28438 0
M  V30 7730 H 707.592 1.42959 2.77995 0
M  V30 7731 H 706.812 3.60927 1.5851 0
M  V30 7732 H 708.1 4.45088 2.46524 0
M  V30 7733 H 707.498 2.57701 5.03594 0
M  V30 7734 H 706.055 3.30621 5.61723 0
M  V30 7735 N 709.488 -0.375779 1.53054 0
M  V30 7736 C 710.42 -1.47963 1.75042 0
M  V30 7737 C 711.433 -1.50073 0.631031 0
M  V30 7738 O 712.622 -1.53736 0.907052 0
M  V30 7739 C 709.722 -2.86767 1.80604 0
M  V30 7740 C 708.895 -3.08471 3.10104 0
M  V30 7741 C 707.954 -4.27332 3.07041 0
M  V30 7742 O 706.98 -4.22998 3.80869 0
M  V30 7743 N 708.182 -5.34214 2.27147 0
M  V30 7744 H 710.947 -1.29484 2.70285 0
M  V30 7745 H 708.508 -0.565416 1.51706 0
M  V30 7746 H 710.5 -3.64404 1.76045 0
M  V30 7747 H 709.07 -2.98542 0.926897 0
M  V30 7748 H 708.29 -2.18583 3.28048 0
M  V30 7749 H 709.578 -3.19834 3.95706 0
M  V30 7750 H 708.976 -5.40594 1.66656 0
M  V30 7751 H 707.533 -6.10467 2.28415 0
M  V30 7752 N 710.966 -1.44241 -0.634997 0
M  V30 7753 C 712.377 -1.41622 -1.21655 0
M  V30 7754 C 712.728 -0.129584 -1.95772 0
M  V30 7755 O 711.853 0.770225 -2.02229 0
M  V30 7756 C 712.448 -2.56557 -2.21278 0
M  V30 7757 C 711.007 -2.57145 -2.7487 0
M  V30 7758 C 710.154 -2.33354 -1.49804 0
M  V30 7759 H 713.105 -1.52878 -0.425905 0
M  V30 7760 H 713.126 -2.29089 -3.03807 0
M  V30 7761 H 712.638 -3.50186 -1.67306 0
M  V30 7762 H 710.739 -1.67447 -3.32855 0
M  V30 7763 H 710.852 -3.55507 -3.21172 0
M  V30 7764 H 709.216 -1.82372 -1.77799 0
M  V30 7765 H 709.999 -3.29092 -0.977402 0
M  V30 7766 N 712.444 0.87505 -1.31075 0
M  V30 7767 C 713.69 1.63006 -1.21657 0
M  V30 7768 C 714.045 1.91088 0.224306 0
M  V30 7769 O 713.338 1.52779 1.15625 0
M  V30 7770 C 713.532 2.96948 -1.98888 0
M  V30 7771 C 713.361 2.81944 -3.50339 0
M  V30 7772 C 712.131 2.814 -4.19693 0
M  V30 7773 C 714.329 2.57171 -4.45385 0
M  V30 7774 N 712.311 2.57392 -5.57335 0
M  V30 7775 C 713.682 2.42379 -5.7066 0
M  V30 7776 C 715.737 2.42474 -4.34868 0
M  V30 7777 C 714.44 2.14385 -6.86609 0
M  V30 7778 C 716.466 2.15868 -5.50595 0
M  V30 7779 C 715.828 2.0186 -6.74857 0
M  V30 7780 H 711.927 0.601043 -0.500271 0
M  V30 7781 H 714.511 1.03033 -1.65204 0
M  V30 7782 H 712.682 3.54936 -1.57718 0
M  V30 7783 H 714.414 3.61702 -1.81531 0
M  V30 7784 H 711.169 2.93596 -3.71616 0
M  V30 7785 H 711.593 2.48373 -6.29794 0
M  V30 7786 H 716.235 2.52035 -3.39468 0
M  V30 7787 H 713.953 2.03562 -7.82041 0
M  V30 7788 H 717.539 2.05304 -5.44372 0
M  V30 7789 H 716.419 1.81562 -7.62892 0
M  V30 7790 N 713.922 1.13953 1.08869 0
M  V30 7791 C 715.168 0.906151 1.8143 0
M  V30 7792 C 715.501 -0.566089 1.85766 0
M  V30 7793 O 714.776 -1.41915 1.33006 0
M  V30 7794 C 715.059 1.50183 3.27287 0
M  V30 7795 C 714.912 3.04359 3.31189 0
M  V30 7796 C 716.231 1.17477 4.24131 0
M  V30 7797 H 713.35 0.330624 0.658678 0
M  V30 7798 H 715.992 1.40873 1.27495 0
M  V30 7799 H 714.142 1.07442 3.73348 0
M  V30 7800 H 715.814 3.55896 2.93488 0
M  V30 7801 H 714.057 3.39053 2.70602 0
M  V30 7802 H 714.728 3.41141 4.33966 0
M  V30 7803 H 717.204 1.5442 3.86385 0
M  V30 7804 H 716.08 1.61795 5.24513 0
M  V30 7805 H 716.341 0.0893312 4.4201 0
M  V30 7806 N 715.4 -1.26948 0.933913 0
M  V30 7807 C 716.647 -1.94087 0.577625 0
M  V30 7808 C 716.975 -1.73345 -0.88214 0
M  V30 7809 O 716.23 -1.05945 -1.64542 0
M  V30 7810 C 716.529 -3.46963 0.857406 0
M  V30 7811 C 716.195 -3.87834 2.2999 0
M  V30 7812 C 714.857 -3.98704 2.69423 0
M  V30 7813 C 717.209 -4.08442 3.23766 0
M  V30 7814 C 714.537 -4.27573 4.01744 0
M  V30 7815 C 716.889 -4.38798 4.55675 0
M  V30 7816 C 715.553 -4.47881 4.94934 0
M  V30 7817 H 714.823 -0.710215 0.211368 0
M  V30 7818 H 717.47 -1.50899 1.17905 0
M  V30 7819 H 715.775 -3.91416 0.173369 0
M  V30 7820 H 717.472 -3.97062 0.560615 0
M  V30 7821 H 714.062 -3.79916 1.98399 0
M  V30 7822 H 718.246 -3.99479 2.94499 0
M  V30 7823 H 713.502 -4.32815 4.31834 0
M  V30 7824 H 717.676 -4.5369 5.28335 0
M  V30 7825 H 715.303 -4.70005 5.97495 0
M  V30 7826 N 716.879 -0.700114 -1.41195 0
M  V30 7827 C 718.104 -0.240704 -2.05998 0
M  V30 7828 C 718.529 1.10313 -1.52357 0
M  V30 7829 O 717.887 1.69154 -0.652424 0
M  V30 7830 C 717.935 -0.213783 -3.59966 0
M  V30 7831 O 717.039 0.809933 -4.04368 0
M  V30 7832 H 716.38 -0.116471 -0.653705 0
M  V30 7833 H 718.91 -0.956251 -1.80878 0
M  V30 7834 H 718.92 -0.0461852 -4.07974 0
M  V30 7835 H 717.595 -1.19454 -3.98376 0
M  V30 7836 H 716.172 0.611319 -3.67855 0
M  V30 7837 N 718.357 1.51182 -0.445186 0
M  V30 7838 C 719.605 2.01753 0.11841 0
M  V30 7839 C 719.926 1.33087 1.42523 0
M  V30 7840 O 719.196 0.467891 1.9023 0
M  V30 7841 H 717.776 0.745536 0.0467492 0
M  V30 7842 H 720.438 1.85765 -0.589688 0
M  V30 7843 H 719.534 3.10762 0.288665 0
M  V30 7844 N 719.835 0.176821 1.56605 0
M  V30 7845 C 721.063 -0.472828 2.01425 0
M  V30 7846 C 721.478 -1.56436 1.05703 0
M  V30 7847 O 720.835 -1.82405 0.058808 0
M  V30 7848 C 720.886 -1.04607 3.46034 0
M  V30 7849 O 720.607 0.00189608 4.381 0
M  V30 7850 C 722.108 -1.7734 4.06282 0
M  V30 7851 H 719.328 -0.120503 0.660091 0
M  V30 7852 H 721.872 0.280166 2.02572 0
M  V30 7853 H 720.027 -1.74953 3.45645 0
M  V30 7854 H 720.441 -0.422118 5.22799 0
M  V30 7855 H 721.915 -2.12703 5.09374 0
M  V30 7856 H 722.392 -2.67043 3.4869 0
M  V30 7857 H 722.998 -1.11623 4.10391 0
M  V30 7858 N 721.313 -1.57302 -0.09688 0
M  V30 7859 C 722.243 -2.0497 -1.11846 0
M  V30 7860 C 723.224 -0.938278 -1.41882 0
M  V30 7861 O 724.409 -1.20943 -1.51942 0
M  V30 7862 C 721.539 -2.47264 -2.43881 0
M  V30 7863 C 720.493 -3.62053 -2.28257 0
M  V30 7864 C 719.819 -3.90318 -3.65453 0
M  V30 7865 C 721.119 -4.93005 -1.72461 0
M  V30 7866 H 722.813 -2.90567 -0.721888 0
M  V30 7867 H 720.359 -1.39786 -0.345803 0
M  V30 7868 H 722.312 -2.7922 -3.15617 0
M  V30 7869 H 721.036 -1.58664 -2.8547 0
M  V30 7870 H 719.695 -3.30341 -1.58967 0
M  V30 7871 H 719.343 -2.98889 -4.04567 0
M  V30 7872 H 719.043 -4.67597 -3.55846 0
M  V30 7873 H 720.567 -4.24747 -4.3866 0
M  V30 7874 H 721.981 -5.23354 -2.34036 0
M  V30 7875 H 720.378 -5.74436 -1.73618 0
M  V30 7876 H 721.448 -4.80053 -0.683898 0
M  V30 7877 N 722.791 0.367657 -1.53252 0
M  V30 7878 C 724.207 0.709191 -1.42978 0
M  V30 7879 C 724.407 1.93352 -0.567193 0
M  V30 7880 O 723.463 2.52453 -0.0488349 0
M  V30 7881 C 724.776 0.924338 -2.86141 0
M  V30 7882 C 726.324 1.02448 -2.95759 0
M  V30 7883 C 726.799 1.27211 -4.39979 0
M  V30 7884 N 728.29 1.33986 -4.43398 0
M  V30 7885 C 729.025 1.54852 -5.52095 0
M  V30 7886 N 728.521 1.73049 -6.7084 0
M  V30 7887 N 730.314 1.57205 -5.39669 0
M  V30 7888 H 722.465 -0.437669 -2.07842 0
M  V30 7889 H 724.728 -0.133737 -0.938519 0
M  V30 7890 H 724.434 0.0965455 -3.51567 0
M  V30 7891 H 724.308 1.83302 -3.29667 0
M  V30 7892 H 726.695 1.84282 -2.30487 0
M  V30 7893 H 726.776 0.0932301 -2.5563 0
M  V30 7894 H 726.42 0.458792 -5.05824 0
M  V30 7895 H 726.35 2.21654 -4.77679 0
M  V30 7896 H 728.841 1.21545 -3.5782 0
M  V30 7897 H 729.154 1.88538 -7.49449 0
M  V30 7898 H 727.499 1.70231 -6.7383 0
M  V30 7899 H 730.69 1.42555 -4.45865 0
M  V30 7900 H 730.863 1.73126 -6.24445 0
M  V30 7901 N 724.269 1.44576 0.627338 0
M  V30 7902 C 725.494 1.51271 1.41887 0
M  V30 7903 C 725.919 0.139814 1.8758 0
M  V30 7904 O 725.277 -0.871746 1.58966 0
M  V30 7905 C 725.325 2.48529 2.61277 0
M  V30 7906 O 724.429 1.98944 3.61241 0
M  V30 7907 H 723.77 0.510668 0.424399 0
M  V30 7908 H 726.3 1.89746 0.765356 0
M  V30 7909 H 726.31 2.66689 3.08773 0
M  V30 7910 H 724.985 3.48249 2.27366 0
M  V30 7911 H 723.562 1.90568 3.20528 0
M  V30 7912 N 725.747 -0.868086 1.31537 0
M  V30 7913 C 726.695 -1.99688 1.1928 0
M  V30 7914 C 727.689 -1.69101 0.100656 0
M  V30 7915 O 728.895 -1.78073 0.262677 0
M  V30 7916 H 725.27 -0.655032 0.369374 0
M  V30 7917 H 727.241 -2.07157 2.14776 0
M  V30 7918 C 725.99 -3.35338 0.918892 0
M  V30 7919 H 725.313 -3.59396 1.75142 0
M  V30 7920 H 726.753 -4.14909 0.873311 0
M  V30 7921 C 725.212 -3.34769 -0.378366 0
M  V30 7922 O 725.742 -3.76716 -1.39456 0
M  V30 7923 N 723.948 -2.87895 -0.39557 0
M  V30 7924 H 723.495 -2.53954 0.431889 0
M  V30 7925 H 723.453 -2.87897 -1.26344 0
M  V30 7926 N 727.225 -1.14528 -1.08264 0
M  V30 7927 C 728.474 -0.908992 -1.80056 0
M  V30 7928 C 728.787 0.565859 -1.87236 0
M  V30 7929 O 729.993 0.919454 -2.55457 0
M  V30 7930 C 728.449 -1.57681 -3.23519 0
M  V30 7931 C 728.057 -3.08803 -3.24569 0
M  V30 7932 C 729.801 -1.4217 -3.99985 0
M  V30 7933 C 727.708 -3.68414 -4.62629 0
M  V30 7934 H 726.638 -0.336432 -0.674781 0
M  V30 7935 H 729.289 -1.37437 -1.21587 0
M  V30 7936 H 727.671 -1.03911 -3.82124 0
M  V30 7937 H 728.845 -3.69252 -2.75663 0
M  V30 7938 H 727.16 -3.23968 -2.61598 0
M  V30 7939 H 729.757 -1.84106 -5.02005 0
M  V30 7940 H 730.1 -0.367989 -4.1467 0
M  V30 7941 H 730.633 -1.92984 -3.47853 0
M  V30 7942 H 727.372 -4.73644 -4.53147 0
M  V30 7943 H 726.892 -3.12746 -5.11811 0
M  V30 7944 H 728.571 -3.68793 -5.31602 0
M  V30 7945 N 728.703 1.26451 -0.940633 0
M  V30 7946 C 729.633 2.28773 -0.467479 0
M  V30 7947 C 730.614 1.63218 0.478955 0
M  V30 7948 O 731.799 1.90427 0.380929 0
M  V30 7949 C 728.929 3.46259 0.268656 0
M  V30 7950 C 727.883 4.23898 -0.591171 0
M  V30 7951 C 727.209 5.33993 0.274891 0
M  V30 7952 C 728.509 4.87974 -1.86223 0
M  V30 7953 H 730.203 2.68601 -1.32265 0
M  V30 7954 H 727.749 1.29123 -0.637436 0
M  V30 7955 H 729.702 4.16951 0.610696 0
M  V30 7956 H 728.426 3.05383 1.15796 0
M  V30 7957 H 727.085 3.54969 -0.916098 0
M  V30 7958 H 726.733 4.89358 1.16353 0
M  V30 7959 H 726.433 5.86849 -0.297006 0
M  V30 7960 H 727.957 6.07523 0.612213 0
M  V30 7961 H 729.371 5.50883 -1.58747 0
M  V30 7962 H 727.768 5.50945 -2.37866 0
M  V30 7963 H 728.838 4.10945 -2.57394 0
M  V30 7964 N 730.181 0.707592 1.40822 0
M  V30 7965 C 731.428 0.243671 2.01029 0
M  V30 7966 C 731.756 -1.16057 1.5608 0
M  V30 7967 O 731.011 -1.7999 0.768251 0
M  V30 7968 C 731.31 0.262892 3.56432 0
M  V30 7969 C 730.976 1.61632 4.20935 0
M  V30 7970 C 729.638 1.98682 4.38268 0
M  V30 7971 C 731.99 2.50619 4.5699 0
M  V30 7972 C 729.318 3.2428 4.88937 0
M  V30 7973 C 731.67 3.75562 5.09054 0
M  V30 7974 C 730.334 4.12739 5.24598 0
M  V30 7975 H 729.604 0.0891654 0.735616 0
M  V30 7976 H 732.251 0.909051 1.68548 0
M  V30 7977 H 730.556 -0.486052 3.88773 0
M  V30 7978 H 732.253 -0.113775 4.00839 0
M  V30 7979 H 728.843 1.31818 4.07826 0
M  V30 7980 H 733.027 2.23272 4.43242 0
M  V30 7981 H 728.283 3.53064 4.99155 0
M  V30 7982 H 732.457 4.44692 5.35931 0
M  V30 7983 H 730.084 5.10132 5.63622 0
M  V30 7984 N 731.66 -1.50943 0.453197 0
M  V30 7985 C 732.908 -2.01813 -0.107709 0
M  V30 7986 C 733.229 -1.33841 -1.41816 0
M  V30 7987 O 732.499 -0.477973 -1.8998 0
M  V30 7988 H 731.079 -0.745773 -0.0427948 0
M  V30 7989 H 733.741 -1.8545 0.599531 0
M  V30 7990 H 732.837 -3.10911 -0.27218 0
M  V30 7991 N 733.138 -0.185124 -1.56509 0
M  V30 7992 C 734.085 0.739729 -2.18624 0
M  V30 7993 C 735.055 1.217 -1.13042 0
M  V30 7994 O 736.24 1.28268 -1.41251 0
M  V30 7995 C 733.38 1.95787 -2.84186 0
M  V30 7996 C 732.493 1.52289 -4.04267 0
M  V30 7997 C 731.628 2.69576 -4.57714 0
M  V30 7998 C 730.667 2.22636 -5.70175 0
M  V30 7999 N 729.804 3.33065 -6.18071 0
M  V30 8000 H 734.644 0.203269 -2.97306 0
M  V30 8001 H 732.181 0.0885946 -1.46833 0
M  V30 8002 H 734.139 2.67253 -3.20361 0
M  V30 8003 H 732.769 2.4678 -2.08085 0
M  V30 8004 H 731.821 0.704458 -3.7382 0
M  V30 8005 H 733.133 1.13843 -4.85635 0
M  V30 8006 H 732.287 3.4918 -4.96143 0
M  V30 8007 H 731.026 3.1129 -3.75433 0
M  V30 8008 H 730.031 1.41483 -5.31284 0
M  V30 8009 H 731.256 1.81964 -6.54267 0
M  V30 8010 H 729.202 3.74328 -5.38715 0
M  V30 8011 H 729.119 2.98756 -6.94464 0
M  V30 8012 H 730.387 4.12912 -6.61153 0
M  V30 8013 N 734.616 1.57351 0.0885366 0
M  V30 8014 C 735.563 2.02523 1.10693 0
M  V30 8015 C 736.533 0.902736 1.39427 0
M  V30 8016 O 737.718 1.16921 1.50779 0
M  V30 8017 C 734.858 2.46013 2.42016 0
M  V30 8018 C 733.971 3.7181 2.19957 0
M  V30 8019 C 733.106 4.04152 3.44724 0
M  V30 8020 C 732.145 5.2304 3.17956 0
M  V30 8021 N 731.282 5.51102 4.35007 0
M  V30 8022 H 736.122 2.89302 0.714742 0
M  V30 8023 H 733.659 1.43084 0.341378 0
M  V30 8024 H 735.617 2.69274 3.18665 0
M  V30 8025 H 734.247 1.62235 2.79069 0
M  V30 8026 H 733.299 3.55987 1.34079 0
M  V30 8027 H 734.611 4.58604 1.96173 0
M  V30 8028 H 733.765 4.28225 4.29777 0
M  V30 8029 H 732.504 3.15893 3.71568 0
M  V30 8030 H 731.509 4.98781 2.31296 0
M  V30 8031 H 732.734 6.12902 2.92451 0
M  V30 8032 H 730.68 4.65802 4.61914 0
M  V30 8033 H 730.597 6.3228 4.14437 0
M  V30 8034 H 731.865 5.79714 5.21106 0
M  V30 8035 N 736.094 -0.359525 1.53444 0
M  V30 8036 C 737.324 -1.12036 1.73585 0
M  V30 8037 C 737.732 -1.83335 0.467438 0
M  V30 8038 O 737.075 -1.74641 -0.569753 0
M  V30 8039 C 737.137 -2.19036 2.85068 0
M  V30 8040 C 736.801 -1.67451 4.25217 0
M  V30 8041 C 737.798 -1.13534 5.07352 0
M  V30 8042 C 735.483 -1.72781 4.71648 0
M  V30 8043 C 737.477 -0.656321 6.34012 0
M  V30 8044 C 735.164 -1.2449 5.98285 0
M  V30 8045 C 736.162 -0.710068 6.79299 0
M  V30 8046 O 735.85 -0.234314 8.03558 0
M  V30 8047 H 735.582 -0.340662 0.583888 0
M  V30 8048 H 738.136 -0.422452 2.01009 0
M  V30 8049 H 736.366 -2.92338 2.53131 0
M  V30 8050 H 738.055 -2.80559 2.93328 0
M  V30 8051 H 738.821 -1.08751 4.7265 0
M  V30 8052 H 734.7 -2.13351 4.08659 0
M  V30 8053 H 738.244 -0.238193 6.97193 0
M  V30 8054 H 734.141 -1.28969 6.32485 0
M  V30 8055 H 734.909 -0.353084 8.17738 0
M  V30 8056 N 737.572 -1.44907 -0.619662 0
M  V30 8057 C 738.482 -1.55168 -1.75955 0
M  V30 8058 C 739.498 -0.43672 -1.6843 0
M  V30 8059 O 740.674 -0.695704 -1.89002 0
M  V30 8060 C 737.739 -1.50397 -3.12381 0
M  V30 8061 C 736.8 -2.72835 -3.31451 0
M  V30 8062 C 736.033 -2.68283 -4.61368 0
M  V30 8063 O 736.256 -1.74929 -5.42914 0
M  V30 8064 O 735.19 -3.59308 -4.82889 0
M  V30 8065 H 739.016 -2.51493 -1.7025 0
M  V30 8066 H 736.601 -1.27282 -0.782289 0
M  V30 8067 H 738.483 -1.50301 -3.93685 0
M  V30 8068 H 737.158 -0.572197 -3.18603 0
M  V30 8069 H 736.065 -2.78496 -2.49781 0
M  V30 8070 H 737.398 -3.65098 -3.30098 0
M  V30 8071 N 739.05 0.861098 -1.31996 0
M  V30 8072 C 739.997 1.96912 -1.20392 0
M  V30 8073 C 740.967 1.65869 -0.0875899 0
M  V30 8074 O 742.152 1.88992 -0.262011 0
M  V30 8075 C 739.292 3.32435 -0.926335 0
M  V30 8076 C 738.405 3.76018 -2.12684 0
M  V30 8077 C 737.54 5.00301 -1.78529 0
M  V30 8078 C 736.579 5.36357 -2.94937 0
M  V30 8079 N 735.716 6.51818 -2.60917 0
M  V30 8080 H 740.556 2.06169 -2.1517 0
M  V30 8081 H 738.093 1.00917 -1.07024 0
M  V30 8082 H 740.051 4.10478 -0.745917 0
M  V30 8083 H 738.681 3.22796 -0.0153578 0
M  V30 8084 H 737.733 2.93683 -2.41774 0
M  V30 8085 H 739.045 3.98664 -2.99781 0
M  V30 8086 H 738.199 5.86034 -1.57001 0
M  V30 8087 H 736.938 4.79578 -0.886356 0
M  V30 8088 H 735.943 4.49139 -3.17103 0
M  V30 8089 H 737.168 5.59041 -3.85552 0
M  V30 8090 H 735.114 6.32624 -1.73558 0
M  V30 8091 H 735.031 6.7445 -3.41544 0
M  V30 8092 H 736.299 7.4072 -2.42804 0
M  V30 8093 N 740.528 1.15101 1.07655 0
M  V30 8094 C 741.438 0.858869 2.18313 0
M  V30 8095 C 742.454 -0.163641 1.73229 0
M  V30 8096 O 743.63 0.00969541 2.01398 0
M  V30 8097 C 740.695 0.34893 3.4494 0
M  V30 8098 C 739.756 1.43495 4.04608 0
M  V30 8099 C 738.989 0.949253 5.2519 0
M  V30 8100 O 739.212 -0.20636 5.70027 0
M  V30 8101 O 738.146 1.73161 5.76454 0
M  V30 8102 H 741.972 1.78386 2.45788 0
M  V30 8103 H 739.557 0.929876 1.16934 0
M  V30 8104 H 741.439 0.070851 4.2134 0
M  V30 8105 H 740.114 -0.548237 3.19024 0
M  V30 8106 H 739.021 1.7666 3.29761 0
M  V30 8107 H 740.354 2.30692 4.3479 0
M  V30 8108 N 742.006 -1.2595 0.947325 0
M  V30 8109 C 743.422 -1.45737 0.650597 0
M  V30 8110 C 743.622 -1.85189 -0.794188 0
M  V30 8111 O 742.678 -1.97738 -1.57022 0
M  V30 8112 C 743.991 -2.53505 1.61728 0
M  V30 8113 C 745.539 -2.67351 1.62765 0
M  V30 8114 C 746.014 -3.78296 2.58179 0
M  V30 8115 N 747.505 -3.85696 2.56501 0
M  V30 8116 C 748.24 -4.71012 3.2701 0
M  V30 8117 N 747.736 -5.60669 4.06966 0
M  V30 8118 N 749.529 -4.64912 3.15932 0
M  V30 8119 H 741.68 -0.986327 1.8811 0
M  V30 8120 H 743.943 -0.494639 0.808725 0
M  V30 8121 H 743.649 -2.31357 2.6489 0
M  V30 8122 H 743.523 -3.51281 1.3741 0
M  V30 8123 H 745.91 -2.88869 0.603241 0
M  V30 8124 H 745.991 -1.69998 1.91139 0
M  V30 8125 H 745.635 -3.5753 3.60742 0
M  V30 8126 H 745.565 -4.75117 2.27093 0
M  V30 8127 H 748.056 -3.21601 1.98447 0
M  V30 8128 H 748.369 -6.22677 4.57704 0
M  V30 8129 H 746.714 -5.60402 4.11066 0
M  V30 8130 H 749.905 -3.93874 2.52945 0
M  V30 8131 H 750.078 -5.3118 3.71149 0
M  V30 8132 N 743.484 -0.715051 -1.40445 0
M  V30 8133 C 744.714 -0.263576 -2.04912 0
M  V30 8134 C 745.122 1.09943 -1.53978 0
M  V30 8135 O 744.465 1.70203 -0.691133 0
M  V30 8136 C 744.527 -0.165048 -3.59121 0
M  V30 8137 C 744.191 -1.46325 -4.32941 0
M  V30 8138 C 745.188 -2.40506 -4.60926 0
M  V30 8139 C 742.873 -1.72203 -4.7186 0
M  V30 8140 C 744.867 -3.58812 -5.26814 0
M  V30 8141 C 742.554 -2.9079 -5.3748 0
M  V30 8142 C 743.552 -3.83917 -5.64887 0
M  V30 8143 O 743.24 -5.00424 -6.29151 0
M  V30 8144 H 742.972 -0.116317 -0.665918 0
M  V30 8145 H 745.526 -0.973774 -1.8085 0
M  V30 8146 H 743.756 0.601088 -3.82 0
M  V30 8147 H 745.445 0.251794 -4.05118 0
M  V30 8148 H 746.211 -2.21778 -4.31323 0
M  V30 8149 H 742.09 -1.00571 -4.49896 0
M  V30 8150 H 745.634 -4.31517 -5.48123 0
M  V30 8151 H 741.531 -3.09428 -5.66502 0
M  V30 8152 H 742.299 -5.00494 -6.47648 0
M  V30 8153 N 744.962 1.50701 -0.461195 0
M  V30 8154 C 745.872 2.32069 0.343661 0
M  V30 8155 C 746.888 1.42016 1.00535 0
M  V30 8156 O 748.064 1.75077 0.995498 0
M  V30 8157 C 745.129 3.16424 1.41692 0
M  V30 8158 C 744.19 4.22286 0.772869 0
M  V30 8159 C 743.423 5.02609 1.79499 0
M  V30 8160 O 743.646 4.83874 3.0203 0
M  V30 8161 O 742.58 5.86047 1.3723 0
M  V30 8162 H 746.406 3.01996 -0.321268 0
M  V30 8163 H 743.991 1.47723 -0.223235 0
M  V30 8164 H 745.873 3.68795 2.03883 0
M  V30 8165 H 744.548 2.49236 2.0655 0
M  V30 8166 H 743.455 3.73931 0.112277 0
M  V30 8167 H 744.788 4.91915 0.167399 0
M  V30 8168 N 746.441 0.193421 1.56409 0
M  V30 8169 C 747.388 -0.728124 2.19014 0
M  V30 8170 C 748.358 -1.21098 1.13686 0
M  V30 8171 O 749.543 -1.27517 1.4193 0
M  V30 8172 C 746.683 -1.94277 2.8522 0
M  V30 8173 C 745.796 -1.50143 4.05069 0
M  V30 8174 C 744.931 -2.67145 4.59137 0
M  V30 8175 C 743.97 -2.19609 5.71348 0
M  V30 8176 N 743.107 -3.29782 6.19829 0
M  V30 8177 H 747.947 -0.187499 2.9741 0
M  V30 8178 H 745.484 -0.0808064 1.46878 0
M  V30 8179 H 747.442 -2.65551 3.21774 0
M  V30 8180 H 746.072 -2.45673 2.09391 0
M  V30 8181 H 745.124 -0.684624 3.74189 0
M  V30 8182 H 746.436 -1.11266 4.86232 0
M  V30 8183 H 745.59 -3.46544 4.97988 0
M  V30 8184 H 744.329 -3.09295 3.77078 0
M  V30 8185 H 743.334 -1.38664 5.32027 0
M  V30 8186 H 744.559 -1.78492 6.55223 0
M  V30 8187 H 742.505 -3.71466 5.40693 0
M  V30 8188 H 742.422 -2.95069 6.96039 0
M  V30 8189 H 743.69 -4.094 6.63334 0
M  V30 8190 N 747.919 -1.57396 -0.0801906 0
M  V30 8191 C 749.165 -1.87113 -0.782083 0
M  V30 8192 C 749.498 -0.78458 -1.77646 0
M  V30 8193 O 748.773 0.205993 -1.93406 0
M  V30 8194 C 749.056 -3.27483 -1.49756 0
M  V30 8195 C 748.909 -4.46782 -0.520171 0
M  V30 8196 C 750.228 -3.65965 -2.44454 0
M  V30 8197 H 747.347 -0.680559 -0.282858 0
M  V30 8198 H 749.989 -1.89946 -0.0454139 0
M  V30 8199 H 748.139 -3.25199 -2.12551 0
M  V30 8200 H 749.811 -4.61187 0.101919 0
M  V30 8201 H 748.054 -4.33485 0.165219 0
M  V30 8202 H 748.725 -5.41761 -1.05824 0
M  V30 8203 H 751.201 -3.69289 -1.91742 0
M  V30 8204 H 750.077 -4.65086 -2.91524 0
M  V30 8205 H 750.338 -2.95446 -3.28883 0
M  V30 8206 N 749.397 0.351382 -1.53633 0
M  V30 8207 C 750.646 1.08988 -1.69719 0
M  V30 8208 C 750.959 1.90043 -0.462948 0
M  V30 8209 O 752.165 2.66769 -0.504613 0
M  V30 8210 C 750.621 1.98691 -3.00083 0
M  V30 8211 C 750.229 1.22881 -4.30818 0
M  V30 8212 C 751.973 2.72446 -3.25536 0
M  V30 8213 C 749.88 2.11568 -5.52262 0
M  V30 8214 H 748.81 0.410588 -0.632403 0
M  V30 8215 H 751.461 0.349886 -1.80133 0
M  V30 8216 H 749.843 2.76478 -2.83506 0
M  V30 8217 H 751.017 0.500582 -4.58073 0
M  V30 8218 H 749.332 0.60928 -4.11918 0
M  V30 8219 H 751.929 3.39055 -4.13456 0
M  V30 8220 H 752.272 3.38588 -2.42206 0
M  V30 8221 H 752.805 2.01735 -3.42852 0
M  V30 8222 H 749.544 1.4998 -6.38111 0
M  V30 8223 H 749.064 2.82201 -5.29266 0
M  V30 8224 H 750.743 2.70802 -5.87601 0
M  V30 8225 N 750.875 1.45233 0.611969 0
M  V30 8226 C 751.822 1.5357 1.72293 0
M  V30 8227 C 752.792 0.381912 1.6165 0
M  V30 8228 O 753.977 0.594765 1.81293 0
M  V30 8229 C 751.117 1.50419 3.10593 0
M  V30 8230 C 750.23 2.76316 3.32074 0
M  V30 8231 C 749.365 2.64866 4.60456 0
M  V30 8232 C 748.404 3.85838 4.7518 0
M  V30 8233 N 747.541 3.72949 5.94856 0
M  V30 8234 H 752.381 2.4848 1.64504 0
M  V30 8235 H 749.918 1.23302 0.802191 0
M  V30 8236 H 751.876 1.4658 3.90602 0
M  V30 8237 H 750.506 0.590621 3.17351 0
M  V30 8238 H 749.558 2.90261 2.45872 0
M  V30 8239 H 750.87 3.66055 3.38829 0
M  V30 8240 H 750.024 2.58969 5.48653 0
M  V30 8241 H 748.763 1.72719 4.56092 0
M  V30 8242 H 747.768 3.92099 3.85407 0
M  V30 8243 H 748.993 4.79045 4.81344 0
M  V30 8244 H 746.939 2.83567 5.91545 0
M  V30 8245 H 746.856 4.56319 6.02751 0
M  V30 8246 H 748.124 3.70976 6.85563 0
M  V30 8247 N 752.353 -0.854086 1.3245 0
M  V30 8248 C 753.316 -1.94427 1.21371 0
M  V30 8249 C 754.316 -1.60219 0.136613 0
M  V30 8250 O 755.506 -1.69846 0.387057 0
M  V30 8251 C 752.638 -3.29698 0.866701 0
M  V30 8252 H 753.831 -2.05679 2.18257 0
M  V30 8253 H 751.384 -1.04434 1.1629 0
M  V30 8254 H 752.119 -3.24145 -0.100319 0
M  V30 8255 H 751.904 -3.55903 1.64545 0
M  V30 8256 H 753.394 -4.09599 0.813515 0
M  V30 8257 N 753.831 -1.1567 -1.07043 0
M  V30 8258 C 755.071 -0.944089 -1.81291 0
M  V30 8259 C 755.435 0.519305 -1.84844 0
M  V30 8260 O 756.636 0.850357 -2.54995 0
M  V30 8261 C 754.907 -1.54528 -3.22267 0
M  V30 8262 S 756.466 -1.47623 -4.13223 0
M  V30 8263 H 753.284 -0.339696 -0.624602 0
M  V30 8264 H 755.886 -1.47277 -1.28568 0
M  V30 8265 H 754.59 -2.60321 -3.17271 0
M  V30 8266 H 754.121 -1.0156 -3.80065 0
M  V30 8267 H 756.136 -0.471261 -4.93957 0
M  V30 8268 N 755.309 1.25446 -0.953992 0
M  V30 8269 C 756.272 2.24156 -0.478179 0
M  V30 8270 C 757.272 1.55278 0.417776 0
M  V30 8271 O 758.462 1.72866 0.215155 0
M  V30 8272 C 755.594 3.39495 0.309202 0
M  V30 8273 H 756.787 2.67764 -1.35064 0
M  V30 8274 H 754.34 1.37822 -0.737206 0
M  V30 8275 H 755.075 3.01307 1.19936 0
M  V30 8276 H 754.86 3.90679 -0.333562 0
M  V30 8277 H 756.35 4.12796 0.631594 0
M  V30 8278 N 756.787 0.722489 1.40064 0
M  V30 8279 C 757.717 0.0892452 2.33329 0
M  V30 8280 C 758.698 -0.737992 1.53257 0
M  V30 8281 O 759.883 -0.685516 1.81698 0
M  V30 8282 C 757.013 -0.828139 3.37282 0
M  V30 8283 C 755.967 -0.106005 4.27869 0
M  V30 8284 C 755.293 -1.13957 5.22415 0
M  V30 8285 C 756.593 1.04395 5.11761 0
M  V30 8286 H 758.287 0.868269 2.86534 0
M  V30 8287 H 755.833 0.418982 1.3777 0
M  V30 8288 H 757.786 -1.28058 4.01471 0
M  V30 8289 H 756.51 -1.63914 2.82489 0
M  V30 8290 H 755.169 0.326683 3.65142 0
M  V30 8291 H 754.817 -1.9438 4.63924 0
M  V30 8292 H 754.517 -0.661233 5.83868 0
M  V30 8293 H 756.041 -1.59197 5.89482 0
M  V30 8294 H 757.455 0.670541 5.69365 0
M  V30 8295 H 755.852 1.4511 5.82291 0
M  V30 8296 H 756.922 1.87144 4.47331 0
M  V30 8297 N 758.265 -1.50454 0.469181 0
M  V30 8298 C 759.212 -2.28486 -0.325982 0
M  V30 8299 C 760.182 -1.33455 -0.988893 0
M  V30 8300 O 761.367 -1.6239 -1.0017 0
M  V30 8301 C 758.507 -3.15288 -1.40313 0
M  V30 8302 C 757.62 -4.25348 -0.755183 0
M  V30 8303 C 756.755 -4.9941 -1.81006 0
M  V30 8304 C 755.794 -6.01348 -1.14226 0
M  V30 8305 N 754.931 -6.68695 -2.1399 0
M  V30 8306 H 759.771 -2.95987 0.345753 0
M  V30 8307 H 757.308 -1.45965 0.182355 0
M  V30 8308 H 759.266 -3.63964 -2.03927 0
M  V30 8309 H 757.896 -2.49837 -2.04405 0
M  V30 8310 H 756.948 -3.80399 -0.00651901 0
M  V30 8311 H 758.26 -4.98279 -0.227941 0
M  V30 8312 H 757.414 -5.51794 -2.52206 0
M  V30 8313 H 756.153 -4.26181 -2.3711 0
M  V30 8314 H 755.158 -5.48225 -0.415876 0
M  V30 8315 H 756.383 -6.76548 -0.588135 0
M  V30 8316 H 754.329 -5.98258 -2.69115 0
M  V30 8317 H 754.246 -7.37495 -1.66246 0
M  V30 8318 H 755.514 -7.25697 -2.84576 0
M  V30 8319 N 759.743 -0.201713 -1.56304 0
M  V30 8320 C 760.69 0.716499 -2.19397 0
M  V30 8321 C 761.66 1.20494 -1.14326 0
M  V30 8322 O 762.845 1.26763 -1.42604 0
M  V30 8323 C 759.985 1.92762 -2.86246 0
M  V30 8324 C 759.098 1.47993 -4.0586 0
M  V30 8325 C 758.233 2.64706 -4.60547 0
M  V30 8326 C 757.272 2.16576 -5.72504 0
M  V30 8327 N 756.409 3.26491 -6.21569 0
M  V30 8328 H 761.249 0.171724 -2.97505 0
M  V30 8329 H 758.786 0.073016 -1.46919 0
M  V30 8330 H 760.744 2.6384 -3.23178 0
M  V30 8331 H 759.374 2.44559 -2.10691 0
M  V30 8332 H 758.426 0.66477 -3.74546 0
M  V30 8333 H 759.738 1.08686 -4.86815 0
M  V30 8334 H 758.892 3.43898 -4.99819 0
M  V30 8335 H 757.631 3.0729 -3.78713 0
M  V30 8336 H 756.636 1.3584 -5.32755 0
M  V30 8337 H 757.861 1.75015 -6.56161 0
M  V30 8338 H 755.807 3.68594 -5.42655 0
M  V30 8339 H 755.724 2.91374 -6.97594 0
M  V30 8340 H 756.992 4.05877 -6.65495 0
M  V30 8341 N 761.222 1.57436 0.0718424 0
M  V30 8342 C 762.499 1.78312 0.804006 0
M  V30 8343 C 762.879 0.789273 1.9579 0
M  V30 8344 O 762.227 -0.177605 2.27809 0
M  V30 8345 C 762.437 3.24798 1.277 0
M  V30 8346 C 763.785 3.88627 1.71039 0
M  V30 8347 O 764.809 3.28689 1.37266 0
M  V30 8348 O 763.668 4.94073 2.33567 0
M  V30 8349 H 760.762 0.73178 0.385262 0
M  V30 8350 H 763.308 1.69621 0.0519219 0
M  V30 8351 H 762.08 3.88688 0.45134 0
M  V30 8352 H 761.703 3.38213 2.0904 0
M  V30 8353 N 762.7 -0.34323 1.53817 0
M  V30 8354 C 763.63 -1.42709 1.84814 0
M  V30 8355 C 764.611 -1.5488 0.703297 0
M  V30 8356 O 765.796 -1.69082 0.955237 0
M  V30 8357 C 762.926 -2.79756 2.05801 0
M  V30 8358 C 761.88 -2.82392 3.21619 0
M  V30 8359 C 761.206 -4.22326 3.2794 0
M  V30 8360 C 762.506 -2.479 4.59721 0
M  V30 8361 H 764.2 -1.17018 2.75585 0
M  V30 8362 H 761.746 -0.561485 1.32602 0
M  V30 8363 H 763.699 -3.55627 2.26069 0
M  V30 8364 H 762.423 -3.06883 1.11761 0
M  V30 8365 H 761.082 -2.08974 3.01207 0
M  V30 8366 H 760.73 -4.46564 2.31494 0
M  V30 8367 H 760.43 -4.25001 4.05768 0
M  V30 8368 H 761.954 -5.00039 3.50419 0
M  V30 8369 H 763.368 -3.13484 4.80001 0
M  V30 8370 H 761.765 -2.61857 5.39954 0
M  V30 8371 H 762.835 -1.43087 4.63308 0
M  V30 8372 N 764.178 -1.45556 -0.604258 0
M  V30 8373 C 765.11 -1.50494 -1.72871 0
M  V30 8374 C 766.123 -0.395368 -1.57926 0
M  V30 8375 O 767.312 -0.662603 -1.65746 0
M  V30 8376 C 764.412 -1.34874 -3.10906 0
M  V30 8377 C 763.585 -2.59564 -3.52058 0
M  V30 8378 C 762.644 -2.38453 -4.6907 0
M  V30 8379 O 761.67 -3.12082 -4.76018 0
M  V30 8380 N 762.872 -1.43229 -5.62553 0
M  V30 8381 H 765.637 -2.4744 -1.69097 0
M  V30 8382 H 763.198 -1.41338 -0.789636 0
M  V30 8383 H 765.19 -1.18556 -3.86945 0
M  V30 8384 H 763.76 -0.461913 -3.09168 0
M  V30 8385 H 762.98 -2.90974 -2.65946 0
M  V30 8386 H 764.268 -3.42441 -3.76313 0
M  V30 8387 H 763.666 -0.824714 -5.59656 0
M  V30 8388 H 762.223 -1.32882 -6.38111 0
M  V30 8389 N 765.656 0.84705 -1.32902 0
M  V30 8390 C 766.586 1.97166 -1.25091 0
M  V30 8391 C 767.567 1.69578 -0.133161 0
M  V30 8392 O 768.752 1.91519 -0.321591 0
M  V30 8393 C 765.882 3.33157 -0.981006 0
M  V30 8394 C 764.836 3.75119 -2.06082 0
M  V30 8395 C 764.162 5.08826 -1.64318 0
M  V30 8396 C 765.462 3.89774 -3.47669 0
M  V30 8397 H 767.156 2.03958 -2.19184 0
M  V30 8398 H 764.702 0.979907 -1.05517 0
M  V30 8399 H 766.655 4.11393 -0.912891 0
M  V30 8400 H 765.379 3.266 -0.00445559 0
M  V30 8401 H 764.038 2.9914 -2.11921 0
M  V30 8402 H 763.686 4.98732 -0.653876 0
M  V30 8403 H 763.386 5.37873 -2.36572 0
M  V30 8404 H 764.91 5.89546 -1.58958 0
M  V30 8405 H 766.324 4.58343 -3.44376 0
M  V30 8406 H 764.721 4.30248 -4.18338 0
M  V30 8407 H 765.791 2.92463 -3.86773 0
M  V30 8408 N 767.134 1.16236 1.06428 0
M  V30 8409 C 768.064 0.890807 2.1584 0
M  V30 8410 C 769.045 -0.162333 1.69324 0
M  V30 8411 O 770.23 -0.0147191 1.94194 0
M  V30 8412 C 767.36 0.389615 3.45108 0
M  V30 8413 C 766.314 1.38051 4.05125 0
M  V30 8414 C 765.64 0.737773 5.29586 0
M  V30 8415 C 766.94 2.74965 4.44062 0
M  V30 8416 H 768.634 1.80577 2.38814 0
M  V30 8417 H 766.18 0.869657 1.14774 0
M  V30 8418 H 768.133 0.187127 4.20984 0
M  V30 8419 H 766.857 -0.560851 3.21748 0
M  V30 8420 H 765.516 1.56952 3.31303 0
M  V30 8421 H 765.164 -0.219135 5.02522 0
M  V30 8422 H 764.864 1.39914 5.70699 0
M  V30 8423 H 766.388 0.545275 6.0816 0
M  V30 8424 H 767.802 2.59855 5.11027 0
M  V30 8425 H 766.199 3.37563 4.96156 0
M  V30 8426 H 767.269 3.30321 3.54987 0
M  V30 8427 N 768.612 -1.24939 0.960631 0
M  V30 8428 C 769.522 -2.29374 0.492435 0
M  V30 8429 C 770.538 -1.68262 -0.443154 0
M  V30 8430 O 771.714 -1.98875 -0.31793 0
M  V30 8431 C 768.779 -3.46023 -0.216626 0
M  V30 8432 C 767.84 -4.22557 0.757915 0
M  V30 8433 C 767.073 -5.33636 0.0825969 0
M  V30 8434 O 767.296 -5.59084 -1.13054 0
M  V30 8435 O 766.23 -5.96939 0.771177 0
M  V30 8436 H 770.056 -2.71525 1.36044 0
M  V30 8437 H 767.641 -1.30499 0.72735 0
M  V30 8438 H 769.523 -4.16885 -0.615241 0
M  V30 8439 H 768.198 -3.05862 -1.05971 0
M  V30 8440 H 767.105 -3.54099 1.20685 0
M  V30 8441 H 768.438 -4.66516 1.5692 0
M  V30 8442 N 770.09 -0.729906 -1.39679 0
M  V30 8443 C 771.367 -0.202149 -1.94553 0
M  V30 8444 C 771.747 1.29507 -1.66707 0
M  V30 8445 O 771.095 2.05819 -0.992517 0
M  V30 8446 C 771.305 -0.530279 -3.44948 0
M  V30 8447 C 772.653 -0.476808 -4.21914 0
M  V30 8448 O 773.677 -0.467171 -3.53123 0
M  V30 8449 O 772.536 -0.466869 -5.44502 0
M  V30 8450 H 769.63 -0.0351644 -0.826252 0
M  V30 8451 H 772.176 -0.808417 -1.49207 0
M  V30 8452 H 770.948 -1.56526 -3.5863 0
M  V30 8453 H 770.571 0.10522 -3.97461 0
M  V30 8454 N 771.568 1.50203 -0.477153 0
M  V30 8455 C 772.816 2.01959 0.0755889 0
M  V30 8456 C 773.137 1.3608 1.39668 0
M  V30 8457 O 772.407 0.508136 1.89195 0
M  V30 8458 H 770.987 0.74636 0.0309248 0
M  V30 8459 H 773.649 1.84473 -0.628959 0
M  V30 8460 H 772.745 3.11305 0.222683 0
M  V30 8461 N 773.046 0.209999 1.56195 0
M  V30 8462 C 774.323 -0.473214 1.89789 0
M  V30 8463 C 774.703 -1.78581 1.1257 0
M  V30 8464 O 774.051 -2.27325 0.231398 0
M  V30 8465 C 774.261 -0.677458 3.42362 0
M  V30 8466 C 775.609 -0.990114 4.12895 0
M  V30 8467 O 776.633 -0.764655 3.47896 0
M  V30 8468 O 775.492 -1.41737 5.278 0
M  V30 8469 H 772.586 -0.248622 0.788743 0
M  V30 8470 H 775.132 0.251324 1.67829 0
M  V30 8471 H 773.904 0.248878 3.90508 0
M  V30 8472 H 773.527 -1.45391 3.70064 0
M  V30 8473 N 774.524 -1.57472 -0.0634922 0
M  V30 8474 C 775.454 -2.07297 -1.07473 0
M  V30 8475 C 776.435 -0.968162 -1.39859 0
M  V30 8476 O 777.62 -1.24139 -1.49343 0
M  V30 8477 C 774.75 -2.52381 -2.38581 0
M  V30 8478 C 773.704 -3.66813 -2.20526 0
M  V30 8479 C 773.03 -3.97982 -3.57092 0
M  V30 8480 C 774.33 -4.96553 -1.61965 0
M  V30 8481 H 776.024 -2.92033 -0.660092 0
M  V30 8482 H 773.57 -1.40488 -0.316074 0
M  V30 8483 H 775.523 -2.85852 -3.09624 0
M  V30 8484 H 774.247 -1.64684 -2.8204 0
M  V30 8485 H 772.906 -3.33639 -1.51924 0
M  V30 8486 H 772.554 -3.07403 -3.98136 0
M  V30 8487 H 772.254 -4.7504 -3.45848 0
M  V30 8488 H 773.778 -4.33956 -4.29552 0
M  V30 8489 H 775.192 -5.28201 -2.22883 0
M  V30 8490 H 773.589 -5.7799 -1.61394 0
M  V30 8491 H 774.659 -4.81396 -0.581918 0
M  V30 8492 N 776.003 0.335068 -1.53997 0
M  V30 8493 C 777.231 1.09418 -1.756 0
M  V30 8494 C 777.646 1.82083 -0.499138 0
M  V30 8495 O 777.003 1.74646 0.529631 0
M  V30 8496 C 777.054 2.10115 -2.94166 0
M  V30 8497 O 776.775 1.40404 -4.14992 0
M  V30 8498 C 778.276 2.98336 -3.27888 0
M  V30 8499 H 775.496 0.32595 -0.586513 0
M  V30 8500 H 778.04 0.384693 -2.00849 0
M  V30 8501 H 776.195 2.76616 -2.71224 0
M  V30 8502 H 776.609 2.07743 -4.81605 0
M  V30 8503 H 778.083 3.6491 -4.1418 0
M  V30 8504 H 778.56 3.64814 -2.44556 0
M  V30 8505 H 779.166 2.37412 -3.52868 0
M  V30 8506 N 777.481 1.45874 0.596531 0
M  V30 8507 C 778.727 1.5069 1.35722 0
M  V30 8508 C 779.06 0.152506 1.936 0
M  V30 8509 O 778.335 -0.834411 1.75692 0
M  V30 8510 C 778.618 2.59474 2.4969 0
M  V30 8511 C 778.471 4.04396 1.96937 0
M  V30 8512 C 779.79 2.64451 3.51787 0
M  V30 8513 H 776.909 0.548611 0.492133 0
M  V30 8514 H 779.551 1.77741 0.671428 0
M  V30 8515 H 777.701 2.36539 3.08191 0
M  V30 8516 H 779.373 4.38576 1.43 0
M  V30 8517 H 777.616 4.14529 1.27859 0
M  V30 8518 H 778.287 4.76218 2.79143 0
M  V30 8519 H 780.763 2.85031 3.03145 0
M  V30 8520 H 779.639 3.42411 4.29006 0
M  V30 8521 H 779.9 1.69965 4.08123 0
M  V30 8522 N 778.959 -0.83999 1.33349 0
M  V30 8523 C 780.208 -1.59011 1.2409 0
M  V30 8524 C 780.521 -1.94655 -0.192029 0
M  V30 8525 O 781.727 -2.68438 -0.406617 0
M  V30 8526 C 780.183 -2.86801 2.17425 0
M  V30 8527 C 779.791 -2.58525 3.65881 0
M  V30 8528 C 781.535 -3.64823 2.17036 0
M  V30 8529 C 779.442 -3.82404 4.51133 0
M  V30 8530 H 778.372 -0.596731 0.460899 0
M  V30 8531 H 781.023 -0.926274 1.58406 0
M  V30 8532 H 779.405 -3.54719 1.7604 0
M  V30 8533 H 780.579 -1.98824 4.15699 0
M  V30 8534 H 778.894 -1.93808 3.68548 0
M  V30 8535 H 781.491 -4.56774 2.7796 0
M  V30 8536 H 781.834 -3.99663 1.16513 0
M  V30 8537 H 782.367 -3.03826 2.56777 0
M  V30 8538 H 779.106 -3.52696 5.52527 0
M  V30 8539 H 778.626 -4.41447 4.0606 0
M  V30 8540 H 780.305 -4.49995 4.6488 0
M  V30 8541 N 780.437 -1.16799 -1.0581 0
M  V30 8542 C 781.685 -0.950642 -1.78346 0
M  V30 8543 C 782.006 0.522524 -1.87869 0
M  V30 8544 O 781.276 1.3795 -1.39092 0
M  V30 8545 H 779.856 -0.348736 -0.6606 0
M  V30 8546 H 782.518 -1.47158 -1.27791 0
M  V30 8547 H 781.614 -1.37359 -2.80248 0
M  V30 8548 N 781.915 1.24427 -0.967243 0
M  V30 8549 C 783.192 1.87831 -0.545776 0
M  V30 8550 C 783.572 1.87126 0.977099 0
M  V30 8551 O 782.92 1.34357 1.84826 0
M  V30 8552 C 783.13 3.29967 -1.13679 0
M  V30 8553 C 784.478 4.06654 -1.22139 0
M  V30 8554 O 785.502 3.39136 -1.08926 0
M  V30 8555 O 784.361 5.27455 -1.43017 0
M  V30 8556 H 781.455 0.806745 -0.181912 0
M  V30 8557 H 784.001 1.32403 -1.06148 0
M  V30 8558 H 782.773 3.24977 -2.17958 0
M  V30 8559 H 782.396 3.92969 -0.605093 0
M  V30 8560 N 783.393 0.737304 1.3929 0
M  V30 8561 C 784.809 0.413132 1.5416 0
M  V30 8562 C 785.009 -1.07574 1.70382 0
M  V30 8563 O 784.065 -1.86185 1.70562 0
M  V30 8564 C 785.378 1.19817 2.75798 0
M  V30 8565 C 786.926 1.18662 2.89635 0
M  V30 8566 C 787.401 1.95427 4.14213 0
M  V30 8567 N 788.892 1.92605 4.21257 0
M  V30 8568 C 789.627 2.48808 5.16606 0
M  V30 8569 N 789.123 3.13659 6.1773 0
M  V30 8570 N 790.916 2.38829 5.08839 0
M  V30 8571 H 783.067 1.70243 1.27008 0
M  V30 8572 H 785.33 0.720802 0.61575 0
M  V30 8573 H 785.036 2.25179 2.70161 0
M  V30 8574 H 784.91 0.804144 3.68529 0
M  V30 8575 H 787.297 0.141112 2.94762 0
M  V30 8576 H 787.378 1.62003 1.97961 0
M  V30 8577 H 787.022 2.9998 4.09847 0
M  V30 8578 H 786.952 1.4949 5.04936 0
M  V30 8579 H 789.443 1.45362 3.48824 0
M  V30 8580 H 789.756 3.54006 6.8695 0
M  V30 8581 H 788.101 3.17749 6.1811 0
M  V30 8582 H 791.292 1.87806 4.28773 0
M  V30 8583 H 791.465 2.82929 5.82971 0
M  V30 8584 N 784.871 -1.49948 0.485112 0
M  V30 8585 C 786.119 -2.01996 -0.0648775 0
M  V30 8586 C 786.44 -1.36819 -1.38945 0
M  V30 8587 O 785.71 -0.518163 -1.88923 0
M  V30 8588 H 784.29 -0.746513 -0.0269662 0
M  V30 8589 H 786.952 -1.84136 0.638733 0
M  V30 8590 H 786.048 -3.11418 -0.20617 0
M  V30 8591 N 786.349 -0.21828 -1.56081 0
M  V30 8592 C 787.577 0.419258 -2.02608 0
M  V30 8593 C 787.992 1.53578 -1.09814 0
M  V30 8594 O 787.349 1.82185 -0.107149 0
M  V30 8595 C 787.4 0.953955 -3.48686 0
M  V30 8596 O 787.121 -0.11805 -4.37941 0
M  V30 8597 C 788.622 1.66506 -4.10841 0
M  V30 8598 H 785.842 0.10296 -0.663054 0
M  V30 8599 H 788.386 -0.333776 -2.01758 0
M  V30 8600 H 786.541 1.65727 -3.50162 0
M  V30 8601 H 786.955 0.283359 -5.23734 0
M  V30 8602 H 788.429 1.99123 -5.14834 0
M  V30 8603 H 788.906 2.57705 -3.55647 0
M  V30 8604 H 789.512 1.00703 -4.13206 0
M  V30 8605 N 787.827 1.57504 0.0551401 0
M  V30 8606 C 789.055 1.92294 0.76358 0
M  V30 8607 C 789.47 0.815774 1.70266 0
M  V30 8608 O 788.827 -0.209772 1.8129 0
M  V30 8609 C 788.878 3.26914 1.54302 0
M  V30 8610 O 788.599 4.33375 0.641666 0
M  V30 8611 C 790.1 3.75825 2.35097 0
M  V30 8612 H 787.32 0.635229 0.216159 0
M  V30 8613 H 789.864 2.0449 0.0204385 0
M  V30 8614 H 788.019 3.16196 2.23828 0
M  V30 8615 H 788.433 5.10927 1.1855 0
M  V30 8616 H 789.907 4.72603 2.8522 0
M  V30 8617 H 790.384 3.0568 3.15367 0
M  V30 8618 H 790.99 3.89542 1.70696 0
M  V30 8619 N 789.305 -0.326896 1.54172 0
M  V30 8620 C 790.235 -1.40741 1.86317 0
M  V30 8621 C 791.216 -1.54125 0.719684 0
M  V30 8622 O 792.401 -1.6806 0.973117 0
M  V30 8623 C 789.531 -2.77557 2.08757 0
M  V30 8624 C 788.485 -2.78965 3.24596 0
M  V30 8625 C 787.811 -4.18824 3.32401 0
M  V30 8626 C 789.111 -2.4301 4.62324 0
M  V30 8627 H 790.805 -1.14088 2.76811 0
M  V30 8628 H 788.351 -0.547389 1.3319 0
M  V30 8629 H 790.304 -3.53209 2.29829 0
M  V30 8630 H 789.028 -3.0568 1.15009 0
M  V30 8631 H 787.687 -2.05767 3.03406 0
M  V30 8632 H 787.335 -4.44083 2.36218 0
M  V30 8633 H 787.035 -4.20673 4.10253 0
M  V30 8634 H 788.559 -4.96294 3.55703 0
M  V30 8635 H 789.973 -3.08375 4.83299 0
M  V30 8636 H 788.37 -2.56116 5.42701 0
M  V30 8637 H 789.44 -1.38165 4.64799 0
M  V30 8638 N 790.784 -1.46188 -0.588786 0
M  V30 8639 C 792.009 -1.5498 -1.37826 0
M  V30 8640 C 792.434 -0.189498 -1.87143 0
M  V30 8641 O 791.792 0.829293 -1.61222 0
M  V30 8642 C 791.84 -2.55369 -2.54596 0
M  V30 8643 O 790.944 -2.08452 -3.55839 0
M  V30 8644 H 790.285 -0.521741 -0.41071 0
M  V30 8645 H 792.815 -1.91708 -0.714779 0
M  V30 8646 H 792.825 -2.74782 -3.01594 0
M  V30 8647 H 791.5 -3.54155 -2.18052 0
M  V30 8648 H 790.077 -1.98999 -3.15363 0
M  V30 8649 N 792.262 0.832906 -1.33792 0
M  V30 8650 C 793.51 1.58539 -1.25338 0
M  V30 8651 C 793.831 1.94175 0.179204 0
M  V30 8652 O 793.101 1.61458 1.10941 0
M  V30 8653 H 791.681 0.58784 -0.460926 0
M  V30 8654 H 794.343 0.995064 -1.67584 0
M  V30 8655 H 793.439 2.51268 -1.85123 0
M  V30 8656 N 793.74 1.17359 1.05189 0
M  V30 8657 C 794.988 0.960087 1.77839 0
M  V30 8658 C 795.309 -0.512554 1.88143 0
M  V30 8659 O 794.579 -1.3721 1.39822 0
M  V30 8660 H 793.159 0.352234 0.658741 0
M  V30 8661 H 795.821 1.47834 1.27008 0
M  V30 8662 H 794.917 1.38843 2.79516 0
M  V30 8663 N 795.218 -1.23913 0.973828 0
M  V30 8664 C 796.15 -2.24397 0.466763 0
M  V30 8665 C 797.163 -1.57078 -0.427828 0
M  V30 8666 O 798.352 -1.76973 -0.233019 0
M  V30 8667 C 795.452 -3.37141 -0.344798 0
M  V30 8668 C 794.625 -4.34037 0.541349 0
M  V30 8669 C 793.684 -5.2576 -0.215243 0
M  V30 8670 O 792.71 -5.67842 0.39291 0
M  V30 8671 N 793.912 -5.60702 -1.5031 0
M  V30 8672 H 796.677 -2.68536 1.33074 0
M  V30 8673 H 794.238 -1.38017 0.846346 0
M  V30 8674 H 796.23 -3.95476 -0.859133 0
M  V30 8675 H 794.8 -2.92239 -1.10974 0
M  V30 8676 H 794.02 -3.74302 1.23659 0
M  V30 8677 H 795.308 -4.95738 1.1455 0
M  V30 8678 H 794.706 -5.28451 -2.01882 0
M  V30 8679 H 793.263 -6.21538 -1.96301 0
M  V30 8680 N 796.696 -0.74468 -1.38897 0
M  V30 8681 C 797.643 -0.111064 -2.30533 0
M  V30 8682 C 798.613 0.719276 -1.49719 0
M  V30 8683 O 799.798 0.677244 -1.78376 0
M  V30 8684 C 796.938 0.78292 -3.36102 0
M  V30 8685 C 796.051 -0.0610817 -4.31957 0
M  V30 8686 C 795.186 0.835075 -5.24595 0
M  V30 8687 C 794.225 -0.0130974 -6.12099 0
M  V30 8688 N 793.362 0.839525 -6.97063 0
M  V30 8689 H 798.202 -0.898113 -2.84144 0
M  V30 8690 H 795.739 -0.454537 -1.39901 0
M  V30 8691 H 797.697 1.31578 -3.95908 0
M  V30 8692 H 796.327 1.53585 -2.83922 0
M  V30 8693 H 795.379 -0.711469 -3.73687 0
M  V30 8694 H 796.691 -0.716482 -4.93627 0
M  V30 8695 H 795.845 1.43542 -5.89475 0
M  V30 8696 H 794.584 1.52423 -4.63269 0
M  V30 8697 H 793.589 -0.626179 -5.46223 0
M  V30 8698 H 794.814 -0.699181 -6.75491 0
M  V30 8699 H 792.76 1.5138 -6.38295 0
M  V30 8700 H 792.677 0.240823 -7.55616 0
M  V30 8701 H 793.945 1.42513 -7.66362 0
M  V30 8702 N 798.174 1.49689 -0.493057 0
M  V30 8703 C 799.137 2.27502 0.278485 0
M  V30 8704 C 800.137 1.33184 0.901037 0
M  V30 8705 O 801.327 1.56415 0.766801 0
M  V30 8706 C 798.459 3.10881 1.39878 0
M  V30 8707 H 799.652 2.97163 -0.404219 0
M  V30 8708 H 797.205 1.54324 -0.247774 0
M  V30 8709 H 797.94 2.45767 2.11587 0
M  V30 8710 H 797.725 3.80219 0.957924 0
M  V30 8711 H 799.215 3.69673 1.94247 0
M  V30 8712 N 799.652 0.226554 1.55963 0
M  V30 8713 C 801.068 -0.128733 1.5908 0
M  V30 8714 C 801.268 -1.58558 1.24345 0
M  V30 8715 O 800.324 -2.32661 0.981069 0
M  V30 8716 C 801.637 0.202076 3.0002 0
M  V30 8717 C 803.185 0.144718 3.12665 0
M  V30 8718 C 803.66 0.449272 4.55791 0
M  V30 8719 N 805.151 0.399026 4.61478 0
M  V30 8720 C 805.886 0.608106 5.70166 0
M  V30 8721 N 805.382 0.879227 6.87198 0
M  V30 8722 N 807.175 0.5402 5.59498 0
M  V30 8723 H 799.326 1.17686 1.76816 0
M  V30 8724 H 801.589 0.472072 0.822102 0
M  V30 8725 H 801.295 1.21341 3.30105 0
M  V30 8726 H 801.169 -0.480554 3.74126 0
M  V30 8727 H 803.556 -0.857261 2.82374 0
M  V30 8728 H 803.637 0.860899 2.40878 0
M  V30 8729 H 803.281 1.44871 4.86801 0
M  V30 8730 H 803.211 -0.288157 5.25811 0
M  V30 8731 H 805.702 0.197372 3.77384 0
M  V30 8732 H 806.015 1.02673 7.65949 0
M  V30 8733 H 804.36 0.916477 6.88931 0
M  V30 8734 H 807.551 0.328581 4.66945 0
M  V30 8735 H 807.724 0.706548 6.44137 0
M  V30 8736 N 801.13 -1.57531 -0.0467866 0
M  V30 8737 C 802.376 -1.8873 -0.742218 0
M  V30 8738 C 802.709 -0.822084 -1.75941 0
M  V30 8739 O 801.984 0.164922 -1.938 0
M  V30 8740 C 802.267 -3.30586 -1.42776 0
M  V30 8741 C 802.12 -4.47785 -0.425285 0
M  V30 8742 C 803.439 -3.71068 -2.36636 0
M  V30 8743 H 800.558 -0.686406 -0.268359 0
M  V30 8744 H 803.2 -1.89999 -0.00511341 0
M  V30 8745 H 801.35 -3.29634 -2.05605 0
M  V30 8746 H 803.022 -4.60867 0.199721 0
M  V30 8747 H 801.265 -4.33037 0.25713 0
M  V30 8748 H 801.936 -5.43884 -0.943086 0
M  V30 8749 H 804.412 -3.73273 -1.83866 0
M  V30 8750 H 803.288 -4.71165 -2.81593 0
M  V30 8751 H 803.549 -3.02355 -3.22542 0
M  V30 8752 N 802.608 0.318715 -1.54344 0
M  V30 8753 C 803.556 1.41254 -1.84798 0
M  V30 8754 C 804.55 1.53325 -0.720256 0
M  V30 8755 O 805.756 1.55653 -0.903992 0
M  V30 8756 H 802.131 0.471468 -0.585851 0
M  V30 8757 H 804.102 1.12795 -2.7626 0
M  V30 8758 C 802.851 2.77395 -2.09637 0
M  V30 8759 H 802.174 2.68881 -2.95876 0
M  V30 8760 H 803.614 3.52987 -2.34896 0
M  V30 8761 C 802.073 3.24948 -0.889398 0
M  V30 8762 O 802.603 4.01573 -0.101063 0
M  V30 8763 N 800.809 2.82051 -0.699684 0
M  V30 8764 H 800.356 2.19858 -1.3424 0
M  V30 8765 H 800.314 3.1422 0.106368 0
M  V30 8766 N 804.086 1.46499 0.581025 0
M  V30 8767 C 805.016 1.60052 1.70017 0
M  V30 8768 C 805.997 0.450788 1.64018 0
M  V30 8769 O 807.182 0.677237 1.82009 0
M  V30 8770 C 804.312 1.5921 3.08658 0
M  V30 8771 C 803.266 2.73169 3.29488 0
M  V30 8772 C 802.592 2.57389 4.68674 0
M  V30 8773 C 803.892 4.14978 3.1716 0
M  V30 8774 H 805.586 2.53735 1.5893 0
M  V30 8775 H 803.132 1.22113 0.763173 0
M  V30 8776 H 805.085 1.67285 3.86773 0
M  V30 8777 H 803.809 0.620718 3.20647 0
M  V30 8778 H 802.468 2.64566 2.53773 0
M  V30 8779 H 802.116 1.58331 4.77431 0
M  V30 8780 H 801.816 3.33826 4.83564 0
M  V30 8781 H 803.34 2.67358 5.48956 0
M  V30 8782 H 804.754 4.24684 3.85119 0
M  V30 8783 H 803.151 4.92016 3.4357 0
M  V30 8784 H 804.221 4.35016 2.14218 0
M  V30 8785 N 805.565 -0.825799 1.34232 0
M  V30 8786 C 806.528 -1.91808 1.25468 0
M  V30 8787 C 807.528 -1.59893 0.170567 0
M  V30 8788 O 808.718 -1.68986 0.422996 0
M  V30 8789 C 805.85 -3.27786 0.93644 0
M  V30 8790 H 807.043 -2.01003 2.22571 0
M  V30 8791 H 804.596 -1.01944 1.18479 0
M  V30 8792 H 805.331 -3.24285 -0.0315408 0
M  V30 8793 H 805.116 -3.52333 1.72057 0
M  V30 8794 H 806.606 -4.07782 0.900214 0
M  V30 8795 N 807.043 -1.17915 -1.04565 0
M  V30 8796 C 808.459 -0.927761 -1.29864 0
M  V30 8797 C 808.659 0.409536 -1.97294 0
M  V30 8798 O 807.715 1.14505 -2.25044 0
M  V30 8799 C 809.028 -2.08967 -2.16225 0
M  V30 8800 C 810.576 -2.12741 -2.29587 0
M  V30 8801 C 811.051 -3.28335 -3.19312 0
M  V30 8802 N 812.542 -3.28164 -3.26898 0
M  V30 8803 C 813.277 -4.14249 -3.96466 0
M  V30 8804 N 812.773 -5.10457 -4.68407 0
M  V30 8805 N 814.566 -4.02179 -3.92694 0
M  V30 8806 H 806.717 -2.03983 -0.592011 0
M  V30 8807 H 808.98 -0.891023 -0.323701 0
M  V30 8808 H 808.686 -3.05654 -1.73979 0
M  V30 8809 H 808.56 -2.04606 -3.16885 0
M  V30 8810 H 810.947 -1.16636 -2.71072 0
M  V30 8811 H 811.028 -2.21162 -1.28535 0
M  V30 8812 H 810.672 -4.2471 -2.78539 0
M  V30 8813 H 810.602 -3.17151 -4.20384 0
M  V30 8814 H 813.093 -2.58511 -2.75646 0
M  V30 8815 H 813.406 -5.72526 -5.1907 0
M  V30 8816 H 811.751 -5.14422 -4.67328 0
M  V30 8817 H 814.942 -3.26308 -3.3562 0
M  V30 8818 H 815.115 -4.69486 -4.4664 0
M  V30 8819 N 808.521 1.23394 -0.980386 0
M  V30 8820 C 809.484 2.23092 -0.525619 0
M  V30 8821 C 810.484 1.56129 0.384745 0
M  V30 8822 O 811.674 1.73284 0.178439 0
M  V30 8823 C 808.806 3.40074 0.23712 0
M  V30 8824 H 809.999 2.64839 -1.40714 0
M  V30 8825 H 807.552 1.36227 -0.766275 0
M  V30 8826 H 808.287 3.03783 1.13518 0
M  V30 8827 H 808.072 3.89883 -0.416356 0
M  V30 8828 H 809.562 4.14043 0.543892 0
M  V30 8829 N 809.999 0.752036 1.385 0
M  V30 8830 C 811.245 0.307958 2.00448 0
M  V30 8831 C 811.578 -1.10702 1.59558 0
M  V30 8832 O 810.853 -1.75788 0.832391 0
M  V30 8833 C 811.136 0.429092 3.57534 0
M  V30 8834 C 810.989 1.88507 4.08393 0
M  V30 8835 C 812.308 -0.178442 4.39738 0
M  V30 8836 H 809.427 0.113373 0.728228 0
M  V30 8837 H 812.069 0.951389 1.64465 0
M  V30 8838 H 810.219 -0.118695 3.88319 0
M  V30 8839 H 811.891 2.49104 3.88259 0
M  V30 8840 H 810.134 2.40066 3.61318 0
M  V30 8841 H 810.805 1.92099 5.17496 0
M  V30 8842 H 813.281 0.28872 4.15097 0
M  V30 8843 H 812.157 -0.0634349 5.48863 0
M  V30 8844 H 812.418 -1.26655 4.23569 0
M  V30 8845 N 811.477 -1.49425 0.500989 0
M  V30 8846 C 812.707 -2.06561 -0.0402858 0
M  V30 8847 C 813.115 -1.36157 -1.31369 0
M  V30 8848 O 812.458 -0.433618 -1.78509 0
M  V30 8849 C 812.52 -3.5765 -0.364269 0
M  V30 8850 C 812.184 -4.49739 0.811417 0
M  V30 8851 C 813.181 -4.91255 1.7019 0
M  V30 8852 C 810.866 -4.92036 1.01022 0
M  V30 8853 C 812.86 -5.73806 2.77534 0
M  V30 8854 C 810.547 -5.74364 2.08683 0
M  V30 8855 C 811.545 -6.15154 2.96774 0
M  V30 8856 O 811.233 -6.95836 4.02577 0
M  V30 8857 H 810.965 -0.67578 0.0172357 0
M  V30 8858 H 813.519 -1.93193 0.697553 0
M  V30 8859 H 811.749 -3.69026 -1.1557 0
M  V30 8860 H 813.438 -3.97025 -0.844156 0
M  V30 8861 H 814.204 -4.59222 1.56013 0
M  V30 8862 H 810.083 -4.59789 0.333929 0
M  V30 8863 H 813.627 -6.05564 3.4632 0
M  V30 8864 H 809.524 -6.0581 2.22855 0
M  V30 8865 H 810.292 -7.14142 3.9993 0
M  V30 8866 N 812.955 -0.234822 -1.55841 0
M  V30 8867 C 813.887 0.702346 -2.18174 0
M  V30 8868 C 814.9 1.14776 -1.15457 0
M  V30 8869 O 816.089 1.07662 -1.42377 0
M  V30 8870 C 813.189 1.96483 -2.76129 0
M  V30 8871 C 812.362 1.67283 -4.04148 0
M  V30 8872 C 811.421 2.7837 -4.46539 0
M  V30 8873 O 810.447 2.46272 -5.13166 0
M  V30 8874 N 811.649 4.07611 -4.1332 0
M  V30 8875 H 814.414 0.169074 -2.99223 0
M  V30 8876 H 811.975 -0.0543164 -1.61809 0
M  V30 8877 H 813.967 2.70016 -3.01452 0
M  V30 8878 H 812.537 2.40822 -1.99307 0
M  V30 8879 H 811.757 0.773278 -3.86541 0
M  V30 8880 H 813.045 1.45222 -4.87635 0
M  V30 8881 H 812.443 4.36527 -3.59806 0
M  V30 8882 H 811 4.77646 -4.43506 0
M  V30 8883 N 814.433 1.57553 0.0384317 0
M  V30 8884 C 815.71 1.79977 0.766002 0
M  V30 8885 C 816.09 0.830625 1.94072 0
M  V30 8886 O 815.438 -0.129243 2.28134 0
M  V30 8887 C 815.648 3.27434 1.20781 0
M  V30 8888 C 816.996 3.92167 1.62758 0
M  V30 8889 O 818.02 3.31527 1.30263 0
M  V30 8890 O 816.879 4.98917 2.23035 0
M  V30 8891 H 813.973 0.739787 0.369654 0
M  V30 8892 H 816.519 1.69693 0.0159312 0
M  V30 8893 H 815.291 3.89558 0.368792 0
M  V30 8894 H 814.914 3.42571 2.01819 0
M  V30 8895 N 815.911 -0.310526 1.54511 0
M  V30 8896 C 816.874 -1.3657 1.84068 0
M  V30 8897 C 817.874 -1.44123 0.713097 0
M  V30 8898 O 819.064 -1.43924 0.981399 0
M  V30 8899 C 816.196 -2.75162 2.01243 0
M  V30 8900 H 817.389 -1.1161 2.78358 0
M  V30 8901 H 814.942 -0.546699 1.46427 0
M  V30 8902 H 815.677 -3.05359 1.09208 0
M  V30 8903 H 815.462 -2.71071 2.83307 0
M  V30 8904 H 816.952 -3.51473 2.25514 0
M  V30 8905 N 817.389 -1.46805 -0.573248 0
M  V30 8906 C 818.666 -1.43082 -1.33368 0
M  V30 8907 C 819.046 -0.119252 -2.10763 0
M  V30 8908 O 818.394 0.899239 -2.10062 0
M  V30 8909 C 818.604 -2.66643 -2.25172 0
M  V30 8910 C 819.952 -3.13188 -2.86702 0
M  V30 8911 O 820.976 -2.67258 -2.35482 0
M  V30 8912 O 819.835 -3.92994 -3.79761 0
M  V30 8913 H 816.929 -0.569451 -0.599712 0
M  V30 8914 H 819.475 -1.58984 -0.59348 0
M  V30 8915 H 818.247 -3.53649 -1.67475 0
M  V30 8916 H 817.87 -2.53247 -3.06516 0
M  V30 8917 N 818.867 0.818669 -1.34668 0
M  V30 8918 C 820.116 1.57017 -1.26604 0
M  V30 8919 C 820.429 1.94936 0.161036 0
M  V30 8920 O 821.635 2.69051 0.36386 0
M  V30 8921 C 820.091 2.83305 -2.2196 0
M  V30 8922 C 819.699 2.52671 -3.69948 0
M  V30 8923 C 821.443 3.61324 -2.22813 0
M  V30 8924 C 819.35 3.75178 -4.5716 0
M  V30 8925 H 818.28 0.589323 -0.470335 0
M  V30 8926 H 820.931 0.900956 -1.59859 0
M  V30 8927 H 819.313 3.51874 -1.81661 0
M  V30 8928 H 820.487 1.92186 -4.18809 0
M  V30 8929 H 818.802 1.8792 -3.71584 0
M  V30 8930 H 821.399 4.52294 -2.85192 0
M  V30 8931 H 821.742 3.97759 -1.22857 0
M  V30 8932 H 822.275 2.99703 -2.61578 0
M  V30 8933 H 819.014 3.43861 -5.58068 0
M  V30 8934 H 818.534 4.34931 -4.13031 0
M  V30 8935 H 820.213 4.42542 -4.71981 0
M  V30 8936 N 820.346 1.18468 1.03938 0
M  V30 8937 C 821.576 1.0043 1.80547 0
M  V30 8938 C 821.984 -0.450407 1.83761 0
M  V30 8939 O 821.327 -1.32463 1.27276 0
M  V30 8940 C 821.389 1.48437 3.27424 0
M  V30 8941 C 821.053 2.96372 3.47869 0
M  V30 8942 C 822.05 3.94217 3.38953 0
M  V30 8943 C 819.735 3.34831 3.74424 0
M  V30 8944 C 821.729 5.28517 3.56298 0
M  V30 8945 C 819.416 4.69294 3.91416 0
M  V30 8946 C 820.414 5.65946 3.82354 0
M  V30 8947 O 820.102 6.97974 3.98858 0
M  V30 8948 H 819.834 0.354853 0.575374 0
M  V30 8949 H 822.388 1.57473 1.31876 0
M  V30 8950 H 820.618 0.857601 3.7707 0
M  V30 8951 H 822.307 1.2677 3.85596 0
M  V30 8952 H 823.073 3.6585 3.184 0
M  V30 8953 H 818.952 2.60161 3.80575 0
M  V30 8954 H 822.496 6.03943 3.49141 0
M  V30 8955 H 818.393 4.97361 4.11463 0
M  V30 8956 H 819.161 7.04895 4.1601 0
M  V30 8957 N 821.824 -1.22873 0.986916 0
M  V30 8958 C 822.754 -2.2688 0.552064 0
M  V30 8959 C 823.735 -1.64883 -0.418048 0
M  V30 8960 O 824.92 -1.9171 -0.30999 0
M  V30 8961 C 822.05 -3.47018 -0.139959 0
M  V30 8962 C 821.004 -4.21411 0.748091 0
M  V30 8963 C 820.33 -5.34645 -0.0765132 0
M  V30 8964 C 821.63 -4.80726 2.04206 0
M  V30 8965 H 823.324 -2.63507 1.42143 0
M  V30 8966 H 820.87 -1.26668 0.68492 0
M  V30 8967 H 822.823 -4.18931 -0.455527 0
M  V30 8968 H 821.547 -3.0947 -1.04382 0
M  V30 8969 H 820.206 -3.51325 1.04721 0
M  V30 8970 H 819.854 -4.93339 -0.981109 0
M  V30 8971 H 819.554 -5.85342 0.514606 0
M  V30 8972 H 821.078 -6.09377 -0.386313 0
M  V30 8973 H 822.492 -5.44612 1.79083 0
M  V30 8974 H 820.889 -5.41737 2.5815 0
M  V30 8975 H 821.959 -4.01109 2.72469 0
M  V30 8976 N 823.302 -0.75937 -1.38099 0
M  V30 8977 C 824.232 -0.151077 -2.33011 0
M  V30 8978 C 825.213 0.697099 -1.5516 0
M  V30 8979 O 826.398 0.637101 -1.83452 0
M  V30 8980 C 823.528 0.738423 -3.39359 0
M  V30 8981 C 822.482 -0.0074741 -4.27999 0
M  V30 8982 C 821.808 1.00066 -5.25253 0
M  V30 8983 C 823.108 -1.17926 -5.08813 0
M  V30 8984 H 824.802 -0.943933 -2.84131 0
M  V30 8985 H 822.348 -0.455362 -1.36611 0
M  V30 8986 H 824.301 1.17369 -4.04725 0
M  V30 8987 H 823.025 1.56366 -2.86735 0
M  V30 8988 H 821.684 -0.423379 -3.64147 0
M  V30 8989 H 821.332 1.82012 -4.68914 0
M  V30 8990 H 821.032 0.506199 -5.85416 0
M  V30 8991 H 822.556 1.43512 -5.93495 0
M  V30 8992 H 823.97 -0.821262 -5.67387 0
M  V30 8993 H 822.367 -1.60497 -5.78239 0
M  V30 8994 H 823.437 -1.98938 -4.42212 0
M  V30 8995 N 824.78 1.49157 -0.508906 0
M  V30 8996 C 826.057 1.95363 0.0961913 0
M  V30 8997 C 826.437 1.45064 1.53362 0
M  V30 8998 O 825.785 0.667835 2.18523 0
M  V30 8999 C 825.995 3.49 0.000688881 0
M  V30 9000 C 827.343 4.24257 0.170632 0
M  V30 9001 O 828.367 3.5612 0.0754994 0
M  V30 9002 O 827.226 5.45267 0.366957 0
M  V30 9003 H 824.32 0.821984 0.0909489 0
M  V30 9004 H 826.866 1.59769 -0.572007 0
M  V30 9005 H 825.638 3.78269 -1.00143 0
M  V30 9006 H 825.261 3.91233 0.708682 0
M  V30 9007 N 826.258 0.243083 1.55714 0
M  V30 9008 C 827.535 -0.432851 1.90751 0
M  V30 9009 C 827.915 -1.76153 1.16333 0
M  V30 9010 O 827.263 -2.26783 0.279565 0
M  V30 9011 C 827.473 -0.604685 3.43722 0
M  V30 9012 C 828.821 -0.90231 4.14902 0
M  V30 9013 O 829.845 -0.690689 3.49439 0
M  V30 9014 O 828.704 -1.3051 5.30688 0
M  V30 9015 H 825.798 -0.231835 0.79384 0
M  V30 9016 H 828.344 0.286867 1.67258 0
M  V30 9017 H 827.116 0.331655 3.89892 0
M  V30 9018 H 826.739 -1.37509 3.73065 0
M  V30 9019 N 827.736 -1.57571 -0.0300757 0
M  V30 9020 C 829.147 -1.77567 -0.576802 0
M  V30 9021 C 829.498 -0.874034 -1.75656 0
M  V30 9022 O 828.623 -0.0686124 -2.16291 0
M  V30 9023 C 829.218 -3.22016 -1.05315 0
M  V30 9024 C 827.777 -3.43212 -1.5454 0
M  V30 9025 C 826.924 -2.73061 -0.483033 0
M  V30 9026 H 829.875 -1.57483 0.196151 0
M  V30 9027 H 829.896 -3.28474 -1.92055 0
M  V30 9028 H 829.408 -3.87613 -0.194298 0
M  V30 9029 H 827.509 -2.82788 -2.42615 0
M  V30 9030 H 827.622 -4.5182 -1.5936 0
M  V30 9031 H 825.986 -2.36805 -0.937835 0
M  V30 9032 H 826.769 -3.4134 0.366341 0
M  V30 9033 N 829.214 0.302327 -1.54673 0
M  V30 9034 C 830.144 1.37759 -1.88533 0
M  V30 9035 C 831.125 1.52961 -0.744113 0
M  V30 9036 O 832.31 1.6649 -0.999731 0
M  V30 9037 C 829.44 2.74201 -2.13146 0
M  V30 9038 C 828.394 2.73765 -3.28993 0
M  V30 9039 C 827.72 4.13483 -3.39022 0
M  V30 9040 C 829.02 2.35624 -4.66132 0
M  V30 9041 H 830.714 1.0967 -2.78591 0
M  V30 9042 H 828.26 0.52613 -1.34044 0
M  V30 9043 H 830.213 3.49508 -2.35419 0
M  V30 9044 H 828.937 3.03812 -1.19858 0
M  V30 9045 H 827.596 2.00914 -3.06642 0
M  V30 9046 H 827.244 4.40269 -2.43253 0
M  V30 9047 H 826.944 4.14093 -4.16894 0
M  V30 9048 H 828.468 4.90572 -3.63553 0
M  V30 9049 H 829.882 3.00647 -4.88143 0
M  V30 9050 H 828.279 2.47449 -5.46707 0
M  V30 9051 H 829.349 1.30753 -4.66939 0
M  V30 9052 N 830.692 1.47107 0.565454 0
M  V30 9053 C 831.917 1.57153 1.35343 0
M  V30 9054 C 832.342 0.219247 1.86818 0
M  V30 9055 O 831.7 -0.803539 1.62521 0
M  V30 9056 C 831.748 2.59387 2.50501 0
M  V30 9057 O 830.852 2.14086 3.52478 0
M  V30 9058 H 830.193 0.528209 0.402357 0
M  V30 9059 H 832.723 1.92821 0.684189 0
M  V30 9060 H 832.733 2.79546 2.97184 0
M  V30 9061 H 831.408 3.57579 2.12391 0
M  V30 9062 H 829.985 2.03991 3.12157 0
M  V30 9063 N 832.17 -0.811516 1.35101 0
M  V30 9064 C 833.133 -1.90467 1.27495 0
M  V30 9065 C 834.133 -1.59703 0.187516 0
M  V30 9066 O 835.323 -1.68528 0.440896 0
M  V30 9067 C 832.455 -3.26774 0.971154 0
M  V30 9068 H 833.648 -1.98631 2.2469 0
M  V30 9069 H 831.201 -1.00681 1.19553 0
M  V30 9070 H 831.936 -3.243 0.0028557 0
M  V30 9071 H 831.721 -3.50488 1.75785 0
M  V30 9072 H 833.211 -4.06804 0.943414 0
M  V30 9073 N 833.648 -1.19017 -1.03309 0
M  V30 9074 C 834.894 -0.991681 -1.769 0
M  V30 9075 C 835.227 0.476813 -1.88255 0
M  V30 9076 O 834.502 1.35407 -1.39625 0
M  V30 9077 C 834.785 -1.65627 -3.19749 0
M  V30 9078 C 834.638 -3.19813 -3.1629 0
M  V30 9079 C 835.957 -1.37579 -4.18043 0
M  V30 9080 H 833.076 -0.361674 -0.642153 0
M  V30 9081 H 835.718 -1.46795 -1.20628 0
M  V30 9082 H 833.868 -1.25132 -3.67796 0
M  V30 9083 H 835.54 -3.69494 -2.76174 0
M  V30 9084 H 833.783 -3.51578 -2.54117 0
M  V30 9085 H 834.454 -3.61457 -4.17196 0
M  V30 9086 H 836.93 -1.72679 -3.78578 0
M  V30 9087 H 835.806 -1.86636 -5.16196 0
M  V30 9088 H 836.067 -0.300118 -4.4108 0
M  V30 9089 N 835.127 1.22348 -0.993418 0
M  V30 9090 C 836.404 1.86632 -0.585495 0
M  V30 9091 C 836.784 1.89156 0.937187 0
M  V30 9092 O 836.132 1.38247 1.81934 0
M  V30 9093 C 836.342 3.27481 -1.20652 0
M  V30 9094 C 837.69 4.03971 -1.30738 0
M  V30 9095 O 838.714 3.3675 -1.16096 0
M  V30 9096 O 837.573 5.24302 -1.54173 0
M  V30 9097 H 834.667 0.802704 -0.198984 0
M  V30 9098 H 837.213 1.30122 -1.08933 0
M  V30 9099 H 835.985 3.20281 -2.24802 0
M  V30 9100 H 835.608 3.91597 -0.688312 0
M  V30 9101 N 836.605 0.766683 1.37694 0
M  V30 9102 C 837.568 0.155849 2.2867 0
M  V30 9103 C 838.568 -0.633509 1.47795 0
M  V30 9104 O 839.758 -0.457844 1.68076 0
M  V30 9105 C 836.89 -0.786965 3.31692 0
M  V30 9106 H 838.083 0.957748 2.84196 0
M  V30 9107 H 835.636 0.534554 1.46875 0
M  V30 9108 H 836.371 -1.61406 2.8128 0
M  V30 9109 H 836.156 -0.223182 3.91464 0
M  V30 9110 H 837.646 -1.20994 3.99688 0
M  V30 9111 N 838.083 -1.48885 0.516809 0
M  V30 9112 C 838.993 -2.33185 -0.257293 0
M  V30 9113 C 840.009 -1.4565 -0.951952 0
M  V30 9114 O 841.185 -1.78651 -0.929834 0
M  V30 9115 C 838.25 -3.21465 -1.29851 0
M  V30 9116 C 837.311 -4.24863 -0.615608 0
M  V30 9117 C 836.544 -5.08925 -1.60722 0
M  V30 9118 O 836.767 -4.9475 -2.83863 0
M  V30 9119 O 835.701 -5.90737 -1.15384 0
M  V30 9120 H 839.527 -3.00596 0.433131 0
M  V30 9121 H 837.112 -1.46792 0.277908 0
M  V30 9122 H 838.994 -3.76108 -1.90055 0
M  V30 9123 H 837.669 -2.5673 -1.97158 0
M  V30 9124 H 836.576 -3.74091 0.0265829 0
M  V30 9125 H 837.909 -4.92198 0.0152871 0
M  V30 9126 N 839.561 -0.251338 -1.55583 0
M  V30 9127 C 840.807 0.37272 -1.99346 0
M  V30 9128 C 841.14 1.57266 -1.13934 0
M  V30 9129 O 840.415 1.9343 -0.20377 0
M  V30 9130 C 840.698 0.778245 -3.5159 0
M  V30 9131 C 840.551 -0.427394 -4.47765 0
M  V30 9132 C 841.87 1.62358 -4.09057 0
M  V30 9133 H 838.989 0.134002 -0.724715 0
M  V30 9134 H 841.631 -0.353536 -1.86682 0
M  V30 9135 H 839.781 1.39704 -3.62512 0
M  V30 9136 H 841.453 -1.06586 -4.48818 0
M  V30 9137 H 839.696 -1.06972 -4.20404 0
M  V30 9138 H 840.367 -0.10025 -5.51909 0
M  V30 9139 H 842.843 1.1012 -4.01264 0
M  V30 9140 H 841.719 1.87617 -5.1584 0
M  V30 9141 H 841.98 2.59688 -3.57791 0
M  V30 9142 N 841.039 1.57585 0.0217189 0
M  V30 9143 C 842.264 1.94267 0.726309 0
M  V30 9144 C 842.689 0.851904 1.67703 0
M  V30 9145 O 842.047 -0.191792 1.80283 0
M  V30 9146 C 842.095 3.30023 1.45318 0
M  V30 9147 O 841.199 3.22791 2.5667 0
M  V30 9148 H 840.54 0.634777 0.194818 0
M  V30 9149 H 843.07 2.04585 -0.0249985 0
M  V30 9150 H 843.08 3.65084 1.82147 0
M  V30 9151 H 841.755 4.08972 0.755962 0
M  V30 9152 H 840.332 2.99373 2.2233 0
M  V30 9153 N 842.517 -0.29412 1.54831 0
M  V30 9154 C 843.933 -0.640167 1.46199 0
M  V30 9155 C 844.133 -1.90426 0.658798 0
M  V30 9156 O 843.189 -2.51932 0.169228 0
M  V30 9157 C 844.502 -0.786763 2.90225 0
M  V30 9158 C 846.05 -0.882201 3.0031 0
M  V30 9159 C 846.525 -1.06074 4.45547 0
M  V30 9160 N 848.016 -1.12678 4.49286 0
M  V30 9161 C 848.751 -1.28334 5.58854 0
M  V30 9162 N 848.247 -1.40845 6.78332 0
M  V30 9163 N 850.04 -1.31277 5.46555 0
M  V30 9164 H 842.191 0.536334 2.05517 0
M  V30 9165 H 844.454 0.178363 0.93107 0
M  V30 9166 H 844.16 0.0713018 3.51628 0
M  V30 9167 H 844.034 -1.67364 3.38037 0
M  V30 9168 H 846.421 -1.73075 2.39017 0
M  V30 9169 H 846.502 0.0288405 2.55784 0
M  V30 9170 H 846.146 -0.216935 5.07437 0
M  V30 9171 H 846.076 -1.98611 4.8771 0
M  V30 9172 H 848.567 -1.04335 3.63212 0
M  V30 9173 H 848.88 -1.52566 7.57591 0
M  V30 9174 H 847.225 -1.37888 6.81184 0
M  V30 9175 H 850.416 -1.2112 4.52159 0
M  V30 9176 H 850.589 -1.43136 6.31994 0
M  V30 9177 N 843.995 -1.47404 -0.557645 0
M  V30 9178 C 844.945 -1.56267 -1.66026 0
M  V30 9179 C 845.929 -0.42161 -1.55278 0
M  V30 9180 O 847.121 -0.671505 -1.63768 0
M  V30 9181 C 844.25 -1.57958 -3.04802 0
M  V30 9182 C 843.336 -2.77447 -3.20755 0
M  V30 9183 N 843.727 -4.02148 -3.06775 0
M  V30 9184 C 842.025 -2.74199 -3.51754 0
M  V30 9185 C 842.726 -4.82168 -3.25406 0
M  V30 9186 N 841.702 -4.14481 -3.5172 0
M  V30 9187 H 845.504 -2.50454 -1.53785 0
M  V30 9188 H 843.018 -1.43392 -0.762388 0
M  V30 9189 H 845.015 -1.62397 -3.8397 0
M  V30 9190 H 843.675 -0.648667 -3.18155 0
M  V30 9191 H 844.686 -4.33014 -2.84111 0
M  V30 9192 H 841.363 -1.90243 -3.71637 0
M  V30 9193 H 842.753 -5.91037 -3.19569 0
M  V30 9194 N 845.473 0.80434 -1.35529 0
M  V30 9195 C 846.403 1.93086 -1.31301 0
M  V30 9196 C 847.384 1.69068 -0.187044 0
M  V30 9197 O 848.569 1.90399 -0.382359 0
M  V30 9198 C 845.699 3.29867 -1.0865 0
M  V30 9199 C 844.653 3.68373 -2.17911 0
M  V30 9200 C 843.979 5.0334 -1.80423 0
M  V30 9201 C 845.279 3.78516 -3.59893 0
M  V30 9202 H 846.973 1.96882 -2.25561 0
M  V30 9203 H 844.519 0.945841 -1.08581 0
M  V30 9204 H 846.472 4.08281 -1.04331 0
M  V30 9205 H 845.196 3.2642 -0.108359 0
M  V30 9206 H 843.855 2.92247 -2.21331 0
M  V30 9207 H 843.503 4.96399 -0.812213 0
M  V30 9208 H 843.203 5.30074 -2.53565 0
M  V30 9209 H 844.727 5.84191 -1.77633 0
M  V30 9210 H 846.141 4.47155 -3.58783 0
M  V30 9211 H 844.538 4.16721 -4.31814 0
M  V30 9212 H 845.608 2.8001 -3.95882 0
M  V30 9213 N 846.951 1.19563 1.02676 0
M  V30 9214 C 848.198 0.999568 1.7611 0
M  V30 9215 C 848.526 -0.469432 1.8875 0
M  V30 9216 O 847.781 -1.36481 1.40255 0
M  V30 9217 C 848.08 1.61619 3.18769 0
M  V30 9218 C 847.746 3.11366 3.26132 0
M  V30 9219 C 846.408 3.52234 3.27848 0
M  V30 9220 C 848.76 4.07374 3.25109 0
M  V30 9221 C 846.088 4.87658 3.26201 0
M  V30 9222 C 848.44 5.42731 3.25002 0
M  V30 9223 C 847.104 5.83027 3.25017 0
M  V30 9224 H 846.374 0.365768 0.644434 0
M  V30 9225 H 849.021 1.48838 1.20497 0
M  V30 9226 H 847.326 1.04974 3.77476 0
M  V30 9227 H 849.023 1.43975 3.74262 0
M  V30 9228 H 845.613 2.78804 3.25525 0
M  V30 9229 H 849.797 3.76842 3.22961 0
M  V30 9230 H 845.053 5.18156 3.24537 0
M  V30 9231 H 849.227 6.16879 3.23161 0
M  V30 9232 H 846.854 6.87936 3.23494 0
M  V30 9233 N 848.429 -1.21819 0.999893 0
M  V30 9234 C 849.339 -2.27691 0.565159 0
M  V30 9235 C 850.355 -1.69587 -0.389398 0
M  V30 9236 O 851.531 -1.99786 -0.254499 0
M  V30 9237 C 848.596 -3.46537 -0.106432 0
M  V30 9238 C 847.657 -4.19932 0.891964 0
M  V30 9239 C 846.89 -5.33103 0.252327 0
M  V30 9240 O 847.113 -5.62398 -0.952103 0
M  V30 9241 O 846.047 -5.94184 0.960698 0
M  V30 9242 H 849.873 -2.67059 1.44613 0
M  V30 9243 H 847.458 -1.28119 0.768499 0
M  V30 9244 H 849.34 -4.18631 -0.482301 0
M  V30 9245 H 848.015 -3.09079 -0.961865 0
M  V30 9246 H 846.922 -3.5008 1.3189 0
M  V30 9247 H 848.255 -4.61287 1.71682 0
M  V30 9248 N 849.908 -0.773975 -1.37286 0
M  V30 9249 C 850.838 -0.175782 -2.32837 0
M  V30 9250 C 851.819 0.680603 -1.5589 0
M  V30 9251 O 853.004 0.617607 -1.84117 0
M  V30 9252 C 850.134 0.702388 -3.40123 0
M  V30 9253 C 849.088 -0.0528687 -4.27967 0
M  V30 9254 C 848.414 0.944891 -5.26285 0
M  V30 9255 C 849.714 -1.23316 -5.07534 0
M  V30 9256 H 851.408 -0.974016 -2.83114 0
M  V30 9257 H 848.954 -0.469826 -1.3612 0
M  V30 9258 H 850.907 1.13069 -4.05947 0
M  V30 9259 H 849.631 1.53316 -2.88378 0
M  V30 9260 H 848.29 -0.461978 -3.63678 0
M  V30 9261 H 847.938 1.77028 -4.70819 0
M  V30 9262 H 847.638 0.444079 -5.8592 0
M  V30 9263 H 849.162 1.37209 -5.94984 0
M  V30 9264 H 850.576 -0.881395 -5.66484 0
M  V30 9265 H 848.973 -1.66621 -5.76504 0
M  V30 9266 H 850.043 -2.03617 -4.40077 0
M  V30 9267 N 851.386 1.48609 -0.524698 0
M  V30 9268 C 852.626 2.04398 0.00938367 0
M  V30 9269 C 852.99 1.39355 1.32077 0
M  V30 9270 O 854.191 1.86 1.94055 0
M  V30 9271 C 852.462 3.57148 0.134318 0
M  V30 9272 S 854.021 4.34409 0.619227 0
M  V30 9273 H 850.839 0.710936 -0.00953362 0
M  V30 9274 H 853.441 1.82382 -0.704058 0
M  V30 9275 H 852.145 4.02022 -0.825027 0
M  V30 9276 H 851.676 3.83607 0.872296 0
M  V30 9277 H 853.691 4.59017 1.88462 0
M  V30 9278 N 852.864 0.259585 1.55447 0
M  V30 9279 C 854.113 -0.362163 1.98422 0
M  V30 9280 C 854.426 -1.58135 1.1512 0
M  V30 9281 O 855.632 -2.27506 1.48166 0
M  V30 9282 C 854.088 -0.695722 3.53111 0
M  V30 9283 C 853.696 0.502784 4.4517 0
M  V30 9284 C 855.44 -1.28096 4.04712 0
M  V30 9285 C 853.347 0.144674 5.91223 0
M  V30 9286 H 852.277 -0.139092 0.74106 0
M  V30 9287 H 854.928 0.361798 1.79898 0
M  V30 9288 H 853.31 -1.47816 3.67378 0
M  V30 9289 H 854.484 1.27994 4.42667 0
M  V30 9290 H 852.799 1.0038 4.0412 0
M  V30 9291 H 855.396 -1.56243 5.11363 0
M  V30 9292 H 855.739 -2.20969 3.52815 0
M  V30 9293 H 856.272 -0.561146 3.93822 0
M  V30 9294 H 853.011 1.04087 6.47183 0
M  V30 9295 H 852.531 -0.596023 5.96831 0
M  V30 9296 H 854.21 -0.268651 6.46442 0
M  V30 9297 N 854.342 -1.57594 -0.0133615 0
M  V30 9298 C 855.582 -1.91834 -0.705639 0
M  V30 9299 C 855.946 -0.859801 -1.71672 0
M  V30 9300 O 857.147 -1.08702 -2.4584 0
M  V30 9301 C 855.418 -3.31174 -1.34383 0
M  V30 9302 S 856.977 -3.87275 -2.06309 0
M  V30 9303 H 853.795 -0.671598 -0.233404 0
M  V30 9304 H 856.397 -1.95459 0.0401173 0
M  V30 9305 H 855.101 -4.06065 -0.594939 0
M  V30 9306 H 854.632 -3.3089 -2.12781 0
M  V30 9307 H 856.647 -3.67271 -3.33657 0
M  V30 9308 N 855.82 0.285905 -1.54985 0
M  V30 9309 C 856.752 1.37505 -1.83371 0
M  V30 9310 C 857.765 1.46138 -0.717454 0
M  V30 9311 O 858.954 1.48186 -0.995142 0
M  V30 9312 C 856.054 2.7575 -1.97016 0
M  V30 9313 C 855.227 2.89866 -3.27561 0
M  V30 9314 C 854.286 4.08704 -3.31433 0
M  V30 9315 O 853.312 4.00073 -4.04883 0
M  V30 9316 N 854.514 5.20062 -2.57907 0
M  V30 9317 H 857.279 1.13505 -2.77375 0
M  V30 9318 H 854.84 0.476006 -1.54744 0
M  V30 9319 H 856.832 3.5352 -1.96991 0
M  V30 9320 H 855.402 2.9263 -1.09938 0
M  V30 9321 H 854.622 1.99085 -3.40234 0
M  V30 9322 H 855.91 2.96219 -4.13681 0
M  V30 9323 H 855.308 5.29958 -1.97891 0
M  V30 9324 H 853.865 5.96111 -2.63619 0
M  V30 9325 N 857.298 1.47698 0.54982 0
M  V30 9326 C 858.547 1.53961 1.30303 0
M  V30 9327 C 858.86 0.209731 1.94472 0
M  V30 9328 O 860.066 0.150418 2.71083 0
M  V30 9329 C 858.522 2.71436 2.36328 0
M  V30 9330 C 858.13 4.10983 1.78316 0
M  V30 9331 C 859.874 2.86996 3.12783 0
M  V30 9332 C 857.781 5.19747 2.82164 0
M  V30 9333 H 856.711 0.573098 0.489975 0
M  V30 9334 H 859.362 1.73989 0.583089 0
M  V30 9335 H 857.744 2.44801 3.11269 0
M  V30 9336 H 858.918 4.47552 1.09697 0
M  V30 9337 H 857.233 4.00371 1.1442 0
M  V30 9338 H 859.83 3.65422 3.90347 0
M  V30 9339 H 860.173 1.95712 3.67427 0
M  V30 9340 H 860.706 3.13436 2.44954 0
M  V30 9341 H 857.445 6.12932 2.32366 0
M  V30 9342 H 856.965 4.87688 3.49171 0
M  V30 9343 H 858.644 5.47014 3.4552 0
M  V30 9344 N 858.776 -0.797141 1.35954 0
M  V30 9345 C 859.706 -1.92387 1.32323 0
M  V30 9346 C 860.687 -1.68967 0.196007 0
M  V30 9347 O 861.872 -1.90193 0.39245 0
M  V30 9348 C 859.002 -3.29286 1.10398 0
M  V30 9349 C 857.956 -3.67212 2.19862 0
M  V30 9350 C 857.282 -5.02377 1.8309 0
M  V30 9351 C 858.582 -3.76602 3.61896 0
M  V30 9352 H 860.276 -1.95683 2.26602 0
M  V30 9353 H 857.822 -0.94007 1.09081 0
M  V30 9354 H 859.775 -4.07721 1.06495 0
M  V30 9355 H 858.499 -3.26358 0.125668 0
M  V30 9356 H 857.158 -2.91069 2.22878 0
M  V30 9357 H 856.806 -4.95961 0.838527 0
M  V30 9358 H 856.506 -5.28722 2.56372 0
M  V30 9359 H 858.03 -5.8324 1.80729 0
M  V30 9360 H 859.444 -4.45246 3.6115 0
M  V30 9361 H 857.841 -4.14425 4.34018 0
M  V30 9362 H 858.911 -2.77906 3.97361 0
M  V30 9363 N 860.254 -1.20106 -1.0204 0
M  V30 9364 C 861.204 -0.914145 -2.08872 0
M  V30 9365 C 862.188 0.124503 -1.60418 0
M  V30 9366 O 863.38 -0.0823521 -1.76808 0
M  V30 9367 C 860.509 -0.463897 -3.40151 0
M  V30 9368 C 859.595 -1.53576 -3.95317 0
M  V30 9369 N 859.986 -2.75726 -4.24038 0
M  V30 9370 C 858.284 -1.40103 -4.23423 0
M  V30 9371 C 858.985 -3.44838 -4.68468 0
M  V30 9372 N 857.961 -2.72245 -4.70514 0
M  V30 9373 H 861.763 -1.8424 -2.28982 0
M  V30 9374 H 859.277 -1.0945 -1.19977 0
M  V30 9375 H 861.274 -0.239766 -4.1621 0
M  V30 9376 H 859.934 0.457779 -3.21457 0
M  V30 9377 H 860.945 -3.12412 -4.13061 0
M  V30 9378 H 857.622 -0.543472 -4.13948 0
M  V30 9379 H 859.012 -4.49342 -4.99541 0
M  V30 9380 N 861.732 1.21287 -1.00634 0
M  V30 9381 C 862.642 2.27388 -0.577226 0
M  V30 9382 C 863.658 1.69791 0.380399 0
M  V30 9383 O 864.834 1.99918 0.2439 0
M  V30 9384 C 861.899 3.46588 0.0880532 0
M  V30 9385 C 860.96 4.19453 -0.914222 0
M  V30 9386 C 860.193 5.32962 -0.280596 0
M  V30 9387 O 860.416 5.62895 0.922265 0
M  V30 9388 O 859.35 5.93666 -0.992196 0
M  V30 9389 H 863.176 2.66289 -1.46028 0
M  V30 9390 H 860.761 1.2771 -0.775283 0
M  V30 9391 H 862.643 4.18881 0.460094 0
M  V30 9392 H 861.318 3.09585 0.945461 0
M  V30 9393 H 860.225 3.49376 -1.33744 0
M  V30 9394 H 861.558 4.6037 -1.74126 0
M  V30 9395 N 863.21 0.781244 1.36873 0
M  V30 9396 C 864.157 0.172146 2.30157 0
M  V30 9397 C 865.127 -0.679328 1.51573 0
M  V30 9398 O 866.312 -0.629713 1.80109 0
M  V30 9399 C 863.452 -0.693534 3.38059 0
M  V30 9400 C 862.565 0.175586 4.31643 0
M  V30 9401 C 861.7 -0.695695 5.26625 0
M  V30 9402 C 860.739 0.17538 6.11849 0
M  V30 9403 N 859.876 -0.654416 6.99043 0
M  V30 9404 H 864.716 0.973133 2.81663 0
M  V30 9405 H 862.253 0.491469 1.38647 0
M  V30 9406 H 864.211 -1.21035 3.99257 0
M  V30 9407 H 862.841 -1.46003 2.87894 0
M  V30 9408 H 861.893 0.810295 3.7167 0
M  V30 9409 H 863.205 0.847107 4.91554 0
M  V30 9410 H 862.359 -1.27863 5.93073 0
M  V30 9411 H 861.098 -1.40087 4.67148 0
M  V30 9412 H 860.103 0.77078 5.4437 0
M  V30 9413 H 861.328 0.87803 6.734 0
M  V30 9414 H 859.274 -1.34403 6.42084 0
M  V30 9415 H 859.191 -0.0403998 7.55989 0
M  V30 9416 H 860.459 -1.22144 7.69871 0
M  V30 9417 N 864.689 -1.48329 0.532571 0
M  V30 9418 C 865.938 -2.017 -0.00259705 0
M  V30 9419 C 866.251 -1.41469 -1.35077 0
M  V30 9420 O 867.457 -1.86354 -1.97445 0
M  V30 9421 C 865.913 -3.59858 -0.0550179 0
M  V30 9422 C 865.521 -4.29073 1.28842 0
M  V30 9423 C 867.265 -4.21066 -0.538878 0
M  V30 9424 C 865.172 -5.79171 1.19644 0
M  V30 9425 H 864.102 -0.753985 -0.00474081 0
M  V30 9426 H 866.753 -1.70565 0.676739 0
M  V30 9427 H 865.135 -3.87846 -0.799486 0
M  V30 9428 H 866.309 -4.12755 2.04865 0
M  V30 9429 H 864.624 -3.79748 1.70822 0
M  V30 9430 H 867.221 -5.31026 -0.6257 0
M  V30 9431 H 867.564 -3.86559 -1.54525 0
M  V30 9432 H 868.097 -3.97517 0.149984 0
M  V30 9433 H 864.836 -6.18257 2.17805 0
M  V30 9434 H 864.356 -5.97895 0.477609 0
M  V30 9435 H 866.035 -6.40875 0.888186 0
M  V30 9436 N 866.167 -0.267825 -1.55308 0
M  V30 9437 C 867.395 0.354587 -2.03839 0
M  V30 9438 C 867.81 1.50007 -1.14644 0
M  V30 9439 O 867.167 1.81752 -0.165055 0
M  V30 9440 C 867.218 0.84254 -3.51544 0
M  V30 9441 O 866.939 -0.257318 -4.37344 0
M  V30 9442 C 868.44 1.53351 -4.15931 0
M  V30 9443 H 865.66 0.0818131 -0.665994 0
M  V30 9444 H 868.204 -0.397795 -2.00594 0
M  V30 9445 H 866.359 1.54503 -3.55257 0
M  V30 9446 H 866.773 0.116593 -5.2437 0
M  V30 9447 H 868.247 1.82643 -5.20908 0
M  V30 9448 H 868.724 2.4626 -3.63666 0
M  V30 9449 H 869.33 0.87506 -4.162 0
M  V30 9450 N 867.645 1.57599 0.00500368 0
M  V30 9451 C 868.894 1.89528 0.690061 0
M  V30 9452 C 869.207 0.869451 1.75214 0
M  V30 9453 O 870.413 1.07879 2.49147 0
M  V30 9454 C 868.869 3.36425 1.27852 0
M  V30 9455 C 868.477 4.47293 0.251531 0
M  V30 9456 C 870.221 3.77471 1.94206 0
M  V30 9457 C 868.128 5.85264 0.8497 0
M  V30 9458 H 867.058 0.707201 0.2615 0
M  V30 9459 H 869.709 1.83418 -0.0547209 0
M  V30 9460 H 868.091 3.37356 2.07381 0
M  V30 9461 H 869.265 4.5787 -0.518796 0
M  V30 9462 H 867.58 4.15235 -0.311281 0
M  V30 9463 H 870.177 4.77884 2.39855 0
M  V30 9464 H 870.52 3.10722 2.77051 0
M  V30 9465 H 871.053 3.78817 1.21419 0
M  V30 9466 H 867.792 6.55472 0.0601408 0
M  V30 9467 H 867.312 5.78361 1.5893 0
M  V30 9468 H 868.991 6.32762 1.34984 0
M  V30 9469 N 869.123 -0.277682 1.55134 0
M  V30 9470 C 870.053 -1.34742 1.90701 0
M  V30 9471 C 871.034 -1.51757 0.768354 0
M  V30 9472 O 872.219 -1.64879 1.02609 0
M  V30 9473 C 869.349 -2.70775 2.17481 0
M  V30 9474 C 868.303 -2.68497 3.33307 0
M  V30 9475 C 867.629 -4.08037 3.45557 0
M  V30 9476 C 868.929 -2.28178 4.69821 0
M  V30 9477 H 870.623 -1.05224 2.803 0
M  V30 9478 H 868.169 -0.504738 1.34864 0
M  V30 9479 H 870.122 -3.45719 2.40949 0
M  V30 9480 H 868.846 -3.01867 1.24676 0
M  V30 9481 H 867.505 -1.9601 3.09799 0
M  V30 9482 H 867.153 -4.36344 2.50226 0
M  V30 9483 H 866.853 -4.07409 4.23429 0
M  V30 9484 H 868.377 -4.84726 3.71312 0
M  V30 9485 H 869.791 -2.92843 4.92865 0
M  V30 9486 H 868.188 -2.3872 5.50575 0
M  V30 9487 H 869.258 -1.23308 4.6896 0
M  V30 9488 N 870.601 -1.47988 -0.541979 0
M  V30 9489 C 871.847 -1.55623 -1.30036 0
M  V30 9490 C 872.18 -0.224254 -1.92901 0
M  V30 9491 O 871.455 0.768629 -1.78668 0
M  V30 9492 C 871.738 -2.68562 -2.39888 0
M  V30 9493 C 871.591 -4.11426 -1.81792 0
M  V30 9494 C 872.91 -2.77325 -3.41729 0
M  V30 9495 H 870.029 -0.566498 -0.471433 0
M  V30 9496 H 872.671 -1.8011 -0.604998 0
M  V30 9497 H 870.821 -2.47814 -2.992 0
M  V30 9498 H 872.493 -4.43581 -1.26624 0
M  V30 9499 H 870.736 -4.18989 -1.12386 0
M  V30 9500 H 871.407 -4.8625 -2.61276 0
M  V30 9501 H 873.883 -2.96085 -2.92357 0
M  V30 9502 H 872.759 -3.58097 -4.16002 0
M  V30 9503 H 873.02 -1.84995 -4.01534 0
M  V30 9504 N 872.079 0.78992 -1.36375 0
M  V30 9505 C 873.307 1.57873 -1.3373 0
M  V30 9506 C 873.722 1.88624 0.0815544 0
M  V30 9507 O 873.079 1.50085 1.03831 0
M  V30 9508 C 873.13 2.90003 -2.15825 0
M  V30 9509 O 872.851 2.60578 -3.5218 0
M  V30 9510 C 874.352 3.84309 -2.20955 0
M  V30 9511 H 871.572 0.489685 -0.458748 0
M  V30 9512 H 874.116 0.980436 -1.79465 0
M  V30 9513 H 872.271 3.46303 -1.73646 0
M  V30 9514 H 872.685 3.4506 -3.95011 0
M  V30 9515 H 874.159 4.74081 -2.82756 0
M  V30 9516 H 874.636 4.22121 -1.21287 0
M  V30 9517 H 875.242 3.33942 -2.63368 0
M  V30 9518 N 873.557 1.20646 1.01402 0
M  V30 9519 C 874.507 0.925209 2.08384 0
M  V30 9520 C 875.491 -0.115994 1.60481 0
M  V30 9521 O 876.683 0.0917276 1.76762 0
M  V30 9522 C 873.812 0.48193 3.399 0
M  V30 9523 C 872.898 1.5567 3.94497 0
M  V30 9524 N 873.289 2.77971 4.2257 0
M  V30 9525 C 871.587 1.42347 4.22674 0
M  V30 9526 C 872.288 3.47317 4.66632 0
M  V30 9527 N 871.264 2.74736 4.69064 0
M  V30 9528 H 875.066 1.85452 2.28002 0
M  V30 9529 H 872.58 1.10084 1.19395 0
M  V30 9530 H 874.577 0.261835 4.16077 0
M  V30 9531 H 873.237 -0.440725 3.21695 0
M  V30 9532 H 874.248 3.14598 4.11398 0
M  V30 9533 H 870.925 0.565417 4.13654 0
M  V30 9534 H 872.315 4.51985 4.97151 0
M  V30 9535 N 875.035 -1.20752 1.01276 0
M  V30 9536 C 875.967 -2.22798 0.537917 0
M  V30 9537 C 876.98 -1.5836 -0.377638 0
M  V30 9538 O 878.169 -1.77624 -0.176599 0
M  V30 9539 C 875.269 -3.38068 -0.237364 0
M  V30 9540 C 874.442 -4.32095 0.679161 0
M  V30 9541 C 873.501 -5.26178 -0.0478676 0
M  V30 9542 O 872.527 -5.66305 0.573366 0
M  V30 9543 N 873.729 -5.65201 -1.32396 0
M  V30 9544 H 876.494 -2.64166 1.4155 0
M  V30 9545 H 874.055 -1.35254 0.889826 0
M  V30 9546 H 876.047 -3.98009 -0.73288 0
M  V30 9547 H 874.617 -2.95622 -1.0162 0
M  V30 9548 H 873.837 -3.70179 1.35505 0
M  V30 9549 H 875.125 -4.91842 1.30263 0
M  V30 9550 H 874.523 -5.34606 -1.84968 0
M  V30 9551 H 873.08 -6.27468 -1.76428 0
M  V30 9552 N 876.513 -0.788492 -1.36457 0
M  V30 9553 C 877.443 -0.200468 -2.32638 0
M  V30 9554 C 878.424 0.664031 -1.56603 0
M  V30 9555 O 879.609 0.598045 -1.84762 0
M  V30 9556 C 876.739 0.666274 -3.40849 0
M  V30 9557 C 875.693 -0.0982574 -4.27887 0
M  V30 9558 C 875.019 0.889018 -5.27258 0
M  V30 9559 C 876.319 -1.28692 -5.06197 0
M  V30 9560 H 878.013 -1.00399 -2.82065 0
M  V30 9561 H 875.559 -0.484237 -1.35614 0
M  V30 9562 H 877.512 1.08757 -4.07124 0
M  V30 9563 H 876.236 1.50249 -2.89987 0
M  V30 9564 H 874.895 -0.500525 -3.63167 0
M  V30 9565 H 874.543 1.72024 -4.7267 0
M  V30 9566 H 874.243 0.381909 -5.86358 0
M  V30 9567 H 875.767 1.30891 -5.96406 0
M  V30 9568 H 877.181 -0.941429 -5.65517 0
M  V30 9569 H 875.578 -1.72726 -5.74705 0
M  V30 9570 H 876.648 -2.08273 -4.37893 0
M  V30 9571 N 877.991 1.48044 -0.54043 0
M  V30 9572 C 878.923 2.2779 0.253854 0
M  V30 9573 C 879.936 1.35999 0.894883 0
M  V30 9574 O 881.125 1.60963 0.771563 0
M  V30 9575 C 878.225 3.09724 1.37566 0
M  V30 9576 C 877.398 4.29364 0.83459 0
M  V30 9577 C 876.457 4.93026 1.83881 0
M  V30 9578 O 875.483 5.51927 1.39159 0
M  V30 9579 N 876.685 4.86207 3.17149 0
M  V30 9580 H 879.45 2.96597 -0.430125 0
M  V30 9581 H 877.011 1.57487 -0.375423 0
M  V30 9582 H 879.003 3.49181 2.04584 0
M  V30 9583 H 877.573 2.43269 1.96314 0
M  V30 9584 H 876.793 3.94198 -0.0118878 0
M  V30 9585 H 878.081 5.06787 0.452155 0
M  V30 9586 H 877.479 4.39523 3.56141 0
M  V30 9587 H 876.036 5.29733 3.79771 0
M  V30 9588 N 879.47 0.276058 1.55163 0
M  V30 9589 C 880.7 -0.343274 2.03728 0
M  V30 9590 C 881.108 -1.49945 1.15383 0
M  V30 9591 O 880.451 -1.82942 0.166696 0
M  V30 9592 C 880.513 -0.885683 3.48419 0
M  V30 9593 C 880.177 0.141976 4.56779 0
M  V30 9594 C 881.174 0.961816 5.10926 0
M  V30 9595 C 878.859 0.276487 5.01538 0
M  V30 9596 C 880.853 1.90234 6.0835 0
M  V30 9597 C 878.54 1.22049 5.98788 0
M  V30 9598 C 879.538 2.03192 6.52075 0
M  V30 9599 O 879.226 2.95996 7.47423 0
M  V30 9600 H 878.958 -0.0822192 0.670981 0
M  V30 9601 H 881.512 0.406199 2.01343 0
M  V30 9602 H 879.742 -1.68524 3.48047 0
M  V30 9603 H 881.431 -1.4182 3.80318 0
M  V30 9604 H 882.197 0.868637 4.77158 0
M  V30 9605 H 878.076 -0.345095 4.59707 0
M  V30 9606 H 881.62 2.5361 6.49867 0
M  V30 9607 H 877.517 1.31448 6.31974 0
M  V30 9608 H 878.285 2.90688 7.65142 0
M  V30 9609 N 880.948 -1.576 0.00335426 0
M  V30 9610 C 881.878 -2.11668 -0.985839 0
M  V30 9611 C 882.859 -1.02661 -1.35627 0
M  V30 9612 O 884.044 -1.30361 -1.43943 0
M  V30 9613 C 881.174 -2.62273 -2.27662 0
M  V30 9614 C 880.128 -3.75837 -2.0477 0
M  V30 9615 C 879.454 -4.12769 -3.39891 0
M  V30 9616 C 880.754 -5.02975 -1.40759 0
M  V30 9617 H 882.448 -2.9457 -0.535637 0
M  V30 9618 H 879.994 -1.41702 -0.256204 0
M  V30 9619 H 881.947 -2.98727 -2.97221 0
M  V30 9620 H 880.671 -1.76498 -2.74802 0
M  V30 9621 H 879.33 -3.39782 -1.37636 0
M  V30 9622 H 878.978 -3.24013 -3.8474 0
M  V30 9623 H 878.678 -4.89281 -3.25389 0
M  V30 9624 H 880.202 -4.51784 -4.1076 0
M  V30 9625 H 881.616 -5.37179 -2.00279 0
M  V30 9626 H 880.013 -5.84315 -1.36734 0
M  V30 9627 H 881.083 -4.83431 -0.377218 0
M  V30 9628 N 882.426 0.269451 -1.5528 0
M  V30 9629 C 883.373 1.33316 -1.88403 0
M  V30 9630 C 884.343 1.48909 -0.735881 0
M  V30 9631 O 885.528 1.63259 -0.987479 0
M  V30 9632 C 882.668 2.68778 -2.16454 0
M  V30 9633 C 881.781 2.61377 -3.43956 0
M  V30 9634 C 880.916 3.89042 -3.6169 0
M  V30 9635 C 879.955 3.76166 -4.82872 0
M  V30 9636 N 879.092 4.95673 -4.97245 0
M  V30 9637 H 883.932 1.04368 -2.79126 0
M  V30 9638 H 881.469 0.504147 -1.38191 0
M  V30 9639 H 883.427 3.47599 -2.30719 0
M  V30 9640 H 882.057 2.9592 -1.28961 0
M  V30 9641 H 881.109 1.74247 -3.38145 0
M  V30 9642 H 882.421 2.47764 -4.32914 0
M  V30 9643 H 881.575 4.76304 -3.75791 0
M  V30 9644 H 880.314 4.05526 -2.70924 0
M  V30 9645 H 879.319 2.87287 -4.68771 0
M  V30 9646 H 880.544 3.61198 -5.75077 0
M  V30 9647 H 878.49 5.12561 -4.09411 0
M  V30 9648 H 878.407 4.84605 -5.80254 0
M  V30 9649 H 879.675 5.84498 -5.15735 0
M  V30 9650 N 883.904 1.48273 0.534124 0
M  V30 9651 C 884.867 1.6201 1.62127 0
M  V30 9652 C 885.867 0.493653 1.53035 0
M  V30 9653 O 887.057 0.759337 1.56779 0
M  V30 9654 C 884.189 1.5864 3.01739 0
M  V30 9655 H 885.382 2.58944 1.51288 0
M  V30 9656 H 882.935 1.36808 0.755861 0
M  V30 9657 H 883.67 0.631685 3.18088 0
M  V30 9658 H 883.455 2.40415 3.09747 0
M  V30 9659 H 884.945 1.71438 3.80787 0
M  V30 9660 N 885.382 -0.782676 1.36792 0
M  V30 9661 C 886.345 -1.8772 1.31507 0
M  V30 9662 C 887.345 -1.59269 0.221349 0
M  V30 9663 O 888.535 -1.67555 0.476544 0
M  V30 9664 C 885.667 -3.24641 1.04025 0
M  V30 9665 H 886.86 -1.9382 2.28853 0
M  V30 9666 H 884.413 -0.981226 1.21662 0
M  V30 9667 H 885.148 -3.24221 0.0716439 0
M  V30 9668 H 884.933 -3.46681 1.8318 0
M  V30 9669 H 886.423 -4.04711 1.02949 0
M  V30 9670 N 886.86 -1.21182 -1.00761 0
M  V30 9671 C 888.085 -1.05411 -1.78615 0
M  V30 9672 C 888.51 0.391837 -1.83973 0
M  V30 9673 O 887.868 1.28256 -1.28141 0
M  V30 9674 C 887.916 -1.65285 -3.20489 0
M  V30 9675 O 887.02 -0.896558 -4.02536 0
M  V30 9676 H 886.361 -0.37116 -0.550578 0
M  V30 9677 H 888.891 -1.60669 -1.26676 0
M  V30 9678 H 888.901 -1.69397 -3.71172 0
M  V30 9679 H 887.576 -2.70514 -3.15904 0
M  V30 9680 H 886.153 -0.930335 -3.61108 0
M  V30 9681 N 888.338 1.20213 -1.01915 0
M  V30 9682 C 889.27 2.2251 -0.549725 0
M  V30 9683 C 890.283 1.58558 0.369235 0
M  V30 9684 O 891.472 1.77715 0.167176 0
M  V30 9685 C 888.572 3.38189 0.219432 0
M  V30 9686 C 887.745 4.31729 -0.702066 0
M  V30 9687 C 886.804 5.26196 0.0199624 0
M  V30 9688 O 885.83 5.65993 -0.60339 0
M  V30 9689 N 887.032 5.65895 1.29397 0
M  V30 9690 H 889.797 2.63412 -1.42948 0
M  V30 9691 H 887.358 1.3478 -0.896987 0
M  V30 9692 H 889.35 3.98392 0.711763 0
M  V30 9693 H 887.92 2.96156 1.00051 0
M  V30 9694 H 887.14 3.69455 -1.37466 0
M  V30 9695 H 888.428 4.91145 -1.3287 0
M  V30 9696 H 887.826 5.35579 1.8213 0
M  V30 9697 H 886.383 6.28395 1.73098 0
M  V30 9698 N 889.816 0.795718 1.36037 0
M  V30 9699 C 891.065 0.367575 1.98322 0
M  V30 9700 C 891.378 -1.06823 1.63854 0
M  V30 9701 O 892.584 -1.59895 2.19421 0
M  V30 9702 C 891.04 0.606272 3.54757 0
M  V30 9703 C 890.648 2.0539 3.98144 0
M  V30 9704 C 892.392 0.242947 4.23804 0
M  V30 9705 C 890.299 2.23893 5.47381 0
M  V30 9706 H 889.229 0.133699 0.742052 0
M  V30 9707 H 891.88 0.978242 1.5525 0
M  V30 9708 H 890.262 -0.0741957 3.9593 0
M  V30 9709 H 891.436 2.77129 3.68152 0
M  V30 9710 H 889.751 2.37607 3.41953 0
M  V30 9711 H 892.348 0.359382 5.33491 0
M  V30 9712 H 892.691 -0.809661 4.08351 0
M  V30 9713 H 893.224 0.876899 3.88015 0
M  V30 9714 H 889.963 3.27559 5.6779 0
M  V30 9715 H 889.483 1.56666 5.78978 0
M  V30 9716 H 891.162 2.04914 6.13693 0
M  V30 9717 N 891.294 -1.47756 0.548274 0
M  V30 9718 C 892.224 -2.32702 -0.19284 0
M  V30 9719 C 893.205 -1.43237 -0.917457 0
M  V30 9720 O 894.39 -1.72103 -0.89967 0
M  V30 9721 C 891.52 -3.24831 -1.22891 0
M  V30 9722 C 890.474 -4.23466 -0.621312 0
M  V30 9723 C 889.8 -5.04856 -1.76137 0
M  V30 9724 C 891.1 -5.20616 0.419055 0
M  V30 9725 H 892.794 -2.94914 0.516323 0
M  V30 9726 H 890.34 -1.41818 0.24975 0
M  V30 9727 H 892.293 -3.83094 -1.75547 0
M  V30 9728 H 891.017 -2.60656 -1.9679 0
M  V30 9729 H 889.676 -3.66416 -0.116123 0
M  V30 9730 H 889.324 -4.37091 -2.48918 0
M  V30 9731 H 889.024 -5.71629 -1.36065 0
M  V30 9732 H 890.548 -5.65976 -2.29136 0
M  V30 9733 H 891.962 -5.73296 -0.0211034 0
M  V30 9734 H 890.359 -5.95543 0.738163 0
M  V30 9735 H 891.429 -4.66638 1.31822 0
M  V30 9736 N 892.772 -0.284283 -1.55015 0
M  V30 9737 C 894.021 0.33055 -1.98973 0
M  V30 9738 C 894.334 1.56284 -1.17621 0
M  V30 9739 O 895.54 2.2512 -1.51767 0
M  V30 9740 C 893.996 0.639457 -3.54174 0
M  V30 9741 C 893.604 -0.573543 -4.44313 0
M  V30 9742 C 895.348 1.21641 -4.06699 0
M  V30 9743 C 893.255 -0.238715 -5.90918 0
M  V30 9744 H 892.185 0.127285 -0.743179 0
M  V30 9745 H 894.836 -0.390372 -1.793 0
M  V30 9746 H 893.218 1.41953 -3.69683 0
M  V30 9747 H 894.392 -1.3502 -4.40575 0
M  V30 9748 H 892.707 -1.06797 -4.02472 0
M  V30 9749 H 895.304 1.48088 -5.13784 0
M  V30 9750 H 895.647 2.15328 -3.56286 0
M  V30 9751 H 896.18 0.498422 -3.94665 0
M  V30 9752 H 892.919 -1.1437 -6.45445 0
M  V30 9753 H 892.439 0.500997 -5.97704 0
M  V30 9754 H 894.118 0.165774 -6.46788 0
M  V30 9755 N 894.251 1.57596 -0.0117121 0
M  V30 9756 C 895.181 2.12188 0.9746 0
M  V30 9757 C 896.162 1.03379 1.35081 0
M  V30 9758 O 897.347 1.31123 1.4325 0
M  V30 9759 C 894.477 2.63477 2.26268 0
M  V30 9760 C 893.431 3.76917 2.02774 0
M  V30 9761 C 892.757 4.14566 3.37697 0
M  V30 9762 C 894.057 5.03715 1.38089 0
M  V30 9763 H 895.751 2.9485 0.520007 0
M  V30 9764 H 893.297 1.41836 0.248685 0
M  V30 9765 H 895.25 3.00299 2.95633 0
M  V30 9766 H 893.974 1.77953 2.73862 0
M  V30 9767 H 892.633 3.40507 1.35832 0
M  V30 9768 H 892.281 3.26048 3.83016 0
M  V30 9769 H 891.981 4.91 3.22789 0
M  V30 9770 H 893.505 4.53956 4.08358 0
M  V30 9771 H 894.919 5.38233 1.97428 0
M  V30 9772 H 893.316 5.85032 1.33634 0
M  V30 9773 H 894.386 4.83624 0.351575 0
M  V30 9774 N 895.729 -0.261212 1.5542 0
M  V30 9775 C 896.676 -1.32315 1.89107 0
M  V30 9776 C 897.646 -1.48517 0.743767 0
M  V30 9777 O 898.831 -1.62733 0.996123 0
M  V30 9778 C 895.971 -2.67626 2.17877 0
M  V30 9779 C 895.084 -2.59549 3.45338 0
M  V30 9780 C 894.219 -3.87118 3.63748 0
M  V30 9781 C 893.258 -3.736 4.8486 0
M  V30 9782 N 892.395 -4.93029 4.99867 0
M  V30 9783 H 897.235 -1.02886 2.79675 0
M  V30 9784 H 894.772 -0.496812 1.38456 0
M  V30 9785 H 896.73 -3.4637 2.32559 0
M  V30 9786 H 895.36 -2.95232 1.30529 0
M  V30 9787 H 894.412 -1.72452 3.39064 0
M  V30 9788 H 895.724 -2.45465 4.34222 0
M  V30 9789 H 894.878 -4.74305 3.78312 0
M  V30 9790 H 893.617 -4.04084 2.73071 0
M  V30 9791 H 892.622 -2.84797 4.70288 0
M  V30 9792 H 893.847 -3.58143 5.76984 0
M  V30 9793 H 891.793 -5.10383 4.12123 0
M  V30 9794 H 891.71 -4.81521 5.82815 0
M  V30 9795 H 892.978 -5.81754 5.18828 0
M  V30 9796 N 897.207 -1.48554 -0.526253 0
M  V30 9797 C 898.484 -1.47252 -1.28748 0
M  V30 9798 C 898.864 -0.186245 -2.10277 0
M  V30 9799 O 898.212 0.831954 -2.12816 0
M  V30 9800 C 898.422 -2.73672 -2.16575 0
M  V30 9801 C 899.77 -3.22151 -2.76593 0
M  V30 9802 O 900.794 -2.74614 -2.2686 0
M  V30 9803 O 899.653 -4.04877 -3.67066 0
M  V30 9804 H 896.747 -0.588242 -0.581292 0
M  V30 9805 H 899.293 -1.60792 -0.5426 0
M  V30 9806 H 898.065 -3.58798 -1.56139 0
M  V30 9807 H 897.688 -2.6287 -2.98304 0
M  V30 9808 N 898.685 0.775411 -1.37205 0
M  V30 9809 C 899.933 1.53081 -1.3195 0
M  V30 9810 C 900.254 1.9476 0.0966864 0
M  V30 9811 O 899.524 1.66019 1.03993 0
M  V30 9812 H 898.104 0.567762 -0.485444 0
M  V30 9813 H 900.766 0.92309 -1.71654 0
M  V30 9814 H 899.862 2.4319 -1.95614 0
M  V30 9815 N 900.163 1.21714 1.00117 0
M  V30 9816 C 901.11 0.979837 2.08968 0
M  V30 9817 C 902.08 -0.0955324 1.65825 0
M  V30 9818 O 903.265 0.0523742 1.90728 0
M  V30 9819 C 900.405 0.554758 3.40612 0
M  V30 9820 C 899.518 1.69999 3.97145 0
M  V30 9821 C 898.653 1.2237 5.16913 0
M  V30 9822 C 897.692 2.34101 5.65564 0
M  V30 9823 N 896.829 1.87579 6.76579 0
M  V30 9824 H 901.669 1.91167 2.28602 0
M  V30 9825 H 899.206 0.952645 1.12085 0
M  V30 9826 H 901.164 0.289526 4.16194 0
M  V30 9827 H 899.794 -0.340073 3.21004 0
M  V30 9828 H 898.846 2.07976 3.18512 0
M  V30 9829 H 900.158 2.54074 4.29241 0
M  V30 9830 H 899.312 0.915358 5.99755 0
M  V30 9831 H 898.051 0.353045 4.8642 0
M  V30 9832 H 897.056 2.65734 4.81316 0
M  V30 9833 H 898.281 3.21669 5.98085 0
M  V30 9834 H 896.227 1.02863 6.47885 0
M  V30 9835 H 896.144 2.65225 7.07949 0
M  V30 9836 H 897.412 1.5979 7.62947 0
M  V30 9837 N 901.641 -1.19671 1.02551 0
M  V30 9838 C 902.574 -2.21522 0.547998 0
M  V30 9839 C 903.552 -1.57363 -0.409349 0
M  V30 9840 O 904.736 -1.85638 -0.327248 0
M  V30 9841 C 901.863 -3.38101 -0.201375 0
M  V30 9842 C 900.909 -4.20601 0.706886 0
M  V30 9843 S 901.742 -4.89066 2.18116 0
M  V30 9844 C 902.898 -6.09058 1.4422 0
M  V30 9845 H 903.131 -2.61684 1.41099 0
M  V30 9846 H 900.664 -1.29864 0.835153 0
M  V30 9847 H 902.622 -4.05674 -0.627607 0
M  V30 9848 H 901.283 -2.96381 -1.04005 0
M  V30 9849 H 900.476 -5.03836 0.128554 0
M  V30 9850 H 900.078 -3.58329 1.07129 0
M  V30 9851 H 902.37 -6.73588 0.726975 0
M  V30 9852 H 903.313 -6.71368 2.25102 0
M  V30 9853 H 903.721 -5.56599 0.941176 0
M  V30 9854 N 903.119 -0.802921 -1.35613 0
M  V30 9855 C 904.365 -0.382141 -1.99167 0
M  V30 9856 C 904.698 1.04704 -1.63556 0
M  V30 9857 O 903.973 1.72578 -0.89706 0
M  V30 9858 C 904.256 -0.561493 -3.55695 0
M  V30 9859 C 904.109 -2.03534 -4.01116 0
M  V30 9860 C 905.428 0.0151135 -4.40097 0
M  V30 9861 H 902.547 -0.140322 -0.723518 0
M  V30 9862 H 905.189 -1.01177 -1.6082 0
M  V30 9863 H 903.339 -0.0255083 -3.88492 0
M  V30 9864 H 905.011 -2.63343 -3.78746 0
M  V30 9865 H 903.254 -2.5331 -3.52159 0
M  V30 9866 H 903.925 -2.11173 -5.1001 0
M  V30 9867 H 906.401 -0.442582 -4.1374 0
M  V30 9868 H 905.277 -0.140316 -5.48721 0
M  V30 9869 H 905.538 1.10848 -4.27978 0
M  V30 9870 N 904.597 1.47463 -0.556102 0
M  V30 9871 C 905.529 2.28046 0.22968 0
M  V30 9872 C 906.542 1.3694 0.880409 0
M  V30 9873 O 907.731 1.61773 0.754447 0
M  V30 9874 C 904.831 3.11165 1.34273 0
M  V30 9875 C 904.004 4.30225 0.789004 0
M  V30 9876 C 903.063 4.94948 1.78641 0
M  V30 9877 O 902.089 5.53372 1.33297 0
M  V30 9878 N 903.291 4.89543 3.11974 0
M  V30 9879 H 906.056 2.96125 -0.461558 0
M  V30 9880 H 903.617 1.5708 -0.392105 0
M  V30 9881 H 905.609 3.51331 2.00869 0
M  V30 9882 H 904.179 2.45337 1.93722 0
M  V30 9883 H 903.399 3.94163 -0.0536971 0
M  V30 9884 H 904.687 5.07238 0.398378 0
M  V30 9885 H 904.085 4.43275 3.51459 0
M  V30 9886 H 902.642 5.33732 3.74131 0
M  V30 9887 N 906.075 0.2925 1.54862 0
M  V30 9888 C 907.022 -0.587365 2.23201 0
M  V30 9889 C 907.992 -1.13623 1.21157 0
M  V30 9890 O 909.177 -1.18233 1.49752 0
M  V30 9891 C 906.317 -1.75745 2.96998 0
M  V30 9892 C 905.43 -1.24078 4.13798 0
M  V30 9893 C 904.565 -2.37405 4.75197 0
M  V30 9894 C 903.604 -1.82829 5.84157 0
M  V30 9895 N 902.741 -2.89696 6.39547 0
M  V30 9896 H 907.581 0.00202207 2.98 0
M  V30 9897 H 905.118 0.012766 1.47094 0
M  V30 9898 H 907.076 -2.44549 3.38011 0
M  V30 9899 H 905.706 -2.3186 2.24591 0
M  V30 9900 H 904.758 -0.445268 3.77785 0
M  V30 9901 H 906.07 -0.801186 4.92324 0
M  V30 9902 H 905.224 -3.14172 5.19019 0
M  V30 9903 H 903.963 -2.84688 3.95985 0
M  V30 9904 H 902.968 -1.04548 5.39768 0
M  V30 9905 H 904.193 -1.36461 6.65248 0
M  V30 9906 H 902.139 -3.36328 5.63222 0
M  V30 9907 H 902.056 -2.50206 7.13395 0
M  V30 9908 H 903.324 -3.66386 6.88027 0
M  V30 9909 N 907.553 -1.57587 0.0200696 0
M  V30 9910 C 908.801 -1.91046 -0.65922 0
M  V30 9911 C 909.122 -0.896197 -1.73186 0
M  V30 9912 O 908.392 0.0635952 -1.95797 0
M  V30 9913 H 906.972 -0.705163 -0.246483 0
M  V30 9914 H 909.634 -1.94789 0.0657368 0
M  V30 9915 H 908.73 -2.91399 -1.11773 0
M  V30 9916 N 909.032 0.252966 -1.55557 0
M  V30 9917 C 910.26 0.999565 -1.81153 0
M  V30 9918 C 910.675 1.79181 -0.594955 0
M  V30 9919 O 910.032 1.77208 0.436311 0
M  V30 9920 C 910.083 1.94227 -3.04891 0
M  V30 9921 O 909.804 1.18209 -4.21851 0
M  V30 9922 C 911.305 2.80536 -3.43241 0
M  V30 9923 H 908.525 0.294402 -0.602966 0
M  V30 9924 H 911.069 0.277686 -2.02606 0
M  V30 9925 H 909.224 2.6185 -2.85505 0
M  V30 9926 H 909.638 1.81922 -4.9194 0
M  V30 9927 H 911.112 3.42442 -4.32941 0
M  V30 9928 H 911.589 3.51337 -2.6355 0
M  V30 9929 H 912.195 2.18373 -3.64956 0
M  V30 9930 N 910.51 1.48831 0.518367 0
M  V30 9931 C 911.74 1.60886 1.29612 0
M  V30 9932 C 912.148 0.272713 1.87224 0
M  V30 9933 O 911.491 -0.749653 1.67708 0
M  V30 9934 C 911.553 2.60541 2.47707 0
M  V30 9935 C 911.217 4.05324 2.11095 0
M  V30 9936 C 912.214 4.92658 1.66084 0
M  V30 9937 C 909.899 4.50942 2.21262 0
M  V30 9938 C 911.893 6.23641 1.3172 0
M  V30 9939 C 909.58 5.81943 1.8651 0
M  V30 9940 C 910.578 6.68116 1.41812 0
M  V30 9941 O 910.266 7.96677 1.07522 0
M  V30 9942 H 909.998 0.544968 0.399982 0
M  V30 9943 H 912.552 1.95474 0.630799 0
M  V30 9944 H 910.782 2.21098 3.17258 0
M  V30 9945 H 912.471 2.62308 3.09757 0
M  V30 9946 H 913.237 4.58649 1.5769 0
M  V30 9947 H 909.116 3.84048 2.55007 0
M  V30 9948 H 912.66 6.90857 0.967598 0
M  V30 9949 H 908.557 6.15484 1.94549 0
M  V30 9950 H 909.325 8.09534 1.2082 0
M  V30 9951 N 911.988 -0.768124 1.37614 0
M  V30 9952 C 913.216 -1.55726 1.36224 0
M  V30 9953 C 913.631 -1.8873 -0.0515357 0
M  V30 9954 O 912.988 -1.51718 -1.0143 0
M  V30 9955 C 913.039 -2.86533 2.20412 0
M  V30 9956 O 912.76 -2.54942 3.56281 0
M  V30 9957 C 914.261 -3.80745 2.27041 0
M  V30 9958 H 911.481 -0.482325 0.46648 0
M  V30 9959 H 914.025 -0.95176 1.81002 0
M  V30 9960 H 912.18 -3.43496 1.79134 0
M  V30 9961 H 912.594 -3.38732 4.00451 0
M  V30 9962 H 914.068 -4.69523 2.90263 0
M  V30 9963 H 914.545 -4.20138 1.27987 0
M  V30 9964 H 915.151 -3.2971 2.68647 0
M  V30 9965 N 913.466 -1.22244 -0.994698 0
M  V30 9966 C 914.376 -1.00722 -2.11878 0
M  V30 9967 C 915.392 0.043919 -1.73945 0
M  V30 9968 O 916.568 -0.148411 -2.00852 0
M  V30 9969 C 913.633 -0.585723 -3.41717 0
M  V30 9970 C 912.694 -1.71027 -3.93762 0
M  V30 9971 C 911.927 -1.30879 -5.17403 0
M  V30 9972 O 912.15 -0.18681 -5.70094 0
M  V30 9973 O 911.084 -2.1246 -5.63156 0
M  V30 9974 H 914.91 -1.94894 -2.32916 0
M  V30 9975 H 912.495 -1.00822 -1.10251 0
M  V30 9976 H 914.377 -0.360935 -4.19851 0
M  V30 9977 H 913.052 0.327166 -3.22042 0
M  V30 9978 H 911.959 -1.98956 -3.16808 0
M  V30 9979 H 913.292 -2.60096 -4.17865 0
M  V30 9980 N 914.944 1.19125 -1.03184 0
M  V30 9981 C 916.191 1.88883 -0.730029 0
M  V30 9982 C 916.519 1.79807 0.741602 0
M  V30 9983 O 915.774 1.18686 1.55603 0
M  V30 9984 C 916.073 3.39052 -1.13041 0
M  V30 9985 C 915.739 3.68332 -2.60082 0
M  V30 9986 C 914.401 3.76033 -3.00254 0
M  V30 9987 C 916.753 3.81423 -3.55199 0
M  V30 9988 C 914.081 3.94296 -4.34451 0
M  V30 9989 C 916.433 4.012 -4.89103 0
M  V30 9990 C 915.097 4.07134 -5.28959 0
M  V30 9991 H 914.367 0.691172 -0.267137 0
M  V30 9992 H 917.014 1.41053 -1.29523 0
M  V30 9993 H 915.319 3.88801 -0.48386 0
M  V30 9994 H 917.016 3.91351 -0.874368 0
M  V30 9995 H 913.606 3.62948 -2.27961 0
M  V30 9996 H 917.79 3.74814 -3.25313 0
M  V30 9997 H 913.046 3.97131 -4.64863 0
M  V30 9998 H 917.22 4.10271 -5.62717 0
M  V30 9999 H 914.847 4.21038 -6.32954 0
M  V30 10000 N 916.422 0.810101 1.35185 0
M  V30 10001 C 917.352 0.237453 2.32289 0
M  V30 10002 C 918.333 -0.639032 1.5764 0
M  V30 10003 O 919.518 -0.568575 1.8569 0
M  V30 10004 C 916.648 -0.611964 3.41866 0
M  V30 10005 C 915.602 0.166318 4.27677 0
M  V30 10006 C 914.928 -0.805024 5.28605 0
M  V30 10007 C 916.228 1.36729 5.04086 0
M  V30 10008 H 917.922 1.04874 2.80432 0
M  V30 10009 H 915.468 0.505751 1.34826 0
M  V30 10010 H 917.421 -1.02267 4.08802 0
M  V30 10011 H 916.145 -1.45617 2.92341 0
M  V30 10012 H 914.804 0.558238 3.62325 0
M  V30 10013 H 914.452 -1.64483 4.75347 0
M  V30 10014 H 914.152 -0.288577 5.86891 0
M  V30 10015 H 915.676 -1.21386 5.98413 0
M  V30 10016 H 917.09 1.03128 5.63948 0
M  V30 10017 H 915.487 1.81848 5.71884 0
M  V30 10018 H 916.557 2.15214 4.34524 0
M  V30 10019 N 917.9 -1.47166 0.563914 0
M  V30 10020 C 918.847 -2.30097 -0.180013 0
M  V30 10021 C 919.817 -1.39473 -0.902019 0
M  V30 10022 O 921.002 -1.68432 -0.896396 0
M  V30 10023 C 918.142 -3.23573 -1.19978 0
M  V30 10024 C 917.255 -4.2929 -0.483149 0
M  V30 10025 C 916.39 -5.0991 -1.48879 0
M  V30 10026 C 915.429 -6.07395 -0.757513 0
M  V30 10027 N 914.566 -6.8095 -1.71031 0
M  V30 10028 H 919.406 -2.93189 0.53329 0
M  V30 10029 H 916.943 -1.4451 0.274814 0
M  V30 10030 H 918.901 -3.76196 -1.80368 0
M  V30 10031 H 917.531 -2.6233 -1.88103 0
M  V30 10032 H 916.583 -3.79671 0.235414 0
M  V30 10033 H 917.895 -4.9872 0.0894075 0
M  V30 10034 H 917.049 -5.66717 -2.16603 0
M  V30 10035 H 915.788 -4.40397 -2.09527 0
M  V30 10036 H 914.793 -5.4976 -0.0663841 0
M  V30 10037 H 916.018 -6.78919 -0.156685 0
M  V30 10038 H 913.964 -6.14162 -2.30524 0
M  V30 10039 H 913.881 -7.46574 -1.19007 0
M  V30 10040 H 915.149 -7.42326 -2.37849 0
M  V30 10041 N 919.378 -0.300708 -1.54705 0
M  V30 10042 C 920.603 0.314073 -2.05008 0
M  V30 10043 C 921.028 1.46759 -1.17657 0
M  V30 10044 O 920.386 1.80398 -0.180598 0
M  V30 10045 C 920.434 0.748243 -3.52752 0
M  V30 10046 O 919.538 1.85305 -3.68424 0
M  V30 10047 H 918.879 0.0610139 -0.661191 0
M  V30 10048 H 921.409 -0.442467 -1.99758 0
M  V30 10049 H 921.419 1.03713 -3.94598 0
M  V30 10050 H 920.094 -0.095573 -4.1579 0
M  V30 10051 H 918.671 1.56473 -3.38483 0
M  V30 10052 N 920.856 1.57574 -0.0284266 0
M  V30 10053 C 922.104 1.91393 0.649079 0
M  V30 10054 C 922.425 0.905368 1.72708 0
M  V30 10055 O 921.695 -0.0532107 1.95828 0
M  V30 10056 H 920.275 0.70646 0.24274 0
M  V30 10057 H 922.937 1.94752 -0.076066 0
M  V30 10058 H 922.033 2.91988 1.10226 0
M  V30 10059 N 922.334 -0.244713 1.55689 0
M  V30 10060 C 923.583 -0.970373 1.76824 0
M  V30 10061 C 923.896 -1.86402 0.592764 0
M  V30 10062 O 925.102 -2.62659 0.687186 0
M  V30 10063 C 923.558 -1.77547 3.13058 0
M  V30 10064 C 923.166 -0.929104 4.3826 0
M  V30 10065 C 924.91 -2.49373 3.43531 0
M  V30 10066 C 922.817 -1.73021 5.65524 0
M  V30 10067 H 921.747 -0.366048 0.659185 0
M  V30 10068 H 924.398 -0.224964 1.82116 0
M  V30 10069 H 922.78 -2.56291 3.01879 0
M  V30 10070 H 923.954 -0.183836 4.60433 0
M  V30 10071 H 922.269 -0.324071 4.15137 0
M  V30 10072 H 924.866 -3.09767 4.35831 0
M  V30 10073 H 925.209 -3.21099 2.64955 0
M  V30 10074 H 925.742 -1.77637 3.55935 0
M  V30 10075 H 922.481 -1.05666 6.46927 0
M  V30 10076 H 922.001 -2.45071 5.47449 0
M  V30 10077 H 923.68 -2.2968 6.0486 0
M  V30 10078 N 923.813 -1.49104 -0.510467 0
M  V30 10079 C 925.09 -1.48609 -1.27179 0
M  V30 10080 C 925.47 -0.208537 -2.10067 0
M  V30 10081 O 924.818 0.809335 -2.13687 0
M  V30 10082 C 925.028 -2.75953 -2.1366 0
M  V30 10083 C 926.376 -3.25067 -2.73161 0
M  V30 10084 O 927.4 -2.77005 -2.23934 0
M  V30 10085 O 926.259 -4.08747 -3.62751 0
M  V30 10086 H 923.353 -0.594374 -0.57502 0
M  V30 10087 H 925.899 -1.61358 -0.525515 0
M  V30 10088 H 924.671 -3.60434 -1.52325 0
M  V30 10089 H 924.294 -2.66019 -2.95499 0
M  V30 10090 N 925.291 0.760815 -1.38019 0
M  V30 10091 C 926.538 1.51973 -1.3383 0
M  V30 10092 C 926.866 1.9436 0.0738855 0
M  V30 10093 O 926.121 1.65181 1.04946 0
M  V30 10094 C 926.42 2.79024 -2.23339 0
M  V30 10095 C 926.086 2.55636 -3.71431 0
M  V30 10096 C 924.748 2.48966 -4.11788 0
M  V30 10097 C 927.1 2.35018 -4.65205 0
M  V30 10098 C 924.428 2.19684 -5.44018 0
M  V30 10099 C 926.78 2.07258 -5.97685 0
M  V30 10100 C 925.444 1.9904 -6.37134 0
M  V30 10101 H 924.714 0.556108 -0.489719 0
M  V30 10102 H 927.361 0.87545 -1.70318 0
M  V30 10103 H 925.666 3.48065 -1.79883 0
M  V30 10104 H 927.363 3.36951 -2.17405 0
M  V30 10105 H 923.953 2.61695 -3.39432 0
M  V30 10106 H 928.137 2.39154 -4.34878 0
M  V30 10107 H 923.393 2.11825 -5.73533 0
M  V30 10108 H 927.567 1.90307 -6.69893 0
M  V30 10109 H 925.194 1.76115 -7.39519 0
M  V30 10110 N 926.769 1.22769 0.988202 0
M  V30 10111 C 928.017 1.05301 1.725 0
M  V30 10112 C 928.338 -0.412103 1.90596 0
M  V30 10113 O 927.608 -1.29606 1.46898 0
M  V30 10114 H 926.188 0.386658 0.639144 0
M  V30 10115 H 928.85 1.54359 1.18993 0
M  V30 10116 H 927.946 1.53465 2.71763 0
M  V30 10117 N 928.247 -1.18576 1.03814 0
M  V30 10118 C 929.472 -1.92978 0.759873 0
M  V30 10119 C 929.897 -1.75514 -0.676486 0
M  V30 10120 O 929.255 -1.06359 -1.46824 0
M  V30 10121 C 929.303 -3.42507 1.12788 0
M  V30 10122 O 928.407 -4.1163 0.251886 0
M  V30 10123 H 927.748 -0.602129 0.279886 0
M  V30 10124 H 930.278 -1.50383 1.3873 0
M  V30 10125 H 930.288 -3.93206 1.08872 0
M  V30 10126 H 928.963 -3.5454 2.17427 0
M  V30 10127 H 927.54 -3.7125 0.350441 0
M  V30 10128 N 929.725 -0.817259 -1.34754 0
M  V30 10129 C 930.655 -0.249769 -2.3216 0
M  V30 10130 C 931.636 0.630663 -1.57977 0
M  V30 10131 O 932.821 0.558719 -1.85989 0
M  V30 10132 C 929.951 0.593825 -3.42186 0
M  V30 10133 C 928.905 -0.188997 -4.27583 0
M  V30 10134 C 928.231 0.776979 -5.29025 0
M  V30 10135 C 929.531 -1.39401 -5.03354 0
M  V30 10136 H 931.225 -1.06359 -2.79872 0
M  V30 10137 H 928.771 -0.512894 -1.34556 0
M  V30 10138 H 930.724 1.00097 -4.09339 0
M  V30 10139 H 929.448 1.44064 -2.93109 0
M  V30 10140 H 928.107 -0.577445 -3.62024 0
M  V30 10141 H 927.755 1.61959 -4.76212 0
M  V30 10142 H 927.455 0.257448 -5.87036 0
M  V30 10143 H 928.979 1.18211 -5.99048 0
M  V30 10144 H 930.393 -1.06117 -5.63393 0
M  V30 10145 H 928.79 -1.84878 -5.70912 0
M  V30 10146 H 929.86 -2.17515 -4.33377 0
M  V30 10147 N 931.203 1.46865 -0.571711 0
M  V30 10148 C 932.133 2.3298 0.155795 0
M  V30 10149 C 933.114 1.44678 0.894553 0
M  V30 10150 O 934.299 1.73513 0.872176 0
M  V30 10151 C 931.429 3.26745 1.17708 0
M  V30 10152 C 930.383 4.24401 0.553863 0
M  V30 10153 C 929.709 5.07595 1.68083 0
M  V30 10154 C 931.009 5.19884 -0.501827 0
M  V30 10155 H 932.703 2.94056 -0.563176 0
M  V30 10156 H 930.249 1.41402 -0.27228 0
M  V30 10157 H 932.202 3.85838 1.6943 0
M  V30 10158 H 930.926 2.63753 1.92618 0
M  V30 10159 H 929.585 3.66554 0.057815 0
M  V30 10160 H 929.233 4.40996 2.41933 0
M  V30 10161 H 928.933 5.73722 1.26953 0
M  V30 10162 H 930.457 5.6955 2.20103 0
M  V30 10163 H 931.871 5.73257 -0.0701057 0
M  V30 10164 H 930.268 5.94293 -0.832815 0
M  V30 10165 H 931.338 4.64482 -1.39229 0
M  V30 10166 N 932.681 0.308908 1.54543 0
M  V30 10167 C 933.628 -0.563659 2.23811 0
M  V30 10168 C 934.598 -1.12332 1.22355 0
M  V30 10169 O 935.783 -1.16638 1.50997 0
M  V30 10170 C 932.923 -1.72585 2.98845 0
M  V30 10171 C 932.036 -1.19682 4.1509 0
M  V30 10172 C 931.171 -2.32351 4.77688 0
M  V30 10173 C 930.21 -1.76623 5.86064 0
M  V30 10174 N 929.347 -2.82896 6.42584 0
M  V30 10175 H 934.187 0.0336288 2.97981 0
M  V30 10176 H 931.724 0.0283666 1.47073 0
M  V30 10177 H 933.682 -2.40951 3.40586 0
M  V30 10178 H 932.312 -2.29464 2.27037 0
M  V30 10179 H 931.364 -0.405173 3.78236 0
M  V30 10180 H 932.676 -0.748923 4.93146 0
M  V30 10181 H 931.83 -3.0865 5.22322 0
M  V30 10182 H 930.569 -2.80472 3.98982 0
M  V30 10183 H 929.574 -0.988171 5.40847 0
M  V30 10184 H 930.799 -1.29398 6.66658 0
M  V30 10185 H 928.745 -3.30336 5.66758 0
M  V30 10186 H 928.662 -2.42626 7.16009 0
M  V30 10187 H 929.93 -3.59068 6.91875 0
M  V30 10188 N 934.159 -1.57557 0.0367827 0
M  V30 10189 C 935.106 -2.10679 -0.942499 0
M  V30 10190 C 936.076 -1.01068 -1.31812 0
M  V30 10191 O 937.261 -1.28533 -1.41011 0
M  V30 10192 C 934.401 -2.64467 -2.21701 0
M  V30 10193 C 933.514 -3.88114 -1.89715 0
M  V30 10194 C 932.649 -4.30268 -3.11518 0
M  V30 10195 C 931.688 -5.46652 -2.75387 0
M  V30 10196 N 930.825 -5.83927 -3.89838 0
M  V30 10197 H 935.665 -2.94066 -0.482588 0
M  V30 10198 H 933.202 -1.45344 -0.226597 0
M  V30 10199 H 935.16 -2.93745 -2.96259 0
M  V30 10200 H 933.79 -1.83898 -2.65295 0
M  V30 10201 H 932.842 -3.65516 -1.05366 0
M  V30 10202 H 934.154 -4.72743 -1.5911 0
M  V30 10203 H 933.308 -4.61023 -3.94389 0
M  V30 10204 H 932.047 -3.44421 -3.4529 0
M  V30 10205 H 931.052 -5.15583 -1.90929 0
M  V30 10206 H 932.277 -6.34204 -2.42822 0
M  V30 10207 H 930.223 -5.01035 -4.23438 0
M  V30 10208 H 930.14 -6.63214 -3.62883 0
M  V30 10209 H 931.408 -6.19291 -4.73391 0
M  V30 10210 N 935.637 0.236453 -1.55816 0
M  V30 10211 C 936.914 0.986463 -1.68903 0
M  V30 10212 C 937.294 2.02984 -0.579722 0
M  V30 10213 O 936.642 2.24693 0.415389 0
M  V30 10214 C 936.852 1.61038 -3.09625 0
M  V30 10215 C 938.2 2.10829 -3.6856 0
M  V30 10216 O 939.224 1.7096 -3.12492 0
M  V30 10217 O 938.083 2.84064 -4.66873 0
M  V30 10218 H 935.177 0.459837 -0.687371 0
M  V30 10219 H 937.723 0.229412 -1.68142 0
M  V30 10220 H 936.495 0.856232 -3.81817 0
M  V30 10221 H 936.118 2.43336 -3.14441 0
M  V30 10222 N 937.115 1.49373 0.502552 0
M  V30 10223 C 938.063 1.66411 1.62512 0
M  V30 10224 C 939.057 0.530062 1.60893 0
M  V30 10225 O 940.263 0.709648 1.65421 0
M  V30 10226 H 936.638 0.524707 0.538689 0
M  V30 10227 H 938.609 2.60639 1.45293 0
M  V30 10228 C 937.358 1.74648 3.00655 0
M  V30 10229 H 936.681 2.61285 3.02606 0
M  V30 10230 H 938.121 1.90605 3.78742 0
M  V30 10231 C 936.58 0.490963 3.33303 0
M  V30 10232 O 937.11 -0.384039 3.9986 0
M  V30 10233 N 935.316 0.354375 2.88431 0
M  V30 10234 H 934.863 1.06742 2.34444 0
M  V30 10235 H 934.821 -0.484593 3.10643 0
M  V30 10236 N 938.594 -0.753485 1.38421 0
M  V30 10237 C 939.504 -1.89797 1.37892 0
M  V30 10238 C 940.52 -1.71797 0.276023 0
M  V30 10239 O 941.696 -1.94718 0.514464 0
M  V30 10240 C 938.761 -3.25166 1.20284 0
M  V30 10241 C 937.822 -3.55691 2.4038 0
M  V30 10242 C 937.055 -4.84601 2.23602 0
M  V30 10243 O 937.278 -5.56985 1.22979 0
M  V30 10244 O 936.212 -5.14605 3.12194 0
M  V30 10245 H 940.038 -1.93197 2.34326 0
M  V30 10246 H 937.623 -0.898775 1.19342 0
M  V30 10247 H 939.505 -4.06099 1.12525 0
M  V30 10248 H 938.18 -3.22577 0.269352 0
M  V30 10249 H 937.087 -2.74919 2.53714 0
M  V30 10250 H 938.42 -3.6304 3.32359 0
M  V30 10251 N 940.072 -1.23292 -0.981677 0
M  V30 10252 C 940.982 -1.02964 -2.10798 0
M  V30 10253 C 941.998 0.0254674 -1.73981 0
M  V30 10254 O 943.174 -0.169706 -2.00684 0
M  V30 10255 C 940.239 -0.621934 -3.41076 0
M  V30 10256 C 939.3 -1.75194 -3.91926 0
M  V30 10257 C 938.533 -1.36359 -5.15986 0
M  V30 10258 O 938.756 -0.247265 -5.69864 0
M  V30 10259 O 937.69 -2.18421 -5.60871 0
M  V30 10260 H 941.516 -1.97354 -2.30836 0
M  V30 10261 H 939.101 -1.01986 -1.09175 0
M  V30 10262 H 940.983 -0.405446 -4.19445 0
M  V30 10263 H 939.658 0.29299 -3.22371 0
M  V30 10264 H 938.565 -2.02305 -3.1468 0
M  V30 10265 H 939.898 -2.64513 -4.15083 0
M  V30 10266 N 941.55 1.18024 -1.04442 0
M  V30 10267 C 942.775 1.92573 -0.770097 0
M  V30 10268 C 943.2 1.75871 0.667169 0
M  V30 10269 O 942.558 1.07136 1.46258 0
M  V30 10270 C 942.606 3.41904 -1.14602 0
M  V30 10271 O 941.71 4.11491 -0.273712 0
M  V30 10272 H 941.051 0.600636 -0.283076 0
M  V30 10273 H 943.581 1.49645 -1.39526 0
M  V30 10274 H 943.591 3.92623 -1.10956 0
M  V30 10275 H 942.266 3.53382 -2.19304 0
M  V30 10276 H 940.843 3.71059 -0.370124 0
M  V30 10277 N 943.028 0.824394 1.34319 0
M  V30 10278 C 943.938 0.24932 2.33271 0
M  V30 10279 C 944.954 -0.617066 1.62691 0
M  V30 10280 O 946.13 -0.524616 1.94447 0
M  V30 10281 C 943.195 -0.578094 3.41846 0
M  V30 10282 C 942.256 0.310866 4.28173 0
M  V30 10283 C 941.489 -0.477153 5.31563 0
M  V30 10284 O 941.712 -1.71028 5.44156 0
M  V30 10285 O 940.646 0.141287 6.01734 0
M  V30 10286 H 944.472 1.06837 2.84288 0
M  V30 10287 H 942.057 0.58657 1.37403 0
M  V30 10288 H 943.939 -1.04878 4.0814 0
M  V30 10289 H 942.614 -1.37444 2.93071 0
M  V30 10290 H 941.521 0.829081 3.64797 0
M  V30 10291 H 942.854 1.07161 4.80393 0
M  V30 10292 N 944.506 -1.46559 0.579492 0
M  V30 10293 C 945.438 -2.28383 -0.19337 0
M  V30 10294 C 946.451 -1.38324 -0.858511 0
M  V30 10295 O 947.64 -1.62952 -0.728615 0
M  V30 10296 C 944.74 -3.13262 -1.29306 0
M  V30 10297 C 943.913 -4.31426 -0.720459 0
M  V30 10298 C 942.972 -4.97728 -1.70744 0
M  V30 10299 O 941.998 -5.55423 -1.24476 0
M  V30 10300 N 943.2 -4.94445 -3.04146 0
M  V30 10301 H 945.965 -2.95353 0.508611 0
M  V30 10302 H 943.526 -1.56436 0.417046 0
M  V30 10303 H 945.518 -3.54483 -1.95254 0
M  V30 10304 H 944.088 -2.48388 -1.89795 0
M  V30 10305 H 943.308 -3.94028 0.116398 0
M  V30 10306 H 944.596 -5.07808 -0.31763 0
M  V30 10307 H 943.994 -4.4881 -3.44363 0
M  V30 10308 H 942.551 -5.39616 -3.65592 0
M  V30 10309 N 945.984 -0.3171 -1.54377 0
M  V30 10310 C 947.395 0.172287 -1.85903 0
M  V30 10311 C 947.746 1.52141 -1.23885 0
M  V30 10312 O 946.871 2.0949 -0.542476 0
M  V30 10313 C 947.466 0.319392 -3.37291 0
M  V30 10314 C 946.025 0.752998 -3.68791 0
M  V30 10315 C 945.172 -0.129143 -2.76999 0
M  V30 10316 H 948.123 -0.537597 -1.49317 0
M  V30 10317 H 948.144 1.15137 -3.62662 0
M  V30 10318 H 947.656 -0.662671 -3.82401 0
M  V30 10319 H 945.757 1.74504 -3.2921 0
M  V30 10320 H 945.87 0.561228 -4.75801 0
M  V30 10321 H 944.234 0.394242 -2.5163 0
M  V30 10322 H 945.017 -1.10785 -3.24933 0
M  V30 10323 N 947.462 1.57535 -0.0451378 0
M  V30 10324 C 948.873 1.80116 0.491426 0
M  V30 10325 C 949.224 0.956846 1.71286 0
M  V30 10326 O 948.349 0.17173 2.15718 0
M  V30 10327 C 948.944 3.26674 0.898315 0
M  V30 10328 C 947.503 3.50194 1.37989 0
M  V30 10329 C 946.65 2.75054 0.352202 0
M  V30 10330 H 949.601 1.56368 -0.271065 0
M  V30 10331 H 949.622 3.37263 1.76164 0
M  V30 10332 H 949.134 3.88099 0.009141 0
M  V30 10333 H 947.235 2.94041 2.28846 0
M  V30 10334 H 947.348 4.58909 1.37622 0
M  V30 10335 H 945.712 2.4101 0.823784 0
M  V30 10336 H 946.495 3.39203 -0.528782 0
M  V30 10337 N 948.94 -0.228186 1.55939 0
M  V30 10338 C 950.186 -0.954964 1.78909 0
M  V30 10339 C 950.519 -1.8425 0.613648 0
M  V30 10340 O 949.794 -1.90604 -0.38737 0
M  V30 10341 C 950.077 -1.79957 3.1191 0
M  V30 10342 C 949.93 -0.938968 4.3989 0
M  V30 10343 C 951.249 -2.77859 3.41295 0
M  V30 10344 H 948.368 -0.345745 0.650868 0
M  V30 10345 H 951.01 -0.224244 1.88672 0
M  V30 10346 H 949.16 -2.42256 3.03717 0
M  V30 10347 H 950.832 -0.333225 4.60095 0
M  V30 10348 H 949.075 -0.244096 4.33113 0
M  V30 10349 H 949.746 -1.56416 5.29375 0
M  V30 10350 H 952.222 -2.25695 3.49572 0
M  V30 10351 H 951.098 -3.34062 4.35538 0
M  V30 10352 H 951.359 -3.55266 2.63132 0
M  V30 10353 N 950.418 -1.49637 -0.494624 0
M  V30 10354 C 951.829 -1.52573 -1.07603 0
M  V30 10355 C 952.18 -0.315591 -1.93645 0
M  V30 10356 O 951.305 0.573966 -2.08649 0
M  V30 10357 C 951.9 -2.7648 -1.95817 0
M  V30 10358 C 950.459 -2.82173 -2.49109 0
M  V30 10359 C 949.606 -2.4657 -1.2688 0
M  V30 10360 H 952.557 -1.56242 -0.278251 0
M  V30 10361 H 952.578 -2.57003 -2.80588 0
M  V30 10362 H 952.09 -3.64538 -1.33167 0
M  V30 10363 H 950.191 -1.9841 -3.15379 0
M  V30 10364 H 950.304 -3.84501 -2.85825 0
M  V30 10365 H 948.668 -1.98489 -1.59607 0
M  V30 10366 H 949.451 -3.3691 -0.659281 0
M  V30 10367 N 951.896 0.746133 -1.38819 0
M  V30 10368 C 953.144 1.50247 -1.35167 0
M  V30 10369 C 953.465 1.94921 0.0553531 0
M  V30 10370 O 952.735 1.68187 1.00449 0
M  V30 10371 H 951.315 0.557337 -0.497377 0
M  V30 10372 H 953.977 0.886472 -1.73573 0
M  V30 10373 H 953.073 2.38986 -2.00728 0
M  V30 10374 N 953.375 1.23811 0.975125 0
M  V30 10375 C 954.603 1.10019 1.75224 0
M  V30 10376 C 955.018 -0.34791 1.85567 0
M  V30 10377 O 954.375 -1.24043 1.33864 0
M  V30 10378 C 954.426 1.72572 3.1765 0
M  V30 10379 O 954.147 3.11719 3.07836 0
M  V30 10380 C 955.648 1.64292 4.11732 0
M  V30 10381 H 952.868 0.38476 0.549728 0
M  V30 10382 H 955.412 1.63768 1.22476 0
M  V30 10383 H 953.567 1.22843 3.67408 0
M  V30 10384 H 953.981 3.42152 3.97533 0
M  V30 10385 H 955.455 2.12754 5.09352 0
M  V30 10386 H 955.932 0.602722 4.35045 0
M  V30 10387 H 956.538 2.13411 3.6788 0
M  V30 10388 N 954.853 -1.17469 1.05066 0
M  V30 10389 C 956.264 -1.69334 0.786304 0
M  V30 10390 C 956.615 -1.83604 -0.691671 0
M  V30 10391 O 955.74 -1.52269 -1.53763 0
M  V30 10392 C 956.335 -3.07572 1.42074 0
M  V30 10393 C 954.894 -3.56609 1.20446 0
M  V30 10394 C 954.041 -2.329 1.50508 0
M  V30 10395 H 956.992 -1.02003 1.21577 0
M  V30 10396 H 957.013 -3.71352 0.829334 0
M  V30 10397 H 956.525 -2.97154 2.49642 0
M  V30 10398 H 954.626 -3.72306 0.147968 0
M  V30 10399 H 954.739 -4.39446 1.90852 0
M  V30 10400 H 953.103 -2.37305 0.925124 0
M  V30 10401 H 953.886 -2.25093 2.59207 0
M  V30 10402 N 956.331 -0.831506 -1.3388 0
M  V30 10403 C 957.559 -0.436925 -2.02234 0
M  V30 10404 C 957.974 0.959689 -1.6259 0
M  V30 10405 O 957.331 1.62248 -0.835576 0
M  V30 10406 C 957.382 -0.539429 -3.57453 0
M  V30 10407 O 957.103 -1.88101 -3.95664 0
M  V30 10408 C 958.604 -0.140852 -4.43076 0
M  V30 10409 H 955.824 -0.174302 -0.647966 0
M  V30 10410 H 958.368 -1.12204 -1.70969 0
M  V30 10411 H 956.523 0.0976959 -3.87277 0
M  V30 10412 H 956.937 -1.86131 -4.90363 0
M  V30 10413 H 958.411 -0.26364 -5.5137 0
M  V30 10414 H 958.888 0.916505 -4.29531 0
M  V30 10415 H 959.494 -0.752117 -4.18597 0
M  V30 10416 N 957.809 1.4625 -0.587256 0
M  V30 10417 C 958.739 2.33132 0.131076 0
M  V30 10418 C 959.72 1.45619 0.879158 0
M  V30 10419 O 960.905 1.74428 0.853723 0
M  V30 10420 C 958.035 3.27975 1.14236 0
M  V30 10421 C 956.989 4.24965 0.508819 0
M  V30 10422 C 956.315 5.09349 1.62689 0
M  V30 10423 C 957.615 5.19322 -0.55694 0
M  V30 10424 H 959.309 2.93442 -0.594333 0
M  V30 10425 H 956.855 1.41106 -0.287263 0
M  V30 10426 H 958.808 3.87614 1.65328 0
M  V30 10427 H 957.532 2.65781 1.8981 0
M  V30 10428 H 956.191 3.66595 0.0189337 0
M  V30 10429 H 955.839 4.43537 2.37242 0
M  V30 10430 H 955.539 5.75036 1.20861 0
M  V30 10431 H 957.063 5.71852 2.14049 0
M  V30 10432 H 958.477 5.73151 -0.130903 0
M  V30 10433 H 956.874 5.93376 -0.895801 0
M  V30 10434 H 957.944 4.62979 -1.44148 0
M  V30 10435 N 959.287 0.325282 1.54207 0
M  V30 10436 C 960.703 -0.0273036 1.59577 0
M  V30 10437 C 960.903 -1.50329 1.34177 0
M  V30 10438 O 959.959 -2.25951 1.12705 0
M  V30 10439 C 961.272 0.392468 2.98128 0
M  V30 10440 C 962.82 0.343269 3.11112 0
M  V30 10441 C 963.295 0.738229 4.52011 0
M  V30 10442 N 964.786 0.691701 4.58006 0
M  V30 10443 C 965.521 0.969479 5.65145 0
M  V30 10444 N 965.017 1.31448 6.80216 0
M  V30 10445 N 966.81 0.894926 5.5493 0
M  V30 10446 H 958.961 1.28692 1.68974 0
M  V30 10447 H 961.224 0.523399 0.790416 0
M  V30 10448 H 960.93 1.42089 3.2172 0
M  V30 10449 H 960.804 -0.241651 3.76425 0
M  V30 10450 H 963.191 -0.675946 2.87254 0
M  V30 10451 H 963.272 1.01235 2.34915 0
M  V30 10452 H 962.916 1.75537 4.76602 0
M  V30 10453 H 962.846 0.0468226 5.26579 0
M  V30 10454 H 965.337 0.436975 3.75365 0
M  V30 10455 H 965.65 1.51177 7.57869 0
M  V30 10456 H 963.995 1.35276 6.81708 0
M  V30 10457 H 967.186 0.624876 4.6391 0
M  V30 10458 H 967.359 1.11476 6.38339 0
M  V30 10459 N 960.765 -1.57509 0.0534917 0
M  V30 10460 C 961.713 -2.12851 -0.937931 0
M  V30 10461 C 962.707 -1.06088 -1.32067 0
M  V30 10462 O 963.913 -1.24494 -1.30005 0
M  V30 10463 H 960.288 -0.680357 -0.320342 0
M  V30 10464 H 962.259 -2.95047 -0.446077 0
M  V30 10465 C 961.008 -2.69034 -2.20264 0
M  V30 10466 H 960.331 -3.50848 -1.91693 0
M  V30 10467 H 961.771 -3.11375 -2.87788 0
M  V30 10468 C 960.23 -1.62919 -2.94888 0
M  V30 10469 O 960.76 -1.04334 -3.87914 0
M  V30 10470 N 958.966 -1.34385 -2.57661 0
M  V30 10471 H 958.513 -1.82214 -1.82088 0
M  V30 10472 H 958.471 -0.636149 -3.07897 0
M  V30 10473 N 962.243 0.219913 -1.56058 0
M  V30 10474 C 963.659 0.569685 -1.49086 0
M  V30 10475 C 963.859 1.87066 -0.748903 0
M  V30 10476 O 962.915 2.50838 -0.289235 0
M  V30 10477 C 964.228 0.647397 -2.93648 0
M  V30 10478 C 965.776 0.737914 -3.04177 0
M  V30 10479 C 966.251 0.846957 -4.50101 0
M  V30 10480 N 967.742 0.911136 -4.5415 0
M  V30 10481 C 968.477 1.01525 -5.64341 0
M  V30 10482 N 967.973 1.0832 -6.8428 0
M  V30 10483 N 969.766 1.05051 -5.52196 0
M  V30 10484 H 961.917 -0.633778 -2.02724 0
M  V30 10485 H 964.18 -0.222583 -0.921499 0
M  V30 10486 H 963.886 -0.238987 -3.50887 0
M  V30 10487 H 963.76 1.51046 -3.45637 0
M  V30 10488 H 966.147 1.61474 -2.47002 0
M  V30 10489 H 966.228 -0.150845 -2.55355 0
M  V30 10490 H 965.872 -0.0254166 -5.07894 0
M  V30 10491 H 965.802 1.75116 -4.96631 0
M  V30 10492 H 968.293 0.868869 -3.67776 0
M  V30 10493 H 968.606 1.16247 -7.64007 0
M  V30 10494 H 966.951 1.05231 -6.86987 0
M  V30 10495 H 970.142 0.994086 -4.57423 0
M  V30 10496 H 970.315 1.12819 -6.38103 0
M  V30 10497 N 963.721 1.49897 0.486681 0
M  V30 10498 C 964.949 1.63837 1.26353 0
M  V30 10499 C 965.364 0.315428 1.86146 0
M  V30 10500 O 964.721 -0.700831 1.68507 0
M  V30 10501 C 964.772 2.71792 2.38351 0
M  V30 10502 O 964.493 3.98956 1.81013 0
M  V30 10503 C 965.994 2.96566 3.2949 0
M  V30 10504 H 963.214 0.551158 0.382709 0
M  V30 10505 H 965.758 1.96023 0.582694 0
M  V30 10506 H 963.913 2.42344 3.02238 0
M  V30 10507 H 964.327 4.58536 2.54647 0
M  V30 10508 H 965.801 3.75803 4.04322 0
M  V30 10509 H 966.278 2.07031 3.87343 0
M  V30 10510 H 966.884 3.27485 2.71355 0
M  V30 10511 N 965.199 -0.738761 1.39212 0
M  V30 10512 C 966.446 -1.49824 1.36231 0
M  V30 10513 C 966.774 -1.94453 -0.0429552 0
M  V30 10514 O 966.029 -1.6683 -1.02304 0
M  V30 10515 C 966.328 -2.75435 2.2775 0
M  V30 10516 C 965.994 -2.49694 3.75451 0
M  V30 10517 C 964.656 -2.42383 4.15697 0
M  V30 10518 C 967.008 -2.27587 4.68885 0
M  V30 10519 C 964.336 -2.11001 5.47444 0
M  V30 10520 C 966.688 -1.97723 6.00906 0
M  V30 10521 C 965.352 -1.88879 6.4022 0
M  V30 10522 H 964.622 -0.548247 0.498504 0
M  V30 10523 H 967.269 -0.848244 1.71689 0
M  V30 10524 H 965.574 -3.45159 1.85398 0
M  V30 10525 H 967.271 -3.33449 2.22739 0
M  V30 10526 H 963.861 -2.56261 3.43552 0
M  V30 10527 H 968.045 -2.32206 4.38628 0
M  V30 10528 H 963.301 -2.02673 5.76831 0
M  V30 10529 H 967.475 -1.79625 6.72836 0
M  V30 10530 H 965.102 -1.64327 7.42227 0
M  V30 10531 N 966.677 -1.24326 -0.968545 0
M  V30 10532 C 967.902 -1.1104 -1.75171 0
M  V30 10533 C 968.327 0.333109 -1.85127 0
M  V30 10534 O 967.685 1.24115 -1.32156 0
M  V30 10535 C 967.733 -1.75397 -3.15068 0
M  V30 10536 O 966.837 -1.02417 -3.9948 0
M  V30 10537 H 966.178 -0.388488 -0.538491 0
M  V30 10538 H 968.708 -1.64617 -1.215 0
M  V30 10539 H 968.718 -1.8112 -3.65595 0
M  V30 10540 H 967.393 -2.80427 -3.07138 0
M  V30 10541 H 965.97 -1.04475 -3.57966 0
M  V30 10542 N 968.156 1.1691 -1.05688 0
M  V30 10543 C 969.066 2.24735 -0.67315 0
M  V30 10544 C 970.082 1.71252 0.308043 0
M  V30 10545 O 971.258 2.00772 0.158889 0
M  V30 10546 C 968.323 3.4665 -0.059026 0
M  V30 10547 C 967.384 4.15198 -1.0913 0
M  V30 10548 C 966.617 5.31292 -0.50639 0
M  V30 10549 O 966.84 5.663 0.682692 0
M  V30 10550 O 965.774 5.88923 -1.2431 0
M  V30 10551 H 969.6 2.59855 -1.57191 0
M  V30 10552 H 967.185 1.24306 -0.828751 0
M  V30 10553 H 969.067 4.20455 0.282018 0
M  V30 10554 H 967.742 3.13316 0.813304 0
M  V30 10555 H 966.649 3.43389 -1.48442 0
M  V30 10556 H 967.982 4.52571 -1.93495 0
M  V30 10557 N 969.634 0.838594 1.33437 0
M  V30 10558 C 970.859 0.446701 2.02532 0
M  V30 10559 C 971.284 -0.944275 1.62681 0
M  V30 10560 O 970.642 -1.61733 0.81927 0
M  V30 10561 C 970.69 0.574794 3.55989 0
M  V30 10562 O 969.794 -0.399063 4.10465 0
M  V30 10563 H 969.135 0.181637 0.638674 0
M  V30 10564 H 971.665 1.13335 1.70342 0
M  V30 10565 H 971.675 0.456339 4.0544 0
M  V30 10566 H 970.35 1.58921 3.8434 0
M  V30 10567 H 968.927 -0.238187 3.72139 0
M  V30 10568 N 971.112 -1.45937 0.595003 0
M  V30 10569 C 972.337 -2.07207 0.0894416 0
M  V30 10570 C 972.762 -1.43884 -1.21157 0
M  V30 10571 O 972.12 -0.526998 -1.73472 0
M  V30 10572 C 972.168 -3.60565 -0.0499828 0
M  V30 10573 O 971.272 -3.97364 -1.10342 0
M  V30 10574 H 970.613 -0.660471 0.0683627 0
M  V30 10575 H 973.143 -1.87386 0.82144 0
M  V30 10576 H 973.153 -4.0722 -0.252234 0
M  V30 10577 H 971.828 -4.06044 0.90006 0
M  V30 10578 H 970.405 -3.62401 -0.878645 0
M  V30 10579 N 972.59 -0.333456 -1.54032 0
M  V30 10580 C 973.836 0.266527 -2.01041 0
M  V30 10581 C 974.169 1.51006 -1.2211 0
M  V30 10582 O 973.444 1.92078 -0.306016 0
M  V30 10583 C 973.727 0.59078 -3.55221 0
M  V30 10584 C 973.58 -0.664143 -4.4487 0
M  V30 10585 C 974.899 1.40447 -4.17088 0
M  V30 10586 H 972.018 0.0953979 -0.7308 0
M  V30 10587 H 974.66 -0.451995 -1.84545 0
M  V30 10588 H 972.81 1.20292 -3.69408 0
M  V30 10589 H 974.482 -1.30227 -4.42537 0
M  V30 10590 H 972.725 -1.29106 -4.14143 0
M  V30 10591 H 973.396 -0.392664 -5.50602 0
M  V30 10592 H 975.872 0.886946 -4.06537 0
M  V30 10593 H 974.748 1.6001 -5.2506 0
M  V30 10594 H 975.009 2.40357 -3.71054 0
M  V30 10595 N 974.068 1.57479 -0.061844 0
M  V30 10596 C 975.314 1.9421 0.604485 0
M  V30 10597 C 975.669 0.941011 1.67818 0
M  V30 10598 O 974.962 -0.0382264 1.91562 0
M  V30 10599 C 975.156 3.35394 1.23474 0
M  V30 10600 C 974.985 4.49144 0.223628 0
M  V30 10601 C 973.755 5.04949 -0.188187 0
M  V30 10602 C 975.953 5.11508 -0.535193 0
M  V30 10603 N 973.935 6.02235 -1.19105 0
M  V30 10604 C 975.306 6.04199 -1.39082 0
M  V30 10605 C 977.361 4.94364 -0.592346 0
M  V30 10606 C 976.064 6.81587 -2.2985 0
M  V30 10607 C 978.09 5.72388 -1.48749 0
M  V30 10608 C 977.452 6.6472 -2.33082 0
M  V30 10609 H 973.551 0.757931 0.192522 0
M  V30 10610 H 976.135 1.9422 -0.136667 0
M  V30 10611 H 974.306 3.36141 1.94587 0
M  V30 10612 H 976.038 3.59387 1.86073 0
M  V30 10613 H 972.793 4.73207 0.192933 0
M  V30 10614 H 973.217 6.55575 -1.68969 0
M  V30 10615 H 977.859 4.22776 0.045445 0
M  V30 10616 H 975.577 7.5246 -2.94669 0
M  V30 10617 H 979.163 5.61146 -1.53642 0
M  V30 10618 H 978.043 7.2404 -3.01225 0
M  V30 10619 N 975.546 -0.211634 1.56173 0
M  V30 10620 C 976.771 -0.955324 1.84088 0
M  V30 10621 C 977.196 -1.76754 0.643407 0
M  V30 10622 O 976.554 -1.76653 -0.407842 0
M  V30 10623 C 976.602 -1.84063 3.10085 0
M  V30 10624 O 975.706 -2.9373 2.89476 0
M  V30 10625 H 975.047 -0.26996 0.606645 0
M  V30 10626 H 977.577 -0.221947 2.03393 0
M  V30 10627 H 977.587 -2.24852 3.40449 0
M  V30 10628 H 976.262 -1.24373 3.96868 0
M  V30 10629 H 974.839 -2.56816 2.7037 0
M  V30 10630 N 977.024 -1.50153 -0.478725 0
M  V30 10631 C 977.956 -1.64603 -1.59494 0
M  V30 10632 C 978.969 -0.527789 -1.54007 0
M  V30 10633 O 980.158 -0.80069 -1.59534 0
M  V30 10634 C 977.258 -1.60738 -2.98356 0
M  V30 10635 C 976.431 -2.88468 -3.28794 0
M  V30 10636 C 975.49 -2.77349 -4.47173 0
M  V30 10637 O 974.516 -3.51302 -4.47857 0
M  V30 10638 N 975.718 -1.9039 -5.4839 0
M  V30 10639 H 978.483 -2.6088 -1.47518 0
M  V30 10640 H 976.044 -1.47521 -0.667011 0
M  V30 10641 H 978.036 -1.50923 -3.75505 0
M  V30 10642 H 976.606 -0.722273 -3.04141 0
M  V30 10643 H 975.826 -3.12467 -2.40329 0
M  V30 10644 H 977.114 -3.73102 -3.45937 0
M  V30 10645 H 976.512 -1.29606 -5.50653 0
M  V30 10646 H 975.069 -1.86484 -6.24553 0
M  V30 10647 N 978.502 0.731368 -1.39602 0
M  V30 10648 C 979.434 1.85575 -1.34516 0
M  V30 10649 C 980.447 1.60818 -0.253287 0
M  V30 10650 O 981.636 1.70984 -0.512505 0
M  V30 10651 C 978.736 3.21673 -1.06676 0
M  V30 10652 C 977.909 3.73757 -2.27211 0
M  V30 10653 C 976.968 4.88426 -1.95773 0
M  V30 10654 O 975.994 5.01898 -2.68491 0
M  V30 10655 N 977.196 5.73065 -0.926083 0
M  V30 10656 H 979.961 1.90442 -2.31413 0
M  V30 10657 H 977.522 0.912258 -1.33752 0
M  V30 10658 H 979.514 3.95959 -0.836577 0
M  V30 10659 H 978.084 3.12052 -0.185003 0
M  V30 10660 H 977.304 2.90781 -2.66158 0
M  V30 10661 H 978.592 4.05289 -3.07601 0
M  V30 10662 H 977.99 5.64774 -0.323497 0
M  V30 10663 H 976.547 6.47403 -0.755795 0
M  V30 10664 N 979.98 1.24838 0.961938 0
M  V30 10665 C 981.205 1.11967 1.7458 0
M  V30 10666 C 981.63 -0.323287 1.85301 0
M  V30 10667 O 980.988 -1.23412 1.32812 0
M  V30 10668 C 981.036 1.77066 3.14134 0
M  V30 10669 O 980.14 1.04534 3.98932 0
M  V30 10670 H 979.481 0.391338 0.536424 0
M  V30 10671 H 982.011 1.65259 1.20626 0
M  V30 10672 H 982.021 1.83056 3.64629 0
M  V30 10673 H 980.696 2.82052 3.05646 0
M  V30 10674 H 979.273 1.06372 3.57407 0
M  V30 10675 N 981.458 -1.16348 1.06306 0
M  V30 10676 C 982.683 -1.91323 0.800636 0
M  V30 10677 C 983.108 -1.7691 -0.639105 0
M  V30 10678 O 982.466 -1.0945 -1.44535 0
M  V30 10679 C 982.514 -3.40038 1.20027 0
M  V30 10680 O 981.618 -4.11003 0.339142 0
M  V30 10681 H 980.959 -0.596057 0.292595 0
M  V30 10682 H 983.489 -1.47406 1.41889 0
M  V30 10683 H 983.499 -3.90808 1.17188 0
M  V30 10684 H 982.174 -3.49848 2.24898 0
M  V30 10685 H 980.751 -3.70423 0.42911 0
M  V30 10686 N 982.937 -0.845659 -1.3299 0
M  V30 10687 C 984.353 -0.53433 -1.5039 0
M  V30 10688 C 984.553 0.936939 -1.78392 0
M  V30 10689 O 983.609 1.72043 -1.84818 0
M  V30 10690 C 984.922 -1.41354 -2.65404 0
M  V30 10691 C 986.47 -1.41303 -2.79289 0
M  V30 10692 C 986.945 -2.27724 -3.97373 0
M  V30 10693 N 988.436 -2.25471 -4.0462 0
M  V30 10694 C 989.171 -2.89074 -4.95201 0
M  V30 10695 N 988.667 -3.61755 -5.90851 0
M  V30 10696 N 990.46 -2.78508 -4.88251 0
M  V30 10697 H 982.611 -1.79798 -1.13078 0
M  V30 10698 H 984.874 -0.767454 -0.556524 0
M  V30 10699 H 984.58 -2.45936 -2.51413 0
M  V30 10700 H 984.454 -1.09445 -3.60973 0
M  V30 10701 H 986.841 -0.374899 -2.92709 0
M  V30 10702 H 986.922 -1.77222 -1.84461 0
M  V30 10703 H 986.566 -3.316 -3.84713 0
M  V30 10704 H 986.496 -1.89142 -4.9146 0
M  V30 10705 H 988.987 -1.72622 -3.3617 0
M  V30 10706 H 989.3 -4.07475 -6.56646 0
M  V30 10707 H 987.645 -3.65863 -5.90906 0
M  V30 10708 H 990.836 -2.21285 -4.12493 0
M  V30 10709 H 991.009 -3.2836 -5.58645 0
M  V30 10710 N 984.415 1.45619 -0.602734 0
M  V30 10711 C 985.826 1.85814 -0.181636 0
M  V30 10712 C 986.177 1.5037 1.26029 0
M  V30 10713 O 985.302 0.928068 1.95489 0
M  V30 10714 C 985.897 3.37258 -0.322866 0
M  V30 10715 C 984.456 3.76375 0.043504 0
M  V30 10716 C 983.603 2.69585 -0.649561 0
M  V30 10717 H 986.554 1.36489 -0.809721 0
M  V30 10718 H 986.575 3.77874 0.446279 0
M  V30 10719 H 986.087 3.63024 -1.37241 0
M  V30 10720 H 984.188 3.56226 1.09241 0
M  V30 10721 H 984.301 4.77843 -0.346765 0
M  V30 10722 H 982.665 2.54549 -0.087706 0
M  V30 10723 H 983.448 2.98188 -1.70115 0
M  V30 10724 N 985.893 0.34162 1.53853 0
M  V30 10725 C 987.118 -0.259608 2.05769 0
M  V30 10726 C 987.543 -1.43588 1.21507 0
M  V30 10727 O 986.901 -1.79856 0.228364 0
M  V30 10728 C 986.949 -0.654455 3.54611 0
M  V30 10729 O 986.053 -1.75472 3.73207 0
M  V30 10730 H 985.394 -0.0434621 0.662576 0
M  V30 10731 H 987.924 0.495274 1.98515 0
M  V30 10732 H 987.934 -0.932142 3.97209 0
M  V30 10733 H 986.609 0.205779 4.15391 0
M  V30 10734 H 985.186 -1.47444 3.42512 0
M  V30 10735 N 987.371 -1.57444 0.0701946 0
M  V30 10736 C 988.301 -2.15659 -0.895176 0
M  V30 10737 C 989.282 -1.08321 -1.31151 0
M  V30 10738 O 990.467 -1.36349 -1.38284 0
M  V30 10739 C 987.597 -2.71693 -2.16334 0
M  V30 10740 C 986.551 -3.84183 -1.88645 0
M  V30 10741 C 985.877 -4.26814 -3.22078 0
M  V30 10742 C 987.177 -5.08493 -1.19299 0
M  V30 10743 H 988.871 -2.96576 -0.410217 0
M  V30 10744 H 986.417 -1.42662 -0.195872 0
M  V30 10745 H 988.37 -3.11064 -2.84284 0
M  V30 10746 H 987.094 -1.87994 -2.67069 0
M  V30 10747 H 985.753 -3.45314 -1.23101 0
M  V30 10748 H 985.401 -3.40039 -3.70651 0
M  V30 10749 H 985.101 -5.02642 -3.04344 0
M  V30 10750 H 986.625 -4.68799 -3.91228 0
M  V30 10751 H 988.039 -5.4519 -1.77316 0
M  V30 10752 H 986.436 -5.89588 -1.11828 0
M  V30 10753 H 987.506 -4.84595 -0.171839 0
M  V30 10754 N 988.849 0.203349 -1.56283 0
M  V30 10755 C 989.796 1.25205 -1.93888 0
M  V30 10756 C 990.766 1.45654 -0.798376 0
M  V30 10757 O 991.951 1.58924 -1.05583 0
M  V30 10758 C 989.091 2.59355 -2.27659 0
M  V30 10759 C 988.204 2.46553 -3.54733 0
M  V30 10760 C 987.339 3.73351 -3.77865 0
M  V30 10761 C 986.378 3.55347 -4.98392 0
M  V30 10762 N 985.515 4.74137 -5.17821 0
M  V30 10763 H 990.355 0.924356 -2.83301 0
M  V30 10764 H 987.892 0.445082 -1.40205 0
M  V30 10765 H 989.85 3.375 -2.45254 0
M  V30 10766 H 988.48 2.90184 -1.41396 0
M  V30 10767 H 987.532 1.59749 -3.45231 0
M  V30 10768 H 988.844 2.2918 -4.43033 0
M  V30 10769 H 987.998 4.59937 -3.95655 0
M  V30 10770 H 986.737 3.9367 -2.8788 0
M  V30 10771 H 985.742 2.67146 -4.80534 0
M  V30 10772 H 986.967 3.36482 -5.89879 0
M  V30 10773 H 984.913 4.94735 -4.30782 0
M  V30 10774 H 984.83 4.59558 -6.00285 0
M  V30 10775 H 986.098 5.62098 -5.40061 0
M  V30 10776 N 990.327 1.50405 0.470755 0
M  V30 10777 C 991.604 1.51929 1.23195 0
M  V30 10778 C 991.984 0.264159 2.09441 0
M  V30 10779 O 991.332 -0.752395 2.15757 0
M  V30 10780 C 991.542 2.81521 2.06269 0
M  V30 10781 C 992.89 3.32195 2.64446 0
M  V30 10782 O 993.914 2.82845 2.16511 0
M  V30 10783 O 992.773 4.18221 3.51786 0
M  V30 10784 H 989.867 0.609411 0.559059 0
M  V30 10785 H 992.413 1.62695 0.482549 0
M  V30 10786 H 991.185 3.64346 1.42715 0
M  V30 10787 H 990.808 2.7376 2.88342 0
M  V30 10788 N 991.805 -0.723954 1.39988 0
M  V30 10789 C 993.053 -1.48078 1.3754 0
M  V30 10790 C 993.374 -1.94985 -0.0243358 0
M  V30 10791 O 992.644 -1.69764 -0.977602 0
M  V30 10792 H 991.224 -0.549354 0.506181 0
M  V30 10793 H 993.886 -0.858746 1.74962 0
M  V30 10794 H 992.982 -2.35763 2.04505 0
M  V30 10795 N 993.283 -1.25346 -0.955304 0
M  V30 10796 C 994.246 -1.05754 -2.03344 0
M  V30 10797 C 995.246 -0.0105743 -1.60797 0
M  V30 10798 O 996.436 -0.252699 -1.72357 0
M  V30 10799 C 993.568 -0.605536 -3.35479 0
M  V30 10800 H 994.761 -2.01459 -2.22158 0
M  V30 10801 H 992.314 -1.07744 -1.1323 0
M  V30 10802 H 993.049 0.354154 -3.2236 0
M  V30 10803 H 992.834 -1.36134 -3.67709 0
M  V30 10804 H 994.324 -0.489867 -4.14717 0
M  V30 10805 N 994.761 1.15782 -1.06922 0
M  V30 10806 C 995.691 2.22538 -0.707045 0
M  V30 10807 C 996.672 1.67371 0.303471 0
M  V30 10808 O 997.857 1.9339 0.177189 0
M  V30 10809 C 994.987 3.47158 -0.0994269 0
M  V30 10810 C 993.941 4.15257 -1.03661 0
M  V30 10811 C 993.267 5.33902 -0.291974 0
M  V30 10812 C 994.567 4.65516 -2.36837 0
M  V30 10813 H 996.261 2.53089 -1.59958 0
M  V30 10814 H 993.807 1.21649 -0.770552 0
M  V30 10815 H 995.76 4.21073 0.165852 0
M  V30 10816 H 994.484 3.15926 0.828155 0
M  V30 10817 H 993.143 3.43276 -1.28674 0
M  V30 10818 H 992.791 4.98926 0.638928 0
M  V30 10819 H 992.491 5.80407 -0.916613 0
M  V30 10820 H 994.015 6.1059 -0.0343915 0
M  V30 10821 H 995.429 5.30981 -2.16175 0
M  V30 10822 H 993.826 5.22666 -2.94856 0
M  V30 10823 H 994.896 3.81387 -2.99453 0
M  V30 10824 N 996.239 0.8527 1.3254 0
M  V30 10825 C 997.149 0.298744 2.3269 0
M  V30 10826 C 998.165 -0.582418 1.63963 0
M  V30 10827 O 999.341 -0.483253 1.95516 0
M  V30 10828 C 996.406 -0.505453 3.42996 0
M  V30 10829 C 995.467 0.401618 4.27417 0
M  V30 10830 C 994.7 -0.364294 5.32455 0
M  V30 10831 O 994.923 -1.59448 5.47661 0
M  V30 10832 O 993.857 0.268892 6.01299 0
M  V30 10833 H 997.683 1.12843 2.81958 0
M  V30 10834 H 995.268 0.615584 1.36128 0
M  V30 10835 H 997.15 -0.961974 4.10273 0
M  V30 10836 H 995.825 -1.31197 2.95921 0
M  V30 10837 H 994.732 0.906274 3.62957 0
M  V30 10838 H 996.065 1.17327 4.78012 0
M  V30 10839 N 997.718 -1.45297 0.610449 0
M  V30 10840 C 998.943 -2.07101 0.111414 0
M  V30 10841 C 999.368 -1.45161 -1.19625 0
M  V30 10842 O 998.726 -0.545368 -1.72903 0
M  V30 10843 C 998.774 -3.60598 -0.0117372 0
M  V30 10844 O 997.878 -3.98512 -1.06122 0
M  V30 10845 H 997.219 -0.659709 0.075364 0
M  V30 10846 H 999.749 -1.86504 0.841269 0
M  V30 10847 H 999.759 -4.07464 -0.209028 0
M  V30 10848 H 998.434 -4.05067 0.943076 0
M  V30 10849 H 997.011 -3.63312 -0.840158 0
M  V30 10850 N 999.196 -0.349774 -1.5367 0
M  V30 10851 C 1000.13 0.538575 -2.22782 0
M  V30 10852 C 1001.14 1.05896 -1.23652 0
M  V30 10853 O 1002.33 0.968045 -1.4997 0
M  V30 10854 C 999.43 1.7546 -2.89943 0
M  V30 10855 C 998.603 1.36843 -4.15443 0
M  V30 10856 C 997.662 2.4448 -4.65957 0
M  V30 10857 O 996.688 2.07528 -5.3002 0
M  V30 10858 N 997.89 3.75829 -4.42417 0
M  V30 10859 H 1000.65 -0.053348 -2.99653 0
M  V30 10860 H 998.216 -0.174193 -1.6096 0
M  V30 10861 H 1000.21 2.46911 -3.20651 0
M  V30 10862 H 998.778 2.25375 -2.16622 0
M  V30 10863 H 997.998 0.484421 -3.91212 0
M  V30 10864 H 999.286 1.0865 -4.97064 0
M  V30 10865 H 998.684 4.08635 -3.91196 0
M  V30 10866 H 997.241 4.43432 -4.77714 0
M  V30 10867 N 1000.67 1.57404 -0.0785433 0
M  V30 10868 C 1001.95 1.85163 0.630389 0
M  V30 10869 C 1002.33 0.972295 1.87376 0
M  V30 10870 O 1001.68 0.0403375 2.28464 0
M  V30 10871 C 1001.89 3.35491 0.961604 0
M  V30 10872 C 1003.24 4.0316 1.33219 0
M  V30 10873 O 1004.26 3.40276 1.05313 0
M  V30 10874 O 1003.12 5.14086 1.85412 0
M  V30 10875 H 1000.21 0.765169 0.31376 0
M  V30 10876 H 1002.76 1.69343 -0.109986 0
M  V30 10877 H 1001.53 3.91221 0.0788113 0
M  V30 10878 H 1001.15 3.56598 1.75852 0
M  V30 10879 N 1002.15 -0.195058 1.56388 0
M  V30 10880 C 1003.38 -0.931642 1.84738 0
M  V30 10881 C 1003.79 -1.76849 0.661046 0
M  V30 10882 O 1003.15 -1.78705 -0.370241 0
M  V30 10883 C 1003.2 -1.82777 3.11889 0
M  V30 10884 O 1002.92 -1.02471 4.25948 0
M  V30 10885 C 1004.42 -2.67603 3.53417 0
M  V30 10886 H 1001.64 -0.271821 0.613477 0
M  V30 10887 H 1004.19 -0.202299 2.03497 0
M  V30 10888 H 1002.34 -2.51074 2.95027 0
M  V30 10889 H 1002.76 -1.63539 4.98353 0
M  V30 10890 H 1004.23 -3.26138 4.45352 0
M  V30 10891 H 1004.71 -3.41314 2.76408 0
M  V30 10892 H 1005.31 -2.04678 3.7281 0
M  V30 10893 N 1003.63 -1.50653 -0.462772 0
M  V30 10894 C 1004.54 -1.72923 -1.58539 0
M  V30 10895 C 1005.56 -0.612577 -1.6286 0
M  V30 10896 O 1006.73 -0.891885 -1.80575 0
M  V30 10897 C 1003.8 -1.82623 -2.94703 0
M  V30 10898 C 1002.86 -3.06392 -3.00704 0
M  V30 10899 C 1002.09 -3.15618 -4.30373 0
M  V30 10900 O 1002.31 -2.31423 -5.21344 0
M  V30 10901 O 1001.25 -4.0841 -4.42136 0
M  V30 10902 H 1005.07 -2.68103 -1.42669 0
M  V30 10903 H 1002.66 -1.34848 -0.643144 0
M  V30 10904 H 1004.54 -1.91134 -3.7556 0
M  V30 10905 H 1003.22 -0.906275 -3.10754 0
M  V30 10906 H 1002.12 -3.03375 -2.18894 0
M  V30 10907 H 1003.46 -3.97992 -2.89591 0
M  V30 10908 N 1005.11 0.71652 -1.4037 0
M  V30 10909 C 1006.06 1.85194 -1.40734 0
M  V30 10910 C 1007.05 1.66934 -0.287969 0
M  V30 10911 O 1008.26 1.74051 -0.458957 0
M  V30 10912 H 1004.63 0.609922 -0.439885 0
M  V30 10913 H 1006.6 1.82003 -2.36468 0
M  V30 10914 C 1005.35 3.23048 -1.28589 0
M  V30 10915 H 1004.67 3.37704 -2.13999 0
M  V30 10916 H 1006.11 4.02633 -1.32902 0
M  V30 10917 C 1004.57 3.369 0.00396512 0
M  V30 10918 O 1005.1 3.89881 0.967243 0
M  V30 10919 N 1003.31 2.90508 0.0731565 0
M  V30 10920 H 1002.86 2.4758 -0.711454 0
M  V30 10921 H 1002.81 3.00155 0.935652 0
M  V30 10922 N 1006.59 1.25851 0.948643 0
M  V30 10923 C 1007.83 1.11119 1.69648 0
M  V30 10924 C 1008.17 -0.345995 1.91093 0
M  V30 10925 O 1007.44 -1.25467 1.48621 0
M  V30 10926 C 1007.72 1.87261 3.0758 0
M  V30 10927 C 1007.58 3.40842 2.93507 0
M  V30 10928 C 1008.9 1.6605 4.07573 0
M  V30 10929 H 1006.01 0.405052 0.615713 0
M  V30 10930 H 1008.66 1.54756 1.10229 0
M  V30 10931 H 1006.81 1.50172 3.58303 0
M  V30 10932 H 1008.48 3.87641 2.50064 0
M  V30 10933 H 1006.72 3.68248 2.29294 0
M  V30 10934 H 1007.39 3.89339 3.91305 0
M  V30 10935 H 1009.87 1.98348 3.65783 0
M  V30 10936 H 1008.74 2.21753 5.02113 0
M  V30 10937 H 1009.01 0.603256 4.37965 0
M  V30 10938 N 1008.06 -1.15214 1.07534 0
M  V30 10939 C 1009.48 -1.67628 0.822045 0
M  V30 10940 C 1009.83 -1.8503 -0.652571 0
M  V30 10941 O 1008.95 -1.55497 -1.50498 0
M  V30 10942 C 1009.55 -3.04489 1.48566 0
M  V30 10943 C 1008.11 -3.53974 1.27983 0
M  V30 10944 C 1007.25 -2.29656 1.55414 0
M  V30 10945 H 1010.2 -0.994016 1.23713 0
M  V30 10946 H 1010.22 -3.69509 0.907916 0
M  V30 10947 H 1009.74 -2.91792 2.55888 0
M  V30 10948 H 1007.84 -3.71908 0.226906 0
M  V30 10949 H 1007.95 -4.35298 2.0013 0
M  V30 10950 H 1006.31 -2.35289 0.975251 0
M  V30 10951 H 1007.1 -2.19544 2.63923 0
M  V30 10952 N 1009.54 -0.859717 -1.32086 0
M  V30 10953 C 1010.79 -0.466271 -1.97367 0
M  V30 10954 C 1011.12 0.976728 -1.6785 0
M  V30 10955 O 1010.4 1.68618 -0.969449 0
M  V30 10956 C 1010.68 -0.711851 -3.52994 0
M  V30 10957 C 1010.53 -2.20364 -3.92122 0
M  V30 10958 C 1011.85 -0.17156 -4.39765 0
M  V30 10959 H 1008.97 -0.170883 -0.716916 0
M  V30 10960 H 1011.61 -1.07907 -1.56384 0
M  V30 10961 H 1009.76 -0.190258 -3.88034 0
M  V30 10962 H 1011.43 -2.7917 -3.67236 0
M  V30 10963 H 1009.68 -2.68019 -3.41099 0
M  V30 10964 H 1010.35 -2.32615 -5.00594 0
M  V30 10965 H 1012.82 -0.617665 -4.1149 0
M  V30 10966 H 1011.7 -0.372921 -5.47632 0
M  V30 10967 H 1011.96 0.925959 -4.32294 0
M  V30 10968 N 1011.02 1.44971 -0.618145 0
M  V30 10969 C 1012.25 2.06527 -0.124165 0
M  V30 10970 C 1012.66 1.46097 1.19588 0
M  V30 10971 O 1012.02 0.57901 1.73071 0
M  V30 10972 C 1012.07 3.61498 0.0106701 0
M  V30 10973 O 1011.79 4.19675 -1.25716 0
M  V30 10974 C 1013.29 4.40061 0.534872 0
M  V30 10975 H 1010.51 0.666941 -0.0736935 0
M  V30 10976 H 1013.06 1.8605 -0.848871 0
M  V30 10977 H 1011.21 3.81282 0.685752 0
M  V30 10978 H 1011.63 5.12972 -1.09362 0
M  V30 10979 H 1013.1 5.48963 0.57827 0
M  V30 10980 H 1013.58 4.10587 1.55931 0
M  V30 10981 H 1014.18 4.25167 -0.10652 0
M  V30 10982 N 1012.5 0.357919 1.53482 0
M  V30 10983 C 1013.43 -0.484231 2.28424 0
M  V30 10984 C 1014.41 -1.09046 1.30548 0
M  V30 10985 O 1015.59 -1.10916 1.59409 0
M  V30 10986 C 1012.72 -1.62803 3.06778 0
M  V30 10987 C 1011.68 -1.14943 4.12277 0
M  V30 10988 C 1011 -2.38287 4.78669 0
M  V30 10989 C 1012.3 -0.239627 5.2175 0
M  V30 10990 H 1014 0.140979 2.99068 0
M  V30 10991 H 1011.54 0.069244 1.43833 0
M  V30 10992 H 1013.5 -2.22374 3.57949 0
M  V30 10993 H 1012.22 -2.28036 2.3381 0
M  V30 10994 H 1010.88 -0.576442 3.6204 0
M  V30 10995 H 1010.53 -3.01959 4.02281 0
M  V30 10996 H 1010.23 -2.06939 5.49955 0
M  V30 10997 H 1011.75 -2.98558 5.32631 0
M  V30 10998 H 1013.17 -0.742597 5.6847 0
M  V30 10999 H 1011.56 -0.0173747 6.00097 0
M  V30 11000 H 1012.63 0.720333 4.7952 0
M  V30 11001 N 1013.98 -1.5736 0.0868897 0
M  V30 11002 C 1015.2 -1.98809 -0.590757 0
M  V30 11003 C 1015.63 -0.965407 -1.61436 0
M  V30 11004 O 1014.98 0.067143 -1.81176 0
M  V30 11005 C 1015.03 -3.39249 -1.22238 0
M  V30 11006 O 1014.14 -3.39706 -2.33824 0
M  V30 11007 H 1013.48 -0.64669 -0.150626 0
M  V30 11008 H 1016.01 -2.03927 0.165873 0
M  V30 11009 H 1016.02 -3.76765 -1.56564 0
M  V30 11010 H 1014.69 -4.13208 -0.472434 0
M  V30 11011 H 1013.27 -3.13977 -2.01178 0
M  V30 11012 N 1015.45 0.186762 -1.56489 0
M  V30 11013 C 1016.36 1.25169 -1.98419 0
M  V30 11014 C 1017.38 1.49329 -0.893124 0
M  V30 11015 O 1018.56 1.61781 -1.19954 0
M  V30 11016 C 1015.62 2.57422 -2.32239 0
M  V30 11017 C 1014.68 2.4126 -3.55095 0
M  V30 11018 C 1013.92 3.67206 -3.87292 0
M  V30 11019 O 1014.14 4.71731 -3.20665 0
M  V30 11020 O 1013.07 3.62238 -4.80695 0
M  V30 11021 H 1016.9 0.925834 -2.89244 0
M  V30 11022 H 1014.48 0.392421 -1.44154 0
M  V30 11023 H 1016.37 3.35466 -2.5503 0
M  V30 11024 H 1015.04 2.89618 -1.44579 0
M  V30 11025 H 1013.95 1.61299 -3.37541 0
M  V30 11026 H 1015.28 2.13994 -4.43247 0
M  V30 11027 N 1016.93 1.50896 0.454776 0
M  V30 11028 C 1017.84 1.73762 1.5762 0
M  V30 11029 C 1018.86 0.621206 1.62533 0
M  V30 11030 O 1020.03 0.901449 1.801 0
M  V30 11031 C 1017.1 1.84183 2.9373 0
M  V30 11032 C 1016.16 3.07982 2.99075 0
M  V30 11033 C 1015.39 3.17896 4.28693 0
M  V30 11034 O 1015.62 2.34184 5.20109 0
M  V30 11035 O 1014.55 4.10749 4.39964 0
M  V30 11036 H 1018.38 2.68856 1.41245 0
M  V30 11037 H 1015.96 1.35187 0.635984 0
M  V30 11038 H 1017.84 1.93123 3.74542 0
M  V30 11039 H 1016.52 0.922742 3.10269 0
M  V30 11040 H 1015.43 3.04531 2.17282 0
M  V30 11041 H 1016.76 3.99523 2.87476 0
M  V30 11042 N 1018.41 -0.709066 1.40748 0
M  V30 11043 C 1019.36 -1.84445 1.41714 0
M  V30 11044 C 1020.35 -1.66779 0.296818 0
M  V30 11045 O 1021.56 -1.73805 0.468181 0
M  V30 11046 H 1017.93 -0.607581 0.443114 0
M  V30 11047 H 1019.9 -1.80747 2.3743 0
M  V30 11048 C 1018.65 -3.22362 1.303 0
M  V30 11049 H 1017.98 -3.36565 2.15787 0
M  V30 11050 H 1019.42 -4.01922 1.35036 0
M  V30 11051 C 1017.88 -3.36897 0.0139015 0
M  V30 11052 O 1018.41 -3.90389 -0.946553 0
M  V30 11053 N 1016.61 -2.90543 -0.0577491 0
M  V30 11054 H 1016.16 -2.472 0.724574 0
M  V30 11055 H 1016.12 -3.00647 -0.919721 0
M  V30 11056 N 1019.89 -1.26353 -0.941956 0
M  V30 11057 C 1021.31 -1.03448 -1.21534 0
M  V30 11058 C 1021.51 0.240855 -2.00055 0
M  V30 11059 O 1020.56 0.950199 -2.33939 0
M  V30 11060 C 1021.87 -2.2654 -1.97737 0
M  V30 11061 C 1023.42 -2.31433 -2.10731 0
M  V30 11062 C 1023.9 -3.54216 -2.90336 0
M  V30 11063 N 1025.39 -3.54688 -2.9791 0
M  V30 11064 C 1026.12 -4.4636 -3.59931 0
M  V30 11065 N 1025.62 -5.48319 -4.2346 0
M  V30 11066 N 1027.41 -4.34013 -3.57196 0
M  V30 11067 H 1019.56 -2.08266 -0.417005 0
M  V30 11068 H 1021.83 -0.915251 -0.247021 0
M  V30 11069 H 1021.53 -3.19299 -1.47449 0
M  V30 11070 H 1021.41 -2.30726 -2.98405 0
M  V30 11071 H 1023.79 -1.3919 -2.60212 0
M  V30 11072 H 1023.87 -2.31259 -1.09329 0
M  V30 11073 H 1023.52 -4.46788 -2.41543 0
M  V30 11074 H 1023.45 -3.51637 -3.91993 0
M  V30 11075 H 1025.94 -2.80942 -2.52745 0
M  V30 11076 H 1026.25 -6.14458 -4.6868 0
M  V30 11077 H 1024.6 -5.52177 -4.22049 0
M  V30 11078 H 1027.79 -3.53578 -3.06758 0
M  V30 11079 H 1027.96 -5.0565 -4.05244 0
M  V30 11080 N 1021.37 1.14642 -1.08144 0
M  V30 11081 C 1022.59 1.90025 -0.830972 0
M  V30 11082 C 1023.02 1.77904 0.610879 0
M  V30 11083 O 1022.38 1.11735 1.42776 0
M  V30 11084 C 1022.42 3.38085 -1.25422 0
M  V30 11085 O 1021.53 4.10412 -0.404486 0
M  V30 11086 H 1020.87 0.591327 -0.302041 0
M  V30 11087 H 1023.4 1.4513 -1.44216 0
M  V30 11088 H 1023.41 3.88894 -1.23391 0
M  V30 11089 H 1022.08 3.46226 -2.30435 0
M  V30 11090 H 1020.66 3.69693 -0.487987 0
M  V30 11091 N 1022.85 0.866709 1.31628 0
M  V30 11092 C 1023.76 0.323408 2.3236 0
M  V30 11093 C 1024.77 -0.564995 1.64572 0
M  V30 11094 O 1025.95 -0.462489 1.96018 0
M  V30 11095 C 1023.01 -0.469045 3.43513 0
M  V30 11096 C 1022.07 0.446928 4.26967 0
M  V30 11097 C 1021.31 -0.307799 5.32812 0
M  V30 11098 O 1021.53 -1.5363 5.49321 0
M  V30 11099 O 1020.46 0.332653 6.0098 0
M  V30 11100 H 1024.29 1.15827 2.80745 0
M  V30 11101 H 1021.87 0.629987 1.35468 0
M  V30 11102 H 1023.76 -0.918405 4.1127 0
M  V30 11103 H 1022.43 -1.28051 2.97296 0
M  V30 11104 H 1021.34 0.944719 3.61975 0
M  V30 11105 H 1022.67 1.2239 4.76741 0
M  V30 11106 N 1024.32 -1.44642 0.625825 0
M  V30 11107 C 1025.57 -2.01695 0.127948 0
M  V30 11108 C 1025.89 -1.49439 -1.25271 0
M  V30 11109 O 1025.16 -0.695873 -1.83124 0
M  V30 11110 H 1023.74 -0.745685 0.0443096 0
M  V30 11111 H 1026.4 -1.7721 0.811332 0
M  V30 11112 H 1025.5 -3.11966 0.0915933 0
M  V30 11113 N 1025.8 -0.366053 -1.5329 0
M  V30 11114 C 1026.75 0.480205 -2.25749 0
M  V30 11115 C 1027.72 1.07713 -1.2644 0
M  V30 11116 O 1028.9 1.10953 -1.55222 0
M  V30 11117 C 1026.04 1.61374 -3.05045 0
M  V30 11118 C 1025.16 1.04194 -4.19246 0
M  V30 11119 C 1024.29 2.14462 -4.85983 0
M  V30 11120 C 1023.33 1.5475 -5.92215 0
M  V30 11121 N 1022.47 2.58852 -6.52641 0
M  V30 11122 H 1027.31 -0.144199 -2.97651 0
M  V30 11123 H 1024.84 -0.0829321 -1.46866 0
M  V30 11124 H 1026.8 2.28144 -3.49294 0
M  V30 11125 H 1025.43 2.2088 -2.35397 0
M  V30 11126 H 1024.48 0.264514 -3.79479 0
M  V30 11127 H 1025.8 0.565379 -4.95585 0
M  V30 11128 H 1024.95 2.89051 -5.33418 0
M  V30 11129 H 1023.69 2.6547 -4.09117 0
M  V30 11130 H 1022.69 0.786759 -5.44142 0
M  V30 11131 H 1023.92 1.04566 -6.71001 0
M  V30 11132 H 1021.87 3.09073 -5.78627 0
M  V30 11133 H 1021.78 2.15884 -7.24521 0
M  V30 11134 H 1023.05 3.33142 -7.04724 0
M  V30 11135 N 1027.28 1.57312 -0.0952337 0
M  V30 11136 C 1028.53 1.94646 0.569284 0
M  V30 11137 C 1028.86 0.977152 1.67825 0
M  V30 11138 O 1028.13 0.0102318 1.94497 0
M  V30 11139 C 1028.42 3.42098 1.12433 0
M  V30 11140 C 1028.27 4.49795 0.0204016 0
M  V30 11141 C 1029.59 3.90866 2.02266 0
M  V30 11142 H 1026.71 0.707779 0.205469 0
M  V30 11143 H 1029.35 1.89274 -0.16597 0
M  V30 11144 H 1027.5 3.46807 1.75092 0
M  V30 11145 H 1029.17 4.57198 -0.613845 0
M  V30 11146 H 1027.41 4.28964 -0.645965 0
M  V30 11147 H 1028.09 5.50166 0.449579 0
M  V30 11148 H 1030.56 3.88311 1.49512 0
M  V30 11149 H 1029.44 4.94604 2.38029 0
M  V30 11150 H 1029.7 3.30167 2.9401 0
M  V30 11151 N 1028.76 -0.17846 1.56586 0
M  V30 11152 C 1030.01 -0.894464 1.81228 0
M  V30 11153 C 1030.33 -1.83089 0.671062 0
M  V30 11154 O 1029.6 -1.93439 -0.309557 0
M  V30 11155 H 1028.18 -0.333288 0.668527 0
M  V30 11156 H 1030.84 -0.179986 1.94067 0
M  V30 11157 H 1029.93 -1.47565 2.75011 0
M  V30 11158 N 1030.24 -1.51135 -0.446768 0
M  V30 11159 C 1031.48 -1.63336 -1.19698 0
M  V30 11160 C 1031.81 -0.345099 -1.91414 0
M  V30 11161 O 1031.07 0.670365 -1.8386 0
M  V30 11162 C 1031.36 -2.78034 -2.2457 0
M  V30 11163 C 1031.03 -4.17652 -1.69934 0
M  V30 11164 C 1029.69 -4.55636 -1.54756 0
M  V30 11165 C 1032.04 -5.04813 -1.29665 0
M  V30 11166 C 1029.37 -5.78496 -0.977689 0
M  V30 11167 C 1031.72 -6.28244 -0.741112 0
M  V30 11168 C 1030.39 -6.65009 -0.576156 0
M  V30 11169 H 1029.66 -0.597689 -0.438006 0
M  V30 11170 H 1032.31 -1.85141 -0.48939 0
M  V30 11171 H 1030.61 -2.50413 -3.01331 0
M  V30 11172 H 1032.31 -2.84675 -2.8242 0
M  V30 11173 H 1028.9 -3.87699 -1.82722 0
M  V30 11174 H 1033.08 -4.76081 -1.40216 0
M  V30 11175 H 1028.34 -6.05636 -0.837563 0
M  V30 11176 H 1032.51 -6.95129 -0.42053 0
M  V30 11177 H 1030.14 -7.60085 -0.132443 0
M  V30 11178 N 1031.71 0.701592 -1.41122 0
M  V30 11179 C 1032.65 1.8268 -1.38422 0
M  V30 11180 C 1033.66 1.60244 -0.287342 0
M  V30 11181 O 1034.85 1.69859 -0.548658 0
M  V30 11182 C 1031.95 3.19338 -1.13475 0
M  V30 11183 C 1031.12 3.68853 -2.35088 0
M  V30 11184 C 1030.18 4.84163 -2.06089 0
M  V30 11185 O 1029.21 4.9609 -2.79077 0
M  V30 11186 N 1030.41 5.70972 -1.04743 0
M  V30 11187 H 1033.17 1.8549 -2.35401 0
M  V30 11188 H 1030.73 0.883682 -1.35656 0
M  V30 11189 H 1032.73 3.94095 -0.920377 0
M  V30 11190 H 1031.3 3.11589 -0.251152 0
M  V30 11191 H 1030.52 2.8507 -2.72266 0
M  V30 11192 H 1031.8 3.98673 -3.16129 0
M  V30 11193 H 1031.2 5.63961 -0.443221 0
M  V30 11194 H 1029.76 6.45654 -0.892949 0
M  V30 11195 N 1033.19 1.2685 0.935242 0
M  V30 11196 C 1034.15 1.08975 2.01636 0
M  V30 11197 C 1035.15 0.0361543 1.60759 0
M  V30 11198 O 1036.34 0.280087 1.71934 0
M  V30 11199 C 1033.48 0.658831 3.34473 0
M  V30 11200 H 1034.67 2.04968 2.18925 0
M  V30 11201 H 1032.22 1.09531 1.11501 0
M  V30 11202 H 1032.96 -0.302824 3.22883 0
M  V30 11203 H 1032.74 1.41967 3.65497 0
M  V30 11204 H 1034.23 0.555783 4.13885 0
M  V30 11205 N 1034.67 -1.14067 1.0875 0
M  V30 11206 C 1035.9 -1.88767 0.839682 0
M  V30 11207 C 1036.31 -1.79024 -0.612119 0
M  V30 11208 O 1035.65 -1.14986 -1.43262 0
M  V30 11209 C 1035.71 -3.39333 1.18716 0
M  V30 11210 C 1035.38 -3.72858 2.64245 0
M  V30 11211 C 1036.37 -3.72683 3.62496 0
M  V30 11212 C 1034.06 -4.0273 3.0019 0
M  V30 11213 C 1036.05 -4.01909 4.9472 0
M  V30 11214 C 1033.74 -4.31618 4.32607 0
M  V30 11215 C 1034.74 -4.31192 5.29682 0
M  V30 11216 O 1034.43 -4.59377 6.59718 0
M  V30 11217 H 1034.16 -0.604665 0.302253 0
M  V30 11218 H 1036.71 -1.45364 1.45115 0
M  V30 11219 H 1034.94 -3.83205 0.518707 0
M  V30 11220 H 1036.63 -3.95346 0.919599 0
M  V30 11221 H 1037.4 -3.49688 3.3607 0
M  V30 11222 H 1033.28 -4.02213 2.25268 0
M  V30 11223 H 1036.82 -4.01491 5.70483 0
M  V30 11224 H 1032.72 -4.54083 4.58779 0
M  V30 11225 H 1033.49 -4.77078 6.65086 0
M  V30 11226 N 1036.15 -0.873678 -1.31166 0
M  V30 11227 C 1037.1 -0.330288 -2.28424 0
M  V30 11228 C 1038.07 0.573299 -1.55893 0
M  V30 11229 O 1039.25 0.504143 -1.84019 0
M  V30 11230 C 1036.39 0.459004 -3.42034 0
M  V30 11231 C 1035.5 -0.472519 -4.29408 0
M  V30 11232 C 1034.64 0.331261 -5.30166 0
M  V30 11233 C 1033.68 -0.596453 -6.09187 0
M  V30 11234 N 1032.81 0.171305 -7.01891 0
M  V30 11235 H 1037.65 -1.16485 -2.7429 0
M  V30 11236 H 1035.19 -0.585813 -1.34932 0
M  V30 11237 H 1037.15 0.932432 -4.06647 0
M  V30 11238 H 1035.78 1.25824 -2.97268 0
M  V30 11239 H 1034.83 -1.06441 -3.65205 0
M  V30 11240 H 1036.14 -1.18372 -4.84551 0
M  V30 11241 H 1035.3 0.867038 -6.00473 0
M  V30 11242 H 1034.04 1.07573 -4.75688 0
M  V30 11243 H 1033.04 -1.14395 -5.37767 0
M  V30 11244 H 1034.27 -1.33983 -6.65752 0
M  V30 11245 H 1032.21 0.89852 -6.49817 0
M  V30 11246 H 1032.13 -0.480481 -7.54472 0
M  V30 11247 H 1033.4 0.688192 -7.76456 0
M  V30 11248 N 1037.63 1.44308 -0.633487 0
M  V30 11249 C 1038.57 2.32455 0.0821956 0
M  V30 11250 C 1039.57 1.47482 0.833388 0
M  V30 11251 O 1040.77 1.63812 0.746021 0
M  V30 11252 H 1037.15 0.750631 0.045352 0
M  V30 11253 H 1039.12 2.90566 -0.679282 0
M  V30 11254 C 1037.87 3.31512 1.04858 0
M  V30 11255 H 1037.19 3.96908 0.479979 0
M  V30 11256 H 1038.63 3.95865 1.51879 0
M  V30 11257 C 1037.09 2.60615 2.13498 0
M  V30 11258 O 1037.62 2.40682 3.21613 0
M  V30 11259 N 1035.83 2.20315 1.89499 0
M  V30 11260 H 1035.37 2.36726 1.01581 0
M  V30 11261 H 1035.33 1.73205 2.62388 0
M  V30 11262 N 1039.1 0.374177 1.53094 0
M  V30 11263 C 1040.33 -0.213015 2.05499 0
M  V30 11264 C 1040.74 -1.42303 1.24686 0
M  V30 11265 O 1040.09 -1.81512 0.282702 0
M  V30 11266 C 1040.15 -0.662308 3.53346 0
M  V30 11267 C 1039.81 0.432183 4.54952 0
M  V30 11268 C 1040.81 1.2848 5.03775 0
M  V30 11269 C 1038.49 0.594887 4.98765 0
M  V30 11270 C 1040.49 2.28538 5.9502 0
M  V30 11271 C 1038.17 1.59882 5.89814 0
M  V30 11272 C 1039.17 2.4425 6.37833 0
M  V30 11273 O 1038.86 3.4293 7.27086 0
M  V30 11274 H 1038.59 -0.0393809 0.674852 0
M  V30 11275 H 1041.15 0.533423 1.98353 0
M  V30 11276 H 1039.38 -1.46049 3.5806 0
M  V30 11277 H 1041.07 -1.17347 3.88567 0
M  V30 11278 H 1041.83 1.17033 4.70668 0
M  V30 11279 H 1037.71 -0.0520401 4.60971 0
M  V30 11280 H 1041.25 2.94426 6.32423 0
M  V30 11281 H 1037.15 1.71373 6.22335 0
M  V30 11282 H 1037.92 3.3876 7.45107 0
M  V30 11283 N 1040.58 -1.57259 0.103575 0
M  V30 11284 C 1041.83 -1.94657 -0.558126 0
M  V30 11285 C 1042.16 -0.985886 -1.67662 0
M  V30 11286 O 1041.41 -0.0069745 -1.95699 0
M  V30 11287 C 1041.71 -3.38549 -1.14538 0
M  V30 11288 C 1041.38 -4.50651 -0.149818 0
M  V30 11289 C 1040.04 -4.8104 0.12398 0
M  V30 11290 C 1042.39 -5.18503 0.529497 0
M  V30 11291 C 1039.72 -5.76606 1.08364 0
M  V30 11292 C 1042.07 -6.15099 1.47769 0
M  V30 11293 C 1040.74 -6.43889 1.75963 0
M  V30 11294 H 1040.01 -0.712299 -0.204233 0
M  V30 11295 H 1042.65 -1.90641 0.181208 0
M  V30 11296 H 1040.96 -3.39185 -1.96115 0
M  V30 11297 H 1042.65 -3.6479 -1.66521 0
M  V30 11298 H 1039.24 -4.2697 -0.373404 0
M  V30 11299 H 1043.43 -4.95194 0.331121 0
M  V30 11300 H 1038.68 -5.97223 1.30899 0
M  V30 11301 H 1042.86 -6.66767 2.00983 0
M  V30 11302 H 1040.49 -7.17749 2.50481 0
M  V30 11303 N 1042.06 0.170153 -1.56679 0
M  V30 11304 C 1043.48 0.521966 -1.50823 0
M  V30 11305 C 1043.68 1.84589 -0.808037 0
M  V30 11306 O 1042.73 2.49791 -0.368891 0
M  V30 11307 C 1044.05 0.553648 -2.95559 0
M  V30 11308 C 1045.59 0.640769 -3.06371 0
M  V30 11309 C 1046.07 0.703332 -4.52567 0
M  V30 11310 N 1047.56 0.76619 -4.56819 0
M  V30 11311 C 1048.29 0.835192 -5.67285 0
M  V30 11312 N 1047.79 0.864957 -6.87379 0
M  V30 11313 N 1049.58 0.874302 -5.55259 0
M  V30 11314 H 1041.73 -0.697952 -2.00605 0
M  V30 11315 H 1044 -0.251787 -0.913952 0
M  V30 11316 H 1043.7 -0.350498 -3.49949 0
M  V30 11317 H 1043.58 1.39973 -3.50268 0
M  V30 11318 H 1045.96 1.53534 -2.52015 0
M  V30 11319 H 1046.05 -0.232008 -2.54746 0
M  V30 11320 H 1045.69 -0.186986 -5.07556 0
M  V30 11321 H 1045.62 1.59227 -5.0195 0
M  V30 11322 H 1048.11 0.751424 -3.70354 0
M  V30 11323 H 1048.42 0.918814 -7.67318 0
M  V30 11324 H 1046.77 0.833215 -6.89987 0
M  V30 11325 H 1049.96 0.848057 -4.60354 0
M  V30 11326 H 1050.13 0.924615 -6.4137 0
M  V30 11327 N 1043.54 1.5137 0.438746 0
M  V30 11328 C 1044.5 1.71993 1.51496 0
M  V30 11329 C 1045.5 0.589978 1.49586 0
M  V30 11330 O 1046.69 0.857505 1.51633 0
M  V30 11331 C 1043.82 1.77508 2.91039 0
M  V30 11332 H 1045.02 2.68041 1.34514 0
M  V30 11333 H 1042.57 1.41338 0.667326 0
M  V30 11334 H 1043.3 0.832698 3.13427 0
M  V30 11335 H 1043.09 2.59627 2.9383 0
M  V30 11336 H 1044.58 1.95308 3.69113 0
M  V30 11337 N 1045.02 -0.694098 1.41492 0
M  V30 11338 C 1046.26 -1.45127 1.4065 0
M  V30 11339 C 1046.59 -1.94993 0.0170289 0
M  V30 11340 O 1045.86 -1.71799 -0.941372 0
M  V30 11341 H 1044.44 -0.538493 0.51772 0
M  V30 11342 H 1047.1 -0.821441 1.76744 0
M  V30 11343 H 1046.19 -2.31372 2.0946 0
M  V30 11344 N 1046.49 -1.27344 -0.928501 0
M  V30 11345 C 1047.46 -1.10043 -2.01055 0
M  V30 11346 C 1048.46 -0.0446793 -1.60738 0
M  V30 11347 O 1049.65 -0.289202 -1.71783 0
M  V30 11348 C 1046.78 -0.676559 -3.34119 0
M  V30 11349 H 1047.97 -2.06126 -2.17835 0
M  V30 11350 H 1045.53 -1.10121 -1.10919 0
M  V30 11351 H 1046.26 0.285697 -3.23039 0
M  V30 11352 H 1046.05 -1.43903 -3.64739 0
M  V30 11353 H 1047.54 -0.577725 -4.13584 0
M  V30 11354 N 1047.97 1.13488 -1.09353 0
M  V30 11355 C 1048.92 2.16933 -0.701709 0
M  V30 11356 C 1049.91 1.58382 0.283553 0
M  V30 11357 O 1051.1 1.7675 0.0940391 0
M  V30 11358 C 1048.23 3.43079 -0.123031 0
M  V30 11359 C 1047.31 4.08639 -1.13466 0
M  V30 11360 N 1047.7 4.49377 -2.32152 0
M  V30 11361 C 1046 4.35265 -0.972632 0
M  V30 11362 C 1046.7 5.00464 -2.96497 0
M  V30 11363 N 1045.68 4.95275 -2.24061 0
M  V30 11364 H 1049.48 2.46183 -1.60534 0
M  V30 11365 H 1047 1.30275 -0.969644 0
M  V30 11366 H 1048.99 4.1653 0.17569 0
M  V30 11367 H 1047.65 3.15304 0.775461 0
M  V30 11368 H 1048.66 4.42105 -2.69748 0
M  V30 11369 H 1045.34 4.17301 -0.12876 0
M  V30 11370 H 1046.73 5.41785 -3.9739 0
M  V30 11371 N 1049.45 0.880621 1.30701 0
M  V30 11372 C 1050.7 0.506967 1.96981 0
M  V30 11373 C 1051.05 -0.932694 1.68281 0
M  V30 11374 O 1050.35 -1.64954 0.974709 0
M  V30 11375 C 1050.54 0.713203 3.50212 0
M  V30 11376 C 1050.37 2.17136 3.93805 0
M  V30 11377 C 1049.14 2.81508 4.19621 0
M  V30 11378 C 1051.34 3.14473 4.06954 0
M  V30 11379 N 1049.32 4.17965 4.49643 0
M  V30 11380 C 1050.69 4.3599 4.40809 0
M  V30 11381 C 1052.74 3.1032 3.89366 0
M  V30 11382 C 1051.45 5.53889 4.58911 0
M  V30 11383 C 1053.47 4.27487 4.08667 0
M  V30 11384 C 1052.84 5.47769 4.42864 0
M  V30 11385 H 1048.93 0.234756 0.745931 0
M  V30 11386 H 1051.52 1.13745 1.5802 0
M  V30 11387 H 1049.69 0.112239 3.88238 0
M  V30 11388 H 1051.42 0.30688 4.03535 0
M  V30 11389 H 1048.18 2.32399 4.12659 0
M  V30 11390 H 1048.6 4.88425 4.68796 0
M  V30 11391 H 1053.24 2.18428 3.62007 0
M  V30 11392 H 1050.96 6.46289 4.85114 0
M  V30 11393 H 1054.55 4.25738 3.96533 0
M  V30 11394 H 1053.43 6.36922 4.57493 0
M  V30 11395 N 1050.93 -1.4397 0.641131 0
M  V30 11396 C 1052.18 -2.01163 0.147026 0
M  V30 11397 C 1052.49 -1.51099 -1.24211 0
M  V30 11398 O 1053.7 -2.00487 -1.83078 0
M  V30 11399 C 1052.15 -3.59275 0.212068 0
M  V30 11400 C 1051.76 -4.18334 1.60314 0
M  V30 11401 C 1053.51 -4.23903 -0.225057 0
M  V30 11402 C 1051.41 -5.68701 1.62276 0
M  V30 11403 H 1050.34 -0.75226 0.051201 0
M  V30 11404 H 1052.99 -1.65075 0.801396 0
M  V30 11405 H 1051.38 -3.92708 -0.509589 0
M  V30 11406 H 1052.55 -3.96422 2.34918 0
M  V30 11407 H 1050.86 -3.66031 1.9852 0
M  V30 11408 H 1053.46 -5.34205 -0.230074 0
M  V30 11409 H 1053.8 -3.96956 -1.25426 0
M  V30 11410 H 1054.34 -3.95309 0.44444 0
M  V30 11411 H 1051.08 -6.00397 2.63066 0
M  V30 11412 H 1050.6 -5.92705 0.919797 0
M  V30 11413 H 1052.28 -6.32521 1.36112 0
M  V30 11414 N 1052.41 -0.382291 -1.52893 0
M  V30 11415 C 1053.65 0.202433 -2.01787 0
M  V30 11416 C 1053.99 1.47044 -1.26853 0
M  V30 11417 O 1053.26 1.91007 -0.366969 0
M  V30 11418 C 1053.54 0.477471 -3.5692 0
M  V30 11419 C 1053.4 -0.805339 -4.42532 0
M  V30 11420 C 1054.72 1.27106 -4.21346 0
M  V30 11421 H 1051.84 0.0720998 -0.733465 0
M  V30 11422 H 1054.48 -0.510478 -1.83014 0
M  V30 11423 H 1052.63 1.08478 -3.73048 0
M  V30 11424 H 1054.3 -1.4424 -4.3817 0
M  V30 11425 H 1052.54 -1.42216 -4.09826 0
M  V30 11426 H 1053.21 -0.567635 -5.49074 0
M  V30 11427 H 1055.69 0.757161 -4.09153 0
M  V30 11428 H 1054.57 1.43225 -5.29885 0
M  V30 11429 H 1054.83 2.28431 -3.78513 0
M  V30 11430 N 1053.89 1.57202 -0.111913 0
M  V30 11431 C 1055.13 1.9495 0.547795 0
M  V30 11432 C 1055.46 0.994763 1.67137 0
M  V30 11433 O 1054.72 0.0173528 1.95692 0
M  V30 11434 C 1055.01 3.39152 1.12741 0
M  V30 11435 C 1054.68 4.50724 0.125916 0
M  V30 11436 C 1053.34 4.80968 -0.149489 0
M  V30 11437 C 1055.69 5.18215 -0.556987 0
M  V30 11438 C 1053.02 5.76023 -1.1142 0
M  V30 11439 C 1055.37 6.14307 -1.51029 0
M  V30 11440 C 1054.04 6.42947 -1.79375 0
M  V30 11441 H 1053.31 0.713372 0.200453 0
M  V30 11442 H 1055.96 1.90542 -0.191316 0
M  V30 11443 H 1054.26 3.4022 1.94313 0
M  V30 11444 H 1055.96 3.65668 1.64584 0
M  V30 11445 H 1052.55 4.27162 0.350756 0
M  V30 11446 H 1056.73 4.95012 -0.357378 0
M  V30 11447 H 1051.99 5.9652 -1.34064 0
M  V30 11448 H 1056.16 6.65692 -2.04516 0
M  V30 11449 H 1053.79 7.1641 -2.54284 0
M  V30 11450 N 1055.36 -0.161842 1.56767 0
M  V30 11451 C 1056.61 -0.875278 1.81719 0
M  V30 11452 C 1056.93 -1.82998 0.690739 0
M  V30 11453 O 1058.13 -2.58648 0.82545 0
M  V30 11454 C 1056.59 -1.60703 3.22029 0
M  V30 11455 C 1056.2 -0.695486 4.42569 0
M  V30 11456 C 1057.94 -2.30813 3.56266 0
M  V30 11457 C 1055.85 -1.42801 5.73901 0
M  V30 11458 H 1054.78 -0.330591 0.677662 0
M  V30 11459 H 1057.43 -0.128112 1.83052 0
M  V30 11460 H 1055.81 -2.39929 3.1504 0
M  V30 11461 H 1056.98 0.0604882 4.6076 0
M  V30 11462 H 1055.3 -0.10356 4.16271 0
M  V30 11463 H 1057.9 -2.86229 4.51638 0
M  V30 11464 H 1058.24 -3.06603 2.81604 0
M  V30 11465 H 1058.77 -1.5852 3.64851 0
M  V30 11466 H 1055.51 -0.712253 6.51619 0
M  V30 11467 H 1055.03 -2.15707 5.5967 0
M  V30 11468 H 1056.71 -1.97295 6.16185 0
M  V30 11469 N 1056.84 -1.516 -0.430713 0
M  V30 11470 C 1058.09 -1.64596 -1.17959 0
M  V30 11471 C 1058.42 -0.365382 -1.91037 0
M  V30 11472 O 1057.67 0.650826 -1.84561 0
M  V30 11473 C 1057.97 -2.804 -2.21609 0
M  V30 11474 C 1057.64 -4.19431 -1.65495 0
M  V30 11475 C 1056.3 -4.57252 -1.49915 0
M  V30 11476 C 1058.65 -5.0616 -1.24304 0
M  V30 11477 C 1055.98 -5.79501 -0.916276 0
M  V30 11478 C 1058.33 -6.28995 -0.674437 0
M  V30 11479 C 1056.99 -6.65582 -0.505591 0
M  V30 11480 H 1056.26 -0.602301 -0.431642 0
M  V30 11481 H 1058.91 -1.8565 -0.469726 0
M  V30 11482 H 1057.22 -2.53595 -2.98658 0
M  V30 11483 H 1058.91 -2.87654 -2.79385 0
M  V30 11484 H 1055.5 -3.89615 -1.78599 0
M  V30 11485 H 1059.69 -4.77541 -1.35159 0
M  V30 11486 H 1054.94 -6.0649 -0.77328 0
M  V30 11487 H 1059.12 -6.95536 -0.346779 0
M  V30 11488 H 1056.74 -7.60182 -0.0518188 0
M  V30 11489 N 1058.32 0.686584 -1.41858 0
M  V30 11490 C 1059.25 1.81264 -1.47193 0
M  V30 11491 C 1060.23 1.66875 -0.329657 0
M  V30 11492 O 1061.42 1.86473 -0.542347 0
M  V30 11493 C 1058.55 3.19472 -1.36216 0
M  V30 11494 C 1057.5 3.4858 -2.48347 0
M  V30 11495 C 1056.83 4.86239 -2.22432 0
M  V30 11496 C 1058.13 3.46653 -3.90678 0
M  V30 11497 H 1059.82 1.77057 -2.41436 0
M  V30 11498 H 1057.37 0.850415 -1.16206 0
M  V30 11499 H 1059.32 3.97969 -1.38558 0
M  V30 11500 H 1058.04 3.24327 -0.384611 0
M  V30 11501 H 1056.7 2.72437 -2.45303 0
M  V30 11502 H 1056.35 4.8773 -1.22999 0
M  V30 11503 H 1056.05 5.06677 -2.97577 0
M  V30 11504 H 1057.57 5.67034 -2.26505 0
M  V30 11505 H 1058.99 4.15139 -3.95389 0
M  V30 11506 H 1057.38 3.78625 -4.65578 0
M  V30 11507 H 1058.45 2.45451 -4.18189 0
M  V30 11508 N 1059.8 1.27835 0.921735 0
M  V30 11509 C 1061.05 1.13904 1.6646 0
M  V30 11510 C 1061.36 -0.313379 1.93073 0
M  V30 11511 O 1062.57 -0.573687 2.6537 0
M  V30 11512 C 1061.02 1.99064 2.99836 0
M  V30 11513 C 1060.63 3.48998 2.80899 0
M  V30 11514 C 1062.37 1.93797 3.77681 0
M  V30 11515 C 1060.28 4.26337 4.09867 0
M  V30 11516 H 1059.21 0.422681 0.624385 0
M  V30 11517 H 1061.86 1.52303 1.02352 0
M  V30 11518 H 1060.24 1.53514 3.65034 0
M  V30 11519 H 1061.42 4.02452 2.24431 0
M  V30 11520 H 1059.73 3.55707 2.16476 0
M  V30 11521 H 1062.33 2.48852 4.73262 0
M  V30 11522 H 1062.67 0.912928 4.06167 0
M  V30 11523 H 1063.21 2.37275 3.19289 0
M  V30 11524 H 1059.94 5.2939 3.86557 0
M  V30 11525 H 1059.46 3.77659 4.65976 0
M  V30 11526 H 1061.14 4.3583 4.78185 0
M  V30 11527 N 1061.28 -1.12907 1.09954 0
M  V30 11528 C 1062.21 -2.20585 0.765799 0
M  V30 11529 C 1063.19 -1.68117 -0.258989 0
M  V30 11530 O 1064.37 -1.93792 -0.125853 0
M  V30 11531 C 1061.5 -3.46772 0.191435 0
M  V30 11532 C 1060.46 -4.12363 1.14635 0
M  V30 11533 C 1059.78 -5.3294 0.433426 0
M  V30 11534 C 1061.08 -4.59073 2.49096 0
M  V30 11535 H 1062.78 -2.48759 1.66612 0
M  V30 11536 H 1060.32 -1.19563 0.802534 0
M  V30 11537 H 1062.27 -4.21365 -0.0541535 0
M  V30 11538 H 1061 -3.18011 -0.744101 0
M  V30 11539 H 1059.66 -3.39744 1.37731 0
M  V30 11540 H 1059.31 -5.00444 -0.506422 0
M  V30 11541 H 1059.01 -5.77772 1.07018 0
M  V30 11542 H 1060.53 -6.10284 0.196267 0
M  V30 11543 H 1061.94 -5.25063 2.30177 0
M  V30 11544 H 1060.34 -5.14665 3.0861 0
M  V30 11545 H 1061.41 -3.73313 3.0946 0
M  V30 11546 N 1062.75 -0.88754 -1.30232 0
M  V30 11547 C 1063.68 -0.372481 -2.3051 0
M  V30 11548 C 1064.66 0.546037 -1.61098 0
M  V30 11549 O 1065.85 0.459345 -1.88689 0
M  V30 11550 C 1062.98 0.411605 -3.44852 0
M  V30 11551 C 1061.93 -0.415383 -4.2598 0
M  V30 11552 C 1061.26 0.495463 -5.324 0
M  V30 11553 C 1062.56 -1.65886 -4.95257 0
M  V30 11554 H 1064.25 -1.21045 -2.7384 0
M  V30 11555 H 1061.8 -0.583498 -1.31648 0
M  V30 11556 H 1063.75 0.782584 -4.1407 0
M  V30 11557 H 1062.48 1.28325 -3.00334 0
M  V30 11558 H 1061.14 -0.768534 -3.58454 0
M  V30 11559 H 1060.78 1.36489 -4.84128 0
M  V30 11560 H 1060.48 -0.0540885 -5.87575 0
M  V30 11561 H 1062.01 0.862901 -6.04472 0
M  V30 11562 H 1063.42 -1.35832 -5.56976 0
M  V30 11563 H 1061.82 -2.14881 -5.60309 0
M  V30 11564 H 1062.89 -2.40181 -4.21237 0
M  V30 11565 N 1064.23 1.43628 -0.648757 0
M  V30 11566 C 1065.18 2.32529 0.057536 0
M  V30 11567 C 1066.17 1.48358 0.817699 0
M  V30 11568 O 1067.38 1.64595 0.728605 0
M  V30 11569 H 1063.76 0.75107 0.037388 0
M  V30 11570 H 1065.73 2.89829 -0.710062 0
M  V30 11571 C 1064.48 3.32605 1.01336 0
M  V30 11572 H 1063.8 3.97395 0.437855 0
M  V30 11573 H 1065.24 3.97453 1.47672 0
M  V30 11574 C 1063.7 2.62865 2.10722 0
M  V30 11575 O 1064.23 2.4408 3.19042 0
M  V30 11576 N 1062.43 2.22312 1.87152 0
M  V30 11577 H 1061.98 2.3779 0.990644 0
M  V30 11578 H 1061.94 1.75979 2.60536 0
M  V30 11579 N 1065.71 0.390394 1.52688 0
M  V30 11580 C 1066.94 -0.191485 2.06012 0
M  V30 11581 C 1067.35 -1.40422 1.26202 0
M  V30 11582 O 1066.71 -1.79866 0.308963 0
M  V30 11583 C 1066.76 -0.560521 3.57128 0
M  V30 11584 O 1066.48 0.60404 4.33916 0
M  V30 11585 C 1067.98 -1.19814 4.26801 0
M  V30 11586 H 1065.2 -0.0286311 0.670389 0
M  V30 11587 H 1067.75 0.555939 1.96798 0
M  V30 11588 H 1065.9 -1.25784 3.66411 0
M  V30 11589 H 1066.32 0.300467 5.23639 0
M  V30 11590 H 1067.79 -1.40672 5.33775 0
M  V30 11591 H 1068.27 -2.16582 3.82085 0
M  V30 11592 H 1068.87 -0.541558 4.21838 0
M  V30 11593 N 1067.19 -1.57141 0.120249 0
M  V30 11594 C 1068.15 -2.14213 -0.815185 0
M  V30 11595 C 1069.15 -1.07731 -1.19376 0
M  V30 11596 O 1070.34 -1.33502 -1.11906 0
M  V30 11597 C 1067.47 -2.68339 -2.10255 0
M  V30 11598 H 1068.67 -2.98197 -0.319166 0
M  V30 11599 H 1066.22 -1.55767 -0.128997 0
M  V30 11600 H 1066.95 -1.87946 -2.64285 0
M  V30 11601 H 1066.74 -3.46216 -1.84057 0
M  V30 11602 H 1068.23 -3.124 -2.77121 0
M  V30 11603 N 1068.67 0.153526 -1.5685 0
M  V30 11604 C 1069.63 1.17362 -1.96873 0
M  V30 11605 C 1070.63 1.36219 -0.854456 0
M  V30 11606 O 1071.82 1.33322 -1.1212 0
M  V30 11607 C 1068.95 2.53523 -2.27901 0
M  V30 11608 H 1070.14 0.830432 -2.88173 0
M  V30 11609 H 1067.7 0.396633 -1.51184 0
M  V30 11610 H 1068.43 2.92824 -1.39371 0
M  V30 11611 H 1068.22 2.41198 -3.09137 0
M  V30 11612 H 1069.71 3.27006 -2.59725 0
M  V30 11613 N 1070.14 1.51827 0.422667 0
M  V30 11614 C 1071.08 1.70409 1.53275 0
M  V30 11615 C 1072.09 0.584584 1.51942 0
M  V30 11616 O 1073.28 0.859349 1.56453 0
M  V30 11617 C 1070.38 1.717 2.92185 0
M  V30 11618 C 1069.55 3.00472 3.17861 0
M  V30 11619 C 1068.61 2.93755 4.36571 0
M  V30 11620 O 1067.64 3.67682 4.3451 0
M  V30 11621 N 1068.84 2.10612 5.40946 0
M  V30 11622 H 1071.6 2.66176 1.37734 0
M  V30 11623 H 1069.16 1.49895 0.611799 0
M  V30 11624 H 1071.16 1.64756 3.69645 0
M  V30 11625 H 1069.73 0.834655 3.01251 0
M  V30 11626 H 1068.95 3.21171 2.28567 0
M  V30 11627 H 1070.23 3.85684 3.31851 0
M  V30 11628 H 1069.63 1.49954 5.45463 0
M  V30 11629 H 1068.19 2.09535 6.17202 0
M  V30 11630 N 1071.62 -0.679052 1.4222 0
M  V30 11631 C 1072.87 -1.44125 1.42674 0
M  V30 11632 C 1073.2 -1.94156 0.041438 0
M  V30 11633 O 1072.48 -1.70628 -0.93361 0
M  V30 11634 C 1072.76 -2.64133 2.44756 0
M  V30 11635 C 1072.61 -2.19761 3.9246 0
M  V30 11636 C 1073.93 -3.66347 2.43881 0
M  V30 11637 H 1071.05 -0.522729 0.519541 0
M  V30 11638 H 1073.69 -0.772067 1.73606 0
M  V30 11639 H 1071.84 -3.21225 2.1851 0
M  V30 11640 H 1073.51 -1.67869 4.29671 0
M  V30 11641 H 1071.76 -1.51377 4.06531 0
M  V30 11642 H 1072.43 -3.05944 4.59459 0
M  V30 11643 H 1074.9 -3.18963 2.67211 0
M  V30 11644 H 1073.78 -4.47902 3.17293 0
M  V30 11645 H 1074.04 -4.17183 1.46325 0
M  V30 11646 N 1073.1 -1.28322 -0.914942 0
M  V30 11647 C 1074.06 -1.12169 -1.99877 0
M  V30 11648 C 1075.06 -0.0617252 -1.60681 0
M  V30 11649 O 1076.25 -0.307405 -1.71466 0
M  V30 11650 C 1073.39 -0.711959 -3.33383 0
M  V30 11651 H 1074.58 -2.08425 -2.15636 0
M  V30 11652 H 1072.13 -1.11291 -1.09745 0
M  V30 11653 H 1072.87 0.251418 -3.23324 0
M  V30 11654 H 1072.65 -1.47764 -3.63192 0
M  V30 11655 H 1074.14 -0.621558 -4.12948 0
M  V30 11656 N 1074.58 1.12322 -1.10551 0
M  V30 11657 C 1075.81 1.87407 -0.869607 0
M  V30 11658 C 1076.22 1.79976 0.58356 0
M  V30 11659 O 1075.56 1.1725 1.41415 0
M  V30 11660 C 1075.62 3.37401 -1.24099 0
M  V30 11661 C 1075.29 3.68607 -2.70144 0
M  V30 11662 C 1076.28 3.66869 -3.68379 0
M  V30 11663 C 1073.97 3.97903 -3.06559 0
M  V30 11664 C 1075.96 3.93987 -5.01052 0
M  V30 11665 C 1073.65 4.24681 -4.39419 0
M  V30 11666 C 1074.65 4.2271 -5.36475 0
M  V30 11667 O 1074.33 4.48823 -6.66943 0
M  V30 11668 H 1074.07 0.59978 -0.311834 0
M  V30 11669 H 1076.62 1.43037 -1.4741 0
M  V30 11670 H 1074.85 3.82332 -0.579606 0
M  V30 11671 H 1076.54 3.93833 -0.982378 0
M  V30 11672 H 1077.31 3.44297 -3.41591 0
M  V30 11673 H 1073.18 3.98578 -2.31638 0
M  V30 11674 H 1076.73 3.92364 -5.76798 0
M  V30 11675 H 1072.63 4.46727 -4.65945 0
M  V30 11676 H 1073.39 4.66436 -6.72592 0
M  V30 11677 N 1076.06 0.894434 1.2976 0
M  V30 11678 C 1077.3 0.518435 1.96061 0
M  V30 11679 C 1077.64 -0.931882 1.70381 0
M  V30 11680 O 1076.91 -1.65988 1.01381 0
M  V30 11681 C 1077.19 0.80519 3.50982 0
M  V30 11682 C 1077.05 2.30683 3.86142 0
M  V30 11683 C 1078.37 0.288096 4.39156 0
M  V30 11684 H 1075.48 0.18983 0.712133 0
M  V30 11685 H 1078.13 1.12016 1.53468 0
M  V30 11686 H 1076.28 0.293071 3.87393 0
M  V30 11687 H 1077.95 2.88808 3.59705 0
M  V30 11688 H 1076.19 2.76968 3.33873 0
M  V30 11689 H 1076.86 2.45805 4.94251 0
M  V30 11690 H 1079.34 0.726547 4.09708 0
M  V30 11691 H 1078.21 0.517985 5.4645 0
M  V30 11692 H 1078.48 -0.811018 4.34597 0
M  V30 11693 N 1077.53 -1.43282 0.656365 0
M  V30 11694 C 1078.46 -2.33492 -0.0196962 0
M  V30 11695 C 1079.45 -1.49647 -0.80868 0
M  V30 11696 O 1080.63 -1.78303 -0.769529 0
M  V30 11697 C 1077.76 -3.33052 -0.984574 0
M  V30 11698 C 1076.71 -4.26908 -0.305483 0
M  V30 11699 C 1076.04 -5.16531 -1.38202 0
M  V30 11700 C 1077.34 -5.16073 0.804081 0
M  V30 11701 H 1079.03 -2.90272 0.733661 0
M  V30 11702 H 1076.58 -1.39574 0.354259 0
M  V30 11703 H 1078.53 -3.9506 -1.46647 0
M  V30 11704 H 1077.26 -2.74535 -1.76913 0
M  V30 11705 H 1075.92 -3.66268 0.155995 0
M  V30 11706 H 1075.56 -4.54351 -2.1581 0
M  V30 11707 H 1075.26 -5.80148 -0.932878 0
M  V30 11708 H 1076.79 -5.81414 -1.86522 0
M  V30 11709 H 1078.2 -5.71873 0.404212 0
M  V30 11710 H 1076.6 -5.88427 1.17789 0
M  V30 11711 H 1077.67 -4.55574 1.66073 0
M  V30 11712 N 1079.01 -0.398486 -1.52479 0
M  V30 11713 C 1079.95 0.467426 -2.24383 0
M  V30 11714 C 1080.96 1.01908 -1.26959 0
M  V30 11715 O 1082.15 0.919843 -1.52974 0
M  V30 11716 C 1079.25 1.66146 -2.95379 0
M  V30 11717 C 1078.42 1.23557 -4.19586 0
M  V30 11718 C 1077.48 2.29532 -4.73499 0
M  V30 11719 O 1076.51 1.90561 -5.36354 0
M  V30 11720 N 1077.71 3.61564 -4.5415 0
M  V30 11721 H 1080.47 -0.148653 -2.99331 0
M  V30 11722 H 1078.03 -0.225313 -1.60325 0
M  V30 11723 H 1080.03 2.36585 -3.28344 0
M  V30 11724 H 1078.6 2.18369 -2.23682 0
M  V30 11725 H 1077.82 0.359715 -3.92555 0
M  V30 11726 H 1079.1 0.927812 -5.00269 0
M  V30 11727 H 1078.5 3.95983 -4.03998 0
M  V30 11728 H 1077.06 4.2801 -4.9158 0
M  V30 11729 N 1080.49 1.57075 -0.12858 0
M  V30 11730 C 1081.77 1.87075 0.571162 0
M  V30 11731 C 1082.15 1.03141 1.84188 0
M  V30 11732 O 1081.5 0.113001 2.2822 0
M  V30 11733 C 1081.71 3.3838 0.854383 0
M  V30 11734 C 1083.05 4.07194 1.20326 0
M  V30 11735 O 1084.08 3.43454 0.944338 0
M  V30 11736 O 1082.94 5.19725 1.68963 0
M  V30 11737 H 1080.03 0.774764 0.289258 0
M  V30 11738 H 1082.58 1.68908 -0.163806 0
M  V30 11739 H 1081.35 3.91273 -0.0456925 0
M  V30 11740 H 1080.97 3.62012 1.64418 0
M  V30 11741 N 1081.97 -0.145205 1.5693 0
M  V30 11742 C 1083.22 -0.85395 1.84606 0
M  V30 11743 C 1083.57 -1.78709 0.712811 0
M  V30 11744 O 1082.86 -1.89406 -0.289108 0
M  V30 11745 C 1083.06 -1.66391 3.16305 0
M  V30 11746 C 1082.89 -0.810698 4.42332 0
M  V30 11747 C 1081.66 -0.475623 5.03057 0
M  V30 11748 C 1083.85 -0.140213 5.14109 0
M  V30 11749 N 1081.84 0.390996 6.12654 0
M  V30 11750 C 1083.21 0.586471 6.1722 0
M  V30 11751 C 1085.26 -0.0610725 4.97863 0
M  V30 11752 C 1083.97 1.38483 7.05844 0
M  V30 11753 C 1085.99 0.724026 5.86951 0
M  V30 11754 C 1085.35 1.43899 6.89545 0
M  V30 11755 H 1081.45 -0.290253 0.726138 0
M  V30 11756 H 1084.04 -0.119211 1.94335 0
M  V30 11757 H 1082.21 -2.36987 3.0772 0
M  V30 11758 H 1083.94 -2.31596 3.31882 0
M  V30 11759 H 1080.69 -0.811824 4.6659 0
M  V30 11760 H 1081.12 0.815383 6.72072 0
M  V30 11761 H 1085.76 -0.599475 4.18529 0
M  V30 11762 H 1083.48 1.93448 7.84604 0
M  V30 11763 H 1087.06 0.787276 5.76449 0
M  V30 11764 H 1085.94 2.03674 7.57289 0
M  V30 11765 N 1083.45 -1.52049 -0.414609 0
M  V30 11766 C 1084.69 -1.67041 -1.16056 0
M  V30 11767 C 1085.05 -0.392768 -1.88348 0
M  V30 11768 O 1084.34 0.612547 -1.81545 0
M  V30 11769 C 1084.54 -2.82735 -2.18622 0
M  V30 11770 C 1084.36 -4.21627 -1.564 0
M  V30 11771 C 1083.13 -4.87234 -1.33907 0
M  V30 11772 C 1085.33 -5.03924 -1.02785 0
M  V30 11773 N 1083.31 -6.10175 -0.67521 0
M  V30 11774 C 1084.69 -6.18056 -0.490589 0
M  V30 11775 C 1086.74 -4.89293 -0.921791 0
M  V30 11776 C 1085.44 -7.19159 0.14234 0
M  V30 11777 C 1087.47 -5.90625 -0.302724 0
M  V30 11778 C 1086.83 -7.04044 0.223891 0
M  V30 11779 H 1082.93 -0.664947 -0.411544 0
M  V30 11780 H 1085.51 -1.89339 -0.453743 0
M  V30 11781 H 1083.69 -2.62062 -2.86668 0
M  V30 11782 H 1085.42 -2.86792 -2.85539 0
M  V30 11783 H 1082.17 -4.45499 -1.60709 0
M  V30 11784 H 1082.6 -6.76042 -0.360062 0
M  V30 11785 H 1087.24 -4.01838 -1.31477 0
M  V30 11786 H 1084.96 -8.06244 0.547392 0
M  V30 11787 H 1088.54 -5.81375 -0.222252 0
M  V30 11788 H 1087.42 -7.81111 0.695377 0
M  V30 11789 N 1084.93 0.6715 -1.42579 0
M  V30 11790 C 1085.86 1.79693 -1.49107 0
M  V30 11791 C 1086.84 1.66516 -0.347338 0
M  V30 11792 O 1088.02 1.85887 -0.562094 0
M  V30 11793 C 1085.15 3.1801 -1.39596 0
M  V30 11794 C 1084.11 3.45926 -2.5203 0
M  V30 11795 C 1083.43 4.83852 -2.27577 0
M  V30 11796 C 1084.73 3.4249 -3.94333 0
M  V30 11797 H 1086.43 1.74486 -2.433 0
M  V30 11798 H 1083.97 0.838042 -1.17102 0
M  V30 11799 H 1085.92 3.96478 -1.42771 0
M  V30 11800 H 1084.65 3.23901 -0.418989 0
M  V30 11801 H 1083.31 2.6982 -2.48178 0
M  V30 11802 H 1082.96 4.86398 -1.28165 0
M  V30 11803 H 1082.66 5.03493 -3.02934 0
M  V30 11804 H 1084.18 5.646 -2.32506 0
M  V30 11805 H 1085.59 4.10922 -3.9977 0
M  V30 11806 H 1083.99 3.73666 -4.69568 0
M  V30 11807 H 1085.06 2.41002 -4.20768 0
M  V30 11808 N 1086.4 1.28806 0.908124 0
M  V30 11809 C 1087.63 1.19271 1.69674 0
M  V30 11810 C 1088.05 -0.244403 1.86505 0
M  V30 11811 O 1087.41 -1.17668 1.37927 0
M  V30 11812 C 1087.46 1.9023 3.06341 0
M  V30 11813 O 1086.56 1.2136 3.94139 0
M  V30 11814 H 1085.9 0.413738 0.519343 0
M  V30 11815 H 1088.43 1.70227 1.13508 0
M  V30 11816 H 1088.44 1.98356 3.56537 0
M  V30 11817 H 1087.12 2.94762 2.93408 0
M  V30 11818 H 1085.7 1.21435 3.52573 0
M  V30 11819 N 1087.88 -1.11734 1.11145 0
M  V30 11820 C 1089.11 -1.86943 0.879534 0
M  V30 11821 C 1089.52 -1.80283 -0.574007 0
M  V30 11822 O 1088.86 -1.17998 -1.40791 0
M  V30 11823 C 1088.92 -3.36738 1.25887 0
M  V30 11824 C 1088.59 -3.67169 2.72095 0
M  V30 11825 C 1089.59 -3.6491 3.7032 0
M  V30 11826 C 1087.27 -3.96272 3.08665 0
M  V30 11827 C 1089.26 -3.91325 5.03134 0
M  V30 11828 C 1086.95 -4.22345 4.41665 0
M  V30 11829 C 1087.95 -4.19859 5.38709 0
M  V30 11830 O 1087.64 -4.4528 6.69314 0
M  V30 11831 H 1087.37 -0.598117 0.315011 0
M  V30 11832 H 1089.92 -1.42253 1.48166 0
M  V30 11833 H 1088.15 -3.82019 0.599873 0
M  V30 11834 H 1089.84 -3.93306 1.00325 0
M  V30 11835 H 1090.61 -3.42481 3.43412 0
M  V30 11836 H 1086.49 -3.97344 2.33749 0
M  V30 11837 H 1090.03 -3.893 5.78871 0
M  V30 11838 H 1085.93 -4.4425 4.68308 0
M  V30 11839 H 1086.7 -4.62863 6.75056 0
M  V30 11840 N 1089.36 -0.901303 -1.29284 0
M  V30 11841 C 1090.61 -0.538241 -1.96149 0
M  V30 11842 C 1090.96 0.905804 -1.69744 0
M  V30 11843 O 1090.25 1.63383 -1.00083 0
M  V30 11844 C 1090.45 -0.768828 -3.49033 0
M  V30 11845 C 1090.28 -2.23373 -3.903 0
M  V30 11846 C 1089.05 -2.88148 -4.15089 0
M  V30 11847 C 1091.24 -3.20907 -4.01899 0
M  V30 11848 N 1089.23 -4.25065 -4.42937 0
M  V30 11849 C 1090.6 -4.42948 -4.33817 0
M  V30 11850 C 1092.65 -3.16475 -3.8438 0
M  V30 11851 C 1091.36 -5.6112 -4.50041 0
M  V30 11852 C 1093.38 -4.33934 -4.01815 0
M  V30 11853 C 1092.74 -5.54745 -4.34093 0
M  V30 11854 H 1088.84 -0.246593 -0.742102 0
M  V30 11855 H 1091.43 -1.16245 -1.5619 0
M  V30 11856 H 1089.6 -0.17399 -3.8801 0
M  V30 11857 H 1091.33 -0.37104 -4.02996 0
M  V30 11858 H 1088.08 -2.38935 -4.0891 0
M  V30 11859 H 1088.51 -4.95822 -4.60966 0
M  V30 11860 H 1093.15 -2.2416 -3.58486 0
M  V30 11861 H 1090.87 -6.53925 -4.74771 0
M  V30 11862 H 1094.45 -4.31993 -3.89709 0
M  V30 11863 H 1093.33 -6.4412 -4.47302 0
M  V30 11864 N 1090.84 1.42931 -0.663954 0
M  V30 11865 C 1091.8 2.29197 0.0117626 0
M  V30 11866 C 1092.8 1.42767 0.739875 0
M  V30 11867 O 1093.99 1.64278 0.579509 0
M  V30 11868 C 1091.12 3.2505 1.02738 0
M  V30 11869 H 1092.32 2.90438 -0.747391 0
M  V30 11870 H 1089.87 1.5039 -0.425733 0
M  V30 11871 H 1090.6 2.68726 1.8154 0
M  V30 11872 H 1090.39 3.88785 0.508809 0
M  V30 11873 H 1091.88 3.89771 1.49893 0
M  V30 11874 N 1092.32 0.406567 1.52266 0
M  V30 11875 C 1093.26 -0.43489 2.28498 0
M  V30 11876 C 1094.26 -1.04806 1.33086 0
M  V30 11877 O 1095.46 -0.986557 1.50556 0
M  V30 11878 H 1091.84 -0.159023 0.734994 0
M  V30 11879 H 1093.81 0.229316 2.97518 0
M  V30 11880 C 1092.56 -1.54073 3.117 0
M  V30 11881 H 1091.88 -1.07824 3.84986 0
M  V30 11882 H 1093.32 -2.10337 3.6815 0
M  V30 11883 C 1091.78 -2.50662 2.251 0
M  V30 11884 O 1092.31 -3.54486 1.88951 0
M  V30 11885 N 1090.52 -2.20811 1.8892 0
M  V30 11886 H 1090.06 -1.36413 2.18516 0
M  V30 11887 H 1090.02 -2.85684 1.3127 0
M  V30 11888 N 1093.79 -1.57004 0.136909 0
M  V30 11889 C 1094.74 -2.16246 -0.806607 0
M  V30 11890 C 1095.71 -1.09246 -1.25118 0
M  V30 11891 O 1096.9 -1.3724 -1.32551 0
M  V30 11892 C 1094.04 -2.78031 -2.04433 0
M  V30 11893 C 1093.15 -3.99393 -1.64649 0
M  V30 11894 C 1092.28 -4.49208 -2.83524 0
M  V30 11895 C 1091.32 -5.63059 -2.40064 0
M  V30 11896 N 1090.46 -6.07537 -3.51913 0
M  V30 11897 H 1095.3 -2.9654 -0.294596 0
M  V30 11898 H 1092.84 -1.46491 -0.133705 0
M  V30 11899 H 1094.8 -3.11992 -2.76978 0
M  V30 11900 H 1093.43 -2.00398 -2.53062 0
M  V30 11901 H 1092.48 -3.71477 -0.819077 0
M  V30 11902 H 1093.79 -4.81904 -1.28723 0
M  V30 11903 H 1092.94 -4.85171 -3.64271 0
M  V30 11904 H 1091.68 -3.65683 -3.22688 0
M  V30 11905 H 1090.69 -5.26682 -1.57754 0
M  V30 11906 H 1091.91 -6.48362 -2.01997 0
M  V30 11907 H 1089.86 -5.2695 -3.90717 0
M  V30 11908 H 1089.78 -6.84949 -3.1997 0
M  V30 11909 H 1091.04 -6.48143 -4.33048 0
M  V30 11910 N 1095.27 0.136881 -1.57004 0
M  V30 11911 C 1096.2 1.19402 -1.95642 0
M  V30 11912 C 1097.22 1.38635 -0.853478 0
M  V30 11913 O 1098.41 1.38027 -1.13185 0
M  V30 11914 C 1095.51 2.55716 -2.22402 0
M  V30 11915 C 1094.68 2.57325 -3.53698 0
M  V30 11916 C 1093.74 3.75253 -3.68879 0
M  V30 11917 O 1092.76 3.5966 -4.41173 0
M  V30 11918 N 1093.97 4.93112 -3.06302 0
M  V30 11919 H 1096.73 0.865504 -2.8693 0
M  V30 11920 H 1094.29 0.326346 -1.58577 0
M  V30 11921 H 1096.28 3.33135 -2.29789 0
M  V30 11922 H 1094.85 2.80819 -1.37329 0
M  V30 11923 H 1094.07 1.65749 -3.5766 0
M  V30 11924 H 1095.36 2.55441 -4.40031 0
M  V30 11925 H 1094.76 5.08684 -2.47502 0
M  V30 11926 H 1093.32 5.68271 -3.19236 0
M  V30 11927 N 1096.75 1.52266 0.40654 0
M  V30 11928 C 1097.98 1.70598 1.17945 0
M  V30 11929 C 1098.4 0.415793 1.83447 0
M  V30 11930 O 1097.76 -0.626968 1.70114 0
M  V30 11931 C 1097.81 2.84449 2.21633 0
M  V30 11932 O 1096.91 2.50199 3.27833 0
M  V30 11933 H 1096.25 0.567837 0.344177 0
M  V30 11934 H 1098.78 1.98981 0.476211 0
M  V30 11935 H 1098.79 3.09436 2.65919 0
M  V30 11936 H 1097.47 3.78055 1.73341 0
M  V30 11937 H 1096.04 2.35892 2.88807 0
M  V30 11938 N 1098.23 -0.663929 1.42933 0
M  V30 11939 C 1099.16 -1.78876 1.41699 0
M  V30 11940 C 1100.14 -1.60174 0.27981 0
M  V30 11941 O 1101.32 -1.82502 0.471735 0
M  V30 11942 C 1098.45 -3.1603 1.2183 0
M  V30 11943 C 1097.5 -3.53457 2.38685 0
M  V30 11944 S 1098.33 -3.54648 4.01229 0
M  V30 11945 C 1099.49 -4.94477 3.83723 0
M  V30 11946 H 1099.72 -1.7965 2.36882 0
M  V30 11947 H 1097.25 -0.835596 1.29835 0
M  V30 11948 H 1099.21 -3.95193 1.11054 0
M  V30 11949 H 1097.87 -3.1283 0.282139 0
M  V30 11950 H 1097.06 -4.53178 2.20559 0
M  V30 11951 H 1096.67 -2.81681 2.46032 0
M  V30 11952 H 1098.96 -5.82851 3.45386 0
M  V30 11953 H 1099.9 -5.17652 4.83158 0
M  V30 11954 H 1100.31 -4.67507 3.16382 0
M  V30 11955 N 1099.71 -1.29285 -0.901281 0
M  V30 11956 C 1100.64 -1.16832 -2.0217 0
M  V30 11957 C 1101.62 -0.0629265 -1.69984 0
M  V30 11958 O 1102.8 -0.242123 -1.92685 0
M  V30 11959 C 1099.93 -0.842406 -3.36929 0
M  V30 11960 C 1098.89 -1.90394 -3.8332 0
M  V30 11961 C 1098.21 -1.43138 -5.15185 0
M  V30 11962 C 1099.51 -3.31254 -4.03817 0
M  V30 11963 H 1101.21 -2.10562 -2.12847 0
M  V30 11964 H 1098.75 -1.01375 -1.0227 0
M  V30 11965 H 1100.71 -0.741999 -4.14816 0
M  V30 11966 H 1099.43 0.130598 -3.26339 0
M  V30 11967 H 1098.09 -1.99371 -3.07647 0
M  V30 11968 H 1097.74 -0.447091 -5.01009 0
M  V30 11969 H 1097.44 -2.14129 -5.47195 0
M  V30 11970 H 1098.96 -1.34444 -5.95615 0
M  V30 11971 H 1100.37 -3.25129 -4.72191 0
M  V30 11972 H 1098.77 -4.00189 -4.47178 0
M  V30 11973 H 1099.84 -3.74349 -3.08206 0
M  V30 11974 N 1101.18 1.11143 -1.11736 0
M  V30 11975 C 1102.13 2.19358 -0.773626 0
M  V30 11976 C 1103.13 1.67744 0.236288 0
M  V30 11977 O 1104.33 1.79748 0.09525 0
M  V30 11978 H 1100.71 0.715218 -0.232309 0
M  V30 11979 H 1102.68 2.45594 -1.69487 0
M  V30 11980 C 1101.43 3.46895 -0.236457 0
M  V30 11981 H 1100.75 3.86967 -1.00483 0
M  V30 11982 H 1102.19 4.23986 -0.034168 0
M  V30 11983 C 1100.65 3.20641 1.03397 0
M  V30 11984 O 1101.18 3.41629 2.11312 0
M  V30 11985 N 1099.39 2.74356 0.957986 0
M  V30 11986 H 1098.93 2.57477 0.0796924 0
M  V30 11987 H 1098.89 2.57166 1.80867 0
M  V30 11988 N 1102.66 0.908147 1.28804 0
M  V30 11989 C 1103.91 0.539201 1.95501 0
M  V30 11990 C 1104.24 -0.913759 1.7136 0
M  V30 11991 O 1103.52 -1.64904 1.03136 0
M  V30 11992 C 1103.8 0.842372 3.50109 0
M  V30 11993 C 1103.65 2.34765 3.83673 0
M  V30 11994 C 1104.97 0.334658 4.38826 0
M  V30 11995 H 1102.09 0.197373 0.71008 0
M  V30 11996 H 1104.73 1.13637 1.52272 0
M  V30 11997 H 1102.88 0.334143 3.8706 0
M  V30 11998 H 1104.55 2.92607 3.56621 0
M  V30 11999 H 1102.8 2.80494 3.30916 0
M  V30 12000 H 1103.47 2.51034 4.91616 0
M  V30 12001 H 1105.94 0.769961 4.08914 0
M  V30 12002 H 1104.82 0.575914 5.4587 0
M  V30 12003 H 1105.08 -0.764878 4.35433 0
M  V30 12004 N 1104.14 -1.42577 0.671525 0
M  V30 12005 C 1105.37 -2.05924 0.200731 0
M  V30 12006 C 1105.78 -1.50434 -1.14083 0
M  V30 12007 O 1105.14 -0.642845 -1.70803 0
M  V30 12008 C 1105.19 -3.61289 0.123505 0
M  V30 12009 O 1104.91 -4.1472 1.41205 0
M  V30 12010 C 1106.41 -4.41743 -0.371178 0
M  V30 12011 H 1103.63 -0.663746 0.0983958 0
M  V30 12012 H 1106.18 -1.82771 0.917338 0
M  V30 12013 H 1104.33 -3.83565 -0.543769 0
M  V30 12014 H 1104.75 -5.0856 1.28325 0
M  V30 12015 H 1106.22 -5.50731 -0.374128 0
M  V30 12016 H 1106.7 -4.16092 -1.40585 0
M  V30 12017 H 1107.3 -4.24478 0.264244 0
M  V30 12018 N 1105.62 -0.414636 -1.52048 0
M  V30 12019 C 1106.86 0.159585 -2.02171 0
M  V30 12020 C 1107.2 1.44321 -1.29943 0
M  V30 12021 O 1106.47 1.90185 -0.407402 0
M  V30 12022 C 1106.76 0.401655 -3.57853 0
M  V30 12023 C 1106.61 -0.899026 -4.40724 0
M  V30 12024 C 1107.93 1.1814 -4.23947 0
M  V30 12025 H 1105.05 0.0565257 -0.734829 0
M  V30 12026 H 1107.69 -0.549183 -1.8189 0
M  V30 12027 H 1105.84 1.00541 -3.75265 0
M  V30 12028 H 1107.51 -1.53502 -4.35011 0
M  V30 12029 H 1105.75 -1.50877 -4.06717 0
M  V30 12030 H 1106.42 -0.683974 -5.47746 0
M  V30 12031 H 1108.9 0.670203 -4.10667 0
M  V30 12032 H 1107.78 1.31953 -5.32804 0
M  V30 12033 H 1108.04 2.2035 -3.83273 0
M  V30 12034 N 1107.1 1.56929 -0.145233 0
M  V30 12035 C 1108.04 2.17958 0.812237 0
M  V30 12036 C 1109.04 1.13608 1.25657 0
M  V30 12037 O 1110.24 1.31861 1.22526 0
M  V30 12038 H 1106.62 0.697876 0.28013 0
M  V30 12039 H 1108.59 2.97146 0.273297 0
M  V30 12040 C 1107.34 2.81418 2.04203 0
M  V30 12041 H 1106.66 3.61427 1.70911 0
M  V30 12042 H 1108.1 3.27624 2.69144 0
M  V30 12043 C 1106.56 1.79835 2.84888 0
M  V30 12044 O 1107.09 1.26773 3.81171 0
M  V30 12045 N 1105.3 1.49179 2.49387 0
M  V30 12046 H 1104.84 1.9252 1.71154 0
M  V30 12047 H 1104.8 0.81458 3.03664 0
M  V30 12048 N 1108.58 -0.128553 1.57075 0
M  V30 12049 C 1109.82 -0.836355 1.83982 0
M  V30 12050 C 1110.14 -1.80862 0.728971 0
M  V30 12051 O 1109.41 -1.94326 -0.247859 0
M  V30 12052 H 1107.99 -0.31185 0.678792 0
M  V30 12053 H 1110.66 -0.118153 1.94542 0
M  V30 12054 H 1109.75 -1.38741 2.79567 0
M  V30 12055 N 1110.05 -1.5248 -0.398459 0
M  V30 12056 C 1111.3 -1.66731 -1.14215 0
M  V30 12057 C 1111.62 -0.404957 -1.90749 0
M  V30 12058 O 1110.89 0.580434 -1.87104 0
M  V30 12059 H 1109.47 -0.614577 -0.424622 0
M  V30 12060 H 1112.13 -1.89561 -0.453059 0
M  V30 12061 H 1111.23 -2.51336 -1.85031 0
M  V30 12062 N 1111.53 0.65634 -1.43283 0
M  V30 12063 C 1112.78 1.41347 -1.44449 0
M  V30 12064 C 1113.1 1.94879 -0.0687217 0
M  V30 12065 O 1112.37 1.74235 0.895492 0
M  V30 12066 H 1110.95 0.524578 -0.531815 0
M  V30 12067 H 1113.61 0.774292 -1.7886 0
M  V30 12068 H 1112.71 2.25737 -2.15521 0
M  V30 12069 N 1113.01 1.29761 0.894412 0
M  V30 12070 C 1113.96 1.15232 2.0205 0
M  V30 12071 C 1114.95 0.0665664 1.69269 0
M  V30 12072 O 1116.16 0.226746 1.78566 0
M  V30 12073 H 1112.53 0.356102 0.662341 0
M  V30 12074 H 1114.5 2.10559 2.11442 0
M  V30 12075 C 1113.25 0.851143 3.37121 0
M  V30 12076 H 1112.58 1.67865 3.62852 0
M  V30 12077 H 1114.02 0.78954 4.16584 0
M  V30 12078 C 1112.47 -0.445737 3.33938 0
M  V30 12079 O 1113 -1.47017 3.7383 0
M  V30 12080 N 1111.21 -0.453493 2.8704 0
M  V30 12081 H 1110.76 0.380636 2.54772 0
M  V30 12082 H 1110.72 -1.32119 2.85293 0
M  V30 12083 N 1114.49 -1.10549 1.12324 0
M  V30 12084 C 1115.73 -1.82755 0.879117 0
M  V30 12085 C 1116.07 -1.84905 -0.593604 0
M  V30 12086 O 1115.34 -1.30884 -1.43873 0
M  V30 12087 C 1115.62 -3.29481 1.45308 0
M  V30 12088 C 1115.48 -3.3567 2.99408 0
M  V30 12089 C 1116.8 -4.25828 1.11167 0
M  V30 12090 H 1113.92 -0.663513 0.32081 0
M  V30 12091 H 1116.56 -1.29572 1.38965 0
M  V30 12092 H 1114.71 -3.74902 1.01887 0
M  V30 12093 H 1116.38 -2.98739 3.515 0
M  V30 12094 H 1114.62 -2.75606 3.34998 0
M  V30 12095 H 1115.29 -4.38983 3.34661 0
M  V30 12096 H 1117.77 -3.88635 1.48667 0
M  V30 12097 H 1116.65 -5.26857 1.53991 0
M  V30 12098 H 1116.91 -4.42094 0.0237046 0
M  V30 12099 N 1115.97 -0.914965 -1.28321 0
M  V30 12100 C 1117.19 -0.564654 -1.99046 0
M  V30 12101 C 1117.61 0.854345 -1.68364 0
M  V30 12102 O 1116.97 1.56605 -0.937068 0
M  V30 12103 C 1117.02 -0.765663 -3.53299 0
M  V30 12104 O 1116.74 -2.12883 -3.829 0
M  V30 12105 C 1118.24 -0.422347 -4.41283 0
M  V30 12106 H 1115.46 -0.215158 -0.635569 0
M  V30 12107 H 1118 -1.2285 -1.63487 0
M  V30 12108 H 1116.16 -0.148795 -3.87114 0
M  V30 12109 H 1116.57 -2.1694 -4.77533 0
M  V30 12110 H 1118.05 -0.613757 -5.48577 0
M  V30 12111 H 1118.52 0.641484 -4.3449 0
M  V30 12112 H 1119.13 -1.01681 -4.12966 0
M  V30 12113 N 1117.44 1.42219 -0.679077 0
M  V30 12114 C 1118.35 2.346 -0.00345919 0
M  V30 12115 C 1119.37 1.55327 0.784181 0
M  V30 12116 O 1120.55 1.87878 0.725524 0
M  V30 12117 C 1117.61 3.33905 0.933194 0
M  V30 12118 C 1116.67 4.29073 0.139607 0
M  V30 12119 C 1115.9 5.23634 1.03165 0
M  V30 12120 O 1116.13 5.23234 2.27119 0
M  V30 12121 O 1115.06 5.99901 0.490159 0
M  V30 12122 H 1118.89 2.9392 -0.764525 0
M  V30 12123 H 1116.47 1.42794 -0.439329 0
M  V30 12124 H 1118.35 3.949 1.47077 0
M  V30 12125 H 1117.03 2.77052 1.67404 0
M  V30 12126 H 1115.94 3.71478 -0.442177 0
M  V30 12127 H 1117.27 4.88979 -0.562214 0
M  V30 12128 N 1118.92 0.422693 1.51826 0
M  V30 12129 C 1119.87 -0.396088 2.27376 0
M  V30 12130 C 1120.84 -1.02946 1.30351 0
M  V30 12131 O 1122.02 -1.05116 1.59233 0
M  V30 12132 C 1119.16 -1.49942 3.10824 0
M  V30 12133 C 1118.28 -0.885623 4.22825 0
M  V30 12134 C 1117.41 -1.96278 4.93608 0
M  V30 12135 C 1116.45 -1.32664 5.97551 0
M  V30 12136 N 1115.59 -2.34452 6.61798 0
M  V30 12137 H 1120.43 0.254571 2.96911 0
M  V30 12138 H 1117.96 0.137383 1.46457 0
M  V30 12139 H 1119.92 -2.15023 3.57521 0
M  V30 12140 H 1118.55 -2.11991 2.43433 0
M  V30 12141 H 1117.6 -0.123491 3.80199 0
M  V30 12142 H 1118.92 -0.381057 4.97342 0
M  V30 12143 H 1118.07 -2.69055 5.43778 0
M  V30 12144 H 1116.81 -2.50103 4.18688 0
M  V30 12145 H 1115.81 -0.584262 5.46687 0
M  V30 12146 H 1117.04 -0.7959 6.7442 0
M  V30 12147 H 1114.99 -2.87385 5.897 0
M  V30 12148 H 1114.9 -1.88845 7.32034 0
M  V30 12149 H 1116.17 -3.06757 7.16603 0
M  V30 12150 N 1120.4 -1.5685 0.153553 0
M  V30 12151 C 1121.33 -2.20101 -0.779601 0
M  V30 12152 C 1122.31 -1.15121 -1.25225 0
M  V30 12153 O 1123.5 -1.43487 -1.30862 0
M  V30 12154 C 1120.63 -2.82778 -2.01628 0
M  V30 12155 C 1119.58 -3.93643 -1.68015 0
M  V30 12156 C 1118.91 -4.43286 -2.99001 0
M  V30 12157 C 1120.21 -5.14102 -0.921774 0
M  V30 12158 H 1121.9 -2.98334 -0.252432 0
M  V30 12159 H 1119.45 -1.43499 -0.119975 0
M  V30 12160 H 1121.4 -3.25696 -2.67395 0
M  V30 12161 H 1120.12 -2.01887 -2.56728 0
M  V30 12162 H 1118.78 -3.51354 -1.04624 0
M  V30 12163 H 1118.43 -3.59208 -3.52106 0
M  V30 12164 H 1118.13 -5.18068 -2.77272 0
M  V30 12165 H 1119.65 -4.88878 -3.65828 0
M  V30 12166 H 1121.07 -5.53823 -1.48167 0
M  V30 12167 H 1119.46 -5.94687 -0.804185 0
M  V30 12168 H 1120.53 -4.84825 0.0852757 0
M  V30 12169 N 1121.88 0.120221 -1.57141 0
M  V30 12170 C 1123.15 0.858458 -1.75755 0
M  V30 12171 C 1123.53 1.98124 -0.728693 0
M  V30 12172 O 1122.88 2.27155 0.247573 0
M  V30 12173 C 1123.09 1.37627 -3.20718 0
M  V30 12174 C 1124.44 1.82909 -3.83183 0
M  V30 12175 O 1125.46 1.47309 -3.24312 0
M  V30 12176 O 1124.32 2.4865 -4.86657 0
M  V30 12177 H 1121.42 0.407583 -0.719587 0
M  V30 12178 H 1123.96 0.104057 -1.69381 0
M  V30 12179 H 1122.74 0.570651 -3.87117 0
M  V30 12180 H 1122.36 2.19341 -3.31625 0
M  V30 12181 N 1123.36 1.52689 0.390367 0
M  V30 12182 C 1124.29 1.80338 1.48325 0
M  V30 12183 C 1125.27 0.655338 1.56969 0
M  V30 12184 O 1126.45 0.902792 1.7194 0
M  V30 12185 C 1123.58 1.97101 2.85952 0
M  V30 12186 C 1122.54 3.12783 2.92148 0
M  V30 12187 C 1121.86 3.14798 4.32211 0
M  V30 12188 C 1123.16 4.5188 2.61919 0
M  V30 12189 H 1124.86 2.71857 1.25437 0
M  V30 12190 H 1122.4 1.30813 0.601995 0
M  V30 12191 H 1124.36 2.15027 3.62411 0
M  V30 12192 H 1123.08 1.02271 3.10174 0
M  V30 12193 H 1121.74 2.94638 2.18137 0
M  V30 12194 H 1121.39 2.17653 4.53471 0
M  V30 12195 H 1121.09 3.92507 4.37278 0
M  V30 12196 H 1122.61 3.34877 5.10578 0
M  V30 12197 H 1124.02 4.70134 3.28096 0
M  V30 12198 H 1122.42 5.31647 2.78337 0
M  V30 12199 H 1123.49 4.58689 1.57266 0
M  V30 12200 N 1124.83 -0.648732 1.43629 0
M  V30 12201 C 1125.78 -1.78269 1.49409 0
M  V30 12202 C 1126.78 -1.6537 0.367288 0
M  V30 12203 O 1127.98 -1.71663 0.541476 0
M  V30 12204 H 1124.36 -0.58824 0.468484 0
M  V30 12205 H 1126.33 -1.70514 2.44883 0
M  V30 12206 C 1125.08 -3.16545 1.43856 0
M  V30 12207 H 1124.4 -3.2711 2.29868 0
M  V30 12208 H 1125.84 -3.95833 1.51961 0
M  V30 12209 C 1124.3 -3.36535 0.156779 0
M  V30 12210 O 1124.83 -3.94052 -0.780124 0
M  V30 12211 N 1123.04 -2.90526 0.0655319 0
M  V30 12212 H 1122.58 -2.43904 0.828768 0
M  V30 12213 H 1122.54 -3.04277 -0.791379 0
M  V30 12214 N 1126.31 -1.30234 -0.887518 0
M  V30 12215 C 1127.56 -1.20096 -1.6416 0
M  V30 12216 C 1127.91 0.24253 -1.90865 0
M  V30 12217 O 1127.21 1.17078 -1.51668 0
M  V30 12218 C 1127.4 -1.96046 -2.98832 0
M  V30 12219 C 1127.23 -3.47633 -2.85274 0
M  V30 12220 C 1126 -4.16989 -2.85392 0
M  V30 12221 C 1128.2 -4.42911 -2.61409 0
M  V30 12222 N 1126.18 -5.54854 -2.62699 0
M  V30 12223 C 1127.55 -5.68321 -2.47813 0
M  V30 12224 C 1129.61 -4.32535 -2.46613 0
M  V30 12225 C 1128.31 -6.84532 -2.20927 0
M  V30 12226 C 1130.33 -5.4851 -2.21112 0
M  V30 12227 C 1129.7 -6.729 -2.08291 0
M  V30 12228 H 1125.8 -0.494513 -0.605789 0
M  V30 12229 H 1128.38 -1.64213 -1.04605 0
M  V30 12230 H 1126.55 -1.54324 -3.56425 0
M  V30 12231 H 1128.28 -1.78072 -3.63418 0
M  V30 12232 H 1125.04 -3.68798 -2.97128 0
M  V30 12233 H 1125.46 -6.27395 -2.54371 0
M  V30 12234 H 1130.1 -3.37047 -2.55262 0
M  V30 12235 H 1127.82 -7.80063 -2.11015 0
M  V30 12236 H 1131.41 -5.42389 -2.1049 0
M  V30 12237 H 1130.29 -7.61125 -1.88833 0
M  V30 12238 N 1127.79 1.09952 -1.12909 0
M  V30 12239 C 1129.02 1.8552 -0.909163 0
M  V30 12240 C 1129.43 1.81173 0.545253 0
M  V30 12241 O 1128.77 1.20223 1.38896 0
M  V30 12242 C 1128.83 3.34693 -1.31228 0
M  V30 12243 C 1128.5 3.62794 -2.77902 0
M  V30 12244 C 1129.49 3.58973 -3.76078 0
M  V30 12245 C 1127.18 3.91311 -3.1493 0
M  V30 12246 C 1129.17 3.83271 -5.09296 0
M  V30 12247 C 1126.86 4.15265 -4.48328 0
M  V30 12248 C 1127.86 4.11236 -5.4532 0
M  V30 12249 O 1127.55 4.34576 -6.76313 0
M  V30 12250 H 1127.28 0.59303 -0.324486 0
M  V30 12251 H 1129.83 1.39878 -1.5041 0
M  V30 12252 H 1128.06 3.81016 -0.660573 0
M  V30 12253 H 1129.75 3.9166 -1.06569 0
M  V30 12254 H 1130.52 3.36974 -3.48817 0
M  V30 12255 H 1126.4 3.93575 -2.40041 0
M  V30 12256 H 1129.94 3.80041 -5.84991 0
M  V30 12257 H 1125.84 4.36743 -4.75316 0
M  V30 12258 H 1126.61 4.52065 -6.82334 0
M  V30 12259 N 1129.27 0.921757 1.27833 0
M  V30 12260 C 1130.2 0.433466 2.29441 0
M  V30 12261 C 1131.18 -0.503133 1.62489 0
M  V30 12262 O 1132.36 -0.409156 1.89841 0
M  V30 12263 C 1129.49 -0.320029 3.45822 0
M  V30 12264 C 1128.45 0.528178 4.24728 0
M  V30 12265 C 1127.77 -0.354132 5.33526 0
M  V30 12266 C 1129.07 1.78959 4.90684 0
M  V30 12267 H 1130.77 1.28263 2.70535 0
M  V30 12268 H 1128.31 0.618197 1.30055 0
M  V30 12269 H 1130.27 -0.672526 4.15999 0
M  V30 12270 H 1128.99 -1.20317 3.0363 0
M  V30 12271 H 1127.65 0.863302 3.5629 0
M  V30 12272 H 1127.3 -1.23605 4.87576 0
M  V30 12273 H 1127 0.209855 5.87225 0
M  V30 12274 H 1128.52 -0.702333 6.06547 0
M  V30 12275 H 1129.94 1.50552 5.53179 0
M  V30 12276 H 1128.33 2.29661 5.54415 0
M  V30 12277 H 1129.4 2.51265 4.14721 0
M  V30 12278 N 1130.75 -1.41857 0.686609 0
M  V30 12279 C 1131.99 -2.0097 0.213378 0
M  V30 12280 C 1132.32 -1.54618 -1.1882 0
M  V30 12281 O 1131.59 -0.772916 -1.80008 0
M  V30 12282 H 1130.17 -0.743134 0.0758968 0
M  V30 12283 H 1132.83 -1.73609 0.885763 0
M  V30 12284 H 1131.92 -3.11296 0.223826 0
M  V30 12285 N 1132.22 -0.430739 -1.51599 0
M  V30 12286 C 1133.47 0.139396 -2.01218 0
M  V30 12287 C 1133.79 1.44361 -1.31982 0
M  V30 12288 O 1134.99 2.0963 -1.72533 0
M  V30 12289 C 1133.45 0.298969 -3.58656 0
M  V30 12290 C 1133.06 -0.994424 -4.36824 0
M  V30 12291 C 1134.8 0.82323 -4.16441 0
M  V30 12292 C 1132.71 -0.800855 -5.85952 0
M  V30 12293 H 1131.64 0.0558698 -0.751927 0
M  V30 12294 H 1134.29 -0.559493 -1.74762 0
M  V30 12295 H 1132.67 1.06071 -3.8153 0
M  V30 12296 H 1133.84 -1.76398 -4.257 0
M  V30 12297 H 1132.16 -1.44672 -3.9046 0
M  V30 12298 H 1134.76 0.984434 -5.2556 0
M  V30 12299 H 1135.1 1.80388 -3.75188 0
M  V30 12300 H 1135.63 0.119982 -3.97619 0
M  V30 12301 H 1132.37 -1.75369 -6.31606 0
M  V30 12302 H 1131.89 -0.0709793 -5.99758 0
M  V30 12303 H 1133.57 -0.451459 -6.45423 0
M  V30 12304 N 1133.7 1.56767 -0.161869 0
M  V30 12305 C 1134.93 2.00673 0.491314 0
M  V30 12306 C 1135.34 1.04111 1.5798 0
M  V30 12307 O 1134.68 0.0324889 1.83671 0
M  V30 12308 C 1134.75 3.41011 1.13806 0
M  V30 12309 C 1134.41 4.56595 0.192384 0
M  V30 12310 C 1135.41 5.16591 -0.585671 0
M  V30 12311 C 1133.09 5.02218 0.0909594 0
M  V30 12312 C 1135.09 6.20631 -1.45245 0
M  V30 12313 C 1132.77 6.06109 -0.77941 0
M  V30 12314 C 1133.77 6.65187 -1.54971 0
M  V30 12315 O 1133.46 7.67065 -2.40555 0
M  V30 12316 H 1133.19 0.663174 0.131059 0
M  V30 12317 H 1135.74 2.03775 -0.257896 0
M  V30 12318 H 1133.97 3.34793 1.93521 0
M  V30 12319 H 1135.66 3.68931 1.69248 0
M  V30 12320 H 1136.43 4.82232 -0.517432 0
M  V30 12321 H 1132.31 4.55953 0.680292 0
M  V30 12322 H 1135.85 6.66671 -2.05415 0
M  V30 12323 H 1131.75 6.39894 -0.848887 0
M  V30 12324 H 1132.52 7.84348 -2.33966 0
M  V30 12325 N 1135.18 -0.111886 1.57202 0
M  V30 12326 C 1136.41 -0.836317 1.89791 0
M  V30 12327 C 1136.83 -1.72304 0.754513 0
M  V30 12328 O 1136.19 -1.78889 -0.294672 0
M  V30 12329 C 1136.24 -1.63971 3.21164 0
M  V30 12330 O 1135.34 -2.74726 3.0757 0
M  V30 12331 H 1134.68 -0.230833 0.622585 0
M  V30 12332 H 1137.21 -0.0921478 2.04392 0
M  V30 12333 H 1137.22 -2.02746 3.54059 0
M  V30 12334 H 1135.9 -0.98882 4.03974 0
M  V30 12335 H 1134.47 -2.39101 2.86156 0
M  V30 12336 N 1136.66 -1.52894 -0.382264 0
M  V30 12337 C 1137.91 -1.67933 -1.1244 0
M  V30 12338 C 1138.23 -0.425166 -1.90309 0
M  V30 12339 O 1137.5 0.560557 -1.87709 0
M  V30 12340 H 1136.08 -0.619047 -0.418079 0
M  V30 12341 H 1138.74 -1.90031 -0.432928 0
M  V30 12342 H 1137.84 -2.53285 -1.82355 0
M  V30 12343 N 1138.14 0.641106 -1.43971 0
M  V30 12344 C 1139.07 1.76489 -1.52885 0
M  V30 12345 C 1140.05 1.65742 -0.38258 0
M  V30 12346 O 1141.23 1.84653 -0.601397 0
M  V30 12347 C 1138.36 3.14977 -1.4631 0
M  V30 12348 C 1137.32 3.40502 -2.59311 0
M  V30 12349 C 1136.64 4.78916 -2.37789 0
M  V30 12350 C 1137.94 3.34048 -4.01509 0
M  V30 12351 H 1139.64 1.69286 -2.46946 0
M  V30 12352 H 1137.18 0.813015 -1.18853 0
M  V30 12353 H 1139.14 3.9336 -1.51149 0
M  V30 12354 H 1137.86 3.2294 -0.487599 0
M  V30 12355 H 1136.52 2.64495 -2.53846 0
M  V30 12356 H 1136.17 4.8357 -1.38454 0
M  V30 12357 H 1135.87 4.96954 -3.13545 0
M  V30 12358 H 1137.39 5.59541 -2.4443 0
M  V30 12359 H 1138.81 4.0235 -4.08396 0
M  V30 12360 H 1137.2 3.63622 -4.77388 0
M  V30 12361 H 1138.27 2.32022 -4.25786 0
M  V30 12362 N 1139.62 1.30703 0.880598 0
M  V30 12363 C 1140.84 1.22714 1.6658 0
M  V30 12364 C 1141.26 -0.209303 1.87636 0
M  V30 12365 O 1140.62 -1.13771 1.42697 0
M  V30 12366 C 1140.67 1.95659 3.03974 0
M  V30 12367 O 1140.39 3.33695 2.83865 0
M  V30 12368 C 1141.89 1.9438 3.98411 0
M  V30 12369 H 1139.11 0.424478 0.519673 0
M  V30 12370 H 1141.65 1.72402 1.0999 0
M  V30 12371 H 1139.81 1.49758 3.57283 0
M  V30 12372 H 1140.22 3.70697 3.71058 0
M  V30 12373 H 1141.7 2.4995 4.92168 0
M  V30 12374 H 1142.17 0.923767 4.29375 0
M  V30 12375 H 1142.78 2.40112 3.51036 0
M  V30 12376 N 1141.09 -1.09351 1.1349 0
M  V30 12377 C 1142.34 -1.81812 0.898452 0
M  V30 12378 C 1142.67 -1.85525 -0.573959 0
M  V30 12379 O 1141.95 -1.32403 -1.42477 0
M  V30 12380 C 1142.23 -3.27921 1.48794 0
M  V30 12381 C 1142.08 -3.32476 3.02952 0
M  V30 12382 C 1143.4 -4.24625 1.15678 0
M  V30 12383 H 1140.52 -0.660074 0.327829 0
M  V30 12384 H 1143.16 -1.28091 1.40331 0
M  V30 12385 H 1141.31 -3.738 1.05858 0
M  V30 12386 H 1142.99 -2.94994 3.54649 0
M  V30 12387 H 1141.23 -2.72037 3.37903 0
M  V30 12388 H 1141.9 -4.35409 3.39298 0
M  V30 12389 H 1144.38 -3.87036 1.52781 0
M  V30 12390 H 1143.25 -5.25194 1.59571 0
M  V30 12391 H 1143.51 -4.42044 0.0705933 0
M  V30 12392 N 1142.57 -0.928524 -1.27343 0
M  V30 12393 C 1143.53 -0.43292 -2.25074 0
M  V30 12394 C 1144.53 0.448976 -1.54405 0
M  V30 12395 O 1145.72 0.249939 -1.72398 0
M  V30 12396 C 1142.86 0.377539 -3.38803 0
M  V30 12397 H 1144.05 -1.29642 -2.70431 0
M  V30 12398 H 1141.6 -0.709289 -1.3928 0
M  V30 12399 H 1142.34 1.25982 -2.98829 0
M  V30 12400 H 1142.12 -0.254782 -3.91271 0
M  V30 12401 H 1143.61 0.714634 -4.1144 0
M  V30 12402 N 1144.05 1.41491 -0.694123 0
M  V30 12403 C 1145.28 2.05579 -0.233466 0
M  V30 12404 C 1145.69 1.5223 1.11675 0
M  V30 12405 O 1145.05 0.669937 1.69759 0
M  V30 12406 C 1145.1 3.61047 -0.180967 0
M  V30 12407 O 1144.82 4.12421 -1.47785 0
M  V30 12408 C 1146.32 4.42278 0.300853 0
M  V30 12409 H 1143.54 0.662097 -0.108943 0
M  V30 12410 H 1146.09 1.81288 -0.946299 0
M  V30 12411 H 1144.24 3.84381 0.482678 0
M  V30 12412 H 1144.66 5.06454 -1.364 0
M  V30 12413 H 1146.13 5.51256 0.286464 0
M  V30 12414 H 1146.61 4.18276 1.33948 0
M  V30 12415 H 1147.21 4.24004 -0.331741 0
M  V30 12416 N 1145.53 0.438773 1.51369 0
M  V30 12417 C 1146.77 -0.127401 2.02399 0
M  V30 12418 C 1147.11 -1.42235 1.32223 0
M  V30 12419 O 1146.38 -1.89513 0.437607 0
M  V30 12420 C 1146.66 -0.344673 3.58447 0
M  V30 12421 C 1146.52 0.969027 4.39238 0
M  V30 12422 C 1147.84 -1.11381 4.25773 0
M  V30 12423 H 1144.96 -0.0448281 0.735635 0
M  V30 12424 H 1147.6 0.57805 1.80993 0
M  V30 12425 H 1145.75 -0.945582 3.76817 0
M  V30 12426 H 1147.42 1.60403 4.32514 0
M  V30 12427 H 1145.66 1.57329 4.04265 0
M  V30 12428 H 1146.33 0.771029 5.46589 0
M  V30 12429 H 1148.81 -0.604785 4.11681 0
M  V30 12430 H 1147.69 -1.23459 5.34835 0
M  V30 12431 H 1147.95 -2.14225 3.8673 0
M  V30 12432 N 1147.01 -1.56678 0.170181 0
M  V30 12433 C 1147.94 -2.20916 -0.756213 0
M  V30 12434 C 1148.92 -1.16442 -1.23997 0
M  V30 12435 O 1150.1 -1.44867 -1.29333 0
M  V30 12436 C 1147.23 -2.84901 -1.98617 0
M  V30 12437 C 1146.19 -3.95403 -1.63831 0
M  V30 12438 C 1145.51 -4.46432 -2.94282 0
M  V30 12439 C 1146.81 -5.15051 -0.867195 0
M  V30 12440 H 1148.51 -2.98585 -0.220776 0
M  V30 12441 H 1146.05 -1.43619 -0.104748 0
M  V30 12442 H 1148 -3.28514 -2.63926 0
M  V30 12443 H 1146.73 -2.04598 -2.54572 0
M  V30 12444 H 1145.39 -3.52444 -1.00891 0
M  V30 12445 H 1145.04 -3.62923 -3.48276 0
M  V30 12446 H 1144.74 -5.20979 -2.71762 0
M  V30 12447 H 1146.26 -4.92731 -3.60622 0
M  V30 12448 H 1147.67 -5.55363 -1.42285 0
M  V30 12449 H 1146.07 -5.95507 -0.741065 0
M  V30 12450 H 1147.14 -4.84707 0.136693 0
M  V30 12451 N 1148.48 0.103547 -1.57259 0
M  V30 12452 C 1149.73 0.808576 -1.85656 0
M  V30 12453 C 1150.06 1.79143 -0.757502 0
M  V30 12454 O 1149.31 1.941 0.249723 0
M  V30 12455 C 1149.61 1.57946 -3.20605 0
M  V30 12456 C 1149.28 0.739502 -4.44795 0
M  V30 12457 C 1147.94 0.507921 -4.78512 0
M  V30 12458 C 1150.29 0.155034 -5.20969 0
M  V30 12459 C 1147.62 -0.318129 -5.85837 0
M  V30 12460 C 1149.97 -0.658292 -6.29166 0
M  V30 12461 C 1148.64 -0.900044 -6.61404 0
M  V30 12462 H 1147.91 0.295879 -0.679365 0
M  V30 12463 H 1150.55 0.0703604 -1.91371 0
M  V30 12464 H 1148.86 2.38902 -3.10537 0
M  V30 12465 H 1150.56 2.12921 -3.39803 0
M  V30 12466 H 1147.15 0.930103 -4.18386 0
M  V30 12467 H 1151.33 0.32113 -4.9526 0
M  V30 12468 H 1146.59 -0.514495 -6.09231 0
M  V30 12469 H 1150.76 -1.11809 -6.87366 0
M  V30 12470 H 1148.39 -1.54194 -7.44398 0
M  V30 12471 N 1149.96 1.53094 0.37415 0
M  V30 12472 C 1151.21 1.68527 1.11548 0
M  V30 12473 C 1151.53 0.435253 1.9008 0
M  V30 12474 O 1150.8 -0.550594 1.88003 0
M  V30 12475 H 1149.38 0.621255 0.41479 0
M  V30 12476 H 1152.04 1.90258 0.422844 0
M  V30 12477 H 1151.14 2.54248 1.81009 0
M  V30 12478 N 1151.44 -0.633461 1.44309 0
M  V30 12479 C 1152.69 -1.38902 1.4625 0
M  V30 12480 C 1153 -1.95354 0.0980699 0
M  V30 12481 O 1154.21 -2.715 -0.0049983 0
M  V30 12482 C 1152.66 -2.51477 2.57463 0
M  V30 12483 C 1152.27 -2.01549 4.00103 0
M  V30 12484 C 1154.02 -3.28698 2.68622 0
M  V30 12485 C 1151.92 -3.11452 5.02744 0
M  V30 12486 H 1150.85 -0.521976 0.544112 0
M  V30 12487 H 1153.5 -0.681725 1.70367 0
M  V30 12488 H 1151.89 -3.24771 2.26582 0
M  V30 12489 H 1153.06 -1.35135 4.4054 0
M  V30 12490 H 1151.37 -1.3715 3.93165 0
M  V30 12491 H 1153.97 -4.10624 3.42479 0
M  V30 12492 H 1154.31 -3.78027 1.7436 0
M  V30 12493 H 1154.85 -2.62494 2.98901 0
M  V30 12494 H 1151.59 -2.6707 5.98627 0
M  V30 12495 H 1151.11 -3.76514 4.66902 0
M  V30 12496 H 1152.79 -3.76265 5.2634 0
M  V30 12497 N 1152.92 -1.31168 -0.873655 0
M  V30 12498 C 1153.88 -1.18471 -1.96207 0
M  V30 12499 C 1154.88 -0.112814 -1.60404 0
M  V30 12500 O 1156.07 -0.3618 -1.70401 0
M  V30 12501 C 1153.2 -0.817662 -3.30949 0
M  V30 12502 H 1154.4 -2.1518 -2.08896 0
M  V30 12503 H 1151.95 -1.14727 -1.06149 0
M  V30 12504 H 1152.68 0.148428 -3.2396 0
M  V30 12505 H 1152.47 -1.59244 -3.58307 0
M  V30 12506 H 1153.96 -0.75262 -4.10762 0
M  V30 12507 N 1154.4 1.08748 -1.14068 0
M  V30 12508 C 1155.81 1.33125 -0.880341 0
M  V30 12509 C 1156.01 1.9569 0.480396 0
M  V30 12510 O 1155.07 2.2077 1.22543 0
M  V30 12511 C 1156.38 2.23618 -2.01036 0
M  V30 12512 C 1157.93 2.37108 -2.04326 0
M  V30 12513 C 1158.4 3.30941 -3.1661 0
M  V30 12514 N 1159.9 3.38517 -3.16166 0
M  V30 12515 C 1160.63 4.11142 -3.99687 0
M  V30 12516 N 1160.13 4.86505 -4.93239 0
M  V30 12517 N 1161.92 4.06938 -3.87761 0
M  V30 12518 H 1154.07 0.665164 -2.01716 0
M  V30 12519 H 1156.33 0.355612 -0.878774 0
M  V30 12520 H 1156.04 1.84885 -2.99183 0
M  V30 12521 H 1155.91 3.24056 -1.93049 0
M  V30 12522 H 1158.3 2.75101 -1.06787 0
M  V30 12523 H 1158.38 1.36424 -2.16384 0
M  V30 12524 H 1158.03 2.93669 -4.14392 0
M  V30 12525 H 1157.96 4.31545 -3.01789 0
M  V30 12526 H 1160.45 2.84786 -2.48405 0
M  V30 12527 H 1160.76 5.39372 -5.53441 0
M  V30 12528 H 1159.1 4.8557 -4.9724 0
M  V30 12529 H 1162.3 3.47166 -3.13996 0
M  V30 12530 H 1162.47 4.63275 -4.53079 0
M  V30 12531 N 1155.87 0.935264 1.26849 0
M  V30 12532 C 1157.1 0.595704 1.98661 0
M  V30 12533 C 1157.52 -0.821001 1.69237 0
M  V30 12534 O 1156.88 -1.55211 0.936982 0
M  V30 12535 C 1156.93 0.837275 3.50745 0
M  V30 12536 O 1156.03 -0.0934914 4.12294 0
M  V30 12537 H 1155.38 0.228512 0.623441 0
M  V30 12538 H 1157.91 1.25658 1.61466 0
M  V30 12539 H 1157.92 0.755827 4.00938 0
M  V30 12540 H 1156.59 1.86993 3.71492 0
M  V30 12541 H 1155.17 0.0385124 3.7288 0
M  V30 12542 N 1157.35 -1.41121 0.701616 0
M  V30 12543 C 1158.28 -2.33436 0.0545974 0
M  V30 12544 C 1159.26 -1.52144 -0.760662 0
M  V30 12545 O 1160.45 -1.80661 -0.712414 0
M  V30 12546 C 1157.58 -3.36015 -0.878117 0
M  V30 12547 C 1156.53 -4.27664 -0.169511 0
M  V30 12548 C 1155.86 -5.20666 -1.21699 0
M  V30 12549 C 1157.16 -5.13254 0.967859 0
M  V30 12550 H 1158.85 -2.87791 0.825637 0
M  V30 12551 H 1156.4 -1.38377 0.398484 0
M  V30 12552 H 1158.35 -3.99526 -1.34004 0
M  V30 12553 H 1157.08 -2.80024 -1.68089 0
M  V30 12554 H 1155.73 -3.65586 0.272441 0
M  V30 12555 H 1155.38 -4.60987 -2.01246 0
M  V30 12556 H 1155.08 -5.82822 -0.747836 0
M  V30 12557 H 1156.61 -5.87053 -1.6793 0
M  V30 12558 H 1158.02 -5.70298 0.585944 0
M  V30 12559 H 1156.42 -5.84381 1.3645 0
M  V30 12560 H 1157.49 -4.5006 1.80483 0
M  V30 12561 N 1158.83 -0.446794 -1.51134 0
M  V30 12562 C 1159.76 0.350229 -2.30858 0
M  V30 12563 C 1160.74 1.0125 -1.36684 0
M  V30 12564 O 1161.93 1.01433 -1.65605 0
M  V30 12565 C 1159.06 1.4464 -3.15748 0
M  V30 12566 C 1158.01 0.907102 -4.18277 0
M  V30 12567 C 1157.34 2.09974 -4.91747 0
M  V30 12568 C 1158.64 -0.0649758 -5.2226 0
M  V30 12569 H 1160.33 -0.315105 -2.97737 0
M  V30 12570 H 1157.88 -0.152985 -1.43185 0
M  V30 12571 H 1159.83 2.01127 -3.70305 0
M  V30 12572 H 1158.55 2.14016 -2.46708 0
M  V30 12573 H 1157.21 0.364382 -3.64785 0
M  V30 12574 H 1156.86 2.77991 -4.19202 0
M  V30 12575 H 1156.56 1.74523 -5.61084 0
M  V30 12576 H 1158.08 2.66996 -5.49131 0
M  V30 12577 H 1159.5 0.4099 -5.71833 0
M  V30 12578 H 1157.9 -0.332529 -5.99178 0
M  V30 12579 H 1158.97 -0.998681 -4.74504 0
M  V30 12580 N 1160.31 1.56586 -0.178487 0
M  V30 12581 C 1161.55 1.9739 0.465306 0
M  V30 12582 C 1161.89 1.06474 1.6241 0
M  V30 12583 O 1161.16 0.113316 1.9417 0
M  V30 12584 C 1161.45 3.47577 0.941408 0
M  V30 12585 C 1161.3 4.49271 -0.218054 0
M  V30 12586 C 1162.62 4.01038 1.81263 0
M  V30 12587 H 1159.74 0.717676 0.167663 0
M  V30 12588 H 1162.38 1.88128 -0.266067 0
M  V30 12589 H 1160.53 3.556 1.56463 0
M  V30 12590 H 1162.2 4.53301 -0.855332 0
M  V30 12591 H 1160.44 4.24936 -0.872441 0
M  V30 12592 H 1161.11 5.51776 0.157315 0
M  V30 12593 H 1163.59 3.9569 1.28718 0
M  V30 12594 H 1162.47 5.06526 2.11476 0
M  V30 12595 H 1162.73 3.45288 2.76096 0
M  V30 12596 N 1161.79 -0.095206 1.57312 0
M  V30 12597 C 1163.03 -0.798719 1.86083 0
M  V30 12598 C 1163.36 -1.78739 0.766991 0
M  V30 12599 O 1162.62 -1.9423 -0.239425 0
M  V30 12600 C 1162.92 -1.56244 3.21438 0
M  V30 12601 C 1162.58 -0.715903 4.4518 0
M  V30 12602 C 1161.24 -0.482537 4.78774 0
M  V30 12603 C 1163.6 -0.127404 5.21044 0
M  V30 12604 C 1160.92 0.349193 5.8566 0
M  V30 12605 C 1163.28 0.691649 6.28808 0
M  V30 12606 C 1161.94 0.935107 6.60918 0
M  V30 12607 H 1161.21 -0.292272 0.680924 0
M  V30 12608 H 1163.86 -0.0602105 1.91405 0
M  V30 12609 H 1162.16 -2.37251 3.118 0
M  V30 12610 H 1163.86 -2.11116 3.40927 0
M  V30 12611 H 1160.45 -0.907902 4.18874 0
M  V30 12612 H 1164.63 -0.29486 4.95423 0
M  V30 12613 H 1159.89 0.546797 6.0895 0
M  V30 12614 H 1164.06 1.15452 6.86763 0
M  V30 12615 H 1161.69 1.58139 7.4357 0
M  V30 12616 N 1163.26 -1.53291 -0.366026 0
M  V30 12617 C 1164.49 -1.73108 -1.1277 0
M  V30 12618 C 1164.9 -0.459662 -1.83531 0
M  V30 12619 O 1164.25 0.577151 -1.74398 0
M  V30 12620 C 1164.31 -2.84137 -2.20242 0
M  V30 12621 C 1163.97 -4.24503 -1.69252 0
M  V30 12622 C 1164.97 -5.06866 -1.15684 0
M  V30 12623 C 1162.65 -4.70912 -1.74778 0
M  V30 12624 C 1164.65 -6.33728 -0.683191 0
M  V30 12625 C 1162.33 -5.97752 -1.27025 0
M  V30 12626 C 1163.33 -6.78992 -0.738858 0
M  V30 12627 O 1163.02 -8.03452 -0.268375 0
M  V30 12628 H 1162.75 -0.582439 -0.343134 0
M  V30 12629 H 1165.31 -2.00828 -0.430969 0
M  V30 12630 H 1163.54 -2.5189 -2.93408 0
M  V30 12631 H 1165.23 -2.92136 -2.818 0
M  V30 12632 H 1165.99 -4.72185 -1.10753 0
M  V30 12633 H 1161.87 -4.07751 -2.15081 0
M  V30 12634 H 1165.41 -6.97086 -0.267746 0
M  V30 12635 H 1161.31 -6.31933 -1.31649 0
M  V30 12636 H 1162.08 -8.17581 -0.387745 0
M  V30 12637 N 1164.74 0.6258 -1.44643 0
M  V30 12638 C 1165.99 1.3873 -1.47925 0
M  V30 12639 C 1166.32 1.93868 -0.113469 0
M  V30 12640 O 1165.6 1.73976 0.869639 0
M  V30 12641 C 1165.88 2.54867 -2.54391 0
M  V30 12642 C 1165.73 2.05044 -4.00346 0
M  V30 12643 C 1167.05 3.57043 -2.57309 0
M  V30 12644 H 1164.17 0.503087 -0.538584 0
M  V30 12645 H 1166.81 0.707102 -1.76352 0
M  V30 12646 H 1164.96 3.12894 -2.30281 0
M  V30 12647 H 1166.63 1.51807 -4.35606 0
M  V30 12648 H 1164.88 1.36185 -4.11869 0
M  V30 12649 H 1165.55 2.88681 -4.70497 0
M  V30 12650 H 1168.02 3.08826 -2.78865 0
M  V30 12651 H 1166.9 4.35818 -3.33698 0
M  V30 12652 H 1167.16 4.11464 -1.61708 0
M  V30 12653 N 1166.22 1.31629 0.866686 0
M  V30 12654 C 1167.15 1.22151 1.99001 0
M  V30 12655 C 1168.13 0.107972 1.69757 0
M  V30 12656 O 1169.32 0.293125 1.91975 0
M  V30 12657 C 1166.45 0.93144 3.34577 0
M  V30 12658 C 1165.4 2.0049 3.78137 0
M  V30 12659 C 1164.73 1.56747 5.11209 0
M  V30 12660 C 1166.03 3.41844 3.94892 0
M  V30 12661 H 1167.72 2.16132 2.0719 0
M  V30 12662 H 1165.27 1.04051 0.995463 0
M  V30 12663 H 1167.22 0.851719 4.12703 0
M  V30 12664 H 1165.94 -0.0440289 3.2657 0
M  V30 12665 H 1164.6 2.07457 3.02253 0
M  V30 12666 H 1164.25 0.579767 4.99648 0
M  V30 12667 H 1163.95 2.28562 5.41326 0
M  V30 12668 H 1165.47 1.50188 5.91841 0
M  V30 12669 H 1166.89 3.37534 4.63405 0
M  V30 12670 H 1165.29 4.11905 4.36411 0
M  V30 12671 H 1166.36 3.82389 2.98172 0
M  V30 12672 N 1167.7 -1.08142 1.14644 0
M  V30 12673 C 1168.95 -1.80849 0.917685 0
M  V30 12674 C 1169.28 -1.86123 -0.554249 0
M  V30 12675 O 1168.55 -1.33907 -1.41065 0
M  V30 12676 C 1168.84 -3.26325 1.52264 0
M  V30 12677 C 1168.69 -3.29244 3.06461 0
M  V30 12678 C 1170.01 -4.23375 1.20175 0
M  V30 12679 H 1167.13 -0.656559 0.334812 0
M  V30 12680 H 1169.77 -1.26595 1.41682 0
M  V30 12681 H 1167.92 -3.72656 1.09817 0
M  V30 12682 H 1169.59 -2.91216 3.57758 0
M  V30 12683 H 1167.83 -2.68438 3.40769 0
M  V30 12684 H 1168.51 -4.31785 3.43897 0
M  V30 12685 H 1170.98 -3.85394 1.56877 0
M  V30 12686 H 1169.86 -5.23472 1.65132 0
M  V30 12687 H 1170.12 -4.41944 0.117474 0
M  V30 12688 N 1169.18 -0.941978 -1.26351 0
M  V30 12689 C 1170.13 -0.443011 -2.28342 0
M  V30 12690 C 1171.12 0.48013 -1.62453 0
M  V30 12691 O 1172.33 0.358255 -1.76399 0
M  V30 12692 H 1168.7 -0.124728 -0.741584 0
M  V30 12693 H 1170.67 -1.31573 -2.67827 0
M  V30 12694 C 1169.42 0.275675 -3.46605 0
M  V30 12695 H 1168.74 -0.425504 -3.97529 0
M  V30 12696 H 1170.18 0.589012 -4.19889 0
M  V30 12697 C 1168.64 1.49376 -3.01974 0
M  V30 12698 O 1169.17 2.59203 -3.06883 0
M  V30 12699 N 1167.38 1.35061 -2.57307 0
M  V30 12700 H 1166.93 0.457045 -2.53513 0
M  V30 12701 H 1166.88 2.16681 -2.27809 0
M  V30 12702 N 1170.66 1.40747 -0.709091 0
M  V30 12703 C 1171.88 2.05841 -0.253816 0
M  V30 12704 C 1172.31 1.53056 1.09341 0
M  V30 12705 O 1171.66 0.663181 1.68735 0
M  V30 12706 C 1171.71 3.59822 -0.236699 0
M  V30 12707 O 1170.82 4.04876 0.784168 0
M  V30 12708 H 1170.16 0.65295 -0.120631 0
M  V30 12709 H 1172.69 1.80266 -0.967749 0
M  V30 12710 H 1172.7 4.07936 -0.0721616 0
M  V30 12711 H 1171.37 3.97608 -1.21988 0
M  V30 12712 H 1169.95 3.68237 0.587884 0
M  V30 12713 N 1172.13 0.454803 1.50895 0
M  V30 12714 C 1173.36 -0.106259 2.07128 0
M  V30 12715 C 1173.78 -1.3418 1.31823 0
M  V30 12716 O 1173.14 -1.77667 0.361147 0
M  V30 12717 C 1173.19 -0.389609 3.58489 0
M  V30 12718 O 1172.29 -1.47305 3.85195 0
M  V30 12719 H 1171.63 0.00580588 0.663975 0
M  V30 12720 H 1174.16 0.641163 1.94294 0
M  V30 12721 H 1174.17 -0.634934 4.03029 0
M  V30 12722 H 1172.85 0.513338 4.1272 0
M  V30 12723 H 1171.43 -1.21631 3.52506 0
M  V30 12724 N 1173.61 -1.56489 0.186789 0
M  V30 12725 C 1174.54 -2.15911 -0.769104 0
M  V30 12726 C 1175.56 -1.11872 -1.18273 0
M  V30 12727 O 1176.75 -1.38999 -1.1199 0
M  V30 12728 C 1173.85 -2.69957 -2.04882 0
M  V30 12729 C 1173.02 -3.98812 -1.79631 0
M  V30 12730 C 1172.08 -4.37767 -2.9197 0
M  V30 12731 O 1171.1 -5.0535 -2.61935 0
M  V30 12732 N 1172.31 -4.0059 -4.20128 0
M  V30 12733 H 1175.07 -2.98561 -0.261007 0
M  V30 12734 H 1172.63 -1.61899 0.00453357 0
M  V30 12735 H 1174.62 -2.93006 -2.79158 0
M  V30 12736 H 1173.19 -1.91808 -2.46837 0
M  V30 12737 H 1172.41 -3.8398 -0.891776 0
M  V30 12738 H 1173.7 -4.82939 -1.60148 0
M  V30 12739 H 1173.1 -3.46213 -4.47385 0
M  V30 12740 H 1171.66 -4.28608 -4.91059 0
M  V30 12741 N 1175.09 0.086862 -1.5736 0
M  V30 12742 C 1176.32 0.802167 -1.90717 0
M  V30 12743 C 1176.73 1.71875 -0.781304 0
M  V30 12744 O 1176.09 1.80831 0.246255 0
M  V30 12745 C 1176.14 1.60858 -3.23739 0
M  V30 12746 O 1175.86 0.728851 -4.31995 0
M  V30 12747 C 1177.36 2.42621 -3.71012 0
M  V30 12748 H 1174.58 0.228914 -0.630745 0
M  V30 12749 H 1177.13 0.061634 -2.04407 0
M  V30 12750 H 1175.28 2.30153 -3.11622 0
M  V30 12751 H 1175.7 1.2882 -5.08435 0
M  V30 12752 H 1177.17 2.94683 -4.66761 0
M  V30 12753 H 1177.65 3.21462 -2.99264 0
M  V30 12754 H 1178.25 1.78509 -3.86024 0
M  V30 12755 N 1176.57 1.53483 0.357892 0
M  V30 12756 C 1177.5 1.83444 1.44466 0
M  V30 12757 C 1178.48 0.688486 1.55544 0
M  V30 12758 O 1179.66 0.93906 1.69986 0
M  V30 12759 C 1176.79 2.03122 2.81707 0
M  V30 12760 C 1175.75 3.1891 2.85448 0
M  V30 12761 C 1175.07 3.23895 4.25436 0
M  V30 12762 C 1176.37 4.57334 2.52275 0
M  V30 12763 H 1178.07 2.74456 1.19642 0
M  V30 12764 H 1175.61 1.3206 0.574112 0
M  V30 12765 H 1177.57 2.22666 3.57768 0
M  V30 12766 H 1176.29 1.08827 3.07935 0
M  V30 12767 H 1174.95 2.99199 2.11838 0
M  V30 12768 H 1174.6 2.27223 4.48753 0
M  V30 12769 H 1174.3 4.01694 4.28854 0
M  V30 12770 H 1175.82 3.45632 5.0336 0
M  V30 12771 H 1177.24 4.76988 3.1805 0
M  V30 12772 H 1175.63 5.37431 2.66998 0
M  V30 12773 H 1176.7 4.61921 1.47501 0
M  V30 12774 N 1178.05 -0.61812 1.44973 0
M  V30 12775 C 1179 -1.72346 1.49268 0
M  V30 12776 C 1179.98 -1.56889 0.357042 0
M  V30 12777 O 1181.17 -1.66404 0.603212 0
M  V30 12778 C 1178.3 -3.11073 1.4522 0
M  V30 12779 C 1177.39 -3.31953 2.63947 0
M  V30 12780 N 1177.78 -3.23141 3.89119 0
M  V30 12781 C 1176.08 -3.62791 2.59419 0
M  V30 12782 C 1176.78 -3.45066 4.683 0
M  V30 12783 N 1175.75 -3.68558 3.99582 0
M  V30 12784 H 1179.55 -1.6401 2.43881 0
M  V30 12785 H 1177.07 -0.821029 1.40117 0
M  V30 12786 H 1179.07 -3.90356 1.46381 0
M  V30 12787 H 1177.73 -3.20565 0.516555 0
M  V30 12788 H 1178.74 -3.01773 4.20896 0
M  V30 12789 H 1175.41 -3.79185 1.74713 0
M  V30 12790 H 1176.8 -3.43735 5.77318 0
M  V30 12791 N 1179.52 -1.32087 -0.859693 0
M  V30 12792 C 1180.47 -1.20549 -1.98924 0
M  V30 12793 C 1181.47 -0.111422 -1.69033 0
M  V30 12794 O 1182.67 -0.27401 -1.77902 0
M  V30 12795 H 1179.05 -0.373538 -0.652667 0
M  V30 12796 H 1181.02 -2.16091 -2.05785 0
M  V30 12797 C 1179.77 -0.940226 -3.34746 0
M  V30 12798 H 1179.09 -1.77427 -3.58273 0
M  V30 12799 H 1180.53 -0.899712 -4.14344 0
M  V30 12800 C 1178.99 0.357042 -3.35003 0
M  V30 12801 O 1179.52 1.37054 -3.77596 0
M  V30 12802 N 1177.72 0.37723 -2.88141 0
M  V30 12803 H 1177.27 -0.448051 -2.53674 0
M  V30 12804 H 1177.23 1.24509 -2.88695 0
M  V30 12805 N 1181 1.07532 -1.15215 0
M  V30 12806 C 1181.95 2.14687 -0.847243 0
M  V30 12807 C 1182.92 1.64903 0.199043 0
M  V30 12808 O 1184.1 1.90682 0.0669986 0
M  V30 12809 C 1181.24 3.43414 -0.340673 0
M  V30 12810 C 1180.36 4.06999 -1.44831 0
M  V30 12811 C 1179.49 5.23554 -0.898059 0
M  V30 12812 C 1178.53 5.79097 -1.98276 0
M  V30 12813 N 1177.67 6.86985 -1.44902 0
M  V30 12814 H 1182.51 2.4011 -1.76498 0
M  V30 12815 H 1180.04 1.17823 -0.880689 0
M  V30 12816 H 1182 4.1719 -0.0286956 0
M  V30 12817 H 1180.63 3.18249 0.540144 0
M  V30 12818 H 1179.68 3.30895 -1.87651 0
M  V30 12819 H 1181 4.44289 -2.26735 0
M  V30 12820 H 1180.15 6.04305 -0.538514 0
M  V30 12821 H 1178.89 4.87676 -0.0481752 0
M  V30 12822 H 1177.89 4.96992 -2.35115 0
M  V30 12823 H 1179.12 6.1703 -2.83639 0
M  V30 12824 H 1177.07 6.5305 -0.621468 0
M  V30 12825 H 1176.98 7.23149 -2.20434 0
M  V30 12826 H 1178.25 7.71446 -1.11767 0
M  V30 12827 N 1182.48 0.948665 1.2585 0
M  V30 12828 C 1183.41 0.408398 2.24516 0
M  V30 12829 C 1184.39 -0.506954 1.54495 0
M  V30 12830 O 1185.58 -0.442695 1.83228 0
M  V30 12831 C 1182.7 -0.41241 3.3618 0
M  V30 12832 C 1181.75 0.442483 4.24198 0
M  V30 12833 S 1182.58 1.87106 5.01749 0
M  V30 12834 C 1183.74 1.05851 6.16884 0
M  V30 12835 H 1183.97 1.24458 2.69995 0
M  V30 12836 H 1181.5 0.752309 1.34832 0
M  V30 12837 H 1183.46 -0.880064 4.00955 0
M  V30 12838 H 1182.12 -1.22335 2.89297 0
M  V30 12839 H 1181.32 -0.186767 5.03654 0
M  V30 12840 H 1180.92 0.845113 3.64327 0
M  V30 12841 H 1183.21 0.304329 6.76816 0
M  V30 12842 H 1184.15 1.82678 6.8413 0
M  V30 12843 H 1184.56 0.591269 5.61395 0
M  V30 12844 N 1183.96 -1.40369 0.716545 0
M  V30 12845 C 1185.21 -2.00869 0.256466 0
M  V30 12846 C 1185.53 -1.56816 -1.15061 0
M  V30 12847 O 1184.79 -0.779696 -1.79497 0
M  V30 12848 C 1185.09 -3.56257 0.285583 0
M  V30 12849 C 1184.75 -4.19897 1.64309 0
M  V30 12850 C 1183.42 -4.36994 2.01469 0
M  V30 12851 C 1185.77 -4.55385 2.53524 0
M  V30 12852 C 1183.1 -4.86862 3.27387 0
M  V30 12853 C 1185.45 -5.06653 3.78795 0
M  V30 12854 C 1184.11 -5.21959 4.16071 0
M  V30 12855 H 1183.38 -0.735033 0.0938475 0
M  V30 12856 H 1186.03 -1.67966 0.919765 0
M  V30 12857 H 1184.33 -3.89075 -0.461287 0
M  V30 12858 H 1186.03 -4.00903 -0.0882496 0
M  V30 12859 H 1182.62 -4.06978 1.34413 0
M  V30 12860 H 1186.8 -4.41811 2.2609 0
M  V30 12861 H 1182.06 -4.96897 3.56235 0
M  V30 12862 H 1186.23 -5.33089 4.48095 0
M  V30 12863 H 1183.86 -5.60362 5.1371 0
M  V30 12864 N 1185.44 -0.462799 -1.50652 0
M  V30 12865 C 1186.35 0.341191 -2.32106 0
M  V30 12866 C 1187.36 1.00384 -1.42123 0
M  V30 12867 O 1188.54 0.993635 -1.75182 0
M  V30 12868 C 1185.6 1.41356 -3.16575 0
M  V30 12869 C 1184.66 0.768375 -4.22368 0
M  V30 12870 C 1183.9 1.78964 -5.028 0
M  V30 12871 O 1184.12 3.01515 -4.84195 0
M  V30 12872 O 1183.05 1.36606 -5.86193 0
M  V30 12873 H 1186.88 -0.324482 -3.01962 0
M  V30 12874 H 1184.47 -0.224807 -1.47699 0
M  V30 12875 H 1186.35 2.0349 -3.69012 0
M  V30 12876 H 1185.02 2.06285 -2.49456 0
M  V30 12877 H 1183.93 0.108297 -3.73943 0
M  V30 12878 H 1185.26 0.162164 -4.91933 0
M  V30 12879 N 1186.91 1.56388 -0.195085 0
M  V30 12880 C 1188.14 2.02406 0.452399 0
M  V30 12881 C 1188.56 1.07432 1.54402 0
M  V30 12882 O 1187.92 0.0578246 1.81208 0
M  V30 12883 C 1187.97 3.46864 0.985778 0
M  V30 12884 O 1187.07 3.55007 2.09867 0
M  V30 12885 H 1186.42 0.65553 0.105719 0
M  V30 12886 H 1188.95 2.02299 -0.30596 0
M  V30 12887 H 1188.96 3.86655 1.30238 0
M  V30 12888 H 1187.63 4.15481 0.186662 0
M  V30 12889 H 1186.21 3.2709 1.79071 0
M  V30 12890 N 1188.39 -0.0785156 1.57404 0
M  V30 12891 C 1189.64 -0.777722 1.86103 0
M  V30 12892 C 1189.95 -1.79079 0.786771 0
M  V30 12893 O 1191.16 -2.53908 0.961393 0
M  V30 12894 C 1189.62 -1.43407 3.30095 0
M  V30 12895 C 1189.22 -0.459912 4.45633 0
M  V30 12896 C 1190.97 -2.11603 3.68 0
M  V30 12897 C 1188.88 -1.12179 5.80663 0
M  V30 12898 H 1187.81 -0.294205 0.694233 0
M  V30 12899 H 1190.46 -0.0309003 1.83474 0
M  V30 12900 H 1188.84 -2.22892 3.27315 0
M  V30 12901 H 1190.01 0.304642 4.59792 0
M  V30 12902 H 1188.33 0.117242 4.16235 0
M  V30 12903 H 1190.92 -2.61887 4.66175 0
M  V30 12904 H 1191.27 -2.91244 2.9746 0
M  V30 12905 H 1191.8 -1.38958 3.72741 0
M  V30 12906 H 1188.54 -0.365842 6.54478 0
M  V30 12907 H 1188.06 -1.85737 5.70317 0
M  V30 12908 H 1189.74 -1.64355 6.25777 0
M  V30 12909 N 1189.87 -1.5367 -0.349747 0
M  V30 12910 C 1190.8 -1.84208 -1.43492 0
M  V30 12911 C 1191.78 -0.696725 -1.55177 0
M  V30 12912 O 1192.97 -0.948061 -1.69486 0
M  V30 12913 C 1190.1 -2.04613 -2.80625 0
M  V30 12914 C 1189.05 -3.20419 -2.83753 0
M  V30 12915 C 1188.38 -3.26147 -4.23713 0
M  V30 12916 C 1189.68 -4.58666 -2.49846 0
M  V30 12917 H 1191.37 -2.75087 -1.18185 0
M  V30 12918 H 1188.92 -1.32363 -0.567101 0
M  V30 12919 H 1190.87 -2.2456 -3.56582 0
M  V30 12920 H 1189.59 -1.10459 -3.07354 0
M  V30 12921 H 1188.25 -3.00318 -2.10249 0
M  V30 12922 H 1187.9 -2.29599 -4.47541 0
M  V30 12923 H 1187.6 -4.03963 -4.26717 0
M  V30 12924 H 1189.12 -3.48296 -5.0152 0
M  V30 12925 H 1190.54 -4.78668 -3.15516 0
M  V30 12926 H 1188.94 -5.3884 -2.64144 0
M  V30 12927 H 1190.01 -4.62697 -1.4505 0
M  V30 12928 N 1191.35 0.610423 -1.45298 0
M  V30 12929 C 1192.3 1.7213 -1.53753 0
M  V30 12930 C 1193.27 1.61609 -0.383632 0
M  V30 12931 O 1194.45 1.8123 -0.596694 0
M  V30 12932 C 1191.59 3.10433 -1.50749 0
M  V30 12933 C 1190.7 3.3178 -2.76669 0
M  V30 12934 C 1189.84 4.60173 -2.65356 0
M  V30 12935 C 1188.88 4.74769 -3.86343 0
M  V30 12936 N 1188.01 5.94459 -3.73581 0
M  V30 12937 H 1192.85 1.64239 -2.48655 0
M  V30 12938 H 1190.39 0.800879 -1.23387 0
M  V30 12939 H 1192.35 3.90446 -1.46996 0
M  V30 12940 H 1190.98 3.17288 -0.593998 0
M  V30 12941 H 1190.03 2.45563 -2.90522 0
M  V30 12942 H 1191.34 3.38439 -3.66416 0
M  V30 12943 H 1190.5 5.48377 -2.59553 0
M  V30 12944 H 1189.24 4.55907 -1.73204 0
M  V30 12945 H 1188.24 3.8499 -3.92509 0
M  V30 12946 H 1189.47 4.80834 -4.79557 0
M  V30 12947 H 1187.41 5.91243 -2.84196 0
M  V30 12948 H 1187.33 6.02265 -4.5696 0
M  V30 12949 H 1188.6 6.85168 -3.71705 0
M  V30 12950 N 1192.83 1.32541 0.852676 0
M  V30 12951 C 1193.79 1.21578 1.94297 0
M  V30 12952 C 1194.79 0.138318 1.60204 0
M  V30 12953 O 1195.98 0.388864 1.69804 0
M  V30 12954 C 1193.11 0.870209 3.29606 0
M  V30 12955 H 1194.3 2.18476 2.05446 0
M  V30 12956 H 1191.86 1.16401 1.0431 0
M  V30 12957 H 1192.59 -0.0968698 3.24155 0
M  V30 12958 H 1192.38 1.64924 3.55728 0
M  V30 12959 H 1193.87 0.817874 4.09513 0
M  V30 12960 N 1194.3 -1.0692 1.15784 0
M  V30 12961 C 1195.72 -1.61069 0.944123 0
M  V30 12962 C 1196.07 -1.8936 -0.513522 0
M  V30 12963 O 1195.19 -1.66232 -1.38549 0
M  V30 12964 C 1195.79 -2.9263 1.70743 0
M  V30 12965 C 1194.35 -3.43505 1.53887 0
M  V30 12966 C 1193.49 -2.17495 1.72021 0
M  V30 12967 H 1196.44 -0.89951 1.30746 0
M  V30 12968 H 1196.46 -3.61757 1.17951 0
M  V30 12969 H 1195.98 -2.72007 2.76828 0
M  V30 12970 H 1194.08 -3.69201 0.502153 0
M  V30 12971 H 1194.19 -4.19254 2.31868 0
M  V30 12972 H 1192.55 -2.27407 1.1471 0
M  V30 12973 H 1193.34 -1.99362 2.79481 0
M  V30 12974 N 1195.78 -0.955326 -1.25345 0
M  V30 12975 C 1197.03 -0.611388 -1.93365 0
M  V30 12976 C 1197.36 0.84953 -1.74633 0
M  V30 12977 O 1196.64 1.60962 -1.09185 0
M  V30 12978 C 1196.92 -0.971732 -3.46741 0
M  V30 12979 C 1196.77 -2.48843 -3.74696 0
M  V30 12980 C 1198.09 -0.497295 -4.37281 0
M  V30 12981 H 1195.21 -0.223591 -0.702265 0
M  V30 12982 H 1197.85 -1.1921 -1.47949 0
M  V30 12983 H 1196 -0.477568 -3.85554 0
M  V30 12984 H 1197.67 -3.05641 -3.45516 0
M  V30 12985 H 1195.92 -2.92582 -3.20278 0
M  V30 12986 H 1196.59 -2.69107 -4.8196 0
M  V30 12987 H 1199.06 -0.921196 -4.05775 0
M  V30 12988 H 1197.94 -0.778113 -5.43357 0
M  V30 12989 H 1198.2 0.602743 -4.37972 0
M  V30 12990 N 1197.26 1.39987 -0.723979 0
M  V30 12991 C 1198.19 2.3332 -0.0917282 0
M  V30 12992 C 1199.17 1.53335 0.736361 0
M  V30 12993 O 1200.36 1.81771 0.683582 0
M  V30 12994 C 1197.49 3.3737 0.824549 0
M  V30 12995 C 1196.44 4.2788 0.101452 0
M  V30 12996 C 1195.77 5.22536 1.13401 0
M  V30 12997 C 1197.07 5.11649 -1.04939 0
M  V30 12998 H 1198.76 2.86441 -0.871318 0
M  V30 12999 H 1196.31 1.37725 -0.420448 0
M  V30 13000 H 1198.26 4.01607 1.27631 0
M  V30 13001 H 1196.98 2.82663 1.63613 0
M  V30 13002 H 1195.64 3.65107 -0.330569 0
M  V30 13003 H 1195.29 4.64131 1.93886 0
M  V30 13004 H 1194.99 5.83938 0.65502 0
M  V30 13005 H 1196.52 5.89651 1.58569 0
M  V30 13006 H 1197.93 5.69293 -0.6766 0
M  V30 13007 H 1196.33 5.82137 -1.45729 0
M  V30 13008 H 1197.4 4.47132 -1.8762 0
M  V30 13009 N 1198.74 0.470782 1.50404 0
M  V30 13010 C 1199.99 -0.084316 2.02324 0
M  V30 13011 C 1200.31 -1.39749 1.35279 0
M  V30 13012 O 1199.57 -1.90037 0.467364 0
M  V30 13013 C 1199.87 -0.316419 3.55997 0
M  V30 13014 C 1199.53 0.915017 4.41518 0
M  V30 13015 C 1198.2 1.25265 4.6461 0
M  V30 13016 C 1200.55 1.73494 4.91477 0
M  V30 13017 C 1197.88 2.41027 5.34905 0
M  V30 13018 C 1200.23 2.88384 5.63043 0
M  V30 13019 C 1198.89 3.22562 5.84389 0
M  V30 13020 H 1198.16 -0.0308534 0.740357 0
M  V30 13021 H 1200.81 0.624799 1.81021 0
M  V30 13022 H 1199.11 -1.10778 3.75813 0
M  V30 13023 H 1200.81 -0.759882 3.93734 0
M  V30 13024 H 1197.4 0.641977 4.23765 0
M  V30 13025 H 1201.59 1.48728 4.73491 0
M  V30 13026 H 1196.84 2.67781 5.49639 0
M  V30 13027 H 1201.02 3.52264 6.00735 0
M  V30 13028 H 1198.64 4.1237 6.38635 0
M  V30 13029 N 1200.22 -1.56282 0.203376 0
M  V30 13030 C 1201.46 -1.97812 -0.433202 0
M  V30 13031 C 1201.79 -1.09052 -1.61053 0
M  V30 13032 O 1201.05 -0.131417 -1.95258 0
M  V30 13033 C 1201.35 -3.45148 -0.927759 0
M  V30 13034 C 1201.01 -4.50692 0.137083 0
M  V30 13035 C 1199.67 -4.79278 0.429652 0
M  V30 13036 C 1202.03 -5.14086 0.858174 0
M  V30 13037 C 1199.35 -5.68547 1.44815 0
M  V30 13038 C 1201.71 -6.04457 1.86588 0
M  V30 13039 C 1200.37 -6.31395 2.16556 0
M  V30 13040 H 1199.64 -0.723846 -0.15852 0
M  V30 13041 H 1202.29 -1.89102 0.302082 0
M  V30 13042 H 1200.59 -3.5097 -1.74147 0
M  V30 13043 H 1202.29 -3.74642 -1.42984 0
M  V30 13044 H 1198.88 -4.28481 -0.101111 0
M  V30 13045 H 1203.06 -4.92086 0.645376 0
M  V30 13046 H 1198.32 -5.87689 1.68615 0
M  V30 13047 H 1202.49 -6.52636 2.4298 0
M  V30 13048 H 1200.12 -7.00366 2.9562 0
M  V30 13049 N 1201.7 0.070167 -1.57444 0
M  V30 13050 C 1202.97 0.802108 -1.78397 0
M  V30 13051 C 1203.35 1.95706 -0.791356 0
M  V30 13052 O 1202.7 2.27827 0.17518 0
M  V30 13053 C 1202.91 1.27354 -3.24934 0
M  V30 13054 C 1204.26 1.70626 -3.88808 0
M  V30 13055 O 1205.28 1.36916 -3.28835 0
M  V30 13056 O 1204.14 2.33041 -4.94322 0
M  V30 13057 H 1201.24 0.384483 -0.73219 0
M  V30 13058 H 1203.78 0.0501168 -1.69626 0
M  V30 13059 H 1202.55 0.447204 -3.88736 0
M  V30 13060 H 1202.18 2.0868 -3.38435 0
M  V30 13061 N 1203.17 1.53854 0.341593 0
M  V30 13062 C 1204.59 1.44161 0.684821 0
M  V30 13063 C 1204.79 0.599929 1.92362 0
M  V30 13064 O 1203.85 0.0916771 2.52334 0
M  V30 13065 C 1205.16 2.87668 0.875637 0
M  V30 13066 C 1206.71 2.97455 0.974131 0
M  V30 13067 C 1207.18 4.42075 1.19725 0
M  V30 13068 N 1208.67 4.45609 1.2644 0
M  V30 13069 C 1209.41 5.54643 1.45459 0
M  V30 13070 N 1208.9 6.7368 1.61637 0
M  V30 13071 N 1210.7 5.4226 1.48022 0
M  V30 13072 H 1202.85 2.07069 -0.472883 0
M  V30 13073 H 1205.11 0.936114 -0.149648 0
M  V30 13074 H 1204.82 3.51681 0.0368595 0
M  V30 13075 H 1204.69 3.32731 1.7768 0
M  V30 13076 H 1207.08 2.33582 1.80343 0
M  V30 13077 H 1207.16 2.55751 0.0498282 0
M  V30 13078 H 1206.8 5.06529 0.372872 0
M  V30 13079 H 1206.73 4.81372 2.13515 0
M  V30 13080 H 1209.22 3.59831 1.15455 0
M  V30 13081 H 1209.54 7.52541 1.7579 0
M  V30 13082 H 1207.88 6.76622 1.5877 0
M  V30 13083 H 1211.07 4.48221 1.34966 0
M  V30 13084 H 1211.25 6.27293 1.62502 0
M  V30 13085 N 1204.65 -0.602709 1.4562 0
M  V30 13086 C 1205.6 -1.73425 1.55005 0
M  V30 13087 C 1206.59 -1.64118 0.419713 0
M  V30 13088 O 1207.8 -1.69853 0.595815 0
M  V30 13089 H 1204.17 -0.573038 0.486962 0
M  V30 13090 H 1206.15 -1.62637 2.50184 0
M  V30 13091 C 1204.89 -3.11808 1.53853 0
M  V30 13092 H 1204.22 -3.19631 2.40158 0
M  V30 13093 H 1205.66 -3.90798 1.64477 0
M  V30 13094 C 1204.12 -3.35866 0.263765 0
M  V30 13095 O 1204.65 -3.96334 -0.654364 0
M  V30 13096 N 1202.85 -2.90171 0.157927 0
M  V30 13097 H 1202.4 -2.41144 0.905944 0
M  V30 13098 H 1202.36 -3.06641 -0.694175 0
M  V30 13099 N 1206.13 -1.32992 -0.845635 0
M  V30 13100 C 1207.54 -1.21616 -1.41656 0
M  V30 13101 C 1207.89 0.167687 -1.95482 0
M  V30 13102 O 1207.02 1.06692 -1.8827 0
M  V30 13103 C 1207.61 -2.2018 -2.575 0
M  V30 13104 C 1206.17 -2.12664 -3.10565 0
M  V30 13105 C 1205.32 -2.08042 -1.83341 0
M  V30 13106 H 1208.27 -1.44688 -0.651993 0
M  V30 13107 H 1208.29 -1.80558 -3.34931 0
M  V30 13108 H 1207.8 -3.20888 -2.18294 0
M  V30 13109 H 1205.9 -1.15235 -3.54333 0
M  V30 13110 H 1206.02 -3.02902 -3.71197 0
M  V30 13111 H 1204.38 -1.53416 -2.03312 0
M  V30 13112 H 1205.16 -3.10547 -1.46339 0
M  V30 13113 N 1207.61 1.06304 -1.1635 0
M  V30 13114 C 1208.86 1.78487 -0.939423 0
M  V30 13115 C 1209.17 1.8817 0.533998 0
M  V30 13116 O 1210.38 2.56981 0.875962 0
M  V30 13117 C 1208.83 3.20796 -1.63149 0
M  V30 13118 C 1208.44 3.19281 -3.14267 0
M  V30 13119 C 1210.18 3.97514 -1.48938 0
M  V30 13120 C 1208.09 4.56309 -3.76213 0
M  V30 13121 H 1207.02 0.668973 -0.347837 0
M  V30 13122 H 1209.67 1.19237 -1.3948 0
M  V30 13123 H 1208.05 3.80305 -1.10382 0
M  V30 13124 H 1209.23 2.69356 -3.73877 0
M  V30 13125 H 1207.54 2.56062 -3.28362 0
M  V30 13126 H 1210.14 4.98808 -1.926 0
M  V30 13127 H 1210.48 4.13986 -0.438319 0
M  V30 13128 H 1211.02 3.44528 -1.98861 0
M  V30 13129 H 1207.75 4.45042 -4.81267 0
M  V30 13130 H 1207.27 5.06429 -3.21388 0
M  V30 13131 H 1208.95 5.25266 -3.77762 0
M  V30 13132 N 1209.09 0.96196 1.24836 0
M  V30 13133 C 1210.33 0.619489 1.92371 0
M  V30 13134 C 1210.65 -0.847233 1.75633 0
M  V30 13135 O 1209.92 -1.60419 1.12439 0
M  V30 13136 H 1208.5 0.226129 0.711951 0
M  V30 13137 H 1211.17 1.22179 1.5185 0
M  V30 13138 H 1210.26 0.855128 3.00157 0
M  V30 13139 N 1210.56 -1.39601 0.731392 0
M  V30 13140 C 1211.98 -1.54334 0.406594 0
M  V30 13141 C 1212.18 -1.69925 -1.08295 0
M  V30 13142 O 1211.24 -1.69771 -1.86906 0
M  V30 13143 C 1212.55 -2.76303 1.18647 0
M  V30 13144 C 1214.1 -2.90135 1.17433 0
M  V30 13145 C 1214.57 -4.15038 1.93669 0
M  V30 13146 N 1216.06 -4.2207 1.90817 0
M  V30 13147 C 1216.8 -5.17656 2.46616 0
M  V30 13148 N 1216.29 -6.19054 3.11037 0
M  V30 13149 N 1218.09 -5.09847 2.3667 0
M  V30 13150 H 1210.24 -1.27728 1.69703 0
M  V30 13151 H 1212.5 -0.6188 0.718186 0
M  V30 13152 H 1212.21 -2.71113 2.24032 0
M  V30 13153 H 1212.08 -3.68866 0.788514 0
M  V30 13154 H 1214.47 -2.9482 0.128615 0
M  V30 13155 H 1214.55 -1.98646 1.61163 0
M  V30 13156 H 1214.19 -4.11115 2.9824 0
M  V30 13157 H 1214.12 -5.05565 1.47349 0
M  V30 13158 H 1216.61 -3.49437 1.43882 0
M  V30 13159 H 1216.93 -6.88444 3.51091 0
M  V30 13160 H 1215.27 -6.19452 3.15126 0
M  V30 13161 H 1218.46 -4.29566 1.85987 0
M  V30 13162 H 1218.64 -5.84165 2.80455 0
M  V30 13163 N 1212.04 -0.478751 -1.50152 0
M  V30 13164 C 1213.29 0.07531 -2.01559 0
M  V30 13165 C 1213.6 1.40089 -1.36508 0
M  V30 13166 O 1214.81 2.04035 -1.79115 0
M  V30 13167 C 1213.27 0.184714 -3.59426 0
M  V30 13168 C 1212.87 -1.13289 -4.33439 0
M  V30 13169 C 1214.62 0.690326 -4.18849 0
M  V30 13170 C 1212.53 -0.986866 -5.83108 0
M  V30 13171 H 1211.46 0.0319196 -0.753324 0
M  V30 13172 H 1214.11 -0.614809 -1.72894 0
M  V30 13173 H 1212.49 0.938788 -3.84711 0
M  V30 13174 H 1213.66 -1.89852 -4.19872 0
M  V30 13175 H 1211.98 -1.57021 -3.8566 0
M  V30 13176 H 1214.57 0.816733 -5.28426 0
M  V30 13177 H 1214.92 1.68361 -3.80737 0
M  V30 13178 H 1215.45 -0.00657846 -3.97799 0
M  V30 13179 H 1212.19 -1.95375 -6.25707 0
M  V30 13180 H 1211.71 -0.261752 -5.99229 0
M  V30 13181 H 1213.39 -0.656567 -6.4366 0
M  V30 13182 N 1213.52 1.56172 -0.211661 0
M  V30 13183 C 1214.45 2.22843 0.697375 0
M  V30 13184 C 1215.43 1.19689 1.20866 0
M  V30 13185 O 1216.62 1.48245 1.25447 0
M  V30 13186 C 1213.75 2.90067 1.90993 0
M  V30 13187 C 1212.7 3.99608 1.5329 0
M  V30 13188 C 1212.03 4.54078 2.82343 0
M  V30 13189 C 1213.33 5.17169 0.730333 0
M  V30 13190 H 1215.02 2.99065 0.141533 0
M  V30 13191 H 1212.57 1.43846 0.0666337 0
M  V30 13192 H 1214.52 3.35396 2.55123 0
M  V30 13193 H 1213.24 2.11276 2.49058 0
M  V30 13194 H 1211.9 3.54995 0.915115 0
M  V30 13195 H 1211.55 3.72029 3.38531 0
M  V30 13196 H 1211.25 5.28001 2.57853 0
M  V30 13197 H 1212.77 5.02119 3.47432 0
M  V30 13198 H 1214.19 5.5894 1.2751 0
M  V30 13199 H 1212.59 5.97262 0.582916 0
M  V30 13200 H 1213.66 4.84174 -0.265157 0
M  V30 13201 N 1215 -0.0618163 1.57479 0
M  V30 13202 C 1215.95 -1.09105 2.05424 0
M  V30 13203 C 1216.94 -1.3947 0.961479 0
M  V30 13204 O 1218.15 -1.3876 1.14655 0
M  V30 13205 H 1214.52 -0.36923 0.655113 0
M  V30 13206 H 1216.49 -0.66061 2.90996 0
M  V30 13207 C 1215.24 -2.39345 2.52209 0
M  V30 13208 H 1214.56 -2.16832 3.35893 0
M  V30 13209 H 1216 -3.09784 2.89499 0
M  V30 13210 C 1214.46 -3.06011 1.40922 0
M  V30 13211 O 1214.99 -3.94504 0.756921 0
M  V30 13212 N 1213.2 -2.66797 1.15186 0
M  V30 13213 H 1212.75 -1.94923 1.68412 0
M  V30 13214 H 1212.7 -3.11724 0.409324 0
M  V30 13215 N 1216.48 -1.54033 -0.333429 0
M  V30 13216 C 1217.89 -1.44522 -0.677166 0
M  V30 13217 C 1218.09 -0.610122 -1.92041 0
M  V30 13218 O 1217.15 -0.105058 -2.52281 0
M  V30 13219 C 1218.46 -2.88129 -0.860369 0
M  V30 13220 C 1220.01 -2.97968 -0.958342 0
M  V30 13221 C 1220.48 -4.42703 -1.17379 0
M  V30 13222 N 1221.98 -4.46273 -1.24075 0
M  V30 13223 C 1222.71 -5.55407 -1.42515 0
M  V30 13224 N 1222.21 -6.74528 -1.58062 0
M  V30 13225 N 1224 -5.43037 -1.45144 0
M  V30 13226 H 1216.15 -2.06815 0.483858 0
M  V30 13227 H 1218.41 -0.935307 0.15461 0
M  V30 13228 H 1218.12 -3.51695 -0.0182085 0
M  V30 13229 H 1217.99 -3.33668 -1.75913 0
M  V30 13230 H 1220.38 -2.34535 -1.79102 0
M  V30 13231 H 1220.46 -2.55774 -0.0362643 0
M  V30 13232 H 1220.11 -5.0672 -0.346004 0
M  V30 13233 H 1220.04 -4.82498 -2.10959 0
M  V30 13234 H 1222.53 -3.60439 -1.13545 0
M  V30 13235 H 1222.84 -7.53462 -1.71797 0
M  V30 13236 H 1221.18 -6.77454 -1.55179 0
M  V30 13237 H 1224.38 -4.4893 -1.32588 0
M  V30 13238 H 1224.55 -6.28146 -1.59173 0
M  V30 13239 N 1217.95 0.594978 -1.45938 0
M  V30 13240 C 1219.2 1.35361 -1.50611 0
M  V30 13241 C 1219.53 1.93898 -0.152866 0
M  V30 13242 O 1218.78 1.76275 0.850037 0
M  V30 13243 C 1219.08 2.51129 -2.54301 0
M  V30 13244 C 1218.75 2.1066 -3.98664 0
M  V30 13245 C 1217.41 1.99338 -4.3797 0
M  V30 13246 C 1219.76 1.79267 -4.894 0
M  V30 13247 C 1217.09 1.54863 -5.65893 0
M  V30 13248 C 1219.44 1.36274 -6.17748 0
M  V30 13249 C 1218.11 1.2352 -6.55972 0
M  V30 13250 H 1217.38 0.49532 -0.551125 0
M  V30 13251 H 1220.02 0.671236 -1.79351 0
M  V30 13252 H 1218.33 3.24759 -2.19177 0
M  V30 13253 H 1220.03 3.09353 -2.55151 0
M  V30 13254 H 1216.62 2.20403 -3.67587 0
M  V30 13255 H 1220.8 1.86906 -4.59761 0
M  V30 13256 H 1216.06 1.43621 -5.94292 0
M  V30 13257 H 1220.23 1.11032 -6.87492 0
M  V30 13258 H 1217.86 0.88832 -7.54992 0
M  V30 13259 N 1219.43 1.33438 0.838571 0
M  V30 13260 C 1220.66 1.28097 1.63113 0
M  V30 13261 C 1221.08 -0.145197 1.87539 0
M  V30 13262 O 1220.44 -1.10191 1.43971 0
M  V30 13263 C 1220.49 2.06201 2.95827 0
M  V30 13264 O 1219.59 1.42082 3.87152 0
M  V30 13265 H 1218.93 0.440685 0.496681 0
M  V30 13266 H 1221.46 1.76004 1.04325 0
M  V30 13267 H 1221.47 2.16977 3.45521 0
M  V30 13268 H 1220.15 3.099 2.77371 0
M  V30 13269 H 1218.73 1.39953 3.45641 0
M  V30 13270 N 1220.91 -1.05686 1.16912 0
M  V30 13271 C 1221.86 -2.13312 0.88129 0
M  V30 13272 C 1222.83 -1.65199 -0.172783 0
M  V30 13273 O 1224.01 -1.90765 -0.0366542 0
M  V30 13274 C 1221.15 -3.42829 0.395264 0
M  V30 13275 C 1220.27 -4.04643 1.51288 0
M  V30 13276 C 1219.4 -5.22059 0.981238 0
M  V30 13277 C 1218.44 -5.75869 2.07464 0
M  V30 13278 N 1217.58 -6.84592 1.55813 0
M  V30 13279 H 1222.42 -2.37271 1.80295 0
M  V30 13280 H 1219.95 -1.16407 0.899322 0
M  V30 13281 H 1221.91 -4.17092 0.0950633 0
M  V30 13282 H 1220.54 -3.19068 -0.489445 0
M  V30 13283 H 1219.59 -3.27867 1.92891 0
M  V30 13284 H 1220.91 -4.40626 2.33774 0
M  V30 13285 H 1220.06 -6.03372 0.634586 0
M  V30 13286 H 1218.8 -4.87538 0.125754 0
M  V30 13287 H 1217.8 -4.93188 2.42992 0
M  V30 13288 H 1219.03 -6.12439 2.93419 0
M  V30 13289 H 1216.97 -6.51978 0.725283 0
M  V30 13290 H 1216.89 -7.19551 2.31911 0
M  V30 13291 H 1218.16 -7.6957 1.24025 0
M  V30 13292 N 1222.39 -0.968567 -1.24324 0
M  V30 13293 C 1223.67 -0.547774 -1.87773 0
M  V30 13294 C 1224.05 0.975107 -1.87229 0
M  V30 13295 O 1223.39 1.84683 -1.34553 0
M  V30 13296 C 1223.6 -1.1403 -3.29846 0
M  V30 13297 C 1224.95 -1.22572 -4.06523 0
M  V30 13298 O 1225.98 -1.09287 -3.3902 0
M  V30 13299 O 1224.83 -1.43579 -5.27302 0
M  V30 13300 H 1221.93 -0.182771 -0.806551 0
M  V30 13301 H 1224.47 -1.06289 -1.3229 0
M  V30 13302 H 1223.25 -2.18303 -3.24745 0
M  V30 13303 H 1222.87 -0.609275 -3.92904 0
M  V30 13304 N 1223.87 1.39211 -0.738786 0
M  V30 13305 C 1225.12 1.99673 -0.285254 0
M  V30 13306 C 1225.43 1.59297 1.13507 0
M  V30 13307 O 1226.63 2.12622 1.68832 0
M  V30 13308 C 1225.09 3.5696 -0.45906 0
M  V30 13309 C 1224.7 4.06297 -1.88751 0
M  V30 13310 C 1226.44 4.24446 -0.0674954 0
M  V30 13311 C 1224.35 5.56171 -2.01067 0
M  V30 13312 H 1223.28 0.746945 -0.102901 0
M  V30 13313 H 1225.93 1.59163 -0.913209 0
M  V30 13314 H 1224.31 3.95285 0.23785 0
M  V30 13315 H 1225.49 3.79297 -2.61669 0
M  V30 13316 H 1223.8 3.51486 -2.23264 0
M  V30 13317 H 1226.4 5.34521 -0.138475 0
M  V30 13318 H 1226.74 4.04653 0.977823 0
M  V30 13319 H 1227.27 3.91309 -0.715704 0
M  V30 13320 H 1224.01 5.80849 -3.03801 0
M  V30 13321 H 1223.53 5.84961 -1.32591 0
M  V30 13322 H 1225.21 6.21642 -1.79362 0
M  V30 13323 N 1225.34 0.486708 1.49896 0
M  V30 13324 C 1226.59 -0.0627279 2.02003 0
M  V30 13325 C 1226.91 -1.38799 1.36967 0
M  V30 13326 O 1226.18 -1.88868 0.520173 0
M  V30 13327 H 1224.76 -0.0261718 0.746541 0
M  V30 13328 H 1227.43 0.640692 1.84068 0
M  V30 13329 H 1226.52 -0.202856 3.1144 0
M  V30 13330 N 1226.82 -1.56058 0.219941 0
M  V30 13331 C 1227.77 -2.16853 -0.704185 0
M  V30 13332 C 1228.76 -1.11639 -1.15869 0
M  V30 13333 O 1229.95 -1.37632 -1.11295 0
M  V30 13334 C 1227.08 -2.85073 -1.9128 0
M  V30 13335 C 1226.16 -3.9751 -1.47805 0
M  V30 13336 N 1226.56 -5.00121 -0.755792 0
M  V30 13337 C 1224.85 -4.0957 -1.76546 0
M  V30 13338 C 1225.55 -5.79241 -0.534332 0
M  V30 13339 N 1224.53 -5.32549 -1.09055 0
M  V30 13340 H 1228.33 -2.93547 -0.143914 0
M  V30 13341 H 1225.85 -1.62386 0.021133 0
M  V30 13342 H 1227.84 -3.27037 -2.58558 0
M  V30 13343 H 1226.5 -2.09874 -2.47756 0
M  V30 13344 H 1227.51 -5.16285 -0.408647 0
M  V30 13345 H 1224.19 -3.45521 -2.34353 0
M  V30 13346 H 1225.58 -6.71888 0.0404032 0
M  V30 13347 N 1228.3 0.053464 -1.57509 0
M  V30 13348 C 1229.23 1.06151 -2.07977 0
M  V30 13349 C 1230.21 1.3924 -0.977047 0
M  V30 13350 O 1231.4 1.48549 -1.25087 0
M  V30 13351 C 1228.53 2.36969 -2.53895 0
M  V30 13352 C 1227.48 2.18186 -3.6821 0
M  V30 13353 C 1226.81 3.54551 -4.00247 0
M  V30 13354 C 1228.11 1.588 -4.97574 0
M  V30 13355 H 1229.8 0.641483 -2.92447 0
M  V30 13356 H 1227.35 0.307122 -1.40687 0
M  V30 13357 H 1229.3 3.07797 -2.87817 0
M  V30 13358 H 1228.02 2.80986 -1.66476 0
M  V30 13359 H 1226.68 1.49796 -3.34599 0
M  V30 13360 H 1226.33 3.96171 -3.09932 0
M  V30 13361 H 1226.03 3.42816 -4.77232 0
M  V30 13362 H 1227.56 4.2678 -4.36682 0
M  V30 13363 H 1228.97 2.19515 -5.29609 0
M  V30 13364 H 1227.37 1.57711 -5.79006 0
M  V30 13365 H 1228.44 0.551254 -4.81756 0
M  V30 13366 N 1229.78 1.54207 0.325255 0
M  V30 13367 C 1231.06 1.6298 1.08153 0
M  V30 13368 C 1231.44 0.462583 2.05969 0
M  V30 13369 O 1230.78 -0.543323 2.21947 0
M  V30 13370 C 1230.99 2.999 1.78497 0
M  V30 13371 C 1232.34 3.55888 2.3158 0
M  V30 13372 O 1233.37 3.02194 1.88566 0
M  V30 13373 O 1232.23 4.49847 3.10322 0
M  V30 13374 H 1229.32 0.659923 0.498429 0
M  V30 13375 H 1231.87 1.66553 0.325282 0
M  V30 13376 H 1230.64 3.7629 1.07338 0
M  V30 13377 H 1230.26 2.99997 2.60936 0
M  V30 13378 N 1231.26 -0.58723 1.46251 0
M  V30 13379 C 1232.53 -1.34727 1.41802 0
M  V30 13380 C 1232.91 -2.10867 0.0991354 0
M  V30 13381 O 1232.26 -2.09194 -0.919242 0
M  V30 13382 C 1232.47 -2.27706 2.64482 0
M  V30 13383 C 1233.82 -2.89678 3.10438 0
M  V30 13384 O 1234.84 -2.38021 2.64999 0
M  V30 13385 O 1233.7 -3.83493 3.89352 0
M  V30 13386 H 1230.8 -0.605119 0.563702 0
M  V30 13387 H 1233.34 -0.608623 1.5841 0
M  V30 13388 H 1232.12 -1.70842 3.52035 0
M  V30 13389 H 1231.74 -3.08918 2.50311 0
M  V30 13390 N 1232.74 -1.33881 -0.831482 0
M  V30 13391 C 1233.67 -1.27384 -1.95693 0
M  V30 13392 C 1234.65 -0.152943 -1.69411 0
M  V30 13393 O 1235.83 -0.34392 -1.9113 0
M  V30 13394 C 1232.96 -1.01982 -3.31989 0
M  V30 13395 C 1231.92 -2.10445 -3.72689 0
M  V30 13396 C 1231.24 -1.70245 -5.06873 0
M  V30 13397 C 1232.54 -3.52194 -3.8569 0
M  V30 13398 H 1234.24 -2.21549 -2.01386 0
M  V30 13399 H 1231.78 -1.06653 -0.967526 0
M  V30 13400 H 1233.73 -0.960841 -4.103 0
M  V30 13401 H 1232.46 -0.0425709 -3.26572 0
M  V30 13402 H 1231.12 -2.15398 -2.96647 0
M  V30 13403 H 1230.77 -0.712036 -4.97935 0
M  V30 13404 H 1230.47 -2.42834 -5.35075 0
M  V30 13405 H 1231.99 -1.65827 -5.87651 0
M  V30 13406 H 1233.4 -3.49701 -4.54293 0
M  V30 13407 H 1231.8 -4.23331 -4.25336 0
M  V30 13408 H 1232.87 -3.9016 -2.87929 0
M  V30 13409 N 1234.21 1.05064 -1.1747 0
M  V30 13410 C 1235.14 2.14786 -0.915936 0
M  V30 13411 C 1236.12 1.69502 0.142561 0
M  V30 13412 O 1237.31 1.94198 -0.00794522 0
M  V30 13413 C 1234.44 3.44629 -0.429864 0
M  V30 13414 C 1233.39 4.03486 -1.42769 0
M  V30 13415 C 1232.72 5.28689 -0.799528 0
M  V30 13416 C 1234.02 4.40823 -2.80129 0
M  V30 13417 H 1235.71 2.3669 -1.83352 0
M  V30 13418 H 1233.26 1.13751 -0.882992 0
M  V30 13419 H 1235.21 4.20737 -0.236245 0
M  V30 13420 H 1233.94 3.22381 0.523263 0
M  V30 13421 H 1232.6 3.29449 -1.60808 0
M  V30 13422 H 1232.24 5.02744 0.160474 0
M  V30 13423 H 1231.94 5.69028 -1.46565 0
M  V30 13424 H 1233.47 6.07483 -0.616212 0
M  V30 13425 H 1234.88 5.07959 -2.65801 0
M  V30 13426 H 1233.28 4.92183 -3.43331 0
M  V30 13427 H 1234.35 3.51108 -3.34441 0
M  V30 13428 N 1235.69 0.975146 1.23809 0
M  V30 13429 C 1237.1 0.678873 1.7392 0
M  V30 13430 C 1237.45 -0.805133 1.78919 0
M  V30 13431 O 1236.58 -1.62984 1.42356 0
M  V30 13432 C 1237.17 1.22562 3.15854 0
M  V30 13433 C 1235.73 0.979096 3.63443 0
M  V30 13434 C 1234.88 1.35649 2.41857 0
M  V30 13435 H 1237.83 1.14961 1.09406 0
M  V30 13436 H 1237.85 0.595489 3.75811 0
M  V30 13437 H 1237.36 2.30571 3.12184 0
M  V30 13438 H 1235.46 -0.0851407 3.72503 0
M  V30 13439 H 1235.58 1.62998 4.5052 0
M  V30 13440 H 1233.94 0.774916 2.42626 0
M  V30 13441 H 1234.72 2.44624 2.40861 0
M  V30 13442 N 1237.17 -1.38817 0.746158 0
M  V30 13443 C 1238.1 -2.33144 0.128836 0
M  V30 13444 C 1239.08 -1.54487 -0.711873 0
M  V30 13445 O 1240.27 -1.82836 -0.654577 0
M  V30 13446 C 1237.4 -3.38639 -0.770772 0
M  V30 13447 C 1236.35 -4.27987 -0.0333669 0
M  V30 13448 C 1235.68 -5.24274 -1.05073 0
M  V30 13449 C 1236.98 -5.09915 1.13066 0
M  V30 13450 H 1238.67 -2.85019 0.916778 0
M  V30 13451 H 1236.22 -1.37039 0.442306 0
M  V30 13452 H 1238.17 -4.03587 -1.21225 0
M  V30 13453 H 1236.89 -2.8523 -1.59095 0
M  V30 13454 H 1235.55 -3.64534 0.388612 0
M  V30 13455 H 1235.2 -4.67156 -1.86478 0
M  V30 13456 H 1234.9 -5.84906 -0.562037 0
M  V30 13457 H 1236.42 -5.92099 -1.49169 0
M  V30 13458 H 1237.84 -5.68145 0.767084 0
M  V30 13459 H 1236.23 -5.79744 1.54972 0
M  V30 13460 H 1237.3 -4.4409 1.94709 0
M  V30 13461 N 1238.65 -0.49465 -1.49636 0
M  V30 13462 C 1239.88 0.0491129 -2.06842 0
M  V30 13463 C 1240.29 1.31395 -1.35576 0
M  V30 13464 O 1239.65 1.7731 -0.432135 0
M  V30 13465 C 1239.7 0.313171 -3.60141 0
M  V30 13466 O 1239.42 -0.90152 -4.28724 0
M  V30 13467 C 1240.92 0.901284 -4.34041 0
M  V30 13468 H 1238.14 -0.0176186 -0.670769 0
M  V30 13469 H 1240.68 -0.690188 -1.92501 0
M  V30 13470 H 1238.84 1.00244 -3.74206 0
M  V30 13471 H 1239.25 -0.660477 -5.20325 0
M  V30 13472 H 1240.73 1.03567 -5.42197 0
M  V30 13473 H 1241.2 1.89746 -3.96097 0
M  V30 13474 H 1241.81 0.249677 -4.24566 0
M  V30 13475 N 1240.13 1.55939 -0.228214 0
M  V30 13476 C 1241.37 1.98476 0.401677 0
M  V30 13477 C 1241.7 1.116 1.59297 0
M  V30 13478 O 1240.96 0.162465 1.95024 0
M  V30 13479 C 1241.25 3.46581 0.872732 0
M  V30 13480 C 1240.92 4.50416 -0.208767 0
M  V30 13481 C 1239.58 4.78534 -0.505847 0
M  V30 13482 C 1241.93 5.12656 -0.939852 0
M  V30 13483 C 1239.26 5.66171 -1.53841 0
M  V30 13484 C 1241.61 6.01412 -1.9618 0
M  V30 13485 C 1240.28 6.2787 -2.26573 0
M  V30 13486 H 1239.55 0.726276 0.146984 0
M  V30 13487 H 1242.2 1.88598 -0.332128 0
M  V30 13488 H 1240.5 3.53696 1.68541 0
M  V30 13489 H 1242.2 3.76869 1.37006 0
M  V30 13490 H 1238.79 4.28587 0.0329308 0
M  V30 13491 H 1242.97 4.90997 -0.723581 0
M  V30 13492 H 1238.23 5.84933 -1.77944 0
M  V30 13493 H 1242.4 6.48688 -2.53332 0
M  V30 13494 H 1240.03 6.95574 -3.06725 0
M  V30 13495 N 1241.6 -0.0451101 1.57535 0
M  V30 13496 C 1242.53 -1.05046 2.08537 0
M  V30 13497 C 1243.52 -1.3872 0.984418 0
M  V30 13498 O 1244.7 -1.47884 1.25873 0
M  V30 13499 C 1241.83 -2.3562 2.55148 0
M  V30 13500 C 1240.78 -2.16231 3.69362 0
M  V30 13501 C 1240.11 -3.52423 4.02122 0
M  V30 13502 C 1241.41 -1.56159 4.98409 0
M  V30 13503 H 1243.1 -0.625965 2.92783 0
M  V30 13504 H 1240.65 -0.299657 1.40848 0
M  V30 13505 H 1242.6 -3.06266 2.89446 0
M  V30 13506 H 1241.33 -2.80099 1.67964 0
M  V30 13507 H 1239.99 -1.4802 3.35389 0
M  V30 13508 H 1239.63 -3.94522 3.12028 0
M  V30 13509 H 1239.33 -3.4028 4.79044 0
M  V30 13510 H 1240.86 -4.24458 4.38939 0
M  V30 13511 H 1242.27 -2.16703 5.30766 0
M  V30 13512 H 1240.67 -1.54638 5.79834 0
M  V30 13513 H 1241.74 -0.525698 4.82042 0
M  V30 13514 N 1243.08 -1.54377 -0.317073 0
M  V30 13515 C 1244.36 -1.63551 -1.07287 0
M  V30 13516 C 1244.74 -0.473499 -2.05721 0
M  V30 13517 O 1244.09 0.531545 -2.22232 0
M  V30 13518 C 1244.3 -3.00842 -1.76904 0
M  V30 13519 C 1245.65 -3.57111 -2.29689 0
M  V30 13520 O 1246.67 -3.0319 -1.86961 0
M  V30 13521 O 1245.53 -4.51486 -3.07932 0
M  V30 13522 H 1242.62 -0.662557 -0.494922 0
M  V30 13523 H 1245.17 -1.66723 -0.316444 0
M  V30 13524 H 1243.94 -3.76854 -1.05341 0
M  V30 13525 H 1243.56 -3.01377 -2.59341 0
M  V30 13526 N 1244.56 0.579466 -1.4656 0
M  V30 13527 C 1245.81 1.33756 -1.52038 0
M  V30 13528 C 1246.14 1.93725 -0.173423 0
M  V30 13529 O 1245.39 1.77167 0.831293 0
M  V30 13530 C 1245.69 2.48417 -2.56951 0
M  V30 13531 C 1245.36 2.0642 -4.00876 0
M  V30 13532 C 1244.02 1.94682 -4.4006 0
M  V30 13533 C 1246.37 1.74066 -4.91274 0
M  V30 13534 C 1243.7 1.48852 -5.67503 0
M  V30 13535 C 1246.05 1.29714 -6.19158 0
M  V30 13536 C 1244.71 1.16555 -6.57245 0
M  V30 13537 H 1243.98 0.489447 -0.556347 0
M  V30 13538 H 1246.63 0.652176 -1.80053 0
M  V30 13539 H 1244.94 3.22416 -2.2261 0
M  V30 13540 H 1246.63 3.06629 -2.58418 0
M  V30 13541 H 1243.22 2.16492 -3.69904 0
M  V30 13542 H 1247.41 1.82019 -4.61717 0
M  V30 13543 H 1242.66 1.3731 -5.95782 0
M  V30 13544 H 1246.84 1.03734 -6.88631 0
M  V30 13545 H 1244.46 0.808193 -7.55892 0
M  V30 13546 N 1246.04 1.3432 0.824371 0
M  V30 13547 C 1247.29 1.25938 1.57552 0
M  V30 13548 C 1247.6 -0.169298 1.94866 0
M  V30 13549 O 1248.81 -0.375262 2.68894 0
M  V30 13550 C 1247.26 2.20757 2.84244 0
M  V30 13551 C 1246.87 3.68873 2.54237 0
M  V30 13552 C 1248.61 2.21279 3.62265 0
M  V30 13553 C 1246.52 4.55566 3.77113 0
M  V30 13554 H 1245.45 0.467832 0.591311 0
M  V30 13555 H 1248.1 1.59476 0.907724 0
M  V30 13556 H 1246.48 1.80168 3.52641 0
M  V30 13557 H 1247.66 4.17991 1.93959 0
M  V30 13558 H 1245.97 3.70784 1.89494 0
M  V30 13559 H 1248.57 2.83272 4.53499 0
M  V30 13560 H 1248.91 1.2117 3.98276 0
M  V30 13561 H 1249.45 2.60305 3.00809 0
M  V30 13562 H 1246.19 5.56605 3.46223 0
M  V30 13563 H 1245.71 4.11184 4.36678 0
M  V30 13564 H 1247.38 4.701 4.44539 0
M  V30 13565 N 1247.52 -1.0444 1.18026 0
M  V30 13566 C 1248.45 -2.12388 0.86162 0
M  V30 13567 C 1249.46 -1.62204 -0.139196 0
M  V30 13568 O 1250.65 -1.78282 0.0881334 0
M  V30 13569 C 1247.75 -3.37859 0.265407 0
M  V30 13570 C 1246.92 -4.17292 1.31096 0
M  V30 13571 C 1245.98 -5.21096 0.731121 0
M  V30 13572 O 1245.01 -5.5159 1.40488 0
M  V30 13573 N 1246.21 -5.78568 -0.473194 0
M  V30 13574 H 1248.98 -2.40317 1.79074 0
M  V30 13575 H 1246.54 -1.20601 1.08014 0
M  V30 13576 H 1248.53 -4.04472 -0.135976 0
M  V30 13577 H 1247.1 -3.07403 -0.567658 0
M  V30 13578 H 1246.32 -3.46057 1.8878 0
M  V30 13579 H 1247.61 -4.67158 2.01596 0
M  V30 13580 H 1247 -5.56088 -1.03839 0
M  V30 13581 H 1245.56 -6.46665 -0.816545 0
M  V30 13582 N 1248.99 -0.981699 -1.2329 0
M  V30 13583 C 1250.22 -0.66937 -1.95773 0
M  V30 13584 C 1250.64 0.763898 -1.72656 0
M  V30 13585 O 1249.99 1.51418 -1.01876 0
M  V30 13586 C 1250.05 -0.951863 -3.48743 0
M  V30 13587 O 1249.77 -2.3288 -3.71078 0
M  V30 13588 C 1251.27 -0.655668 -4.38424 0
M  V30 13589 H 1248.49 -0.248545 -0.623271 0
M  V30 13590 H 1251.03 -1.31343 -1.56746 0
M  V30 13591 H 1249.19 -0.353787 -3.85781 0
M  V30 13592 H 1249.6 -2.41948 -4.65362 0
M  V30 13593 H 1251.07 -0.903683 -5.44553 0
M  V30 13594 H 1251.55 0.410269 -4.3728 0
M  V30 13595 H 1252.16 -1.23428 -4.06996 0
M  V30 13596 N 1250.47 1.3842 -0.753509 0
M  V30 13597 C 1251.4 2.33073 -0.141198 0
M  V30 13598 C 1252.38 1.54863 0.70367 0
M  V30 13599 O 1253.57 1.8318 0.644872 0
M  V30 13600 C 1250.7 3.39043 0.752802 0
M  V30 13601 C 1249.65 4.27999 0.0106692 0
M  V30 13602 C 1248.98 5.24824 1.02291 0
M  V30 13603 C 1250.28 5.09308 -1.15768 0
M  V30 13604 H 1251.97 2.84528 -0.93188 0
M  V30 13605 H 1249.52 1.36802 -0.449567 0
M  V30 13606 H 1251.47 4.04224 1.19083 0
M  V30 13607 H 1250.2 2.8607 1.57581 0
M  V30 13608 H 1248.85 3.64323 -0.407939 0
M  V30 13609 H 1248.5 4.68139 1.83998 0
M  V30 13610 H 1248.2 5.85196 0.53101 0
M  V30 13611 H 1249.73 5.92882 1.46026 0
M  V30 13612 H 1251.14 5.6773 -0.797203 0
M  V30 13613 H 1249.54 5.78914 -1.58044 0
M  V30 13614 H 1250.61 4.43051 -1.97062 0
M  V30 13615 N 1251.95 0.502579 1.49372 0
M  V30 13616 C 1252.88 -0.264307 2.31999 0
M  V30 13617 C 1253.86 -0.96107 1.40348 0
M  V30 13618 O 1255.05 -0.952167 1.69255 0
M  V30 13619 C 1252.18 -1.32822 3.20898 0
M  V30 13620 C 1251.13 -0.751236 4.21355 0
M  V30 13621 C 1250.46 -1.91578 4.99201 0
M  V30 13622 C 1251.76 0.258764 5.21659 0
M  V30 13623 H 1253.45 0.425391 2.96363 0
M  V30 13624 H 1251 0.206022 1.42519 0
M  V30 13625 H 1252.95 -1.87245 3.77515 0
M  V30 13626 H 1251.67 -2.04712 2.54481 0
M  V30 13627 H 1250.33 -0.228743 3.65886 0
M  V30 13628 H 1249.98 -2.62241 4.2923 0
M  V30 13629 H 1249.68 -1.53578 5.67175 0
M  V30 13630 H 1251.2 -2.46432 5.58663 0
M  V30 13631 H 1252.62 -0.197385 5.7296 0
M  V30 13632 H 1251.02 0.554681 5.97531 0
M  V30 13633 H 1252.09 1.1741 4.70471 0
M  V30 13634 N 1253.43 -1.55816 0.23648 0
M  V30 13635 C 1254.36 -2.18248 -0.700024 0
M  V30 13636 C 1255.37 -1.15579 -1.14654 0
M  V30 13637 O 1256.56 -1.42491 -1.07511 0
M  V30 13638 C 1253.66 -2.76338 -1.9619 0
M  V30 13639 C 1252.84 -4.04325 -1.66853 0
M  V30 13640 C 1251.89 -4.46834 -2.77895 0
M  V30 13641 O 1250.92 -5.13427 -2.45725 0
M  V30 13642 N 1252.12 -4.13753 -4.07171 0
M  V30 13643 H 1254.89 -2.99241 -0.16589 0
M  V30 13644 H 1252.45 -1.61803 0.0560383 0
M  V30 13645 H 1254.44 -3.01739 -2.69695 0
M  V30 13646 H 1253.01 -1.99563 -2.4061 0
M  V30 13647 H 1252.23 -3.86623 -0.769164 0
M  V30 13648 H 1253.52 -4.8779 -1.44703 0
M  V30 13649 H 1252.92 -3.60271 -4.36144 0
M  V30 13650 H 1251.47 -4.44014 -4.77174 0
M  V30 13651 N 1254.91 0.036755 -1.57557 0
M  V30 13652 C 1256.15 0.730186 -1.89199 0
M  V30 13653 C 1256.49 1.75414 -0.833271 0
M  V30 13654 O 1255.76 1.93901 0.152579 0
M  V30 13655 C 1256.04 1.40669 -3.31488 0
M  V30 13656 C 1255.9 0.396764 -4.48047 0
M  V30 13657 C 1257.22 2.34268 -3.72567 0
M  V30 13658 H 1254.33 0.263983 -0.6881 0
M  V30 13659 H 1256.98 -0.0069847 -1.89999 0
M  V30 13660 H 1255.13 2.03502 -3.30937 0
M  V30 13661 H 1256.8 -0.229062 -4.60731 0
M  V30 13662 H 1255.04 -0.284698 -4.32865 0
M  V30 13663 H 1255.71 0.908436 -5.44474 0
M  V30 13664 H 1258.19 1.81485 -3.74436 0
M  V30 13665 H 1257.06 2.78587 -4.72949 0
M  V30 13666 H 1257.33 3.20611 -3.04403 0
M  V30 13667 N 1256.39 1.54543 0.308881 0
M  V30 13668 C 1257.63 1.73706 1.04661 0
M  V30 13669 C 1257.96 0.517111 1.87189 0
M  V30 13670 O 1257.24 -0.485856 1.88334 0
M  V30 13671 C 1257.52 3.02141 1.95916 0
M  V30 13672 C 1257.38 4.34419 1.1662 0
M  V30 13673 C 1258.69 3.26401 2.95213 0
M  V30 13674 H 1255.81 0.63203 0.379087 0
M  V30 13675 H 1258.46 1.87253 0.321947 0
M  V30 13676 H 1256.61 2.90723 2.57706 0
M  V30 13677 H 1258.28 4.57743 0.571772 0
M  V30 13678 H 1256.52 4.3126 0.468747 0
M  V30 13679 H 1257.19 5.20535 1.83704 0
M  V30 13680 H 1259.67 3.37377 2.43549 0
M  V30 13681 H 1258.54 4.17597 3.56235 0
M  V30 13682 H 1258.8 2.44322 3.68455 0
M  V30 13683 N 1257.86 -0.571685 1.46866 0
M  V30 13684 C 1259.11 -1.32685 1.52444 0
M  V30 13685 C 1259.43 -1.94147 0.182225 0
M  V30 13686 O 1258.7 -1.79159 -0.792385 0
M  V30 13687 H 1257.28 -0.492679 0.561495 0
M  V30 13688 H 1259.94 -0.668694 1.8307 0
M  V30 13689 H 1259.04 -2.12788 2.28315 0
M  V30 13690 N 1259.34 -1.34755 -0.817236 0
M  V30 13691 C 1260.59 -1.2762 -1.5761 0
M  V30 13692 C 1260.92 0.152017 -1.93604 0
M  V30 13693 O 1260.2 1.09881 -1.60488 0
M  V30 13694 C 1260.48 -2.17251 -2.87183 0
M  V30 13695 C 1260.33 -3.68638 -2.57733 0
M  V30 13696 C 1261.65 -2.06206 -3.88802 0
M  V30 13697 H 1258.77 -0.464933 -0.571845 0
M  V30 13698 H 1261.41 -1.6506 -0.941028 0
M  V30 13699 H 1259.56 -1.85452 -3.41379 0
M  V30 13700 H 1261.23 -4.10829 -2.09802 0
M  V30 13701 H 1259.48 -3.89445 -1.91089 0
M  V30 13702 H 1260.15 -4.26726 -3.50156 0
M  V30 13703 H 1262.62 -2.34137 -3.43975 0
M  V30 13704 H 1261.5 -2.71136 -4.77259 0
M  V30 13705 H 1261.76 -1.04075 -4.29675 0
M  V30 13706 N 1260.82 1.03812 -1.18578 0
M  V30 13707 C 1262.07 1.77319 -0.984173 0
M  V30 13708 C 1262.4 1.88052 0.484789 0
M  V30 13709 O 1261.67 1.3905 1.35998 0
M  V30 13710 C 1261.96 3.20448 -1.6427 0
M  V30 13711 C 1261.81 3.17643 -3.1847 0
M  V30 13712 C 1263.13 4.18623 -1.35805 0
M  V30 13713 H 1260.25 0.643681 -0.358949 0
M  V30 13714 H 1262.89 1.21249 -1.46283 0
M  V30 13715 H 1261.04 3.68324 -1.23572 0
M  V30 13716 H 1262.71 2.77738 -3.6832 0
M  V30 13717 H 1260.95 2.55606 -3.50497 0
M  V30 13718 H 1261.63 4.18724 -3.59686 0
M  V30 13719 H 1264.1 3.79306 -1.71073 0
M  V30 13720 H 1262.98 5.16982 -1.84446 0
M  V30 13721 H 1263.24 4.41203 -0.281418 0
M  V30 13722 N 1262.3 0.988223 1.22768 0
M  V30 13723 C 1263.52 0.679426 1.95955 0
M  V30 13724 C 1263.95 -0.748483 1.72567 0
M  V30 13725 O 1263.31 -1.51097 1.00197 0
M  V30 13726 C 1263.35 0.985284 3.46878 0
M  V30 13727 O 1262.46 0.0814607 4.1232 0
M  V30 13728 H 1261.8 0.254749 0.613188 0
M  V30 13729 H 1264.33 1.32393 1.55991 0
M  V30 13730 H 1264.34 0.925198 3.97371 0
M  V30 13731 H 1263.01 2.02581 3.63227 0
M  V30 13732 H 1261.59 0.196629 3.72381 0
M  V30 13733 N 1263.78 -1.38018 0.760839 0
M  V30 13734 C 1265.02 -2.00248 0.320716 0
M  V30 13735 C 1265.35 -1.60259 -1.09684 0
M  V30 13736 O 1264.63 -0.843567 -1.75255 0
M  V30 13737 C 1264.91 -3.57254 0.451849 0
M  V30 13738 C 1264.77 -4.07185 1.91103 0
M  V30 13739 C 1266.08 -4.39843 -0.150439 0
M  V30 13740 H 1263.2 -0.727491 0.118007 0
M  V30 13741 H 1265.85 -1.63855 0.961842 0
M  V30 13742 H 1264 -3.88386 -0.0939672 0
M  V30 13743 H 1265.67 -3.86665 2.51571 0
M  V30 13744 H 1263.91 -3.59782 2.42362 0
M  V30 13745 H 1264.58 -5.16262 1.9539 0
M  V30 13746 H 1267.06 -4.14905 0.315145 0
M  V30 13747 H 1265.93 -5.48893 -0.0284853 0
M  V30 13748 H 1266.19 -4.24367 -1.23956 0
M  V30 13749 N 1265.25 -0.510493 -1.49103 0
M  V30 13750 C 1266.22 0.251915 -2.27811 0
M  V30 13751 C 1267.22 0.885432 -1.34226 0
M  V30 13752 O 1268.41 0.748494 -1.573 0
M  V30 13753 C 1265.54 1.3624 -3.12492 0
M  V30 13754 H 1266.73 -0.438872 -2.96671 0
M  V30 13755 H 1264.28 -0.265767 -1.54024 0
M  V30 13756 H 1265.02 2.08705 -2.48219 0
M  V30 13757 H 1264.8 0.913485 -3.81311 0
M  V30 13758 H 1266.29 1.89919 -3.71915 0
M  V30 13759 N 1266.73 1.55688 -0.24474 0
M  V30 13760 C 1267.98 1.99186 0.381167 0
M  V30 13761 C 1268.31 1.13266 1.57748 0
M  V30 13762 O 1267.59 0.195568 1.93514 0
M  V30 13763 C 1267.87 3.51257 0.793142 0
M  V30 13764 C 1267.72 4.47942 -0.408409 0
M  V30 13765 C 1269.04 4.08365 1.64091 0
M  V30 13766 H 1266.16 0.724141 0.137073 0
M  V30 13767 H 1268.8 1.8683 -0.345619 0
M  V30 13768 H 1266.95 3.61917 1.4124 0
M  V30 13769 H 1268.62 4.49265 -1.04682 0
M  V30 13770 H 1266.87 4.20854 -1.05189 0
M  V30 13771 H 1267.54 5.51946 -0.0768531 0
M  V30 13772 H 1270.01 4.00794 1.1182 0
M  V30 13773 H 1268.89 5.1504 1.89802 0
M  V30 13774 H 1269.15 3.56687 2.61202 0
M  V30 13775 N 1268.21 -0.0283989 1.57574 0
M  V30 13776 C 1269.17 -1.01346 2.05576 0
M  V30 13777 C 1270.17 -1.28999 0.960001 0
M  V30 13778 O 1271.36 -1.23991 1.2236 0
M  V30 13779 C 1268.49 -2.34611 2.47327 0
M  V30 13780 H 1269.69 -0.598809 2.93861 0
M  V30 13781 H 1267.24 -0.27524 1.53857 0
M  V30 13782 H 1267.98 -2.80823 1.622 0
M  V30 13783 H 1267.76 -2.1587 3.27326 0
M  V30 13784 H 1269.25 -3.05332 2.84889 0
M  V30 13785 N 1269.69 -1.54705 -0.300681 0
M  V30 13786 C 1270.93 -1.74259 -1.03738 0
M  V30 13787 C 1271.27 -0.52703 -1.86912 0
M  V30 13788 O 1270.54 0.475862 -1.88589 0
M  V30 13789 C 1270.82 -3.03175 -1.94311 0
M  V30 13790 C 1270.68 -4.35031 -1.14315 0
M  V30 13791 C 1272 -3.27962 -2.93478 0
M  V30 13792 H 1269.12 -0.634031 -0.37573 0
M  V30 13793 H 1271.76 -1.87421 -0.312012 0
M  V30 13794 H 1269.91 -2.92086 -2.5616 0
M  V30 13795 H 1271.58 -4.5804 -0.547489 0
M  V30 13796 H 1269.82 -4.31503 -0.44587 0
M  V30 13797 H 1270.49 -5.21502 -1.80941 0
M  V30 13798 H 1272.97 -3.38663 -2.41757 0
M  V30 13799 H 1271.85 -4.19481 -3.54016 0
M  V30 13800 H 1272.11 -2.46273 -3.67154 0
M  V30 13801 N 1271.17 0.563888 -1.47167 0
M  V30 13802 C 1272.42 1.31766 -1.5271 0
M  V30 13803 C 1272.73 1.94664 -0.191164 0
M  V30 13804 O 1273.93 2.71214 -0.124543 0
M  V30 13805 C 1272.39 2.38907 -2.69168 0
M  V30 13806 C 1272 1.8223 -4.09263 0
M  V30 13807 C 1273.74 3.15508 -2.83999 0
M  V30 13808 C 1271.65 2.87111 -5.17031 0
M  V30 13809 H 1270.58 0.495421 -0.568396 0
M  V30 13810 H 1273.23 0.599665 -1.73425 0
M  V30 13811 H 1271.61 3.13591 -2.4182 0
M  V30 13812 H 1272.79 1.13963 -4.46485 0
M  V30 13813 H 1271.1 1.18235 -3.99261 0
M  V30 13814 H 1273.7 3.93816 -3.61681 0
M  V30 13815 H 1274.04 3.69277 -1.92197 0
M  V30 13816 H 1274.57 2.47934 -3.11085 0
M  V30 13817 H 1271.31 2.38204 -6.10687 0
M  V30 13818 H 1270.83 3.53809 -4.84334 0
M  V30 13819 H 1272.51 3.50724 -5.43692 0
M  V30 13820 N 1272.64 1.35187 0.810078 0
M  V30 13821 C 1274.06 1.25329 1.38381 0
M  V30 13822 C 1274.41 -0.115799 1.95858 0
M  V30 13823 O 1273.53 -1.01663 1.91033 0
M  V30 13824 C 1274.13 2.2693 2.51572 0
M  V30 13825 C 1272.69 2.20824 3.04818 0
M  V30 13826 C 1271.83 2.1283 1.7776 0
M  V30 13827 H 1274.78 1.46366 0.613402 0
M  V30 13828 H 1274.8 1.89375 3.30026 0
M  V30 13829 H 1274.32 3.26563 2.09709 0
M  V30 13830 H 1272.42 1.24589 3.51153 0
M  V30 13831 H 1272.53 3.12637 3.63036 0
M  V30 13832 H 1270.89 1.58752 1.99173 0
M  V30 13833 H 1271.68 3.14318 1.38054 0
M  V30 13834 N 1274.12 -1.03182 1.19127 0
M  V30 13835 C 1275.37 -1.76917 1.00359 0
M  V30 13836 C 1275.72 -1.86794 -0.461075 0
M  V30 13837 O 1275.02 -1.37151 -1.33791 0
M  V30 13838 C 1275.21 -3.19452 1.60267 0
M  V30 13839 C 1275.04 -3.2347 3.12406 0
M  V30 13840 C 1273.81 -3.31587 3.81285 0
M  V30 13841 C 1276.01 -3.10754 4.09801 0
M  V30 13842 N 1273.99 -3.24948 5.20848 0
M  V30 13843 C 1275.36 -3.11715 5.35942 0
M  V30 13844 C 1277.42 -2.9486 4.01201 0
M  V30 13845 C 1276.12 -2.98413 6.54479 0
M  V30 13846 C 1278.14 -2.82907 5.19344 0
M  V30 13847 C 1277.51 -2.8452 6.44382 0
M  V30 13848 H 1273.61 -0.658788 0.421334 0
M  V30 13849 H 1276.19 -1.22849 1.51051 0
M  V30 13850 H 1274.36 -3.71847 1.1218 0
M  V30 13851 H 1276.09 -3.81533 1.34963 0
M  V30 13852 H 1272.85 -3.37686 3.32062 0
M  V30 13853 H 1273.27 -3.25043 5.93865 0
M  V30 13854 H 1277.91 -2.92437 3.05353 0
M  V30 13855 H 1275.63 -2.99587 7.50515 0
M  V30 13856 H 1279.22 -2.71649 5.14488 0
M  V30 13857 H 1278.1 -2.75369 7.34263 0
M  V30 13858 N 1275.6 -0.99472 -1.22242 0
M  V30 13859 C 1276.85 -0.667045 -1.90351 0
M  V30 13860 C 1277.16 0.804615 -1.78284 0
M  V30 13861 O 1278.37 1.24395 -2.41326 0
M  V30 13862 C 1276.82 -1.14256 -3.41282 0
M  V30 13863 C 1276.43 -2.63958 -3.61981 0
M  V30 13864 C 1278.18 -0.889302 -4.1508 0
M  V30 13865 C 1276.08 -3.05103 -5.06622 0
M  V30 13866 H 1275.01 -0.245795 -0.712812 0
M  V30 13867 H 1277.66 -1.20452 -1.38432 0
M  V30 13868 H 1276.05 -0.533203 -3.92394 0
M  V30 13869 H 1277.22 -3.30255 -3.21354 0
M  V30 13870 H 1275.54 -2.87186 -3.01518 0
M  V30 13871 H 1278.13 -1.17239 -5.21689 0
M  V30 13872 H 1278.48 0.174556 -4.15934 0
M  V30 13873 H 1279.01 -1.46095 -3.70002 0
M  V30 13874 H 1275.75 -4.10672 -5.1091 0
M  V30 13875 H 1275.27 -2.4351 -5.48145 0
M  V30 13876 H 1276.95 -2.96506 -5.75059 0
M  V30 13877 N 1277.08 1.37613 -0.768148 0
M  V30 13878 C 1278.04 2.28653 -0.158283 0
M  V30 13879 C 1279.04 1.47862 0.631936 0
M  V30 13880 O 1280.23 1.68124 0.456055 0
M  V30 13881 C 1277.36 3.31776 0.783435 0
M  V30 13882 H 1278.56 2.84094 -0.960772 0
M  V30 13883 H 1276.11 1.46818 -0.536116 0
M  V30 13884 H 1276.84 2.81452 1.61106 0
M  V30 13885 H 1276.63 3.91488 0.219016 0
M  V30 13886 H 1278.12 3.99816 1.20568 0
M  V30 13887 N 1278.56 0.518393 1.4883 0
M  V30 13888 C 1279.81 -0.0218436 2.01688 0
M  V30 13889 C 1280.12 -1.36421 1.40174 0
M  V30 13890 O 1281.32 -1.99214 1.84461 0
M  V30 13891 C 1279.78 -0.0893538 3.59789 0
M  V30 13892 C 1279.39 1.24741 4.30283 0
M  V30 13893 C 1281.13 -0.579032 4.20532 0
M  V30 13894 C 1279.04 1.14112 5.80286 0
M  V30 13895 H 1277.97 -0.0119353 0.753906 0
M  V30 13896 H 1280.62 0.660432 1.71203 0
M  V30 13897 H 1279 -0.836458 3.87065 0
M  V30 13898 H 1280.18 2.00917 4.14691 0
M  V30 13899 H 1278.49 1.67191 3.81361 0
M  V30 13900 H 1281.09 -0.676343 5.30405 0
M  V30 13901 H 1281.43 -1.58207 3.85067 0
M  V30 13902 H 1281.96 0.112046 3.97642 0
M  V30 13903 H 1278.7 2.11895 6.20307 0
M  V30 13904 H 1278.22 0.420535 5.98324 0
M  V30 13905 H 1279.9 0.826992 6.41693 0
M  V30 13906 N 1280.03 -1.55556 0.252993 0
M  V30 13907 C 1281.45 -1.85032 -0.249011 0
M  V30 13908 C 1281.8 -1.17488 -1.57134 0
M  V30 13909 O 1280.92 -0.455387 -2.11554 0
M  V30 13910 C 1281.52 -3.35682 -0.458589 0
M  V30 13911 C 1280.08 -3.65362 -0.90485 0
M  V30 13912 C 1279.22 -2.77296 0.0144927 0
M  V30 13913 H 1282.17 -1.51412 0.475394 0
M  V30 13914 H 1282.19 -3.57591 -1.30034 0
M  V30 13915 H 1281.71 -3.84814 0.503981 0
M  V30 13916 H 1279.81 -3.21713 -1.87967 0
M  V30 13917 H 1279.92 -4.73074 -0.757492 0
M  V30 13918 H 1278.28 -2.49785 -0.497954 0
M  V30 13919 H 1279.07 -3.29236 0.972546 0
M  V30 13920 N 1281.51 0.0200419 -1.57587 0
M  V30 13921 C 1282.44 1.01715 -2.10181 0
M  V30 13922 C 1283.42 1.37136 -1.00636 0
M  V30 13923 O 1284.61 1.45862 -1.2821 0
M  V30 13924 C 1281.74 2.31531 -2.58865 0
M  V30 13925 C 1280.69 2.10327 -3.72755 0
M  V30 13926 C 1280.02 3.45981 -4.07678 0
M  V30 13927 C 1281.32 1.4821 -5.0083 0
M  V30 13928 H 1283.01 0.579307 -2.93742 0
M  V30 13929 H 1280.56 0.277211 -1.41307 0
M  V30 13930 H 1282.51 3.01623 -2.94281 0
M  V30 13931 H 1281.24 2.77392 -1.72399 0
M  V30 13932 H 1279.89 1.42665 -3.37701 0
M  V30 13933 H 1279.54 3.89508 -3.18265 0
M  V30 13934 H 1279.24 3.32616 -4.84397 0
M  V30 13935 H 1280.77 4.17421 -4.45637 0
M  V30 13936 H 1282.18 2.08232 -5.34146 0
M  V30 13937 H 1280.58 1.45393 -5.82221 0
M  V30 13938 H 1281.65 0.448942 -4.82817 0
M  V30 13939 N 1282.99 1.54862 0.292472 0
M  V30 13940 C 1284.24 1.74807 1.02813 0
M  V30 13941 C 1284.57 0.536935 1.8663 0
M  V30 13942 O 1283.84 -0.465854 1.88839 0
M  V30 13943 C 1284.13 3.04202 1.927 0
M  V30 13944 C 1283.98 4.35631 1.12006 0
M  V30 13945 C 1285.3 3.29514 2.91734 0
M  V30 13946 H 1282.42 0.636015 0.372362 0
M  V30 13947 H 1285.06 1.87583 0.302069 0
M  V30 13948 H 1283.21 2.9344 2.54608 0
M  V30 13949 H 1284.88 4.58323 0.52319 0
M  V30 13950 H 1283.13 4.31733 0.42298 0
M  V30 13951 H 1283.8 5.22454 1.78172 0
M  V30 13952 H 1286.27 3.39941 2.39957 0
M  V30 13953 H 1285.15 4.21352 3.51786 0
M  V30 13954 H 1285.41 2.48216 3.65843 0
M  V30 13955 N 1284.47 -0.556076 1.47464 0
M  V30 13956 C 1285.88 -1.1382 1.47993 0
M  V30 13957 C 1286.23 -1.94785 0.235249 0
M  V30 13958 O 1285.36 -2.06098 -0.659752 0
M  V30 13959 C 1285.95 -2.07082 2.68146 0
M  V30 13960 C 1284.51 -2.60564 2.71631 0
M  V30 13961 C 1283.66 -1.36967 2.41113 0
M  V30 13962 H 1286.61 -0.34262 1.54957 0
M  V30 13963 H 1286.63 -2.90975 2.45181 0
M  V30 13964 H 1286.14 -1.48127 3.5872 0
M  V30 13965 H 1284.24 -3.23314 1.852 0
M  V30 13966 H 1284.35 -3.0148 3.72353 0
M  V30 13967 H 1282.72 -1.67678 1.91719 0
M  V30 13968 H 1283.5 -0.79803 3.33896 0
M  V30 13969 N 1285.95 -1.35615 -0.802897 0
M  V30 13970 C 1286.88 -1.31506 -1.92947 0
M  V30 13971 C 1287.86 -0.188843 -1.69048 0
M  V30 13972 O 1289.04 -0.384384 -1.90358 0
M  V30 13973 C 1286.17 -1.09001 -3.29752 0
M  V30 13974 C 1285.13 -2.18303 -3.68141 0
M  V30 13975 C 1284.45 -1.80959 -5.03148 0
M  V30 13976 C 1285.75 -3.60296 -3.78132 0
M  V30 13977 H 1287.45 -2.25771 -1.96642 0
M  V30 13978 H 1284.99 -1.08682 -0.944685 0
M  V30 13979 H 1286.95 -1.04766 -4.08169 0
M  V30 13980 H 1285.67 -0.111832 -3.26408 0
M  V30 13981 H 1284.33 -2.21642 -2.92011 0
M  V30 13982 H 1283.98 -0.817495 -4.96312 0
M  V30 13983 H 1283.68 -2.54129 -5.29804 0
M  V30 13984 H 1285.2 -1.78255 -5.84001 0
M  V30 13985 H 1286.62 -3.59259 -4.46773 0
M  V30 13986 H 1285.01 -4.32258 -4.16261 0
M  V30 13987 H 1286.08 -3.9618 -2.79588 0
M  V30 13988 N 1287.43 1.02549 -1.19673 0
M  V30 13989 C 1288.67 1.75656 -0.999463 0
M  V30 13990 C 1288.99 1.89238 0.470517 0
M  V30 13991 O 1288.26 1.42843 1.34062 0
M  V30 13992 H 1286.84 0.650732 -0.366821 0
M  V30 13993 H 1289.51 1.23684 -1.50627 0
M  V30 13994 H 1288.6 2.76353 -1.45035 0
M  V30 13995 N 1288.9 1.00119 1.21713 0
M  V30 13996 C 1290.15 0.67713 1.89994 0
M  V30 13997 C 1290.47 -0.795149 1.78709 0
M  V30 13998 O 1291.67 -1.23113 2.41982 0
M  V30 13999 C 1290.13 1.16065 3.40671 0
M  V30 14000 C 1289.74 2.65874 3.60576 0
M  V30 14001 C 1291.48 0.911302 4.14603 0
M  V30 14002 C 1289.39 3.07785 5.04997 0
M  V30 14003 H 1288.32 0.249572 0.711498 0
M  V30 14004 H 1290.97 1.21185 1.37792 0
M  V30 14005 H 1289.35 0.554005 3.92106 0
M  V30 14006 H 1290.52 3.31954 3.19598 0
M  V30 14007 H 1288.84 2.88781 2.99991 0
M  V30 14008 H 1291.44 1.20004 5.2106 0
M  V30 14009 H 1291.78 -0.152495 4.16021 0
M  V30 14010 H 1292.31 1.48055 3.69222 0
M  V30 14011 H 1289.05 4.13376 5.08724 0
M  V30 14012 H 1288.57 2.46414 5.46846 0
M  V30 14013 H 1290.25 2.99552 5.73479 0
M  V30 14014 N 1290.38 -1.37203 0.775435 0
M  V30 14015 C 1291.63 -1.98846 0.338093 0
M  V30 14016 C 1291.94 -1.6225 -1.09244 0
M  V30 14017 O 1293.15 -2.17024 -1.63135 0
M  V30 14018 C 1291.61 -3.55618 0.553541 0
M  V30 14019 C 1291.21 -4.01149 1.99457 0
M  V30 14020 C 1292.96 -4.24118 0.180006 0
M  V30 14021 C 1290.86 -5.50644 2.15742 0
M  V30 14022 H 1289.79 -0.743955 0.122669 0
M  V30 14023 H 1292.45 -1.56685 0.955087 0
M  V30 14024 H 1290.83 -3.95777 -0.132964 0
M  V30 14025 H 1292 -3.72226 2.71633 0
M  V30 14026 H 1290.32 -3.45443 2.32504 0
M  V30 14027 H 1292.91 -5.33966 0.280145 0
M  V30 14028 H 1293.26 -4.07104 -0.870192 0
M  V30 14029 H 1293.79 -3.89274 0.819201 0
M  V30 14030 H 1290.53 -5.7259 3.19094 0
M  V30 14031 H 1290.05 -5.8124 1.48054 0
M  V30 14032 H 1291.73 -6.16668 1.95781 0
M  V30 14033 N 1291.86 -0.526279 -1.48553 0
M  V30 14034 C 1293.11 0.0091665 -2.02498 0
M  V30 14035 C 1293.43 1.34632 -1.40373 0
M  V30 14036 O 1292.69 1.88172 -0.537573 0
M  V30 14037 C 1292.99 0.184075 -3.56926 0
M  V30 14038 C 1292.65 -1.07825 -4.37818 0
M  V30 14039 C 1291.32 -1.42422 -4.59641 0
M  V30 14040 C 1293.67 -1.91616 -4.84699 0
M  V30 14041 C 1291 -2.60713 -5.25591 0
M  V30 14042 C 1293.35 -3.09082 -5.51952 0
M  V30 14043 C 1292.01 -3.44029 -5.72014 0
M  V30 14044 H 1291.28 0.00335426 -0.740992 0
M  V30 14045 H 1293.93 -0.691553 -1.78577 0
M  V30 14046 H 1292.23 0.967532 -3.79666 0
M  V30 14047 H 1293.93 0.613226 -3.96283 0
M  V30 14048 H 1290.52 -0.798812 -4.2109 0
M  V30 14049 H 1294.71 -1.66199 -4.67645 0
M  V30 14050 H 1289.96 -2.87996 -5.39322 0
M  V30 14051 H 1294.14 -3.74317 -5.87247 0
M  V30 14052 H 1291.76 -4.35789 -6.2289 0
M  V30 14053 N 1293.34 1.5542 -0.261239 0
M  V30 14054 C 1294.59 1.9846 0.360052 0
M  V30 14055 C 1294.9 1.15288 1.58013 0
M  V30 14056 O 1296.11 1.48408 2.27348 0
M  V30 14057 C 1294.56 3.53185 0.691964 0
M  V30 14058 C 1294.17 4.45116 -0.507521 0
M  V30 14059 C 1295.91 4.04848 1.27665 0
M  V30 14060 C 1293.82 5.91207 -0.150966 0
M  V30 14061 H 1292.75 0.741207 0.138303 0
M  V30 14062 H 1295.4 1.79859 -0.363712 0
M  V30 14063 H 1293.78 3.67535 1.47425 0
M  V30 14064 H 1294.96 4.42531 -1.28465 0
M  V30 14065 H 1293.27 4.04013 -1.0081 0
M  V30 14066 H 1295.87 5.11529 1.55699 0
M  V30 14067 H 1296.21 3.5305 2.20593 0
M  V30 14068 H 1296.75 3.93882 0.556955 0
M  V30 14069 H 1293.48 6.47072 -1.04776 0
M  V30 14070 H 1293 5.96894 0.589671 0
M  V30 14071 H 1294.68 6.4647 0.261772 0
M  V30 14072 N 1294.82 -0.0116844 1.57596 0
M  V30 14073 C 1296.06 -0.698958 1.90055 0
M  V30 14074 C 1296.39 -1.74422 0.860659 0
M  V30 14075 O 1295.65 -1.95226 -0.136132 0
M  V30 14076 C 1295.94 -1.38985 3.29269 0
M  V30 14077 C 1295.61 -0.478916 4.48349 0
M  V30 14078 C 1294.27 -0.228071 4.80659 0
M  V30 14079 C 1296.62 0.14897 5.20987 0
M  V30 14080 C 1293.95 0.659147 5.82986 0
M  V30 14081 C 1296.3 1.02399 6.24257 0
M  V30 14082 C 1294.97 1.28413 6.55032 0
M  V30 14083 H 1294.24 -0.255767 0.69546 0
M  V30 14084 H 1296.89 0.0413339 1.91455 0
M  V30 14085 H 1295.19 -2.2039 3.23937 0
M  V30 14086 H 1296.89 -1.92747 3.51638 0
M  V30 14087 H 1293.48 -0.68459 4.23097 0
M  V30 14088 H 1297.66 -0.0318326 4.9629 0
M  V30 14089 H 1292.92 0.86882 6.05195 0
M  V30 14090 H 1297.09 1.51694 6.79678 0
M  V30 14091 H 1294.72 1.97332 7.34142 0
M  V30 14092 N 1296.29 -1.55015 -0.284256 0
M  V30 14093 C 1297.22 -1.90128 -1.3555 0
M  V30 14094 C 1298.2 -0.761914 -1.52082 0
M  V30 14095 O 1299.39 -1.01909 -1.65312 0
M  V30 14096 C 1296.52 -2.16332 -2.71695 0
M  V30 14097 C 1295.47 -3.32166 -2.69907 0
M  V30 14098 C 1294.8 -3.43824 -4.09498 0
M  V30 14099 C 1296.1 -4.6885 -2.30168 0
M  V30 14100 H 1297.79 -2.79852 -1.06411 0
M  V30 14101 H 1295.34 -1.34649 -0.510451 0
M  V30 14102 H 1297.29 -2.39482 -3.46737 0
M  V30 14103 H 1296.02 -1.23395 -3.02392 0
M  V30 14104 H 1294.68 -3.08965 -1.97322 0
M  V30 14105 H 1294.32 -2.48375 -4.374 0
M  V30 14106 H 1294.02 -4.21698 -4.092 0
M  V30 14107 H 1295.55 -3.69254 -4.86296 0
M  V30 14108 H 1296.96 -4.91619 -2.9493 0
M  V30 14109 H 1295.36 -5.49558 -2.41052 0
M  V30 14110 H 1296.43 -4.68433 -1.25294 0
M  V30 14111 N 1297.77 0.548248 -1.47757 0
M  V30 14112 C 1299.19 0.875048 -1.33473 0
M  V30 14113 C 1299.39 1.98747 -0.331952 0
M  V30 14114 O 1298.44 2.51226 0.253348 0
M  V30 14115 C 1299.76 1.25982 -2.73037 0
M  V30 14116 C 1301.3 1.37074 -2.81389 0
M  V30 14117 C 1301.78 1.78902 -4.21613 0
M  V30 14118 N 1303.27 1.86037 -4.24198 0
M  V30 14119 C 1304.01 2.1975 -5.2962 0
M  V30 14120 N 1303.5 2.52013 -6.45338 0
M  V30 14121 N 1305.29 2.206 -5.17003 0
M  V30 14122 H 1297.45 -0.186033 -2.11584 0
M  V30 14123 H 1299.71 -0.0205687 -0.947777 0
M  V30 14124 H 1299.41 0.516188 -3.47891 0
M  V30 14125 H 1299.29 2.21402 -3.05387 0
M  V30 14126 H 1301.68 2.10517 -2.06801 0
M  V30 14127 H 1301.76 0.398193 -2.52682 0
M  V30 14128 H 1301.4 1.06026 -4.9671 0
M  V30 14129 H 1301.33 2.77176 -4.47751 0
M  V30 14130 H 1303.82 1.63455 -3.40721 0
M  V30 14131 H 1304.13 2.7679 -7.21531 0
M  V30 14132 H 1302.48 2.49573 -6.48643 0
M  V30 14133 H 1305.67 1.9484 -4.25623 0
M  V30 14134 H 1305.84 2.46543 -5.99267 0
M  V30 14135 N 1299.25 1.36039 0.795694 0
M  V30 14136 C 1300.67 1.16315 1.09284 0
M  V30 14137 C 1300.87 -0.017024 2.01493 0
M  V30 14138 O 1299.92 -0.684316 2.4305 0
M  V30 14139 C 1301.23 2.47113 1.71335 0
M  V30 14140 C 1302.78 2.5342 1.83705 0
M  V30 14141 C 1303.26 3.84289 2.49171 0
M  V30 14142 N 1304.75 3.856 2.56645 0
M  V30 14143 C 1305.48 4.83597 3.08094 0
M  V30 14144 N 1304.98 5.91985 3.59897 0
M  V30 14145 N 1306.77 4.71023 3.06748 0
M  V30 14146 H 1298.92 2.11611 0.182957 0
M  V30 14147 H 1301.19 0.937035 0.143771 0
M  V30 14148 H 1300.89 3.33708 1.11049 0
M  V30 14149 H 1300.77 2.62461 2.70914 0
M  V30 14150 H 1303.15 1.67247 2.43131 0
M  V30 14151 H 1303.23 2.41977 0.829495 0
M  V30 14152 H 1302.88 4.70865 1.90391 0
M  V30 14153 H 1302.81 3.93025 3.50484 0
M  V30 14154 H 1305.3 3.07291 2.19956 0
M  V30 14155 H 1305.61 6.6274 3.97487 0
M  V30 14156 H 1303.96 5.95662 3.58066 0
M  V30 14157 H 1307.15 3.8548 2.65561 0
M  V30 14158 H 1307.32 5.47555 3.46536 0
M  V30 14159 N 1300.73 -1.01913 1.20215 0
M  V30 14160 C 1301.96 -1.78817 1.0348 0
M  V30 14161 C 1302.37 -1.84499 -0.419152 0
M  V30 14162 O 1301.71 -1.29506 -1.30284 0
M  V30 14163 C 1301.77 -3.24858 1.53973 0
M  V30 14164 C 1301.44 -3.42788 3.02234 0
M  V30 14165 C 1302.43 -3.32213 3.99914 0
M  V30 14166 C 1300.12 -3.68687 3.41138 0
M  V30 14167 C 1302.11 -3.47276 5.34489 0
M  V30 14168 C 1299.8 -3.83394 4.7587 0
M  V30 14169 C 1300.8 -3.72693 5.72354 0
M  V30 14170 O 1300.48 -3.86953 7.04643 0
M  V30 14171 H 1300.22 -0.569268 0.364568 0
M  V30 14172 H 1302.77 -1.29184 1.59689 0
M  V30 14173 H 1301 -3.7556 0.921478 0
M  V30 14174 H 1302.69 -3.83388 1.33297 0
M  V30 14175 H 1303.46 -3.12145 3.71202 0
M  V30 14176 H 1299.33 -3.76104 2.66583 0
M  V30 14177 H 1302.88 -3.3884 6.09782 0
M  V30 14178 H 1298.78 -4.02962 5.04273 0
M  V30 14179 H 1299.54 -4.03986 7.11855 0
M  V30 14180 N 1302.21 -1.00763 -1.2118 0
M  V30 14181 C 1303.45 -0.691826 -1.90316 0
M  V30 14182 C 1303.78 0.777678 -1.78276 0
M  V30 14183 O 1303.04 1.57962 -1.15526 0
M  V30 14184 C 1303.34 -1.06187 -3.41261 0
M  V30 14185 C 1303 -2.52608 -3.73497 0
M  V30 14186 C 1301.66 -2.92617 -3.82006 0
M  V30 14187 C 1304.02 -3.47442 -3.88502 0
M  V30 14188 C 1301.34 -4.26419 -4.02969 0
M  V30 14189 C 1303.7 -4.8092 -4.10973 0
M  V30 14190 C 1302.36 -5.20649 -4.17709 0
M  V30 14191 H 1301.63 -0.253157 -0.696414 0
M  V30 14192 H 1304.28 -1.26655 -1.43634 0
M  V30 14193 H 1302.58 -0.405428 -3.89697 0
M  V30 14194 H 1304.28 -0.795343 -3.93033 0
M  V30 14195 H 1300.87 -2.20603 -3.67468 0
M  V30 14196 H 1305.05 -3.17695 -3.81292 0
M  V30 14197 H 1300.31 -4.56767 -4.06416 0
M  V30 14198 H 1304.48 -5.54337 -4.21525 0
M  V30 14199 H 1302.11 -6.24343 -4.33705 0
M  V30 14200 N 1303.68 1.3679 -0.7827 0
M  V30 14201 C 1304.61 2.32721 -0.190604 0
M  V30 14202 C 1305.6 1.56321 0.670663 0
M  V30 14203 O 1306.78 1.84507 0.605871 0
M  V30 14204 C 1303.91 3.40564 0.680717 0
M  V30 14205 C 1302.86 4.27925 -0.080118 0
M  V30 14206 C 1302.19 5.26876 0.911361 0
M  V30 14207 C 1303.49 5.06738 -1.26545 0
M  V30 14208 H 1305.18 2.82488 -0.992023 0
M  V30 14209 H 1302.73 1.35818 -0.478484 0
M  V30 14210 H 1304.68 4.06659 1.10482 0
M  V30 14211 H 1303.41 2.89348 1.51477 0
M  V30 14212 H 1302.07 3.63376 -0.485125 0
M  V30 14213 H 1301.71 4.71936 1.74026 0
M  V30 14214 H 1301.41 5.8619 0.406762 0
M  V30 14215 H 1302.94 5.95846 1.33418 0
M  V30 14216 H 1304.35 5.65911 -0.917448 0
M  V30 14217 H 1302.75 5.75432 -1.70289 0
M  V30 14218 H 1303.82 4.38772 -2.06415 0
M  V30 14219 N 1305.16 0.53415 1.48272 0
M  V30 14220 C 1306.07 -0.230062 2.33469 0
M  V30 14221 C 1307.09 -0.934889 1.46751 0
M  V30 14222 O 1308.26 -0.908921 1.79724 0
M  V30 14223 C 1305.33 -1.2609 3.22958 0
M  V30 14224 C 1304.39 -0.565983 4.25553 0
M  V30 14225 C 1303.62 -1.54771 5.10766 0
M  V30 14226 O 1303.85 -2.7807 4.9803 0
M  V30 14227 O 1302.78 -1.08482 5.92043 0
M  V30 14228 H 1306.61 0.468182 3.0007 0
M  V30 14229 H 1304.19 0.29502 1.46458 0
M  V30 14230 H 1306.07 -1.85652 3.783 0
M  V30 14231 H 1304.75 -1.94148 2.59014 0
M  V30 14232 H 1303.66 0.0702391 3.74034 0
M  V30 14233 H 1304.99 0.0727277 4.92146 0
M  V30 14234 N 1306.64 -1.55279 0.269478 0
M  V30 14235 C 1307.87 -2.03876 -0.352418 0
M  V30 14236 C 1308.28 -1.14804 -1.49885 0
M  V30 14237 O 1307.64 -0.166989 -1.81734 0
M  V30 14238 C 1307.69 -3.51634 -0.838799 0
M  V30 14239 O 1307.41 -4.37316 0.261972 0
M  V30 14240 C 1308.91 -4.16094 -1.52909 0
M  V30 14241 H 1306.13 -0.66608 -0.0811043 0
M  V30 14242 H 1308.68 -2.00551 0.399929 0
M  V30 14243 H 1306.83 -3.55421 -1.54125 0
M  V30 14244 H 1307.25 -5.24383 -0.111013 0
M  V30 14245 H 1308.72 -5.21102 -1.82089 0
M  V30 14246 H 1309.2 -3.63928 -2.45872 0
M  V30 14247 H 1309.8 -4.16293 -0.87063 0
M  V30 14248 N 1308.12 0.00332656 -1.576 0
M  V30 14249 C 1309.34 0.703587 -1.95101 0
M  V30 14250 C 1309.77 1.66697 -0.871418 0
M  V30 14251 O 1309.13 1.80494 0.170739 0
M  V30 14252 C 1309.17 1.41457 -3.31696 0
M  V30 14253 O 1308.28 2.52885 -3.25765 0
M  V30 14254 H 1307.62 0.187396 -0.637008 0
M  V30 14255 H 1310.15 -0.0488727 -2.04542 0
M  V30 14256 H 1310.16 1.77874 -3.67185 0
M  V30 14257 H 1308.83 0.708182 -4.09826 0
M  V30 14258 H 1307.41 2.18821 -3.01947 0
M  V30 14259 N 1309.6 1.55164 0.276031 0
M  V30 14260 C 1311.01 1.46936 0.623061 0
M  V30 14261 C 1311.21 0.680977 1.89644 0
M  V30 14262 O 1310.27 0.198618 2.51718 0
M  V30 14263 C 1311.58 2.91123 0.752839 0
M  V30 14264 C 1313.13 3.01319 0.847093 0
M  V30 14265 C 1313.6 4.46755 1.00867 0
M  V30 14266 N 1315.1 4.5057 1.07427 0
M  V30 14267 C 1315.83 5.60314 1.21804 0
M  V30 14268 N 1315.33 6.7993 1.32919 0
M  V30 14269 N 1317.12 5.4805 1.2489 0
M  V30 14270 H 1309.27 2.04877 -0.560282 0
M  V30 14271 H 1311.53 0.928925 -0.189217 0
M  V30 14272 H 1311.24 3.51521 -0.112333 0
M  V30 14273 H 1311.11 3.39967 1.63408 0
M  V30 14274 H 1313.5 2.41021 1.70274 0
M  V30 14275 H 1313.58 2.55733 -0.0586896 0
M  V30 14276 H 1313.23 5.07655 0.1577 0
M  V30 14277 H 1313.16 4.89995 1.92906 0
M  V30 14278 H 1315.65 3.64404 1.00089 0
M  V30 14279 H 1315.96 7.59319 1.43714 0
M  V30 14280 H 1314.3 6.82747 1.29929 0
M  V30 14281 H 1317.5 4.53542 1.15834 0
M  V30 14282 H 1317.67 6.33621 1.3575 0
M  V30 14283 N 1311.07 -0.540404 1.48045 0
M  V30 14284 C 1312.35 -1.30148 1.46017 0
M  V30 14285 C 1312.73 -2.10445 0.166171 0
M  V30 14286 O 1312.08 -2.12013 -0.852223 0
M  V30 14287 C 1312.29 -2.19177 2.71593 0
M  V30 14288 C 1313.64 -2.79655 3.19497 0
M  V30 14289 O 1314.66 -2.2947 2.72437 0
M  V30 14290 O 1313.52 -3.70912 4.01356 0
M  V30 14291 H 1310.61 -0.586879 0.582668 0
M  V30 14292 H 1313.16 -0.557918 1.60267 0
M  V30 14293 H 1311.93 -1.59556 3.57292 0
M  V30 14294 H 1311.56 -3.00798 2.60012 0
M  V30 14295 N 1312.55 -1.36459 -0.788468 0
M  V30 14296 C 1313.8 -1.30935 -1.54867 0
M  V30 14297 C 1314.13 0.110916 -1.93883 0
M  V30 14298 O 1313.41 1.06452 -1.62783 0
M  V30 14299 C 1313.69 -2.23294 -2.8251 0
M  V30 14300 C 1313.54 -3.74022 -2.49856 0
M  V30 14301 C 1314.86 -2.14407 -3.84341 0
M  V30 14302 H 1311.98 -0.476958 -0.561854 0
M  V30 14303 H 1314.62 -1.67018 -0.905805 0
M  V30 14304 H 1312.77 -1.92652 -3.37369 0
M  V30 14305 H 1314.44 -4.15187 -2.01041 0
M  V30 14306 H 1312.69 -3.93411 -1.82785 0
M  V30 14307 H 1313.36 -4.34057 -3.41026 0
M  V30 14308 H 1315.83 -2.41381 -3.38932 0
M  V30 14309 H 1314.71 -2.81199 -4.71401 0
M  V30 14310 H 1314.97 -1.13166 -4.27371 0
M  V30 14311 N 1314.03 1.01274 -1.20754 0
M  V30 14312 C 1314.98 2.09894 -0.959852 0
M  V30 14313 C 1315.95 1.65726 0.111351 0
M  V30 14314 O 1317.13 1.90769 -0.0341721 0
M  V30 14315 C 1314.27 3.41126 -0.52223 0
M  V30 14316 C 1313.39 3.98749 -1.66202 0
M  V30 14317 C 1312.52 5.18057 -1.17432 0
M  V30 14318 C 1311.56 5.67772 -2.28694 0
M  V30 14319 N 1310.7 6.78338 -1.81114 0
M  V30 14320 H 1315.54 2.30416 -1.88977 0
M  V30 14321 H 1313.07 1.12989 -0.941906 0
M  V30 14322 H 1315.03 4.16451 -0.249799 0
M  V30 14323 H 1313.66 3.20665 0.370688 0
M  V30 14324 H 1312.71 3.20483 -2.04927 0
M  V30 14325 H 1314.03 4.31646 -2.49967 0
M  V30 14326 H 1313.18 6.00601 -0.858086 0
M  V30 14327 H 1311.92 4.86735 -0.306614 0
M  V30 14328 H 1310.92 4.8383 -2.61129 0
M  V30 14329 H 1312.15 6.01127 -3.15948 0
M  V30 14330 H 1310.09 6.48837 -0.966761 0
M  V30 14331 H 1310.01 7.10448 -2.58457 0
M  V30 14332 H 1311.28 7.64437 -1.52502 0
M  V30 14333 N 1315.51 1.01404 1.20644 0
M  V30 14334 C 1316.93 0.728446 1.42006 0
M  V30 14335 C 1317.13 -0.692894 1.89212 0
M  V30 14336 O 1316.18 -1.46101 2.05939 0
M  V30 14337 C 1317.49 1.75198 2.44389 0
M  V30 14338 C 1319.04 1.76983 2.58159 0
M  V30 14339 C 1319.52 2.78256 3.63782 0
M  V30 14340 N 1321.01 2.7698 3.71263 0
M  V30 14341 C 1321.74 3.51999 4.52641 0
M  V30 14342 N 1321.24 4.36687 5.37844 0
M  V30 14343 N 1323.03 3.40608 4.47149 0
M  V30 14344 H 1315.18 1.93168 0.883172 0
M  V30 14345 H 1317.45 0.834287 0.450187 0
M  V30 14346 H 1317.15 2.77013 2.16695 0
M  V30 14347 H 1317.03 1.56203 3.43337 0
M  V30 14348 H 1319.41 0.758551 2.85184 0
M  V30 14349 H 1319.49 2.00051 1.59415 0
M  V30 14350 H 1319.14 3.79546 3.37501 0
M  V30 14351 H 1319.07 2.5245 4.62143 0
M  V30 14352 H 1321.56 2.15546 3.104 0
M  V30 14353 H 1321.87 4.90703 5.97018 0
M  V30 14354 H 1320.22 4.40766 5.37355 0
M  V30 14355 H 1323.41 2.73872 3.79621 0
M  V30 14356 H 1323.58 3.99327 5.10335 0
M  V30 14357 N 1316.99 -1.36373 0.789944 0
M  V30 14358 C 1317.92 -2.32616 0.202944 0
M  V30 14359 C 1318.9 -1.56674 -0.662364 0
M  V30 14360 O 1320.08 -1.84826 -0.596078 0
M  V30 14361 C 1317.21 -3.4092 -0.662646 0
M  V30 14362 C 1316.17 -4.27877 0.102811 0
M  V30 14363 C 1315.49 -5.27352 -0.883407 0
M  V30 14364 C 1316.79 -5.0606 1.29231 0
M  V30 14365 H 1318.49 -2.81958 1.00699 0
M  V30 14366 H 1316.03 -1.35562 0.48568 0
M  V30 14367 H 1317.99 -4.07239 -1.08324 0
M  V30 14368 H 1316.71 -2.90147 -1.4994 0
M  V30 14369 H 1315.37 -3.63114 0.504389 0
M  V30 14370 H 1315.02 -4.72853 -1.71521 0
M  V30 14371 H 1314.72 -5.86398 -0.375669 0
M  V30 14372 H 1316.24 -5.96545 -1.30256 0
M  V30 14373 H 1317.66 -5.65417 0.947446 0
M  V30 14374 H 1316.05 -5.74521 1.73338 0
M  V30 14375 H 1317.12 -4.37671 2.08739 0
M  V30 14376 N 1318.47 -0.542005 -1.47987 0
M  V30 14377 C 1319.38 0.217677 -2.33588 0
M  V30 14378 C 1320.39 0.927093 -1.47245 0
M  V30 14379 O 1321.57 0.899378 -1.80203 0
M  V30 14380 C 1318.63 1.24376 -3.23622 0
M  V30 14381 C 1317.69 0.543407 -4.25847 0
M  V30 14382 C 1316.93 1.5206 -5.11579 0
M  V30 14383 O 1317.15 2.75425 -4.99497 0
M  V30 14384 O 1316.08 1.05341 -5.9261 0
M  V30 14385 H 1319.91 -0.484089 -2.99817 0
M  V30 14386 H 1317.49 -0.302783 -1.463 0
M  V30 14387 H 1319.38 1.83644 -3.7928 0
M  V30 14388 H 1318.05 1.92772 -2.6004 0
M  V30 14389 H 1316.96 -0.090074 -3.73992 0
M  V30 14390 H 1318.29 -0.0988264 -4.92101 0
M  V30 14391 N 1319.94 1.55134 -0.277709 0
M  V30 14392 C 1321.17 2.04519 0.344472 0
M  V30 14393 C 1321.59 1.15466 1.4849 0
M  V30 14394 O 1320.95 0.153798 1.80646 0
M  V30 14395 C 1321 3.51602 0.800527 0
M  V30 14396 O 1320.1 3.65632 1.90754 0
M  V30 14397 H 1319.44 0.660212 0.0708226 0
M  V30 14398 H 1321.97 2.00393 -0.412764 0
M  V30 14399 H 1321.98 3.93015 1.09559 0
M  V30 14400 H 1320.66 4.15886 -0.033838 0
M  V30 14401 H 1319.24 3.36122 1.61481 0
M  V30 14402 N 1321.42 0.00503138 1.57599 0
M  V30 14403 C 1322.65 -0.689609 1.95069 0
M  V30 14404 C 1323.06 -1.67028 0.880183 0
M  V30 14405 O 1322.42 -1.81959 -0.140406 0
M  V30 14406 C 1322.47 -1.41709 3.32567 0
M  V30 14407 O 1322.19 -0.475746 4.35509 0
M  V30 14408 C 1323.69 -2.20578 3.84526 0
M  V30 14409 H 1320.91 -0.19175 0.643019 0
M  V30 14410 H 1323.46 0.057646 2.04419 0
M  V30 14411 H 1321.61 -2.11593 3.2451 0
M  V30 14412 H 1322.03 -0.989573 5.1508 0
M  V30 14413 H 1323.5 -2.66969 4.83148 0
M  V30 14414 H 1323.98 -3.03467 3.17497 0
M  V30 14415 H 1324.58 -1.557 3.95775 0
M  V30 14416 N 1322.9 -1.55308 -0.267798 0
M  V30 14417 C 1324.13 -1.80191 -1.01681 0
M  V30 14418 C 1324.54 -0.57783 -1.7974 0
M  V30 14419 O 1323.9 0.4532 -1.76783 0
M  V30 14420 C 1323.95 -3.03023 -1.97127 0
M  V30 14421 O 1323.67 -4.20704 -1.22229 0
M  V30 14422 C 1325.17 -3.40549 -2.83798 0
M  V30 14423 H 1322.39 -0.60013 -0.300142 0
M  V30 14424 H 1324.94 -2.02332 -0.297007 0
M  V30 14425 H 1323.09 -2.82993 -2.64563 0
M  V30 14426 H 1323.51 -4.90181 -1.86608 0
M  V30 14427 H 1324.98 -4.29653 -3.46557 0
M  V30 14428 H 1325.46 -2.60186 -3.53836 0
M  V30 14429 H 1326.06 -3.62856 -2.21846 0
M  V30 14430 N 1324.38 0.532545 -1.4833 0
M  V30 14431 C 1325.79 0.860843 -1.34394 0
M  V30 14432 C 1325.99 1.98384 -0.353013 0
M  V30 14433 O 1325.05 2.5148 0.226688 0
M  V30 14434 C 1326.36 1.23079 -2.74358 0
M  V30 14435 C 1327.91 1.34082 -2.82827 0
M  V30 14436 C 1328.39 1.74421 -4.23487 0
M  V30 14437 N 1329.88 1.81528 -4.26148 0
M  V30 14438 C 1330.61 2.1412 -5.31921 0
M  V30 14439 N 1330.11 2.45154 -6.47975 0
M  V30 14440 N 1331.9 2.15104 -5.19314 0
M  V30 14441 H 1324.05 -0.208464 -2.11375 0
M  V30 14442 H 1326.31 -0.03062 -0.947505 0
M  V30 14443 H 1326.02 0.47926 -3.48419 0
M  V30 14444 H 1325.89 2.18151 -3.07718 0
M  V30 14445 H 1328.28 2.08311 -2.09022 0
M  V30 14446 H 1328.36 0.37137 -2.5309 0
M  V30 14447 H 1328.01 1.00752 -4.97807 0
M  V30 14448 H 1327.94 2.72411 -4.50666 0
M  V30 14449 H 1330.43 1.59832 -3.42436 0
M  V30 14450 H 1330.74 2.69121 -7.24426 0
M  V30 14451 H 1329.09 2.42679 -6.51254 0
M  V30 14452 H 1332.28 1.90315 -4.27666 0
M  V30 14453 H 1332.45 2.40173 -6.01848 0
M  V30 14454 N 1325.86 1.36875 0.78122 0
M  V30 14455 C 1327.08 1.349 1.57533 0
M  V30 14456 C 1327.51 -0.0655249 1.87986 0
M  V30 14457 O 1326.86 -1.03986 1.48515 0
M  V30 14458 C 1326.91 2.18562 2.86815 0
M  V30 14459 O 1326.02 1.58374 3.80777 0
M  V30 14460 H 1325.36 0.461355 0.477543 0
M  V30 14461 H 1327.89 1.80271 0.96766 0
M  V30 14462 H 1327.9 2.31436 3.36008 0
M  V30 14463 H 1326.57 3.21385 2.63978 0
M  V30 14464 H 1325.15 1.54487 3.39394 0
M  V30 14465 N 1327.33 -1.00632 1.21289 0
M  V30 14466 C 1328.74 -1.55838 1.02817 0
M  V30 14467 C 1329.1 -1.91816 -0.412425 0
M  V30 14468 O 1328.22 -1.73342 -1.29543 0
M  V30 14469 C 1328.82 -2.83168 1.86014 0
M  V30 14470 C 1327.37 -3.34865 1.71879 0
M  V30 14471 C 1326.52 -2.0807 1.83309 0
M  V30 14472 H 1329.47 -0.828939 1.3533 0
M  V30 14473 H 1329.49 -3.54996 1.36961 0
M  V30 14474 H 1329.01 -2.56951 2.90857 0
M  V30 14475 H 1327.11 -3.6602 0.697153 0
M  V30 14476 H 1327.22 -4.06374 2.53766 0
M  V30 14477 H 1325.58 -2.21006 1.26603 0
M  V30 14478 H 1326.37 -1.84267 2.89656 0
M  V30 14479 N 1328.81 -1.02043 -1.20104 0
M  V30 14480 C 1330.06 -0.713027 -1.89852 0
M  V30 14481 C 1330.39 0.755767 -1.7889 0
M  V30 14482 O 1329.67 1.54948 -1.17564 0
M  V30 14483 C 1329.95 -1.15417 -3.41103 0
M  V30 14484 C 1329.8 -2.68355 -3.60979 0
M  V30 14485 C 1331.12 -0.728389 -4.34031 0
M  V30 14486 H 1328.24 -0.260502 -0.689426 0
M  V30 14487 H 1330.88 -1.26885 -1.41422 0
M  V30 14488 H 1329.03 -0.68127 -3.8248 0
M  V30 14489 H 1330.7 -3.23526 -3.28829 0
M  V30 14490 H 1328.95 -3.09148 -3.04319 0
M  V30 14491 H 1329.62 -2.94276 -4.67018 0
M  V30 14492 H 1332.09 -1.13499 -4.00321 0
M  V30 14493 H 1330.97 -1.06504 -5.38468 0
M  V30 14494 H 1331.23 0.369736 -4.40551 0
M  V30 14495 N 1330.29 1.35952 -0.797165 0
M  V30 14496 C 1331.54 1.99032 -0.373142 0
M  V30 14497 C 1331.87 1.63257 1.05723 0
M  V30 14498 O 1331.12 0.883022 1.74646 0
M  V30 14499 C 1331.42 3.53986 -0.492805 0
M  V30 14500 C 1331.09 4.09603 -1.88511 0
M  V30 14501 C 1329.75 4.24505 -2.26604 0
M  V30 14502 C 1332.1 4.39829 -2.79643 0
M  V30 14503 C 1329.43 4.66946 -3.55215 0
M  V30 14504 C 1331.78 4.83706 -4.0769 0
M  V30 14505 C 1330.44 4.96813 -4.45795 0
M  V30 14506 H 1329.71 0.728311 -0.136542 0
M  V30 14507 H 1332.36 1.62318 -1.01613 0
M  V30 14508 H 1330.67 3.91103 0.233661 0
M  V30 14509 H 1332.36 4.00735 -0.145638 0
M  V30 14510 H 1328.95 3.98449 -1.57912 0
M  V30 14511 H 1333.14 4.27878 -2.51464 0
M  V30 14512 H 1328.39 4.75282 -3.84599 0
M  V30 14513 H 1332.57 5.06057 -4.78414 0
M  V30 14514 H 1330.19 5.29458 -5.45507 0
M  V30 14515 N 1331.77 0.549846 1.47697 0
M  V30 14516 C 1332.99 0.0256819 2.07384 0
M  V30 14517 C 1333.42 -1.25525 1.4009 0
M  V30 14518 O 1332.78 -1.7501 0.473406 0
M  V30 14519 C 1332.82 -0.160835 3.60241 0
M  V30 14520 O 1331.93 -1.22509 3.93783 0
M  V30 14521 H 1331.27 0.0480204 0.662261 0
M  V30 14522 H 1333.8 0.763429 1.89823 0
M  V30 14523 H 1333.81 -0.377337 4.06251 0
M  V30 14524 H 1332.48 0.774774 4.0862 0
M  V30 14525 H 1331.06 -0.98967 3.59527 0
M  V30 14526 N 1333.25 -1.54984 0.285932 0
M  V30 14527 C 1334.2 -2.19645 -0.611576 0
M  V30 14528 C 1335.18 -1.16453 -1.11029 0
M  V30 14529 O 1336.37 -1.42228 -1.05357 0
M  V30 14530 C 1333.5 -2.9293 -1.79017 0
M  V30 14531 C 1332.59 -4.03421 -1.30813 0
M  V30 14532 N 1332.98 -5.02877 -0.542993 0
M  V30 14533 C 1331.28 -4.16689 -1.59016 0
M  V30 14534 C 1331.98 -5.80986 -0.288176 0
M  V30 14535 N 1330.95 -5.36695 -0.863695 0
M  V30 14536 H 1334.76 -2.93894 -0.0192813 0
M  V30 14537 H 1332.27 -1.6215 0.0899876 0
M  V30 14538 H 1334.27 -3.37709 -2.44454 0
M  V30 14539 H 1332.93 -2.20194 -2.38631 0
M  V30 14540 H 1333.94 -5.17554 -0.189305 0
M  V30 14541 H 1330.61 -3.5515 -2.19488 0
M  V30 14542 H 1332 -6.71112 0.325337 0
M  V30 14543 N 1334.72 -0.0133892 -1.57594 0
M  V30 14544 C 1335.65 0.972341 -2.12292 0
M  V30 14545 C 1336.64 1.34971 -1.03522 0
M  V30 14546 O 1337.82 1.4311 -1.31275 0
M  V30 14547 C 1334.95 2.25988 -2.63717 0
M  V30 14548 C 1333.9 2.02373 -3.77133 0
M  V30 14549 C 1333.23 3.37256 -4.14925 0
M  V30 14550 C 1334.53 1.37553 -5.03861 0
M  V30 14551 H 1336.22 0.516869 -2.94905 0
M  V30 14552 H 1333.77 0.247176 -1.41863 0
M  V30 14553 H 1335.72 2.95313 -3.00613 0
M  V30 14554 H 1334.45 2.73672 -1.78244 0
M  V30 14555 H 1333.11 1.3547 -3.40651 0
M  V30 14556 H 1332.75 3.82669 -3.26456 0
M  V30 14557 H 1332.45 3.22267 -4.91343 0
M  V30 14558 H 1333.98 4.07875 -4.5439 0
M  V30 14559 H 1335.39 1.96855 -5.38443 0
M  V30 14560 H 1333.79 1.33011 -5.85174 0
M  V30 14561 H 1334.86 0.346429 -4.83661 0
M  V30 14562 N 1336.2 1.55448 0.259558 0
M  V30 14563 C 1337.43 1.81063 1.01148 0
M  V30 14564 C 1337.85 0.58875 1.78649 0
M  V30 14565 O 1337.21 -0.461971 1.75315 0
M  V30 14566 C 1337.26 3.04279 1.93512 0
M  V30 14567 O 1336.36 2.80307 3.02493 0
M  V30 14568 H 1335.7 0.598056 0.288487 0
M  V30 14569 H 1338.23 2.02614 0.284387 0
M  V30 14570 H 1338.24 3.33373 2.35215 0
M  V30 14571 H 1336.92 3.92856 1.36518 0
M  V30 14572 H 1335.5 2.62345 2.65008 0
M  V30 14573 N 1337.68 -0.524672 1.4861 0
M  V30 14574 C 1338.91 -1.30958 1.60825 0
M  V30 14575 C 1339.33 -1.86142 0.270682 0
M  V30 14576 O 1338.69 -1.64675 -0.758415 0
M  V30 14577 C 1338.74 -2.43252 2.66197 0
M  V30 14578 O 1337.84 -3.4644 2.23725 0
M  V30 14579 H 1337.18 -0.387638 0.539104 0
M  V30 14580 H 1339.71 -0.630755 1.94635 0
M  V30 14581 H 1339.72 -2.89362 2.87635 0
M  V30 14582 H 1338.4 -2.02449 3.63301 0
M  V30 14583 H 1336.97 -3.06413 2.12522 0
M  V30 14584 N 1339.16 -1.37287 -0.77395 0
M  V30 14585 C 1340.38 -1.35734 -1.56815 0
M  V30 14586 C 1340.81 0.0555546 -1.88018 0
M  V30 14587 O 1340.17 1.03197 -1.49064 0
M  V30 14588 C 1340.21 -2.2008 -2.85652 0
M  V30 14589 O 1339.32 -1.60391 -3.79932 0
M  V30 14590 H 1338.66 -0.463881 -0.47509 0
M  V30 14591 H 1341.19 -1.80781 -0.958087 0
M  V30 14592 H 1341.2 -2.33215 -3.34776 0
M  V30 14593 H 1339.87 -3.22781 -2.6227 0
M  V30 14594 H 1338.45 -1.56285 -3.3857 0
M  V30 14595 N 1340.64 0.999871 -1.21821 0
M  V30 14596 C 1341.57 2.10708 -1.00621 0
M  V30 14597 C 1342.55 1.69954 0.0705417 0
M  V30 14598 O 1343.73 1.9399 -0.0903042 0
M  V30 14599 C 1340.86 3.42496 -0.575646 0
M  V30 14600 C 1339.82 3.97068 -1.59754 0
M  V30 14601 C 1339.14 5.24822 -1.02304 0
M  V30 14602 C 1340.44 4.28545 -2.98574 0
M  V30 14603 H 1342.14 2.28701 -1.93226 0
M  V30 14604 H 1339.68 1.09903 -0.930443 0
M  V30 14605 H 1341.64 4.19357 -0.414481 0
M  V30 14606 H 1340.36 3.2431 0.386059 0
M  V30 14607 H 1339.02 3.22332 -1.74636 0
M  V30 14608 H 1338.67 5.02972 -0.0529016 0
M  V30 14609 H 1338.37 5.62299 -1.70567 0
M  V30 14610 H 1339.89 6.04322 -0.873312 0
M  V30 14611 H 1341.3 4.96229 -2.87106 0
M  V30 14612 H 1339.7 4.77178 -3.63897 0
M  V30 14613 H 1340.77 3.36607 -3.49032 0
M  V30 14614 N 1342.11 1.02678 1.19562 0
M  V30 14615 C 1343.05 0.563882 2.22155 0
M  V30 14616 C 1344.06 -0.359132 1.58789 0
M  V30 14617 O 1345.25 -0.155857 1.77818 0
M  V30 14618 C 1342.35 -0.197894 3.38322 0
M  V30 14619 C 1341.52 0.729542 4.31273 0
M  V30 14620 C 1340.58 0.013543 5.26198 0
M  V30 14621 O 1339.61 0.639417 5.65597 0
M  V30 14622 N 1340.81 -1.25791 5.66707 0
M  V30 14623 H 1343.57 1.44623 2.62496 0
M  V30 14624 H 1341.13 0.90555 1.34207 0
M  V30 14625 H 1343.13 -0.686381 3.98837 0
M  V30 14626 H 1341.7 -0.981632 2.96787 0
M  V30 14627 H 1340.92 1.39816 3.68572 0
M  V30 14628 H 1342.2 1.35994 4.90289 0
M  V30 14629 H 1341.6 -1.78716 5.36728 0
M  V30 14630 H 1340.16 -1.69093 6.29485 0
M  V30 14631 N 1343.59 -1.35528 0.804364 0
M  V30 14632 C 1344.84 -1.98439 0.382934 0
M  V30 14633 C 1345.16 -1.64132 -1.05289 0
M  V30 14634 O 1344.43 -0.922693 -1.7281 0
M  V30 14635 H 1343.01 -0.734028 0.138605 0
M  V30 14636 H 1345.67 -1.65478 1.02971 0
M  V30 14637 H 1344.77 -3.08279 0.486846 0
M  V30 14638 N 1345.07 -0.557671 -1.47404 0
M  V30 14639 C 1346 0.178019 -2.3282 0
M  V30 14640 C 1346.98 0.908318 -1.43818 0
M  V30 14641 O 1348.17 0.888693 -1.72673 0
M  V30 14642 C 1345.3 1.2082 -3.25607 0
M  V30 14643 C 1344.25 0.594335 -4.23853 0
M  V30 14644 C 1343.58 1.72919 -5.05968 0
M  V30 14645 C 1344.88 -0.452196 -5.20339 0
M  V30 14646 H 1346.57 -0.535091 -2.9458 0
M  V30 14647 H 1344.12 -0.258775 -1.41656 0
M  V30 14648 H 1346.07 1.73104 -3.84204 0
M  V30 14649 H 1344.79 1.95126 -2.61903 0
M  V30 14650 H 1343.45 0.0927898 -3.66483 0
M  V30 14651 H 1343.1 2.4613 -4.38668 0
M  V30 14652 H 1342.8 1.32422 -5.72484 0
M  V30 14653 H 1344.33 2.25527 -5.67424 0
M  V30 14654 H 1345.74 -0.0154011 -5.73298 0
M  V30 14655 H 1344.14 -0.776068 -5.95061 0
M  V30 14656 H 1345.21 -1.34791 -4.65789 0
M  V30 14657 N 1346.55 1.54831 -0.294147 0
M  V30 14658 C 1347.8 2.01016 0.310506 0
M  V30 14659 C 1348.15 1.17894 1.52049 0
M  V30 14660 O 1347.44 0.245603 1.90019 0
M  V30 14661 C 1347.64 3.4997 0.72495 0
M  V30 14662 C 1347.47 4.47509 -0.443325 0
M  V30 14663 C 1346.24 4.96609 -0.93317 0
M  V30 14664 C 1348.43 4.97961 -1.28606 0
M  V30 14665 N 1346.42 5.77987 -2.06892 0
M  V30 14666 C 1347.79 5.76973 -2.26941 0
M  V30 14667 C 1349.84 4.8016 -1.31722 0
M  V30 14668 C 1348.55 6.40081 -3.28159 0
M  V30 14669 C 1350.57 5.44082 -2.31795 0
M  V30 14670 C 1349.93 6.22921 -3.2886 0
M  V30 14671 H 1346.03 0.778073 0.0782699 0
M  V30 14672 H 1348.62 1.90061 -0.422504 0
M  V30 14673 H 1346.79 3.6123 1.42715 0
M  V30 14674 H 1348.52 3.82961 1.30856 0
M  V30 14675 H 1345.27 4.70854 -0.509283 0
M  V30 14676 H 1345.7 6.23362 -2.64099 0
M  V30 14677 H 1350.34 4.18795 -0.580536 0
M  V30 14678 H 1348.06 7.00584 -4.0275 0
M  V30 14679 H 1351.64 5.3224 -2.34971 0
M  V30 14680 H 1350.52 6.71507 -4.05029 0
M  V30 14681 N 1348.03 0.0217466 1.57585 0
M  V30 14682 C 1349.26 -0.668881 1.9579 0
M  V30 14683 C 1349.67 -1.66085 0.897849 0
M  V30 14684 O 1349.03 -1.82098 -0.121099 0
M  V30 14685 C 1349.08 -1.38174 3.34051 0
M  V30 14686 O 1348.8 -0.429527 4.35989 0
M  V30 14687 C 1350.3 -2.16487 3.86844 0
M  V30 14688 H 1347.52 -0.184919 0.645016 0
M  V30 14689 H 1350.06 0.0793241 2.04346 0
M  V30 14690 H 1348.22 -2.0814 3.26736 0
M  V30 14691 H 1348.63 -0.934887 5.16101 0
M  V30 14692 H 1350.11 -2.61829 4.85952 0
M  V30 14693 H 1350.58 -3.00082 3.20698 0
M  V30 14694 H 1351.19 -1.51493 3.97404 0
M  V30 14695 N 1349.51 -1.55583 -0.251311 0
M  V30 14696 C 1350.75 -1.76411 -0.977859 0
M  V30 14697 C 1351.07 -0.584857 -1.86651 0
M  V30 14698 O 1352.27 -0.676046 -2.62948 0
M  V30 14699 C 1350.73 -3.12302 -1.78872 0
M  V30 14700 C 1350.34 -4.37862 -0.947674 0
M  V30 14701 C 1352.08 -3.42471 -2.50827 0
M  V30 14702 C 1349.99 -5.64786 -1.75417 0
M  V30 14703 H 1348.92 -0.657628 -0.368839 0
M  V30 14704 H 1351.57 -1.82019 -0.232682 0
M  V30 14705 H 1349.95 -3.0079 -2.57569 0
M  V30 14706 H 1351.13 -4.60351 -0.203352 0
M  V30 14707 H 1349.44 -4.14996 -0.341666 0
M  V30 14708 H 1352.04 -4.34514 -3.11612 0
M  V30 14709 H 1352.38 -2.63592 -3.22219 0
M  V30 14710 H 1352.91 -3.55179 -1.79145 0
M  V30 14711 H 1349.65 -6.46474 -1.08407 0
M  V30 14712 H 1349.17 -5.46405 -2.47389 0
M  V30 14713 H 1350.85 -6.03881 -2.32242 0
M  V30 14714 N 1350.98 0.516783 -1.48886 0
M  V30 14715 C 1352.4 0.84654 -1.35299 0
M  V30 14716 C 1352.6 1.97998 -0.374035 0
M  V30 14717 O 1351.66 2.51707 0.200003 0
M  V30 14718 C 1352.97 1.20162 -2.75648 0
M  V30 14719 C 1354.52 1.31074 -2.84233 0
M  V30 14720 C 1354.99 1.69919 -4.25313 0
M  V30 14721 N 1356.48 1.76998 -4.28049 0
M  V30 14722 C 1357.22 2.08466 -5.34162 0
M  V30 14723 N 1356.71 2.38268 -6.50538 0
M  V30 14724 N 1358.51 2.09584 -5.21566 0
M  V30 14725 H 1350.66 -0.230871 -2.11142 0
M  V30 14726 H 1352.92 -0.0406678 -0.947127 0
M  V30 14727 H 1352.63 0.442278 -3.48908 0
M  V30 14728 H 1352.5 2.14875 -3.10014 0
M  V30 14729 H 1354.89 2.06083 -2.1122 0
M  V30 14730 H 1354.97 0.344506 -2.5347 0
M  V30 14731 H 1354.61 0.954667 -4.98847 0
M  V30 14732 H 1354.54 2.67616 -4.5353 0
M  V30 14733 H 1357.03 1.56191 -3.44112 0
M  V30 14734 H 1357.35 2.61423 -7.2724 0
M  V30 14735 H 1355.69 2.35758 -6.53791 0
M  V30 14736 H 1358.88 1.85768 -4.2966 0
M  V30 14737 H 1359.06 2.33776 -6.04362 0
M  V30 14738 N 1352.46 1.37696 0.766659 0
M  V30 14739 C 1353.42 1.33688 1.86172 0
M  V30 14740 C 1354.42 0.239922 1.59 0
M  V30 14741 O 1355.61 0.496066 1.66988 0
M  V30 14742 C 1352.75 1.07807 3.23405 0
M  V30 14743 H 1353.94 2.311 1.91136 0
M  V30 14744 H 1351.49 1.22799 0.966961 0
M  V30 14745 H 1352.23 0.109477 3.24115 0
M  V30 14746 H 1352.01 1.87213 3.4452 0
M  V30 14747 H 1353.5 1.07665 4.03482 0
M  V30 14748 N 1353.94 -0.993397 1.22349 0
M  V30 14749 C 1355.17 -1.76581 1.0725 0
M  V30 14750 C 1355.58 -1.85346 -0.379923 0
M  V30 14751 O 1354.92 -1.3224 -1.27508 0
M  V30 14752 C 1354.98 -3.21519 1.60829 0
M  V30 14753 C 1354.65 -3.363 3.09437 0
M  V30 14754 C 1355.64 -3.23655 4.0687 0
M  V30 14755 C 1353.33 -3.61368 3.48882 0
M  V30 14756 C 1355.32 -3.3586 5.41735 0
M  V30 14757 C 1353.01 -3.73214 4.83895 0
M  V30 14758 C 1354.01 -3.60468 5.80131 0
M  V30 14759 O 1353.7 -3.7192 7.12693 0
M  V30 14760 H 1353.43 -0.561407 0.376561 0
M  V30 14761 H 1355.98 -1.25768 1.62393 0
M  V30 14762 H 1354.21 -3.73521 1.00093 0
M  V30 14763 H 1355.9 -3.80475 1.41399 0
M  V30 14764 H 1356.67 -3.04201 3.77739 0
M  V30 14765 H 1352.55 -3.70365 2.74501 0
M  V30 14766 H 1356.09 -3.25829 6.16832 0
M  V30 14767 H 1351.99 -3.92175 5.12707 0
M  V30 14768 H 1352.75 -3.88796 7.20264 0
M  V30 14769 N 1355.42 -1.03311 -1.19015 0
M  V30 14770 C 1356.36 -0.617567 -2.22384 0
M  V30 14771 C 1357.33 0.370779 -1.61909 0
M  V30 14772 O 1358.52 0.266481 -1.8893 0
M  V30 14773 C 1355.66 0.0211303 -3.45094 0
M  V30 14774 C 1354.77 -1.01377 -4.19937 0
M  V30 14775 C 1353.91 -0.344385 -5.30082 0
M  V30 14776 C 1352.95 -1.3649 -5.96688 0
M  V30 14777 N 1352.08 -0.721026 -6.98388 0
M  V30 14778 H 1356.92 -1.5036 -2.57286 0
M  V30 14779 H 1354.46 -0.75235 -1.26405 0
M  V30 14780 H 1356.42 0.408713 -4.15193 0
M  V30 14781 H 1355.05 0.870721 -3.10835 0
M  V30 14782 H 1354.1 -1.51937 -3.4874 0
M  V30 14783 H 1355.41 -1.78921 -4.65606 0
M  V30 14784 H 1354.57 0.097814 -6.06621 0
M  V30 14785 H 1353.31 0.463216 -4.85495 0
M  V30 14786 H 1352.31 -1.81732 -5.18897 0
M  V30 14787 H 1353.54 -2.17407 -6.43359 0
M  V30 14788 H 1351.48 0.0664057 -6.55966 0
M  V30 14789 H 1351.4 -1.43428 -7.4227 0
M  V30 14790 H 1352.67 -0.30297 -7.78911 0
M  V30 14791 N 1356.9 1.35099 -0.81154 0
M  V30 14792 C 1357.86 2.28033 -0.230947 0
M  V30 14793 C 1358.86 1.49798 0.584575 0
M  V30 14794 O 1360.05 1.6949 0.402336 0
M  V30 14795 C 1357.18 3.341 0.677486 0
M  V30 14796 H 1358.37 2.80893 -1.05067 0
M  V30 14797 H 1355.93 1.45038 -0.582554 0
M  V30 14798 H 1356.66 2.86435 1.5207 0
M  V30 14799 H 1356.45 3.91986 0.0943563 0
M  V30 14800 H 1357.94 4.0345 1.07787 0
M  V30 14801 N 1358.37 0.56548 1.47106 0
M  V30 14802 C 1359.28 -0.180488 2.33905 0
M  V30 14803 C 1360.3 -0.90355 1.48701 0
M  V30 14804 O 1361.48 -0.870595 1.81611 0
M  V30 14805 C 1358.54 -1.19212 3.2556 0
M  V30 14806 C 1357.6 -0.475589 4.26658 0
M  V30 14807 C 1356.83 -1.43902 5.13934 0
M  V30 14808 O 1357.06 -2.67443 5.03816 0
M  V30 14809 O 1355.99 -0.958998 5.94211 0
M  V30 14810 H 1359.82 0.531726 2.99009 0
M  V30 14811 H 1357.4 0.32602 1.45799 0
M  V30 14812 H 1359.28 -1.77586 3.82153 0
M  V30 14813 H 1357.96 -1.8861 2.63074 0
M  V30 14814 H 1356.87 0.149561 3.73801 0
M  V30 14815 H 1358.2 0.177103 4.91881 0
M  V30 14816 N 1359.85 -1.54672 0.302354 0
M  V30 14817 C 1360.76 -2.27251 -0.582578 0
M  V30 14818 C 1361.78 -1.30819 -1.14727 0
M  V30 14819 O 1362.95 -1.63803 -1.17177 0
M  V30 14820 C 1360.02 -3.00016 -1.73757 0
M  V30 14821 C 1359.08 -4.11988 -1.20682 0
M  V30 14822 C 1358.31 -4.81273 -2.30676 0
M  V30 14823 O 1358.54 -4.49927 -3.50602 0
M  V30 14824 O 1357.47 -5.68647 -1.97291 0
M  V30 14825 H 1361.3 -3.03699 0.00621365 0
M  V30 14826 H 1358.88 -1.49242 0.0687684 0
M  V30 14827 H 1360.76 -3.45652 -2.41045 0
M  V30 14828 H 1359.44 -2.26462 -2.31294 0
M  V30 14829 H 1358.35 -3.70749 -0.499625 0
M  V30 14830 H 1359.68 -4.87524 -0.676858 0
M  V30 14831 N 1361.33 -0.0301034 -1.57571 0
M  V30 14832 C 1362.75 0.326296 -1.56229 0
M  V30 14833 C 1362.95 1.72839 -1.03581 0
M  V30 14834 O 1362 2.43088 -0.682979 0
M  V30 14835 C 1363.32 0.174001 -3.00196 0
M  V30 14836 C 1364.86 0.246694 -3.12026 0
M  V30 14837 C 1365.34 0.123177 -4.57834 0
M  V30 14838 N 1366.83 0.180129 -4.6285 0
M  V30 14839 C 1367.56 0.108353 -5.73298 0
M  V30 14840 N 1367.06 -0.0145648 -6.92798 0
M  V30 14841 N 1368.85 0.162411 -5.61865 0
M  V30 14842 H 1361 -0.946945 -1.90123 0
M  V30 14843 H 1363.27 -0.365762 -0.874598 0
M  V30 14844 H 1362.97 -0.791871 -3.42669 0
M  V30 14845 H 1362.85 0.943794 -3.65202 0
M  V30 14846 H 1365.23 1.20303 -2.69465 0
M  V30 14847 H 1365.32 -0.553493 -2.4974 0
M  V30 14848 H 1364.96 -0.82974 -5.01077 0
M  V30 14849 H 1364.89 0.94224 -5.18102 0
M  V30 14850 H 1367.38 0.275236 -3.76896 0
M  V30 14851 H 1367.69 -0.062614 -7.72775 0
M  V30 14852 H 1366.04 -0.0493606 -6.94982 0
M  V30 14853 H 1369.23 0.256847 -4.67395 0
M  V30 14854 H 1369.4 0.103013 -6.47918 0
M  V30 14855 N 1362.81 1.55714 0.243056 0
M  V30 14856 C 1364.05 1.79491 0.977867 0
M  V30 14857 C 1364.41 0.600239 1.82376 0
M  V30 14858 O 1365.61 0.716857 2.59065 0
M  V30 14859 C 1363.88 3.08034 1.81245 0
M  V30 14860 S 1365.44 3.53046 2.60583 0
M  V30 14861 H 1362.26 0.630377 0.328855 0
M  V30 14862 H 1364.86 1.93954 0.245371 0
M  V30 14863 H 1363.57 3.93047 1.18079 0
M  V30 14864 H 1363.1 2.9632 2.58763 0
M  V30 14865 H 1365.11 3.14683 3.83652 0
M  V30 14866 N 1364.29 -0.50888 1.49158 0
M  V30 14867 C 1365.22 -1.62778 1.61356 0
M  V30 14868 C 1366.23 -1.55039 0.496653 0
M  V30 14869 O 1367.42 -1.61115 0.768386 0
M  V30 14870 C 1364.52 -3.01534 1.54694 0
M  V30 14871 C 1363.69 -3.34539 2.81785 0
M  V30 14872 C 1362.75 -4.5267 2.68283 0
M  V30 14873 O 1361.78 -4.54844 3.42207 0
M  V30 14874 N 1362.98 -5.52115 1.79303 0
M  V30 14875 H 1365.75 -1.52744 2.57855 0
M  V30 14876 H 1363.31 -0.696597 1.46148 0
M  V30 14877 H 1365.3 -3.7847 1.43327 0
M  V30 14878 H 1363.87 -3.05535 0.660849 0
M  V30 14879 H 1363.09 -2.46576 3.07561 0
M  V30 14880 H 1364.38 -3.53384 3.66057 0
M  V30 14881 H 1363.77 -5.53153 1.18485 0
M  V30 14882 H 1362.33 -6.28184 1.73863 0
M  V30 14883 N 1365.76 -1.381 -0.759346 0
M  V30 14884 C 1366.67 -1.37086 -1.9038 0
M  V30 14885 C 1367.69 -0.268738 -1.71912 0
M  V30 14886 O 1368.87 -0.506205 -1.94935 0
M  V30 14887 C 1365.93 -1.18905 -3.25672 0
M  V30 14888 C 1364.99 -2.3887 -3.56707 0
M  V30 14889 C 1364.23 -2.21546 -4.85544 0
M  V30 14890 O 1364.45 -1.20616 -5.57501 0
M  V30 14891 O 1363.38 -3.10009 -5.15924 0
M  V30 14892 H 1367.21 -2.33505 -1.94188 0
M  V30 14893 H 1364.79 -1.18959 -0.903826 0
M  V30 14894 H 1366.68 -1.10803 -4.06572 0
M  V30 14895 H 1365.35 -0.255675 -3.22689 0
M  V30 14896 H 1364.26 -2.52546 -2.75992 0
M  V30 14897 H 1365.59 -3.30817 -3.64446 0
M  V30 14898 N 1367.24 0.986894 -1.22875 0
M  V30 14899 C 1368.17 2.09628 -1.0285 0
M  V30 14900 C 1369.15 1.70019 0.0525118 0
M  V30 14901 O 1370.34 1.93883 -0.110874 0
M  V30 14902 C 1367.47 3.41866 -0.61194 0
M  V30 14903 C 1366.42 3.95351 -1.63956 0
M  V30 14904 C 1365.75 5.23707 -1.07865 0
M  V30 14905 C 1367.05 4.25354 -3.03102 0
M  V30 14906 H 1368.74 2.26639 -1.95641 0
M  V30 14907 H 1366.29 1.0891 -0.942048 0
M  V30 14908 H 1368.24 4.18893 -0.458936 0
M  V30 14909 H 1366.97 3.24701 0.35164 0
M  V30 14910 H 1365.62 3.20462 -1.78045 0
M  V30 14911 H 1365.27 5.02888 -0.106246 0
M  V30 14912 H 1364.97 5.60459 -1.76522 0
M  V30 14913 H 1366.5 6.03362 -0.937359 0
M  V30 14914 H 1367.91 4.93156 -2.92353 0
M  V30 14915 H 1366.31 4.73292 -3.68938 0
M  V30 14916 H 1367.38 3.32887 -3.52583 0
M  V30 14917 N 1368.72 1.0394 1.18466 0
M  V30 14918 C 1369.97 0.742042 1.88414 0
M  V30 14919 C 1370.3 -0.730138 1.80275 0
M  V30 14920 O 1369.55 -1.54844 1.19674 0
M  V30 14921 C 1369.85 1.15198 3.38326 0
M  V30 14922 C 1369.52 2.62422 3.66668 0
M  V30 14923 C 1368.18 3.02643 3.74113 0
M  V30 14924 C 1370.53 3.5762 3.79153 0
M  V30 14925 C 1367.86 4.36953 3.91522 0
M  V30 14926 C 1370.21 4.91647 3.98077 0
M  V30 14927 C 1368.87 5.31541 4.03758 0
M  V30 14928 H 1368.14 0.271532 0.689457 0
M  V30 14929 H 1370.79 1.30419 1.40225 0
M  V30 14930 H 1369.1 0.508607 3.88485 0
M  V30 14931 H 1370.79 0.899269 3.90787 0
M  V30 14932 H 1367.38 2.30268 3.61489 0
M  V30 14933 H 1371.57 3.27693 3.72735 0
M  V30 14934 H 1366.82 4.67382 3.94163 0
M  V30 14935 H 1371 5.65318 4.0668 0
M  V30 14936 H 1368.62 6.35622 4.16999 0
M  V30 14937 N 1370.2 -1.34667 0.818693 0
M  V30 14938 C 1371.48 -1.92838 0.327521 0
M  V30 14939 C 1371.86 -1.74732 -1.18457 0
M  V30 14940 O 1371.2 -1.12352 -1.98971 0
M  V30 14941 C 1371.41 -3.40797 0.752207 0
M  V30 14942 C 1372.76 -4.17948 0.748613 0
M  V30 14943 O 1373.79 -3.49364 0.694517 0
M  V30 14944 O 1372.64 -5.40344 0.817958 0
M  V30 14945 H 1369.74 -0.822249 0.0885148 0
M  V30 14946 H 1372.28 -1.43668 0.9032 0
M  V30 14947 H 1371.06 -3.47759 1.79387 0
M  V30 14948 H 1370.68 -3.97309 0.151992 0
M  V30 14949 N 1371.68 -0.573274 -1.46804 0
M  V30 14950 C 1372.64 0.155066 -2.28675 0
M  V30 14951 C 1373.64 0.827706 -1.37861 0
M  V30 14952 O 1374.83 0.681105 -1.60333 0
M  V30 14953 C 1371.96 1.22864 -3.1799 0
M  V30 14954 H 1373.15 -0.564305 -2.94543 0
M  V30 14955 H 1370.71 -0.330855 -1.52758 0
M  V30 14956 H 1371.44 1.97989 -2.56848 0
M  V30 14957 H 1371.23 0.750936 -3.84842 0
M  V30 14958 H 1372.72 1.73974 -3.79635 0
M  V30 14959 N 1373.15 1.5451 -0.310553 0
M  V30 14960 C 1374.1 2.2059 0.576555 0
M  V30 14961 C 1375.09 1.18205 1.09163 0
M  V30 14962 O 1376.28 1.43887 1.03081 0
M  V30 14963 C 1373.41 2.95741 1.74334 0
M  V30 14964 C 1372.5 4.05452 1.24378 0
M  V30 14965 N 1372.89 5.03677 0.462921 0
M  V30 14966 C 1371.18 4.19166 1.52367 0
M  V30 14967 C 1371.89 5.81371 0.195709 0
M  V30 14968 N 1370.86 5.38001 0.778203 0
M  V30 14969 H 1374.66 2.93887 -0.0274771 0
M  V30 14970 H 1372.18 1.61987 -0.115773 0
M  V30 14971 H 1374.17 3.41556 2.39051 0
M  V30 14972 H 1372.83 2.23962 2.35098 0
M  V30 14973 H 1373.85 5.1779 0.106943 0
M  V30 14974 H 1370.52 3.58597 2.1381 0
M  V30 14975 H 1371.91 6.70509 -0.432064 0
M  V30 14976 N 1374.63 0.0384594 1.57553 0
M  V30 14977 C 1375.57 -0.969185 2.077 0
M  V30 14978 C 1376.58 -1.2829 1.00227 0
M  V30 14979 O 1377.77 -1.24592 1.27824 0
M  V30 14980 C 1374.87 -2.29414 2.49444 0
M  V30 14981 C 1374.04 -2.16422 3.80106 0
M  V30 14982 C 1373.1 -3.31931 4.08299 0
M  V30 14983 O 1372.13 -3.08401 4.78412 0
M  V30 14984 N 1373.33 -4.56015 3.59208 0
M  V30 14985 H 1376.09 -0.541252 2.94772 0
M  V30 14986 H 1373.65 -0.148084 1.61221 0
M  V30 14987 H 1375.65 -3.05533 2.6539 0
M  V30 14988 H 1374.22 -2.63817 1.67688 0
M  V30 14989 H 1373.44 -1.24973 3.73866 0
M  V30 14990 H 1374.72 -2.04954 4.65694 0
M  V30 14991 H 1374.12 -4.78025 3.02503 0
M  V30 14992 H 1372.68 -5.29271 3.80415 0
M  V30 14993 N 1376.11 -1.55841 -0.234795 0
M  V30 14994 C 1377.39 -1.69008 -0.984665 0
M  V30 14995 C 1377.77 -0.581882 -2.02922 0
M  V30 14996 O 1377.12 0.412998 -2.24737 0
M  V30 14997 C 1377.33 -3.09796 -1.60708 0
M  V30 14998 C 1378.67 -3.68784 -2.10436 0
M  V30 14999 O 1379.7 -3.12674 -1.70627 0
M  V30 15000 O 1378.56 -4.67175 -2.83567 0
M  V30 15001 H 1375.65 -0.68786 -0.459105 0
M  V30 15002 H 1378.2 -1.68166 -0.227623 0
M  V30 15003 H 1376.97 -3.81908 -0.852169 0
M  V30 15004 H 1376.59 -3.147 -2.43001 0
M  V30 15005 N 1377.59 0.500963 -1.49426 0
M  V30 15006 C 1378.52 1.61114 -1.69011 0
M  V30 15007 C 1379.5 1.61341 -0.538813 0
M  V30 15008 O 1380.69 1.78081 -0.77466 0
M  V30 15009 C 1377.82 2.99598 -1.75666 0
M  V30 15010 C 1376.77 3.14236 -2.90585 0
M  V30 15011 C 1376.1 4.54071 -2.82354 0
M  V30 15012 C 1377.4 2.94258 -4.3152 0
M  V30 15013 H 1379.09 1.44978 -2.61957 0
M  V30 15014 H 1376.64 0.69603 -1.26061 0
M  V30 15015 H 1378.59 3.77163 -1.87953 0
M  V30 15016 H 1377.31 3.16822 -0.793186 0
M  V30 15017 H 1375.97 2.39096 -2.779 0
M  V30 15018 H 1375.62 4.68172 -1.83914 0
M  V30 15019 H 1375.32 4.64806 -3.59485 0
M  V30 15020 H 1376.84 5.33696 -2.96649 0
M  V30 15021 H 1378.26 3.61592 -4.44886 0
M  V30 15022 H 1376.65 3.16464 -5.09873 0
M  V30 15023 H 1377.72 1.90383 -4.45962 0
M  V30 15024 N 1379.07 1.38501 0.752011 0
M  V30 15025 C 1380.02 1.32359 1.85648 0
M  V30 15026 C 1381 0.207578 1.59555 0
M  V30 15027 O 1382.19 0.443683 1.71349 0
M  V30 15028 C 1379.32 1.15253 3.23375 0
M  V30 15029 C 1378.41 2.31483 3.55354 0
M  V30 15030 N 1378.8 3.56929 3.58379 0
M  V30 15031 C 1377.1 2.2407 3.85628 0
M  V30 15032 C 1377.8 4.33691 3.87669 0
M  V30 15033 N 1376.77 3.63065 4.04579 0
M  V30 15034 H 1380.58 2.27336 1.86267 0
M  V30 15035 H 1378.09 1.31755 0.949441 0
M  V30 15036 H 1380.09 1.08937 4.02416 0
M  V30 15037 H 1378.75 0.212108 3.24006 0
M  V30 15038 H 1379.76 3.90578 3.40101 0
M  V30 15039 H 1376.44 1.38196 3.93965 0
M  V30 15040 H 1377.83 5.42349 3.9662 0
M  V30 15041 N 1380.55 -0.980364 1.23396 0
M  V30 15042 C 1381.77 -1.76223 1.09363 0
M  V30 15043 C 1382.2 -1.84801 -0.350759 0
M  V30 15044 O 1381.55 -1.30966 -1.2537 0
M  V30 15045 C 1381.6 -3.16728 1.72383 0
M  V30 15046 O 1380.71 -4.00439 0.986002 0
M  V30 15047 H 1380.05 -0.542174 0.383332 0
M  V30 15048 H 1382.58 -1.23066 1.6345 0
M  V30 15049 H 1382.59 -3.67307 1.77623 0
M  V30 15050 H 1381.26 -3.098 2.77483 0
M  V30 15051 H 1379.84 -3.58946 1.01054 0
M  V30 15052 N 1382.02 -1.04567 -1.17913 0
M  V30 15053 C 1382.93 -0.651674 -2.25367 0
M  V30 15054 C 1383.95 0.32437 -1.7095 0
M  V30 15055 O 1385.13 0.178039 -2.00612 0
M  V30 15056 C 1382.19 -0.0259452 -3.4669 0
M  V30 15057 C 1381.25 -1.05163 -4.1622 0
M  V30 15058 C 1380.48 -0.45567 -5.31751 0
M  V30 15059 O 1380.71 0.736698 -5.65623 0
M  V30 15060 O 1379.64 -1.18684 -5.90083 0
M  V30 15061 H 1383.47 -1.54704 -2.61344 0
M  V30 15062 H 1381.05 -0.816852 -1.25092 0
M  V30 15063 H 1382.93 0.322126 -4.20167 0
M  V30 15064 H 1381.61 0.843165 -3.12526 0
M  V30 15065 H 1380.52 -1.45159 -3.44789 0
M  V30 15066 H 1381.85 -1.89168 -4.54397 0
M  V30 15067 N 1383.5 1.34231 -0.825823 0
M  V30 15068 C 1384.46 2.27776 -0.25512 0
M  V30 15069 C 1385.46 1.50409 0.568654 0
M  V30 15070 O 1386.65 1.69907 0.384337 0
M  V30 15071 C 1383.79 3.348 0.642013 0
M  V30 15072 H 1384.98 2.79763 -1.0804 0
M  V30 15073 H 1382.53 1.44412 -0.597904 0
M  V30 15074 H 1383.27 2.88032 1.49024 0
M  V30 15075 H 1383.05 3.92064 0.0527756 0
M  V30 15076 H 1384.54 4.0457 1.03502 0
M  V30 15077 N 1384.98 0.581051 1.46498 0
M  V30 15078 C 1386.23 0.07442 2.03264 0
M  V30 15079 C 1386.58 -1.27069 1.44469 0
M  V30 15080 O 1385.87 -1.8197 0.599785 0
M  V30 15081 C 1386.07 -0.0514774 3.57363 0
M  V30 15082 C 1385.9 1.27988 4.31102 0
M  V30 15083 C 1384.67 1.85358 4.70075 0
M  V30 15084 C 1386.86 2.20268 4.64743 0
M  V30 15085 N 1384.85 3.1225 5.28558 0
M  V30 15086 C 1386.22 3.31746 5.23779 0
M  V30 15087 C 1388.27 2.19969 4.46675 0
M  V30 15088 C 1386.98 4.43056 5.66652 0
M  V30 15089 C 1389 3.30307 4.90562 0
M  V30 15090 C 1388.36 4.40505 5.49667 0
M  V30 15091 H 1384.46 0.0699705 0.778863 0
M  V30 15092 H 1387.05 0.773585 1.78672 0
M  V30 15093 H 1385.22 -0.719807 3.81672 0
M  V30 15094 H 1386.95 -0.562342 4.00774 0
M  V30 15095 H 1383.7 1.3887 4.52782 0
M  V30 15096 H 1384.13 3.76992 5.62322 0
M  V30 15097 H 1388.77 1.36044 4.00315 0
M  V30 15098 H 1386.49 5.27724 6.11991 0
M  V30 15099 H 1390.07 3.31191 4.78334 0
M  V30 15100 H 1388.95 5.24475 5.83006 0
M  V30 15101 N 1386.46 -1.54343 0.318742 0
M  V30 15102 C 1387.7 -2.0048 -0.285276 0
M  V30 15103 C 1388.03 -1.20698 -1.5252 0
M  V30 15104 O 1387.29 -0.275893 -1.93746 0
M  V30 15105 C 1387.59 -3.51079 -0.669181 0
M  V30 15106 C 1387.25 -4.48433 0.471017 0
M  V30 15107 C 1385.91 -4.74771 0.783985 0
M  V30 15108 C 1388.27 -5.06304 1.23715 0
M  V30 15109 C 1385.59 -5.56239 1.86589 0
M  V30 15110 C 1387.95 -5.88951 2.30911 0
M  V30 15111 C 1386.61 -6.13592 2.62794 0
M  V30 15112 H 1385.88 -0.73361 -0.10439 0
M  V30 15113 H 1388.53 -1.86341 0.441521 0
M  V30 15114 H 1386.83 -3.62921 -1.47633 0
M  V30 15115 H 1388.53 -3.84216 -1.148 0
M  V30 15116 H 1385.12 -4.2805 0.217004 0
M  V30 15117 H 1389.3 -4.85943 1.00862 0
M  V30 15118 H 1384.56 -5.73563 2.11744 0
M  V30 15119 H 1388.73 -6.32814 2.90722 0
M  V30 15120 H 1386.36 -6.76508 3.46757 0
M  V30 15121 N 1387.94 -0.0468143 -1.5753 0
M  V30 15122 C 1388.87 0.927092 -2.14306 0
M  V30 15123 C 1389.85 1.32745 -1.06362 0
M  V30 15124 O 1391.03 1.40293 -1.34281 0
M  V30 15125 C 1388.16 2.20343 -2.68452 0
M  V30 15126 C 1387.12 1.94328 -3.81341 0
M  V30 15127 C 1386.44 3.28379 -4.21985 0
M  V30 15128 C 1387.74 1.26835 -5.06666 0
M  V30 15129 H 1389.44 0.454199 -2.95935 0
M  V30 15130 H 1386.98 0.217029 -1.42355 0
M  V30 15131 H 1388.93 2.8887 -3.0681 0
M  V30 15132 H 1387.66 2.6983 -1.84009 0
M  V30 15133 H 1386.32 1.28214 -3.43448 0
M  V30 15134 H 1385.97 3.75658 -3.34499 0
M  V30 15135 H 1385.67 3.11772 -4.98068 0
M  V30 15136 H 1387.19 3.98145 -4.6294 0
M  V30 15137 H 1388.6 1.85389 -5.42498 0
M  V30 15138 H 1387 1.20569 -5.87863 0
M  V30 15139 H 1388.07 0.243759 -4.84287 0
M  V30 15140 N 1389.41 1.55964 0.226527 0
M  V30 15141 C 1390.66 1.78745 0.95165 0
M  V30 15142 C 1390.99 0.614714 1.84531 0
M  V30 15143 O 1390.24 -0.401137 1.91545 0
M  V30 15144 C 1390.54 3.07235 1.82597 0
M  V30 15145 C 1390.21 4.37627 1.08596 0
M  V30 15146 C 1388.87 4.73057 0.881531 0
M  V30 15147 C 1391.22 5.1815 0.563019 0
M  V30 15148 C 1388.55 5.86528 0.142172 0
M  V30 15149 C 1390.9 6.3239 -0.162972 0
M  V30 15150 C 1389.57 6.66425 -0.378704 0
M  V30 15151 H 1388.84 0.654075 0.348233 0
M  V30 15152 H 1391.48 1.9023 0.220187 0
M  V30 15153 H 1389.79 2.9085 2.62514 0
M  V30 15154 H 1391.49 3.22063 2.38907 0
M  V30 15155 H 1388.08 4.09806 1.25527 0
M  V30 15156 H 1392.26 4.91218 0.708446 0
M  V30 15157 H 1387.52 6.1139 -0.0352481 0
M  V30 15158 H 1391.69 6.94016 -0.575719 0
M  V30 15159 H 1389.32 7.54196 -0.953549 0
M  V30 15160 N 1390.89 -0.493031 1.4969 0
M  V30 15161 C 1391.82 -1.60215 1.69863 0
M  V30 15162 C 1392.8 -1.61053 0.547362 0
M  V30 15163 O 1393.99 -1.77667 0.784093 0
M  V30 15164 C 1391.12 -2.98662 1.77252 0
M  V30 15165 C 1390.07 -3.1269 2.92248 0
M  V30 15166 C 1389.4 -4.52567 2.84758 0
M  V30 15167 C 1390.7 -2.91965 4.33074 0
M  V30 15168 H 1392.39 -1.43587 2.62723 0
M  V30 15169 H 1389.94 -0.689334 1.26429 0
M  V30 15170 H 1391.89 -3.7616 1.89951 0
M  V30 15171 H 1390.62 -3.16397 0.809976 0
M  V30 15172 H 1389.27 -2.37619 2.79164 0
M  V30 15173 H 1388.92 -4.6719 1.86394 0
M  V30 15174 H 1388.62 -4.62893 3.61944 0
M  V30 15175 H 1390.15 -5.32116 2.99475 0
M  V30 15176 H 1391.56 -3.59228 4.46798 0
M  V30 15177 H 1389.96 -3.13756 5.11544 0
M  V30 15178 H 1391.03 -1.88015 4.46966 0
M  V30 15179 N 1392.37 -1.38898 -0.744656 0
M  V30 15180 C 1393.6 -1.38848 -1.53391 0
M  V30 15181 C 1394.01 0.0194949 -1.8879 0
M  V30 15182 O 1393.37 0.988399 -1.53417 0
M  V30 15183 C 1393.42 -2.25243 -2.8275 0
M  V30 15184 O 1393.14 -3.60557 -2.48858 0
M  V30 15185 C 1394.64 -2.33471 -3.76837 0
M  V30 15186 H 1391.86 -0.4746 -0.474338 0
M  V30 15187 H 1394.41 -1.82591 -0.920902 0
M  V30 15188 H 1392.56 -1.84938 -3.40407 0
M  V30 15189 H 1392.98 -4.06142 -3.31887 0
M  V30 15190 H 1394.45 -2.9819 -4.64528 0
M  V30 15191 H 1394.93 -1.351 -4.17905 0
M  V30 15192 H 1395.53 -2.74205 -3.25103 0
M  V30 15193 N 1393.85 0.973806 -1.23914 0
M  V30 15194 C 1395.08 1.75107 -1.10206 0
M  V30 15195 C 1395.49 1.85604 0.345935 0
M  V30 15196 O 1394.85 1.33996 1.239 0
M  V30 15197 C 1394.9 3.17466 -1.72909 0
M  V30 15198 O 1394.62 3.07504 -3.12047 0
M  V30 15199 C 1396.12 4.11557 -1.6473 0
M  V30 15200 H 1393.34 0.549318 -0.385345 0
M  V30 15201 H 1395.89 1.22301 -1.63898 0
M  V30 15202 H 1394.04 3.67277 -1.23234 0
M  V30 15203 H 1394.45 3.97169 -3.42575 0
M  V30 15204 H 1395.93 5.09126 -2.13295 0
M  V30 15205 H 1396.41 4.3498 -0.607352 0
M  V30 15206 H 1397.01 3.67653 -2.13802 0
M  V30 15207 N 1395.33 1.05191 1.17357 0
M  V30 15208 C 1396.55 0.782343 1.92079 0
M  V30 15209 C 1396.98 -0.655957 1.76292 0
M  V30 15210 O 1396.33 -1.45573 1.08065 0
M  V30 15211 C 1396.38 1.16777 3.41168 0
M  V30 15212 O 1395.49 0.299908 4.11308 0
M  V30 15213 H 1394.83 0.286894 0.598822 0
M  V30 15214 H 1397.36 1.40476 1.48754 0
M  V30 15215 H 1397.37 1.13454 3.91909 0
M  V30 15216 H 1396.04 2.2155 3.51978 0
M  V30 15217 H 1394.62 0.393744 3.70815 0
M  V30 15218 N 1396.8 -1.33791 0.83293 0
M  V30 15219 C 1398.22 -1.50893 0.519955 0
M  V30 15220 C 1398.42 -1.7749 -0.953919 0
M  V30 15221 O 1397.48 -1.83168 -1.73798 0
M  V30 15222 C 1398.79 -2.66741 1.38815 0
M  V30 15223 C 1400.34 -2.80625 1.38631 0
M  V30 15224 C 1400.81 -3.99528 2.23922 0
M  V30 15225 N 1402.3 -4.06753 2.21599 0
M  V30 15226 C 1403.04 -4.97937 2.84335 0
M  V30 15227 N 1402.53 -5.94276 3.561 0
M  V30 15228 N 1404.33 -4.90887 2.73837 0
M  V30 15229 H 1396.48 -1.14788 1.7871 0
M  V30 15230 H 1398.74 -0.563822 0.762108 0
M  V30 15231 H 1398.45 -2.53748 2.43525 0
M  V30 15232 H 1398.32 -3.62001 1.05996 0
M  V30 15233 H 1400.71 -2.93053 0.346951 0
M  V30 15234 H 1400.79 -1.86144 1.75454 0
M  V30 15235 H 1400.43 -3.8786 3.27914 0
M  V30 15236 H 1400.36 -4.93242 1.84444 0
M  V30 15237 H 1402.85 -3.37802 1.69406 0
M  V30 15238 H 1403.17 -6.60504 4.01191 0
M  V30 15239 H 1401.51 -5.9437 3.60207 0
M  V30 15240 H 1404.7 -4.14586 2.17338 0
M  V30 15241 H 1404.88 -5.61752 3.23014 0
M  V30 15242 N 1398.28 -0.588812 -1.46187 0
M  V30 15243 C 1399.53 -0.0851986 -2.03221 0
M  V30 15244 C 1399.88 1.26301 -1.45141 0
M  V30 15245 O 1399.18 1.8165 -0.609427 0
M  V30 15246 C 1399.37 0.0325249 -3.57385 0
M  V30 15247 C 1399.2 -1.30272 -4.30418 0
M  V30 15248 C 1397.97 -1.87848 -4.69085 0
M  V30 15249 C 1400.17 -2.2273 -4.63569 0
M  V30 15250 N 1398.15 -3.15048 -5.26894 0
M  V30 15251 C 1399.52 -3.34519 -5.22012 0
M  V30 15252 C 1401.58 -2.22334 -4.45502 0
M  V30 15253 C 1400.28 -4.46054 -5.64294 0
M  V30 15254 C 1402.3 -3.32904 -4.88804 0
M  V30 15255 C 1401.67 -4.43414 -5.47324 0
M  V30 15256 H 1397.77 -0.0741 -0.778481 0
M  V30 15257 H 1400.35 -0.783049 -1.78259 0
M  V30 15258 H 1398.52 0.699556 -3.82048 0
M  V30 15259 H 1400.25 0.54108 -4.01067 0
M  V30 15260 H 1397.01 -1.4127 -4.5204 0
M  V30 15261 H 1397.43 -3.79969 -5.60315 0
M  V30 15262 H 1402.07 -1.38165 -3.99588 0
M  V30 15263 H 1399.79 -5.30963 -6.09183 0
M  V30 15264 H 1403.38 -3.33723 -4.76571 0
M  V30 15265 H 1402.26 -5.27559 -5.80216 0
M  V30 15266 N 1399.76 1.54172 -0.326923 0
M  V30 15267 C 1401.01 2.00629 0.274641 0
M  V30 15268 C 1401.34 1.21505 1.51878 0
M  V30 15269 O 1400.59 0.286164 1.93596 0
M  V30 15270 C 1400.89 3.51429 0.650553 0
M  V30 15271 C 1400.56 4.48177 -0.494792 0
M  V30 15272 C 1399.22 4.74348 -0.809153 0
M  V30 15273 C 1401.57 5.05641 -1.26398 0
M  V30 15274 C 1398.9 5.55241 -1.89536 0
M  V30 15275 C 1401.25 5.87718 -2.34031 0
M  V30 15276 C 1399.91 6.1219 -2.66045 0
M  V30 15277 H 1399.18 0.734153 0.100498 0
M  V30 15278 H 1401.83 1.86104 -0.451397 0
M  V30 15279 H 1400.14 3.63699 1.45706 0
M  V30 15280 H 1401.83 3.84819 1.12761 0
M  V30 15281 H 1398.42 4.27929 -0.239701 0
M  V30 15282 H 1402.61 4.85401 -1.03437 0
M  V30 15283 H 1397.86 5.72432 -2.14783 0
M  V30 15284 H 1402.04 6.31264 -2.94074 0
M  V30 15285 H 1399.66 6.7466 -3.5034 0
M  V30 15286 N 1401.24 0.0551678 1.57503 0
M  V30 15287 C 1402.2 -0.903065 2.10659 0
M  V30 15288 C 1403.2 -1.23728 1.02703 0
M  V30 15289 O 1404.39 -1.17331 1.2876 0
M  V30 15290 C 1401.52 -2.21171 2.59415 0
M  V30 15291 H 1402.72 -0.442197 2.96622 0
M  V30 15292 H 1400.27 -0.193297 1.551 0
M  V30 15293 H 1401 -2.71831 1.76858 0
M  V30 15294 H 1400.79 -1.98216 3.38309 0
M  V30 15295 H 1402.28 -2.89802 3.00674 0
M  V30 15296 N 1402.72 -1.56081 -0.218252 0
M  V30 15297 C 1403.96 -1.79513 -0.943553 0
M  V30 15298 C 1404.3 -0.625367 -1.83855 0
M  V30 15299 O 1403.57 0.375226 -1.90846 0
M  V30 15300 C 1403.85 -3.13049 -1.77967 0
M  V30 15301 C 1403.71 -4.40479 -0.910939 0
M  V30 15302 C 1405.03 -3.43057 -2.7568 0
M  V30 15303 H 1402.14 -0.653057 -0.341593 0
M  V30 15304 H 1404.79 -1.88811 -0.212226 0
M  V30 15305 H 1402.94 -3.05254 -2.40318 0
M  V30 15306 H 1404.61 -4.60298 -0.303922 0
M  V30 15307 H 1402.85 -4.33259 -0.216513 0
M  V30 15308 H 1403.52 -5.3036 -1.53042 0
M  V30 15309 H 1406 -3.51002 -2.23465 0
M  V30 15310 H 1404.87 -4.37657 -3.31282 0
M  V30 15311 H 1405.14 -2.65389 -3.53584 0
M  V30 15312 N 1404.2 0.485086 -1.49949 0
M  V30 15313 C 1405.61 0.817651 -1.37064 0
M  V30 15314 C 1405.81 1.9716 -0.415949 0
M  V30 15315 O 1404.87 2.52074 0.146567 0
M  V30 15316 C 1406.18 1.14288 -2.78134 0
M  V30 15317 C 1407.73 1.25016 -2.8695 0
M  V30 15318 C 1408.2 1.60859 -4.28822 0
M  V30 15319 N 1409.69 1.67878 -4.31707 0
M  V30 15320 C 1410.43 1.97089 -5.38464 0
M  V30 15321 N 1409.93 2.24415 -6.55446 0
M  V30 15322 N 1411.72 1.98474 -5.25894 0
M  V30 15323 H 1403.87 -0.275606 -2.10604 0
M  V30 15324 H 1406.13 -0.0607486 -0.946052 0
M  V30 15325 H 1405.84 0.36817 -3.49768 0
M  V30 15326 H 1405.71 2.0825 -3.14502 0
M  V30 15327 H 1408.1 2.01556 -2.15544 0
M  V30 15328 H 1408.18 0.290664 -2.54143 0
M  V30 15329 H 1407.82 0.848639 -5.0076 0
M  V30 15330 H 1407.75 2.57936 -4.59104 0
M  V30 15331 H 1410.25 1.48856 -3.47347 0
M  V30 15332 H 1410.56 2.45938 -7.32622 0
M  V30 15333 H 1408.9 2.21837 -6.58645 0
M  V30 15334 H 1412.09 1.76612 -4.33504 0
M  V30 15335 H 1412.27 2.20904 -6.09184 0
M  V30 15336 N 1405.67 1.39291 0.737279 0
M  V30 15337 C 1406.6 1.40562 1.86452 0
M  V30 15338 C 1407.58 0.269283 1.67955 0
M  V30 15339 O 1408.77 0.474769 1.88307 0
M  V30 15340 C 1405.9 1.2461 3.24175 0
M  V30 15341 C 1404.85 2.35619 3.57306 0
M  V30 15342 C 1404.18 2.04758 4.93941 0
M  V30 15343 C 1405.48 3.77927 3.60512 0
M  V30 15344 H 1407.17 2.34896 1.85646 0
M  V30 15345 H 1404.72 1.13065 0.891756 0
M  V30 15346 H 1406.67 1.2412 4.02706 0
M  V30 15347 H 1405.4 0.267438 3.25503 0
M  V30 15348 H 1404.06 2.35322 2.81104 0
M  V30 15349 H 1403.7 1.05336 4.91847 0
M  V30 15350 H 1403.4 2.79117 5.17076 0
M  V30 15351 H 1404.93 2.05915 5.74832 0
M  V30 15352 H 1406.34 3.80166 4.29123 0
M  V30 15353 H 1404.74 4.51626 3.95164 0
M  V30 15354 H 1405.81 4.09068 2.60368 0
M  V30 15355 N 1407.15 -0.967221 1.24429 0
M  V30 15356 C 1408.43 -1.68564 0.992253 0
M  V30 15357 C 1408.81 -2.05446 -0.485301 0
M  V30 15358 O 1408.16 -1.75798 -1.45971 0
M  V30 15359 C 1408.37 -2.91728 1.91562 0
M  V30 15360 C 1409.71 -3.63957 2.18678 0
M  V30 15361 O 1410.74 -3.01786 1.89219 0
M  V30 15362 O 1409.6 -4.75875 2.68711 0
M  V30 15363 H 1406.69 -0.736939 0.375299 0
M  V30 15364 H 1409.24 -1.02127 1.35529 0
M  V30 15365 H 1408.01 -2.61168 2.91388 0
M  V30 15366 H 1407.63 -3.65898 1.55577 0
M  V30 15367 N 1408.63 -1.05812 -1.16797 0
M  V30 15368 C 1409.59 -0.668766 -2.19226 0
M  V30 15369 C 1410.59 0.28299 -1.5829 0
M  V30 15370 O 1411.78 0.0660233 -1.74075 0
M  V30 15371 C 1408.91 0.0167379 -3.40896 0
M  V30 15372 H 1410.11 -1.57543 -2.55187 0
M  V30 15373 H 1407.66 -0.852753 -1.30988 0
M  V30 15374 H 1408.4 0.936382 -3.10487 0
M  V30 15375 H 1408.18 -0.667576 -3.86375 0
M  V30 15376 H 1409.67 0.275041 -4.16693 0
M  V30 15377 N 1410.11 1.33347 -0.840014 0
M  V30 15378 C 1411.36 1.97007 -0.432581 0
M  V30 15379 C 1411.67 1.67278 1.01378 0
M  V30 15380 O 1412.88 2.2456 1.52595 0
M  V30 15381 C 1411.33 3.52572 -0.72258 0
M  V30 15382 C 1410.94 3.91176 -2.1837 0
M  V30 15383 C 1412.68 4.22776 -0.382153 0
M  V30 15384 C 1410.59 5.39724 -2.41768 0
M  V30 15385 H 1409.52 0.737255 -0.158024 0
M  V30 15386 H 1412.17 1.5195 -1.02876 0
M  V30 15387 H 1410.55 3.9596 -0.0560179 0
M  V30 15388 H 1411.73 3.58842 -2.89083 0
M  V30 15389 H 1410.04 3.33956 -2.48721 0
M  V30 15390 H 1412.64 5.32021 -0.534588 0
M  V30 15391 H 1412.98 4.10792 0.674967 0
M  V30 15392 H 1413.52 3.84922 -1.004 0
M  V30 15393 H 1410.25 5.56713 -3.4605 0
M  V30 15394 H 1409.77 5.73514 -1.75617 0
M  V30 15395 H 1411.45 6.06624 -2.2498 0
M  V30 15396 N 1411.59 0.596556 1.45873 0
M  V30 15397 C 1412.83 0.090321 2.042 0
M  V30 15398 C 1413.19 -1.25123 1.45631 0
M  V30 15399 O 1414.39 -1.84752 1.95243 0
M  V30 15400 C 1412.66 0.0400377 3.57378 0
M  V30 15401 S 1414.22 -0.40661 4.36912 0
M  V30 15402 H 1411.04 0.0441976 0.709625 0
M  V30 15403 H 1413.64 0.792175 1.78731 0
M  V30 15404 H 1412.34 1.02013 3.97519 0
M  V30 15405 H 1411.88 -0.684156 3.87405 0
M  V30 15406 H 1413.89 -1.65849 4.67663 0
M  V30 15407 N 1413.06 -1.53996 0.335095 0
M  V30 15408 C 1414.03 -2.23385 -0.513015 0
M  V30 15409 C 1415.03 -1.23117 -1.03435 0
M  V30 15410 O 1416.22 -1.47616 -0.924944 0
M  V30 15411 C 1413.35 -2.94691 -1.71377 0
M  V30 15412 H 1414.54 -2.99753 0.0937306 0
M  V30 15413 H 1412.09 -1.56061 0.086326 0
M  V30 15414 H 1412.83 -2.22488 -2.35944 0
M  V30 15415 H 1412.61 -3.68228 -1.34723 0
M  V30 15416 H 1414.1 -3.47525 -2.31552 0
M  V30 15417 N 1414.54 -0.0635198 -1.57472 0
M  V30 15418 C 1415.47 0.942339 -2.07835 0
M  V30 15419 C 1416.45 1.29629 -0.981587 0
M  V30 15420 O 1417.64 1.40702 -1.25439 0
M  V30 15421 C 1414.76 2.25284 -2.52913 0
M  V30 15422 C 1413.81 2.05105 -3.73944 0
M  V30 15423 S 1414.64 1.31802 -5.19026 0
M  V30 15424 C 1415.8 2.64149 -5.67429 0
M  V30 15425 H 1416.03 0.513772 -2.92827 0
M  V30 15426 H 1413.56 0.149049 -1.53679 0
M  V30 15427 H 1415.52 3.00607 -2.79546 0
M  V30 15428 H 1414.18 2.65266 -1.68204 0
M  V30 15429 H 1413.38 3.02071 -4.03447 0
M  V30 15430 H 1412.98 1.3792 -3.47641 0
M  V30 15431 H 1415.27 3.60272 -5.73769 0
M  V30 15432 H 1416.21 2.39267 -6.66451 0
M  V30 15433 H 1416.62 2.70975 -4.9521 0
M  V30 15434 N 1416.02 1.56195 0.209972 0
M  V30 15435 C 1417.27 1.79745 0.932638 0
M  V30 15436 C 1417.59 0.634252 1.83868 0
M  V30 15437 O 1416.85 -0.380798 1.91959 0
M  V30 15438 C 1417.15 3.09154 1.79328 0
M  V30 15439 C 1416.81 4.38754 1.03949 0
M  V30 15440 C 1415.48 4.73965 0.831308 0
M  V30 15441 C 1417.83 5.18718 0.508031 0
M  V30 15442 C 1415.16 5.86646 0.0799547 0
M  V30 15443 C 1417.51 6.32182 -0.230037 0
M  V30 15444 C 1416.17 6.65986 -0.449366 0
M  V30 15445 H 1415.44 0.657732 0.341276 0
M  V30 15446 H 1418.09 1.90453 0.199998 0
M  V30 15447 H 1416.39 2.93618 2.59414 0
M  V30 15448 H 1418.09 3.24578 2.35478 0
M  V30 15449 H 1414.68 4.11114 1.21174 0
M  V30 15450 H 1418.87 4.91941 0.656306 0
M  V30 15451 H 1414.12 6.11318 -0.100092 0
M  V30 15452 H 1418.3 6.93367 -0.649296 0
M  V30 15453 H 1415.92 7.53142 -1.03349 0
M  V30 15454 N 1417.5 -0.477127 1.50204 0
M  V30 15455 C 1418.74 -1.23147 1.6113 0
M  V30 15456 C 1419.08 -1.91743 0.307909 0
M  V30 15457 O 1418.35 -1.81841 -0.690223 0
M  V30 15458 C 1418.63 -2.27985 2.78738 0
M  V30 15459 C 1418.49 -1.63733 4.18941 0
M  V30 15460 C 1419.81 -3.29349 2.9192 0
M  V30 15461 H 1416.93 -0.446358 0.586459 0
M  V30 15462 H 1419.57 -0.52612 1.8257 0
M  V30 15463 H 1417.72 -2.88143 2.60588 0
M  V30 15464 H 1419.39 -1.07218 4.48667 0
M  V30 15465 H 1417.63 -0.940634 4.23479 0
M  V30 15466 H 1418.3 -2.39888 4.9715 0
M  V30 15467 H 1420.78 -2.79208 3.08516 0
M  V30 15468 H 1419.66 -4.0004 3.75845 0
M  V30 15469 H 1419.92 -3.93111 2.02278 0
M  V30 15470 N 1418.98 -1.3968 -0.729882 0
M  V30 15471 C 1420.23 -1.36492 -1.48502 0
M  V30 15472 C 1420.54 0.0346572 -1.95569 0
M  V30 15473 O 1421.74 0.189135 -2.7084 0
M  V30 15474 C 1420.2 -2.39813 -2.68361 0
M  V30 15475 C 1419.81 -3.85511 -2.28222 0
M  V30 15476 C 1421.55 -2.45709 -3.46161 0
M  V30 15477 C 1419.46 -4.80462 -3.44834 0
M  V30 15478 H 1418.39 -0.507455 -0.557679 0
M  V30 15479 H 1421.04 -1.6535 -0.795708 0
M  V30 15480 H 1419.42 -2.04033 -3.39392 0
M  V30 15481 H 1420.6 -4.30359 -1.64704 0
M  V30 15482 H 1418.91 -3.82957 -1.63501 0
M  V30 15483 H 1421.51 -3.1384 -4.32907 0
M  V30 15484 H 1421.85 -1.48318 -3.88983 0
M  V30 15485 H 1422.38 -2.80409 -2.82163 0
M  V30 15486 H 1419.12 -5.79134 -3.07057 0
M  V30 15487 H 1418.64 -4.40289 -4.07315 0
M  V30 15488 H 1420.32 -4.99607 -4.11098 0
M  V30 15489 N 1420.45 0.960609 -1.2494 0
M  V30 15490 C 1421.7 1.69884 -1.08731 0
M  V30 15491 C 1422.02 1.92018 0.372602 0
M  V30 15492 O 1423.22 2.6348 0.655018 0
M  V30 15493 C 1421.68 3.05815 -1.8975 0
M  V30 15494 C 1421.29 2.91498 -3.40196 0
M  V30 15495 C 1423.03 3.83462 -1.82092 0
M  V30 15496 C 1420.94 4.22783 -4.13532 0
M  V30 15497 H 1419.87 0.637087 -0.403281 0
M  V30 15498 H 1422.52 1.06987 -1.49084 0
M  V30 15499 H 1420.9 3.69582 -1.42216 0
M  V30 15500 H 1422.07 2.367 -3.9536 0
M  V30 15501 H 1420.39 2.27312 -3.48882 0
M  V30 15502 H 1422.99 4.8069 -2.34181 0
M  V30 15503 H 1423.33 4.08782 -0.787597 0
M  V30 15504 H 1423.86 3.26435 -2.27344 0
M  V30 15505 H 1420.6 4.02653 -5.17253 0
M  V30 15506 H 1420.12 4.77369 -3.63152 0
M  V30 15507 H 1421.8 4.91361 -4.2092 0
M  V30 15508 N 1421.93 1.0643 1.16234 0
M  V30 15509 C 1423.18 0.782998 1.87075 0
M  V30 15510 C 1423.51 -0.688852 1.81572 0
M  V30 15511 O 1422.79 -1.50478 1.23234 0
M  V30 15512 C 1423.07 1.27997 3.36584 0
M  V30 15513 C 1422.92 2.81568 3.5077 0
M  V30 15514 C 1424.24 0.888975 4.31028 0
M  V30 15515 H 1421.36 0.28591 0.679282 0
M  V30 15516 H 1424 1.32046 1.36615 0
M  V30 15517 H 1422.15 0.822756 3.79688 0
M  V30 15518 H 1423.82 3.35508 3.16595 0
M  V30 15519 H 1422.07 3.2023 2.92635 0
M  V30 15520 H 1422.74 3.11406 4.55774 0
M  V30 15521 H 1425.21 1.28279 3.95833 0
M  V30 15522 H 1424.09 1.26416 5.34144 0
M  V30 15523 H 1424.35 -0.205973 4.4162 0
M  V30 15524 N 1423.41 -1.329 0.847073 0
M  V30 15525 C 1424.37 -2.27341 0.291324 0
M  V30 15526 C 1425.37 -1.51295 -0.544653 0
M  V30 15527 O 1426.56 -1.70497 -0.357258 0
M  V30 15528 C 1423.7 -3.35779 -0.588668 0
M  V30 15529 H 1424.89 -2.78009 1.12477 0
M  V30 15530 H 1422.44 -1.43442 0.620803 0
M  V30 15531 H 1423.18 -2.90366 -1.44423 0
M  V30 15532 H 1422.96 -3.92099 0.00960515 0
M  V30 15533 H 1424.45 -4.06166 -0.970526 0
M  V30 15534 N 1424.89 -0.604284 -1.45555 0
M  V30 15535 C 1426.14 -0.0981861 -2.02262 0
M  V30 15536 C 1426.46 1.27002 -1.47312 0
M  V30 15537 O 1425.72 1.85058 -0.636563 0
M  V30 15538 C 1426.02 -0.00538243 -3.574 0
M  V30 15539 C 1425.68 -1.30881 -4.31487 0
M  V30 15540 C 1424.35 -1.66586 -4.51445 0
M  V30 15541 C 1426.7 -2.17039 -4.7386 0
M  V30 15542 C 1424.03 -2.88207 -5.11032 0
M  V30 15543 C 1426.38 -3.37905 -5.34792 0
M  V30 15544 C 1425.04 -3.73866 -5.52974 0
M  V30 15545 H 1424.31 -0.0359289 -0.740128 0
M  V30 15546 H 1426.96 -0.785241 -1.7466 0
M  V30 15547 H 1425.26 0.764919 -3.84261 0
M  V30 15548 H 1426.96 0.402303 -3.98977 0
M  V30 15549 H 1423.55 -1.0209 -4.16264 0
M  V30 15550 H 1427.73 -1.90754 -4.58177 0
M  V30 15551 H 1422.99 -3.16179 -5.23298 0
M  V30 15552 H 1427.16 -4.0492 -5.6658 0
M  V30 15553 H 1424.79 -4.68194 -5.98914 0
M  V30 15554 N 1426.37 1.53816 -0.343257 0
M  V30 15555 C 1427.61 2.00512 0.252845 0
M  V30 15556 C 1427.94 1.23274 1.51091 0
M  V30 15557 O 1427.21 0.339841 1.9293 0
M  V30 15558 H 1425.79 0.740751 0.0964202 0
M  V30 15559 H 1428.45 1.89288 -0.464347 0
M  V30 15560 H 1427.54 3.08142 0.495499 0
M  V30 15561 N 1427.84 0.0718701 1.57436 0
M  V30 15562 C 1429.07 -0.609701 1.98236 0
M  V30 15563 C 1429.49 -1.6235 0.949959 0
M  V30 15564 O 1428.85 -1.81103 -0.0844281 0
M  V30 15565 C 1428.9 -1.2547 3.38068 0
M  V30 15566 O 1428 -2.37055 3.37459 0
M  V30 15567 H 1427.35 -0.15679 0.645223 0
M  V30 15568 H 1429.88 0.146407 2.04076 0
M  V30 15569 H 1429.89 -1.60152 3.75254 0
M  V30 15570 H 1428.56 -0.511842 4.12738 0
M  V30 15571 H 1427.14 -2.04165 3.12043 0
M  V30 15572 N 1429.32 -1.56304 -0.201686 0
M  V30 15573 C 1430.25 -1.97046 -1.25281 0
M  V30 15574 C 1431.23 -0.841458 -1.47829 0
M  V30 15575 O 1432.42 -1.10529 -1.59678 0
M  V30 15576 C 1429.55 -2.30429 -2.59845 0
M  V30 15577 C 1428.5 -3.46006 -2.5192 0
M  V30 15578 C 1427.83 -3.65047 -3.90697 0
M  V30 15579 C 1429.13 -4.80391 -2.04992 0
M  V30 15580 H 1430.82 -2.85099 -0.914272 0
M  V30 15581 H 1428.37 -1.37166 -0.438359 0
M  V30 15582 H 1430.32 -2.57525 -3.33555 0
M  V30 15583 H 1429.05 -1.39251 -2.95426 0
M  V30 15584 H 1427.7 -3.18991 -1.80667 0
M  V30 15585 H 1427.35 -2.71211 -4.2362 0
M  V30 15586 H 1427.05 -4.42796 -3.86271 0
M  V30 15587 H 1428.58 -3.94512 -4.66039 0
M  V30 15588 H 1429.99 -5.06561 -2.68456 0
M  V30 15589 H 1428.39 -5.61563 -2.11582 0
M  V30 15590 H 1429.46 -4.74416 -1.00288 0
M  V30 15591 N 1430.8 0.469154 -1.50455 0
M  V30 15592 C 1432.05 1.21788 -1.60781 0
M  V30 15593 C 1432.36 1.93054 -0.314576 0
M  V30 15594 O 1433.57 2.69873 -0.296773 0
M  V30 15595 C 1432.02 2.21305 -2.83817 0
M  V30 15596 C 1431.63 1.55833 -4.20024 0
M  V30 15597 C 1433.38 2.96808 -3.03489 0
M  V30 15598 C 1431.28 2.53648 -5.34244 0
M  V30 15599 H 1430.21 0.45827 -0.598752 0
M  V30 15600 H 1432.86 0.488159 -1.76888 0
M  V30 15601 H 1431.25 2.97577 -2.61273 0
M  V30 15602 H 1432.42 0.853371 -4.52829 0
M  V30 15603 H 1430.74 0.926046 -4.05972 0
M  V30 15604 H 1433.33 3.70017 -3.85994 0
M  V30 15605 H 1433.68 3.56307 -2.15293 0
M  V30 15606 H 1434.21 2.27648 -3.26223 0
M  V30 15607 H 1430.95 1.98885 -6.246 0
M  V30 15608 H 1430.47 3.22291 -5.05854 0
M  V30 15609 H 1432.15 3.15438 -5.64897 0
M  V30 15610 N 1432.28 1.40065 0.722464 0
M  V30 15611 C 1433.21 1.42532 1.84951 0
M  V30 15612 C 1434.19 0.287082 1.6766 0
M  V30 15613 O 1435.37 0.494715 1.87793 0
M  V30 15614 C 1432.5 1.28041 3.22836 0
M  V30 15615 C 1431.46 2.39396 3.54787 0
M  V30 15616 C 1430.78 2.09986 4.91742 0
M  V30 15617 C 1432.08 3.81729 3.56483 0
M  V30 15618 H 1433.78 2.36851 1.83144 0
M  V30 15619 H 1431.32 1.14005 0.879714 0
M  V30 15620 H 1433.28 1.28385 4.01367 0
M  V30 15621 H 1432 0.301947 3.25201 0
M  V30 15622 H 1430.66 2.3829 2.78592 0
M  V30 15623 H 1430.31 1.10547 4.90702 0
M  V30 15624 H 1430.01 2.84586 5.14086 0
M  V30 15625 H 1431.53 2.12 5.72615 0
M  V30 15626 H 1432.95 3.84696 4.25067 0
M  V30 15627 H 1431.34 4.55791 3.90351 0
M  V30 15628 H 1432.41 4.11807 2.56014 0
M  V30 15629 N 1433.76 -0.95397 1.25448 0
M  V30 15630 C 1434.72 -2.03231 1.0597 0
M  V30 15631 C 1435.72 -1.60795 0.0122855 0
M  V30 15632 O 1436.91 -1.7233 0.254533 0
M  V30 15633 C 1434.04 -3.35414 0.609105 0
M  V30 15634 H 1435.24 -2.21943 2.01696 0
M  V30 15635 H 1432.79 -1.13115 1.07864 0
M  V30 15636 H 1433.52 -3.22398 -0.350723 0
M  V30 15637 H 1433.31 -3.67564 1.36526 0
M  V30 15638 H 1434.8 -4.14664 0.49428 0
M  V30 15639 N 1435.24 -1.07045 -1.15668 0
M  V30 15640 C 1436.18 -0.688004 -2.20307 0
M  V30 15641 C 1437.15 0.319081 -1.63006 0
M  V30 15642 O 1438.34 0.206239 -1.89682 0
M  V30 15643 C 1435.48 -0.0886692 -3.44986 0
M  V30 15644 C 1434.59 -1.14685 -4.16499 0
M  V30 15645 C 1433.73 -0.512852 -5.28719 0
M  V30 15646 C 1432.76 -1.55404 -5.92044 0
M  V30 15647 N 1431.9 -0.942848 -6.9574 0
M  V30 15648 H 1436.74 -1.58469 -2.52372 0
M  V30 15649 H 1434.28 -0.792184 -1.23947 0
M  V30 15650 H 1436.24 0.276415 -4.16283 0
M  V30 15651 H 1434.87 0.77139 -3.13448 0
M  V30 15652 H 1433.92 -1.62955 -3.43729 0
M  V30 15653 H 1435.23 -1.93643 -4.59678 0
M  V30 15654 H 1434.38 -0.0952274 -6.06625 0
M  V30 15655 H 1433.12 0.308524 -4.86723 0
M  V30 15656 H 1432.13 -1.98148 -5.12852 0
M  V30 15657 H 1433.35 -2.37765 -6.36117 0
M  V30 15658 H 1431.3 -0.142319 -6.55846 0
M  V30 15659 H 1431.22 -1.6697 -7.37331 0
M  V30 15660 H 1432.48 -0.550621 -7.77553 0
M  V30 15661 N 1436.71 1.32449 -0.85411 0
M  V30 15662 C 1437.94 2.01463 -0.471188 0
M  V30 15663 C 1438.36 1.64195 0.931954 0
M  V30 15664 O 1437.71 0.862994 1.60806 0
M  V30 15665 C 1437.76 3.56486 -0.600022 0
M  V30 15666 O 1437.49 3.92414 -1.94789 0
M  V30 15667 C 1438.99 4.42773 -0.216036 0
M  V30 15668 H 1436.21 0.644914 -0.185275 0
M  V30 15669 H 1438.75 1.6904 -1.1509 0
M  V30 15670 H 1436.91 3.87387 0.0319488 0
M  V30 15671 H 1437.32 4.87133 -1.94427 0
M  V30 15672 H 1438.79 5.50843 -0.357186 0
M  V30 15673 H 1439.27 4.31025 0.843468 0
M  V30 15674 H 1439.88 4.1726 -0.823058 0
M  V30 15675 N 1438.19 0.611994 1.45232 0
M  V30 15676 C 1439.12 -0.0914869 2.33321 0
M  V30 15677 C 1440.1 -0.854315 1.4709 0
M  V30 15678 O 1441.29 -0.823994 1.75852 0
M  V30 15679 C 1438.42 -1.08652 3.29867 0
M  V30 15680 C 1437.37 -0.436615 4.25767 0
M  V30 15681 C 1436.7 -1.54021 5.12037 0
M  V30 15682 C 1438 0.645005 5.18302 0
M  V30 15683 H 1439.69 0.644053 2.92391 0
M  V30 15684 H 1437.24 0.311171 1.40598 0
M  V30 15685 H 1439.19 -1.58726 3.90364 0
M  V30 15686 H 1437.91 -1.85271 2.68965 0
M  V30 15687 H 1436.57 0.0432918 3.66574 0
M  V30 15688 H 1436.22 -2.29679 4.475 0
M  V30 15689 H 1435.92 -1.11084 5.77005 0
M  V30 15690 H 1437.45 -2.04313 5.75403 0
M  V30 15691 H 1438.86 0.228166 5.72846 0
M  V30 15692 H 1437.26 0.996387 5.9177 0
M  V30 15693 H 1438.33 1.51985 4.60466 0
M  V30 15694 N 1439.67 -1.53632 0.351409 0
M  V30 15695 C 1440.95 -1.93311 -0.298362 0
M  V30 15696 C 1441.33 -1.28369 -1.67584 0
M  V30 15697 O 1440.67 -0.437514 -2.24272 0
M  V30 15698 C 1440.88 -3.47109 -0.362773 0
M  V30 15699 C 1442.23 -4.20197 -0.609878 0
M  V30 15700 O 1443.26 -3.53415 -0.444566 0
M  V30 15701 O 1442.12 -5.38517 -0.930691 0
M  V30 15702 H 1439.21 -0.808112 -0.175739 0
M  V30 15703 H 1441.76 -1.64841 0.40316 0
M  V30 15704 H 1440.53 -3.86617 0.60357 0
M  V30 15705 H 1440.15 -3.81769 -1.11076 0
M  V30 15706 N 1441.15 -0.0802183 -1.57396 0
M  V30 15707 C 1442.11 0.869437 -2.12069 0
M  V30 15708 C 1443.11 1.22079 -1.04658 0
M  V30 15709 O 1444.3 1.15267 -1.3061 0
M  V30 15710 C 1441.43 2.17016 -2.62901 0
M  V30 15711 H 1442.63 0.394952 -2.97288 0
M  V30 15712 H 1440.18 0.168597 -1.55388 0
M  V30 15713 H 1440.91 2.68983 -1.8116 0
M  V30 15714 H 1440.7 1.92808 -3.4142 0
M  V30 15715 H 1442.19 2.84982 -3.05246 0
M  V30 15716 N 1442.63 1.56409 0.193394 0
M  V30 15717 C 1443.87 1.80367 0.911717 0
M  V30 15718 C 1444.19 0.653561 1.83721 0
M  V30 15719 O 1443.46 -0.328001 1.93135 0
M  V30 15720 H 1442.04 0.665316 0.339652 0
M  V30 15721 H 1444.71 1.93887 0.198496 0
M  V30 15722 H 1443.8 2.7359 1.50182 0
M  V30 15723 N 1444.1 -0.461169 1.50702 0
M  V30 15724 C 1445.04 -1.57562 1.66453 0
M  V30 15725 C 1446.05 -1.53381 0.545726 0
M  V30 15726 O 1447.24 -1.58589 0.819254 0
M  V30 15727 C 1444.34 -2.9646 1.64209 0
M  V30 15728 C 1443.51 -3.25405 2.92285 0
M  V30 15729 C 1442.57 -4.43906 2.82549 0
M  V30 15730 O 1441.6 -4.43726 3.56505 0
M  V30 15731 N 1442.8 -5.46131 1.96777 0
M  V30 15732 H 1445.56 -1.44463 2.62584 0
M  V30 15733 H 1443.12 -0.649749 1.4829 0
M  V30 15734 H 1445.12 -3.73719 1.55295 0
M  V30 15735 H 1443.69 -3.03278 0.757718 0
M  V30 15736 H 1442.91 -2.36666 3.1525 0
M  V30 15737 H 1444.19 -3.41559 3.77114 0
M  V30 15738 H 1443.59 -5.49103 1.36023 0
M  V30 15739 H 1442.15 -6.22335 1.9376 0
M  V30 15740 N 1445.58 -1.40446 -0.715026 0
M  V30 15741 C 1446.83 -1.3896 -1.47709 0
M  V30 15742 C 1447.16 0.00798698 -1.94198 0
M  V30 15743 O 1446.44 0.976732 -1.68197 0
M  V30 15744 C 1446.72 -2.37955 -2.70277 0
M  V30 15745 C 1446.57 -3.8674 -2.29678 0
M  V30 15746 C 1447.89 -2.34478 -3.72435 0
M  V30 15747 H 1445.01 -0.50607 -0.535782 0
M  V30 15748 H 1447.65 -1.71585 -0.815999 0
M  V30 15749 H 1445.8 -2.10264 -3.26682 0
M  V30 15750 H 1447.47 -4.2526 -1.7875 0
M  V30 15751 H 1445.72 -4.02547 -1.61674 0
M  V30 15752 H 1446.39 -4.51524 -3.17538 0
M  V30 15753 H 1448.86 -2.59007 -3.2566 0
M  V30 15754 H 1447.74 -3.05791 -4.55832 0
M  V30 15755 H 1448 -1.35661 -4.20771 0
M  V30 15756 N 1447.06 0.947303 -1.25952 0
M  V30 15757 C 1448.31 1.68945 -1.10915 0
M  V30 15758 C 1448.63 1.91848 0.349216 0
M  V30 15759 O 1447.9 1.5108 1.24706 0
M  V30 15760 H 1446.48 0.626086 -0.407462 0
M  V30 15761 H 1449.14 1.13854 -1.58187 0
M  V30 15762 H 1448.24 2.6657 -1.62317 0
M  V30 15763 N 1448.54 1.07657 1.15099 0
M  V30 15764 C 1449.47 0.721201 2.22083 0
M  V30 15765 C 1450.45 -0.292808 1.67561 0
M  V30 15766 O 1451.63 -0.164872 1.93499 0
M  V30 15767 C 1448.76 0.12153 3.47087 0
M  V30 15768 C 1447.72 1.06303 4.14588 0
M  V30 15769 C 1447.04 0.325964 5.33706 0
M  V30 15770 C 1448.34 2.39796 4.63999 0
M  V30 15771 H 1450.04 1.61566 2.52065 0
M  V30 15772 H 1447.58 0.778282 1.21156 0
M  V30 15773 H 1449.54 -0.139037 4.21171 0
M  V30 15774 H 1448.26 -0.808022 3.16447 0
M  V30 15775 H 1446.92 1.30858 3.4245 0
M  V30 15776 H 1446.57 -0.607147 4.99322 0
M  V30 15777 H 1446.27 0.953552 5.79811 0
M  V30 15778 H 1447.79 0.0732695 6.10556 0
M  V30 15779 H 1449.21 2.19552 5.29594 0
M  V30 15780 H 1447.6 2.98178 5.20778 0
M  V30 15781 H 1448.67 3.01876 3.79472 0
M  V30 15782 N 1450.02 -1.31994 0.861122 0
M  V30 15783 C 1450.98 -2.27019 0.315421 0
M  V30 15784 C 1451.98 -1.51864 -0.528575 0
M  V30 15785 O 1453.17 -1.70867 -0.339154 0
M  V30 15786 C 1450.3 -3.36384 -0.553021 0
M  V30 15787 H 1451.49 -2.768 1.1542 0
M  V30 15788 H 1449.05 -1.42776 0.635982 0
M  V30 15789 H 1449.78 -2.91882 -1.41335 0
M  V30 15790 H 1449.57 -3.92067 0.0511919 0
M  V30 15791 H 1451.06 -4.07172 -0.927392 0
M  V30 15792 N 1451.49 -0.619688 -1.44906 0
M  V30 15793 C 1452.42 0.0791121 -2.33366 0
M  V30 15794 C 1453.41 0.846503 -1.47541 0
M  V30 15795 O 1454.59 0.814657 -1.76287 0
M  V30 15796 C 1451.72 1.06901 -3.30438 0
M  V30 15797 C 1450.67 0.41403 -4.25993 0
M  V30 15798 C 1450 1.51303 -5.12846 0
M  V30 15799 C 1451.3 -0.672483 -5.17953 0
M  V30 15800 H 1452.99 -0.659551 -2.92045 0
M  V30 15801 H 1450.54 -0.318623 -1.40431 0
M  V30 15802 H 1452.49 1.56653 -3.912 0
M  V30 15803 H 1451.22 1.83842 -2.69944 0
M  V30 15804 H 1449.88 -0.0627315 -3.66546 0
M  V30 15805 H 1449.52 2.27303 -4.48712 0
M  V30 15806 H 1449.22 1.08022 -5.77586 0
M  V30 15807 H 1450.75 2.01258 -5.76479 0
M  V30 15808 H 1452.16 -0.258542 -5.72717 0
M  V30 15809 H 1450.56 -1.02776 -5.91234 0
M  V30 15810 H 1451.63 -1.54425 -4.59653 0
M  V30 15811 N 1452.97 1.53444 -0.359552 0
M  V30 15812 C 1454.2 2.06058 0.235576 0
M  V30 15813 C 1454.62 1.23175 1.42161 0
M  V30 15814 O 1453.98 0.249338 1.79577 0
M  V30 15815 C 1454.03 3.55351 0.613025 0
M  V30 15816 O 1453.13 3.75229 1.71104 0
M  V30 15817 H 1452.47 0.663038 0.0357266 0
M  V30 15818 H 1455 1.97923 -0.518408 0
M  V30 15819 H 1455.01 3.9827 0.885722 0
M  V30 15820 H 1453.69 4.15122 -0.254243 0
M  V30 15821 H 1452.27 3.4421 1.43437 0
M  V30 15822 N 1454.45 0.0885642 1.57351 0
M  V30 15823 C 1455.68 -0.584389 1.98163 0
M  V30 15824 C 1456.09 -1.62664 0.966281 0
M  V30 15825 O 1455.43 -1.83623 -0.053226 0
M  V30 15826 C 1455.49 -1.2959 3.35331 0
M  V30 15827 C 1455.16 -0.405168 4.552 0
M  V30 15828 C 1456.15 0.344053 5.1876 0
M  V30 15829 C 1453.84 -0.325136 5.01247 0
M  V30 15830 C 1455.83 1.16135 6.26731 0
M  V30 15831 C 1453.52 0.495821 6.09085 0
M  V30 15832 C 1454.52 1.23772 6.71691 0
M  V30 15833 O 1454.21 2.04511 7.77451 0
M  V30 15834 H 1453.94 -0.161852 0.656338 0
M  V30 15835 H 1456.49 0.162558 2.04756 0
M  V30 15836 H 1454.72 -2.08928 3.25401 0
M  V30 15837 H 1456.41 -1.86274 3.60634 0
M  V30 15838 H 1457.18 0.291916 4.84121 0
M  V30 15839 H 1453.06 -0.892245 4.52283 0
M  V30 15840 H 1456.6 1.74093 6.75528 0
M  V30 15841 H 1452.5 0.549463 6.43157 0
M  V30 15842 H 1453.27 1.97123 7.94409 0
M  V30 15843 N 1455.93 -1.56509 -0.185096 0
M  V30 15844 C 1456.89 -1.94468 -1.21305 0
M  V30 15845 C 1457.89 -0.826838 -1.37913 0
M  V30 15846 O 1459.08 -1.09411 -1.35554 0
M  V30 15847 C 1456.21 -2.22747 -2.58063 0
M  V30 15848 H 1457.41 -2.86442 -0.888323 0
M  V30 15849 H 1454.96 -1.50354 -0.427012 0
M  V30 15850 H 1455.69 -1.33443 -2.95573 0
M  V30 15851 H 1455.48 -3.04215 -2.47378 0
M  V30 15852 H 1456.97 -2.53084 -3.32172 0
M  V30 15853 N 1457.41 0.45317 -1.50944 0
M  V30 15854 C 1458.34 1.55655 -1.74051 0
M  V30 15855 C 1459.32 1.59545 -0.58987 0
M  V30 15856 O 1460.5 1.75526 -0.830922 0
M  V30 15857 C 1457.63 2.93857 -1.85109 0
M  V30 15858 C 1456.59 3.04832 -3.00435 0
M  V30 15859 C 1455.91 4.44858 -2.96657 0
M  V30 15860 C 1457.21 2.80381 -4.40663 0
M  V30 15861 H 1458.91 1.36571 -2.66437 0
M  V30 15862 H 1456.45 0.655572 -1.28212 0
M  V30 15863 H 1458.41 3.70992 -1.99857 0
M  V30 15864 H 1457.13 3.14138 -0.893579 0
M  V30 15865 H 1455.79 2.30134 -2.85366 0
M  V30 15866 H 1455.44 4.62083 -1.98716 0
M  V30 15867 H 1455.14 4.53134 -3.7409 0
M  V30 15868 H 1456.66 5.23989 -3.13478 0
M  V30 15869 H 1458.07 3.47255 -4.56165 0
M  V30 15870 H 1456.47 3.00083 -5.19683 0
M  V30 15871 H 1457.54 1.76099 -4.51793 0
M  V30 15872 N 1458.88 1.40823 0.707568 0
M  V30 15873 C 1460.11 1.42866 1.49656 0
M  V30 15874 C 1460.53 0.0305663 1.88775 0
M  V30 15875 O 1459.88 -0.947376 1.55984 0
M  V30 15876 C 1459.94 2.32661 2.76679 0
M  V30 15877 O 1459.66 3.67028 2.39211 0
M  V30 15878 C 1461.16 2.4338 3.70514 0
M  V30 15879 H 1458.38 0.487009 0.461588 0
M  V30 15880 H 1460.92 1.84969 0.872167 0
M  V30 15881 H 1459.08 1.93898 3.35384 0
M  V30 15882 H 1459.49 4.14799 3.21002 0
M  V30 15883 H 1460.96 3.10401 4.56459 0
M  V30 15884 H 1461.44 1.46132 4.14176 0
M  V30 15885 H 1462.05 2.82728 3.17718 0
M  V30 15886 N 1460.36 -0.94061 1.26453 0
M  V30 15887 C 1461.29 -2.05667 1.10559 0
M  V30 15888 C 1462.27 -1.70097 0.0106258 0
M  V30 15889 O 1463.46 -1.93338 0.182756 0
M  V30 15890 C 1460.59 -3.3936 0.7384 0
M  V30 15891 C 1459.54 -3.88993 1.78517 0
M  V30 15892 C 1458.87 -5.19343 1.27228 0
M  V30 15893 C 1460.17 -4.13812 3.1868 0
M  V30 15894 H 1461.86 -2.19221 2.03918 0
M  V30 15895 H 1459.41 -1.05339 0.98182 0
M  V30 15896 H 1461.36 -4.16902 0.61409 0
M  V30 15897 H 1460.09 -3.25783 -0.230887 0
M  V30 15898 H 1458.74 -3.13633 1.89816 0
M  V30 15899 H 1458.39 -5.02147 0.292816 0
M  V30 15900 H 1458.09 -5.53521 1.97201 0
M  V30 15901 H 1459.62 -5.99468 1.16065 0
M  V30 15902 H 1461.03 -4.81966 3.10455 0
M  V30 15903 H 1459.43 -4.59273 3.86249 0
M  V30 15904 H 1460.5 -3.19571 3.64695 0
M  V30 15905 N 1461.84 -1.08266 -1.14527 0
M  V30 15906 C 1462.77 -0.655392 -2.18586 0
M  V30 15907 C 1463.75 0.332109 -1.59172 0
M  V30 15908 O 1464.94 0.236315 -1.87013 0
M  V30 15909 C 1462.06 0.0362295 -3.38681 0
M  V30 15910 C 1461.11 -0.91119 -4.16653 0
M  V30 15911 S 1461.94 -2.4171 -4.77846 0
M  V30 15912 C 1463.1 -1.73755 -6.01299 0
M  V30 15913 H 1463.33 -1.53694 -2.54491 0
M  V30 15914 H 1460.86 -0.897499 -1.25636 0
M  V30 15915 H 1462.82 0.428996 -4.08252 0
M  V30 15916 H 1461.48 0.894253 -3.01101 0
M  V30 15917 H 1460.68 -0.374143 -5.02609 0
M  V30 15918 H 1460.28 -1.24478 -3.52677 0
M  V30 15919 H 1462.57 -1.05465 -6.69241 0
M  V30 15920 H 1463.51 -2.5758 -6.59589 0
M  V30 15921 H 1463.92 -1.21153 -5.51346 0
M  V30 15922 N 1463.32 1.31536 -0.86811 0
M  V30 15923 C 1464.57 1.96386 -0.477176 0
M  V30 15924 C 1464.89 1.68968 0.973381 0
M  V30 15925 O 1464.16 1.00409 1.68211 0
M  V30 15926 H 1462.74 0.726579 -0.173468 0
M  V30 15927 H 1465.4 1.60377 -1.10749 0
M  V30 15928 H 1464.5 3.05606 -0.633376 0
M  V30 15929 N 1464.8 0.627364 1.44575 0
M  V30 15930 C 1465.73 -0.129056 2.27835 0
M  V30 15931 C 1466.71 -0.854852 1.38315 0
M  V30 15932 O 1467.89 -0.859709 1.67754 0
M  V30 15933 C 1465.02 -1.18866 3.17157 0
M  V30 15934 C 1464.07 -0.563816 4.22757 0
M  V30 15935 S 1464.9 0.643269 5.31622 0
M  V30 15936 C 1466.05 -0.416443 6.24513 0
M  V30 15937 H 1466.29 0.577281 2.91641 0
M  V30 15938 H 1463.82 0.415427 1.48706 0
M  V30 15939 H 1465.78 -1.79508 3.69171 0
M  V30 15940 H 1464.44 -1.86717 2.52578 0
M  V30 15941 H 1463.63 -1.36173 4.85256 0
M  V30 15942 H 1463.23 -0.0321045 3.73986 0
M  V30 15943 H 1465.53 -1.29006 6.65104 0
M  V30 15944 H 1466.47 0.172871 7.07889 0
M  V30 15945 H 1466.88 -0.740651 5.5962 0
M  V30 15946 N 1466.28 -1.53251 0.367684 0
M  V30 15947 C 1467.52 -2.01287 -0.221351 0
M  V30 15948 C 1467.85 -1.25489 -1.48603 0
M  V30 15949 O 1467.11 -0.337392 -1.9277 0
M  V30 15950 C 1467.4 -3.53031 -0.557149 0
M  V30 15951 C 1467.07 -4.46708 0.613444 0
M  V30 15952 C 1465.73 -4.72036 0.934633 0
M  V30 15953 C 1468.08 -5.02112 1.3976 0
M  V30 15954 C 1465.41 -5.50021 2.04191 0
M  V30 15955 C 1467.76 -5.81306 2.49531 0
M  V30 15956 C 1466.43 -6.04921 2.82182 0
M  V30 15957 H 1465.7 -0.73656 -0.080998 0
M  V30 15958 H 1468.35 -1.84842 0.500581 0
M  V30 15959 H 1466.65 -3.67434 -1.36012 0
M  V30 15960 H 1468.35 -3.87674 -1.02519 0
M  V30 15961 H 1464.94 -4.27143 0.353075 0
M  V30 15962 H 1469.12 -4.82488 1.1627 0
M  V30 15963 H 1464.38 -5.66536 2.29884 0
M  V30 15964 H 1468.55 -6.23245 3.10707 0
M  V30 15965 H 1466.18 -6.65134 3.68104 0
M  V30 15966 N 1467.75 -0.0969077 -1.57302 0
M  V30 15967 C 1468.69 0.891431 -2.11154 0
M  V30 15968 C 1469.7 1.24482 -1.04919 0
M  V30 15969 O 1470.89 1.19762 -1.3236 0
M  V30 15970 C 1467.99 2.19998 -2.57787 0
M  V30 15971 C 1467.16 2.02165 -3.87876 0
M  V30 15972 C 1466.22 3.16549 -4.20337 0
M  V30 15973 O 1465.25 2.90432 -4.89528 0
M  V30 15974 N 1466.45 4.42369 -3.75885 0
M  V30 15975 H 1469.21 0.431477 -2.96578 0
M  V30 15976 H 1466.77 0.0881458 -1.6166 0
M  V30 15977 H 1468.77 2.95472 -2.76547 0
M  V30 15978 H 1467.34 2.57412 -1.77364 0
M  V30 15979 H 1466.56 1.11011 -3.78246 0
M  V30 15980 H 1467.84 1.87529 -4.7298 0
M  V30 15981 H 1467.24 4.66469 -3.20036 0
M  V30 15982 H 1465.8 5.14787 -3.99797 0
M  V30 15983 N 1469.23 1.56605 0.176793 0
M  V30 15984 C 1470.48 1.82848 0.89097 0
M  V30 15985 C 1470.83 0.676661 1.80108 0
M  V30 15986 O 1470.13 -0.32721 1.88785 0
M  V30 15987 C 1470.32 3.12888 1.7273 0
M  V30 15988 C 1470.15 4.40609 0.899652 0
M  V30 15989 C 1468.92 5.01996 0.57688 0
M  V30 15990 C 1471.12 5.13722 0.243765 0
M  V30 15991 N 1469.1 6.13317 -0.267482 0
M  V30 15992 C 1470.47 6.18276 -0.461997 0
M  V30 15993 C 1472.52 4.97638 0.161367 0
M  V30 15994 C 1471.23 7.0849 -1.24233 0
M  V30 15995 C 1473.25 5.88291 -0.605623 0
M  V30 15996 C 1472.62 6.92304 -1.29977 0
M  V30 15997 H 1468.71 0.720143 0.304824 0
M  V30 15998 H 1471.3 1.94055 0.15834 0
M  V30 15999 H 1469.47 3.02883 2.43139 0
M  V30 16000 H 1471.2 3.27148 2.38236 0
M  V30 16001 H 1467.96 4.6486 0.905666 0
M  V30 16002 H 1468.38 6.73578 -0.679811 0
M  V30 16003 H 1473.02 4.17236 0.683677 0
M  V30 16004 H 1470.74 7.88342 -1.77601 0
M  V30 16005 H 1474.33 5.77918 -0.670976 0
M  V30 16006 H 1473.21 7.61239 -1.88375 0
M  V30 16007 N 1470.71 -0.445159 1.51182 0
M  V30 16008 C 1471.95 -1.2048 1.65118 0
M  V30 16009 C 1472.31 -1.88673 0.35589 0
M  V30 16010 O 1473.51 -2.66228 0.370932 0
M  V30 16011 C 1471.79 -2.20075 2.81606 0
M  V30 16012 S 1473.34 -3.04631 3.15825 0
M  V30 16013 H 1470.16 -0.408682 0.581807 0
M  V30 16014 H 1472.76 -0.497601 1.89061 0
M  V30 16015 H 1471.47 -1.68603 3.74167 0
M  V30 16016 H 1471 -2.95387 2.59827 0
M  V30 16017 H 1473.01 -4.21606 2.61654 0
M  V30 16018 N 1472.19 -1.41197 -0.700089 0
M  V30 16019 C 1473.43 -1.40519 -1.46227 0
M  V30 16020 C 1473.77 -0.0126108 -1.94196 0
M  V30 16021 O 1473.04 0.958837 -1.69223 0
M  V30 16022 C 1473.32 -2.40808 -2.67738 0
M  V30 16023 C 1473.18 -3.89154 -2.25563 0
M  V30 16024 C 1474.5 -2.38415 -3.69927 0
M  V30 16025 H 1471.62 -0.511724 -0.530384 0
M  V30 16026 H 1474.26 -1.72441 -0.797754 0
M  V30 16027 H 1472.41 -2.13717 -3.24434 0
M  V30 16028 H 1474.08 -4.27132 -1.74229 0
M  V30 16029 H 1472.32 -4.04239 -1.57395 0
M  V30 16030 H 1472.99 -4.54866 -3.12731 0
M  V30 16031 H 1475.47 -2.62447 -3.22895 0
M  V30 16032 H 1474.35 -3.10609 -4.52563 0
M  V30 16033 H 1474.61 -1.40116 -4.19309 0
M  V30 16034 N 1473.67 0.933891 -1.2695 0
M  V30 16035 C 1475.08 1.20873 -1.0422 0
M  V30 16036 C 1475.28 2.00205 0.228112 0
M  V30 16037 O 1474.34 2.34539 0.935284 0
M  V30 16038 C 1475.65 1.9629 -2.27795 0
M  V30 16039 C 1477.2 2.09254 -2.3277 0
M  V30 16040 C 1477.67 2.88075 -3.56057 0
M  V30 16041 N 1479.16 2.95646 -3.56578 0
M  V30 16042 C 1479.9 3.57082 -4.48642 0
M  V30 16043 N 1479.4 4.1996 -5.51004 0
M  V30 16044 N 1481.19 3.54425 -4.36279 0
M  V30 16045 H 1473.34 0.403735 -2.08528 0
M  V30 16046 H 1475.6 0.241189 -0.916805 0
M  V30 16047 H 1475.31 1.45412 -3.20231 0
M  V30 16048 H 1475.18 2.9693 -2.32621 0
M  V30 16049 H 1477.57 2.5932 -1.40844 0
M  V30 16050 H 1477.65 1.07854 -2.31951 0
M  V30 16051 H 1477.29 2.38693 -4.48317 0
M  V30 16052 H 1477.22 3.89746 -3.54126 0
M  V30 16053 H 1479.72 2.50951 -2.82545 0
M  V30 16054 H 1480.03 4.64758 -6.1743 0
M  V30 16055 H 1478.37 4.18525 -5.54853 0
M  V30 16056 H 1481.56 3.045 -3.55524 0
M  V30 16057 H 1481.74 4.02016 -5.0822 0
M  V30 16058 N 1475.14 1.08871 1.13951 0
M  V30 16059 C 1476.08 0.680849 2.18854 0
M  V30 16060 C 1477.09 -0.274456 1.6047 0
M  V30 16061 O 1478.28 -0.0613804 1.78394 0
M  V30 16062 C 1475.38 -0.0182788 3.38895 0
M  V30 16063 C 1474.55 0.957125 4.268 0
M  V30 16064 C 1473.61 0.29245 5.25387 0
M  V30 16065 O 1472.64 0.938329 5.61413 0
M  V30 16066 N 1473.84 -0.955738 5.72578 0
M  V30 16067 H 1476.6 1.58334 2.54461 0
M  V30 16068 H 1474.16 0.975417 1.29218 0
M  V30 16069 H 1476.16 -0.474001 4.01915 0
M  V30 16070 H 1474.73 -0.822932 3.01574 0
M  V30 16071 H 1473.95 1.59156 3.60642 0
M  V30 16072 H 1475.23 1.61792 4.82391 0
M  V30 16073 H 1474.63 -1.50014 5.45447 0
M  V30 16074 H 1473.19 -1.35488 6.37563 0
M  V30 16075 N 1476.62 -1.31073 0.875073 0
M  V30 16076 C 1477.85 -2.01223 0.502383 0
M  V30 16077 C 1478.27 -1.65223 -0.899053 0
M  V30 16078 O 1477.63 -0.863559 -1.59412 0
M  V30 16079 C 1477.68 -3.54269 0.672747 0
M  V30 16080 O 1476.78 -4.11409 -0.285718 0
M  V30 16081 H 1476.12 -0.633422 0.199181 0
M  V30 16082 H 1478.65 -1.67152 1.17989 0
M  V30 16083 H 1478.66 -4.04027 0.567973 0
M  V30 16084 H 1477.34 -3.79811 1.69459 0
M  V30 16085 H 1475.91 -3.72654 -0.135472 0
M  V30 16086 N 1478.1 -0.635022 -1.4424 0
M  V30 16087 C 1479.06 0.0579377 -2.29127 0
M  V30 16088 C 1480.06 0.768489 -1.41248 0
M  V30 16089 O 1481.25 0.612489 -1.63077 0
M  V30 16090 C 1478.39 1.09266 -3.22914 0
M  V30 16091 H 1479.58 -0.688723 -2.91885 0
M  V30 16092 H 1477.13 -0.395347 -1.51217 0
M  V30 16093 H 1477.87 1.86917 -2.65014 0
M  V30 16094 H 1477.65 0.587036 -3.87681 0
M  V30 16095 H 1479.14 1.57716 -3.86672 0
M  V30 16096 N 1479.58 1.53054 -0.375806 0
M  V30 16097 C 1480.49 2.29772 0.47349 0
M  V30 16098 C 1481.5 1.36144 1.08355 0
M  V30 16099 O 1482.68 1.69208 1.09228 0
M  V30 16100 C 1479.75 3.07964 1.59245 0
M  V30 16101 C 1478.81 4.17277 1.00888 0
M  V30 16102 C 1478.04 4.91731 2.07451 0
M  V30 16103 O 1478.26 4.66143 3.28736 0
M  V30 16104 O 1477.2 5.77413 1.69936 0
M  V30 16105 H 1481.02 3.03324 -0.151105 0
M  V30 16106 H 1478.61 1.48744 -0.139895 0
M  V30 16107 H 1480.49 3.56759 2.24279 0
M  V30 16108 H 1479.16 2.37239 2.20226 0
M  V30 16109 H 1478.07 3.7271 0.322167 0
M  V30 16110 H 1479.4 4.90198 0.443483 0
M  V30 16111 N 1481.06 0.105248 1.57248 0
M  V30 16112 C 1482.3 -0.556878 1.95004 0
M  V30 16113 C 1482.64 -1.672 0.987818 0
M  V30 16114 O 1481.91 -1.94487 0.022616 0
M  V30 16115 C 1482.19 -1.10252 3.42807 0
M  V30 16116 C 1482.05 0.00823908 4.49799 0
M  V30 16117 C 1483.37 -1.99774 3.92146 0
M  V30 16118 H 1480.48 -0.200959 0.709073 0
M  V30 16119 H 1483.13 0.178019 1.89164 0
M  V30 16120 H 1481.28 -1.7288 3.47915 0
M  V30 16121 H 1482.95 0.642944 4.56797 0
M  V30 16122 H 1481.19 0.673265 4.28544 0
M  V30 16123 H 1481.86 -0.414538 5.50441 0
M  V30 16124 H 1484.34 -1.47036 3.89255 0
M  V30 16125 H 1483.21 -2.34874 4.9611 0
M  V30 16126 H 1483.48 -2.91902 3.32033 0
M  V30 16127 N 1482.53 -1.56697 -0.168486 0
M  V30 16128 C 1483.44 -1.99866 -1.22845 0
M  V30 16129 C 1484.46 -0.910491 -1.48277 0
M  V30 16130 O 1485.64 -1.21834 -1.6037 0
M  V30 16131 C 1482.7 -2.35227 -2.54694 0
M  V30 16132 C 1481.76 -3.57886 -2.37099 0
M  V30 16133 C 1481 -3.91551 -3.62661 0
M  V30 16134 O 1481.22 -3.26148 -4.67957 0
M  V30 16135 O 1480.15 -4.8489 -3.56603 0
M  V30 16136 H 1483.98 -2.90305 -0.892015 0
M  V30 16137 H 1481.56 -1.44602 -0.375571 0
M  V30 16138 H 1483.45 -2.58928 -3.32467 0
M  V30 16139 H 1482.12 -1.4795 -2.87911 0
M  V30 16140 H 1481.03 -3.394 -1.57348 0
M  V30 16141 H 1482.36 -4.45714 -2.08806 0
M  V30 16142 N 1484.01 0.437135 -1.51416 0
M  V30 16143 C 1484.96 1.55124 -1.73319 0
M  V30 16144 C 1485.95 1.58437 -0.599511 0
M  V30 16145 O 1487.16 1.62179 -0.780896 0
M  V30 16146 H 1483.54 0.515368 -0.547632 0
M  V30 16147 H 1485.51 1.33824 -2.66709 0
M  V30 16148 C 1484.26 2.92778 -1.87554 0
M  V30 16149 H 1483.58 2.9096 -2.74194 0
M  V30 16150 H 1485.02 3.70097 -2.06891 0
M  V30 16151 C 1483.48 3.30854 -0.635408 0
M  V30 16152 O 1484.01 4.01152 0.20983 0
M  V30 16153 N 1482.21 2.86618 -0.47944 0
M  V30 16154 H 1481.76 2.29582 -1.16834 0
M  V30 16155 H 1481.72 3.12456 0.349078 0
M  V30 16156 N 1485.49 1.41566 0.692592 0
M  V30 16157 C 1486.42 1.38067 1.81694 0
M  V30 16158 C 1487.4 0.247482 1.60706 0
M  V30 16159 O 1488.59 0.43487 1.83415 0
M  V30 16160 C 1485.71 1.15438 3.18421 0
M  V30 16161 C 1484.76 2.31515 3.58194 0
M  V30 16162 S 1485.59 3.94003 3.6266 0
M  V30 16163 C 1486.75 3.73683 5.02108 0
M  V30 16164 H 1486.98 2.33215 1.84386 0
M  V30 16165 H 1484.51 1.28125 0.861585 0
M  V30 16166 H 1486.47 1.03069 3.9735 0
M  V30 16167 H 1485.13 0.219055 3.13335 0
M  V30 16168 H 1484.33 2.11383 4.57529 0
M  V30 16169 H 1483.93 2.40307 2.86581 0
M  V30 16170 H 1486.22 3.33573 5.89691 0
M  V30 16171 H 1487.16 4.72631 5.27281 0
M  V30 16172 H 1487.57 3.06899 4.73786 0
M  V30 16173 N 1486.97 -0.927146 1.27443 0
M  V30 16174 C 1487.9 -2.02847 1.04538 0
M  V30 16175 C 1488.88 -1.62564 -0.0343819 0
M  V30 16176 O 1490.06 -1.88174 0.110875 0
M  V30 16177 C 1487.19 -3.33594 0.58588 0
M  V30 16178 C 1486.24 -3.92857 1.66029 0
M  V30 16179 S 1487.07 -4.25376 3.25292 0
M  V30 16180 C 1488.23 -5.59203 2.81145 0
M  V30 16181 H 1488.46 -2.21965 1.97784 0
M  V30 16182 H 1485.99 -1.07033 1.11281 0
M  V30 16183 H 1487.95 -4.09192 0.32745 0
M  V30 16184 H 1486.61 -3.12398 -0.326534 0
M  V30 16185 H 1485.8 -4.87209 1.2901 0
M  V30 16186 H 1485.41 -3.23846 1.87082 0
M  V30 16187 H 1487.7 -6.38523 2.26482 0
M  V30 16188 H 1488.64 -6.01122 3.74243 0
M  V30 16189 H 1489.05 -5.19751 2.2027 0
M  V30 16190 N 1488.45 -1.09474 -1.13372 0
M  V30 16191 C 1489.7 -0.825968 -1.84013 0
M  V30 16192 C 1490.01 0.650623 -1.84462 0
M  V30 16193 O 1491.21 1.03495 -2.51 0
M  V30 16194 C 1489.67 -1.42769 -3.30371 0
M  V30 16195 C 1489.28 -2.93686 -3.38308 0
M  V30 16196 C 1491.02 -1.23788 -4.0605 0
M  V30 16197 C 1488.93 -3.46942 -4.78942 0
M  V30 16198 H 1487.86 -0.305322 -0.689416 0
M  V30 16199 H 1490.51 -1.31751 -1.27726 0
M  V30 16200 H 1488.89 -0.86384 -3.86463 0
M  V30 16201 H 1490.07 -3.56302 -2.92208 0
M  V30 16202 H 1488.38 -3.11706 -2.76094 0
M  V30 16203 H 1490.98 -1.61031 -5.09876 0
M  V30 16204 H 1491.32 -0.178578 -4.15917 0
M  V30 16205 H 1491.85 -1.76927 -3.56289 0
M  V30 16206 H 1488.59 -4.52495 -4.74267 0
M  V30 16207 H 1488.11 -2.8909 -5.25535 0
M  V30 16208 H 1489.79 -3.44176 -5.47861 0
M  V30 16209 N 1489.92 1.30607 -0.882012 0
M  V30 16210 C 1491.15 2.00954 -0.513048 0
M  V30 16211 C 1491.57 1.65697 0.890279 0
M  V30 16212 O 1490.93 0.872001 1.58952 0
M  V30 16213 C 1490.98 3.53907 -0.691525 0
M  V30 16214 O 1490.08 4.11555 0.263896 0
M  V30 16215 H 1489.43 0.632356 -0.202537 0
M  V30 16216 H 1491.96 1.66524 -1.18874 0
M  V30 16217 H 1491.97 4.0372 -0.589392 0
M  V30 16218 H 1490.64 3.78907 -1.71471 0
M  V30 16219 H 1489.22 3.7272 0.115707 0
M  V30 16220 N 1491.4 0.642663 1.43901 0
M  V30 16221 C 1492.65 0.152003 2.0223 0
M  V30 16222 C 1492.98 -1.22711 1.50518 0
M  V30 16223 O 1492.26 -1.817 0.693937 0
M  V30 16224 C 1492.54 0.151278 3.59782 0
M  V30 16225 C 1492.39 1.56356 4.2175 0
M  V30 16226 C 1493.71 -0.518016 4.37041 0
M  V30 16227 H 1490.83 0.0567094 0.734815 0
M  V30 16228 H 1493.47 0.821337 1.7133 0
M  V30 16229 H 1491.62 -0.418679 3.86237 0
M  V30 16230 H 1493.29 2.18329 4.06362 0
M  V30 16231 H 1491.54 2.11401 3.78803 0
M  V30 16232 H 1492.21 1.51499 5.30803 0
M  V30 16233 H 1494.68 -0.0331947 4.16087 0
M  V30 16234 H 1493.56 -0.487754 5.46729 0
M  V30 16235 H 1493.82 -1.59036 4.12504 0
M  V30 16236 N 1492.88 -1.52852 0.383918 0
M  V30 16237 C 1493.79 -2.3002 -0.461298 0
M  V30 16238 C 1494.81 -1.36717 -1.07631 0
M  V30 16239 O 1495.98 -1.69784 -1.08329 0
M  V30 16240 C 1493.05 -3.08804 -1.57609 0
M  V30 16241 C 1492.11 -4.17806 -0.986737 0
M  V30 16242 C 1491.34 -4.92825 -2.04841 0
M  V30 16243 O 1491.57 -4.67879 -3.26259 0
M  V30 16244 O 1490.5 -5.78306 -1.66871 0
M  V30 16245 H 1494.33 -3.03239 0.167189 0
M  V30 16246 H 1491.91 -1.48667 0.147781 0
M  V30 16247 H 1493.79 -3.57943 -2.22384 0
M  V30 16248 H 1492.47 -2.38404 -2.18964 0
M  V30 16249 H 1491.37 -3.72876 -0.302396 0
M  V30 16250 H 1492.71 -4.90426 -0.417481 0
M  V30 16251 N 1494.36 -0.113586 -1.5719 0
M  V30 16252 C 1495.78 0.243023 -1.57739 0
M  V30 16253 C 1495.98 1.67105 -1.12597 0
M  V30 16254 O 1495.03 2.39126 -0.810874 0
M  V30 16255 C 1496.34 0.014629 -3.00696 0
M  V30 16256 C 1497.89 0.0809485 -3.12895 0
M  V30 16257 C 1498.37 -0.119685 -4.57844 0
M  V30 16258 N 1499.86 -0.0654711 -4.63154 0
M  V30 16259 C 1500.59 -0.195692 -5.73066 0
M  V30 16260 N 1500.09 -0.381782 -6.91747 0
M  V30 16261 N 1501.88 -0.13565 -5.61936 0
M  V30 16262 H 1494.03 -1.04639 -1.84836 0
M  V30 16263 H 1496.3 -0.411609 -0.85398 0
M  V30 16264 H 1496 -0.972399 -3.3799 0
M  V30 16265 H 1495.88 0.748882 -3.69691 0
M  V30 16266 H 1498.26 1.0585 -2.75463 0
M  V30 16267 H 1498.34 -0.685097 -2.46455 0
M  V30 16268 H 1497.99 -1.09418 -4.95974 0
M  V30 16269 H 1497.92 0.666281 -5.22368 0
M  V30 16270 H 1500.41 0.0750649 -3.77825 0
M  V30 16271 H 1500.72 -0.472157 -7.71356 0
M  V30 16272 H 1499.07 -0.417686 -6.93744 0
M  V30 16273 H 1502.26 0.0087301 -4.68099 0
M  V30 16274 H 1502.43 -0.240579 -6.47553 0
M  V30 16275 N 1495.84 1.56784 0.160173 0
M  V30 16276 C 1497.08 1.82891 0.876278 0
M  V30 16277 C 1497.42 0.693173 1.81408 0
M  V30 16278 O 1496.69 -0.304136 1.92107 0
M  V30 16279 C 1496.97 3.19439 1.66226 0
M  V30 16280 C 1496.83 4.43557 0.746831 0
M  V30 16281 C 1498.15 3.53053 2.62758 0
M  V30 16282 H 1495.27 0.665285 0.31712 0
M  V30 16283 H 1497.91 1.89469 0.142004 0
M  V30 16284 H 1496.06 3.13962 2.28823 0
M  V30 16285 H 1497.73 4.61109 0.132876 0
M  V30 16286 H 1495.97 4.33764 0.0555625 0
M  V30 16287 H 1496.64 5.35675 1.33253 0
M  V30 16288 H 1499.12 3.59054 2.10284 0
M  V30 16289 H 1498 4.4965 3.14811 0
M  V30 16290 H 1498.26 2.78329 3.4349 0
M  V30 16291 N 1497.32 -0.429099 1.51646 0
M  V30 16292 C 1498.56 -1.17482 1.63954 0
M  V30 16293 C 1498.88 -1.92152 0.36565 0
M  V30 16294 O 1500.08 -2.68991 0.368221 0
M  V30 16295 C 1498.54 -2.13703 2.89585 0
M  V30 16296 C 1498.15 -1.44642 4.24008 0
M  V30 16297 C 1499.89 -2.88657 3.11252 0
M  V30 16298 C 1497.8 -2.39395 5.40781 0
M  V30 16299 H 1496.73 -0.442234 0.610692 0
M  V30 16300 H 1499.38 -0.441088 1.7812 0
M  V30 16301 H 1497.76 -2.90545 2.69071 0
M  V30 16302 H 1498.94 -0.733012 4.54932 0
M  V30 16303 H 1497.25 -0.818084 4.08285 0
M  V30 16304 H 1499.85 -3.59653 3.95669 0
M  V30 16305 H 1500.19 -3.50473 2.24664 0
M  V30 16306 H 1500.72 -2.18919 3.32144 0
M  V30 16307 H 1497.46 -1.82255 6.29653 0
M  V30 16308 H 1496.98 -3.08766 5.14222 0
M  V30 16309 H 1498.66 -3.0035 5.73061 0
M  V30 16310 N 1498.79 -1.41931 -0.685074 0
M  V30 16311 C 1499.7 -1.46985 -1.82846 0
M  V30 16312 C 1500.72 -0.359487 -1.70246 0
M  V30 16313 O 1501.9 -0.608824 -1.91977 0
M  V30 16314 C 1498.96 -1.36001 -3.18912 0
M  V30 16315 C 1498.02 -2.57442 -3.43543 0
M  V30 16316 C 1497.25 -2.46972 -4.73118 0
M  V30 16317 O 1497.48 -1.49999 -5.50324 0
M  V30 16318 O 1496.41 -3.36922 -4.98766 0
M  V30 16319 H 1500.24 -2.4347 -1.81538 0
M  V30 16320 H 1497.82 -1.23583 -0.839497 0
M  V30 16321 H 1499.7 -1.32198 -4.00127 0
M  V30 16322 H 1498.38 -0.426366 -3.2088 0
M  V30 16323 H 1497.29 -2.66821 -2.62217 0
M  V30 16324 H 1498.62 -3.49671 -3.46398 0
M  V30 16325 N 1500.27 0.920374 -1.27933 0
M  V30 16326 C 1501.5 1.70028 -1.17363 0
M  V30 16327 C 1501.91 1.87246 0.271214 0
M  V30 16328 O 1501.25 1.39449 1.19581 0
M  V30 16329 C 1501.31 3.11595 -1.79301 0
M  V30 16330 C 1500.98 3.17687 -3.28518 0
M  V30 16331 C 1501.98 2.99383 -4.25048 0
M  V30 16332 C 1499.66 3.40412 -3.69357 0
M  V30 16333 C 1501.65 3.03704 -5.60395 0
M  V30 16334 C 1499.34 3.44367 -5.04832 0
M  V30 16335 C 1500.34 3.26032 -6.0016 0
M  V30 16336 O 1500.03 3.29735 -7.33164 0
M  V30 16337 H 1499.76 0.538497 -0.408652 0
M  V30 16338 H 1502.31 1.16086 -1.6945 0
M  V30 16339 H 1500.54 3.6705 -1.217 0
M  V30 16340 H 1502.23 3.71584 -1.63341 0
M  V30 16341 H 1503 2.8166 -3.94833 0
M  V30 16342 H 1498.88 3.53731 -2.95627 0
M  V30 16343 H 1502.42 2.89312 -6.34779 0
M  V30 16344 H 1498.32 3.61616 -5.347 0
M  V30 16345 H 1499.09 3.46141 -7.41707 0
M  V30 16346 N 1501.75 1.10074 1.1279 0
M  V30 16347 C 1502.98 0.862906 1.88047 0
M  V30 16348 C 1503.39 -0.586346 1.79464 0
M  V30 16349 O 1502.75 -1.40402 1.16591 0
M  V30 16350 C 1502.8 1.29784 3.37399 0
M  V30 16351 O 1502.52 2.69026 3.4577 0
M  V30 16352 C 1504.02 1.09336 4.29605 0
M  V30 16353 H 1501.24 0.309981 0.595108 0
M  V30 16354 H 1503.79 1.46444 1.42738 0
M  V30 16355 H 1501.94 0.740056 3.80266 0
M  V30 16356 H 1502.36 2.87532 4.38663 0
M  V30 16357 H 1503.83 1.44687 5.327 0
M  V30 16358 H 1504.31 0.031679 4.39189 0
M  V30 16359 H 1504.91 1.63743 3.92516 0
M  V30 16360 N 1503.23 -1.30138 0.888926 0
M  V30 16361 C 1504.5 -1.90831 0.42928 0
M  V30 16362 C 1504.88 -1.80765 -1.09028 0
M  V30 16363 O 1504.23 -1.22741 -1.92735 0
M  V30 16364 C 1504.44 -3.36331 0.931798 0
M  V30 16365 C 1505.79 -4.13393 0.969106 0
M  V30 16366 O 1506.81 -3.45191 0.878731 0
M  V30 16367 O 1505.67 -5.35249 1.10323 0
M  V30 16368 H 1502.77 -0.816401 0.131976 0
M  V30 16369 H 1505.31 -1.38678 0.978086 0
M  V30 16370 H 1504.09 -3.37761 1.97568 0
M  V30 16371 H 1503.71 -3.95945 0.362383 0
M  V30 16372 N 1504.71 -0.650285 -1.43559 0
M  V30 16373 C 1505.64 0.0295939 -2.33481 0
M  V30 16374 C 1506.62 0.815017 -1.49303 0
M  V30 16375 O 1507.8 0.77708 -1.77975 0
M  V30 16376 C 1504.93 0.998683 -3.32631 0
M  V30 16377 C 1503.89 0.323577 -4.26775 0
M  V30 16378 C 1503.21 1.40391 -5.1594 0
M  V30 16379 C 1504.51 -0.782197 -5.1641 0
M  V30 16380 H 1506.21 -0.721349 -2.9058 0
M  V30 16381 H 1503.75 -0.348339 -1.39723 0
M  V30 16382 H 1505.7 1.4832 -3.94435 0
M  V30 16383 H 1504.43 1.78075 -2.73782 0
M  V30 16384 H 1503.09 -0.140467 -3.66331 0
M  V30 16385 H 1502.74 2.17734 -4.53432 0
M  V30 16386 H 1502.44 0.957462 -5.79747 0
M  V30 16387 H 1503.96 1.88985 -5.80618 0
M  V30 16388 H 1505.37 -0.379966 -5.72039 0
M  V30 16389 H 1503.77 -1.15293 -5.88921 0
M  V30 16390 H 1504.84 -1.6414 -4.56274 0
M  V30 16391 N 1506.18 1.52647 -0.392018 0
M  V30 16392 C 1507.09 2.30261 0.449093 0
M  V30 16393 C 1508.11 1.37286 1.06905 0
M  V30 16394 O 1509.29 1.70357 1.07427 0
M  V30 16395 C 1506.35 3.09636 1.55969 0
M  V30 16396 C 1505.41 4.18324 0.964566 0
M  V30 16397 C 1504.64 4.93904 2.02224 0
M  V30 16398 O 1504.87 4.69603 3.23773 0
M  V30 16399 O 1503.8 5.79183 1.63802 0
M  V30 16400 H 1507.63 3.03147 -0.183269 0
M  V30 16401 H 1505.21 1.48587 -0.155664 0
M  V30 16402 H 1507.09 3.59118 2.20482 0
M  V30 16403 H 1505.77 2.39561 2.17697 0
M  V30 16404 H 1504.68 3.73031 0.282618 0
M  V30 16405 H 1506.01 4.90641 0.391466 0
M  V30 16406 N 1507.66 0.121921 1.57128 0
M  V30 16407 C 1508.61 -0.827205 2.15467 0
M  V30 16408 C 1509.58 -1.26155 1.08047 0
M  V30 16409 O 1510.76 -1.33855 1.35969 0
M  V30 16410 C 1507.9 -2.07077 2.76067 0
M  V30 16411 C 1507.02 -1.68452 3.97804 0
M  V30 16412 C 1506.15 -2.87797 4.46482 0
M  V30 16413 C 1505.19 -2.45426 5.60743 0
M  V30 16414 N 1504.33 -3.57695 6.04151 0
M  V30 16415 H 1509.17 -0.322879 2.96246 0
M  V30 16416 H 1506.71 -0.147677 1.46357 0
M  V30 16417 H 1508.66 -2.79943 3.09335 0
M  V30 16418 H 1507.29 -2.54963 1.97974 0
M  V30 16419 H 1506.35 -0.854487 3.70679 0
M  V30 16420 H 1507.66 -1.33316 4.80654 0
M  V30 16421 H 1506.81 -3.68885 4.81673 0
M  V30 16422 H 1505.55 -3.26162 3.62587 0
M  V30 16423 H 1504.56 -1.62772 5.25153 0
M  V30 16424 H 1505.78 -2.08175 6.46405 0
M  V30 16425 H 1503.73 -3.95728 5.23197 0
M  V30 16426 H 1503.64 -3.26491 6.81865 0
M  V30 16427 H 1504.91 -4.39213 6.43981 0
M  V30 16428 N 1509.14 -1.56867 -0.151857 0
M  V30 16429 C 1510.05 -2.01157 -1.20718 0
M  V30 16430 C 1511.07 -0.926166 -1.47303 0
M  V30 16431 O 1512.24 -1.23528 -1.59069 0
M  V30 16432 C 1509.31 -2.37915 -2.52185 0
M  V30 16433 C 1508.37 -3.60381 -2.3329 0
M  V30 16434 C 1507.6 -3.95376 -3.58488 0
M  V30 16435 O 1507.82 -3.31093 -4.64471 0
M  V30 16436 O 1506.76 -4.88645 -3.5144 0
M  V30 16437 H 1510.58 -2.91234 -0.861175 0
M  V30 16438 H 1508.17 -1.44993 -0.360213 0
M  V30 16439 H 1510.05 -2.6244 -3.29702 0
M  V30 16440 H 1508.73 -1.50995 -2.86325 0
M  V30 16441 H 1507.63 -3.4105 -1.5374 0
M  V30 16442 H 1508.97 -4.47903 -2.04067 0
M  V30 16443 N 1510.62 0.421051 -1.51871 0
M  V30 16444 C 1511.58 1.49478 -1.73749 0
M  V30 16445 C 1512.58 1.48887 -0.607395 0
M  V30 16446 O 1513.77 1.50622 -0.875143 0
M  V30 16447 C 1510.9 2.88947 -1.80893 0
M  V30 16448 H 1512.1 1.31377 -2.69593 0
M  V30 16449 H 1509.65 0.650786 -1.42107 0
M  V30 16450 H 1510.38 3.12434 -0.86922 0
M  V30 16451 H 1510.17 2.90781 -2.63038 0
M  V30 16452 H 1511.66 3.66809 -1.99602 0
M  V30 16453 N 1512.1 1.42293 0.677538 0
M  V30 16454 C 1513.51 1.37948 1.25806 0
M  V30 16455 C 1513.86 0.071408 1.9607 0
M  V30 16456 O 1512.98 -0.829921 1.99853 0
M  V30 16457 C 1513.58 2.49875 2.28797 0
M  V30 16458 C 1512.14 2.48872 2.82382 0
M  V30 16459 C 1511.28 2.28804 1.56665 0
M  V30 16460 H 1514.24 1.51546 0.471102 0
M  V30 16461 H 1514.26 2.19969 3.10474 0
M  V30 16462 H 1513.77 3.45065 1.77629 0
M  V30 16463 H 1511.87 1.57492 3.37679 0
M  V30 16464 H 1511.98 3.45816 3.31585 0
M  V30 16465 H 1510.35 1.77014 1.83135 0
M  V30 16466 H 1511.13 3.26046 1.07467 0
M  V30 16467 N 1513.57 -0.913576 1.28419 0
M  V30 16468 C 1514.82 -1.66546 1.16765 0
M  V30 16469 C 1515.18 -1.90338 -0.280935 0
M  V30 16470 O 1514.47 -1.49279 -1.2011 0
M  V30 16471 C 1514.66 -3.02722 1.89985 0
M  V30 16472 C 1514.49 -2.9222 3.41815 0
M  V30 16473 C 1513.26 -2.93735 4.11154 0
M  V30 16474 C 1515.46 -2.70279 4.37554 0
M  V30 16475 N 1513.44 -2.73824 5.49448 0
M  V30 16476 C 1514.81 -2.59213 5.63213 0
M  V30 16477 C 1516.87 -2.55278 4.27478 0
M  V30 16478 C 1515.57 -2.34673 6.79942 0
M  V30 16479 C 1517.6 -2.32118 5.43944 0
M  V30 16480 C 1516.96 -2.21806 6.68567 0
M  V30 16481 H 1513.06 -0.615629 0.482208 0
M  V30 16482 H 1515.64 -1.07892 1.62072 0
M  V30 16483 H 1513.81 -3.59462 1.47112 0
M  V30 16484 H 1515.54 -3.66932 1.70714 0
M  V30 16485 H 1512.3 -3.04498 3.62736 0
M  V30 16486 H 1512.72 -2.6696 6.22143 0
M  V30 16487 H 1517.37 -2.62001 3.31836 0
M  V30 16488 H 1515.08 -2.26689 7.75653 0
M  V30 16489 H 1518.67 -2.21375 5.38038 0
M  V30 16490 H 1517.55 -2.0413 7.57166 0
M  V30 16491 N 1515.05 -1.1067 -1.12204 0
M  V30 16492 C 1515.96 -0.770221 -2.21596 0
M  V30 16493 C 1516.98 0.233297 -1.72429 0
M  V30 16494 O 1518.15 0.0714493 -2.01273 0
M  V30 16495 C 1515.22 -0.209682 -3.46065 0
M  V30 16496 C 1514.28 -1.27079 -4.1006 0
M  V30 16497 C 1513.51 -0.736899 -5.28588 0
M  V30 16498 O 1513.74 0.435838 -5.68732 0
M  V30 16499 O 1512.67 -1.49797 -5.82962 0
M  V30 16500 H 1516.5 -1.6834 -2.52776 0
M  V30 16501 H 1514.08 -0.882012 -1.20586 0
M  V30 16502 H 1515.96 0.0989516 -4.21284 0
M  V30 16503 H 1514.64 0.676316 -3.16556 0
M  V30 16504 H 1513.55 -1.63231 -3.3661 0
M  V30 16505 H 1514.88 -2.12989 -4.4373 0
M  V30 16506 N 1516.53 1.29665 -0.895815 0
M  V30 16507 C 1517.76 1.99572 -0.534267 0
M  V30 16508 C 1518.17 1.67254 0.884455 0
M  V30 16509 O 1517.51 0.911762 1.59476 0
M  V30 16510 C 1517.57 3.53719 -0.642099 0
M  V30 16511 C 1517.24 4.09583 -2.02709 0
M  V30 16512 C 1518.23 4.24769 -2.99779 0
M  V30 16513 C 1515.92 4.44706 -2.33542 0
M  V30 16514 C 1517.91 4.74305 -4.25809 0
M  V30 16515 C 1515.6 4.93939 -3.59815 0
M  V30 16516 C 1516.6 5.08693 -4.55763 0
M  V30 16517 O 1516.29 5.5686 -5.79795 0
M  V30 16518 H 1516.02 0.644481 -0.204012 0
M  V30 16519 H 1518.57 1.66262 -1.20607 0
M  V30 16520 H 1516.8 3.86603 0.0867197 0
M  V30 16521 H 1518.49 4.04861 -0.290265 0
M  V30 16522 H 1519.26 3.97925 -2.77273 0
M  V30 16523 H 1515.14 4.32483 -1.59622 0
M  V30 16524 H 1518.68 4.85736 -5.00706 0
M  V30 16525 H 1514.58 5.2022 -3.82154 0
M  V30 16526 H 1515.35 5.75182 -5.82329 0
M  V30 16527 N 1518.01 0.657889 1.43212 0
M  V30 16528 C 1518.94 -0.0695999 2.29094 0
M  V30 16529 C 1519.95 -0.782463 1.42763 0
M  V30 16530 O 1521.14 -0.63944 1.66654 0
M  V30 16531 C 1518.24 -1.12178 3.19796 0
M  V30 16532 C 1517.42 -0.486131 4.3469 0
M  V30 16533 C 1516.47 -1.43582 5.06232 0
M  V30 16534 O 1515.5 -0.942622 5.61341 0
M  V30 16535 N 1516.7 -2.76966 5.10167 0
M  V30 16536 H 1519.47 0.667565 2.92171 0
M  V30 16537 H 1517.03 0.501022 1.53953 0
M  V30 16538 H 1519.02 -1.75801 3.64522 0
M  V30 16539 H 1517.59 -1.76087 2.58287 0
M  V30 16540 H 1516.81 0.329281 3.92822 0
M  V30 16541 H 1518.1 -0.0425918 5.08782 0
M  V30 16542 H 1517.5 -3.19592 4.66774 0
M  V30 16543 H 1516.05 -3.3588 5.58595 0
M  V30 16544 N 1519.49 -1.52437 0.400108 0
M  V30 16545 C 1520.43 -2.26763 -0.429799 0
M  V30 16546 C 1521.4 -1.28808 -1.0487 0
M  V30 16547 O 1522.59 -1.57655 -1.07468 0
M  V30 16548 C 1519.73 -3.08564 -1.54539 0
M  V30 16549 C 1518.84 -4.21463 -0.948294 0
M  V30 16550 C 1517.98 -4.9064 -2.03584 0
M  V30 16551 C 1517.02 -5.95515 -1.4152 0
M  V30 16552 N 1516.15 -6.58245 -2.4425 0
M  V30 16553 H 1520.99 -2.97256 0.210467 0
M  V30 16554 H 1518.53 -1.46645 0.115627 0
M  V30 16555 H 1520.49 -3.54289 -2.20307 0
M  V30 16556 H 1519.12 -2.40259 -2.15582 0
M  V30 16557 H 1518.17 -3.79974 -0.179918 0
M  V30 16558 H 1519.48 -4.96722 -0.454845 0
M  V30 16559 H 1518.64 -5.39724 -2.77097 0
M  V30 16560 H 1517.37 -4.14929 -2.56291 0
M  V30 16561 H 1516.38 -5.45759 -0.665354 0
M  V30 16562 H 1517.6 -6.73164 -0.89593 0
M  V30 16563 H 1515.55 -5.85369 -2.96107 0
M  V30 16564 H 1515.47 -7.2915 -1.99692 0
M  V30 16565 H 1516.74 -7.1197 -3.17362 0
M  V30 16566 N 1520.96 -0.130252 -1.57061 0
M  V30 16567 C 1522.38 0.226279 -1.57988 0
M  V30 16568 C 1522.58 1.65902 -1.14363 0
M  V30 16569 O 1521.64 2.38252 -0.836191 0
M  V30 16570 C 1522.95 -0.0172647 -3.00695 0
M  V30 16571 C 1524.5 0.0477572 -3.12964 0
M  V30 16572 C 1524.97 -0.168238 -4.57691 0
M  V30 16573 N 1526.46 -0.114591 -4.63058 0
M  V30 16574 C 1527.2 -0.256462 -5.72826 0
M  V30 16575 N 1526.69 -0.455129 -6.91303 0
M  V30 16576 N 1528.49 -0.195243 -5.61761 0
M  V30 16577 H 1520.64 -1.06594 -1.83716 0
M  V30 16578 H 1522.9 -0.420643 -0.849567 0
M  V30 16579 H 1522.61 -1.00819 -3.3694 0
M  V30 16580 H 1522.48 0.709629 -3.70465 0
M  V30 16581 H 1524.87 1.02922 -2.7657 0
M  V30 16582 H 1524.95 -0.711198 -2.45714 0
M  V30 16583 H 1524.59 -1.14673 -4.94785 0
M  V30 16584 H 1524.52 0.610839 -5.23045 0
M  V30 16585 H 1527.01 0.0349873 -3.77884 0
M  V30 16586 H 1527.33 -0.553943 -7.70812 0
M  V30 16587 H 1525.67 -0.491244 -6.93262 0
M  V30 16588 H 1528.86 -0.0409186 -4.68082 0
M  V30 16589 H 1529.04 -0.309248 -6.47262 0
M  V30 16590 N 1522.44 1.56945 0.143535 0
M  V30 16591 C 1523.85 1.72949 0.703249 0
M  V30 16592 C 1524.21 0.745193 1.81497 0
M  V30 16593 O 1523.33 -0.0874144 2.16223 0
M  V30 16594 C 1523.93 3.1359 1.28244 0
M  V30 16595 C 1522.48 3.31184 1.78869 0
M  V30 16596 C 1521.63 2.6887 0.678531 0
M  V30 16597 H 1524.58 1.58487 -0.0821664 0
M  V30 16598 H 1524.6 3.13782 2.15224 0
M  V30 16599 H 1524.12 3.85206 0.473087 0
M  V30 16600 H 1522.22 2.64571 2.6236 0
M  V30 16601 H 1522.33 4.39163 1.91502 0
M  V30 16602 H 1520.69 2.29432 1.10603 0
M  V30 16603 H 1521.48 3.43092 -0.119437 0
M  V30 16604 N 1523.92 -0.412991 1.52093 0
M  V30 16605 C 1525.33 -0.991955 1.58168 0
M  V30 16606 C 1525.68 -1.91655 0.419834 0
M  V30 16607 O 1524.81 -2.11448 -0.460308 0
M  V30 16608 C 1525.4 -1.80581 2.86663 0
M  V30 16609 C 1523.96 -2.33487 2.9523 0
M  V30 16610 C 1523.11 -1.13362 2.5307 0
M  V30 16611 H 1526.06 -0.193364 1.57518 0
M  V30 16612 H 1526.08 -2.66282 2.71798 0
M  V30 16613 H 1525.59 -1.13262 3.71205 0
M  V30 16614 H 1523.69 -3.0419 2.15173 0
M  V30 16615 H 1523.81 -2.64617 3.99393 0
M  V30 16616 H 1522.17 -1.48641 2.06828 0
M  V30 16617 H 1522.95 -0.476148 3.39982 0
M  V30 16618 N 1525.4 -1.4265 -0.669982 0
M  V30 16619 C 1526.81 -1.38614 -1.25072 0
M  V30 16620 C 1527.16 -0.0818051 -1.96029 0
M  V30 16621 O 1526.29 0.81931 -2.0029 0
M  V30 16622 C 1526.88 -2.51085 -2.27469 0
M  V30 16623 C 1525.44 -2.50366 -2.81059 0
M  V30 16624 C 1524.59 -2.29632 -1.5545 0
M  V30 16625 H 1527.54 -1.51794 -0.463058 0
M  V30 16626 H 1527.56 -2.21612 -3.09303 0
M  V30 16627 H 1527.07 -3.46002 -1.75796 0
M  V30 16628 H 1525.17 -1.5928 -3.36839 0
M  V30 16629 H 1525.29 -3.47569 -3.29746 0
M  V30 16630 H 1523.65 -1.77982 -1.82193 0
M  V30 16631 H 1524.43 -3.26611 -1.05736 0
M  V30 16632 N 1526.88 0.906753 -1.28902 0
M  V30 16633 C 1527.84 1.99158 -1.1344 0
M  V30 16634 C 1528.84 1.60639 -0.0719551 0
M  V30 16635 O 1530.03 1.71267 -0.318317 0
M  V30 16636 C 1527.16 3.32923 -0.733172 0
M  V30 16637 H 1528.36 2.14305 -2.09794 0
M  V30 16638 H 1525.91 1.09034 -1.11988 0
M  V30 16639 H 1526.64 3.23477 0.230826 0
M  V30 16640 H 1526.43 3.62244 -1.50073 0
M  V30 16641 H 1527.92 4.12544 -0.64784 0
M  V30 16642 N 1528.36 1.11264 1.11616 0
M  V30 16643 C 1529.6 0.871546 1.83781 0
M  V30 16644 C 1529.96 -0.596417 1.82922 0
M  V30 16645 O 1529.25 -1.43461 1.27002 0
M  V30 16646 C 1529.44 1.36481 3.30315 0
M  V30 16647 C 1529.27 2.87919 3.45446 0
M  V30 16648 C 1528.04 3.5602 3.58577 0
M  V30 16649 C 1530.24 3.85983 3.39885 0
M  V30 16650 N 1528.22 4.95695 3.6216 0
M  V30 16651 C 1529.59 5.11716 3.50066 0
M  V30 16652 C 1531.65 3.78568 3.23405 0
M  V30 16653 C 1530.35 6.30908 3.45467 0
M  V30 16654 C 1532.38 4.97268 3.20122 0
M  V30 16655 C 1531.74 6.21854 3.30873 0
M  V30 16656 H 1527.84 0.372039 0.687831 0
M  V30 16657 H 1530.42 1.41664 1.33564 0
M  V30 16658 H 1528.59 0.84692 3.79054 0
M  V30 16659 H 1530.33 1.06705 3.90379 0
M  V30 16660 H 1527.08 3.06483 3.61061 0
M  V30 16661 H 1527.5 5.6851 3.67595 0
M  V30 16662 H 1532.15 2.83154 3.13981 0
M  V30 16663 H 1529.86 7.26602 3.5366 0
M  V30 16664 H 1533.45 4.93249 3.0854 0
M  V30 16665 H 1532.33 7.12163 3.28319 0
M  V30 16666 N 1529.83 -1.29188 0.902679 0
M  V30 16667 C 1531.24 -1.77521 0.578207 0
M  V30 16668 C 1531.6 -1.74017 -0.906227 0
M  V30 16669 O 1530.72 -1.32793 -1.70865 0
M  V30 16670 C 1531.32 -3.22352 1.04281 0
M  V30 16671 C 1529.87 -3.68451 0.769454 0
M  V30 16672 C 1529.02 -2.49225 1.21583 0
M  V30 16673 H 1531.97 -1.15807 1.0851 0
M  V30 16674 H 1531.99 -3.78604 0.379396 0
M  V30 16675 H 1531.51 -3.2487 2.12323 0
M  V30 16676 H 1529.61 -3.71405 -0.298223 0
M  V30 16677 H 1529.72 -4.59112 1.36943 0
M  V30 16678 H 1528.08 -2.46663 0.634766 0
M  V30 16679 H 1528.87 -2.54469 2.30436 0
M  V30 16680 N 1531.31 -0.665475 -1.42861 0
M  V30 16681 C 1532.26 0.0411925 -2.27963 0
M  V30 16682 C 1533.25 0.782763 -1.40576 0
M  V30 16683 O 1534.44 0.66321 -1.64105 0
M  V30 16684 C 1531.57 0.998333 -3.28463 0
M  V30 16685 C 1530.65 0.254595 -4.23335 0
M  V30 16686 N 1531.04 -0.735508 -5.00424 0
M  V30 16687 C 1529.34 0.494345 -4.43252 0
M  V30 16688 C 1530.04 -1.17807 -5.69646 0
M  V30 16689 N 1529.02 -0.509865 -5.41204 0
M  V30 16690 H 1532.82 -0.718381 -2.84985 0
M  V30 16691 H 1530.33 -0.493763 -1.54712 0
M  V30 16692 H 1532.33 1.51949 -3.88223 0
M  V30 16693 H 1530.99 1.75783 -2.73002 0
M  V30 16694 H 1532 -1.1147 -5.05762 0
M  V30 16695 H 1528.68 1.23407 -3.98845 0
M  V30 16696 H 1530.07 -1.998 -6.41506 0
M  V30 16697 N 1532.79 1.52222 -0.408187 0
M  V30 16698 C 1533.7 2.30725 0.424645 0
M  V30 16699 C 1534.72 1.38412 1.05442 0
M  V30 16700 O 1535.89 1.71486 1.05614 0
M  V30 16701 C 1532.96 3.11273 1.52677 0
M  V30 16702 C 1532.02 4.19323 0.920143 0
M  V30 16703 C 1531.25 4.96021 1.96974 0
M  V30 16704 O 1531.47 4.73011 3.18774 0
M  V30 16705 O 1530.41 5.80887 1.5765 0
M  V30 16706 H 1534.23 3.02935 -0.215411 0
M  V30 16707 H 1531.82 1.48413 -0.171414 0
M  V30 16708 H 1533.7 3.61436 2.16661 0
M  V30 16709 H 1532.38 2.41857 2.15144 0
M  V30 16710 H 1531.28 3.7331 0.243037 0
M  V30 16711 H 1532.62 4.91028 0.339405 0
M  V30 16712 N 1534.27 0.138579 1.5699 0
M  V30 16713 C 1535.52 -0.513611 1.95465 0
M  V30 16714 C 1535.84 -1.65952 1.02396 0
M  V30 16715 O 1535.11 -1.9572 0.0839001 0
M  V30 16716 H 1533.69 -0.192729 0.72171 0
M  V30 16717 H 1536.35 0.212107 1.93742 0
M  V30 16718 H 1535.44 -0.895313 2.98983 0
M  V30 16719 N 1535.75 -1.57019 -0.13521 0
M  V30 16720 C 1536.99 -1.84262 -0.847071 0
M  V30 16721 C 1537.32 -0.721946 -1.80282 0
M  V30 16722 O 1536.6 0.273535 -1.92567 0
M  V30 16723 C 1536.88 -3.22043 -1.61123 0
M  V30 16724 C 1536.74 -4.44689 -0.67617 0
M  V30 16725 C 1538.05 -3.57188 -2.57108 0
M  V30 16726 H 1535.17 -0.670246 -0.306496 0
M  V30 16727 H 1537.82 -1.89671 -0.111843 0
M  V30 16728 H 1535.97 -3.17563 -2.23799 0
M  V30 16729 H 1537.64 -4.61262 -0.0595009 0
M  V30 16730 H 1535.88 -4.33798 0.0134526 0
M  V30 16731 H 1536.55 -5.37727 -1.24714 0
M  V30 16732 H 1539.03 -3.62354 -2.04545 0
M  V30 16733 H 1537.9 -4.54602 -3.07617 0
M  V30 16734 H 1538.16 -2.83758 -3.39019 0
M  V30 16735 N 1537.22 0.404919 -1.52309 0
M  V30 16736 C 1538.47 1.14859 -1.65802 0
M  V30 16737 C 1538.79 1.91546 -0.396174 0
M  V30 16738 O 1539.99 2.68372 -0.410969 0
M  V30 16739 C 1538.45 2.09068 -2.92948 0
M  V30 16740 C 1538.06 1.37878 -4.26255 0
M  V30 16741 C 1539.8 2.83669 -3.15804 0
M  V30 16742 C 1537.71 2.30761 -5.44521 0
M  V30 16743 H 1536.64 0.432463 -0.61765 0
M  V30 16744 H 1539.29 0.412695 -1.78799 0
M  V30 16745 H 1537.67 2.86228 -2.7366 0
M  V30 16746 H 1538.84 0.660543 -4.56041 0
M  V30 16747 H 1537.16 0.753026 -4.09534 0
M  V30 16748 H 1539.76 3.53313 -4.0134 0
M  V30 16749 H 1540.1 3.46855 -2.30212 0
M  V30 16750 H 1540.63 2.13607 -3.35584 0
M  V30 16751 H 1537.37 1.72214 -6.32473 0
M  V30 16752 H 1536.89 3.00546 -5.19069 0
M  V30 16753 H 1538.57 2.91195 -5.77767 0
M  V30 16754 N 1538.7 1.43003 0.662408 0
M  V30 16755 C 1539.95 1.43422 1.41821 0
M  V30 16756 C 1540.26 0.0586909 1.95512 0
M  V30 16757 O 1541.47 -0.0596978 2.71434 0
M  V30 16758 C 1539.93 2.52344 2.56613 0
M  V30 16759 C 1539.53 3.95961 2.09569 0
M  V30 16760 C 1541.28 2.61945 3.34044 0
M  V30 16761 C 1539.19 4.96367 3.21518 0
M  V30 16762 H 1538.12 0.533485 0.532832 0
M  V30 16763 H 1540.77 1.68958 0.715911 0
M  V30 16764 H 1539.15 2.19993 3.2927 0
M  V30 16765 H 1540.32 4.37728 1.43984 0
M  V30 16766 H 1538.64 3.90322 1.45044 0
M  V30 16767 H 1541.23 3.34137 4.17441 0
M  V30 16768 H 1541.58 1.66708 3.81463 0
M  V30 16769 H 1542.11 2.93552 2.68463 0
M  V30 16770 H 1538.85 5.93124 2.79077 0
M  V30 16771 H 1538.37 4.59221 3.85845 0
M  V30 16772 H 1540.05 5.18652 3.86793 0
M  V30 16773 N 1540.18 -0.899904 1.29381 0
M  V30 16774 C 1541.43 -1.65038 1.17341 0
M  V30 16775 C 1541.76 -1.92544 -0.275135 0
M  V30 16776 O 1541.01 -1.53402 -1.21517 0
M  V30 16777 C 1541.31 -3.0069 1.93185 0
M  V30 16778 C 1540.98 -2.92792 3.42905 0
M  V30 16779 C 1539.64 -2.90345 3.83736 0
M  V30 16780 C 1541.99 -2.82015 4.38312 0
M  V30 16781 C 1539.32 -2.7494 5.1829 0
M  V30 16782 C 1541.67 -2.68149 5.72956 0
M  V30 16783 C 1540.33 -2.64068 6.13045 0
M  V30 16784 H 1539.6 -0.603915 0.42938 0
M  V30 16785 H 1542.25 -1.04743 1.60316 0
M  V30 16786 H 1540.56 -3.6485 1.428 0
M  V30 16787 H 1542.25 -3.57688 1.81274 0
M  V30 16788 H 1538.84 -2.95498 3.10449 0
M  V30 16789 H 1543.03 -2.82982 4.07719 0
M  V30 16790 H 1538.28 -2.70186 5.48461 0
M  V30 16791 H 1542.46 -2.58781 6.46533 0
M  V30 16792 H 1540.08 -2.51889 7.17256 0
M  V30 16793 N 1541.66 -1.11854 -1.11024 0
M  V30 16794 C 1542.94 -0.781693 -1.79301 0
M  V30 16795 C 1543.32 0.72956 -1.98092 0
M  V30 16796 O 1542.66 1.66109 -1.56908 0
M  V30 16797 C 1542.87 -1.54976 -3.12703 0
M  V30 16798 C 1544.22 -1.73183 -3.87676 0
M  V30 16799 O 1545.25 -1.51437 -3.22406 0
M  V30 16800 O 1544.1 -2.0935 -5.04812 0
M  V30 16801 H 1541.2 -0.283672 -0.776826 0
M  V30 16802 H 1543.74 -1.22222 -1.17728 0
M  V30 16803 H 1542.52 -2.57759 -2.94408 0
M  V30 16804 H 1542.14 -1.10308 -3.81992 0
M  V30 16805 N 1543.14 1.28707 -0.909517 0
M  V30 16806 C 1544.08 2.29396 -0.384756 0
M  V30 16807 C 1545.08 1.61179 0.521318 0
M  V30 16808 O 1546.28 1.7543 0.403032 0
M  V30 16809 H 1542.66 0.744518 -0.105814 0
M  V30 16810 H 1544.63 2.71089 -1.24714 0
M  V30 16811 C 1543.38 3.45792 0.363795 0
M  V30 16812 H 1542.7 3.98483 -0.324198 0
M  V30 16813 H 1544.14 4.18254 0.695681 0
M  V30 16814 C 1542.6 2.98075 1.57012 0
M  V30 16815 O 1543.13 3.00187 2.66929 0
M  V30 16816 N 1541.34 2.53787 1.41565 0
M  V30 16817 H 1540.88 2.52268 0.521415 0
M  V30 16818 H 1540.84 2.2222 2.22408 0
M  V30 16819 N 1544.61 0.673042 1.42506 0
M  V30 16820 C 1545.86 0.194864 2.01862 0
M  V30 16821 C 1546.19 -1.19491 1.53087 0
M  V30 16822 O 1545.47 -1.80187 0.732322 0
M  V30 16823 C 1545.75 0.227559 3.5938 0
M  V30 16824 C 1545.6 1.65266 4.18338 0
M  V30 16825 C 1546.92 -0.425197 4.38041 0
M  V30 16826 H 1544.04 0.0722831 0.733447 0
M  V30 16827 H 1546.68 0.857493 1.6955 0
M  V30 16828 H 1544.83 -0.336658 3.87039 0
M  V30 16829 H 1546.51 2.26899 4.0164 0
M  V30 16830 H 1544.75 2.19388 3.74234 0
M  V30 16831 H 1545.42 1.62724 5.2747 0
M  V30 16832 H 1547.9 0.0550709 4.16064 0
M  V30 16833 H 1546.77 -0.371675 5.4764 0
M  V30 16834 H 1547.03 -1.50251 4.15785 0
M  V30 16835 N 1546.09 -1.52004 0.416254 0
M  V30 16836 C 1547.04 -2.28771 -0.420331 0
M  V30 16837 C 1548.03 -1.33751 -1.03957 0
M  V30 16838 O 1549.24 -1.51181 -0.976951 0
M  V30 16839 H 1545.62 -0.735991 -0.15434 0
M  V30 16840 H 1547.59 -2.97366 0.248255 0
M  V30 16841 C 1546.34 -3.12675 -1.52085 0
M  V30 16842 H 1545.66 -3.85665 -1.0537 0
M  V30 16843 H 1547.1 -3.69482 -2.07989 0
M  V30 16844 C 1545.56 -2.26692 -2.49224 0
M  V30 16845 O 1546.09 -1.91205 -3.53276 0
M  V30 16846 N 1544.29 -1.90322 -2.19604 0
M  V30 16847 H 1543.84 -2.1938 -1.35019 0
M  V30 16848 H 1543.8 -1.33086 -2.84843 0
M  V30 16849 N 1547.57 -0.146903 -1.56914 0
M  V30 16850 C 1548.82 0.504234 -1.96122 0
M  V30 16851 C 1549.15 1.64879 -1.03175 0
M  V30 16852 O 1548.4 1.95605 -0.0609397 0
M  V30 16853 C 1548.7 1.05159 -3.41579 0
M  V30 16854 C 1548.37 0.0254845 -4.50893 0
M  V30 16855 C 1547.03 -0.256589 -4.80515 0
M  V30 16856 C 1549.38 -0.672284 -5.16846 0
M  V30 16857 C 1546.71 -1.24224 -5.73398 0
M  V30 16858 C 1549.06 -1.64675 -6.1079 0
M  V30 16859 C 1547.72 -1.93652 -6.38792 0
M  V30 16860 H 1546.99 0.184512 -0.71766 0
M  V30 16861 H 1549.64 -0.233712 -1.90069 0
M  V30 16862 H 1547.95 1.86687 -3.44464 0
M  V30 16863 H 1549.64 1.56398 -3.69244 0
M  V30 16864 H 1546.23 0.255517 -4.27838 0
M  V30 16865 H 1550.42 -0.467555 -4.94093 0
M  V30 16866 H 1545.67 -1.47319 -5.93386 0
M  V30 16867 H 1549.85 -2.19294 -6.60971 0
M  V30 16868 H 1547.47 -2.70179 -7.10568 0
M  V30 16869 N 1549.05 1.57088 0.126881 0
M  V30 16870 C 1549.98 1.94951 1.18614 0
M  V30 16871 C 1550.96 0.818067 1.40522 0
M  V30 16872 O 1552.14 1.07553 1.54805 0
M  V30 16873 C 1549.27 2.23893 2.54144 0
M  V30 16874 C 1548.32 3.46475 2.48712 0
M  V30 16875 S 1549.15 4.9934 1.93443 0
M  V30 16876 C 1550.31 5.31426 3.30662 0
M  V30 16877 H 1550.54 2.84492 0.863219 0
M  V30 16878 H 1548.07 1.50759 0.333323 0
M  V30 16879 H 1550.03 2.41247 3.3213 0
M  V30 16880 H 1548.69 1.3498 2.83618 0
M  V30 16881 H 1547.88 3.64067 3.48528 0
M  V30 16882 H 1547.49 3.28467 1.78844 0
M  V30 16883 H 1549.78 5.26125 4.26847 0
M  V30 16884 H 1550.72 6.32726 3.17905 0
M  V30 16885 H 1551.13 4.5891 3.28727 0
M  V30 16886 N 1550.53 -0.396836 1.52522 0
M  V30 16887 C 1551.76 -1.16235 1.70801 0
M  V30 16888 C 1552.16 -1.8442 0.422591 0
M  V30 16889 O 1551.51 -1.732 -0.612171 0
M  V30 16890 C 1551.57 -2.25922 2.79642 0
M  V30 16891 C 1551.23 -1.7777 4.21007 0
M  V30 16892 C 1552.23 -1.25873 5.04432 0
M  V30 16893 C 1549.92 -1.84231 4.67295 0
M  V30 16894 C 1551.91 -0.810733 6.32223 0
M  V30 16895 C 1549.6 -1.39043 5.95072 0
M  V30 16896 C 1550.59 -0.875508 6.77365 0
M  V30 16897 O 1550.28 -0.430197 8.02748 0
M  V30 16898 H 1550.01 -0.354799 0.575407 0
M  V30 16899 H 1552.57 -0.471344 1.99919 0
M  V30 16900 H 1550.8 -2.98424 2.45927 0
M  V30 16901 H 1552.49 -2.87629 2.86399 0
M  V30 16902 H 1553.25 -1.20244 4.69858 0
M  V30 16903 H 1549.13 -2.23253 4.03335 0
M  V30 16904 H 1552.68 -0.408137 6.96405 0
M  V30 16905 H 1548.57 -1.44354 6.29152 0
M  V30 16906 H 1549.34 -0.552389 8.16634 0
M  V30 16907 N 1552.01 -1.43353 -0.654814 0
M  V30 16908 C 1553.23 -1.48536 -1.44748 0
M  V30 16909 C 1553.66 -0.103991 -1.87812 0
M  V30 16910 O 1553.01 0.901924 -1.57274 0
M  V30 16911 C 1553.06 -2.43498 -2.65972 0
M  V30 16912 O 1552.17 -1.92014 -3.64972 0
M  V30 16913 H 1551.51 -0.502476 -0.434067 0
M  V30 16914 H 1554.04 -1.88251 -0.801427 0
M  V30 16915 H 1554.05 -2.60748 -3.13806 0
M  V30 16916 H 1552.72 -3.43847 -2.3397 0
M  V30 16917 H 1551.3 -1.84417 -3.24106 0
M  V30 16918 N 1553.48 0.89303 -1.29857 0
M  V30 16919 C 1554.89 1.45948 -1.16431 0
M  V30 16920 C 1555.25 1.94751 0.238051 0
M  V30 16921 O 1554.37 1.84302 1.1341 0
M  V30 16922 C 1554.97 2.6527 -2.10754 0
M  V30 16923 C 1553.52 3.1803 -2.0133 0
M  V30 16924 C 1552.67 1.90721 -2.01297 0
M  V30 16925 H 1555.62 0.70373 -1.42244 0
M  V30 16926 H 1555.64 3.41223 -1.68366 0
M  V30 16927 H 1555.16 2.2972 -3.1281 0
M  V30 16928 H 1553.26 3.58257 -1.02386 0
M  V30 16929 H 1553.37 3.81876 -2.89323 0
M  V30 16930 H 1551.73 2.0871 -1.45987 0
M  V30 16931 H 1552.52 1.5744 -3.0507 0
M  V30 16932 N 1554.96 1.12442 1.10429 0
M  V30 16933 C 1556.21 0.878021 1.82031 0
M  V30 16934 C 1556.53 -0.597787 1.85611 0
M  V30 16935 O 1555.8 -1.43442 1.33422 0
M  V30 16936 H 1554.38 0.321839 0.674113 0
M  V30 16937 H 1557.04 1.41891 1.33615 0
M  V30 16938 H 1556.14 1.25957 2.85554 0
M  V30 16939 N 1556.44 -1.28223 0.91633 0
M  V30 16940 C 1557.69 -1.9448 0.549734 0
M  V30 16941 C 1558.01 -1.72465 -0.909999 0
M  V30 16942 O 1557.28 -1.06583 -1.64368 0
M  V30 16943 H 1555.86 -0.719641 0.200315 0
M  V30 16944 H 1558.52 -1.56156 1.16625 0
M  V30 16945 H 1557.62 -3.03044 0.746363 0
M  V30 16946 N 1557.92 -0.68059 -1.42147 0
M  V30 16947 C 1559.33 -0.281841 -1.8456 0
M  V30 16948 C 1559.68 1.17714 -1.56965 0
M  V30 16949 O 1558.8 1.90185 -1.03241 0
M  V30 16950 C 1559.4 -0.504751 -3.35019 0
M  V30 16951 C 1557.96 -0.160067 -3.76059 0
M  V30 16952 C 1557.11 -0.794377 -2.65678 0
M  V30 16953 H 1560.06 -0.882337 -1.31911 0
M  V30 16954 H 1560.08 0.241308 -3.79734 0
M  V30 16955 H 1559.59 -1.56669 -3.55072 0
M  V30 16956 H 1557.69 0.898202 -3.61612 0
M  V30 16957 H 1557.8 -0.60463 -4.75269 0
M  V30 16958 H 1556.17 -0.225213 -2.53702 0
M  V30 16959 H 1556.95 -1.85989 -2.88553 0
M  V30 16960 N 1559.4 1.51781 -0.424309 0
M  V30 16961 C 1560.33 2.30313 0.384462 0
M  V30 16962 C 1561.31 1.35166 1.03268 0
M  V30 16963 O 1562.49 1.64081 1.0388 0
M  V30 16964 C 1559.62 3.13566 1.49311 0
M  V30 16965 C 1558.58 4.16884 0.969096 0
M  V30 16966 C 1557.9 4.88576 2.17251 0
M  V30 16967 C 1559.2 5.22298 0.0125613 0
M  V30 16968 H 1560.9 2.98172 -0.270871 0
M  V30 16969 H 1558.44 1.43396 -0.131712 0
M  V30 16970 H 1560.39 3.67279 2.06602 0
M  V30 16971 H 1559.12 2.43504 2.17655 0
M  V30 16972 H 1557.78 3.64203 0.418494 0
M  V30 16973 H 1557.43 4.15029 2.84183 0
M  V30 16974 H 1557.13 5.58432 1.82833 0
M  V30 16975 H 1558.65 5.45107 2.75119 0
M  V30 16976 H 1560.06 5.71161 0.494744 0
M  V30 16977 H 1558.46 5.99606 -0.243544 0
M  V30 16978 H 1559.53 4.75935 -0.92813 0
M  V30 16979 N 1560.87 0.155222 1.56834 0
M  V30 16980 C 1562.12 -0.494557 1.96677 0
M  V30 16981 C 1562.45 -1.63973 1.04051 0
M  V30 16982 O 1561.73 -1.94316 0.0844791 0
M  V30 16983 C 1562.01 -0.992902 3.46141 0
M  V30 16984 C 1561.86 0.151335 4.49545 0
M  V30 16985 C 1563.18 -1.87197 3.98303 0
M  V30 16986 H 1560.3 -0.178298 0.715107 0
M  V30 16987 H 1562.94 0.23811 1.88502 0
M  V30 16988 H 1561.09 -1.61724 3.53239 0
M  V30 16989 H 1562.77 0.787945 4.54521 0
M  V30 16990 H 1561.01 0.809262 4.26185 0
M  V30 16991 H 1561.68 -0.23921 5.51481 0
M  V30 16992 H 1564.16 -1.34578 3.93736 0
M  V30 16993 H 1563.03 -2.18972 5.03331 0
M  V30 16994 H 1563.29 -2.81191 3.41151 0
M  V30 16995 N 1562.35 -1.57153 -0.118549 0
M  V30 16996 C 1563.28 -2.03409 -1.1466 0
M  V30 16997 C 1564.26 -0.918636 -1.43161 0
M  V30 16998 O 1565.45 -1.18838 -1.53594 0
M  V30 16999 C 1562.58 -2.43879 -2.47265 0
M  V30 17000 C 1561.53 -3.58873 -2.33225 0
M  V30 17001 C 1560.86 -3.85244 -3.70798 0
M  V30 17002 C 1562.16 -4.90582 -1.79239 0
M  V30 17003 H 1563.85 -2.89545 -0.761862 0
M  V30 17004 H 1561.4 -1.39296 -0.365034 0
M  V30 17005 H 1563.35 -2.74844 -3.19435 0
M  V30 17006 H 1562.07 -1.54715 -2.8763 0
M  V30 17007 H 1560.73 -3.28119 -1.63504 0
M  V30 17008 H 1560.38 -2.93285 -4.08648 0
M  V30 17009 H 1560.08 -4.62649 -3.62257 0
M  V30 17010 H 1561.61 -4.18661 -4.44472 0
M  V30 17011 H 1563.02 -5.20079 -2.41227 0
M  V30 17012 H 1561.42 -5.71989 -1.81518 0
M  V30 17013 H 1562.49 -4.79065 -0.74999 0
M  V30 17014 N 1563.83 0.388742 -1.5273 0
M  V30 17015 C 1564.78 1.47488 -1.77527 0
M  V30 17016 C 1565.75 1.54155 -0.618505 0
M  V30 17017 O 1566.93 1.70407 -0.858251 0
M  V30 17018 C 1564.07 2.84714 -1.95018 0
M  V30 17019 C 1563.18 2.87197 -3.2271 0
M  V30 17020 C 1562.32 4.15851 -3.30517 0
M  V30 17021 C 1561.36 4.12386 -4.52332 0
M  V30 17022 N 1560.5 5.32647 -4.57418 0
M  V30 17023 H 1565.34 1.25644 -2.70218 0
M  V30 17024 H 1562.87 0.609519 -1.33878 0
M  V30 17025 H 1564.83 3.64402 -2.03143 0
M  V30 17026 H 1563.46 3.05008 -1.05688 0
M  V30 17027 H 1562.51 1.99879 -3.23655 0
M  V30 17028 H 1563.82 2.80505 -4.12454 0
M  V30 17029 H 1562.98 5.03943 -3.37827 0
M  V30 17030 H 1561.72 4.25265 -2.38748 0
M  V30 17031 H 1560.72 3.22683 -4.45147 0
M  V30 17032 H 1561.95 4.04594 -5.45418 0
M  V30 17033 H 1559.89 5.42691 -3.68541 0
M  V30 17034 H 1559.81 5.28032 -5.41035 0
M  V30 17035 H 1561.08 6.22636 -4.68983 0
M  V30 17036 N 1565.31 1.43698 0.647203 0
M  V30 17037 C 1566.26 1.45765 1.75318 0
M  V30 17038 C 1567.24 0.32536 1.57576 0
M  V30 17039 O 1568.43 0.569564 1.67586 0
M  V30 17040 C 1565.56 1.38923 3.13935 0
M  V30 17041 C 1564.65 2.57205 3.37204 0
M  V30 17042 N 1565.04 3.82529 3.30916 0
M  V30 17043 C 1563.34 2.52057 3.67944 0
M  V30 17044 C 1564.04 4.61252 3.54431 0
M  V30 17045 N 1563.01 3.92076 3.76534 0
M  V30 17046 H 1566.82 2.40527 1.6889 0
M  V30 17047 H 1564.33 1.38435 0.849093 0
M  V30 17048 H 1566.33 1.38487 3.93226 0
M  V30 17049 H 1564.99 0.451864 3.2154 0
M  V30 17050 H 1566 4.1473 3.10192 0
M  V30 17051 H 1562.68 1.67038 3.82628 0
M  V30 17052 H 1564.07 5.70275 3.55297 0
M  V30 17053 N 1566.79 -0.886131 1.30328 0
M  V30 17054 C 1567.72 -2.00793 1.19183 0
M  V30 17055 C 1568.7 -1.69899 0.08276 0
M  V30 17056 O 1569.88 -1.92389 0.264593 0
M  V30 17057 C 1567.01 -3.35922 0.881669 0
M  V30 17058 C 1565.97 -3.81072 1.94855 0
M  V30 17059 C 1565.29 -5.1348 1.4914 0
M  V30 17060 C 1566.59 -3.99923 3.35944 0
M  V30 17061 H 1568.29 -2.10375 2.13032 0
M  V30 17062 H 1565.83 -1.0108 1.02561 0
M  V30 17063 H 1567.79 -4.13922 0.790359 0
M  V30 17064 H 1566.51 -3.26469 -0.0925037 0
M  V30 17065 H 1565.17 -3.053 2.02947 0
M  V30 17066 H 1564.82 -5.00453 0.50553 0
M  V30 17067 H 1564.52 -5.44659 2.205 0
M  V30 17068 H 1566.04 -5.94005 1.41386 0
M  V30 17069 H 1567.45 -4.68364 3.30617 0
M  V30 17070 H 1565.85 -4.42477 4.05381 0
M  V30 17071 H 1566.92 -3.03816 3.77921 0
M  V30 17072 N 1568.26 -1.13026 -1.09832 0
M  V30 17073 C 1569.49 -0.91246 -1.85693 0
M  V30 17074 C 1569.91 0.538558 -1.80956 0
M  V30 17075 O 1569.26 1.37262 -1.20273 0
M  V30 17076 C 1569.32 -1.38684 -3.3384 0
M  V30 17077 O 1569.04 -2.78099 -3.38515 0
M  V30 17078 C 1570.54 -1.20688 -4.26555 0
M  V30 17079 H 1567.76 -0.32565 -0.58668 0
M  V30 17080 H 1570.3 -1.50177 -1.38806 0
M  V30 17081 H 1568.46 -0.840617 -3.7817 0
M  V30 17082 H 1568.87 -2.99061 -4.30886 0
M  V30 17083 H 1570.34 -1.5876 -5.28677 0
M  V30 17084 H 1570.82 -0.148111 -4.3895 0
M  V30 17085 H 1571.43 -1.74092 -3.88036 0
M  V30 17086 N 1569.74 1.27735 -0.923117 0
M  V30 17087 C 1570.71 2.25256 -0.423375 0
M  V30 17088 C 1571.71 1.54213 0.455517 0
M  V30 17089 O 1572.9 1.7229 0.257245 0
M  V30 17090 C 1570.03 3.3864 0.391897 0
M  V30 17091 H 1571.22 2.70978 -1.28495 0
M  V30 17092 H 1568.77 1.39579 -0.703378 0
M  V30 17093 H 1569.51 2.98293 1.27248 0
M  V30 17094 H 1569.29 3.91376 -0.238194 0
M  V30 17095 H 1570.78 4.11133 0.732069 0
M  V30 17096 N 1571.22 0.688118 1.41784 0
M  V30 17097 C 1572.15 0.0323199 2.33478 0
M  V30 17098 C 1573.13 -0.775145 1.51412 0
M  V30 17099 O 1574.32 -0.72962 1.79973 0
M  V30 17100 C 1571.45 -0.910141 3.35162 0
M  V30 17101 C 1570.4 -0.210312 4.27483 0
M  V30 17102 C 1569.73 -1.26662 5.19481 0
M  V30 17103 C 1571.03 0.918839 5.14154 0
M  V30 17104 H 1572.72 0.798138 2.88566 0
M  V30 17105 H 1570.27 0.385262 1.38751 0
M  V30 17106 H 1572.22 -1.3781 3.98229 0
M  V30 17107 H 1570.94 -1.70754 2.78408 0
M  V30 17108 H 1569.6 0.237544 3.6583 0
M  V30 17109 H 1569.25 -2.05635 4.59046 0
M  V30 17110 H 1568.95 -0.803416 5.82082 0
M  V30 17111 H 1570.47 -1.73524 5.85424 0
M  V30 17112 H 1571.89 0.531499 5.70831 0
M  V30 17113 H 1570.29 1.30867 5.85657 0
M  V30 17114 H 1571.36 1.7618 4.51762 0
M  V30 17115 N 1572.7 -1.51554 0.432352 0
M  V30 17116 C 1573.95 -2.01232 -0.137255 0
M  V30 17117 C 1574.26 -1.32135 -1.44221 0
M  V30 17118 O 1575.47 -1.72756 -2.09446 0
M  V30 17119 C 1573.92 -3.58688 -0.295152 0
M  V30 17120 C 1573.53 -4.36718 0.999072 0
M  V30 17121 C 1575.27 -4.16528 -0.818798 0
M  V30 17122 C 1573.18 -5.85867 0.80709 0
M  V30 17123 H 1572.11 -0.751986 -0.0550696 0
M  V30 17124 H 1574.76 -1.74703 0.561352 0
M  V30 17125 H 1573.14 -3.81643 -1.05664 0
M  V30 17126 H 1574.32 -4.25512 1.76851 0
M  V30 17127 H 1572.63 -3.90306 1.45087 0
M  V30 17128 H 1575.23 -5.25664 -0.978841 0
M  V30 17129 H 1575.57 -3.75379 -1.79989 0
M  V30 17130 H 1576.11 -3.97632 -0.11575 0
M  V30 17131 H 1572.85 -6.31419 1.76041 0
M  V30 17132 H 1572.37 -5.9975 0.0773617 0
M  V30 17133 H 1574.04 -6.45375 0.458328 0
M  V30 17134 N 1574.18 -0.163538 -1.56749 0
M  V30 17135 C 1575.12 0.769787 -2.17584 0
M  V30 17136 C 1576.09 1.23246 -1.11354 0
M  V30 17137 O 1577.28 1.30203 -1.3947 0
M  V30 17138 C 1574.42 1.99685 -2.81461 0
M  V30 17139 C 1573.53 1.57846 -4.0213 0
M  V30 17140 C 1572.67 2.75858 -4.53955 0
M  V30 17141 C 1571.71 2.30473 -5.67053 0
M  V30 17142 N 1570.84 3.41551 -6.13423 0
M  V30 17143 H 1575.68 0.244221 -2.96998 0
M  V30 17144 H 1573.22 0.108821 -1.46697 0
M  V30 17145 H 1575.18 2.71643 -3.16648 0
M  V30 17146 H 1573.81 2.49624 -2.04664 0
M  V30 17147 H 1572.86 0.755907 -3.72814 0
M  V30 17148 H 1574.17 1.20525 -4.8402 0
M  V30 17149 H 1573.33 3.55984 -4.91284 0
M  V30 17150 H 1572.06 3.16434 -3.71107 0
M  V30 17151 H 1571.07 1.48791 -5.29284 0
M  V30 17152 H 1572.29 1.90964 -6.51698 0
M  V30 17153 H 1570.24 3.81717 -5.33506 0
M  V30 17154 H 1570.16 3.08298 -6.90281 0
M  V30 17155 H 1571.43 4.21985 -6.554 0
M  V30 17156 N 1575.65 1.57214 0.110213 0
M  V30 17157 C 1576.88 1.8988 0.834297 0
M  V30 17158 C 1577.3 0.756347 1.72224 0
M  V30 17159 O 1576.66 -0.292768 1.78921 0
M  V30 17160 C 1576.71 3.21338 1.63629 0
M  V30 17161 O 1575.81 3.07862 2.74399 0
M  V30 17162 H 1575.16 0.62283 0.23017 0
M  V30 17163 H 1577.69 2.04402 0.0899726 0
M  V30 17164 H 1577.7 3.54275 2.02369 0
M  V30 17165 H 1576.37 4.04079 0.984521 0
M  V30 17166 H 1574.95 2.8641 2.38797 0
M  V30 17167 N 1577.13 -0.380637 1.52934 0
M  V30 17168 C 1578.06 -1.48518 1.74571 0
M  V30 17169 C 1579.08 -1.50272 0.626263 0
M  V30 17170 O 1580.27 -1.54023 0.902167 0
M  V30 17171 C 1577.37 -2.87339 1.79693 0
M  V30 17172 C 1576.54 -3.09454 3.09123 0
M  V30 17173 C 1575.6 -4.28305 3.05682 0
M  V30 17174 O 1574.62 -4.24205 3.79524 0
M  V30 17175 N 1575.83 -5.34932 2.2545 0
M  V30 17176 H 1578.59 -1.30341 2.69873 0
M  V30 17177 H 1576.15 -0.57023 1.51526 0
M  V30 17178 H 1578.14 -3.64961 1.74887 0
M  V30 17179 H 1576.71 -2.98835 0.917414 0
M  V30 17180 H 1575.93 -2.19623 3.27352 0
M  V30 17181 H 1577.22 -3.21089 3.94689 0
M  V30 17182 H 1576.62 -5.41121 1.64939 0
M  V30 17183 H 1575.18 -6.11189 2.26476 0
M  V30 17184 N 1578.61 -1.44039 -0.639573 0
M  V30 17185 C 1579.52 -1.52728 -1.78077 0
M  V30 17186 C 1580.54 -0.413467 -1.69016 0
M  V30 17187 O 1581.71 -0.669592 -1.89943 0
M  V30 17188 C 1578.78 -1.46078 -3.14424 0
M  V30 17189 C 1577.84 -2.68242 -3.35179 0
M  V30 17190 C 1577.07 -2.61899 -4.65021 0
M  V30 17191 O 1577.29 -1.67431 -5.45273 0
M  V30 17192 O 1576.23 -3.52619 -4.87795 0
M  V30 17193 H 1580.05 -2.49122 -1.737 0
M  V30 17194 H 1577.64 -1.26191 -0.799755 0
M  V30 17195 H 1579.52 -1.44861 -3.95719 0
M  V30 17196 H 1578.2 -0.528236 -3.19361 0
M  V30 17197 H 1577.1 -2.75028 -2.53595 0
M  V30 17198 H 1578.44 -3.60514 -3.35098 0
M  V30 17199 N 1580.09 0.879207 -1.30796 0
M  V30 17200 C 1581.04 1.98553 -1.17667 0
M  V30 17201 C 1582.01 1.65974 -0.0647231 0
M  V30 17202 O 1583.19 1.89336 -0.235941 0
M  V30 17203 C 1580.33 3.3368 -0.880434 0
M  V30 17204 C 1579.44 3.78913 -2.07482 0
M  V30 17205 C 1578.58 5.02714 -1.71617 0
M  V30 17206 C 1577.62 5.40371 -2.87517 0
M  V30 17207 N 1576.75 6.55352 -2.5191 0
M  V30 17208 H 1581.59 2.09115 -2.12309 0
M  V30 17209 H 1579.13 1.02382 -1.05623 0
M  V30 17210 H 1581.09 4.11467 -0.689278 0
M  V30 17211 H 1579.72 3.22787 0.0291283 0
M  V30 17212 H 1578.77 2.96987 -2.37704 0
M  V30 17213 H 1580.08 4.02757 -2.94259 0
M  V30 17214 H 1579.24 5.88142 -1.4891 0
M  V30 17215 H 1577.98 4.80754 -0.820181 0
M  V30 17216 H 1576.98 4.53466 -3.10883 0
M  V30 17217 H 1578.21 5.64301 -3.77811 0
M  V30 17218 H 1576.15 6.34956 -1.64823 0
M  V30 17219 H 1576.07 6.79093 -3.32217 0
M  V30 17220 H 1577.34 7.43996 -2.32573 0
M  V30 17221 N 1581.57 1.13606 1.09231 0
M  V30 17222 C 1582.81 0.900386 1.81717 0
M  V30 17223 C 1583.15 -0.571984 1.85586 0
M  V30 17224 O 1582.42 -1.42336 1.32554 0
M  V30 17225 C 1582.7 1.49143 3.27763 0
M  V30 17226 C 1582.56 3.03306 3.32153 0
M  V30 17227 C 1583.88 1.16129 4.24502 0
M  V30 17228 H 1581 0.328531 0.659724 0
M  V30 17229 H 1583.64 1.40467 1.27941 0
M  V30 17230 H 1581.79 1.06256 3.73687 0
M  V30 17231 H 1583.46 3.54963 2.94617 0
M  V30 17232 H 1581.7 3.38192 2.71677 0
M  V30 17233 H 1582.37 3.39761 4.35047 0
M  V30 17234 H 1584.85 1.53193 3.86874 0
M  V30 17235 H 1583.73 1.60129 5.25024 0
M  V30 17236 H 1583.99 0.0752973 4.42036 0
M  V30 17237 N 1583.05 -1.27244 0.929878 0
M  V30 17238 C 1584.29 -1.93886 0.570331 0
M  V30 17239 C 1584.61 -1.7342 -0.891656 0
M  V30 17240 O 1583.88 -1.0832 -1.63228 0
M  V30 17241 H 1582.46 -0.717476 0.207937 0
M  V30 17242 H 1585.13 -1.5491 1.18275 0
M  V30 17243 H 1584.22 -3.02236 0.778463 0
M  V30 17244 N 1584.52 -0.695628 -1.41417 0
M  V30 17245 C 1585.77 -0.223719 -2.00455 0
M  V30 17246 C 1586.09 1.18352 -1.55731 0
M  V30 17247 O 1587.29 1.7529 -2.0733 0
M  V30 17248 C 1585.75 -0.349076 -3.58203 0
M  V30 17249 C 1585.36 -1.76168 -4.11909 0
M  V30 17250 C 1587.1 0.0630563 -4.24453 0
M  V30 17251 C 1585.01 -1.83869 -5.62091 0
M  V30 17252 H 1583.94 -0.0798833 -0.749756 0
M  V30 17253 H 1586.59 -0.863834 -1.61896 0
M  V30 17254 H 1584.97 0.35929 -3.94367 0
M  V30 17255 H 1586.14 -2.49881 -3.87164 0
M  V30 17256 H 1584.46 -2.1235 -3.58185 0
M  V30 17257 H 1587.06 0.0259584 -5.34694 0
M  V30 17258 H 1587.4 1.10179 -4.01455 0
M  V30 17259 H 1587.93 -0.595036 -3.93324 0
M  V30 17260 H 1584.67 -2.85796 -5.89916 0
M  V30 17261 H 1584.19 -1.14541 -5.88762 0
M  V30 17262 H 1585.87 -1.60161 -6.26863 0
M  V30 17263 N 1586 1.51322 -0.440383 0
M  V30 17264 C 1587.25 2.02413 0.125248 0
M  V30 17265 C 1587.58 1.32374 1.42094 0
M  V30 17266 O 1586.86 0.439624 1.89467 0
M  V30 17267 C 1587.14 3.58483 0.340858 0
M  V30 17268 C 1586.99 4.39134 -0.973701 0
M  V30 17269 C 1588.31 4.25891 1.10927 0
M  V30 17270 H 1585.43 0.735683 0.0440452 0
M  V30 17271 H 1588.07 1.80932 -0.579976 0
M  V30 17272 H 1586.22 3.76917 0.941572 0
M  V30 17273 H 1587.89 4.32343 -1.60863 0
M  V30 17274 H 1586.14 4.04097 -1.57759 0
M  V30 17275 H 1586.81 5.46506 -0.776845 0
M  V30 17276 H 1589.28 4.11746 0.600403 0
M  V30 17277 H 1588.16 5.34967 1.2289 0
M  V30 17278 H 1588.42 3.86958 2.13813 0
M  V30 17279 N 1587.48 0.171848 1.5666 0
M  V30 17280 C 1588.73 -0.472034 1.9651 0
M  V30 17281 C 1589.05 -1.63743 1.05893 0
M  V30 17282 O 1588.32 -1.95498 0.125396 0
M  V30 17283 H 1586.9 -0.177377 0.725635 0
M  V30 17284 H 1589.56 0.253155 1.93249 0
M  V30 17285 H 1588.66 -0.831693 3.00814 0
M  V30 17286 N 1588.96 -1.5727 -0.101874 0
M  V30 17287 C 1590.37 -1.5295 -0.455899 0
M  V30 17288 C 1590.57 -0.887526 -1.80901 0
M  V30 17289 O 1589.63 -0.477143 -2.47951 0
M  V30 17290 C 1590.94 -2.97687 -0.424625 0
M  V30 17291 C 1592.49 -3.08867 -0.506963 0
M  V30 17292 C 1592.97 -4.55197 -0.505907 0
M  V30 17293 N 1594.46 -4.59718 -0.566856 0
M  V30 17294 C 1595.19 -5.7038 -0.587766 0
M  V30 17295 N 1594.69 -6.9049 -0.56529 0
M  V30 17296 N 1596.48 -5.58535 -0.632067 0
M  V30 17297 H 1588.63 -1.97381 0.784509 0
M  V30 17298 H 1590.89 -0.902141 0.291284 0
M  V30 17299 H 1590.6 -3.48094 0.502312 0
M  V30 17300 H 1590.47 -3.56022 -1.24612 0
M  V30 17301 H 1592.86 -2.58451 -1.42432 0
M  V30 17302 H 1592.94 -2.53496 0.342544 0
M  V30 17303 H 1592.59 -5.06263 0.407477 0
M  V30 17304 H 1592.52 -5.08399 -1.37253 0
M  V30 17305 H 1595.01 -3.73271 -0.589696 0
M  V30 17306 H 1595.32 -7.70588 -0.584342 0
M  V30 17307 H 1593.67 -6.92957 -0.532444 0
M  V30 17308 H 1596.86 -4.63606 -0.647109 0
M  V30 17309 H 1597.03 -6.44783 -0.644895 0
M  V30 17310 N 1590.44 0.372521 -1.53134 0
M  V30 17311 C 1591.66 1.13668 -1.72879 0
M  V30 17312 C 1592.08 1.83246 -0.454588 0
M  V30 17313 O 1591.44 1.73302 0.572062 0
M  V30 17314 C 1591.49 2.17226 -2.88955 0
M  V30 17315 O 1591.21 1.50483 -4.11445 0
M  V30 17316 C 1592.71 3.06243 -3.20516 0
M  V30 17317 H 1589.93 0.340156 -0.57839 0
M  V30 17318 H 1592.47 0.433557 -1.99851 0
M  V30 17319 H 1590.63 2.83148 -2.64397 0
M  V30 17320 H 1591.04 2.19425 -4.76396 0
M  V30 17321 H 1592.52 3.74901 -4.05158 0
M  V30 17322 H 1592.99 3.70669 -2.35587 0
M  V30 17323 H 1593.6 2.45946 -3.46973 0
M  V30 17324 N 1591.91 1.44376 0.631925 0
M  V30 17325 C 1593.16 1.46827 1.38875 0
M  V30 17326 C 1593.48 0.101789 1.94734 0
M  V30 17327 O 1592.75 -0.86579 1.7573 0
M  V30 17328 H 1591.33 0.540642 0.515475 0
M  V30 17329 H 1593.99 1.80148 0.743822 0
M  V30 17330 H 1593.09 2.19321 2.22047 0
M  V30 17331 N 1593.39 -0.872258 1.31261 0
M  V30 17332 C 1594.35 -1.96081 1.1868 0
M  V30 17333 C 1595.35 -1.60392 0.11452 0
M  V30 17334 O 1596.54 -1.70363 0.363613 0
M  V30 17335 C 1593.68 -3.30862 0.821183 0
M  V30 17336 H 1594.87 -2.08667 2.15402 0
M  V30 17337 H 1592.42 -1.06026 1.14839 0
M  V30 17338 H 1593.16 -3.23976 -0.14498 0
M  V30 17339 H 1592.94 -3.58137 1.59625 0
M  V30 17340 H 1594.43 -4.10682 0.756991 0
M  V30 17341 N 1594.87 -1.14184 -1.08627 0
M  V30 17342 C 1596.12 -0.906869 -1.80611 0
M  V30 17343 C 1596.44 0.568182 -1.86539 0
M  V30 17344 O 1595.71 1.41301 -1.35687 0
M  V30 17345 H 1594.29 -0.332523 -0.668908 0
M  V30 17346 H 1596.95 -1.43998 -1.31341 0
M  V30 17347 H 1596.05 -1.30484 -2.83514 0
M  V30 17348 N 1596.35 1.26749 -0.936613 0
M  V30 17349 C 1597.3 2.26542 -0.441307 0
M  V30 17350 C 1598.27 1.58503 0.496581 0
M  V30 17351 O 1599.45 1.86259 0.41379 0
M  V30 17352 C 1596.59 3.43866 0.291633 0
M  V30 17353 C 1595.7 4.26592 -0.681397 0
M  V30 17354 C 1594.84 5.31151 0.0722826 0
M  V30 17355 C 1593.88 6.05553 -0.892869 0
M  V30 17356 N 1593.01 7.01891 -0.17124 0
M  V30 17357 H 1597.85 2.68282 -1.29725 0
M  V30 17358 H 1595.39 1.31914 -0.650928 0
M  V30 17359 H 1597.35 4.10711 0.732984 0
M  V30 17360 H 1595.98 3.03051 1.11175 0
M  V30 17361 H 1595.03 3.59579 -1.24126 0
M  V30 17362 H 1596.34 4.78201 -1.41864 0
M  V30 17363 H 1595.5 6.03987 0.57313 0
M  V30 17364 H 1594.24 4.80369 0.842439 0
M  V30 17365 H 1593.24 5.31548 -1.40488 0
M  V30 17366 H 1594.47 6.58424 -1.66296 0
M  V30 17367 H 1592.41 6.53426 0.580507 0
M  V30 17368 H 1592.33 7.5123 -0.847897 0
M  V30 17369 H 1593.6 7.78889 0.308662 0
M  V30 17370 N 1597.83 0.703118 1.41046 0
M  V30 17371 C 1599.05 0.245088 2.05947 0
M  V30 17372 C 1599.48 -1.09988 1.52592 0
M  V30 17373 O 1598.83 -1.69015 0.656023 0
M  V30 17374 C 1598.88 0.221444 3.59919 0
M  V30 17375 O 1597.99 -0.801324 4.0454 0
M  V30 17376 H 1597.33 0.117862 0.653456 0
M  V30 17377 H 1599.86 0.960099 1.80674 0
M  V30 17378 H 1599.87 0.0548681 4.07963 0
M  V30 17379 H 1598.54 1.20301 3.98121 0
M  V30 17380 H 1597.12 -0.603489 3.67984 0
M  V30 17381 N 1599.3 -1.51086 0.448402 0
M  V30 17382 C 1600.53 -2.07081 -0.115038 0
M  V30 17383 C 1600.95 -1.31253 -1.34737 0
M  V30 17384 O 1600.31 -0.353613 -1.77818 0
M  V30 17385 C 1600.36 -3.58321 -0.404803 0
M  V30 17386 O 1599.46 -3.84567 -1.48936 0
M  V30 17387 H 1598.81 -0.663993 0.00299118 0
M  V30 17388 H 1601.34 -1.94564 0.632921 0
M  V30 17389 H 1601.35 -4.02756 -0.652013 0
M  V30 17390 H 1600.02 -4.12934 0.495838 0
M  V30 17391 H 1598.6 -3.51987 -1.23124 0
M  V30 17392 N 1600.78 -0.180154 -1.56567 0
M  V30 17393 C 1601.71 0.742131 -2.21393 0
M  V30 17394 C 1602.69 1.23253 -1.1723 0
M  V30 17395 O 1603.88 1.28408 -1.45688 0
M  V30 17396 C 1601.01 1.96799 -2.8616 0
M  V30 17397 C 1599.96 1.6131 -3.96438 0
M  V30 17398 C 1599.29 2.91434 -4.48297 0
M  V30 17399 C 1600.59 0.834382 -5.15592 0
M  V30 17400 H 1602.28 0.201759 -2.98719 0
M  V30 17401 H 1599.83 0.0956016 -1.43682 0
M  V30 17402 H 1601.78 2.61828 -3.30188 0
M  V30 17403 H 1600.51 2.53264 -2.06215 0
M  V30 17404 H 1599.16 0.986451 -3.53079 0
M  V30 17405 H 1598.81 3.45958 -3.65133 0
M  V30 17406 H 1598.51 2.68439 -5.22699 0
M  V30 17407 H 1600.04 3.57478 -4.95017 0
M  V30 17408 H 1601.45 1.38745 -5.56258 0
M  V30 17409 H 1599.85 0.703132 -5.95966 0
M  V30 17410 H 1600.92 -0.167554 -4.8461 0
M  V30 17411 N 1602.26 1.57322 0.0935319 0
M  V30 17412 C 1603.51 1.85353 0.795445 0
M  V30 17413 C 1603.82 0.769647 1.79822 0
M  V30 17414 O 1605.03 0.937121 2.54814 0
M  V30 17415 C 1603.48 3.28711 1.4655 0
M  V30 17416 C 1603.09 4.45174 0.502415 0
M  V30 17417 C 1604.84 3.65965 2.15105 0
M  V30 17418 C 1602.74 5.79566 1.17715 0
M  V30 17419 H 1601.67 0.691394 0.300816 0
M  V30 17420 H 1604.32 1.83436 0.0484063 0
M  V30 17421 H 1602.71 3.25173 2.26005 0
M  V30 17422 H 1603.88 4.60062 -0.260754 0
M  V30 17423 H 1602.2 4.16328 -0.0775186 0
M  V30 17424 H 1604.79 4.63655 2.66323 0
M  V30 17425 H 1605.14 2.94667 2.94069 0
M  V30 17426 H 1605.67 3.71398 1.42508 0
M  V30 17427 H 1602.41 6.54099 0.428277 0
M  V30 17428 H 1601.93 5.68519 1.9117 0
M  V30 17429 H 1603.61 6.2418 1.70318 0
M  V30 17430 N 1603.74 -0.364395 1.53329 0
M  V30 17431 C 1604.96 -1.13196 1.73786 0
M  V30 17432 C 1605.39 -1.82231 0.466224 0
M  V30 17433 O 1604.75 -1.71778 -0.579817 0
M  V30 17434 C 1604.79 -2.13704 2.90453 0
M  V30 17435 O 1603.9 -3.20808 2.59144 0
M  V30 17436 H 1603.24 -0.328387 0.577112 0
M  V30 17437 H 1605.77 -0.421157 2.00218 0
M  V30 17438 H 1605.78 -2.57285 3.16652 0
M  V30 17439 H 1604.45 -1.6285 3.82691 0
M  V30 17440 H 1603.03 -2.82192 2.43767 0
M  V30 17441 N 1605.22 -1.44709 -0.62426 0
M  V30 17442 C 1606.18 -1.51738 -1.7178 0
M  V30 17443 C 1607.18 -0.398646 -1.5578 0
M  V30 17444 O 1608.37 -0.661525 -1.61151 0
M  V30 17445 C 1605.5 -1.39792 -3.1092 0
M  V30 17446 H 1606.69 -2.49154 -1.6692 0
M  V30 17447 H 1604.25 -1.31903 -0.838531 0
M  V30 17448 H 1604.98 -0.434955 -3.2137 0
M  V30 17449 H 1604.77 -2.20919 -3.2394 0
M  V30 17450 H 1606.26 -1.47706 -3.90606 0
M  V30 17451 N 1606.69 0.865285 -1.31722 0
M  V30 17452 C 1607.62 1.98871 -1.22362 0
M  V30 17453 C 1608.61 1.69745 -0.109779 0
M  V30 17454 O 1609.79 1.91944 -0.295167 0
M  V30 17455 C 1606.92 3.34477 -0.935 0
M  V30 17456 C 1605.87 3.77924 -2.00892 0
M  V30 17457 C 1605.2 5.11042 -1.57291 0
M  V30 17458 C 1606.5 3.94528 -3.42264 0
M  V30 17459 H 1608.19 2.06959 -2.16352 0
M  V30 17460 H 1605.74 0.994355 -1.04157 0
M  V30 17461 H 1607.69 4.12612 -0.856111 0
M  V30 17462 H 1606.42 3.26575 0.0405536 0
M  V30 17463 H 1605.08 3.02032 -2.07779 0
M  V30 17464 H 1604.72 4.99586 -0.585084 0
M  V30 17465 H 1604.42 5.41082 -2.29138 0
M  V30 17466 H 1605.95 5.91681 -1.50818 0
M  V30 17467 H 1607.36 4.63045 -3.38027 0
M  V30 17468 H 1605.76 4.35972 -4.12369 0
M  V30 17469 H 1606.83 2.97765 -3.82706 0
M  V30 17470 N 1608.17 1.14759 1.0802 0
M  V30 17471 C 1609.42 0.918248 1.80484 0
M  V30 17472 C 1609.75 -0.554986 1.86414 0
M  V30 17473 O 1609 -1.42732 1.33888 0
M  V30 17474 C 1609.3 1.4692 3.25805 0
M  V30 17475 C 1608.97 2.96176 3.39987 0
M  V30 17476 C 1607.63 3.36923 3.43564 0
M  V30 17477 C 1609.98 3.92131 3.43341 0
M  V30 17478 C 1607.31 4.72281 3.48092 0
M  V30 17479 C 1609.66 5.27351 3.49404 0
M  V30 17480 C 1608.33 5.67605 3.51256 0
M  V30 17481 H 1607.6 0.336011 0.660437 0
M  V30 17482 H 1610.24 1.43191 1.27156 0
M  V30 17483 H 1608.55 0.876571 3.81868 0
M  V30 17484 H 1610.24 1.26765 3.80436 0
M  V30 17485 H 1606.83 2.63675 3.37896 0
M  V30 17486 H 1611.02 3.61728 3.39804 0
M  V30 17487 H 1606.27 5.02823 3.4782 0
M  V30 17488 H 1610.45 6.01507 3.50946 0
M  V30 17489 H 1608.08 6.72474 3.54517 0
M  V30 17490 N 1609.65 -1.26251 0.943322 0
M  V30 17491 C 1611.07 -1.45943 0.645966 0
M  V30 17492 C 1611.27 -1.84936 -0.800064 0
M  V30 17493 O 1610.32 -1.97238 -1.57649 0
M  V30 17494 C 1611.64 -2.54017 1.60922 0
M  V30 17495 C 1613.18 -2.67866 1.61916 0
M  V30 17496 C 1613.66 -3.79113 2.56977 0
M  V30 17497 N 1615.15 -3.86509 2.55275 0
M  V30 17498 C 1615.88 -4.72048 3.25513 0
M  V30 17499 N 1615.38 -5.61959 4.05184 0
M  V30 17500 N 1617.17 -4.65913 3.14454 0
M  V30 17501 H 1609.32 -0.992295 1.87796 0
M  V30 17502 H 1611.59 -0.497204 0.80715 0
M  V30 17503 H 1611.29 -2.32197 2.64155 0
M  V30 17504 H 1611.17 -3.51715 1.36294 0
M  V30 17505 H 1613.55 -2.89059 0.594067 0
M  V30 17506 H 1613.64 -1.70604 1.90598 0
M  V30 17507 H 1613.28 -3.58673 3.59605 0
M  V30 17508 H 1613.21 -4.75836 2.25583 0
M  V30 17509 H 1615.7 -3.22229 1.97425 0
M  V30 17510 H 1616.01 -6.24127 4.55725 0
M  V30 17511 H 1614.36 -5.61704 4.09285 0
M  V30 17512 H 1617.55 -3.94675 2.51693 0
M  V30 17513 H 1617.72 -5.32356 3.69461 0
M  V30 17514 N 1611.13 -0.710588 -1.40671 0
M  V30 17515 C 1612.06 -0.0694601 -2.33397 0
M  V30 17516 C 1613.04 0.750959 -1.52626 0
M  V30 17517 O 1614.23 0.700896 -1.81111 0
M  V30 17518 C 1611.36 0.856704 -3.36568 0
M  V30 17519 C 1610.31 0.142276 -4.27763 0
M  V30 17520 C 1609.64 1.18382 -5.21431 0
M  V30 17521 C 1610.94 -1.00052 -5.12627 0
M  V30 17522 H 1612.63 -0.843945 -2.87259 0
M  V30 17523 H 1610.18 -0.407287 -1.3812 0
M  V30 17524 H 1612.13 1.31457 -4.00371 0
M  V30 17525 H 1610.85 1.66303 -2.81089 0
M  V30 17526 H 1609.51 -0.295714 -3.65405 0
M  V30 17527 H 1609.16 1.98306 -4.62259 0
M  V30 17528 H 1608.86 0.71071 -5.83286 0
M  V30 17529 H 1610.38 1.64189 -5.88111 0
M  V30 17530 H 1611.8 -0.622246 -5.69913 0
M  V30 17531 H 1610.19 -1.40168 -5.83501 0
M  V30 17532 H 1611.26 -1.83345 -4.48902 0
M  V30 17533 N 1612.61 1.50847 -0.456408 0
M  V30 17534 C 1613.83 2.07139 0.104054 0
M  V30 17535 C 1614.26 1.31966 1.34039 0
M  V30 17536 O 1613.62 0.363038 1.77628 0
M  V30 17537 C 1613.66 3.5853 0.385794 0
M  V30 17538 O 1612.77 3.85351 1.46895 0
M  V30 17539 H 1612.11 0.663968 -0.00651246 0
M  V30 17540 H 1614.64 1.94226 -0.64323 0
M  V30 17541 H 1614.65 4.03097 0.630644 0
M  V30 17542 H 1613.32 4.12665 -0.51773 0
M  V30 17543 H 1611.9 3.52635 1.21256 0
M  V30 17544 N 1614.09 0.188454 1.56469 0
M  V30 17545 C 1615 -0.747176 2.22384 0
M  V30 17546 C 1616.01 -1.23985 1.22081 0
M  V30 17547 O 1617.19 -1.2884 1.54797 0
M  V30 17548 C 1614.25 -1.95228 2.86508 0
M  V30 17549 C 1613.31 -1.50482 4.02062 0
M  V30 17550 C 1612.55 -2.65248 4.63119 0
M  V30 17551 O 1612.77 -3.8256 4.23088 0
M  V30 17552 O 1611.7 -2.38341 5.527 0
M  V30 17553 H 1615.53 -0.215857 3.02932 0
M  V30 17554 H 1613.11 -0.0405356 1.49345 0
M  V30 17555 H 1615 -2.65673 3.27103 0
M  V30 17556 H 1613.67 -2.47233 2.08944 0
M  V30 17557 H 1612.58 -0.769365 3.66103 0
M  V30 17558 H 1613.91 -1.03151 4.8127 0
M  V30 17559 N 1615.56 -1.5737 -0.0851874 0
M  V30 17560 C 1616.97 -1.7544 -0.638575 0
M  V30 17561 C 1617.33 -0.812041 -1.78607 0
M  V30 17562 O 1616.45 0.00710428 -2.16399 0
M  V30 17563 C 1617.05 -3.18134 -1.16517 0
M  V30 17564 C 1615.6 -3.37594 -1.66454 0
M  V30 17565 C 1614.75 -2.71203 -0.578274 0
M  V30 17566 H 1617.7 -1.58073 0.140931 0
M  V30 17567 H 1617.72 -3.21553 -2.0343 0
M  V30 17568 H 1617.24 -3.86696 -0.329794 0
M  V30 17569 H 1615.34 -2.74126 -2.5236 0
M  V30 17570 H 1615.45 -4.45968 -1.75071 0
M  V30 17571 H 1613.81 -2.33379 -1.02011 0
M  V30 17572 H 1614.6 -3.42413 0.246691 0
M  V30 17573 N 1617.04 0.356258 -1.53521 0
M  V30 17574 C 1617.95 1.46055 -1.83589 0
M  V30 17575 C 1618.97 1.58176 -0.724997 0
M  V30 17576 O 1620.14 1.73894 -1.01601 0
M  V30 17577 C 1617.21 2.81207 -2.0279 0
M  V30 17578 C 1616.27 2.78535 -3.26675 0
M  V30 17579 C 1615.5 4.07241 -3.4495 0
M  V30 17580 O 1615.73 5.03879 -2.67324 0
M  V30 17581 O 1614.66 4.12485 -4.38337 0
M  V30 17582 H 1618.49 1.23566 -2.77426 0
M  V30 17583 H 1616.07 0.547243 -1.39017 0
M  V30 17584 H 1617.95 3.61271 -2.16936 0
M  V30 17585 H 1616.63 3.03654 -1.12143 0
M  V30 17586 H 1615.53 1.97137 -3.17943 0
M  V30 17587 H 1616.87 2.61042 -4.17274 0
M  V30 17588 N 1618.52 1.45038 0.616577 0
M  V30 17589 C 1619.77 1.48292 1.3731 0
M  V30 17590 C 1620.09 0.122437 1.94615 0
M  V30 17591 O 1619.36 -0.847103 1.76638 0
M  V30 17592 H 1617.94 0.546079 0.509712 0
M  V30 17593 H 1620.6 1.80927 0.724673 0
M  V30 17594 H 1619.7 2.21664 2.19708 0
M  V30 17595 N 1620 -0.858287 1.32179 0
M  V30 17596 C 1620.94 -1.96656 1.20811 0
M  V30 17597 C 1621.91 -1.6585 0.0911199 0
M  V30 17598 O 1623.1 -1.88936 0.266033 0
M  V30 17599 C 1620.24 -3.32237 0.933408 0
M  V30 17600 C 1619.35 -3.75564 2.13484 0
M  V30 17601 C 1618.49 -4.9992 1.79593 0
M  V30 17602 C 1617.53 -5.35728 2.96077 0
M  V30 17603 N 1616.66 -6.51261 2.62304 0
M  V30 17604 H 1621.5 -2.05711 2.15609 0
M  V30 17605 H 1619.04 -1.00689 1.07239 0
M  V30 17606 H 1621 -4.10318 0.754651 0
M  V30 17607 H 1619.63 -3.22792 0.0222279 0
M  V30 17608 H 1618.68 -2.93167 2.42399 0
M  V30 17609 H 1619.99 -3.98025 3.00629 0
M  V30 17610 H 1619.15 -5.85698 1.58248 0
M  V30 17611 H 1617.89 -4.79388 0.896561 0
M  V30 17612 H 1616.89 -4.48463 3.18058 0
M  V30 17613 H 1618.12 -5.58219 3.86741 0
M  V30 17614 H 1616.06 -6.32254 1.74904 0
M  V30 17615 H 1615.98 -6.73722 3.42979 0
M  V30 17616 H 1617.25 -7.40202 2.4438 0
M  V30 17617 N 1621.48 -1.1533 -1.07409 0
M  V30 17618 C 1622.72 -0.922348 -1.79376 0
M  V30 17619 C 1623.04 0.551929 -1.87652 0
M  V30 17620 O 1624.24 0.900444 -2.56133 0
M  V30 17621 C 1622.7 -1.60081 -3.22339 0
M  V30 17622 C 1622.31 -3.11206 -3.22265 0
M  V30 17623 C 1624.05 -1.45138 -3.98917 0
M  V30 17624 C 1621.96 -3.71842 -4.59878 0
M  V30 17625 H 1620.89 -0.341438 -0.672262 0
M  V30 17626 H 1623.54 -1.38336 -1.20562 0
M  V30 17627 H 1621.92 -1.06748 -3.81341 0
M  V30 17628 H 1623.1 -3.7129 -2.72911 0
M  V30 17629 H 1621.41 -3.25903 -2.59183 0
M  V30 17630 H 1624.01 -1.87832 -5.00623 0
M  V30 17631 H 1624.35 -0.398796 -4.14385 0
M  V30 17632 H 1624.88 -1.95564 -3.46409 0
M  V30 17633 H 1621.62 -4.76998 -4.49614 0
M  V30 17634 H 1621.14 -3.16541 -5.09472 0
M  V30 17635 H 1622.82 -3.72733 -5.28847 0
M  V30 17636 N 1622.95 1.25748 -0.950004 0
M  V30 17637 C 1624.2 1.93951 -0.612734 0
M  V30 17638 C 1624.55 1.73078 0.840339 0
M  V30 17639 O 1623.85 1.06247 1.59443 0
M  V30 17640 C 1624.04 3.45843 -0.901521 0
M  V30 17641 C 1623.87 3.81488 -2.38111 0
M  V30 17642 C 1622.64 4.03786 -3.03785 0
M  V30 17643 C 1624.84 3.89355 -3.36017 0
M  V30 17644 N 1622.82 4.26386 -4.41665 0
M  V30 17645 C 1624.19 4.1659 -4.59187 0
M  V30 17646 C 1626.25 3.72017 -3.30919 0
M  V30 17647 C 1624.95 4.28291 -5.77892 0
M  V30 17648 C 1626.98 3.84955 -4.48958 0
M  V30 17649 C 1626.34 4.12598 -5.70913 0
M  V30 17650 H 1622.44 0.732147 -0.274745 0
M  V30 17651 H 1625.02 1.51638 -1.22123 0
M  V30 17652 H 1623.19 3.87063 -0.321997 0
M  V30 17653 H 1624.92 4.01285 -0.524624 0
M  V30 17654 H 1621.68 3.9949 -2.54372 0
M  V30 17655 H 1622.1 4.41701 -5.13059 0
M  V30 17656 H 1626.74 3.49667 -2.37682 0
M  V30 17657 H 1624.46 4.49459 -6.71574 0
M  V30 17658 H 1628.05 3.72933 -4.46556 0
M  V30 17659 H 1626.93 4.22385 -6.60727 0
M  V30 17660 N 1624.43 0.718038 1.40292 0
M  V30 17661 C 1625.68 0.255581 2.00074 0
M  V30 17662 C 1625.99 -1.15859 1.57594 0
M  V30 17663 O 1627.2 -1.71969 2.10092 0
M  V30 17664 C 1625.66 0.406019 3.57602 0
M  V30 17665 C 1625.26 1.82699 4.09054 0
M  V30 17666 C 1627.01 0.00447854 4.245 0
M  V30 17667 C 1624.91 1.92788 5.59094 0
M  V30 17668 H 1623.84 0.0918012 0.748391 0
M  V30 17669 H 1626.5 0.88948 1.60501 0
M  V30 17670 H 1624.88 -0.296504 3.94888 0
M  V30 17671 H 1626.05 2.56009 3.8314 0
M  V30 17672 H 1624.37 2.18021 3.54761 0
M  V30 17673 H 1626.96 0.05911 5.34667 0
M  V30 17674 H 1627.31 -1.03779 4.03157 0
M  V30 17675 H 1627.84 0.657535 3.92328 0
M  V30 17676 H 1624.58 2.95145 5.85295 0
M  V30 17677 H 1624.1 1.23893 5.86865 0
M  V30 17678 H 1625.78 1.70114 6.24236 0
M  V30 17679 N 1625.91 -1.50602 0.464402 0
M  V30 17680 C 1627.19 -1.94992 -0.154146 0
M  V30 17681 C 1627.57 -1.40447 -1.57601 0
M  V30 17682 O 1626.92 -0.602668 -2.20409 0
M  V30 17683 C 1627.13 -3.48844 -0.104296 0
M  V30 17684 C 1628.47 -4.23563 -0.296506 0
M  V30 17685 O 1629.5 -3.55739 -0.181187 0
M  V30 17686 O 1628.36 -5.43937 -0.528668 0
M  V30 17687 H 1625.45 -0.818921 -0.115311 0
M  V30 17688 H 1628 -1.61397 0.524324 0
M  V30 17689 H 1626.77 -3.81075 0.88869 0
M  V30 17690 H 1626.39 -3.88957 -0.824514 0
M  V30 17691 N 1627.39 -0.19675 -1.56367 0
M  V30 17692 C 1628.34 0.723461 -2.19168 0
M  V30 17693 C 1629.31 1.20856 -1.13943 0
M  V30 17694 O 1630.49 1.27215 -1.42201 0
M  V30 17695 C 1627.63 1.93669 -2.85633 0
M  V30 17696 C 1626.74 1.49281 -4.05388 0
M  V30 17697 C 1625.88 2.66167 -4.59705 0
M  V30 17698 C 1624.92 2.18393 -5.71814 0
M  V30 17699 N 1624.05 3.28462 -6.20529 0
M  V30 17700 H 1628.89 0.181169 -2.97449 0
M  V30 17701 H 1626.43 0.0776802 -1.46895 0
M  V30 17702 H 1628.39 2.64865 -3.22339 0
M  V30 17703 H 1627.02 2.45227 -2.09913 0
M  V30 17704 H 1626.07 0.676658 -3.74333 0
M  V30 17705 H 1627.38 1.10231 -4.86467 0
M  V30 17706 H 1626.54 3.45483 -4.98725 0
M  V30 17707 H 1625.28 3.08491 -3.77736 0
M  V30 17708 H 1624.28 1.37531 -5.32321 0
M  V30 17709 H 1625.51 1.77097 -6.55602 0
M  V30 17710 H 1623.45 3.70315 -5.41482 0
M  V30 17711 H 1623.37 2.93587 -6.96665 0
M  V30 17712 H 1624.64 4.07988 -6.64204 0
M  V30 17713 N 1628.87 1.57413 0.0768405 0
M  V30 17714 C 1630.12 1.86186 0.775741 0
M  V30 17715 C 1630.43 0.788676 1.78995 0
M  V30 17716 O 1631.63 0.964095 2.53806 0
M  V30 17717 C 1630.09 3.30247 1.43055 0
M  V30 17718 C 1629.7 4.45682 0.45517 0
M  V30 17719 C 1631.44 3.68225 2.11211 0
M  V30 17720 C 1629.35 5.80782 1.11561 0
M  V30 17721 H 1628.28 0.694546 0.293466 0
M  V30 17722 H 1630.93 1.83477 0.0289478 0
M  V30 17723 H 1629.31 3.27552 2.22544 0
M  V30 17724 H 1630.49 4.59759 -0.309535 0
M  V30 17725 H 1628.8 4.16222 -0.121671 0
M  V30 17726 H 1631.4 4.66454 2.6139 0
M  V30 17727 H 1631.74 2.9777 2.90928 0
M  V30 17728 H 1632.27 3.72888 1.38561 0
M  V30 17729 H 1629.01 6.54517 0.358877 0
M  V30 17730 H 1628.53 5.70515 1.8513 0
M  V30 17731 H 1630.21 6.25951 1.63689 0
M  V30 17732 N 1630.34 -0.348112 1.53707 0
M  V30 17733 C 1631.27 -1.43296 1.8436 0
M  V30 17734 C 1632.26 -1.55102 0.698376 0
M  V30 17735 O 1633.44 -1.69385 0.949864 0
M  V30 17736 C 1630.57 -2.80407 2.04912 0
M  V30 17737 C 1629.52 -2.83412 3.20721 0
M  V30 17738 C 1628.85 -4.23365 3.26597 0
M  V30 17739 C 1630.15 -2.49358 4.58931 0
M  V30 17740 H 1631.84 -1.17892 2.75212 0
M  V30 17741 H 1629.39 -0.565692 1.32423 0
M  V30 17742 H 1631.34 -3.56343 2.24939 0
M  V30 17743 H 1630.07 -3.07236 1.10786 0
M  V30 17744 H 1628.73 -2.09929 3.00542 0
M  V30 17745 H 1628.37 -4.47297 2.30076 0
M  V30 17746 H 1628.07 -4.26287 4.04417 0
M  V30 17747 H 1629.6 -5.01149 3.4883 0
M  V30 17748 H 1631.01 -3.15006 4.79003 0
M  V30 17749 H 1629.41 -2.6357 5.3912 0
M  V30 17750 H 1630.48 -1.44557 4.62851 0
M  V30 17751 N 1631.82 -1.45363 -0.608876 0
M  V30 17752 C 1633.05 -1.52836 -1.39459 0
M  V30 17753 C 1633.47 -0.160537 -1.88116 0
M  V30 17754 O 1632.82 0.837671 -1.6214 0
M  V30 17755 C 1632.87 -2.51168 -2.59994 0
M  V30 17756 O 1632.59 -3.82635 -2.13359 0
M  V30 17757 C 1634.1 -2.68326 -3.52868 0
M  V30 17758 H 1631.32 -0.51765 -0.426942 0
M  V30 17759 H 1633.86 -1.90538 -0.742674 0
M  V30 17760 H 1632.01 -2.16542 -3.2123 0
M  V30 17761 H 1632.43 -4.35927 -2.91665 0
M  V30 17762 H 1633.9 -3.41109 -4.33992 0
M  V30 17763 H 1634.38 -1.74317 -4.03126 0
M  V30 17764 H 1634.99 -3.03943 -2.97487 0
M  V30 17765 N 1633.3 0.851265 -1.32632 0
M  V30 17766 C 1634.53 1.63805 -1.26394 0
M  V30 17767 C 1634.94 1.88056 0.167454 0
M  V30 17768 O 1634.3 1.45196 1.10564 0
M  V30 17769 C 1634.35 2.9954 -2.02381 0
M  V30 17770 O 1634.07 2.76361 -3.39935 0
M  V30 17771 C 1635.57 3.93982 -2.03207 0
M  V30 17772 H 1632.79 0.510088 -0.435948 0
M  V30 17773 H 1635.34 1.06123 -1.74809 0
M  V30 17774 H 1633.49 3.53859 -1.5768 0
M  V30 17775 H 1633.91 3.62708 -3.78871 0
M  V30 17776 H 1635.38 4.86478 -2.60851 0
M  V30 17777 H 1635.86 4.27211 -1.01918 0
M  V30 17778 H 1636.46 3.45601 -2.47871 0
M  V30 17779 N 1634.78 1.15898 1.06796 0
M  V30 17780 C 1635.69 0.87507 2.17669 0
M  V30 17781 C 1636.7 -0.150763 1.73346 0
M  V30 17782 O 1637.88 0.0246621 2.01385 0
M  V30 17783 C 1634.95 0.374555 3.44671 0
M  V30 17784 C 1634.01 1.46498 4.0353 0
M  V30 17785 C 1633.24 0.988256 5.2447 0
M  V30 17786 O 1633.46 -0.163992 5.70164 0
M  V30 17787 O 1632.4 1.7744 5.75151 0
M  V30 17788 H 1636.22 1.80208 2.44456 0
M  V30 17789 H 1633.81 0.93854 1.1624 0
M  V30 17790 H 1635.69 0.102161 4.21276 0
M  V30 17791 H 1634.36 -0.524513 3.19422 0
M  V30 17792 H 1633.27 1.79105 3.28439 0
M  V30 17793 H 1634.6 2.33917 4.33063 0
M  V30 17794 N 1636.26 -1.25243 0.956659 0
M  V30 17795 C 1637.51 -1.92312 0.608196 0
M  V30 17796 C 1637.82 -1.75726 -0.859058 0
M  V30 17797 O 1639.02 -2.37386 -1.31757 0
M  V30 17798 C 1637.48 -3.44634 1.03708 0
M  V30 17799 C 1637.09 -3.69927 2.52702 0
M  V30 17800 C 1638.83 -4.17619 0.761242 0
M  V30 17801 C 1636.74 -5.15765 2.8938 0
M  V30 17802 H 1635.67 -0.720033 0.22376 0
M  V30 17803 H 1638.32 -1.42071 1.16138 0
M  V30 17804 H 1636.7 -3.93848 0.412287 0
M  V30 17805 H 1637.88 -3.31357 3.20217 0
M  V30 17806 H 1636.19 -3.10207 2.77778 0
M  V30 17807 H 1638.79 -5.25047 1.01141 0
M  V30 17808 H 1639.13 -4.152 -0.302375 0
M  V30 17809 H 1639.66 -3.74319 1.34648 0
M  V30 17810 H 1636.4 -5.23296 3.94767 0
M  V30 17811 H 1635.92 -5.55374 2.26539 0
M  V30 17812 H 1637.6 -5.83905 2.78683 0
M  V30 17813 N 1637.73 -0.725468 -1.3991 0
M  V30 17814 C 1638.98 -0.268719 -2.00306 0
M  V30 17815 C 1639.3 1.14511 -1.57836 0
M  V30 17816 O 1638.57 1.77808 -0.822263 0
M  V30 17817 H 1637.15 -0.0963614 -0.740759 0
M  V30 17818 H 1639.82 -0.933303 -1.71101 0
M  V30 17819 H 1638.91 -0.309587 -3.10561 0
M  V30 17820 N 1639.21 1.50354 -0.472382 0
M  V30 17821 C 1640.14 2.3142 0.310995 0
M  V30 17822 C 1641.12 1.38383 0.989151 0
M  V30 17823 O 1642.31 1.67303 0.986074 0
M  V30 17824 C 1639.44 3.18157 1.3926 0
M  V30 17825 C 1638.39 4.19756 0.835977 0
M  V30 17826 C 1637.72 4.9524 2.01597 0
M  V30 17827 C 1639.02 5.22074 -0.15361 0
M  V30 17828 H 1640.71 2.97159 -0.365595 0
M  V30 17829 H 1638.26 1.42905 -0.177266 0
M  V30 17830 H 1640.21 3.73666 1.94813 0
M  V30 17831 H 1638.94 2.50305 2.09798 0
M  V30 17832 H 1637.59 3.65351 0.302414 0
M  V30 17833 H 1637.24 4.2386 2.70836 0
M  V30 17834 H 1636.94 5.63966 1.64974 0
M  V30 17835 H 1638.47 5.53584 2.57637 0
M  V30 17836 H 1639.88 5.72446 0.312783 0
M  V30 17837 H 1638.28 5.98527 -0.43418 0
M  V30 17838 H 1639.35 4.72741 -1.07908 0
M  V30 17839 N 1640.69 0.205039 1.56261 0
M  V30 17840 C 1641.64 -0.724845 2.16171 0
M  V30 17841 C 1642.63 -1.16929 1.10528 0
M  V30 17842 O 1643.82 -1.12603 1.36564 0
M  V30 17843 C 1640.95 -1.93992 2.83235 0
M  V30 17844 C 1640.03 -1.51592 3.96082 0
M  V30 17845 N 1640.42 -0.80348 4.99377 0
M  V30 17846 C 1638.72 -1.80447 4.07866 0
M  V30 17847 C 1639.42 -0.58958 5.78704 0
M  V30 17848 N 1638.4 -1.14132 5.31484 0
M  V30 17849 H 1642.2 -0.171919 2.93397 0
M  V30 17850 H 1639.71 0.00563679 1.62399 0
M  V30 17851 H 1641.71 -2.61667 3.24555 0
M  V30 17852 H 1640.37 -2.49747 2.07501 0
M  V30 17853 H 1641.38 -0.457893 5.15872 0
M  V30 17854 H 1638.06 -2.3764 3.43269 0
M  V30 17855 H 1639.45 -0.0237117 6.71896 0
M  V30 17856 N 1642.17 -1.57451 -0.0684915 0
M  V30 17857 C 1643.45 -1.78483 -0.800209 0
M  V30 17858 C 1643.83 -0.793438 -1.95621 0
M  V30 17859 O 1643.17 0.172756 -2.27846 0
M  V30 17860 C 1643.38 -3.25069 -1.27008 0
M  V30 17861 C 1644.73 -3.8899 -1.70212 0
M  V30 17862 O 1645.76 -3.2898 -1.36566 0
M  V30 17863 O 1644.62 -4.94569 -2.32515 0
M  V30 17864 H 1641.71 -0.732598 -0.383704 0
M  V30 17865 H 1644.26 -1.69631 -0.0483117 0
M  V30 17866 H 1643.03 -3.88784 -0.443067 0
M  V30 17867 H 1642.65 -3.38657 -2.08319 0
M  V30 17868 N 1643.65 0.339955 -1.5389 0
M  V30 17869 C 1644.58 1.42316 -1.85117 0
M  V30 17870 C 1645.56 1.5473 -0.706591 0
M  V30 17871 O 1646.74 1.68879 -0.958834 0
M  V30 17872 C 1643.87 2.79317 -2.06396 0
M  V30 17873 C 1642.83 2.81707 -3.22219 0
M  V30 17874 C 1642.15 4.21627 -3.28838 0
M  V30 17875 C 1643.45 2.46921 -4.60247 0
M  V30 17876 H 1645.15 1.16431 -2.75834 0
M  V30 17877 H 1642.69 0.558661 -1.32721 0
M  V30 17878 H 1644.65 3.55145 -2.26826 0
M  V30 17879 H 1643.37 3.06644 -1.12414 0
M  V30 17880 H 1642.03 2.08332 -3.01651 0
M  V30 17881 H 1641.68 4.4607 -2.32444 0
M  V30 17882 H 1641.38 4.24137 -4.06672 0
M  V30 17883 H 1642.9 4.99292 -3.51482 0
M  V30 17884 H 1644.32 3.12462 -4.80667 0
M  V30 17885 H 1642.71 2.60707 -5.40511 0
M  V30 17886 H 1643.78 1.421 -4.63611 0
M  V30 17887 N 1645.13 1.45684 0.601159 0
M  V30 17888 C 1646.54 1.30232 0.922598 0
M  V30 17889 C 1646.74 0.260086 1.99814 0
M  V30 17890 O 1645.8 -0.343753 2.50149 0
M  V30 17891 C 1647.11 2.68318 1.35743 0
M  V30 17892 C 1648.66 2.76264 1.47129 0
M  V30 17893 C 1649.13 4.1489 1.93986 0
M  V30 17894 N 1650.62 4.17216 2.01209 0
M  V30 17895 C 1651.36 5.21354 2.387 0
M  V30 17896 N 1650.86 6.35833 2.75114 0
M  V30 17897 N 1652.65 5.08714 2.39095 0
M  V30 17898 H 1644.8 2.12117 -0.109634 0
M  V30 17899 H 1647.06 0.947902 0.0136129 0
M  V30 17900 H 1646.77 3.45804 0.64127 0
M  V30 17901 H 1646.64 2.97206 2.32268 0
M  V30 17902 H 1649.03 1.99077 2.17835 0
M  V30 17903 H 1649.11 2.51082 0.489028 0
M  V30 17904 H 1648.75 4.92565 1.23864 0
M  V30 17905 H 1648.68 4.37468 2.93137 0
M  V30 17906 H 1651.18 3.34607 1.75632 0
M  V30 17907 H 1651.49 7.11084 3.02622 0
M  V30 17908 H 1649.83 6.39224 2.72795 0
M  V30 17909 H 1653.02 4.18322 2.10057 0
M  V30 17910 H 1653.2 5.89989 2.67987 0
M  V30 17911 N 1646.6 -0.84422 1.33082 0
M  V30 17912 C 1647.55 -1.95363 1.2289 0
M  V30 17913 C 1648.52 -1.65744 0.108705 0
M  V30 17914 O 1649.71 -1.88643 0.286057 0
M  V30 17915 C 1646.85 -3.31228 0.968594 0
M  V30 17916 C 1645.96 -3.73279 2.17455 0
M  V30 17917 C 1645.09 -4.97987 1.84885 0
M  V30 17918 C 1644.13 -5.32558 3.01743 0
M  V30 17919 N 1643.27 -6.48442 2.69197 0
M  V30 17920 H 1648.11 -2.03412 2.17778 0
M  V30 17921 H 1645.65 -0.995461 1.083 0
M  V30 17922 H 1647.6 -4.09494 0.798129 0
M  V30 17923 H 1646.23 -3.22751 0.0564631 0
M  V30 17924 H 1645.29 -2.9058 2.45494 0
M  V30 17925 H 1646.6 -3.94814 3.04834 0
M  V30 17926 H 1645.75 -5.83987 1.64451 0
M  V30 17927 H 1644.49 -4.7841 0.947356 0
M  V30 17928 H 1643.5 -4.45064 3.22797 0
M  V30 17929 H 1644.72 -5.54085 3.9264 0
M  V30 17930 H 1642.67 -6.30363 1.816 0
M  V30 17931 H 1642.58 -6.70046 3.50106 0
M  V30 17932 H 1643.85 -7.37568 2.52217 0
M  V30 17933 N 1648.08 -1.16463 -1.0618 0
M  V30 17934 C 1649.03 -0.87224 -2.13683 0
M  V30 17935 C 1650 0.179784 -1.65124 0
M  V30 17936 O 1651.18 0.0447406 -1.90748 0
M  V30 17937 C 1648.32 -0.380728 -3.42993 0
M  V30 17938 C 1647.44 -1.49571 -4.05281 0
M  V30 17939 C 1646.57 -0.959099 -5.2247 0
M  V30 17940 C 1645.61 -2.05021 -5.76743 0
M  V30 17941 N 1644.75 -1.5291 -6.85247 0
M  V30 17942 H 1649.59 -1.79288 -2.38033 0
M  V30 17943 H 1647.12 -0.894379 -1.16787 0
M  V30 17944 H 1649.08 -0.0773816 -4.17128 0
M  V30 17945 H 1647.71 0.502966 -3.18857 0
M  V30 17946 H 1646.76 -1.915 -3.28682 0
M  V30 17947 H 1648.08 -2.31904 -4.41613 0
M  V30 17948 H 1647.23 -0.609003 -6.03636 0
M  V30 17949 H 1645.97 -0.105086 -4.87587 0
M  V30 17950 H 1644.97 -2.40899 -4.94214 0
M  V30 17951 H 1646.2 -2.90821 -6.13678 0
M  V30 17952 H 1644.15 -0.697639 -6.5228 0
M  V30 17953 H 1644.06 -2.28859 -7.20527 0
M  V30 17954 H 1645.33 -1.20762 -7.70089 0
M  V30 17955 N 1649.56 1.24734 -0.963288 0
M  V30 17956 C 1650.49 2.24024 -0.434573 0
M  V30 17957 C 1651.47 1.55076 0.488889 0
M  V30 17958 O 1652.65 1.83732 0.421281 0
M  V30 17959 C 1649.78 3.36638 0.373148 0
M  V30 17960 C 1648.83 4.23653 -0.491959 0
M  V30 17961 S 1649.66 4.99531 -1.92949 0
M  V30 17962 C 1650.82 6.15607 -1.13043 0
M  V30 17963 H 1651.05 2.68524 -1.27601 0
M  V30 17964 H 1648.58 1.33945 -0.767994 0
M  V30 17965 H 1650.54 4.01955 0.833211 0
M  V30 17966 H 1649.2 2.90705 1.18951 0
M  V30 17967 H 1648.39 5.03837 0.127976 0
M  V30 17968 H 1648 3.63315 -0.887574 0
M  V30 17969 H 1650.29 6.76415 -0.383296 0
M  V30 17970 H 1651.23 6.81952 -1.9065 0
M  V30 17971 H 1651.64 5.60667 -0.656746 0
M  V30 17972 N 1651.04 0.732878 1.39523 0
M  V30 17973 C 1652.26 0.288717 2.05381 0
M  V30 17974 C 1652.69 -1.06727 1.5489 0
M  V30 17975 O 1652.05 -1.67585 0.691726 0
M  V30 17976 C 1652.09 0.297738 3.59369 0
M  V30 17977 O 1651.2 -0.715335 4.06149 0
M  V30 17978 H 1650.54 0.131696 0.650809 0
M  V30 17979 H 1653.07 0.998206 1.78597 0
M  V30 17980 H 1653.08 0.141391 4.07755 0
M  V30 17981 H 1651.75 1.28719 3.9548 0
M  V30 17982 H 1650.33 -0.525298 3.69182 0
M  V30 17983 N 1652.52 -1.50101 0.480349 0
M  V30 17984 C 1653.76 -2.01567 -0.073165 0
M  V30 17985 C 1654.08 -1.36657 -1.39944 0
M  V30 17986 O 1655.28 -1.79332 -2.03844 0
M  V30 17987 C 1653.74 -3.59445 -0.180889 0
M  V30 17988 C 1653.35 -4.33318 1.1375 0
M  V30 17989 C 1655.09 -4.18923 -0.685868 0
M  V30 17990 C 1653 -5.83003 0.99307 0
M  V30 17991 H 1651.93 -0.753358 -0.0311179 0
M  V30 17992 H 1654.58 -1.72829 0.616648 0
M  V30 17993 H 1652.96 -3.84811 -0.934693 0
M  V30 17994 H 1654.14 -4.1967 1.90299 0
M  V30 17995 H 1652.45 -3.85492 1.57431 0
M  V30 17996 H 1655.05 -5.28512 -0.811109 0
M  V30 17997 H 1655.39 -3.80916 -1.67955 0
M  V30 17998 H 1655.92 -3.97799 0.0108117 0
M  V30 17999 H 1652.66 -6.25499 1.9604 0
M  V30 18000 H 1652.18 -5.992 0.268128 0
M  V30 18001 H 1653.86 -6.4359 0.663417 0
M  V30 18002 N 1653.99 -0.213323 -1.5615 0
M  V30 18003 C 1655.24 0.420909 -1.97259 0
M  V30 18004 C 1655.56 1.61483 -1.10375 0
M  V30 18005 O 1656.76 2.31804 -1.41347 0
M  V30 18006 C 1655.22 0.800243 -3.5089 0
M  V30 18007 C 1654.83 -0.370405 -4.46466 0
M  V30 18008 C 1656.57 1.40054 -4.00731 0
M  V30 18009 C 1654.48 0.0309052 -5.91392 0
M  V30 18010 H 1653.41 0.16103 -0.736604 0
M  V30 18011 H 1656.06 -0.308232 -1.80893 0
M  V30 18012 H 1654.44 1.58657 -3.62828 0
M  V30 18013 H 1655.61 -1.14796 -4.46272 0
M  V30 18014 H 1653.93 -0.883391 -4.06922 0
M  V30 18015 H 1656.53 1.71355 -5.06499 0
M  V30 18016 H 1656.87 2.31345 -3.461 0
M  V30 18017 H 1657.4 0.677813 -3.91983 0
M  V30 18018 H 1654.14 -0.848284 -6.49988 0
M  V30 18019 H 1653.66 0.772941 -5.94799 0
M  V30 18020 H 1655.34 0.460441 -6.4536 0
M  V30 18021 N 1655.47 1.57485 0.0601405 0
M  V30 18022 C 1656.88 1.76433 0.610583 0
M  V30 18023 C 1657.23 0.840353 1.77292 0
M  V30 18024 O 1656.36 0.0273238 2.16383 0
M  V30 18025 C 1656.95 3.19947 1.11441 0
M  V30 18026 C 1655.51 3.402 1.61062 0
M  V30 18027 C 1654.66 2.72089 0.535055 0
M  V30 18028 H 1657.61 1.57829 -0.166062 0
M  V30 18029 H 1657.63 3.24749 1.98288 0
M  V30 18030 H 1657.14 3.87172 0.268233 0
M  V30 18031 H 1655.25 2.78106 2.47967 0
M  V30 18032 H 1655.36 4.48696 1.67954 0
M  V30 18033 H 1653.72 2.34972 0.982855 0
M  V30 18034 H 1654.51 3.41977 -0.301135 0
M  V30 18035 N 1656.95 -0.331789 1.54068 0
M  V30 18036 C 1657.88 -1.42889 1.79208 0
M  V30 18037 C 1658.9 -1.48204 0.673754 0
M  V30 18038 O 1660.08 -1.51075 0.950712 0
M  V30 18039 C 1657.18 -2.81477 1.88743 0
M  V30 18040 C 1656.36 -2.99463 3.18812 0
M  V30 18041 C 1655.42 -4.18363 3.19154 0
M  V30 18042 O 1654.44 -4.11916 3.92828 0
M  V30 18043 N 1655.64 -5.27489 2.42354 0
M  V30 18044 H 1658.41 -1.21689 2.73883 0
M  V30 18045 H 1655.97 -0.521735 1.53263 0
M  V30 18046 H 1657.96 -3.59213 1.86409 0
M  V30 18047 H 1656.53 -2.95765 1.01202 0
M  V30 18048 H 1655.75 -2.09097 3.34174 0
M  V30 18049 H 1657.04 -3.0837 4.04704 0
M  V30 18050 H 1656.44 -5.35599 1.82071 0
M  V30 18051 H 1655 -6.03674 2.45806 0
M  V30 18052 N 1658.43 -1.46001 -0.593424 0
M  V30 18053 C 1659.34 -1.58316 -1.73128 0
M  V30 18054 C 1660.35 -0.467029 -1.67615 0
M  V30 18055 O 1661.53 -0.729682 -1.87717 0
M  V30 18056 C 1658.6 -1.56007 -3.09617 0
M  V30 18057 C 1657.66 -2.78769 -3.26475 0
M  V30 18058 C 1656.89 -2.76561 -4.56453 0
M  V30 18059 O 1657.11 -1.84694 -5.39671 0
M  V30 18060 O 1656.05 -3.67959 -4.76329 0
M  V30 18061 H 1659.87 -2.54522 -1.65686 0
M  V30 18062 H 1657.46 -1.28672 -0.759204 0
M  V30 18063 H 1659.34 -1.57377 -3.9091 0
M  V30 18064 H 1658.01 -0.629571 -3.17519 0
M  V30 18065 H 1656.92 -2.82956 -2.44717 0
M  V30 18066 H 1658.25 -3.70992 -3.23459 0
M  V30 18067 N 1659.91 0.83715 -1.33527 0
M  V30 18068 C 1661.32 1.40878 -1.22516 0
M  V30 18069 C 1661.67 1.95585 0.155236 0
M  V30 18070 O 1660.79 1.88946 1.05491 0
M  V30 18071 C 1661.39 2.56093 -2.21815 0
M  V30 18072 C 1659.95 3.09205 -2.14638 0
M  V30 18073 C 1659.09 1.82012 -2.09205 0
M  V30 18074 H 1662.05 0.642766 -1.45101 0
M  V30 18075 H 1662.07 3.33775 -1.82687 0
M  V30 18076 H 1661.58 2.16246 -3.22272 0
M  V30 18077 H 1659.68 3.53592 -1.17489 0
M  V30 18078 H 1659.79 3.69261 -3.05259 0
M  V30 18079 H 1658.16 2.02331 -1.54707 0
M  V30 18080 H 1658.94 1.44359 -3.11473 0
M  V30 18081 N 1661.38 1.17024 1.05561 0
M  V30 18082 C 1662.63 0.957742 1.7876 0
M  V30 18083 C 1662.96 -0.512652 1.87311 0
M  V30 18084 O 1662.24 -1.38047 1.37016 0
M  V30 18085 C 1662.52 1.59495 3.22852 0
M  V30 18086 C 1662.37 3.13719 3.22336 0
M  V30 18087 C 1663.69 1.29576 4.20593 0
M  V30 18088 H 1660.81 0.349354 0.648938 0
M  V30 18089 H 1663.45 1.44467 1.23408 0
M  V30 18090 H 1661.6 1.18091 3.70117 0
M  V30 18091 H 1663.28 3.64156 2.83175 0
M  V30 18092 H 1661.52 3.46664 2.60781 0
M  V30 18093 H 1662.19 3.5343 4.24018 0
M  V30 18094 H 1664.67 1.65423 3.81804 0
M  V30 18095 H 1663.54 1.76751 5.19663 0
M  V30 18096 H 1663.8 0.21589 4.41573 0
M  V30 18097 N 1662.86 -1.24221 0.969889 0
M  V30 18098 C 1663.79 -2.27619 0.520745 0
M  V30 18099 C 1664.77 -1.64291 -0.440731 0
M  V30 18100 O 1665.96 -1.91265 -0.336381 0
M  V30 18101 C 1663.09 -3.46792 -0.187768 0
M  V30 18102 C 1662.04 -4.22402 0.689945 0
M  V30 18103 C 1661.37 -5.34489 -0.150186 0
M  V30 18104 C 1662.67 -4.83494 1.97562 0
M  V30 18105 H 1664.36 -2.65441 1.38498 0
M  V30 18106 H 1661.91 -1.276 0.667398 0
M  V30 18107 H 1663.86 -4.18263 -0.513216 0
M  V30 18108 H 1662.59 -3.08002 -1.08637 0
M  V30 18109 H 1661.24 -3.52734 0.998696 0
M  V30 18110 H 1660.89 -4.9194 -1.049 0
M  V30 18111 H 1660.59 -5.85996 0.433891 0
M  V30 18112 H 1662.12 -6.08786 -0.470255 0
M  V30 18113 H 1663.53 -5.47028 1.71561 0
M  V30 18114 H 1661.93 -5.45243 2.5066 0
M  V30 18115 H 1663 -4.04826 2.66915 0
M  V30 18116 N 1664.34 -0.740267 -1.39132 0
M  V30 18117 C 1665.59 -0.290523 -2.00405 0
M  V30 18118 C 1665.92 1.12383 -1.58746 0
M  V30 18119 O 1665.17 1.78148 -0.81005 0
M  V30 18120 C 1665.47 -0.346009 -3.55721 0
M  V30 18121 C 1665.14 -1.71412 -4.17048 0
M  V30 18122 C 1663.8 -2.08857 -4.33512 0
M  V30 18123 C 1666.15 -2.61216 -4.51016 0
M  V30 18124 C 1663.48 -3.35603 -4.81235 0
M  V30 18125 C 1665.83 -3.8734 -5.0015 0
M  V30 18126 C 1664.49 -4.2487 -5.14822 0
M  V30 18127 H 1663.76 -0.10631 -0.733334 0
M  V30 18128 H 1666.41 -0.948141 -1.66381 0
M  V30 18129 H 1664.72 0.395183 -3.89802 0
M  V30 18130 H 1666.41 0.020191 -4.00995 0
M  V30 18131 H 1663 -1.41301 -4.04638 0
M  V30 18132 H 1667.19 -2.33556 -4.3791 0
M  V30 18133 H 1662.44 -3.64617 -4.90779 0
M  V30 18134 H 1666.62 -4.57079 -5.25406 0
M  V30 18135 H 1664.24 -5.23147 -5.51562 0
M  V30 18136 N 1665.82 1.49844 -0.488302 0
M  V30 18137 C 1667.05 2.06819 0.0578807 0
M  V30 18138 C 1667.46 1.35018 1.31969 0
M  V30 18139 O 1666.82 0.424614 1.77492 0
M  V30 18140 C 1666.87 3.60005 0.328435 0
M  V30 18141 O 1666.59 4.29102 -0.883338 0
M  V30 18142 C 1668.09 4.33655 0.919675 0
M  V30 18143 H 1665.31 0.670837 -0.014775 0
M  V30 18144 H 1667.86 1.92792 -0.682022 0
M  V30 18145 H 1666.01 3.73777 1.0183 0
M  V30 18146 H 1666.42 5.206 -0.638414 0
M  V30 18147 H 1667.9 5.41753 1.05864 0
M  V30 18148 H 1668.38 3.95289 1.91424 0
M  V30 18149 H 1668.98 4.24457 0.267672 0
M  V30 18150 N 1667.3 0.221601 1.56034 0
M  V30 18151 C 1668.54 -0.409277 1.97912 0
M  V30 18152 C 1668.87 -1.60291 1.11049 0
M  V30 18153 O 1668.14 -1.95 0.187529 0
M  V30 18154 H 1666.72 -0.154201 0.730911 0
M  V30 18155 H 1669.38 0.314508 1.92346 0
M  V30 18156 H 1668.47 -0.73557 3.03308 0
M  V30 18157 N 1668.77 -1.57515 -0.0517878 0
M  V30 18158 C 1670 -1.92456 -0.759485 0
M  V30 18159 C 1670.42 -0.819396 -1.70092 0
M  V30 18160 O 1669.77 0.205913 -1.81335 0
M  V30 18161 C 1669.83 -3.27242 -1.53606 0
M  V30 18162 O 1669.55 -4.33511 -0.632441 0
M  V30 18163 C 1671.05 -3.76324 -2.34297 0
M  V30 18164 H 1668.27 -0.635688 -0.214807 0
M  V30 18165 H 1670.81 -2.04494 -0.0160862 0
M  V30 18166 H 1668.97 -3.16671 -2.23155 0
M  V30 18167 H 1669.38 -5.11178 -1.17462 0
M  V30 18168 H 1670.85 -4.73209 -2.84213 0
M  V30 18169 H 1671.33 -3.06351 -3.14716 0
M  V30 18170 H 1671.94 -3.89904 -1.69866 0
M  V30 18171 N 1670.25 0.323614 -1.54242 0
M  V30 18172 C 1671.19 1.42211 -1.78469 0
M  V30 18173 C 1672.16 1.49702 -0.634671 0
M  V30 18174 O 1673.35 1.67113 -0.872103 0
M  V30 18175 C 1670.48 2.80306 -1.90121 0
M  V30 18176 C 1669.52 2.90347 -3.12411 0
M  V30 18177 S 1670.35 2.54761 -4.71017 0
M  V30 18178 C 1671.51 3.94928 -4.85575 0
M  V30 18179 H 1671.74 1.21447 -2.71363 0
M  V30 18180 H 1669.28 0.520446 -1.45364 0
M  V30 18181 H 1671.23 3.59856 -1.97519 0
M  V30 18182 H 1669.9 2.98353 -0.982048 0
M  V30 18183 H 1669.09 3.91584 -3.17298 0
M  V30 18184 H 1668.69 2.18769 -3.03342 0
M  V30 18185 H 1670.98 4.8968 -4.68209 0
M  V30 18186 H 1671.93 3.95024 -5.87675 0
M  V30 18187 H 1672.33 3.8388 -4.1388 0
M  V30 18188 N 1671.73 1.46313 0.585673 0
M  V30 18189 C 1673.15 1.31203 0.908733 0
M  V30 18190 C 1673.35 0.281265 1.99527 0
M  V30 18191 O 1672.4 -0.317202 2.505 0
M  V30 18192 C 1673.72 2.69742 1.3289 0
M  V30 18193 C 1675.26 2.77809 1.44191 0
M  V30 18194 C 1675.74 4.16924 1.89574 0
M  V30 18195 N 1677.23 4.19327 1.96773 0
M  V30 18196 C 1677.97 5.23856 2.33157 0
M  V30 18197 N 1677.46 6.38716 2.68355 0
M  V30 18198 N 1679.25 5.11221 2.33686 0
M  V30 18199 H 1671.41 2.11989 -0.132126 0
M  V30 18200 H 1673.67 0.947993 0.00355835 0
M  V30 18201 H 1673.37 3.46465 0.604557 0
M  V30 18202 H 1673.25 2.99653 2.29102 0
M  V30 18203 H 1675.64 2.01377 2.15712 0
M  V30 18204 H 1675.72 2.51587 0.46237 0
M  V30 18205 H 1675.36 4.93851 1.18633 0
M  V30 18206 H 1675.29 4.40552 2.88481 0
M  V30 18207 H 1677.78 3.36451 1.72073 0
M  V30 18208 H 1678.09 7.14253 2.95063 0
M  V30 18209 H 1676.44 6.42082 2.66 0
M  V30 18210 H 1679.63 4.20527 2.05609 0
M  V30 18211 H 1679.8 5.92798 2.61714 0
M  V30 18212 N 1673.21 -0.830057 1.33969 0
M  V30 18213 C 1674.16 -1.94049 1.24955 0
M  V30 18214 C 1675.13 -1.65619 0.126279 0
M  V30 18215 O 1676.31 -1.88329 0.306049 0
M  V30 18216 C 1673.45 -3.30182 1.00367 0
M  V30 18217 C 1672.56 -3.70952 2.21402 0
M  V30 18218 C 1671.7 -4.95998 1.90157 0
M  V30 18219 C 1670.74 -5.29327 3.07374 0
M  V30 18220 N 1669.88 -6.45551 2.76059 0
M  V30 18221 H 1674.72 -2.01091 2.19923 0
M  V30 18222 H 1672.25 -0.983918 1.0935 0
M  V30 18223 H 1674.21 -4.08625 0.841516 0
M  V30 18224 H 1672.84 -3.22673 0.090692 0
M  V30 18225 H 1671.89 -2.8796 2.48563 0
M  V30 18226 H 1673.2 -3.91558 3.09004 0
M  V30 18227 H 1672.36 -5.8221 1.70636 0
M  V30 18228 H 1671.1 -4.77379 0.998045 0
M  V30 18229 H 1670.1 -4.41616 3.27499 0
M  V30 18230 H 1671.33 -5.4989 3.98495 0
M  V30 18231 H 1669.27 -6.28401 1.88275 0
M  V30 18232 H 1669.19 -6.66295 3.57193 0
M  V30 18233 H 1670.46 -7.34851 2.60026 0
M  V30 18234 N 1674.69 -1.17582 -1.04939 0
M  V30 18235 C 1675.64 -0.891102 -2.14854 0
M  V30 18236 C 1676.63 0.145242 -1.68776 0
M  V30 18237 O 1677.84 -0.00207978 -1.8 0
M  V30 18238 H 1674.21 -0.270641 -0.701611 0
M  V30 18239 H 1676.18 -1.82519 -2.36071 0
M  V30 18240 C 1674.93 -0.423679 -3.45109 0
M  V30 18241 H 1674.25 -1.2126 -3.80967 0
M  V30 18242 H 1675.69 -0.263369 -4.23181 0
M  V30 18243 C 1674.15 0.859085 -3.25763 0
M  V30 18244 O 1674.68 1.9253 -3.52555 0
M  V30 18245 N 1672.89 0.80824 -2.79134 0
M  V30 18246 H 1672.44 -0.0596431 -2.57531 0
M  V30 18247 H 1672.39 1.66697 -2.6657 0
M  V30 18248 N 1676.17 1.23705 -0.976463 0
M  V30 18249 C 1677.1 2.2734 -0.532809 0
M  V30 18250 C 1678.08 1.64523 0.432012 0
M  V30 18251 O 1679.26 1.9144 0.326233 0
M  V30 18252 C 1676.39 3.46887 0.169374 0
M  V30 18253 C 1675.35 4.22031 -0.712336 0
M  V30 18254 C 1674.67 5.34561 0.121838 0
M  V30 18255 C 1675.97 4.8244 -2.00123 0
M  V30 18256 H 1677.67 2.64702 -1.39904 0
M  V30 18257 H 1675.21 1.27244 -0.674156 0
M  V30 18258 H 1677.16 4.18529 0.491028 0
M  V30 18259 H 1675.89 3.08574 1.07002 0
M  V30 18260 H 1674.55 3.522 -1.01739 0
M  V30 18261 H 1674.2 4.92489 1.0229 0
M  V30 18262 H 1673.9 5.85758 -0.464962 0
M  V30 18263 H 1675.42 6.09027 0.437963 0
M  V30 18264 H 1676.83 5.46111 -1.7446 0
M  V30 18265 H 1675.23 5.43906 -2.53548 0
M  V30 18266 H 1676.3 4.03405 -2.69059 0
M  V30 18267 N 1677.64 0.747635 1.38738 0
M  V30 18268 C 1678.92 0.226908 1.94279 0
M  V30 18269 C 1679.3 -1.27373 1.68343 0
M  V30 18270 O 1678.65 -2.04538 1.01865 0
M  V30 18271 C 1678.86 0.574164 3.44245 0
M  V30 18272 C 1680.21 0.530498 4.21273 0
M  V30 18273 O 1681.23 0.512102 3.525 0
M  V30 18274 O 1680.09 0.536171 5.43863 0
M  V30 18275 H 1677.18 0.0456834 0.825737 0
M  V30 18276 H 1679.73 0.827353 1.48165 0
M  V30 18277 H 1678.5 1.6108 3.56607 0
M  V30 18278 H 1678.12 -0.0545964 3.97563 0
M  V30 18279 N 1679.12 -1.49583 0.496242 0
M  V30 18280 C 1680.53 -1.8664 0.0472756 0
M  V30 18281 C 1680.88 -1.40898 -1.36536 0
M  V30 18282 O 1680.01 -0.784796 -2.01668 0
M  V30 18283 C 1680.6 -3.38708 0.079016 0
M  V30 18284 C 1679.16 -3.75083 -0.314587 0
M  V30 18285 C 1678.31 -2.73565 0.453624 0
M  V30 18286 H 1681.26 -1.41969 0.709269 0
M  V30 18287 H 1681.28 -3.73676 -0.717396 0
M  V30 18288 H 1680.79 -3.71969 1.10727 0
M  V30 18289 H 1678.89 -3.47429 -1.34625 0
M  V30 18290 H 1679.01 -4.791 0.00155427 0
M  V30 18291 H 1677.37 -2.54519 -0.095937 0
M  V30 18292 H 1678.15 -3.0967 1.48186 0
M  V30 18293 N 1680.6 -0.229873 -1.55915 0
M  V30 18294 C 1681.85 0.399565 -1.98519 0
M  V30 18295 C 1682.17 1.59179 -1.1177 0
M  V30 18296 O 1681.43 1.95007 -0.16454 0
M  V30 18297 C 1681.73 0.869043 -3.46673 0
M  V30 18298 C 1681.39 -0.21356 -4.50394 0
M  V30 18299 C 1680.06 -0.510939 -4.7848 0
M  V30 18300 C 1682.41 -0.945307 -5.12556 0
M  V30 18301 C 1679.74 -1.54444 -5.66007 0
M  V30 18302 C 1682.09 -1.9682 -6.01203 0
M  V30 18303 C 1680.75 -2.27241 -6.27629 0
M  V30 18304 H 1680.02 0.146211 -0.726432 0
M  V30 18305 H 1682.67 -0.334135 -1.88562 0
M  V30 18306 H 1680.97 1.68165 -3.53875 0
M  V30 18307 H 1682.67 1.36605 -3.77015 0
M  V30 18308 H 1679.26 0.0283699 -4.28591 0
M  V30 18309 H 1683.45 -0.728806 -4.9092 0
M  V30 18310 H 1678.7 -1.78566 -5.84743 0
M  V30 18311 H 1682.88 -2.54023 -6.48418 0
M  V30 18312 H 1680.5 -3.07465 -6.95248 0
M  V30 18313 N 1682.08 1.5754 0.0434337 0
M  V30 18314 C 1683.03 2.06683 1.067 0
M  V30 18315 C 1684.02 0.977691 1.38339 0
M  V30 18316 O 1685.23 1.16266 1.37412 0
M  V30 18317 H 1681.6 0.659378 0.361559 0
M  V30 18318 H 1683.57 2.91747 0.626605 0
M  V30 18319 C 1682.32 2.54985 2.36385 0
M  V30 18320 H 1681.64 3.384 2.12897 0
M  V30 18321 H 1683.08 2.93095 3.06384 0
M  V30 18322 C 1681.54 1.44484 3.04345 0
M  V30 18323 O 1682.07 0.80291 3.93594 0
M  V30 18324 N 1680.28 1.18292 2.65434 0
M  V30 18325 H 1679.83 1.70676 1.92944 0
M  V30 18326 H 1679.78 0.445676 3.11225 0
M  V30 18327 N 1683.56 -0.31543 1.54411 0
M  V30 18328 C 1684.47 -1.41136 1.87397 0
M  V30 18329 C 1685.48 -1.56199 0.76668 0
M  V30 18330 O 1686.66 -1.71139 1.06176 0
M  V30 18331 C 1683.72 -2.75731 2.10174 0
M  V30 18332 C 1682.78 -2.69776 3.33945 0
M  V30 18333 C 1682.02 -3.97952 3.55626 0
M  V30 18334 O 1682.24 -4.96614 2.80589 0
M  V30 18335 O 1681.17 -4.00719 4.49119 0
M  V30 18336 H 1685 -1.16167 2.80605 0
M  V30 18337 H 1682.58 -0.510193 1.40419 0
M  V30 18338 H 1684.47 -3.55392 2.26439 0
M  V30 18339 H 1683.14 -3.00574 1.20154 0
M  V30 18340 H 1682.05 -1.88638 3.23058 0
M  V30 18341 H 1683.38 -2.49887 4.24049 0
M  V30 18342 N 1685.03 -1.46622 -0.577906 0
M  V30 18343 C 1685.98 -1.53964 -1.68164 0
M  V30 18344 C 1686.97 -0.400171 -1.55844 0
M  V30 18345 O 1688.16 -0.648872 -1.64677 0
M  V30 18346 C 1685.29 -1.53743 -3.0695 0
M  V30 18347 C 1684.38 -2.73001 -3.24548 0
M  V30 18348 N 1684.77 -3.97882 -3.12288 0
M  V30 18349 C 1683.06 -2.69326 -3.55499 0
M  V30 18350 C 1683.77 -4.77637 -3.3202 0
M  V30 18351 N 1682.74 -4.09594 -3.57398 0
M  V30 18352 H 1686.54 -2.48311 -1.57222 0
M  V30 18353 H 1684.06 -1.42328 -0.782077 0
M  V30 18354 H 1686.05 -1.57091 -3.86171 0
M  V30 18355 H 1684.71 -0.60476 -3.19018 0
M  V30 18356 H 1685.73 -4.29058 -2.90052 0
M  V30 18357 H 1682.4 -1.85104 -3.74223 0
M  V30 18358 H 1683.79 -5.86577 -3.27684 0
M  V30 18359 N 1686.51 0.822941 -1.34408 0
M  V30 18360 C 1687.74 1.61087 -1.2984 0
M  V30 18361 C 1688.16 1.88369 0.127527 0
M  V30 18362 O 1687.51 1.47508 1.0746 0
M  V30 18363 C 1687.56 2.9518 -2.08689 0
M  V30 18364 O 1687.28 2.69089 -3.45721 0
M  V30 18365 C 1688.79 3.89583 -2.11518 0
M  V30 18366 H 1686.01 0.500726 -0.44667 0
M  V30 18367 H 1688.55 1.02391 -1.77021 0
M  V30 18368 H 1686.7 3.50434 -1.6515 0
M  V30 18369 H 1687.12 3.5459 -3.86479 0
M  V30 18370 H 1688.59 4.80835 -2.71111 0
M  V30 18371 H 1689.07 4.24953 -1.10957 0
M  V30 18372 H 1689.68 3.40265 -2.55146 0
M  V30 18373 N 1687.99 1.18137 1.04314 0
M  V30 18374 C 1689.27 0.884901 1.74439 0
M  V30 18375 C 1689.65 -0.612825 2.02009 0
M  V30 18376 O 1689 -1.56679 1.66325 0
M  V30 18377 C 1689.21 1.72944 3.03136 0
M  V30 18378 C 1690.55 1.95491 3.7692 0
M  V30 18379 O 1691.58 1.69976 3.13028 0
M  V30 18380 O 1690.44 2.38426 4.91747 0
M  V30 18381 H 1687.53 0.328481 0.758966 0
M  V30 18382 H 1690.08 1.28878 1.10402 0
M  V30 18383 H 1688.85 2.74485 2.78879 0
M  V30 18384 H 1688.47 1.32392 3.74911 0
M  V30 18385 N 1689.47 -1.23186 0.98301 0
M  V30 18386 C 1690.38 -2.28448 0.533727 0
M  V30 18387 C 1691.39 -1.69034 -0.412732 0
M  V30 18388 O 1692.57 -1.99416 -0.282007 0
M  V30 18389 C 1689.64 -3.46357 -0.154179 0
M  V30 18390 C 1688.7 -4.21121 0.834009 0
M  V30 18391 C 1687.93 -5.334 0.178836 0
M  V30 18392 O 1688.15 -5.61032 -1.02952 0
M  V30 18393 O 1687.09 -5.95451 0.878722 0
M  V30 18394 H 1690.91 -2.69027 1.40919 0
M  V30 18395 H 1688.5 -1.29166 0.75077 0
M  V30 18396 H 1690.38 -4.17926 -0.539947 0
M  V30 18397 H 1689.05 -3.07724 -1.00437 0
M  V30 18398 H 1687.96 -3.51864 1.27053 0
M  V30 18399 H 1689.29 -4.6361 1.65309 0
M  V30 18400 N 1690.95 -0.754982 -1.38339 0
M  V30 18401 C 1691.86 -0.130303 -2.34238 0
M  V30 18402 C 1692.87 0.699048 -1.5934 0
M  V30 18403 O 1694.05 0.622876 -1.91526 0
M  V30 18404 C 1691.11 0.751285 -3.38462 0
M  V30 18405 C 1690.17 -0.0925987 -4.292 0
M  V30 18406 C 1689.41 0.747007 -5.28446 0
M  V30 18407 O 1689.63 1.98495 -5.34749 0
M  V30 18408 O 1688.56 0.165072 -6.01674 0
M  V30 18409 H 1692.39 -0.92233 -2.89356 0
M  V30 18410 H 1689.98 -0.515896 -1.4021 0
M  V30 18411 H 1691.86 1.2551 -4.02275 0
M  V30 18412 H 1690.53 1.52178 -2.85698 0
M  V30 18413 H 1689.44 -0.64239 -3.68543 0
M  V30 18414 H 1690.77 -0.825784 -4.85223 0
M  V30 18415 N 1692.42 1.49318 -0.504168 0
M  V30 18416 C 1693.35 2.32027 0.261837 0
M  V30 18417 C 1694.34 1.4045 0.959575 0
M  V30 18418 O 1695.52 1.69357 0.950365 0
M  V30 18419 C 1692.65 3.21039 1.3248 0
M  V30 18420 C 1691.6 4.21435 0.746752 0
M  V30 18421 C 1690.93 4.99405 1.91047 0
M  V30 18422 C 1692.23 5.21631 -0.264315 0
M  V30 18423 H 1693.92 2.96317 -0.428544 0
M  V30 18424 H 1691.47 1.42497 -0.207539 0
M  V30 18425 H 1693.42 3.77714 1.86843 0
M  V30 18426 H 1692.15 2.54699 2.04441 0
M  V30 18427 H 1690.81 3.6591 0.22485 0
M  V30 18428 H 1690.45 4.29509 2.61784 0
M  V30 18429 H 1690.15 5.67338 1.52975 0
M  V30 18430 H 1691.68 5.58924 2.45837 0
M  V30 18431 H 1693.09 5.72981 0.191288 0
M  V30 18432 H 1691.49 5.97472 -0.561039 0
M  V30 18433 H 1692.56 4.70346 -1.17911 0
M  V30 18434 N 1693.9 0.238138 1.5579 0
M  V30 18435 C 1695.15 -0.382773 1.99766 0
M  V30 18436 C 1695.5 -1.562 1.12335 0
M  V30 18437 O 1694.8 -1.90781 0.17694 0
M  V30 18438 C 1694.99 -0.850646 3.47129 0
M  V30 18439 C 1694.82 0.281705 4.48817 0
M  V30 18440 C 1693.59 0.753532 4.9965 0
M  V30 18441 C 1695.79 1.10571 5.02273 0
M  V30 18442 N 1693.77 1.85921 5.8507 0
M  V30 18443 C 1695.14 2.05993 5.84779 0
M  V30 18444 C 1697.2 1.14326 4.84597 0
M  V30 18445 C 1695.9 3.0487 6.51496 0
M  V30 18446 C 1697.92 2.1203 5.52085 0
M  V30 18447 C 1697.29 3.06189 6.34372 0
M  V30 18448 H 1693.39 -0.106269 0.774746 0
M  V30 18449 H 1695.97 0.353711 1.9146 0
M  V30 18450 H 1694.14 -1.55644 3.5585 0
M  V30 18451 H 1695.87 -1.44577 3.77994 0
M  V30 18452 H 1692.63 0.339205 4.72384 0
M  V30 18453 H 1693.05 2.41455 6.32478 0
M  V30 18454 H 1697.69 0.42918 4.20616 0
M  V30 18455 H 1695.41 3.77232 7.14648 0
M  V30 18456 H 1699 2.15631 5.40365 0
M  V30 18457 H 1697.88 3.80557 6.85672 0
M  V30 18458 N 1695.38 -1.57561 -0.0350783 0
M  V30 18459 C 1696.33 -2.07246 -1.05602 0
M  V30 18460 C 1697.32 -0.985013 -1.37818 0
M  V30 18461 O 1698.53 -1.16993 -1.36794 0
M  V30 18462 H 1694.9 -0.661286 -0.358057 0
M  V30 18463 H 1696.87 -2.92075 -0.611124 0
M  V30 18464 C 1695.62 -2.56235 -2.3503 0
M  V30 18465 H 1694.95 -3.39525 -2.111 0
M  V30 18466 H 1696.39 -2.94716 -3.04826 0
M  V30 18467 C 1694.85 -1.46096 -3.03575 0
M  V30 18468 O 1695.38 -0.823772 -3.93163 0
M  V30 18469 N 1693.58 -1.19698 -2.64803 0
M  V30 18470 H 1693.13 -1.71697 -1.92036 0
M  V30 18471 H 1693.09 -0.462174 -3.10984 0
M  V30 18472 N 1696.86 0.307236 -1.54576 0
M  V30 18473 C 1697.82 1.36178 -1.84359 0
M  V30 18474 C 1698.82 1.43971 -0.716163 0
M  V30 18475 O 1700.01 1.43715 -0.98446 0
M  V30 18476 C 1697.14 2.74733 -2.01828 0
M  V30 18477 H 1698.34 1.11017 -2.78595 0
M  V30 18478 H 1695.89 0.543582 -1.46543 0
M  V30 18479 H 1696.62 3.05126 -1.09858 0
M  V30 18480 H 1696.41 2.70468 -2.83883 0
M  V30 18481 H 1697.9 3.50992 -2.26261 0
M  V30 18482 N 1698.34 1.46926 0.570122 0
M  V30 18483 C 1699.27 1.61311 1.68822 0
M  V30 18484 C 1700.25 0.462964 1.63678 0
M  V30 18485 O 1701.43 0.690745 1.815 0
M  V30 18486 C 1698.56 1.61499 3.07466 0
M  V30 18487 C 1697.52 2.7561 3.27449 0
M  V30 18488 C 1696.84 2.60865 4.66748 0
M  V30 18489 C 1698.14 4.17324 3.14067 0
M  V30 18490 H 1699.84 2.54909 1.5704 0
M  V30 18491 H 1697.38 1.22677 0.754077 0
M  V30 18492 H 1699.34 1.70155 3.8552 0
M  V30 18493 H 1698.06 0.64453 3.20177 0
M  V30 18494 H 1696.72 2.66444 2.51799 0
M  V30 18495 H 1696.37 1.61875 4.76241 0
M  V30 18496 H 1696.07 3.37411 4.81069 0
M  V30 18497 H 1697.59 2.7143 5.46954 0
M  V30 18498 H 1699 4.27534 3.81952 0
M  V30 18499 H 1697.4 4.94555 3.39905 0
M  V30 18500 H 1698.47 4.36596 2.10979 0
M  V30 18501 N 1699.82 -0.815801 1.34842 0
M  V30 18502 C 1700.75 -1.93493 1.22854 0
M  V30 18503 C 1701.76 -1.6207 0.15395 0
M  V30 18504 O 1702.95 -1.73811 0.406428 0
M  V30 18505 C 1700.05 -3.27622 0.867006 0
M  V30 18506 C 1699.22 -3.87017 2.03806 0
M  V30 18507 C 1698.28 -4.99536 1.65378 0
M  V30 18508 O 1697.31 -5.17453 2.37131 0
M  V30 18509 N 1698.51 -5.77674 0.572056 0
M  V30 18510 H 1701.27 -2.04307 2.19269 0
M  V30 18511 H 1698.84 -0.992752 1.27891 0
M  V30 18512 H 1700.83 -4.00353 0.59159 0
M  V30 18513 H 1699.4 -3.12599 -0.00717215 0
M  V30 18514 H 1698.62 -3.06592 2.4778 0
M  V30 18515 H 1699.91 -4.23431 2.82106 0
M  V30 18516 H 1699.3 -5.65695 -0.0242931 0
M  V30 18517 H 1697.86 -6.50825 0.356394 0
M  V30 18518 N 1701.29 -1.18689 -1.03686 0
M  V30 18519 C 1702.2 -0.932473 -2.15272 0
M  V30 18520 C 1703.22 0.104751 -1.73684 0
M  V30 18521 O 1704.4 -0.0780471 -2.01249 0
M  V30 18522 C 1701.46 -0.465807 -3.43557 0
M  V30 18523 C 1700.52 -1.57146 -3.99504 0
M  V30 18524 C 1699.75 -1.12696 -5.21666 0
M  V30 18525 O 1699.98 0.0127657 -5.70399 0
M  V30 18526 O 1698.91 -1.92627 -5.70244 0
M  V30 18527 H 1702.74 -1.86626 -2.39592 0
M  V30 18528 H 1700.32 -0.969029 -1.13711 0
M  V30 18529 H 1702.2 -0.213819 -4.20857 0
M  V30 18530 H 1700.88 0.43964 -3.20701 0
M  V30 18531 H 1699.79 -1.8775 -3.23575 0
M  V30 18532 H 1701.12 -2.45317 -4.26709 0
M  V30 18533 N 1702.77 1.22662 -0.989529 0
M  V30 18534 C 1704.02 1.91605 -0.66448 0
M  V30 18535 C 1704.35 1.76909 0.801048 0
M  V30 18536 O 1703.63 1.13583 1.5789 0
M  V30 18537 C 1703.91 3.43929 -1.06698 0
M  V30 18538 C 1703.76 3.67691 -2.59082 0
M  V30 18539 C 1705.08 4.35744 -0.617695 0
M  V30 18540 H 1702.2 0.695832 -0.242872 0
M  V30 18541 H 1704.84 1.44605 -1.23245 0
M  V30 18542 H 1702.99 3.8409 -0.58371 0
M  V30 18543 H 1704.66 3.36956 -3.15053 0
M  V30 18544 H 1702.91 3.12088 -3.01303 0
M  V30 18545 H 1703.58 4.74356 -2.82295 0
M  V30 18546 H 1706.05 4.0308 -1.03275 0
M  V30 18547 H 1704.93 5.41004 -0.927659 0
M  V30 18548 H 1705.19 4.39468 0.481734 0
M  V30 18549 N 1704.25 0.762308 1.37937 0
M  V30 18550 C 1705.18 0.100528 2.28979 0
M  V30 18551 C 1706.19 -0.674409 1.48174 0
M  V30 18552 O 1707.38 -0.514059 1.70938 0
M  V30 18553 C 1704.48 -0.881478 3.27236 0
M  V30 18554 C 1703.66 -0.162349 4.37099 0
M  V30 18555 C 1702.72 -1.05636 5.15488 0
M  V30 18556 O 1701.74 -0.523636 5.66786 0
M  V30 18557 N 1702.94 -2.3836 5.29306 0
M  V30 18558 H 1705.71 0.882451 2.86414 0
M  V30 18559 H 1703.27 0.613839 1.49812 0
M  V30 18560 H 1705.26 -1.48278 3.76558 0
M  V30 18561 H 1703.83 -1.56443 2.70637 0
M  V30 18562 H 1703.05 0.61976 3.89298 0
M  V30 18563 H 1704.34 0.334928 5.07696 0
M  V30 18564 H 1703.74 -2.84087 4.89194 0
M  V30 18565 H 1702.29 -2.9352 5.8197 0
M  V30 18566 N 1705.73 -1.49049 0.51208 0
M  V30 18567 C 1706.66 -2.32163 -0.249529 0
M  V30 18568 C 1707.64 -1.40957 -0.952114 0
M  V30 18569 O 1708.82 -1.69858 -0.94137 0
M  V30 18570 C 1705.95 -3.21737 -1.30776 0
M  V30 18571 C 1704.91 -4.21825 -0.724392 0
M  V30 18572 C 1704.23 -5.00411 -1.88396 0
M  V30 18573 C 1705.53 -5.21483 0.291975 0
M  V30 18574 H 1707.23 -2.96086 0.444253 0
M  V30 18575 H 1704.77 -1.42385 0.215093 0
M  V30 18576 H 1706.73 -3.78699 -1.84837 0
M  V30 18577 H 1705.45 -2.55779 -2.03088 0
M  V30 18578 H 1704.11 -3.66024 -0.205441 0
M  V30 18579 H 1703.76 -4.30891 -2.59502 0
M  V30 18580 H 1703.46 -5.68141 -1.49964 0
M  V30 18581 H 1704.98 -5.6022 -2.42869 0
M  V30 18582 H 1706.4 -5.73074 -0.160899 0
M  V30 18583 H 1704.79 -5.97166 0.592717 0
M  V30 18584 H 1705.86 -4.69714 1.20404 0
M  V30 18585 N 1707.21 -0.246397 -1.55662 0
M  V30 18586 C 1708.15 0.653368 -2.21359 0
M  V30 18587 C 1709.12 1.1717 -1.1773 0
M  V30 18588 O 1710.31 1.22626 -1.46176 0
M  V30 18589 C 1707.45 1.84484 -2.9165 0
M  V30 18590 C 1706.56 1.36308 -4.09932 0
M  V30 18591 C 1705.7 2.51407 -4.6794 0
M  V30 18592 C 1704.73 2.0009 -5.78472 0
M  V30 18593 N 1703.87 3.08555 -6.30665 0
M  V30 18594 H 1708.71 0.0864458 -2.97875 0
M  V30 18595 H 1706.25 0.0309074 -1.47068 0
M  V30 18596 H 1708.21 2.54476 -3.30602 0
M  V30 18597 H 1706.84 2.38425 -2.17609 0
M  V30 18598 H 1705.89 0.557224 -3.76297 0
M  V30 18599 H 1707.2 0.946988 -4.89728 0
M  V30 18600 H 1706.35 3.29442 -5.09463 0
M  V30 18601 H 1705.09 2.96318 -3.87359 0
M  V30 18602 H 1704.1 1.20526 -5.36427 0
M  V30 18603 H 1705.32 1.5615 -6.60904 0
M  V30 18604 H 1703.27 3.529 -5.52989 0
M  V30 18605 H 1703.19 2.71274 -7.05653 0
M  V30 18606 H 1704.45 3.8665 -6.76847 0
M  V30 18607 N 1708.68 1.57577 0.026722 0
M  V30 18608 C 1709.59 2.10114 1.04351 0
M  V30 18609 C 1710.61 1.04029 1.39477 0
M  V30 18610 O 1711.79 1.35778 1.48749 0
M  V30 18611 C 1708.85 2.57203 2.32481 0
M  V30 18612 C 1707.91 3.77779 2.03915 0
M  V30 18613 C 1707.14 4.22613 3.25936 0
M  V30 18614 O 1707.37 3.66955 4.36692 0
M  V30 18615 O 1706.3 5.15026 3.11499 0
M  V30 18616 H 1710.13 2.97157 0.627021 0
M  V30 18617 H 1707.71 1.47396 0.243855 0
M  V30 18618 H 1709.59 2.87809 3.07805 0
M  V30 18619 H 1708.27 1.7327 2.73421 0
M  V30 18620 H 1707.18 3.52188 1.26152 0
M  V30 18621 H 1708.51 4.62703 1.67829 0
M  V30 18622 N 1710.16 -0.299034 1.54737 0
M  V30 18623 C 1711.39 -1.0529 1.78105 0
M  V30 18624 C 1711.8 -1.80868 0.541499 0
M  V30 18625 O 1711.16 -1.75834 -0.488726 0
M  V30 18626 C 1711.21 -2.03192 2.9899 0
M  V30 18627 O 1710.93 -1.30681 4.18156 0
M  V30 18628 C 1712.43 -2.90602 3.34762 0
M  V30 18629 H 1709.65 -0.312173 0.593961 0
M  V30 18630 H 1712.2 -0.337712 2.01692 0
M  V30 18631 H 1710.35 -2.70211 2.77606 0
M  V30 18632 H 1710.77 -1.96446 4.86322 0
M  V30 18633 H 1712.24 -3.55144 4.22584 0
M  V30 18634 H 1712.72 -3.59006 2.53004 0
M  V30 18635 H 1713.32 -2.29112 3.58313 0
M  V30 18636 N 1711.64 -1.47227 -0.562322 0
M  V30 18637 C 1712.89 -1.52851 -1.31604 0
M  V30 18638 C 1713.2 -0.193236 -1.94643 0
M  V30 18639 O 1714.41 -0.127429 -2.71201 0
M  V30 18640 C 1712.86 -2.69422 -2.3862 0
M  V30 18641 C 1712.47 -4.09457 -1.81794 0
M  V30 18642 C 1714.22 -2.84334 -3.15205 0
M  V30 18643 C 1712.12 -5.17337 -2.8656 0
M  V30 18644 H 1711.05 -0.568923 -0.494816 0
M  V30 18645 H 1713.7 -1.73489 -0.597819 0
M  V30 18646 H 1712.09 -2.42153 -3.13333 0
M  V30 18647 H 1713.26 -4.46606 -1.13487 0
M  V30 18648 H 1711.57 -3.99387 -1.17811 0
M  V30 18649 H 1714.17 -3.621 -3.93431 0
M  V30 18650 H 1714.51 -1.9259 -3.69073 0
M  V30 18651 H 1715.05 -3.11348 -2.47603 0
M  V30 18652 H 1711.79 -6.1094 -2.37554 0
M  V30 18653 H 1711.31 -4.8471 -3.53293 0
M  V30 18654 H 1712.99 -5.44065 -3.50146 0
M  V30 18655 N 1713.12 0.808639 -1.35273 0
M  V30 18656 C 1714.03 1.95198 -1.30134 0
M  V30 18657 C 1715.04 1.72769 -0.206587 0
M  V30 18658 O 1716.22 1.96633 -0.4356 0
M  V30 18659 C 1713.28 3.29747 -1.07087 0
M  V30 18660 C 1712.35 3.65086 -2.25855 0
M  V30 18661 C 1711.58 4.93215 -2.03898 0
M  V30 18662 O 1711.8 5.61487 -1.00439 0
M  V30 18663 O 1710.74 5.26765 -2.91208 0
M  V30 18664 H 1714.56 2.0248 -2.26353 0
M  V30 18665 H 1712.15 0.946124 -1.15624 0
M  V30 18666 H 1714.03 4.10302 -0.960734 0
M  V30 18667 H 1712.7 3.23401 -0.139177 0
M  V30 18668 H 1711.61 2.84917 -2.42432 0
M  V30 18669 H 1712.94 3.76135 -3.17464 0
M  V30 18670 N 1714.6 1.19237 1.03055 0
M  V30 18671 C 1715.87 0.903353 1.7349 0
M  V30 18672 C 1716.25 -0.591365 2.02648 0
M  V30 18673 O 1715.6 -1.54906 1.67978 0
M  V30 18674 C 1715.81 1.7615 3.01284 0
M  V30 18675 C 1717.16 1.99477 3.74825 0
M  V30 18676 O 1718.18 1.73287 3.11207 0
M  V30 18677 O 1717.04 2.43628 4.89191 0
M  V30 18678 H 1714.14 0.336512 0.755439 0
M  V30 18679 H 1716.68 1.30041 1.09029 0
M  V30 18680 H 1715.45 2.77428 2.75952 0
M  V30 18681 H 1715.08 1.36361 3.73486 0
M  V30 18682 N 1716.07 -1.22136 0.99602 0
M  V30 18683 C 1717 -2.26463 0.568909 0
M  V30 18684 C 1717.99 -1.65189 -0.405783 0
M  V30 18685 O 1719.17 -1.91935 -0.295735 0
M  V30 18686 C 1716.3 -3.47112 -0.114166 0
M  V30 18687 C 1715.25 -4.20844 0.779387 0
M  V30 18688 C 1714.58 -5.34687 -0.0367787 0
M  V30 18689 C 1715.88 -4.79195 2.07773 0
M  V30 18690 H 1717.57 -2.62443 1.44097 0
M  V30 18691 H 1715.12 -1.26156 0.694314 0
M  V30 18692 H 1717.07 -4.19258 -0.424381 0
M  V30 18693 H 1715.8 -3.10238 -1.02079 0
M  V30 18694 H 1714.46 -3.50537 1.07329 0
M  V30 18695 H 1714.1 -4.94054 -0.94442 0
M  V30 18696 H 1713.8 -5.84944 0.558092 0
M  V30 18697 H 1715.33 -6.09647 -0.341016 0
M  V30 18698 H 1716.74 -5.43266 1.83126 0
M  V30 18699 H 1715.14 -5.39803 2.62169 0
M  V30 18700 H 1716.21 -3.99073 2.75442 0
M  V30 18701 N 1717.55 -0.769612 -1.37531 0
M  V30 18702 C 1718.96 -0.398644 -1.82394 0
M  V30 18703 C 1719.31 1.07493 -1.64133 0
M  V30 18704 O 1718.44 1.83234 -1.15127 0
M  V30 18705 C 1719.03 -0.716789 -3.31131 0
M  V30 18706 C 1717.59 -0.398903 -3.7428 0
M  V30 18707 C 1716.74 -0.96173 -2.60089 0
M  V30 18708 H 1719.69 -0.964441 -1.26033 0
M  V30 18709 H 1719.71 -0.00067688 -3.805 0
M  V30 18710 H 1719.22 -1.78933 -3.4439 0
M  V30 18711 H 1717.33 0.666412 -3.66592 0
M  V30 18712 H 1717.44 -0.90566 -4.70462 0
M  V30 18713 H 1715.8 -0.386103 -2.51757 0
M  V30 18714 H 1716.59 -2.03963 -2.76141 0
M  V30 18715 N 1719.03 1.48775 -0.519977 0
M  V30 18716 C 1720.28 2.02092 0.0177154 0
M  V30 18717 C 1720.6 1.40024 1.35714 0
M  V30 18718 O 1719.87 0.562115 1.87662 0
M  V30 18719 H 1718.45 0.746939 0.00953578 0
M  V30 18720 H 1721.11 1.82595 -0.681535 0
M  V30 18721 H 1720.21 3.11815 0.133431 0
M  V30 18722 N 1720.51 0.254649 1.55529 0
M  V30 18723 C 1721.46 -0.64162 2.21702 0
M  V30 18724 C 1722.43 -1.16544 1.1835 0
M  V30 18725 O 1723.61 -1.2185 1.46824 0
M  V30 18726 C 1720.75 -1.82935 2.92624 0
M  V30 18727 C 1719.86 -1.34132 4.10649 0
M  V30 18728 C 1719 -2.48922 4.69267 0
M  V30 18729 C 1718.04 -1.9702 5.79525 0
M  V30 18730 N 1717.17 -3.05206 6.32293 0
M  V30 18731 H 1722.01 -0.0706476 2.97916 0
M  V30 18732 H 1719.55 -0.0231077 1.47082 0
M  V30 18733 H 1721.51 -2.52719 3.31947 0
M  V30 18734 H 1720.14 -2.37267 2.1887 0
M  V30 18735 H 1719.19 -0.53726 3.76587 0
M  V30 18736 H 1720.5 -0.921003 4.90223 0
M  V30 18737 H 1719.66 -3.26735 5.11203 0
M  V30 18738 H 1718.4 -2.94259 3.88925 0
M  V30 18739 H 1717.4 -1.17679 5.37058 0
M  V30 18740 H 1718.63 -1.52643 6.61723 0
M  V30 18741 H 1716.57 -3.49963 5.54853 0
M  V30 18742 H 1716.49 -2.67528 7.07082 0
M  V30 18743 H 1717.76 -3.83055 6.78888 0
M  V30 18744 N 1721.99 -1.57589 -0.0183649 0
M  V30 18745 C 1722.92 -2.02659 -1.04903 0
M  V30 18746 C 1723.9 -0.912926 -1.34553 0
M  V30 18747 O 1725.08 -1.17961 -1.47029 0
M  V30 18748 C 1722.21 -2.40869 -2.38117 0
M  V30 18749 C 1721.25 -3.62785 -2.24253 0
M  V30 18750 S 1722.09 -5.11479 -1.58585 0
M  V30 18751 C 1723.24 -5.52942 -2.93268 0
M  V30 18752 H 1723.48 -2.89763 -0.665188 0
M  V30 18753 H 1721.01 -1.52697 -0.228676 0
M  V30 18754 H 1722.97 -2.63553 -3.14722 0
M  V30 18755 H 1721.63 -1.54197 -2.73646 0
M  V30 18756 H 1720.82 -3.87211 -3.2262 0
M  V30 18757 H 1720.42 -3.40007 -1.55792 0
M  V30 18758 H 1722.72 -5.5428 -3.8959 0
M  V30 18759 H 1723.66 -6.53123 -2.73563 0
M  V30 18760 H 1724.07 -4.80466 -2.96333 0
M  V30 18761 N 1723.46 0.290824 -1.54893 0
M  V30 18762 C 1724.74 1.04495 -1.65348 0
M  V30 18763 C 1725.12 2.04888 -0.508348 0
M  V30 18764 O 1724.47 2.23102 0.493749 0
M  V30 18765 C 1724.68 1.71772 -3.03801 0
M  V30 18766 C 1726.03 2.23595 -3.60958 0
M  V30 18767 O 1727.05 1.81788 -3.06319 0
M  V30 18768 O 1725.91 3.00225 -4.56648 0
M  V30 18769 H 1723 0.483605 -0.670862 0
M  V30 18770 H 1725.55 0.288101 -1.67237 0
M  V30 18771 H 1724.32 0.989296 -3.78588 0
M  V30 18772 H 1723.95 2.54188 -3.05735 0
M  V30 18773 N 1724.94 1.47523 0.554506 0
M  V30 18774 C 1726.17 1.57907 1.3369 0
M  V30 18775 C 1726.59 0.230244 1.87391 0
M  V30 18776 O 1725.94 -0.776917 1.65137 0
M  V30 18777 C 1725.99 2.60644 2.50493 0
M  V30 18778 O 1725.71 3.9029 1.99011 0
M  V30 18779 C 1727.22 2.81238 3.42666 0
M  V30 18780 H 1724.44 0.533139 0.407436 0
M  V30 18781 H 1726.98 1.93163 0.671445 0
M  V30 18782 H 1725.13 2.28315 3.12971 0
M  V30 18783 H 1725.55 4.46451 2.75285 0
M  V30 18784 H 1727.02 3.56981 4.21033 0
M  V30 18785 H 1727.5 1.89159 3.96378 0
M  V30 18786 H 1728.11 3.14775 2.86001 0
M  V30 18787 N 1726.42 -0.801453 1.357 0
M  V30 18788 C 1727.33 -1.94505 1.31167 0
M  V30 18789 C 1728.35 -1.72657 0.215747 0
M  V30 18790 O 1729.52 -1.96399 0.446022 0
M  V30 18791 C 1726.59 -3.29175 1.08834 0
M  V30 18792 C 1725.65 -3.63883 2.27788 0
M  V30 18793 C 1724.88 -4.92127 2.06511 0
M  V30 18794 O 1725.1 -5.60947 1.03416 0
M  V30 18795 O 1724.04 -5.25213 2.93998 0
M  V30 18796 H 1727.86 -2.01277 2.27423 0
M  V30 18797 H 1725.45 -0.939979 1.16124 0
M  V30 18798 H 1727.33 -4.09787 0.98248 0
M  V30 18799 H 1726.01 -3.23322 0.156326 0
M  V30 18800 H 1724.91 -2.83627 2.4394 0
M  V30 18801 H 1726.25 -3.74446 3.19454 0
M  V30 18802 N 1727.9 -1.19782 -1.02421 0
M  V30 18803 C 1728.83 -0.963553 -2.12692 0
M  V30 18804 C 1729.81 0.104769 -1.69777 0
M  V30 18805 O 1730.99 -0.0512017 -1.94132 0
M  V30 18806 C 1728.12 -0.506525 -3.43586 0
M  V30 18807 C 1727.08 -1.51722 -4.00206 0
M  V30 18808 C 1726.4 -0.917097 -5.26776 0
M  V30 18809 C 1727.7 -2.89879 -4.34474 0
M  V30 18810 H 1729.4 -1.88579 -2.32547 0
M  V30 18811 H 1726.94 -0.908111 -1.11756 0
M  V30 18812 H 1728.9 -0.329907 -4.20107 0
M  V30 18813 H 1727.62 0.451322 -3.23467 0
M  V30 18814 H 1726.28 -1.68106 -3.25785 0
M  V30 18815 H 1725.93 0.0484457 -5.02977 0
M  V30 18816 H 1725.63 -1.59204 -5.65622 0
M  V30 18817 H 1727.15 -0.751379 -6.05959 0
M  V30 18818 H 1728.57 -2.7705 -5.01913 0
M  V30 18819 H 1726.96 -3.54209 -4.84413 0
M  V30 18820 H 1728.03 -3.42179 -3.43571 0
M  V30 18821 N 1729.38 1.21606 -1.00248 0
M  V30 18822 C 1730.34 2.22107 -0.565772 0
M  V30 18823 C 1731.34 1.56798 0.356521 0
M  V30 18824 O 1732.53 1.73577 0.147154 0
M  V30 18825 C 1729.66 3.40447 0.175742 0
M  V30 18826 H 1730.86 2.62258 -1.45468 0
M  V30 18827 H 1728.41 1.34823 -0.790721 0
M  V30 18828 H 1729.14 3.05781 1.0802 0
M  V30 18829 H 1728.93 3.89069 -0.486612 0
M  V30 18830 H 1730.42 4.14957 0.469122 0
M  V30 18831 N 1730.86 0.776895 1.37121 0
M  V30 18832 C 1731.77 0.167552 2.34001 0
M  V30 18833 C 1732.78 -0.673609 1.60432 0
M  V30 18834 O 1733.96 -0.592327 1.92493 0
M  V30 18835 C 1731.02 -0.697343 3.39615 0
M  V30 18836 C 1730.08 0.160869 4.28998 0
M  V30 18837 C 1729.32 -0.662841 5.29568 0
M  V30 18838 O 1729.54 -1.89962 5.37839 0
M  V30 18839 O 1728.47 -0.0693304 6.0186 0
M  V30 18840 H 1732.3 0.968247 2.87852 0
M  V30 18841 H 1729.88 0.538137 1.39372 0
M  V30 18842 H 1731.77 -1.19094 4.04221 0
M  V30 18843 H 1730.44 -1.47614 2.88083 0
M  V30 18844 H 1729.35 0.700941 3.67475 0
M  V30 18845 H 1730.68 0.902875 4.83848 0
M  V30 18846 N 1732.33 -1.48497 0.527859 0
M  V30 18847 C 1733.56 -2.07399 -0.00510725 0
M  V30 18848 C 1733.98 -1.38211 -1.2759 0
M  V30 18849 O 1733.34 -0.447373 -1.75694 0
M  V30 18850 C 1733.39 -3.59963 -0.214295 0
M  V30 18851 O 1732.49 -3.91921 -1.28342 0
M  V30 18852 H 1731.83 -0.662901 0.0381838 0
M  V30 18853 H 1734.36 -1.90936 0.735166 0
M  V30 18854 H 1734.37 -4.05646 -0.437604 0
M  V30 18855 H 1733.05 -4.09725 0.714028 0
M  V30 18856 H 1731.63 -3.58019 -1.04293 0
M  V30 18857 N 1733.81 -0.262893 -1.55392 0
M  V30 18858 C 1735.06 0.35666 -1.98928 0
M  V30 18859 C 1735.38 1.5729 -1.1526 0
M  V30 18860 O 1734.65 1.94435 -0.239164 0
M  V30 18861 H 1733.23 0.134768 -0.734742 0
M  V30 18862 H 1735.89 -0.365394 -1.91444 0
M  V30 18863 H 1734.99 0.654895 -3.05152 0
M  V30 18864 N 1735.29 1.57597 0.0100073 0
M  V30 18865 C 1736.51 1.94801 0.711852 0
M  V30 18866 C 1736.94 0.864343 1.67065 0
M  V30 18867 O 1736.3 -0.178388 1.8042 0
M  V30 18868 C 1736.35 3.31094 1.42862 0
M  V30 18869 O 1735.45 3.2469 2.54264 0
M  V30 18870 H 1734.79 0.636207 0.190095 0
M  V30 18871 H 1737.32 2.04561 -0.0402016 0
M  V30 18872 H 1737.33 3.66428 1.79429 0
M  V30 18873 H 1736.01 4.09522 0.725549 0
M  V30 18874 H 1734.58 3.01017 2.20099 0
M  V30 18875 N 1736.77 -0.282606 1.55045 0
M  V30 18876 C 1737.72 -1.36902 1.88044 0
M  V30 18877 C 1738.71 -1.51603 0.755845 0
M  V30 18878 O 1739.92 -1.53501 0.940074 0
M  V30 18879 H 1736.29 -0.457666 0.596696 0
M  V30 18880 H 1738.26 -1.06317 2.78818 0
M  V30 18881 C 1737.01 -2.72426 2.16054 0
M  V30 18882 H 1736.33 -2.61903 3.02071 0
M  V30 18883 H 1737.77 -3.47409 2.43071 0
M  V30 18884 C 1736.23 -3.22784 0.964996 0
M  V30 18885 O 1736.76 -4.01228 0.194759 0
M  V30 18886 N 1734.97 -2.80341 0.765322 0
M  V30 18887 H 1734.52 -2.16665 1.39335 0
M  V30 18888 H 1734.47 -3.14383 -0.0330026 0
M  V30 18889 N 1738.25 -1.47815 -0.546675 0
M  V30 18890 C 1739.49 -1.5498 -1.30336 0
M  V30 18891 C 1739.82 -0.216533 -1.93291 0
M  V30 18892 O 1739.08 0.791622 -1.78974 0
M  V30 18893 C 1739.37 -2.6242 -2.42632 0
M  V30 18894 C 1739.04 -4.05375 -1.97439 0
M  V30 18895 C 1737.7 -4.44287 -1.84831 0
M  V30 18896 C 1740.05 -4.9503 -1.6308 0
M  V30 18897 C 1737.38 -5.70678 -1.36174 0
M  V30 18898 C 1739.73 -6.21894 -1.1589 0
M  V30 18899 C 1738.4 -6.59678 -1.01886 0
M  V30 18900 H 1737.67 -0.567112 -0.476933 0
M  V30 18901 H 1740.32 -1.81461 -0.611907 0
M  V30 18902 H 1738.62 -2.29736 -3.17378 0
M  V30 18903 H 1740.32 -2.65184 -3.00796 0
M  V30 18904 H 1736.91 -3.74635 -2.08199 0
M  V30 18905 H 1741.09 -4.65657 -1.71689 0
M  V30 18906 H 1736.35 -5.98693 -1.24004 0
M  V30 18907 H 1740.52 -6.9077 -0.883691 0
M  V30 18908 H 1738.15 -7.57504 -0.639614 0
M  V30 18909 N 1739.72 0.794246 -1.36123 0
M  V30 18910 C 1740.95 1.58813 -1.33391 0
M  V30 18911 C 1741.37 1.87915 0.0834599 0
M  V30 18912 O 1740.73 1.47516 1.05398 0
M  V30 18913 C 1740.78 2.88887 -2.15816 0
M  V30 18914 O 1739.88 3.82271 -1.54734 0
M  V30 18915 H 1739.22 0.481924 -0.456777 0
M  V30 18916 H 1741.75 0.984818 -1.79339 0
M  V30 18917 H 1741.76 3.38201 -2.2822 0
M  V30 18918 H 1740.44 2.67032 -3.18852 0
M  V30 18919 H 1739.02 3.40852 -1.51242 0
M  V30 18920 N 1741.2 1.20323 1.01785 0
M  V30 18921 C 1742.45 1.01413 1.75623 0
M  V30 18922 C 1742.78 -0.452801 1.88847 0
M  V30 18923 O 1742.06 -1.33618 1.41338 0
M  V30 18924 C 1742.34 1.69686 3.17614 0
M  V30 18925 C 1742.19 3.23815 3.12192 0
M  V30 18926 C 1743.51 1.42891 4.16257 0
M  V30 18927 H 1740.63 0.369822 0.637495 0
M  V30 18928 H 1743.27 1.4832 1.18749 0
M  V30 18929 H 1741.42 1.29806 3.66173 0
M  V30 18930 H 1743.09 3.72981 2.71446 0
M  V30 18931 H 1741.34 3.54785 2.4962 0
M  V30 18932 H 1742.01 3.66741 4.12559 0
M  V30 18933 H 1744.48 1.77486 3.76348 0
M  V30 18934 H 1743.36 1.93195 5.13777 0
M  V30 18935 H 1743.62 0.356263 4.40662 0
M  V30 18936 N 1742.68 -1.21073 1.00892 0
M  V30 18937 C 1743.93 -1.89866 0.69248 0
M  V30 18938 C 1744.25 -1.7874 -0.779562 0
M  V30 18939 O 1743.52 -1.18482 -1.56009 0
M  V30 18940 H 1742.1 -0.702799 0.253145 0
M  V30 18941 H 1744.76 -1.47075 1.27887 0
M  V30 18942 H 1743.86 -2.96673 0.969098 0
M  V30 18943 N 1744.16 -0.784156 -1.36707 0
M  V30 18944 C 1745.09 -0.136944 -2.28791 0
M  V30 18945 C 1746.1 0.65075 -1.49228 0
M  V30 18946 O 1747.29 0.486799 -1.71734 0
M  V30 18947 C 1744.39 0.829306 -3.28597 0
M  V30 18948 C 1743.57 0.09279 -4.37302 0
M  V30 18949 C 1742.62 0.974213 -5.17103 0
M  V30 18950 O 1741.65 0.433399 -5.67548 0
M  V30 18951 N 1742.85 2.29909 -5.33031 0
M  V30 18952 H 1745.62 -0.927906 -2.84974 0
M  V30 18953 H 1743.18 -0.637596 -1.48816 0
M  V30 18954 H 1745.17 1.42268 -3.78869 0
M  V30 18955 H 1743.74 1.52117 -2.73092 0
M  V30 18956 H 1742.96 -0.681615 -3.88262 0
M  V30 18957 H 1744.25 -0.415655 -5.07099 0
M  V30 18958 H 1743.65 2.76268 -4.93652 0
M  V30 18959 H 1742.2 2.84224 -5.86566 0
M  V30 18960 N 1745.64 1.48215 -0.535727 0
M  V30 18961 C 1747.05 1.58417 -0.193977 0
M  V30 18962 C 1747.25 1.53705 1.30296 0
M  V30 18963 O 1746.31 1.42913 2.08164 0
M  V30 18964 C 1747.62 2.89819 -0.8016 0
M  V30 18965 C 1749.17 3.03359 -0.770858 0
M  V30 18966 C 1749.64 4.3743 -1.35716 0
M  V30 18967 N 1751.14 4.44012 -1.31938 0
M  V30 18968 C 1751.87 5.4627 -1.74287 0
M  V30 18969 N 1751.37 6.55454 -2.24393 0
M  V30 18970 N 1753.16 5.37187 -1.65489 0
M  V30 18971 H 1745.31 1.49521 -1.50855 0
M  V30 18972 H 1747.57 0.710306 -0.627829 0
M  V30 18973 H 1747.28 2.98939 -1.85278 0
M  V30 18974 H 1747.15 3.76144 -0.282036 0
M  V30 18975 H 1749.54 2.93848 0.271577 0
M  V30 18976 H 1749.62 2.1863 -1.32795 0
M  V30 18977 H 1749.27 4.47696 -2.39855 0
M  V30 18978 H 1749.2 5.20856 -0.775696 0
M  V30 18979 H 1751.69 3.65695 -0.952653 0
M  V30 18980 H 1752 7.29626 -2.54686 0
M  V30 18981 H 1750.34 6.56402 -2.2839 0
M  V30 18982 H 1753.54 4.50785 -1.26138 0
M  V30 18983 H 1753.71 6.16747 -1.98814 0
M  V30 18984 N 1747.11 0.27113 1.5525 0
M  V30 18985 C 1748.05 -0.651235 2.19753 0
M  V30 18986 C 1749.06 -1.12051 1.18104 0
M  V30 18987 O 1750.25 -1.0431 1.44851 0
M  V30 18988 C 1747.35 -1.89985 2.8064 0
M  V30 18989 C 1746.52 -1.57805 4.07942 0
M  V30 18990 C 1745.58 -2.67872 4.52914 0
M  V30 18991 O 1744.61 -2.34228 5.18774 0
M  V30 18992 N 1745.81 -3.97854 4.22721 0
M  V30 18993 H 1748.57 -0.0991913 2.99536 0
M  V30 18994 H 1746.13 0.0920667 1.61638 0
M  V30 18995 H 1748.13 -2.62907 3.07672 0
M  V30 18996 H 1746.7 -2.36105 2.04874 0
M  V30 18997 H 1745.92 -0.682852 3.88241 0
M  V30 18998 H 1747.2 -1.33801 4.90892 0
M  V30 18999 H 1746.6 -4.28011 3.69897 0
M  V30 19000 H 1745.16 -4.67165 4.54533 0
M  V30 19001 N 1748.59 -1.576 -0.00164943 0
M  V30 19002 C 1749.52 -2.11354 -0.992554 0
M  V30 19003 C 1750.5 -1.0223 -1.35952 0
M  V30 19004 O 1751.69 -1.29904 -1.44356 0
M  V30 19005 C 1748.82 -2.61549 -2.28494 0
M  V30 19006 C 1747.77 -3.75185 -2.05962 0
M  V30 19007 C 1747.1 -4.11688 -3.412 0
M  V30 19008 C 1748.4 -5.02526 -1.42355 0
M  V30 19009 H 1750.09 -2.94398 -0.544986 0
M  V30 19010 H 1747.64 -1.4162 -0.260702 0
M  V30 19011 H 1749.59 -2.97782 -2.98168 0
M  V30 19012 H 1748.32 -1.75625 -2.75361 0
M  V30 19013 H 1746.97 -3.39343 -1.38714 0
M  V30 19014 H 1746.62 -3.22789 -3.85767 0
M  V30 19015 H 1746.32 -4.88246 -3.2694 0
M  V30 19016 H 1747.85 -4.50478 -4.12192 0
M  V30 19017 H 1749.26 -5.3654 -2.01984 0
M  V30 19018 H 1747.66 -5.83878 -1.38589 0
M  V30 19019 H 1748.73 -4.83308 -0.392565 0
M  V30 19020 N 1750.07 0.274379 -1.55193 0
M  V30 19021 C 1751.32 1.00766 -1.75995 0
M  V30 19022 C 1751.65 1.8599 -0.558679 0
M  V30 19023 O 1750.92 1.8937 0.443784 0
M  V30 19024 C 1751.21 1.89137 -3.0643 0
M  V30 19025 C 1751.06 1.06914 -4.36909 0
M  V30 19026 C 1752.38 2.87869 -3.32896 0
M  V30 19027 H 1749.5 0.364915 -0.640317 0
M  V30 19028 H 1752.14 0.280156 -1.87923 0
M  V30 19029 H 1750.29 2.51166 -2.96391 0
M  V30 19030 H 1751.96 0.469666 -4.58903 0
M  V30 19031 H 1750.21 0.372566 -4.32197 0
M  V30 19032 H 1750.88 1.72063 -5.24498 0
M  V30 19033 H 1753.35 2.35974 -3.42718 0
M  V30 19034 H 1752.23 3.46845 -4.25429 0
M  V30 19035 H 1752.49 3.62921 -2.52469 0
M  V30 19036 N 1751.55 1.48103 0.538828 0
M  V30 19037 C 1752.79 1.5726 1.3057 0
M  V30 19038 C 1753.15 0.237208 1.90529 0
M  V30 19039 O 1754.35 0.203723 2.68027 0
M  V30 19040 C 1752.62 2.67292 2.37254 0
M  V30 19041 S 1754.18 2.96157 3.23785 0
M  V30 19042 H 1751 0.555112 0.444265 0
M  V30 19043 H 1753.6 1.8558 0.614855 0
M  V30 19044 H 1752.31 3.62892 1.91671 0
M  V30 19045 H 1751.84 2.40846 3.11057 0
M  V30 19046 H 1753.85 2.34777 4.37143 0
M  V30 19047 N 1753.03 -0.787016 1.36542 0
M  V30 19048 C 1753.96 -1.91399 1.33749 0
M  V30 19049 C 1754.94 -1.68817 0.208559 0
M  V30 19050 O 1756.12 -1.89896 0.406574 0
M  V30 19051 C 1753.25 -3.28457 1.12842 0
M  V30 19052 C 1752.21 -3.65568 2.22585 0
M  V30 19053 C 1751.53 -5.01002 1.86818 0
M  V30 19054 C 1752.83 -3.73902 3.64684 0
M  V30 19055 H 1754.53 -1.93993 2.2805 0
M  V30 19056 H 1752.07 -0.931937 1.09777 0
M  V30 19057 H 1754.03 -4.06919 1.09522 0
M  V30 19058 H 1752.75 -3.26256 0.149918 0
M  V30 19059 H 1751.41 -2.89405 2.25035 0
M  V30 19060 H 1751.06 -4.95325 0.875361 0
M  V30 19061 H 1750.76 -5.26802 2.60294 0
M  V30 19062 H 1752.28 -5.81881 1.85058 0
M  V30 19063 H 1753.69 -4.4255 3.64448 0
M  V30 19064 H 1752.09 -4.11188 4.37086 0
M  V30 19065 H 1753.16 -2.74946 3.99416 0
M  V30 19066 N 1754.5 -1.20861 -1.01145 0
M  V30 19067 C 1755.47 -0.963742 -2.07954 0
M  V30 19068 C 1756.47 0.0627362 -1.60678 0
M  V30 19069 O 1757.66 -0.173867 -1.7333 0
M  V30 19070 C 1754.79 -0.451977 -3.3789 0
M  V30 19071 H 1755.98 -1.91123 -2.3111 0
M  V30 19072 H 1753.54 -1.0247 -1.18024 0
M  V30 19073 H 1754.27 0.500735 -3.20411 0
M  V30 19074 H 1754.06 -1.19231 -3.73532 0
M  V30 19075 H 1755.55 -0.300308 -4.16519 0
M  V30 19076 N 1755.98 1.20536 -1.01532 0
M  V30 19077 C 1757.4 1.41929 -0.729957 0
M  V30 19078 C 1757.6 1.89286 0.69088 0
M  V30 19079 O 1756.65 2.06094 1.45882 0
M  V30 19080 C 1757.97 2.44202 -1.75458 0
M  V30 19081 C 1759.52 2.57971 -1.77257 0
M  V30 19082 C 1759.99 3.63486 -2.78643 0
M  V30 19083 N 1761.48 3.70968 -2.77375 0
M  V30 19084 C 1762.22 4.52266 -3.52481 0
M  V30 19085 N 1761.71 5.37379 -4.37259 0
M  V30 19086 N 1763.51 4.46787 -3.41084 0
M  V30 19087 H 1755.66 0.881116 -1.93262 0
M  V30 19088 H 1757.92 0.449299 -0.834766 0
M  V30 19089 H 1757.63 2.16401 -2.77243 0
M  V30 19090 H 1757.5 3.43171 -1.56568 0
M  V30 19091 H 1759.89 2.85103 -0.761586 0
M  V30 19092 H 1759.97 1.59202 -2.00221 0
M  V30 19093 H 1759.61 3.37097 -3.79905 0
M  V30 19094 H 1759.54 4.61874 -2.52942 0
M  V30 19095 H 1762.03 3.10171 -2.15876 0
M  V30 19096 H 1762.35 5.96495 -4.91338 0
M  V30 19097 H 1760.69 5.36886 -4.41337 0
M  V30 19098 H 1763.88 3.79329 -2.74275 0
M  V30 19099 H 1764.05 5.0991 -3.9987 0
M  V30 19100 N 1757.46 0.791395 1.36289 0
M  V30 19101 C 1758.42 0.197069 2.28351 0
M  V30 19102 C 1759.42 -0.606748 1.48913 0
M  V30 19103 O 1760.61 -0.427453 1.68874 0
M  V30 19104 C 1757.75 -0.727009 3.33058 0
M  V30 19105 H 1758.94 1.00885 2.82422 0
M  V30 19106 H 1756.49 0.560959 1.45887 0
M  V30 19107 H 1757.23 -1.56306 2.84146 0
M  V30 19108 H 1757.01 -0.152537 3.91803 0
M  V30 19109 H 1758.5 -1.13765 4.01805 0
M  V30 19110 N 1758.94 -1.47929 0.54358 0
M  V30 19111 C 1760.19 -2.01696 0.0123924 0
M  V30 19112 C 1760.5 -1.42469 -1.34022 0
M  V30 19113 O 1761.71 -1.87816 -1.96054 0
M  V30 19114 C 1760.16 -3.59889 -0.0282734 0
M  V30 19115 C 1759.77 -4.28104 1.32027 0
M  V30 19116 C 1761.52 -4.21455 -0.507571 0
M  V30 19117 C 1759.42 -5.78266 1.23945 0
M  V30 19118 H 1758.35 -0.754 0.000862593 0
M  V30 19119 H 1761 -1.70058 0.689396 0
M  V30 19120 H 1759.39 -3.88429 -0.770641 0
M  V30 19121 H 1760.56 -4.11221 2.07927 0
M  V30 19122 H 1758.87 -3.78468 1.7364 0
M  V30 19123 H 1761.47 -5.31477 -0.586219 0
M  V30 19124 H 1761.81 -3.87696 -1.51648 0
M  V30 19125 H 1762.35 -3.97395 0.179522 0
M  V30 19126 H 1759.09 -6.16621 2.22393 0
M  V30 19127 H 1758.61 -5.97524 0.522029 0
M  V30 19128 H 1760.29 -6.40197 0.935788 0
M  V30 19129 N 1760.42 -0.27936 -1.55104 0
M  V30 19130 C 1761.35 0.599831 -2.25664 0
M  V30 19131 C 1762.33 1.15548 -1.24831 0
M  V30 19132 O 1763.51 1.18883 -1.53559 0
M  V30 19133 C 1760.64 1.78202 -2.98096 0
M  V30 19134 C 1759.6 1.35771 -4.05894 0
M  V30 19135 C 1758.92 2.62334 -4.65924 0
M  V30 19136 C 1760.22 0.504795 -5.19855 0
M  V30 19137 H 1761.92 0.0113761 -2.99398 0
M  V30 19138 H 1759.46 0.00403149 -1.43999 0
M  V30 19139 H 1761.42 2.403 -3.4617 0
M  V30 19140 H 1760.14 2.39637 -2.21905 0
M  V30 19141 H 1758.8 0.75991 -3.58638 0
M  V30 19142 H 1758.45 3.22036 -3.86396 0
M  V30 19143 H 1758.15 2.34654 -5.38713 0
M  V30 19144 H 1759.67 3.25273 -5.16749 0
M  V30 19145 H 1761.09 1.03089 -5.63955 0
M  V30 19146 H 1759.48 0.322696 -5.99232 0
M  V30 19147 H 1760.55 -0.475409 -4.82564 0
M  V30 19148 N 1761.9 1.57599 -0.0067085 0
M  V30 19149 C 1763.31 1.55727 0.349452 0
M  V30 19150 C 1763.51 1.01004 1.74357 0
M  V30 19151 O 1762.57 0.646817 2.44075 0
M  V30 19152 C 1763.88 2.99905 0.218546 0
M  V30 19153 C 1765.43 3.11626 0.292987 0
M  V30 19154 C 1765.9 4.57601 0.191129 0
M  V30 19155 N 1767.39 4.62531 0.248819 0
M  V30 19156 C 1768.13 5.73074 0.193448 0
M  V30 19157 N 1767.63 6.92744 0.0882834 0
M  V30 19158 N 1769.42 5.61562 0.245803 0
M  V30 19159 H 1761.57 1.91508 -0.918617 0
M  V30 19160 H 1763.83 0.879931 -0.352739 0
M  V30 19161 H 1763.54 3.43807 -0.740914 0
M  V30 19162 H 1763.41 3.63761 0.997905 0
M  V30 19163 H 1765.8 2.67649 1.2429 0
M  V30 19164 H 1765.88 2.50534 -0.516358 0
M  V30 19165 H 1765.52 5.02253 -0.755263 0
M  V30 19166 H 1765.45 5.16646 1.01905 0
M  V30 19167 H 1767.95 3.76446 0.331157 0
M  V30 19168 H 1768.26 7.72782 0.052112 0
M  V30 19169 H 1766.6 6.94979 0.0538156 0
M  V30 19170 H 1769.79 4.66962 0.326204 0
M  V30 19171 H 1769.97 6.47694 0.199185 0
M  V30 19172 N 1763.37 -0.266145 1.55336 0
M  V30 19173 C 1764.32 -1.32914 1.88686 0
M  V30 19174 C 1765.29 -1.48752 0.739048 0
M  V30 19175 O 1766.48 -1.63048 0.990951 0
M  V30 19176 C 1763.62 -2.68317 2.17026 0
M  V30 19177 C 1762.73 -2.60644 3.44512 0
M  V30 19178 C 1761.86 -3.88271 3.62517 0
M  V30 19179 C 1760.9 -3.75137 4.83672 0
M  V30 19180 N 1760.04 -4.94614 4.98299 0
M  V30 19181 H 1764.88 -1.03774 2.79347 0
M  V30 19182 H 1762.42 -0.501205 1.38298 0
M  V30 19183 H 1764.37 -3.47107 2.31458 0
M  V30 19184 H 1763 -2.95645 1.29591 0
M  V30 19185 H 1762.06 -1.73527 3.38515 0
M  V30 19186 H 1763.37 -2.46842 4.3344 0
M  V30 19187 H 1762.52 -4.75503 3.76804 0
M  V30 19188 H 1761.26 -4.04949 2.71787 0
M  V30 19189 H 1760.27 -2.86289 4.69381 0
M  V30 19190 H 1761.49 -3.59973 5.75844 0
M  V30 19191 H 1759.44 -5.11689 4.10501 0
M  V30 19192 H 1759.35 -4.83369 5.81284 0
M  V30 19193 H 1760.62 -5.83399 5.16978 0
M  V30 19194 N 1764.85 -1.48386 -0.530967 0
M  V30 19195 C 1765.8 -1.63279 -1.65658 0
M  V30 19196 C 1766.79 -0.499261 -1.61876 0
M  V30 19197 O 1768 -0.677951 -1.66745 0
M  V30 19198 H 1764.37 -0.514332 -0.548605 0
M  V30 19199 H 1766.35 -2.57818 -1.50241 0
M  V30 19200 C 1765.09 -1.68878 -3.03933 0
M  V30 19201 H 1764.42 -2.55462 -3.07537 0
M  V30 19202 H 1765.86 -1.83343 -3.82311 0
M  V30 19203 C 1764.32 -0.427267 -3.3418 0
M  V30 19204 O 1764.85 0.460276 -3.99054 0
M  V30 19205 N 1763.05 -0.299268 -2.89055 0
M  V30 19206 H 1762.6 -1.02248 -2.36438 0
M  V30 19207 H 1762.56 0.543787 -3.09662 0
M  V30 19208 N 1766.33 0.779763 -1.36958 0
M  V30 19209 C 1767.26 1.90168 -1.27941 0
M  V30 19210 C 1768.27 1.61605 -0.196866 0
M  V30 19211 O 1769.46 1.72673 -0.452368 0
M  V30 19212 C 1766.56 3.25208 -0.953565 0
M  V30 19213 C 1765.74 3.81477 -2.13995 0
M  V30 19214 C 1764.8 4.94976 -1.78564 0
M  V30 19215 O 1763.82 5.10984 -2.50767 0
M  V30 19216 N 1765.02 5.75955 -0.725015 0
M  V30 19217 H 1767.79 1.98422 -2.24608 0
M  V30 19218 H 1765.35 0.958495 -1.30478 0
M  V30 19219 H 1767.34 3.98643 -0.697529 0
M  V30 19220 H 1765.91 3.12508 -0.0757105 0
M  V30 19221 H 1765.13 2.99915 -2.55822 0
M  V30 19222 H 1766.42 4.15803 -2.93233 0
M  V30 19223 H 1765.82 5.6556 -0.125699 0
M  V30 19224 H 1764.37 6.49651 -0.528823 0
M  V30 19225 N 1767.81 1.21396 1.00503 0
M  V30 19226 C 1769.06 1.02536 1.73693 0
M  V30 19227 C 1769.37 -0.441584 1.9055 0
M  V30 19228 O 1770.58 -0.749579 2.60947 0
M  V30 19229 C 1769.03 1.78602 3.12457 0
M  V30 19230 C 1768.64 3.29466 3.03573 0
M  V30 19231 C 1770.38 1.68149 3.89777 0
M  V30 19232 C 1768.29 3.98021 4.37416 0
M  V30 19233 H 1767.22 0.380052 0.651212 0
M  V30 19234 H 1769.87 1.4513 1.12292 0
M  V30 19235 H 1768.25 1.288 3.74468 0
M  V30 19236 H 1769.43 3.8657 2.50799 0
M  V30 19237 H 1767.74 3.4046 2.39741 0
M  V30 19238 H 1770.34 2.167 4.8882 0
M  V30 19239 H 1770.68 0.639716 4.11355 0
M  V30 19240 H 1771.22 2.15428 3.34418 0
M  V30 19241 H 1767.95 5.02401 4.21039 0
M  V30 19242 H 1767.47 3.45706 4.9015 0
M  V30 19243 H 1769.15 4.02932 5.06216 0
M  V30 19244 N 1769.29 -1.19996 1.0217 0
M  V30 19245 C 1770.22 -2.25206 0.616818 0
M  V30 19246 C 1771.2 -1.66013 -0.370653 0
M  V30 19247 O 1772.38 -1.92519 -0.254956 0
M  V30 19248 C 1769.51 -3.47276 -0.0405129 0
M  V30 19249 C 1768.47 -4.19096 0.868479 0
M  V30 19250 C 1767.79 -5.34645 0.0766447 0
M  V30 19251 C 1769.09 -4.7468 2.1789 0
M  V30 19252 H 1770.79 -2.59328 1.49632 0
M  V30 19253 H 1768.33 -1.24655 0.720917 0
M  V30 19254 H 1770.28 -4.20063 -0.335355 0
M  V30 19255 H 1769.01 -3.12333 -0.954759 0
M  V30 19256 H 1767.67 -3.48181 1.1474 0
M  V30 19257 H 1767.32 -4.95946 -0.839411 0
M  V30 19258 H 1767.02 -5.83628 0.682041 0
M  V30 19259 H 1768.54 -6.10233 -0.211624 0
M  V30 19260 H 1769.95 -5.39259 1.94608 0
M  V30 19261 H 1768.35 -5.34121 2.7356 0
M  V30 19262 H 1769.42 -3.93141 2.83845 0
M  V30 19263 N 1770.76 -0.798611 -1.35867 0
M  V30 19264 C 1772.01 -0.371795 -1.98244 0
M  V30 19265 C 1772.33 1.06474 -1.64081 0
M  V30 19266 O 1773.53 1.59428 -2.19761 0
M  V30 19267 C 1771.99 -0.613821 -3.54627 0
M  V30 19268 C 1771.6 -2.06237 -3.97706 0
M  V30 19269 C 1773.34 -0.251966 -4.23752 0
M  V30 19270 C 1771.25 -2.25057 -5.46903 0
M  V30 19271 H 1770.18 -0.135278 -0.741765 0
M  V30 19272 H 1772.83 -0.981544 -1.55042 0
M  V30 19273 H 1771.21 0.0657688 -3.95945 0
M  V30 19274 H 1772.38 -2.77912 -3.67562 0
M  V30 19275 H 1770.7 -2.38334 -3.41447 0
M  V30 19276 H 1773.3 -0.370736 -5.33413 0
M  V30 19277 H 1773.64 0.800968 -4.08522 0
M  V30 19278 H 1774.17 -0.885155 -3.87827 0
M  V30 19279 H 1770.91 -3.28767 -5.67091 0
M  V30 19280 H 1770.43 -1.57898 -5.78643 0
M  V30 19281 H 1772.11 -2.06219 -6.13256 0
M  V30 19282 N 1772.24 1.47639 -0.551417 0
M  V30 19283 C 1773.49 2.01687 -0.0230887 0
M  V30 19284 C 1773.8 1.43178 1.33265 0
M  V30 19285 O 1775.01 1.88853 1.95056 0
M  V30 19286 C 1773.47 3.59899 0.00918719 0
M  V30 19287 C 1773.07 4.27398 -1.34295 0
M  V30 19288 C 1774.82 4.21718 0.485213 0
M  V30 19289 C 1772.72 5.77601 -1.2701 0
M  V30 19290 H 1771.65 0.753984 -0.00486122 0
M  V30 19291 H 1774.31 1.6969 -0.698405 0
M  V30 19292 H 1772.69 3.88832 0.75003 0
M  V30 19293 H 1773.86 4.10113 -2.10105 0
M  V30 19294 H 1772.18 3.77542 -1.75644 0
M  V30 19295 H 1774.77 5.3178 0.558025 0
M  V30 19296 H 1775.12 3.88495 1.4959 0
M  V30 19297 H 1775.65 3.97294 -0.200594 0
M  V30 19298 H 1772.39 6.15433 -2.2566 0
M  V30 19299 H 1771.91 5.97239 -0.553709 0
M  V30 19300 H 1773.59 6.39692 -0.969726 0
M  V30 19301 N 1773.72 0.287581 1.54954 0
M  V30 19302 C 1775 -0.378041 1.91912 0
M  V30 19303 C 1775.38 -1.72749 1.2133 0
M  V30 19304 O 1774.73 -2.2589 0.344403 0
M  V30 19305 C 1774.94 -0.505993 3.45312 0
M  V30 19306 C 1776.28 -0.783109 4.17316 0
M  V30 19307 O 1777.31 -0.590324 3.51274 0
M  V30 19308 O 1776.17 -1.15257 5.34208 0
M  V30 19309 H 1773.26 -0.209004 0.800154 0
M  V30 19310 H 1775.81 0.334653 1.66368 0
M  V30 19311 H 1774.58 0.443187 3.88782 0
M  V30 19312 H 1774.2 -1.26767 3.7685 0
M  V30 19313 N 1775.2 -1.57593 0.0150662 0
M  V30 19314 C 1776.11 -2.12807 -0.987437 0
M  V30 19315 C 1777.12 -1.07691 -1.3667 0
M  V30 19316 O 1778.3 -1.39674 -1.45097 0
M  V30 19317 C 1775.37 -2.63276 -2.2558 0
M  V30 19318 C 1774.43 -3.83053 -1.93827 0
M  V30 19319 C 1773.66 -4.31106 -3.14616 0
M  V30 19320 O 1773.88 -3.78405 -4.26809 0
M  V30 19321 O 1772.82 -5.23104 -2.97734 0
M  V30 19322 H 1776.64 -2.98715 -0.548015 0
M  V30 19323 H 1774.23 -1.47991 -0.20469 0
M  V30 19324 H 1776.11 -2.95869 -3.00066 0
M  V30 19325 H 1774.78 -1.80459 -2.68731 0
M  V30 19326 H 1773.69 -3.55409 -1.1677 0
M  V30 19327 H 1775.02 -4.6699 -1.55502 0
M  V30 19328 N 1776.68 0.257904 -1.55475 0
M  V30 19329 C 1777.64 1.30244 -1.88598 0
M  V30 19330 C 1778.64 1.4162 -0.761604 0
M  V30 19331 O 1779.83 1.4051 -1.02968 0
M  V30 19332 C 1776.96 2.68173 -2.10466 0
M  V30 19333 H 1778.15 1.02098 -2.81986 0
M  V30 19334 H 1775.71 0.496685 -1.48198 0
M  V30 19335 H 1776.44 3.01476 -1.1951 0
M  V30 19336 H 1776.23 2.61299 -2.92344 0
M  V30 19337 H 1777.72 3.43616 -2.37313 0
M  V30 19338 N 1778.15 1.48666 0.52309 0
M  V30 19339 C 1779.38 1.60707 1.30311 0
M  V30 19340 C 1779.8 0.269941 1.8686 0
M  V30 19341 O 1779.15 -0.741714 1.66748 0
M  V30 19342 C 1779.21 2.65899 2.44908 0
M  V30 19343 O 1778.93 3.94423 1.90688 0
M  V30 19344 C 1780.43 2.88443 3.36624 0
M  V30 19345 H 1777.65 0.541661 0.396035 0
M  V30 19346 H 1780.19 1.94544 0.630322 0
M  V30 19347 H 1778.35 2.34902 3.08058 0
M  V30 19348 H 1778.76 4.5219 2.65753 0
M  V30 19349 H 1780.23 3.65831 4.13366 0
M  V30 19350 H 1780.71 1.97524 3.92277 0
M  V30 19351 H 1781.32 3.20771 2.7926 0
M  V30 19352 N 1779.63 -0.772489 1.37369 0
M  V30 19353 C 1780.6 -1.86737 1.32898 0
M  V30 19354 C 1781.6 -1.591 0.23318 0
M  V30 19355 O 1782.79 -1.67196 0.488983 0
M  V30 19356 C 1779.92 -3.23859 1.06435 0
M  V30 19357 H 1781.11 -1.92114 2.30287 0
M  V30 19358 H 1778.66 -0.972158 1.22388 0
M  V30 19359 H 1779.4 -3.24159 0.0957365 0
M  V30 19360 H 1779.18 -3.4531 1.85751 0
M  V30 19361 H 1780.67 -4.03935 1.05954 0
M  V30 19362 N 1781.11 -1.21927 -0.998575 0
M  V30 19363 C 1782.06 -0.981427 -2.10881 0
M  V30 19364 C 1783.05 0.0735277 -1.6924 0
M  V30 19365 O 1784.26 -0.078422 -1.79829 0
M  V30 19366 H 1780.63 -0.300155 -0.6895 0
M  V30 19367 H 1782.6 -1.92367 -2.28117 0
M  V30 19368 C 1781.35 -0.56967 -3.43002 0
M  V30 19369 H 1780.68 -1.37309 -3.75481 0
M  V30 19370 H 1782.12 -0.442618 -4.21683 0
M  V30 19371 C 1780.58 0.720145 -3.29113 0
M  V30 19372 O 1781.11 1.77404 -3.60403 0
M  V30 19373 N 1779.31 0.689122 -2.82311 0
M  V30 19374 H 1778.86 -0.168817 -2.57046 0
M  V30 19375 H 1778.82 1.55241 -2.734 0
M  V30 19376 N 1782.59 1.19452 -1.02805 0
M  V30 19377 C 1783.83 1.89394 -0.725101 0
M  V30 19378 C 1784.17 1.79368 0.744361 0
M  V30 19379 O 1783.44 1.18548 1.54196 0
M  V30 19380 C 1783.73 3.40361 -1.17586 0
M  V30 19381 C 1783.58 3.59263 -2.70648 0
M  V30 19382 C 1784.9 4.33558 -0.756011 0
M  V30 19383 H 1782.02 0.687753 -0.264887 0
M  V30 19384 H 1784.66 1.40611 -1.27783 0
M  V30 19385 H 1782.81 3.82038 -0.70561 0
M  V30 19386 H 1784.48 3.26762 -3.25614 0
M  V30 19387 H 1782.72 3.02344 -3.1108 0
M  V30 19388 H 1783.39 4.65135 -2.97244 0
M  V30 19389 H 1785.87 3.9959 -1.16046 0
M  V30 19390 H 1784.75 5.37779 -1.09931 0
M  V30 19391 H 1785.01 4.40778 0.341677 0
M  V30 19392 N 1784.07 0.805805 1.35442 0
M  V30 19393 C 1785.34 0.309105 1.93142 0
M  V30 19394 C 1785.72 -1.20119 1.73593 0
M  V30 19395 O 1785.07 -2.00034 1.10448 0
M  V30 19396 C 1785.28 0.719653 3.415 0
M  V30 19397 C 1786.63 0.708697 4.18644 0
M  V30 19398 O 1787.65 0.661148 3.5001 0
M  V30 19399 O 1786.51 0.76636 5.411 0
M  V30 19400 H 1783.61 0.0806647 0.823057 0
M  V30 19401 H 1786.15 0.88945 1.44523 0
M  V30 19402 H 1784.92 1.7606 3.49455 0
M  V30 19403 H 1784.55 0.114073 3.97436 0
M  V30 19404 N 1785.54 -1.47344 0.559239 0
M  V30 19405 C 1786.96 -1.86272 0.126394 0
M  V30 19406 C 1787.31 -1.46563 -1.30437 0
M  V30 19407 O 1786.43 -0.869624 -1.98158 0
M  V30 19408 C 1787.03 -3.38068 0.222602 0
M  V30 19409 C 1785.59 -3.7608 -0.155219 0
M  V30 19410 C 1784.73 -2.71394 0.569244 0
M  V30 19411 H 1787.68 -1.38833 0.768845 0
M  V30 19412 H 1787.7 -3.76382 -0.558262 0
M  V30 19413 H 1787.22 -3.66938 1.26404 0
M  V30 19414 H 1785.32 -3.52826 -1.19768 0
M  V30 19415 H 1785.43 -4.78662 0.204756 0
M  V30 19416 H 1783.79 -2.54697 0.0120996 0
M  V30 19417 H 1784.58 -3.03107 1.61187 0
M  V30 19418 N 1787.02 -0.295795 -1.54799 0
M  V30 19419 C 1788.44 0.0577516 -1.59495 0
M  V30 19420 C 1788.64 1.52862 -1.31284 0
M  V30 19421 O 1787.69 2.28061 -1.08372 0
M  V30 19422 C 1789.01 -0.335503 -2.98822 0
M  V30 19423 C 1790.56 -0.283835 -3.1171 0
M  V30 19424 C 1791.03 -0.651835 -4.53338 0
M  V30 19425 N 1792.52 -0.604171 -4.59243 0
M  V30 19426 C 1793.26 -0.861453 -5.66892 0
M  V30 19427 N 1792.75 -1.18443 -6.826 0
M  V30 19428 N 1794.55 -0.788863 -5.56537 0
M  V30 19429 H 1786.7 -1.25444 -1.71399 0
M  V30 19430 H 1788.96 -0.50822 -0.80026 0
M  V30 19431 H 1788.67 -1.35923 -3.24373 0
M  V30 19432 H 1788.54 0.313443 -3.75895 0
M  V30 19433 H 1790.93 0.730641 -2.85912 0
M  V30 19434 H 1791.01 -0.967331 -2.36804 0
M  V30 19435 H 1790.65 -1.66409 -4.79865 0
M  V30 19436 H 1790.58 0.053676 -5.26573 0
M  V30 19437 H 1793.07 -0.365262 -3.76131 0
M  V30 19438 H 1793.39 -1.36686 -7.60616 0
M  V30 19439 H 1791.73 -1.22242 -6.84165 0
M  V30 19440 H 1794.92 -0.536231 -4.65018 0
M  V30 19441 H 1795.09 -0.992744 -6.4035 0
M  V30 19442 N 1788.5 1.57583 -0.0234236 0
M  V30 19443 C 1789.73 1.95861 0.666797 0
M  V30 19444 C 1790.14 0.899616 1.65989 0
M  V30 19445 O 1789.5 -0.119162 1.82111 0
M  V30 19446 C 1789.55 3.34198 1.37818 0
M  V30 19447 O 1789.27 4.36035 0.424887 0
M  V30 19448 C 1790.77 3.87074 2.16075 0
M  V30 19449 H 1787.99 0.645213 0.184233 0
M  V30 19450 H 1790.54 2.04338 -0.0814987 0
M  V30 19451 H 1788.69 3.26958 2.07792 0
M  V30 19452 H 1789.11 5.162 0.929394 0
M  V30 19453 H 1790.58 4.8623 2.61312 0
M  V30 19454 H 1791.06 3.21017 2.99741 0
M  V30 19455 H 1791.66 3.97565 1.5107 0
M  V30 19456 N 1789.98 -0.249655 1.5561 0
M  V30 19457 C 1791.26 -1.00075 1.68061 0
M  V30 19458 C 1791.64 -2.03468 0.562492 0
M  V30 19459 O 1790.98 -2.24332 -0.434424 0
M  V30 19460 C 1791.19 -1.63657 3.08249 0
M  V30 19461 C 1792.54 -2.13946 3.66759 0
M  V30 19462 O 1793.57 -1.73603 3.11031 0
M  V30 19463 O 1792.43 -2.88012 4.64447 0
M  V30 19464 H 1789.52 -0.465648 0.683448 0
M  V30 19465 H 1792.07 -0.243659 1.67942 0
M  V30 19466 H 1790.84 -0.888572 3.81078 0
M  V30 19467 H 1790.46 -2.45993 3.12367 0
M  V30 19468 N 1791.46 -1.48941 -0.515198 0
M  V30 19469 C 1792.37 -1.67271 -1.64492 0
M  V30 19470 C 1793.38 -0.555222 -1.64904 0
M  V30 19471 O 1794.56 -0.828161 -1.83585 0
M  V30 19472 C 1791.62 -1.722 -3.00912 0
M  V30 19473 C 1790.69 -2.95683 -3.11239 0
M  V30 19474 C 1789.92 -3.00368 -4.41152 0
M  V30 19475 O 1790.14 -2.13041 -5.29122 0
M  V30 19476 O 1789.08 -3.92691 -4.56155 0
M  V30 19477 H 1792.9 -2.62947 -1.51962 0
M  V30 19478 H 1790.49 -1.32515 -0.68993 0
M  V30 19479 H 1792.37 -1.77877 -3.82018 0
M  V30 19480 H 1791.04 -0.796995 -3.13735 0
M  V30 19481 H 1789.95 -2.95531 -2.29374 0
M  V30 19482 H 1791.28 -3.87617 -3.03338 0
M  V30 19483 N 1792.94 0.765193 -1.37777 0
M  V30 19484 C 1793.87 1.89247 -1.36777 0
M  V30 19485 C 1794.85 1.68463 -0.235389 0
M  V30 19486 O 1796.03 1.89225 -0.436733 0
M  V30 19487 C 1793.16 3.2662 -1.18053 0
M  V30 19488 C 1792.12 3.61981 -2.28372 0
M  V30 19489 C 1791.44 4.97967 -1.94765 0
M  V30 19490 C 1792.74 3.68053 -3.70587 0
M  V30 19491 H 1794.44 1.90341 -2.31108 0
M  V30 19492 H 1791.98 0.914355 -1.11245 0
M  V30 19493 H 1793.93 4.05125 -1.15982 0
M  V30 19494 H 1792.66 3.25976 -0.201803 0
M  V30 19495 H 1791.32 2.85788 -2.2961 0
M  V30 19496 H 1790.97 4.93869 -0.954052 0
M  V30 19497 H 1790.67 5.22594 -2.68642 0
M  V30 19498 H 1792.19 5.78864 -1.94292 0
M  V30 19499 H 1793.6 4.36696 -3.71443 0
M  V30 19500 H 1792 4.04183 -4.43572 0
M  V30 19501 H 1793.07 2.68556 -4.03739 0
M  V30 19502 N 1794.41 1.22455 0.992094 0
M  V30 19503 C 1795.66 1.04373 1.72596 0
M  V30 19504 C 1795.98 -0.421349 1.91008 0
M  V30 19505 O 1797.18 -0.72186 2.61728 0
M  V30 19506 C 1795.64 1.81906 3.10545 0
M  V30 19507 C 1795.25 3.32667 3.00061 0
M  V30 19508 C 1796.99 1.72274 3.87972 0
M  V30 19509 C 1794.9 4.02638 4.3317 0
M  V30 19510 H 1793.83 0.386937 0.647144 0
M  V30 19511 H 1796.48 1.46313 1.10746 0
M  V30 19512 H 1794.86 1.32764 3.73081 0
M  V30 19513 H 1796.03 3.89208 2.46685 0
M  V30 19514 H 1794.35 3.42984 2.36117 0
M  V30 19515 H 1796.95 2.21872 4.86494 0
M  V30 19516 H 1797.29 0.68331 4.10654 0
M  V30 19517 H 1797.82 2.18963 3.32115 0
M  V30 19518 H 1794.56 5.06838 4.15687 0
M  V30 19519 H 1794.08 3.50885 4.86456 0
M  V30 19520 H 1795.76 4.08279 5.01914 0
M  V30 19521 N 1795.89 -1.18905 1.03437 0
M  V30 19522 C 1796.82 -2.21792 0.578016 0
M  V30 19523 C 1797.84 -1.59015 -0.349014 0
M  V30 19524 O 1799.03 -1.77914 -0.144532 0
M  V30 19525 C 1796.13 -3.38441 -0.176348 0
M  V30 19526 C 1795.3 -4.308 0.756988 0
M  V30 19527 C 1794.36 -5.26179 0.0470478 0
M  V30 19528 O 1793.38 -5.65179 0.675418 0
M  V30 19529 N 1794.59 -5.67497 -1.2218 0
M  V30 19530 H 1797.35 -2.6157 1.46291 0
M  V30 19531 H 1794.91 -1.33627 0.914078 0
M  V30 19532 H 1796.9 -3.99266 -0.660972 0
M  V30 19533 H 1795.47 -2.97406 -0.962715 0
M  V30 19534 H 1794.69 -3.67674 1.4216 0
M  V30 19535 H 1795.98 -4.89413 1.39113 0
M  V30 19536 H 1795.38 -5.37855 -1.75295 0
M  V30 19537 H 1793.94 -6.30548 -1.65081 0
M  V30 19538 N 1797.37 -0.812977 -1.35013 0
M  V30 19539 C 1798.32 -0.225816 -2.29693 0
M  V30 19540 C 1799.29 0.643767 -1.53117 0
M  V30 19541 O 1800.47 0.587505 -1.8153 0
M  V30 19542 C 1797.61 0.614444 -3.39586 0
M  V30 19543 C 1796.72 -0.276281 -4.31116 0
M  V30 19544 C 1795.86 0.572595 -5.28105 0
M  V30 19545 C 1794.9 -0.318133 -6.11273 0
M  V30 19546 N 1794.04 0.491086 -7.0038 0
M  V30 19547 H 1798.88 -1.03861 -2.79315 0
M  V30 19548 H 1796.41 -0.523695 -1.37462 0
M  V30 19549 H 1798.37 1.11683 -4.01973 0
M  V30 19550 H 1797 1.39244 -2.91223 0
M  V30 19551 H 1796.05 -0.89682 -3.69677 0
M  V30 19552 H 1797.36 -0.961601 -4.89443 0
M  V30 19553 H 1796.52 1.13986 -5.95896 0
M  V30 19554 H 1795.26 1.29146 -4.7029 0
M  V30 19555 H 1794.26 -0.897622 -5.42423 0
M  V30 19556 H 1795.49 -1.03496 -6.71167 0
M  V30 19557 H 1793.43 1.19381 -6.45046 0
M  V30 19558 H 1793.35 -0.136054 -7.55878 0
M  V30 19559 H 1794.62 1.04143 -7.72512 0
M  V30 19560 N 1798.85 1.47045 -0.567045 0
M  V30 19561 C 1799.79 2.30135 0.175115 0
M  V30 19562 C 1800.76 1.39665 0.899049 0
M  V30 19563 O 1801.95 1.68623 0.892809 0
M  V30 19564 C 1799.09 3.23827 1.19289 0
M  V30 19565 C 1798.2 4.29392 0.474011 0
M  V30 19566 C 1797.34 5.10226 1.47793 0
M  V30 19567 C 1796.38 6.07554 0.744584 0
M  V30 19568 N 1795.51 6.81313 1.69581 0
M  V30 19569 H 1800.35 2.93075 -0.539529 0
M  V30 19570 H 1797.89 1.44451 -0.277889 0
M  V30 19571 H 1799.85 3.76579 1.79567 0
M  V30 19572 H 1798.48 2.6273 1.87544 0
M  V30 19573 H 1797.53 3.7962 -0.243494 0
M  V30 19574 H 1798.84 4.987 -0.100022 0
M  V30 19575 H 1798 5.67176 2.15397 0
M  V30 19576 H 1796.74 4.40842 2.08589 0
M  V30 19577 H 1795.74 5.49773 0.0546832 0
M  V30 19578 H 1796.97 6.78951 0.142235 0
M  V30 19579 H 1794.91 6.14651 2.29216 0
M  V30 19580 H 1794.83 7.46826 1.17418 0
M  V30 19581 H 1796.1 7.42831 2.36268 0
M  V30 19582 N 1800.33 0.304 1.5464 0
M  V30 19583 C 1801.57 -0.305185 1.99378 0
M  V30 19584 C 1801.89 -1.54773 1.19602 0
M  V30 19585 O 1803.09 -2.23169 1.54621 0
M  V30 19586 C 1801.55 -0.594303 3.54959 0
M  V30 19587 C 1801.16 0.630078 4.43547 0
M  V30 19588 C 1802.9 -1.16452 4.08215 0
M  V30 19589 C 1800.81 0.313946 5.90566 0
M  V30 19590 H 1799.74 -0.11781 0.744739 0
M  V30 19591 H 1802.39 0.413174 1.78788 0
M  V30 19592 H 1800.77 -1.37233 3.71461 0
M  V30 19593 H 1801.95 1.40619 4.3882 0
M  V30 19594 H 1800.26 1.11914 4.01079 0
M  V30 19595 H 1802.86 -1.41534 5.15628 0
M  V30 19596 H 1803.2 -2.10773 3.58999 0
M  V30 19597 H 1803.73 -0.448123 3.95268 0
M  V30 19598 H 1800.47 1.2258 6.43937 0
M  V30 19599 H 1799.99 -0.424841 5.98294 0
M  V30 19600 H 1801.67 -0.083395 6.46946 0
M  V30 19601 N 1801.8 -1.57568 0.0317802 0
M  V30 19602 C 1803.22 -1.56264 -0.324633 0
M  V30 19603 C 1803.42 -1.03765 -1.72728 0
M  V30 19604 O 1802.48 -0.685566 -2.43015 0
M  V30 19605 C 1803.79 -3.00214 -0.170806 0
M  V30 19606 C 1805.34 -3.12052 -0.243373 0
M  V30 19607 C 1805.81 -4.57847 -0.118304 0
M  V30 19608 N 1807.3 -4.62869 -0.175203 0
M  V30 19609 C 1808.04 -5.73309 -0.102252 0
M  V30 19610 N 1807.53 -6.92797 0.0219373 0
M  V30 19611 N 1809.33 -5.61882 -0.156432 0
M  V30 19612 H 1801.48 -1.90022 0.948968 0
M  V30 19613 H 1803.74 -0.874208 0.366693 0
M  V30 19614 H 1803.45 -3.42585 0.795517 0
M  V30 19615 H 1803.32 -3.65302 -0.939907 0
M  V30 19616 H 1805.71 -2.69593 -1.20016 0
M  V30 19617 H 1805.79 -2.49681 0.55615 0
M  V30 19618 H 1805.43 -5.00988 0.835072 0
M  V30 19619 H 1805.36 -5.18202 -0.936726 0
M  V30 19620 H 1807.85 -3.76925 -0.271225 0
M  V30 19621 H 1808.17 -7.72768 0.0708376 0
M  V30 19622 H 1806.51 -6.94977 0.0567564 0
M  V30 19623 H 1809.7 -4.67422 -0.251873 0
M  V30 19624 H 1809.88 -6.47929 -0.0961177 0
M  V30 19625 N 1803.28 0.241399 -1.5574 0
M  V30 19626 C 1804.19 1.32034 -1.93918 0
M  V30 19627 C 1805.21 1.52363 -0.840331 0
M  V30 19628 O 1806.38 1.65879 -1.1422 0
M  V30 19629 C 1803.45 2.6539 -2.2309 0
M  V30 19630 C 1802.51 2.53536 -3.46436 0
M  V30 19631 C 1801.74 3.80532 -3.74208 0
M  V30 19632 O 1801.97 4.82662 -3.03964 0
M  V30 19633 O 1800.9 3.78834 -4.67727 0
M  V30 19634 H 1804.73 1.02647 -2.85827 0
M  V30 19635 H 1802.31 0.442616 -1.42693 0
M  V30 19636 H 1804.19 3.44184 -2.43137 0
M  V30 19637 H 1802.87 2.94499 -1.34358 0
M  V30 19638 H 1801.78 1.73009 -3.3169 0
M  V30 19639 H 1803.11 2.29371 -4.35488 0
M  V30 19640 N 1804.76 1.49212 0.507292 0
M  V30 19641 C 1805.71 1.65417 1.60953 0
M  V30 19642 C 1806.68 0.495737 1.5853 0
M  V30 19643 O 1807.86 0.722002 1.76612 0
M  V30 19644 C 1805 1.72095 2.99128 0
M  V30 19645 C 1804.12 2.99199 3.11615 0
M  V30 19646 C 1803.25 2.96895 4.40485 0
M  V30 19647 C 1802.29 4.18607 4.46581 0
M  V30 19648 N 1801.43 4.14248 5.66871 0
M  V30 19649 H 1806.27 2.59535 1.46444 0
M  V30 19650 H 1803.8 1.28687 0.712609 0
M  V30 19651 H 1805.76 1.73947 3.79207 0
M  V30 19652 H 1804.39 0.814484 3.12356 0
M  V30 19653 H 1803.44 3.06988 2.24639 0
M  V30 19654 H 1804.76 3.89192 3.11979 0
M  V30 19655 H 1803.91 2.97275 5.28878 0
M  V30 19656 H 1802.65 2.0467 4.42675 0
M  V30 19657 H 1801.65 4.18477 3.56591 0
M  V30 19658 H 1802.88 5.12017 4.46112 0
M  V30 19659 H 1800.82 3.24857 5.69916 0
M  V30 19660 H 1800.74 4.97969 5.68826 0
M  V30 19661 H 1802.01 4.18722 6.57489 0
M  V30 19662 N 1806.24 -0.757876 1.38181 0
M  V30 19663 C 1807.49 -1.51688 1.34153 0
M  V30 19664 C 1807.81 -1.94375 -0.0697487 0
M  V30 19665 O 1807.07 -1.65404 -1.04594 0
M  V30 19666 C 1807.37 -2.78548 2.23933 0
M  V30 19667 C 1807.03 -2.54845 3.71975 0
M  V30 19668 C 1805.7 -2.48089 4.12317 0
M  V30 19669 C 1808.05 -2.34027 4.65704 0
M  V30 19670 C 1805.38 -2.18526 5.44485 0
M  V30 19671 C 1807.73 -2.05986 5.98124 0
M  V30 19672 C 1806.39 -1.97683 6.37556 0
M  V30 19673 H 1805.66 -0.555064 0.490902 0
M  V30 19674 H 1808.31 -0.871823 1.70504 0
M  V30 19675 H 1806.61 -3.47682 1.80623 0
M  V30 19676 H 1808.31 -3.36487 2.18122 0
M  V30 19677 H 1804.9 -2.60972 3.39988 0
M  V30 19678 H 1809.08 -2.38228 4.35386 0
M  V30 19679 H 1804.34 -2.10603 5.73983 0
M  V30 19680 H 1808.51 -1.8888 6.70296 0
M  V30 19681 H 1806.14 -1.7454 7.39892 0
M  V30 19682 N 1807.72 -1.22979 -0.985586 0
M  V30 19683 C 1808.68 -1.00763 -2.05862 0
M  V30 19684 C 1809.68 0.02864 -1.60774 0
M  V30 19685 O 1810.87 -0.210593 -1.72922 0
M  V30 19686 C 1808 -0.523547 -3.36856 0
M  V30 19687 H 1809.19 -1.95982 -2.27004 0
M  V30 19688 H 1806.75 -1.0495 -1.15824 0
M  V30 19689 H 1807.48 0.432658 -3.21401 0
M  V30 19690 H 1807.27 -1.27127 -3.70919 0
M  V30 19691 H 1808.76 -0.388591 -4.15788 0
M  V30 19692 N 1809.19 1.18355 -1.04066 0
M  V30 19693 C 1810.14 2.19907 -0.60209 0
M  V30 19694 C 1811.13 1.56925 0.355457 0
M  V30 19695 O 1812.32 1.76138 0.174513 0
M  V30 19696 C 1809.45 3.43284 0.0334903 0
M  V30 19697 C 1808.54 4.13387 -0.947205 0
M  V30 19698 N 1808.93 4.59492 -2.11425 0
M  V30 19699 C 1807.22 4.39247 -0.773204 0
M  V30 19700 C 1807.93 5.1346 -2.73375 0
M  V30 19701 N 1806.9 5.04974 -2.01251 0
M  V30 19702 H 1810.7 2.53245 -1.49145 0
M  V30 19703 H 1808.22 1.3456 -0.90925 0
M  V30 19704 H 1810.21 4.15296 0.365384 0
M  V30 19705 H 1808.87 3.11441 0.918387 0
M  V30 19706 H 1809.89 4.53942 -2.49314 0
M  V30 19707 H 1806.56 4.17455 0.0616022 0
M  V30 19708 H 1807.95 5.59337 -3.72279 0
M  V30 19709 N 1810.67 0.820125 1.3458 0
M  V30 19710 C 1811.91 0.41269 2.0019 0
M  V30 19711 C 1812.28 -1.0047 1.63614 0
M  V30 19712 O 1813.48 -1.51487 2.22047 0
M  V30 19713 C 1811.75 0.605717 3.5223 0
M  V30 19714 S 1813.31 0.290715 4.37836 0
M  V30 19715 H 1810.13 0.156064 0.693661 0
M  V30 19716 H 1812.73 1.06533 1.63924 0
M  V30 19717 H 1811.43 1.63702 3.76337 0
M  V30 19718 H 1810.96 -0.0617582 3.93352 0
M  V30 19719 H 1812.98 -0.896639 4.88032 0
M  V30 19720 N 1812.15 -1.46743 0.574835 0
M  V30 19721 C 1813.38 -2.06805 0.0627992 0
M  V30 19722 C 1813.79 -1.42482 -1.23872 0
M  V30 19723 O 1813.15 -0.527375 -1.74714 0
M  V30 19724 C 1813.2 -3.61307 -0.117983 0
M  V30 19725 O 1812.92 -4.23222 1.13201 0
M  V30 19726 C 1814.42 -4.3828 -0.665277 0
M  V30 19727 H 1811.64 -0.668835 0.0538616 0
M  V30 19728 H 1814.19 -1.88488 0.793265 0
M  V30 19729 H 1812.34 -3.79078 -0.798641 0
M  V30 19730 H 1812.76 -5.15992 0.940853 0
M  V30 19731 H 1814.23 -5.47004 -0.740985 0
M  V30 19732 H 1814.71 -4.05777 -1.68052 0
M  V30 19733 H 1815.31 -4.25295 -0.0197462 0
M  V30 19734 N 1813.63 -0.312197 -1.54477 0
M  V30 19735 C 1814.87 0.294208 -2.00655 0
M  V30 19736 C 1815.21 1.52674 -1.20018 0
M  V30 19737 O 1814.48 1.92481 -0.279517 0
M  V30 19738 C 1814.77 0.639677 -3.54373 0
M  V30 19739 C 1814.62 -0.602773 -4.45743 0
M  V30 19740 C 1815.94 1.46181 -4.15113 0
M  V30 19741 H 1813.06 0.10546 -0.729416 0
M  V30 19742 H 1815.7 -0.426519 -1.85151 0
M  V30 19743 H 1813.85 1.25371 -3.67715 0
M  V30 19744 H 1815.52 -1.24116 -4.44289 0
M  V30 19745 H 1813.76 -1.23386 -4.15882 0
M  V30 19746 H 1814.43 -0.316748 -5.5109 0
M  V30 19747 H 1816.91 0.942887 -4.05276 0
M  V30 19748 H 1815.79 1.67231 -5.22805 0
M  V30 19749 H 1816.05 2.45448 -3.67706 0
M  V30 19750 N 1815.11 1.57549 -0.040136 0
M  V30 19751 C 1816.04 2.13912 0.936168 0
M  V30 19752 C 1817.02 1.05798 1.33194 0
M  V30 19753 O 1818.2 1.33685 1.40861 0
M  V30 19754 C 1815.33 2.67515 2.21479 0
M  V30 19755 C 1814.29 3.80513 1.95943 0
M  V30 19756 C 1813.61 4.20589 3.30165 0
M  V30 19757 C 1814.91 5.06124 1.28981 0
M  V30 19758 H 1816.61 2.9574 0.46674 0
M  V30 19759 H 1814.15 1.42262 0.223062 0
M  V30 19760 H 1816.11 3.05582 2.90168 0
M  V30 19761 H 1814.83 1.82864 2.70608 0
M  V30 19762 H 1813.49 3.42902 1.29669 0
M  V30 19763 H 1813.14 3.32904 3.77073 0
M  V30 19764 H 1812.84 4.96742 3.13881 0
M  V30 19765 H 1814.36 4.61248 4.00103 0
M  V30 19766 H 1815.77 5.41707 1.87687 0
M  V30 19767 H 1814.17 5.87347 1.2306 0
M  V30 19768 H 1815.24 4.84179 0.264286 0
M  V30 19769 N 1816.58 -0.233136 1.55866 0
M  V30 19770 C 1817.81 -0.976415 1.82411 0
M  V30 19771 C 1818.23 -1.78409 0.617724 0
M  V30 19772 O 1817.58 -1.77749 -0.413709 0
M  V30 19773 C 1817.64 -1.90328 3.07339 0
M  V30 19774 O 1817.36 -1.12828 4.23322 0
M  V30 19775 C 1818.86 -2.76142 3.46786 0
M  V30 19776 H 1816.08 -0.2867 0.606666 0
M  V30 19777 H 1818.62 -0.251863 2.02943 0
M  V30 19778 H 1816.78 -2.58193 2.88816 0
M  V30 19779 H 1817.19 -1.75643 4.94216 0
M  V30 19780 H 1818.66 -3.36901 4.37266 0
M  V30 19781 H 1819.14 -3.47953 2.68003 0
M  V30 19782 H 1819.75 -2.13708 3.67708 0
M  V30 19783 N 1818.06 -1.49479 -0.499372 0
M  V30 19784 C 1819.31 -1.58295 -1.25003 0
M  V30 19785 C 1819.63 -0.275616 -1.93648 0
M  V30 19786 O 1820.83 -0.24234 -2.70416 0
M  V30 19787 C 1819.29 -2.793 -2.26979 0
M  V30 19788 C 1818.9 -4.16799 -1.64264 0
M  V30 19789 C 1820.64 -2.97447 -3.02862 0
M  V30 19790 C 1818.55 -5.29025 -2.6436 0
M  V30 19791 H 1817.48 -0.589398 -0.470241 0
M  V30 19792 H 1820.13 -1.75868 -0.523698 0
M  V30 19793 H 1818.51 -2.55225 -3.02781 0
M  V30 19794 H 1819.68 -4.51018 -0.944432 0
M  V30 19795 H 1818 -4.04024 -1.00765 0
M  V30 19796 H 1820.6 -3.78461 -3.77719 0
M  V30 19797 H 1820.94 -2.08071 -3.60572 0
M  V30 19798 H 1821.47 -3.2157 -2.34175 0
M  V30 19799 H 1818.21 -6.20466 -2.11429 0
M  V30 19800 H 1817.73 -4.99258 -3.32417 0
M  V30 19801 H 1819.41 -5.58427 -3.26755 0
M  V30 19802 N 1819.54 0.750537 -1.38581 0
M  V30 19803 C 1820.5 1.84599 -1.35852 0
M  V30 19804 C 1821.5 1.58709 -0.258462 0
M  V30 19805 O 1822.69 1.66397 -0.51552 0
M  V30 19806 C 1819.83 3.22124 -1.11573 0
M  V30 19807 H 1821.02 1.88426 -2.33314 0
M  V30 19808 H 1818.57 0.952564 -1.23919 0
M  V30 19809 H 1819.31 3.23965 -0.147295 0
M  V30 19810 H 1819.09 3.42311 -1.91221 0
M  V30 19811 H 1820.58 4.02198 -1.12367 0
M  V30 19812 N 1821.02 1.235 0.979051 0
M  V30 19813 C 1821.97 0.984512 2.05649 0
M  V30 19814 C 1822.95 -0.0699833 1.60748 0
M  V30 19815 O 1824.15 0.142316 1.76427 0
M  V30 19816 C 1821.27 0.579082 3.38381 0
M  V30 19817 C 1820.36 1.66905 3.89876 0
M  V30 19818 N 1820.75 2.8996 4.14436 0
M  V30 19819 C 1819.05 1.54394 4.18424 0
M  V30 19820 C 1819.75 3.60539 4.56493 0
M  V30 19821 N 1818.73 2.88058 4.61003 0
M  V30 19822 H 1822.53 1.91906 2.22597 0
M  V30 19823 H 1820.04 1.13459 1.16193 0
M  V30 19824 H 1822.04 0.380896 4.15156 0
M  V30 19825 H 1820.7 -0.348408 3.22825 0
M  V30 19826 H 1821.71 3.26252 4.02219 0
M  V30 19827 H 1818.39 0.683659 4.11864 0
M  V30 19828 H 1819.78 4.66038 4.84002 0
M  V30 19829 N 1822.5 -1.17802 1.04693 0
M  V30 19830 C 1823.91 -1.39944 0.76733 0
M  V30 19831 C 1824.11 -1.91051 -0.640451 0
M  V30 19832 O 1823.17 -2.09889 -1.40366 0
M  V30 19833 C 1824.48 -2.39465 1.81871 0
M  V30 19834 C 1826.03 -2.5318 1.84035 0
M  V30 19835 C 1826.51 -3.55971 2.88182 0
M  V30 19836 N 1828 -3.63484 2.87113 0
M  V30 19837 C 1828.73 -4.42762 3.64348 0
M  V30 19838 N 1828.23 -5.25597 4.51353 0
M  V30 19839 N 1830.02 -4.37586 3.52809 0
M  V30 19840 H 1822.17 -0.829567 1.9553 0
M  V30 19841 H 1824.43 -0.427009 0.846385 0
M  V30 19842 H 1824.14 -2.08974 2.82883 0
M  V30 19843 H 1824.01 -3.38899 1.65612 0
M  V30 19844 H 1826.4 -2.82984 0.836908 0
M  V30 19845 H 1826.48 -1.53837 2.04371 0
M  V30 19846 H 1826.13 -3.26906 3.88709 0
M  V30 19847 H 1826.06 -4.55006 2.65099 0
M  V30 19848 H 1828.55 -3.04338 2.24024 0
M  V30 19849 H 1828.86 -5.83258 5.06981 0
M  V30 19850 H 1827.21 -5.24996 4.55417 0
M  V30 19851 H 1830.4 -3.71924 2.84236 0
M  V30 19852 H 1830.57 -4.99128 4.13249 0
M  V30 19853 N 1823.98 -0.827251 -1.34143 0
M  V30 19854 C 1824.91 -0.267015 -2.31968 0
M  V30 19855 C 1825.89 0.618906 -1.58441 0
M  V30 19856 O 1827.07 0.544882 -1.86399 0
M  V30 19857 C 1824.2 0.568379 -3.42617 0
M  V30 19858 C 1823.16 -0.220767 -4.2743 0
M  V30 19859 C 1822.48 0.737643 -5.29587 0
M  V30 19860 C 1823.78 -1.43137 -5.02304 0
M  V30 19861 H 1825.48 -1.08436 -2.79073 0
M  V30 19862 H 1823.02 -0.522879 -1.34171 0
M  V30 19863 H 1824.97 0.970525 -4.10072 0
M  V30 19864 H 1823.7 1.41882 -2.94172 0
M  V30 19865 H 1822.36 -0.604333 -3.61585 0
M  V30 19866 H 1822.01 1.58416 -4.77403 0
M  V30 19867 H 1821.71 0.213815 -5.87211 0
M  V30 19868 H 1823.23 1.13755 -5.9991 0
M  V30 19869 H 1824.64 -1.10301 -5.62589 0
M  V30 19870 H 1823.04 -1.89115 -5.69522 0
M  V30 19871 H 1824.11 -2.2073 -4.31748 0
M  V30 19872 N 1825.45 1.46436 -0.582609 0
M  V30 19873 C 1826.4 2.32025 0.163475 0
M  V30 19874 C 1827.4 1.44476 0.884478 0
M  V30 19875 O 1828.6 1.61102 0.802878 0
M  V30 19876 H 1824.98 0.748585 0.0715868 0
M  V30 19877 H 1826.95 2.92764 -0.577205 0
M  V30 19878 C 1825.7 3.2764 1.16392 0
M  V30 19879 H 1825.02 3.94986 0.618553 0
M  V30 19880 H 1826.46 3.90308 1.65636 0
M  V30 19881 C 1824.92 2.52986 2.22486 0
M  V30 19882 O 1825.45 2.29283 3.29837 0
M  V30 19883 N 1823.65 2.1355 1.97091 0
M  V30 19884 H 1823.2 2.33027 1.09801 0
M  V30 19885 H 1823.16 1.63919 2.68287 0
M  V30 19886 N 1826.93 0.320385 1.54309 0
M  V30 19887 C 1828.16 -0.285197 2.04925 0
M  V30 19888 C 1828.57 -1.46029 1.1967 0
M  V30 19889 O 1827.93 -1.81087 0.22665 0
M  V30 19890 C 1827.98 -0.722736 3.54202 0
M  V30 19891 O 1827.7 0.40561 4.36218 0
M  V30 19892 C 1829.2 -1.39146 4.20896 0
M  V30 19893 H 1826.42 -0.0591612 0.668387 0
M  V30 19894 H 1828.97 0.46565 1.99128 0
M  V30 19895 H 1827.12 -1.42356 3.60296 0
M  V30 19896 H 1827.54 0.0614526 5.24464 0
M  V30 19897 H 1829.01 -1.64858 5.26807 0
M  V30 19898 H 1829.49 -2.33774 3.71815 0
M  V30 19899 H 1830.09 -0.733291 4.18931 0
M  V30 19900 N 1828.41 -1.57525 0.0484906 0
M  V30 19901 C 1829.66 -1.91761 -0.625335 0
M  V30 19902 C 1829.97 -0.928421 -1.72162 0
M  V30 19903 O 1831.18 -1.16273 -2.45342 0
M  V30 19904 C 1829.63 -3.40571 -1.1636 0
M  V30 19905 C 1829.24 -4.47889 -0.0995687 0
M  V30 19906 C 1830.99 -3.83845 -1.81282 0
M  V30 19907 C 1828.89 -5.87811 -0.650563 0
M  V30 19908 H 1827.82 -0.71567 -0.237346 0
M  V30 19909 H 1830.47 -1.83127 0.116944 0
M  V30 19910 H 1828.86 -3.44201 -1.95811 0
M  V30 19911 H 1830.03 -4.55846 0.673904 0
M  V30 19912 H 1828.34 -4.13939 0.452038 0
M  V30 19913 H 1830.94 -4.8575 -2.23497 0
M  V30 19914 H 1831.28 -3.19947 -2.66345 0
M  V30 19915 H 1831.82 -3.8272 -1.08491 0
M  V30 19916 H 1828.56 -6.55299 0.162371 0
M  V30 19917 H 1828.08 -5.83422 -1.39208 0
M  V30 19918 H 1829.76 -6.36979 -1.1343 0
M  V30 19919 N 1829.89 0.224867 -1.55988 0
M  V30 19920 C 1831.14 0.947776 -1.78045 0
M  V30 19921 C 1831.45 1.85632 -0.616454 0
M  V30 19922 O 1832.66 2.61763 -0.720579 0
M  V30 19923 C 1831.11 1.73546 -3.15293 0
M  V30 19924 C 1830.72 0.873219 -4.39407 0
M  V30 19925 C 1832.46 2.44978 -3.46679 0
M  V30 19926 C 1830.37 1.65806 -5.67682 0
M  V30 19927 H 1829.3 0.357623 -0.663793 0
M  V30 19928 H 1831.95 0.201754 -1.82388 0
M  V30 19929 H 1830.33 2.52426 -3.05118 0
M  V30 19930 H 1831.51 0.125187 -4.6063 0
M  V30 19931 H 1829.82 0.271179 -4.15516 0
M  V30 19932 H 1832.42 3.04192 -4.3974 0
M  V30 19933 H 1832.76 3.17699 -2.69023 0
M  V30 19934 H 1833.3 1.7309 -3.58168 0
M  V30 19935 H 1830.03 0.974191 -6.4822 0
M  V30 19936 H 1829.55 2.38079 -5.50526 0
M  V30 19937 H 1831.23 2.21959 -6.07736 0
M  V30 19938 N 1831.37 1.49742 0.491438 0
M  V30 19939 C 1832.64 1.50217 1.25277 0
M  V30 19940 C 1833.02 0.235271 2.09785 0
M  V30 19941 O 1832.37 -0.782057 2.147 0
M  V30 19942 C 1832.58 2.78652 2.10129 0
M  V30 19943 C 1833.93 3.28519 2.68999 0
M  V30 19944 O 1834.95 2.79834 2.20389 0
M  V30 19945 O 1833.81 4.13333 3.57516 0
M  V30 19946 H 1830.91 0.601649 0.567405 0
M  V30 19947 H 1833.45 1.62014 0.504924 0
M  V30 19948 H 1832.22 3.62345 1.47723 0
M  V30 19949 H 1831.85 2.69761 2.92087 0
M  V30 19950 N 1832.84 -0.743177 1.38977 0
M  V30 19951 C 1834.07 -1.53753 1.39193 0
M  V30 19952 C 1834.49 -1.88095 -0.0136591 0
M  V30 19953 O 1833.85 -1.51326 -0.998508 0
M  V30 19954 C 1833.9 -2.80679 2.26389 0
M  V30 19955 O 1833 -3.76265 1.68815 0
M  V30 19956 H 1832.35 -0.464639 0.474349 0
M  V30 19957 H 1834.88 -0.917579 1.82871 0
M  V30 19958 H 1834.89 -3.29498 2.40614 0
M  V30 19959 H 1833.56 -2.55014 3.28543 0
M  V30 19960 H 1832.14 -3.35004 1.63788 0
M  V30 19961 N 1834.32 -1.24018 -0.972487 0
M  V30 19962 C 1835.6 -0.985099 -1.68983 0
M  V30 19963 C 1835.98 0.494006 -2.05238 0
M  V30 19964 O 1835.33 1.46715 -1.75177 0
M  V30 19965 C 1835.54 -1.90324 -2.92537 0
M  V30 19966 C 1836.89 -2.17134 -3.64881 0
M  V30 19967 O 1837.91 -1.87938 -3.02585 0
M  V30 19968 O 1836.77 -2.66691 -4.7701 0
M  V30 19969 H 1833.86 -0.372172 -0.738524 0
M  V30 19970 H 1836.41 -1.35095 -1.027 0
M  V30 19971 H 1835.18 -2.90278 -2.62401 0
M  V30 19972 H 1834.8 -1.54025 -3.66554 0
M  V30 19973 N 1835.8 1.17245 -1.05316 0
M  V30 19974 C 1836.75 2.21304 -0.655223 0
M  V30 19975 C 1837.72 1.62515 0.343244 0
M  V30 19976 O 1838.9 1.89355 0.234375 0
M  V30 19977 C 1836.04 3.4508 -0.037446 0
M  V30 19978 C 1835.16 4.18155 -1.0849 0
M  V30 19979 C 1834.29 5.29422 -0.434307 0
M  V30 19980 C 1833.33 5.94286 -1.46598 0
M  V30 19981 N 1832.47 6.97063 -0.839461 0
M  V30 19982 H 1837.31 2.54696 -1.54705 0
M  V30 19983 H 1834.84 1.25109 -0.773697 0
M  V30 19984 H 1836.8 4.15827 0.338182 0
M  V30 19985 H 1835.43 3.12268 0.817837 0
M  V30 19986 H 1834.48 3.46111 -1.57834 0
M  V30 19987 H 1835.8 4.62502 -1.86798 0
M  V30 19988 H 1834.95 6.067 -0.00516288 0
M  V30 19989 H 1833.69 4.86212 0.380745 0
M  V30 19990 H 1832.69 5.15737 -1.90513 0
M  V30 19991 H 1833.92 6.39576 -2.28295 0
M  V30 19992 H 1831.86 6.55985 -0.0449421 0
M  V30 19993 H 1831.78 7.39728 -1.56006 0
M  V30 19994 H 1833.05 7.78285 -0.435132 0
M  V30 19995 N 1837.28 0.834353 1.33702 0
M  V30 19996 C 1838.53 0.424225 1.97188 0
M  V30 19997 C 1838.84 -1.02086 1.66846 0
M  V30 19998 O 1840.05 -1.53545 2.23911 0
M  V30 19999 C 1838.5 0.707628 3.52875 0
M  V30 20000 C 1838.11 2.16709 3.92098 0
M  V30 20001 C 1839.85 0.364228 4.22935 0
M  V30 20002 C 1837.76 2.39478 5.40744 0
M  V30 20003 H 1836.69 0.154897 0.737918 0
M  V30 20004 H 1839.34 1.02231 1.52385 0
M  V30 20005 H 1837.72 0.0392323 3.95981 0
M  V30 20006 H 1838.9 2.87559 3.60064 0
M  V30 20007 H 1837.21 2.47303 3.35008 0
M  V30 20008 H 1839.81 0.512031 5.32243 0
M  V30 20009 H 1840.15 -0.692375 4.10502 0
M  V30 20010 H 1840.69 0.98767 3.85344 0
M  V30 20011 H 1837.43 3.43687 5.58175 0
M  V30 20012 H 1836.95 1.73184 5.74254 0
M  V30 20013 H 1838.62 2.22406 6.07573 0
M  V30 20014 N 1838.76 -1.46125 0.590367 0
M  V30 20015 C 1839.69 -2.27433 -0.186997 0
M  V30 20016 C 1840.67 -1.36095 -0.889776 0
M  V30 20017 O 1841.85 -1.65511 -0.902123 0
M  V30 20018 C 1838.98 -3.14029 -1.26899 0
M  V30 20019 C 1838.02 -4.21185 -0.671223 0
M  V30 20020 S 1838.86 -5.33087 0.507766 0
M  V30 20021 C 1840.01 -6.23251 -0.575243 0
M  V30 20022 H 1840.25 -2.93016 0.502873 0
M  V30 20023 H 1837.78 -1.49715 0.377448 0
M  V30 20024 H 1839.74 -3.64483 -1.88845 0
M  V30 20025 H 1838.4 -2.47744 -1.93085 0
M  V30 20026 H 1837.59 -4.81633 -1.48478 0
M  V30 20027 H 1837.19 -3.73783 -0.127271 0
M  V30 20028 H 1839.49 -6.61606 -1.4589 0
M  V30 20029 H 1840.43 -7.081 -0.00733853 0
M  V30 20030 H 1840.84 -5.57554 -0.882831 0
M  V30 20031 N 1840.23 -0.328564 -1.54137 0
M  V30 20032 C 1841.48 0.272909 -2.00955 0
M  V30 20033 C 1841.81 1.51393 -1.2163 0
M  V30 20034 O 1841.09 1.92174 -0.299916 0
M  V30 20035 C 1841.37 0.602055 -3.55031 0
M  V30 20036 C 1841.22 -0.650016 -4.45078 0
M  V30 20037 C 1842.54 1.4177 -4.1664 0
M  V30 20038 H 1839.66 0.0977177 -0.730493 0
M  V30 20039 H 1842.3 -0.446133 -1.84688 0
M  V30 20040 H 1840.45 1.21464 -3.69024 0
M  V30 20041 H 1842.13 -1.28821 -4.42948 0
M  V30 20042 H 1840.37 -1.2779 -4.1455 0
M  V30 20043 H 1841.04 -0.375181 -5.50724 0
M  V30 20044 H 1843.52 0.899849 -4.06254 0
M  V30 20045 H 1842.39 1.61676 -5.24549 0
M  V30 20046 H 1842.65 2.41534 -3.70289 0
M  V30 20047 N 1841.71 1.57497 -0.0568439 0
M  V30 20048 C 1842.64 2.14892 0.913427 0
M  V30 20049 C 1843.62 1.07205 1.32065 0
M  V30 20050 O 1844.81 1.35172 1.39435 0
M  V30 20051 C 1841.94 2.69849 2.18629 0
M  V30 20052 C 1840.89 3.8257 1.91896 0
M  V30 20053 C 1840.22 4.24068 3.25685 0
M  V30 20054 C 1841.52 5.07463 1.23606 0
M  V30 20055 H 1843.21 2.96218 0.435347 0
M  V30 20056 H 1840.76 1.4249 0.20796 0
M  V30 20057 H 1842.71 3.08643 2.86911 0
M  V30 20058 H 1841.44 1.85723 2.68653 0
M  V30 20059 H 1840.09 3.44258 1.26024 0
M  V30 20060 H 1839.74 3.36884 3.73521 0
M  V30 20061 H 1839.44 5.00043 3.08594 0
M  V30 20062 H 1840.97 4.65466 3.95189 0
M  V30 20063 H 1842.38 5.43667 1.81931 0
M  V30 20064 H 1840.78 5.88619 1.16823 0
M  V30 20065 H 1841.85 4.84432 0.212918 0
M  V30 20066 N 1843.19 -0.216591 1.56105 0
M  V30 20067 C 1844.47 -0.964874 1.70146 0
M  V30 20068 C 1844.85 -2.02229 0.605524 0
M  V30 20069 O 1844.2 -2.25203 -0.386742 0
M  V30 20070 C 1844.41 -1.57082 3.11651 0
M  V30 20071 C 1845.75 -2.06118 3.71215 0
M  V30 20072 O 1846.78 -1.66966 3.14644 0
M  V30 20073 O 1845.64 -2.78095 4.70452 0
M  V30 20074 H 1842.73 -0.451047 0.693171 0
M  V30 20075 H 1845.28 -0.207982 1.68421 0
M  V30 20076 H 1844.05 -0.80754 3.82877 0
M  V30 20077 H 1843.67 -2.39312 3.17515 0
M  V30 20078 N 1844.67 -1.5 -0.48349 0
M  V30 20079 C 1845.89 -1.64376 -1.26473 0
M  V30 20080 C 1846.32 -0.321912 -1.85325 0
M  V30 20081 O 1845.68 0.712714 -1.66704 0
M  V30 20082 C 1845.72 -2.72803 -2.35819 0
M  V30 20083 O 1844.83 -2.33194 -3.40139 0
M  V30 20084 H 1844.17 -0.549589 -0.372624 0
M  V30 20085 H 1846.7 -1.963 -0.57684 0
M  V30 20086 H 1846.71 -2.95505 -2.8132 0
M  V30 20087 H 1845.38 -3.68745 -1.92353 0
M  V30 20088 H 1843.96 -2.20891 -3.00436 0
M  V30 20089 N 1846.15 0.735796 -1.39369 0
M  V30 20090 C 1847.39 1.49239 -1.3628 0
M  V30 20091 C 1847.72 1.94957 0.0408659 0
M  V30 20092 O 1846.99 1.68929 0.991959 0
M  V30 20093 H 1845.57 0.553626 -0.501506 0
M  V30 20094 H 1848.23 0.873549 -1.74227 0
M  V30 20095 H 1847.32 2.37488 -2.02499 0
M  V30 20096 N 1847.63 1.24532 0.965897 0
M  V30 20097 C 1849.04 1.0111 1.23486 0
M  V30 20098 C 1849.24 -0.278989 1.99559 0
M  V30 20099 O 1848.3 -0.99467 2.32083 0
M  V30 20100 C 1849.61 2.22726 2.02024 0
M  V30 20101 C 1851.16 2.27369 2.1511 0
M  V30 20102 C 1851.63 3.48611 2.97043 0
M  V30 20103 N 1853.12 3.48938 3.04625 0
M  V30 20104 C 1853.86 4.3941 3.68384 0
M  V30 20105 N 1853.36 5.40138 4.33847 0
M  V30 20106 N 1855.15 4.27117 3.65414 0
M  V30 20107 H 1847.3 2.07433 0.456674 0
M  V30 20108 H 1849.56 0.91037 0.264443 0
M  V30 20109 H 1849.27 3.16427 1.53515 0
M  V30 20110 H 1849.14 2.24989 3.02754 0
M  V30 20111 H 1851.53 1.34198 2.62821 0
M  V30 20112 H 1851.61 2.29131 1.13722 0
M  V30 20113 H 1851.25 4.42097 2.50025 0
M  V30 20114 H 1851.18 3.44093 3.98632 0
M  V30 20115 H 1853.68 2.76067 2.58061 0
M  V30 20116 H 1853.99 6.05402 4.80321 0
M  V30 20117 H 1852.33 5.44022 4.3251 0
M  V30 20118 H 1855.52 3.47659 3.1345 0
M  V30 20119 H 1855.7 4.97824 4.1482 0
M  V30 20120 N 1849.1 -1.16685 1.05936 0
M  V30 20121 C 1850.03 -2.23129 0.688153 0
M  V30 20122 C 1851.01 -1.67108 -0.31765 0
M  V30 20123 O 1852.2 -1.93233 -0.193578 0
M  V30 20124 C 1849.33 -3.47229 0.069991 0
M  V30 20125 C 1848.28 -4.16121 1.00137 0
M  V30 20126 C 1847.61 -5.34131 0.246699 0
M  V30 20127 C 1848.91 -4.67508 2.32882 0
M  V30 20128 H 1850.6 -2.54436 1.57806 0
M  V30 20129 H 1848.15 -1.22298 0.76021 0
M  V30 20130 H 1850.1 -4.20918 -0.201545 0
M  V30 20131 H 1848.83 -3.15212 -0.854909 0
M  V30 20132 H 1847.49 -3.44355 1.25759 0
M  V30 20133 H 1847.13 -4.98366 -0.681204 0
M  V30 20134 H 1846.83 -5.81163 0.867373 0
M  V30 20135 H 1848.36 -6.10598 -0.0173762 0
M  V30 20136 H 1849.77 -5.32795 2.11666 0
M  V30 20137 H 1848.17 -5.25147 2.90414 0
M  V30 20138 H 1849.24 -3.83912 2.96209 0
M  V30 20139 N 1850.58 -0.841432 -1.33258 0
M  V30 20140 C 1851.53 -0.274487 -2.29162 0
M  V30 20141 C 1852.5 0.611143 -1.54448 0
M  V30 20142 O 1853.68 0.548868 -1.82735 0
M  V30 20143 C 1850.82 0.542275 -3.40813 0
M  V30 20144 C 1849.94 -0.367664 -4.30433 0
M  V30 20145 C 1849.07 0.460447 -5.29201 0
M  V30 20146 C 1848.11 -0.447722 -6.1046 0
M  V30 20147 N 1847.25 0.342415 -7.01265 0
M  V30 20148 H 1852.09 -1.09762 -2.77049 0
M  V30 20149 H 1849.62 -0.552735 -1.3632 0
M  V30 20150 H 1851.58 1.03132 -4.04252 0
M  V30 20151 H 1850.21 1.33035 -2.94111 0
M  V30 20152 H 1849.26 -0.975032 -3.67692 0
M  V30 20153 H 1850.58 -1.0652 -4.87293 0
M  V30 20154 H 1849.73 1.01321 -5.9818 0
M  V30 20155 H 1848.47 1.19141 -4.72924 0
M  V30 20156 H 1847.47 -1.01248 -5.40397 0
M  V30 20157 H 1848.7 -1.17709 -6.68821 0
M  V30 20158 H 1846.65 1.05671 -6.47433 0
M  V30 20159 H 1846.56 -0.296356 -7.55419 0
M  V30 20160 H 1847.83 0.877331 -7.74547 0
M  V30 20161 N 1852.06 1.4581 -0.598108 0
M  V30 20162 C 1852.97 2.34249 0.12834 0
M  V30 20163 C 1853.99 1.50677 0.870202 0
M  V30 20164 O 1855.16 1.83505 0.829924 0
M  V30 20165 C 1852.23 3.28135 1.1193 0
M  V30 20166 C 1851.29 4.27611 0.380432 0
M  V30 20167 C 1850.52 5.17012 1.32419 0
M  V30 20168 O 1850.74 5.09648 2.56154 0
M  V30 20169 O 1849.68 5.962 0.826397 0
M  V30 20170 H 1853.5 2.9775 -0.598199 0
M  V30 20171 H 1851.09 1.45037 -0.358416 0
M  V30 20172 H 1852.97 3.86014 1.6903 0
M  V30 20173 H 1851.65 2.6721 1.82703 0
M  V30 20174 H 1850.55 3.73375 -0.23279 0
M  V30 20175 H 1851.89 4.91365 -0.286627 0
M  V30 20176 N 1853.54 0.336733 1.53961 0
M  V30 20177 C 1854.77 -0.263064 2.04918 0
M  V30 20178 C 1855.18 -1.45301 1.21178 0
M  V30 20179 O 1854.52 -1.82147 0.238356 0
M  V30 20180 C 1854.58 -0.748277 3.51626 0
M  V30 20181 C 1854.24 0.321112 4.5587 0
M  V30 20182 C 1855.24 1.16157 5.06758 0
M  V30 20183 C 1852.93 0.473083 5.00067 0
M  V30 20184 C 1854.92 2.1396 6.00416 0
M  V30 20185 C 1852.61 1.45452 5.93538 0
M  V30 20186 C 1853.61 2.28624 6.43599 0
M  V30 20187 O 1853.29 3.25098 7.35232 0
M  V30 20188 H 1853.03 -0.0558258 0.673691 0
M  V30 20189 H 1855.58 0.484895 1.99594 0
M  V30 20190 H 1853.81 -1.54737 3.54392 0
M  V30 20191 H 1855.5 -1.26787 3.8559 0
M  V30 20192 H 1856.26 1.05521 4.73382 0
M  V30 20193 H 1852.14 -0.164435 4.60707 0
M  V30 20194 H 1855.69 2.78916 6.39415 0
M  V30 20195 H 1851.58 1.56146 6.26329 0
M  V30 20196 H 1852.35 3.2049 7.53146 0
M  V30 20197 N 1855.02 -1.57465 0.0651956 0
M  V30 20198 C 1856.29 -1.84622 -0.646065 0
M  V30 20199 C 1856.67 -0.956374 -1.88193 0
M  V30 20200 O 1856.02 -0.0209666 -2.2849 0
M  V30 20201 C 1856.23 -3.34664 -0.990013 0
M  V30 20202 C 1857.58 -4.02016 -1.36632 0
M  V30 20203 O 1858.6 -3.39371 -1.08194 0
M  V30 20204 O 1857.46 -5.12496 -1.89764 0
M  V30 20205 H 1854.56 -0.762482 -0.320236 0
M  V30 20206 H 1857.1 -1.6943 0.0956254 0
M  V30 20207 H 1855.87 -3.9114 -0.111977 0
M  V30 20208 H 1855.5 -3.55094 -1.78869 0
M  V30 20209 N 1856.49 0.20831 -1.56217 0
M  V30 20210 C 1857.4 1.27891 -1.96675 0
M  V30 20211 C 1858.42 1.50546 -0.87246 0
M  V30 20212 O 1859.6 1.63418 -1.17713 0
M  V30 20213 C 1856.66 2.60598 -2.28669 0
M  V30 20214 C 1855.72 2.4613 -3.51736 0
M  V30 20215 C 1854.95 3.72509 -3.82195 0
M  V30 20216 O 1855.18 4.76105 -3.14133 0
M  V30 20217 O 1854.11 3.68828 -4.75657 0
M  V30 20218 H 1857.94 0.965607 -2.8794 0
M  V30 20219 H 1855.52 0.412249 -1.436 0
M  V30 20220 H 1857.4 3.38949 -2.50383 0
M  V30 20221 H 1856.08 2.91583 -1.40575 0
M  V30 20222 H 1854.99 1.65935 -3.35286 0
M  V30 20223 H 1856.32 2.20082 -4.40255 0
M  V30 20224 N 1857.97 1.50255 0.475528 0
M  V30 20225 C 1859.38 1.53931 1.05651 0
M  V30 20226 C 1859.73 0.340226 1.93228 0
M  V30 20227 O 1858.86 -0.547349 2.09363 0
M  V30 20228 C 1859.45 2.78951 1.92281 0
M  V30 20229 C 1858.01 2.85323 2.45495 0
M  V30 20230 C 1857.16 2.48166 1.2373 0
M  V30 20231 H 1860.11 1.56583 0.258332 0
M  V30 20232 H 1860.13 2.60555 2.77293 0
M  V30 20233 H 1859.64 3.66205 1.28514 0
M  V30 20234 H 1857.74 2.0241 3.12827 0
M  V30 20235 H 1857.86 3.88109 2.80906 0
M  V30 20236 H 1856.22 2.00505 1.57066 0
M  V30 20237 H 1857 3.37722 0.616324 0
M  V30 20238 N 1859.45 -0.728395 1.39758 0
M  V30 20239 C 1860.68 -1.5154 1.40425 0
M  V30 20240 C 1861.09 -1.892 -0.00123953 0
M  V30 20241 O 1860.43 -1.55086 -0.984575 0
M  V30 20242 C 1860.49 -2.8282 2.2193 0
M  V30 20243 C 1860.16 -2.67557 3.70489 0
M  V30 20244 C 1861.15 -2.35665 4.6342 0
M  V30 20245 C 1858.84 -2.84221 4.14154 0
M  V30 20246 C 1860.83 -2.20628 5.97998 0
M  V30 20247 C 1858.52 -2.68803 5.48806 0
M  V30 20248 C 1859.52 -2.37053 6.40543 0
M  V30 20249 O 1859.21 -2.21738 7.72714 0
M  V30 20250 H 1858.94 -0.474672 0.481313 0
M  V30 20251 H 1861.49 -0.907176 1.84281 0
M  V30 20252 H 1859.72 -3.45927 1.72833 0
M  V30 20253 H 1861.41 -3.44472 2.14695 0
M  V30 20254 H 1862.18 -2.22435 4.30985 0
M  V30 20255 H 1858.06 -3.07925 3.43079 0
M  V30 20256 H 1861.6 -1.95768 6.69567 0
M  V30 20257 H 1857.5 -2.81614 5.8083 0
M  V30 20258 H 1858.26 -2.36758 7.8351 0
M  V30 20259 N 1860.93 -1.25042 -0.959279 0
M  V30 20260 C 1862.17 -1.09677 -1.70584 0
M  V30 20261 C 1862.51 0.362184 -1.90793 0
M  V30 20262 O 1861.78 1.26722 -1.47552 0
M  V30 20263 C 1862.06 -1.84646 -3.09157 0
M  V30 20264 C 1861.92 -3.38342 -2.96387 0
M  V30 20265 C 1863.24 -1.62588 -4.08966 0
M  V30 20266 H 1860.36 -0.399817 -0.619125 0
M  V30 20267 H 1863 -1.53816 -1.11537 0
M  V30 20268 H 1861.15 -1.47129 -3.59563 0
M  V30 20269 H 1862.82 -3.85507 -2.53342 0
M  V30 20270 H 1861.06 -3.66291 -2.32408 0
M  V30 20271 H 1861.73 -3.86007 -3.94592 0
M  V30 20272 H 1864.21 -1.9524 -3.67451 0
M  V30 20273 H 1863.09 -2.17488 -5.03975 0
M  V30 20274 H 1863.35 -0.566103 -4.38461 0
M  V30 20275 N 1862.41 1.16121 -1.06553 0
M  V30 20276 C 1863.34 2.22761 -0.699976 0
M  V30 20277 C 1864.32 1.67274 0.308783 0
M  V30 20278 O 1865.5 1.93333 0.183328 0
M  V30 20279 C 1862.63 3.47187 -0.0884044 0
M  V30 20280 C 1861.59 4.15584 -1.02343 0
M  V30 20281 C 1860.91 5.33992 -0.275022 0
M  V30 20282 C 1862.21 4.66266 -2.35358 0
M  V30 20283 H 1863.91 2.53595 -1.59153 0
M  V30 20284 H 1861.45 1.21893 -0.766686 0
M  V30 20285 H 1863.41 4.21019 0.17922 0
M  V30 20286 H 1862.13 3.15661 0.838181 0
M  V30 20287 H 1860.79 3.43683 -1.27584 0
M  V30 20288 H 1860.44 4.9872 0.654765 0
M  V30 20289 H 1860.14 5.80695 -0.898181 0
M  V30 20290 H 1861.66 6.10598 -0.0150056 0
M  V30 20291 H 1863.07 5.31665 -2.14488 0
M  V30 20292 H 1861.47 5.236 -2.93195 0
M  V30 20293 H 1862.54 3.82335 -2.98241 0
M  V30 20294 N 1863.88 0.848487 1.3281 0
M  V30 20295 C 1864.81 0.303885 2.31514 0
M  V30 20296 C 1865.8 -0.593621 1.59406 0
M  V30 20297 O 1866.98 -0.515158 1.87243 0
M  V30 20298 C 1864.11 -0.5138 3.43478 0
M  V30 20299 C 1863.06 0.28874 4.27025 0
M  V30 20300 C 1862.39 -0.653297 5.30694 0
M  V30 20301 C 1863.69 1.51111 4.99963 0
M  V30 20302 H 1865.38 1.12862 2.77313 0
M  V30 20303 H 1862.93 0.544158 1.33323 0
M  V30 20304 H 1864.88 -0.905164 4.11564 0
M  V30 20305 H 1863.61 -1.37184 2.96392 0
M  V30 20306 H 1862.27 0.661782 3.60577 0
M  V30 20307 H 1861.91 -1.50801 4.79863 0
M  V30 20308 H 1861.61 -0.120368 5.87477 0
M  V30 20309 H 1863.14 -1.04197 6.01644 0
M  V30 20310 H 1864.55 1.19237 5.60763 0
M  V30 20311 H 1862.95 1.98152 5.66441 0
M  V30 20312 H 1864.02 2.2757 4.28182 0
M  V30 20313 N 1865.36 -1.4549 0.605832 0
M  V30 20314 C 1866.29 -2.28694 -0.152145 0
M  V30 20315 C 1867.31 -1.3985 -0.833422 0
M  V30 20316 O 1868.5 -1.6424 -0.699105 0
M  V30 20317 C 1865.6 -3.15544 -1.23634 0
M  V30 20318 C 1864.77 -4.32655 -0.642525 0
M  V30 20319 C 1863.83 -5.00726 -1.61739 0
M  V30 20320 O 1862.85 -5.57577 -1.14438 0
M  V30 20321 N 1864.06 -4.9985 -2.95178 0
M  V30 20322 H 1866.82 -2.94387 0.561801 0
M  V30 20323 H 1864.38 -1.55659 0.445195 0
M  V30 20324 H 1866.37 -3.57947 -1.88828 0
M  V30 20325 H 1864.94 -2.51771 -1.85284 0
M  V30 20326 H 1864.16 -3.93754 0.187451 0
M  V30 20327 H 1865.45 -5.08298 -0.225985 0
M  V30 20328 H 1864.85 -4.54949 -3.36211 0
M  V30 20329 H 1863.41 -5.46123 -3.558 0
M  V30 20330 N 1866.84 -0.344893 -1.5378 0
M  V30 20331 C 1867.79 0.526591 -2.26561 0
M  V30 20332 C 1868.78 1.10083 -1.28756 0
M  V30 20333 O 1869.99 1.04641 -1.46459 0
M  V30 20334 H 1866.36 0.188505 -0.72799 0
M  V30 20335 H 1868.33 -0.109269 -2.982 0
M  V30 20336 C 1867.08 1.66505 -3.0524 0
M  V30 20337 H 1866.41 1.23246 -3.80329 0
M  V30 20338 H 1867.85 2.24998 -3.59377 0
M  V30 20339 C 1866.31 2.59527 -2.14819 0
M  V30 20340 O 1866.84 3.6181 -1.74517 0
M  V30 20341 N 1865.04 2.28243 -1.79871 0
M  V30 20342 H 1864.59 1.45106 -2.12843 0
M  V30 20343 H 1864.55 2.90741 -1.19654 0
M  V30 20344 N 1868.32 1.57428 -0.0735454 0
M  V30 20345 C 1869.27 2.12821 0.893071 0
M  V30 20346 C 1870.24 1.04117 1.29418 0
M  V30 20347 O 1871.42 1.31789 1.37972 0
M  V30 20348 C 1868.56 2.69569 2.15468 0
M  V30 20349 C 1867.67 3.92436 1.80605 0
M  V30 20350 C 1866.81 4.37421 3.01391 0
M  V30 20351 C 1865.85 5.52931 2.62553 0
M  V30 20352 N 1864.98 5.92866 3.76104 0
M  V30 20353 H 1869.82 2.95113 0.413823 0
M  V30 20354 H 1867.36 1.45834 0.192613 0
M  V30 20355 H 1869.32 3.0058 2.89323 0
M  V30 20356 H 1867.95 1.9004 2.6093 0
M  V30 20357 H 1867 3.67876 0.968068 0
M  V30 20358 H 1868.31 4.76327 1.48033 0
M  V30 20359 H 1867.47 4.70102 3.83522 0
M  V30 20360 H 1866.21 3.52386 3.37158 0
M  V30 20361 H 1865.21 5.19899 1.78844 0
M  V30 20362 H 1866.44 6.39698 2.27954 0
M  V30 20363 H 1864.38 5.10781 4.11629 0
M  V30 20364 H 1864.3 6.71502 3.47305 0
M  V30 20365 H 1865.57 6.30171 4.58808 0
M  V30 20366 N 1869.8 -0.200022 1.56326 0
M  V30 20367 C 1870.71 -1.26847 1.9735 0
M  V30 20368 C 1871.72 -1.50081 0.880432 0
M  V30 20369 O 1872.9 -1.62792 1.18578 0
M  V30 20370 C 1869.96 -2.59382 2.30048 0
M  V30 20371 C 1869.02 -2.44262 3.53036 0
M  V30 20372 C 1868.26 -3.70476 3.84165 0
M  V30 20373 O 1868.48 -4.74433 3.16654 0
M  V30 20374 O 1867.41 -3.663 4.77606 0
M  V30 20375 H 1871.24 -0.950324 2.88449 0
M  V30 20376 H 1868.83 -0.404628 1.43816 0
M  V30 20377 H 1870.71 -3.37616 2.52177 0
M  V30 20378 H 1869.38 -2.90833 1.42119 0
M  V30 20379 H 1868.29 -1.64154 3.36161 0
M  V30 20380 H 1869.62 -2.17744 4.41416 0
M  V30 20381 N 1871.27 -1.50505 -0.467553 0
M  V30 20382 C 1872.5 -1.65708 -1.24722 0
M  V30 20383 C 1872.92 -0.34155 -1.84973 0
M  V30 20384 O 1872.28 0.694993 -1.6745 0
M  V30 20385 C 1872.33 -2.75289 -2.32912 0
M  V30 20386 O 1871.43 -2.36788 -3.37646 0
M  V30 20387 H 1870.78 -0.55351 -0.366774 0
M  V30 20388 H 1873.31 -1.96901 -0.555988 0
M  V30 20389 H 1873.32 -2.98472 -2.7817 0
M  V30 20390 H 1871.99 -3.70765 -1.88431 0
M  V30 20391 H 1870.57 -2.24065 -2.98076 0
M  V30 20392 N 1872.75 0.720973 -1.40142 0
M  V30 20393 C 1873.68 1.84799 -1.42729 0
M  V30 20394 C 1874.66 1.67629 -0.288866 0
M  V30 20395 O 1875.85 1.8774 -0.496713 0
M  V30 20396 C 1872.98 3.22699 -1.28385 0
M  V30 20397 C 1871.93 3.54532 -2.39773 0
M  V30 20398 C 1871.26 4.91518 -2.10509 0
M  V30 20399 C 1872.56 3.56077 -3.82108 0
M  V30 20400 H 1874.25 1.82892 -2.37046 0
M  V30 20401 H 1871.8 0.8785 -1.14098 0
M  V30 20402 H 1873.75 4.0123 -1.28812 0
M  V30 20403 H 1872.48 3.25169 -0.305408 0
M  V30 20404 H 1871.13 2.78338 -2.38586 0
M  V30 20405 H 1870.78 4.90584 -1.11069 0
M  V30 20406 H 1870.48 5.13783 -2.85132 0
M  V30 20407 H 1872.01 5.72389 -2.1261 0
M  V30 20408 H 1873.42 4.24657 -3.85148 0
M  V30 20409 H 1871.82 3.89866 -4.56207 0
M  V30 20410 H 1872.89 2.55576 -4.12079 0
M  V30 20411 N 1874.23 1.25549 0.952634 0
M  V30 20412 C 1875.48 1.10416 1.69748 0
M  V30 20413 C 1875.81 -0.354517 1.91242 0
M  V30 20414 O 1875.06 -1.27756 1.48246 0
M  V30 20415 C 1875.36 1.80586 3.08421 0
M  V30 20416 C 1875.03 3.30504 3.06721 0
M  V30 20417 C 1873.69 3.71402 3.05965 0
M  V30 20418 C 1876.04 4.26275 2.99898 0
M  V30 20419 C 1873.37 5.06478 2.96137 0
M  V30 20420 C 1875.72 5.61378 2.91612 0
M  V30 20421 C 1874.38 6.01601 2.89192 0
M  V30 20422 H 1873.65 0.404041 0.621154 0
M  V30 20423 H 1876.3 1.55848 1.11283 0
M  V30 20424 H 1874.61 1.27592 3.70442 0
M  V30 20425 H 1876.3 1.66328 3.64878 0
M  V30 20426 H 1872.89 2.97965 3.08083 0
M  V30 20427 H 1877.08 3.95669 2.996 0
M  V30 20428 H 1872.33 5.3682 2.92633 0
M  V30 20429 H 1876.51 6.3528 2.85294 0
M  V30 20430 H 1874.13 7.06227 2.81333 0
M  V30 20431 N 1875.71 -1.15554 1.07168 0
M  V30 20432 C 1876.94 -1.89906 0.813588 0
M  V30 20433 C 1877.35 -1.78164 -0.636732 0
M  V30 20434 O 1876.69 -1.13 -1.44833 0
M  V30 20435 C 1876.75 -3.40937 1.14028 0
M  V30 20436 C 1876.42 -3.76465 2.59082 0
M  V30 20437 C 1877.41 -3.77643 3.57326 0
M  V30 20438 C 1875.1 -4.06829 2.94611 0
M  V30 20439 C 1877.09 -4.08688 4.89134 0
M  V30 20440 C 1874.78 -4.37539 4.26618 0
M  V30 20441 C 1875.78 -4.3845 5.23689 0
M  V30 20442 O 1875.46 -4.68425 6.53325 0
M  V30 20443 H 1875.2 -0.608773 0.293891 0
M  V30 20444 H 1877.75 -1.4735 1.43098 0
M  V30 20445 H 1875.98 -3.83884 0.465848 0
M  V30 20446 H 1877.67 -3.96575 0.865029 0
M  V30 20447 H 1878.44 -3.54286 3.31219 0
M  V30 20448 H 1874.31 -4.05279 2.19704 0
M  V30 20449 H 1877.86 -4.09315 5.64896 0
M  V30 20450 H 1873.76 -4.60363 4.52478 0
M  V30 20451 H 1874.52 -4.86198 6.58448 0
M  V30 20452 N 1877.19 -0.855519 -1.32358 0
M  V30 20453 C 1878.13 -0.298777 -2.28858 0
M  V30 20454 C 1879.1 0.594728 -1.55088 0
M  V30 20455 O 1880.29 0.529455 -1.83307 0
M  V30 20456 C 1877.43 0.506096 -3.41369 0
M  V30 20457 C 1876.54 -0.413297 -4.30018 0
M  V30 20458 C 1875.68 0.404292 -5.29659 0
M  V30 20459 C 1874.72 -0.512444 -6.09951 0
M  V30 20460 N 1873.85 0.268017 -7.01588 0
M  V30 20461 H 1878.69 -1.12694 -2.7587 0
M  V30 20462 H 1876.23 -0.567162 -1.35726 0
M  V30 20463 H 1878.19 0.988384 -4.05323 0
M  V30 20464 H 1876.82 1.29908 -2.95506 0
M  V30 20465 H 1875.87 -1.01398 -3.66637 0
M  V30 20466 H 1877.18 -1.11683 -4.86136 0
M  V30 20467 H 1876.34 0.949707 -5.99221 0
M  V30 20468 H 1875.08 1.14118 -4.74161 0
M  V30 20469 H 1874.08 -1.06974 -5.39293 0
M  V30 20470 H 1875.31 -1.24796 -6.67535 0
M  V30 20471 H 1873.25 0.987986 -6.48517 0
M  V30 20472 H 1873.17 -0.376462 -7.55062 0
M  V30 20473 H 1874.44 0.79513 -7.75434 0
M  V30 20474 N 1878.67 1.45167 -0.61354 0
M  V30 20475 C 1879.6 2.27701 0.150791 0
M  V30 20476 C 1880.58 1.37493 0.868012 0
M  V30 20477 O 1881.76 1.66926 0.875677 0
M  V30 20478 C 1878.89 3.16008 1.21887 0
M  V30 20479 C 1877.93 4.222 0.604131 0
M  V30 20480 S 1878.77 5.32212 -0.592512 0
M  V30 20481 C 1879.92 6.24087 0.476016 0
M  V30 20482 H 1880.16 2.92179 -0.549425 0
M  V30 20483 H 1877.69 1.49096 -0.401218 0
M  V30 20484 H 1879.65 3.67441 1.83022 0
M  V30 20485 H 1878.31 2.50784 1.89119 0
M  V30 20486 H 1877.5 4.83934 1.40797 0
M  V30 20487 H 1877.1 3.73939 0.0677896 0
M  V30 20488 H 1879.39 6.63843 1.35346 0
M  V30 20489 H 1880.34 7.08022 -0.105315 0
M  V30 20490 H 1880.75 5.58888 0.794018 0
M  V30 20491 N 1880.14 0.353044 1.53595 0
M  V30 20492 C 1881.39 -0.240904 2.01364 0
M  V30 20493 C 1881.72 -1.49438 1.24023 0
M  V30 20494 O 1881 -1.91672 0.330451 0
M  V30 20495 C 1881.28 -0.545497 3.55944 0
M  V30 20496 C 1881.13 0.720742 4.43988 0
M  V30 20497 C 1882.45 -1.35124 4.18843 0
M  V30 20498 H 1879.57 -0.0860838 0.731955 0
M  V30 20499 H 1882.21 0.475459 1.83955 0
M  V30 20500 H 1880.36 -1.15578 3.7091 0
M  V30 20501 H 1882.04 1.35852 4.40842 0
M  V30 20502 H 1880.28 1.34369 4.12465 0
M  V30 20503 H 1880.95 0.462749 5.50057 0
M  V30 20504 H 1883.43 -0.835104 4.07634 0
M  V30 20505 H 1882.3 -1.53311 5.27055 0
M  V30 20506 H 1882.56 -2.35612 3.74085 0
M  V30 20507 N 1881.62 -1.57387 0.0818932 0
M  V30 20508 C 1882.55 -2.10294 -0.911539 0
M  V30 20509 C 1883.57 -1.03726 -1.25478 0
M  V30 20510 O 1884.76 -1.31212 -1.2102 0
M  V30 20511 C 1881.86 -2.55676 -2.22448 0
M  V30 20512 C 1881.03 -3.8593 -2.05857 0
M  V30 20513 C 1880.09 -4.17297 -3.20545 0
M  V30 20514 O 1879.11 -4.86734 -2.9509 0
M  V30 20515 N 1880.32 -3.71647 -4.45936 0
M  V30 20516 H 1883.08 -2.96153 -0.459757 0
M  V30 20517 H 1880.64 -1.61568 -0.103568 0
M  V30 20518 H 1882.63 -2.73715 -2.98098 0
M  V30 20519 H 1881.2 -1.749 -2.59092 0
M  V30 20520 H 1880.42 -3.7717 -1.14615 0
M  V30 20521 H 1881.71 -4.71169 -1.92034 0
M  V30 20522 H 1881.11 -3.15571 -4.69501 0
M  V30 20523 H 1879.67 -3.94866 -5.18579 0
M  V30 20524 N 1883.1 0.191729 -1.56429 0
M  V30 20525 C 1884.03 1.26174 -1.91345 0
M  V30 20526 C 1885.04 1.41536 -0.804451 0
M  V30 20527 O 1886.23 1.41902 -1.08287 0
M  V30 20528 C 1883.33 2.63341 -2.13319 0
M  V30 20529 C 1882.51 2.69543 -3.44479 0
M  V30 20530 C 1881.57 3.87929 -3.55524 0
M  V30 20531 O 1880.59 3.74875 -4.28319 0
M  V30 20532 N 1881.79 5.03527 -2.88861 0
M  V30 20533 H 1884.56 0.965364 -2.83727 0
M  V30 20534 H 1882.12 0.381628 -1.57338 0
M  V30 20535 H 1884.11 3.40971 -2.17993 0
M  V30 20536 H 1882.68 2.85452 -1.2742 0
M  V30 20537 H 1881.9 1.78161 -3.51642 0
M  V30 20538 H 1883.19 2.7068 -4.30824 0
M  V30 20539 H 1882.59 5.17032 -2.29553 0
M  V30 20540 H 1881.14 5.79092 -2.99159 0
M  V30 20541 N 1884.58 1.50751 0.459565 0
M  V30 20542 C 1885.51 1.73389 1.56392 0
M  V30 20543 C 1886.49 0.583101 1.59793 0
M  V30 20544 O 1887.67 0.823474 1.75876 0
M  V30 20545 C 1884.8 1.83861 2.94639 0
M  V30 20546 C 1883.76 2.9914 3.06103 0
M  V30 20547 C 1883.08 2.94768 4.46112 0
M  V30 20548 C 1884.38 4.39471 2.82246 0
M  V30 20549 H 1886.08 2.65856 1.37699 0
M  V30 20550 H 1883.62 1.27933 0.661001 0
M  V30 20551 H 1885.58 1.98283 3.71836 0
M  V30 20552 H 1884.3 0.880254 3.14514 0
M  V30 20553 H 1882.96 2.84388 2.31342 0
M  V30 20554 H 1882.61 1.96755 4.62922 0
M  V30 20555 H 1882.31 3.72166 4.54716 0
M  V30 20556 H 1883.83 3.11254 5.25313 0
M  V30 20557 H 1885.25 4.54689 3.49186 0
M  V30 20558 H 1883.64 5.18406 3.02283 0
M  V30 20559 H 1884.71 4.51043 1.78012 0
M  V30 20560 N 1886.06 -0.713531 1.40522 0
M  V30 20561 C 1887.3 -1.47052 1.38637 0
M  V30 20562 C 1887.62 -1.94998 -0.00984474 0
M  V30 20563 O 1886.89 -1.70486 -0.964959 0
M  V30 20564 H 1885.47 -0.545577 0.51025 0
M  V30 20565 H 1888.14 -0.84572 1.75595 0
M  V30 20566 H 1887.23 -2.34237 2.06251 0
M  V30 20567 N 1887.53 -1.26053 -0.945962 0
M  V30 20568 C 1888.48 -1.07194 -2.04397 0
M  V30 20569 C 1889.45 0.0215796 -1.66086 0
M  V30 20570 O 1890.64 -0.137272 -1.90306 0
M  V30 20571 C 1887.78 -0.705915 -3.37803 0
M  V30 20572 C 1886.89 -1.87519 -3.89179 0
M  V30 20573 C 1886.02 -1.45272 -5.1095 0
M  V30 20574 C 1885.06 -2.59059 -5.54576 0
M  V30 20575 N 1884.2 -2.17527 -6.67552 0
M  V30 20576 H 1889.04 -2.01159 -2.19861 0
M  V30 20577 H 1886.58 -1.00162 -1.07731 0
M  V30 20578 H 1888.53 -0.474611 -4.14492 0
M  V30 20579 H 1887.16 0.196761 -3.222 0
M  V30 20580 H 1886.22 -2.21956 -3.08933 0
M  V30 20581 H 1887.53 -2.7294 -4.17499 0
M  V30 20582 H 1886.68 -1.18158 -5.95083 0
M  V30 20583 H 1885.42 -0.569345 -4.84365 0
M  V30 20584 H 1884.43 -2.86908 -4.69003 0
M  V30 20585 H 1885.65 -3.47989 -5.83164 0
M  V30 20586 H 1883.6 -1.31618 -6.42661 0
M  V30 20587 H 1883.51 -2.96493 -6.95433 0
M  V30 20588 H 1884.78 -1.93612 -7.55073 0
M  V30 20589 N 1889.01 1.14984 -1.07779 0
M  V30 20590 C 1889.97 2.1806 -0.705879 0
M  V30 20591 C 1890.97 1.58748 0.256082 0
M  V30 20592 O 1892.16 1.74162 0.0364678 0
M  V30 20593 C 1889.3 3.40875 -0.0411253 0
M  V30 20594 H 1890.49 2.52476 -1.61852 0
M  V30 20595 H 1888.04 1.29522 -0.874863 0
M  V30 20596 H 1888.78 3.12032 0.883548 0
M  V30 20597 H 1888.56 3.85186 -0.73306 0
M  V30 20598 H 1890.05 4.171 0.204275 0
M  V30 20599 N 1890.49 0.862526 1.31902 0
M  V30 20600 C 1891.4 0.316029 2.32462 0
M  V30 20601 C 1892.42 -0.570217 1.64391 0
M  V30 20602 O 1893.59 -0.46871 1.9587 0
M  V30 20603 C 1890.66 -0.479949 3.43362 0
M  V30 20604 C 1889.72 0.43337 4.27107 0
M  V30 20605 C 1888.95 -0.324714 5.32711 0
M  V30 20606 O 1889.17 -1.55373 5.48831 0
M  V30 20607 O 1888.11 0.313571 6.01083 0
M  V30 20608 H 1891.93 1.14935 2.81111 0
M  V30 20609 H 1889.52 0.625683 1.35667 0
M  V30 20610 H 1891.4 -0.931458 4.10977 0
M  V30 20611 H 1890.08 -1.28994 2.96888 0
M  V30 20612 H 1888.98 0.933222 3.62273 0
M  V30 20613 H 1890.32 1.20876 4.77127 0
M  V30 20614 N 1891.97 -1.4484 0.62123 0
M  V30 20615 C 1892.93 -2.29061 -0.0797989 0
M  V30 20616 C 1893.93 -1.40508 -0.781932 0
M  V30 20617 O 1895.12 -1.62485 -0.628023 0
M  V30 20618 C 1892.25 -3.21857 -1.12342 0
M  V30 20619 H 1893.45 -2.92528 0.66084 0
M  V30 20620 H 1891 -1.51588 0.3809 0
M  V30 20621 H 1891.73 -2.63218 -1.89437 0
M  V30 20622 H 1891.52 -3.87103 -0.624003 0
M  V30 20623 H 1893.01 -3.8515 -1.61398 0
M  V30 20624 N 1893.45 -0.361184 -1.53405 0
M  V30 20625 C 1894.41 0.475026 -2.24223 0
M  V30 20626 C 1895.41 1.01331 -1.24855 0
M  V30 20627 O 1896.6 0.899756 -1.49164 0
M  V30 20628 C 1893.73 1.6635 -2.97557 0
M  V30 20629 H 1894.92 -0.144595 -2.99551 0
M  V30 20630 H 1892.48 -0.112802 -1.55892 0
M  V30 20631 H 1893.21 2.32133 -2.26461 0
M  V30 20632 H 1893 1.28454 -3.70462 0
M  V30 20633 H 1894.49 2.2562 -3.51405 0
M  V30 20634 N 1894.92 1.57341 -0.0902386 0
M  V30 20635 C 1895.89 2.12619 0.855916 0
M  V30 20636 C 1896.89 1.05434 1.2141 0
M  V30 20637 O 1898.08 1.31342 1.14433 0
M  V30 20638 C 1895.21 2.64277 2.15338 0
M  V30 20639 H 1896.4 2.97533 0.376014 0
M  V30 20640 H 1893.96 1.55492 0.1587 0
M  V30 20641 H 1894.69 1.82869 2.67824 0
M  V30 20642 H 1894.48 3.4264 1.9063 0
M  V30 20643 H 1895.97 3.07055 2.83032 0
M  V30 20644 N 1896.4 -0.183431 1.56529 0
M  V30 20645 C 1897.33 -1.22973 1.98494 0
M  V30 20646 C 1898.31 -1.46837 0.858653 0
M  V30 20647 O 1899.5 -1.58377 1.12385 0
M  V30 20648 C 1896.63 -2.57138 2.33446 0
M  V30 20649 C 1895.58 -2.47865 3.48922 0
M  V30 20650 C 1894.91 -3.8641 3.69582 0
M  V30 20651 C 1896.21 -1.99371 4.82751 0
M  V30 20652 H 1897.9 -0.880938 2.86147 0
M  V30 20653 H 1895.45 -0.422321 1.37668 0
M  V30 20654 H 1897.4 -3.30527 2.614 0
M  V30 20655 H 1896.13 -2.93781 1.42689 0
M  V30 20656 H 1894.78 -1.76932 3.21077 0
M  V30 20657 H 1894.43 -4.20426 2.76136 0
M  V30 20658 H 1894.13 -3.81077 4.47274 0
M  V30 20659 H 1895.66 -4.61403 3.99924 0
M  V30 20660 H 1897.07 -2.62526 5.0966 0
M  V30 20661 H 1895.47 -2.05014 5.63994 0
M  V30 20662 H 1896.54 -0.947442 4.75554 0
M  V30 20663 N 1897.88 -1.50992 -0.451564 0
M  V30 20664 C 1899.11 -1.66741 -1.22495 0
M  V30 20665 C 1899.52 -0.358787 -1.8536 0
M  V30 20666 O 1898.88 0.661312 -1.70097 0
M  V30 20667 C 1898.93 -2.77281 -2.31943 0
M  V30 20668 O 1898.65 -4.03072 -1.71652 0
M  V30 20669 C 1900.15 -3.04175 -3.22479 0
M  V30 20670 H 1897.37 -0.55994 -0.369741 0
M  V30 20671 H 1899.92 -1.97329 -0.536785 0
M  V30 20672 H 1898.07 -2.49332 -2.965 0
M  V30 20673 H 1898.49 -4.64354 -2.43875 0
M  V30 20674 H 1899.96 -3.85137 -3.95441 0
M  V30 20675 H 1900.44 -2.16015 -3.82406 0
M  V30 20676 H 1901.04 -3.33729 -2.63638 0
M  V30 20677 N 1899.36 0.706069 -1.40899 0
M  V30 20678 C 1900.27 1.85007 -1.44255 0
M  V30 20679 C 1901.28 1.70761 -0.334174 0
M  V30 20680 O 1902.46 1.9286 -0.580258 0
M  V30 20681 C 1899.53 3.20896 -1.31251 0
M  V30 20682 C 1898.59 3.47327 -2.52314 0
M  V30 20683 C 1897.82 4.76732 -2.39922 0
M  V30 20684 O 1898.04 5.5249 -1.41813 0
M  V30 20685 O 1896.98 5.03713 -3.2948 0
M  V30 20686 H 1900.8 1.85132 -2.40748 0
M  V30 20687 H 1898.39 0.857751 -1.22323 0
M  V30 20688 H 1900.27 4.02045 -1.26244 0
M  V30 20689 H 1898.94 3.21477 -0.378684 0
M  V30 20690 H 1897.85 2.66149 -2.62899 0
M  V30 20691 H 1899.18 3.5155 -3.4449 0
M  V30 20692 N 1900.84 1.26553 0.939264 0
M  V30 20693 C 1902.06 1.14993 1.72001 0
M  V30 20694 C 1902.48 -0.29462 1.86487 0
M  V30 20695 O 1901.84 -1.20158 1.37362 0
M  V30 20696 C 1901.89 1.81598 3.12577 0
M  V30 20697 O 1901.61 3.20408 2.98781 0
M  V30 20698 C 1903.11 1.76017 4.06858 0
M  V30 20699 H 1900.33 0.400347 0.538482 0
M  V30 20700 H 1902.87 1.67209 1.17735 0
M  V30 20701 H 1901.03 1.33316 3.63739 0
M  V30 20702 H 1901.44 3.53397 3.8757 0
M  V30 20703 H 1902.92 2.27255 5.0305 0
M  V30 20704 H 1903.39 0.727075 4.3314 0
M  V30 20705 H 1904 2.2386 3.61617 0
M  V30 20706 N 1902.31 -1.14411 1.08387 0
M  V30 20707 C 1903.28 -2.17682 0.717433 0
M  V30 20708 C 1904.28 -1.58881 -0.24766 0
M  V30 20709 O 1905.47 -1.74179 -0.027231 0
M  V30 20710 C 1902.6 -3.40849 0.0592022 0
M  V30 20711 H 1903.79 -2.51614 1.63188 0
M  V30 20712 H 1901.35 -1.29056 0.88172 0
M  V30 20713 H 1902.08 -3.12496 -0.866987 0
M  V30 20714 H 1901.87 -3.84792 0.753477 0
M  V30 20715 H 1903.36 -4.17203 -0.182152 0
M  V30 20716 N 1903.79 -0.869509 -1.31443 0
M  V30 20717 C 1904.74 -0.323034 -2.28528 0
M  V30 20718 C 1905.71 0.578245 -1.5571 0
M  V30 20719 O 1906.89 0.509983 -1.83858 0
M  V30 20720 C 1904.03 0.469861 -3.41886 0
M  V30 20721 C 1903.15 -0.458883 -4.29556 0
M  V30 20722 C 1902.28 0.348092 -5.30058 0
M  V30 20723 C 1901.32 -0.577109 -6.09373 0
M  V30 20724 N 1900.46 0.193589 -7.01833 0
M  V30 20725 H 1905.3 -1.15614 -2.74659 0
M  V30 20726 H 1902.84 -0.581526 -1.35117 0
M  V30 20727 H 1904.79 0.945338 -4.06349 0
M  V30 20728 H 1903.42 1.26767 -2.96867 0
M  V30 20729 H 1902.48 -1.05281 -3.65541 0
M  V30 20730 H 1903.79 -1.16833 -4.84924 0
M  V30 20731 H 1902.94 0.886098 -6.00194 0
M  V30 20732 H 1901.68 1.09083 -4.75344 0
M  V30 20733 H 1900.69 -1.12687 -5.38128 0
M  V30 20734 H 1901.91 -1.31869 -6.66174 0
M  V30 20735 H 1899.86 0.919147 -6.49529 0
M  V30 20736 H 1899.77 -0.456525 -7.5462 0
M  V30 20737 H 1901.04 0.71284 -7.76234 0
M  V30 20738 N 1905.27 1.44508 -0.628902 0
M  V30 20739 C 1906.2 2.28908 0.115743 0
M  V30 20740 C 1907.22 1.41158 0.811067 0
M  V30 20741 O 1908.4 1.65331 0.672887 0
M  V30 20742 C 1905.5 3.17471 1.18599 0
M  V30 20743 C 1904.68 4.33622 0.573612 0
M  V30 20744 C 1903.74 5.03236 1.53752 0
M  V30 20745 O 1902.76 5.59328 1.05553 0
M  V30 20746 N 1903.96 5.04483 2.87189 0
M  V30 20747 H 1906.73 2.93456 -0.608565 0
M  V30 20748 H 1904.29 1.54931 -0.469902 0
M  V30 20749 H 1906.28 3.60906 1.8311 0
M  V30 20750 H 1904.85 2.54687 1.81255 0
M  V30 20751 H 1904.07 3.93406 -0.25007 0
M  V30 20752 H 1905.36 5.08593 0.14509 0
M  V30 20753 H 1904.76 4.6024 3.28931 0
M  V30 20754 H 1903.32 5.51714 3.47066 0
M  V30 20755 N 1906.75 0.369315 1.53212 0
M  V30 20756 C 1908 -0.219533 2.01608 0
M  V30 20757 C 1908.33 -1.48115 1.25601 0
M  V30 20758 O 1907.6 -1.91311 0.350762 0
M  V30 20759 C 1907.89 -0.507713 3.56503 0
M  V30 20760 C 1907.74 0.767792 4.43199 0
M  V30 20761 C 1909.06 -1.30674 4.20253 0
M  V30 20762 H 1906.18 -0.0783156 0.732827 0
M  V30 20763 H 1908.82 0.494943 1.8344 0
M  V30 20764 H 1906.97 -1.11637 3.72115 0
M  V30 20765 H 1908.64 1.4052 4.39377 0
M  V30 20766 H 1906.88 1.38737 4.11017 0
M  V30 20767 H 1907.56 0.521063 5.49535 0
M  V30 20768 H 1910.03 -0.791822 4.08497 0
M  V30 20769 H 1908.91 -1.47712 5.28652 0
M  V30 20770 H 1909.17 -2.31631 3.76562 0
M  V30 20771 N 1908.23 -1.57291 0.0985816 0
M  V30 20772 C 1909.46 -1.98531 -0.57176 0
M  V30 20773 C 1909.87 -0.976619 -1.62046 0
M  V30 20774 O 1909.21 0.041533 -1.83653 0
M  V30 20775 C 1909.27 -3.36149 -1.27452 0
M  V30 20776 C 1908.93 -4.55449 -0.376176 0
M  V30 20777 C 1909.93 -5.18531 0.377078 0
M  V30 20778 C 1907.62 -5.01443 -0.293213 0
M  V30 20779 C 1909.61 -6.25978 1.20124 0
M  V30 20780 C 1907.3 -6.08757 0.534594 0
M  V30 20781 C 1908.3 -6.7089 1.28047 0
M  V30 20782 O 1907.98 -7.76133 2.09457 0
M  V30 20783 H 1907.72 -0.657356 -0.15767 0
M  V30 20784 H 1910.27 -2.04648 0.175593 0
M  V30 20785 H 1908.5 -3.26725 -2.06852 0
M  V30 20786 H 1910.19 -3.61813 -1.83974 0
M  V30 20787 H 1910.95 -4.83925 0.322736 0
M  V30 20788 H 1906.83 -4.52842 -0.863429 0
M  V30 20789 H 1910.38 -6.74405 1.7839 0
M  V30 20790 H 1906.27 -6.42794 0.590404 0
M  V30 20791 H 1907.04 -7.93137 2.02177 0
M  V30 20792 N 1909.71 0.175127 -1.56624 0
M  V30 20793 C 1910.95 0.892368 -1.81777 0
M  V30 20794 C 1911.28 1.8241 -0.675051 0
M  V30 20795 O 1910.54 1.9276 0.337944 0
M  V30 20796 C 1910.83 1.72397 -3.13072 0
M  V30 20797 C 1910.5 0.941494 -4.40961 0
M  V30 20798 C 1909.16 0.725524 -4.75699 0
M  V30 20799 C 1911.51 0.392358 -5.19721 0
M  V30 20800 C 1908.84 -0.0507428 -5.86678 0
M  V30 20801 C 1911.19 -0.370801 -6.31512 0
M  V30 20802 C 1909.86 -0.597606 -6.64819 0
M  V30 20803 H 1909.13 0.326541 -0.665171 0
M  V30 20804 H 1911.78 0.157524 -1.90851 0
M  V30 20805 H 1910.08 2.52809 -2.99324 0
M  V30 20806 H 1911.78 2.28189 -3.29743 0
M  V30 20807 H 1908.37 1.11986 -4.13711 0
M  V30 20808 H 1912.55 0.546561 -4.93281 0
M  V30 20809 H 1907.81 -0.236241 -6.10943 0
M  V30 20810 H 1911.98 -0.803585 -6.91748 0
M  V30 20811 H 1909.61 -1.201 -7.50653 0
M  V30 20812 N 1911.18 1.5123 0.44355 0
M  V30 20813 C 1912.13 1.72095 1.53792 0
M  V30 20814 C 1913.1 0.562529 1.56284 0
M  V30 20815 O 1914.29 0.796259 1.73391 0
M  V30 20816 C 1911.43 1.84627 2.9156 0
M  V30 20817 C 1910.54 3.12147 2.98644 0
M  V30 20818 C 1909.67 3.1531 4.27496 0
M  V30 20819 C 1908.71 4.37171 4.28425 0
M  V30 20820 N 1907.85 4.37919 5.48791 0
M  V30 20821 H 1912.69 2.65512 1.35304 0
M  V30 20822 H 1910.23 1.31593 0.657387 0
M  V30 20823 H 1912.18 1.89874 3.71488 0
M  V30 20824 H 1910.81 0.946232 3.0862 0
M  V30 20825 H 1909.87 3.16239 2.11417 0
M  V30 20826 H 1911.18 4.02074 2.95192 0
M  V30 20827 H 1910.33 3.19439 5.15794 0
M  V30 20828 H 1909.07 2.23261 4.33596 0
M  V30 20829 H 1908.08 4.33225 3.38521 0
M  V30 20830 H 1909.3 5.30477 4.23994 0
M  V30 20831 H 1907.25 3.48737 5.55624 0
M  V30 20832 H 1907.16 5.21647 5.47193 0
M  V30 20833 H 1908.43 4.46232 6.39138 0
M  V30 20834 N 1912.66 -0.698586 1.41271 0
M  V30 20835 C 1914.08 -1.0088 1.23674 0
M  V30 20836 C 1914.28 -2.01118 0.123961 0
M  V30 20837 O 1913.33 -2.47242 -0.512628 0
M  V30 20838 C 1914.65 -1.53629 2.58493 0
M  V30 20839 C 1916.19 -1.65528 2.65649 0
M  V30 20840 C 1916.67 -2.21679 4.00777 0
M  V30 20841 N 1918.16 -2.29044 4.02608 0
M  V30 20842 C 1918.9 -2.73512 5.03963 0
M  V30 20843 N 1918.39 -3.17607 6.15709 0
M  V30 20844 N 1920.18 -2.73049 4.91326 0
M  V30 20845 H 1912.34 -0.0344888 2.12372 0
M  V30 20846 H 1914.6 -0.0778742 0.944796 0
M  V30 20847 H 1914.3 -0.874339 3.40658 0
M  V30 20848 H 1914.18 -2.51891 2.80768 0
M  V30 20849 H 1916.57 -2.30836 1.83844 0
M  V30 20850 H 1916.65 -0.658201 2.47187 0
M  V30 20851 H 1916.29 -1.56988 4.83029 0
M  V30 20852 H 1916.22 -3.22134 4.16578 0
M  V30 20853 H 1918.71 -1.97922 3.21924 0
M  V30 20854 H 1919.02 -3.50155 6.88921 0
M  V30 20855 H 1917.37 -3.15523 6.1925 0
M  V30 20856 H 1920.56 -2.37947 4.03112 0
M  V30 20857 H 1920.73 -3.07386 5.70454 0
M  V30 20858 N 1914.14 -1.27049 -0.93254 0
M  V30 20859 C 1915.09 -1.09183 -2.05382 0
M  V30 20860 C 1916.08 -0.0162863 -1.69392 0
M  V30 20861 O 1917.29 -0.173635 -1.79161 0
M  V30 20862 H 1913.66 -0.336282 -0.67262 0
M  V30 20863 H 1915.63 -2.04189 -2.17599 0
M  V30 20864 C 1914.38 -0.750687 -3.395 0
M  V30 20865 H 1913.71 -1.57019 -3.67675 0
M  V30 20866 H 1915.15 -0.665521 -4.18744 0
M  V30 20867 C 1913.6 0.544676 -3.32468 0
M  V30 20868 O 1914.13 1.58051 -3.69301 0
M  V30 20869 N 1912.34 0.538506 -2.85567 0
M  V30 20870 H 1911.89 -0.304834 -2.5579 0
M  V30 20871 H 1911.85 1.4053 -2.81245 0
M  V30 20872 N 1915.62 1.13835 -1.08993 0
M  V30 20873 C 1916.85 1.88588 -0.843698 0
M  V30 20874 C 1917.26 1.79154 0.608307 0
M  V30 20875 O 1916.6 1.1529 1.43017 0
M  V30 20876 C 1916.66 3.39079 -1.19438 0
M  V30 20877 C 1916.32 3.72295 -2.65038 0
M  V30 20878 C 1917.32 3.71911 -3.63288 0
M  V30 20879 C 1915.01 4.0209 -3.01046 0
M  V30 20880 C 1917 4.00855 -4.95574 0
M  V30 20881 C 1914.69 4.30697 -4.33525 0
M  V30 20882 C 1915.69 4.30063 -5.30598 0
M  V30 20883 O 1915.37 4.57972 -6.60694 0
M  V30 20884 H 1915.11 0.60402 -0.303539 0
M  V30 20885 H 1917.66 1.45055 -1.45424 0
M  V30 20886 H 1915.89 3.83094 -0.526861 0
M  V30 20887 H 1917.58 3.95149 -0.928011 0
M  V30 20888 H 1918.34 3.48972 -3.36814 0
M  V30 20889 H 1914.22 4.01733 -2.26123 0
M  V30 20890 H 1917.77 4.00276 -5.71336 0
M  V30 20891 H 1913.66 4.53106 -4.59745 0
M  V30 20892 H 1914.43 4.75661 -6.661 0
M  V30 20893 N 1917.1 0.876467 1.3098 0
M  V30 20894 C 1918.51 0.542323 1.7865 0
M  V30 20895 C 1918.86 -0.941103 1.72156 0
M  V30 20896 O 1917.98 -1.73506 1.29324 0
M  V30 20897 C 1918.58 0.977656 3.24388 0
M  V30 20898 C 1917.14 0.695064 3.69927 0
M  V30 20899 C 1916.28 1.16537 2.51624 0
M  V30 20900 H 1919.23 1.06154 1.1797 0
M  V30 20901 H 1919.26 0.30304 3.79291 0
M  V30 20902 H 1918.77 2.05735 3.29082 0
M  V30 20903 H 1916.87 -0.372992 3.70728 0
M  V30 20904 H 1916.98 1.27665 4.61778 0
M  V30 20905 H 1915.35 0.584941 2.47892 0
M  V30 20906 H 1916.13 2.25262 2.5906 0
M  V30 20907 N 1918.57 -1.44173 0.636557 0
M  V30 20908 C 1919.52 -2.27834 -0.087113 0
M  V30 20909 C 1920.51 -1.3897 -0.810926 0
M  V30 20910 O 1921.7 -1.62736 -0.696139 0
M  V30 20911 C 1918.83 -3.26385 -1.06431 0
M  V30 20912 C 1917.91 -4.22736 -0.339835 0
M  V30 20913 N 1918.31 -5.01804 0.634535 0
M  V30 20914 C 1916.6 -4.42166 -0.583549 0
M  V30 20915 C 1917.3 -5.71904 1.06306 0
M  V30 20916 N 1916.28 -5.42121 0.400722 0
M  V30 20917 H 1920.08 -2.86375 0.660817 0
M  V30 20918 H 1917.6 -1.55675 0.462493 0
M  V30 20919 H 1919.59 -3.85083 -1.5974 0
M  V30 20920 H 1918.25 -2.69405 -1.81248 0
M  V30 20921 H 1919.26 -5.07905 1.01258 0
M  V30 20922 H 1915.94 -3.96277 -1.31417 0
M  V30 20923 H 1917.33 -6.45401 1.86835 0
M  V30 20924 N 1920.05 -0.377435 -1.53014 0
M  V30 20925 C 1921.3 0.209712 -2.00607 0
M  V30 20926 C 1921.61 1.48891 -1.2685 0
M  V30 20927 O 1922.82 2.15538 -1.65093 0
M  V30 20928 C 1921.28 0.424271 -3.5739 0
M  V30 20929 C 1920.88 -0.840982 -4.40036 0
M  V30 20930 C 1922.63 0.968428 -4.13306 0
M  V30 20931 C 1920.53 -0.595355 -5.88396 0
M  V30 20932 H 1919.46 0.0821436 -0.749512 0
M  V30 20933 H 1922.12 -0.498005 -1.76613 0
M  V30 20934 H 1920.5 1.19354 -3.77585 0
M  V30 20935 H 1921.67 -1.61396 -4.31611 0
M  V30 20936 H 1919.99 -1.30922 -3.95283 0
M  V30 20937 H 1922.58 1.16771 -5.21794 0
M  V30 20938 H 1922.93 1.93405 -3.68647 0
M  V30 20939 H 1923.46 0.259025 -3.96956 0
M  V30 20940 H 1920.2 -1.53164 -6.37355 0
M  V30 20941 H 1919.72 0.138904 -5.99639 0
M  V30 20942 H 1921.4 -0.225366 -6.46607 0
M  V30 20943 N 1921.53 1.57237 -0.106922 0
M  V30 20944 C 1922.78 1.9439 0.552888 0
M  V30 20945 C 1923.1 0.990316 1.67981 0
M  V30 20946 O 1922.37 0.0444502 1.9585 0
M  V30 20947 H 1920.95 0.71768 0.20723 0
M  V30 20948 H 1923.61 1.9413 -0.17303 0
M  V30 20949 H 1922.71 2.97118 0.955369 0
M  V30 20950 N 1923.01 -0.166818 1.56715 0
M  V30 20951 C 1923.96 -1.2112 1.93168 0
M  V30 20952 C 1924.94 -1.39572 0.800525 0
M  V30 20953 O 1926.13 -1.41467 1.06377 0
M  V30 20954 C 1923.26 -2.54958 2.29894 0
M  V30 20955 C 1922.35 -2.40181 3.49534 0
M  V30 20956 N 1922.74 -1.95125 4.66647 0
M  V30 20957 C 1921.04 -2.70994 3.54229 0
M  V30 20958 C 1921.74 -1.92918 5.48778 0
M  V30 20959 N 1920.72 -2.35491 4.89944 0
M  V30 20960 H 1924.52 -0.854619 2.812 0
M  V30 20961 H 1922.03 -0.375053 1.5801 0
M  V30 20962 H 1924.03 -3.30431 2.54206 0
M  V30 20963 H 1922.69 -2.91415 1.43203 0
M  V30 20964 H 1923.7 -1.65393 4.9078 0
M  V30 20965 H 1920.38 -3.11458 2.78029 0
M  V30 20966 H 1921.77 -1.59744 6.52634 0
M  V30 20967 N 1924.49 -1.51463 -0.435524 0
M  V30 20968 C 1925.71 -1.68031 -1.20719 0
M  V30 20969 C 1926.13 -0.378427 -1.84969 0
M  V30 20970 O 1925.49 0.643234 -1.70789 0
M  V30 20971 C 1925.54 -2.79726 -2.28989 0
M  V30 20972 O 1925.26 -4.0487 -1.67367 0
M  V30 20973 C 1926.76 -3.07578 -3.19234 0
M  V30 20974 H 1923.98 -0.56383 -0.363781 0
M  V30 20975 H 1926.52 -1.97888 -0.515825 0
M  V30 20976 H 1924.68 -2.52463 -2.93839 0
M  V30 20977 H 1925.09 -4.66915 -2.38937 0
M  V30 20978 H 1926.57 -3.89309 -3.91334 0
M  V30 20979 H 1927.04 -2.20059 -3.80093 0
M  V30 20980 H 1927.65 -3.36507 -2.60083 0
M  V30 20981 N 1925.96 0.691085 -1.4164 0
M  V30 20982 C 1927.24 1.44595 -1.31726 0
M  V30 20983 C 1927.62 2.11033 0.0530624 0
M  V30 20984 O 1926.97 2.02027 1.06759 0
M  V30 20985 C 1927.18 2.46172 -2.47387 0
M  V30 20986 C 1928.53 3.11293 -2.88759 0
M  V30 20987 O 1929.55 2.56497 -2.47159 0
M  V30 20988 O 1928.41 4.10551 -3.60707 0
M  V30 20989 H 1925.5 0.644163 -0.518635 0
M  V30 20990 H 1928.05 0.721184 -1.53613 0
M  V30 20991 H 1926.82 1.95764 -3.3881 0
M  V30 20992 H 1926.45 3.26151 -2.27401 0
M  V30 20993 N 1927.44 1.27542 0.925789 0
M  V30 20994 C 1928.39 1.07085 2.01288 0
M  V30 20995 C 1929.38 -0.0017417 1.609 0
M  V30 20996 O 1930.57 0.217017 1.75665 0
M  V30 20997 C 1927.7 0.72208 3.3562 0
M  V30 20998 C 1926.78 1.83291 3.82446 0
M  V30 20999 N 1927.17 3.07277 4.01764 0
M  V30 21000 C 1925.47 1.72002 4.11499 0
M  V30 21001 C 1926.17 3.79576 4.40791 0
M  V30 21002 N 1925.15 3.07351 4.48371 0
M  V30 21003 H 1928.95 2.01175 2.14257 0
M  V30 21004 H 1926.47 1.18285 1.11277 0
M  V30 21005 H 1928.46 0.556635 4.13167 0
M  V30 21006 H 1927.12 -0.211174 3.24013 0
M  V30 21007 H 1928.13 3.43018 3.88019 0
M  V30 21008 H 1924.81 0.857729 4.08594 0
M  V30 21009 H 1926.2 4.86147 4.63801 0
M  V30 21010 N 1928.92 -1.13255 1.09595 0
M  V30 21011 C 1929.85 -2.17806 0.680857 0
M  V30 21012 C 1930.83 -1.59549 -0.313511 0
M  V30 21013 O 1932.02 -1.87276 -0.214474 0
M  V30 21014 C 1929.14 -3.387 0.00329844 0
M  V30 21015 C 1928.19 -4.15561 0.959753 0
M  V30 21016 S 1929.02 -4.74992 2.4727 0
M  V30 21017 C 1930.18 -5.9923 1.8076 0
M  V30 21018 H 1930.41 -2.52679 1.56654 0
M  V30 21019 H 1927.94 -1.2458 0.9121 0
M  V30 21020 H 1929.9 -4.08725 -0.381322 0
M  V30 21021 H 1928.56 -3.02124 -0.859052 0
M  V30 21022 H 1927.76 -5.02138 0.432775 0
M  V30 21023 H 1927.36 -3.512 1.28586 0
M  V30 21024 H 1929.65 -6.67965 1.13268 0
M  V30 21025 H 1930.59 -6.56539 2.6526 0
M  V30 21026 H 1931 -5.49894 1.27579 0
M  V30 21027 N 1930.4 -0.883401 -1.30514 0
M  V30 21028 C 1931.64 -0.501795 -1.96494 0
M  V30 21029 C 1931.98 0.946294 -1.69585 0
M  V30 21030 O 1931.25 1.66842 -0.999705 0
M  V30 21031 C 1931.54 -0.775405 -3.51653 0
M  V30 21032 C 1931.39 -2.27401 -3.88084 0
M  V30 21033 C 1932.71 -0.250854 -4.39384 0
M  V30 21034 H 1929.83 -0.183786 -0.713717 0
M  V30 21035 H 1932.47 -1.1071 -1.54412 0
M  V30 21036 H 1930.62 -0.260217 -3.87628 0
M  V30 21037 H 1932.29 -2.85748 -3.62141 0
M  V30 21038 H 1930.53 -2.74128 -3.36209 0
M  V30 21039 H 1931.2 -2.41606 -4.96317 0
M  V30 21040 H 1933.68 -0.691785 -4.10309 0
M  V30 21041 H 1932.56 -0.471637 -5.4687 0
M  V30 21042 H 1932.82 0.847835 -4.33894 0
M  V30 21043 N 1931.88 1.43833 -0.644194 0
M  V30 21044 C 1933.1 2.0627 -0.161397 0
M  V30 21045 C 1933.52 1.4823 1.16933 0
M  V30 21046 O 1932.88 0.610133 1.71999 0
M  V30 21047 C 1932.93 3.61459 -0.0545357 0
M  V30 21048 O 1932.65 4.17339 -1.33265 0
M  V30 21049 C 1934.15 4.40955 0.455411 0
M  V30 21050 H 1931.37 0.665503 -0.0857112 0
M  V30 21051 H 1933.91 1.84488 -0.882291 0
M  V30 21052 H 1932.07 3.82457 0.616868 0
M  V30 21053 H 1932.48 5.10916 -1.18597 0
M  V30 21054 H 1933.96 5.49916 0.479159 0
M  V30 21055 H 1934.43 4.13333 1.485 0
M  V30 21056 H 1935.04 4.24905 -0.18319 0
M  V30 21057 N 1933.35 0.385544 1.52811 0
M  V30 21058 C 1934.3 -0.466338 2.27877 0
M  V30 21059 C 1935.3 -1.0663 1.31629 0
M  V30 21060 O 1936.5 -1.00721 1.49182 0
M  V30 21061 H 1932.88 -0.169137 0.732732 0
M  V30 21062 H 1934.85 0.188293 2.97805 0
M  V30 21063 C 1933.6 -1.58354 3.09547 0
M  V30 21064 H 1932.92 -1.13119 3.83463 0
M  V30 21065 H 1934.36 -2.1539 3.65216 0
M  V30 21066 C 1932.82 -2.53741 2.21624 0
M  V30 21067 O 1933.35 -3.57056 1.84048 0
M  V30 21068 N 1931.56 -2.23394 1.85859 0
M  V30 21069 H 1931.1 -1.39412 2.16615 0
M  V30 21070 H 1931.06 -2.87466 1.27321 0
M  V30 21071 N 1934.83 -1.57178 0.115259 0
M  V30 21072 C 1936.06 -1.99415 -0.55147 0
M  V30 21073 C 1936.48 -0.994862 -1.60462 0
M  V30 21074 O 1935.83 0.0127831 -1.82496 0
M  V30 21075 C 1935.88 -3.41665 -1.18099 0
M  V30 21076 O 1935.6 -4.3777 -0.169944 0
M  V30 21077 C 1937.11 -3.99014 -1.9314 0
M  V30 21078 H 1934.33 -0.654856 -0.146302 0
M  V30 21079 H 1936.87 -2.03515 0.200495 0
M  V30 21080 H 1935.02 -3.38516 -1.88376 0
M  V30 21081 H 1935.44 -5.20741 -0.626853 0
M  V30 21082 H 1936.91 -5.00639 -2.32519 0
M  V30 21083 H 1937.39 -3.37947 -2.80515 0
M  V30 21084 H 1938 -4.05697 -1.27634 0
M  V30 21085 N 1936.31 0.158505 -1.56801 0
M  V30 21086 C 1937.54 0.892291 -1.87224 0
M  V30 21087 C 1937.96 1.74468 -0.703029 0
M  V30 21088 O 1937.32 1.77936 0.347649 0
M  V30 21089 C 1937.37 1.73433 -3.16154 0
M  V30 21090 O 1936.47 2.83736 -2.99279 0
M  V30 21091 H 1935.81 0.249214 -0.615458 0
M  V30 21092 H 1938.34 0.152785 -2.04029 0
M  V30 21093 H 1938.35 2.13168 -3.47884 0
M  V30 21094 H 1937.03 1.10831 -4.00861 0
M  V30 21095 H 1935.6 2.47491 -2.78931 0
M  V30 21096 N 1937.79 1.51692 0.427485 0
M  V30 21097 C 1938.74 1.74303 1.54017 0
M  V30 21098 C 1939.73 0.609588 1.58052 0
M  V30 21099 O 1940.94 0.791207 1.61678 0
M  V30 21100 H 1937.31 0.550902 0.51187 0
M  V30 21101 H 1939.28 2.67556 1.32123 0
M  V30 21102 C 1938.03 1.89415 2.91577 0
M  V30 21103 H 1937.36 2.76041 2.89208 0
M  V30 21104 H 1938.8 2.09244 3.68772 0
M  V30 21105 C 1937.25 0.656462 3.30442 0
M  V30 21106 O 1937.78 -0.184283 4.01277 0
M  V30 21107 N 1935.99 0.497681 2.86307 0
M  V30 21108 H 1935.54 1.18293 2.28833 0
M  V30 21109 H 1935.5 -0.329176 3.12672 0
M  V30 21110 N 1939.27 -0.683564 1.42004 0
M  V30 21111 C 1940.52 -1.44078 1.41725 0
M  V30 21112 C 1940.84 -1.94975 0.0315193 0
M  V30 21113 O 1940.11 -1.72494 -0.928579 0
M  V30 21114 H 1938.69 -0.534631 0.521707 0
M  V30 21115 H 1941.35 -0.808284 1.77349 0
M  V30 21116 H 1940.44 -2.29809 2.11174 0
M  V30 21117 N 1940.75 -1.28031 -0.919012 0
M  V30 21118 C 1941.68 -1.07305 -2.0253 0
M  V30 21119 C 1942.69 -0.0264063 -1.62779 0
M  V30 21120 O 1943.88 -0.268902 -1.76463 0
M  V30 21121 C 1940.98 -0.607467 -3.33411 0
M  V30 21122 C 1940.15 -1.72834 -4.01805 0
M  V30 21123 C 1939.21 -1.25703 -5.10965 0
M  V30 21124 O 1938.24 -1.9583 -5.34452 0
M  V30 21125 N 1939.44 -0.117374 -5.80381 0
M  V30 21126 H 1942.2 -2.02575 -2.2087 0
M  V30 21127 H 1939.77 -1.19713 -1.08997 0
M  V30 21128 H 1941.76 -0.275875 -4.03759 0
M  V30 21129 H 1940.33 0.252241 -3.11581 0
M  V30 21130 H 1939.55 -2.22979 -3.25075 0
M  V30 21131 H 1940.84 -2.48038 -4.44246 0
M  V30 21132 H 1940.23 0.467747 -5.63763 0
M  V30 21133 H 1938.79 0.154978 -6.51616 0
M  V30 21134 N 1942.22 1.12672 -1.10194 0
M  V30 21135 C 1943.63 1.65664 -0.860944 0
M  V30 21136 C 1943.99 1.86502 0.609208 0
M  V30 21137 O 1943.11 1.58967 1.46828 0
M  V30 21138 C 1943.71 3.00939 -1.55632 0
M  V30 21139 C 1942.26 3.5089 -1.36209 0
M  V30 21140 C 1941.41 2.25966 -1.60732 0
M  V30 21141 H 1944.36 0.964871 -1.26 0
M  V30 21142 H 1944.38 3.6729 -0.99391 0
M  V30 21143 H 1943.9 2.85741 -2.62629 0
M  V30 21144 H 1942 3.71278 -0.313645 0
M  V30 21145 H 1942.11 4.30509 -2.10235 0
M  V30 21146 H 1940.47 2.32949 -1.0299 0
M  V30 21147 H 1941.26 2.13324 -2.68975 0
M  V30 21148 N 1943.7 0.89031 1.30043 0
M  V30 21149 C 1944.93 0.525833 2.00623 0
M  V30 21150 C 1945.35 -0.87971 1.66261 0
M  V30 21151 O 1944.71 -1.58394 0.882105 0
M  V30 21152 C 1944.76 0.714046 3.5346 0
M  V30 21153 O 1943.86 -0.237685 4.11714 0
M  V30 21154 H 1943.2 0.20656 0.631054 0
M  V30 21155 H 1945.73 1.19932 1.65763 0
M  V30 21156 H 1945.74 0.615086 4.03337 0
M  V30 21157 H 1944.42 1.73881 3.77807 0
M  V30 21158 H 1942.99 -0.0919722 3.72787 0
M  V30 21159 N 1945.18 -1.43489 0.651812 0
M  V30 21160 C 1946.41 -2.06181 0.172334 0
M  V30 21161 C 1946.82 -1.48848 -1.16145 0
M  V30 21162 O 1946.18 -0.619246 -1.71673 0
M  V30 21163 C 1946.23 -3.61425 0.0737039 0
M  V30 21164 O 1945.95 -4.16627 1.35476 0
M  V30 21165 C 1947.45 -4.4119 -0.432019 0
M  V30 21166 H 1944.67 -0.665039 0.0892394 0
M  V30 21167 H 1947.22 -1.84018 0.892063 0
M  V30 21168 H 1945.37 -3.82779 -0.596577 0
M  V30 21169 H 1945.79 -5.1028 1.21305 0
M  V30 21170 H 1947.26 -5.50163 -0.449989 0
M  V30 21171 H 1947.74 -4.14115 -1.46306 0
M  V30 21172 H 1948.34 -4.24802 0.205721 0
M  V30 21173 N 1946.66 -0.393643 -1.52605 0
M  V30 21174 C 1947.59 0.430786 -2.29492 0
M  V30 21175 C 1948.57 1.0597 -1.33058 0
M  V30 21176 O 1949.75 1.07165 -1.61955 0
M  V30 21177 C 1946.88 1.55599 -3.10494 0
M  V30 21178 C 1945.84 1.05289 -4.14847 0
M  V30 21179 C 1945.16 2.2705 -4.841 0
M  V30 21180 C 1946.46 0.117789 -5.22167 0
M  V30 21181 H 1948.16 -0.210741 -2.98657 0
M  V30 21182 H 1945.7 -0.102795 -1.43633 0
M  V30 21183 H 1947.66 2.1396 -3.63042 0
M  V30 21184 H 1946.38 2.22517 -2.39069 0
M  V30 21185 H 1945.04 0.491788 -3.63286 0
M  V30 21186 H 1944.69 2.92487 -4.09219 0
M  V30 21187 H 1944.39 1.94047 -5.54635 0
M  V30 21188 H 1945.91 2.86045 -5.39454 0
M  V30 21189 H 1947.33 0.609718 -5.70049 0
M  V30 21190 H 1945.72 -0.122689 -5.99975 0
M  V30 21191 H 1946.79 -0.832053 -4.77708 0
M  V30 21192 N 1948.14 1.57115 -0.123593 0
M  V30 21193 C 1949.36 1.99705 0.540887 0
M  V30 21194 C 1949.78 1.00336 1.59932 0
M  V30 21195 O 1949.14 -0.00310477 1.825 0
M  V30 21196 C 1949.19 3.42286 1.16285 0
M  V30 21197 O 1948.91 4.37854 0.146725 0
M  V30 21198 C 1950.41 4.00032 1.91021 0
M  V30 21199 H 1947.63 0.655623 0.142827 0
M  V30 21200 H 1950.17 2.03406 -0.211285 0
M  V30 21201 H 1948.33 3.39511 1.86578 0
M  V30 21202 H 1948.74 5.21066 0.599228 0
M  V30 21203 H 1950.22 5.01865 2.29861 0
M  V30 21204 H 1950.69 3.3943 2.78719 0
M  V30 21205 H 1951.3 4.06368 1.25481 0
M  V30 21206 N 1949.61 -0.150187 1.56883 0
M  V30 21207 C 1950.86 -0.861749 1.82364 0
M  V30 21208 C 1951.18 -1.82479 0.704319 0
M  V30 21209 O 1952.38 -2.58027 0.844649 0
M  V30 21210 C 1950.84 -1.58305 3.23214 0
M  V30 21211 C 1950.45 -0.662577 4.43073 0
M  V30 21212 C 1952.19 -2.28159 3.57972 0
M  V30 21213 C 1950.1 -1.38532 5.74946 0
M  V30 21214 H 1949.03 -0.325546 0.6801 0
M  V30 21215 H 1951.68 -0.114505 1.83142 0
M  V30 21216 H 1950.06 -2.37581 3.16814 0
M  V30 21217 H 1951.23 0.0947281 4.60703 0
M  V30 21218 H 1949.55 -0.0726217 4.16337 0
M  V30 21219 H 1952.15 -2.82865 4.53753 0
M  V30 21220 H 1952.49 -3.04501 2.83874 0
M  V30 21221 H 1953.02 -1.55805 3.66019 0
M  V30 21222 H 1949.76 -0.663808 6.5213 0
M  V30 21223 H 1949.28 -2.11542 5.61258 0
M  V30 21224 H 1950.96 -1.9271 6.17634 0
M  V30 21225 N 1951.09 -1.51916 -0.419434 0
M  V30 21226 C 1952.34 -1.65468 -1.16732 0
M  V30 21227 C 1952.67 -0.379569 -1.9076 0
M  V30 21228 O 1951.92 0.637093 -1.8504 0
M  V30 21229 C 1952.22 -2.82039 -2.19519 0
M  V30 21230 C 1951.89 -4.20649 -1.62373 0
M  V30 21231 C 1950.55 -4.58353 -1.46512 0
M  V30 21232 C 1952.9 -5.0707 -1.20539 0
M  V30 21233 C 1950.23 -5.80166 -0.873185 0
M  V30 21234 C 1952.58 -6.29478 -0.627675 0
M  V30 21235 C 1951.25 -6.6594 -0.456114 0
M  V30 21236 H 1950.52 -0.605492 -0.427154 0
M  V30 21237 H 1953.16 -1.85994 -0.455916 0
M  V30 21238 H 1951.47 -2.55808 -2.96765 0
M  V30 21239 H 1953.16 -2.89722 -2.7724 0
M  V30 21240 H 1949.75 -3.90932 -1.75699 0
M  V30 21241 H 1953.94 -4.78533 -1.31606 0
M  V30 21242 H 1949.19 -6.07048 -0.728187 0
M  V30 21243 H 1953.37 -6.95775 -0.29508 0
M  V30 21244 H 1951 -7.602 0.00467585 0
M  V30 21245 N 1952.57 0.676023 -1.42365 0
M  V30 21246 C 1953.48 1.81906 -1.48147 0
M  V30 21247 C 1954.5 1.70014 -0.37032 0
M  V30 21248 O 1955.67 1.91586 -0.621036 0
M  V30 21249 C 1952.74 3.18039 -1.38029 0
M  V30 21250 C 1951.8 3.41897 -2.59625 0
M  V30 21251 C 1951.03 4.71536 -2.4998 0
M  V30 21252 O 1951.25 5.49358 -1.535 0
M  V30 21253 O 1950.19 4.9661 -3.40091 0
M  V30 21254 H 1954.01 1.79984 -2.44621 0
M  V30 21255 H 1951.6 0.831611 -1.24115 0
M  V30 21256 H 1953.48 3.99277 -1.34743 0
M  V30 21257 H 1952.16 3.20602 -0.446789 0
M  V30 21258 H 1951.06 2.60512 -2.68485 0
M  V30 21259 H 1952.4 3.44164 -3.51869 0
M  V30 21260 N 1954.05 1.28517 0.912209 0
M  V30 21261 C 1955.28 1.18615 1.69523 0
M  V30 21262 C 1955.69 -0.254997 1.8707 0
M  V30 21263 O 1955.05 -1.17217 1.3988 0
M  V30 21264 C 1955.1 1.88188 3.08655 0
M  V30 21265 O 1954.82 3.26673 2.91918 0
M  V30 21266 C 1956.32 1.84607 4.03032 0
M  V30 21267 H 1953.54 0.411679 0.529869 0
M  V30 21268 H 1956.09 1.69668 1.14162 0
M  V30 21269 H 1954.24 1.41001 3.60829 0
M  V30 21270 H 1954.65 3.61538 3.79987 0
M  V30 21271 H 1956.13 2.37874 4.98116 0
M  V30 21272 H 1956.61 0.818787 4.315 0
M  V30 21273 H 1957.21 2.3148 3.56787 0
M  V30 21274 N 1955.53 -1.12086 1.1079 0
M  V30 21275 C 1956.49 -2.16111 0.763446 0
M  V30 21276 C 1957.49 -1.59371 -0.213903 0
M  V30 21277 O 1958.68 -1.74197 0.00972099 0
M  V30 21278 C 1955.81 -3.40646 0.131488 0
M  V30 21279 H 1957 -2.48096 1.68489 0
M  V30 21280 H 1954.56 -1.27156 0.908896 0
M  V30 21281 H 1955.29 -3.14265 -0.800507 0
M  V30 21282 H 1955.08 -3.83108 0.834928 0
M  V30 21283 H 1956.57 -4.17495 -0.0936165 0
M  V30 21284 N 1957 -0.897194 -1.29569 0
M  V30 21285 C 1957.93 -0.389601 -2.30227 0
M  V30 21286 C 1958.92 0.53405 -1.61499 0
M  V30 21287 O 1960.1 0.44531 -1.89025 0
M  V30 21288 C 1957.23 0.385966 -3.45149 0
M  V30 21289 C 1956.18 -0.447028 -4.25659 0
M  V30 21290 C 1955.51 0.455883 -5.32753 0
M  V30 21291 C 1956.81 -1.69562 -4.9401 0
M  V30 21292 H 1958.5 -1.23077 -2.72933 0
M  V30 21293 H 1956.05 -0.593265 -1.31211 0
M  V30 21294 H 1958 0.751791 -4.1464 0
M  V30 21295 H 1956.73 1.26089 -3.01279 0
M  V30 21296 H 1955.39 -0.795152 -3.57873 0
M  V30 21297 H 1955.03 1.32887 -4.85129 0
M  V30 21298 H 1954.73 -0.0977528 -5.87519 0
M  V30 21299 H 1956.26 0.817956 -6.05097 0
M  V30 21300 H 1957.67 -1.39968 -5.55951 0
M  V30 21301 H 1956.07 -2.19039 -5.58697 0
M  V30 21302 H 1957.14 -2.43305 -4.19441 0
M  V30 21303 O 1958.52 1.40358 -0.798861 0
M  V30 21304 H 1959.21 1.90088 -0.372348 0
M  V30 END ATOM
M  V30 BEGIN BOND
M  V30 END BOND
M  V30 END CTAB
M  END
$$$$
