drugbank_target|Q9RC92 Unsaturated glucuronyl hydrolase (DB04447)
 OpenBabel12092120283D

  0  0  0     0  0            999 V3000
M  V30 BEGIN CTAB
M  V30 COUNTS 5895 5973 0 0 0
M  V30 BEGIN ATOM
M  V30 1 H -0.908 1.98254 -0.117106 0
M  V30 2 N 0 1.576 0 0
M  V30 3 C 0.933 2.03868 1.02534 0
M  V30 4 C 1.911 0.928543 1.3348 0
M  V30 5 O 3.095 1.19667 1.45644 0
M  V30 6 C 0.222 2.43627 2.35294 0
M  V30 7 C -0.732 3.65373 2.2001 0
M  V30 8 S 0.101 5.13292 1.52614 0
M  V30 9 C 1.257 5.56322 2.86805 0
M  V30 10 H 1.49 2.90518 0.631377 0
M  V30 11 H -0.977 1.52953 0.210867 0
M  V30 12 H 0.981 2.67203 3.11629 0
M  V30 13 H -0.358 1.57376 2.7183 0
M  V30 14 H -1.165 3.90944 3.18086 0
M  V30 15 H -1.563 3.418 1.51819 0
M  V30 16 H 0.729 5.58782 3.83104 0
M  V30 17 H 1.672 6.56266 2.65933 0
M  V30 18 H 2.08 4.83886 2.90714 0
M  V30 19 N 1.4781 -0.272755 1.55222 0
M  V30 20 C 2.7241 -1.00172 1.77023 0
M  V30 21 C 3.0791 -1.83928 0.564633 0
M  V30 22 O 2.3721 -1.86416 -0.442674 0
M  V30 23 C 2.5661 -1.91642 3.01675 0
M  V30 24 C 2.3951 -1.16888 4.34243 0
M  V30 25 C 1.1651 -0.884464 4.97499 0
M  V30 26 C 3.3631 -0.55919 5.11251 0
M  V30 27 N 1.3451 -0.11015 6.13801 0
M  V30 28 C 2.7161 0.0809469 6.19947 0
M  V30 29 C 4.7711 -0.467058 4.95705 0
M  V30 30 C 3.4741 0.804335 7.14789 0
M  V30 31 C 5.5001 0.242739 5.90902 0
M  V30 32 C 4.8621 0.871613 6.98987 0
M  V30 33 H 0.9611 -0.348529 0.700037 0
M  V30 34 H 3.5451 -0.277365 1.92714 0
M  V30 35 H 1.7161 -2.61303 2.87359 0
M  V30 36 H 3.4481 -2.57901 3.1188 0
M  V30 37 H 0.2031 -1.18979 4.58411 0
M  V30 38 H 0.6271 0.264344 6.76484 0
M  V30 39 H 5.2691 -0.93894 4.12242 0
M  V30 40 H 2.9871 1.2879 7.97771 0
M  V30 41 H 6.5731 0.314347 5.8095 0
M  V30 42 H 5.4531 1.4121 7.71381 0
M  V30 43 N 2.9562 -1.48159 -0.537278 0
M  V30 44 C 3.8882 -1.58218 -1.65831 0
M  V30 45 C 4.9012 -0.466948 -1.5596 0
M  V30 46 O 6.0902 -0.73747 -1.62553 0
M  V30 47 C 3.1902 -1.48906 -3.04434 0
M  V30 48 C 2.3632 -2.75343 -3.3986 0
M  V30 49 C 1.4222 -2.59588 -4.57712 0
M  V30 50 O 0.4482 -3.33457 -4.61297 0
M  V30 51 N 1.6502 -1.68724 -5.55439 0
M  V30 52 H 4.4152 -2.54891 -1.57641 0
M  V30 53 H 1.9762 -1.4479 -0.724386 0
M  V30 54 H 3.9682 -1.36072 -3.81139 0
M  V30 55 H 2.5382 -0.602368 -3.06741 0
M  V30 56 H 1.7582 -3.02795 -2.52406 0
M  V30 57 H 3.0462 -3.5924 -3.60311 0
M  V30 58 H 2.4442 -1.07898 -5.55315 0
M  V30 59 H 1.0012 -1.61832 -6.3139 0
M  V30 60 N 4.4343 0.785586 -1.36625 0
M  V30 61 C 5.3663 1.90711 -1.2713 0
M  V30 62 C 6.3793 1.61688 -0.189986 0
M  V30 63 O 7.5683 1.72864 -0.445014 0
M  V30 64 C 4.6683 3.25611 -0.939713 0
M  V30 65 C 3.8413 3.82385 -2.12369 0
M  V30 66 C 2.9003 4.95732 -1.76456 0
M  V30 67 O 1.9263 5.12047 -2.48589 0
M  V30 68 N 3.1283 5.76258 -0.700492 0
M  V30 69 H 5.8933 1.99376 -2.23762 0
M  V30 70 H 3.4543 0.964041 -1.30069 0
M  V30 71 H 5.4463 3.98937 -0.680554 0
M  V30 72 H 4.0163 3.12538 -0.0624074 0
M  V30 73 H 3.2363 3.01001 -2.54543 0
M  V30 74 H 4.5243 4.17047 -2.9146 0
M  V30 75 H 3.9223 5.65609 -0.101624 0
M  V30 76 H 2.4793 6.4987 -0.501165 0
M  V30 77 N 5.9124 1.20967 1.01018 0
M  V30 78 C 6.8754 0.965918 2.07853 0
M  V30 79 C 7.8754 -0.0610545 1.60684 0
M  V30 80 O 9.0654 0.175681 1.73312 0
M  V30 81 C 6.1974 0.455513 3.37843 0
M  V30 82 H 7.3904 1.91365 2.3091 0
M  V30 83 H 4.9434 1.02594 1.17916 0
M  V30 84 H 5.6784 -0.497381 3.20463 0
M  V30 85 H 5.4634 1.19622 3.73407 0
M  V30 86 H 6.9534 0.304667 4.16487 0
M  V30 87 N 7.3905 -1.2043 1.01659 0
M  V30 88 C 8.6395 -1.89118 0.701237 0
M  V30 89 C 8.9525 -1.79705 -0.772358 0
M  V30 90 O 10.1585 -2.43528 -1.20026 0
M  V30 91 C 8.6145 -3.39168 1.20388 0
M  V30 92 C 8.2225 -3.57166 2.70438 0
M  V30 93 C 9.9665 -4.1341 0.963953 0
M  V30 94 C 7.8735 -5.01042 3.14183 0
M  V30 95 H 6.8035 -0.708267 0.2586 0
M  V30 96 H 9.4545 -1.36239 1.22927 0
M  V30 97 H 7.8365 -3.91369 0.603824 0
M  V30 98 H 9.0105 -3.15351 3.35992 0
M  V30 99 H 7.3255 -2.96294 2.92572 0
M  V30 100 H 9.9225 -5.19491 1.26621 0
M  V30 101 H 10.2655 -4.16181 -0.099578 0
M  V30 102 H 10.7985 -3.67309 1.52738 0
M  V30 103 H 7.5375 -5.03426 4.19812 0
M  V30 104 H 7.0575 -5.43668 2.53348 0
M  V30 105 H 8.7365 -5.69623 3.0682 0
M  V30 106 N 8.8686 -0.792821 -1.36206 0
M  V30 107 C 10.1166 -0.366062 -1.98757 0
M  V30 108 C 10.4376 1.0668 -1.63231 0
M  V30 109 O 9.7076 1.73587 -0.907978 0
M  V30 110 H 8.2876 -0.132364 -0.735179 0
M  V30 111 H 10.9496 -1.01562 -1.66347 0
M  V30 112 H 10.0456 -0.460638 -3.08682 0
M  V30 113 N 10.3467 1.47872 -0.545128 0
M  V30 114 C 11.6237 1.9554 0.0485222 0
M  V30 115 C 12.0037 1.4876 1.49779 0
M  V30 116 O 11.3517 0.720925 2.16829 0
M  V30 117 C 11.5617 3.48898 -0.084417 0
M  V30 118 C 12.9097 4.24547 0.0671239 0
M  V30 119 O 13.9337 3.56198 -0.0113649 0
M  V30 120 O 12.7927 5.45999 0.233882 0
M  V30 121 H 9.8867 0.823957 0.0708773 0
M  V30 122 H 12.4327 1.58327 -0.610798 0
M  V30 123 H 11.2047 3.75714 -1.09337 0
M  V30 124 H 10.8277 3.92845 0.613066 0
M  V30 125 N 11.8248 0.280983 1.55075 0
M  V30 126 C 12.7878 -0.590896 2.21452 0
M  V30 127 C 13.7878 -1.07682 1.19421 0
M  V30 128 O 14.9778 -0.97605 1.44288 0
M  V30 129 C 12.1098 -1.81587 2.88511 0
M  V30 130 H 13.3028 -0.0112554 2.99898 0
M  V30 131 H 10.8558 0.0316438 1.56268 0
M  V30 132 H 11.5908 -2.43587 2.14093 0
M  V30 133 H 11.3758 -1.4753 3.63287 0
M  V30 134 H 12.8658 -2.43575 3.39206 0
M  V30 135 N 13.3029 -1.57598 0.00835791 0
M  V30 136 C 14.2329 -2.1198 -0.979113 0
M  V30 137 C 15.2139 -1.03091 -1.35301 0
M  V30 138 O 16.3989 -1.30818 -1.43528 0
M  V30 139 C 13.5289 -2.62995 -2.26828 0
M  V30 140 C 12.4829 -3.76485 -2.03576 0
M  V30 141 C 11.8089 -4.13846 -3.38579 0
M  V30 142 C 13.1089 -5.0342 -1.39161 0
M  V30 143 H 14.8029 -2.94738 -0.526281 0
M  V30 144 H 12.3489 -1.41783 -0.251704 0
M  V30 145 H 14.3019 -2.99669 -2.96271 0
M  V30 146 H 13.0259 -1.7737 -2.7424 0
M  V30 147 H 11.6849 -3.40217 -1.36557 0
M  V30 148 H 11.3329 -3.25232 -3.83709 0
M  V30 149 H 11.0329 -4.90312 -3.23834 0
M  V30 150 H 12.5569 -4.53086 -4.09323 0
M  V30 151 H 13.9709 -5.37812 -1.98573 0
M  V30 152 H 12.3679 -5.84746 -1.34878 0
M  V30 153 H 13.4379 -4.83548 -0.361868 0
M  V30 154 N 14.781 0.264519 -1.55364 0
M  V30 155 C 16.029 0.993021 -1.76021 0
M  V30 156 C 16.35 1.86511 -0.569099 0
M  V30 157 O 15.62 1.91438 0.415735 0
M  V30 158 H 14.2 0.369639 -0.649135 0
M  V30 159 H 16.862 0.286707 -1.9278 0
M  V30 160 H 15.958 1.62502 -2.66457 0
M  V30 161 N 16.2591 1.48442 0.529413 0
M  V30 162 C 17.5081 1.55742 1.28169 0
M  V30 163 C 17.8211 0.236511 1.94165 0
M  V30 164 O 19.0271 0.187761 2.7085 0
M  V30 165 C 17.4831 2.74667 2.32564 0
M  V30 166 C 17.0911 4.13402 1.72636 0
M  V30 167 C 18.8351 2.9128 3.08798 0
M  V30 168 C 16.7421 5.23587 2.74975 0
M  V30 169 H 15.6721 0.579796 0.48203 0
M  V30 170 H 18.3231 1.74776 0.559056 0
M  V30 171 H 16.7051 2.49067 3.07866 0
M  V30 172 H 17.8791 4.49022 1.03519 0
M  V30 173 H 16.1941 4.0191 1.08892 0
M  V30 174 H 18.7911 3.70767 3.85274 0
M  V30 175 H 19.1341 2.00757 3.64695 0
M  V30 176 H 19.6671 3.16782 2.40611 0
M  V30 177 H 16.4061 6.16076 2.23897 0
M  V30 178 H 15.9261 4.92454 3.42417 0
M  V30 179 H 17.6051 5.51724 3.37949 0
M  V30 180 N 17.7372 -0.778329 1.37039 0
M  V30 181 C 18.9652 -1.56734 1.35063 0
M  V30 182 C 19.3802 -1.88686 -0.0655597 0
M  V30 183 O 18.7372 -1.5096 -1.02554 0
M  V30 184 C 18.7882 -2.88163 2.18276 0
M  V30 185 O 18.5092 -2.57583 3.54376 0
M  V30 186 C 20.0102 -3.82422 2.24206 0
M  V30 187 H 17.2302 -0.485778 0.462883 0
M  V30 188 H 19.7742 -0.965185 1.8029 0
M  V30 189 H 17.9292 -3.44818 1.76576 0
M  V30 190 H 18.3432 -3.41699 3.97922 0
M  V30 191 H 19.8172 -4.71667 2.86765 0
M  V30 192 H 20.2942 -4.21078 1.24861 0
M  V30 193 H 20.9002 -3.31697 2.6619 0
M  V30 194 N 19.2153 -1.21501 -1.00376 0
M  V30 195 C 20.1783 -0.976927 -2.07337 0
M  V30 196 C 21.1783 0.0525322 -1.60714 0
M  V30 197 O 22.3683 -0.184869 -1.73216 0
M  V30 198 C 19.5003 -0.473423 -3.37597 0
M  V30 199 H 20.6933 -1.92587 -2.29892 0
M  V30 200 H 18.2463 -1.03217 -1.17371 0
M  V30 201 H 18.9813 0.480379 -3.20722 0
M  V30 202 H 18.7663 -1.216 -3.72768 0
M  V30 203 H 20.2563 -0.32675 -4.1632 0
M  V30 204 N 20.6934 1.19889 -1.02296 0
M  V30 205 C 22.1094 1.41462 -0.738954 0
M  V30 206 C 22.3094 1.89721 0.678846 0
M  V30 207 O 21.3654 2.07016 1.4457 0
M  V30 208 C 22.6784 2.43083 -1.77005 0
M  V30 209 C 24.2264 2.5684 -1.78892 0
M  V30 210 C 24.7014 3.61709 -2.80945 0
M  V30 211 N 26.1924 3.69199 -2.79725 0
M  V30 212 C 26.9274 4.50019 -3.55345 0
M  V30 213 N 26.4234 5.34592 -4.40662 0
M  V30 214 N 28.2164 4.44612 -3.43914 0
M  V30 215 H 20.3674 0.868827 -1.93817 0
M  V30 216 H 22.6304 0.44399 -0.837602 0
M  V30 217 H 22.3364 2.14636 -2.78612 0
M  V30 218 H 22.2104 3.4217 -1.58744 0
M  V30 219 H 24.5974 2.84614 -0.779674 0
M  V30 220 H 24.6784 1.57927 -2.01228 0
M  V30 221 H 24.3224 3.34678 -3.82038 0
M  V30 222 H 24.2524 4.60259 -2.5587 0
M  V30 223 H 26.7434 3.08794 -2.17842 0
M  V30 224 H 27.0564 5.93363 -4.95116 0
M  V30 225 H 25.4014 5.34073 -4.44737 0
M  V30 226 H 28.5924 3.7758 -2.76679 0
M  V30 227 H 28.7654 5.0736 -4.031 0
M  V30 228 N 22.1715 0.800033 1.35784 0
M  V30 229 C 23.1195 0.193851 2.31791 0
M  V30 230 C 24.1135 -0.652744 1.56319 0
M  V30 231 O 25.3195 -0.546641 1.71499 0
M  V30 232 H 21.6945 0.04392 0.750716 0
M  V30 233 H 23.6655 1.01883 2.80468 0
M  V30 234 C 22.4145 -0.648338 3.41602 0
M  V30 235 H 21.7375 -0.00624665 3.998 0
M  V30 236 H 23.1775 -1.03898 4.11073 0
M  V30 237 C 21.6365 -1.8111 2.84079 0
M  V30 238 O 22.1665 -2.90825 2.77099 0
M  V30 239 N 20.3725 -1.62056 2.41218 0
M  V30 240 H 19.9195 -0.728123 2.47095 0
M  V30 241 H 19.8775 -2.40013 2.03079 0
M  V30 242 N 23.6496 -1.47581 0.552962 0
M  V30 243 C 24.5796 -2.32762 -0.185451 0
M  V30 244 C 25.5606 -1.43527 -0.912905 0
M  V30 245 O 26.7456 -1.72388 -0.894201 0
M  V30 246 C 23.8756 -3.25219 -1.21859 0
M  V30 247 C 22.8296 -4.23661 -0.607864 0
M  V30 248 C 22.1556 -5.05413 -1.74533 0
M  V30 249 C 23.4556 -5.20481 0.435582 0
M  V30 250 H 25.1496 -2.94749 0.525684 0
M  V30 251 H 22.6956 -1.41738 0.254251 0
M  V30 252 H 24.6486 -3.8365 -1.7433 0
M  V30 253 H 23.3726 -2.61279 -1.95961 0
M  V30 254 H 22.0316 -3.66451 -0.104489 0
M  V30 255 H 21.6796 -4.3788 -2.47529 0
M  V30 256 H 21.3796 -5.72059 -1.34249 0
M  V30 257 H 22.9036 -5.66701 -2.27338 0
M  V30 258 H 24.3176 -5.733 -0.00290157 0
M  V30 259 H 22.7146 -5.95305 0.757067 0
M  V30 260 H 23.7846 -4.66217 1.33303 0
M  V30 261 N 25.1277 -0.289203 -1.54924 0
M  V30 262 C 26.0747 0.592115 -2.23075 0
M  V30 263 C 27.0447 1.13881 -1.20915 0
M  V30 264 O 28.2297 1.18551 -1.495 0
M  V30 265 C 25.3697 1.76376 -2.96623 0
M  V30 266 C 24.4827 1.24959 -4.13533 0
M  V30 267 C 23.6177 2.38416 -4.74691 0
M  V30 268 C 22.6567 1.84072 -5.83767 0
M  V30 269 N 21.7937 2.91057 -6.38929 0
M  V30 270 H 26.6337 0.00432038 -2.98 0
M  V30 271 H 24.1707 -0.00963529 -1.47097 0
M  V30 272 H 26.1287 2.45268 -3.3749 0
M  V30 273 H 24.7587 2.32337 -2.24097 0
M  V30 274 H 23.8107 0.453307 -3.77689 0
M  V30 275 H 25.1227 0.811662 -4.92152 0
M  V30 276 H 24.2767 3.15276 -5.18349 0
M  V30 277 H 23.0157 2.8553 -3.95378 0
M  V30 278 H 22.0207 1.05697 -5.39545 0
M  V30 279 H 23.2457 1.37877 -6.64956 0
M  V30 280 H 21.1917 3.37526 -5.62505 0
M  V30 281 H 21.1087 2.51724 -7.12861 0
M  V30 282 H 22.3767 3.6785 -6.87246 0
M  V30 283 N 26.6058 1.57591 -0.0167156 0
M  V30 284 C 27.5528 2.09462 0.969251 0
M  V30 285 C 28.5228 0.99381 1.33089 0
M  V30 286 O 29.7078 1.26726 1.42636 0
M  V30 287 C 26.8478 2.61622 2.25051 0
M  V30 288 C 25.9608 3.85666 1.94642 0
M  V30 289 C 25.0958 4.26266 3.16972 0
M  V30 290 C 24.1348 5.43101 2.82326 0
M  V30 291 N 23.2718 5.78915 3.97243 0
M  V30 292 H 28.1118 2.93428 0.519997 0
M  V30 293 H 25.6488 1.45044 0.245087 0
M  V30 294 H 27.6068 2.89949 2.99976 0
M  V30 295 H 26.2368 1.80505 2.67615 0
M  V30 296 H 25.2888 3.64145 1.10013 0
M  V30 297 H 26.6008 4.70678 1.65117 0
M  V30 298 H 25.7548 4.55963 4.00228 0
M  V30 299 H 24.4938 3.39996 3.49648 0
M  V30 300 H 23.4988 5.1311 1.97479 0
M  V30 301 H 24.7238 6.3106 2.50879 0
M  V30 302 H 22.6698 4.95602 4.29785 0
M  V30 303 H 22.5868 6.58539 3.71299 0
M  V30 304 H 23.8548 6.13212 4.81239 0
M  V30 305 N 28.0839 -0.256276 1.55502 0
M  V30 306 C 29.3309 -0.985619 1.76895 0
M  V30 307 C 29.6589 -1.85671 0.579355 0
M  V30 308 O 28.9139 -1.90744 -0.437651 0
M  V30 309 C 29.2129 -1.88432 3.03691 0
M  V30 310 C 28.8789 -1.16936 4.35473 0
M  V30 311 C 27.5409 -0.97173 4.71286 0
M  V30 312 C 29.8929 -0.661889 5.1698 0
M  V30 313 C 27.2209 -0.254179 5.86149 0
M  V30 314 C 29.5729 0.042149 6.32586 0
M  V30 315 C 28.2369 0.25134 6.67027 0
M  V30 316 H 27.5069 -0.360663 0.647304 0
M  V30 317 H 30.1539 -0.256483 1.89775 0
M  V30 318 H 28.4589 -2.68021 2.85783 0
M  V30 319 H 30.1559 -2.45015 3.1744 0
M  V30 320 H 26.7459 -1.33332 4.07333 0
M  V30 321 H 30.9299 -0.802145 4.89775 0
M  V30 322 H 26.1859 -0.0815408 6.11346 0
M  V30 323 H 30.3599 0.443049 6.94989 0
M  V30 324 H 27.9869 0.809314 7.5588 0
M  V30 325 N 29.562 -1.4872 -0.521534 0
M  V30 326 C 30.81 -1.56857 -1.27437 0
M  V30 327 C 31.131 -0.247982 -1.93417 0
M  V30 328 O 30.401 0.731151 -1.81744 0
M  V30 329 H 28.981 -0.577885 -0.473347 0
M  V30 330 H 31.643 -1.85233 -0.606205 0
M  V30 331 H 30.739 -2.35402 -2.0492 0
M  V30 332 N 31.0401 0.771051 -1.3745 0
M  V30 333 C 32.3171 1.519 -1.23231 0
M  V30 334 C 32.6971 2.10383 0.173809 0
M  V30 335 O 32.0451 1.95583 1.18151 0
M  V30 336 C 32.2551 2.59933 -2.32886 0
M  V30 337 C 33.6031 3.27316 -2.70461 0
M  V30 338 O 34.6271 2.70228 -2.32068 0
M  V30 339 O 33.4861 4.30531 -3.36608 0
M  V30 340 H 30.5801 0.672803 -0.480901 0
M  V30 341 H 33.1261 0.807957 -1.49232 0
M  V30 342 H 31.8981 2.14842 -3.27045 0
M  V30 343 H 31.5211 3.38637 -2.08353 0
M  V30 344 N 32.5182 1.22032 0.997298 0
M  V30 345 C 33.9342 0.979326 1.26021 0
M  V30 346 C 34.1342 -0.32972 1.98784 0
M  V30 347 O 33.1902 -1.05345 2.29475 0
M  V30 348 C 34.5032 2.17509 2.07631 0
M  V30 349 C 36.0512 2.21817 2.2083 0
M  V30 350 C 36.5262 3.40933 3.05825 0
M  V30 351 N 38.0172 3.41067 3.13412 0
M  V30 352 C 38.7522 4.29885 3.79455 0
M  V30 353 N 38.2482 5.28914 4.47462 0
M  V30 354 N 40.0412 4.17673 3.76173 0
M  V30 355 H 32.1922 2.06202 0.509352 0
M  V30 356 H 34.4552 0.90334 0.287541 0
M  V30 357 H 34.1612 3.12415 1.61524 0
M  V30 358 H 34.0352 2.17206 3.08385 0
M  V30 359 H 36.4222 1.27462 2.66153 0
M  V30 360 H 36.5032 2.2616 1.1952 0
M  V30 361 H 36.1472 4.35586 2.61203 0
M  V30 362 H 36.0772 3.33829 4.07266 0
M  V30 363 H 38.5682 2.69406 2.65007 0
M  V30 364 H 38.8812 5.92973 4.95583 0
M  V30 365 H 37.2262 5.32831 4.46224 0
M  V30 366 H 40.4172 3.39564 3.22202 0
M  V30 367 H 40.5902 4.87098 4.27363 0
M  V30 368 N 33.9963 -1.19345 1.0293 0
M  V30 369 C 35.2433 -1.89038 0.726008 0
M  V30 370 C 35.5713 -1.79649 -0.745427 0
M  V30 371 O 34.8263 -1.18354 -1.55855 0
M  V30 372 C 35.1253 -3.39292 1.12319 0
M  V30 373 C 34.7913 -3.68885 2.59297 0
M  V30 374 C 33.4533 -3.76671 2.99453 0
M  V30 375 C 35.8053 -3.82178 3.54386 0
M  V30 376 C 33.1333 -3.9522 4.33611 0
M  V30 377 C 35.4853 -4.0224 4.88248 0
M  V30 378 C 34.1493 -4.08259 5.28092 0
M  V30 379 H 33.4193 -0.691739 0.265665 0
M  V30 380 H 36.0663 -1.41328 1.29223 0
M  V30 381 H 34.3713 -3.88903 0.475584 0
M  V30 382 H 36.0683 -3.91536 0.866037 0
M  V30 383 H 32.6583 -3.63433 2.27189 0
M  V30 384 H 36.8423 -3.75505 3.24514 0
M  V30 385 H 32.0983 -3.98119 4.64016 0
M  V30 386 H 36.2723 -4.11468 5.61843 0
M  V30 387 H 33.8993 -4.22384 6.32057 0
M  V30 388 N 35.4744 -0.807222 -1.35358 0
M  V30 389 C 36.8854 -0.44876 -1.81226 0
M  V30 390 C 37.2364 1.02929 -1.67033 0
M  V30 391 O 36.3614 1.79991 -1.20133 0
M  V30 392 C 36.9564 -0.807774 -3.2903 0
M  V30 393 C 35.5154 -0.501901 -3.73039 0
M  V30 394 C 34.6624 -1.03304 -2.57339 0
M  V30 395 H 37.6134 -0.998808 -1.23327 0
M  V30 396 H 37.6344 -0.10554 -3.80354 0
M  V30 397 H 37.1464 -1.88357 -3.39328 0
M  V30 398 H 35.2474 0.565128 -3.68289 0
M  V30 399 H 35.3604 -1.03497 -4.67787 0
M  V30 400 H 33.7244 -0.455339 -2.50597 0
M  V30 401 H 34.5074 -2.11496 -2.70415 0
M  V30 402 N 36.9525 1.47285 -0.560781 0
M  V30 403 C 37.9025 2.27073 0.205384 0
M  V30 404 C 38.8865 1.34569 0.882044 0
M  V30 405 O 40.0785 1.58899 0.77976 0
M  V30 406 C 37.2075 3.20414 1.23247 0
M  V30 407 C 36.2935 4.20399 0.559041 0
M  V30 408 N 36.6845 5.04423 -0.372927 0
M  V30 409 C 34.9825 4.38536 0.812522 0
M  V30 410 C 35.6835 5.76655 -0.764446 0
M  V30 411 N 34.6595 5.43471 -0.11848 0
M  V30 412 H 38.4615 2.89422 -0.511117 0
M  V30 413 H 35.9755 1.57868 -0.380975 0
M  V30 414 H 37.9725 3.76262 1.79534 0
M  V30 415 H 36.6325 2.59623 1.95002 0
M  V30 416 H 37.6435 5.1248 -0.747287 0
M  V30 417 H 34.3205 3.88913 1.51832 0
M  V30 418 H 35.7105 6.54238 -1.53045 0
M  V30 419 N 38.4306 0.297415 1.54768 0
M  V30 420 C 39.6766 -0.313376 2.00364 0
M  V30 421 C 40.0096 -1.53815 1.18553 0
M  V30 422 O 39.2846 -1.92739 0.261103 0
M  V30 423 C 39.5676 -0.673525 3.53745 0
M  V30 424 C 39.4206 0.560133 4.46299 0
M  V30 425 C 40.7396 -1.50143 4.13697 0
M  V30 426 H 37.8586 -0.112428 0.728374 0
M  V30 427 H 40.5006 0.4088 1.8555 0
M  V30 428 H 38.6506 -1.28881 3.665 0
M  V30 429 H 40.3226 1.19863 4.45455 0
M  V30 430 H 38.5656 1.19405 4.17043 0
M  V30 431 H 39.2366 0.26405 5.51368 0
M  V30 432 H 41.7126 -0.981588 4.04356 0
M  V30 433 H 40.5886 -1.72221 5.21182 0
M  V30 434 H 40.8496 -2.48952 3.65343 0
M  V30 435 N 39.9087 -1.5758 0.0250728 0
M  V30 436 C 41.1337 -1.96337 -0.668317 0
M  V30 437 C 41.5587 -0.901314 -1.651 0
M  V30 438 O 40.9167 0.138187 -1.80773 0
M  V30 439 C 40.9647 -3.34191 -1.35457 0
M  V30 440 O 40.0687 -3.30269 -2.46974 0
M  V30 441 H 39.4097 -0.640281 -0.175887 0
M  V30 442 H 41.9397 -2.0442 0.0857224 0
M  V30 443 H 41.9497 -3.70331 -1.71228 0
M  V30 444 H 40.6247 -4.11036 -0.634218 0
M  V30 445 H 39.2017 -3.05841 -2.13344 0
M  V30 446 N 41.3868 0.248026 -1.55636 0
M  V30 447 C 42.6638 0.998988 -1.68165 0
M  V30 448 C 43.0438 2.03409 -0.564621 0
M  V30 449 O 42.3918 2.24378 0.432076 0
M  V30 450 C 42.6018 1.63334 -3.0842 0
M  V30 451 C 43.9498 2.13562 -3.66983 0
M  V30 452 O 44.9738 1.73277 -3.11213 0
M  V30 453 O 43.8328 2.87526 -4.64749 0
M  V30 454 H 40.9268 0.464933 -0.683935 0
M  V30 455 H 43.4728 0.241902 -1.67967 0
M  V30 456 H 42.2448 0.884583 -3.8117 0
M  V30 457 H 41.8678 2.45666 -3.12624 0
M  V30 458 N 42.8649 1.48995 0.513639 0
M  V30 459 C 44.1129 1.57531 1.26604 0
M  V30 460 C 44.4339 0.258236 1.93283 0
M  V30 461 O 43.7039 -0.721502 1.8213 0
M  V30 462 H 42.2839 0.580387 0.470276 0
M  V30 463 H 44.9459 1.85552 0.596373 0
M  V30 464 H 44.0419 2.36486 2.03669 0
M  V30 465 N 44.343 -0.763751 1.37857 0
M  V30 466 C 45.568 -1.55805 1.36893 0
M  V30 467 C 45.993 -1.88054 -0.0416135 0
M  V30 468 O 45.351 -1.49825 -1.02089 0
M  V30 469 C 45.399 -2.84012 2.22192 0
M  V30 470 O 44.503 -3.78732 1.63204 0
M  V30 471 H 43.844 -0.471638 0.46739 0
M  V30 472 H 46.374 -0.944657 1.81487 0
M  V30 473 H 46.384 -3.33037 2.35691 0
M  V30 474 H 45.059 -2.59869 3.24716 0
M  V30 475 H 43.636 -3.37402 1.58791 0
M  V30 476 N 45.8211 -1.22559 -0.990812 0
M  V30 477 C 46.7691 -0.994798 -2.10253 0
M  V30 478 C 47.7631 0.0627798 -1.69284 0
M  V30 479 O 48.9691 -0.0898392 -1.79776 0
M  V30 480 H 45.3441 -0.304527 -0.687581 0
M  V30 481 H 47.3151 -1.93812 -2.26891 0
M  V30 482 C 46.0641 -0.591439 -3.42633 0
M  V30 483 H 45.3871 -1.3969 -3.74602 0
M  V30 484 H 46.8271 -0.469385 -4.21394 0
M  V30 485 C 45.2861 0.699232 -3.29564 0
M  V30 486 O 45.8161 1.75112 -3.61523 0
M  V30 487 N 44.0221 0.671182 -2.82743 0
M  V30 488 H 43.5691 -0.185136 -2.56934 0
M  V30 489 H 43.5271 1.53502 -2.7438 0
M  V30 490 N 47.2992 1.18797 -1.03562 0
M  V30 491 C 48.2462 2.22253 -0.622259 0
M  V30 492 C 49.2162 1.61987 0.36736 0
M  V30 493 O 50.4012 1.88986 0.262492 0
M  V30 494 C 47.5412 3.45097 0.0138462 0
M  V30 495 C 46.6542 4.19722 -1.02263 0
M  V30 496 C 45.7892 5.30009 -0.355573 0
M  V30 497 C 44.8282 5.96399 -1.37749 0
M  V30 498 N 43.9652 6.98234 -0.735766 0
M  V30 499 H 48.8052 2.56968 -1.50903 0
M  V30 500 H 46.3422 1.26245 -0.755017 0
M  V30 501 H 48.3002 4.15279 0.399948 0
M  V30 502 H 46.9302 3.11018 0.864158 0
M  V30 503 H 45.9822 3.48418 -1.52673 0
M  V30 504 H 47.2942 4.65227 -1.79903 0
M  V30 505 H 46.4482 6.0664 0.0850095 0
M  V30 506 H 45.1872 4.85592 0.452967 0
M  V30 507 H 44.1922 5.18512 -1.82826 0
M  V30 508 H 45.4172 6.42899 -2.18764 0
M  V30 509 H 43.3632 6.55979 0.0525597 0
M  V30 510 H 43.2802 7.41965 -1.44995 0
M  V30 511 H 44.5482 7.78845 -0.31941 0
M  V30 512 N 48.7773 0.814389 1.34928 0
M  V30 513 C 50.0073 0.41054 2.0248 0
M  V30 514 C 50.4153 -0.985625 1.61499 0
M  V30 515 O 49.7583 -1.64781 0.811976 0
M  V30 516 C 49.8203 0.423384 3.56998 0
M  V30 517 C 49.4843 1.77141 4.21272 0
M  V30 518 C 50.4813 2.73093 4.42398 0
M  V30 519 C 48.1663 2.05755 4.58225 0
M  V30 520 C 50.1603 3.95838 4.9959 0
M  V30 521 C 47.8473 3.28762 5.1513 0
M  V30 522 C 48.8453 4.23621 5.35755 0
M  V30 523 O 48.5333 5.44456 5.91458 0
M  V30 524 H 48.2653 0.163997 0.655806 0
M  V30 525 H 50.8193 1.10155 1.73364 0
M  V30 526 H 49.0493 -0.324276 3.85338 0
M  V30 527 H 50.7383 0.0407683 4.0588 0
M  V30 528 H 51.5043 2.5228 4.14222 0
M  V30 529 H 47.3833 1.32727 4.4148 0
M  V30 530 H 50.9273 4.69891 5.15605 0
M  V30 531 H 46.8243 3.49443 5.42734 0
M  V30 532 H 47.5923 5.4586 6.09901 0
M  V30 533 N 50.2554 -1.46986 0.568584 0
M  V30 534 C 51.5014 -2.02741 0.0488709 0
M  V30 535 C 51.8344 -1.44077 -1.30214 0
M  V30 536 O 51.1094 -0.600552 -1.84996 0
M  V30 537 C 51.3924 -3.60086 -0.032047 0
M  V30 538 C 51.2454 -4.29162 1.34686 0
M  V30 539 C 52.5644 -4.33838 -0.739798 0
M  V30 540 H 49.6834 -0.736749 0.0192338 0
M  V30 541 H 52.3254 -1.75289 0.733065 0
M  V30 542 H 50.4754 -3.83606 -0.61473 0
M  V30 543 H 52.1474 -4.16948 1.97362 0
M  V30 544 H 50.3904 -3.89073 1.91846 0
M  V30 545 H 51.0614 -5.37826 1.24285 0
M  V30 546 H 53.5374 -4.15378 -0.244939 0
M  V30 547 H 52.4134 -5.43537 -0.765406 0
M  V30 548 H 52.6744 -4.03875 -1.79827 0
M  V30 549 N 51.7335 -0.305618 -1.54608 0
M  V30 550 C 52.6635 0.561482 -2.26649 0
M  V30 551 C 53.6445 1.13415 -1.26772 0
M  V30 552 O 54.8295 1.16262 -1.55553 0
M  V30 553 C 51.9595 1.73122 -3.01075 0
M  V30 554 C 50.9135 1.2887 -4.08138 0
M  V30 555 C 50.2395 2.54396 -4.70305 0
M  V30 556 C 51.5395 0.416578 -5.20636 0
M  V30 557 H 53.2335 -0.0393902 -2.99374 0
M  V30 558 H 50.7795 -0.020385 -1.43986 0
M  V30 559 H 52.7325 2.34396 -3.50195 0
M  V30 560 H 51.4565 2.3584 -2.25936 0
M  V30 561 H 50.1155 0.698991 -3.59875 0
M  V30 562 H 49.7635 3.15439 -3.918 0
M  V30 563 H 49.4635 2.25486 -5.42614 0
M  V30 564 H 50.9875 3.16464 -5.2219 0
M  V30 565 H 52.4015 0.935116 -5.65622 0
M  V30 566 H 50.7985 0.221046 -5.99693 0
M  V30 567 H 51.8685 -0.557162 -4.81688 0
M  V30 568 N 53.2116 1.57565 -0.0334293 0
M  V30 569 C 54.1596 2.1164 0.96496 0
M  V30 570 C 55.1536 1.04398 1.33407 0
M  V30 571 O 56.3596 1.22828 1.3158 0
M  V30 572 H 52.7346 0.676222 0.32898 0
M  V30 573 H 54.7056 2.94455 0.483614 0
M  V30 574 C 53.4546 2.66207 2.23672 0
M  V30 575 H 52.7776 3.48378 1.96145 0
M  V30 576 H 54.2176 3.07685 2.9173 0
M  V30 577 C 52.6766 1.59151 2.96939 0
M  V30 578 O 53.2066 0.993858 3.89211 0
M  V30 579 N 51.4126 1.31093 2.59351 0
M  V30 580 H 50.9596 1.7988 1.84393 0
M  V30 581 H 50.9176 0.596889 3.08682 0
M  V30 582 N 54.6897 -0.239769 1.55765 0
M  V30 583 C 55.9667 -0.990056 1.68693 0
M  V30 584 C 56.3467 -2.03107 0.5754 0
M  V30 585 O 55.6947 -2.24604 -0.42017 0
M  V30 586 C 55.9047 -1.61696 3.09282 0
M  V30 587 C 57.2527 -2.11613 3.6811 0
M  V30 588 O 58.2767 -1.71624 3.12127 0
M  V30 589 O 57.1357 -2.85057 4.66267 0
M  V30 590 H 54.2297 -0.461299 0.686391 0
M  V30 591 H 56.7757 -0.232991 1.68093 0
M  V30 592 H 55.5477 -0.864357 3.81634 0
M  V30 593 H 55.1707 -2.44005 3.13923 0
M  V30 594 N 56.1678 -1.49265 -0.50573 0
M  V30 595 C 57.1158 -1.66065 -1.62866 0
M  V30 596 C 58.1098 -0.526636 -1.61006 0
M  V30 597 O 59.3158 -0.706126 -1.65571 0
M  V30 598 H 55.6908 -0.52356 -0.539805 0
M  V30 599 H 57.6618 -2.60329 -1.45848 0
M  V30 600 C 56.4108 -1.74008 -3.01026 0
M  V30 601 H 55.7338 -2.6064 -3.03161 0
M  V30 602 H 57.1738 -1.89798 -3.79147 0
M  V30 603 C 55.6328 -0.483868 -3.33407 0
M  V30 604 O 56.1628 0.392548 -3.99777 0
M  V30 605 N 54.3688 -0.348236 -2.88506 0
M  V30 606 H 53.9158 -1.06242 -2.34671 0
M  V30 607 H 53.8738 0.491204 -3.10539 0
M  V30 608 N 57.6459 0.756429 -1.3826 0
M  V30 609 C 58.8739 1.54565 -1.3754 0
M  V30 610 C 59.2889 1.88767 0.0355331 0
M  V30 611 O 58.6459 1.52572 1.0014 0
M  V30 612 C 58.6969 2.84654 -2.22833 0
M  V30 613 O 58.4179 2.51912 -3.5843 0
M  V30 614 C 59.9189 3.78807 -2.30261 0
M  V30 615 H 57.1389 0.478353 -0.470553 0
M  V30 616 H 59.6829 0.936381 -1.81803 0
M  V30 617 H 57.8379 3.41965 -1.8204 0
M  V30 618 H 58.2519 3.35325 -4.03308 0
M  V30 619 H 59.7259 4.67045 -2.94233 0
M  V30 620 H 60.2029 4.19038 -1.31545 0
M  V30 621 H 60.8089 3.2742 -2.71433 0
M  V30 622 N 59.124 1.23083 0.984299 0
M  V30 623 C 60.401 0.9689 1.69917 0
M  V30 624 C 60.781 -0.513604 2.04757 0
M  V30 625 O 60.129 -1.48383 1.73767 0
M  V30 626 C 60.339 1.87518 2.94343 0
M  V30 627 C 61.687 2.13636 3.6694 0
M  V30 628 O 62.711 1.85036 3.04368 0
M  V30 629 O 61.57 2.62119 4.79537 0
M  V30 630 H 58.664 0.365095 0.742048 0
M  V30 631 H 61.21 1.34107 1.03987 0
M  V30 632 H 59.982 2.87756 2.65164 0
M  V30 633 H 59.605 1.50514 3.6801 0
M  V30 634 N 60.6021 -1.18246 1.0419 0
M  V30 635 C 61.8481 -1.88793 0.75689 0
M  V30 636 C 62.2031 -1.78909 -0.707767 0
M  V30 637 O 61.4961 -1.1794 -1.50999 0
M  V30 638 C 61.6901 -3.38082 1.15911 0
M  V30 639 C 61.5191 -3.62496 2.66133 0
M  V30 640 C 60.2891 -3.7979 3.33298 0
M  V30 641 C 62.4871 -3.62976 3.64353 0
M  V30 642 N 60.4691 -3.91955 4.72487 0
M  V30 643 C 61.8401 -3.80869 4.89222 0
M  V30 644 C 63.8951 -3.46071 3.57965 0
M  V30 645 C 62.5981 -3.83608 6.08471 0
M  V30 646 C 64.6241 -3.50093 4.76643 0
M  V30 647 C 63.9861 -3.68484 6.00332 0
M  V30 648 H 60.0851 -0.709406 0.32904 0
M  V30 649 H 62.6691 -1.42022 1.33183 0
M  V30 650 H 60.8401 -3.83544 0.612238 0
M  V30 651 H 62.5721 -3.96202 0.824989 0
M  V30 652 H 59.3271 -3.79224 2.83701 0
M  V30 653 H 59.7511 -4.01857 5.44831 0
M  V30 654 H 64.3931 -3.30797 2.63311 0
M  V30 655 H 62.1111 -3.97669 7.0348 0
M  V30 656 H 65.6971 -3.38285 4.73344 0
M  V30 657 H 64.5771 -3.71488 6.90627 0
M  V30 658 N 62.0802 -0.821533 -1.34494 0
M  V30 659 C 63.3082 -0.421884 -2.02553 0
M  V30 660 C 63.7232 0.971745 -1.61872 0
M  V30 661 O 63.0802 1.62864 -0.823496 0
M  V30 662 C 63.1312 -0.51285 -3.57844 0
M  V30 663 O 62.8522 -1.85155 -3.97051 0
M  V30 664 C 64.3532 -0.107921 -4.43169 0
M  V30 665 H 61.5732 -0.169482 -0.649243 0
M  V30 666 H 64.1172 -1.1093 -1.71798 0
M  V30 667 H 62.2722 0.126474 -3.87193 0
M  V30 668 H 62.6862 -1.82482 -4.91732 0
M  V30 669 H 64.1602 -0.222657 -5.51551 0
M  V30 670 H 64.6372 0.948401 -4.28838 0
M  V30 671 H 65.2432 -0.720989 -4.19144 0
M  V30 672 N 63.5583 1.46682 -0.576371 0
M  V30 673 C 64.8353 1.95599 0.00703437 0
M  V30 674 C 65.2153 1.51904 1.46589 0
M  V30 675 O 64.5633 0.766755 2.15251 0
M  V30 676 C 64.7733 3.4864 -0.158404 0
M  V30 677 C 66.1213 4.24594 -0.0229439 0
M  V30 678 O 67.1453 3.56094 -0.0869173 0
M  V30 679 O 66.0043 5.46373 0.118015 0
M  V30 680 H 63.0983 0.825275 0.053384 0
M  V30 681 H 65.6443 1.56996 -0.644244 0
M  V30 682 H 64.4163 3.7331 -1.17282 0
M  V30 683 H 64.0393 3.94057 0.5296 0
M  V30 684 N 65.0364 0.313813 1.54444 0
M  V30 685 C 66.2844 -0.291099 1.99993 0
M  V30 686 C 66.6054 -1.53418 1.20366 0
M  V30 687 O 65.8754 -1.93544 0.302927 0
M  V30 688 H 64.4554 -0.110552 0.738774 0
M  V30 689 H 67.1174 0.428106 1.9014 0
M  V30 690 H 66.2134 -0.554268 3.07139 0
M  V30 691 N 66.5145 -1.57545 0.0417849 0
M  V30 692 C 67.7615 -1.92317 -0.634082 0
M  V30 693 C 68.0895 -0.919334 -1.71402 0
M  V30 694 O 67.3445 0.0698253 -1.95575 0
M  V30 695 C 67.6435 -3.33794 -1.27735 0
M  V30 696 C 67.3095 -4.49716 -0.326543 0
M  V30 697 C 65.9715 -4.81156 -0.0648814 0
M  V30 698 C 68.3235 -5.20182 0.325623 0
M  V30 699 C 65.6515 -5.80414 0.856539 0
M  V30 700 C 68.0035 -6.20424 1.23518 0
M  V30 701 C 66.6675 -6.50298 1.5056 0
M  V30 702 H 65.9375 -0.703736 -0.232027 0
M  V30 703 H 68.5845 -1.91205 0.106259 0
M  V30 704 H 66.8895 -3.31228 -2.09274 0
M  V30 705 H 68.5865 -3.57975 -1.80707 0
M  V30 706 H 65.1765 -4.25176 -0.540665 0
M  V30 707 H 69.3605 -4.96112 0.136546 0
M  V30 708 H 64.6165 -6.019 1.07363 0
M  V30 709 H 68.7905 -6.74141 1.74664 0
M  V30 710 H 66.4175 -7.27025 2.22123 0
M  V30 711 N 67.9926 0.231505 -1.5589 0
M  V30 712 C 69.2386 0.954429 -1.79617 0
M  V30 713 C 69.5936 1.82367 -0.613199 0
M  V30 714 O 68.8866 1.87524 0.393094 0
M  V30 715 C 69.0806 1.83577 -3.0665 0
M  V30 716 C 68.9096 1.05334 -4.3719 0
M  V30 717 C 67.6796 0.75225 -4.99669 0
M  V30 718 C 69.8776 0.423444 -5.12554 0
M  V30 719 N 67.8596 -0.052627 -6.13877 0
M  V30 720 C 69.2306 -0.245287 -6.19515 0
M  V30 721 C 71.2856 0.335466 -4.96769 0
M  V30 722 C 69.9886 -0.993566 -7.12405 0
M  V30 723 C 72.0146 -0.399321 -5.9005 0
M  V30 724 C 71.3766 -1.05663 -6.9643 0
M  V30 725 H 67.4756 0.329846 -0.709031 0
M  V30 726 H 70.0596 0.226172 -1.93382 0
M  V30 727 H 68.2306 2.53592 -2.94186 0
M  V30 728 H 69.9626 2.49541 -3.18608 0
M  V30 729 H 66.7176 1.06783 -4.61405 0
M  V30 730 H 67.1416 -0.443609 -6.75545 0
M  V30 731 H 71.7836 0.829311 -4.14587 0
M  V30 732 H 69.5016 -1.49896 -7.94076 0
M  V30 733 H 73.0876 -0.468265 -5.79913 0
M  V30 734 H 71.9676 -1.61612 -7.67366 0
M  V30 735 N 69.4707 1.49531 0.497807 0
M  V30 736 C 70.6957 1.63159 1.28039 0
M  V30 737 C 71.1207 0.30418 1.85624 0
M  V30 738 O 70.4787 -0.728618 1.66015 0
M  V30 739 C 70.5267 2.70537 2.38416 0
M  V30 740 O 69.6307 2.29931 3.42353 0
M  V30 741 H 68.9717 0.546001 0.377861 0
M  V30 742 H 71.5017 1.9574 0.59558 0
M  V30 743 H 71.5117 2.92802 2.84132 0
M  V30 744 H 70.1867 3.6689 1.95869 0
M  V30 745 H 68.7637 2.18009 3.02533 0
M  V30 746 N 70.9488 -0.749086 1.3866 0
M  V30 747 C 72.1968 -1.50535 1.34847 0
M  V30 748 C 72.5178 -1.94909 -0.0595016 0
M  V30 749 O 71.7878 -1.67973 -1.00806 0
M  V30 750 H 70.3678 -0.558395 0.49619 0
M  V30 751 H 73.0298 -0.890165 1.73384 0
M  V30 752 H 72.1258 -2.39413 2.00219 0
M  V30 753 N 72.4269 -1.23603 -0.977757 0
M  V30 754 C 73.6759 -1.06377 -1.71368 0
M  V30 755 C 73.9889 0.399062 -1.91486 0
M  V30 756 O 75.1949 0.691312 -2.62551 0
M  V30 757 C 73.6509 -1.85512 -3.08404 0
M  V30 758 C 73.2589 -3.36141 -2.96164 0
M  V30 759 C 75.0029 -1.76783 -3.85938 0
M  V30 760 C 72.9099 -4.07659 -4.28449 0
M  V30 761 H 71.8399 -0.394452 -0.642591 0
M  V30 762 H 74.4909 -1.47594 -1.09034 0
M  V30 763 H 72.8729 -1.37103 -3.71509 0
M  V30 764 H 74.0469 -3.92056 -2.42133 0
M  V30 765 H 72.3619 -3.45712 -2.32104 0
M  V30 766 H 74.9589 -2.27526 -4.83876 0
M  V30 767 H 75.3019 -0.731116 -4.0983 0
M  V30 768 H 75.8349 -2.22818 -3.2954 0
M  V30 769 H 72.5739 -5.11648 -4.09752 0
M  V30 770 H 72.0939 -3.5653 -4.82334 0
M  V30 771 H 73.7729 -4.141 -4.97122 0
M  V30 772 N 73.905 1.17692 -1.04816 0
M  V30 773 C 74.835 2.23777 -0.666791 0
M  V30 774 C 75.816 1.66796 0.33361 0
M  V30 775 O 77.001 1.93039 0.212042 0
M  V30 776 C 74.131 3.47281 -0.0367933 0
M  V30 777 C 73.085 4.17059 -0.961546 0
M  V30 778 C 72.411 5.34342 -0.195626 0
M  V30 779 C 73.711 4.69713 -2.28402 0
M  V30 780 H 75.405 2.55933 -1.55367 0
M  V30 781 H 72.951 1.23019 -0.748484 0
M  V30 782 H 74.904 4.20706 0.241775 0
M  V30 783 H 73.628 3.14381 0.885004 0
M  V30 784 H 72.287 3.45541 -1.22462 0
M  V30 785 H 71.935 4.97692 0.728816 0
M  V30 786 H 71.635 5.81966 -0.811775 0
M  V30 787 H 73.159 6.10553 0.0757473 0
M  V30 788 H 74.573 5.34794 -2.06563 0
M  V30 789 H 72.97 5.279 -2.8538 0
M  V30 790 H 74.04 3.86726 -2.92525 0
M  V30 791 N 75.3831 0.828654 1.34056 0
M  V30 792 C 76.6291 0.429279 1.98818 0
M  V30 793 C 76.9841 -0.998011 1.64492 0
M  V30 794 O 76.2771 -1.68652 0.909228 0
M  V30 795 C 76.4711 0.575226 3.52741 0
M  V30 796 C 76.3001 2.01515 4.02022 0
M  V30 797 C 75.0701 2.64825 4.30344 0
M  V30 798 C 77.2681 2.98261 4.18981 0
M  V30 799 N 75.2501 3.99998 4.65698 0
M  V30 800 C 76.6211 4.18356 4.57578 0
M  V30 801 C 78.6761 2.94802 4.01243 0
M  V30 802 C 77.3791 5.35454 4.80293 0
M  V30 803 C 79.4051 4.11121 4.25128 0
M  V30 804 C 78.7671 5.29969 4.64018 0
M  V30 805 H 74.8661 0.205304 0.754569 0
M  V30 806 H 77.4501 1.07457 1.62361 0
M  V30 807 H 75.6211 -0.0401962 3.88379 0
M  V30 808 H 77.3531 0.148292 4.04428 0
M  V30 809 H 74.1081 2.16027 4.21461 0
M  V30 810 H 74.5321 4.69653 4.87601 0
M  V30 811 H 79.1741 2.04054 3.70299 0
M  V30 812 H 76.8921 6.26755 5.10102 0
M  V30 813 H 80.4781 4.0985 4.12934 0
M  V30 814 H 79.3581 6.18479 4.82134 0
M  V30 815 N 76.8612 -1.46375 0.584142 0
M  V30 816 C 77.7912 -2.33103 -0.136037 0
M  V30 817 C 78.7722 -1.45431 -0.882255 0
M  V30 818 O 79.9572 -1.74246 -0.857434 0
M  V30 819 C 77.0872 -3.27731 -1.14933 0
M  V30 820 C 76.0412 -4.24855 -0.517862 0
M  V30 821 C 75.3672 -5.09001 -1.63773 0
M  V30 822 C 76.6672 -5.19439 0.545886 0
M  V30 823 H 78.3612 -2.93568 0.588086 0
M  V30 824 H 75.9072 -1.41166 0.284259 0
M  V30 825 H 77.8602 -3.87261 -1.66153 0
M  V30 826 H 76.5842 -2.65377 -1.90375 0
M  V30 827 H 75.2432 -3.6659 -0.0267361 0
M  V30 828 H 74.8912 -4.43031 -2.38185 0
M  V30 829 H 74.5912 -5.74777 -1.22085 0
M  V30 830 H 76.1152 -5.71396 -2.15266 0
M  V30 831 H 77.5292 -5.73177 0.118704 0
M  V30 832 H 75.9262 -5.93566 0.88317 0
M  V30 833 H 76.9962 -4.63285 1.43162 0
M  V30 834 N 78.3393 -0.321999 -1.54275 0
M  V30 835 C 79.5793 0.281657 -2.0245 0
M  V30 836 C 79.9433 1.49468 -1.20513 0
M  V30 837 O 81.1443 2.17109 -1.58484 0
M  V30 838 C 79.4153 0.609014 -3.52173 0
M  V30 839 S 80.9743 1.19255 -4.22284 0
M  V30 840 H 77.7923 0.0852825 -0.705867 0
M  V30 841 H 80.3943 -0.454758 -1.90137 0
M  V30 842 H 79.0983 -0.281982 -4.0943 0
M  V30 843 H 78.6293 1.37567 -3.68563 0
M  V30 844 H 80.6443 2.47944 -4.29812 0
M  V30 845 N 79.8174 1.5752 -0.0501392 0
M  V30 846 C 81.0474 1.96678 0.632573 0
M  V30 847 C 81.4554 0.926298 1.64974 0
M  V30 848 O 80.7984 -0.09802 1.83438 0
M  V30 849 C 80.8604 3.32068 1.37735 0
M  V30 850 C 80.5244 4.54076 0.516131 0
M  V30 851 C 81.5214 5.19445 -0.217357 0
M  V30 852 C 79.2064 5.00304 0.44736 0
M  V30 853 C 81.2004 6.29378 -1.00807 0
M  V30 854 C 78.8874 6.10114 -0.347038 0
M  V30 855 C 79.8854 6.74512 -1.07344 0
M  V30 856 O 79.5734 7.82211 -1.85477 0
M  V30 857 H 79.3054 0.652193 0.177821 0
M  V30 858 H 81.8594 2.05091 -0.112543 0
M  V30 859 H 80.0894 3.20206 2.16807 0
M  V30 860 H 81.7784 3.55981 1.95019 0
M  V30 861 H 82.5444 4.84689 -0.173688 0
M  V30 862 H 78.4234 4.49971 1.00235 0
M  V30 863 H 81.9674 6.79575 -1.57556 0
M  V30 864 H 77.8644 6.44307 -0.392349 0
M  V30 865 H 78.6324 7.98982 -1.77678 0
M  V30 866 N 81.2955 -0.223234 1.56011 0
M  V30 867 C 82.2055 -1.29766 1.95443 0
M  V30 868 C 83.2215 -1.51373 0.858028 0
M  V30 869 O 84.3975 -1.64536 1.16146 0
M  V30 870 C 81.4625 -2.62772 2.26167 0
M  V30 871 C 80.5235 -2.49482 3.49367 0
M  V30 872 C 79.7565 -3.76145 3.78616 0
M  V30 873 O 79.9795 -4.79087 3.09568 0
M  V30 874 O 78.9135 -3.73358 4.72109 0
M  V30 875 H 82.7395 -0.99309 2.87004 0
M  V30 876 H 80.3245 -0.425958 1.43199 0
M  V30 877 H 82.2065 -3.41327 2.47131 0
M  V30 878 H 80.8815 -2.92913 1.37781 0
M  V30 879 H 79.7885 -1.69133 3.33684 0
M  V30 880 H 81.1215 -2.2428 4.38131 0
M  V30 881 N 82.7736 -1.49793 -0.48987 0
M  V30 882 C 84.0036 -1.6333 -1.26518 0
M  V30 883 C 84.4116 -0.308392 -1.8667 0
M  V30 884 O 83.7546 0.717512 -1.69108 0
M  V30 885 C 83.8166 -2.6522 -2.4269 0
M  V30 886 C 83.4806 -4.09279 -2.03321 0
M  V30 887 C 84.4776 -4.95738 -1.56652 0
M  V30 888 C 82.1626 -4.55082 -2.12616 0
M  V30 889 C 84.1566 -6.26041 -1.19795 0
M  V30 890 C 81.8436 -5.85396 -1.75371 0
M  V30 891 C 82.8416 -6.707 -1.29036 0
M  V30 892 O 82.5296 -7.98584 -0.92299 0
M  V30 893 H 82.2616 -0.552502 -0.389509 0
M  V30 894 H 84.8156 -1.96642 -0.593381 0
M  V30 895 H 83.0456 -2.27112 -3.12981 0
M  V30 896 H 84.7346 -2.68171 -3.04695 0
M  V30 897 H 85.5006 -4.61575 -1.48908 0
M  V30 898 H 81.3796 -3.88844 -2.47631 0
M  V30 899 H 84.9236 -6.92578 -0.835582 0
M  V30 900 H 80.8206 -6.19085 -1.82768 0
M  V30 901 H 81.5886 -8.11692 -1.05349 0
M  V30 902 N 84.2517 0.741722 -1.39055 0
M  V30 903 C 85.4797 1.53098 -1.39171 0
M  V30 904 C 85.8947 1.88794 0.0155099 0
M  V30 905 O 85.2517 1.53626 0.985159 0
M  V30 906 C 85.3027 2.82274 -2.2584 0
M  V30 907 O 85.0237 2.48097 -3.61081 0
M  V30 908 C 86.5247 3.76343 -2.34266 0
M  V30 909 H 83.7447 0.473335 -0.4756 0
M  V30 910 H 86.2887 0.917045 -1.82785 0
M  V30 911 H 84.4437 3.40015 -1.85656 0
M  V30 912 H 84.8577 3.31029 -4.06842 0
M  V30 913 H 86.3317 4.63898 -2.9917 0
M  V30 914 H 86.8087 4.17619 -1.35982 0
M  V30 915 H 87.4147 3.24523 -2.74891 0
M  V30 916 N 85.7298 1.2412 0.971189 0
M  V30 917 C 86.9778 1.07668 1.71032 0
M  V30 918 C 87.2988 -0.385797 1.91146 0
M  V30 919 O 86.5688 -1.27569 1.4867 0
M  V30 920 H 85.1488 0.395429 0.633755 0
M  V30 921 H 87.8108 1.55984 1.16855 0
M  V30 922 H 86.9068 1.57195 2.69622 0
M  V30 923 N 87.2079 -1.17134 1.05439 0
M  V30 924 C 88.4849 -1.83411 0.679699 0
M  V30 925 C 88.8649 -1.9368 -0.839726 0
M  V30 926 O 88.2129 -1.47325 -1.74664 0
M  V30 927 C 88.4229 -3.20918 1.37159 0
M  V30 928 C 89.7709 -3.96796 1.51123 0
M  V30 929 O 90.7949 -3.30406 1.3308 0
M  V30 930 O 89.6539 -5.15778 1.80651 0
M  V30 931 H 86.7479 -0.79154 0.239569 0
M  V30 932 H 89.2939 -1.24411 1.15413 0
M  V30 933 H 88.0659 -3.08428 2.40807 0
M  V30 934 H 87.6889 -3.87587 0.886674 0
M  V30 935 N 88.686 -0.835752 -1.33615 0
M  V30 936 C 89.596 -0.269088 -2.33052 0
M  V30 937 C 90.612 0.603251 -1.63208 0
M  V30 938 O 91.788 0.508112 -1.94885 0
M  V30 939 C 88.853 0.549091 -3.42324 0
M  V30 940 C 87.914 -0.347156 -4.27894 0
M  V30 941 C 87.147 0.43207 -5.31948 0
M  V30 942 O 87.37 1.66409 -5.45586 0
M  V30 943 O 86.304 -0.192298 -6.01593 0
M  V30 944 H 90.13 -1.09243 -2.83372 0
M  V30 945 H 87.715 -0.598198 -1.36901 0
M  V30 946 H 89.597 1.01414 -4.09015 0
M  V30 947 H 88.272 1.34955 -2.94226 0
M  V30 948 H 87.179 -0.859979 -3.64081 0
M  V30 949 H 88.512 -1.1123 -4.79467 0
M  V30 950 N 90.1641 1.46063 -0.591896 0
M  V30 951 C 91.0961 2.28539 0.174001 0
M  V30 952 C 92.1091 1.39047 0.846753 0
M  V30 953 O 93.2981 1.63564 0.714774 0
M  V30 954 C 90.3981 3.14347 1.26645 0
M  V30 955 C 89.5711 4.32021 0.683856 0
M  V30 956 C 88.6301 4.99157 1.66518 0
M  V30 957 O 87.6561 5.56458 1.19763 0
M  V30 958 N 88.8581 4.97005 2.99943 0
M  V30 959 H 91.6231 2.94911 -0.533633 0
M  V30 960 H 89.1841 1.56077 -0.430294 0
M  V30 961 H 91.1761 3.56125 1.92242 0
M  V30 962 H 89.7461 2.49988 1.87682 0
M  V30 963 H 88.9661 3.93915 -0.1498 0
M  V30 964 H 90.2541 5.08059 0.274567 0
M  V30 965 H 89.6521 4.51714 3.40545 0
M  V30 966 H 88.2091 5.42696 3.61004 0
M  V30 967 N 91.6422 0.330177 1.54103 0
M  V30 968 C 92.8722 -0.271784 2.04805 0
M  V30 969 C 93.2802 -1.45816 1.20559 0
M  V30 970 O 92.6232 -1.82247 0.2306 0
M  V30 971 C 92.6852 -0.763238 3.51305 0
M  V30 972 C 92.3492 0.301705 4.56003 0
M  V30 973 C 93.3462 1.13999 5.07248 0
M  V30 974 C 91.0312 0.451793 5.00264 0
M  V30 975 C 93.0252 2.11402 6.01322 0
M  V30 976 C 90.7122 1.42924 5.94151 0
M  V30 977 C 91.7102 2.25882 6.44567 0
M  V30 978 O 91.3982 3.21965 7.3661 0
M  V30 979 H 91.1302 -0.058693 0.673447 0
M  V30 980 H 93.6842 0.476395 1.99799 0
M  V30 981 H 91.9142 -1.56244 3.5373 0
M  V30 982 H 93.6032 -1.28427 3.85047 0
M  V30 983 H 94.3692 1.03505 4.73827 0
M  V30 984 H 90.2482 -0.184044 4.60632 0
M  V30 985 H 93.7922 2.76192 6.40596 0
M  V30 986 H 89.6892 1.53479 6.26988 0
M  V30 987 H 90.4572 3.17281 7.54503 0
M  V30 988 N 93.1203 -1.57491 0.0584922 0
M  V30 989 C 94.5363 -1.56792 -0.298091 0
M  V30 990 C 94.7363 -1.06679 -1.70944 0
M  V30 991 O 93.7923 -0.726672 -2.41818 0
M  V30 992 C 95.1053 -3.00461 -0.119879 0
M  V30 993 C 96.6533 -3.1242 -0.190428 0
M  V30 994 C 97.1283 -4.57982 -0.0406567 0
M  V30 995 N 98.6193 -4.63099 -0.0966958 0
M  V30 996 C 99.3543 -5.734 -0.00502943 0
M  V30 997 N 98.8503 -6.9266 0.139402 0
M  V30 998 N 100.643 -5.62067 -0.0611391 0
M  V30 999 H 92.7943 -1.88386 0.98105 0
M  V30 1000 H 95.0573 -0.867865 0.381463 0
M  V30 1001 H 94.7633 -3.41187 0.85349 0
M  V30 1002 H 94.6373 -3.66843 -0.877833 0
M  V30 1003 H 97.0243 -2.71589 -1.15427 0
M  V30 1004 H 97.1053 -2.48702 0.598405 0
M  V30 1005 H 96.7493 -4.995 0.919897 0
M  V30 1006 H 96.6793 -5.19715 -0.848727 0
M  V30 1007 H 99.1703 -3.77331 -0.207277 0
M  V30 1008 H 99.4833 -7.72536 0.201855 0
M  V30 1009 H 97.8283 -6.94781 0.174586 0
M  V30 1010 H 101.019 -4.67782 -0.172583 0
M  V30 1011 H 101.192 -6.47999 0.0137562 0
M  V30 1012 N 94.5984 0.214957 -1.56127 0
M  V30 1013 C 95.5084 1.28727 -1.96129 0
M  V30 1014 C 96.5244 1.50916 -0.866044 0
M  V30 1015 O 97.7004 1.63918 -1.17016 0
M  V30 1016 C 94.7654 2.61569 -2.27558 0
M  V30 1017 C 93.8264 2.47625 -3.50685 0
M  V30 1018 C 93.0594 3.74132 -3.80606 0
M  V30 1019 O 93.2824 4.77438 -3.12104 0
M  V30 1020 O 92.2164 3.70849 -4.74083 0
M  V30 1021 H 96.0424 0.977855 -2.87527 0
M  V30 1022 H 93.6274 0.418358 -1.43423 0
M  V30 1023 H 95.5094 3.40012 -2.48938 0
M  V30 1024 H 94.1844 2.92178 -1.39332 0
M  V30 1025 H 93.0914 1.67361 -3.34576 0
M  V30 1026 H 94.4244 2.21954 -4.39315 0
M  V30 1027 N 96.0765 1.50051 0.48192 0
M  V30 1028 C 97.3245 1.60181 1.23234 0
M  V30 1029 C 97.6455 0.299176 1.92691 0
M  V30 1030 O 96.9155 -0.682708 1.83619 0
M  V30 1031 H 95.4955 0.590232 0.457859 0
M  V30 1032 H 98.1575 1.86775 0.556881 0
M  V30 1033 H 97.2535 2.40753 1.98607 0
M  V30 1034 N 97.5546 -0.734337 1.39446 0
M  V30 1035 C 98.5176 -1.83004 1.37994 0
M  V30 1036 C 99.5176 -1.58397 0.276938 0
M  V30 1037 O 100.708 -1.65785 0.534875 0
M  V30 1038 C 97.8396 -3.20802 1.1532 0
M  V30 1039 H 99.0326 -1.85694 2.35494 0
M  V30 1040 H 96.5856 -0.938059 1.25021 0
M  V30 1041 H 97.3206 -3.23772 0.185036 0
M  V30 1042 H 97.1056 -3.4006 1.95197 0
M  V30 1043 H 98.5956 -4.00862 1.17046 0
M  V30 1044 N 99.0327 -1.24633 -0.964593 0
M  V30 1045 C 100.279 -1.08949 -1.71049 0
M  V30 1046 C 100.612 0.370302 -1.90637 0
M  V30 1047 O 99.8867 1.27349 -1.47011 0
M  V30 1048 C 100.17 -1.83329 -3.0994 0
M  V30 1049 C 100.023 -3.37077 -2.97824 0
M  V30 1050 C 101.342 -1.60846 -4.09654 0
M  V30 1051 H 98.4607 -0.397178 -0.620821 0
M  V30 1052 H 101.103 -1.5334 -1.12191 0
M  V30 1053 H 99.2527 -1.45597 -3.60186 0
M  V30 1054 H 100.925 -3.84425 -2.5498 0
M  V30 1055 H 99.1677 -3.65298 -2.33965 0
M  V30 1056 H 99.8387 -3.84324 -3.96231 0
M  V30 1057 H 102.315 -1.93674 -3.68279 0
M  V30 1058 H 101.191 -2.1534 -5.04896 0
M  V30 1059 H 101.452 -0.547434 -4.38698 0
M  V30 1060 N 100.511 1.16574 -1.06058 0
M  V30 1061 C 101.927 1.3904 -0.783585 0
M  V30 1062 C 102.127 1.91784 0.618145 0
M  V30 1063 O 101.183 2.11511 1.37911 0
M  V30 1064 C 102.496 2.37329 -1.84649 0
M  V30 1065 C 104.044 2.51018 -1.86973 0
M  V30 1066 C 104.519 3.52588 -2.92311 0
M  V30 1067 N 106.01 3.60113 -2.91329 0
M  V30 1068 C 106.745 4.38486 -3.69482 0
M  V30 1069 N 106.241 5.20302 -4.57447 0
M  V30 1070 N 108.034 4.33446 -3.57885 0
M  V30 1071 H 100.185 0.806725 -1.96483 0
M  V30 1072 H 102.448 0.417117 -0.851303 0
M  V30 1073 H 102.154 2.05663 -2.85299 0
M  V30 1074 H 102.028 3.36946 -1.6955 0
M  V30 1075 H 104.415 2.81989 -0.869827 0
M  V30 1076 H 104.496 1.51445 -2.0615 0
M  V30 1077 H 104.14 3.22354 -3.92492 0
M  V30 1078 H 104.07 4.51886 -2.70383 0
M  V30 1079 H 106.561 3.01707 -2.27555 0
M  V30 1080 H 106.874 5.77311 -5.13743 0
M  V30 1081 H 105.219 5.19653 -4.61503 0
M  V30 1082 H 108.41 3.68586 -2.88551 0
M  V30 1083 H 108.583 4.94279 -4.19037 0
M  V30 1084 N 101.989 0.842826 1.3317 0
M  V30 1085 C 103.217 0.454055 2.01856 0
M  V30 1086 C 103.632 -0.94587 1.63397 0
M  V30 1087 O 102.989 -1.61534 0.849302 0
M  V30 1088 C 103.04 0.569715 3.56982 0
M  V30 1089 O 102.761 1.91448 3.94055 0
M  V30 1090 C 104.262 0.178412 4.42941 0
M  V30 1091 H 101.482 0.17979 0.646465 0
M  V30 1092 H 104.026 1.1365 1.70012 0
M  V30 1093 H 102.181 -0.0648587 3.87346 0
M  V30 1094 H 102.595 1.90282 4.88767 0
M  V30 1095 H 104.069 0.310376 5.51127 0
M  V30 1096 H 104.546 -0.880056 4.30293 0
M  V30 1097 H 105.152 0.787579 4.17944 0
M  V30 1098 N 103.467 -1.45747 0.599634 0
M  V30 1099 C 104.713 -2.02592 0.0918643 0
M  V30 1100 C 105.046 -1.46806 -1.27128 0
M  V30 1101 O 104.321 -0.639658 -1.83681 0
M  V30 1102 C 104.604 -3.60073 0.0443398 0
M  V30 1103 C 104.457 -4.26208 1.43759 0
M  V30 1104 C 105.776 -4.35309 -0.647608 0
M  V30 1105 H 102.895 -0.736175 0.034857 0
M  V30 1106 H 105.537 -1.73694 0.770081 0
M  V30 1107 H 103.687 -3.84823 -0.533224 0
M  V30 1108 H 105.359 -4.12668 2.06162 0
M  V30 1109 H 103.602 -3.84916 2.00056 0
M  V30 1110 H 104.273 -5.35069 1.35665 0
M  V30 1111 H 106.749 -4.15805 -0.156776 0
M  V30 1112 H 105.625 -5.45038 -0.649942 0
M  V30 1113 H 105.886 -4.07598 -1.71219 0
M  V30 1114 N 104.945 -0.338344 -1.53925 0
M  V30 1115 C 105.908 0.508299 -2.23493 0
M  V30 1116 C 106.908 1.03175 -1.23335 0
M  V30 1117 O 108.098 0.921826 -1.47811 0
M  V30 1118 C 105.23 1.70754 -2.95052 0
M  V30 1119 H 106.423 -0.100058 -2.99733 0
M  V30 1120 H 103.976 -0.0896198 -1.56043 0
M  V30 1121 H 104.711 2.35474 -2.22986 0
M  V30 1122 H 104.496 1.33946 -3.68512 0
M  V30 1123 H 105.986 2.30818 -3.48013 0
M  V30 1124 N 106.423 1.57458 -0.0668435 0
M  V30 1125 C 107.648 1.9804 0.616027 0
M  V30 1126 C 108.073 0.944771 1.62652 0
M  V30 1127 O 107.431 -0.0902094 1.81075 0
M  V30 1128 C 107.479 3.37665 1.26549 0
M  V30 1129 O 106.583 3.36701 2.38131 0
M  V30 1130 H 105.924 0.644719 0.158849 0
M  V30 1131 H 108.454 2.04121 -0.139891 0
M  V30 1132 H 108.464 3.7474 1.6135 0
M  V30 1133 H 107.139 4.12573 0.525016 0
M  V30 1134 H 105.716 3.1139 2.0516 0
M  V30 1135 N 107.901 -0.206675 1.56239 0
M  V30 1136 C 109.148 -0.928842 1.79941 0
M  V30 1137 C 109.476 -1.83734 0.638131 0
M  V30 1138 O 108.731 -1.92039 -0.376746 0
M  V30 1139 C 109.03 -1.78675 3.09532 0
M  V30 1140 C 108.696 -1.03022 4.38973 0
M  V30 1141 C 107.358 -0.821302 4.74139 0
M  V30 1142 C 109.71 -0.497081 5.18824 0
M  V30 1143 C 107.038 -0.0675719 5.86661 0
M  V30 1144 C 109.39 0.24338 6.32132 0
M  V30 1145 C 108.054 0.463422 6.65889 0
M  V30 1146 H 107.324 -0.339887 0.658451 0
M  V30 1147 H 109.971 -0.195977 1.90495 0
M  V30 1148 H 108.276 -2.58794 2.94165 0
M  V30 1149 H 109.973 -2.34792 3.25075 0
M  V30 1150 H 106.563 -1.20306 4.11369 0
M  V30 1151 H 110.747 -0.645921 4.92079 0
M  V30 1152 H 106.003 0.112995 6.11296 0
M  V30 1153 H 110.177 0.66393 6.93228 0
M  V30 1154 H 107.804 1.04938 7.52922 0
M  V30 1155 N 109.379 -1.50304 -0.473955 0
M  V30 1156 C 110.795 -1.37667 -0.807466 0
M  V30 1157 C 110.995 -0.430555 -1.96846 0
M  V30 1158 O 110.051 0.127874 -2.52176 0
M  V30 1159 C 111.364 -2.78974 -1.12223 0
M  V30 1160 C 112.912 -2.87868 -1.22885 0
M  V30 1161 C 113.387 -4.30003 -1.57676 0
M  V30 1162 N 114.878 -4.3294 -1.64673 0
M  V30 1163 C 115.613 -5.3991 -1.93091 0
M  V30 1164 N 115.109 -6.57092 -2.1955 0
M  V30 1165 N 116.902 -5.27351 -1.94569 0
M  V30 1166 H 109.053 -2.10394 0.291212 0
M  V30 1167 H 111.316 -0.945575 0.0677609 0
M  V30 1168 H 111.022 -3.50031 -0.342229 0
M  V30 1169 H 110.896 -3.16038 -2.05913 0
M  V30 1170 H 113.283 -2.17032 -1.99953 0
M  V30 1171 H 113.364 -2.54352 -0.271814 0
M  V30 1172 H 113.008 -5.01375 -0.81149 0
M  V30 1173 H 112.938 -4.61004 -2.54525 0
M  V30 1174 H 115.429 -3.48441 -1.46277 0
M  V30 1175 H 115.742 -7.34425 -2.405 0
M  V30 1176 H 114.087 -6.60272 -2.16948 0
M  V30 1177 H 117.278 -4.34801 -1.73394 0
M  V30 1178 H 117.451 -6.10805 -2.16381 0
M  V30 1179 N 110.857 0.726932 -1.39834 0
M  V30 1180 C 111.767 1.87131 -1.41489 0
M  V30 1181 C 112.783 1.71239 -0.308757 0
M  V30 1182 O 113.959 1.93701 -0.551529 0
M  V30 1183 C 111.024 3.22811 -1.26468 0
M  V30 1184 C 110.085 3.51039 -2.47124 0
M  V30 1185 C 109.318 4.80245 -2.3281 0
M  V30 1186 O 109.541 5.54537 -1.33585 0
M  V30 1187 O 108.475 5.08554 -3.21957 0
M  V30 1188 H 112.301 1.8869 -2.3797 0
M  V30 1189 H 109.886 0.875837 -1.21035 0
M  V30 1190 H 111.768 4.03877 -1.20255 0
M  V30 1191 H 110.443 3.22005 -0.330862 0
M  V30 1192 H 109.35 2.70027 -2.58914 0
M  V30 1193 H 110.683 3.56632 -3.39227 0
M  V30 1194 N 112.336 1.25143 0.95797 0
M  V30 1195 C 113.752 1.01892 1.22842 0
M  V30 1196 C 113.952 -0.266311 1.99732 0
M  V30 1197 O 113.008 -0.979913 2.3271 0
M  V30 1198 C 114.321 2.24004 2.00606 0
M  V30 1199 C 115.869 2.28731 2.13662 0
M  V30 1200 C 116.344 3.5049 2.94823 0
M  V30 1201 N 117.835 3.50866 3.02403 0
M  V30 1202 C 118.57 4.4174 3.65586 0
M  V30 1203 N 118.066 5.42882 4.30408 0
M  V30 1204 N 119.859 4.29429 3.62694 0
M  V30 1205 H 112.01 2.07718 0.443493 0
M  V30 1206 H 114.273 0.912031 0.258657 0
M  V30 1207 H 113.979 3.17395 1.51503 0
M  V30 1208 H 113.853 2.26907 3.01319 0
M  V30 1209 H 116.24 1.35865 2.61963 0
M  V30 1210 H 116.321 2.29848 1.12265 0
M  V30 1211 H 115.965 4.43676 2.47213 0
M  V30 1212 H 115.895 3.46617 3.96439 0
M  V30 1213 H 118.386 2.777 2.56302 0
M  V30 1214 H 118.699 6.0844 4.76467 0
M  V30 1215 H 117.044 5.46758 4.29047 0
M  V30 1216 H 120.235 3.49643 3.11236 0
M  V30 1217 H 120.408 5.00448 4.1165 0
M  V30 1218 N 113.814 -1.1601 1.06675 0
M  V30 1219 C 114.744 -2.22688 0.702307 0
M  V30 1220 C 115.725 -1.67306 -0.307032 0
M  V30 1221 O 116.91 -1.93352 -0.181305 0
M  V30 1222 C 114.04 -3.47178 0.092038 0
M  V30 1223 C 112.994 -4.15477 1.02777 0
M  V30 1224 C 112.32 -5.33963 0.28061 0
M  V30 1225 C 113.62 -4.66019 2.35846 0
M  V30 1226 H 115.314 -2.53429 1.59419 0
M  V30 1227 H 112.86 -1.21813 0.767961 0
M  V30 1228 H 114.813 -4.21037 -0.174814 0
M  V30 1229 H 113.537 -3.15749 -0.834877 0
M  V30 1230 H 112.196 -3.43549 1.27944 0
M  V30 1231 H 111.844 -4.98788 -0.649545 0
M  V30 1232 H 111.544 -5.806 0.904258 0
M  V30 1233 H 113.068 -6.10596 0.021396 0
M  V30 1234 H 114.482 -5.3144 2.15045 0
M  V30 1235 H 112.879 -5.23293 2.93743 0
M  V30 1236 H 113.949 -3.82023 2.98641 0
M  V30 1237 N 115.292 -0.849877 -1.32721 0
M  V30 1238 C 116.569 -0.372405 -1.92022 0
M  V30 1239 C 116.949 1.1435 -1.77447 0
M  V30 1240 O 116.297 1.96296 -1.16962 0
M  V30 1241 C 116.507 -0.831482 -3.3895 0
M  V30 1242 C 117.855 -0.845882 -4.16089 0
M  V30 1243 O 118.879 -0.775806 -3.47649 0
M  V30 1244 O 117.738 -0.943753 -5.38289 0
M  V30 1245 H 114.832 -0.107667 -0.819961 0
M  V30 1246 H 117.378 -0.93646 -1.41522 0
M  V30 1247 H 116.15 -1.87448 -3.4348 0
M  V30 1248 H 115.773 -0.24461 -3.96847 0
M  V30 1249 N 116.77 1.45427 -0.607355 0
M  V30 1250 C 118.186 1.57283 -0.270985 0
M  V30 1251 C 118.386 1.59875 1.22647 0
M  V30 1252 O 117.442 1.52893 2.00948 0
M  V30 1253 C 118.755 2.85566 -0.941952 0
M  V30 1254 C 120.303 2.9924 -0.917849 0
M  V30 1255 C 120.778 4.30293 -1.56882 0
M  V30 1256 N 122.269 4.37051 -1.5343 0
M  V30 1257 C 123.004 5.37123 -2.00715 0
M  V30 1258 N 122.5 6.43734 -2.56084 0
M  V30 1259 N 124.293 5.28479 -1.91484 0
M  V30 1260 H 116.444 1.41988 -1.57966 0
M  V30 1261 H 118.707 0.67885 -0.661715 0
M  V30 1262 H 118.413 2.8955 -1.99633 0
M  V30 1263 H 118.287 3.74322 -0.465096 0
M  V30 1264 H 120.674 2.94822 0.127984 0
M  V30 1265 H 120.755 2.11895 -1.43297 0
M  V30 1266 H 120.399 4.35469 -2.61398 0
M  V30 1267 H 120.329 5.16454 -1.02873 0
M  V30 1268 H 122.82 3.60615 -1.12982 0
M  V30 1269 H 123.133 7.16341 -2.89958 0
M  V30 1270 H 121.478 6.44485 -2.60122 0
M  V30 1271 H 124.669 4.44098 -1.47967 0
M  V30 1272 H 124.842 6.0632 -2.28648 0
M  V30 1273 N 118.248 0.346503 1.53744 0
M  V30 1274 C 119.495 -0.249104 2.00962 0
M  V30 1275 C 119.823 -1.5032 1.23426 0
M  V30 1276 O 119.078 -1.93217 0.310761 0
M  V30 1277 C 119.377 -0.605809 3.52228 0
M  V30 1278 C 119.043 0.551747 4.47512 0
M  V30 1279 C 117.705 0.86941 4.73281 0
M  V30 1280 C 120.057 1.32818 5.03993 0
M  V30 1281 C 117.385 1.96582 5.52786 0
M  V30 1282 C 119.737 2.41486 5.84694 0
M  V30 1283 C 118.401 2.73808 6.08757 0
M  V30 1284 H 117.671 -0.0911538 0.735372 0
M  V30 1285 H 120.318 0.475027 1.85515 0
M  V30 1286 H 118.623 -1.4107 3.65522 0
M  V30 1287 H 120.32 -1.07858 3.86222 0
M  V30 1288 H 116.91 0.294102 4.2759 0
M  V30 1289 H 121.094 1.09602 4.84047 0
M  V30 1290 H 116.35 2.22045 5.69654 0
M  V30 1291 H 120.524 3.02078 6.27473 0
M  V30 1292 H 118.151 3.58892 6.7015 0
M  V30 1293 N 119.726 -1.57421 0.075193 0
M  V30 1294 C 120.636 -2.1642 -0.905511 0
M  V30 1295 C 121.652 -1.12828 -1.32461 0
M  V30 1296 O 122.828 -1.45109 -1.39661 0
M  V30 1297 C 119.893 -2.71693 -2.15369 0
M  V30 1298 C 118.954 -3.90171 -1.79068 0
M  V30 1299 C 118.187 -4.42798 -2.97936 0
M  V30 1300 O 118.41 -3.94416 -4.12058 0
M  V30 1301 O 117.344 -5.34085 -2.77555 0
M  V30 1302 H 121.17 -3.00588 -0.433626 0
M  V30 1303 H 118.755 -1.48664 -0.148067 0
M  V30 1304 H 120.637 -3.07104 -2.88557 0
M  V30 1305 H 119.312 -1.90582 -2.61649 0
M  V30 1306 H 118.219 -3.59606 -1.03122 0
M  V30 1307 H 119.552 -4.72584 -1.37569 0
M  V30 1308 N 121.204 0.198386 -1.56346 0
M  V30 1309 C 122.152 1.26538 -1.95169 0
M  V30 1310 C 123.146 1.47295 -0.836685 0
M  V30 1311 O 124.352 1.48195 -1.02167 0
M  V30 1312 H 120.727 0.424744 -0.620561 0
M  V30 1313 H 122.698 0.910904 -2.84157 0
M  V30 1314 C 121.447 2.6035 -2.30463 0
M  V30 1315 H 120.77 2.45192 -3.15786 0
M  V30 1316 H 122.21 3.33762 -2.61494 0
M  V30 1317 C 120.669 3.17096 -1.13806 0
M  V30 1318 O 121.199 3.99588 -0.41135 0
M  V30 1319 N 119.405 2.75795 -0.915736 0
M  V30 1320 H 118.952 2.08816 -1.50843 0
M  V30 1321 H 118.91 3.14101 -0.136979 0
M  V30 1322 N 122.682 1.50554 0.465978 0
M  V30 1323 C 123.612 1.72722 1.57128 0
M  V30 1324 C 124.593 0.576294 1.6004 0
M  V30 1325 O 125.778 0.81598 1.76225 0
M  V30 1326 C 122.908 1.82605 2.95419 0
M  V30 1327 C 121.862 2.97835 3.07373 0
M  V30 1328 C 121.188 2.92867 4.47363 0
M  V30 1329 C 122.488 4.38265 2.84114 0
M  V30 1330 H 124.182 2.65267 1.38829 0
M  V30 1331 H 121.728 1.2765 0.666441 0
M  V30 1332 H 123.681 1.96698 3.72677 0
M  V30 1333 H 122.405 0.866858 3.14886 0
M  V30 1334 H 121.064 2.83401 2.3255 0
M  V30 1335 H 120.712 1.94783 4.63755 0
M  V30 1336 H 120.412 3.70227 4.56296 0
M  V30 1337 H 121.936 3.09015 5.26633 0
M  V30 1338 H 123.35 4.53198 3.51118 0
M  V30 1339 H 121.747 5.17115 3.04487 0
M  V30 1340 H 122.817 4.50281 1.7993 0
M  V30 1341 N 124.16 -0.719506 1.40217 0
M  V30 1342 C 125.437 -1.47221 1.28784 0
M  V30 1343 C 125.817 -2.10883 -0.0956067 0
M  V30 1344 O 125.165 -1.99833 -1.10811 0
M  V30 1345 C 125.375 -2.5111 2.42373 0
M  V30 1346 C 126.723 -3.17053 2.82423 0
M  V30 1347 O 127.747 -2.61429 2.41937 0
M  V30 1348 O 126.606 -4.17742 3.52355 0
M  V30 1349 H 123.7 -0.654491 0.50554 0
M  V30 1350 H 126.246 -0.752014 1.52128 0
M  V30 1351 H 125.018 -2.02556 3.34793 0
M  V30 1352 H 124.641 -3.3067 2.20778 0
M  V30 1353 N 125.638 -1.25649 -0.95132 0
M  V30 1354 C 126.588 -1.03004 -2.03406 0
M  V30 1355 C 127.572 0.034187 -1.60864 0
M  V30 1356 O 128.764 -0.181549 -1.76066 0
M  V30 1357 C 125.893 -0.654255 -3.37008 0
M  V30 1358 C 124.979 -1.75542 -3.86065 0
M  V30 1359 N 125.37 -2.99113 -4.07879 0
M  V30 1360 C 123.668 -1.63669 -4.14884 0
M  V30 1361 C 124.369 -3.70611 -4.48356 0
M  V30 1362 N 123.345 -2.98247 -4.54477 0
M  V30 1363 H 127.147 -1.96813 -2.1827 0
M  V30 1364 H 124.661 -1.16017 -1.13639 0
M  V30 1365 H 126.658 -0.473206 -4.14206 0
M  V30 1366 H 125.318 0.276468 -3.23521 0
M  V30 1367 H 126.329 -3.35124 -3.94857 0
M  V30 1368 H 123.006 -0.775161 -4.10241 0
M  V30 1369 H 124.396 -4.76695 -4.73509 0
M  V30 1370 N 127.117 1.15442 -1.07289 0
M  V30 1371 C 128.067 2.18164 -0.662467 0
M  V30 1372 C 129.051 1.57845 0.312074 0
M  V30 1373 O 130.243 1.76552 0.125905 0
M  V30 1374 C 127.372 3.43246 -0.0611295 0
M  V30 1375 C 126.458 4.1062 -1.06077 0
M  V30 1376 N 126.849 4.53491 -2.24008 0
M  V30 1377 C 125.147 4.36949 -0.893964 0
M  V30 1378 C 125.848 5.05731 -2.87422 0
M  V30 1379 N 124.824 4.99236 -2.15091 0
M  V30 1380 H 128.626 2.49038 -1.56068 0
M  V30 1381 H 126.14 1.32003 -0.945988 0
M  V30 1382 H 128.137 4.16145 0.250792 0
M  V30 1383 H 126.797 3.13854 0.832207 0
M  V30 1384 H 127.808 4.46898 -2.6173 0
M  V30 1385 H 124.485 4.17466 -0.0534693 0
M  V30 1386 H 125.875 5.48865 -3.87553 0
M  V30 1387 N 128.595 0.856903 1.32268 0
M  V30 1388 C 129.872 0.382583 1.91822 0
M  V30 1389 C 130.252 -1.13407 1.78051 0
M  V30 1390 O 129.6 -1.95673 1.18001 0
M  V30 1391 C 129.81 0.849446 3.38505 0
M  V30 1392 C 131.158 0.867936 4.15634 0
M  V30 1393 O 132.182 0.794232 3.47232 0
M  V30 1394 O 131.041 0.972286 5.37781 0
M  V30 1395 H 128.135 0.112014 0.819379 0
M  V30 1396 H 130.681 0.943952 1.41024 0
M  V30 1397 H 129.453 1.89267 3.42482 0
M  V30 1398 H 129.076 0.265652 3.96712 0
M  V30 1399 N 130.073 -1.45103 0.615059 0
M  V30 1400 C 131.322 -2.01396 0.110718 0
M  V30 1401 C 131.635 -1.48834 -1.26916 0
M  V30 1402 O 132.841 -1.97152 -1.86664 0
M  V30 1403 C 131.297 -3.59599 0.14723 0
M  V30 1404 C 130.905 -4.21158 1.52743 0
M  V30 1405 C 132.649 -4.23428 -0.30148 0
M  V30 1406 C 130.556 -5.71535 1.51992 0
M  V30 1407 H 129.486 -0.753061 0.0376241 0
M  V30 1408 H 132.137 -1.66494 0.77149 0
M  V30 1409 H 130.519 -3.91724 -0.580339 0
M  V30 1410 H 131.693 -4.00594 2.2773 0
M  V30 1411 H 130.008 -3.69552 1.91886 0
M  V30 1412 H 132.605 -5.33703 -0.326392 0
M  V30 1413 H 132.948 -3.94629 -1.32565 0
M  V30 1414 H 133.481 -3.96047 0.373065 0
M  V30 1415 H 130.22 -6.05044 2.52193 0
M  V30 1416 H 129.74 -5.94268 0.81274 0
M  V30 1417 H 131.419 -6.34873 1.24681 0
M  V30 1418 N 131.551 -0.354651 -1.53558 0
M  V30 1419 C 132.799 0.237972 -2.00694 0
M  V30 1420 C 133.12 1.50173 -1.24391 0
M  V30 1421 O 132.39 1.92673 -0.354135 0
M  V30 1422 H 130.97 0.0909256 -0.741446 0
M  V30 1423 H 133.632 -0.478368 -1.88938 0
M  V30 1424 H 132.728 0.47264 -3.085 0
M  V30 1425 N 133.029 1.57378 -0.0835403 0
M  V30 1426 C 134.276 1.9393 0.58287 0
M  V30 1427 C 134.604 0.964455 1.68904 0
M  V30 1428 O 133.859 -0.0179474 1.95692 0
M  V30 1429 C 134.158 3.37063 1.1884 0
M  V30 1430 C 133.824 4.50424 0.207194 0
M  V30 1431 C 132.486 4.81159 -0.0627115 0
M  V30 1432 C 134.838 5.19136 -0.463426 0
M  V30 1433 C 132.166 5.77939 -1.01012 0
M  V30 1434 C 134.518 6.16931 -1.39924 0
M  V30 1435 C 133.182 6.46078 -1.67749 0
M  V30 1436 H 132.452 0.70964 0.213287 0
M  V30 1437 H 135.099 1.90856 -0.156916 0
M  V30 1438 H 133.404 3.3666 2.00418 0
M  V30 1439 H 135.101 3.6264 1.71153 0
M  V30 1440 H 131.691 4.2646 0.427747 0
M  V30 1441 H 135.875 4.95576 -0.268034 0
M  V30 1442 H 131.131 5.98842 -1.23283 0
M  V30 1443 H 135.305 6.69273 -1.92476 0
M  V30 1444 H 132.932 7.2088 -2.41321 0
M  V30 1445 N 134.507 -0.190092 1.56449 0
M  V30 1446 C 135.437 -1.23816 1.97969 0
M  V30 1447 C 136.418 -1.47201 0.852395 0
M  V30 1448 O 137.603 -1.58854 1.1171 0
M  V30 1449 C 134.733 -2.5813 2.3235 0
M  V30 1450 C 133.687 -2.49348 3.47864 0
M  V30 1451 C 133.013 -3.8798 3.67934 0
M  V30 1452 C 134.313 -2.01424 4.81898 0
M  V30 1453 H 136.007 -0.89311 2.85769 0
M  V30 1454 H 133.553 -0.428177 1.37487 0
M  V30 1455 H 135.506 -3.31637 2.59991 0
M  V30 1456 H 134.23 -2.94386 1.41438 0
M  V30 1457 H 132.889 -1.78297 3.20321 0
M  V30 1458 H 132.537 -4.21597 2.74344 0
M  V30 1459 H 132.237 -3.82978 4.45648 0
M  V30 1460 H 133.761 -4.63101 3.97957 0
M  V30 1461 H 135.175 -2.64693 5.08538 0
M  V30 1462 H 133.572 -2.07413 5.63116 0
M  V30 1463 H 134.642 -0.967677 4.75146 0
M  V30 1464 N 135.985 -1.50799 -0.457987 0
M  V30 1465 C 137.215 -1.65977 -1.23025 0
M  V30 1466 C 137.623 -0.347918 -1.85974 0
M  V30 1467 O 136.966 0.68148 -1.70592 0
M  V30 1468 C 137.028 -2.70309 -2.3701 0
M  V30 1469 C 136.692 -4.135 -1.94594 0
M  V30 1470 C 137.689 -4.98949 -1.46101 0
M  V30 1471 C 135.374 -4.5949 -2.02915 0
M  V30 1472 C 137.368 -6.28442 -1.06489 0
M  V30 1473 C 135.055 -5.88984 -1.62914 0
M  V30 1474 C 136.053 -6.73286 -1.1478 0
M  V30 1475 O 135.741 -8.00362 -0.75339 0
M  V30 1476 H 135.473 -0.56064 -0.377702 0
M  V30 1477 H 138.027 -1.97857 -0.551537 0
M  V30 1478 H 136.257 -2.337 -3.08093 0
M  V30 1479 H 137.946 -2.74574 -2.98938 0
M  V30 1480 H 138.712 -4.6463 -1.39084 0
M  V30 1481 H 134.591 -3.94009 -2.39328 0
M  V30 1482 H 138.135 -6.94194 -0.688488 0
M  V30 1483 H 134.032 -6.22822 -1.69595 0
M  V30 1484 H 134.8 -8.13744 -0.88108 0
M  V30 1485 N 137.463 0.71206 -1.40597 0
M  V30 1486 C 138.688 1.50617 -1.42581 0
M  V30 1487 C 139.113 1.88079 -0.0282102 0
M  V30 1488 O 138.471 1.53511 0.964579 0
M  V30 1489 C 138.519 2.7557 -2.3258 0
M  V30 1490 O 137.623 3.72414 -1.77148 0
M  V30 1491 H 136.964 0.453966 -0.484573 0
M  V30 1492 H 139.494 0.876649 -1.84868 0
M  V30 1493 H 139.504 3.2406 -2.47889 0
M  V30 1494 H 138.179 2.47639 -3.34138 0
M  V30 1495 H 136.756 3.31276 -1.71204 0
M  V30 1496 N 138.941 1.26152 0.944643 0
M  V30 1497 C 139.871 1.09902 2.06019 0
M  V30 1498 C 140.852 0.00519538 1.70099 0
M  V30 1499 O 142.037 0.176583 1.93396 0
M  V30 1500 C 139.167 0.727562 3.39594 0
M  V30 1501 C 138.121 1.77274 3.89561 0
M  V30 1502 C 137.447 1.25569 5.19747 0
M  V30 1503 C 138.747 3.17357 4.14827 0
M  V30 1504 H 140.441 2.03217 2.19871 0
M  V30 1505 H 137.987 0.978452 1.05652 0
M  V30 1506 H 139.94 0.600777 4.17095 0
M  V30 1507 H 138.664 -0.241287 3.25707 0
M  V30 1508 H 137.323 1.88814 3.14237 0
M  V30 1509 H 136.971 0.276783 5.02238 0
M  V30 1510 H 136.671 1.95433 5.54148 0
M  V30 1511 H 138.195 1.1415 5.99835 0
M  V30 1512 H 139.609 3.08914 4.82954 0
M  V30 1513 H 138.006 3.84781 4.60504 0
M  V30 1514 H 139.076 3.63673 3.20734 0
M  V30 1515 N 140.419 -1.14872 1.07899 0
M  V30 1516 C 141.644 -1.90202 0.826926 0
M  V30 1517 C 142.069 -1.77774 -0.614664 0
M  V30 1518 O 141.427 -1.11431 -1.43013 0
M  V30 1519 C 141.475 -3.38352 1.24702 0
M  V30 1520 O 140.579 -4.10497 0.39575 0
M  V30 1521 H 139.92 -0.591968 0.300782 0
M  V30 1522 H 142.45 -1.45437 1.43907 0
M  V30 1523 H 142.46 -3.89156 1.22563 0
M  V30 1524 H 141.135 -3.46715 2.29698 0
M  V30 1525 H 139.712 -3.69796 0.480117 0
M  V30 1526 N 141.898 -0.863906 -1.31812 0
M  V30 1527 C 142.861 -0.320212 -2.26952 0
M  V30 1528 C 143.861 0.525369 -1.51975 0
M  V30 1529 O 145.051 0.335547 -1.70938 0
M  V30 1530 C 142.183 0.545919 -3.365 0
M  V30 1531 H 143.376 -1.16004 -2.76556 0
M  V30 1532 H 140.929 -0.638995 -1.42641 0
M  V30 1533 H 141.664 1.40718 -2.92179 0
M  V30 1534 H 141.449 -0.0594674 -3.92055 0
M  V30 1535 H 142.939 0.918796 -4.07367 0
M  V30 1536 N 143.376 1.44774 -0.622745 0
M  V30 1537 C 144.323 2.30635 0.0871679 0
M  V30 1538 C 145.293 1.42994 0.845097 0
M  V30 1539 O 146.478 1.71907 0.827812 0
M  V30 1540 C 143.618 3.28144 1.06844 0
M  V30 1541 C 142.731 4.30888 0.309809 0
M  V30 1542 C 141.866 5.15494 1.28215 0
M  V30 1543 C 140.905 6.09953 0.512198 0
M  V30 1544 N 140.042 6.87287 1.43458 0
M  V30 1545 H 144.882 2.90803 -0.650974 0
M  V30 1546 H 142.419 1.43286 -0.33281 0
M  V30 1547 H 144.377 3.83157 1.65066 0
M  V30 1548 H 143.007 2.69695 1.77382 0
M  V30 1549 H 142.059 3.78414 -0.388181 0
M  V30 1550 H 143.371 4.97955 -0.290254 0
M  V30 1551 H 142.525 5.74983 1.93596 0
M  V30 1552 H 141.264 4.48481 1.91614 0
M  V30 1553 H 140.269 5.49581 -0.155151 0
M  V30 1554 H 141.494 6.78999 -0.116958 0
M  V30 1555 H 139.44 6.2295 2.05594 0
M  V30 1556 H 139.357 7.50763 0.888335 0
M  V30 1557 H 140.625 7.51306 2.07749 0
M  V30 1558 N 144.854 0.36279 1.53368 0
M  V30 1559 C 145.817 -0.472679 2.24273 0
M  V30 1560 C 146.817 -1.012 1.24961 0
M  V30 1561 O 148.007 -0.898194 1.49259 0
M  V30 1562 C 145.139 -1.66039 2.97731 0
M  V30 1563 H 146.332 0.14773 2.99536 0
M  V30 1564 H 143.885 0.114434 1.55881 0
M  V30 1565 H 144.62 -2.31896 2.26704 0
M  V30 1566 H 144.405 -1.28066 3.70596 0
M  V30 1567 H 145.895 -2.25252 3.51641 0
M  V30 1568 N 146.332 -1.57332 0.0918853 0
M  V30 1569 C 147.264 -2.10869 -0.898168 0
M  V30 1570 C 148.277 -1.04521 -1.24817 0
M  V30 1571 O 149.466 -1.31977 -1.20184 0
M  V30 1572 C 146.566 -2.57083 -2.2082 0
M  V30 1573 C 145.739 -3.87229 -2.03402 0
M  V30 1574 C 144.798 -4.19324 -3.17889 0
M  V30 1575 O 143.824 -4.88598 -2.91994 0
M  V30 1576 N 145.026 -3.74471 -4.43567 0
M  V30 1577 H 147.791 -2.96439 -0.440943 0
M  V30 1578 H 145.352 -1.61631 -0.0933064 0
M  V30 1579 H 147.344 -2.75602 -2.96354 0
M  V30 1580 H 145.914 -1.76541 -2.57977 0
M  V30 1581 H 145.134 -3.7789 -1.12218 0
M  V30 1582 H 146.422 -4.72379 -1.89038 0
M  V30 1583 H 145.82 -3.18546 -4.67488 0
M  V30 1584 H 144.377 -3.98151 -5.16061 0
M  V30 1585 N 147.81 0.181792 -1.56548 0
M  V30 1586 C 149.056 0.896803 -1.82562 0
M  V30 1587 C 149.411 1.80324 -0.670908 0
M  V30 1588 O 148.704 1.8868 0.333235 0
M  V30 1589 C 148.898 1.73728 -3.12335 0
M  V30 1590 C 148.727 0.913714 -4.4032 0
M  V30 1591 C 147.497 0.592903 -5.01809 0
M  V30 1592 C 149.695 0.260164 -5.13642 0
M  V30 1593 N 147.677 -0.247901 -6.13399 0
M  V30 1594 C 149.048 -0.442256 -6.18421 0
M  V30 1595 C 151.103 0.177253 -4.97584 0
M  V30 1596 C 149.806 -1.21971 -7.08883 0
M  V30 1597 C 151.832 -0.586839 -5.88481 0
M  V30 1598 C 151.194 -1.27766 -6.92716 0
M  V30 1599 H 147.293 0.307122 -0.719166 0
M  V30 1600 H 149.877 0.164535 -1.94004 0
M  V30 1601 H 148.048 2.44105 -3.02105 0
M  V30 1602 H 149.78 2.39279 -3.26386 0
M  V30 1603 H 146.535 0.920502 -4.64568 0
M  V30 1604 H 146.959 -0.658304 -6.73792 0
M  V30 1605 H 151.601 0.696993 -4.17015 0
M  V30 1606 H 149.319 -1.75083 -7.88905 0
M  V30 1607 H 152.905 -0.652522 -5.78129 0
M  V30 1608 H 151.785 -1.85943 -7.61836 0
M  V30 1609 N 149.288 1.51039 0.449983 0
M  V30 1610 C 150.537 1.62317 1.19733 0
M  V30 1611 C 150.85 0.339101 1.92638 0
M  V30 1612 O 152.056 0.331069 2.69474 0
M  V30 1613 C 150.512 2.86608 2.17678 0
M  V30 1614 C 150.12 4.21972 1.50479 0
M  V30 1615 C 151.864 3.07239 2.92924 0
M  V30 1616 C 149.771 5.37426 2.46834 0
M  V30 1617 H 148.701 0.604532 0.450619 0
M  V30 1618 H 151.352 1.77494 0.465625 0
M  V30 1619 H 149.734 2.65037 2.94231 0
M  V30 1620 H 150.908 4.53878 0.795716 0
M  V30 1621 H 149.223 4.07117 0.874344 0
M  V30 1622 H 151.82 3.90668 3.65079 0
M  V30 1623 H 152.163 2.19807 3.5354 0
M  V30 1624 H 152.696 3.29091 2.23481 0
M  V30 1625 H 149.435 6.27079 1.90926 0
M  V30 1626 H 148.955 5.09912 3.15832 0
M  V30 1627 H 150.634 5.68862 3.08228 0
M  V30 1628 N 150.766 -0.704594 1.40972 0
M  V30 1629 C 152.012 -1.46675 1.40051 0
M  V30 1630 C 152.345 -1.94199 0.00641102 0
M  V30 1631 O 151.62 -1.68916 -0.964235 0
M  V30 1632 C 151.903 -2.68505 2.39952 0
M  V30 1633 C 151.756 -2.26805 3.88432 0
M  V30 1634 C 153.075 -3.70686 2.37233 0
M  V30 1635 H 150.194 -0.532015 0.510028 0
M  V30 1636 H 152.836 -0.803255 1.72185 0
M  V30 1637 H 150.986 -3.25114 2.1268 0
M  V30 1638 H 152.658 -1.75592 4.26574 0
M  V30 1639 H 150.901 -1.58685 4.03734 0
M  V30 1640 H 151.572 -3.14181 4.53866 0
M  V30 1641 H 154.048 -3.23731 2.61415 0
M  V30 1642 H 152.924 -4.53553 3.09162 0
M  V30 1643 H 153.185 -4.19754 1.38777 0
M  V30 1644 N 152.244 -1.26651 -0.937939 0
M  V30 1645 C 153.154 -1.10276 -2.07066 0
M  V30 1646 C 154.17 -0.0354197 -1.73964 0
M  V30 1647 O 155.346 -0.239816 -1.99967 0
M  V30 1648 C 152.411 -0.740887 -3.38691 0
M  V30 1649 C 151.472 -1.88799 -3.85556 0
M  V30 1650 C 150.705 -1.54329 -5.10899 0
M  V30 1651 O 150.928 -0.446494 -5.6865 0
M  V30 1652 O 149.862 -2.37911 -5.52885 0
M  V30 1653 H 153.688 -2.05309 -2.23789 0
M  V30 1654 H 151.273 -1.05743 -1.0554 0
M  V30 1655 H 153.155 -0.55195 -4.1777 0
M  V30 1656 H 151.83 0.180022 -3.23199 0
M  V30 1657 H 150.737 -2.13191 -3.07409 0
M  V30 1658 H 152.07 -2.78874 -4.05574 0
M  V30 1659 N 153.722 1.14298 -1.08507 0
M  V30 1660 C 154.669 2.19414 -0.715965 0
M  V30 1661 C 155.639 1.63399 0.298326 0
M  V30 1662 O 156.824 1.89929 0.182101 0
M  V30 1663 C 153.964 3.44845 -0.132534 0
M  V30 1664 C 153.077 4.15007 -1.19973 0
M  V30 1665 C 152.212 5.28024 -0.580048 0
M  V30 1666 C 151.251 5.9002 -1.62921 0
M  V30 1667 N 150.388 6.94485 -1.03125 0
M  V30 1668 H 155.228 2.50336 -1.61666 0
M  V30 1669 H 152.765 1.2293 -0.807882 0
M  V30 1670 H 154.723 4.16601 0.223454 0
M  V30 1671 H 153.353 3.14403 0.731467 0
M  V30 1672 H 152.405 3.41629 -1.67313 0
M  V30 1673 H 153.717 4.57178 -1.99473 0
M  V30 1674 H 152.871 6.06455 -0.172364 0
M  V30 1675 H 151.61 4.87076 0.246603 0
M  V30 1676 H 150.615 5.10291 -2.04654 0
M  V30 1677 H 151.84 6.33042 -2.45835 0
M  V30 1678 H 149.786 6.55612 -0.225711 0
M  V30 1679 H 149.703 7.35148 -1.76334 0
M  V30 1680 H 150.971 7.7679 -0.649458 0
M  V30 1681 N 155.201 0.870884 1.31352 0
M  V30 1682 C 156.478 0.402907 1.91405 0
M  V30 1683 C 156.858 -1.11512 1.79244 0
M  V30 1684 O 156.206 -1.94411 1.2007 0
M  V30 1685 C 156.416 0.885301 3.37585 0
M  V30 1686 C 157.764 0.911971 4.14691 0
M  V30 1687 O 158.788 0.831016 3.46371 0
M  V30 1688 O 157.647 1.02927 5.3672 0
M  V30 1689 H 154.741 0.120698 0.818145 0
M  V30 1690 H 157.287 0.958857 1.40014 0
M  V30 1691 H 156.059 1.92889 3.40455 0
M  V30 1692 H 155.682 0.307714 3.96407 0
M  V30 1693 N 156.679 -1.44442 0.630414 0
M  V30 1694 C 157.589 -2.34476 -0.0761693 0
M  V30 1695 C 158.605 -1.52576 -0.836449 0
M  V30 1696 O 159.781 -1.85307 -0.788874 0
M  V30 1697 C 156.846 -3.30545 -1.04599 0
M  V30 1698 C 155.907 -4.28352 -0.28516 0
M  V30 1699 C 155.14 -5.19831 -1.20878 0
M  V30 1700 O 155.363 -5.15223 -2.44747 0
M  V30 1701 O 154.297 -5.97892 -0.693491 0
M  V30 1702 H 158.123 -2.96345 0.664324 0
M  V30 1703 H 155.708 -1.44203 0.39061 0
M  V30 1704 H 157.59 -3.89681 -1.60396 0
M  V30 1705 H 156.265 -2.7121 -1.76711 0
M  V30 1706 H 155.172 -3.72764 0.315837 0
M  V30 1707 H 156.505 -4.90605 0.395924 0
M  V30 1708 N 158.157 -0.370918 -1.53173 0
M  V30 1709 C 159.382 0.220293 -2.06227 0
M  V30 1710 C 159.807 1.41243 -1.24225 0
M  V30 1711 O 159.165 1.79387 -0.262645 0
M  V30 1712 C 159.213 0.586663 -3.55796 0
M  V30 1713 O 158.317 1.68317 -3.76488 0
M  V30 1714 H 157.658 0.0308099 -0.663285 0
M  V30 1715 H 160.188 -0.533068 -1.97534 0
M  V30 1716 H 160.198 0.85617 -3.98916 0
M  V30 1717 H 158.873 -0.285013 -4.14922 0
M  V30 1718 H 157.45 1.40881 -3.45264 0
M  V30 1719 N 159.635 1.57281 -0.100228 0
M  V30 1720 C 160.598 2.13158 0.842398 0
M  V30 1721 C 161.598 1.06202 1.20738 0
M  V30 1722 O 162.788 1.32066 1.13597 0
M  V30 1723 C 159.92 2.65639 2.13655 0
M  V30 1724 H 161.113 2.97766 0.357114 0
M  V30 1725 H 158.666 1.5559 0.148823 0
M  V30 1726 H 159.401 1.84566 2.66657 0
M  V30 1727 H 159.186 3.43844 1.88451 0
M  V30 1728 H 160.676 3.08846 2.81077 0
M  V30 1729 N 161.113 -0.173488 1.56642 0
M  V30 1730 C 162.529 -0.525174 1.50712 0
M  V30 1731 C 162.729 -1.8476 0.804107 0
M  V30 1732 O 161.785 -2.49869 0.363574 0
M  V30 1733 C 163.098 -0.559937 2.95441 0
M  V30 1734 C 164.646 -0.647288 3.06234 0
M  V30 1735 C 165.121 -0.712963 4.52417 0
M  V30 1736 N 166.612 -0.775911 4.56655 0
M  V30 1737 C 167.347 -0.847264 5.67106 0
M  V30 1738 N 166.843 -0.879585 6.87194 0
M  V30 1739 N 168.636 -0.886117 5.55071 0
M  V30 1740 H 160.787 0.693681 2.00753 0
M  V30 1741 H 163.05 0.249841 0.914485 0
M  V30 1742 H 162.756 0.343049 3.50023 0
M  V30 1743 H 162.63 -1.40718 3.49969 0
M  V30 1744 H 165.017 -1.5407 2.51687 0
M  V30 1745 H 165.098 0.226586 2.54794 0
M  V30 1746 H 164.742 0.176183 5.07594 0
M  V30 1747 H 164.672 -1.60295 5.0161 0
M  V30 1748 H 167.163 -0.759304 3.70193 0
M  V30 1749 H 167.476 -0.935144 7.67121 0
M  V30 1750 H 165.821 -0.847898 6.89808 0
M  V30 1751 H 169.012 -0.857853 4.60172 0
M  V30 1752 H 169.185 -0.938263 6.41171 0
M  V30 1753 N 162.591 -1.51276 -0.441967 0
M  V30 1754 C 163.538 -1.72256 -1.53612 0
M  V30 1755 C 164.508 -0.564164 -1.56225 0
M  V30 1756 O 165.693 -0.798074 -1.73307 0
M  V30 1757 C 162.833 -1.84932 -2.91366 0
M  V30 1758 C 161.946 -3.12459 -2.98317 0
M  V30 1759 C 161.081 -3.15758 -4.27166 0
M  V30 1760 C 160.12 -4.37619 -4.27967 0
M  V30 1761 N 159.257 -4.38493 -5.48333 0
M  V30 1762 H 164.097 -2.65654 -1.35026 0
M  V30 1763 H 161.634 -1.31662 -0.656009 0
M  V30 1764 H 163.592 -1.90263 -3.7129 0
M  V30 1765 H 162.222 -0.949461 -3.08521 0
M  V30 1766 H 161.274 -3.1646 -2.11086 0
M  V30 1767 H 162.586 -4.02382 -2.94771 0
M  V30 1768 H 161.74 -3.19979 -5.15459 0
M  V30 1769 H 160.479 -2.23715 -4.33362 0
M  V30 1770 H 159.484 -4.33579 -3.38067 0
M  V30 1771 H 160.709 -5.30921 -4.23438 0
M  V30 1772 H 158.655 -3.49318 -5.55259 0
M  V30 1773 H 158.572 -5.22219 -5.46647 0
M  V30 1774 H 159.84 -4.469 -6.38671 0
M  V30 1775 N 164.069 0.697108 -1.41344 0
M  V30 1776 C 164.999 1.82353 -1.45841 0
M  V30 1777 C 165.98 1.67115 -0.317247 0
M  V30 1778 O 167.165 1.86871 -0.528474 0
M  V30 1779 C 164.295 3.20476 -1.33838 0
M  V30 1780 C 163.249 3.50415 -2.4575 0
M  V30 1781 C 162.575 4.87878 -2.18813 0
M  V30 1782 C 163.875 3.49546 -3.88091 0
M  V30 1783 H 165.569 1.78846 -2.40113 0
M  V30 1784 H 163.115 0.859028 -1.15571 0
M  V30 1785 H 165.068 3.98988 -1.35596 0
M  V30 1786 H 163.792 3.24604 -0.360498 0
M  V30 1787 H 162.451 2.74253 -2.43271 0
M  V30 1788 H 162.099 4.8863 -1.19371 0
M  V30 1789 H 161.799 5.08875 -2.93803 0
M  V30 1790 H 163.323 5.68702 -2.22284 0
M  V30 1791 H 164.737 4.18066 -3.92293 0
M  V30 1792 H 163.134 3.82075 -4.62751 0
M  V30 1793 H 164.204 2.48552 -4.16353 0
M  V30 1794 N 165.547 1.27147 0.931209 0
M  V30 1795 C 166.51 1.09615 2.01289 0
M  V30 1796 C 167.51 0.0412581 1.60747 0
M  V30 1797 O 168.7 0.285545 1.71844 0
M  V30 1798 C 165.832 0.669447 3.34262 0
M  V30 1799 H 167.025 2.05662 2.18273 0
M  V30 1800 H 164.578 1.09885 1.11153 0
M  V30 1801 H 165.313 -0.292572 3.22978 0
M  V30 1802 H 165.098 1.43127 3.65044 0
M  V30 1803 H 166.588 0.568921 4.13706 0
M  V30 1804 N 167.025 -1.13721 1.09112 0
M  V30 1805 C 167.955 -2.21148 0.749385 0
M  V30 1806 C 168.936 -1.6792 -0.271475 0
M  V30 1807 O 170.121 -1.93693 -0.140251 0
M  V30 1808 C 167.251 -3.46905 0.165659 0
M  V30 1809 C 166.205 -4.13203 1.11567 0
M  V30 1810 C 165.531 -5.33248 0.393809 0
M  V30 1811 C 166.831 -4.60912 2.45678 0
M  V30 1812 H 168.525 -2.4999 1.64758 0
M  V30 1813 H 166.071 -1.20156 0.793626 0
M  V30 1814 H 168.024 -4.21313 -0.085466 0
M  V30 1815 H 166.748 -3.17449 -0.767714 0
M  V30 1816 H 165.407 -3.40758 1.35202 0
M  V30 1817 H 165.055 -5.00054 -0.543599 0
M  V30 1818 H 164.755 -5.78552 1.02721 0
M  V30 1819 H 166.279 -6.10413 0.150908 0
M  V30 1820 H 167.693 -5.26759 2.26269 0
M  V30 1821 H 166.09 -5.16944 3.04776 0
M  V30 1822 H 167.16 -3.75603 3.06677 0
M  V30 1823 N 168.503 -0.877838 -1.30888 0
M  V30 1824 C 169.78 -0.413052 -1.91189 0
M  V30 1825 C 170.16 1.1056 -1.79832 0
M  V30 1826 O 169.508 1.93771 -1.21099 0
M  V30 1827 C 169.718 -0.903191 -3.3711 0
M  V30 1828 C 171.066 -0.93395 -4.14201 0
M  V30 1829 O 172.09 -0.849373 -3.45925 0
M  V30 1830 O 170.949 -1.05772 -5.36167 0
M  V30 1831 H 168.043 -0.125035 -0.817493 0
M  V30 1832 H 170.589 -0.966269 -1.39504 0
M  V30 1833 H 169.361 -1.94692 -3.39427 0
M  V30 1834 H 168.984 -0.328732 -3.96239 0
M  V30 1835 N 169.982 1.44106 -0.638065 0
M  V30 1836 C 170.945 2.29138 0.0531013 0
M  V30 1837 C 171.945 1.41409 0.765506 0
M  V30 1838 O 173.135 1.63206 0.609046 0
M  V30 1839 C 170.267 3.23144 1.08584 0
M  V30 1840 H 171.46 2.91739 -0.694883 0
M  V30 1841 H 169.013 1.51134 -0.398538 0
M  V30 1842 H 169.748 2.65408 1.86357 0
M  V30 1843 H 169.533 3.87804 0.578852 0
M  V30 1844 H 171.023 3.87004 1.56899 0
M  V30 1845 N 171.46 0.379036 1.52974 0
M  V30 1846 C 172.423 -0.448865 2.24762 0
M  V30 1847 C 173.423 -0.998689 1.26027 0
M  V30 1848 O 174.613 -0.882313 1.50203 0
M  V30 1849 C 171.745 -1.62872 2.99476 0
M  V30 1850 H 172.938 0.179491 2.99362 0
M  V30 1851 H 170.491 0.13096 1.5575 0
M  V30 1852 H 171.226 -2.29479 2.29151 0
M  V30 1853 H 171.011 -1.24128 3.71934 0
M  V30 1854 H 172.501 -2.2151 3.5401 0
M  V30 1855 N 172.938 -1.57226 0.108567 0
M  V30 1856 C 174.215 -1.86333 -0.594939 0
M  V30 1857 C 174.595 -1.00788 -1.85486 0
M  V30 1858 O 173.943 -0.0839293 -2.28346 0
M  V30 1859 C 174.153 -3.37265 -0.897405 0
M  V30 1860 C 175.501 -4.05629 -1.25501 0
M  V30 1861 O 176.525 -3.42224 -0.987998 0
M  V30 1862 O 175.384 -5.17531 -1.75567 0
M  V30 1863 H 172.478 -0.771018 -0.2991 0
M  V30 1864 H 175.024 -1.69102 0.142283 0
M  V30 1865 H 173.796 -3.913 -0.00413806 0
M  V30 1866 H 173.419 -3.59889 -1.69014 0
M  V30 1867 N 174.416 0.165178 -1.56732 0
M  V30 1868 C 175.662 0.882112 -1.82611 0
M  V30 1869 C 175.995 1.81628 -0.687378 0
M  V30 1870 O 175.27 1.92009 0.310267 0
M  V30 1871 C 175.553 1.67245 -3.18906 0
M  V30 1872 C 175.406 0.760987 -4.43316 0
M  V30 1873 C 176.725 2.63884 -3.52212 0
M  V30 1874 H 173.844 0.319242 -0.664269 0
M  V30 1875 H 176.486 0.148052 -1.89422 0
M  V30 1876 H 174.636 2.29824 -3.1323 0
M  V30 1877 H 176.308 0.147596 -4.61064 0
M  V30 1878 H 174.551 0.0694102 -4.33744 0
M  V30 1879 H 175.222 1.34962 -5.35247 0
M  V30 1880 H 177.698 2.11429 -3.58381 0
M  V30 1881 H 176.574 3.16245 -4.48643 0
M  V30 1882 H 176.835 3.44377 -2.77231 0
M  V30 1883 N 175.894 1.51508 0.433938 0
M  V30 1884 C 176.824 1.76016 1.53429 0
M  V30 1885 C 177.805 0.610112 1.58782 0
M  V30 1886 O 178.99 0.853177 1.74455 0
M  V30 1887 C 176.12 1.88831 2.9148 0
M  V30 1888 C 175.074 3.04288 3.00987 0
M  V30 1889 C 174.4 3.0229 4.4105 0
M  V30 1890 C 175.7 4.44193 2.74754 0
M  V30 1891 H 177.394 2.68152 1.33171 0
M  V30 1892 H 174.94 1.29035 0.639214 0
M  V30 1893 H 176.893 2.04559 3.6842 0
M  V30 1894 H 175.617 0.933455 3.12976 0
M  V30 1895 H 174.276 2.8827 2.26486 0
M  V30 1896 H 173.924 2.04576 4.59519 0
M  V30 1897 H 173.624 3.79822 4.4834 0
M  V30 1898 H 175.148 3.20116 5.1996 0
M  V30 1899 H 176.562 4.60544 3.41426 0
M  V30 1900 H 174.959 5.23457 2.9345 0
M  V30 1901 H 176.029 4.53996 1.70339 0
M  V30 1902 N 177.372 -0.689602 1.41712 0
M  V30 1903 C 178.305 -1.81403 1.3845 0
M  V30 1904 C 179.283 -1.60653 0.250874 0
M  V30 1905 O 180.467 -1.83323 0.43874 0
M  V30 1906 C 177.594 -3.18176 1.1611 0
M  V30 1907 C 176.64 -3.57705 2.3227 0
M  V30 1908 S 177.473 -3.61827 3.94767 0
M  V30 1909 C 178.629 -5.01318 3.74742 0
M  V30 1910 H 178.862 -1.83893 2.33603 0
M  V30 1911 H 176.395 -0.858878 1.28307 0
M  V30 1912 H 178.353 -3.97132 1.03907 0
M  V30 1913 H 177.014 -3.13288 0.225668 0
M  V30 1914 H 176.207 -4.57082 2.12349 0
M  V30 1915 H 175.809 -2.86073 2.40911 0
M  V30 1916 H 178.101 -5.88986 3.34817 0
M  V30 1917 H 179.044 -5.26283 4.73743 0
M  V30 1918 H 179.452 -4.73138 3.07898 0
M  V30 1919 N 178.85 -1.27639 -0.924453 0
M  V30 1920 C 180.266 -1.05113 -1.20097 0
M  V30 1921 C 180.466 0.213262 -2.00368 0
M  V30 1922 O 179.522 0.91787 -2.35226 0
M  V30 1923 C 180.835 -2.29244 -1.94596 0
M  V30 1924 C 182.383 -2.34315 -2.07522 0
M  V30 1925 C 182.858 -3.58183 -2.85427 0
M  V30 1926 N 184.349 -3.5876 -2.92994 0
M  V30 1927 C 185.084 -4.51277 -3.53746 0
M  V30 1928 N 184.58 -5.54102 -4.15863 0
M  V30 1929 N 186.373 -4.38894 -3.51181 0
M  V30 1930 H 178.524 -2.08821 -0.388264 0
M  V30 1931 H 180.787 -0.918568 -0.234385 0
M  V30 1932 H 180.493 -3.21301 -1.43034 0
M  V30 1933 H 180.367 -2.34816 -2.95197 0
M  V30 1934 H 182.754 -1.42762 -2.58269 0
M  V30 1935 H 182.835 -2.32744 -1.06131 0
M  V30 1936 H 182.479 -4.50074 -2.35363 0
M  V30 1937 H 182.409 -3.57006 -3.8711 0
M  V30 1938 H 184.9 -2.84398 -2.4885 0
M  V30 1939 H 185.213 -6.20859 -4.60168 0
M  V30 1940 H 183.558 -5.57941 -4.144 0
M  V30 1941 H 186.749 -3.57772 -3.01856 0
M  V30 1942 H 186.922 -5.11186 -3.98237 0
M  V30 1943 N 180.328 1.1314 -1.09713 0
M  V30 1944 C 181.744 1.36477 -0.827423 0
M  V30 1945 C 181.944 1.93654 0.556817 0
M  V30 1946 O 181 2.15791 1.31112 0
M  V30 1947 C 182.313 2.31334 -1.92106 0
M  V30 1948 C 183.861 2.44943 -1.94864 0
M  V30 1949 C 184.336 3.4311 -3.0338 0
M  V30 1950 N 185.827 3.50662 -3.02639 0
M  V30 1951 C 186.562 4.2651 -3.83246 0
M  V30 1952 N 186.058 5.05485 -4.73768 0
M  V30 1953 N 187.851 4.2184 -3.71493 0
M  V30 1954 H 180.002 0.743807 -1.9895 0
M  V30 1955 H 182.265 0.389823 -0.864143 0
M  V30 1956 H 181.971 1.96483 -2.91698 0
M  V30 1957 H 181.845 3.31381 -1.80184 0
M  V30 1958 H 184.232 2.79079 -0.959099 0
M  V30 1959 H 184.313 1.4481 -2.10864 0
M  V30 1960 H 183.957 3.09704 -4.02549 0
M  V30 1961 H 183.887 4.43055 -2.84622 0
M  V30 1962 H 186.378 2.94315 -2.37039 0
M  V30 1963 H 186.691 5.60675 -5.3185 0
M  V30 1964 H 185.036 5.04708 -4.77802 0
M  V30 1965 H 188.227 3.5922 -3.00131 0
M  V30 1966 H 188.4 4.80697 -4.3455 0
M  V30 1967 N 181.806 0.884767 1.30421 0
M  V30 1968 C 183.052 0.513218 1.96819 0
M  V30 1969 C 183.407 -0.927347 1.68577 0
M  V30 1970 O 182.7 -1.64644 0.979941 0
M  V30 1971 C 182.894 0.724318 3.49983 0
M  V30 1972 C 182.723 2.18385 3.93113 0
M  V30 1973 C 181.493 2.82839 4.18725 0
M  V30 1974 C 183.691 3.15763 4.05953 0
M  V30 1975 N 181.673 4.1939 4.48314 0
M  V30 1976 C 183.044 4.37387 4.39423 0
M  V30 1977 C 185.099 3.11555 3.88379 0
M  V30 1978 C 183.802 5.55343 4.5715 0
M  V30 1979 C 185.828 4.28782 4.07308 0
M  V30 1980 C 185.19 5.49172 4.41123 0
M  V30 1981 H 181.289 0.237123 0.745182 0
M  V30 1982 H 183.873 1.14246 1.57658 0
M  V30 1983 H 182.044 0.124565 3.882 0
M  V30 1984 H 183.776 0.31969 4.03435 0
M  V30 1985 H 180.531 2.33708 4.11919 0
M  V30 1986 H 180.955 4.89911 4.67243 0
M  V30 1987 H 185.597 2.19576 3.61312 0
M  V30 1988 H 183.315 6.47826 4.8306 0
M  V30 1989 H 186.901 4.26995 3.95179 0
M  V30 1990 H 185.781 6.38371 4.55469 0
M  V30 1991 N 183.284 -1.43765 0.645699 0
M  V30 1992 C 184.7 -1.56509 0.312591 0
M  V30 1993 C 184.9 -1.6307 -1.18365 0
M  V30 1994 O 183.956 -1.58167 -1.96824 0
M  V30 1995 C 185.269 -2.82968 1.01733 0
M  V30 1996 C 186.817 -2.96701 0.996865 0
M  V30 1997 C 187.292 -4.25982 1.68236 0
M  V30 1998 N 188.783 -4.32829 1.64964 0
M  V30 1999 C 189.518 -5.31613 2.14885 0
M  V30 2000 N 189.014 -6.36718 2.73061 0
M  V30 2001 N 190.807 -5.23217 2.05428 0
M  V30 2002 H 182.958 -1.3775 1.61675 0
M  V30 2003 H 185.221 -0.661067 0.679481 0
M  V30 2004 H 184.927 -2.84156 2.0724 0
M  V30 2005 H 184.801 -3.72957 0.564177 0
M  V30 2006 H 187.188 -2.95058 -0.0497719 0
M  V30 2007 H 187.269 -2.08022 1.48865 0
M  V30 2008 H 186.913 -4.28386 2.72852 0
M  V30 2009 H 186.843 -5.13545 1.16529 0
M  V30 2010 H 189.334 -3.57493 1.22503 0
M  V30 2011 H 189.647 -7.08401 3.08848 0
M  V30 2012 H 187.992 -6.37362 2.77118 0
M  V30 2013 H 191.183 -4.40019 1.59689 0
M  V30 2014 H 191.356 -6.00045 2.44643 0
M  V30 2015 N 184.763 -0.387143 -1.52771 0
M  V30 2016 C 185.726 0.436939 -2.24997 0
M  V30 2017 C 186.726 0.991991 -1.26555 0
M  V30 2018 O 187.916 0.874335 -1.50669 0
M  V30 2019 C 185.048 1.61281 -3.00335 0
M  V30 2020 H 186.241 -0.195365 -2.99263 0
M  V30 2021 H 183.794 -0.139218 -1.55679 0
M  V30 2022 H 184.529 2.2826 -2.30364 0
M  V30 2023 H 184.314 1.22154 -3.72587 0
M  V30 2024 H 185.804 2.19629 -3.5518 0
M  V30 2025 N 186.241 1.57166 -0.116904 0
M  V30 2026 C 187.518 1.86645 0.585049 0
M  V30 2027 C 187.898 1.0177 1.84949 0
M  V30 2028 O 187.246 0.0960379 2.28298 0
M  V30 2029 C 187.456 3.37736 0.879507 0
M  V30 2030 C 188.804 4.06289 1.23348 0
M  V30 2031 O 189.828 3.42743 0.969836 0
M  V30 2032 O 188.687 5.18455 1.7282 0
M  V30 2033 H 185.781 0.772593 0.295007 0
M  V30 2034 H 188.327 1.69025 -0.151249 0
M  V30 2035 H 187.099 3.91296 -0.0166136 0
M  V30 2036 H 186.722 3.6078 1.67103 0
M  V30 2037 N 187.719 -0.156864 1.56817 0
M  V30 2038 C 188.682 -1.17781 1.96622 0
M  V30 2039 C 189.682 -1.36401 0.851555 0
M  V30 2040 O 190.872 -1.33561 1.11836 0
M  V30 2041 C 188.004 -2.54008 2.27361 0
M  V30 2042 H 189.197 -0.836564 2.87996 0
M  V30 2043 H 186.75 -0.39985 1.51099 0
M  V30 2044 H 187.485 -2.9312 1.38748 0
M  V30 2045 H 187.27 -2.41856 3.08623 0
M  V30 2046 H 188.76 -3.27558 2.59029 0
M  V30 2047 N 189.197 -1.51736 -0.425897 0
M  V30 2048 C 190.445 -1.64644 -1.17204 0
M  V30 2049 C 190.766 -0.370486 -1.91448 0
M  V30 2050 O 190.036 0.614088 -1.86026 0
M  V30 2051 H 188.616 -0.606819 -0.435638 0
M  V30 2052 H 191.278 -1.88713 -0.487177 0
M  V30 2053 H 190.374 -2.47958 -1.89534 0
M  V30 2054 N 190.675 0.682077 -1.42076 0
M  V30 2055 C 191.924 1.43786 -1.41451 0
M  V30 2056 C 192.237 1.95574 -0.0317074 0
M  V30 2057 O 193.443 2.71326 0.0971462 0
M  V30 2058 C 191.899 2.60071 -2.48779 0
M  V30 2059 C 191.507 2.15013 -3.93031 0
M  V30 2060 C 193.251 3.37626 -2.57311 0
M  V30 2061 C 191.158 3.28336 -4.91883 0
M  V30 2062 H 190.088 0.540143 -0.526082 0
M  V30 2063 H 192.739 0.739157 -1.67955 0
M  V30 2064 H 191.121 3.32275 -2.15429 0
M  V30 2065 H 192.295 1.5001 -4.35699 0
M  V30 2066 H 190.61 1.50416 -3.88284 0
M  V30 2067 H 193.207 4.22012 -3.28345 0
M  V30 2068 H 193.55 3.83727 -1.61429 0
M  V30 2069 H 194.083 2.72488 -2.89819 0
M  V30 2070 H 190.822 2.87234 -5.89217 0
M  V30 2071 H 190.342 3.92145 -4.53853 0
M  V30 2072 H 192.021 3.93913 -5.13265 0
M  V30 2073 N 192.153 1.28127 0.917671 0
M  V30 2074 C 193.402 1.14432 1.66097 0
M  V30 2075 C 193.715 -0.307247 1.93172 0
M  V30 2076 O 194.921 -0.565259 2.65551 0
M  V30 2077 C 193.377 2.00015 2.99202 0
M  V30 2078 C 192.985 3.49889 2.79789 0
M  V30 2079 C 194.729 1.94996 3.77064 0
M  V30 2080 C 192.636 4.27636 4.08511 0
M  V30 2081 H 191.566 0.424662 0.62304 0
M  V30 2082 H 194.217 1.52628 1.01868 0
M  V30 2083 H 192.599 1.54672 3.64544 0
M  V30 2084 H 193.773 4.03162 2.23152 0
M  V30 2085 H 192.088 3.56392 2.15345 0
M  V30 2086 H 194.685 2.50354 4.72469 0
M  V30 2087 H 195.028 0.925819 4.05875 0
M  V30 2088 H 195.561 2.38287 3.18534 0
M  V30 2089 H 192.3 5.30615 3.84874 0
M  V30 2090 H 191.82 3.79137 4.64774 0
M  V30 2091 H 193.499 4.37346 4.76799 0
M  V30 2092 N 193.631 -1.12557 1.10312 0
M  V30 2093 C 194.563 -2.17971 0.708625 0
M  V30 2094 C 195.576 -1.60806 -0.254027 0
M  V30 2095 O 196.765 -1.78458 -0.0386891 0
M  V30 2096 C 193.865 -3.38891 0.0248198 0
M  V30 2097 C 193.038 -4.25548 1.01132 0
M  V30 2098 C 192.097 -5.24972 0.35924 0
M  V30 2099 O 191.123 -5.60174 1.00965 0
M  V30 2100 N 192.325 -5.73747 -0.882847 0
M  V30 2101 H 195.09 -2.52427 1.61557 0
M  V30 2102 H 192.651 -1.27967 0.991771 0
M  V30 2103 H 194.643 -4.02485 -0.422852 0
M  V30 2104 H 193.213 -3.02596 -0.784514 0
M  V30 2105 H 192.433 -3.58589 1.6373 0
M  V30 2106 H 193.721 -4.80294 1.67914 0
M  V30 2107 H 193.119 -5.4731 -1.43065 0
M  V30 2108 H 191.676 -6.39234 -1.27369 0
M  V30 2109 N 195.109 -0.891671 -1.2995 0
M  V30 2110 C 196.072 -0.36828 -2.26222 0
M  V30 2111 C 197.072 0.493014 -1.53056 0
M  V30 2112 O 198.262 0.299213 -1.71611 0
M  V30 2113 C 195.394 0.47442 -3.37583 0
M  V30 2114 H 196.587 -1.21844 -2.74033 0
M  V30 2115 H 194.14 -0.669107 -1.41254 0
M  V30 2116 H 194.875 1.34489 -2.95099 0
M  V30 2117 H 194.66 -0.142615 -3.91841 0
M  V30 2118 H 196.15 0.83218 -4.09224 0
M  V30 2119 N 196.587 1.43421 -0.653314 0
M  V30 2120 C 197.833 2.02641 -0.175593 0
M  V30 2121 C 198.188 1.5062 1.19713 0
M  V30 2122 O 197.481 0.689697 1.78756 0
M  V30 2123 C 197.675 3.57176 -0.126623 0
M  V30 2124 C 197.504 4.24191 -1.49306 0
M  V30 2125 C 196.274 4.60257 -2.08547 0
M  V30 2126 C 198.472 4.53193 -2.43148 0
M  V30 2127 N 196.454 5.12345 -3.38194 0
M  V30 2128 C 197.825 5.06601 -3.57429 0
M  V30 2129 C 199.88 4.35161 -2.41949 0
M  V30 2130 C 198.583 5.43875 -4.70736 0
M  V30 2131 C 200.609 4.73498 -3.54336 0
M  V30 2132 C 199.971 5.27039 -4.67343 0
M  V30 2133 H 196.07 0.77441 -0.108686 0
M  V30 2134 H 198.654 1.74596 -0.861638 0
M  V30 2135 H 196.825 3.84784 0.528766 0
M  V30 2136 H 198.557 4.03078 0.36198 0
M  V30 2137 H 195.312 4.45302 -1.61255 0
M  V30 2138 H 195.736 5.42842 -4.04538 0
M  V30 2139 H 200.378 3.9304 -1.55818 0
M  V30 2140 H 198.096 5.8494 -5.57558 0
M  V30 2141 H 201.682 4.61241 -3.5461 0
M  V30 2142 H 200.562 5.56153 -5.52868 0
M  V30 2143 N 198.065 0.39524 1.52563 0
M  V30 2144 C 199.313 -0.184678 2.01254 0
M  V30 2145 C 199.634 -1.46822 1.28329 0
M  V30 2146 O 198.904 -1.91666 0.405094 0
M  V30 2147 H 197.484 -0.0712355 0.743596 0
M  V30 2148 H 200.146 0.528293 1.87603 0
M  V30 2149 H 199.242 -0.390681 3.09645 0
M  V30 2150 N 199.544 -1.57102 0.125237 0
M  V30 2151 C 200.955 -1.82384 -0.399142 0
M  V30 2152 C 201.306 -1.04276 -1.66195 0
M  V30 2153 O 200.431 -0.281269 -2.14564 0
M  V30 2154 C 201.026 -3.30821 -0.730932 0
M  V30 2155 C 199.585 -3.56762 -1.19992 0
M  V30 2156 C 198.732 -2.7649 -0.211792 0
M  V30 2157 H 201.683 -1.54786 0.350277 0
M  V30 2158 H 201.704 -3.4579 -1.58775 0
M  V30 2159 H 201.216 -3.87643 0.188345 0
M  V30 2160 H 199.317 -3.05305 -2.13588 0
M  V30 2161 H 199.43 -4.65317 -1.14093 0
M  V30 2162 H 197.794 -2.4489 -0.700085 0
M  V30 2163 H 198.577 -3.36073 0.700691 0
M  V30 2164 N 201.022 0.148545 -1.56898 0
M  V30 2165 C 201.969 1.18345 -1.98149 0
M  V30 2166 C 202.939 1.42772 -0.848848 0
M  V30 2167 O 204.124 1.55132 -1.11079 0
M  V30 2168 C 201.264 2.51231 -2.36594 0
M  V30 2169 C 200.377 2.33991 -3.63142 0
M  V30 2170 C 199.512 3.59902 -3.90697 0
M  V30 2171 C 198.551 3.37692 -5.1052 0
M  V30 2172 N 197.688 4.5573 -5.34092 0
M  V30 2173 H 202.528 0.82467 -2.86362 0
M  V30 2174 H 200.065 0.395756 -1.41676 0
M  V30 2175 H 202.023 3.28713 -2.56912 0
M  V30 2176 H 200.653 2.85059 -1.51463 0
M  V30 2177 H 199.705 1.47572 -3.50609 0
M  V30 2178 H 201.017 2.13539 -4.5078 0
M  V30 2179 H 200.171 4.45813 -4.11505 0
M  V30 2180 H 198.91 3.83357 -3.01477 0
M  V30 2181 H 197.915 2.5017 -4.89587 0
M  V30 2182 H 199.14 3.15637 -6.0129 0
M  V30 2183 H 197.086 4.79361 -4.47827 0
M  V30 2184 H 197.003 4.38274 -6.15996 0
M  V30 2185 H 198.271 5.42858 -5.59397 0
M  V30 2186 N 202.5 1.5196 0.417844 0
M  V30 2187 C 203.748 1.65263 1.16329 0
M  V30 2188 C 204.069 0.380634 1.91249 0
M  V30 2189 O 203.339 -0.604214 1.86349 0
M  V30 2190 H 201.919 0.60912 0.432414 0
M  V30 2191 H 204.581 1.88969 0.477162 0
M  V30 2192 H 203.677 2.4896 1.88217 0
M  V30 2193 N 203.978 -0.674533 1.42435 0
M  V30 2194 C 205.255 -1.4305 1.33402 0
M  V30 2195 C 205.635 -2.11081 -0.0284674 0
M  V30 2196 O 204.983 -2.03257 -1.04397 0
M  V30 2197 C 205.193 -2.43272 2.50239 0
M  V30 2198 C 206.541 -3.07907 2.92367 0
M  V30 2199 O 207.565 -2.53599 2.50132 0
M  V30 2200 O 206.424 -4.0632 3.65467 0
M  V30 2201 H 203.518 -0.638076 0.526106 0
M  V30 2202 H 206.064 -0.703235 1.54443 0
M  V30 2203 H 204.836 -1.91803 3.41068 0
M  V30 2204 H 204.459 -3.23479 2.31186 0
M  V30 2205 N 205.456 -1.28612 -0.910864 0
M  V30 2206 C 206.867 -1.14406 -1.47541 0
M  V30 2207 C 207.218 0.264901 -1.94403 0
M  V30 2208 O 206.343 1.15942 -1.82719 0
M  V30 2209 C 206.938 -2.07073 -2.68153 0
M  V30 2210 C 205.497 -1.96923 -3.20778 0
M  V30 2211 C 204.644 -1.98646 -1.93481 0
M  V30 2212 H 207.595 -1.41259 -0.723291 0
M  V30 2213 H 207.616 -1.63642 -3.43514 0
M  V30 2214 H 207.128 -3.09611 -2.34015 0
M  V30 2215 H 205.229 -0.97433 -3.59635 0
M  V30 2216 H 205.342 -2.84026 -3.85832 0
M  V30 2217 H 203.706 -1.43093 -2.10705 0
M  V30 2218 H 204.489 -3.02868 -1.61634 0
M  V30 2219 N 206.934 1.1197 -1.10907 0
M  V30 2220 C 207.844 2.21433 -0.774896 0
M  V30 2221 C 208.86 1.72478 0.229657 0
M  V30 2222 O 210.036 2.01288 0.0672008 0
M  V30 2223 C 207.101 3.4602 -0.216986 0
M  V30 2224 C 206.162 4.09791 -1.27944 0
M  V30 2225 C 205.395 5.28431 -0.748055 0
M  V30 2226 O 205.618 5.68823 0.423833 0
M  V30 2227 O 204.552 5.82644 -1.51027 0
M  V30 2228 H 208.378 2.5242 -1.68873 0
M  V30 2229 H 205.963 1.20399 -0.884555 0
M  V30 2230 H 207.845 4.21304 0.090059 0
M  V30 2231 H 206.52 3.16698 0.669633 0
M  V30 2232 H 205.427 3.36265 -1.63941 0
M  V30 2233 H 206.76 4.4328 -2.13925 0
M  V30 2234 N 208.412 0.89855 1.29475 0
M  V30 2235 C 209.36 0.365253 2.29714 0
M  V30 2236 C 210.354 -0.534993 1.6073 0
M  V30 2237 O 211.56 -0.417921 1.75081 0
M  V30 2238 H 207.935 0.0994853 0.74539 0
M  V30 2239 H 209.906 1.22406 2.72138 0
M  V30 2240 C 208.655 -0.393159 3.4547 0
M  V30 2241 H 207.978 0.290332 3.98744 0
M  V30 2242 H 209.418 -0.731189 4.17648 0
M  V30 2243 C 207.877 -1.59539 2.9673 0
M  V30 2244 O 208.407 -2.69469 2.97908 0
M  V30 2245 N 206.613 -1.43716 2.52575 0
M  V30 2246 H 206.16 -0.542828 2.51816 0
M  V30 2247 H 206.118 -2.24288 2.20323 0
M  V30 2248 N 209.89 -1.43072 0.660911 0
M  V30 2249 C 211.138 -2.01323 0.177094 0
M  V30 2250 C 211.459 -1.5245 -1.2159 0
M  V30 2251 O 210.729 -0.740322 -1.81373 0
M  V30 2252 H 209.309 -0.744382 0.0624804 0
M  V30 2253 H 211.971 -1.75179 0.854305 0
M  V30 2254 H 211.067 -3.11649 0.167641 0
M  V30 2255 N 211.368 -0.403325 -1.52352 0
M  V30 2256 C 212.616 0.174003 -2.0135 0
M  V30 2257 C 212.937 1.46139 -1.29106 0
M  V30 2258 O 212.207 1.91448 -0.415253 0
M  V30 2259 H 210.787 0.0672911 -0.743963 0
M  V30 2260 H 213.449 -0.538235 -1.87321 0
M  V30 2261 H 212.545 0.374254 -3.09848 0
M  V30 2262 N 212.846 1.57033 -0.133567 0
M  V30 2263 C 214.262 1.58035 0.222944 0
M  V30 2264 C 214.462 1.14713 1.6566 0
M  V30 2265 O 213.518 0.841218 2.38075 0
M  V30 2266 C 214.831 3.00691 -0.0236116 0
M  V30 2267 C 216.379 3.12973 0.0411512 0
M  V30 2268 C 216.854 4.57654 -0.177899 0
M  V30 2269 N 218.345 4.63033 -0.124365 0
M  V30 2270 C 219.08 5.72771 -0.268553 0
M  V30 2271 N 218.576 6.91206 -0.46972 0
M  V30 2272 N 220.369 5.61718 -0.2071 0
M  V30 2273 H 212.52 1.8349 -1.06981 0
M  V30 2274 H 214.783 0.848677 -0.422436 0
M  V30 2275 H 214.489 3.36726 -1.0153 0
M  V30 2276 H 214.363 3.70614 0.701808 0
M  V30 2277 H 216.75 2.76787 1.02338 0
M  V30 2278 H 216.831 2.45564 -0.716383 0
M  V30 2279 H 216.475 4.94542 -1.15717 0
M  V30 2280 H 216.405 5.23173 0.599797 0
M  V30 2281 H 218.896 3.7789 0.027011 0
M  V30 2282 H 219.209 7.70693 -0.570212 0
M  V30 2283 H 217.554 6.93156 -0.505876 0
M  V30 2284 H 220.745 4.68072 -0.0507986 0
M  V30 2285 H 220.918 6.47195 -0.322909 0
M  V30 2286 N 214.325 -0.140222 1.56975 0
M  V30 2287 C 215.574 -0.850152 1.82908 0
M  V30 2288 C 215.887 -1.82028 0.715892 0
M  V30 2289 O 217.093 -2.57485 0.861016 0
M  V30 2290 C 215.549 -1.5625 3.24213 0
M  V30 2291 C 215.157 -0.63443 4.43485 0
M  V30 2292 C 216.901 -2.25881 3.59413 0
M  V30 2293 C 214.808 -1.34879 5.75814 0
M  V30 2294 H 213.738 -0.321221 0.682153 0
M  V30 2295 H 216.389 -0.102874 1.83211 0
M  V30 2296 H 214.771 -2.35565 3.18316 0
M  V30 2297 H 215.945 0.12398 4.60633 0
M  V30 2298 H 214.26 -0.0461836 4.16374 0
M  V30 2299 H 216.857 -2.79978 4.5554 0
M  V30 2300 H 217.2 -3.02693 2.85802 0
M  V30 2301 H 217.733 -1.53477 3.67001 0
M  V30 2302 H 214.472 -0.622385 6.52539 0
M  V30 2303 H 213.992 -2.07974 5.6259 0
M  V30 2304 H 215.671 -1.88784 6.18845 0
M  V30 2305 N 215.803 -1.52179 -0.40978 0
M  V30 2306 C 217.052 -1.65434 -1.15388 0
M  V30 2307 C 217.365 -0.390056 -1.91671 0
M  V30 2308 O 218.571 -0.402399 -2.68501 0
M  V30 2309 C 217.027 -2.92279 -2.10003 0
M  V30 2310 C 216.635 -4.25813 -1.39239 0
M  V30 2311 C 218.379 -3.14897 -2.84675 0
M  V30 2312 C 216.286 -5.43782 -2.32498 0
M  V30 2313 H 215.216 -0.616267 -0.434432 0
M  V30 2314 H 217.867 -1.78666 -0.418401 0
M  V30 2315 H 216.249 -2.72744 -2.871 0
M  V30 2316 H 217.423 -4.55828 -0.675099 0
M  V30 2317 H 215.738 -4.09292 -0.766097 0
M  V30 2318 H 218.335 -4.0021 -3.54593 0
M  V30 2319 H 218.678 -2.29103 -3.47588 0
M  V30 2320 H 219.211 -3.34901 -2.14677 0
M  V30 2321 H 215.95 -6.3192 -1.74233 0
M  V30 2322 H 215.47 -5.18106 -3.02201 0
M  V30 2323 H 217.149 -5.76834 -2.93038 0
M  V30 2324 N 217.281 0.66697 -1.42791 0
M  V30 2325 C 218.53 1.42278 -1.42968 0
M  V30 2326 C 218.843 1.9553 -0.0524489 0
M  V30 2327 O 220.049 2.71414 0.068363 0
M  V30 2328 C 218.505 2.57418 -2.51524 0
M  V30 2329 C 218.113 2.10832 -3.9529 0
M  V30 2330 C 219.857 3.34878 -2.60877 0
M  V30 2331 C 217.764 3.23101 -4.95338 0
M  V30 2332 H 216.694 0.534533 -0.531781 0
M  V30 2333 H 219.345 0.721302 -1.68729 0
M  V30 2334 H 217.727 3.29971 -2.18941 0
M  V30 2335 H 218.901 1.4538 -4.37266 0
M  V30 2336 H 217.216 1.46289 -3.89857 0
M  V30 2337 H 219.813 4.18505 -3.32802 0
M  V30 2338 H 220.156 3.81993 -1.6549 0
M  V30 2339 H 220.689 2.69398 -2.92693 0
M  V30 2340 H 217.428 2.80969 -5.9223 0
M  V30 2341 H 216.948 3.87309 -4.57987 0
M  V30 2342 H 218.627 3.88447 -5.17415 0
M  V30 2343 N 218.759 1.29093 0.90403 0
M  V30 2344 C 220.036 1.075 1.63411 0
M  V30 2345 C 220.416 -0.382346 2.07609 0
M  V30 2346 O 219.764 -1.37031 1.82851 0
M  V30 2347 C 219.974 2.05858 2.81822 0
M  V30 2348 C 221.322 2.36539 3.52611 0
M  V30 2349 O 222.346 2.04019 2.91984 0
M  V30 2350 O 221.205 2.92085 4.61897 0
M  V30 2351 H 218.299 0.411547 0.717327 0
M  V30 2352 H 220.845 1.40449 0.952479 0
M  V30 2353 H 219.617 3.04037 2.46327 0
M  V30 2354 H 219.24 1.73613 3.57693 0
M  V30 2355 N 220.237 -1.11381 1.11499 0
M  V30 2356 C 221.477 -1.84763 0.874188 0
M  V30 2357 C 221.841 -1.82726 -0.589496 0
M  V30 2358 O 223.042 -2.51562 -0.947089 0
M  V30 2359 C 221.313 -3.27931 1.42112 0
M  V30 2360 S 222.872 -4.18557 1.31739 0
M  V30 2361 H 219.69 -0.637115 0.315603 0
M  V30 2362 H 222.292 -1.34097 1.42261 0
M  V30 2363 H 220.996 -3.26978 2.48019 0
M  V30 2364 H 220.527 -3.83665 0.869761 0
M  V30 2365 H 222.542 -4.95396 0.282335 0
M  V30 2366 N 221.715 -0.905404 -1.28997 0
M  V30 2367 C 222.645 -0.404212 -2.29975 0
M  V30 2368 C 223.626 0.523784 -1.61835 0
M  V30 2369 O 224.811 0.433298 -1.89304 0
M  V30 2370 C 221.941 0.364042 -3.45387 0
M  V30 2371 C 220.895 -0.474048 -4.25367 0
M  V30 2372 C 220.221 0.422045 -5.33032 0
M  V30 2373 C 221.521 -1.72696 -4.92923 0
M  V30 2374 H 223.215 -1.24807 -2.72146 0
M  V30 2375 H 220.761 -0.601585 -1.30832 0
M  V30 2376 H 222.714 0.725447 -4.15109 0
M  V30 2377 H 221.438 1.24174 -3.02074 0
M  V30 2378 H 220.097 -0.81786 -3.57361 0
M  V30 2379 H 219.745 1.29804 -4.85963 0
M  V30 2380 H 219.445 -0.135057 -5.87445 0
M  V30 2381 H 220.969 0.779517 -6.05604 0
M  V30 2382 H 222.383 -1.43495 -5.55051 0
M  V30 2383 H 220.78 -2.22582 -5.57295 0
M  V30 2384 H 221.85 -2.45964 -4.17887 0
M  V30 2385 N 223.193 1.4272 -0.668489 0
M  V30 2386 C 224.123 2.335 -0.000100175 0
M  V30 2387 C 225.104 1.50328 0.795964 0
M  V30 2388 O 226.289 1.78949 0.754385 0
M  V30 2389 C 223.419 3.33874 0.956302 0
M  V30 2390 C 222.373 4.27152 0.269278 0
M  V30 2391 C 221.699 5.17684 1.33818 0
M  V30 2392 C 222.999 5.15373 -0.847805 0
M  V30 2393 H 224.693 2.89639 -0.758244 0
M  V30 2394 H 222.239 1.39269 -0.366079 0
M  V30 2395 H 224.192 3.9629 1.43292 0
M  V30 2396 H 222.916 2.76025 1.74579 0
M  V30 2397 H 221.575 3.66123 -0.187042 0
M  V30 2398 H 221.223 4.56165 2.1195 0
M  V30 2399 H 220.923 5.80918 0.883659 0
M  V30 2400 H 222.447 5.82974 1.81586 0
M  V30 2401 H 223.861 5.7151 -0.452681 0
M  V30 2402 H 222.258 5.87407 -1.22773 0
M  V30 2403 H 223.328 4.5415 -1.69929 0
M  V30 2404 N 224.671 0.411399 1.52136 0
M  V30 2405 C 225.619 -0.427633 2.28635 0
M  V30 2406 C 226.613 -1.04383 1.33419 0
M  V30 2407 O 227.819 -0.981772 1.50868 0
M  V30 2408 H 224.194 -0.156689 0.735495 0
M  V30 2409 H 226.165 0.238761 2.97443 0
M  V30 2410 C 224.914 -1.53082 3.12188 0
M  V30 2411 H 224.237 -1.06601 3.85326 0
M  V30 2412 H 225.677 -2.09167 3.68816 0
M  V30 2413 C 224.136 -2.49946 2.25895 0
M  V30 2414 O 224.666 -3.53884 1.90076 0
M  V30 2415 N 222.872 -2.2021 1.8962 0
M  V30 2416 H 222.419 -1.35719 2.18948 0
M  V30 2417 H 222.377 -2.85266 1.32176 0
M  V30 2418 N 226.149 -1.5696 0.141893 0
M  V30 2419 C 227.079 -2.19516 -0.795936 0
M  V30 2420 C 228.06 -1.14187 -1.26077 0
M  V30 2421 O 229.245 -1.42511 -1.31925 0
M  V30 2422 C 226.375 -2.81272 -2.03723 0
M  V30 2423 C 225.329 -3.92384 -1.70936 0
M  V30 2424 C 224.655 -4.41052 -3.02287 0
M  V30 2425 C 225.955 -5.13403 -0.959954 0
M  V30 2426 H 227.649 -2.98138 -0.274596 0
M  V30 2427 H 225.195 -1.43406 -0.130636 0
M  V30 2428 H 227.148 -3.237 -2.69808 0
M  V30 2429 H 225.872 -1.99973 -2.58221 0
M  V30 2430 H 224.531 -3.50566 -1.07232 0
M  V30 2431 H 224.179 -3.56582 -3.54765 0
M  V30 2432 H 223.879 -5.15993 -2.81114 0
M  V30 2433 H 225.403 -4.86146 -3.69451 0
M  V30 2434 H 226.817 -5.52706 -1.52279 0
M  V30 2435 H 225.214 -5.94073 -0.848357 0
M  V30 2436 H 226.284 -4.84875 0.0492434 0
M  V30 2437 N 227.627 0.131896 -1.57047 0
M  V30 2438 C 229.038 0.690407 -1.73465 0
M  V30 2439 C 229.389 1.8094 -0.758629 0
M  V30 2440 O 228.514 2.16282 0.0713813 0
M  V30 2441 C 229.109 1.25916 -3.14532 0
M  V30 2442 C 227.668 1.76409 -3.32501 0
M  V30 2443 C 226.815 0.658579 -2.69366 0
M  V30 2444 H 229.766 -0.0939144 -1.58422 0
M  V30 2445 H 229.787 2.12892 -3.15369 0
M  V30 2446 H 229.299 0.444515 -3.85546 0
M  V30 2447 H 227.4 2.60391 -2.66509 0
M  V30 2448 H 227.513 1.88241 -4.4057 0
M  V30 2449 H 225.877 1.08899 -2.30246 0
M  V30 2450 H 226.66 -0.14487 -3.42994 0
M  V30 2451 N 229.106 1.52395 0.401703 0
M  V30 2452 C 230.036 1.79231 1.49661 0
M  V30 2453 C 231.017 0.643654 1.57452 0
M  V30 2454 O 232.202 0.889989 1.72606 0
M  V30 2455 C 229.332 1.94971 2.87409 0
M  V30 2456 C 228.286 3.10604 2.94465 0
M  V30 2457 C 227.612 3.11577 4.34538 0
M  V30 2458 C 228.912 4.49921 2.6527 0
M  V30 2459 H 230.606 2.70917 1.27454 0
M  V30 2460 H 228.152 1.30362 0.6117 0
M  V30 2461 H 230.105 2.12328 3.63999 0
M  V30 2462 H 228.829 0.999632 3.10926 0
M  V30 2463 H 227.488 2.93009 2.20321 0
M  V30 2464 H 227.136 2.14277 4.55076 0
M  V30 2465 H 226.836 3.89247 4.40183 0
M  V30 2466 H 228.36 3.31073 5.13053 0
M  V30 2467 H 229.774 4.67683 3.31581 0
M  V30 2468 H 228.171 5.29564 2.82281 0
M  V30 2469 H 229.241 4.57507 1.60671 0
M  V30 2470 N 230.584 -0.659388 1.43143 0
M  V30 2471 C 231.514 -1.78422 1.50625 0
M  V30 2472 C 232.495 -1.66216 0.361443 0
M  V30 2473 O 233.68 -1.85404 0.577834 0
M  V30 2474 C 230.81 -3.16815 1.42287 0
M  V30 2475 C 229.764 -3.43777 2.54954 0
M  V30 2476 C 229.09 -4.81905 2.31671 0
M  V30 2477 C 230.39 -3.39134 3.97222 0
M  V30 2478 H 232.084 -1.72417 2.44771 0
M  V30 2479 H 229.63 -0.828084 1.17808 0
M  V30 2480 H 231.583 -3.95253 1.46127 0
M  V30 2481 H 230.307 -3.23534 0.446435 0
M  V30 2482 H 228.966 -2.67707 2.50457 0
M  V30 2483 H 228.614 -4.85294 1.32284 0
M  V30 2484 H 228.314 -5.00906 3.07192 0
M  V30 2485 H 229.838 -5.62609 2.37284 0
M  V30 2486 H 231.252 -4.07518 4.03239 0
M  V30 2487 H 229.649 -3.69671 4.72719 0
M  V30 2488 H 230.719 -2.37426 4.22797 0
M  V30 2489 N 232.062 -1.29571 -0.897171 0
M  V30 2490 C 232.992 -1.17473 -2.01798 0
M  V30 2491 C 233.973 -0.068323 -1.69963 0
M  V30 2492 O 235.158 -0.248239 -1.92607 0
M  V30 2493 C 232.288 -0.853099 -3.36659 0
M  V30 2494 C 231.242 -1.9161 -3.82713 0
M  V30 2495 C 230.568 -1.44773 -5.14728 0
M  V30 2496 C 231.868 -3.32535 -4.02763 0
M  V30 2497 H 233.562 -2.11237 -2.12177 0
M  V30 2498 H 231.108 -1.01699 -1.01948 0
M  V30 2499 H 233.061 -0.755165 -4.14578 0
M  V30 2500 H 231.785 0.120236 -3.26379 0
M  V30 2501 H 230.444 -2.00346 -3.07013 0
M  V30 2502 H 230.092 -0.462995 -5.00865 0
M  V30 2503 H 229.792 -2.15865 -5.46513 0
M  V30 2504 H 231.316 -1.36334 -5.95185 0
M  V30 2505 H 232.73 -3.26626 -4.71156 0
M  V30 2506 H 231.127 -4.01607 -4.45905 0
M  V30 2507 H 232.197 -3.75326 -3.07016 0
M  V30 2508 N 233.54 1.10788 -1.12088 0
M  V30 2509 C 234.786 1.8313 -0.885148 0
M  V30 2510 C 235.141 1.8336 0.582839 0
M  V30 2511 O 234.434 1.28062 1.42516 0
M  V30 2512 C 234.628 3.29294 -1.38926 0
M  V30 2513 C 234.457 3.43302 -2.90472 0
M  V30 2514 C 233.227 3.55928 -3.58669 0
M  V30 2515 C 235.425 3.37014 -3.88492 0
M  V30 2516 N 233.407 3.58475 -4.98366 0
M  V30 2517 C 234.778 3.46263 -5.14298 0
M  V30 2518 C 236.833 3.20589 -3.80955 0
M  V30 2519 C 235.536 3.4078 -6.33452 0
M  V30 2520 C 237.562 3.16427 -4.99628 0
M  V30 2521 C 236.924 3.26253 -6.2429 0
M  V30 2522 H 233.023 0.685054 -0.377128 0
M  V30 2523 H 235.607 1.3251 -1.4265 0
M  V30 2524 H 233.778 3.78416 -0.874999 0
M  V30 2525 H 235.51 3.89578 -1.09596 0
M  V30 2526 H 232.265 3.58779 -3.09151 0
M  V30 2527 H 232.689 3.6337 -5.71219 0
M  V30 2528 H 237.331 3.11873 -2.85474 0
M  V30 2529 H 235.049 3.48263 -7.29204 0
M  V30 2530 H 238.635 3.04874 -4.95523 0
M  V30 2531 H 237.515 3.2303 -7.14578 0
M  V30 2532 N 235.018 0.912232 1.28515 0
M  V30 2533 C 235.981 0.404223 2.25607 0
M  V30 2534 C 236.981 -0.468602 1.53821 0
M  V30 2535 O 238.171 -0.271873 1.72065 0
M  V30 2536 C 235.303 -0.420653 3.38295 0
M  V30 2537 H 236.496 1.26188 2.7206 0
M  V30 2538 H 234.049 0.691495 1.40171 0
M  V30 2539 H 234.784 -1.29777 2.97201 0
M  V30 2540 H 234.569 0.204935 3.91564 0
M  V30 2541 H 236.059 -0.766971 4.10496 0
M  V30 2542 N 236.496 -1.42363 0.676048 0
M  V30 2543 C 237.744 -2.01123 0.198437 0
M  V30 2544 C 238.065 -1.53731 -1.19966 0
M  V30 2545 O 237.335 -0.759518 -1.80577 0
M  V30 2546 H 235.915 -0.743678 0.0703721 0
M  V30 2547 H 238.577 -1.74263 0.872837 0
M  V30 2548 H 237.673 -3.11454 0.200686 0
M  V30 2549 N 237.974 -0.419461 -1.51915 0
M  V30 2550 C 238.884 0.407528 -2.31033 0
M  V30 2551 C 239.9 1.04413 -1.3919 0
M  V30 2552 O 241.076 1.0434 -1.72265 0
M  V30 2553 C 238.141 1.50365 -3.12396 0
M  V30 2554 C 237.202 0.889029 -4.19994 0
M  V30 2555 C 236.435 1.93291 -4.97468 0
M  V30 2556 O 236.658 3.15259 -4.75361 0
M  V30 2557 O 235.592 1.53339 -5.8204 0
M  V30 2558 H 239.418 -0.237865 -3.02767 0
M  V30 2559 H 237.003 -0.182413 -1.48282 0
M  V30 2560 H 238.885 2.13975 -3.63032 0
M  V30 2561 H 237.56 2.13345 -2.43445 0
M  V30 2562 H 236.467 0.215353 -3.7348 0
M  V30 2563 H 237.8 0.302991 -4.91267 0
M  V30 2564 N 239.452 1.56882 -0.150215 0
M  V30 2565 C 240.384 2.14057 0.819286 0
M  V30 2566 C 241.397 1.09082 1.20851 0
M  V30 2567 O 242.586 1.36347 1.15203 0
M  V30 2568 C 239.686 2.65102 2.11127 0
M  V30 2569 C 238.859 3.94511 1.88891 0
M  V30 2570 C 237.918 4.30834 3.02107 0
M  V30 2571 O 236.944 4.99099 2.73659 0
M  V30 2572 N 238.146 3.90676 4.29363 0
M  V30 2573 H 240.911 2.97871 0.330618 0
M  V30 2574 H 238.472 1.61866 0.0332538 0
M  V30 2575 H 240.464 2.86411 2.85921 0
M  V30 2576 H 239.034 1.85994 2.51247 0
M  V30 2577 H 238.254 3.81795 0.981152 0
M  V30 2578 H 239.542 4.7907 1.71376 0
M  V30 2579 H 238.94 3.35677 4.55343 0
M  V30 2580 H 237.497 4.1703 5.00928 0
M  V30 2581 N 240.93 -0.123565 1.57115 0
M  V30 2582 C 242.158 -0.846461 1.88793 0
M  V30 2583 C 242.573 -1.73652 0.740976 0
M  V30 2584 O 241.93 -1.80207 -0.288393 0
M  V30 2585 C 241.981 -1.6837 3.19897 0
M  V30 2586 O 241.702 -0.829477 4.30176 0
M  V30 2587 C 243.203 -2.51214 3.65248 0
M  V30 2588 H 240.423 -0.243573 0.625231 0
M  V30 2589 H 242.967 -0.109324 2.04208 0
M  V30 2590 H 241.122 -2.37364 3.06165 0
M  V30 2591 H 241.536 -1.40651 5.0529 0
M  V30 2592 H 243.01 -3.05497 4.59756 0
M  V30 2593 H 243.487 -3.28359 2.9168 0
M  V30 2594 H 244.093 -1.8747 3.81752 0
M  V30 2595 N 242.408 -1.52605 -0.393616 0
M  V30 2596 C 243.656 -1.67093 -1.13685 0
M  V30 2597 C 243.977 -0.411011 -1.90619 0
M  V30 2598 O 243.247 0.574491 -1.87287 0
M  V30 2599 H 241.827 -0.615923 -0.422668 0
M  V30 2600 H 244.489 -1.89704 -0.447039 0
M  V30 2601 H 243.585 -2.51922 -1.84232 0
M  V30 2602 N 243.887 0.651787 -1.4349 0
M  V30 2603 C 245.164 1.40909 -1.35661 0
M  V30 2604 C 245.544 2.11099 -0.00511733 0
M  V30 2605 O 244.892 2.04892 1.0115 0
M  V30 2606 C 245.102 2.3926 -2.54078 0
M  V30 2607 C 246.45 3.03217 -2.97228 0
M  V30 2608 O 247.474 2.49588 -2.54135 0
M  V30 2609 O 246.333 4.00455 -3.71885 0
M  V30 2610 H 243.427 0.629625 -0.536191 0
M  V30 2611 H 245.973 0.678575 -1.55542 0
M  V30 2612 H 244.745 1.86352 -3.44076 0
M  V30 2613 H 244.368 3.1976 -2.36303 0
M  V30 2614 N 245.365 1.30045 0.890287 0
M  V30 2615 C 246.776 1.16738 1.45702 0
M  V30 2616 C 247.127 -0.233939 1.948 0
M  V30 2617 O 246.252 -1.13021 1.84541 0
M  V30 2618 C 246.847 2.11313 2.64825 0
M  V30 2619 C 245.406 2.02001 3.17604 0
M  V30 2620 C 244.553 2.01699 1.90296 0
M  V30 2621 H 247.504 1.42392 0.700726 0
M  V30 2622 H 247.525 1.69086 3.40867 0
M  V30 2623 H 247.037 3.13294 2.2906 0
M  V30 2624 H 245.138 1.03142 3.5804 0
M  V30 2625 H 245.251 2.90128 3.81264 0
M  V30 2626 H 243.615 1.46427 2.08402 0
M  V30 2627 H 244.398 3.05402 1.56795 0
M  V30 2628 N 246.843 -1.10192 1.12674 0
M  V30 2629 C 247.753 -2.20172 0.810026 0
M  V30 2630 C 248.769 -1.72821 -0.202188 0
M  V30 2631 O 249.945 -2.01369 -0.0351691 0
M  V30 2632 C 247.01 -3.45631 0.272007 0
M  V30 2633 C 246.071 -4.07704 1.34447 0
M  V30 2634 C 245.304 -5.27175 0.832029 0
M  V30 2635 O 245.527 -5.69425 -0.333284 0
M  V30 2636 O 244.461 -5.80168 1.60277 0
M  V30 2637 H 248.287 -2.49701 1.72867 0
M  V30 2638 H 245.872 -1.18977 0.903597 0
M  V30 2639 H 247.754 -4.21394 -0.0230219 0
M  V30 2640 H 246.429 -3.17723 -0.619164 0
M  V30 2641 H 245.336 -3.33614 1.6927 0
M  V30 2642 H 246.669 -4.3982 2.2095 0
M  V30 2643 N 248.321 -0.919034 -1.28029 0
M  V30 2644 C 249.551 -0.570143 -1.98577 0
M  V30 2645 C 249.959 0.854172 -1.68821 0
M  V30 2646 O 249.302 1.57807 -0.940351 0
M  V30 2647 C 249.364 -0.705734 -3.52505 0
M  V30 2648 C 249.028 -2.10057 -4.05863 0
M  V30 2649 C 250.025 -3.07385 -4.19298 0
M  V30 2650 C 247.71 -2.41517 -4.40426 0
M  V30 2651 C 249.704 -4.34287 -4.66555 0
M  V30 2652 C 247.391 -3.68657 -4.87376 0
M  V30 2653 C 248.389 -4.64856 -5.00398 0
M  V30 2654 O 248.077 -5.89735 -5.46322 0
M  V30 2655 H 247.809 -0.215592 -0.6407 0
M  V30 2656 H 250.363 -1.23583 -1.64062 0
M  V30 2657 H 248.593 0.0170414 -3.86696 0
M  V30 2658 H 250.282 -0.363172 -4.04272 0
M  V30 2659 H 251.048 -2.84398 -3.92865 0
M  V30 2660 H 246.927 -1.67389 -4.29537 0
M  V30 2661 H 250.471 -5.09377 -4.76635 0
M  V30 2662 H 246.368 -3.91466 -5.13249 0
M  V30 2663 H 247.136 -5.92599 -5.64596 0
M  V30 2664 N 249.799 1.42003 -0.683588 0
M  V30 2665 C 251.215 1.55625 -0.353976 0
M  V30 2666 C 251.415 1.66151 1.14 0
M  V30 2667 O 250.471 1.63329 1.92561 0
M  V30 2668 C 251.784 2.80171 -1.092 0
M  V30 2669 C 253.332 2.93954 -1.07518 0
M  V30 2670 C 253.807 4.21372 -1.79471 0
M  V30 2671 N 255.298 4.28303 -1.76381 0
M  V30 2672 C 256.033 5.25729 -2.28904 0
M  V30 2673 N 255.529 6.29254 -2.89846 0
M  V30 2674 N 257.322 5.17586 -2.19228 0
M  V30 2675 H 249.473 1.33415 -1.6527 0
M  V30 2676 H 251.736 0.64282 -0.696769 0
M  V30 2677 H 251.442 2.78561 -2.14701 0
M  V30 2678 H 251.316 3.7133 -0.662862 0
M  V30 2679 H 253.703 2.95086 -0.028475 0
M  V30 2680 H 253.784 2.04002 -1.54328 0
M  V30 2681 H 253.428 4.21001 -2.84114 0
M  V30 2682 H 253.358 5.10275 -1.30104 0
M  V30 2683 H 255.849 3.54119 -1.31939 0
M  V30 2684 H 256.162 6.99964 -3.27522 0
M  V30 2685 H 254.507 6.29791 -2.93919 0
M  V30 2686 H 257.698 4.35631 -1.71299 0
M  V30 2687 H 257.871 5.93348 -2.60466 0
M  V30 2688 N 251.277 0.427512 1.51691 0
M  V30 2689 C 252.693 0.0792977 1.59403 0
M  V30 2690 C 252.893 -1.41035 1.43914 0
M  V30 2691 O 251.949 -2.17922 1.27539 0
M  V30 2692 C 253.262 0.590636 2.94842 0
M  V30 2693 C 254.81 0.550215 3.08126 0
M  V30 2694 C 255.285 1.03836 4.46074 0
M  V30 2695 N 256.776 0.995943 4.52366 0
M  V30 2696 C 257.511 1.34463 5.57411 0
M  V30 2697 N 257.007 1.76569 6.69922 0
M  V30 2698 N 258.8 1.26343 5.47717 0
M  V30 2699 H 250.951 1.39687 1.60004 0
M  V30 2700 H 253.214 0.575003 0.753708 0
M  V30 2701 H 252.92 1.63251 3.11516 0
M  V30 2702 H 252.794 0.0102061 3.77199 0
M  V30 2703 H 255.181 -0.482654 2.91126 0
M  V30 2704 H 255.262 1.16693 2.27632 0
M  V30 2705 H 254.906 2.06965 4.63819 0
M  V30 2706 H 254.836 0.398286 5.25092 0
M  V30 2707 H 257.327 0.68661 3.7161 0
M  V30 2708 H 257.64 2.01438 7.46085 0
M  V30 2709 H 255.985 1.80488 6.71155 0
M  V30 2710 H 259.176 0.933209 4.58703 0
M  V30 2711 H 259.349 1.53846 6.29472 0
M  V30 2712 N 252.755 -1.56801 0.158532 0
M  V30 2713 C 254.001 -1.96781 -0.490405 0
M  V30 2714 C 254.334 -1.04397 -1.63753 0
M  V30 2715 O 253.609 -0.0885805 -1.94298 0
M  V30 2716 C 253.892 -3.4635 -0.985594 0
M  V30 2717 C 253.745 -4.49512 0.160824 0
M  V30 2718 C 255.064 -3.98697 -1.86355 0
M  V30 2719 H 252.183 -0.715482 -0.176788 0
M  V30 2720 H 254.825 -1.88451 0.242088 0
M  V30 2721 H 252.975 -3.53579 -1.60978 0
M  V30 2722 H 254.647 -4.54353 0.797537 0
M  V30 2723 H 252.89 -4.26013 0.818256 0
M  V30 2724 H 253.561 -5.51531 -0.227569 0
M  V30 2725 H 256.037 -3.94019 -1.33746 0
M  V30 2726 H 254.913 -5.03792 -2.17909 0
M  V30 2727 H 255.174 -3.41744 -2.8047 0
M  V30 2728 N 254.233 0.115231 -1.57178 0
M  V30 2729 C 255.196 1.12526 -1.99676 0
M  V30 2730 C 256.196 1.34095 -0.88742 0
M  V30 2731 O 257.386 1.30548 -1.15337 0
M  V30 2732 C 254.518 2.4789 -2.34015 0
M  V30 2733 H 255.711 0.759912 -2.90113 0
M  V30 2734 H 253.264 0.359648 -1.52106 0
M  V30 2735 H 253.999 2.89339 -1.4647 0
M  V30 2736 H 253.784 2.33588 -3.14927 0
M  V30 2737 H 255.274 3.20575 -2.67622 0
M  V30 2738 N 255.711 1.52812 0.385517 0
M  V30 2739 C 256.621 1.80766 1.49535 0
M  V30 2740 C 257.637 0.694651 1.59532 0
M  V30 2741 O 258.813 0.982611 1.75803 0
M  V30 2742 C 255.878 1.97381 2.85029 0
M  V30 2743 C 254.939 3.21295 2.84724 0
M  V30 2744 C 254.172 3.37108 4.13756 0
M  V30 2745 O 254.395 2.5765 5.08893 0
M  V30 2746 O 253.329 4.30378 4.20783 0
M  V30 2747 H 257.155 2.75015 1.28842 0
M  V30 2748 H 254.74 1.37946 0.573697 0
M  V30 2749 H 256.622 2.09996 3.65349 0
M  V30 2750 H 255.297 1.06322 3.05741 0
M  V30 2751 H 254.204 3.1412 2.03174 0
M  V30 2752 H 255.537 4.12212 2.68965 0
M  V30 2753 N 257.189 -0.644168 1.43834 0
M  V30 2754 C 258.152 -1.73857 1.49353 0
M  V30 2755 C 259.152 -1.56315 0.377112 0
M  V30 2756 O 260.342 -1.62048 0.639226 0
M  V30 2757 C 257.474 -3.12819 1.35488 0
M  V30 2758 H 258.667 -1.70342 2.46827 0
M  V30 2759 H 256.22 -0.856652 1.30733 0
M  V30 2760 H 256.955 -3.2194 0.390569 0
M  V30 2761 H 256.74 -3.26958 2.16428 0
M  V30 2762 H 258.23 -3.92606 1.42302 0
M  V30 2763 N 258.668 -1.30515 -0.883378 0
M  V30 2764 C 259.618 -1.13641 -1.9766 0
M  V30 2765 C 260.602 -0.0511314 -1.60819 0
M  V30 2766 O 261.794 -0.274623 -1.74857 0
M  V30 2767 C 258.923 -0.831976 -3.33066 0
M  V30 2768 C 258.009 -1.95759 -3.76217 0
M  V30 2769 N 258.4 -3.20313 -3.9145 0
M  V30 2770 C 256.698 -1.85431 -4.05625 0
M  V30 2771 C 257.399 -3.93856 -4.2808 0
M  V30 2772 N 256.375 -3.21919 -4.38029 0
M  V30 2773 H 260.177 -2.08106 -2.07531 0
M  V30 2774 H 257.691 -1.21877 -1.0733 0
M  V30 2775 H 259.688 -0.692102 -4.11115 0
M  V30 2776 H 258.348 0.104588 -3.24532 0
M  V30 2777 H 259.359 -3.55583 -3.76538 0
M  V30 2778 H 256.036 -0.991531 -4.05555 0
M  V30 2779 H 257.426 -5.01125 -4.47575 0
M  V30 2780 N 260.146 1.09593 -1.13257 0
M  V30 2781 C 261.109 2.14359 -0.811358 0
M  V30 2782 C 262.109 1.59808 0.178377 0
M  V30 2783 O 263.299 1.74132 -0.0484911 0
M  V30 2784 C 260.431 3.40269 -0.207276 0
M  V30 2785 H 261.624 2.44284 -1.73969 0
M  V30 2786 H 259.177 1.25102 -0.936973 0
M  V30 2787 H 259.912 3.15969 0.73036 0
M  V30 2788 H 259.697 3.81154 -0.919992 0
M  V30 2789 H 261.187 4.176 0.000667944 0
M  V30 2790 N 261.624 0.925811 1.2754 0
M  V30 2791 C 262.554 0.440748 2.29303 0
M  V30 2792 C 263.535 -0.497971 1.62648 0
M  V30 2793 O 264.72 -0.403126 1.8997 0
M  V30 2794 C 261.85 -0.309048 3.45922 0
M  V30 2795 C 260.804 0.54166 4.24559 0
M  V30 2796 C 260.13 -0.337191 5.33636 0
M  V30 2797 C 261.43 1.80516 4.90114 0
M  V30 2798 H 263.124 1.29121 2.70126 0
M  V30 2799 H 260.67 0.622323 1.29858 0
M  V30 2800 H 262.623 -0.659315 4.1621 0
M  V30 2801 H 261.347 -1.19352 3.04011 0
M  V30 2802 H 260.006 0.874609 3.56014 0
M  V30 2803 H 259.654 -1.22056 4.87966 0
M  V30 2804 H 259.354 0.228497 5.87156 0
M  V30 2805 H 260.878 -0.683072 6.06767 0
M  V30 2806 H 262.292 1.52307 5.52698 0
M  V30 2807 H 260.689 2.3142 5.53683 0
M  V30 2808 H 261.759 2.52581 4.13921 0
M  V30 2809 N 263.102 -1.41638 0.69111 0
M  V30 2810 C 264.049 -2.30789 0.0229705 0
M  V30 2811 C 265.019 -1.46863 -0.775911 0
M  V30 2812 O 266.204 -1.75661 -0.74485 0
M  V30 2813 C 263.344 -3.32868 -0.910666 0
M  V30 2814 C 262.457 -4.31875 -0.103874 0
M  V30 2815 C 261.592 -5.21024 -1.03475 0
M  V30 2816 C 260.631 -6.11702 -0.220598 0
M  V30 2817 N 259.768 -6.93349 -1.10504 0
M  V30 2818 H 264.608 -2.87366 0.788978 0
M  V30 2819 H 262.145 -1.41535 0.400794 0
M  V30 2820 H 264.103 -3.90596 -1.46597 0
M  V30 2821 H 262.733 -2.77851 -1.64312 0
M  V30 2822 H 261.785 -3.76131 0.568285 0
M  V30 2823 H 263.097 -4.96003 0.527504 0
M  V30 2824 H 262.251 -5.83565 -1.65943 0
M  V30 2825 H 260.99 -4.57112 -1.69999 0
M  V30 2826 H 259.995 -5.48215 0.417187 0
M  V30 2827 H 261.22 -6.77668 0.440784 0
M  V30 2828 H 259.166 -6.3205 -1.75638 0
M  V30 2829 H 259.083 -7.54146 -0.529125 0
M  V30 2830 H 260.351 -7.60362 -1.71667 0
M  V30 2831 N 264.58 -0.43555 -1.51462 0
M  V30 2832 C 265.805 0.132627 -2.06976 0
M  V30 2833 C 266.23 1.35848 -1.30104 0
M  V30 2834 O 265.588 1.78112 -0.338493 0
M  V30 2835 C 265.636 0.43523 -3.57964 0
M  V30 2836 O 264.74 1.52198 -3.83288 0
M  V30 2837 H 264.081 0.00265 -0.663995 0
M  V30 2838 H 266.611 -0.616369 -1.95095 0
M  V30 2839 H 266.621 0.686206 -4.02188 0
M  V30 2840 H 265.296 -0.460739 -4.1334 0
M  V30 2841 H 263.873 1.2611 -3.50928 0
M  V30 2842 N 266.058 1.56714 -0.166846 0
M  V30 2843 C 267.474 1.58473 0.189372 0
M  V30 2844 C 267.674 1.18201 1.63189 0
M  V30 2845 O 266.73 0.891528 2.36237 0
M  V30 2846 C 268.043 3.00573 -0.0873872 0
M  V30 2847 C 269.591 3.1299 -0.0252443 0
M  V30 2848 C 270.066 4.57174 -0.274934 0
M  V30 2849 N 271.557 4.62665 -0.222553 0
M  V30 2850 C 272.292 5.72072 -0.389985 0
M  V30 2851 N 271.788 6.90054 -0.616229 0
M  V30 2852 N 273.581 5.61153 -0.326202 0
M  V30 2853 H 265.732 1.8118 -1.10849 0
M  V30 2854 H 267.995 0.839525 -0.440342 0
M  V30 2855 H 267.701 3.34497 -1.0865 0
M  V30 2856 H 267.575 3.72019 0.623037 0
M  V30 2857 H 269.962 2.78895 0.96444 0
M  V30 2858 H 270.043 2.43989 -0.768309 0
M  V30 2859 H 269.687 4.91976 -1.26181 0
M  V30 2860 H 269.617 5.24328 0.48869 0
M  V30 2861 H 272.108 3.77863 -0.0531512 0
M  V30 2862 H 272.421 7.69311 -0.733559 0
M  V30 2863 H 270.766 6.91927 -0.652791 0
M  V30 2864 H 273.957 4.67859 -0.150072 0
M  V30 2865 H 274.13 6.46364 -0.460116 0
M  V30 2866 N 267.536 -0.106894 1.57237 0
M  V30 2867 C 268.952 -0.46078 1.52804 0
M  V30 2868 C 269.152 -1.81184 0.881746 0
M  V30 2869 O 268.208 -2.48102 0.469224 0
M  V30 2870 C 269.521 -0.434127 2.9755 0
M  V30 2871 C 271.069 -0.516821 3.08704 0
M  V30 2872 C 271.544 -0.520436 4.55033 0
M  V30 2873 N 273.035 -0.58153 4.59535 0
M  V30 2874 C 273.77 -0.605973 5.70189 0
M  V30 2875 N 273.266 -0.587331 6.90306 0
M  V30 2876 N 275.059 -0.649895 5.5833 0
M  V30 2877 H 267.21 0.778203 1.9763 0
M  V30 2878 H 269.473 0.288403 0.903066 0
M  V30 2879 H 269.179 0.491197 3.48253 0
M  V30 2880 H 269.053 -1.25748 3.55622 0
M  V30 2881 H 271.44 -1.43256 2.57995 0
M  V30 2882 H 271.521 0.334449 2.53604 0
M  V30 2883 H 271.165 0.391313 5.0639 0
M  V30 2884 H 271.095 -1.38876 5.07958 0
M  V30 2885 H 273.586 -0.60161 3.73081 0
M  V30 2886 H 273.899 -0.60894 7.70397 0
M  V30 2887 H 272.244 -0.554564 6.92784 0
M  V30 2888 H 275.435 -0.661907 4.63397 0
M  V30 2889 H 275.608 -0.665476 6.44574 0
M  V30 2890 N 269.014 -1.53014 -0.377408 0
M  V30 2891 C 270.261 -1.68623 -1.12128 0
M  V30 2892 C 270.589 -0.431997 -1.89642 0
M  V30 2893 O 269.844 0.585855 -1.86725 0
M  V30 2894 C 270.143 -2.87982 -2.11663 0
M  V30 2895 C 269.809 -4.24964 -1.50719 0
M  V30 2896 C 268.471 -4.62217 -1.33825 0
M  V30 2897 C 270.823 -5.10199 -1.06519 0
M  V30 2898 C 268.151 -5.82352 -0.712963 0
M  V30 2899 C 270.503 -6.30969 -0.453955 0
M  V30 2900 C 269.167 -6.66944 -0.272411 0
M  V30 2901 H 268.437 -0.617034 -0.410305 0
M  V30 2902 H 271.084 -1.8718 -0.404484 0
M  V30 2903 H 269.389 -2.63889 -2.89603 0
M  V30 2904 H 271.086 -2.97253 -2.6915 0
M  V30 2905 H 267.676 -3.95626 -1.64858 0
M  V30 2906 H 271.86 -4.81978 -1.18368 0
M  V30 2907 H 267.116 -6.08824 -0.560611 0
M  V30 2908 H 271.29 -6.96324 -0.103217 0
M  V30 2909 H 268.917 -7.59898 0.214181 0
M  V30 2910 N 270.492 0.636531 -1.44174 0
M  V30 2911 C 271.422 1.76003 -1.53444 0
M  V30 2912 C 272.403 1.65619 -0.387841 0
M  V30 2913 O 273.588 1.84461 -0.607257 0
M  V30 2914 C 270.718 3.14511 -1.4731 0
M  V30 2915 C 269.672 3.39677 -2.60391 0
M  V30 2916 C 268.998 4.78159 -2.39308 0
M  V30 2917 C 270.298 3.32772 -4.02567 0
M  V30 2918 H 271.992 1.68501 -2.47483 0
M  V30 2919 H 269.538 0.809237 -1.19111 0
M  V30 2920 H 271.491 3.92878 -1.52397 0
M  V30 2921 H 270.215 3.22783 -0.49785 0
M  V30 2922 H 268.874 2.63688 -2.54684 0
M  V30 2923 H 268.522 4.83128 -1.39988 0
M  V30 2924 H 268.222 4.95956 -3.15122 0
M  V30 2925 H 269.746 5.58762 -2.46205 0
M  V30 2926 H 271.16 4.01051 -4.09672 0
M  V30 2927 H 269.557 3.62104 -4.7854 0
M  V30 2928 H 270.627 2.30669 -4.2652 0
M  V30 2929 N 271.97 1.30982 0.876444 0
M  V30 2930 C 273.216 1.20474 1.63138 0
M  V30 2931 C 273.549 -0.238096 1.92735 0
M  V30 2932 O 272.824 -1.1692 1.55435 0
M  V30 2933 C 273.107 2.04244 2.96574 0
M  V30 2934 C 272.96 3.56793 2.73896 0
M  V30 2935 C 274.279 1.88684 3.97601 0
M  V30 2936 H 271.398 0.439001 0.591985 0
M  V30 2937 H 274.04 1.60704 1.01361 0
M  V30 2938 H 272.19 1.70063 3.493 0
M  V30 2939 H 273.862 4.01077 2.27892 0
M  V30 2940 H 272.105 3.80548 2.08245 0
M  V30 2941 H 272.776 4.10706 3.68815 0
M  V30 2942 H 275.252 2.18584 3.54062 0
M  V30 2943 H 274.128 2.4961 4.88862 0
M  V30 2944 H 274.389 0.848343 4.33884 0
M  V30 2945 N 273.449 -1.08991 1.13837 0
M  V30 2946 C 274.865 -1.33312 0.877506 0
M  V30 2947 C 275.065 -1.95587 -0.48456 0
M  V30 2948 O 274.121 -2.20509 -1.23013 0
M  V30 2949 C 275.434 -2.24045 2.0056 0
M  V30 2950 C 276.982 -2.37542 2.03821 0
M  V30 2951 C 277.457 -3.31614 3.15905 0
M  V30 2952 N 278.948 -3.39189 3.15445 0
M  V30 2953 C 279.683 -4.11992 3.98811 0
M  V30 2954 N 279.179 -4.87553 4.92203 0
M  V30 2955 N 280.972 -4.07762 3.86894 0
M  V30 2956 H 273.123 -0.669456 2.01574 0
M  V30 2957 H 275.386 -0.357482 0.878015 0
M  V30 2958 H 275.092 -1.85521 2.98789 0
M  V30 2959 H 274.966 -3.24466 1.92359 0
M  V30 2960 H 277.353 -2.75327 1.06202 0
M  V30 2961 H 277.434 -1.36884 2.16093 0
M  V30 2962 H 277.078 -2.94551 4.13766 0
M  V30 2963 H 277.008 -4.32186 3.0087 0
M  V30 2964 H 279.499 -2.85314 2.47799 0
M  V30 2965 H 279.812 -5.40549 5.52292 0
M  V30 2966 H 278.157 -4.86627 4.96205 0
M  V30 2967 H 281.348 -3.47833 3.13257 0
M  V30 2968 H 281.521 -4.64238 4.52092 0
M  V30 2969 N 274.927 -0.932562 -1.27047 0
M  V30 2970 C 276.175 -0.574422 -1.93765 0
M  V30 2971 C 276.496 0.887993 -1.73608 0
M  V30 2972 O 275.766 1.62999 -1.08665 0
M  V30 2973 H 274.346 -0.209451 -0.717035 0
M  V30 2974 H 277.008 -1.18601 -1.5466 0
M  V30 2975 H 276.104 -0.784841 -3.02071 0
M  V30 2976 N 276.405 1.4127 -0.698611 0
M  V30 2977 C 277.682 1.94955 -0.158762 0
M  V30 2978 C 278.062 1.63781 1.33188 0
M  V30 2979 O 277.41 0.946423 2.07979 0
M  V30 2980 C 277.62 3.46044 -0.453309 0
M  V30 2981 C 278.968 4.22872 -0.382707 0
M  V30 2982 O 279.992 3.54076 -0.388396 0
M  V30 2983 O 278.851 5.45407 -0.345463 0
M  V30 2984 H 275.945 0.82683 -0.0167505 0
M  V30 2985 H 278.491 1.50971 -0.77498 0
M  V30 2986 H 277.263 3.62028 -1.48498 0
M  V30 2987 H 276.886 3.97128 0.19373 0
M  V30 2988 N 277.883 0.443576 1.51229 0
M  V30 2989 C 279.16 -0.181038 1.9476 0
M  V30 2990 C 279.54 -1.59523 1.38259 0
M  V30 2991 O 278.888 -2.2122 0.572198 0
M  V30 2992 C 279.098 -0.152422 3.48667 0
M  V30 2993 C 280.446 -0.354923 4.23114 0
M  V30 2994 O 281.47 -0.230257 3.55455 0
M  V30 2995 O 280.329 -0.603674 5.43156 0
M  V30 2996 H 277.423 -0.1266 0.817252 0
M  V30 2997 H 279.969 0.502004 1.62105 0
M  V30 2998 H 278.741 0.836022 3.82265 0
M  V30 2999 H 278.364 -0.878107 3.87782 0
M  V30 3000 N 279.361 -1.56624 0.175154 0
M  V30 3001 C 280.586 -2.01813 -0.478137 0
M  V30 3002 C 281.011 -1.05457 -1.55757 0
M  V30 3003 O 280.369 -0.0347439 -1.81267 0
M  V30 3004 C 280.417 -3.45581 -1.02987 0
M  V30 3005 O 279.521 -3.52305 -2.14371 0
M  V30 3006 H 278.862 -0.65413 -0.114059 0
M  V30 3007 H 281.392 -2.02673 0.280173 0
M  V30 3008 H 281.402 -3.84965 -1.35151 0
M  V30 3009 H 280.077 -4.1521 -0.239556 0
M  V30 3010 H 278.654 -3.24783 -1.83222 0
M  V30 3011 N 280.839 0.0985539 -1.57292 0
M  V30 3012 C 282.064 0.820196 -1.90493 0
M  V30 3013 C 282.489 1.71658 -0.769094 0
M  V30 3014 O 281.847 1.79133 0.279495 0
M  V30 3015 C 281.895 1.61242 -3.22542 0
M  V30 3016 O 280.999 2.72108 -3.09888 0
M  V30 3017 H 280.34 0.225547 -0.62452 0
M  V30 3018 H 282.87 0.0748159 -2.04463 0
M  V30 3019 H 282.88 1.99737 -3.55766 0
M  V30 3020 H 281.555 0.954535 -4.04798 0
M  V30 3021 H 280.132 2.36667 -2.88172 0
M  V30 3022 N 282.317 1.53212 0.369288 0
M  V30 3023 C 283.547 1.72868 1.13139 0
M  V30 3024 C 283.955 0.455754 1.83629 0
M  V30 3025 O 283.298 -0.580861 1.74275 0
M  V30 3026 C 283.36 2.83667 2.20847 0
M  V30 3027 C 283.024 4.24142 1.70155 0
M  V30 3028 C 284.021 5.06619 1.16763 0
M  V30 3029 C 281.706 4.70539 1.7578 0
M  V30 3030 C 283.7 6.33581 0.696678 0
M  V30 3031 C 281.387 5.97481 1.28297 0
M  V30 3032 C 282.385 6.78833 0.753307 0
M  V30 3033 O 282.073 8.03393 0.285475 0
M  V30 3034 H 281.805 0.581707 0.344373 0
M  V30 3035 H 284.359 2.00736 0.435243 0
M  V30 3036 H 282.589 2.51265 2.93944 0
M  V30 3037 H 284.278 2.91536 2.82421 0
M  V30 3038 H 285.044 4.71948 1.11758 0
M  V30 3039 H 280.923 4.07293 2.15949 0
M  V30 3040 H 284.467 6.97027 0.282581 0
M  V30 3041 H 280.364 6.31651 1.32994 0
M  V30 3042 H 281.132 8.17497 0.405145 0
M  V30 3043 N 283.795 -0.628877 1.44509 0
M  V30 3044 C 284.745 -1.7345 1.47983 0
M  V30 3045 C 285.729 -1.5715 0.345373 0
M  V30 3046 O 286.921 -1.66848 0.590829 0
M  V30 3047 C 284.05 -3.12143 1.42904 0
M  V30 3048 C 283.136 -3.33906 2.61472 0
M  V30 3049 N 283.527 -3.26024 3.86706 0
M  V30 3050 C 281.825 -3.64709 2.56716 0
M  V30 3051 C 282.526 -3.48536 4.65722 0
M  V30 3052 N 281.502 -3.71517 3.96832 0
M  V30 3053 H 285.304 -1.65818 2.42655 0
M  V30 3054 H 282.818 -0.831419 1.39503 0
M  V30 3055 H 284.815 -3.91433 1.43476 0
M  V30 3056 H 283.475 -3.2094 0.492717 0
M  V30 3057 H 284.486 -3.04893 4.18641 0
M  V30 3058 H 281.163 -3.80473 1.71891 0
M  V30 3059 H 282.553 -3.48016 5.74747 0
M  V30 3060 N 285.273 -1.31445 -0.869486 0
M  V30 3061 C 286.501 -1.24122 -1.65534 0
M  V30 3062 C 286.916 0.193387 -1.87807 0
M  V30 3063 O 286.273 1.12557 -1.43656 0
M  V30 3064 C 286.324 -1.98229 -3.02304 0
M  V30 3065 O 286.045 -3.3609 -2.81026 0
M  V30 3066 C 287.546 -1.97751 -3.96749 0
M  V30 3067 H 284.766 -0.428868 -0.516055 0
M  V30 3068 H 287.31 -1.73328 -1.08525 0
M  V30 3069 H 285.465 -1.52782 -3.56001 0
M  V30 3070 H 285.879 -3.7383 -3.67902 0
M  V30 3071 H 287.353 -2.54114 -4.90031 0
M  V30 3072 H 287.83 -0.960137 -4.28577 0
M  V30 3073 H 288.436 -2.43079 -3.48988 0
M  V30 3074 N 286.751 1.08385 -1.14413 0
M  V30 3075 C 287.998 1.80776 -0.912482 0
M  V30 3076 C 288.326 1.86236 0.560934 0
M  V30 3077 O 287.581 1.33431 1.43159 0
M  V30 3078 C 287.88 3.26273 -1.45879 0
M  V30 3079 C 287.546 3.4093 -2.95089 0
M  V30 3080 C 286.208 3.44638 -3.35824 0
M  V30 3081 C 288.56 3.44591 -3.91033 0
M  V30 3082 C 285.888 3.49597 -4.71167 0
M  V30 3083 C 288.24 3.51086 -5.26233 0
M  V30 3084 C 286.904 3.53067 -5.6648 0
M  V30 3085 H 286.174 0.661507 -0.333901 0
M  V30 3086 H 288.821 1.27613 -1.42784 0
M  V30 3087 H 287.126 3.82146 -0.864376 0
M  V30 3088 H 288.823 3.80839 -1.2555 0
M  V30 3089 H 285.413 3.38736 -2.62594 0
M  V30 3090 H 289.597 3.40957 -3.60641 0
M  V30 3091 H 284.853 3.49424 -5.0171 0
M  V30 3092 H 289.027 3.52864 -6.00383 0
M  V30 3093 H 286.654 3.56662 -6.71339 0
M  V30 3094 N 288.23 0.939286 1.26551 0
M  V30 3095 C 289.46 0.601663 1.97645 0
M  V30 3096 C 289.868 -0.827206 1.70159 0
M  V30 3097 O 289.211 -1.56291 0.965338 0
M  V30 3098 C 289.273 0.761725 3.51337 0
M  V30 3099 C 288.937 2.16487 4.0247 0
M  V30 3100 C 289.934 3.14016 4.14355 0
M  V30 3101 C 287.619 2.48494 4.36527 0
M  V30 3102 C 289.613 4.41654 4.59587 0
M  V30 3103 C 287.3 3.76364 4.81449 0
M  V30 3104 C 288.298 4.72758 4.92939 0
M  V30 3105 O 287.986 5.98352 5.36871 0
M  V30 3106 H 287.718 0.225758 0.637189 0
M  V30 3107 H 290.272 1.26178 1.62075 0
M  V30 3108 H 288.502 0.0444808 3.86674 0
M  V30 3109 H 290.191 0.427442 4.03643 0
M  V30 3110 H 290.957 2.90613 3.8829 0
M  V30 3111 H 286.836 1.74202 4.26819 0
M  V30 3112 H 290.38 5.16896 4.68471 0
M  V30 3113 H 286.277 3.99582 5.06956 0
M  V30 3114 H 287.045 6.01507 5.55096 0
M  V30 3115 N 289.708 -1.40897 0.706093 0
M  V30 3116 C 290.955 -2.01054 0.241531 0
M  V30 3117 C 291.283 -1.55956 -1.16223 0
M  V30 3118 O 290.538 -0.766336 -1.80072 0
M  V30 3119 C 290.837 -3.5646 0.259099 0
M  V30 3120 C 290.503 -4.21106 1.61184 0
M  V30 3121 C 289.165 -4.38479 1.98216 0
M  V30 3122 C 291.517 -4.57256 2.50132 0
M  V30 3123 C 288.845 -4.89282 3.2376 0
M  V30 3124 C 291.197 -5.09454 3.7502 0
M  V30 3125 C 289.861 -5.25037 4.12181 0
M  V30 3126 H 289.131 -0.73571 0.0883825 0
M  V30 3127 H 291.778 -1.68645 0.907257 0
M  V30 3128 H 290.083 -3.88721 -0.490189 0
M  V30 3129 H 291.78 -4.00826 -0.11804 0
M  V30 3130 H 288.37 -4.07966 1.31384 0
M  V30 3131 H 292.554 -4.43479 2.228 0
M  V30 3132 H 287.81 -4.99531 3.52532 0
M  V30 3133 H 291.984 -5.36404 4.44121 0
M  V30 3134 H 289.611 -5.64164 5.09532 0
M  V30 3135 N 291.186 -0.45159 -1.50991 0
M  V30 3136 C 292.463 0.170707 -1.94854 0
M  V30 3137 C 292.843 1.58788 -1.39103 0
M  V30 3138 O 292.191 2.20913 -0.583921 0
M  V30 3139 C 292.401 0.133929 -3.48743 0
M  V30 3140 C 293.749 0.33248 -4.23296 0
M  V30 3141 O 294.773 0.211403 -3.55572 0
M  V30 3142 O 293.632 0.57486 -5.43468 0
M  V30 3143 H 290.726 0.122264 -0.817912 0
M  V30 3144 H 293.272 -0.510594 -1.61836 0
M  V30 3145 H 292.044 -0.856283 -3.81816 0
M  V30 3146 H 291.667 0.857529 -3.88242 0
M  V30 3147 N 292.664 1.56529 -0.183458 0
M  V30 3148 C 294.075 1.83739 0.331177 0
M  V30 3149 C 294.426 1.10373 1.62211 0
M  V30 3150 O 293.551 0.36071 2.13373 0
M  V30 3151 C 294.146 3.33306 0.607646 0
M  V30 3152 C 292.705 3.60969 1.06668 0
M  V30 3153 C 291.852 2.77086 0.109029 0
M  V30 3154 H 294.803 1.53379 -0.407484 0
M  V30 3155 H 294.824 3.51444 1.45832 0
M  V30 3156 H 294.336 3.86677 -0.332086 0
M  V30 3157 H 292.437 3.13021 2.0211 0
M  V30 3158 H 292.55 4.69231 0.967447 0
M  V30 3159 H 290.914 2.47319 0.608714 0
M  V30 3160 H 291.697 3.33241 -0.82494 0
M  V30 3161 N 294.142 -0.090211 1.57342 0
M  V30 3162 C 295.052 -1.12735 2.05738 0
M  V30 3163 C 296.068 -1.43557 0.983231 0
M  V30 3164 O 297.244 -1.54101 1.29672 0
M  V30 3165 C 294.309 -2.42659 2.47624 0
M  V30 3166 C 293.37 -2.18975 3.69254 0
M  V30 3167 C 292.603 -3.42704 4.09133 0
M  V30 3168 O 292.826 -4.51127 3.49057 0
M  V30 3169 O 291.76 -3.32003 5.02053 0
M  V30 3170 H 295.586 -0.746279 2.94388 0
M  V30 3171 H 293.171 -0.303064 1.46294 0
M  V30 3172 H 295.053 -3.19155 2.7517 0
M  V30 3173 H 293.728 -2.80182 1.62109 0
M  V30 3174 H 292.635 -1.40244 3.46818 0
M  V30 3175 H 293.968 -1.86342 4.55563 0
M  V30 3176 N 295.62 -1.53406 -0.361157 0
M  V30 3177 C 296.568 -1.80832 -1.46296 0
M  V30 3178 C 297.562 -0.677699 -1.55253 0
M  V30 3179 O 298.768 -0.860723 -1.58087 0
M  V30 3180 H 295.143 -0.572627 -0.487445 0
M  V30 3181 H 297.114 -2.73045 -1.20371 0
M  V30 3182 C 295.863 -2.01907 -2.8307 0
M  V30 3183 H 295.186 -2.88349 -2.76938 0
M  V30 3184 H 296.626 -2.25072 -3.59331 0
M  V30 3185 C 295.085 -0.799449 -3.27277 0
M  V30 3186 O 295.615 0.00971761 -4.01699 0
M  V30 3187 N 293.821 -0.621637 -2.83873 0
M  V30 3188 H 293.368 -1.28126 -2.23476 0
M  V30 3189 H 293.326 0.19298 -3.13807 0
M  V30 3190 N 297.098 0.621204 -1.44841 0
M  V30 3191 C 298.346 1.37783 -1.47852 0
M  V30 3192 C 298.667 1.94653 -0.116224 0
M  V30 3193 O 297.937 1.76367 0.852737 0
M  V30 3194 H 296.517 0.511453 -0.544449 0
M  V30 3195 H 299.179 0.730446 -1.80694 0
M  V30 3196 H 298.275 2.20414 -2.20961 0
M  V30 3197 N 298.576 1.31904 0.862503 0
M  V30 3198 C 299.524 1.20125 1.9918 0
M  V30 3199 C 300.518 0.107824 1.69056 0
M  V30 3200 O 301.724 0.270223 1.7796 0
M  V30 3201 H 298.099 0.372148 0.65346 0
M  V30 3202 H 300.07 2.15652 2.06244 0
M  V30 3203 C 298.819 0.933099 3.34946 0
M  V30 3204 H 298.142 1.76664 3.5865 0
M  V30 3205 H 299.582 0.890892 4.14535 0
M  V30 3206 C 298.041 -0.364172 3.34926 0
M  V30 3207 O 298.571 -1.37858 3.77304 0
M  V30 3208 N 296.777 -0.383362 2.8806 0
M  V30 3209 H 296.324 0.442651 2.53768 0
M  V30 3210 H 296.282 -1.25123 2.8843 0
M  V30 3211 N 300.054 -1.07777 1.14986 0
M  V30 3212 C 301.017 -2.13041 0.845358 0
M  V30 3213 C 302.017 -1.60071 -0.152931 0
M  V30 3214 O 303.207 -1.74033 0.0761879 0
M  V30 3215 C 300.339 -3.39896 0.261383 0
M  V30 3216 H 301.532 -2.41485 1.77834 0
M  V30 3217 H 299.085 -1.23595 0.956757 0
M  V30 3218 H 299.82 -3.17091 -0.68 0
M  V30 3219 H 299.605 -3.79642 0.980514 0
M  V30 3220 H 301.095 -4.17548 0.0657687 0
M  V30 3221 N 301.532 -0.945985 -1.26051 0
M  V30 3222 C 302.781 -0.591836 -1.92822 0
M  V30 3223 C 303.094 0.873956 -1.7499 0
M  V30 3224 O 304.3 1.33769 -2.36259 0
M  V30 3225 C 302.756 -1.00776 -3.45503 0
M  V30 3226 C 302.364 -2.4955 -3.7206 0
M  V30 3227 C 304.108 -0.725735 -4.1825 0
M  V30 3228 C 302.015 -2.84988 -5.18205 0
M  V30 3229 H 300.945 -0.217635 -0.721908 0
M  V30 3230 H 303.596 -1.14927 -1.43052 0
M  V30 3231 H 301.978 -0.378812 -3.94184 0
M  V30 3232 H 303.152 -3.1739 -3.34066 0
M  V30 3233 H 301.467 -2.75133 -3.12555 0
M  V30 3234 H 304.064 -0.966771 -5.25887 0
M  V30 3235 H 304.407 0.337639 -4.14929 0
M  V30 3236 H 304.94 -1.31463 -3.7545 0
M  V30 3237 H 301.679 -3.90307 -5.26631 0
M  V30 3238 H 301.199 -2.21813 -5.57278 0
M  V30 3239 H 302.878 -2.73712 -5.86252 0
M  V30 3240 N 303.011 1.40521 -0.713556 0
M  V30 3241 C 304.427 1.54839 -0.386907 0
M  V30 3242 C 304.627 1.68532 1.1045 0
M  V30 3243 O 303.683 1.67377 1.89053 0
M  V30 3244 C 304.996 2.77792 -1.15118 0
M  V30 3245 C 306.544 2.91607 -1.13729 0
M  V30 3246 C 307.019 4.1747 -1.88368 0
M  V30 3247 N 308.51 4.24466 -1.85427 0
M  V30 3248 C 309.245 5.20755 -2.40004 0
M  V30 3249 N 308.741 6.22965 -3.03129 0
M  V30 3250 N 310.534 5.1282 -2.30158 0
M  V30 3251 H 302.685 1.29879 -1.68063 0
M  V30 3252 H 304.948 0.627896 -0.710247 0
M  V30 3253 H 304.654 2.73944 -2.20561 0
M  V30 3254 H 304.528 3.6984 -0.741477 0
M  V30 3255 H 306.915 2.94959 -0.0910608 0
M  V30 3256 H 306.996 2.00682 -1.5862 0
M  V30 3257 H 306.64 4.1488 -2.9298 0
M  V30 3258 H 306.57 5.074 -1.40898 0
M  V30 3259 H 309.061 3.51241 -1.3942 0
M  V30 3260 H 309.374 6.92859 -3.42295 0
M  V30 3261 H 307.719 6.23415 -3.07212 0
M  V30 3262 H 310.91 4.31899 -1.80501 0
M  V30 3263 H 311.083 5.87689 -2.72993 0
M  V30 3264 N 304.489 0.459591 1.5075 0
M  V30 3265 C 305.737 -0.0991532 2.01857 0
M  V30 3266 C 306.058 -1.41247 1.34441 0
M  V30 3267 O 305.328 -1.89775 0.486022 0
M  V30 3268 H 303.908 -0.039633 0.745948 0
M  V30 3269 H 306.57 0.607387 1.85194 0
M  V30 3270 H 305.666 -0.258998 3.11023 0
M  V30 3271 N 305.967 -1.56429 0.191757 0
M  V30 3272 C 307.215 -1.97095 -0.447006 0
M  V30 3273 C 307.536 -1.07967 -1.62383 0
M  V30 3274 O 306.806 -0.150248 -1.95323 0
M  V30 3275 H 305.386 -0.727832 -0.168135 0
M  V30 3276 H 308.048 -1.92911 0.27771 0
M  V30 3277 H 307.144 -3.01848 -0.793371 0
M  V30 3278 N 307.445 0.0818655 -1.57387 0
M  V30 3279 C 308.673 0.796108 -1.9097 0
M  V30 3280 C 309.088 1.71626 -0.786757 0
M  V30 3281 O 308.445 1.80908 0.240513 0
M  V30 3282 C 308.496 1.59829 -3.24248 0
M  V30 3283 O 308.217 0.715131 -4.32224 0
M  V30 3284 C 309.718 2.41442 -3.7178 0
M  V30 3285 H 306.938 0.22691 -0.631469 0
M  V30 3286 H 309.482 0.0551439 -2.04426 0
M  V30 3287 H 307.637 2.29163 -3.12351 0
M  V30 3288 H 308.051 1.27205 -5.08841 0
M  V30 3289 H 309.525 2.932 -4.67694 0
M  V30 3290 H 310.002 3.2051 -3.00283 0
M  V30 3291 H 310.608 1.77283 -3.86589 0
M  V30 3292 N 308.923 1.53595 0.353017 0
M  V30 3293 C 309.873 1.77299 1.43349 0
M  V30 3294 C 310.857 0.627884 1.48143 0
M  V30 3295 O 312.049 0.88697 1.53173 0
M  V30 3296 C 309.178 1.97757 2.80619 0
M  V30 3297 C 308.264 3.18305 2.80254 0
M  V30 3298 N 308.655 4.39967 2.49526 0
M  V30 3299 C 306.953 3.19283 3.11407 0
M  V30 3300 C 307.654 5.21772 2.57156 0
M  V30 3301 N 306.63 4.58269 2.92388 0
M  V30 3302 H 310.432 2.68963 1.18474 0
M  V30 3303 H 307.946 1.52391 0.561306 0
M  V30 3304 H 309.943 2.1287 3.58458 0
M  V30 3305 H 308.603 1.07329 3.06448 0
M  V30 3306 H 309.614 4.67482 2.22893 0
M  V30 3307 H 306.291 2.3879 3.4247 0
M  V30 3308 H 307.681 6.2885 2.36638 0
M  V30 3309 N 310.401 -0.613514 1.45168 0
M  V30 3310 C 311.333 -1.73825 1.4939 0
M  V30 3311 C 312.346 -1.58175 0.385304 0
M  V30 3312 O 313.535 -1.66165 0.652036 0
M  V30 3313 C 310.635 -3.11758 1.32891 0
M  V30 3314 C 309.808 -3.53704 2.57317 0
M  V30 3315 C 308.867 -4.70579 2.35462 0
M  V30 3316 O 307.893 -4.77996 3.09044 0
M  V30 3317 N 309.095 -5.63454 1.39644 0
M  V30 3318 H 311.86 -1.70669 2.46358 0
M  V30 3319 H 309.421 -0.79862 1.40832 0
M  V30 3320 H 311.413 -3.87692 1.1609 0
M  V30 3321 H 309.983 -3.09456 0.442218 0
M  V30 3322 H 309.203 -2.67794 2.89275 0
M  V30 3323 H 310.491 -3.78486 3.40038 0
M  V30 3324 H 309.889 -5.6017 0.789062 0
M  V30 3325 H 308.446 -6.38944 1.28816 0
M  V30 3326 N 311.879 -1.3236 -0.855495 0
M  V30 3327 C 313.127 -1.22629 -1.60644 0
M  V30 3328 C 313.448 0.212136 -1.93843 0
M  V30 3329 O 312.718 1.13666 -1.59552 0
M  V30 3330 H 311.298 -0.450882 -0.595579 0
M  V30 3331 H 313.96 -1.65871 -1.02337 0
M  V30 3332 H 313.056 -1.80832 -2.54374 0
M  V30 3333 N 313.357 1.07166 -1.15556 0
M  V30 3334 C 314.305 2.16517 -0.8499 0
M  V30 3335 C 315.299 1.68468 0.177454 0
M  V30 3336 O 316.505 1.79971 0.0323026 0
M  V30 3337 H 312.88 0.706652 -0.25719 0
M  V30 3338 H 314.851 2.39514 -1.77976 0
M  V30 3339 C 313.6 3.45855 -0.357682 0
M  V30 3340 H 312.923 3.83214 -1.13961 0
M  V30 3341 H 314.363 4.23607 -0.182489 0
M  V30 3342 C 312.822 3.24062 0.921152 0
M  V30 3343 O 313.352 3.48813 1.9923 0
M  V30 3344 N 311.558 2.77539 0.86141 0
M  V30 3345 H 311.105 2.57598 -0.0104408 0
M  V30 3346 H 311.063 2.63337 1.71758 0
M  V30 3347 N 314.835 0.952656 1.25548 0
M  V30 3348 C 316.063 0.623496 1.97282 0
M  V30 3349 C 316.478 -0.803987 1.70826 0
M  V30 3350 O 315.835 -1.53755 0.983147 0
M  V30 3351 C 315.886 0.870209 3.5087 0
M  V30 3352 O 315.607 2.24156 3.76412 0
M  V30 3353 C 317.108 0.553164 4.39835 0
M  V30 3354 H 314.328 0.233931 0.628902 0
M  V30 3355 H 316.872 1.27649 1.59768 0
M  V30 3356 H 315.027 0.263652 3.86502 0
M  V30 3357 H 315.441 2.31021 4.70882 0
M  V30 3358 H 316.915 0.776342 5.46513 0
M  V30 3359 H 317.392 -0.512215 4.36203 0
M  V30 3360 H 317.998 1.13896 4.09766 0
M  V30 3361 N 316.313 -1.40141 0.720998 0
M  V30 3362 C 317.59 -1.94677 0.189757 0
M  V30 3363 C 317.97 -1.65879 -1.30566 0
M  V30 3364 O 317.318 -0.979391 -2.06447 0
M  V30 3365 C 317.528 -3.45279 0.508304 0
M  V30 3366 C 318.876 -4.22209 0.449934 0
M  V30 3367 O 319.9 -3.53413 0.444677 0
M  V30 3368 O 318.759 -5.44788 0.432189 0
M  V30 3369 H 315.853 -0.826459 0.0299026 0
M  V30 3370 H 318.399 -1.49719 0.7989 0
M  V30 3371 H 317.171 -3.59619 1.54239 0
M  V30 3372 H 316.794 -3.97386 -0.130525 0
M  V30 3373 N 317.792 -0.46758 -1.50504 0
M  V30 3374 C 319.04 0.0884469 -2.01906 0
M  V30 3375 C 319.361 1.40532 -1.35188 0
M  V30 3376 O 318.631 1.89515 -0.496079 0
M  V30 3377 H 317.211 0.0356765 -0.746148 0
M  V30 3378 H 319.873 -0.6172 -1.84869 0
M  V30 3379 H 318.969 0.2425 -3.11156 0
M  V30 3380 N 319.27 1.56325 -0.20005 0
M  V30 3381 C 320.495 2.02548 0.44597 0
M  V30 3382 C 320.92 1.07922 1.5406 0
M  V30 3383 O 320.278 0.0635775 1.81188 0
M  V30 3384 C 320.326 3.47175 0.974761 0
M  V30 3385 O 319.43 3.55671 2.08739 0
M  V30 3386 H 318.771 0.655862 0.103638 0
M  V30 3387 H 321.301 2.02201 -0.312381 0
M  V30 3388 H 321.311 3.87067 1.2901 0
M  V30 3389 H 319.986 4.15538 0.17347 0
M  V30 3390 H 318.563 3.27657 1.78032 0
M  V30 3391 N 320.748 -0.0735177 1.57428 0
M  V30 3392 C 321.976 -0.785969 1.9139 0
M  V30 3393 C 322.391 -1.71207 0.795847 0
M  V30 3394 O 321.748 -1.81033 -0.230915 0
M  V30 3395 C 321.799 -1.58107 3.25091 0
M  V30 3396 O 321.52 -0.6922 4.32597 0
M  V30 3397 C 323.021 -2.39467 3.73055 0
M  V30 3398 H 320.241 -0.223558 0.632663 0
M  V30 3399 H 322.785 -0.044302 2.04452 0
M  V30 3400 H 320.94 -2.27503 3.13562 0
M  V30 3401 H 321.354 -1.24504 5.09508 0
M  V30 3402 H 322.828 -2.90716 4.69242 0
M  V30 3403 H 323.305 -3.18913 3.01979 0
M  V30 3404 H 323.911 -1.7523 3.87523 0
M  V30 3405 N 322.226 -1.5378 -0.344866 0
M  V30 3406 C 323.472 -1.72158 -1.0832 0
M  V30 3407 C 323.827 -0.478218 -1.86362 0
M  V30 3408 O 323.12 0.529152 -1.84148 0
M  V30 3409 C 323.314 -2.92407 -2.05506 0
M  V30 3410 C 323.143 -4.28318 -1.37017 0
M  V30 3411 C 321.913 -4.92832 -1.11558 0
M  V30 3412 C 324.111 -5.08086 -0.797071 0
M  V30 3413 N 322.093 -6.12619 -0.396358 0
M  V30 3414 C 323.464 -6.1965 -0.208336 0
M  V30 3415 C 325.519 -4.92986 -0.697787 0
M  V30 3416 C 324.222 -7.17763 0.470023 0
M  V30 3417 C 326.248 -5.91391 -0.033171 0
M  V30 3418 C 325.61 -7.02292 0.544599 0
M  V30 3419 H 321.709 -0.683017 -0.380805 0
M  V30 3420 H 324.293 -1.91211 -0.366961 0
M  V30 3421 H 322.464 -2.74857 -2.74423 0
M  V30 3422 H 324.196 -2.9951 -2.72169 0
M  V30 3423 H 320.951 -4.52362 -1.40234 0
M  V30 3424 H 321.375 -6.7698 -0.0515119 0
M  V30 3425 H 326.017 -4.07414 -1.13022 0
M  V30 3426 H 323.735 -8.0291 0.914351 0
M  V30 3427 H 327.321 -5.81784 0.0430009 0
M  V30 3428 H 326.201 -7.77129 1.05073 0
M  V30 3429 N 323.704 0.605807 -1.45491 0
M  V30 3430 C 324.932 1.39136 -1.5313 0
M  V30 3431 C 325.347 1.88082 -0.164507 0
M  V30 3432 O 324.704 1.62316 0.834247 0
M  V30 3433 C 324.755 2.59463 -2.51716 0
M  V30 3434 O 324.476 2.12551 -3.83084 0
M  V30 3435 C 325.977 3.52301 -2.6907 0
M  V30 3436 H 323.197 0.425849 -0.51855 0
M  V30 3437 H 325.741 0.73865 -1.90694 0
M  V30 3438 H 323.896 3.20772 -2.17219 0
M  V30 3439 H 324.31 2.90744 -4.36541 0
M  V30 3440 H 325.784 4.33271 -3.42024 0
M  V30 3441 H 326.261 4.02757 -1.75167 0
M  V30 3442 H 326.867 2.96845 -3.04571 0
M  V30 3443 N 325.182 1.32811 0.848464 0
M  V30 3444 C 326.598 1.11937 1.13764 0
M  V30 3445 C 326.798 -0.0960789 2.01271 0
M  V30 3446 O 325.854 -0.779165 2.40178 0
M  V30 3447 C 327.167 2.402 1.809 0
M  V30 3448 C 328.715 2.46016 1.93508 0
M  V30 3449 C 329.19 3.74215 2.64059 0
M  V30 3450 N 330.681 3.75232 2.71579 0
M  V30 3451 C 331.416 4.71134 3.26833 0
M  V30 3452 N 330.912 5.77406 3.8285 0
M  V30 3453 N 332.705 4.58623 3.24995 0
M  V30 3454 H 324.856 2.1073 0.265855 0
M  V30 3455 H 327.119 0.930671 0.180431 0
M  V30 3456 H 326.825 3.29093 1.24058 0
M  V30 3457 H 326.699 2.51628 2.81004 0
M  V30 3458 H 329.086 1.57577 2.49506 0
M  V30 3459 H 329.167 2.38536 0.923811 0
M  V30 3460 H 328.811 4.63031 2.08722 0
M  V30 3461 H 328.741 3.78968 3.65637 0
M  V30 3462 H 331.232 2.98423 2.31845 0
M  V30 3463 H 331.545 6.46632 4.23187 0
M  V30 3464 H 329.89 5.81152 3.81165 0
M  V30 3465 H 333.081 3.74762 2.80484 0
M  V30 3466 H 333.254 5.33535 3.67756 0
M  V30 3467 N 326.66 -1.06551 1.16123 0
M  V30 3468 C 327.908 -1.78947 0.939267 0
M  V30 3469 C 328.229 -1.87532 -0.534476 0
M  V30 3470 O 327.499 -1.38211 -1.38833 0
M  V30 3471 H 326.079 -0.662807 0.344523 0
M  V30 3472 H 328.741 -1.28725 1.46342 0
M  V30 3473 H 327.837 -2.81117 1.35572 0
M  V30 3474 N 328.138 -0.959301 -1.25041 0
M  V30 3475 C 329.07 -0.440543 -2.24926 0
M  V30 3476 C 330.083 0.446131 -1.56568 0
M  V30 3477 O 331.272 0.253657 -1.76689 0
M  V30 3478 C 328.372 0.38412 -3.36716 0
M  V30 3479 C 327.545 -0.490658 -4.34639 0
M  V30 3480 C 326.604 0.276587 -5.25473 0
M  V30 3481 O 325.63 -0.326614 -5.68262 0
M  V30 3482 N 326.832 1.56844 -5.5891 0
M  V30 3483 H 329.597 -1.29931 -2.70071 0
M  V30 3484 H 327.158 -0.830181 -1.38995 0
M  V30 3485 H 329.15 0.905228 -3.94446 0
M  V30 3486 H 327.72 1.14377 -2.90924 0
M  V30 3487 H 326.94 -1.19282 -3.7572 0
M  V30 3488 H 328.228 -1.08756 -4.97041 0
M  V30 3489 H 327.626 2.08036 -5.26059 0
M  V30 3490 H 326.183 2.03541 -6.19205 0
M  V30 3491 N 329.616 1.39756 -0.72842 0
M  V30 3492 C 330.579 2.29012 -0.0927297 0
M  V30 3493 C 331.579 1.45992 0.674025 0
M  V30 3494 O 332.769 1.66749 0.50402 0
M  V30 3495 C 329.901 3.29396 0.878137 0
M  V30 3496 H 331.094 2.86729 -0.879011 0
M  V30 3497 H 328.647 1.48293 -0.493847 0
M  V30 3498 H 329.382 2.76722 1.69101 0
M  V30 3499 H 329.167 3.907 0.331051 0
M  V30 3500 H 330.657 3.96199 1.3197 0
M  V30 3501 N 331.094 0.475555 1.50254 0
M  V30 3502 C 332.34 -0.0701075 2.03279 0
M  V30 3503 C 332.695 -1.37007 1.35081 0
M  V30 3504 O 331.988 -1.8577 0.469052 0
M  V30 3505 C 332.182 -0.305114 3.56095 0
M  V30 3506 C 332.011 0.970515 4.39103 0
M  V30 3507 C 330.781 1.51509 4.82051 0
M  V30 3508 C 332.979 1.8671 4.79212 0
M  V30 3509 N 330.961 2.73928 5.49397 0
M  V30 3510 C 332.332 2.93715 5.46014 0
M  V30 3511 C 334.387 1.87695 4.61167 0
M  V30 3512 C 333.09 4.01699 5.96683 0
M  V30 3513 C 335.116 2.94637 5.12779 0
M  V30 3514 C 334.478 4.00361 5.79561 0
M  V30 3515 H 330.577 0.014486 0.781866 0
M  V30 3516 H 333.161 0.644755 1.83714 0
M  V30 3517 H 331.332 -0.989019 3.75597 0
M  V30 3518 H 333.064 -0.845516 3.95769 0
M  V30 3519 H 329.819 1.06367 4.61501 0
M  V30 3520 H 330.243 3.36109 5.87673 0
M  V30 3521 H 334.885 1.07273 4.08965 0
M  V30 3522 H 332.603 4.82934 6.4792 0
M  V30 3523 H 336.189 2.96388 5.00645 0
M  V30 3524 H 335.069 4.81751 6.18778 0
M  V30 3525 N 332.573 -1.56217 0.208337 0
M  V30 3526 C 333.821 -1.97558 -0.426076 0
M  V30 3527 C 334.142 -1.09683 -1.61229 0
M  V30 3528 O 333.412 -0.170956 -1.95153 0
M  V30 3529 H 331.992 -0.729575 -0.160405 0
M  V30 3530 H 334.654 -1.92606 0.298155 0
M  V30 3531 H 333.75 -3.02672 -0.761312 0
M  V30 3532 N 334.051 0.0651679 -1.57465 0
M  V30 3533 C 335.3 0.761916 -1.86756 0
M  V30 3534 C 335.613 1.78406 -0.801925 0
M  V30 3535 O 336.819 2.53084 -0.982885 0
M  V30 3536 C 335.275 1.40603 -3.31299 0
M  V30 3537 C 334.883 0.422115 -4.46007 0
M  V30 3538 C 336.627 2.08476 -3.69781 0
M  V30 3539 C 334.534 1.07252 -5.81593 0
M  V30 3540 H 333.464 0.288308 -0.696702 0
M  V30 3541 H 336.115 0.015344 -1.83494 0
M  V30 3542 H 334.497 2.20109 -3.29193 0
M  V30 3543 H 335.671 -0.343613 -4.59517 0
M  V30 3544 H 333.986 -0.152527 -4.16121 0
M  V30 3545 H 336.583 2.57925 -4.68379 0
M  V30 3546 H 336.926 2.88712 -2.99919 0
M  V30 3547 H 337.459 1.35792 -3.73905 0
M  V30 3548 H 334.198 0.310342 -6.54765 0
M  V30 3549 H 333.718 1.80895 -5.71872 0
M  V30 3550 H 335.397 1.59043 -6.27148 0
M  V30 3551 N 335.529 1.53961 0.336706 0
M  V30 3552 C 336.759 1.75229 1.09446 0
M  V30 3553 C 337.167 0.494602 1.82621 0
M  V30 3554 O 336.51 -0.543764 1.75468 0
M  V30 3555 C 336.572 2.88288 2.1478 0
M  V30 3556 C 336.236 4.27656 1.6112 0
M  V30 3557 C 337.233 5.08981 1.0599 0
M  V30 3558 C 334.918 4.74161 1.6576 0
M  V30 3559 C 336.912 6.34916 0.562129 0
M  V30 3560 C 334.599 6.00067 1.15595 0
M  V30 3561 C 335.597 6.80278 0.609147 0
M  V30 3562 O 335.285 8.03818 0.114999 0
M  V30 3563 H 335.017 0.588881 0.331956 0
M  V30 3564 H 337.571 2.01614 0.392566 0
M  V30 3565 H 335.801 2.57443 2.88548 0
M  V30 3566 H 337.49 2.97461 2.76174 0
M  V30 3567 H 338.256 4.74213 1.01722 0
M  V30 3568 H 334.135 4.11781 2.07261 0
M  V30 3569 H 337.679 6.9747 0.134668 0
M  V30 3570 H 333.576 6.3433 1.19566 0
M  V30 3571 H 334.344 8.18172 0.231651 0
M  V30 3572 N 337.007 -0.598083 1.45811 0
M  V30 3573 C 338.255 -1.35413 1.50026 0
M  V30 3574 C 338.576 -1.94444 0.147177 0
M  V30 3575 O 337.846 -1.77701 -0.824571 0
M  V30 3576 H 336.426 -0.502727 0.552517 0
M  V30 3577 H 339.088 -0.701606 1.81834 0
M  V30 3578 H 338.184 -2.16871 2.2444 0
M  V30 3579 N 338.485 -1.33259 -0.841409 0
M  V30 3580 C 339.732 -1.24572 -1.5965 0
M  V30 3581 C 340.06 0.189137 -1.93578 0
M  V30 3582 O 339.315 1.14566 -1.5866 0
M  V30 3583 C 339.614 -2.06381 -2.9179 0
M  V30 3584 C 339.28 -3.556 -2.77235 0
M  V30 3585 C 337.942 -3.96282 -2.72973 0
M  V30 3586 C 340.294 -4.50433 -2.62221 0
M  V30 3587 C 337.622 -5.30017 -2.51592 0
M  V30 3588 C 339.974 -5.84327 -2.42374 0
M  V30 3589 C 338.638 -6.24194 -2.36512 0
M  V30 3590 H 337.908 -0.455842 -0.5842 0
M  V30 3591 H 340.555 -1.6482 -0.975016 0
M  V30 3592 H 338.86 -1.58903 -3.5813 0
M  V30 3593 H 340.557 -1.97019 -3.49263 0
M  V30 3594 H 337.147 -3.23298 -2.81384 0
M  V30 3595 H 341.331 -4.19914 -2.64549 0
M  V30 3596 H 336.587 -5.59947 -2.45499 0
M  V30 3597 H 340.761 -6.57414 -2.29739 0
M  V30 3598 H 338.388 -7.27759 -2.19706 0
M  V30 3599 N 339.963 1.05934 -1.16686 0
M  V30 3600 C 340.926 2.11669 -0.879144 0
M  V30 3601 C 341.926 1.60294 0.127445 0
M  V30 3602 O 343.116 1.7389 -0.103865 0
M  V30 3603 C 340.248 3.39438 -0.315425 0
M  V30 3604 H 341.441 2.38626 -1.81653 0
M  V30 3605 H 338.994 1.22058 -0.976299 0
M  V30 3606 H 339.729 3.18132 0.629468 0
M  V30 3607 H 339.514 3.78034 -1.04079 0
M  V30 3608 H 341.004 4.17391 -0.132189 0
M  V30 3609 N 341.441 0.965919 1.2453 0
M  V30 3610 C 342.371 0.513476 2.27784 0
M  V30 3611 C 343.352 -0.445974 1.6415 0
M  V30 3612 O 344.537 -0.342485 1.91156 0
M  V30 3613 C 341.667 -0.198839 3.4673 0
M  V30 3614 C 340.621 0.676456 4.2262 0
M  V30 3615 C 339.947 -0.167248 5.34438 0
M  V30 3616 C 341.247 1.96017 4.84123 0
M  V30 3617 H 342.941 1.3765 2.65881 0
M  V30 3618 H 340.487 0.663321 1.27813 0
M  V30 3619 H 342.44 -0.526567 4.18097 0
M  V30 3620 H 341.164 -1.0962 3.07654 0
M  V30 3621 H 339.823 0.98743 3.53052 0
M  V30 3622 H 339.471 -1.0647 4.91603 0
M  V30 3623 H 339.171 0.415181 5.86131 0
M  V30 3624 H 340.695 -0.489688 6.08633 0
M  V30 3625 H 342.109 1.69814 5.47573 0
M  V30 3626 H 340.506 2.48918 5.4604 0
M  V30 3627 H 341.576 2.65622 4.05676 0
M  V30 3628 N 342.919 -1.39368 0.735821 0
M  V30 3629 C 343.867 -2.32443 0.0855131 0
M  V30 3630 C 344.861 -1.53104 -0.724954 0
M  V30 3631 O 346.067 -1.68762 -0.626047 0
M  V30 3632 H 342.442 -0.751948 0.00885257 0
M  V30 3633 H 344.413 -2.84916 0.886883 0
M  V30 3634 C 343.162 -3.38206 -0.806983 0
M  V30 3635 H 342.485 -3.99335 -0.19274 0
M  V30 3636 H 343.925 -4.05779 -1.2296 0
M  V30 3637 C 342.384 -2.75321 -1.94165 0
M  V30 3638 O 342.914 -2.63231 -3.03435 0
M  V30 3639 N 341.12 -2.33396 -1.73132 0
M  V30 3640 H 340.667 -2.4343 -0.842596 0
M  V30 3641 H 340.625 -1.91661 -2.49225 0
M  V30 3642 N 344.397 -0.483516 -1.5 0
M  V30 3643 C 345.622 0.0667119 -2.07293 0
M  V30 3644 C 346.047 1.3164 -1.3436 0
M  V30 3645 O 345.405 1.76945 -0.394987 0
M  V30 3646 C 345.453 0.321126 -3.59167 0
M  V30 3647 O 344.557 1.39927 -3.87936 0
M  V30 3648 H 343.898 -0.0184758 -0.663743 0
M  V30 3649 H 346.428 -0.678125 -1.93035 0
M  V30 3650 H 346.438 0.557906 -4.04168 0
M  V30 3651 H 345.113 -0.592007 -4.11665 0
M  V30 3652 H 343.69 1.14882 -3.54763 0
M  V30 3653 N 345.875 1.56104 -0.216619 0
M  V30 3654 C 347.291 1.58995 0.13886 0
M  V30 3655 C 347.491 1.23333 1.59346 0
M  V30 3656 O 346.547 0.966234 2.33281 0
M  V30 3657 C 347.86 3.00143 -0.182968 0
M  V30 3658 C 349.408 3.12751 -0.124807 0
M  V30 3659 C 349.883 4.56068 -0.420241 0
M  V30 3660 N 351.374 4.61723 -0.369634 0
M  V30 3661 C 352.109 5.70542 -0.571789 0
M  V30 3662 N 351.605 6.87744 -0.835453 0
M  V30 3663 N 353.398 5.59831 -0.504563 0
M  V30 3664 H 345.549 1.77562 -1.16557 0
M  V30 3665 H 347.812 0.825091 -0.466828 0
M  V30 3666 H 347.518 3.30871 -1.19237 0
M  V30 3667 H 347.392 3.73813 0.504367 0
M  V30 3668 H 349.779 2.81822 0.875223 0
M  V30 3669 H 349.86 2.41421 -0.845544 0
M  V30 3670 H 349.504 4.87713 -1.41769 0
M  V30 3671 H 349.434 5.25617 0.321631 0
M  V30 3672 H 351.925 3.77502 -0.173338 0
M  V30 3673 H 352.238 7.66587 -0.977938 0
M  V30 3674 H 350.583 6.895 -0.872592 0
M  V30 3675 H 353.774 4.67145 -0.298842 0
M  V30 3676 H 353.947 6.44573 -0.665519 0
M  V30 3677 N 347.353 -0.0568162 1.57498 0
M  V30 3678 C 348.583 -0.764515 1.91934 0
M  V30 3679 C 348.991 -1.70877 0.81227 0
M  V30 3680 O 348.334 -1.82351 -0.222213 0
M  V30 3681 C 348.396 -1.5994 3.21962 0
M  V30 3682 C 348.06 -0.822925 4.4953 0
M  V30 3683 C 349.057 -0.135464 5.19723 0
M  V30 3684 C 346.742 -0.785666 4.96117 0
M  V30 3685 C 348.736 0.578861 6.34766 0
M  V30 3686 C 346.423 -0.0675784 6.11063 0
M  V30 3687 C 347.421 0.613471 6.80239 0
M  V30 3688 O 347.109 1.31996 7.92989 0
M  V30 3689 H 346.841 -0.221647 0.63863 0
M  V30 3690 H 349.395 -0.0268218 2.05382 0
M  V30 3691 H 347.625 -2.38026 3.04763 0
M  V30 3692 H 349.314 -2.18715 3.41934 0
M  V30 3693 H 350.08 -0.155458 4.84751 0
M  V30 3694 H 345.959 -1.30524 4.42136 0
M  V30 3695 H 349.503 1.111 6.88696 0
M  V30 3696 H 345.4 -0.0455636 6.45484 0
M  V30 3697 H 346.168 1.23077 8.09194 0
M  V30 3698 N 348.832 -1.54138 -0.328536 0
M  V30 3699 C 349.762 -1.86167 -1.40939 0
M  V30 3700 C 350.743 -0.718044 -1.54202 0
M  V30 3701 O 351.928 -0.971328 -1.68163 0
M  V30 3702 C 349.058 -2.08461 -2.77779 0
M  V30 3703 C 348.012 -3.24299 -2.7931 0
M  V30 3704 C 347.338 -3.31955 -4.19178 0
M  V30 3705 C 348.638 -4.62065 -2.43502 0
M  V30 3706 H 350.332 -2.76689 -1.14383 0
M  V30 3707 H 347.878 -1.33132 -0.548806 0
M  V30 3708 H 349.831 -2.29453 -3.53454 0
M  V30 3709 H 348.555 -1.14684 -3.05802 0
M  V30 3710 H 347.214 -3.03187 -2.0609 0
M  V30 3711 H 346.862 -2.35745 -4.44335 0
M  V30 3712 H 346.562 -4.09805 -4.2111 0
M  V30 3713 H 348.086 -3.55175 -4.96672 0
M  V30 3714 H 349.5 -4.8297 -3.08889 0
M  V30 3715 H 347.897 -5.42429 -2.56693 0
M  V30 3716 H 348.967 -4.64652 -1.38659 0
M  V30 3717 N 350.31 0.590341 -1.46126 0
M  V30 3718 C 351.558 1.34616 -1.50742 0
M  V30 3719 C 351.879 1.94363 -0.157486 0
M  V30 3720 O 351.149 1.78136 0.815136 0
M  V30 3721 H 349.729 0.499789 -0.555175 0
M  V30 3722 H 352.391 0.691953 -1.82203 0
M  V30 3723 H 351.487 2.15678 -2.25587 0
M  V30 3724 N 351.788 1.33704 0.83433 0
M  V30 3725 C 352.736 1.24323 1.96587 0
M  V30 3726 C 353.73 0.143659 1.6879 0
M  V30 3727 O 354.936 0.30791 1.77347 0
M  V30 3728 H 351.311 0.385925 0.645419 0
M  V30 3729 H 353.282 2.19978 2.01624 0
M  V30 3730 C 352.031 1.00394 3.32891 0
M  V30 3731 H 351.354 1.84231 3.54822 0
M  V30 3732 H 352.794 0.97862 4.12552 0
M  V30 3733 C 351.253 -0.293047 3.35623 0
M  V30 3734 O 351.783 -1.29823 3.80143 0
M  V30 3735 N 349.989 -0.322174 2.88809 0
M  V30 3736 H 349.536 0.496379 2.52772 0
M  V30 3737 H 349.494 -1.18977 2.91019 0
M  V30 3738 N 353.266 -1.05314 1.17247 0
M  V30 3739 C 354.229 -2.112 0.890357 0
M  V30 3740 C 355.229 -1.60359 -0.118943 0
M  V30 3741 O 356.419 -1.73833 0.113086 0
M  V30 3742 C 353.551 -3.39266 0.333422 0
M  V30 3743 H 354.744 -2.37659 1.82916 0
M  V30 3744 H 352.297 -1.21538 0.982758 0
M  V30 3745 H 353.032 -3.18462 -0.612587 0
M  V30 3746 H 352.817 -3.77477 1.06082 0
M  V30 3747 H 354.307 -4.17315 0.154322 0
M  V30 3748 N 354.744 -0.972509 -1.24016 0
M  V30 3749 C 356.021 -0.553733 -1.87598 0
M  V30 3750 C 356.401 0.969158 -1.87538 0
M  V30 3751 O 355.749 1.84255 -1.35139 0
M  V30 3752 C 355.959 -1.15076 -3.29482 0
M  V30 3753 C 357.307 -1.23862 -4.06132 0
M  V30 3754 O 358.331 -1.10363 -3.38672 0
M  V30 3755 O 357.19 -1.45252 -5.26844 0
M  V30 3756 H 354.284 -0.185331 -0.805966 0
M  V30 3757 H 356.83 -1.06709 -1.31952 0
M  V30 3758 H 355.602 -2.19333 -3.2405 0
M  V30 3759 H 355.225 -0.621746 -3.92709 0
M  V30 3760 N 356.222 1.38976 -0.743202 0
M  V30 3761 C 357.152 2.33171 -0.123873 0
M  V30 3762 C 358.133 1.54336 0.71516 0
M  V30 3763 O 359.318 1.82696 0.658467 0
M  V30 3764 C 356.448 3.38474 0.777978 0
M  V30 3765 C 355.402 4.27979 0.0424758 0
M  V30 3766 C 354.728 5.2405 1.06189 0
M  V30 3767 C 356.028 5.10155 -1.1198 0
M  V30 3768 H 357.722 2.85213 -0.910709 0
M  V30 3769 H 355.268 1.37133 -0.439388 0
M  V30 3770 H 357.221 4.03328 1.22084 0
M  V30 3771 H 355.945 2.84891 1.59702 0
M  V30 3772 H 354.604 3.64616 -0.380853 0
M  V30 3773 H 354.252 4.66758 1.87472 0
M  V30 3774 H 353.952 5.84785 0.574485 0
M  V30 3775 H 355.476 5.9178 1.50428 0
M  V30 3776 H 356.89 5.68307 -0.75499 0
M  V30 3777 H 355.287 5.80073 -1.53738 0
M  V30 3778 H 356.357 4.44504 -1.93764 0
M  V30 3779 N 357.7 0.491464 1.49741 0
M  V30 3780 C 358.63 -0.28154 2.31796 0
M  V30 3781 C 359.611 -0.971473 1.3963 0
M  V30 3782 O 360.796 -0.964719 1.68543 0
M  V30 3783 C 357.926 -1.35203 3.19902 0
M  V30 3784 C 356.88 -0.782529 4.20786 0
M  V30 3785 C 356.206 -1.95283 4.97764 0
M  V30 3786 C 357.506 0.21999 5.21837 0
M  V30 3787 H 359.2 0.403355 2.96671 0
M  V30 3788 H 356.746 0.195425 1.42668 0
M  V30 3789 H 358.699 -1.90045 3.76113 0
M  V30 3790 H 357.423 -2.06598 2.52953 0
M  V30 3791 H 356.082 -0.255928 3.65706 0
M  V30 3792 H 355.73 -2.65423 4.2727 0
M  V30 3793 H 355.43 -1.57789 5.66018 0
M  V30 3794 H 356.954 -2.50577 5.56816 0
M  V30 3795 H 358.368 -0.23996 5.72798 0
M  V30 3796 H 356.765 0.51026 5.97927 0
M  V30 3797 H 357.835 1.13911 4.7133 0
M  V30 3798 N 359.178 -1.55987 0.224894 0
M  V30 3799 C 360.088 -2.24066 -0.69511 0
M  V30 3800 C 361.104 -1.24939 -1.21104 0
M  V30 3801 O 362.28 -1.5776 -1.25195 0
M  V30 3802 C 359.345 -2.90983 -1.88493 0
M  V30 3803 C 358.406 -4.05462 -1.41064 0
M  V30 3804 C 357.639 -4.69179 -2.54375 0
M  V30 3805 O 357.862 -4.31895 -3.72589 0
M  V30 3806 O 356.796 -5.58108 -2.25386 0
M  V30 3807 H 360.622 -3.03353 -0.145149 0
M  V30 3808 H 358.207 -1.49399 -0.00569476 0
M  V30 3809 H 360.089 -3.33209 -2.57972 0
M  V30 3810 H 358.764 -2.14653 -2.42293 0
M  V30 3811 H 357.671 -3.67798 -0.683774 0
M  V30 3812 H 359.004 -4.83545 -0.918985 0
M  V30 3813 N 360.656 0.0484629 -1.57525 0
M  V30 3814 C 361.884 0.755421 -1.92616 0
M  V30 3815 C 362.299 1.69919 -0.822984 0
M  V30 3816 O 361.656 1.81378 0.202085 0
M  V30 3817 C 361.707 1.52915 -3.27566 0
M  V30 3818 O 361.428 0.62329 -4.33644 0
M  V30 3819 C 362.929 2.33502 -3.76818 0
M  V30 3820 H 360.149 0.213465 -0.63614 0
M  V30 3821 H 362.693 0.0117698 -2.04497 0
M  V30 3822 H 360.848 2.22486 -3.17142 0
M  V30 3823 H 361.262 1.16383 -5.11425 0
M  V30 3824 H 362.736 2.83214 -4.73808 0
M  V30 3825 H 363.213 3.14068 -3.07014 0
M  V30 3826 H 363.819 1.69043 -3.90262 0
M  V30 3827 N 362.134 1.5431 0.320358 0
M  V30 3828 C 363.097 1.83195 1.3774 0
M  V30 3829 C 364.097 0.703906 1.44575 0
M  V30 3830 O 365.287 0.972214 1.44546 0
M  V30 3831 C 362.419 1.99487 2.76438 0
M  V30 3832 H 363.612 2.77642 1.1338 0
M  V30 3833 H 361.165 1.46076 0.556012 0
M  V30 3834 H 361.9 1.07262 3.06048 0
M  V30 3835 H 361.685 2.81575 2.7287 0
M  V30 3836 H 363.175 2.23271 3.52902 0
M  V30 3837 N 363.613 -0.582584 1.46437 0
M  V30 3838 C 364.56 -1.69164 1.5701 0
M  V30 3839 C 365.53 -1.60847 0.414403 0
M  V30 3840 O 366.715 -1.80058 0.631171 0
M  V30 3841 C 363.855 -3.075 1.56646 0
M  V30 3842 C 362.968 -3.2644 2.82951 0
M  V30 3843 C 362.103 -4.55026 2.7409 0
M  V30 3844 C 361.142 -4.6731 3.95333 0
M  V30 3845 N 360.279 -5.87221 3.84858 0
M  V30 3846 H 365.119 -1.59464 2.51744 0
M  V30 3847 H 362.656 -0.777186 1.24893 0
M  V30 3848 H 364.614 -3.8757 1.5442 0
M  V30 3849 H 363.244 -3.16096 0.654439 0
M  V30 3850 H 362.296 -2.39974 2.95155 0
M  V30 3851 H 363.608 -3.31385 3.72808 0
M  V30 3852 H 362.762 -5.43324 2.6997 0
M  V30 3853 H 361.501 -4.52519 1.81873 0
M  V30 3854 H 360.506 -3.77429 3.99784 0
M  V30 3855 H 361.731 -4.71595 4.88646 0
M  V30 3856 H 359.677 -5.85712 2.95427 0
M  V30 3857 H 359.594 -5.93435 4.6837 0
M  V30 3858 H 360.862 -6.7795 3.84713 0
M  V30 3859 N 365.091 -1.34144 -0.827227 0
M  V30 3860 C 366.507 -1.13732 -1.11969 0
M  V30 3861 C 366.707 0.0640463 -2.01398 0
M  V30 3862 O 365.763 0.740856 -2.41387 0
M  V30 3863 C 367.076 -2.43047 -1.77055 0
M  V30 3864 C 368.624 -2.49063 -1.89569 0
M  V30 3865 C 369.099 -3.78369 -2.58072 0
M  V30 3866 N 370.59 -3.79505 -2.65575 0
M  V30 3867 C 371.325 -4.76274 -3.19297 0
M  V30 3868 N 370.821 -5.83424 -3.73616 0
M  V30 3869 N 372.614 -4.63735 -3.17658 0
M  V30 3870 H 364.765 -2.11126 -0.232296 0
M  V30 3871 H 367.028 -0.933424 -0.165602 0
M  V30 3872 H 366.734 -3.31025 -1.18807 0
M  V30 3873 H 366.608 -2.56066 -2.76966 0
M  V30 3874 H 368.995 -1.61527 -2.46968 0
M  V30 3875 H 369.076 -2.39975 -0.885745 0
M  V30 3876 H 368.72 -4.66293 -2.01329 0
M  V30 3877 H 368.65 -3.84737 -3.59562 0
M  V30 3878 H 371.141 -3.02074 -2.27068 0
M  V30 3879 H 371.454 -6.53282 -4.12846 0
M  V30 3880 H 369.799 -5.87143 -3.71871 0
M  V30 3881 H 372.99 -3.79177 -2.74486 0
M  V30 3882 H 373.163 -5.39318 -3.59221 0
M  V30 3883 N 366.569 1.04691 -1.17803 0
M  V30 3884 C 367.502 2.12068 -0.842765 0
M  V30 3885 C 368.48 1.61455 0.192608 0
M  V30 3886 O 369.664 1.88359 0.072995 0
M  V30 3887 C 366.791 3.37715 -0.258063 0
M  V30 3888 C 365.837 4.07164 -1.26962 0
M  V30 3889 S 366.67 4.55047 -2.82299 0
M  V30 3890 C 367.826 5.83935 -2.25323 0
M  V30 3891 H 368.059 2.4018 -1.75217 0
M  V30 3892 H 365.592 1.17366 -1.00323 0
M  V30 3893 H 367.55 4.10435 0.0727935 0
M  V30 3894 H 366.211 3.0773 0.629357 0
M  V30 3895 H 365.404 4.9746 -0.809263 0
M  V30 3896 H 365.006 3.40533 -1.54639 0
M  V30 3897 H 367.298 6.57552 -1.63192 0
M  V30 3898 H 368.241 6.34725 -3.13894 0
M  V30 3899 H 368.649 5.3874 -1.68582 0
M  V30 3900 N 368.047 0.979072 1.23499 0
M  V30 3901 C 369.01 0.523244 2.23147 0
M  V30 3902 C 370.01 -0.386406 1.56088 0
M  V30 3903 O 371.2 -0.180283 1.73265 0
M  V30 3904 C 368.332 -0.240739 3.40049 0
M  V30 3905 H 369.525 1.40432 2.64989 0
M  V30 3906 H 367.078 0.764824 1.36309 0
M  V30 3907 H 367.813 -1.13841 3.03662 0
M  V30 3908 H 367.598 0.412207 3.89927 0
M  V30 3909 H 369.088 -0.548297 4.13985 0
M  V30 3910 N 369.525 -1.3858 0.750561 0
M  V30 3911 C 370.941 -1.53759 0.427824 0
M  V30 3912 C 371.141 -1.71401 -1.05943 0
M  V30 3913 O 370.197 -1.72331 -1.84549 0
M  V30 3914 C 371.51 -2.74642 1.22443 0
M  V30 3915 C 373.058 -2.88489 1.2142 0
M  V30 3916 C 373.533 -4.12329 1.9937 0
M  V30 3917 N 375.024 -4.194 1.96616 0
M  V30 3918 C 375.759 -5.14209 2.53727 0
M  V30 3919 N 375.255 -6.14709 3.19539 0
M  V30 3920 N 377.048 -5.06537 2.43673 0
M  V30 3921 H 369.199 -1.25377 1.71447 0
M  V30 3922 H 371.462 -0.608844 0.726645 0
M  V30 3923 H 371.168 -2.68 2.27747 0
M  V30 3924 H 371.042 -3.67745 0.839273 0
M  V30 3925 H 373.429 -2.94614 0.169232 0
M  V30 3926 H 373.51 -1.96406 1.63885 0
M  V30 3927 H 373.154 -4.06966 3.03877 0
M  V30 3928 H 373.084 -5.03486 1.54302 0
M  V30 3929 H 375.575 -3.47421 1.48684 0
M  V30 3930 H 375.888 -6.8354 3.60545 0
M  V30 3931 H 374.233 -6.1505 3.23633 0
M  V30 3932 H 377.424 -4.26962 1.91889 0
M  V30 3933 H 377.597 -5.80245 2.88479 0
M  V30 3934 N 371.003 -0.499398 -1.49478 0
M  V30 3935 C 371.953 0.299103 -2.2603 0
M  V30 3936 C 372.937 0.936934 -1.30807 0
M  V30 3937 O 374.129 0.844798 -1.55538 0
M  V30 3938 C 371.258 1.36391 -3.15044 0
M  V30 3939 C 370.344 0.732398 -4.17728 0
M  V30 3940 N 370.735 -0.164028 -5.05534 0
M  V30 3941 C 369.033 0.993162 -4.34801 0
M  V30 3942 C 369.734 -0.525345 -5.79323 0
M  V30 3943 N 368.71 0.106348 -5.43496 0
M  V30 3944 H 372.512 -0.391003 -2.91287 0
M  V30 3945 H 370.026 -0.31537 -1.59308 0
M  V30 3946 H 372.023 1.94939 -3.68516 0
M  V30 3947 H 370.683 2.05571 -2.51338 0
M  V30 3948 H 371.694 -0.534736 -5.15132 0
M  V30 3949 H 368.371 1.67783 -3.82302 0
M  V30 3950 H 369.761 -1.25862 -6.60006 0
M  V30 3951 N 372.481 1.55866 -0.233164 0
M  V30 3952 C 373.728 1.98603 0.395374 0
M  V30 3953 C 374.056 1.12105 1.58942 0
M  V30 3954 O 373.311 0.168656 1.94972 0
M  V30 3955 C 373.61 3.46856 0.861724 0
M  V30 3956 C 373.276 4.50348 -0.223066 0
M  V30 3957 C 371.938 4.78371 -0.521038 0
M  V30 3958 C 374.29 5.12355 -0.956124 0
M  V30 3959 C 371.618 5.6568 -1.55638 0
M  V30 3960 C 373.97 6.00786 -1.98089 0
M  V30 3961 C 372.634 6.27148 -2.28565 0
M  V30 3962 H 371.904 0.726739 0.144677 0
M  V30 3963 H 374.551 1.88491 -0.338114 0
M  V30 3964 H 372.856 3.5423 1.67418 0
M  V30 3965 H 374.553 3.77302 1.35809 0
M  V30 3966 H 371.143 4.28596 0.0193234 0
M  V30 3967 H 375.327 4.90765 -0.739166 0
M  V30 3968 H 370.583 5.84365 -1.798 0
M  V30 3969 H 374.757 6.4788 -2.55391 0
M  V30 3970 H 372.384 6.94597 -3.08932 0
M  V30 3971 N 373.959 -0.0401083 1.57549 0
M  V30 3972 C 374.889 -1.04384 2.08869 0
M  V30 3973 C 375.87 -1.38407 0.988817 0
M  V30 3974 O 377.055 -1.47483 1.26342 0
M  V30 3975 C 374.185 -2.34808 2.55895 0
M  V30 3976 C 373.139 -2.15057 3.70047 0
M  V30 3977 C 372.465 -3.51145 4.03239 0
M  V30 3978 C 373.765 -1.54576 4.98902 0
M  V30 3979 H 375.459 -0.616666 2.92981 0
M  V30 3980 H 373.005 -0.295184 1.40942 0
M  V30 3981 H 374.958 -3.05346 2.90417 0
M  V30 3982 H 373.682 -2.79565 1.68853 0
M  V30 3983 H 372.341 -1.46954 3.35857 0
M  V30 3984 H 371.989 -3.93529 3.13279 0
M  V30 3985 H 371.689 -3.38758 4.80122 0
M  V30 3986 H 373.213 -4.23062 4.40285 0
M  V30 3987 H 374.627 -2.15017 5.31451 0
M  V30 3988 H 373.024 -1.52796 5.80322 0
M  V30 3989 H 374.094 -0.51039 4.82206 0
M  V30 3990 N 375.437 -1.54477 -0.31217 0
M  V30 3991 C 376.4 -1.83923 -1.36766 0
M  V30 3992 C 377.4 -0.711563 -1.44199 0
M  V30 3993 O 378.59 -0.979866 -1.44029 0
M  V30 3994 C 375.722 -2.0095 -2.75376 0
M  V30 3995 H 376.915 -2.78239 -1.11906 0
M  V30 3996 H 374.468 -1.46369 -0.548257 0
M  V30 3997 H 375.203 -1.08883 -3.05475 0
M  V30 3998 H 374.988 -2.83018 -2.71373 0
M  V30 3999 H 376.478 -2.2514 -3.51713 0
M  V30 4000 N 376.915 0.57481 -1.46744 0
M  V30 4001 C 378.331 0.898981 -1.31873 0
M  V30 4002 C 378.531 1.99313 -0.29605 0
M  V30 4003 O 377.587 2.50728 0.298621 0
M  V30 4004 C 378.9 1.30886 -2.7072 0
M  V30 4005 C 380.448 1.42127 -2.78871 0
M  V30 4006 C 380.923 1.86478 -4.18318 0
M  V30 4007 N 382.414 1.93658 -4.20774 0
M  V30 4008 C 383.149 2.29267 -5.2557 0
M  V30 4009 N 382.645 2.63612 -6.40688 0
M  V30 4010 N 384.438 2.29889 -5.1294 0
M  V30 4011 H 376.589 -0.147839 -2.11885 0
M  V30 4012 H 378.852 -0.00347013 -0.947994 0
M  V30 4013 H 378.558 0.578853 -3.46904 0
M  V30 4014 H 378.432 2.26874 -3.01343 0
M  V30 4015 H 380.819 2.14213 -2.0297 0
M  V30 4016 H 380.9 0.443705 -2.51922 0
M  V30 4017 H 380.544 1.14968 -4.94717 0
M  V30 4018 H 380.474 2.85207 -4.42679 0
M  V30 4019 H 382.965 1.69574 -3.37718 0
M  V30 4020 H 383.278 2.89759 -7.16421 0
M  V30 4021 H 381.623 2.61232 -6.44036 0
M  V30 4022 H 384.814 2.02485 -4.22039 0
M  V30 4023 H 384.987 2.57312 -5.94722 0
M  V30 4024 N 378.394 1.34581 0.820102 0
M  V30 4025 C 379.64 1.27285 1.57881 0
M  V30 4026 C 379.973 -0.156137 1.93571 0
M  V30 4027 O 379.248 -1.10222 1.60254 0
M  V30 4028 C 379.531 2.16639 2.87645 0
M  V30 4029 C 379.384 3.68088 2.58517 0
M  V30 4030 C 380.703 2.05378 3.8924 0
M  V30 4031 H 377.822 0.463714 0.572833 0
M  V30 4032 H 380.464 1.64859 0.944539 0
M  V30 4033 H 378.614 1.84725 3.41773 0
M  V30 4034 H 380.286 4.10382 2.10676 0
M  V30 4035 H 378.529 3.89038 1.91917 0
M  V30 4036 H 379.2 4.2598 3.51063 0
M  V30 4037 H 381.676 2.33404 3.44473 0
M  V30 4038 H 380.552 2.7012 4.77835 0
M  V30 4039 H 380.813 1.0316 4.29896 0
M  V30 4040 N 379.872 -1.04064 1.18357 0
M  V30 4041 C 381.283 -1.58719 0.98312 0
M  V30 4042 C 381.634 -1.90556 -0.467193 0
M  V30 4043 O 380.759 -1.69561 -1.34454 0
M  V30 4044 C 381.354 -2.88379 1.77828 0
M  V30 4045 C 379.913 -3.3965 1.62218 0
M  V30 4046 C 379.06 -2.13235 1.77274 0
M  V30 4047 H 382.011 -0.867359 1.32901 0
M  V30 4048 H 382.032 -3.58773 1.26737 0
M  V30 4049 H 381.544 -2.65176 2.83379 0
M  V30 4050 H 379.645 -3.67866 0.592036 0
M  V30 4051 H 379.758 -4.13475 2.42023 0
M  V30 4052 H 378.122 -2.24542 1.20221 0
M  V30 4053 H 378.905 -1.92487 2.8426 0
M  V30 4054 N 381.35 -0.985608 -1.22978 0
M  V30 4055 C 382.26 -0.538548 -2.28335 0
M  V30 4056 C 383.276 0.409163 -1.69121 0
M  V30 4057 O 384.452 0.277797 -1.99475 0
M  V30 4058 C 381.517 0.146867 -3.46389 0
M  V30 4059 C 380.578 -0.842896 -4.20944 0
M  V30 4060 C 379.811 -0.190095 -5.33361 0
M  V30 4061 O 380.034 1.01767 -5.61248 0
M  V30 4062 O 378.968 -0.891289 -5.95264 0
M  V30 4063 H 382.794 -1.41487 -2.68729 0
M  V30 4064 H 380.379 -0.753495 -1.29007 0
M  V30 4065 H 382.261 0.531125 -4.1804 0
M  V30 4066 H 380.936 0.997871 -3.07935 0
M  V30 4067 H 379.843 -1.27795 -3.51595 0
M  V30 4068 H 381.176 -1.66287 -4.6326 0
M  V30 4069 N 382.828 1.3818 -0.7579 0
M  V30 4070 C 384.105 1.94106 -0.241306 0
M  V30 4071 C 384.485 1.69282 1.26122 0
M  V30 4072 O 383.833 1.03378 2.03777 0
M  V30 4073 C 384.043 3.43809 -0.59967 0
M  V30 4074 C 385.391 4.20868 -0.561717 0
M  V30 4075 O 386.415 3.5211 -0.538222 0
M  V30 4076 O 385.274 5.43451 -0.576478 0
M  V30 4077 H 382.368 0.825376 -0.0518042 0
M  V30 4078 H 384.914 1.47548 -0.838315 0
M  V30 4079 H 383.686 3.55403 -1.6372 0
M  V30 4080 H 383.309 3.97592 0.0251197 0
M  V30 4081 N 384.306 0.507319 1.49211 0
M  V30 4082 C 385.554 -0.0348839 2.0207 0
M  V30 4083 C 385.875 -1.36898 1.38866 0
M  V30 4084 O 385.145 -1.88133 0.546151 0
M  V30 4085 H 383.725 -0.0158812 0.746831 0
M  V30 4086 H 386.387 0.665998 1.83168 0
M  V30 4087 H 385.483 -0.159917 3.1169 0
M  V30 4088 N 385.784 -1.5574 0.241426 0
M  V30 4089 C 387.03 -1.99104 -0.385406 0
M  V30 4090 C 387.363 -1.1293 -1.57988 0
M  V30 4091 O 386.638 -0.191449 -1.93555 0
M  V30 4092 C 386.921 -3.51087 -0.800616 0
M  V30 4093 C 386.774 -4.48028 0.398874 0
M  V30 4094 C 388.093 -4.08015 -1.64959 0
M  V30 4095 H 385.212 -0.723848 -0.138614 0
M  V30 4096 H 387.854 -1.86903 0.341642 0
M  V30 4097 H 386.004 -3.61615 -1.4201 0
M  V30 4098 H 387.676 -4.49487 1.03726 0
M  V30 4099 H 385.919 -4.21077 1.04293 0
M  V30 4100 H 386.59 -5.51962 0.0651056 0
M  V30 4101 H 389.066 -4.00555 -1.12672 0
M  V30 4102 H 387.942 -5.14635 -1.90898 0
M  V30 4103 H 388.203 -3.56131 -2.61961 0
M  V30 4104 N 387.262 0.0317525 -1.57568 0
M  V30 4105 C 388.508 0.724175 -1.8943 0
M  V30 4106 C 388.841 1.75149 -0.838836 0
M  V30 4107 O 388.116 1.93948 0.146422 0
M  V30 4108 C 388.399 1.39615 -3.31933 0
M  V30 4109 C 388.252 0.382537 -4.4817 0
M  V30 4110 C 389.571 2.33084 -3.73309 0
M  V30 4111 H 386.69 0.261797 -0.688935 0
M  V30 4112 H 389.332 -0.013017 -1.89996 0
M  V30 4113 H 387.482 2.02451 -3.31581 0
M  V30 4114 H 389.154 -0.243689 -4.60656 0
M  V30 4115 H 387.397 -0.29844 -4.32772 0
M  V30 4116 H 388.068 0.891145 -5.44759 0
M  V30 4117 H 390.544 1.80295 -3.7501 0
M  V30 4118 H 389.42 2.77084 -4.73831 0
M  V30 4119 H 389.681 3.19643 -3.05419 0
M  V30 4120 N 388.74 1.54641 0.303973 0
M  V30 4121 C 389.97 1.77511 1.05705 0
M  V30 4122 C 390.378 0.533228 1.81531 0
M  V30 4123 O 389.721 -0.506423 1.76582 0
M  V30 4124 C 389.783 2.92779 2.08617 0
M  V30 4125 C 389.447 4.30977 1.52013 0
M  V30 4126 C 390.444 5.11115 0.9517 0
M  V30 4127 C 388.129 4.77571 1.55665 0
M  V30 4128 C 390.123 6.35966 0.427327 0
M  V30 4129 C 387.81 6.02384 1.02841 0
M  V30 4130 C 388.808 6.81417 0.464713 0
M  V30 4131 O 388.496 8.03881 -0.0555283 0
M  V30 4132 H 388.228 0.59579 0.319391 0
M  V30 4133 H 390.782 2.02401 0.349712 0
M  V30 4134 H 389.012 2.63506 2.83022 0
M  V30 4135 H 390.701 3.03252 2.69802 0
M  V30 4136 H 391.467 4.76264 0.916407 0
M  V30 4137 H 387.346 4.16085 1.9848 0
M  V30 4138 H 390.89 6.97599 -0.0133062 0
M  V30 4139 H 386.787 6.36723 1.06084 0
M  V30 4140 H 387.555 8.18479 0.0580522 0
M  V30 4141 N 390.218 -0.567019 1.47046 0
M  V30 4142 C 391.464 -1.32434 1.54379 0
M  V30 4143 C 391.819 -1.91365 0.199276 0
M  V30 4144 O 391.112 -1.74378 -0.793915 0
M  V30 4145 C 391.306 -2.4623 2.59047 0
M  V30 4146 C 391.135 -1.98448 4.03545 0
M  V30 4147 C 389.905 -1.82741 4.71098 0
M  V30 4148 C 392.103 -1.53477 4.90866 0
M  V30 4149 N 390.085 -1.29196 6.00151 0
M  V30 4150 C 391.456 -1.1163 6.09868 0
M  V30 4151 C 393.511 -1.41438 4.77388 0
M  V30 4152 C 392.214 -0.589425 7.16881 0
M  V30 4153 C 394.24 -0.901528 5.84488 0
M  V30 4154 C 393.602 -0.492932 7.02673 0
M  V30 4155 H 389.701 -0.477005 0.61967 0
M  V30 4156 H 392.285 -0.643856 1.83746 0
M  V30 4157 H 390.456 -3.11821 2.31564 0
M  V30 4158 H 392.188 -3.13213 2.56281 0
M  V30 4159 H 388.943 -2.05162 4.26855 0
M  V30 4160 H 389.367 -1.0454 6.6888 0
M  V30 4161 H 394.009 -1.71643 3.86392 0
M  V30 4162 H 391.727 -0.274994 8.07632 0
M  V30 4163 H 395.313 -0.812071 5.76105 0
M  V30 4164 H 394.193 -0.102227 7.84133 0
M  V30 4165 N 391.696 -1.35014 -0.812953 0
M  V30 4166 C 392.973 -1.18502 -1.55617 0
M  V30 4167 C 393.353 0.238421 -2.09749 0
M  V30 4168 O 392.701 1.2411 -1.91857 0
M  V30 4169 C 392.911 -2.24783 -2.66971 0
M  V30 4170 C 394.259 -2.60268 -3.35478 0
M  V30 4171 O 395.283 -2.23648 -2.77236 0
M  V30 4172 O 394.142 -3.2321 -4.40678 0
M  V30 4173 H 391.236 -0.459984 -0.687272 0
M  V30 4174 H 393.782 -1.46677 -0.853464 0
M  V30 4175 H 392.554 -3.20284 -2.24798 0
M  V30 4176 H 392.177 -1.97841 -3.44884 0
M  V30 4177 N 393.175 1.03435 -1.18907 0
M  V30 4178 C 394.422 1.76743 -0.988334 0
M  V30 4179 C 394.75 1.88447 0.481441 0
M  V30 4180 O 394.005 1.39383 1.37371 0
M  V30 4181 C 394.304 3.19792 -1.59586 0
M  V30 4182 C 393.97 3.28108 -3.09283 0
M  V30 4183 C 392.632 3.30084 -3.5014 0
M  V30 4184 C 394.984 3.27696 -4.05296 0
M  V30 4185 C 392.312 3.29299 -4.85571 0
M  V30 4186 C 394.664 3.28451 -5.4065 0
M  V30 4187 C 393.328 3.28723 -5.80946 0
M  V30 4188 H 392.598 0.64675 -0.361657 0
M  V30 4189 H 395.245 1.21442 -1.48068 0
M  V30 4190 H 393.55 3.78136 -1.02568 0
M  V30 4191 H 395.247 3.75171 -1.41589 0
M  V30 4192 H 391.837 3.27294 -2.76725 0
M  V30 4193 H 396.021 3.25354 -3.74778 0
M  V30 4194 H 391.277 3.2783 -5.16079 0
M  V30 4195 H 395.451 3.27082 -6.14809 0
M  V30 4196 H 393.078 3.27868 -6.85862 0
M  V30 4197 N 394.653 0.992116 1.22453 0
M  V30 4198 C 395.563 0.55065 2.28046 0
M  V30 4199 C 396.579 -0.400189 1.69335 0
M  V30 4200 O 397.755 -0.267215 1.99619 0
M  V30 4201 C 394.82 -0.128496 3.46462 0
M  V30 4202 C 393.881 0.865208 4.20491 0
M  V30 4203 C 393.114 0.218377 5.33253 0
M  V30 4204 O 393.337 -0.987894 5.6178 0
M  V30 4205 O 392.271 0.922845 5.94783 0
M  V30 4206 H 396.097 1.4291 2.67975 0
M  V30 4207 H 393.682 0.760326 1.28606 0
M  V30 4208 H 395.564 -0.508947 4.18315 0
M  V30 4209 H 394.239 -0.981526 3.0846 0
M  V30 4210 H 393.146 1.29658 3.50913 0
M  V30 4211 H 394.479 1.68741 4.62371 0
M  V30 4212 N 396.131 -1.37776 0.765217 0
M  V30 4213 C 397.377 -2.00145 0.327072 0
M  V30 4214 C 397.71 -1.60607 -1.09175 0
M  V30 4215 O 396.985 -0.849127 -1.74986 0
M  V30 4216 C 397.268 -3.57109 0.46319 0
M  V30 4217 C 397.121 -4.06576 1.92395 0
M  V30 4218 C 398.44 -4.39888 -0.136473 0
M  V30 4219 H 395.559 -0.727113 0.120316 0
M  V30 4220 H 398.201 -1.63549 0.967039 0
M  V30 4221 H 396.351 -3.88414 -0.0816358 0
M  V30 4222 H 398.023 -3.85864 2.52798 0
M  V30 4223 H 396.266 -3.59011 2.43503 0
M  V30 4224 H 396.937 -5.15639 1.97028 0
M  V30 4225 H 399.413 -4.14803 0.328317 0
M  V30 4226 H 398.289 -5.48899 -0.0110582 0
M  V30 4227 H 398.55 -4.24758 -1.22608 0
M  V30 4228 N 397.609 -0.515225 -1.4894 0
M  V30 4229 C 399.02 -0.0710067 -1.86565 0
M  V30 4230 C 399.371 1.34733 -1.42623 0
M  V30 4231 O 398.496 2.00653 -0.810379 0
M  V30 4232 C 399.091 -0.122083 -3.3858 0
M  V30 4233 C 397.65 0.266863 -3.75453 0
M  V30 4234 C 396.797 -0.488376 -2.72966 0
M  V30 4235 H 399.748 -0.727266 -1.41055 0
M  V30 4236 H 399.769 0.669818 -3.74558 0
M  V30 4237 H 399.281 -1.15448 -3.70531 0
M  V30 4238 H 397.382 1.30196 -3.49113 0
M  V30 4239 H 397.495 -0.0624811 -4.79059 0
M  V30 4240 H 395.859 0.0635622 -2.54621 0
M  V30 4241 H 396.642 -1.52113 -3.07761 0
M  V30 4242 N 399.087 1.5561 -0.249682 0
M  V30 4243 C 400.019 2.18834 0.681496 0
M  V30 4244 C 401.032 1.16546 1.1367 0
M  V30 4245 O 402.221 1.43397 1.06299 0
M  V30 4246 C 399.321 2.77992 1.9384 0
M  V30 4247 C 398.494 4.05725 1.63419 0
M  V30 4248 C 397.553 4.49174 2.74096 0
M  V30 4249 O 396.579 5.15492 2.41364 0
M  V30 4250 N 397.781 4.17191 4.03649 0
M  V30 4251 H 400.546 2.9937 0.140514 0
M  V30 4252 H 398.107 1.6175 -0.0697541 0
M  V30 4253 H 400.099 3.04015 2.67127 0
M  V30 4254 H 398.669 2.01596 2.38909 0
M  V30 4255 H 397.889 3.87261 0.736358 0
M  V30 4256 H 399.177 4.88999 1.40562 0
M  V30 4257 H 398.575 3.63955 4.33074 0
M  V30 4258 H 397.132 4.48043 4.73393 0
M  V30 4259 N 400.565 -0.0233959 1.57583 0
M  V30 4260 C 401.475 -1.03907 2.10334 0
M  V30 4261 C 402.491 -1.39257 1.04323 0
M  V30 4262 O 403.667 -1.48462 1.36091 0
M  V30 4263 C 400.732 -2.31938 2.57693 0
M  V30 4264 C 399.793 -2.03117 3.78209 0
M  V30 4265 C 399.026 -3.25043 4.233 0
M  V30 4266 O 399.249 -4.35916 3.67876 0
M  V30 4267 O 398.183 -3.10411 5.15683 0
M  V30 4268 H 402.009 -0.620748 2.97288 0
M  V30 4269 H 399.594 -0.240743 1.47448 0
M  V30 4270 H 401.476 -3.07196 2.88458 0
M  V30 4271 H 400.151 -2.73055 1.73847 0
M  V30 4272 H 399.058 -1.25408 3.52454 0
M  V30 4273 H 400.391 -1.66852 4.63056 0
M  V30 4274 N 402.043 -1.548 -0.295768 0
M  V30 4275 C 403.454 -1.65274 -0.868411 0
M  V30 4276 C 403.805 -0.56481 -1.87894 0
M  V30 4277 O 402.93 0.29767 -2.14343 0
M  V30 4278 C 403.525 -2.99603 -1.58188 0
M  V30 4279 C 402.084 -3.12181 -2.10286 0
M  V30 4280 C 401.231 -2.6098 -0.93727 0
M  V30 4281 H 404.182 -1.58534 -0.0726422 0
M  V30 4282 H 404.203 -2.91319 -2.44772 0
M  V30 4283 H 403.715 -3.78764 -0.846151 0
M  V30 4284 H 401.816 -2.3775 -2.8689 0
M  V30 4285 H 401.929 -4.18415 -2.33379 0
M  V30 4286 H 400.293 -2.17564 -1.32431 0
M  V30 4287 H 401.076 -3.42623 -0.215414 0
M  V30 4288 N 403.521 0.559213 -1.47345 0
M  V30 4289 C 404.746 1.34676 -1.57725 0
M  V30 4290 C 405.171 1.86723 -0.227164 0
M  V30 4291 O 404.529 1.6286 0.796642 0
M  V30 4292 C 404.577 2.49399 -2.60447 0
M  V30 4293 O 403.681 3.51567 -2.15578 0
M  V30 4294 H 403.022 0.400115 -0.52991 0
M  V30 4295 H 405.552 0.676009 -1.93109 0
M  V30 4296 H 405.562 2.95996 -2.80803 0
M  V30 4297 H 404.237 2.10873 -3.58477 0
M  V30 4298 H 402.814 3.11289 -2.05313 0
M  V30 4299 N 404.999 1.35443 0.805782 0
M  V30 4300 C 406.224 1.32037 1.59941 0
M  V30 4301 C 406.649 -0.0994215 1.87837 0
M  V30 4302 O 406.007 -1.06648 1.46615 0
M  V30 4303 C 406.055 2.13354 2.90711 0
M  V30 4304 O 405.159 1.5148 3.83572 0
M  V30 4305 H 404.5 0.452666 0.485787 0
M  V30 4306 H 407.03 1.78496 1.00002 0
M  V30 4307 H 407.04 2.25338 3.40128 0
M  V30 4308 H 405.715 3.16572 2.69732 0
M  V30 4309 H 404.292 1.4834 3.42125 0
M  V30 4310 N 406.477 -1.02803 1.19454 0
M  V30 4311 C 407.707 -1.79581 1.02149 0
M  V30 4312 C 408.115 -1.84182 -0.432851 0
M  V30 4313 O 407.458 -1.28534 -1.31243 0
M  V30 4314 C 407.52 -3.25993 1.51554 0
M  V30 4315 C 407.184 -3.45025 2.99678 0
M  V30 4316 C 408.181 -3.35175 3.97434 0
M  V30 4317 C 405.866 -3.71212 3.38389 0
M  V30 4318 C 407.86 -3.51238 5.31893 0
M  V30 4319 C 405.547 -3.8692 4.73008 0
M  V30 4320 C 406.545 -3.76936 5.69569 0
M  V30 4321 O 406.233 -3.92179 7.01748 0
M  V30 4322 H 405.965 -0.571962 0.360327 0
M  V30 4323 H 408.519 -1.30367 1.58725 0
M  V30 4324 H 406.749 -3.76235 0.893543 0
M  V30 4325 H 408.438 -3.84368 1.30444 0
M  V30 4326 H 409.204 -3.14895 3.68872 0
M  V30 4327 H 405.083 -3.78075 2.6378 0
M  V30 4328 H 408.627 -3.43362 6.07247 0
M  V30 4329 H 404.524 -4.06699 5.01265 0
M  V30 4330 H 405.292 -4.09265 7.08833 0
M  V30 4331 N 407.956 -0.998596 -1.21925 0
M  V30 4332 C 409.372 -0.710303 -1.42923 0
M  V30 4333 C 409.572 0.716933 -1.88314 0
M  V30 4334 O 408.628 1.48712 -2.04062 0
M  V30 4335 C 409.941 -1.72072 -2.466 0
M  V30 4336 C 411.489 -1.73681 -2.60392 0
M  V30 4337 C 411.964 -2.73601 -3.67296 0
M  V30 4338 N 413.455 -2.7223 -3.7476 0
M  V30 4339 C 414.19 -3.46206 -4.57087 0
M  V30 4340 N 413.686 -4.29802 -5.43362 0
M  V30 4341 N 415.479 -3.34886 -4.51451 0
M  V30 4342 H 407.63 -1.92028 -0.9077 0
M  V30 4343 H 409.893 -0.828487 -0.460775 0
M  V30 4344 H 409.599 -2.74231 -2.20206 0
M  V30 4345 H 409.473 -1.51818 -3.45299 0
M  V30 4346 H 411.86 -0.722173 -2.86127 0
M  V30 4347 H 411.941 -1.98005 -1.61949 0
M  V30 4348 H 411.585 -3.75217 -3.42307 0
M  V30 4349 H 411.515 -2.46545 -4.65321 0
M  V30 4350 H 414.006 -2.11576 -3.1312 0
M  V30 4351 H 414.319 -4.83061 -6.03218 0
M  V30 4352 H 412.664 -4.33887 -5.42925 0
M  V30 4353 H 415.855 -2.69015 -3.83078 0
M  V30 4354 H 416.028 -3.92796 -5.15379 0
M  V30 4355 N 409.434 1.37368 -0.772513 0
M  V30 4356 C 410.711 1.93839 -0.26188 0
M  V30 4357 C 411.091 1.7061 1.24319 0
M  V30 4358 O 410.439 1.05534 2.02669 0
M  V30 4359 C 410.649 3.43154 -0.636102 0
M  V30 4360 C 411.997 4.20249 -0.606324 0
M  V30 4361 O 413.021 3.5152 -0.575538 0
M  V30 4362 O 411.88 5.42809 -0.634086 0
M  V30 4363 H 408.974 0.82478 -0.0605555 0
M  V30 4364 H 411.52 1.4665 -0.853917 0
M  V30 4365 H 410.292 3.53647 -1.6748 0
M  V30 4366 H 409.915 3.97596 -0.0170516 0
M  V30 4367 N 410.912 0.523116 1.48665 0
M  V30 4368 C 412.137 -0.0117284 2.07397 0
M  V30 4369 C 412.562 -1.28031 1.37803 0
M  V30 4370 O 411.92 -1.75836 0.441762 0
M  V30 4371 C 411.968 -0.225786 3.59892 0
M  V30 4372 O 411.072 -1.29592 3.91509 0
M  V30 4373 H 410.413 0.0360673 0.66302 0
M  V30 4374 H 412.943 0.729066 1.9117 0
M  V30 4375 H 412.953 -0.450552 4.05505 0
M  V30 4376 H 411.628 0.700944 4.09951 0
M  V30 4377 H 410.205 -1.05436 3.57684 0
M  V30 4378 N 412.39 -1.55475 0.257931 0
M  V30 4379 C 413.615 -2.04064 -0.370488 0
M  V30 4380 C 414.04 -1.13565 -1.49948 0
M  V30 4381 O 413.398 -0.130781 -1.80828 0
M  V30 4382 C 413.446 -3.50554 -0.845237 0
M  V30 4383 O 412.55 -3.63173 -1.95394 0
M  V30 4384 H 411.891 -0.659257 -0.0792243 0
M  V30 4385 H 414.421 -2.00903 0.387212 0
M  V30 4386 H 414.431 -3.91588 -1.14555 0
M  V30 4387 H 413.106 -4.15896 -0.0191259 0
M  V30 4388 H 411.683 -3.34039 -1.65748 0
M  V30 4389 N 413.868 0.0150385 -1.57593 0
M  V30 4390 C 414.831 0.995996 -2.06428 0
M  V30 4391 C 415.831 1.2818 -0.970903 0
M  V30 4392 O 417.021 1.22949 -1.23406 0
M  V30 4393 C 414.153 2.32506 -2.49307 0
M  V30 4394 H 415.346 0.573873 -2.94358 0
M  V30 4395 H 412.899 0.262186 -1.54085 0
M  V30 4396 H 413.634 2.79438 -1.64575 0
M  V30 4397 H 413.419 2.13087 -3.29145 0
M  V30 4398 H 414.909 3.02906 -2.87468 0
M  V30 4399 N 415.346 1.54954 0.287554 0
M  V30 4400 C 416.571 1.79209 1.04397 0
M  V30 4401 C 416.996 0.556431 1.79682 0
M  V30 4402 O 416.354 -0.493518 1.74454 0
M  V30 4403 C 416.402 3.00739 1.98969 0
M  V30 4404 O 415.506 2.74805 3.075 0
M  V30 4405 H 414.847 0.592755 0.299227 0
M  V30 4406 H 417.377 2.02068 0.320886 0
M  V30 4407 H 417.387 3.29077 2.4119 0
M  V30 4408 H 416.062 3.90329 1.43582 0
M  V30 4409 H 414.639 2.57523 2.69697 0
M  V30 4410 N 416.824 -0.551391 1.4764 0
M  V30 4411 C 417.787 -1.64007 1.60107 0
M  V30 4412 C 418.787 -1.53601 0.47576 0
M  V30 4413 O 419.977 -1.57655 0.740988 0
M  V30 4414 C 417.109 -3.03569 1.55108 0
M  V30 4415 H 418.302 -1.543 2.57161 0
M  V30 4416 H 415.855 -0.771776 1.35917 0
M  V30 4417 H 416.59 -3.18804 0.594519 0
M  V30 4418 H 416.375 -3.12532 2.36783 0
M  V30 4419 H 417.865 -3.82762 1.66982 0
M  V30 4420 N 418.302 -1.35869 -0.798587 0
M  V30 4421 C 419.551 -1.28921 -1.5512 0
M  V30 4422 C 419.864 0.13208 -1.95154 0
M  V30 4423 O 421.07 0.323879 -2.69561 0
M  V30 4424 C 419.526 -2.26141 -2.79979 0
M  V30 4425 C 419.134 -3.73658 -2.47151 0
M  V30 4426 C 420.878 -2.28152 -3.57976 0
M  V30 4427 C 418.785 -4.62679 -3.6835 0
M  V30 4428 H 417.715 -0.479031 -0.582276 0
M  V30 4429 H 420.366 -1.61179 -0.877125 0
M  V30 4430 H 418.748 -1.86865 -3.49138 0
M  V30 4431 H 419.922 -4.21616 -1.85947 0
M  V30 4432 H 418.237 -3.74333 -1.82383 0
M  V30 4433 H 420.834 -2.91875 -4.4801 0
M  V30 4434 H 421.177 -1.28748 -3.95891 0
M  V30 4435 H 421.71 -2.65998 -2.95787 0
M  V30 4436 H 418.449 -5.63111 -3.35538 0
M  V30 4437 H 417.969 -4.19442 -4.28752 0
M  V30 4438 H 419.648 -4.78498 -4.35487 0
M  V30 4439 N 419.78 1.02168 -1.19998 0
M  V30 4440 C 421.008 1.79296 -1.03249 0
M  V30 4441 C 421.423 1.84103 0.418502 0
M  V30 4442 O 420.78 1.29031 1.29063 0
M  V30 4443 C 420.831 3.24007 -1.60319 0
M  V30 4444 O 420.552 3.19512 -2.99739 0
M  V30 4445 C 422.053 4.17704 -1.48453 0
M  V30 4446 H 419.273 0.564016 -0.363493 0
M  V30 4447 H 421.817 1.28639 -1.58973 0
M  V30 4448 H 419.972 3.7183 -1.08727 0
M  V30 4449 H 420.386 4.10306 -3.26725 0
M  V30 4450 H 421.86 5.17104 -1.93153 0
M  V30 4451 H 422.337 4.37029 -0.436193 0
M  V30 4452 H 422.943 3.7576 -1.99211 0
M  V30 4453 N 421.258 1.00505 1.21394 0
M  V30 4454 C 422.221 0.570459 2.21987 0
M  V30 4455 C 423.221 -0.353211 1.56873 0
M  V30 4456 O 424.411 -0.14349 1.73608 0
M  V30 4457 C 421.543 -0.168555 3.40483 0
M  V30 4458 H 422.736 1.46021 2.6195 0
M  V30 4459 H 420.289 0.793565 1.34656 0
M  V30 4460 H 421.024 -1.07374 3.06009 0
M  V30 4461 H 420.809 0.494823 3.88965 0
M  V30 4462 H 422.299 -0.460362 4.15055 0
M  V30 4463 N 422.737 -1.36956 0.779787 0
M  V30 4464 C 423.977 -2.01328 0.353043 0
M  V30 4465 C 424.341 -1.60558 -1.05286 0
M  V30 4466 O 425.542 -2.1745 -1.58016 0
M  V30 4467 C 423.813 -3.53874 0.500822 0
M  V30 4468 S 425.372 -4.38506 0.16053 0
M  V30 4469 H 422.19 -0.69799 0.13539 0
M  V30 4470 H 424.792 -1.67016 1.01617 0
M  V30 4471 H 423.496 -3.81034 1.52451 0
M  V30 4472 H 423.027 -3.92994 -0.178574 0
M  V30 4473 H 425.042 -4.85153 -1.04121 0
M  V30 4474 N 424.215 -0.530993 -1.48385 0
M  V30 4475 C 425.463 0.00273189 -2.021 0
M  V30 4476 C 425.784 1.34672 -1.41027 0
M  V30 4477 O 425.054 1.8724 -0.576012 0
M  V30 4478 H 423.634 0.00399774 -0.746989 0
M  V30 4479 H 426.296 -0.695054 -1.82085 0
M  V30 4480 H 425.392 0.11031 -3.11905 0
M  V30 4481 N 425.693 1.55336 -0.266172 0
M  V30 4482 C 426.623 2.25146 0.618981 0
M  V30 4483 C 427.604 1.23845 1.16604 0
M  V30 4484 O 428.789 1.52544 1.20183 0
M  V30 4485 C 425.919 2.96572 1.80728 0
M  V30 4486 C 424.873 4.04726 1.39215 0
M  V30 4487 C 424.199 4.63678 2.66283 0
M  V30 4488 C 425.499 5.19407 0.548942 0
M  V30 4489 H 427.193 2.99377 0.0368116 0
M  V30 4490 H 424.739 1.43991 0.0162651 0
M  V30 4491 H 426.692 3.44116 2.43232 0
M  V30 4492 H 425.416 2.19861 2.41514 0
M  V30 4493 H 424.075 3.57979 0.790351 0
M  V30 4494 H 423.723 3.83646 3.25308 0
M  V30 4495 H 423.423 5.367 2.39222 0
M  V30 4496 H 424.947 5.13967 3.29651 0
M  V30 4497 H 426.361 5.63059 1.07876 0
M  V30 4498 H 424.758 5.98936 0.373593 0
M  V30 4499 H 425.828 4.8295 -0.434394 0
M  V30 4500 N 427.171 -0.0066808 1.57599 0
M  V30 4501 C 428.101 -0.999296 2.11036 0
M  V30 4502 C 429.082 -1.36278 1.01795 0
M  V30 4503 O 430.267 -1.4477 1.29442 0
M  V30 4504 C 427.397 -2.29328 2.60818 0
M  V30 4505 C 426.351 -2.07159 3.74525 0
M  V30 4506 C 425.677 -3.42512 4.10596 0
M  V30 4507 C 426.977 -1.43959 5.02069 0
M  V30 4508 H 428.671 -0.554382 2.94223 0
M  V30 4509 H 426.217 -0.265221 1.41536 0
M  V30 4510 H 428.17 -2.99117 2.96828 0
M  V30 4511 H 426.894 -2.7592 1.74745 0
M  V30 4512 H 425.553 -1.39797 3.38899 0
M  V30 4513 H 425.201 -3.86795 3.21556 0
M  V30 4514 H 424.901 -3.28498 4.87199 0
M  V30 4515 H 426.425 -4.13628 4.4916 0
M  V30 4516 H 427.839 -2.03696 5.35893 0
M  V30 4517 H 426.236 -1.40452 5.83432 0
M  V30 4518 H 427.306 -0.407992 4.83181 0
M  V30 4519 N 428.649 -1.55105 -0.279332 0
M  V30 4520 C 429.559 -1.90638 -1.36727 0
M  V30 4521 C 430.575 -0.802899 -1.54368 0
M  V30 4522 O 431.751 -1.10138 -1.68616 0
M  V30 4523 C 428.816 -2.16547 -2.70755 0
M  V30 4524 C 427.877 -3.40146 -2.61915 0
M  V30 4525 C 427.11 -3.6481 -3.8955 0
M  V30 4526 O 427.333 -2.92095 -4.89935 0
M  V30 4527 O 426.267 -4.58343 -3.90135 0
M  V30 4528 H 430.093 -2.83237 -1.09591 0
M  V30 4529 H 427.678 -1.4157 -0.477306 0
M  V30 4530 H 429.56 -2.34665 -3.50014 0
M  V30 4531 H 428.235 -1.27131 -2.9769 0
M  V30 4532 H 427.142 -3.2737 -1.81052 0
M  V30 4533 H 428.475 -4.29761 -2.3993 0
M  V30 4534 N 430.127 0.543554 -1.4793 0
M  V30 4535 C 431.376 1.29649 -1.54512 0
M  V30 4536 C 431.689 1.94382 -0.217973 0
M  V30 4537 O 432.895 2.71017 -0.161908 0
M  V30 4538 C 431.351 2.35175 -2.72435 0
M  V30 4539 C 430.959 1.76572 -4.11736 0
M  V30 4540 C 432.703 3.11564 -2.8832 0
M  V30 4541 C 430.61 2.79958 -5.20939 0
M  V30 4542 H 429.54 0.487541 -0.57517 0
M  V30 4543 H 432.191 0.575708 -1.74235 0
M  V30 4544 H 430.573 3.10229 -2.46118 0
M  V30 4545 H 431.747 1.07799 -4.48013 0
M  V30 4546 H 430.062 1.12722 -4.00852 0
M  V30 4547 H 432.659 3.88794 -3.67074 0
M  V30 4548 H 433.002 3.66594 -1.97268 0
M  V30 4549 H 433.535 2.43623 -3.14472 0
M  V30 4550 H 430.274 2.29766 -6.13912 0
M  V30 4551 H 429.794 3.47101 -4.89164 0
M  V30 4552 H 431.473 3.43198 -5.48474 0
M  V30 4553 N 431.605 1.3629 0.791371 0
M  V30 4554 C 432.568 1.30309 1.88553 0
M  V30 4555 C 433.568 0.211204 1.59407 0
M  V30 4556 O 434.758 0.465865 1.67855 0
M  V30 4557 C 431.89 1.01956 3.25297 0
M  V30 4558 H 433.083 2.27614 1.95273 0
M  V30 4559 H 430.636 1.21035 0.988953 0
M  V30 4560 H 431.371 0.050998 3.2426 0
M  V30 4561 H 431.156 1.80968 3.4784 0
M  V30 4562 H 432.646 1.0037 4.05359 0
M  V30 4563 N 433.083 -1.0153 1.20538 0
M  V30 4564 C 434.308 -1.79283 1.04271 0
M  V30 4565 C 434.733 -1.8372 -0.403544 0
M  V30 4566 O 434.091 -1.27321 -1.2907 0
M  V30 4567 C 434.139 -3.21535 1.63241 0
M  V30 4568 O 433.243 -4.03099 0.870908 0
M  V30 4569 H 432.584 -0.55293 0.367647 0
M  V30 4570 H 435.114 -1.27696 1.59859 0
M  V30 4571 H 435.124 -3.72243 1.6703 0
M  V30 4572 H 433.799 -3.1762 2.68497 0
M  V30 4573 H 432.376 -3.61693 0.907323 0
M  V30 4574 N 434.561 -1.01147 -1.20859 0
M  V30 4575 C 435.493 -0.535546 -2.22855 0
M  V30 4576 C 436.506 0.379323 -1.58319 0
M  V30 4577 O 437.695 0.178489 -1.77605 0
M  V30 4578 C 434.795 0.240962 -3.38042 0
M  V30 4579 C 433.968 -0.674562 -4.32167 0
M  V30 4580 C 433.027 0.053467 -5.26173 0
M  V30 4581 O 432.053 -0.567339 -5.66366 0
M  V30 4582 N 433.255 1.32997 -5.65059 0
M  V30 4583 H 436.02 -1.41268 -2.64317 0
M  V30 4584 H 433.581 -0.888386 -1.35349 0
M  V30 4585 H 435.573 0.737115 -3.97931 0
M  V30 4586 H 434.143 1.01935 -2.95513 0
M  V30 4587 H 433.363 -1.35111 -3.70322 0
M  V30 4588 H 434.651 -1.2974 -4.91981 0
M  V30 4589 H 434.049 1.85536 -5.34409 0
M  V30 4590 H 432.606 1.77095 -6.2728 0
M  V30 4591 N 436.039 1.36541 -0.78704 0
M  V30 4592 C 436.969 2.32659 -0.197992 0
M  V30 4593 C 437.95 1.56533 0.665697 0
M  V30 4594 O 439.135 1.84698 0.60001 0
M  V30 4595 C 436.265 3.40778 0.669901 0
M  V30 4596 C 435.219 4.27897 -0.0937039 0
M  V30 4597 C 434.545 5.27163 0.894629 0
M  V30 4598 C 435.845 5.06334 -1.28154 0
M  V30 4599 H 437.539 2.82171 -1.00099 0
M  V30 4600 H 435.085 1.35665 -0.482793 0
M  V30 4601 H 437.038 4.07008 1.09191 0
M  V30 4602 H 435.762 2.89827 1.50558 0
M  V30 4603 H 434.421 3.6322 -0.49666 0
M  V30 4604 H 434.069 4.72486 1.72527 0
M  V30 4605 H 433.769 5.86317 0.388149 0
M  V30 4606 H 435.293 5.96266 1.31525 0
M  V30 4607 H 436.707 5.65617 -0.93541 0
M  V30 4608 H 435.104 5.74888 -1.72115 0
M  V30 4609 H 436.174 4.38114 -2.07807 0
M  V30 4610 N 437.518 0.538854 1.48102 0
M  V30 4611 C 438.795 -0.0568108 1.95517 0
M  V30 4612 C 439.175 -1.50408 1.48124 0
M  V30 4613 O 438.523 -2.17133 0.711727 0
M  V30 4614 C 438.733 0.0696262 3.48931 0
M  V30 4615 C 440.081 -0.0851202 4.24515 0
M  V30 4616 O 441.105 -0.0037347 3.562 0
M  V30 4617 O 439.964 -0.257025 5.45895 0
M  V30 4618 H 437.058 -0.0743695 0.823649 0
M  V30 4619 H 439.604 0.604081 1.58584 0
M  V30 4620 H 438.376 1.07744 3.76174 0
M  V30 4621 H 437.999 -0.629714 3.92582 0
M  V30 4622 N 438.996 -1.55193 0.274407 0
M  V30 4623 C 439.906 -2.26164 -0.623473 0
M  V30 4624 C 440.922 -1.28729 -1.17068 0
M  V30 4625 O 442.098 -1.61663 -1.20112 0
M  V30 4626 C 439.163 -2.96833 -1.7914 0
M  V30 4627 C 438.224 -4.09745 -1.28093 0
M  V30 4628 C 437.457 -4.77034 -2.3932 0
M  V30 4629 O 437.68 -4.4353 -3.5866 0
M  V30 4630 O 436.614 -5.64996 -2.07516 0
M  V30 4631 H 440.44 -3.03661 -0.0485661 0
M  V30 4632 H 438.025 -1.49341 0.0418382 0
M  V30 4633 H 439.907 -3.41248 -2.4724 0
M  V30 4634 H 438.582 -2.22253 -2.35341 0
M  V30 4635 H 437.489 -3.69787 -0.566416 0
M  V30 4636 H 438.822 -4.86224 -0.764683 0
M  V30 4637 N 440.474 -0.00167713 -1.576 0
M  V30 4638 C 441.699 0.69739 -1.95323 0
M  V30 4639 C 442.124 1.6642 -0.876706 0
M  V30 4640 O 441.482 1.80548 0.165007 0
M  V30 4641 C 441.53 1.40403 -3.32144 0
M  V30 4642 O 440.634 2.5185 -3.26566 0
M  V30 4643 H 439.975 0.185373 -0.637599 0
M  V30 4644 H 442.505 -0.0553665 -2.04525 0
M  V30 4645 H 442.515 1.76707 -3.67748 0
M  V30 4646 H 441.19 0.695167 -4.10049 0
M  V30 4647 H 439.767 2.17861 -3.0264 0
M  V30 4648 N 441.952 1.55251 0.271103 0
M  V30 4649 C 443.229 1.66664 1.02384 0
M  V30 4650 C 443.609 0.534363 2.04225 0
M  V30 4651 O 442.957 -0.465337 2.23712 0
M  V30 4652 C 443.167 3.05961 1.67895 0
M  V30 4653 C 444.515 3.63772 2.18986 0
M  V30 4654 O 445.539 3.08606 1.77878 0
M  V30 4655 O 444.398 4.60429 2.94393 0
M  V30 4656 H 441.492 0.676957 0.475035 0
M  V30 4657 H 444.038 1.67589 0.26681 0
M  V30 4658 H 442.81 3.79815 0.941071 0
M  V30 4659 H 442.433 3.08943 2.5028 0
M  V30 4660 N 443.43 -0.535701 1.48216 0
M  V30 4661 C 444.841 -1.11769 1.49548 0
M  V30 4662 C 445.192 -1.94442 0.26207 0
M  V30 4663 O 444.317 -2.06987 -0.631287 0
M  V30 4664 C 444.912 -2.03367 2.70975 0
M  V30 4665 C 443.471 -2.56795 2.75196 0
M  V30 4666 C 442.618 -1.33631 2.42977 0
M  V30 4667 H 445.569 -0.321232 1.55415 0
M  V30 4668 H 445.59 -2.87569 2.49167 0
M  V30 4669 H 445.102 -1.43169 3.60727 0
M  V30 4670 H 443.203 -3.20731 1.89638 0
M  V30 4671 H 443.316 -2.9632 3.76472 0
M  V30 4672 H 441.68 -1.6502 1.94012 0
M  V30 4673 H 442.463 -0.75194 3.34964 0
M  V30 4674 N 444.908 -1.36708 -0.784132 0
M  V30 4675 C 445.818 -1.3363 -1.92822 0
M  V30 4676 C 446.834 -0.237686 -1.72369 0
M  V30 4677 O 448.01 -0.470962 -1.95816 0
M  V30 4678 C 445.075 -1.13011 -3.27764 0
M  V30 4679 C 444.136 -2.32397 -3.60957 0
M  V30 4680 C 443.369 -2.12752 -4.89461 0
M  V30 4681 O 443.592 -1.10541 -5.59586 0
M  V30 4682 O 442.526 -3.00653 -5.21432 0
M  V30 4683 H 446.352 -2.29964 -1.98369 0
M  V30 4684 H 443.937 -1.1731 -0.925136 0
M  V30 4685 H 445.819 -1.03451 -4.08504 0
M  V30 4686 H 444.494 -0.19743 -3.23097 0
M  V30 4687 H 443.401 -2.47527 -2.80502 0
M  V30 4688 H 444.734 -3.2419 -3.70354 0
M  V30 4689 N 446.386 1.0089 -1.21074 0
M  V30 4690 C 447.802 1.2695 -0.967257 0
M  V30 4691 C 448.002 1.9846 0.348673 0
M  V30 4692 O 447.058 2.28459 1.0753 0
M  V30 4693 C 448.371 2.09697 -2.15517 0
M  V30 4694 C 449.919 2.22937 -2.197 0
M  V30 4695 C 450.394 3.09064 -3.37999 0
M  V30 4696 N 451.885 3.16653 -3.38061 0
M  V30 4697 C 452.62 3.8354 -4.26245 0
M  V30 4698 N 452.116 4.52488 -5.2462 0
M  V30 4699 N 453.909 3.80141 -4.14064 0
M  V30 4700 H 446.06 0.529005 -2.05707 0
M  V30 4701 H 448.323 0.296148 -0.900556 0
M  V30 4702 H 448.029 1.64497 -3.10859 0
M  V30 4703 H 447.903 3.10444 -2.14253 0
M  V30 4704 H 450.29 2.67357 -1.24916 0
M  V30 4705 H 450.371 1.21673 -2.2501 0
M  V30 4706 H 450.015 2.65347 -4.33074 0
M  V30 4707 H 449.945 4.10433 -3.29928 0
M  V30 4708 H 452.436 2.67566 -2.66865 0
M  V30 4709 H 452.749 5.01219 -5.88217 0
M  V30 4710 H 451.094 4.51288 -5.28549 0
M  V30 4711 H 454.285 3.25427 -3.36474 0
M  V30 4712 H 454.458 4.31992 -4.82998 0
M  V30 4713 N 447.864 1.01787 1.20321 0
M  V30 4714 C 448.796 0.547357 2.22568 0
M  V30 4715 C 449.809 -0.370922 1.58518 0
M  V30 4716 O 450.998 -0.169067 1.77698 0
M  V30 4717 C 448.098 -0.223031 3.38165 0
M  V30 4718 C 447.271 0.697472 4.31803 0
M  V30 4719 C 446.33 -0.025562 5.26194 0
M  V30 4720 O 445.356 0.597367 5.66057 0
M  V30 4721 N 446.558 -1.29999 5.65757 0
M  V30 4722 H 449.323 1.42668 2.63564 0
M  V30 4723 H 446.884 0.895552 1.34876 0
M  V30 4724 H 448.876 -0.716002 3.98316 0
M  V30 4725 H 447.446 -1.00366 2.9605 0
M  V30 4726 H 446.666 1.37073 3.69601 0
M  V30 4727 H 447.954 1.32347 4.91286 0
M  V30 4728 H 447.352 -1.827 5.35385 0
M  V30 4729 H 445.909 -1.73766 6.28211 0
M  V30 4730 N 449.342 -1.36122 0.79427 0
M  V30 4731 C 450.758 -1.5232 0.476525 0
M  V30 4732 C 450.958 -1.74685 -1.00436 0
M  V30 4733 O 450.014 -1.78115 -1.78973 0
M  V30 4734 C 451.327 -2.70607 1.31119 0
M  V30 4735 C 452.875 -2.8448 1.30537 0
M  V30 4736 C 453.35 -4.05778 2.12387 0
M  V30 4737 N 454.841 -4.12933 2.09859 0
M  V30 4738 C 455.576 -5.05876 2.69957 0
M  V30 4739 N 455.072 -6.04232 3.38934 0
M  V30 4740 N 456.865 -4.98528 2.59665 0
M  V30 4741 H 449.016 -1.1986 1.75349 0
M  V30 4742 H 451.279 -0.585418 0.745647 0
M  V30 4743 H 450.985 -2.60619 2.36158 0
M  V30 4744 H 450.859 -3.64888 0.955843 0
M  V30 4745 H 453.246 -2.93927 0.262876 0
M  V30 4746 H 453.327 -1.91093 1.70051 0
M  V30 4747 H 452.971 -3.97092 3.1667 0
M  V30 4748 H 452.901 -4.98323 1.70242 0
M  V30 4749 H 455.392 -3.42515 1.59662 0
M  V30 4750 H 455.705 -6.71724 3.82109 0
M  V30 4751 H 454.05 -6.04443 3.43036 0
M  V30 4752 H 457.241 -4.20641 2.05375 0
M  V30 4753 H 457.414 -5.70773 3.06793 0
M  V30 4754 N 450.82 -0.546701 -1.47814 0
M  V30 4755 C 452.067 -0.0187407 -2.02491 0
M  V30 4756 C 452.395 1.32685 -1.42215 0
M  V30 4757 O 451.65 1.87413 -0.563454 0
M  V30 4758 C 451.949 0.134869 -3.57145 0
M  V30 4759 C 451.615 -1.13849 -4.3629 0
M  V30 4760 C 450.277 -1.48743 -4.57634 0
M  V30 4761 C 452.629 -1.98277 -4.82012 0
M  V30 4762 C 449.957 -2.67932 -5.21948 0
M  V30 4763 C 452.309 -3.16659 -5.4764 0
M  V30 4764 C 450.973 -3.51879 -5.67219 0
M  V30 4765 H 450.243 -0.0068577 -0.740968 0
M  V30 4766 H 452.89 -0.716097 -1.77607 0
M  V30 4767 H 451.195 0.915118 -3.80963 0
M  V30 4768 H 452.892 0.558556 -3.97091 0
M  V30 4769 H 449.482 -0.856767 -4.19949 0
M  V30 4770 H 453.666 -1.72628 -4.6531 0
M  V30 4771 H 448.922 -2.95401 -5.35302 0
M  V30 4772 H 453.096 -3.82374 -5.82033 0
M  V30 4773 H 450.723 -4.44331 -6.16825 0
M  V30 4774 N 452.299 1.55045 -0.282633 0
M  V30 4775 C 453.548 1.98938 0.332667 0
M  V30 4776 C 453.861 1.17455 1.56409 0
M  V30 4777 O 455.067 1.51527 2.25282 0
M  V30 4778 C 453.523 3.54105 0.643226 0
M  V30 4779 C 453.131 4.44374 -0.568814 0
M  V30 4780 C 454.875 4.06569 1.22074 0
M  V30 4781 C 452.782 5.90943 -0.232426 0
M  V30 4782 H 451.712 0.743043 0.128075 0
M  V30 4783 H 454.363 1.79341 -0.388464 0
M  V30 4784 H 452.745 3.69532 1.42346 0
M  V30 4785 H 453.919 4.40718 -1.34551 0
M  V30 4786 H 452.234 4.02585 -1.06369 0
M  V30 4787 H 454.831 5.13626 1.48635 0
M  V30 4788 H 455.174 3.56057 2.15707 0
M  V30 4789 H 455.707 3.94612 0.502621 0
M  V30 4790 H 452.446 6.45567 -1.13683 0
M  V30 4791 H 451.966 5.9765 0.507357 0
M  V30 4792 H 453.645 6.4677 0.172657 0
M  V30 4793 N 453.777 0.010035 1.57597 0
M  V30 4794 C 455.054 -0.710296 1.82248 0
M  V30 4795 C 455.434 -1.91426 0.889911 0
M  V30 4796 O 454.782 -2.28424 -0.0590292 0
M  V30 4797 C 454.992 -1.10655 3.30993 0
M  V30 4798 C 456.34 -1.50621 3.96987 0
M  V30 4799 O 457.364 -1.20007 3.35375 0
M  V30 4800 O 456.223 -2.07587 5.05539 0
M  V30 4801 H 453.317 -0.34673 0.750804 0
M  V30 4802 H 455.863 0.0362578 1.69661 0
M  V30 4803 H 454.635 -0.248826 3.90508 0
M  V30 4804 H 454.258 -1.91189 3.48615 0
M  V30 4805 N 455.255 -1.55392 -0.262866 0
M  V30 4806 C 456.218 -1.88181 -1.30846 0
M  V30 4807 C 457.218 -0.757079 -1.41862 0
M  V30 4808 O 458.408 -1.02519 -1.40838 0
M  V30 4809 C 455.54 -2.09609 -2.68844 0
M  V30 4810 H 456.733 -2.81659 -1.02997 0
M  V30 4811 H 454.286 -1.48039 -0.501414 0
M  V30 4812 H 455.021 -1.18547 -3.01856 0
M  V30 4813 H 454.806 -2.91508 -2.62231 0
M  V30 4814 H 456.296 -2.36215 -3.44372 0
M  V30 4815 N 456.733 0.527833 -1.48498 0
M  V30 4816 C 457.696 1.61439 -1.62696 0
M  V30 4817 C 458.696 1.52824 -0.500136 0
M  V30 4818 O 459.886 1.56456 -0.765976 0
M  V30 4819 C 457.018 3.01063 -1.59918 0
M  V30 4820 H 458.211 1.50189 -2.59583 0
M  V30 4821 H 455.764 0.750055 -1.37127 0
M  V30 4822 H 456.499 3.17818 -0.645163 0
M  V30 4823 H 456.284 3.08725 -2.41726 0
M  V30 4824 H 457.774 3.80057 -1.73051 0
M  V30 4825 N 458.211 1.37122 0.776871 0
M  V30 4826 C 459.158 1.3247 1.88998 0
M  V30 4827 C 460.128 0.191143 1.64997 0
M  V30 4828 O 461.313 0.379683 1.86984 0
M  V30 4829 C 458.453 1.13241 3.25992 0
M  V30 4830 C 457.566 2.35782 3.61982 0
M  V30 4831 C 456.701 2.09465 4.88158 0
M  V30 4832 C 455.74 3.279 5.16864 0
M  V30 4833 N 454.877 3.01167 6.34226 0
M  V30 4834 H 459.717 2.27642 1.9231 0
M  V30 4835 H 457.254 1.13125 0.94027 0
M  V30 4836 H 459.212 1.00115 4.0501 0
M  V30 4837 H 457.842 0.217186 3.22069 0
M  V30 4838 H 456.894 2.59666 2.77989 0
M  V30 4839 H 458.206 3.24125 3.79137 0
M  V30 4840 H 457.36 1.93341 5.75069 0
M  V30 4841 H 456.099 1.18452 4.73097 0
M  V30 4842 H 455.104 3.44569 4.2843 0
M  V30 4843 H 456.329 4.19757 5.33836 0
M  V30 4844 H 454.275 2.12779 6.20533 0
M  V30 4845 H 454.192 3.83052 6.51772 0
M  V30 4846 H 455.46 2.88649 7.24087 0
M  V30 4847 N 459.689 -1.00246 1.21608 0
M  V30 4848 C 460.917 -1.77631 1.06089 0
M  V30 4849 C 461.332 -1.84746 -0.38916 0
M  V30 4850 O 460.689 -1.31068 -1.26994 0
M  V30 4851 C 460.74 -3.21415 1.65453 0
M  V30 4852 O 460.461 -3.14703 3.04785 0
M  V30 4853 C 461.962 -4.15289 1.55079 0
M  V30 4854 H 459.182 -0.558162 0.37242 0
M  V30 4855 H 461.726 -1.26093 1.60999 0
M  V30 4856 H 459.881 -3.70053 1.14629 0
M  V30 4857 H 460.295 -4.05056 3.33212 0
M  V30 4858 H 461.769 -5.13965 2.01355 0
M  V30 4859 H 462.246 -4.36279 0.505665 0
M  V30 4860 H 462.852 -3.72543 2.05163 0
M  V30 4861 N 461.167 -1.02423 -1.1978 0
M  V30 4862 C 462.395 -0.737456 -1.93311 0
M  V30 4863 C 462.81 0.703023 -1.75223 0
M  V30 4864 O 462.167 1.47761 -1.07112 0
M  V30 4865 C 462.218 -1.0733 -3.45199 0
M  V30 4866 O 461.939 -2.4572 -3.62702 0
M  V30 4867 C 463.44 -0.80866 -4.35862 0
M  V30 4868 H 460.66 -0.2702 -0.614193 0
M  V30 4869 H 463.204 -1.36747 -1.52054 0
M  V30 4870 H 461.359 -0.488545 -3.84307 0
M  V30 4871 H 461.773 -2.58081 -4.56612 0
M  V30 4872 H 463.247 -1.09365 -5.41057 0
M  V30 4873 H 463.724 0.257025 -4.38447 0
M  V30 4874 H 464.33 -1.37592 -4.02428 0
M  V30 4875 N 462.645 1.35699 -0.801477 0
M  V30 4876 C 463.891 1.99208 -0.380022 0
M  V30 4877 C 464.224 1.63445 1.04878 0
M  V30 4878 O 463.499 0.895223 1.72673 0
M  V30 4879 C 463.782 3.55755 -0.557708 0
M  V30 4880 C 463.635 4.01332 -2.03107 0
M  V30 4881 C 464.954 4.40096 0.0197968 0
M  V30 4882 H 462.073 0.723667 -0.139552 0
M  V30 4883 H 464.715 1.60928 -1.01006 0
M  V30 4884 H 462.865 3.88494 -0.0213741 0
M  V30 4885 H 464.537 3.79026 -2.62939 0
M  V30 4886 H 462.78 3.52429 -2.52936 0
M  V30 4887 H 463.451 5.10234 -2.1063 0
M  V30 4888 H 465.927 4.13786 -0.438179 0
M  V30 4889 H 464.803 5.48735 -0.134477 0
M  V30 4890 H 465.064 4.2786 1.11303 0
M  V30 4891 N 464.123 0.554532 1.47522 0
M  V30 4892 C 465.351 0.034257 2.06872 0
M  V30 4893 C 465.766 -1.25826 1.40759 0
M  V30 4894 O 465.123 -1.75425 0.503217 0
M  V30 4895 C 465.174 -0.167827 3.6111 0
M  V30 4896 O 464.895 1.07351 4.24744 0
M  V30 4897 C 466.396 -0.72569 4.3732 0
M  V30 4898 H 463.616 0.0446275 0.669514 0
M  V30 4899 H 466.16 0.767181 1.89564 0
M  V30 4900 H 464.315 -0.850872 3.7794 0
M  V30 4901 H 464.729 0.869563 5.17242 0
M  V30 4902 H 466.203 -0.816394 5.45929 0
M  V30 4903 H 466.68 -1.73635 4.0342 0
M  V30 4904 H 467.286 -0.0784292 4.25228 0
M  V30 4905 N 465.601 -1.54893 0.290851 0
M  V30 4906 C 466.564 -2.21824 -0.576784 0
M  V30 4907 C 467.564 -1.20104 -1.06919 0
M  V30 4908 O 468.754 -1.44906 -0.966843 0
M  V30 4909 C 465.886 -2.89662 -1.79747 0
M  V30 4910 H 467.079 -2.99899 0.00784051 0
M  V30 4911 H 464.632 -1.56245 0.0415934 0
M  V30 4912 H 465.367 -2.15639 -2.42219 0
M  V30 4913 H 465.152 -3.64219 -1.45214 0
M  V30 4914 H 466.642 -3.4075 -2.4141 0
M  V30 4915 N 467.08 -0.0183926 -1.57589 0
M  V30 4916 C 468.01 0.965596 -2.12599 0
M  V30 4917 C 468.991 1.34641 -1.0395 0
M  V30 4918 O 470.176 1.42693 -1.31729 0
M  V30 4919 C 467.306 2.25149 -2.64434 0
M  V30 4920 C 466.26 2.01175 -3.77773 0
M  V30 4921 C 465.586 3.35937 -4.15994 0
M  V30 4922 C 466.886 1.35953 -5.04296 0
M  V30 4923 H 468.58 0.507504 -2.95067 0
M  V30 4924 H 466.126 0.242671 -1.41941 0
M  V30 4925 H 468.079 2.94357 -3.01549 0
M  V30 4926 H 466.803 2.73105 -1.79112 0
M  V30 4927 H 465.462 1.34388 -3.4108 0
M  V30 4928 H 465.11 3.81631 -3.27669 0
M  V30 4929 H 464.81 3.20705 -4.92364 0
M  V30 4930 H 466.334 4.0643 -4.55683 0
M  V30 4931 H 467.748 1.95144 -5.39065 0
M  V30 4932 H 466.145 1.31152 -5.85593 0
M  V30 4933 H 467.215 0.331071 -4.83768 0
M  V30 4934 N 468.558 1.5553 0.254621 0
M  V30 4935 C 469.974 1.4778 0.602753 0
M  V30 4936 C 470.174 0.707047 1.88688 0
M  V30 4937 O 469.23 0.233288 2.5142 0
M  V30 4938 C 470.543 2.92133 0.712648 0
M  V30 4939 C 472.091 3.02458 0.805488 0
M  V30 4940 C 472.566 4.48102 0.947009 0
M  V30 4941 N 474.057 4.52008 1.01207 0
M  V30 4942 C 474.792 5.61939 1.1407 0
M  V30 4943 N 474.288 6.81697 1.23536 0
M  V30 4944 N 476.081 5.49719 1.17325 0
M  V30 4945 H 468.232 2.04085 -0.588463 0
M  V30 4946 H 470.495 0.926229 -0.202001 0
M  V30 4947 H 470.201 3.51332 -0.160766 0
M  V30 4948 H 470.075 3.42187 1.58707 0
M  V30 4949 H 472.462 2.43344 1.66936 0
M  V30 4950 H 472.543 2.55627 -0.0939266 0
M  V30 4951 H 472.187 5.07824 0.087725 0
M  V30 4952 H 472.117 4.92607 1.86135 0
M  V30 4953 H 474.608 3.65749 0.950577 0
M  V30 4954 H 474.921 7.61228 1.33236 0
M  V30 4955 H 473.266 6.84473 1.20508 0
M  V30 4956 H 476.457 4.55095 1.09573 0
M  V30 4957 H 476.63 6.35432 1.27005 0
M  V30 4958 N 470.036 -0.519951 1.48776 0
M  V30 4959 C 471.313 -1.28123 1.47797 0
M  V30 4960 C 471.693 -2.10196 0.195157 0
M  V30 4961 O 471.041 -2.13167 -0.822925 0
M  V30 4962 C 471.251 -2.15413 2.74587 0
M  V30 4963 C 472.599 -2.75225 3.23321 0
M  V30 4964 O 473.623 -2.25694 2.75574 0
M  V30 4965 O 472.482 -3.65346 4.06429 0
M  V30 4966 H 469.576 -0.578793 0.590701 0
M  V30 4967 H 472.122 -0.535779 1.6102 0
M  V30 4968 H 470.894 -1.54617 3.59457 0
M  V30 4969 H 470.517 -2.97186 2.64132 0
M  V30 4970 N 471.514 -1.37532 -0.769588 0
M  V30 4971 C 472.762 -1.32597 -1.5252 0
M  V30 4972 C 473.083 0.0884294 -1.94799 0
M  V30 4973 O 472.353 1.03289 -1.66458 0
M  V30 4974 H 470.933 -0.487846 -0.565699 0
M  V30 4975 H 473.595 -1.72044 -0.915806 0
M  V30 4976 H 472.691 -1.96643 -2.42359 0
M  V30 4977 N 472.992 0.995999 -1.22138 0
M  V30 4978 C 474.222 1.76809 -1.06874 0
M  V30 4979 C 474.63 1.85265 0.383866 0
M  V30 4980 O 473.973 1.31969 1.27789 0
M  V30 4981 C 474.035 3.2186 -1.60144 0
M  V30 4982 C 473.699 3.36958 -3.0872 0
M  V30 4983 C 474.696 3.2452 -4.0618 0
M  V30 4984 C 472.381 3.62109 -3.48112 0
M  V30 4985 C 474.375 3.37013 -5.41019 0
M  V30 4986 C 472.062 3.74243 -4.831 0
M  V30 4987 C 473.06 3.61702 -5.79362 0
M  V30 4988 O 472.748 3.73436 -7.119 0
M  V30 4989 H 472.48 0.562207 -0.375365 0
M  V30 4990 H 475.034 1.26113 -1.62125 0
M  V30 4991 H 473.264 3.73734 -0.992981 0
M  V30 4992 H 474.953 3.80775 -1.40589 0
M  V30 4993 H 475.719 3.05004 -3.77091 0
M  V30 4994 H 471.598 3.70949 -2.73712 0
M  V30 4995 H 475.142 3.27141 -6.16137 0
M  V30 4996 H 471.039 3.93266 -5.11872 0
M  V30 4997 H 471.807 3.90328 -7.19435 0
M  V30 4998 N 474.47 1.03057 1.19235 0
M  V30 4999 C 475.433 0.617418 2.20727 0
M  V30 5000 C 476.433 -0.319856 1.57587 0
M  V30 5001 O 477.623 -0.106633 1.73873 0
M  V30 5002 C 474.755 -0.096296 3.40764 0
M  V30 5003 H 475.948 1.51544 2.58794 0
M  V30 5004 H 473.501 0.821949 1.32942 0
M  V30 5005 H 474.236 -1.00859 3.08217 0
M  V30 5006 H 474.021 0.577217 3.87828 0
M  V30 5007 H 475.511 -0.372219 4.15938 0
M  V30 5008 N 475.948 -1.35272 0.808662 0
M  V30 5009 C 476.858 -2.33546 0.222079 0
M  V30 5010 C 477.874 -1.6196 -0.636011 0
M  V30 5011 O 479.05 -1.93822 -0.547274 0
M  V30 5012 C 476.115 -3.41148 -0.61795 0
M  V30 5013 C 475.176 -4.28507 0.260875 0
M  V30 5014 C 474.409 -5.3097 -0.539156 0
M  V30 5015 O 474.632 -5.42123 -1.77367 0
M  V30 5016 O 473.566 -6.01858 0.0710526 0
M  V30 5017 H 477.392 -2.85515 1.03512 0
M  V30 5018 H 474.977 -1.38079 0.570495 0
M  V30 5019 H 476.859 -4.06889 -1.09634 0
M  V30 5020 H 475.534 -2.91447 -1.40855 0
M  V30 5021 H 474.441 -3.6574 0.786451 0
M  V30 5022 H 475.774 -4.81611 1.01547 0
M  V30 5023 N 477.426 -0.562348 -1.47226 0
M  V30 5024 C 478.842 -0.222492 -1.58042 0
M  V30 5025 C 479.042 1.27505 -1.56028 0
M  V30 5026 O 478.098 2.05555 -1.46641 0
M  V30 5027 C 479.411 -0.853694 -2.88327 0
M  V30 5028 C 480.959 -0.825397 -3.01921 0
M  V30 5029 C 481.434 -1.43576 -4.34914 0
M  V30 5030 N 482.925 -1.39918 -4.41562 0
M  V30 5031 C 483.66 -1.84103 -5.43041 0
M  V30 5032 N 483.156 -2.36167 -6.51304 0
M  V30 5033 N 484.949 -1.75142 -5.34118 0
M  V30 5034 H 477.1 -1.53525 -1.46778 0
M  V30 5035 H 479.363 -0.640527 -0.698877 0
M  V30 5036 H 479.069 -1.90635 -2.95552 0
M  V30 5037 H 478.943 -0.34977 -3.75575 0
M  V30 5038 H 481.33 0.218583 -2.94289 0
M  V30 5039 H 481.411 -1.36713 -2.16202 0
M  V30 5040 H 481.055 -2.47884 -4.43301 0
M  V30 5041 H 480.985 -0.869427 -5.19373 0
M  V30 5042 H 483.476 -1.0184 -3.63919 0
M  V30 5043 H 483.789 -2.67793 -7.24919 0
M  V30 5044 H 482.134 -2.40181 -6.52179 0
M  V30 5045 H 485.325 -1.34241 -4.48439 0
M  V30 5046 H 485.498 -2.09895 -6.13065 0
M  V30 5047 N 478.904 1.54736 -0.299062 0
M  V30 5048 C 480.181 1.92187 0.363802 0
M  V30 5049 C 480.561 1.22607 1.71845 0
M  V30 5050 O 479.909 0.361141 2.25628 0
M  V30 5051 C 480.119 3.45678 0.480377 0
M  V30 5052 C 481.467 4.17885 0.752147 0
M  V30 5053 O 482.491 3.51702 0.564264 0
M  V30 5054 O 481.35 5.35048 1.11294 0
M  V30 5055 H 478.444 0.801681 0.203066 0
M  V30 5056 H 480.99 1.66115 -0.346978 0
M  V30 5057 H 479.762 3.88443 -0.471999 0
M  V30 5058 H 479.385 3.77779 1.2397 0
M  V30 5059 N 480.382 0.0267497 1.57577 0
M  V30 5060 C 481.659 -0.690926 1.82991 0
M  V30 5061 C 482.039 -1.90471 0.910164 0
M  V30 5062 O 481.387 -2.28474 -0.0347985 0
M  V30 5063 C 481.597 -1.07139 3.32148 0
M  V30 5064 C 482.945 -1.46402 3.98562 0
M  V30 5065 O 483.969 -1.16443 3.36629 0
M  V30 5066 O 482.828 -2.02214 5.07712 0
M  V30 5067 H 479.922 -0.338747 0.75444 0
M  V30 5068 H 482.468 0.0542506 1.69613 0
M  V30 5069 H 481.24 -0.207394 3.9075 0
M  V30 5070 H 480.863 -1.87481 3.50623 0
M  V30 5071 N 481.861 -1.55662 -0.24637 0
M  V30 5072 C 483.109 -1.77168 -0.972411 0
M  V30 5073 C 483.43 -0.590827 -1.85834 0
M  V30 5074 O 482.7 0.393365 -1.9191 0
M  V30 5075 H 481.28 -0.653405 -0.362038 0
M  V30 5076 H 483.942 -1.93101 -0.264189 0
M  V30 5077 H 483.038 -2.68335 -1.59382 0
M  V30 5078 N 483.339 0.512053 -1.4905 0
M  V30 5079 C 484.249 1.64139 -1.67617 0
M  V30 5080 C 485.265 1.64786 -0.558701 0
M  V30 5081 O 486.441 1.8341 -0.832034 0
M  V30 5082 C 483.506 3.00548 -1.72835 0
M  V30 5083 C 482.567 3.10615 -2.96339 0
M  V30 5084 C 481.8 4.40517 -3.01298 0
M  V30 5085 O 482.023 5.28671 -2.14157 0
M  V30 5086 O 480.957 4.55325 -3.93653 0
M  V30 5087 H 484.783 1.51407 -2.63267 0
M  V30 5088 H 482.368 0.687131 -1.32661 0
M  V30 5089 H 484.25 3.81641 -1.78683 0
M  V30 5090 H 482.925 3.13566 -0.803616 0
M  V30 5091 H 481.832 2.2875 -2.96014 0
M  V30 5092 H 483.165 3.0252 -3.88256 0
M  V30 5093 N 484.817 1.37938 0.762283 0
M  V30 5094 C 485.78 1.34279 1.85747 0
M  V30 5095 C 486.78 0.244969 1.58923 0
M  V30 5096 O 487.97 0.501365 1.66829 0
M  V30 5097 C 485.102 1.08833 3.23061 0
M  V30 5098 H 486.295 2.31705 1.90401 0
M  V30 5099 H 483.848 1.23105 0.963057 0
M  V30 5100 H 484.583 0.119767 3.24079 0
M  V30 5101 H 484.368 1.88306 3.43923 0
M  V30 5102 H 485.858 1.08946 4.03138 0
M  V30 5103 N 486.295 -0.989507 1.22664 0
M  V30 5104 C 487.205 -2.11449 1.01619 0
M  V30 5105 C 488.221 -1.73962 -0.036545 0
M  V30 5106 O 489.397 -2.00788 0.156924 0
M  V30 5107 C 486.462 -3.41465 0.600204 0
M  V30 5108 C 485.523 -3.93033 1.72695 0
M  V30 5109 C 484.756 -5.16844 1.33071 0
M  V30 5110 O 484.979 -5.7001 0.210975 0
M  V30 5111 O 483.913 -5.6225 2.14845 0
M  V30 5112 H 487.739 -2.32088 1.9588 0
M  V30 5113 H 485.324 -1.09823 1.01289 0
M  V30 5114 H 487.206 -4.19695 0.37873 0
M  V30 5115 H 485.881 -3.22178 -0.313511 0
M  V30 5116 H 484.788 -3.15961 2.00298 0
M  V30 5117 H 486.121 -4.16758 2.61865 0
M  V30 5118 N 487.773 -1.03688 -1.18687 0
M  V30 5119 C 489.021 -0.736572 -1.88199 0
M  V30 5120 C 489.342 0.737665 -1.80509 0
M  V30 5121 O 488.612 1.53204 -1.22088 0
M  V30 5122 H 487.192 -0.269466 -0.696704 0
M  V30 5123 H 489.854 -1.31282 -1.44052 0
M  V30 5124 H 488.95 -1.03802 -2.94332 0
M  V30 5125 N 489.251 1.34841 -0.815825 0
M  V30 5126 C 490.498 1.98499 -0.400535 0
M  V30 5127 C 490.826 1.64699 1.03463 0
M  V30 5128 O 490.081 0.907006 1.73412 0
M  V30 5129 C 490.38 3.53273 -0.541541 0
M  V30 5130 C 490.046 4.06966 -1.94138 0
M  V30 5131 C 488.708 4.21341 -2.32433 0
M  V30 5132 C 491.06 4.35933 -2.85677 0
M  V30 5133 C 488.388 4.62007 -3.61617 0
M  V30 5134 C 490.74 4.78042 -4.14317 0
M  V30 5135 C 489.404 4.90622 -4.52599 0
M  V30 5136 H 488.674 0.72636 -0.146566 0
M  V30 5137 H 491.321 1.60902 -1.0384 0
M  V30 5138 H 489.626 3.91387 0.179741 0
M  V30 5139 H 491.323 4.00497 -0.20085 0
M  V30 5140 H 487.913 3.96235 -1.63388 0
M  V30 5141 H 492.097 4.24372 -2.57337 0
M  V30 5142 H 487.353 4.69937 -3.91113 0
M  V30 5143 H 491.527 4.99415 -4.85342 0
M  V30 5144 H 489.154 5.2189 -5.52752 0
M  V30 5145 N 490.729 0.570148 1.46925 0
M  V30 5146 C 491.978 0.0487352 2.01641 0
M  V30 5147 C 492.291 -1.31433 1.44861 0
M  V30 5148 O 493.497 -1.92638 1.91318 0
M  V30 5149 C 491.953 0.0365817 3.59881 0
M  V30 5150 C 491.561 1.39719 4.25655 0
M  V30 5151 C 493.305 -0.431545 4.22301 0
M  V30 5152 C 491.212 1.34345 5.75939 0
M  V30 5153 H 490.142 0.0144492 0.753862 0
M  V30 5154 H 492.793 0.719928 1.68788 0
M  V30 5155 H 491.175 -0.700522 3.89755 0
M  V30 5156 H 492.349 2.15303 4.07408 0
M  V30 5157 H 490.664 1.80431 3.75278 0
M  V30 5158 H 493.261 -0.490354 5.32447 0
M  V30 5159 H 493.604 -1.44638 3.90366 0
M  V30 5160 H 494.137 0.251102 3.97007 0
M  V30 5161 H 490.876 2.33469 6.12513 0
M  V30 5162 H 490.396 0.629615 5.96486 0
M  V30 5163 H 492.075 1.051 6.38407 0
M  V30 5164 N 492.207 -1.54576 0.307264 0
M  V30 5165 C 493.623 -1.59534 -0.0459251 0
M  V30 5166 C 493.823 -1.32414 -1.51884 0
M  V30 5167 O 492.879 -1.1006 -2.27251 0
M  V30 5168 C 494.192 -2.98566 0.357649 0
M  V30 5169 C 495.74 -3.11491 0.306937 0
M  V30 5170 C 496.215 -4.52842 0.685427 0
M  V30 5171 N 497.706 -4.58782 0.638203 0
M  V30 5172 C 498.441 -5.66238 0.903458 0
M  V30 5173 N 497.937 -6.81703 1.23501 0
M  V30 5174 N 499.73 -5.55937 0.830102 0
M  V30 5175 H 491.881 -1.70464 1.26712 0
M  V30 5176 H 494.144 -0.79647 0.514139 0
M  V30 5177 H 493.85 -3.23356 1.38325 0
M  V30 5178 H 493.724 -3.76117 -0.285565 0
M  V30 5179 H 496.111 -2.86446 -0.709424 0
M  V30 5180 H 496.192 -2.36081 0.984861 0
M  V30 5181 H 495.836 -4.78618 1.69963 0
M  V30 5182 H 495.766 -5.26598 -0.0146346 0
M  V30 5183 H 498.257 -3.75849 0.393138 0
M  V30 5184 H 498.57 -7.59582 1.42322 0
M  V30 5185 H 496.915 -6.8324 1.27311 0
M  V30 5186 H 500.106 -4.64608 0.570693 0
M  V30 5187 H 500.279 -6.39597 1.04019 0
M  V30 5188 N 493.685 -0.035106 -1.57561 0
M  V30 5189 C 495.101 0.321334 -1.56332 0
M  V30 5190 C 495.301 1.72509 -1.04129 0
M  V30 5191 O 494.357 2.4287 -0.690694 0
M  V30 5192 C 495.67 0.164469 -3.0025 0
M  V30 5193 C 497.218 0.236786 -3.12103 0
M  V30 5194 C 497.693 0.10864 -4.57871 0
M  V30 5195 N 499.184 0.165433 -4.62904 0
M  V30 5196 C 499.919 0.0901506 -5.73329 0
M  V30 5197 N 499.415 -0.0365606 -6.9279 0
M  V30 5198 N 501.208 0.144572 -5.61914 0
M  V30 5199 H 493.359 -0.952976 -1.89821 0
M  V30 5200 H 495.622 -0.368537 -0.873432 0
M  V30 5201 H 495.328 -0.802746 -3.42416 0
M  V30 5202 H 495.202 0.932194 -3.655 0
M  V30 5203 H 497.589 1.19446 -2.69845 0
M  V30 5204 H 497.67 -0.561419 -2.49563 0
M  V30 5205 H 497.314 -0.845644 -5.00811 0
M  V30 5206 H 497.244 0.925786 -5.18398 0
M  V30 5207 H 499.735 0.263269 -3.76982 0
M  V30 5208 H 500.048 -0.0871487 -7.72751 0
M  V30 5209 H 498.393 -0.0714256 -6.94963 0
M  V30 5210 H 501.584 0.242006 -4.67474 0
M  V30 5211 H 501.757 0.0824413 -6.47948 0
M  V30 5212 N 495.163 1.55791 0.238111 0
M  V30 5213 C 496.411 1.77681 0.963001 0
M  V30 5214 C 496.732 0.600674 1.85518 0
M  V30 5215 O 496.002 -0.383182 1.92116 0
M  V30 5216 H 494.582 0.655315 0.358568 0
M  V30 5217 H 497.244 1.93239 0.253945 0
M  V30 5218 H 496.34 2.69177 1.57956 0
M  V30 5219 N 496.642 -0.504142 1.49319 0
M  V30 5220 C 497.867 -1.28729 1.62615 0
M  V30 5221 C 498.292 -1.85752 0.296309 0
M  V30 5222 O 497.65 -1.65704 -0.735649 0
M  V30 5223 C 497.698 -2.39561 2.69524 0
M  V30 5224 O 496.802 -3.43324 2.28478 0
M  V30 5225 H 496.143 -0.380172 0.544395 0
M  V30 5226 H 498.673 -0.603872 1.95485 0
M  V30 5227 H 498.683 -2.8537 2.91595 0
M  V30 5228 H 497.358 -1.97423 3.66056 0
M  V30 5229 H 495.935 -3.03455 2.16725 0
M  V30 5230 N 498.12 -1.38341 -0.754957 0
M  V30 5231 C 499.35 -1.37504 -1.54195 0
M  V30 5232 C 499.758 0.0373787 -1.89163 0
M  V30 5233 O 499.101 1.01402 -1.53178 0
M  V30 5234 C 499.163 -2.16488 -2.87008 0
M  V30 5235 C 498.827 -3.65311 -2.74585 0
M  V30 5236 C 499.824 -4.58834 -2.44474 0
M  V30 5237 C 497.509 -4.08649 -2.9208 0
M  V30 5238 C 499.503 -5.93675 -2.32011 0
M  V30 5239 C 497.19 -5.43571 -2.79237 0
M  V30 5240 C 498.188 -6.35898 -2.49245 0
M  V30 5241 O 497.876 -7.68338 -2.36458 0
M  V30 5242 H 497.608 -0.472159 -0.483779 0
M  V30 5243 H 500.162 -1.82515 -0.94221 0
M  V30 5244 H 498.392 -1.66194 -3.49166 0
M  V30 5245 H 500.081 -2.08076 -3.4851 0
M  V30 5246 H 500.847 -4.26657 -2.30627 0
M  V30 5247 H 496.726 -3.37134 -3.14422 0
M  V30 5248 H 500.27 -6.65706 -2.08522 0
M  V30 5249 H 496.167 -5.75345 -2.92657 0
M  V30 5250 H 496.935 -7.78845 -2.5168 0
M  V30 5251 N 499.598 0.982988 -1.23187 0
M  V30 5252 C 500.548 2.05962 -0.977942 0
M  V30 5253 C 501.532 1.60725 0.0751148 0
M  V30 5254 O 502.724 1.76471 -0.136683 0
M  V30 5255 C 499.853 3.38564 -0.568276 0
M  V30 5256 C 498.939 3.90407 -1.6566 0
M  V30 5257 N 499.33 4.15359 -2.88635 0
M  V30 5258 C 497.628 4.18915 -1.53058 0
M  V30 5259 C 498.329 4.57642 -3.5908 0
M  V30 5260 N 497.305 4.6192 -2.86584 0
M  V30 5261 H 501.107 2.23208 -1.91195 0
M  V30 5262 H 498.621 1.16555 -1.13087 0
M  V30 5263 H 500.618 4.15276 -0.36764 0
M  V30 5264 H 499.278 3.22712 0.358713 0
M  V30 5265 H 500.289 4.03258 -3.24966 0
M  V30 5266 H 496.966 4.12081 -0.670506 0
M  V30 5267 H 498.356 4.85488 -4.6449 0
M  V30 5268 N 501.076 1.04316 1.18135 0
M  V30 5269 C 502.322 0.749128 1.88457 0
M  V30 5270 C 502.655 -0.72149 1.803 0
M  V30 5271 O 501.93 -1.52676 1.205 0
M  V30 5272 C 502.213 1.21905 3.38838 0
M  V30 5273 C 502.066 2.75195 3.55792 0
M  V30 5274 C 503.385 0.811085 4.32561 0
M  V30 5275 H 500.504 0.273611 0.684329 0
M  V30 5276 H 503.146 1.29561 1.38975 0
M  V30 5277 H 501.296 0.754137 3.8111 0
M  V30 5278 H 502.968 3.29743 3.22595 0
M  V30 5279 H 501.211 3.14899 2.98364 0
M  V30 5280 H 501.882 3.03135 4.61317 0
M  V30 5281 H 504.358 1.21118 3.98082 0
M  V30 5282 H 503.234 1.16761 5.36338 0
M  V30 5283 H 503.495 -0.285596 4.41177 0
M  V30 5284 N 502.554 -1.34406 0.822964 0
M  V30 5285 C 503.97 -1.51275 0.508727 0
M  V30 5286 C 504.17 -1.76776 -0.967083 0
M  V30 5287 O 503.226 -1.81871 -1.75155 0
M  V30 5288 C 504.539 -2.67765 1.36829 0
M  V30 5289 C 506.087 -2.81647 1.36542 0
M  V30 5290 C 506.562 -4.01181 2.20947 0
M  V30 5291 N 508.053 -4.08388 2.18571 0
M  V30 5292 C 508.788 -5.00036 2.80627 0
M  V30 5293 N 508.284 -5.96906 3.51674 0
M  V30 5294 N 510.077 -4.92908 2.70181 0
M  V30 5295 H 502.228 -1.16113 1.77852 0
M  V30 5296 H 504.491 -0.56947 0.757897 0
M  V30 5297 H 504.197 -2.55551 2.41633 0
M  V30 5298 H 504.071 -3.62779 1.03303 0
M  V30 5299 H 506.458 -2.93303 0.325163 0
M  V30 5300 H 506.539 -1.87443 1.74066 0
M  V30 5301 H 506.183 -3.90286 3.25022 0
M  V30 5302 H 506.113 -4.94599 1.80774 0
M  V30 5303 H 508.604 -3.39051 1.66891 0
M  V30 5304 H 508.917 -6.63468 3.96271 0
M  V30 5305 H 507.262 -5.9703 3.5578 0
M  V30 5306 H 510.453 -4.1619 2.14251 0
M  V30 5307 H 510.626 -5.64137 3.18831 0
M  V30 5308 N 504.032 -0.577932 -1.46621 0
M  V30 5309 C 505.28 -0.061566 -2.02006 0
M  V30 5310 C 505.601 1.30117 -1.4524 0
M  V30 5311 O 504.871 1.85313 -0.63529 0
M  V30 5312 H 503.451 -0.0197692 -0.746738 0
M  V30 5313 H 506.113 -0.752631 -1.79782 0
M  V30 5314 H 505.209 0.0110238 -3.12098 0
M  V30 5315 N 505.51 1.54411 -0.315457 0
M  V30 5316 C 506.758 2.00023 0.288971 0
M  V30 5317 C 507.079 1.20529 1.5329 0
M  V30 5318 O 506.349 0.304986 1.93511 0
M  V30 5319 H 504.929 0.738891 0.109766 0
M  V30 5320 H 507.591 1.90094 -0.430129 0
M  V30 5321 H 506.687 3.07198 0.550999 0
M  V30 5322 N 506.988 0.0434614 1.5754 0
M  V30 5323 C 508.237 -0.631454 1.91561 0
M  V30 5324 C 508.55 -1.72457 0.92292 0
M  V30 5325 O 509.756 -2.45712 1.15489 0
M  V30 5326 C 508.212 -1.17447 3.40197 0
M  V30 5327 C 507.82 -0.113867 4.47855 0
M  V30 5328 C 509.564 -1.82507 3.83264 0
M  V30 5329 C 507.471 -0.669326 5.876 0
M  V30 5330 H 506.401 -0.239629 0.714908 0
M  V30 5331 H 509.052 0.111097 1.83163 0
M  V30 5332 H 507.434 -1.96909 3.43574 0
M  V30 5333 H 508.608 0.659348 4.56058 0
M  V30 5334 H 506.923 0.438821 4.14081 0
M  V30 5335 H 509.52 -2.25047 4.85034 0
M  V30 5336 H 509.863 -2.67365 3.19095 0
M  V30 5337 H 510.396 -1.09712 3.82372 0
M  V30 5338 H 507.135 0.141449 6.55347 0
M  V30 5339 H 506.655 -1.4107 5.82974 0
M  V30 5340 H 508.334 -1.15463 6.36614 0
M  V30 5341 N 508.466 -1.55915 -0.229846 0
M  V30 5342 C 509.691 -1.8296 -0.976743 0
M  V30 5343 C 510.116 -0.622735 -1.77493 0
M  V30 5344 O 509.474 0.428431 -1.76165 0
M  V30 5345 C 509.522 -3.07916 -1.8767 0
M  V30 5346 O 508.626 -2.86028 -2.97088 0
M  V30 5347 H 507.967 -0.603453 -0.277021 0
M  V30 5348 H 510.497 -2.0312 -0.245669 0
M  V30 5349 H 510.507 -3.37802 -2.2881 0
M  V30 5350 H 509.182 -3.95389 -1.28996 0
M  V30 5351 H 507.759 -2.67355 -2.59954 0
M  V30 5352 N 509.944 0.496216 -1.49584 0
M  V30 5353 C 511.355 1.07765 -1.52459 0
M  V30 5354 C 511.706 1.93679 -0.31353 0
M  V30 5355 O 510.831 2.08588 0.576186 0
M  V30 5356 C 511.426 1.96111 -2.76271 0
M  V30 5357 C 509.985 2.49409 -2.81908 0
M  V30 5358 C 509.132 1.27142 -2.46435 0
M  V30 5359 H 512.083 0.279914 -1.56212 0
M  V30 5360 H 512.104 2.80862 -2.56704 0
M  V30 5361 H 511.616 1.33555 -3.64396 0
M  V30 5362 H 509.717 3.1559 -1.98074 0
M  V30 5363 H 509.83 2.86234 -3.84196 0
M  V30 5364 H 508.194 1.59818 -1.98319 0
M  V30 5365 H 508.977 0.662866 -3.3684 0
M  V30 5366 N 511.423 1.38739 0.74761 0
M  V30 5367 C 512.7 1.25791 1.49786 0
M  V30 5368 C 513.08 -0.138075 2.10648 0
M  V30 5369 O 512.428 -1.14815 1.9756 0
M  V30 5370 C 512.638 2.37265 2.55942 0
M  V30 5371 C 513.986 2.75978 3.22679 0
M  V30 5372 O 515.01 2.36621 2.6625 0
M  V30 5373 O 513.869 3.43867 4.24756 0
M  V30 5374 H 510.963 0.492251 0.664543 0
M  V30 5375 H 513.509 1.50582 0.782511 0
M  V30 5376 H 512.281 3.30644 2.0926 0
M  V30 5377 H 511.904 2.14071 3.35051 0
M  V30 5378 N 512.901 -0.976442 1.23707 0
M  V30 5379 C 514.178 -1.69296 0.979699 0
M  V30 5380 C 514.558 -2.0508 -0.500555 0
M  V30 5381 O 513.906 -1.74708 -1.47273 0
M  V30 5382 C 514.116 -2.93143 1.89389 0
M  V30 5383 C 515.464 -3.65572 2.15968 0
M  V30 5384 O 516.488 -3.03184 1.86971 0
M  V30 5385 O 515.347 -4.77859 2.65167 0
M  V30 5386 H 512.441 -0.739708 0.369812 0
M  V30 5387 H 514.987 -1.03131 1.34767 0
M  V30 5388 H 513.759 -2.63327 2.89439 0
M  V30 5389 H 513.382 -3.67044 1.52854 0
M  V30 5390 N 514.379 -1.04941 -1.1758 0
M  V30 5391 C 515.609 -0.777166 -1.91425 0
M  V30 5392 C 516.017 0.670647 -1.76915 0
M  V30 5393 O 515.36 1.46965 -1.10213 0
M  V30 5394 C 515.422 -1.07495 -3.43052 0
M  V30 5395 C 515.086 -2.51844 -3.81345 0
M  V30 5396 C 516.083 -3.50047 -3.844 0
M  V30 5397 C 513.768 -2.86787 -4.12382 0
M  V30 5398 C 515.762 -4.81239 -4.17957 0
M  V30 5399 C 513.449 -4.18182 -4.45608 0
M  V30 5400 C 514.447 -5.15219 -4.48373 0
M  V30 5401 O 514.135 -6.44258 -4.80819 0
M  V30 5402 H 513.867 -0.282209 -0.614275 0
M  V30 5403 H 516.421 -1.40258 -1.50056 0
M  V30 5404 H 514.651 -0.392437 -3.84704 0
M  V30 5405 H 516.34 -0.78912 -3.98155 0
M  V30 5406 H 517.106 -3.24391 -3.60548 0
M  V30 5407 H 512.985 -2.11922 -4.09402 0
M  V30 5408 H 516.529 -5.56974 -4.2003 0
M  V30 5409 H 512.426 -4.43602 -4.68922 0
M  V30 5410 H 513.194 -6.49041 -4.98686 0
M  V30 5411 N 515.857 1.33968 -0.830081 0
M  V30 5412 C 517.085 2.0228 -0.434773 0
M  V30 5413 C 517.5 1.62487 0.961419 0
M  V30 5414 O 516.857 0.833849 1.62337 0
M  V30 5415 C 516.908 3.5751 -0.535625 0
M  V30 5416 O 516.629 3.95864 -1.87679 0
M  V30 5417 C 518.13 4.43091 -0.136137 0
M  V30 5418 H 515.35 0.648151 -0.173613 0
M  V30 5419 H 517.894 1.71089 -1.12022 0
M  V30 5420 H 516.049 3.87266 0.101817 0
M  V30 5421 H 516.463 4.9056 -1.85609 0
M  V30 5422 H 517.937 5.51398 -0.257772 0
M  V30 5423 H 518.414 4.29433 0.921076 0
M  V30 5424 H 519.02 4.18677 -0.747662 0
M  V30 5425 N 517.335 0.585699 1.46312 0
M  V30 5426 C 518.584 0.0701192 2.01578 0
M  V30 5427 C 518.897 -1.29889 1.46247 0
M  V30 5428 O 520.103 -1.90598 1.93351 0
M  V30 5429 C 518.559 0.0747499 3.59822 0
M  V30 5430 C 518.167 1.44226 4.24149 0
M  V30 5431 C 519.911 -0.38673 4.22735 0
M  V30 5432 C 517.818 1.40446 5.74481 0
M  V30 5433 H 516.748 0.0224441 0.753666 0
M  V30 5434 H 519.399 0.737789 1.68015 0
M  V30 5435 H 517.781 -0.659144 3.90476 0
M  V30 5436 H 518.955 2.19612 4.05101 0
M  V30 5437 H 517.27 1.84401 3.73343 0
M  V30 5438 H 519.867 -0.433853 5.32937 0
M  V30 5439 H 520.21 -1.40489 3.91878 0
M  V30 5440 H 520.743 0.293195 3.96718 0
M  V30 5441 H 517.482 2.39952 6.10003 0
M  V30 5442 H 517.002 0.692845 5.95785 0
M  V30 5443 H 518.681 1.11865 6.37256 0
M  V30 5444 N 518.813 -1.54241 0.323641 0
M  V30 5445 C 520.059 -2.01572 -0.272089 0
M  V30 5446 C 520.414 -1.20774 -1.49771 0
M  V30 5447 O 519.707 -0.281821 -1.89516 0
M  V30 5448 C 519.901 -3.5129 -0.658031 0
M  V30 5449 C 519.73 -4.46582 0.528645 0
M  V30 5450 C 518.5 -4.94737 1.02777 0
M  V30 5451 C 520.698 -4.95416 1.38086 0
M  V30 5452 N 518.68 -5.73933 2.17885 0
M  V30 5453 C 520.051 -5.72537 2.3791 0
M  V30 5454 C 522.106 -4.77559 1.40861 0
M  V30 5455 C 520.809 -6.33702 3.40314 0
M  V30 5456 C 522.835 -5.39559 2.42136 0
M  V30 5457 C 522.197 -6.16532 3.40688 0
M  V30 5458 H 518.296 -0.779425 -0.0634072 0
M  V30 5459 H 520.88 -1.8922 0.458697 0
M  V30 5460 H 519.051 -3.63888 -1.35795 0
M  V30 5461 H 520.783 -3.85388 -1.23524 0
M  V30 5462 H 517.538 -4.69796 0.599046 0
M  V30 5463 H 517.962 -6.18209 2.75947 0
M  V30 5464 H 522.604 -4.17611 0.660352 0
M  V30 5465 H 520.322 -6.9277 4.16047 0
M  V30 5466 H 523.908 -5.27659 2.45086 0
M  V30 5467 H 522.788 -6.63655 4.1777 0
M  V30 5468 N 520.291 -0.0518155 -1.57515 0
M  V30 5469 C 521.539 0.620595 -1.92336 0
M  V30 5470 C 521.86 1.71345 -0.930907 0
M  V30 5471 O 521.13 1.95885 0.0241341 0
M  V30 5472 H 519.71 0.232226 -0.709986 0
M  V30 5473 H 522.372 -0.104969 -1.94617 0
M  V30 5474 H 521.468 1.05879 -2.93592 0
M  V30 5475 N 521.769 1.56035 0.221574 0
M  V30 5476 C 523.046 1.69837 0.970301 0
M  V30 5477 C 523.426 0.599065 2.02421 0
M  V30 5478 O 522.774 -0.393929 2.25079 0
M  V30 5479 C 522.984 3.11148 1.58076 0
M  V30 5480 C 524.332 3.70555 2.07302 0
M  V30 5481 O 525.356 3.14109 1.6797 0
M  V30 5482 O 524.215 4.69562 2.79596 0
M  V30 5483 H 521.309 0.691727 0.453257 0
M  V30 5484 H 523.855 1.68353 0.213358 0
M  V30 5485 H 522.627 3.82617 0.819759 0
M  V30 5486 H 522.25 3.16749 2.40324 0
M  V30 5487 N 523.247 -0.488276 1.49845 0
M  V30 5488 C 524.477 -1.26344 1.63465 0
M  V30 5489 C 524.885 -1.86637 0.310379 0
M  V30 5490 O 524.228 -1.69184 -0.715712 0
M  V30 5491 C 524.29 -2.42407 2.65479 0
M  V30 5492 C 523.954 -2.02886 4.09495 0
M  V30 5493 C 524.951 -1.56124 4.95904 0
M  V30 5494 C 522.636 -2.12131 4.55308 0
M  V30 5495 C 524.63 -1.19129 6.26169 0
M  V30 5496 C 522.317 -1.74747 5.85582 0
M  V30 5497 C 523.315 -1.28322 6.70837 0
M  V30 5498 O 523.003 -0.914491 7.98682 0
M  V30 5499 H 522.735 -0.388921 0.552916 0
M  V30 5500 H 525.289 -0.591288 1.96705 0
M  V30 5501 H 523.519 -3.12739 2.27445 0
M  V30 5502 H 525.208 -3.04409 2.68495 0
M  V30 5503 H 525.974 -1.48417 4.61733 0
M  V30 5504 H 521.853 -2.47217 3.89107 0
M  V30 5505 H 525.397 -0.828211 6.92666 0
M  V30 5506 H 521.294 -1.82109 6.19279 0
M  V30 5507 H 522.062 -1.04485 8.11804 0
M  V30 5508 N 524.725 -1.39134 -0.740242 0
M  V30 5509 C 525.955 -1.39132 -1.52728 0
M  V30 5510 C 526.363 0.0173133 -1.89192 0
M  V30 5511 O 525.706 0.997715 -1.54244 0
M  V30 5512 C 525.768 -2.1952 -2.84695 0
M  V30 5513 C 525.432 -3.68203 -2.70695 0
M  V30 5514 C 526.429 -4.61401 -2.39593 0
M  V30 5515 C 524.114 -4.11724 -2.8773 0
M  V30 5516 C 526.108 -5.96102 -2.25701 0
M  V30 5517 C 523.795 -5.46503 -2.73456 0
M  V30 5518 C 524.793 -6.38506 -2.42486 0
M  V30 5519 O 524.481 -7.70803 -2.28295 0
M  V30 5520 H 524.213 -0.477263 -0.478744 0
M  V30 5521 H 526.767 -1.83504 -0.922799 0
M  V30 5522 H 524.997 -1.69888 -3.47383 0
M  V30 5523 H 526.686 -2.1176 -3.46284 0
M  V30 5524 H 527.452 -4.29079 -2.26088 0
M  V30 5525 H 523.331 -3.4045 -3.10829 0
M  V30 5526 H 526.875 -6.6788 -2.0145 0
M  V30 5527 H 522.772 -5.78417 -2.86538 0
M  V30 5528 H 523.54 -7.8147 -2.43405 0
M  V30 5529 N 526.204 0.969867 -1.24223 0
M  V30 5530 C 527.434 1.74502 -1.106 0
M  V30 5531 C 527.842 1.86038 0.344483 0
M  V30 5532 O 527.185 1.3465 1.24961 0
M  V30 5533 C 527.247 3.18391 -1.66935 0
M  V30 5534 C 526.911 3.30334 -3.15798 0
M  V30 5535 C 527.908 3.15832 -4.12973 0
M  V30 5536 C 525.593 3.54644 -3.55715 0
M  V30 5537 C 527.587 3.25461 -5.48045 0
M  V30 5538 C 525.274 3.63912 -4.90929 0
M  V30 5539 C 526.272 3.49332 -5.86904 0
M  V30 5540 O 525.96 3.58251 -7.1966 0
M  V30 5541 H 525.692 0.554119 -0.387206 0
M  V30 5542 H 528.246 1.22646 -1.64764 0
M  V30 5543 H 526.476 3.71543 -1.07203 0
M  V30 5544 H 528.165 3.77707 -1.48634 0
M  V30 5545 H 528.931 2.96937 -3.83476 0
M  V30 5546 H 524.81 3.65059 -2.81519 0
M  V30 5547 H 528.354 3.13998 -6.22937 0
M  V30 5548 H 524.251 3.82319 -5.20098 0
M  V30 5549 H 525.019 3.7498 -7.27552 0
M  V30 5550 N 527.682 1.05563 1.17022 0
M  V30 5551 C 528.612 0.681026 2.23348 0
M  V30 5552 C 529.593 -0.322983 1.67005 0
M  V30 5553 O 530.778 -0.199746 1.9317 0
M  V30 5554 C 527.908 0.0589053 3.4725 0
M  V30 5555 C 526.862 0.988082 4.16438 0
M  V30 5556 C 526.188 0.229646 5.34207 0
M  V30 5557 C 527.488 2.31388 4.68249 0
M  V30 5558 H 529.182 1.56993 2.54938 0
M  V30 5559 H 526.728 0.756302 1.2254 0
M  V30 5560 H 528.681 -0.214982 4.20851 0
M  V30 5561 H 527.405 -0.864968 3.14938 0
M  V30 5562 H 526.064 1.24659 3.44754 0
M  V30 5563 H 525.712 -0.697111 4.98146 0
M  V30 5564 H 525.412 0.848815 5.81437 0
M  V30 5565 H 526.936 -0.0368694 6.10589 0
M  V30 5566 H 528.35 2.09964 5.33468 0
M  V30 5567 H 526.747 2.88736 5.26072 0
M  V30 5568 H 527.817 2.94982 3.84855 0
M  V30 5569 N 529.16 -1.33526 0.837174 0
M  V30 5570 C 530.07 -2.33023 0.271568 0
M  V30 5571 C 531.086 -1.63272 -0.601514 0
M  V30 5572 O 532.262 -1.94939 -0.506038 0
M  V30 5573 C 529.327 -3.42382 -0.545448 0
M  V30 5574 C 528.388 -4.27857 0.351709 0
M  V30 5575 C 527.621 -5.31994 -0.426409 0
M  V30 5576 O 527.844 -5.45763 -1.65828 0
M  V30 5577 O 526.778 -6.01572 0.1987 0
M  V30 5578 H 530.604 -2.83256 1.09545 0
M  V30 5579 H 528.189 -1.36837 0.599655 0
M  V30 5580 H 530.071 -4.09122 -1.00979 0
M  V30 5581 H 528.746 -2.94369 -1.34641 0
M  V30 5582 H 527.653 -3.6399 0.863853 0
M  V30 5583 H 528.986 -4.79349 1.1174 0
M  V30 5584 N 530.638 -0.59345 -1.46 0
M  V30 5585 C 531.601 0.123538 -2.28867 0
M  V30 5586 C 532.601 0.808628 -1.38989 0
M  V30 5587 O 533.791 0.658945 -1.61256 0
M  V30 5588 C 530.923 1.1847 -3.19653 0
M  V30 5589 H 532.116 -0.604843 -2.93737 0
M  V30 5590 H 529.669 -0.351875 -1.52288 0
M  V30 5591 H 530.404 1.94431 -2.59552 0
M  V30 5592 H 530.189 0.69783 -3.8584 0
M  V30 5593 H 531.679 1.68726 -3.81997 0
M  V30 5594 N 532.116 1.54067 -0.331816 0
M  V30 5595 C 533.046 2.27569 0.522932 0
M  V30 5596 C 534.027 1.28679 1.11247 0
M  V30 5597 O 535.212 1.57504 1.13605 0
M  V30 5598 C 532.342 3.0397 1.67987 0
M  V30 5599 C 531.296 4.10267 1.21924 0
M  V30 5600 C 530.622 4.74555 2.46377 0
M  V30 5601 C 531.922 5.21268 0.32815 0
M  V30 5602 H 533.616 2.99264 -0.0901977 0
M  V30 5603 H 531.162 1.4393 -0.044821 0
M  V30 5604 H 533.115 3.54123 2.28418 0
M  V30 5605 H 531.839 2.29906 2.31971 0
M  V30 5606 H 530.498 3.61009 0.637809 0
M  V30 5607 H 530.146 3.97098 3.08743 0
M  V30 5608 H 529.846 5.46363 2.16243 0
M  V30 5609 H 531.37 5.27487 3.07555 0
M  V30 5610 H 532.784 5.67128 0.838978 0
M  V30 5611 H 531.181 5.99982 0.119228 0
M  V30 5612 H 532.251 4.80673 -0.638839 0
M  V30 5613 N 533.594 0.0601682 1.57485 0
M  V30 5614 C 534.524 -0.90889 2.15085 0
M  V30 5615 C 535.505 -1.31838 1.07484 0
M  V30 5616 O 536.69 -1.3915 1.35466 0
M  V30 5617 C 533.82 -2.18059 2.7031 0
M  V30 5618 C 532.774 -1.91088 3.82974 0
M  V30 5619 C 532.1 -3.24789 4.24754 0
M  V30 5620 C 533.4 -1.22535 5.07723 0
M  V30 5621 H 535.094 -0.429093 2.96309 0
M  V30 5622 H 532.64 -0.204952 1.42534 0
M  V30 5623 H 534.593 -2.86258 3.09248 0
M  V30 5624 H 533.317 -2.6826 1.8629 0
M  V30 5625 H 531.976 -1.25297 3.44523 0
M  V30 5626 H 531.624 -3.72809 3.37672 0
M  V30 5627 H 531.324 -3.07538 5.00694 0
M  V30 5628 H 532.848 -3.94205 4.66299 0
M  V30 5629 H 534.262 -1.80783 5.4405 0
M  V30 5630 H 532.659 -1.1558 5.88864 0
M  V30 5631 H 533.729 -0.202692 4.84476 0
M  V30 5632 N 535.072 -1.5615 -0.213296 0
M  V30 5633 C 536.488 -1.49327 -0.56336 0
M  V30 5634 C 536.688 -0.756826 -1.86747 0
M  V30 5635 O 535.744 -0.299866 -2.50713 0
M  V30 5636 C 537.057 -2.9392 -0.634944 0
M  V30 5637 C 538.605 -3.04487 -0.725013 0
M  V30 5638 C 539.08 -4.50456 -0.82787 0
M  V30 5639 N 540.571 -4.54533 -0.891876 0
M  V30 5640 C 541.306 -5.64766 -0.991315 0
M  V30 5641 N 540.802 -6.84733 -1.05419 0
M  V30 5642 N 542.595 -5.52637 -1.02709 0
M  V30 5643 H 534.746 -2.02453 0.642366 0
M  V30 5644 H 537.009 -0.920548 0.226487 0
M  V30 5645 H 536.715 -3.50783 0.253859 0
M  V30 5646 H 536.589 -3.46274 -1.49579 0
M  V30 5647 H 538.976 -2.47685 -1.60425 0
M  V30 5648 H 539.057 -2.55289 0.161669 0
M  V30 5649 H 538.701 -5.07878 0.0469464 0
M  V30 5650 H 538.631 -4.97369 -1.73009 0
M  V30 5651 H 541.122 -3.68141 -0.85327 0
M  V30 5652 H 541.435 -7.64493 -1.13007 0
M  V30 5653 H 539.78 -6.87427 -1.02318 0
M  V30 5654 H 542.971 -4.5784 -0.974687 0
M  V30 5655 H 543.144 -6.38576 -1.10113 0
M  V30 5656 N 536.55 0.480323 -1.50102 0
M  V30 5657 C 537.48 1.58769 -1.71215 0
M  V30 5658 C 538.461 1.60583 -0.560997 0
M  V30 5659 O 539.646 1.76996 -0.799127 0
M  V30 5660 C 536.776 2.97148 -1.79778 0
M  V30 5661 C 535.73 3.10201 -2.94888 0
M  V30 5662 C 535.056 4.50137 -2.88584 0
M  V30 5663 C 536.356 2.88283 -4.35534 0
M  V30 5664 H 538.05 1.41354 -2.6393 0
M  V30 5665 H 535.596 0.678591 -1.27008 0
M  V30 5666 H 537.549 3.74536 -1.93133 0
M  V30 5667 H 536.273 3.15699 -0.836772 0
M  V30 5668 H 534.932 2.35244 -2.81169 0
M  V30 5669 H 534.58 4.65593 -1.90349 0
M  V30 5670 H 534.28 4.59808 -3.65856 0
M  V30 5671 H 535.804 5.29558 -3.03976 0
M  V30 5672 H 537.218 3.55427 -4.49827 0
M  V30 5673 H 535.615 3.09408 -5.14186 0
M  V30 5674 H 536.685 1.84219 -4.48544 0
M  V30 5675 N 538.028 1.39524 0.732853 0
M  V30 5676 C 538.938 1.40695 1.87729 0
M  V30 5677 C 539.954 0.301496 1.71368 0
M  V30 5678 O 541.13 0.543313 1.93933 0
M  V30 5679 C 538.195 1.25098 3.23344 0
M  V30 5680 C 537.256 2.45634 3.52083 0
M  V30 5681 C 536.489 2.30772 4.81228 0
M  V30 5682 O 536.712 1.31233 5.55098 0
M  V30 5683 O 535.646 3.19799 5.09914 0
M  V30 5684 H 539.472 2.37168 1.89697 0
M  V30 5685 H 537.057 1.20663 0.880959 0
M  V30 5686 H 538.939 1.18541 4.04383 0
M  V30 5687 H 537.614 0.317209 3.22142 0
M  V30 5688 H 536.521 2.57767 2.71122 0
M  V30 5689 H 537.854 3.37712 3.58066 0
M  V30 5690 N 539.506 -0.963266 1.24736 0
M  V30 5691 C 540.922 -1.23273 1.01371 0
M  V30 5692 C 541.122 -1.99618 -0.274776 0
M  V30 5693 O 540.178 -2.32293 -0.989769 0
M  V30 5694 C 541.491 -2.01554 2.23152 0
M  V30 5695 C 543.039 -2.14629 2.27823 0
M  V30 5696 C 543.514 -2.96307 3.49237 0
M  V30 5697 N 545.005 -3.03887 3.49581 0
M  V30 5698 C 545.74 -3.67456 4.40186 0
M  V30 5699 N 545.236 -4.32706 5.41052 0
M  V30 5700 N 547.029 -3.64511 4.27888 0
M  V30 5701 H 539.18 -0.452294 2.07528 0
M  V30 5702 H 541.443 -0.262521 0.910926 0
M  V30 5703 H 541.149 -1.52847 3.1675 0
M  V30 5704 H 541.023 -3.02278 2.25628 0
M  V30 5705 H 543.41 -2.62537 1.34753 0
M  V30 5706 H 543.491 -1.13238 2.2937 0
M  V30 5707 H 543.135 -2.49091 4.42624 0
M  V30 5708 H 543.065 -3.97905 3.44933 0
M  V30 5709 H 545.556 -2.57477 2.76611 0
M  V30 5710 H 545.869 -4.79042 6.06415 0
M  V30 5711 H 544.214 -4.31361 5.44934 0
M  V30 5712 H 547.405 -3.12715 3.4832 0
M  V30 5713 H 547.578 -4.13768 4.98698 0
M  V30 5714 N 540.985 -1.06182 -1.16461 0
M  V30 5715 C 542.233 -0.776326 -1.86595 0
M  V30 5716 C 542.554 0.69921 -1.82033 0
M  V30 5717 O 541.824 1.50579 -1.2531 0
M  V30 5718 H 540.404 -0.284184 -0.690832 0
M  V30 5719 H 543.066 -1.34308 -1.41235 0
M  V30 5720 H 542.162 -1.10022 -2.92064 0
M  V30 5721 N 542.463 1.3308 -0.844243 0
M  V30 5722 C 543.709 1.97898 -0.443206 0
M  V30 5723 C 544.042 1.66699 0.99625 0
M  V30 5724 O 543.317 0.949704 1.69738 0
M  V30 5725 C 543.6 3.53801 -0.670606 0
M  V30 5726 C 543.453 3.94667 -2.15772 0
M  V30 5727 C 544.772 4.39936 -0.120226 0
M  V30 5728 H 541.891 0.718861 -0.162504 0
M  V30 5729 H 544.533 1.57633 -1.06075 0
M  V30 5730 H 542.683 3.88229 -0.14496 0
M  V30 5731 H 544.355 3.70469 -2.74865 0
M  V30 5732 H 542.598 3.44203 -2.6402 0
M  V30 5733 H 543.269 5.03275 -2.26757 0
M  V30 5734 H 545.745 4.12183 -0.5696 0
M  V30 5735 H 544.621 5.4803 -0.308984 0
M  V30 5736 H 544.882 4.31184 0.976347 0
M  V30 5737 N 543.941 0.601185 1.45683 0
M  V30 5738 C 545.169 0.100054 2.06658 0
M  V30 5739 C 545.584 -1.21285 1.44691 0
M  V30 5740 O 544.941 -1.73735 0.558772 0
M  V30 5741 C 544.992 -0.0528579 3.61461 0
M  V30 5742 O 544.713 1.20809 4.21114 0
M  V30 5743 C 546.214 -0.586193 4.39407 0
M  V30 5744 H 543.434 0.065905 0.667756 0
M  V30 5745 H 545.978 0.827101 1.87028 0
M  V30 5746 H 544.133 -0.730203 3.80456 0
M  V30 5747 H 544.547 1.03368 5.14213 0
M  V30 5748 H 546.021 -0.642297 5.4825 0
M  V30 5749 H 546.498 -1.60713 4.0874 0
M  V30 5750 H 547.104 0.0568935 4.25262 0
M  V30 5751 N 545.419 -1.53889 0.339982 0
M  V30 5752 C 546.667 -2.00458 -0.257112 0
M  V30 5753 C 546.988 -1.22953 -1.51353 0
M  V30 5754 O 546.258 -0.335734 -1.93002 0
M  V30 5755 H 544.838 -0.740544 -0.0979965 0
M  V30 5756 H 547.5 -1.89386 0.460317 0
M  V30 5757 H 546.596 -3.08035 -0.502057 0
M  V30 5758 N 546.897 -0.0685191 -1.57451 0
M  V30 5759 C 548.127 0.609577 -1.97402 0
M  V30 5760 C 548.535 1.63882 -0.945489 0
M  V30 5761 O 547.878 1.8354 0.0766052 0
M  V30 5762 C 547.94 1.3385 -3.33653 0
M  V30 5763 C 547.604 0.463103 -4.54648 0
M  V30 5764 C 548.601 -0.277964 -5.19156 0
M  V30 5765 C 546.286 0.388941 -5.00792 0
M  V30 5766 C 548.28 -1.08145 -6.28159 0
M  V30 5767 C 545.967 -0.418217 -6.09667 0
M  V30 5768 C 546.965 -1.15208 -6.73213 0
M  V30 5769 O 546.653 -1.94594 -7.79993 0
M  V30 5770 H 546.385 0.170197 -0.654224 0
M  V30 5771 H 548.939 -0.13647 -2.04946 0
M  V30 5772 H 547.169 2.13055 -3.22714 0
M  V30 5773 H 548.858 1.90851 -3.58233 0
M  V30 5774 H 549.624 -0.230241 -4.84453 0
M  V30 5775 H 545.503 0.949769 -4.5111 0
M  V30 5776 H 549.047 -1.65476 -6.7769 0
M  V30 5777 H 544.944 -0.467515 -6.43805 0
M  V30 5778 H 545.712 -1.8699 -7.96854 0
M  V30 5779 N 548.375 1.56261 0.205012 0
M  V30 5780 C 549.621 1.81211 0.923805 0
M  V30 5781 C 549.976 0.644065 1.813 0
M  V30 5782 O 549.269 -0.361208 1.88164 0
M  V30 5783 C 549.463 3.09722 1.78345 0
M  V30 5784 C 549.292 4.38915 0.978979 0
M  V30 5785 C 548.062 5.00874 0.667332 0
M  V30 5786 C 550.26 5.13199 0.336386 0
M  V30 5787 N 548.242 6.137 -0.156814 0
M  V30 5788 C 549.613 6.19009 -0.350402 0
M  V30 5789 C 551.668 4.97266 0.251101 0
M  V30 5790 C 550.371 7.10616 -1.11434 0
M  V30 5791 C 552.397 5.89288 -0.499413 0
M  V30 5792 C 551.759 6.94536 -1.17468 0
M  V30 5793 H 547.858 0.714528 0.317764 0
M  V30 5794 H 550.442 1.93738 0.193317 0
M  V30 5795 H 548.613 2.98448 2.48563 0
M  V30 5796 H 550.345 3.22798 2.44098 0
M  V30 5797 H 547.1 4.63151 0.989366 0
M  V30 5798 H 547.524 6.74695 -0.558206 0
M  V30 5799 H 552.166 4.15935 0.758823 0
M  V30 5800 H 549.884 7.91417 -1.63353 0
M  V30 5801 H 553.47 5.79034 -0.566627 0
M  V30 5802 H 552.35 7.64513 -1.74613 0
M  V30 5803 N 549.853 -0.472356 1.50355 0
M  V30 5804 C 551.083 -1.24603 1.64796 0
M  V30 5805 C 551.491 -1.86297 0.330156 0
M  V30 5806 O 550.834 -1.69934 -0.697728 0
M  V30 5807 C 550.896 -2.39578 2.68035 0
M  V30 5808 C 550.56 -1.98531 4.11624 0
M  V30 5809 C 551.557 -1.50856 4.97532 0
M  V30 5810 C 549.242 -2.0729 4.57532 0
M  V30 5811 C 551.236 -1.12481 6.27397 0
M  V30 5812 C 548.923 -1.68527 5.87403 0
M  V30 5813 C 549.921 -1.212 6.7216 0
M  V30 5814 O 549.609 -0.829728 7.99607 0
M  V30 5815 H 549.341 -0.383035 0.55701 0
M  V30 5816 H 551.895 -0.570392 1.97321 0
M  V30 5817 H 550.125 -3.10309 2.30749 0
M  V30 5818 H 551.814 -3.01544 2.71709 0
M  V30 5819 H 552.58 -1.43511 4.63281 0
M  V30 5820 H 548.459 -2.43076 3.91708 0
M  V30 5821 H 552.003 -0.754698 6.93506 0
M  V30 5822 H 547.9 -1.7553 6.21176 0
M  V30 5823 H 548.668 -0.958689 8.12866 0
M  V30 5824 N 551.331 -1.39911 -0.725443 0
M  V30 5825 C 552.241 -1.41688 -1.8698 0
M  V30 5826 C 553.257 -0.310579 -1.71206 0
M  V30 5827 O 554.433 -0.55359 -1.93642 0
M  V30 5828 C 551.498 -1.26811 -3.22676 0
M  V30 5829 C 550.559 -2.47497 -3.50776 0
M  V30 5830 C 549.792 -2.3332 -4.79997 0
M  V30 5831 O 550.015 -1.34175 -5.54394 0
M  V30 5832 O 548.949 -3.22498 -5.08211 0
M  V30 5833 H 552.775 -2.38171 -1.88436 0
M  V30 5834 H 550.36 -1.21128 -0.874548 0
M  V30 5835 H 552.242 -1.20684 -4.03749 0
M  V30 5836 H 550.917 -0.334289 -3.21969 0
M  V30 5837 H 549.824 -2.59201 -2.69751 0
M  V30 5838 H 551.157 -3.39606 -3.5627 0
M  V30 5839 N 552.809 0.956637 -1.25245 0
M  V30 5840 C 554.225 1.22733 -1.02023 0
M  V30 5841 C 554.425 1.99761 0.264186 0
M  V30 5842 O 553.481 2.32814 0.977436 0
M  V30 5843 C 554.794 2.00367 -2.24217 0
M  V30 5844 C 556.342 2.13418 -2.28958 0
M  V30 5845 C 556.817 2.9445 -3.50803 0
M  V30 5846 N 558.308 3.02029 -3.51187 0
M  V30 5847 C 559.043 3.65116 -4.42129 0
M  V30 5848 N 558.539 4.2983 -5.43339 0
M  V30 5849 N 560.332 3.62237 -4.29815 0
M  V30 5850 H 552.483 0.441282 -2.07765 0
M  V30 5851 H 554.746 0.257686 -0.912306 0
M  V30 5852 H 554.452 1.51165 -3.17556 0
M  V30 5853 H 554.326 3.01077 -2.27228 0
M  V30 5854 H 556.713 2.61819 -1.36143 0
M  V30 5855 H 556.794 1.1202 -2.29968 0
M  V30 5856 H 556.438 2.46741 -4.43939 0
M  V30 5857 H 556.368 3.9607 -3.47039 0
M  V30 5858 H 558.859 2.56007 -2.77973 0
M  V30 5859 H 559.172 4.75819 -6.08947 0
M  V30 5860 H 557.517 4.28465 -5.47214 0
M  V30 5861 H 560.708 3.10863 -3.49974 0
M  V30 5862 H 560.881 4.11117 -5.00886 0
M  V30 5863 N 554.287 1.06798 1.15896 0
M  V30 5864 C 555.535 0.786211 1.8618 0
M  V30 5865 C 555.856 -0.689547 1.82401 0
M  V30 5866 O 555.126 -1.49913 1.26107 0
M  V30 5867 H 553.706 0.287843 0.689315 0
M  V30 5868 H 556.368 1.35055 1.40521 0
M  V30 5869 H 555.464 1.1157 2.91477 0
M  V30 5870 N 555.766 -1.3263 0.851289 0
M  V30 5871 C 557.182 -1.50162 0.5407 0
M  V30 5872 C 557.382 -1.78788 -0.929369 0
M  V30 5873 O 556.438 -1.85545 -1.71258 0
M  V30 5874 C 557.751 -2.64803 1.42478 0
M  V30 5875 C 559.299 -2.78688 1.42485 0
M  V30 5876 C 559.774 -3.96405 2.29407 0
M  V30 5877 N 561.265 -4.0366 2.27184 0
M  V30 5878 C 562 -4.93971 2.9117 0
M  V30 5879 N 561.496 -5.89313 3.64256 0
M  V30 5880 N 563.289 -4.87066 2.80576 0
M  V30 5881 H 555.44 -1.12315 1.80275 0
M  V30 5882 H 557.703 -0.553266 0.769806 0
M  V30 5883 H 557.409 -2.50368 2.46999 0
M  V30 5884 H 557.283 -3.60506 1.10974 0
M  V30 5885 H 559.67 -2.92547 0.387304 0
M  V30 5886 H 559.751 -1.83708 1.78002 0
M  V30 5887 H 559.395 -3.83304 3.33228 0
M  V30 5888 H 559.325 -4.90654 1.91224 0
M  V30 5889 H 561.816 -3.35435 1.74045 0
M  V30 5890 H 562.129 -6.54913 4.10255 0
M  V30 5891 H 560.474 -5.8935 3.68364 0
M  V30 5892 H 563.665 -4.11552 2.23031 0
M  V30 5893 H 563.838 -5.57248 3.30725 0
M  V30 5894 O 557.283 -0.749239 -1.43069 0
M  V30 5895 H 557.974 -0.305579 -1.91274 0
M  V30 END ATOM
M  V30 BEGIN BOND
M  V30 END BOND
M  V30 END CTAB
M  END
$$$$
