drugbank_target|P13726 Tissue factor (DB00036; DB06552; DB07207; DB07247; DB08232; DB13150)
 OpenBabel12092119493D

  0  0  0     0  0            999 V3000
M  V30 BEGIN CTAB
M  V30 COUNTS 4651 4704 0 0 0
M  V30 BEGIN ATOM
M  V30 1 H -0.908 1.98254 -0.117106 0
M  V30 2 N 0 1.576 0 0
M  V30 3 C 0.933 2.03868 1.02534 0
M  V30 4 C 1.911 0.928543 1.3348 0
M  V30 5 O 3.095 1.19667 1.45644 0
M  V30 6 C 0.222 2.43627 2.35294 0
M  V30 7 C -0.732 3.65373 2.2001 0
M  V30 8 S 0.101 5.13292 1.52614 0
M  V30 9 C 1.257 5.56322 2.86805 0
M  V30 10 H 1.49 2.90518 0.631377 0
M  V30 11 H -0.977 1.52953 0.210867 0
M  V30 12 H 0.981 2.67203 3.11629 0
M  V30 13 H -0.358 1.57376 2.7183 0
M  V30 14 H -1.165 3.90944 3.18086 0
M  V30 15 H -1.563 3.418 1.51819 0
M  V30 16 H 0.729 5.58782 3.83104 0
M  V30 17 H 1.672 6.56266 2.65933 0
M  V30 18 H 2.08 4.83886 2.90714 0
M  V30 19 N 1.4781 -0.272755 1.55222 0
M  V30 20 C 2.3881 -1.35918 1.91216 0
M  V30 21 C 3.4041 -1.54026 0.809436 0
M  V30 22 O 4.5801 -1.68148 1.10852 0
M  V30 23 C 1.6451 -2.69834 2.17693 0
M  V30 24 C 0.7061 -2.6047 3.41253 0
M  V30 25 C -0.0609 -3.88 3.66458 0
M  V30 26 O 0.1621 -4.88693 2.94169 0
M  V30 27 O -0.9039 -3.88189 4.59992 0
M  V30 28 H 2.9221 -1.0839 2.83699 0
M  V30 29 H 0.5071 -0.471301 1.41771 0
M  V30 30 H 2.3891 -3.49017 2.36147 0
M  V30 31 H 1.0641 -2.97148 1.28392 0
M  V30 32 H -0.0289 -1.79663 3.28134 0
M  V30 33 H 1.3041 -2.38106 4.30774 0
M  V30 34 N 2.9562 -1.48159 -0.537278 0
M  V30 35 C 4.1842 -1.59454 -1.31841 0
M  V30 36 C 4.5992 -0.252065 -1.8711 0
M  V30 37 O 3.9562 0.757621 -1.66031 0
M  V30 38 C 4.0072 -2.63546 -2.47439 0
M  V30 39 O 3.7282 -3.92583 -1.94449 0
M  V30 40 C 5.2292 -2.85212 -3.39366 0
M  V30 41 H 2.4492 -0.53785 -0.401196 0
M  V30 42 H 4.9932 -1.93932 -0.648891 0
M  V30 43 H 3.1482 -2.31946 -3.1029 0
M  V30 44 H 3.5622 -4.49629 -2.70063 0
M  V30 45 H 5.0362 -3.61863 -4.16844 0
M  V30 46 H 5.5132 -1.93765 -3.94147 0
M  V30 47 H 6.1192 -3.18086 -2.82314 0
M  V30 48 N 4.4343 0.785586 -1.36625 0
M  V30 49 C 5.8453 1.36101 -1.27803 0
M  V30 50 C 6.1963 1.96035 0.0804875 0
M  V30 51 O 5.3213 1.92834 0.982042 0
M  V30 52 C 5.9163 2.47442 -2.31426 0
M  V30 53 C 4.4753 3.00789 -2.26281 0
M  V30 54 C 3.6223 1.73896 -2.15999 0
M  V30 55 H 6.5733 0.586928 -1.47448 0
M  V30 56 H 6.5943 3.2656 -1.95291 0
M  V30 57 H 6.1063 2.03791 -3.30289 0
M  V30 58 H 4.2073 3.48851 -1.30896 0
M  V30 59 H 4.3203 3.57343 -3.19128 0
M  V30 60 H 2.6843 1.9628 -1.62316 0
M  V30 61 H 3.4673 1.32368 -3.16755 0
M  V30 62 N 5.9124 1.20967 1.01018 0
M  V30 63 C 6.8754 0.965918 2.07853 0
M  V30 64 C 7.8754 -0.0610545 1.60684 0
M  V30 65 O 9.0654 0.175681 1.73312 0
M  V30 66 C 6.1974 0.455513 3.37843 0
M  V30 67 H 7.3904 1.91365 2.3091 0
M  V30 68 H 4.9434 1.02594 1.17916 0
M  V30 69 H 5.6784 -0.497381 3.20463 0
M  V30 70 H 5.4634 1.19622 3.73407 0
M  V30 71 H 6.9534 0.304667 4.16487 0
M  V30 72 N 7.3905 -1.2043 1.01659 0
M  V30 73 C 8.6365 -1.90356 0.716674 0
M  V30 74 C 8.9915 -1.77367 -0.745557 0
M  V30 75 O 8.2845 -1.1471 -1.53467 0
M  V30 76 C 8.4785 -3.40464 1.08714 0
M  V30 77 C 8.3075 -3.6806 2.58384 0
M  V30 78 C 7.0775 -3.86775 3.25167 0
M  V30 79 C 9.2755 -3.70623 3.56572 0
M  V30 80 N 7.2575 -4.01889 4.64067 0
M  V30 81 C 8.6285 -3.91161 4.81034 0
M  V30 82 C 10.6835 -3.53586 3.50544 0
M  V30 83 C 9.3865 -3.96428 6.00198 0
M  V30 84 C 11.4125 -3.60125 4.6911 0
M  V30 85 C 10.7745 -3.81135 5.92381 0
M  V30 86 H 6.8735 -0.716226 0.313918 0
M  V30 87 H 9.4575 -1.44815 1.30141 0
M  V30 88 H 7.6285 -3.84757 0.530745 0
M  V30 89 H 9.3605 -3.97863 0.740763 0
M  V30 90 H 6.1155 -3.85156 2.75594 0
M  V30 91 H 6.5395 -4.13323 5.36184 0
M  V30 92 H 11.1815 -3.36308 2.56235 0
M  V30 93 H 8.8995 -4.12502 6.94887 0
M  V30 94 H 12.4855 -3.4825 4.66062 0
M  V30 95 H 11.3655 -3.86054 6.82592 0
M  V30 96 N 8.8686 -0.792821 -1.36206 0
M  V30 97 C 10.2796 -0.429513 -1.81692 0
M  V30 98 C 10.6306 1.04695 -1.65932 0
M  V30 99 O 9.7556 1.81256 -1.18218 0
M  V30 100 C 10.3506 -0.772831 -3.29868 0
M  V30 101 C 8.9096 -0.462307 -3.7355 0
M  V30 102 C 8.0566 -1.00569 -2.5842 0
M  V30 103 H 11.0076 -0.985672 -1.24379 0
M  V30 104 H 11.0286 -0.0651928 -3.80444 0
M  V30 105 H 10.5406 -1.84747 -3.41307 0
M  V30 106 H 8.6416 0.604158 -3.67669 0
M  V30 107 H 8.7546 -0.985299 -4.68859 0
M  V30 108 H 7.1186 -0.428734 -2.51066 0
M  V30 109 H 7.9016 -2.08616 -2.72643 0
M  V30 110 N 10.3467 1.47872 -0.545128 0
M  V30 111 C 11.7627 1.5829 -0.204032 0
M  V30 112 C 11.9627 1.54529 1.29317 0
M  V30 113 O 11.0187 1.44232 2.07252 0
M  V30 114 C 12.3317 2.89304 -0.819987 0
M  V30 115 C 13.8797 3.02864 -0.790105 0
M  V30 116 C 14.3547 4.3656 -1.38491 0
M  V30 117 N 15.8457 4.43165 -1.34755 0
M  V30 118 C 16.5807 5.45153 -1.77753 0
M  V30 119 N 16.0767 6.54016 -2.2855 0
M  V30 120 N 17.8697 5.36125 -1.68897 0
M  V30 121 H 10.0207 1.4856 -1.51802 0
M  V30 122 H 12.2837 0.706305 -0.632327 0
M  V30 123 H 11.9897 2.97757 -1.87173 0
M  V30 124 H 11.8637 3.75957 -0.305915 0
M  V30 125 H 14.2507 2.94014 0.252913 0
M  V30 126 H 14.3317 2.17782 -1.34181 0
M  V30 127 H 13.9757 4.46164 -2.42693 0
M  V30 128 H 13.9057 5.20353 -0.808754 0
M  V30 129 H 16.3967 3.65083 -0.975855 0
M  V30 130 H 16.7097 7.27994 -2.59314 0
M  V30 131 H 15.0547 6.54938 -2.32553 0
M  V30 132 H 18.2457 4.49975 -1.28998 0
M  V30 133 H 18.4187 6.15472 -2.02726 0
M  V30 134 N 11.8248 0.280983 1.55075 0
M  V30 135 C 13.0708 -0.33461 2.00021 0
M  V30 136 C 13.4038 -1.55063 1.16915 0
M  V30 137 O 12.6788 -1.93006 0.240646 0
M  V30 138 C 12.9618 -0.711007 3.53011 0
M  V30 139 C 12.8148 0.512766 4.46868 0
M  V30 140 C 14.1338 -1.54522 4.12081 0
M  V30 141 H 11.2528 -0.120147 0.727141 0
M  V30 142 H 13.8948 0.389097 1.85973 0
M  V30 143 H 12.0448 -1.32761 3.65112 0
M  V30 144 H 13.7168 1.15131 4.46702 0
M  V30 145 H 11.9598 1.14975 4.18286 0
M  V30 146 H 12.6308 0.205556 5.51617 0
M  V30 147 H 15.1068 -1.02442 4.03293 0
M  V30 148 H 13.9828 -1.77739 5.19327 0
M  V30 149 H 14.2438 -2.52813 3.62682 0
M  V30 150 N 13.3029 -1.57598 0.00835791 0
M  V30 151 C 14.7139 -1.7892 -0.53333 0
M  V30 152 C 15.0649 -0.916609 -1.73473 0
M  V30 153 O 14.1899 -0.121336 -2.1606 0
M  V30 154 C 14.7849 -3.24488 -0.974313 0
M  V30 155 C 13.3439 -3.46878 -1.46125 0
M  V30 156 C 12.4909 -2.74157 -0.416302 0
M  V30 157 H 15.4419 -1.56958 0.234495 0
M  V30 158 H 15.4629 -3.3306 -1.83988 0
M  V30 159 H 14.9749 -3.87972 -0.099718 0
M  V30 160 H 13.0759 -2.8862 -2.35646 0
M  V30 161 H 13.1889 -4.55572 -1.48295 0
M  V30 162 H 11.5529 -2.39022 -0.87981 0
M  V30 163 H 12.3359 -3.40345 0.44947 0
M  V30 164 N 14.781 0.264519 -1.55364 0
M  V30 165 C 16.197 0.61215 -1.47394 0
M  V30 166 C 16.397 1.89134 -0.695018 0
M  V30 167 O 15.453 2.51563 -0.217275 0
M  V30 168 C 16.766 0.731235 -2.91674 0
M  V30 169 C 18.314 0.82473 -3.01939 0
M  V30 170 C 18.789 0.975522 -4.4749 0
M  V30 171 N 20.28 1.04083 -4.51354 0
M  V30 172 C 21.015 1.17646 -5.61201 0
M  V30 173 N 20.511 1.27874 -6.80896 0
M  V30 174 N 22.304 1.20823 -5.48961 0
M  V30 175 H 14.455 -0.575456 -2.04456 0
M  V30 176 H 16.718 -0.196099 -0.927496 0
M  V30 177 H 16.424 -0.138392 -3.51428 0
M  V30 178 H 16.298 1.60883 -3.41169 0
M  V30 179 H 18.685 1.68482 -2.42276 0
M  V30 180 H 18.766 -0.0776479 -2.55682 0
M  V30 181 H 18.41 0.120058 -5.07758 0
M  V30 182 H 18.34 1.89268 -4.91412 0
M  V30 183 H 20.831 0.973846 -3.65136 0
M  V30 184 H 21.144 1.38081 -7.60364 0
M  V30 185 H 19.489 1.24863 -6.83692 0
M  V30 186 H 22.68 1.12469 -4.54388 0
M  V30 187 H 22.853 1.31049 -6.3461 0
M  V30 188 N 16.2591 1.48442 0.529413 0
M  V30 189 C 17.6701 1.5002 1.11134 0
M  V30 190 C 18.0211 0.27031 1.94329 0
M  V30 191 O 17.1461 -0.622507 2.07253 0
M  V30 192 C 17.7411 2.71834 2.02217 0
M  V30 193 C 16.3001 2.76283 2.55627 0
M  V30 194 C 15.4471 2.43542 1.326 0
M  V30 195 H 18.3981 1.5555 0.314641 0
M  V30 196 H 18.4191 2.50384 2.8651 0
M  V30 197 H 17.9311 3.61331 1.41639 0
M  V30 198 H 16.0321 1.90995 3.19924 0
M  V30 199 H 16.1451 3.77725 2.94721 0
M  V30 200 H 14.5091 1.94709 1.64196 0
M  V30 201 H 15.2921 3.3528 0.737734 0
M  V30 202 N 17.7372 -0.778329 1.37039 0
M  V30 203 C 18.6472 -1.92253 1.34446 0
M  V30 204 C 19.6632 -1.72267 0.244991 0
M  V30 205 O 20.8392 -1.95615 0.479258 0
M  V30 206 C 17.9042 -3.27282 1.144 0
M  V30 207 C 16.9652 -3.59969 2.33925 0
M  V30 208 C 16.1982 -4.88555 2.14825 0
M  V30 209 O 16.4212 -5.59113 1.12912 0
M  V30 210 O 15.3552 -5.20153 3.02861 0
M  V30 211 H 19.1812 -1.97392 2.30803 0
M  V30 212 H 16.7662 -0.920154 1.17701 0
M  V30 213 H 18.6482 -4.08062 1.05182 0
M  V30 214 H 17.3232 -3.23011 0.211124 0
M  V30 215 H 16.2302 -2.7945 2.48714 0
M  V30 216 H 17.5632 -3.68976 3.25757 0
M  V30 217 N 19.2153 -1.21501 -1.00376 0
M  V30 218 C 20.4433 -1.059 -1.77744 0
M  V30 219 C 20.8583 0.391125 -1.84704 0
M  V30 220 O 20.2153 1.27133 -1.30933 0
M  V30 221 C 20.2663 -1.65111 -3.21591 0
M  V30 222 O 19.9873 -3.0445 -3.15027 0
M  V30 223 C 21.4883 -1.54637 -4.15454 0
M  V30 224 H 18.7083 -0.371825 -0.558558 0
M  V30 225 H 21.2523 -1.60865 -1.26264 0
M  V30 226 H 19.4073 -1.14235 -3.70175 0
M  V30 227 H 19.8213 -3.3278 -4.0541 0
M  V30 228 H 21.2953 -2.00808 -5.14179 0
M  V30 229 H 21.7723 -0.501022 -4.36333 0
M  V30 230 H 22.3783 -2.04767 -3.72761 0
M  V30 231 N 20.6934 1.19889 -1.02296 0
M  V30 232 C 21.6564 2.21116 -0.603351 0
M  V30 233 C 22.6564 1.5738 0.329884 0
M  V30 234 O 23.8464 1.73802 0.117702 0
M  V30 235 C 20.9784 3.40696 0.117992 0
M  V30 236 H 22.1714 2.59754 -1.49893 0
M  V30 237 H 19.7244 1.33463 -0.813468 0
M  V30 238 H 20.4594 3.07569 1.0282 0
M  V30 239 H 20.2444 3.88188 -0.552511 0
M  V30 240 H 21.7344 4.15692 0.398696 0
M  V30 241 N 22.1715 0.800033 1.35784 0
M  V30 242 C 23.4175 0.377901 1.99248 0
M  V30 243 C 23.7505 -1.05052 1.63333 0
M  V30 244 O 23.0255 -1.72768 0.893385 0
M  V30 245 C 23.3085 0.553922 3.55814 0
M  V30 246 C 23.1615 2.0268 4.01548 0
M  V30 247 C 24.4805 -0.0244802 4.40093 0
M  V30 248 H 21.5995 0.138782 0.723815 0
M  V30 249 H 24.2415 1.00835 1.61035 0
M  V30 250 H 22.3915 0.0172398 3.88496 0
M  V30 251 H 24.0635 2.62536 3.79305 0
M  V30 252 H 22.3065 2.5256 3.52698 0
M  V30 253 H 22.9775 2.10087 5.10458 0
M  V30 254 H 25.4535 0.433775 4.13833 0
M  V30 255 H 24.3295 0.128637 5.48749 0
M  V30 256 H 24.5905 -1.11758 4.27741 0
M  V30 257 N 23.6496 -1.47581 0.552962 0
M  V30 258 C 24.6126 -2.28439 -0.186605 0
M  V30 259 C 25.6126 -1.36706 -0.84665 0
M  V30 260 O 26.8026 -1.59378 -0.703164 0
M  V30 261 C 23.9346 -3.16264 -1.2724 0
M  V30 262 H 25.1276 -2.95294 0.523609 0
M  V30 263 H 22.6806 -1.532 0.309745 0
M  V30 264 H 23.4156 -2.54091 -2.01514 0
M  V30 265 H 23.2006 -3.83769 -0.803968 0
M  V30 266 H 24.6906 -3.77198 -1.79196 0
M  V30 267 N 25.1277 -0.289203 -1.54924 0
M  V30 268 C 26.5437 0.0645403 -1.59469 0
M  V30 269 C 26.7437 1.53419 -1.30632 0
M  V30 270 O 25.7997 2.2852 -1.074 0
M  V30 271 C 27.1127 -0.32278 -2.98963 0
M  V30 272 C 28.6607 -0.270564 -3.11828 0
M  V30 273 C 29.1357 -0.632532 -4.53611 0
M  V30 274 N 30.6267 -0.584617 -4.59496 0
M  V30 275 C 31.3617 -0.837314 -5.67254 0
M  V30 276 N 30.8577 -1.15536 -6.83098 0
M  V30 277 N 32.6507 -0.765166 -5.56868 0
M  V30 278 H 24.8017 -1.24714 -1.71931 0
M  V30 279 H 27.0647 -0.504809 -0.802416 0
M  V30 280 H 26.7707 -1.34541 -3.24948 0
M  V30 281 H 26.6447 0.32944 -3.75759 0
M  V30 282 H 29.0317 0.742805 -2.85598 0
M  V30 283 H 29.1127 -0.957242 -2.37214 0
M  V30 284 H 28.7567 -1.64365 -4.80569 0
M  V30 285 H 28.6867 0.07609 -5.26545 0
M  V30 286 H 31.1777 -0.349248 -3.76283 0
M  V30 287 H 31.4907 -1.33447 -7.61191 0
M  V30 288 H 29.8357 -1.19328 -6.84679 0
M  V30 289 H 33.0267 -0.516432 -4.65243 0
M  V30 290 H 33.1997 -0.965477 -6.40767 0
M  V30 291 N 26.6058 1.57591 -0.0167156 0
M  V30 292 C 27.8338 1.95575 0.675128 0
M  V30 293 C 28.2488 0.892542 1.6637 0
M  V30 294 O 27.6058 -0.126912 1.82058 0
M  V30 295 C 27.6568 3.33608 1.39239 0
M  V30 296 O 27.3778 4.3585 0.443444 0
M  V30 297 C 28.8788 3.86151 2.17721 0
M  V30 298 H 26.0988 0.644423 0.186978 0
M  V30 299 H 28.6428 2.0437 -0.0728 0
M  V30 300 H 26.7978 3.2607 2.09182 0
M  V30 301 H 27.2118 5.158 0.951358 0
M  V30 302 H 28.6858 4.85114 2.63379 0
M  V30 303 H 29.1628 3.19738 3.01105 0
M  V30 304 H 29.7688 3.96918 1.52761 0
M  V30 305 N 28.0839 -0.256276 1.55502 0
M  V30 306 C 29.0139 -1.32102 1.92539 0
M  V30 307 C 29.9949 -1.50684 0.789194 0
M  V30 308 O 31.1799 -1.63449 1.04872 0
M  V30 309 C 28.3099 -2.67752 2.21192 0
M  V30 310 C 27.2639 -2.63878 3.36975 0
M  V30 311 C 26.5899 -4.03236 3.51147 0
M  V30 312 C 27.8899 -2.21682 4.72921 0
M  V30 313 H 29.5839 -1.01351 2.81724 0
M  V30 314 H 27.1299 -0.486105 1.35547 0
M  V30 315 H 29.0829 -3.42365 2.45691 0
M  V30 316 H 27.8069 -3.0012 1.28824 0
M  V30 317 H 26.4659 -1.91722 3.12471 0
M  V30 318 H 26.1139 -4.32854 2.56216 0
M  V30 319 H 25.8139 -4.01535 4.29003 0
M  V30 320 H 27.3379 -4.79563 3.77957 0
M  V30 321 H 28.7519 -2.86023 4.96854 0
M  V30 322 H 27.1489 -2.3111 5.53812 0
M  V30 323 H 28.2189 -1.16833 4.70615 0
M  V30 324 N 29.562 -1.4872 -0.521534 0
M  V30 325 C 30.492 -1.66771 -1.63431 0
M  V30 326 C 31.473 -0.516499 -1.62069 0
M  V30 327 O 32.658 -0.750013 -1.79132 0
M  V30 328 C 29.788 -1.71515 -3.01993 0
M  V30 329 C 28.742 -2.86222 -3.18216 0
M  V30 330 C 28.068 -2.76061 -4.57924 0
M  V30 331 C 29.368 -4.27419 -3.00184 0
M  V30 332 H 31.062 -2.59932 -1.48579 0
M  V30 333 H 28.608 -1.25089 -0.713358 0
M  V30 334 H 30.561 -1.82731 -3.7972 0
M  V30 335 H 29.285 -0.749393 -3.17886 0
M  V30 336 H 27.944 -2.74575 -2.42908 0
M  V30 337 H 27.592 -1.77437 -4.70665 0
M  V30 338 H 27.292 -3.53037 -4.69722 0
M  V30 339 H 28.816 -2.89256 -5.37739 0
M  V30 340 H 30.23 -4.39855 -3.67697 0
M  V30 341 H 28.627 -5.05458 -3.2347 0
M  V30 342 H 29.697 -4.43293 -1.96518 0
M  V30 343 N 31.0401 0.771051 -1.3745 0
M  V30 344 C 31.9701 1.89827 -1.3597 0
M  V30 345 C 32.9511 1.68562 -0.228216 0
M  V30 346 O 34.1361 1.8941 -0.428675 0
M  V30 347 C 31.2661 3.2712 -1.16662 0
M  V30 348 C 30.2201 3.6295 -2.2683 0
M  V30 349 C 29.5461 4.98791 -1.92644 0
M  V30 350 C 30.8461 3.69627 -3.69017 0
M  V30 351 H 32.5401 1.91323 -2.30295 0
M  V30 352 H 30.0861 0.919082 -1.10855 0
M  V30 353 H 32.0391 4.05615 -1.14256 0
M  V30 354 H 30.7631 3.26059 -0.187926 0
M  V30 355 H 29.4221 2.86763 -2.28392 0
M  V30 356 H 29.0701 4.94271 -0.933021 0
M  V30 357 H 28.7701 5.23733 -2.66416 0
M  V30 358 H 30.2941 5.79685 -1.91826 0
M  V30 359 H 31.7081 4.38273 -3.69581 0
M  V30 360 H 30.1051 4.06067 -4.41848 0
M  V30 361 H 31.1751 2.70273 -4.02592 0
M  V30 362 N 32.5182 1.22032 0.997298 0
M  V30 363 C 33.7662 1.04016 1.73278 0
M  V30 364 C 34.0872 -0.426255 1.90284 0
M  V30 365 O 33.3572 -1.30694 1.45931 0
M  V30 366 H 31.9372 0.381897 0.642 0
M  V30 367 H 34.5992 1.5347 1.20137 0
M  V30 368 H 33.6952 1.51441 2.72896 0
M  V30 369 N 33.9963 -1.19345 1.0293 0
M  V30 370 C 35.2423 -1.89585 0.736824 0
M  V30 371 C 35.5973 -1.78148 -0.726703 0
M  V30 372 O 34.8903 -1.16332 -1.52242 0
M  V30 373 C 35.0843 -3.39292 1.12319 0
M  V30 374 C 34.9133 -3.65298 2.62273 0
M  V30 375 C 33.6833 -3.83304 3.29251 0
M  V30 376 C 35.8813 -3.6682 3.60482 0
M  V30 377 N 33.8633 -3.96944 4.68304 0
M  V30 378 C 35.2343 -3.86037 4.85155 0
M  V30 379 C 37.2893 -3.49848 3.54275 0
M  V30 380 C 35.9923 -3.9004 6.04369 0
M  V30 381 C 38.0183 -3.55129 4.72903 0
M  V30 382 C 37.3803 -3.74831 5.9639 0
M  V30 383 H 33.4793 -0.712856 0.321497 0
M  V30 384 H 36.0633 -1.43427 1.31669 0
M  V30 385 H 34.2343 -3.84172 0.571524 0
M  V30 386 H 35.9663 -3.97055 0.78292 0
M  V30 387 H 32.7213 -3.82211 2.79663 0
M  V30 388 H 33.1453 -4.07613 5.40538 0
M  V30 389 H 37.7873 -3.33572 2.59788 0
M  V30 390 H 35.5053 -4.05108 6.99223 0
M  V30 391 H 39.0913 -3.43287 4.69729 0
M  V30 392 H 37.9713 -3.78792 6.86649 0
M  V30 393 N 35.4744 -0.807222 -1.35358 0
M  V30 394 C 36.7204 -0.388463 -1.99045 0
M  V30 395 C 37.0534 1.04184 -1.63888 0
M  V30 396 O 36.3284 1.72292 -0.902535 0
M  V30 397 C 36.6114 -0.572783 -3.55515 0
M  V30 398 C 36.4644 -2.04807 -4.00468 0
M  V30 399 C 37.7834 0.00114064 -4.401 0
M  V30 400 H 34.9024 -0.142619 -0.723069 0
M  V30 401 H 37.5444 -1.01687 -1.60498 0
M  V30 402 H 35.6944 -0.0378425 -3.88482 0
M  V30 403 H 37.3664 -2.64544 -3.77908 0
M  V30 404 H 35.6094 -2.54427 -3.51353 0
M  V30 405 H 36.2804 -2.12792 -5.09337 0
M  V30 406 H 38.7564 -0.455716 -4.13597 0
M  V30 407 H 37.6324 -0.157737 -5.48673 0
M  V30 408 H 37.8934 1.09488 -4.28328 0
M  V30 409 N 36.9525 1.47285 -0.560781 0
M  V30 410 C 38.1995 2.02464 -0.038062 0
M  V30 411 C 38.5275 1.43474 1.31322 0
M  V30 412 O 37.7825 0.581311 1.86867 0
M  V30 413 C 38.0815 3.57258 0.100784 0
M  V30 414 C 37.7475 4.35184 -1.18007 0
M  V30 415 C 36.4095 4.56194 -1.53103 0
M  V30 416 C 38.7615 4.80098 -2.02867 0
M  V30 417 C 36.0895 5.19367 -2.729 0
M  V30 418 C 38.4415 5.44593 -3.21871 0
M  V30 419 C 37.1055 5.63835 -3.57276 0
M  V30 420 H 36.3755 0.740869 -0.0139279 0
M  V30 421 H 39.0225 1.76916 -0.733012 0
M  V30 422 H 37.3275 3.81819 0.878724 0
M  V30 423 H 39.0245 3.97606 0.520639 0
M  V30 424 H 35.6145 4.19113 -0.8968 0
M  V30 425 H 39.7985 4.63642 -1.7706 0
M  V30 426 H 35.0545 5.32459 -3.00496 0
M  V30 427 H 39.2285 5.78358 -3.87911 0
M  V30 428 H 36.8555 6.12557 -4.50197 0
M  V30 429 N 38.4306 0.297415 1.54768 0
M  V30 430 C 39.3936 -0.567375 2.22066 0
M  V30 431 C 40.3936 -1.06409 1.20556 0
M  V30 432 O 41.5836 -0.960691 1.45315 0
M  V30 433 C 38.7156 -1.78517 2.90421 0
M  V30 434 H 39.9086 0.0205534 2.99893 0
M  V30 435 H 37.4616 0.0482163 1.56226 0
M  V30 436 H 38.1966 -2.41303 2.16664 0
M  V30 437 H 37.9816 -1.43669 3.64831 0
M  V30 438 H 39.4716 -2.39964 3.41771 0
M  V30 439 N 39.9087 -1.5758 0.0250728 0
M  V30 440 C 40.8407 -2.06869 -0.986796 0
M  V30 441 C 41.8537 -0.991332 -1.29137 0
M  V30 442 O 43.0427 -1.26761 -1.25674 0
M  V30 443 C 40.1427 -2.47486 -2.31525 0
M  V30 444 C 39.3157 -3.78253 -2.19643 0
M  V30 445 C 38.3747 -4.05464 -3.35388 0
M  V30 446 O 37.4007 -4.75774 -3.12454 0
M  V30 447 N 38.6027 -3.55321 -4.59051 0
M  V30 448 H 41.3677 -2.94302 -0.566276 0
M  V30 449 H 38.9287 -1.6109 -0.161776 0
M  V30 450 H 40.9207 -2.62785 -3.07776 0
M  V30 451 H 39.4907 -1.65441 -2.65232 0
M  V30 452 H 38.7107 -3.7279 -1.28144 0
M  V30 453 H 39.9987 -4.63936 -2.08903 0
M  V30 454 H 39.3967 -2.98431 -4.80578 0
M  V30 455 H 37.9537 -3.75905 -5.32483 0
M  V30 456 N 41.3868 0.248026 -1.55636 0
M  V30 457 C 42.6328 0.97767 -1.77678 0
M  V30 458 C 42.9658 1.85016 -0.590135 0
M  V30 459 O 42.2408 1.90095 0.411611 0
M  V30 460 C 42.5238 1.83914 -3.09593 0
M  V30 461 C 42.3768 0.99491 -4.38659 0
M  V30 462 C 43.6958 2.82183 -3.37729 0
M  V30 463 H 40.8148 0.354005 -0.646413 0
M  V30 464 H 43.4568 0.248253 -1.88371 0
M  V30 465 H 41.6068 2.46104 -3.00608 0
M  V30 466 H 43.2788 0.391789 -4.59633 0
M  V30 467 H 41.5218 0.299231 -4.32767 0
M  V30 468 H 42.1928 1.63145 -5.2734 0
M  V30 469 H 44.6688 2.30129 -3.4667 0
M  V30 470 H 43.5448 3.39582 -4.31249 0
M  V30 471 H 43.8058 3.58588 -2.58586 0
M  V30 472 N 42.8649 1.48995 0.513639 0
M  V30 473 C 43.8279 1.64229 1.59879 0
M  V30 474 C 44.8279 0.514696 1.5234 0
M  V30 475 O 46.0179 0.78087 1.55718 0
M  V30 476 C 43.1499 1.62783 2.99524 0
M  V30 477 H 44.3429 2.61004 1.47705 0
M  V30 478 H 41.8959 1.37837 0.736936 0
M  V30 479 H 42.6309 0.675461 3.17188 0
M  V30 480 H 42.4159 2.4466 3.06404 0
M  V30 481 H 43.9059 1.76669 3.78388 0
M  V30 482 N 44.343 -0.763751 1.37857 0
M  V30 483 C 45.591 -1.51957 1.33243 0
M  V30 484 C 45.912 -1.94835 -0.0801709 0
M  V30 485 O 45.182 -1.66894 -1.02582 0
M  V30 486 H 43.762 -0.563626 0.49024 0
M  V30 487 H 46.424 -0.908504 1.7243 0
M  V30 488 H 45.52 -2.41523 1.97669 0
M  V30 489 N 45.8211 -1.22559 -0.990812 0
M  V30 490 C 46.7841 -0.998863 -2.0629 0
M  V30 491 C 47.7841 0.0354834 -1.60761 0
M  V30 492 O 48.9741 -0.203231 -1.7301 0
M  V30 493 C 46.1061 -0.509203 -3.37076 0
M  V30 494 H 47.2991 -1.95014 -2.27837 0
M  V30 495 H 44.8521 -1.04456 -1.16269 0
M  V30 496 H 45.5871 0.446335 -3.21214 0
M  V30 497 H 45.3721 -1.25547 -3.71457 0
M  V30 498 H 46.8621 -0.370888 -4.1595 0
M  V30 499 N 47.2992 1.18797 -1.03562 0
M  V30 500 C 48.5242 1.9314 -0.755764 0
M  V30 501 C 48.9492 1.7537 0.68022 0
M  V30 502 O 48.3072 1.06046 1.47051 0
M  V30 503 C 48.3552 3.42747 -1.12058 0
M  V30 504 O 47.4592 4.11683 -0.243124 0
M  V30 505 H 46.8002 0.602724 -0.278604 0
M  V30 506 H 49.3302 1.50678 -1.3841 0
M  V30 507 H 49.3402 3.93437 -1.08035 0
M  V30 508 H 48.0152 3.55002 -2.16672 0
M  V30 509 H 46.5922 3.71323 -0.342539 0
M  V30 510 N 48.7773 0.814389 1.34928 0
M  V30 511 C 50.0253 0.397636 1.9815 0
M  V30 512 C 50.3463 -1.04069 1.64908 0
M  V30 513 O 49.6163 -1.72121 0.93548 0
M  V30 514 H 48.1963 0.144043 0.732981 0
M  V30 515 H 50.8583 1.04195 1.6471 0
M  V30 516 H 49.9543 0.509688 3.0791 0
M  V30 517 N 50.2554 -1.46986 0.568584 0
M  V30 518 C 51.4834 -2.0683 0.0539956 0
M  V30 519 C 51.8984 -1.41953 -1.24478 0
M  V30 520 O 51.2554 -0.519933 -1.74937 0
M  V30 521 C 51.3064 -3.61254 -0.133362 0
M  V30 522 O 51.0274 -4.237 1.11399 0
M  V30 523 C 52.5284 -4.37992 -0.683927 0
M  V30 524 H 49.7484 -0.669058 0.0510141 0
M  V30 525 H 52.2924 -1.88824 0.785234 0
M  V30 526 H 50.4474 -3.78735 -0.81477 0
M  V30 527 H 50.8614 -5.16388 0.91888 0
M  V30 528 H 52.3354 -5.46684 -0.764263 0
M  V30 529 H 52.8124 -4.05058 -1.69778 0
M  V30 530 H 53.4184 -4.25283 -0.0378494 0
M  V30 531 N 51.7335 -0.305618 -1.54608 0
M  V30 532 C 52.9615 0.304775 -2.04643 0
M  V30 533 C 53.3765 1.47167 -1.18268 0
M  V30 534 O 52.7335 1.81296 -0.209328 0
M  V30 535 C 52.7845 0.756564 -3.53495 0
M  V30 536 O 52.5055 -0.36389 -4.36586 0
M  V30 537 C 54.0065 1.43163 -4.19546 0
M  V30 538 H 51.2265 0.0655481 -0.667791 0
M  V30 539 H 53.7705 -0.446592 -1.99564 0
M  V30 540 H 51.9255 1.45794 -3.58919 0
M  V30 541 H 52.3395 -0.0113121 -5.24499 0
M  V30 542 H 53.8135 1.69886 -5.25207 0
M  V30 543 H 54.2905 2.37318 -3.69563 0
M  V30 544 H 54.8965 0.773307 -4.18211 0
M  V30 545 N 53.2116 1.57565 -0.0334293 0
M  V30 546 C 54.1596 2.1164 0.96496 0
M  V30 547 C 55.1536 1.04398 1.33407 0
M  V30 548 O 56.3596 1.22828 1.3158 0
M  V30 549 H 52.7346 0.676222 0.32898 0
M  V30 550 H 54.7056 2.94455 0.483614 0
M  V30 551 C 53.4546 2.66207 2.23672 0
M  V30 552 H 52.7776 3.48378 1.96145 0
M  V30 553 H 54.2176 3.07685 2.9173 0
M  V30 554 C 52.6766 1.59151 2.96939 0
M  V30 555 O 53.2066 0.993858 3.89211 0
M  V30 556 N 51.4126 1.31093 2.59351 0
M  V30 557 H 50.9596 1.7988 1.84393 0
M  V30 558 H 50.9176 0.596889 3.08682 0
M  V30 559 N 54.6897 -0.239769 1.55765 0
M  V30 560 C 55.9177 -0.98417 1.81994 0
M  V30 561 C 56.3327 -1.7867 0.610124 0
M  V30 562 O 55.6897 -1.77571 -0.421271 0
M  V30 563 C 55.7407 -1.91635 3.06526 0
M  V30 564 O 55.4617 -1.14629 4.22838 0
M  V30 565 C 56.9627 -2.77616 3.45607 0
M  V30 566 H 54.1827 -0.28928 0.605441 0
M  V30 567 H 56.7267 -0.260499 2.02834 0
M  V30 568 H 54.8817 -2.5942 2.87715 0
M  V30 569 H 55.2957 -1.77745 4.93464 0
M  V30 570 H 56.7697 -3.38759 4.35828 0
M  V30 571 H 57.2467 -3.4909 2.6652 0
M  V30 572 H 57.8527 -2.15271 3.66795 0
M  V30 573 N 56.1678 -1.49265 -0.50573 0
M  V30 574 C 57.4138 -1.58748 -1.26202 0
M  V30 575 C 57.7468 -0.271227 -1.92297 0
M  V30 576 O 57.0218 0.724831 -1.80489 0
M  V30 577 C 57.3048 -2.74332 -2.33268 0
M  V30 578 C 57.1578 -4.15737 -1.71705 0
M  V30 579 C 58.4768 -2.85576 -3.34865 0
M  V30 580 H 55.5958 -0.577826 -0.457478 0
M  V30 581 H 58.2378 -1.81532 -0.560897 0
M  V30 582 H 56.3878 -2.55036 -2.93068 0
M  V30 583 H 58.0598 -4.46537 -1.15769 0
M  V30 584 H 56.3028 -4.21605 -1.02135 0
M  V30 585 H 56.9738 -4.92477 -2.49341 0
M  V30 586 H 59.4498 -3.03127 -2.8505 0
M  V30 587 H 58.3258 -3.68135 -4.07146 0
M  V30 588 H 58.5868 -1.94732 -3.96903 0
M  V30 589 N 57.6459 0.756429 -1.3826 0
M  V30 590 C 58.6089 1.85176 -1.35065 0
M  V30 591 C 59.6089 1.58818 -0.251703 0
M  V30 592 O 60.7989 1.66615 -0.508433 0
M  V30 593 C 57.9309 3.22596 -1.10201 0
M  V30 594 H 59.1239 1.89417 -2.3251 0
M  V30 595 H 56.6769 0.95783 -1.23512 0
M  V30 596 H 57.4119 3.24025 -0.133504 0
M  V30 597 H 57.1969 3.43122 -1.89762 0
M  V30 598 H 58.6869 4.02673 -1.10654 0
M  V30 599 N 59.124 1.23083 0.984299 0
M  V30 600 C 60.087 1.00979 2.05757 0
M  V30 601 C 61.087 -0.0269573 1.60777 0
M  V30 602 O 62.277 0.212403 1.729 0
M  V30 603 C 59.409 0.527072 3.36801 0
M  V30 604 H 60.602 1.9622 2.26799 0
M  V30 605 H 58.155 1.05072 1.15714 0
M  V30 606 H 58.89 -0.429294 3.21446 0
M  V30 607 H 58.675 1.27515 3.70786 0
M  V30 608 H 60.165 0.392942 4.15747 0
M  V30 609 N 60.6021 -1.18246 1.0419 0
M  V30 610 C 61.8321 -1.91916 0.764961 0
M  V30 611 C 62.2401 -1.76485 -0.681898 0
M  V30 612 O 61.5831 -1.09275 -1.47664 0
M  V30 613 C 61.6451 -3.4373 1.05309 0
M  V30 614 C 61.3091 -3.8294 2.4941 0
M  V30 615 C 62.3061 -3.86621 3.47592 0
M  V30 616 C 59.9911 -4.142 2.84155 0
M  V30 617 C 61.9851 -4.21013 4.78568 0
M  V30 618 C 59.6721 -4.48262 4.15337 0
M  V30 619 C 60.6701 -4.51645 5.12353 0
M  V30 620 O 60.3581 -4.84911 6.41183 0
M  V30 621 H 60.0901 -0.61606 0.278292 0
M  V30 622 H 62.6441 -1.50947 1.39299 0
M  V30 623 H 60.8741 -3.84946 0.367933 0
M  V30 624 H 62.5631 -3.9865 0.763752 0
M  V30 625 H 63.3291 -3.62607 3.22089 0
M  V30 626 H 59.2081 -4.10743 2.09311 0
M  V30 627 H 62.7521 -4.23568 5.54289 0
M  V30 628 H 58.6491 -4.71737 4.40607 0
M  V30 629 H 59.4171 -5.02809 6.45852 0
M  V30 630 N 62.0802 -0.821533 -1.34494 0
M  V30 631 C 63.0282 -0.230702 -2.31453 0
M  V30 632 C 64.0222 0.627793 -1.57338 0
M  V30 633 O 65.2282 0.519288 -1.72347 0
M  V30 634 H 61.6032 -0.0558577 -0.749923 0
M  V30 635 H 63.5742 -1.06332 -2.78812 0
M  V30 636 C 62.3232 0.59391 -3.4259 0
M  V30 637 H 61.6462 -0.0573588 -3.99759 0
M  V30 638 H 63.0862 0.973446 -4.12674 0
M  V30 639 C 61.5452 1.76568 -2.86924 0
M  V30 640 O 62.0752 2.8638 -2.81691 0
M  V30 641 N 60.2812 1.58198 -2.43766 0
M  V30 642 H 59.8282 0.68872 -2.48222 0
M  V30 643 H 59.7862 2.36752 -2.06871 0
M  V30 644 N 63.5583 1.46682 -0.576371 0
M  V30 645 C 64.4883 2.33028 0.148397 0
M  V30 646 C 65.4693 1.44961 0.889956 0
M  V30 647 O 66.6543 1.73789 0.866662 0
M  V30 648 C 63.7843 3.27117 1.1667 0
M  V30 649 C 62.7383 4.24575 0.540386 0
M  V30 650 C 62.0643 5.08126 1.6647 0
M  V30 651 C 63.3643 5.19722 -0.518331 0
M  V30 652 H 65.0583 2.93875 -0.572509 0
M  V30 653 H 62.6043 1.41315 -0.276768 0
M  V30 654 H 64.5573 3.86374 1.68204 0
M  V30 655 H 63.2813 2.64364 1.9178 0
M  V30 656 H 61.9403 3.66571 0.0461769 0
M  V30 657 H 61.5883 4.41762 2.40531 0
M  V30 658 H 61.2883 5.74122 1.25131 0
M  V30 659 H 62.8123 5.70246 2.18293 0
M  V30 660 H 64.2263 5.73232 -0.0883058 0
M  V30 661 H 62.6233 5.94026 -0.851679 0
M  V30 662 H 63.6933 4.64037 -1.40703 0
M  V30 663 N 65.0364 0.313813 1.54444 0
M  V30 664 C 66.2644 -0.293918 2.04802 0
M  V30 665 C 66.6794 -1.46537 1.19047 0
M  V30 666 O 66.0364 -1.81182 0.218939 0
M  V30 667 C 66.0874 -0.737806 3.53891 0
M  V30 668 O 65.8084 0.387038 4.36387 0
M  V30 669 C 67.3094 -1.40936 4.203 0
M  V30 670 H 64.5294 -0.0620057 0.668129 0
M  V30 671 H 67.0734 0.457169 1.99324 0
M  V30 672 H 65.2284 -1.43889 3.59687 0
M  V30 673 H 65.6424 0.0391274 5.24485 0
M  V30 674 H 67.1164 -1.67099 5.26101 0
M  V30 675 H 67.5934 -2.35355 3.70816 0
M  V30 676 H 68.1994 -0.751117 4.18615 0
M  V30 677 N 66.5145 -1.57545 0.0417849 0
M  V30 678 C 67.7605 -1.93424 -0.629168 0
M  V30 679 C 68.1155 -0.919564 -1.69002 0
M  V30 680 O 67.4085 0.0626178 -1.91498 0
M  V30 681 C 67.6025 -3.33794 -1.27735 0
M  V30 682 C 67.4315 -4.48822 -0.280806 0
M  V30 683 C 66.2015 -5.05148 0.123869 0
M  V30 684 C 68.3995 -5.12148 0.470012 0
M  V30 685 N 66.3815 -6.03703 1.11426 0
M  V30 686 C 67.7525 -6.05921 1.31377 0
M  V30 687 C 69.8075 -4.95078 0.529343 0
M  V30 688 C 68.5105 -6.84459 2.21152 0
M  V30 689 C 70.5365 -5.74235 1.41448 0
M  V30 690 C 69.8985 -6.67634 2.24598 0
M  V30 691 H 65.9975 -0.755418 -0.202158 0
M  V30 692 H 68.5815 -1.94378 0.111923 0
M  V30 693 H 66.7525 -3.33635 -1.98852 0
M  V30 694 H 68.4845 -3.56988 -1.90635 0
M  V30 695 H 65.2395 -4.72923 -0.253178 0
M  V30 696 H 65.6635 -6.57674 1.60607 0
M  V30 697 H 70.3055 -4.22683 -0.0992798 0
M  V30 698 H 68.0235 -7.56151 2.85063 0
M  V30 699 H 71.6095 -5.63057 1.46484 0
M  V30 700 H 70.4895 -7.27817 2.9198 0
M  V30 701 N 67.9926 0.231505 -1.5589 0
M  V30 702 C 68.9396 1.28682 -1.91598 0
M  V30 703 C 69.9096 1.47071 -0.771974 0
M  V30 704 O 71.0946 1.60802 -1.027 0
M  V30 705 C 68.2346 2.6342 -2.22944 0
M  V30 706 C 67.3476 2.52912 -3.50228 0
M  V30 707 C 66.4826 3.80106 -3.7107 0
M  V30 708 C 65.5216 3.64279 -4.91902 0
M  V30 709 N 64.6586 4.834 -5.09184 0
M  V30 710 H 69.4986 0.975305 -2.81588 0
M  V30 711 H 67.0356 0.470299 -1.39379 0
M  V30 712 H 68.9936 3.41869 -2.39126 0
M  V30 713 H 67.6236 2.92687 -1.36139 0
M  V30 714 H 66.6756 1.6595 -3.42294 0
M  V30 715 H 67.9876 2.37133 -4.38827 0
M  V30 716 H 67.1416 4.66999 -3.87295 0
M  V30 717 H 65.8806 3.98799 -2.80733 0
M  V30 718 H 64.8856 2.7577 -4.75637 0
M  V30 719 H 66.1106 3.47067 -5.83714 0
M  V30 720 H 64.0566 5.02425 -4.21788 0
M  V30 721 H 63.9736 4.70311 -5.91898 0
M  V30 722 H 65.2416 5.71747 -5.29835 0
M  V30 723 N 69.4707 1.49531 0.497807 0
M  V30 724 C 70.6957 1.63159 1.28039 0
M  V30 725 C 71.1207 0.30418 1.85624 0
M  V30 726 O 70.4787 -0.728618 1.66015 0
M  V30 727 C 70.5267 2.70537 2.38416 0
M  V30 728 O 69.6307 2.29931 3.42353 0
M  V30 729 H 68.9717 0.546001 0.377861 0
M  V30 730 H 71.5017 1.9574 0.59558 0
M  V30 731 H 71.5117 2.92802 2.84132 0
M  V30 732 H 70.1867 3.6689 1.95869 0
M  V30 733 H 68.7637 2.18009 3.02533 0
M  V30 734 N 70.9488 -0.749086 1.3866 0
M  V30 735 C 72.1768 -1.53834 1.38358 0
M  V30 736 C 72.5918 -1.88783 -0.0255219 0
M  V30 737 O 71.9488 -1.53101 -0.993292 0
M  V30 738 C 71.9998 -2.83468 2.2434 0
M  V30 739 O 71.7208 -2.50008 3.5976 0
M  V30 740 C 73.2218 -3.7758 2.32267 0
M  V30 741 H 70.4418 -0.47585 0.473083 0
M  V30 742 H 72.9858 -0.926726 1.82297 0
M  V30 743 H 71.1408 -3.40995 1.83851 0
M  V30 744 H 71.5548 -3.33182 4.05081 0
M  V30 745 H 73.0288 -4.65478 2.96706 0
M  V30 746 H 73.5058 -4.18334 1.33765 0
M  V30 747 H 74.1118 -3.25976 2.73166 0
M  V30 748 N 72.4269 -1.23603 -0.977757 0
M  V30 749 C 73.3749 -1.01704 -2.09187 0
M  V30 750 C 74.3689 0.0448214 -1.69341 0
M  V30 751 O 75.5749 -0.108902 -1.7967 0
M  V30 752 H 71.9499 -0.311803 -0.684312 0
M  V30 753 H 73.9209 -1.96207 -2.24823 0
M  V30 754 C 72.6699 -0.627746 -3.41986 0
M  V30 755 H 71.9929 -1.43656 -3.73099 0
M  V30 756 H 73.4329 -0.514053 -4.20872 0
M  V30 757 C 71.8919 0.664238 -3.30287 0
M  V30 758 O 72.4219 1.71268 -3.6336 0
M  V30 759 N 70.6279 0.641156 -2.83439 0
M  V30 760 H 70.1749 -0.212376 -2.56723 0
M  V30 761 H 70.1329 1.50583 -2.75993 0
M  V30 762 N 73.905 1.17692 -1.04816 0
M  V30 763 C 75.152 1.87859 -0.75599 0
M  V30 764 C 75.48 1.80812 0.716752 0
M  V30 765 O 74.735 1.20819 1.53952 0
M  V30 766 C 75.034 3.37462 -1.17703 0
M  V30 767 C 74.7 3.64713 -2.65133 0
M  V30 768 C 73.362 3.71859 -3.05408 0
M  V30 769 C 75.714 3.76492 -3.60421 0
M  V30 770 C 73.042 3.88271 -4.39843 0
M  V30 771 C 75.394 3.94421 -4.94585 0
M  V30 772 C 74.058 3.99806 -5.3452 0
M  V30 773 H 73.328 0.687425 -0.276636 0
M  V30 774 H 75.975 1.39255 -1.31455 0
M  V30 775 H 74.28 3.88097 -0.537395 0
M  V30 776 H 75.977 3.90109 -0.928218 0
M  V30 777 H 72.567 3.59772 -2.32942 0
M  V30 778 H 76.751 3.70295 -3.30447 0
M  V30 779 H 72.007 3.90687 -4.70291 0
M  V30 780 H 76.181 4.02477 -5.68318 0
M  V30 781 H 73.808 4.12276 -6.38696 0
M  V30 782 N 75.3831 0.828654 1.34056 0
M  V30 783 C 76.3301 0.252567 2.29414 0
M  V30 784 C 77.3001 -0.62588 1.53857 0
M  V30 785 O 78.4851 -0.566312 1.82202 0
M  V30 786 C 75.6251 -0.574831 3.40279 0
M  V30 787 C 74.7381 0.326499 4.30764 0
M  V30 788 C 73.8731 -0.511016 5.28736 0
M  V30 789 C 72.9121 0.389342 6.1086 0
M  V30 790 N 72.0491 -0.409439 7.00905 0
M  V30 791 H 76.8891 1.07108 2.78086 0
M  V30 792 H 74.4261 0.539677 1.36843 0
M  V30 793 H 76.3841 -1.06992 4.03248 0
M  V30 794 H 75.0141 -1.35841 2.92826 0
M  V30 795 H 74.0661 0.939837 3.68607 0
M  V30 796 H 75.3781 1.01857 4.88289 0
M  V30 797 H 74.5321 -1.07035 5.97184 0
M  V30 798 H 73.2711 -1.23657 4.71763 0
M  V30 799 H 72.2761 0.960769 5.4134 0
M  V30 800 H 73.5011 1.1131 6.69916 0
M  V30 801 H 71.4471 -1.11856 6.46393 0
M  V30 802 H 71.3641 0.224126 7.55668 0
M  V30 803 H 72.6321 -0.951336 7.73673 0
M  V30 804 N 76.8612 -1.46375 0.584142 0
M  V30 805 C 78.0892 -2.06761 0.0759296 0
M  V30 806 C 78.5042 -1.43266 -1.22965 0
M  V30 807 O 77.8612 -0.538458 -1.74376 0
M  V30 808 C 77.9122 -3.61375 -0.0950384 0
M  V30 809 O 77.6332 -4.22495 1.15887 0
M  V30 810 C 79.1342 -4.38693 -0.637434 0
M  V30 811 H 76.3542 -0.668479 0.0581075 0
M  V30 812 H 78.8982 -1.8798 0.805218 0
M  V30 813 H 77.0532 -3.79578 -0.774554 0
M  V30 814 H 77.4672 -5.15385 0.973598 0
M  V30 815 H 78.9412 -5.47464 -0.706237 0
M  V30 816 H 79.4182 -4.06836 -1.65472 0
M  V30 817 H 80.0242 -4.25299 0.00725967 0
M  V30 818 N 78.3393 -0.321999 -1.54275 0
M  V30 819 C 79.5883 0.281931 -1.9972 0
M  V30 820 C 79.9013 1.53369 -1.21397 0
M  V30 821 O 81.1073 2.21352 -1.57211 0
M  V30 822 C 79.5633 0.5529 -3.55628 0
M  V30 823 C 79.1713 -0.681721 -4.42783 0
M  V30 824 C 80.9153 1.11687 -4.09544 0
M  V30 825 C 78.8223 -0.382742 -5.9016 0
M  V30 826 H 77.7523 0.109124 -0.746062 0
M  V30 827 H 80.4033 -0.43398 -1.78294 0
M  V30 828 H 78.7853 1.32896 -3.73035 0
M  V30 829 H 79.9593 -1.45723 -4.37151 0
M  V30 830 H 78.2743 -1.1658 -3.99748 0
M  V30 831 H 80.8713 1.35515 -5.17242 0
M  V30 832 H 81.2143 2.06575 -3.61431 0
M  V30 833 H 81.7473 0.402032 -3.95763 0
M  V30 834 H 78.4863 -1.30076 -6.42464 0
M  V30 835 H 78.0063 0.355094 -5.98748 0
M  V30 836 H 79.6853 0.00800157 -6.47 0
M  V30 837 N 79.8174 1.5752 -0.0501392 0
M  V30 838 C 80.7474 2.14502 0.922566 0
M  V30 839 C 81.7284 1.06642 1.3252 0
M  V30 840 O 82.9134 1.34577 1.4001 0
M  V30 841 C 80.0434 2.68916 2.19776 0
M  V30 842 C 78.9974 3.8175 1.93523 0
M  V30 843 C 78.3234 4.22677 3.27487 0
M  V30 844 C 79.6234 5.06932 1.25765 0
M  V30 845 H 81.3174 2.9603 0.447952 0
M  V30 846 H 78.8634 1.42401 0.214024 0
M  V30 847 H 80.8164 3.07419 2.88222 0
M  V30 848 H 79.5404 1.84578 2.69441 0
M  V30 849 H 78.1994 3.43718 1.27489 0
M  V30 850 H 77.8474 3.35291 3.74952 0
M  V30 851 H 77.5474 4.98725 3.1072 0
M  V30 852 H 79.0714 4.63779 3.97166 0
M  V30 853 H 80.4854 5.42888 1.84244 0
M  V30 854 H 78.8824 5.88116 1.19328 0
M  V30 855 H 79.9524 4.84337 0.233536 0
M  V30 856 N 81.2955 -0.223234 1.56011 0
M  V30 857 C 82.2055 -1.29766 1.95443 0
M  V30 858 C 83.2215 -1.51373 0.858028 0
M  V30 859 O 84.3975 -1.64536 1.16146 0
M  V30 860 C 81.4625 -2.62772 2.26167 0
M  V30 861 C 80.5235 -2.49482 3.49367 0
M  V30 862 C 79.7565 -3.76145 3.78616 0
M  V30 863 O 79.9795 -4.79087 3.09568 0
M  V30 864 O 78.9135 -3.73358 4.72109 0
M  V30 865 H 82.7395 -0.99309 2.87004 0
M  V30 866 H 80.3245 -0.425958 1.43199 0
M  V30 867 H 82.2065 -3.41327 2.47131 0
M  V30 868 H 80.8815 -2.92913 1.37781 0
M  V30 869 H 79.7885 -1.69133 3.33684 0
M  V30 870 H 81.1215 -2.2428 4.38131 0
M  V30 871 N 82.7736 -1.49793 -0.48987 0
M  V30 872 C 84.0196 -1.61049 -1.24236 0
M  V30 873 C 84.3746 -0.298412 -1.90072 0
M  V30 874 O 83.6676 0.702262 -1.78266 0
M  V30 875 C 83.8616 -2.71488 -2.32441 0
M  V30 876 C 83.6906 -4.13308 -1.77218 0
M  V30 877 C 82.4606 -4.79955 -1.58023 0
M  V30 878 C 84.6586 -4.98176 -1.27772 0
M  V30 879 N 82.6406 -6.06052 -0.978465 0
M  V30 880 C 84.0116 -6.14843 -0.798 0
M  V30 881 C 86.0666 -4.84091 -1.16449 0
M  V30 882 C 84.7696 -7.18975 -0.216245 0
M  V30 883 C 86.7956 -5.88382 -0.596698 0
M  V30 884 C 86.1576 -7.04285 -0.127262 0
M  V30 885 H 82.2566 -0.643611 -0.444172 0
M  V30 886 H 84.8406 -1.86842 -0.54754 0
M  V30 887 H 83.0116 -2.47449 -2.99372 0
M  V30 888 H 84.7436 -2.72205 -2.99477 0
M  V30 889 H 81.4986 -4.36936 -1.82712 0
M  V30 890 H 81.9226 -6.73407 -0.696534 0
M  V30 891 H 86.5646 -3.94786 -1.5134 0
M  V30 892 H 84.2826 -8.0797 0.144903 0
M  V30 893 H 87.8686 -5.79545 -0.511716 0
M  V30 894 H 86.7486 -7.83606 0.30523 0
M  V30 895 N 84.2517 0.741722 -1.39055 0
M  V30 896 C 85.1617 1.88621 -1.39496 0
M  V30 897 C 86.1777 1.71557 -0.290578 0
M  V30 898 O 87.3537 1.94275 -0.530954 0
M  V30 899 C 84.4187 3.24134 -1.23037 0
M  V30 900 C 83.4797 3.5364 -2.43387 0
M  V30 901 C 82.7127 4.82687 -2.27703 0
M  V30 902 O 82.9357 5.55922 -1.27696 0
M  V30 903 O 81.8697 5.1194 -3.16545 0
M  V30 904 H 85.6957 1.91203 -2.35956 0
M  V30 905 H 83.2807 0.888625 -1.20099 0
M  V30 906 H 85.1627 4.0513 -1.15964 0
M  V30 907 H 83.8377 3.22337 -0.296691 0
M  V30 908 H 82.7447 2.72758 -2.56035 0
M  V30 909 H 84.0777 3.60209 -3.35425 0
M  V30 910 N 85.7298 1.2412 0.971189 0
M  V30 911 C 87.1408 1.07236 1.52831 0
M  V30 912 C 87.4918 -0.357352 1.92918 0
M  V30 913 O 86.6168 -1.24528 1.76979 0
M  V30 914 C 87.2118 1.94043 2.77728 0
M  V30 915 C 85.7708 1.81394 3.29808 0
M  V30 916 C 84.9178 1.89189 2.02738 0
M  V30 917 H 87.8688 1.37648 0.789864 0
M  V30 918 H 87.8898 1.47066 3.5093 0
M  V30 919 H 87.4018 2.98093 2.4852 0
M  V30 920 H 85.5028 0.801634 3.63874 0
M  V30 921 H 85.6158 2.65294 3.98944 0
M  V30 922 H 83.9798 1.32877 2.17292 0
M  V30 923 H 84.7628 2.94812 1.759 0
M  V30 924 N 87.2079 -1.17134 1.05439 0
M  V30 925 C 88.1549 -2.21235 0.657539 0
M  V30 926 C 89.1249 -1.62551 -0.341543 0
M  V30 927 O 90.3099 -1.89379 -0.232393 0
M  V30 928 C 87.4499 -3.45076 0.0410575 0
M  V30 929 C 86.5629 -4.18042 1.08927 0
M  V30 930 C 85.6979 -5.29376 0.439848 0
M  V30 931 C 84.7369 -5.94132 1.4722 0
M  V30 932 N 83.8739 -6.96975 0.846756 0
M  V30 933 H 88.7139 -2.54534 1.54972 0
M  V30 934 H 86.2509 -1.25028 0.775006 0
M  V30 935 H 88.2089 -4.15862 -0.33383 0
M  V30 936 H 86.8389 -3.12353 -0.814568 0
M  V30 937 H 85.8909 -3.45945 1.58196 0
M  V30 938 H 87.2029 -4.62306 1.87282 0
M  V30 939 H 86.3569 -6.06699 0.0115125 0
M  V30 940 H 85.0959 -4.86251 -0.375656 0
M  V30 941 H 84.1009 -5.15538 1.91052 0
M  V30 942 H 85.3259 -6.39337 2.28965 0
M  V30 943 H 83.2719 -6.5598 0.0518075 0
M  V30 944 H 83.1889 -7.39565 1.5678 0
M  V30 945 H 84.4569 -7.78239 0.443277 0
M  V30 946 N 88.686 -0.835752 -1.33615 0
M  V30 947 C 90.097 -0.487099 -1.80234 0
M  V30 948 C 90.448 0.993627 -1.69179 0
M  V30 949 O 89.573 1.77403 -1.23924 0
M  V30 950 C 90.168 -0.877385 -3.27242 0
M  V30 951 C 88.727 -0.580915 -3.7189 0
M  V30 952 C 87.874 -1.0874 -2.5509 0
M  V30 953 H 90.825 -1.02474 -1.2118 0
M  V30 954 H 90.846 -0.186195 -3.80044 0
M  V30 955 H 90.358 -1.95512 -3.35256 0
M  V30 956 H 88.459 0.486881 -3.69405 0
M  V30 957 H 88.572 -1.13396 -4.65487 0
M  V30 958 H 86.936 -0.508392 -2.49575 0
M  V30 959 H 87.719 -2.17184 -2.65868 0
M  V30 960 N 90.1641 1.46063 -0.591896 0
M  V30 961 C 91.4101 2.02638 -0.0811191 0
M  V30 962 C 91.7431 1.4613 1.27905 0
M  V30 963 O 91.0181 0.629908 1.84017 0
M  V30 964 C 91.3011 3.60091 -0.0252436 0
M  V30 965 C 91.1541 4.26965 -1.41496 0
M  V30 966 C 92.4731 4.3496 0.670685 0
M  V30 967 H 89.5921 0.73635 -0.0309524 0
M  V30 968 H 92.2341 1.741 -0.760859 0
M  V30 969 H 90.3841 3.84535 0.553624 0
M  V30 970 H 92.0561 4.13756 -2.0397 0
M  V30 971 H 90.2991 3.85971 -1.98011 0
M  V30 972 H 90.9701 5.35781 -1.32825 0
M  V30 973 H 93.4461 4.15716 0.178825 0
M  V30 974 H 92.3221 5.44686 0.678837 0
M  V30 975 H 92.5831 4.06685 1.73379 0
M  V30 976 N 91.6422 0.330177 1.54103 0
M  V30 977 C 92.5902 -0.548226 2.26047 0
M  V30 978 C 93.5842 -1.11309 1.27698 0
M  V30 979 O 94.7902 -1.06036 1.45452 0
M  V30 980 H 91.1652 -0.195456 0.726155 0
M  V30 981 H 93.1362 0.0807567 2.98291 0
M  V30 982 C 91.8852 -1.69415 3.03634 0
M  V30 983 H 91.2082 -1.26876 3.79134 0
M  V30 984 H 92.6482 -2.28423 3.5721 0
M  V30 985 C 91.1072 -2.61569 2.12328 0
M  V30 986 O 91.6372 -3.63462 1.7105 0
M  V30 987 N 89.8432 -2.29952 1.77681 0
M  V30 988 H 89.3902 -1.47134 2.11446 0
M  V30 989 H 89.3482 -2.91871 1.16869 0
M  V30 990 N 93.1203 -1.57491 0.0584922 0
M  V30 991 C 94.0523 -2.08916 -0.942694 0
M  V30 992 C 95.0653 -1.0185 -1.27006 0
M  V30 993 O 96.2543 -1.29398 -1.22957 0
M  V30 994 C 93.3543 -2.52341 -2.26224 0
M  V30 995 C 92.5273 -3.82827 -2.1157 0
M  V30 996 C 91.5863 -4.12487 -3.26712 0
M  V30 997 O 90.6123 -4.82295 -3.02292 0
M  V30 998 N 91.8143 -3.64978 -4.5141 0
M  V30 999 H 94.5793 -2.95437 -0.503722 0
M  V30 1000 H 92.1403 -1.61397 -0.12757 0
M  V30 1001 H 94.1323 -2.69254 -3.02133 0
M  V30 1002 H 92.7023 -1.7103 -2.61663 0
M  V30 1003 H 91.9223 -3.75425 -1.20208 0
M  V30 1004 H 93.2103 -4.68263 -1.99015 0
M  V30 1005 H 92.6083 -3.08558 -4.7414 0
M  V30 1006 H 91.1653 -3.87115 -5.2439 0
M  V30 1007 N 94.5984 0.214957 -1.56127 0
M  V30 1008 C 95.8444 0.939762 -1.79712 0
M  V30 1009 C 96.1774 1.83723 -0.629247 0
M  V30 1010 O 95.4524 1.90925 0.371197 0
M  V30 1011 C 95.7354 1.77306 -3.13424 0
M  V30 1012 C 95.5884 0.90164 -4.40671 0
M  V30 1013 C 96.9074 2.74956 -3.43638 0
M  V30 1014 H 94.0264 0.340214 -0.653776 0
M  V30 1015 H 96.6684 0.20824 -1.88855 0
M  V30 1016 H 94.8184 2.39673 -3.0576 0
M  V30 1017 H 96.4904 0.294206 -4.60361 0
M  V30 1018 H 94.7334 0.207368 -4.33304 0
M  V30 1019 H 95.4044 1.51923 -5.30682 0
M  V30 1020 H 97.8804 2.22724 -3.51473 0
M  V30 1021 H 96.7564 3.30358 -4.38355 0
M  V30 1022 H 97.0174 3.53023 -2.66134 0
M  V30 1023 N 96.0765 1.50051 0.48192 0
M  V30 1024 C 97.3065 1.63999 1.2565 0
M  V30 1025 C 97.7145 0.318288 1.86504 0
M  V30 1026 O 97.0575 -0.708534 1.69486 0
M  V30 1027 C 97.1195 2.66504 2.4128 0
M  V30 1028 C 96.7835 4.10352 2.01148 0
M  V30 1029 C 97.7805 4.96562 1.54021 0
M  V30 1030 C 95.4655 4.56203 2.10199 0
M  V30 1031 C 97.4595 6.26668 1.16473 0
M  V30 1032 C 95.1465 5.86318 1.72264 0
M  V30 1033 C 96.1445 6.71375 1.25477 0
M  V30 1034 O 95.8325 7.99062 0.880626 0
M  V30 1035 H 95.5645 0.55456 0.386574 0
M  V30 1036 H 98.1185 1.96954 0.582944 0
M  V30 1037 H 96.3485 2.28769 3.11772 0
M  V30 1038 H 98.0375 2.69783 3.03268 0
M  V30 1039 H 98.8035 4.62358 1.46458 0
M  V30 1040 H 94.6825 3.90152 2.45566 0
M  V30 1041 H 98.2265 6.93011 0.798841 0
M  V30 1042 H 94.1235 6.20046 1.79482 0
M  V30 1043 H 94.8915 8.12239 1.01043 0
M  V30 1044 N 97.5546 -0.734337 1.39446 0
M  V30 1045 C 98.7826 -1.52358 1.39981 0
M  V30 1046 C 99.1976 -1.88799 -0.0054975 0
M  V30 1047 O 98.5546 -1.54146 -0.976998 0
M  V30 1048 C 98.6056 -2.81072 2.27333 0
M  V30 1049 O 98.3266 -2.46178 3.62392 0
M  V30 1050 C 99.8276 -3.75096 2.36259 0
M  V30 1051 H 97.0476 -0.470806 0.478103 0
M  V30 1052 H 99.5916 -0.907339 1.83269 0
M  V30 1053 H 97.7466 -3.39026 1.87457 0
M  V30 1054 H 98.1606 -3.28866 4.08592 0
M  V30 1055 H 99.6346 -4.62305 3.01626 0
M  V30 1056 H 100.112 -4.16892 1.38194 0
M  V30 1057 H 100.718 -3.23061 2.76608 0
M  V30 1058 N 99.0327 -1.24633 -0.964593 0
M  V30 1059 C 100.279 -1.08949 -1.71049 0
M  V30 1060 C 100.612 0.370302 -1.90637 0
M  V30 1061 O 99.8867 1.27349 -1.47011 0
M  V30 1062 C 100.17 -1.83329 -3.0994 0
M  V30 1063 C 100.023 -3.37077 -2.97824 0
M  V30 1064 C 101.342 -1.60846 -4.09654 0
M  V30 1065 H 98.4607 -0.397178 -0.620821 0
M  V30 1066 H 101.103 -1.5334 -1.12191 0
M  V30 1067 H 99.2527 -1.45597 -3.60186 0
M  V30 1068 H 100.925 -3.84425 -2.5498 0
M  V30 1069 H 99.1677 -3.65298 -2.33965 0
M  V30 1070 H 99.8387 -3.84324 -3.96231 0
M  V30 1071 H 102.315 -1.93674 -3.68279 0
M  V30 1072 H 101.191 -2.1534 -5.04896 0
M  V30 1073 H 101.452 -0.547434 -4.38698 0
M  V30 1074 N 100.511 1.16574 -1.06058 0
M  V30 1075 C 101.443 2.2045 -0.627239 0
M  V30 1076 C 102.456 1.59752 0.313534 0
M  V30 1077 O 103.645 1.78192 0.104896 0
M  V30 1078 C 100.745 3.3875 0.100974 0
M  V30 1079 C 99.9178 4.29008 -0.852687 0
M  V30 1080 C 98.9768 5.25944 -0.164152 0
M  V30 1081 O 98.0028 5.63535 -0.801047 0
M  V30 1082 N 99.2048 5.70075 1.09518 0
M  V30 1083 H 101.97 2.58249 -1.52077 0
M  V30 1084 H 99.5308 1.3156 -0.943594 0
M  V30 1085 H 101.523 4.00638 0.57194 0
M  V30 1086 H 100.093 2.99476 0.89628 0
M  V30 1087 H 99.3128 3.64419 -1.50308 0
M  V30 1088 H 100.601 4.86195 -1.49972 0
M  V30 1089 H 99.9988 5.41624 1.6328 0
M  V30 1090 H 98.5558 6.34067 1.51006 0
M  V30 1091 N 101.989 0.842826 1.3317 0
M  V30 1092 C 103.238 0.436738 1.96915 0
M  V30 1093 C 103.551 -1.01025 1.67491 0
M  V30 1094 O 104.757 -1.5212 2.24881 0
M  V30 1095 C 103.213 0.730021 3.52418 0
M  V30 1096 C 102.821 2.19195 3.90714 0
M  V30 1097 C 104.565 0.391076 4.22695 0
M  V30 1098 C 102.472 2.42907 5.39212 0
M  V30 1099 H 101.402 0.15958 0.736919 0
M  V30 1100 H 104.053 1.03196 1.51733 0
M  V30 1101 H 102.435 0.0643755 3.95948 0
M  V30 1102 H 103.609 2.8984 3.58231 0
M  V30 1103 H 101.924 2.49425 3.33431 0
M  V30 1104 H 104.521 0.545817 5.31907 0
M  V30 1105 H 104.864 -0.666294 4.10933 0
M  V30 1106 H 105.397 1.01212 3.84709 0
M  V30 1107 H 102.136 3.47224 5.55982 0
M  V30 1108 H 101.656 1.76827 5.73142 0
M  V30 1109 H 103.335 2.2626 6.06148 0
M  V30 1110 N 103.467 -1.45747 0.599634 0
M  V30 1111 C 104.692 -2.07178 0.0960198 0
M  V30 1112 C 105.117 -1.44268 -1.207 0
M  V30 1113 O 104.475 -0.532503 -1.73303 0
M  V30 1114 C 104.523 -3.60579 -0.0385348 0
M  V30 1115 O 103.627 -3.97713 -1.0908 0
M  V30 1116 H 102.968 -0.660251 0.0704593 0
M  V30 1117 H 105.498 -1.87124 0.827385 0
M  V30 1118 H 105.508 -4.07298 -0.239304 0
M  V30 1119 H 104.183 -4.05756 0.912947 0
M  V30 1120 H 102.76 -3.62678 -0.867135 0
M  V30 1121 N 104.945 -0.338344 -1.53925 0
M  V30 1122 C 106.173 0.261298 -2.05243 0
M  V30 1123 C 106.588 1.44625 -1.21363 0
M  V30 1124 O 105.945 1.80811 -0.247736 0
M  V30 1125 C 105.996 0.681412 -3.5502 0
M  V30 1126 O 105.717 -0.456414 -4.35716 0
M  V30 1127 C 107.218 1.34232 -4.22489 0
M  V30 1128 H 104.438 0.0513685 -0.669031 0
M  V30 1129 H 106.982 -0.488822 -1.98572 0
M  V30 1130 H 105.137 1.38148 -3.61931 0
M  V30 1131 H 105.551 -0.122564 -5.24357 0
M  V30 1132 H 107.025 1.58708 -5.28693 0
M  V30 1133 H 107.502 2.29426 -3.74514 0
M  V30 1134 H 108.108 0.684424 -4.19757 0
M  V30 1135 N 106.423 1.57458 -0.0668435 0
M  V30 1136 C 107.37 2.12439 0.902122 0
M  V30 1137 C 108.34 1.03565 1.2986 0
M  V30 1138 O 109.525 1.312 1.38532 0
M  V30 1139 C 106.665 2.6865 2.16614 0
M  V30 1140 C 105.778 3.91663 1.82274 0
M  V30 1141 C 104.913 4.36134 3.0325 0
M  V30 1142 C 103.952 5.51808 2.64904 0
M  V30 1143 N 103.089 5.9126 3.78624 0
M  V30 1144 H 107.929 2.94934 0.426382 0
M  V30 1145 H 105.466 1.4575 0.198819 0
M  V30 1146 H 107.424 2.99346 2.90599 0
M  V30 1147 H 106.054 1.88928 2.61737 0
M  V30 1148 H 105.106 3.6746 0.983719 0
M  V30 1149 H 106.418 4.75693 1.50059 0
M  V30 1150 H 105.572 4.68465 3.85519 0
M  V30 1151 H 104.311 3.50948 3.38655 0
M  V30 1152 H 103.316 5.19133 1.81055 0
M  V30 1153 H 104.541 6.38722 2.30675 0
M  V30 1154 H 102.487 5.09024 4.138 0
M  V30 1155 H 102.404 6.70018 3.5016 0
M  V30 1156 H 103.672 6.28212 4.61486 0
M  V30 1157 N 107.901 -0.206675 1.56239 0
M  V30 1158 C 109.126 -0.949474 1.8439 0
M  V30 1159 C 109.551 -1.76549 0.649016 0
M  V30 1160 O 108.909 -1.76782 -0.402231 0
M  V30 1161 C 108.957 -1.83078 3.10668 0
M  V30 1162 O 108.061 -2.9281 2.90407 0
M  V30 1163 H 107.402 -0.268033 0.607499 0
M  V30 1164 H 109.932 -0.215488 2.03462 0
M  V30 1165 H 109.942 -2.2377 3.41161 0
M  V30 1166 H 108.617 -1.23112 3.97261 0
M  V30 1167 H 107.194 -2.55956 2.71184 0
M  V30 1168 N 109.379 -1.50304 -0.473955 0
M  V30 1169 C 110.627 -1.60832 -1.22382 0
M  V30 1170 C 110.948 -0.30939 -1.9253 0
M  V30 1171 O 110.218 0.67296 -1.83978 0
M  V30 1172 H 108.798 -0.592652 -0.454723 0
M  V30 1173 H 111.46 -1.87068 -0.546968 0
M  V30 1174 H 110.556 -2.41803 -1.97327 0
M  V30 1175 N 110.857 0.726932 -1.39834 0
M  V30 1176 C 112.134 1.47902 -1.28001 0
M  V30 1177 C 112.514 2.1083 0.106789 0
M  V30 1178 O 111.862 1.99242 1.11869 0
M  V30 1179 C 112.072 2.52392 -2.41038 0
M  V30 1180 C 113.42 3.18546 -2.80737 0
M  V30 1181 O 114.444 2.62708 -2.40547 0
M  V30 1182 O 113.303 4.19604 -3.50135 0
M  V30 1183 H 110.397 0.657163 -0.502062 0
M  V30 1184 H 112.943 0.760071 -1.51727 0
M  V30 1185 H 111.715 2.04329 -3.33715 0
M  V30 1186 H 111.338 3.31837 -2.19021 0
M  V30 1187 N 112.336 1.25143 0.95797 0
M  V30 1188 C 113.582 1.10863 1.70531 0
M  V30 1189 C 113.937 -0.347391 1.89238 0
M  V30 1190 O 113.23 -1.25262 1.44983 0
M  V30 1191 C 113.424 1.79272 3.09187 0
M  V30 1192 C 113.253 3.31376 3.04006 0
M  V30 1193 C 112.023 4.0062 3.07948 0
M  V30 1194 C 114.221 4.27825 2.8543 0
M  V30 1195 N 112.203 5.39526 2.9289 0
M  V30 1196 C 113.574 5.53794 2.78769 0
M  V30 1197 C 115.629 4.1828 2.70085 0
M  V30 1198 C 114.332 6.7131 2.58331 0
M  V30 1199 C 116.358 5.35485 2.51017 0
M  V30 1200 C 115.72 6.60393 2.45073 0
M  V30 1201 H 111.819 0.460362 0.632132 0
M  V30 1202 H 114.403 1.58196 1.13499 0
M  V30 1203 H 112.574 1.34439 3.64391 0
M  V30 1204 H 114.306 1.57764 3.72683 0
M  V30 1205 H 111.061 3.51855 3.17009 0
M  V30 1206 H 111.485 6.12416 2.88574 0
M  V30 1207 H 116.127 3.22461 2.73457 0
M  V30 1208 H 113.845 7.67243 2.53701 0
M  V30 1209 H 117.431 5.29959 2.40073 0
M  V30 1210 H 116.311 7.49557 2.30509 0
M  V30 1211 N 113.814 -1.1601 1.06675 0
M  V30 1212 C 114.761 -2.20525 0.680967 0
M  V30 1213 C 115.731 -1.62904 -0.324283 0
M  V30 1214 O 116.916 -1.89615 -0.212294 0
M  V30 1215 C 114.056 -3.45013 0.0776551 0
M  V30 1216 C 113.169 -4.16863 1.13355 0
M  V30 1217 C 112.304 -5.2888 0.49597 0
M  V30 1218 C 111.343 -5.92537 1.53513 0
M  V30 1219 N 110.48 -6.96038 0.920631 0
M  V30 1220 H 115.32 -2.52876 1.57663 0
M  V30 1221 H 112.857 -1.24199 0.788223 0
M  V30 1222 H 114.815 -4.16193 -0.289704 0
M  V30 1223 H 113.445 -3.132 -0.781393 0
M  V30 1224 H 112.497 -3.44248 1.61857 0
M  V30 1225 H 113.809 -4.60294 1.92174 0
M  V30 1226 H 112.963 -6.06653 0.0758604 0
M  V30 1227 H 111.702 -4.86622 -0.324062 0
M  V30 1228 H 110.707 -5.13482 1.9651 0
M  V30 1229 H 111.932 -6.36873 2.35733 0
M  V30 1230 H 109.878 -6.55888 0.12138 0
M  V30 1231 H 109.795 -7.3786 1.64616 0
M  V30 1232 H 111.063 -7.77725 0.525795 0
M  V30 1233 N 115.292 -0.849877 -1.32721 0
M  V30 1234 C 116.517 -0.463856 -2.02146 0
M  V30 1235 C 116.942 0.930449 -1.63476 0
M  V30 1236 O 116.3 1.61033 -0.832952 0
M  V30 1237 C 116.348 -0.604955 -3.55489 0
M  V30 1238 O 115.452 0.36425 -4.10788 0
M  V30 1239 H 114.793 -0.187046 -0.637111 0
M  V30 1240 H 117.323 -1.14775 -1.69375 0
M  V30 1241 H 117.333 -0.490696 -4.05038 0
M  V30 1242 H 116.008 -1.62174 -3.82978 0
M  V30 1243 H 114.585 0.206628 -3.72327 0
M  V30 1244 N 116.77 1.45427 -0.607355 0
M  V30 1245 C 117.717 2.3053 0.111625 0
M  V30 1246 C 118.687 1.4209 0.860216 0
M  V30 1247 O 119.872 1.71019 0.845998 0
M  V30 1248 C 117.012 3.26992 1.10319 0
M  V30 1249 C 116.125 4.30535 0.355493 0
M  V30 1250 C 115.26 5.14105 1.33676 0
M  V30 1251 C 114.299 6.09376 0.576862 0
M  V30 1252 N 113.436 6.85727 1.5074 0
M  V30 1253 H 118.276 2.91477 -0.620093 0
M  V30 1254 H 115.813 1.43631 -0.317594 0
M  V30 1255 H 117.771 3.81385 1.6912 0
M  V30 1256 H 116.401 2.67799 1.80232 0
M  V30 1257 H 115.453 3.78805 -0.348023 0
M  V30 1258 H 116.765 4.98235 -0.237423 0
M  V30 1259 H 115.919 5.72897 1.99684 0
M  V30 1260 H 114.658 4.46423 1.9636 0
M  V30 1261 H 113.663 5.49715 -0.0968519 0
M  V30 1262 H 114.888 6.79085 -0.0449341 0
M  V30 1263 H 112.834 6.20735 2.12189 0
M  V30 1264 H 112.751 7.49778 0.967913 0
M  V30 1265 H 114.019 7.4906 2.15706 0
M  V30 1266 N 118.248 0.346503 1.53744 0
M  V30 1267 C 119.488 -0.249413 2.02873 0
M  V30 1268 C 119.852 -1.47532 1.22876 0
M  V30 1269 O 121.053 -2.1456 1.61918 0
M  V30 1270 C 119.324 -0.552909 3.53097 0
M  V30 1271 S 120.883 -1.12521 4.24128 0
M  V30 1272 H 117.701 -0.074042 0.707134 0
M  V30 1273 H 120.303 0.48495 1.8939 0
M  V30 1274 H 119.007 0.347083 4.0893 0
M  V30 1275 H 118.538 -1.31686 3.70705 0
M  V30 1276 H 120.553 -2.41075 4.33702 0
M  V30 1277 N 119.726 -1.57421 0.075193 0
M  V30 1278 C 120.973 -1.93618 -0.593146 0
M  V30 1279 C 121.301 -0.955484 -1.69413 0
M  V30 1280 O 120.556 0.0283251 -1.9568 0
M  V30 1281 C 120.855 -3.36428 -1.20626 0
M  V30 1282 C 120.521 -4.50307 -0.231078 0
M  V30 1283 C 119.183 -4.81186 0.0371936 0
M  V30 1284 C 121.535 -5.19374 0.435888 0
M  V30 1285 C 118.863 -5.78466 0.979461 0
M  V30 1286 C 121.215 -6.17665 1.3665 0
M  V30 1287 C 119.879 -6.46958 1.6432 0
M  V30 1288 H 119.149 -0.708499 -0.217047 0
M  V30 1289 H 121.796 -1.90937 0.146793 0
M  V30 1290 H 120.101 -3.35592 -2.02201 0
M  V30 1291 H 121.798 -3.61727 -1.73073 0
M  V30 1292 H 118.388 -4.26227 -0.450357 0
M  V30 1293 H 122.572 -4.95711 0.241748 0
M  V30 1294 H 117.828 -5.99487 1.20106 0
M  V30 1295 H 122.002 -6.70284 1.88924 0
M  V30 1296 H 119.629 -7.2215 2.37494 0
M  V30 1297 N 121.204 0.198386 -1.56346 0
M  V30 1298 C 122.434 0.934215 -1.84271 0
M  V30 1299 C 122.842 1.77496 -0.655125 0
M  V30 1300 O 122.185 1.7961 0.385488 0
M  V30 1301 C 122.247 1.88278 -3.06254 0
M  V30 1302 C 121.911 1.22431 -4.40295 0
M  V30 1303 C 122.908 0.602839 -5.16393 0
M  V30 1304 C 120.593 1.22915 -4.87029 0
M  V30 1305 C 122.587 -0.0050083 -6.374 0
M  V30 1306 C 120.274 0.617465 -6.07973 0
M  V30 1307 C 121.272 0.00146341 -6.83 0
M  V30 1308 O 120.96 -0.600642 -8.01653 0
M  V30 1309 H 120.692 0.278245 -0.616081 0
M  V30 1310 H 123.246 0.211626 -2.04307 0
M  V30 1311 H 121.476 2.64498 -2.82095 0
M  V30 1312 H 123.165 2.48612 -3.20853 0
M  V30 1313 H 123.931 0.591265 -4.81382 0
M  V30 1314 H 119.81 1.69801 -4.28589 0
M  V30 1315 H 123.354 -0.48643 -6.95902 0
M  V30 1316 H 119.251 0.62653 -6.42452 0
M  V30 1317 H 120.019 -0.497225 -8.16988 0
M  V30 1318 N 122.682 1.50554 0.465978 0
M  V30 1319 C 123.91 1.65563 1.24083 0
M  V30 1320 C 124.325 0.341051 1.85694 0
M  V30 1321 O 123.682 -0.677543 1.69457 0
M  V30 1322 C 123.733 2.75051 2.34583 0
M  V30 1323 O 123.454 4.01413 1.75497 0
M  V30 1324 C 124.955 3.01078 3.25372 0
M  V30 1325 H 122.175 0.55638 0.375077 0
M  V30 1326 H 124.719 1.96807 0.555624 0
M  V30 1327 H 122.874 2.46486 2.9887 0
M  V30 1328 H 123.288 4.62002 2.48303 0
M  V30 1329 H 124.762 3.81339 3.99105 0
M  V30 1330 H 125.239 2.12349 3.84453 0
M  V30 1331 H 125.845 3.31194 2.66816 0
M  V30 1332 N 124.16 -0.719506 1.40217 0
M  V30 1333 C 125.388 -1.50864 1.41589 0
M  V30 1334 C 125.803 -1.88794 0.0145275 0
M  V30 1335 O 125.16 -1.55174 -0.960594 0
M  V30 1336 C 125.211 -2.78646 2.30302 0
M  V30 1337 O 124.932 -2.42321 3.64983 0
M  V30 1338 C 126.433 -3.72569 2.40224 0
M  V30 1339 H 123.653 -0.465709 0.48307 0
M  V30 1340 H 126.197 -0.88785 1.84221 0
M  V30 1341 H 124.352 -3.37019 1.91042 0
M  V30 1342 H 124.766 -3.24514 4.12057 0
M  V30 1343 H 126.24 -4.5908 3.06512 0
M  V30 1344 H 126.717 -4.15403 1.42608 0
M  V30 1345 H 127.323 -3.20109 2.80019 0
M  V30 1346 N 125.638 -1.25649 -0.95132 0
M  V30 1347 C 126.915 -1.01361 -1.67288 0
M  V30 1348 C 127.295 0.459135 -2.06046 0
M  V30 1349 O 126.643 1.43723 -1.7764 0
M  V30 1350 C 126.853 -1.95256 -2.89268 0
M  V30 1351 C 128.201 -2.23289 -3.61147 0
M  V30 1352 O 129.225 -1.93041 -2.99355 0
M  V30 1353 O 128.084 -2.74741 -4.72419 0
M  V30 1354 H 125.178 -0.38464 -0.732107 0
M  V30 1355 H 127.724 -1.36817 -1.00395 0
M  V30 1356 H 126.496 -2.94685 -2.57442 0
M  V30 1357 H 126.119 -1.60218 -3.6389 0
M  V30 1358 N 127.117 1.15442 -1.07289 0
M  V30 1359 C 128.345 1.90096 -0.81676 0
M  V30 1360 C 128.76 1.7798 0.629966 0
M  V30 1361 O 128.117 1.1313 1.43206 0
M  V30 1362 C 128.168 3.40466 -1.21512 0
M  V30 1363 O 127.889 3.52232 -2.60508 0
M  V30 1364 C 129.39 4.32145 -0.988198 0
M  V30 1365 H 126.61 0.602495 -0.295366 0
M  V30 1366 H 129.154 1.4627 -1.42918 0
M  V30 1367 H 127.309 3.81958 -0.647039 0
M  V30 1368 H 127.723 4.45549 -2.76742 0
M  V30 1369 H 129.197 5.36072 -1.31645 0
M  V30 1370 H 129.674 4.39135 0.0755063 0
M  V30 1371 H 130.28 3.96395 -1.54115 0
M  V30 1372 N 128.595 0.856903 1.32268 0
M  V30 1373 C 129.505 0.306131 2.32594 0
M  V30 1374 C 130.521 -0.577209 1.64147 0
M  V30 1375 O 131.697 -0.477043 1.95669 0
M  V30 1376 C 128.762 -0.494561 3.43154 0
M  V30 1377 C 127.823 0.415186 4.27288 0
M  V30 1378 C 127.056 -0.347387 5.32568 0
M  V30 1379 O 127.279 -1.57708 5.48165 0
M  V30 1380 O 126.213 0.287982 6.01211 0
M  V30 1381 H 130.039 1.13737 2.81598 0
M  V30 1382 H 127.624 0.619902 1.35932 0
M  V30 1383 H 129.506 -0.948944 4.10576 0
M  V30 1384 H 128.181 -1.30257 2.96336 0
M  V30 1385 H 127.088 0.917793 3.62667 0
M  V30 1386 H 128.421 1.18844 4.77637 0
M  V30 1387 N 130.073 -1.45103 0.615059 0
M  V30 1388 C 131.313 -2.04069 0.116282 0
M  V30 1389 C 131.677 -1.4721 -1.2326 0
M  V30 1390 O 132.878 -1.97577 -1.82255 0
M  V30 1391 C 131.149 -3.57298 0.085482 0
M  V30 1392 S 132.708 -4.37394 -0.351015 0
M  V30 1393 H 129.526 -0.709006 0.0532183 0
M  V30 1394 H 132.128 -1.77709 0.81484 0
M  V30 1395 H 130.832 -3.9619 1.0706 0
M  V30 1396 H 130.363 -3.88244 -0.634835 0
M  V30 1397 H 132.378 -4.69734 -1.59889 0
M  V30 1398 N 131.551 -0.354651 -1.53558 0
M  V30 1399 C 132.828 0.294281 -1.93374 0
M  V30 1400 C 133.208 1.67313 -1.28723 0
M  V30 1401 O 132.556 2.24179 -0.442247 0
M  V30 1402 C 132.766 0.355445 -3.47185 0
M  V30 1403 C 134.114 0.601007 -4.20325 0
M  V30 1404 O 135.138 0.437106 -3.53508 0
M  V30 1405 O 133.997 0.919322 -5.38712 0
M  V30 1406 H 131.091 0.174033 -0.808481 0
M  V30 1407 H 133.637 -0.406638 -1.64756 0
M  V30 1408 H 132.409 -0.611729 -3.86489 0
M  V30 1409 H 132.032 1.1027 -3.82003 0
M  V30 1410 N 133.029 1.57378 -0.0835403 0
M  V30 1411 C 133.959 2.1641 0.87686 0
M  V30 1412 C 134.94 1.09429 1.30228 0
M  V30 1413 O 136.125 1.37516 1.37124 0
M  V30 1414 C 133.255 2.73517 2.14022 0
M  V30 1415 C 132.209 3.85769 1.85381 0
M  V30 1416 C 131.535 4.29529 3.18448 0
M  V30 1417 C 132.835 5.09486 1.14984 0
M  V30 1418 H 134.529 2.96914 0.385059 0
M  V30 1419 H 132.075 1.42823 0.18377 0
M  V30 1420 H 134.028 3.13463 2.81636 0
M  V30 1421 H 132.752 1.90252 2.65465 0
M  V30 1422 H 131.411 3.46345 1.20169 0
M  V30 1423 H 131.059 3.43169 3.67755 0
M  V30 1424 H 130.759 5.05204 3.00071 0
M  V30 1425 H 132.283 4.72099 3.8724 0
M  V30 1426 H 133.697 5.46674 1.72687 0
M  V30 1427 H 132.094 5.90515 1.06826 0
M  V30 1428 H 133.164 4.84724 0.130749 0
M  V30 1429 N 134.507 -0.190092 1.56449 0
M  V30 1430 C 135.735 -0.925772 1.85033 0
M  V30 1431 C 136.15 -1.76638 0.666658 0
M  V30 1432 O 135.507 -1.78822 -0.364565 0
M  V30 1433 C 135.558 -1.81786 3.12468 0
M  V30 1434 O 135.279 -1.01118 4.26271 0
M  V30 1435 C 136.78 -2.6648 3.54265 0
M  V30 1436 H 134 -0.269872 0.614337 0
M  V30 1437 H 136.544 -0.195837 2.0356 0
M  V30 1438 H 134.699 -2.50136 2.95822 0
M  V30 1439 H 135.113 -1.61956 4.98869 0
M  V30 1440 H 136.587 -3.24722 4.46385 0
M  V30 1441 H 137.064 -3.40434 2.77491 0
M  V30 1442 H 137.67 -2.03493 3.73458 0
M  V30 1443 N 135.985 -1.50799 -0.457987 0
M  V30 1444 C 137.262 -1.52968 -1.21902 0
M  V30 1445 C 137.642 -0.281906 -2.09209 0
M  V30 1446 O 136.99 0.734076 -2.16388 0
M  V30 1447 C 137.2 -2.8326 -2.03875 0
M  V30 1448 C 138.548 -3.34425 -2.6162 0
M  V30 1449 O 139.572 -2.8467 -2.14106 0
M  V30 1450 O 138.431 -4.21188 -3.48228 0
M  V30 1451 H 135.525 -0.614129 -0.553873 0
M  V30 1452 H 138.071 -1.63098 -0.468739 0
M  V30 1453 H 136.843 -3.65543 -1.39621 0
M  V30 1454 H 136.466 -2.76195 -2.8601 0
M  V30 1455 N 137.463 0.71206 -1.40597 0
M  V30 1456 C 138.373 1.8562 -1.43466 0
M  V30 1457 C 139.389 1.70902 -0.326902 0
M  V30 1458 O 140.565 1.93105 -0.572043 0
M  V30 1459 C 137.63 3.21451 -1.29884 0
M  V30 1460 C 136.691 3.48398 -2.50833 0
M  V30 1461 C 135.924 4.77749 -2.3789 0
M  V30 1462 O 136.147 5.53089 -1.39459 0
M  V30 1463 O 135.081 5.05111 -3.27333 0
M  V30 1464 H 138.907 1.86155 -2.39958 0
M  V30 1465 H 136.492 0.86295 -1.21957 0
M  V30 1466 H 138.374 4.02579 -1.24531 0
M  V30 1467 H 137.049 3.21636 -0.364997 0
M  V30 1468 H 135.956 2.67265 -2.61763 0
M  V30 1469 H 137.289 3.53014 -3.4299 0
M  V30 1470 N 138.941 1.26152 0.944643 0
M  V30 1471 C 140.19 1.10883 1.68487 0
M  V30 1472 C 140.503 -0.348153 1.92477 0
M  V30 1473 O 141.709 -0.621459 2.64292 0
M  V30 1474 C 140.165 1.93624 3.03377 0
M  V30 1475 C 139.773 3.43875 2.87148 0
M  V30 1476 C 141.517 1.86954 3.81115 0
M  V30 1477 C 139.424 4.18875 4.1749 0
M  V30 1478 H 138.354 0.41135 0.631907 0
M  V30 1479 H 141.005 1.50433 1.05082 0
M  V30 1480 H 139.387 1.46904 3.67743 0
M  V30 1481 H 140.561 3.98338 2.31653 0
M  V30 1482 H 138.876 3.51744 2.22856 0
M  V30 1483 H 141.473 2.40275 4.77673 0
M  V30 1484 H 141.816 0.839518 4.07747 0
M  V30 1485 H 142.349 2.31477 3.23517 0
M  V30 1486 H 139.088 5.22332 3.96043 0
M  V30 1487 H 138.608 3.69193 4.72712 0
M  V30 1488 H 140.287 4.27134 4.85968 0
M  V30 1489 N 140.419 -1.14872 1.07899 0
M  V30 1490 C 141.665 -1.86064 0.806725 0
M  V30 1491 C 141.998 -1.82434 -0.665706 0
M  V30 1492 O 141.273 -1.25138 -1.48899 0
M  V30 1493 C 141.556 -3.34929 1.32267 0
M  V30 1494 C 141.409 -3.47161 2.86006 0
M  V30 1495 C 142.728 -4.29863 0.943717 0
M  V30 1496 H 139.847 -0.675591 0.294526 0
M  V30 1497 H 142.489 -1.34925 1.33773 0
M  V30 1498 H 140.639 -3.78611 0.870974 0
M  V30 1499 H 142.311 -3.12302 3.39507 0
M  V30 1500 H 140.554 -2.88539 3.23925 0
M  V30 1501 H 141.225 -4.51777 3.17177 0
M  V30 1502 H 143.701 -3.9417 1.33302 0
M  V30 1503 H 142.577 -5.32494 1.33198 0
M  V30 1504 H 142.838 -4.41846 -0.149796 0
M  V30 1505 N 141.898 -0.863906 -1.31812 0
M  V30 1506 C 142.845 -0.313303 -2.28664 0
M  V30 1507 C 143.815 0.584868 -1.55462 0
M  V30 1508 O 145 0.517805 -1.83639 0
M  V30 1509 C 142.14 0.48441 -3.41683 0
M  V30 1510 C 141.253 -0.440594 -4.29747 0
M  V30 1511 C 140.388 0.370652 -5.29905 0
M  V30 1512 C 139.427 -0.551164 -6.09613 0
M  V30 1513 N 138.564 0.223462 -7.01744 0
M  V30 1514 H 143.404 -1.14444 -2.75148 0
M  V30 1515 H 140.941 -0.575769 -1.35364 0
M  V30 1516 H 142.899 0.962627 -4.05943 0
M  V30 1517 H 141.529 1.28029 -2.96325 0
M  V30 1518 H 140.581 -1.03724 -3.65986 0
M  V30 1519 H 141.893 -1.14767 -4.85417 0
M  V30 1520 H 141.047 0.911638 -5.99812 0
M  V30 1521 H 139.786 1.11105 -4.74876 0
M  V30 1522 H 138.791 -1.10396 -5.38603 0
M  V30 1523 H 140.016 -1.29032 -6.66729 0
M  V30 1524 H 137.962 0.946787 -6.49132 0
M  V30 1525 H 137.879 -0.424399 -7.54808 0
M  V30 1526 H 139.147 0.745876 -7.75923 0
M  V30 1527 N 143.376 1.44774 -0.622745 0
M  V30 1528 C 144.653 1.95522 -0.0551974 0
M  V30 1529 C 145.033 1.5649 1.41683 0
M  V30 1530 O 144.381 0.834848 2.12703 0
M  V30 1531 C 144.591 3.4796 -0.269242 0
M  V30 1532 C 145.939 4.24306 -0.158014 0
M  V30 1533 O 146.963 3.55637 -0.200162 0
M  V30 1534 O 145.822 5.46471 -0.0558693 0
M  V30 1535 H 142.916 0.826556 0.0271015 0
M  V30 1536 H 145.462 1.54866 -0.693864 0
M  V30 1537 H 144.234 3.6939 -1.29099 0
M  V30 1538 H 143.857 3.95543 0.403966 0
M  V30 1539 N 144.854 0.36279 1.53368 0
M  V30 1540 C 146.1 -0.228113 2.01513 0
M  V30 1541 C 146.433 -1.48648 1.2497 0
M  V30 1542 O 145.708 -1.91459 0.342616 0
M  V30 1543 C 145.991 -0.522884 3.56284 0
M  V30 1544 C 145.844 0.74892 4.43521 0
M  V30 1545 C 147.163 -1.32461 4.19693 0
M  V30 1546 H 144.282 -0.0814343 0.732487 0
M  V30 1547 H 146.924 0.48713 1.83649 0
M  V30 1548 H 145.074 -1.1322 3.71636 0
M  V30 1549 H 146.746 1.38648 4.39971 0
M  V30 1550 H 144.989 1.36986 4.11603 0
M  V30 1551 H 145.66 0.497667 5.49752 0
M  V30 1552 H 148.136 -0.809203 4.08156 0
M  V30 1553 H 147.012 -1.49961 5.28018 0
M  V30 1554 H 147.273 -2.33232 3.75573 0
M  V30 1555 N 146.332 -1.57332 0.0918853 0
M  V30 1556 C 147.279 -2.13847 -0.868211 0
M  V30 1557 C 148.249 -1.05618 -1.28196 0
M  V30 1558 O 149.434 -1.33387 -1.36427 0
M  V30 1559 C 146.574 -2.72062 -2.12312 0
M  V30 1560 C 145.687 -3.94514 -1.7602 0
M  V30 1561 C 144.822 -4.40903 -2.96273 0
M  V30 1562 C 143.861 -5.55953 -2.56092 0
M  V30 1563 N 142.998 -5.97209 -3.69169 0
M  V30 1564 H 147.838 -2.95575 -0.379406 0
M  V30 1565 H 145.375 -1.46048 -0.175606 0
M  V30 1566 H 147.333 -3.03931 -2.858 0
M  V30 1567 H 145.963 -1.93068 -2.58698 0
M  V30 1568 H 145.015 -3.68979 -0.925135 0
M  V30 1569 H 146.327 -4.7802 -1.42472 0
M  V30 1570 H 145.481 -4.74539 -3.78018 0
M  V30 1571 H 144.22 -3.56291 -3.33029 0
M  V30 1572 H 143.225 -5.21948 -1.72773 0
M  V30 1573 H 144.45 -6.42311 -2.20484 0
M  V30 1574 H 142.396 -5.15543 -4.05649 0
M  V30 1575 H 142.313 -6.75504 -3.39456 0
M  V30 1576 H 143.581 -6.35475 -4.51434 0
M  V30 1577 N 147.81 0.181792 -1.56548 0
M  V30 1578 C 148.742 1.24956 -1.92142 0
M  V30 1579 C 149.755 1.41022 -0.813422 0
M  V30 1580 O 150.944 1.41212 -1.09186 0
M  V30 1581 C 148.044 2.61981 -2.14987 0
M  V30 1582 C 147.217 2.6735 -3.46183 0
M  V30 1583 C 146.276 3.85664 -3.5798 0
M  V30 1584 O 145.302 3.72148 -4.30691 0
M  V30 1585 N 146.504 5.01683 -2.92053 0
M  V30 1586 H 149.269 0.947329 -2.84334 0
M  V30 1587 H 146.83 0.371629 -1.57577 0
M  V30 1588 H 148.822 3.3958 -2.20154 0
M  V30 1589 H 147.392 2.84637 -1.2923 0
M  V30 1590 H 146.612 1.75925 -3.52766 0
M  V30 1591 H 147.9 2.67939 -4.32534 0
M  V30 1592 H 147.298 5.15564 -2.32832 0
M  V30 1593 H 145.855 5.77181 -3.0283 0
M  V30 1594 N 149.288 1.51039 0.449983 0
M  V30 1595 C 150.516 1.66869 1.2232 0
M  V30 1596 C 150.931 0.360727 1.85322 0
M  V30 1597 O 150.288 -0.659531 1.70166 0
M  V30 1598 C 150.339 2.77524 2.31652 0
M  V30 1599 O 150.06 4.03252 1.7123 0
M  V30 1600 C 151.561 3.04512 3.2216 0
M  V30 1601 H 148.781 0.560326 0.369155 0
M  V30 1602 H 151.325 1.97385 0.534719 0
M  V30 1603 H 149.48 2.49642 2.96239 0
M  V30 1604 H 149.894 4.64609 2.43389 0
M  V30 1605 H 151.368 3.85551 3.95038 0
M  V30 1606 H 151.845 2.16415 3.8218 0
M  V30 1607 H 152.451 3.34005 2.63288 0
M  V30 1608 N 150.766 -0.704594 1.40972 0
M  V30 1609 C 151.996 -1.49138 1.42974 0
M  V30 1610 C 152.404 -1.89175 0.0308406 0
M  V30 1611 O 151.747 -1.56734 -0.958138 0
M  V30 1612 C 151.809 -2.79016 2.26694 0
M  V30 1613 C 151.473 -2.61236 3.74973 0
M  V30 1614 C 152.47 -2.27773 4.67349 0
M  V30 1615 C 150.155 -2.77158 4.18914 0
M  V30 1616 C 152.149 -2.10457 6.01653 0
M  V30 1617 C 149.836 -2.59459 5.53285 0
M  V30 1618 C 150.834 -2.26158 6.4447 0
M  V30 1619 O 150.522 -2.08605 7.76363 0
M  V30 1620 H 150.254 -0.466443 0.489292 0
M  V30 1621 H 152.808 -0.8758 1.85793 0
M  V30 1622 H 151.038 -3.42947 1.78673 0
M  V30 1623 H 152.727 -3.40782 2.20504 0
M  V30 1624 H 153.493 -2.15095 4.34694 0
M  V30 1625 H 149.372 -3.02064 3.48251 0
M  V30 1626 H 152.916 -1.84387 6.72791 0
M  V30 1627 H 148.813 -2.71725 5.85522 0
M  V30 1628 H 149.581 -2.23439 7.87412 0
M  V30 1629 N 152.244 -1.26651 -0.937939 0
M  V30 1630 C 153.174 -1.10993 -2.05433 0
M  V30 1631 C 154.155 -0.0142161 -1.70094 0
M  V30 1632 O 155.34 -0.186837 -1.93299 0
M  V30 1633 C 152.47 -0.745561 -3.39203 0
M  V30 1634 C 151.424 -1.79337 -3.88616 0
M  V30 1635 C 150.75 -1.28324 -5.19073 0
M  V30 1636 C 152.05 -3.19553 -4.13138 0
M  V30 1637 H 153.744 -2.0438 -2.1879 0
M  V30 1638 H 151.29 -0.984041 -1.05131 0
M  V30 1639 H 153.243 -0.622888 -4.16771 0
M  V30 1640 H 151.967 0.22401 -3.25831 0
M  V30 1641 H 150.626 -1.90477 -3.13231 0
M  V30 1642 H 150.274 -0.303414 -5.02084 0
M  V30 1643 H 149.974 -1.98369 -5.53103 0
M  V30 1644 H 151.498 -1.1733 -5.99221 0
M  V30 1645 H 152.912 -3.11471 -4.81309 0
M  V30 1646 H 151.309 -3.87218 -4.58457 0
M  V30 1647 H 152.379 -3.65368 -3.18801 0
M  V30 1648 N 153.722 1.14298 -1.08507 0
M  V30 1649 C 154.685 2.17607 -0.719711 0
M  V30 1650 C 155.685 1.58907 0.245997 0
M  V30 1651 O 156.875 1.74181 0.0254081 0
M  V30 1652 C 154.007 3.40842 -0.0627695 0
M  V30 1653 H 155.2 2.51443 -1.63452 0
M  V30 1654 H 152.753 1.28963 -0.88307 0
M  V30 1655 H 153.488 3.12587 0.863716 0
M  V30 1656 H 153.273 3.84713 -0.757504 0
M  V30 1657 H 154.763 4.17221 0.177786 0
M  V30 1658 N 155.201 0.870884 1.31352 0
M  V30 1659 C 156.617 0.562932 1.49343 0
M  V30 1660 C 156.817 -0.902725 1.80148 0
M  V30 1661 O 155.873 -1.68484 1.88067 0
M  V30 1662 C 157.186 1.46393 2.62659 0
M  V30 1663 C 158.734 1.46607 2.76542 0
M  V30 1664 C 159.209 2.35266 3.92955 0
M  V30 1665 N 160.7 2.33151 4.00243 0
M  V30 1666 C 161.435 2.98471 4.89594 0
M  V30 1667 N 160.931 3.72964 5.8384 0
M  V30 1668 N 162.724 2.87775 4.82848 0
M  V30 1669 H 154.875 1.81923 1.09626 0
M  V30 1670 H 157.138 0.777934 0.541777 0
M  V30 1671 H 156.844 2.50689 2.46674 0
M  V30 1672 H 156.718 1.16314 3.58819 0
M  V30 1673 H 159.105 0.43069 2.9194 0
M  V30 1674 H 159.186 1.8071 1.81046 0
M  V30 1675 H 158.83 3.38881 3.78315 0
M  V30 1676 H 158.76 1.98487 4.87761 0
M  V30 1677 H 161.251 1.79006 3.32814 0
M  V30 1678 H 161.564 4.19932 6.4875 0
M  V30 1679 H 159.909 3.77073 5.83816 0
M  V30 1680 H 163.1 2.29116 4.08195 0
M  V30 1681 H 163.273 3.38961 5.52277 0
M  V30 1682 N 156.679 -1.44442 0.630414 0
M  V30 1683 C 157.925 -2.02351 0.134816 0
M  V30 1684 C 158.258 -1.4947 -1.23986 0
M  V30 1685 O 157.533 -0.678475 -1.82283 0
M  V30 1686 C 157.816 -3.59898 0.120707 0
M  V30 1687 C 157.669 -4.23063 1.52767 0
M  V30 1688 C 158.988 -4.36585 -0.555127 0
M  V30 1689 H 156.107 -0.73527 0.0504646 0
M  V30 1690 H 158.749 -1.72022 0.806751 0
M  V30 1691 H 156.899 -3.85868 -0.451477 0
M  V30 1692 H 158.571 -4.08202 2.14869 0
M  V30 1693 H 156.814 -3.80586 2.08175 0
M  V30 1694 H 157.485 -5.32071 1.46984 0
M  V30 1695 H 159.961 -4.16044 -0.0685429 0
M  V30 1696 H 158.837 -5.46294 -0.534185 0
M  V30 1697 H 159.098 -4.11138 -1.62535 0
M  V30 1698 N 158.157 -0.370918 -1.53173 0
M  V30 1699 C 159.404 0.217102 -2.01333 0
M  V30 1700 C 159.732 1.48338 -1.25802 0
M  V30 1701 O 158.987 1.92698 -0.34146 0
M  V30 1702 C 159.286 0.549696 -3.53147 0
M  V30 1703 C 158.952 -0.622872 -4.46577 0
M  V30 1704 C 157.614 -0.944595 -4.71838 0
M  V30 1705 C 159.966 -1.40819 -5.01816 0
M  V30 1706 C 157.294 -2.05351 -5.49589 0
M  V30 1707 C 159.646 -2.50757 -5.80778 0
M  V30 1708 C 158.31 -2.83458 -6.04324 0
M  V30 1709 H 157.58 0.0794431 -0.736729 0
M  V30 1710 H 160.227 -0.504481 -1.84736 0
M  V30 1711 H 158.532 1.35237 -3.6772 0
M  V30 1712 H 160.229 1.017 -3.87889 0
M  V30 1713 H 156.819 -0.36209 -4.27068 0
M  V30 1714 H 161.003 -1.17289 -4.82242 0
M  V30 1715 H 156.259 -2.3108 -5.6605 0
M  V30 1716 H 160.433 -3.12022 -6.22588 0
M  V30 1717 H 158.06 -3.69508 -6.64355 0
M  V30 1718 N 159.635 1.57281 -0.100228 0
M  V30 1719 C 160.86 1.99302 0.573881 0
M  V30 1720 C 161.285 0.979059 1.60611 0
M  V30 1721 O 160.643 -0.0517803 1.81226 0
M  V30 1722 C 160.691 3.40274 1.19358 0
M  V30 1723 O 159.795 3.41676 2.30935 0
M  V30 1724 H 159.136 0.647944 0.145138 0
M  V30 1725 H 161.666 2.03779 -0.183156 0
M  V30 1726 H 161.676 3.78078 1.53365 0
M  V30 1727 H 160.351 4.13594 0.437385 0
M  V30 1728 H 158.928 3.15672 1.98509 0
M  V30 1729 N 161.113 -0.173488 1.56642 0
M  V30 1730 C 162.343 -0.904781 1.85734 0
M  V30 1731 C 162.751 -1.76431 0.68328 0
M  V30 1732 O 162.094 -1.802 -0.356865 0
M  V30 1733 C 162.156 -1.83382 3.09211 0
M  V30 1734 C 161.82 -1.15411 4.42187 0
M  V30 1735 C 162.817 -0.520609 5.17287 0
M  V30 1736 C 160.502 -1.15151 4.88923 0
M  V30 1737 C 162.496 0.106412 6.37311 0
M  V30 1738 C 160.183 -0.520664 6.08878 0
M  V30 1739 C 161.181 0.107196 6.82916 0
M  V30 1740 O 160.869 0.728102 8.00596 0
M  V30 1741 H 160.601 -0.268408 0.62043 0
M  V30 1742 H 163.155 -0.179096 2.04618 0
M  V30 1743 H 161.385 -2.59976 2.86268 0
M  V30 1744 H 163.074 -2.43476 3.24768 0
M  V30 1745 H 163.84 -0.514606 4.82262 0
M  V30 1746 H 159.719 -1.62961 4.31236 0
M  V30 1747 H 163.263 0.597081 6.9504 0
M  V30 1748 H 159.16 -0.524242 6.43368 0
M  V30 1749 H 159.928 0.627138 8.16094 0
M  V30 1750 N 162.591 -1.51276 -0.441967 0
M  V30 1751 C 164.002 -1.56244 -1.02199 0
M  V30 1752 C 164.353 -0.383149 -1.92422 0
M  V30 1753 O 163.478 0.500613 -2.1053 0
M  V30 1754 C 164.073 -2.83162 -1.86024 0
M  V30 1755 C 162.632 -2.90716 -2.39084 0
M  V30 1756 C 161.779 -2.50858 -1.18175 0
M  V30 1757 H 164.73 -1.5712 -0.223416 0
M  V30 1758 H 164.751 -2.66663 -2.71425 0
M  V30 1759 H 164.263 -3.68974 -1.20331 0
M  V30 1760 H 162.364 -2.09323 -3.08244 0
M  V30 1761 H 162.477 -3.94266 -2.72198 0
M  V30 1762 H 160.841 -2.03951 -1.52565 0
M  V30 1763 H 161.624 -3.3901 -0.541001 0
M  V30 1764 N 164.069 0.697108 -1.41344 0
M  V30 1765 C 165.032 1.79281 -1.42797 0
M  V30 1766 C 166.032 1.57607 -0.318837 0
M  V30 1767 O 167.222 1.64309 -0.578642 0
M  V30 1768 C 164.354 3.17632 -1.23785 0
M  V30 1769 H 165.547 1.79385 -2.40335 0
M  V30 1770 H 163.1 0.904582 -1.27464 0
M  V30 1771 H 163.835 3.23167 -0.270814 0
M  V30 1772 H 163.62 3.34765 -2.04144 0
M  V30 1773 H 165.11 3.97617 -1.27633 0
M  V30 1774 N 165.547 1.27147 0.931209 0
M  V30 1775 C 166.795 1.13055 1.6752 0
M  V30 1776 C 167.116 -0.324791 1.92276 0
M  V30 1777 O 166.386 -1.22775 1.52654 0
M  V30 1778 H 164.966 0.415391 0.620854 0
M  V30 1779 H 167.628 1.59623 1.11833 0
M  V30 1780 H 166.724 1.65694 2.64485 0
M  V30 1781 N 167.025 -1.13721 1.09112 0
M  V30 1782 C 167.973 -2.21103 0.722219 0
M  V30 1783 C 168.967 -1.67147 -0.275374 0
M  V30 1784 O 170.173 -1.79477 -0.137176 0
M  V30 1785 H 166.548 -0.720445 0.215553 0
M  V30 1786 H 168.519 -2.49483 1.63709 0
M  V30 1787 C 167.268 -3.47352 0.15543 0
M  V30 1788 H 166.591 -3.89206 0.914246 0
M  V30 1789 H 168.031 -4.2395 -0.0647967 0
M  V30 1790 C 166.49 -3.1814 -1.10852 0
M  V30 1791 O 167.02 -3.36604 -2.19227 0
M  V30 1792 N 165.226 -2.72045 -1.02176 0
M  V30 1793 H 164.773 -2.57221 -0.139764 0
M  V30 1794 H 164.731 -2.52875 -1.8682 0
M  V30 1795 N 168.503 -0.877838 -1.30888 0
M  V30 1796 C 169.749 -0.493426 -1.96706 0
M  V30 1797 C 170.082 0.953504 -1.6918 0
M  V30 1798 O 169.357 1.67266 -0.992594 0
M  V30 1799 C 169.64 -0.760429 -3.51979 0
M  V30 1800 C 169.493 -2.25747 -3.89048 0
M  V30 1801 C 170.812 -0.232148 -4.39487 0
M  V30 1802 H 167.931 -0.180746 -0.714493 0
M  V30 1803 H 170.573 -1.10052 -1.54882 0
M  V30 1804 H 168.723 -0.243715 -3.87735 0
M  V30 1805 H 170.395 -2.84204 -3.63354 0
M  V30 1806 H 168.638 -2.72694 -3.37373 0
M  V30 1807 H 169.309 -2.39491 -4.97341 0
M  V30 1808 H 171.785 -0.674314 -4.106 0
M  V30 1809 H 170.661 -0.448355 -5.47066 0
M  V30 1810 H 170.922 0.866297 -4.33529 0
M  V30 1811 N 169.982 1.44106 -0.638065 0
M  V30 1812 C 170.892 2.34513 0.0637334 0
M  V30 1813 C 171.908 1.53018 0.828346 0
M  V30 1814 O 173.084 1.85723 0.779036 0
M  V30 1815 C 170.149 3.31095 1.02844 0
M  V30 1816 C 169.21 4.28497 0.26244 0
M  V30 1817 C 168.443 5.20465 1.1812 0
M  V30 1818 O 168.666 5.16514 2.42011 0
M  V30 1819 O 167.6 5.98251 0.661774 0
M  V30 1820 H 171.426 2.95989 -0.68003 0
M  V30 1821 H 169.011 1.43994 -0.398252 0
M  V30 1822 H 170.893 3.90526 1.58327 0
M  V30 1823 H 169.568 2.72144 1.7527 0
M  V30 1824 H 168.475 3.72592 -0.335602 0
M  V30 1825 H 169.808 4.90388 -0.421936 0
M  V30 1826 N 171.46 0.379036 1.52974 0
M  V30 1827 C 172.685 -0.209353 2.06341 0
M  V30 1828 C 173.11 -1.40583 1.24972 0
M  V30 1829 O 172.468 -1.79246 0.272155 0
M  V30 1830 C 172.516 -0.567786 3.56102 0
M  V30 1831 O 171.62 -1.66318 3.77375 0
M  V30 1832 H 170.961 -0.0272919 0.663439 0
M  V30 1833 H 173.491 0.543536 1.97248 0
M  V30 1834 H 173.501 -0.835003 3.99364 0
M  V30 1835 H 172.176 0.307013 4.14765 0
M  V30 1836 H 170.753 -1.39048 3.46006 0
M  V30 1837 N 172.938 -1.57226 0.108567 0
M  V30 1838 C 174.166 -1.99179 -0.559954 0
M  V30 1839 C 174.581 -0.988022 -1.60884 0
M  V30 1840 O 173.938 0.0205512 -1.82488 0
M  V30 1841 C 173.989 -3.41159 -1.19552 0
M  V30 1842 O 173.71 -4.37694 -0.188577 0
M  V30 1843 C 175.211 -3.98188 -1.94837 0
M  V30 1844 H 172.431 -0.654228 -0.149088 0
M  V30 1845 H 174.975 -2.03598 0.19183 0
M  V30 1846 H 173.13 -3.37711 -1.89815 0
M  V30 1847 H 173.544 -5.20469 -0.649014 0
M  V30 1848 H 175.018 -4.99644 -2.34648 0
M  V30 1849 H 175.495 -3.3675 -2.81951 0
M  V30 1850 H 176.101 -4.0515 -1.2936 0
M  V30 1851 N 174.416 0.165178 -1.56732 0
M  V30 1852 C 175.664 0.879068 -1.8198 0
M  V30 1853 C 175.985 1.82514 -0.686561 0
M  V30 1854 O 175.255 1.93694 0.293146 0
M  V30 1855 H 173.835 0.327608 -0.671329 0
M  V30 1856 H 176.497 0.163526 -1.94213 0
M  V30 1857 H 175.593 1.45228 -2.76252 0
M  V30 1858 N 175.894 1.51508 0.433938 0
M  V30 1859 C 177.119 1.68443 1.21003 0
M  V30 1860 C 177.544 0.382636 1.84167 0
M  V30 1861 O 176.902 -0.65755 1.68956 0
M  V30 1862 C 176.95 2.80405 2.26727 0
M  V30 1863 O 176.054 2.44245 3.32292 0
M  V30 1864 H 175.395 0.561536 0.354363 0
M  V30 1865 H 177.925 1.9809 0.512024 0
M  V30 1866 H 177.935 3.0459 2.71457 0
M  V30 1867 H 176.61 3.74867 1.80132 0
M  V30 1868 H 175.187 2.30644 2.93015 0
M  V30 1869 N 177.372 -0.689602 1.41712 0
M  V30 1870 C 178.335 -1.78521 1.43746 0
M  V30 1871 C 179.335 -1.57436 0.327191 0
M  V30 1872 O 180.525 -1.64 0.587348 0
M  V30 1873 C 177.657 -3.16971 1.25467 0
M  V30 1874 H 178.85 -1.78108 2.41283 0
M  V30 1875 H 176.403 -0.89781 1.27942 0
M  V30 1876 H 177.138 -3.23019 0.287948 0
M  V30 1877 H 176.923 -3.33678 2.05917 0
M  V30 1878 H 178.413 -3.96935 1.2974 0
M  V30 1879 N 178.85 -1.27639 -0.924453 0
M  V30 1880 C 180.098 -1.13941 -1.66918 0
M  V30 1881 C 180.419 0.314589 -1.92446 0
M  V30 1882 O 179.689 1.21964 -1.53303 0
M  V30 1883 H 178.269 -0.418678 -0.618642 0
M  V30 1884 H 180.931 -1.60213 -1.10985 0
M  V30 1885 H 180.027 -1.67094 -2.63602 0
M  V30 1886 N 180.328 1.1314 -1.09713 0
M  V30 1887 C 181.238 2.22242 -0.751367 0
M  V30 1888 C 182.254 1.72224 0.247938 0
M  V30 1889 O 183.43 2.01205 0.0885463 0
M  V30 1890 C 180.495 3.46231 -0.180274 0
M  V30 1891 C 179.556 4.11125 -1.2359 0
M  V30 1892 C 178.789 5.29195 -0.691966 0
M  V30 1893 O 179.012 5.68342 0.48414 0
M  V30 1894 O 177.946 5.84214 -1.44838 0
M  V30 1895 H 181.772 2.54197 -1.66186 0
M  V30 1896 H 179.357 1.21331 -0.871735 0
M  V30 1897 H 181.239 4.21185 0.134739 0
M  V30 1898 H 179.914 3.1597 0.703185 0
M  V30 1899 H 178.821 3.37985 -1.60366 0
M  V30 1900 H 180.154 4.45524 -2.09211 0
M  V30 1901 N 181.806 0.884767 1.30421 0
M  V30 1902 C 183.217 0.553656 1.78302 0
M  V30 1903 C 183.568 -0.930153 1.7275 0
M  V30 1904 O 182.693 -1.72681 1.30423 0
M  V30 1905 C 183.288 0.998234 3.2376 0
M  V30 1906 C 181.847 0.71854 3.69478 0
M  V30 1907 C 180.994 1.18132 2.50879 0
M  V30 1908 H 183.945 1.06901 1.17294 0
M  V30 1909 H 183.966 0.327118 3.79091 0
M  V30 1910 H 183.478 2.0782 3.27769 0
M  V30 1911 H 181.579 -0.349444 3.70958 0
M  V30 1912 H 181.692 1.30595 4.60958 0
M  V30 1913 H 180.056 0.600669 2.47516 0
M  V30 1914 H 180.839 2.26902 2.57624 0
M  V30 1915 N 183.284 -1.43765 0.645699 0
M  V30 1916 C 184.214 -2.33471 -0.0370477 0
M  V30 1917 C 185.195 -1.49042 -0.819779 0
M  V30 1918 O 186.38 -1.77726 -0.782758 0
M  V30 1919 C 183.51 -3.32311 -1.0093 0
M  V30 1920 C 182.464 -4.2667 -0.337201 0
M  V30 1921 C 181.79 -5.1549 -1.42037 0
M  V30 1922 C 183.09 -5.16657 0.765706 0
M  V30 1923 H 184.784 -2.90809 0.712069 0
M  V30 1924 H 182.33 -1.39834 0.343876 0
M  V30 1925 H 184.283 -3.9396 -1.49578 0
M  V30 1926 H 183.007 -2.73213 -1.78948 0
M  V30 1927 H 181.666 -3.66374 0.128771 0
M  V30 1928 H 181.314 -4.52735 -2.1918 0
M  V30 1929 H 181.014 -5.79438 -0.975966 0
M  V30 1930 H 182.538 -5.80012 -1.90838 0
M  V30 1931 H 183.952 -5.72158 0.361702 0
M  V30 1932 H 182.349 -5.89286 1.13413 0
M  V30 1933 H 183.419 -4.56796 1.62683 0
M  V30 1934 N 184.763 -0.387143 -1.52771 0
M  V30 1935 C 185.993 0.195585 -2.05672 0
M  V30 1936 C 186.401 1.41241 -1.25887 0
M  V30 1937 O 185.744 1.81265 -0.298081 0
M  V30 1938 C 185.806 0.632327 -3.53895 0
M  V30 1939 C 185.47 -0.470739 -4.54569 0
M  V30 1940 C 186.467 -1.32746 -5.02667 0
M  V30 1941 C 184.152 -0.637151 -4.98243 0
M  V30 1942 C 186.146 -2.33574 -5.93061 0
M  V30 1943 C 183.833 -1.64877 -5.88438 0
M  V30 1944 C 184.831 -2.49649 -6.35739 0
M  V30 1945 O 184.519 -3.49082 -7.24153 0
M  V30 1946 H 184.251 0.033658 -0.675162 0
M  V30 1947 H 186.805 -0.550221 -1.97893 0
M  V30 1948 H 185.035 1.43008 -3.59285 0
M  V30 1949 H 186.724 1.14048 -3.89548 0
M  V30 1950 H 187.49 -1.21019 -4.69659 0
M  V30 1951 H 183.369 0.0129567 -4.60998 0
M  V30 1952 H 186.913 -2.99777 -6.29904 0
M  V30 1953 H 182.81 -1.76643 -6.2086 0
M  V30 1954 H 183.578 -3.45065 -7.42208 0
M  V30 1955 N 186.241 1.57166 -0.116904 0
M  V30 1956 C 187.151 2.18745 0.847812 0
M  V30 1957 C 188.167 1.163 1.29423 0
M  V30 1958 O 189.343 1.48761 1.35765 0
M  V30 1959 C 186.408 2.77307 2.0809 0
M  V30 1960 C 185.469 3.94781 1.68661 0
M  V30 1961 C 184.702 4.50541 2.86091 0
M  V30 1962 O 184.925 4.05202 4.01456 0
M  V30 1963 O 183.859 5.41256 2.63298 0
M  V30 1964 H 187.685 3.01632 0.353778 0
M  V30 1965 H 185.27 1.49005 0.108599 0
M  V30 1966 H 187.152 3.14647 2.80313 0
M  V30 1967 H 185.827 1.97452 2.56504 0
M  V30 1968 H 184.734 3.62214 0.935518 0
M  V30 1969 H 186.067 4.76065 1.24991 0
M  V30 1970 N 187.719 -0.156864 1.56817 0
M  V30 1971 C 188.667 -1.21319 1.98455 0
M  V30 1972 C 189.661 -1.45025 0.875444 0
M  V30 1973 O 190.867 -1.45435 1.0606 0
M  V30 1974 H 187.242 -0.408142 0.631605 0
M  V30 1975 H 189.213 -0.835244 2.86472 0
M  V30 1976 C 187.962 -2.54148 2.37285 0
M  V30 1977 H 187.285 -2.36733 3.22176 0
M  V30 1978 H 188.725 -3.26712 2.70251 0
M  V30 1979 C 187.184 -3.13967 1.22173 0
M  V30 1980 O 187.714 -3.98357 0.517149 0
M  V30 1981 N 185.92 -2.7327 0.988536 0
M  V30 1982 H 185.467 -2.04744 1.56326 0
M  V30 1983 H 185.425 -3.13628 0.220209 0
M  V30 1984 N 189.197 -1.51736 -0.425897 0
M  V30 1985 C 190.422 -1.69082 -1.20108 0
M  V30 1986 C 190.847 -0.392398 -1.83962 0
M  V30 1987 O 190.205 0.64858 -1.69302 0
M  V30 1988 C 190.253 -2.81604 -2.25237 0
M  V30 1989 O 189.357 -2.46004 -3.30992 0
M  V30 1990 H 188.698 -0.563408 -0.35138 0
M  V30 1991 H 191.228 -1.98358 -0.501512 0
M  V30 1992 H 191.238 -3.06025 -2.69838 0
M  V30 1993 H 189.913 -3.75817 -1.78142 0
M  V30 1994 H 188.49 -2.32195 -2.91787 0
M  V30 1995 N 190.675 0.682077 -1.42076 0
M  V30 1996 C 192.086 1.26246 -1.37546 0
M  V30 1997 C 192.437 1.96092 -0.0651481 0
M  V30 1998 O 191.562 1.99587 0.836297 0
M  V30 1999 C 192.157 2.29594 -2.49143 0
M  V30 2000 C 190.716 2.83175 -2.47969 0
M  V30 2001 C 189.863 1.57395 -2.28303 0
M  V30 2002 H 192.814 0.475937 -1.51395 0
M  V30 2003 H 192.835 3.11175 -2.18976 0
M  V30 2004 H 192.347 1.78729 -3.44496 0
M  V30 2005 H 190.448 3.3818 -1.56413 0
M  V30 2006 H 190.561 3.32687 -3.44755 0
M  V30 2007 H 188.925 1.83699 -1.76428 0
M  V30 2008 H 189.708 1.08507 -3.25701 0
M  V30 2009 N 192.153 1.28127 0.917671 0
M  V30 2010 C 193.063 1.13556 2.05286 0
M  V30 2011 C 194.079 0.0630914 1.73886 0
M  V30 2012 O 195.255 0.271598 1.9956 0
M  V30 2013 C 192.32 0.794676 3.3747 0
M  V30 2014 C 191.381 1.94909 3.82504 0
M  V30 2015 C 190.614 1.62437 5.0838 0
M  V30 2016 O 190.837 0.536905 5.67867 0
M  V30 2017 O 189.771 2.46677 5.4903 0
M  V30 2018 H 193.597 2.08844 2.20495 0
M  V30 2019 H 191.182 1.07409 1.03845 0
M  V30 2020 H 193.064 0.618344 4.16839 0
M  V30 2021 H 191.739 -0.128581 3.23445 0
M  V30 2022 H 190.646 2.18055 3.03978 0
M  V30 2023 H 191.979 2.85291 4.01086 0
M  V30 2024 N 193.631 -1.12557 1.10312 0
M  V30 2025 C 194.878 -1.84038 0.844759 0
M  V30 2026 C 195.206 -1.84026 -0.629668 0
M  V30 2027 O 194.461 -1.28026 -1.48013 0
M  V30 2028 C 194.76 -3.31462 1.33669 0
M  V30 2029 C 194.426 -3.51647 2.82232 0
M  V30 2030 C 193.088 -3.56864 3.22802 0
M  V30 2031 C 195.44 -3.58867 3.77974 0
M  V30 2032 C 192.768 -3.66844 4.57867 0
M  V30 2033 C 195.12 -3.70375 5.1284 0
M  V30 2034 C 193.784 -3.73848 5.52986 0
M  V30 2035 H 193.054 -0.673444 0.309119 0
M  V30 2036 H 195.701 -1.32824 1.37949 0
M  V30 2037 H 194.006 -3.85091 0.721949 0
M  V30 2038 H 195.703 -3.85236 1.11329 0
M  V30 2039 H 192.293 -3.48249 2.49842 0
M  V30 2040 H 196.477 -3.54107 3.47738 0
M  V30 2041 H 191.733 -3.67804 4.88396 0
M  V30 2042 H 195.907 -3.74904 5.86873 0
M  V30 2043 H 193.534 -3.81333 6.57639 0
M  V30 2044 N 195.109 -0.891671 -1.2995 0
M  V30 2045 C 196.337 -0.52866 -2.00032 0
M  V30 2046 C 196.752 0.884574 -1.66795 0
M  V30 2047 O 196.109 1.5827 -0.908669 0
M  V30 2048 C 196.16 -0.701814 -3.54622 0
M  V30 2049 O 195.881 -2.05942 -3.86678 0
M  V30 2050 C 197.382 -0.342683 -4.41973 0
M  V30 2051 H 194.602 -0.203659 -0.639347 0
M  V30 2052 H 197.146 -1.19881 -1.65677 0
M  V30 2053 H 195.301 -0.0789468 -3.8732 0
M  V30 2054 H 195.715 -2.08291 -4.81368 0
M  V30 2055 H 197.189 -0.514709 -5.49595 0
M  V30 2056 H 197.666 0.71975 -4.33262 0
M  V30 2057 H 198.272 -0.942154 -4.14733 0
M  V30 2058 N 196.587 1.43421 -0.653314 0
M  V30 2059 C 197.998 1.85065 -0.246537 0
M  V30 2060 C 198.349 1.54688 1.2069 0
M  V30 2061 O 197.474 0.995896 1.92122 0
M  V30 2062 C 198.069 3.35922 -0.440666 0
M  V30 2063 C 196.628 3.76297 -0.0882064 0
M  V30 2064 C 195.775 2.67147 -0.743484 0
M  V30 2065 H 198.726 1.33572 -0.856979 0
M  V30 2066 H 198.747 3.79204 0.313798 0
M  V30 2067 H 198.259 3.58 -1.49858 0
M  V30 2068 H 196.36 3.5983 0.96711 0
M  V30 2069 H 196.473 4.76338 -0.513738 0
M  V30 2070 H 194.837 2.54086 -0.176712 0
M  V30 2071 H 195.62 2.92053 -1.80443 0
M  V30 2072 N 198.065 0.39524 1.52563 0
M  V30 2073 C 199.295 -0.184675 2.05773 0
M  V30 2074 C 199.703 -1.40571 1.26635 0
M  V30 2075 O 199.046 -1.81105 0.30769 0
M  V30 2076 C 199.108 -0.613551 3.54226 0
M  V30 2077 C 198.772 0.49484 4.54313 0
M  V30 2078 C 199.769 1.3541 5.01956 0
M  V30 2079 C 197.454 0.663565 4.97898 0
M  V30 2080 C 199.448 2.36716 5.91814 0
M  V30 2081 C 197.135 1.67996 5.87555 0
M  V30 2082 C 198.133 2.53017 6.34406 0
M  V30 2083 O 197.821 3.52917 7.22291 0
M  V30 2084 H 197.553 -0.030077 0.675331 0
M  V30 2085 H 200.107 0.560708 1.97599 0
M  V30 2086 H 198.337 -1.411 3.60038 0
M  V30 2087 H 200.026 -1.11981 3.90148 0
M  V30 2088 H 200.792 1.23509 4.6901 0
M  V30 2089 H 196.671 0.0114913 4.60999 0
M  V30 2090 H 200.215 3.03113 6.28306 0
M  V30 2091 H 196.112 1.79933 6.19915 0
M  V30 2092 H 196.88 3.48996 7.40367 0
M  V30 2093 N 199.544 -1.57102 0.125237 0
M  V30 2094 C 200.474 -2.18659 -0.819174 0
M  V30 2095 C 201.455 -1.12843 -1.27281 0
M  V30 2096 O 202.64 -1.41104 -1.33429 0
M  V30 2097 C 199.77 -2.79096 -2.06695 0
M  V30 2098 C 198.724 -3.90548 -1.75088 0
M  V30 2099 C 198.05 -4.37821 -3.06948 0
M  V30 2100 C 199.35 -5.12356 -1.01435 0
M  V30 2101 H 201.044 -2.9783 -0.306202 0
M  V30 2102 H 198.59 -1.4326 -0.145839 0
M  V30 2103 H 200.543 -3.2082 -2.73226 0
M  V30 2104 H 199.267 -1.97223 -2.60328 0
M  V30 2105 H 197.926 -3.49409 -1.10944 0
M  V30 2106 H 197.574 -3.52799 -3.58527 0
M  V30 2107 H 197.274 -5.12982 -2.86571 0
M  V30 2108 H 198.798 -4.822 -3.74587 0
M  V30 2109 H 200.212 -5.5106 -1.58132 0
M  V30 2110 H 198.609 -5.9314 -0.911319 0
M  V30 2111 H 199.679 -4.849 -0.00218681 0
M  V30 2112 N 201.022 0.148545 -1.56898 0
M  V30 2113 C 201.932 1.20293 -2.01412 0
M  V30 2114 C 202.948 1.47107 -0.929273 0
M  V30 2115 O 204.124 1.58807 -1.23863 0
M  V30 2116 C 201.189 2.51682 -2.38447 0
M  V30 2117 C 200.25 2.32529 -3.60872 0
M  V30 2118 C 199.483 3.57653 -3.96132 0
M  V30 2119 O 199.706 4.63771 -3.32073 0
M  V30 2120 O 198.64 3.50408 -4.89385 0
M  V30 2121 H 202.466 0.855025 -2.91416 0
M  V30 2122 H 200.051 0.357151 -1.45068 0
M  V30 2123 H 201.933 3.29147 -2.63135 0
M  V30 2124 H 200.608 2.86006 -1.51599 0
M  V30 2125 H 199.515 1.53019 -3.41373 0
M  V30 2126 H 200.848 2.03121 -4.48333 0
M  V30 2127 N 202.5 1.5196 0.417844 0
M  V30 2128 C 203.728 1.69426 1.18753 0
M  V30 2129 C 204.143 0.399955 1.84515 0
M  V30 2130 O 203.5 -0.623288 1.71527 0
M  V30 2131 C 203.551 2.82375 2.25714 0
M  V30 2132 O 203.272 4.06793 1.62638 0
M  V30 2133 C 204.773 3.11277 3.15628 0
M  V30 2134 H 201.993 0.568031 0.357186 0
M  V30 2135 H 204.537 1.98475 0.49273 0
M  V30 2136 H 202.692 2.5587 2.90877 0
M  V30 2137 H 203.106 4.69667 2.3348 0
M  V30 2138 H 204.58 3.93843 3.86771 0
M  V30 2139 H 205.057 2.24473 3.77503 0
M  V30 2140 H 205.663 3.39515 2.56144 0
M  V30 2141 N 203.978 -0.674533 1.42435 0
M  V30 2142 C 204.926 -1.80934 1.46169 0
M  V30 2143 C 205.92 -1.66006 0.3374 0
M  V30 2144 O 207.126 -1.72611 0.510425 0
M  V30 2145 H 203.501 -0.596594 0.457798 0
M  V30 2146 H 205.472 -1.74903 2.41767 0
M  V30 2147 C 204.221 -3.19088 1.38123 0
M  V30 2148 H 203.544 -3.31203 2.23931 0
M  V30 2149 H 204.984 -3.9851 1.44797 0
M  V30 2150 C 203.443 -3.36763 0.0960517 0
M  V30 2151 O 203.973 -3.92581 -0.851073 0
M  V30 2152 N 202.179 -2.90597 0.0131186 0
M  V30 2153 H 201.726 -2.45359 0.784639 0
M  V30 2154 H 201.684 -3.028 -0.846133 0
M  V30 2155 N 205.456 -1.28612 -0.910864 0
M  V30 2156 C 206.386 -1.15326 -2.03032 0
M  V30 2157 C 207.367 -0.0502924 -1.70026 0
M  V30 2158 O 208.552 -0.227797 -1.92859 0
M  V30 2159 C 205.682 -0.817343 -3.37545 0
M  V30 2160 C 204.636 -1.8754 -3.84724 0
M  V30 2161 C 203.962 -1.39305 -5.16235 0
M  V30 2162 C 205.262 -3.28244 -4.06267 0
M  V30 2163 H 206.956 -2.08975 -2.14406 0
M  V30 2164 H 204.502 -1.00612 -1.03021 0
M  V30 2165 H 206.455 -0.711151 -4.15356 0
M  V30 2166 H 205.179 0.154846 -3.26233 0
M  V30 2167 H 203.838 -1.97079 -3.09121 0
M  V30 2168 H 203.486 -0.409846 -5.01328 0
M  V30 2169 H 203.186 -2.10057 -5.48771 0
M  V30 2170 H 204.71 -1.30014 -5.96598 0
M  V30 2171 H 206.124 -3.21611 -4.74594 0
M  V30 2172 H 204.521 -3.96855 -4.5014 0
M  V30 2173 H 205.591 -3.72048 -3.10979 0
M  V30 2174 N 206.934 1.1197 -1.10907 0
M  V30 2175 C 208.182 1.83225 -0.852819 0
M  V30 2176 C 208.503 1.84769 0.623341 0
M  V30 2177 O 207.773 1.3143 1.45269 0
M  V30 2178 H 206.353 0.67849 -0.312507 0
M  V30 2179 H 209.015 1.3556 -1.40033 0
M  V30 2180 H 208.111 2.87265 -1.22005 0
M  V30 2181 N 208.412 0.89855 1.29475 0
M  V30 2182 C 209.344 0.332726 2.26772 0
M  V30 2183 C 210.357 -0.520323 1.54261 0
M  V30 2184 O 211.546 -0.337668 1.75277 0
M  V30 2185 C 208.646 -0.544334 3.345 0
M  V30 2186 C 207.819 0.282728 4.36485 0
M  V30 2187 C 206.878 -0.526982 5.23555 0
M  V30 2188 O 205.904 0.0551165 5.69173 0
M  V30 2189 N 207.106 -1.83331 5.5079 0
M  V30 2190 H 209.871 1.16897 2.75962 0
M  V30 2191 H 207.432 0.762919 1.42798 0
M  V30 2192 H 209.424 -1.09239 3.89678 0
M  V30 2193 H 207.994 -1.28127 2.85136 0
M  V30 2194 H 207.214 1.01221 3.80983 0
M  V30 2195 H 208.502 0.84918 5.01664 0
M  V30 2196 H 207.9 -2.32898 5.15534 0
M  V30 2197 H 206.457 -2.32852 6.08788 0
M  V30 2198 N 209.89 -1.43072 0.660911 0
M  V30 2199 C 211.301 -1.84932 0.256348 0
M  V30 2200 C 211.652 -1.55325 -1.19868 0
M  V30 2201 O 210.777 -1.00607 -1.91591 0
M  V30 2202 C 211.372 -3.35684 0.458475 0
M  V30 2203 C 209.931 -3.76245 0.108161 0
M  V30 2204 C 209.078 -2.66749 0.757641 0
M  V30 2205 H 212.029 -1.33116 0.864051 0
M  V30 2206 H 212.05 -3.79365 -0.293683 0
M  V30 2207 H 211.562 -3.572 1.51755 0
M  V30 2208 H 209.663 -3.60338 -0.948014 0
M  V30 2209 H 209.776 -4.76058 0.538992 0
M  V30 2210 H 208.14 -2.53989 0.190185 0
M  V30 2211 H 208.923 -2.91092 1.81989 0
M  V30 2212 N 211.368 -0.403325 -1.52352 0
M  V30 2213 C 212.596 0.174012 -2.06167 0
M  V30 2214 C 213.011 1.39347 -1.27388 0
M  V30 2215 O 212.368 1.79597 -0.324201 0
M  V30 2216 C 212.419 0.530223 -3.5759 0
M  V30 2217 O 212.14 -0.640806 -4.33388 0
M  V30 2218 C 213.641 1.16192 -4.27802 0
M  V30 2219 H 210.861 0.0229464 -0.670608 0
M  V30 2220 H 213.405 -0.572604 -1.9632 0
M  V30 2221 H 211.56 1.22673 -3.67464 0
M  V30 2222 H 211.974 -0.344851 -5.23365 0
M  V30 2223 H 213.448 1.36141 -5.34948 0
M  V30 2224 H 213.925 2.13335 -3.83907 0
M  V30 2225 H 214.531 0.505775 -4.22282 0
M  V30 2226 N 212.846 1.57033 -0.133567 0
M  V30 2227 C 214.095 1.94861 0.520768 0
M  V30 2228 C 214.408 1.02012 1.66892 0
M  V30 2229 O 215.614 1.29365 2.38699 0
M  V30 2230 C 214.07 3.46362 0.977809 0
M  V30 2231 C 213.678 4.47773 -0.142674 0
M  V30 2232 C 215.422 3.93083 1.60269 0
M  V30 2233 C 213.329 5.90468 0.331883 0
M  V30 2234 H 212.259 0.727453 0.198315 0
M  V30 2235 H 214.91 1.82227 -0.215759 0
M  V30 2236 H 213.292 3.54282 1.7692 0
M  V30 2237 H 214.466 4.51536 -0.919317 0
M  V30 2238 H 212.781 4.10891 -0.675124 0
M  V30 2239 H 215.378 4.97121 1.96914 0
M  V30 2240 H 215.721 3.33876 2.48662 0
M  V30 2241 H 216.254 3.88025 0.876453 0
M  V30 2242 H 212.993 6.53463 -0.516341 0
M  V30 2243 H 212.513 5.90094 1.07469 0
M  V30 2244 H 214.192 6.42179 0.788332 0
M  V30 2245 N 214.325 -0.140222 1.56975 0
M  V30 2246 C 215.257 -1.19818 1.95388 0
M  V30 2247 C 216.27 -1.38816 0.850525 0
M  V30 2248 O 217.459 -1.38267 1.12891 0
M  V30 2249 C 214.559 -2.56189 2.21857 0
M  V30 2250 C 213.732 -2.58077 3.5315 0
M  V30 2251 C 212.791 -3.76037 3.6808 0
M  V30 2252 O 211.817 -3.60598 4.40406 0
M  V30 2253 N 213.019 -4.93763 3.05251 0
M  V30 2254 H 215.784 -0.871609 2.86746 0
M  V30 2255 H 213.345 -0.32972 1.58507 0
M  V30 2256 H 215.337 -3.33623 2.2908 0
M  V30 2257 H 213.907 -2.81111 1.36731 0
M  V30 2258 H 213.127 -1.6651 3.57307 0
M  V30 2259 H 214.415 -2.56377 4.39486 0
M  V30 2260 H 213.813 -5.09209 2.46419 0
M  V30 2261 H 212.37 -5.68949 3.18026 0
M  V30 2262 N 215.803 -1.52179 -0.40978 0
M  V30 2263 C 217.028 -1.70347 -1.18308 0
M  V30 2264 C 217.453 -0.411887 -1.83535 0
M  V30 2265 O 216.811 0.630587 -1.6998 0
M  V30 2266 C 216.859 -2.83977 -2.22238 0
M  V30 2267 O 215.963 -2.495 -3.28365 0
M  V30 2268 H 215.304 -0.567103 -0.345384 0
M  V30 2269 H 217.834 -1.98879 -0.480445 0
M  V30 2270 H 217.844 -3.0887 -2.66577 0
M  V30 2271 H 216.519 -3.77685 -1.74146 0
M  V30 2272 H 215.096 -2.35277 -2.89308 0
M  V30 2273 N 217.281 0.66697 -1.42791 0
M  V30 2274 C 218.528 1.42699 -1.43678 0
M  V30 2275 C 218.856 1.94419 -0.0560425 0
M  V30 2276 O 218.111 1.7182 0.936831 0
M  V30 2277 C 218.41 2.6349 -2.4147 0
M  V30 2278 C 218.076 2.30267 -3.8767 0
M  V30 2279 C 216.738 2.20918 -4.27491 0
M  V30 2280 C 219.09 2.03435 -4.79858 0
M  V30 2281 C 216.418 1.82873 -5.57471 0
M  V30 2282 C 218.77 1.66892 -6.10188 0
M  V30 2283 C 217.434 1.56058 -6.49001 0
M  V30 2284 H 216.704 0.522171 -0.525755 0
M  V30 2285 H 219.351 0.759785 -1.75783 0
M  V30 2286 H 217.656 3.35279 -2.0272 0
M  V30 2287 H 219.353 3.21684 -2.39417 0
M  V30 2288 H 215.943 2.38449 -3.56146 0
M  V30 2289 H 220.127 2.09586 -4.49875 0
M  V30 2290 H 215.383 1.7306 -5.86396 0
M  V30 2291 H 219.557 1.45157 -6.81104 0
M  V30 2292 H 217.184 1.26348 -7.49627 0
M  V30 2293 N 218.759 1.29093 0.90403 0
M  V30 2294 C 219.669 1.15727 2.0407 0
M  V30 2295 C 220.685 0.0815308 1.73809 0
M  V30 2296 O 221.861 0.292749 1.99261 0
M  V30 2297 C 218.926 0.830424 3.36608 0
M  V30 2298 C 217.987 1.98955 3.80415 0
M  V30 2299 C 217.22 1.6782 5.06628 0
M  V30 2300 O 217.443 0.597105 5.67266 0
M  V30 2301 O 216.377 2.52486 5.46383 0
M  V30 2302 H 220.203 2.11171 2.18267 0
M  V30 2303 H 217.788 1.08504 1.027 0
M  V30 2304 H 219.67 0.662521 4.16159 0
M  V30 2305 H 218.345 -0.0942678 3.23563 0
M  V30 2306 H 217.252 2.21267 3.01648 0
M  V30 2307 H 218.585 2.89529 3.98037 0
M  V30 2308 N 220.237 -1.11381 1.11499 0
M  V30 2309 C 221.169 -2.17207 0.731704 0
M  V30 2310 C 222.182 -1.61066 -0.236957 0
M  V30 2311 O 223.371 -1.78489 -0.0197591 0
M  V30 2312 C 220.471 -3.38846 0.0607624 0
M  V30 2313 C 219.644 -4.24451 1.0564 0
M  V30 2314 C 218.703 -5.24562 0.4149 0
M  V30 2315 O 217.729 -5.59071 1.069 0
M  V30 2316 N 218.931 -5.74651 -0.821943 0
M  V30 2317 H 221.696 -2.50699 1.64225 0
M  V30 2318 H 219.257 -1.26908 1.00529 0
M  V30 2319 H 221.249 -4.02911 -0.380139 0
M  V30 2320 H 219.819 -3.03411 -0.752376 0
M  V30 2321 H 219.039 -3.56833 1.67524 0
M  V30 2322 H 220.327 -4.78486 1.72998 0
M  V30 2323 H 219.725 -5.48797 -1.37252 0
M  V30 2324 H 218.282 -6.40549 -1.20582 0
M  V30 2325 N 221.715 -0.905404 -1.28997 0
M  V30 2326 C 222.961 -0.535039 -1.95615 0
M  V30 2327 C 223.294 0.917404 -1.71165 0
M  V30 2328 O 222.569 1.65123 -1.02785 0
M  V30 2329 C 222.852 -0.834918 -3.50287 0
M  V30 2330 C 222.705 -2.33948 -3.84172 0
M  V30 2331 C 224.024 -0.325318 -4.38896 0
M  V30 2332 H 221.143 -0.195861 -0.710498 0
M  V30 2333 H 223.785 -1.13313 -1.52513 0
M  V30 2334 H 221.935 -0.325904 -3.87131 0
M  V30 2335 H 223.607 -2.91847 -3.57243 0
M  V30 2336 H 221.85 -2.79789 -3.31513 0
M  V30 2337 H 222.521 -2.49987 -4.92149 0
M  V30 2338 H 224.997 -0.761256 -4.09077 0
M  V30 2339 H 223.873 -0.564295 -5.45992 0
M  V30 2340 H 224.134 0.774144 -4.35269 0
M  V30 2341 N 223.193 1.4272 -0.668489 0
M  V30 2342 C 224.441 2.01226 -0.187769 0
M  V30 2343 C 224.762 1.53092 1.2078 0
M  V30 2344 O 224.032 0.74993 1.80977 0
M  V30 2345 H 222.612 0.744041 -0.0664272 0
M  V30 2346 H 225.274 1.74723 -0.863583 0
M  V30 2347 H 224.37 3.11556 -0.184166 0
M  V30 2348 N 224.671 0.411399 1.52136 0
M  V30 2349 C 225.899 -0.163076 2.06256 0
M  V30 2350 C 226.314 -1.3867 1.28125 0
M  V30 2351 O 225.671 -1.79423 0.333721 0
M  V30 2352 C 225.722 -0.511252 3.57867 0
M  V30 2353 O 225.443 0.66378 4.33042 0
M  V30 2354 C 226.944 -1.13921 4.28412 0
M  V30 2355 H 224.164 -0.0193897 0.67072 0
M  V30 2356 H 226.708 0.583007 1.96013 0
M  V30 2357 H 224.863 -1.20723 3.6811 0
M  V30 2358 H 225.277 0.372601 5.23175 0
M  V30 2359 H 226.751 -1.33302 5.35663 0
M  V30 2360 H 227.228 -2.11296 3.85033 0
M  V30 2361 H 227.834 -0.483373 4.22544 0
M  V30 2362 N 226.149 -1.5696 0.141893 0
M  V30 2363 C 227.096 -2.16501 -0.799737 0
M  V30 2364 C 228.066 -1.09643 -1.24771 0
M  V30 2365 O 229.251 -1.3766 -1.32115 0
M  V30 2366 C 226.391 -2.78679 -2.03549 0
M  V30 2367 C 225.504 -3.99914 -1.6338 0
M  V30 2368 C 224.639 -4.50106 -2.82096 0
M  V30 2369 C 223.678 -5.63819 -2.38275 0
M  V30 2370 N 222.815 -6.08651 -3.49983 0
M  V30 2371 H 227.655 -2.96632 -0.285179 0
M  V30 2372 H 225.192 -1.46533 -0.129053 0
M  V30 2373 H 227.15 -3.1287 -2.75986 0
M  V30 2374 H 225.78 -2.012 -2.52425 0
M  V30 2375 H 224.832 -3.71735 -0.807279 0
M  V30 2376 H 226.144 -4.82311 -1.27192 0
M  V30 2377 H 225.298 -4.86325 -3.62729 0
M  V30 2378 H 224.037 -3.66706 -3.21525 0
M  V30 2379 H 223.042 -5.2718 -1.56081 0
M  V30 2380 H 224.267 -6.49 -1.99938 0
M  V30 2381 H 222.213 -5.28188 -3.89042 0
M  V30 2382 H 222.13 -6.85961 -3.17794 0
M  V30 2383 H 223.398 -6.49515 -4.30988 0
M  V30 2384 N 227.627 0.131896 -1.57047 0
M  V30 2385 C 228.873 0.843179 -1.84441 0
M  V30 2386 C 229.206 1.80129 -0.725749 0
M  V30 2387 O 228.481 1.92624 0.269469 0
M  V30 2388 C 228.764 1.60442 -3.22382 0
M  V30 2389 C 228.617 0.666782 -4.4483 0
M  V30 2390 C 229.936 2.56354 -3.5773 0
M  V30 2391 H 227.055 0.305081 -0.670891 0
M  V30 2392 H 229.697 0.107839 -1.89694 0
M  V30 2393 H 227.847 2.23128 -3.18035 0
M  V30 2394 H 229.519 0.0497646 -4.61273 0
M  V30 2395 H 227.762 -0.022609 -4.33794 0
M  V30 2396 H 228.433 1.23579 -5.37989 0
M  V30 2397 H 230.909 2.0378 -3.62785 0
M  V30 2398 H 229.785 3.06657 -4.5525 0
M  V30 2399 H 230.046 3.38419 -2.84473 0
M  V30 2400 N 229.106 1.52395 0.401703 0
M  V30 2401 C 230.054 1.7689 1.51039 0
M  V30 2402 C 231.048 0.636298 1.56996 0
M  V30 2403 O 232.254 0.818507 1.60314 0
M  V30 2404 H 228.629 0.559502 0.502456 0
M  V30 2405 H 230.6 2.69757 1.27568 0
M  V30 2406 C 229.349 1.94331 2.88324 0
M  V30 2407 H 228.672 2.80905 2.84486 0
M  V30 2408 H 230.112 2.15466 3.65172 0
M  V30 2409 C 228.571 0.712396 3.29282 0
M  V30 2410 O 229.101 -0.116218 4.01532 0
M  V30 2411 N 227.307 0.546154 2.85422 0
M  V30 2412 H 226.854 1.22156 2.26794 0
M  V30 2413 H 226.812 -0.276113 3.13185 0
M  V30 2414 N 230.584 -0.659388 1.43143 0
M  V30 2415 C 231.83 -1.42145 1.44647 0
M  V30 2416 C 232.163 -1.9408 0.0681907 0
M  V30 2417 O 231.438 -1.71899 -0.910007 0
M  V30 2418 C 231.721 -2.60735 2.48373 0
M  V30 2419 C 231.574 -2.14332 3.95451 0
M  V30 2420 C 232.893 -3.62951 2.48906 0
M  V30 2421 H 230.012 -0.51552 0.526696 0
M  V30 2422 H 232.654 -0.748069 1.74654 0
M  V30 2423 H 230.804 -3.18184 2.22916 0
M  V30 2424 H 232.476 -1.61932 4.31944 0
M  V30 2425 H 230.719 -1.4576 4.08578 0
M  V30 2426 H 231.39 -2.99583 4.63631 0
M  V30 2427 H 233.866 -3.1525 2.71582 0
M  V30 2428 H 232.742 -4.43487 3.23435 0
M  V30 2429 H 233.003 -4.15126 1.52061 0
M  V30 2430 N 232.062 -1.29571 -0.897171 0
M  V30 2431 C 233.29 -1.20583 -1.68129 0
M  V30 2432 C 233.705 0.233181 -1.87354 0
M  V30 2433 O 233.062 1.15579 -1.41236 0
M  V30 2434 C 233.113 -1.91772 -3.06441 0
M  V30 2435 O 232.834 -3.30053 -2.88091 0
M  V30 2436 C 234.335 -1.89291 -4.00854 0
M  V30 2437 H 231.555 -0.417826 -0.525036 0
M  V30 2438 H 234.099 -1.70987 -1.12177 0
M  V30 2439 H 232.254 -1.45196 -3.59161 0
M  V30 2440 H 232.668 -3.65942 -3.75748 0
M  V30 2441 H 234.142 -2.43662 -4.95311 0
M  V30 2442 H 234.619 -0.869014 -4.30517 0
M  V30 2443 H 235.225 -2.35622 -3.54066 0
M  V30 2444 N 233.54 1.10788 -1.12088 0
M  V30 2445 C 234.786 1.82942 -0.875226 0
M  V30 2446 C 235.119 1.84779 0.597538 0
M  V30 2447 O 234.394 1.30578 1.44152 0
M  V30 2448 C 234.677 3.29789 -1.44606 0
M  V30 2449 C 234.53 3.36307 -2.98693 0
M  V30 2450 C 235.849 4.26064 -1.10261 0
M  V30 2451 H 232.968 0.664195 -0.319397 0
M  V30 2452 H 235.61 1.29867 -1.38689 0
M  V30 2453 H 233.76 3.75118 -1.01089 0
M  V30 2454 H 235.432 2.99487 -3.50864 0
M  V30 2455 H 233.675 2.76318 -3.34411 0
M  V30 2456 H 234.346 4.39694 -3.33726 0
M  V30 2457 H 236.822 3.88951 -1.4784 0
M  V30 2458 H 235.698 5.27183 -1.52869 0
M  V30 2459 H 235.959 4.42098 -0.0142953 0
M  V30 2460 N 235.018 0.912232 1.28515 0
M  V30 2461 C 235.928 0.404506 2.31086 0
M  V30 2462 C 236.944 -0.50707 1.66448 0
M  V30 2463 O 238.12 -0.393624 1.97516 0
M  V30 2464 C 235.185 -0.348572 3.44943 0
M  V30 2465 C 234.246 0.59604 4.25142 0
M  V30 2466 C 233.479 -0.121194 5.33562 0
M  V30 2467 O 233.702 -1.34317 5.5436 0
M  V30 2468 O 232.636 0.542716 5.99448 0
M  V30 2469 H 236.462 1.25579 2.76521 0
M  V30 2470 H 234.047 0.676998 1.33181 0
M  V30 2471 H 235.929 -0.77395 4.14232 0
M  V30 2472 H 234.604 -1.17571 3.01594 0
M  V30 2473 H 233.511 1.07079 3.58448 0
M  V30 2474 H 234.844 1.38995 4.72167 0
M  V30 2475 N 236.496 -1.42363 0.676048 0
M  V30 2476 C 237.773 -1.95183 0.127726 0
M  V30 2477 C 238.153 -1.61641 -1.35777 0
M  V30 2478 O 237.501 -0.913216 -2.09458 0
M  V30 2479 C 237.711 -3.46721 0.398199 0
M  V30 2480 C 239.059 -4.23427 0.315383 0
M  V30 2481 O 240.083 -3.54649 0.332016 0
M  V30 2482 O 238.942 -5.45888 0.25865 0
M  V30 2483 H 236.036 -0.826992 0.00359427 0
M  V30 2484 H 238.582 -1.52184 0.750864 0
M  V30 2485 H 237.354 -3.64344 1.4272 0
M  V30 2486 H 236.977 -3.96769 -0.256885 0
M  V30 2487 N 237.974 -0.419461 -1.51915 0
M  V30 2488 C 238.884 0.407528 -2.31033 0
M  V30 2489 C 239.9 1.04413 -1.3919 0
M  V30 2490 O 241.076 1.0434 -1.72265 0
M  V30 2491 C 238.141 1.50365 -3.12396 0
M  V30 2492 C 237.202 0.889029 -4.19994 0
M  V30 2493 C 236.435 1.93291 -4.97468 0
M  V30 2494 O 236.658 3.15259 -4.75361 0
M  V30 2495 O 235.592 1.53339 -5.8204 0
M  V30 2496 H 239.418 -0.237865 -3.02767 0
M  V30 2497 H 237.003 -0.182413 -1.48282 0
M  V30 2498 H 238.885 2.13975 -3.63032 0
M  V30 2499 H 237.56 2.13345 -2.43445 0
M  V30 2500 H 236.467 0.215353 -3.7348 0
M  V30 2501 H 237.8 0.302991 -4.91267 0
M  V30 2502 N 239.452 1.56882 -0.150215 0
M  V30 2503 C 240.868 1.58263 0.20617 0
M  V30 2504 C 241.068 1.16464 1.64434 0
M  V30 2505 O 240.124 0.866422 2.3717 0
M  V30 2506 C 241.437 3.00649 -0.0555025 0
M  V30 2507 C 242.985 3.12999 0.00795388 0
M  V30 2508 C 243.46 4.5744 -0.226429 0
M  V30 2509 N 244.951 4.62875 -0.173469 0
M  V30 2510 C 245.686 5.72454 -0.329288 0
M  V30 2511 N 245.182 6.90669 -0.543005 0
M  V30 2512 N 246.975 5.61467 -0.266666 0
M  V30 2513 H 239.126 1.82345 -1.08922 0
M  V30 2514 H 241.389 0.844149 -0.431413 0
M  V30 2515 H 241.095 3.3563 -1.05096 0
M  V30 2516 H 240.969 3.71337 0.66246 0
M  V30 2517 H 243.356 2.77857 0.993966 0
M  V30 2518 H 243.437 2.4479 -0.742388 0
M  V30 2519 H 243.081 4.93287 -1.20956 0
M  V30 2520 H 243.011 5.2378 0.544274 0
M  V30 2521 H 245.502 3.77898 -0.0130709 0
M  V30 2522 H 245.815 7.70045 -0.651922 0
M  V30 2523 H 244.16 6.92581 -0.579366 0
M  V30 2524 H 247.351 4.67992 -0.100441 0
M  V30 2525 H 247.524 6.46816 -0.391535 0
M  V30 2526 N 240.93 -0.123565 1.57115 0
M  V30 2527 C 242.158 -0.846461 1.88793 0
M  V30 2528 C 242.573 -1.73652 0.740976 0
M  V30 2529 O 241.93 -1.80207 -0.288393 0
M  V30 2530 C 241.981 -1.6837 3.19897 0
M  V30 2531 O 241.702 -0.829477 4.30176 0
M  V30 2532 C 243.203 -2.51214 3.65248 0
M  V30 2533 H 240.423 -0.243573 0.625231 0
M  V30 2534 H 242.967 -0.109324 2.04208 0
M  V30 2535 H 241.122 -2.37364 3.06165 0
M  V30 2536 H 241.536 -1.40651 5.0529 0
M  V30 2537 H 243.01 -3.05497 4.59756 0
M  V30 2538 H 243.487 -3.28359 2.9168 0
M  V30 2539 H 244.093 -1.8747 3.81752 0
M  V30 2540 N 242.408 -1.52605 -0.393616 0
M  V30 2541 C 243.338 -1.80022 -1.48709 0
M  V30 2542 C 244.319 -0.651995 -1.57108 0
M  V30 2543 O 245.504 -0.89913 -1.72132 0
M  V30 2544 C 242.634 -1.96492 -2.86371 0
M  V30 2545 C 241.588 -3.12161 -2.92813 0
M  V30 2546 C 240.914 -3.13877 -4.3288 0
M  V30 2547 C 242.214 -4.51322 -2.6288 0
M  V30 2548 H 243.908 -2.71589 -1.26015 0
M  V30 2549 H 241.454 -1.30684 -0.604778 0
M  V30 2550 H 243.407 -2.14255 -3.62867 0
M  V30 2551 H 242.131 -1.01611 -3.10391 0
M  V30 2552 H 240.79 -2.94173 -2.18764 0
M  V30 2553 H 240.438 -2.16687 -4.53933 0
M  V30 2554 H 240.138 -3.91576 -4.38112 0
M  V30 2555 H 241.662 -3.33789 -5.1129 0
M  V30 2556 H 243.076 -4.69435 -3.29096 0
M  V30 2557 H 241.473 -5.31053 -2.79468 0
M  V30 2558 H 242.543 -4.58353 -1.58242 0
M  V30 2559 N 243.887 0.651787 -1.4349 0
M  V30 2560 C 245.133 1.41376 -1.45398 0
M  V30 2561 C 245.466 1.94041 -0.0784823 0
M  V30 2562 O 244.741 1.72379 0.900878 0
M  V30 2563 C 245.024 2.59414 -2.49752 0
M  V30 2564 C 244.877 2.12232 -3.96582 0
M  V30 2565 C 246.196 3.61626 -2.50827 0
M  V30 2566 H 243.315 0.512719 -0.529422 0
M  V30 2567 H 245.957 0.738796 -1.75048 0
M  V30 2568 H 244.107 3.16997 -2.246 0
M  V30 2569 H 245.779 1.59639 -4.32797 0
M  V30 2570 H 244.022 1.43592 -4.09346 0
M  V30 2571 H 244.693 2.9712 -4.65214 0
M  V30 2572 H 247.169 3.13805 -2.7325 0
M  V30 2573 H 246.045 4.41766 -3.25783 0
M  V30 2574 H 246.306 4.14314 -1.5426 0
M  V30 2575 N 245.365 1.30045 0.890287 0
M  V30 2576 C 246.781 1.08261 1.17268 0
M  V30 2577 C 246.981 -0.160063 2.00863 0
M  V30 2578 O 246.037 -0.855181 2.37577 0
M  V30 2579 C 247.35 2.34323 1.8845 0
M  V30 2580 C 248.898 2.39735 2.01237 0
M  V30 2581 C 249.373 3.65625 2.7583 0
M  V30 2582 N 250.864 3.66402 2.83379 0
M  V30 2583 C 251.599 4.60498 3.41657 0
M  V30 2584 N 251.095 5.64933 4.01026 0
M  V30 2585 N 252.888 4.48051 3.39421 0
M  V30 2586 H 245.039 2.09777 0.332762 0
M  V30 2587 H 247.302 0.92446 0.209948 0
M  V30 2588 H 247.008 3.2498 1.34465 0
M  V30 2589 H 246.882 2.4256 2.88867 0
M  V30 2590 H 249.269 1.4956 2.54393 0
M  V30 2591 H 249.35 2.35476 0.999232 0
M  V30 2592 H 248.994 4.56156 2.23347 0
M  V30 2593 H 248.924 3.67144 3.77509 0
M  V30 2594 H 251.415 2.90896 2.41222 0
M  V30 2595 H 251.728 6.32841 4.43545 0
M  V30 2596 H 250.073 5.68732 3.99461 0
M  V30 2597 H 253.264 3.65649 2.92264 0
M  V30 2598 H 253.437 5.21565 3.84544 0
M  V30 2599 N 246.843 -1.10192 1.12674 0
M  V30 2600 C 248.259 -1.34235 0.863317 0
M  V30 2601 C 248.459 -1.95062 -0.505277 0
M  V30 2602 O 247.515 -2.19192 -1.25345 0
M  V30 2603 C 248.828 -2.2616 1.98172 0
M  V30 2604 C 250.376 -2.3969 2.0129 0
M  V30 2605 C 250.851 -3.34946 3.1237 0
M  V30 2606 N 252.342 -3.42515 3.11829 0
M  V30 2607 C 253.077 -4.16199 3.94419 0
M  V30 2608 N 252.573 -4.92747 4.87004 0
M  V30 2609 N 254.366 -4.11843 3.82547 0
M  V30 2610 H 246.517 -0.690798 2.00853 0
M  V30 2611 H 248.78 -0.366774 0.874174 0
M  V30 2612 H 248.486 -1.8868 2.96804 0
M  V30 2613 H 248.36 -3.26488 1.88906 0
M  V30 2614 H 250.747 -2.76438 1.03276 0
M  V30 2615 H 250.828 -1.39169 2.14629 0
M  V30 2616 H 250.472 -2.98923 4.10619 0
M  V30 2617 H 250.402 -4.35353 2.96269 0
M  V30 2618 H 252.893 -2.87926 2.44759 0
M  V30 2619 H 253.206 -5.46376 5.46528 0
M  V30 2620 H 251.551 -4.91862 4.91016 0
M  V30 2621 H 254.742 -3.51136 3.0955 0
M  V30 2622 H 254.915 -4.69007 4.47142 0
M  V30 2623 N 248.321 -0.919034 -1.28029 0
M  V30 2624 C 249.269 -0.401753 -2.29104 0
M  V30 2625 C 250.263 0.509354 -1.61561 0
M  V30 2626 O 251.469 0.390014 -1.75724 0
M  V30 2627 H 247.844 -0.111331 -0.743713 0
M  V30 2628 H 249.815 -1.2672 -2.70156 0
M  V30 2629 C 248.564 0.338148 -3.46052 0
M  V30 2630 H 247.887 -0.353732 -3.98232 0
M  V30 2631 H 249.327 0.664653 -4.18758 0
M  V30 2632 C 247.786 1.54798 -2.99231 0
M  V30 2633 O 248.316 2.64696 -3.02157 0
M  V30 2634 N 246.522 1.3968 -2.54829 0
M  V30 2635 H 246.069 0.502698 -2.52647 0
M  V30 2636 H 246.027 2.20755 -2.23863 0
M  V30 2637 N 249.799 1.42003 -0.683588 0
M  V30 2638 C 250.747 2.326 0.000815408 0
M  V30 2639 C 251.741 1.50308 0.781278 0
M  V30 2640 O 252.947 1.66322 0.688251 0
M  V30 2641 H 249.322 0.751758 0.0190616 0
M  V30 2642 H 251.293 2.88011 -0.780528 0
M  V30 2643 C 250.042 3.34978 0.93195 0
M  V30 2644 H 249.365 3.98345 0.340817 0
M  V30 2645 H 250.805 4.00936 1.37936 0
M  V30 2646 C 249.264 2.67925 2.04249 0
M  V30 2647 O 249.794 2.51788 3.12995 0
M  V30 2648 N 248 2.2681 1.81675 0
M  V30 2649 H 247.547 2.40135 0.932363 0
M  V30 2650 H 247.505 1.8228 2.56167 0
M  V30 2651 N 251.277 0.427512 1.51691 0
M  V30 2652 C 252.505 -0.141191 2.06418 0
M  V30 2653 C 252.92 -1.37303 1.29589 0
M  V30 2654 O 252.277 -1.79059 0.352732 0
M  V30 2655 C 252.328 -0.473266 3.58389 0
M  V30 2656 O 252.049 0.709673 4.32314 0
M  V30 2657 C 253.55 -1.09371 4.29596 0
M  V30 2658 H 250.77 -0.0122747 0.670888 0
M  V30 2659 H 253.314 0.603764 1.95384 0
M  V30 2660 H 251.469 -1.16812 3.69369 0
M  V30 2661 H 251.883 0.42807 5.2275 0
M  V30 2662 H 253.357 -1.27613 5.37046 0
M  V30 2663 H 253.834 -2.072 3.87253 0
M  V30 2664 H 254.44 -0.43853 4.23033 0
M  V30 2665 N 252.755 -1.56801 0.158532 0
M  V30 2666 C 254.002 -1.9649 -0.489679 0
M  V30 2667 C 254.33 -1.04394 -1.6411 0
M  V30 2668 O 253.585 -0.0754401 -1.95555 0
M  V30 2669 C 253.884 -3.4235 -1.02623 0
M  V30 2670 C 253.55 -4.50899 0.00794526 0
M  V30 2671 C 252.212 -4.80312 0.292207 0
M  V30 2672 C 254.564 -5.16333 0.710584 0
M  V30 2673 C 251.892 -5.72461 1.28472 0
M  V30 2674 C 254.244 -6.09553 1.69199 0
M  V30 2675 C 252.908 -6.37339 1.98383 0
M  V30 2676 H 252.178 -0.719009 -0.179186 0
M  V30 2677 H 254.825 -1.8989 0.247798 0
M  V30 2678 H 253.13 -3.45838 -1.84128 0
M  V30 2679 H 254.827 -3.70393 -1.53656 0
M  V30 2680 H 251.417 -4.28015 -0.22379 0
M  V30 2681 H 255.601 -4.93732 0.504174 0
M  V30 2682 H 250.857 -5.92278 1.51714 0
M  V30 2683 H 255.031 -6.59327 2.24189 0
M  V30 2684 H 252.658 -7.08546 2.7544 0
M  V30 2685 N 254.233 0.115231 -1.57178 0
M  V30 2686 C 255.163 1.1423 -2.03651 0
M  V30 2687 C 256.144 1.42967 -0.921655 0
M  V30 2688 O 257.329 1.53343 -1.19162 0
M  V30 2689 C 254.459 2.4675 -2.44401 0
M  V30 2690 C 253.413 2.32467 -3.59365 0
M  V30 2691 C 252.739 3.69984 -3.86026 0
M  V30 2692 C 254.039 1.78203 -4.90959 0
M  V30 2693 H 255.733 0.755749 -2.89705 0
M  V30 2694 H 253.279 0.362093 -1.39373 0
M  V30 2695 H 255.232 3.18854 -2.75517 0
M  V30 2696 H 253.956 2.87302 -1.55322 0
M  V30 2697 H 252.615 1.62811 -3.28463 0
M  V30 2698 H 252.263 4.08028 -2.94147 0
M  V30 2699 H 251.963 3.61279 -4.63412 0
M  V30 2700 H 253.487 4.43587 -4.19599 0
M  V30 2701 H 254.901 2.40128 -5.20587 0
M  V30 2702 H 253.298 1.8031 -5.72371 0
M  V30 2703 H 254.368 0.739876 -4.79222 0
M  V30 2704 N 255.711 1.52812 0.385517 0
M  V30 2705 C 256.936 1.72207 1.15583 0
M  V30 2706 C 257.361 0.441034 1.82857 0
M  V30 2707 O 256.719 -0.603465 1.70962 0
M  V30 2708 C 256.767 2.87476 2.17692 0
M  V30 2709 O 255.871 2.54693 3.24354 0
M  V30 2710 H 255.212 0.572526 0.336319 0
M  V30 2711 H 257.742 1.99618 0.448744 0
M  V30 2712 H 257.752 3.13072 2.6163 0
M  V30 2713 H 256.427 3.80408 1.68115 0
M  V30 2714 H 255.004 2.3985 2.85529 0
M  V30 2715 N 257.189 -0.644168 1.43834 0
M  V30 2716 C 258.119 -1.76814 1.52509 0
M  V30 2717 C 259.1 -1.65823 0.379052 0
M  V30 2718 O 260.285 -1.84781 0.597466 0
M  V30 2719 C 257.415 -3.15288 1.4564 0
M  V30 2720 C 256.369 -3.41053 2.58586 0
M  V30 2721 C 255.695 -4.79421 2.36769 0
M  V30 2722 C 256.995 -3.34902 4.00797 0
M  V30 2723 H 258.689 -1.69812 2.46586 0
M  V30 2724 H 256.235 -0.815542 1.1868 0
M  V30 2725 H 258.188 -3.93681 1.50311 0
M  V30 2726 H 256.912 -3.23043 0.480725 0
M  V30 2727 H 255.571 -2.65035 2.53282 0
M  V30 2728 H 255.219 -4.83863 1.37424 0
M  V30 2729 H 254.919 -4.9762 3.12487 0
M  V30 2730 H 256.443 -5.6006 2.43238 0
M  V30 2731 H 257.857 -4.03218 4.07539 0
M  V30 2732 H 256.254 -3.64637 4.76613 0
M  V30 2733 H 257.324 -2.32928 4.25291 0
M  V30 2734 N 258.668 -1.30515 -0.883378 0
M  V30 2735 C 260.084 -1.08881 -1.16692 0
M  V30 2736 C 260.284 0.149409 -2.00945 0
M  V30 2737 O 259.34 0.84257 -2.38027 0
M  V30 2738 C 260.653 -2.35319 -1.87204 0
M  V30 2739 C 262.201 -2.40799 -1.99962 0
M  V30 2740 C 262.676 -3.67083 -2.73887 0
M  V30 2741 N 264.167 -3.679 -2.81432 0
M  V30 2742 C 264.902 -4.62303 -3.3921 0
M  V30 2743 N 264.398 -5.67052 -3.98025 0
M  V30 2744 N 266.191 -4.49845 -3.3704 0
M  V30 2745 H 258.342 -2.09951 -0.321633 0
M  V30 2746 H 260.605 -0.92556 -0.205043 0
M  V30 2747 H 260.311 -3.25689 -1.3274 0
M  V30 2748 H 260.185 -2.44089 -2.87577 0
M  V30 2749 H 262.572 -1.50907 -2.53597 0
M  V30 2750 H 262.653 -2.36003 -0.98673 0
M  V30 2751 H 262.297 -4.57334 -2.20925 0
M  V30 2752 H 262.227 -3.69141 -3.75556 0
M  V30 2753 H 264.718 -2.92171 -2.39676 0
M  V30 2754 H 265.031 -6.35184 -4.40183 0
M  V30 2755 H 263.376 -5.70842 -3.96439 0
M  V30 2756 H 266.567 -3.67194 -2.90321 0
M  V30 2757 H 266.74 -5.23597 -3.81772 0
M  V30 2758 N 260.146 1.09593 -1.13257 0
M  V30 2759 C 261.423 1.78293 -0.804432 0
M  V30 2760 C 261.803 1.99004 0.70431 0
M  V30 2761 O 261.151 1.59007 1.641 0
M  V30 2762 C 261.361 3.10707 -1.5894 0
M  V30 2763 C 262.709 3.85443 -1.78099 0
M  V30 2764 O 263.733 3.20454 -1.55525 0
M  V30 2765 O 262.592 5.02108 -2.15753 0
M  V30 2766 H 259.686 0.773156 -0.293528 0
M  V30 2767 H 262.232 1.16164 -1.23709 0
M  V30 2768 H 261.004 2.91106 -2.61482 0
M  V30 2769 H 260.627 3.80558 -1.15157 0
M  V30 2770 N 261.624 0.925811 1.2754 0
M  V30 2771 C 262.87 0.566092 1.94739 0
M  V30 2772 C 263.203 -0.890057 1.72603 0
M  V30 2773 O 262.478 -1.63467 1.05399 0
M  V30 2774 C 262.761 0.89054 3.48915 0
M  V30 2775 C 262.614 2.4003 3.80402 0
M  V30 2776 C 263.933 0.395101 4.38323 0
M  V30 2777 H 261.052 0.20714 0.707292 0
M  V30 2778 H 263.694 1.15725 1.50691 0
M  V30 2779 H 261.844 0.387452 3.86563 0
M  V30 2780 H 263.516 2.97494 3.52555 0
M  V30 2781 H 261.759 2.85028 3.2702 0
M  V30 2782 H 262.43 2.57785 4.8811 0
M  V30 2783 H 264.906 0.826241 4.07814 0
M  V30 2784 H 263.782 0.651086 5.45025 0
M  V30 2785 H 264.043 -0.704798 4.36446 0
M  V30 2786 N 263.102 -1.41638 0.69111 0
M  V30 2787 C 264.349 -2.01299 0.220193 0
M  V30 2788 C 264.677 -1.54715 -1.17871 0
M  V30 2789 O 263.932 -0.747193 -1.80874 0
M  V30 2790 C 264.231 -3.56714 0.221277 0
M  V30 2791 C 263.897 -4.22792 1.56709 0
M  V30 2792 C 262.559 -4.40557 1.93554 0
M  V30 2793 C 264.911 -4.59883 2.45268 0
M  V30 2794 C 262.239 -4.92688 3.18552 0
M  V30 2795 C 264.591 -5.13403 3.69595 0
M  V30 2796 C 263.255 -5.29379 4.06589 0
M  V30 2797 H 262.525 -0.736606 0.0805743 0
M  V30 2798 H 265.172 -1.69598 0.889319 0
M  V30 2799 H 263.477 -3.8818 -0.531391 0
M  V30 2800 H 265.174 -4.00678 -0.160547 0
M  V30 2801 H 261.764 -4.09336 1.2705 0
M  V30 2802 H 265.948 -4.45817 2.18084 0
M  V30 2803 H 261.204 -5.03242 3.47214 0
M  V30 2804 H 265.378 -5.41084 4.38407 0
M  V30 2805 H 263.005 -5.69537 5.03519 0
M  V30 2806 N 264.58 -0.43555 -1.51462 0
M  V30 2807 C 265.828 0.131254 -2.01673 0
M  V30 2808 C 266.149 1.43368 -1.32177 0
M  V30 2809 O 265.419 1.90524 -0.455769 0
M  V30 2810 H 263.999 0.0514954 -0.745223 0
M  V30 2811 H 266.661 -0.577847 -1.86137 0
M  V30 2812 H 265.757 0.308446 -3.10572 0
M  V30 2813 N 266.058 1.56714 -0.166846 0
M  V30 2814 C 267.005 2.17746 0.765193 0
M  V30 2815 C 267.975 1.11614 1.23011 0
M  V30 2816 O 269.16 1.39745 1.29908 0
M  V30 2817 C 266.3 2.81882 1.9909 0
M  V30 2818 C 265.413 4.02462 1.56997 0
M  V30 2819 C 264.548 4.54537 2.749 0
M  V30 2820 C 263.587 5.67538 2.29275 0
M  V30 2821 N 262.724 6.14142 3.40255 0
M  V30 2822 H 267.564 2.97048 0.237952 0
M  V30 2823 H 265.101 1.4672 0.105725 0
M  V30 2824 H 267.059 3.17221 2.70974 0
M  V30 2825 H 265.689 2.05191 2.49192 0
M  V30 2826 H 264.741 3.72973 0.748037 0
M  V30 2827 H 266.053 4.84273 1.19503 0
M  V30 2828 H 265.207 4.92035 3.54946 0
M  V30 2829 H 263.946 3.71774 3.1565 0
M  V30 2830 H 262.951 5.29597 1.47674 0
M  V30 2831 H 264.176 6.52099 1.89588 0
M  V30 2832 H 262.122 5.3431 3.8059 0
M  V30 2833 H 262.039 6.9093 3.06841 0
M  V30 2834 H 263.307 6.56289 4.206 0
M  V30 2835 N 267.536 -0.106894 1.57237 0
M  V30 2836 C 268.813 -0.843526 1.76477 0
M  V30 2837 C 269.193 -1.97499 0.745464 0
M  V30 2838 O 268.541 -2.27357 -0.228306 0
M  V30 2839 C 268.751 -1.34903 3.21873 0
M  V30 2840 C 270.099 -1.79654 3.8472 0
M  V30 2841 O 271.123 -1.44554 3.2555 0
M  V30 2842 O 269.982 -2.44515 4.88748 0
M  V30 2843 H 267.076 -0.401468 0.723016 0
M  V30 2844 H 269.622 -0.0896927 1.69463 0
M  V30 2845 H 268.394 -0.53781 3.87586 0
M  V30 2846 H 268.017 -2.16522 3.33473 0
M  V30 2847 N 269.014 -1.53014 -0.377408 0
M  V30 2848 C 269.944 -1.81589 -1.46791 0
M  V30 2849 C 270.925 -0.668622 -1.56408 0
M  V30 2850 O 272.11 -0.917337 -1.71168 0
M  V30 2851 C 269.24 -1.99519 -2.8427 0
M  V30 2852 C 268.194 -3.15249 -2.89486 0
M  V30 2853 C 267.52 -3.18451 -4.29527 0
M  V30 2854 C 268.82 -4.54084 -2.58079 0
M  V30 2855 H 270.514 -2.7291 -1.23127 0
M  V30 2856 H 268.06 -1.31319 -0.590883 0
M  V30 2857 H 270.013 -2.18092 -3.60575 0
M  V30 2858 H 268.737 -1.04897 -3.09296 0
M  V30 2859 H 267.396 -2.96477 -2.15631 0
M  V30 2860 H 267.044 -2.2149 -4.5161 0
M  V30 2861 H 266.744 -3.962 -4.33934 0
M  V30 2862 H 268.268 -3.39193 -5.07721 0
M  V30 2863 H 269.682 -4.72899 -3.24098 0
M  V30 2864 H 268.079 -5.33987 -2.7382 0
M  V30 2865 H 269.149 -4.60006 -1.53372 0
M  V30 2866 N 270.492 0.636531 -1.44174 0
M  V30 2867 C 271.741 1.39213 -1.45954 0
M  V30 2868 C 272.054 1.95374 -0.0939119 0
M  V30 2869 O 273.26 2.71498 0.0107767 0
M  V30 2870 C 271.716 2.52025 -2.56927 0
M  V30 2871 C 271.324 2.024 -3.99673 0
M  V30 2872 C 273.068 3.29269 -2.67922 0
M  V30 2873 C 270.975 3.12521 -5.0208 0
M  V30 2874 H 269.905 0.523132 -0.542999 0
M  V30 2875 H 272.556 0.685349 -1.70221 0
M  V30 2876 H 270.938 3.25253 -2.25891 0
M  V30 2877 H 272.112 1.36073 -4.40251 0
M  V30 2878 H 270.427 1.37987 -3.92872 0
M  V30 2879 H 273.024 4.11352 -3.41605 0
M  V30 2880 H 273.367 3.78397 -1.73555 0
M  V30 2881 H 273.9 2.63129 -2.98342 0
M  V30 2882 H 270.639 2.68343 -5.98057 0
M  V30 2883 H 270.159 3.77507 -4.66099 0
M  V30 2884 H 271.838 3.77385 -5.25538 0
M  V30 2885 N 271.97 1.30982 0.876444 0
M  V30 2886 C 273.2 1.23063 1.65949 0
M  V30 2887 C 273.608 -0.207537 1.88058 0
M  V30 2888 O 272.951 -1.14781 1.43426 0
M  V30 2889 C 273.013 1.89768 3.05333 0
M  V30 2890 C 272.677 3.39106 3.0636 0
M  V30 2891 C 273.674 4.3496 2.84791 0
M  V30 2892 C 271.359 3.80693 3.27686 0
M  V30 2893 C 273.353 5.70375 2.84519 0
M  V30 2894 C 271.04 5.16223 3.27043 0
M  V30 2895 C 272.038 6.10875 3.05485 0
M  V30 2896 O 271.726 7.43928 3.04674 0
M  V30 2897 H 271.458 0.426685 0.524324 0
M  V30 2898 H 274.012 1.7329 1.10271 0
M  V30 2899 H 272.242 1.34082 3.6271 0
M  V30 2900 H 273.931 1.75853 3.65829 0
M  V30 2901 H 274.697 4.0416 2.68103 0
M  V30 2902 H 270.576 3.07457 3.43499 0
M  V30 2903 H 274.12 6.44228 2.67611 0
M  V30 2904 H 270.017 5.4666 3.43269 0
M  V30 2905 H 270.785 7.53022 3.2078 0
M  V30 2906 N 273.449 -1.08991 1.13837 0
M  V30 2907 C 274.677 -1.85011 0.926202 0
M  V30 2908 C 275.092 -1.8135 -0.525127 0
M  V30 2909 O 274.449 -1.21287 -1.36366 0
M  V30 2910 C 274.5 -3.32802 1.41155 0
M  V30 2911 O 274.221 -3.36444 2.80601 0
M  V30 2912 C 275.722 -4.25649 1.23847 0
M  V30 2913 H 272.942 -0.584249 0.32999 0
M  V30 2914 H 275.486 -1.37688 1.51202 0
M  V30 2915 H 273.641 -3.77536 0.868631 0
M  V30 2916 H 274.055 -4.28657 3.02248 0
M  V30 2917 H 275.529 -5.27485 1.62675 0
M  V30 2918 H 276.006 -4.38828 0.18065 0
M  V30 2919 H 276.612 -3.86735 1.76964 0
M  V30 2920 N 274.927 -0.932562 -1.27047 0
M  V30 2921 C 275.857 -0.452902 -2.29066 0
M  V30 2922 C 276.838 0.489338 -1.62909 0
M  V30 2923 O 278.023 0.393046 -1.90181 0
M  V30 2924 C 275.153 0.290698 -3.46081 0
M  V30 2925 C 274.107 -0.564168 -4.24265 0
M  V30 2926 C 273.433 0.308886 -5.33807 0
M  V30 2927 C 274.733 -1.83112 -4.89149 0
M  V30 2928 H 276.427 -1.30552 -2.69437 0
M  V30 2929 H 273.973 -0.629201 -1.29526 0
M  V30 2930 H 275.926 0.637233 -4.16554 0
M  V30 2931 H 274.65 1.17738 -3.0464 0
M  V30 2932 H 273.309 -0.893477 -3.55545 0
M  V30 2933 H 272.957 1.19467 -4.88607 0
M  V30 2934 H 272.657 -0.259633 -5.87026 0
M  V30 2935 H 274.181 0.650884 -6.07121 0
M  V30 2936 H 275.595 -1.55236 -5.51883 0
M  V30 2937 H 273.992 -2.34353 -5.52448 0
M  V30 2938 H 275.062 -2.54772 -4.12576 0
M  V30 2939 N 276.405 1.4127 -0.698611 0
M  V30 2940 C 277.635 2.05205 -0.239644 0
M  V30 2941 C 278.043 1.52684 1.11733 0
M  V30 2942 O 277.386 0.671222 1.70998 0
M  V30 2943 C 277.448 3.59289 -0.123126 0
M  V30 2944 C 277.112 4.34619 -1.41263 0
M  V30 2945 C 278.109 4.63701 -2.35111 0
M  V30 2946 C 275.794 4.73837 -1.66684 0
M  V30 2947 C 277.788 5.30966 -3.52639 0
M  V30 2948 C 275.475 5.40837 -2.84498 0
M  V30 2949 C 276.473 5.69329 -3.77298 0
M  V30 2950 O 276.161 6.34949 -4.93047 0
M  V30 2951 H 275.893 0.66723 -0.108537 0
M  V30 2952 H 278.447 1.81974 -0.952602 0
M  V30 2953 H 276.677 3.81272 0.645628 0
M  V30 2954 H 278.366 4.04797 0.299056 0
M  V30 2955 H 279.132 4.33882 -2.16729 0
M  V30 2956 H 275.011 4.51039 -0.953135 0
M  V30 2957 H 278.555 5.53121 -4.25091 0
M  V30 2958 H 274.452 5.70075 -3.02795 0
M  V30 2959 H 275.22 6.53445 -4.92902 0
M  V30 2960 N 277.883 0.443576 1.51229 0
M  V30 2961 C 279.113 -0.119117 2.06256 0
M  V30 2962 C 279.521 -1.36471 1.31043 0
M  V30 2963 O 278.864 -1.80034 0.365151 0
M  V30 2964 C 278.926 -0.500546 3.55998 0
M  V30 2965 C 278.59 0.639125 4.52509 0
M  V30 2966 C 279.587 1.51311 4.97394 0
M  V30 2967 C 277.272 0.821632 4.95535 0
M  V30 2968 C 279.266 2.55425 5.83984 0
M  V30 2969 C 276.953 1.86603 5.81913 0
M  V30 2970 C 277.951 2.73072 6.26036 0
M  V30 2971 O 277.639 3.75718 7.10698 0
M  V30 2972 H 277.371 -0.00857665 0.675946 0
M  V30 2973 H 279.925 0.623288 1.95715 0
M  V30 2974 H 278.155 -1.29575 3.64345 0
M  V30 2975 H 279.844 -0.995116 3.93513 0
M  V30 2976 H 280.61 1.38367 4.64844 0
M  V30 2977 H 276.489 0.158149 4.60729 0
M  V30 2978 H 280.033 3.22949 6.18344 0
M  V30 2979 H 275.93 1.99564 6.13876 0
M  V30 2980 H 276.698 3.72374 7.2889 0
M  V30 2981 N 279.361 -1.56624 0.175154 0
M  V30 2982 C 280.607 -1.98061 -0.462976 0
M  V30 2983 C 280.962 -1.05949 -1.60601 0
M  V30 2984 O 280.255 -0.0999027 -1.91339 0
M  V30 2985 C 280.449 -3.43419 -0.989864 0
M  V30 2986 C 280.278 -4.49587 0.100583 0
M  V30 2987 C 279.048 -5.02281 0.551539 0
M  V30 2988 C 281.246 -5.06322 0.902369 0
M  V30 2989 N 279.228 -5.92088 1.62189 0
M  V30 2990 C 280.599 -5.92607 1.82256 0
M  V30 2991 C 282.654 -4.88811 0.947019 0
M  V30 2992 C 281.357 -6.63254 2.78364 0
M  V30 2993 C 283.383 -5.60182 1.89606 0
M  V30 2994 C 282.745 -6.46197 2.80372 0
M  V30 2995 H 278.844 -0.769833 -0.137409 0
M  V30 2996 H 281.428 -1.9273 0.276256 0
M  V30 2997 H 279.599 -3.49288 -1.6986 0
M  V30 2998 H 281.331 -3.7186 -1.59694 0
M  V30 2999 H 278.086 -4.73367 0.148537 0
M  V30 3000 H 278.51 -6.41696 2.15767 0
M  V30 3001 H 283.152 -4.22004 0.259304 0
M  V30 3002 H 280.87 -7.29271 3.48122 0
M  V30 3003 H 284.456 -5.48617 1.93676 0
M  V30 3004 H 283.336 -7.00453 3.52612 0
M  V30 3005 N 280.839 0.0985539 -1.57292 0
M  V30 3006 C 281.786 1.11981 -2.01814 0
M  V30 3007 C 282.756 1.39999 -0.89384 0
M  V30 3008 O 283.941 1.5152 -1.15958 0
M  V30 3009 C 281.081 2.43577 -2.44467 0
M  V30 3010 C 280.194 2.2232 -3.70402 0
M  V30 3011 C 279.329 3.4729 -4.01949 0
M  V30 3012 C 278.368 3.2128 -5.21005 0
M  V30 3013 N 277.505 4.38507 -5.48321 0
M  V30 3014 H 282.345 0.733149 -2.88841 0
M  V30 3015 H 279.882 0.350482 -1.42864 0
M  V30 3016 H 281.84 3.20373 -2.6724 0
M  V30 3017 H 280.47 2.80097 -1.60455 0
M  V30 3018 H 279.522 1.36343 -3.55126 0
M  V30 3019 H 280.834 1.99089 -4.57345 0
M  V30 3020 H 279.988 4.32495 -4.25479 0
M  V30 3021 H 278.727 3.73572 -3.13521 0
M  V30 3022 H 277.732 2.34468 -4.97298 0
M  V30 3023 H 278.957 2.96348 -6.11028 0
M  V30 3024 H 276.903 4.64871 -4.62851 0
M  V30 3025 H 276.82 4.18455 -6.29628 0
M  V30 3026 H 278.088 5.24787 -5.76385 0
M  V30 3027 N 282.317 1.53212 0.369288 0
M  V30 3028 C 283.542 1.73423 1.1375 0
M  V30 3029 C 283.967 0.460404 1.82378 0
M  V30 3030 O 283.325 -0.585298 1.71592 0
M  V30 3031 C 283.373 2.89769 2.1463 0
M  V30 3032 O 282.477 2.58119 3.21634 0
M  V30 3033 H 281.818 0.576061 0.330227 0
M  V30 3034 H 284.348 2.00083 0.427547 0
M  V30 3035 H 284.358 3.15829 2.58294 0
M  V30 3036 H 283.033 3.8217 1.64071 0
M  V30 3037 H 281.61 2.42864 2.82969 0
M  V30 3038 N 283.795 -0.628877 1.44509 0
M  V30 3039 C 285.02 -1.42048 1.5112 0
M  V30 3040 C 285.445 -1.87594 0.137818 0
M  V30 3041 O 284.803 -1.58873 -0.873437 0
M  V30 3042 C 284.851 -2.61541 2.48251 0
M  V30 3043 O 283.955 -3.61453 1.98559 0
M  V30 3044 H 283.296 -0.424942 0.510216 0
M  V30 3045 H 285.826 -0.767374 1.89664 0
M  V30 3046 H 285.836 -3.09057 2.66361 0
M  V30 3047 H 284.511 -2.27736 3.48007 0
M  V30 3048 H 283.088 -3.20731 1.90227 0
M  V30 3049 N 285.273 -1.31445 -0.869486 0
M  V30 3050 C 286.498 -1.24256 -1.66058 0
M  V30 3051 C 286.923 0.188928 -1.87149 0
M  V30 3052 O 286.281 1.13522 -1.4136 0
M  V30 3053 C 286.329 -1.9924 -3.00559 0
M  V30 3054 O 285.433 -1.33007 -3.90362 0
M  V30 3055 H 284.774 -0.428973 -0.506831 0
M  V30 3056 H 287.304 -1.73521 -1.08404 0
M  V30 3057 H 287.314 -2.08854 -3.50491 0
M  V30 3058 H 285.989 -3.03342 -2.84528 0
M  V30 3059 H 284.566 -1.31848 -3.48813 0
M  V30 3060 N 286.751 1.08385 -1.14413 0
M  V30 3061 C 287.976 1.85057 -0.936413 0
M  V30 3062 C 288.401 1.81055 0.509971 0
M  V30 3063 O 287.759 1.1958 1.36273 0
M  V30 3064 C 287.807 3.30505 -1.44217 0
M  V30 3065 O 286.911 4.07491 -0.634409 0
M  V30 3066 H 286.252 0.573425 -0.334784 0
M  V30 3067 H 288.782 1.36799 -1.52142 0
M  V30 3068 H 288.792 3.81348 -1.45043 0
M  V30 3069 H 287.467 3.32734 -2.49522 0
M  V30 3070 H 286.044 3.66368 -0.694902 0
M  V30 3071 N 288.23 0.939286 1.26551 0
M  V30 3072 C 289.478 0.58469 1.93457 0
M  V30 3073 C 289.799 -0.878774 1.74076 0
M  V30 3074 O 289.069 -1.62421 1.09528 0
M  V30 3075 H 287.649 0.21325 0.715914 0
M  V30 3076 H 290.311 1.1942 1.54029 0
M  V30 3077 H 289.407 0.800849 3.0165 0
M  V30 3078 N 289.708 -1.40897 0.706093 0
M  V30 3079 C 290.655 -2.30751 0.0474474 0
M  V30 3080 C 291.625 -1.47678 -0.76029 0
M  V30 3081 O 292.81 -1.76441 -0.726177 0
M  V30 3082 C 289.95 -3.33815 -0.875309 0
M  V30 3083 C 289.063 -4.31961 -0.0580623 0
M  V30 3084 C 288.198 -5.22093 -0.979425 0
M  V30 3085 C 287.237 -6.11902 -0.155706 0
M  V30 3086 N 286.374 -6.94482 -1.03144 0
M  V30 3087 H 291.214 -2.86513 0.819413 0
M  V30 3088 H 288.751 -1.41102 0.415783 0
M  V30 3089 H 290.709 -3.92129 -1.42446 0
M  V30 3090 H 289.339 -2.79579 -1.61356 0
M  V30 3091 H 288.391 -3.75507 0.608147 0
M  V30 3092 H 289.703 -4.95415 0.580082 0
M  V30 3093 H 288.857 -5.85292 -1.59744 0
M  V30 3094 H 287.596 -4.5889 -1.65141 0
M  V30 3095 H 286.601 -5.47742 0.475309 0
M  V30 3096 H 287.826 -6.77162 0.512635 0
M  V30 3097 H 285.772 -6.33877 -1.68924 0
M  V30 3098 H 285.689 -7.54665 -0.449108 0
M  V30 3099 H 286.957 -7.6214 -1.63593 0
M  V30 3100 N 291.186 -0.45159 -1.50991 0
M  V30 3101 C 292.133 0.352625 -2.2809 0
M  V30 3102 C 293.103 1.0044 -1.32291 0
M  V30 3103 O 294.288 1.02058 -1.6121 0
M  V30 3104 C 291.428 1.43983 -3.13629 0
M  V30 3105 C 290.541 0.804772 -4.24438 0
M  V30 3106 C 289.676 1.86822 -4.97263 0
M  V30 3107 C 288.715 1.21236 -5.99973 0
M  V30 3108 N 287.852 2.2178 -6.66152 0
M  V30 3109 H 292.692 -0.311186 -2.96371 0
M  V30 3110 H 290.229 -0.165308 -1.46168 0
M  V30 3111 H 292.187 2.08161 -3.61559 0
M  V30 3112 H 290.817 2.07307 -2.47434 0
M  V30 3113 H 289.869 0.0509129 -3.80366 0
M  V30 3114 H 291.181 0.286076 -4.97979 0
M  V30 3115 H 290.335 2.58628 -5.48813 0
M  V30 3116 H 289.074 2.42068 -4.23385 0
M  V30 3117 H 288.079 0.479828 -5.47702 0
M  V30 3118 H 289.304 0.667051 -6.75816 0
M  V30 3119 H 287.25 2.76079 -5.95077 0
M  V30 3120 H 287.167 1.74841 -7.35504 0
M  V30 3121 H 288.435 2.93026 -7.22327 0
M  V30 3122 N 292.664 1.56529 -0.183458 0
M  V30 3123 C 293.892 2.01623 0.464285 0
M  V30 3124 C 294.307 1.06366 1.55986 0
M  V30 3125 O 293.664 0.0665398 1.82379 0
M  V30 3126 C 293.715 3.46475 1.03139 0
M  V30 3127 O 293.436 4.38095 -0.0204675 0
M  V30 3128 C 294.937 4.0703 1.75617 0
M  V30 3129 H 292.157 0.660596 0.117704 0
M  V30 3130 H 294.701 2.02451 -0.288751 0
M  V30 3131 H 292.856 3.46383 1.73486 0
M  V30 3132 H 293.27 5.22973 0.399952 0
M  V30 3133 H 294.744 5.10271 2.10542 0
M  V30 3134 H 295.221 3.49819 2.65563 0
M  V30 3135 H 295.827 4.1086 1.09882 0
M  V30 3136 N 294.142 -0.090211 1.57342 0
M  V30 3137 C 295.105 -1.09335 2.01441 0
M  V30 3138 C 296.105 -1.32666 0.908641 0
M  V30 3139 O 297.295 -1.28697 1.174 0
M  V30 3140 C 294.427 -2.44136 2.3793 0
M  V30 3141 H 295.62 -0.713662 2.91285 0
M  V30 3142 H 293.173 -0.335404 1.52659 0
M  V30 3143 H 293.908 -2.86972 1.51055 0
M  V30 3144 H 293.693 -2.28548 3.18603 0
M  V30 3145 H 295.183 -3.16277 2.72688 0
M  V30 3146 N 295.62 -1.53406 -0.361157 0
M  V30 3147 C 296.567 -1.80156 -1.44265 0
M  V30 3148 C 297.537 -0.646183 -1.53015 0
M  V30 3149 O 298.722 -0.888818 -1.68833 0
M  V30 3150 C 295.862 -2.00116 -2.81154 0
M  V30 3151 C 294.975 -3.27833 -2.81335 0
M  V30 3152 C 294.11 -3.37957 -4.09828 0
M  V30 3153 C 293.149 -4.59689 -4.04168 0
M  V30 3154 N 292.286 -4.66942 -5.24318 0
M  V30 3155 H 297.126 -2.72438 -1.20754 0
M  V30 3156 H 294.663 -1.34954 -0.585296 0
M  V30 3157 H 296.621 -2.09677 -3.60682 0
M  V30 3158 H 295.251 -1.11167 -3.03054 0
M  V30 3159 H 294.303 -3.27204 -1.94014 0
M  V30 3160 H 295.615 -4.17442 -2.73027 0
M  V30 3161 H 294.769 -3.46853 -4.97773 0
M  V30 3162 H 293.508 -2.46372 -4.20894 0
M  V30 3163 H 292.513 -4.50889 -3.14609 0
M  V30 3164 H 293.738 -5.5262 -3.947 0
M  V30 3165 H 291.684 -3.7826 -5.35962 0
M  V30 3166 H 291.601 -5.50462 -5.18197 0
M  V30 3167 H 292.869 -4.80127 -6.14084 0
M  V30 3168 N 297.098 0.621204 -1.44841 0
M  V30 3169 C 298.326 1.40752 -1.51646 0
M  V30 3170 C 298.741 1.88246 -0.144549 0
M  V30 3171 O 298.098 1.61422 0.851416 0
M  V30 3172 C 298.149 2.62119 -2.4895 0
M  V30 3173 O 297.87 2.16602 -3.80808 0
M  V30 3174 C 299.371 3.55135 -2.65319 0
M  V30 3175 H 296.591 0.431325 -0.514004 0
M  V30 3176 H 299.135 0.758835 -1.899 0
M  V30 3177 H 297.29 3.23058 -2.13805 0
M  V30 3178 H 297.704 2.95358 -4.33433 0
M  V30 3179 H 299.178 4.36874 -3.37409 0
M  V30 3180 H 299.655 4.04592 -1.70886 0
M  V30 3181 H 300.261 3.00058 -3.01405 0
M  V30 3182 N 298.576 1.31904 0.862503 0
M  V30 3183 C 299.524 1.20125 1.9918 0
M  V30 3184 C 300.518 0.107824 1.69056 0
M  V30 3185 O 301.724 0.270223 1.7796 0
M  V30 3186 H 298.099 0.372148 0.65346 0
M  V30 3187 H 300.07 2.15652 2.06244 0
M  V30 3188 C 298.819 0.933099 3.34946 0
M  V30 3189 H 298.142 1.76664 3.5865 0
M  V30 3190 H 299.582 0.890892 4.14535 0
M  V30 3191 C 298.041 -0.364172 3.34926 0
M  V30 3192 O 298.571 -1.37858 3.77304 0
M  V30 3193 N 296.777 -0.383362 2.8806 0
M  V30 3194 H 296.324 0.442651 2.53768 0
M  V30 3195 H 296.282 -1.25123 2.8843 0
M  V30 3196 N 300.054 -1.07777 1.14986 0
M  V30 3197 C 301.282 -1.84018 0.945773 0
M  V30 3198 C 301.697 -1.81897 -0.505863 0
M  V30 3199 O 301.054 -1.22726 -1.35072 0
M  V30 3200 C 301.105 -3.31287 1.44677 0
M  V30 3201 O 300.826 -3.33449 2.84154 0
M  V30 3202 C 302.327 -4.24311 1.28355 0
M  V30 3203 H 299.547 -0.580716 0.336169 0
M  V30 3204 H 302.091 -1.36077 1.52654 0
M  V30 3205 H 300.246 -3.76594 0.908625 0
M  V30 3206 H 300.66 -4.25427 3.06777 0
M  V30 3207 H 302.134 -5.2573 1.68261 0
M  V30 3208 H 302.611 -4.38612 0.227184 0
M  V30 3209 H 303.217 -3.84836 1.81056 0
M  V30 3210 N 301.532 -0.945985 -1.26051 0
M  V30 3211 C 302.48 -0.450259 -2.282 0
M  V30 3212 C 303.474 0.47497 -1.62605 0
M  V30 3213 O 304.68 0.352653 -1.76512 0
M  V30 3214 H 301.055 -0.127081 -0.741184 0
M  V30 3215 H 303.026 -1.32422 -2.67408 0
M  V30 3216 C 301.775 0.26467 -3.46691 0
M  V30 3217 H 301.098 -0.438123 -3.97392 0
M  V30 3218 H 302.538 0.575678 -4.20074 0
M  V30 3219 C 300.997 1.48416 -3.02447 0
M  V30 3220 O 301.527 2.58227 -3.07704 0
M  V30 3221 N 299.733 1.34243 -2.57735 0
M  V30 3222 H 299.28 0.448994 -2.53657 0
M  V30 3223 H 299.238 2.15957 -2.28495 0
M  V30 3224 N 303.011 1.40521 -0.713556 0
M  V30 3225 C 303.921 2.34522 -0.0606667 0
M  V30 3226 C 304.937 1.57193 0.74607 0
M  V30 3227 O 306.113 1.89591 0.679493 0
M  V30 3228 C 303.178 3.36081 0.851491 0
M  V30 3229 C 302.239 4.29286 0.0349339 0
M  V30 3230 C 301.472 5.25994 0.903649 0
M  V30 3231 O 301.695 5.28616 2.14292 0
M  V30 3232 O 300.629 6.00918 0.343723 0
M  V30 3233 H 304.455 2.91968 -0.835972 0
M  V30 3234 H 302.04 1.41681 -0.47402 0
M  V30 3235 H 303.922 3.98369 1.37404 0
M  V30 3236 H 302.597 2.81052 1.60598 0
M  V30 3237 H 301.504 3.70289 -0.532633 0
M  V30 3238 H 302.837 4.87462 -0.681287 0
M  V30 3239 N 304.489 0.459591 1.5075 0
M  V30 3240 C 305.736 -0.0993495 2.02256 0
M  V30 3241 C 306.064 -1.40751 1.34237 0
M  V30 3242 O 305.319 -1.90379 0.453228 0
M  V30 3243 C 305.618 -0.342866 3.55752 0
M  V30 3244 C 305.284 0.88218 4.42186 0
M  V30 3245 C 303.946 1.21808 4.65528 0
M  V30 3246 C 306.298 1.69837 4.92752 0
M  V30 3247 C 303.626 2.37045 5.36681 0
M  V30 3248 C 305.978 2.84192 5.65171 0
M  V30 3249 C 304.642 3.1821 5.8677 0
M  V30 3250 H 303.912 -0.0363545 0.740108 0
M  V30 3251 H 306.559 0.611329 1.8148 0
M  V30 3252 H 304.864 -1.13567 3.7498 0
M  V30 3253 H 306.561 -0.789121 3.93159 0
M  V30 3254 H 303.151 0.610467 4.2423 0
M  V30 3255 H 307.335 1.45205 4.74583 0
M  V30 3256 H 302.591 2.63689 5.51614 0
M  V30 3257 H 306.765 3.4779 6.03337 0
M  V30 3258 H 304.392 4.07613 6.41682 0
M  V30 3259 N 305.967 -1.56429 0.191757 0
M  V30 3260 C 306.897 -2.21937 -0.725696 0
M  V30 3261 C 307.878 -1.1814 -1.2238 0
M  V30 3262 O 309.063 -1.46636 -1.27325 0
M  V30 3263 C 306.193 -2.87611 -1.94672 0
M  V30 3264 C 305.147 -3.97623 -1.58366 0
M  V30 3265 C 304.473 -4.50446 -2.88102 0
M  V30 3266 C 305.773 -5.16197 -0.796133 0
M  V30 3267 H 307.467 -2.98861 -0.179606 0
M  V30 3268 H 305.013 -1.43749 -0.0849464 0
M  V30 3269 H 306.966 -3.3212 -2.59373 0
M  V30 3270 H 305.69 -2.08087 -2.51728 0
M  V30 3271 H 304.349 -3.53801 -0.960247 0
M  V30 3272 H 303.997 -3.67688 -3.43241 0
M  V30 3273 H 303.697 -5.24675 -2.64556 0
M  V30 3274 H 305.221 -4.97654 -3.53798 0
M  V30 3275 H 306.635 -5.57271 -1.34618 0
M  V30 3276 H 305.032 -5.96471 -0.658928 0
M  V30 3277 H 306.102 -4.84473 0.203478 0
M  V30 3278 N 307.445 0.0818655 -1.57387 0
M  V30 3279 C 308.694 0.781681 -1.85937 0
M  V30 3280 C 309.007 1.79246 -0.782957 0
M  V30 3281 O 310.213 2.54112 -0.955987 0
M  V30 3282 C 308.669 1.44109 -3.29789 0
M  V30 3283 C 308.277 0.469396 -4.45534 0
M  V30 3284 C 310.021 2.12386 -3.67549 0
M  V30 3285 C 307.928 1.13415 -5.80423 0
M  V30 3286 H 306.858 0.295682 -0.693605 0
M  V30 3287 H 309.509 0.0348051 -1.83467 0
M  V30 3288 H 307.891 2.23588 -3.2684 0
M  V30 3289 H 309.065 -0.294856 -4.59856 0
M  V30 3290 H 307.38 -0.108383 -4.16259 0
M  V30 3291 H 309.977 2.62878 -4.65617 0
M  V30 3292 H 310.32 2.91877 -2.96839 0
M  V30 3293 H 310.853 1.39751 -3.72444 0
M  V30 3294 H 307.592 0.379771 -6.54399 0
M  V30 3295 H 307.112 1.8695 -5.69921 0
M  V30 3296 H 308.791 1.65686 -6.25426 0
M  V30 3297 N 308.923 1.53595 0.353017 0
M  V30 3298 C 310.2 1.61002 1.11075 0
M  V30 3299 C 310.58 0.425356 2.0677 0
M  V30 3300 O 309.928 -0.583267 2.2093 0
M  V30 3301 C 310.138 2.96631 1.83877 0
M  V30 3302 C 311.486 3.51653 2.37961 0
M  V30 3303 O 312.51 2.98743 1.93987 0
M  V30 3304 O 311.369 4.44177 3.18386 0
M  V30 3305 H 308.463 0.650825 0.510251 0
M  V30 3306 H 311.009 1.6594 0.35527 0
M  V30 3307 H 309.781 3.74293 1.14108 0
M  V30 3308 H 309.404 2.95242 2.66304 0
M  V30 3309 N 310.401 -0.613514 1.45168 0
M  V30 3310 C 311.647 -1.37471 1.49096 0
M  V30 3311 C 311.98 -1.93765 0.129901 0
M  V30 3312 O 311.255 -1.74707 -0.854858 0
M  V30 3313 C 311.538 -2.52701 2.56542 0
M  V30 3314 C 311.391 -2.01643 4.0207 0
M  V30 3315 C 312.71 -3.54849 2.60327 0
M  V30 3316 H 309.829 -0.498502 0.54283 0
M  V30 3317 H 312.471 -0.692125 1.76945 0
M  V30 3318 H 310.621 -3.10931 2.32926 0
M  V30 3319 H 312.293 -1.48108 4.36877 0
M  V30 3320 H 310.536 -1.32688 4.13009 0
M  V30 3321 H 311.207 -2.84681 4.72928 0
M  V30 3322 H 313.683 -3.0645 2.81474 0
M  V30 3323 H 312.559 -4.32973 3.37381 0
M  V30 3324 H 312.82 -4.10079 1.6519 0
M  V30 3325 N 311.879 -1.3236 -0.855495 0
M  V30 3326 C 313.156 -1.13491 -1.59309 0
M  V30 3327 C 313.536 0.30503 -2.08885 0
M  V30 3328 O 312.884 1.30151 -1.87811 0
M  V30 3329 C 313.094 -2.16176 -2.73987 0
M  V30 3330 C 314.442 -2.49463 -3.43589 0
M  V30 3331 O 315.466 -2.14715 -2.84211 0
M  V30 3332 O 314.325 -3.09027 -4.50738 0
M  V30 3333 H 311.419 -0.437887 -0.701559 0
M  V30 3334 H 313.965 -1.43887 -0.899696 0
M  V30 3335 H 312.737 -3.1297 -2.34873 0
M  V30 3336 H 312.36 -1.86769 -3.51003 0
M  V30 3337 N 313.357 1.07166 -1.15556 0
M  V30 3338 C 314.304 2.14417 -0.854055 0
M  V30 3339 C 315.274 1.64965 0.193806 0
M  V30 3340 O 316.459 1.90703 0.0609443 0
M  V30 3341 C 313.599 3.43304 -0.351574 0
M  V30 3342 C 312.712 4.06537 -1.46123 0
M  V30 3343 C 311.847 5.23266 -0.914677 0
M  V30 3344 C 310.886 5.78464 -2.00114 0
M  V30 3345 N 310.023 6.86521 -1.47083 0
M  V30 3346 H 314.863 2.39548 -1.77259 0
M  V30 3347 H 312.4 1.17543 -0.884425 0
M  V30 3348 H 314.358 4.17179 -0.0419409 0
M  V30 3349 H 312.988 3.18419 0.530037 0
M  V30 3350 H 312.04 3.30297 -1.88701 0
M  V30 3351 H 313.352 4.43567 -2.28144 0
M  V30 3352 H 312.506 6.04131 -0.557698 0
M  V30 3353 H 311.245 4.87658 -0.0636583 0
M  V30 3354 H 310.25 4.96243 -2.36692 0
M  V30 3355 H 311.475 6.16126 -2.85597 0
M  V30 3356 H 309.421 6.52849 -0.642198 0
M  V30 3357 H 309.338 7.22446 -2.22729 0
M  V30 3358 H 310.606 7.71087 -1.14215 0
M  V30 3359 N 314.835 0.952656 1.25548 0
M  V30 3360 C 316.083 0.605176 1.92826 0
M  V30 3361 C 316.404 -0.860261 1.74999 0
M  V30 3362 O 315.674 -1.6125 1.11244 0
M  V30 3363 H 314.254 0.220832 0.713612 0
M  V30 3364 H 316.916 1.21047 1.52754 0
M  V30 3365 H 316.012 0.832798 3.00784 0
M  V30 3366 N 316.313 -1.40141 0.720998 0
M  V30 3367 C 317.223 -2.34486 0.0731031 0
M  V30 3368 C 318.239 -1.57587 -0.737723 0
M  V30 3369 O 319.415 -1.89949 -0.669429 0
M  V30 3370 C 316.48 -3.36528 -0.833656 0
M  V30 3371 C 315.541 -4.29298 -0.0121673 0
M  V30 3372 C 314.774 -5.26466 -0.875742 0
M  V30 3373 O 314.997 -5.29745 -2.11485 0
M  V30 3374 O 313.931 -6.01092 -0.31185 0
M  V30 3375 H 317.757 -2.9152 0.851444 0
M  V30 3376 H 315.342 -1.41427 0.481527 0
M  V30 3377 H 317.224 -3.99093 -1.35289 0
M  V30 3378 H 315.899 -2.81899 -1.59105 0
M  V30 3379 H 314.806 -3.70001 0.552262 0
M  V30 3380 H 316.139 -4.87094 0.707129 0
M  V30 3381 N 317.792 -0.46758 -1.50504 0
M  V30 3382 C 318.74 0.342482 -2.30065 0
M  V30 3383 C 319.734 0.993596 -1.37201 0
M  V30 3384 O 320.94 0.925102 -1.54408 0
M  V30 3385 H 317.315 0.129283 -0.740803 0
M  V30 3386 H 319.286 -0.34899 -2.96352 0
M  V30 3387 C 318.035 1.4139 -3.17654 0
M  V30 3388 H 317.358 0.922264 -3.89017 0
M  V30 3389 H 318.798 1.95335 -3.76325 0
M  V30 3390 C 317.257 2.4139 -2.35016 0
M  V30 3391 O 317.787 3.46586 -2.03079 0
M  V30 3392 N 315.993 2.13021 -1.97662 0
M  V30 3393 H 315.54 1.27499 -2.23834 0
M  V30 3394 H 315.498 2.80164 -1.42673 0
M  V30 3395 N 319.27 1.56325 -0.20005 0
M  V30 3396 C 320.5 2.01811 0.442232 0
M  V30 3397 C 320.908 1.07932 1.55394 0
M  V30 3398 O 320.251 0.0772685 1.83537 0
M  V30 3399 C 320.313 3.43685 1.05457 0
M  V30 3400 C 319.977 4.56928 0.0809833 0
M  V30 3401 C 320.974 5.15009 -0.711471 0
M  V30 3402 C 318.659 5.0229 -0.0315364 0
M  V30 3403 C 320.653 6.16904 -1.60336 0
M  V30 3404 C 318.34 6.04028 -0.926981 0
M  V30 3405 C 319.338 6.6121 -1.71146 0
M  V30 3406 O 319.026 7.60971 -2.59189 0
M  V30 3407 H 318.758 0.666173 0.114848 0
M  V30 3408 H 321.312 2.03085 -0.307511 0
M  V30 3409 H 319.542 3.39413 1.85299 0
M  V30 3410 H 321.231 3.72948 1.60201 0
M  V30 3411 H 321.997 4.80827 -0.634873 0
M  V30 3412 H 317.876 4.57476 0.568902 0
M  V30 3413 H 321.42 6.61464 -2.21611 0
M  V30 3414 H 317.317 6.37634 -1.00468 0
M  V30 3415 H 318.085 7.7841 -2.53023 0
M  V30 3416 N 320.748 -0.0735177 1.57428 0
M  V30 3417 C 321.988 -0.778363 1.89 0
M  V30 3418 C 322.352 -1.7483 0.793634 0
M  V30 3419 O 323.553 -2.49811 0.992367 0
M  V30 3420 C 321.824 -1.46929 3.25802 0
M  V30 3421 S 323.383 -2.20943 3.79117 0
M  V30 3422 H 320.201 -0.258874 0.662197 0
M  V30 3423 H 322.803 -0.0345338 1.95469 0
M  V30 3424 H 321.507 -0.749532 4.03497 0
M  V30 3425 H 321.038 -2.25258 3.22525 0
M  V30 3426 H 323.053 -3.47435 3.54265 0
M  V30 3427 N 322.226 -1.5378 -0.344866 0
M  V30 3428 C 323.473 -1.70963 -1.08526 0
M  V30 3429 C 323.801 -0.472126 -1.88683 0
M  V30 3430 O 323.056 0.546116 -1.87926 0
M  V30 3431 C 323.355 -2.92407 -2.05506 0
M  V30 3432 C 323.021 -4.28066 -1.41671 0
M  V30 3433 C 321.683 -4.64951 -1.2399 0
M  V30 3434 C 324.035 -5.12344 -0.956726 0
M  V30 3435 C 321.363 -5.83733 -0.589277 0
M  V30 3436 C 323.715 -6.3179 -0.320015 0
M  V30 3437 C 322.379 -6.67372 -0.130881 0
M  V30 3438 H 321.649 -0.625598 -0.397124 0
M  V30 3439 H 324.296 -1.87995 -0.36469 0
M  V30 3440 H 322.601 -2.69973 -2.8394 0
M  V30 3441 H 324.298 -3.02895 -2.62784 0
M  V30 3442 H 320.888 -3.99034 -1.56429 0
M  V30 3443 H 325.072 -4.8438 -1.08118 0
M  V30 3444 H 320.328 -6.09877 -0.431344 0
M  V30 3445 H 324.502 -6.96386 0.0445072 0
M  V30 3446 H 322.129 -7.59273 0.375318 0
M  V30 3447 N 323.704 0.605807 -1.45491 0
M  V30 3448 C 324.929 1.39625 -1.53361 0
M  V30 3449 C 325.354 1.87351 -0.167645 0
M  V30 3450 O 324.712 1.60243 0.848051 0
M  V30 3451 C 324.76 2.57559 -2.5238 0
M  V30 3452 O 323.864 3.58248 -2.04285 0
M  V30 3453 H 323.205 0.416771 -0.516912 0
M  V30 3454 H 325.735 0.737103 -1.90861 0
M  V30 3455 H 325.745 3.0478 -2.71244 0
M  V30 3456 H 324.42 2.22171 -3.51586 0
M  V30 3457 H 322.997 3.17664 -1.95305 0
M  V30 3458 N 325.182 1.32811 0.848464 0
M  V30 3459 C 326.428 1.23907 1.60546 0
M  V30 3460 C 326.761 -0.197161 1.93197 0
M  V30 3461 O 326.036 -1.13596 1.5788 0
M  V30 3462 C 326.319 2.10489 2.92175 0
M  V30 3463 C 326.172 3.62522 2.66266 0
M  V30 3464 C 327.491 1.97075 3.93509 0
M  V30 3465 H 324.61 0.451459 0.58254 0
M  V30 3466 H 327.252 1.62818 0.979296 0
M  V30 3467 H 325.402 1.77434 3.45614 0
M  V30 3468 H 327.074 4.05821 2.19334 0
M  V30 3469 H 325.317 3.84879 2.00126 0
M  V30 3470 H 325.988 4.18437 3.6002 0
M  V30 3471 H 328.464 2.26045 3.49346 0
M  V30 3472 H 327.34 2.59923 4.83457 0
M  V30 3473 H 327.601 0.940186 4.31987 0
M  V30 3474 N 326.66 -1.06551 1.16123 0
M  V30 3475 C 327.592 -2.13908 0.823171 0
M  V30 3476 C 328.605 -1.61926 -0.16843 0
M  V30 3477 O 329.794 -1.78412 0.055962 0
M  V30 3478 C 326.894 -3.38283 0.204424 0
M  V30 3479 C 326.067 -4.19589 1.23548 0
M  V30 3480 C 325.126 -5.2233 0.637011 0
M  V30 3481 O 324.152 -5.54034 1.30516 0
M  V30 3482 N 325.354 -5.77621 -0.577474 0
M  V30 3483 H 328.119 -2.43508 1.74711 0
M  V30 3484 H 325.68 -1.2253 1.05821 0
M  V30 3485 H 327.672 -4.0416 -0.208909 0
M  V30 3486 H 326.242 -3.06329 -0.623012 0
M  V30 3487 H 325.462 -3.49406 1.82507 0
M  V30 3488 H 326.75 -4.70718 1.93137 0
M  V30 3489 H 326.148 -5.54125 -1.13853 0
M  V30 3490 H 324.705 -6.45087 -0.933053 0
M  V30 3491 N 328.138 -0.959301 -1.25041 0
M  V30 3492 C 329.101 -0.487677 -2.23952 0
M  V30 3493 C 330.101 0.41119 -1.55454 0
M  V30 3494 O 331.291 0.207825 -1.72956 0
M  V30 3495 C 328.423 0.294807 -3.39623 0
M  V30 3496 H 329.616 -1.36198 -2.67189 0
M  V30 3497 H 327.169 -0.743042 -1.37508 0
M  V30 3498 H 327.904 1.18658 -3.01813 0
M  V30 3499 H 327.689 -0.35012 -3.90534 0
M  V30 3500 H 329.179 0.614089 -4.1306 0
M  V30 3501 N 329.616 1.39756 -0.72842 0
M  V30 3502 C 330.862 2.00942 -0.273892 0
M  V30 3503 C 331.195 1.57656 1.13394 0
M  V30 3504 O 330.47 0.802434 1.77176 0
M  V30 3505 C 330.753 3.58211 -0.368346 0
M  V30 3506 C 330.606 4.11534 -1.81548 0
M  V30 3507 C 331.925 4.39372 0.253054 0
M  V30 3508 H 329.044 0.730047 -0.100996 0
M  V30 3509 H 331.686 1.66056 -0.923337 0
M  V30 3510 H 329.836 3.88061 0.184588 0
M  V30 3511 H 331.508 3.92431 -2.42478 0
M  V30 3512 H 329.751 3.65341 -2.33898 0
M  V30 3513 H 330.422 5.20682 -1.83288 0
M  V30 3514 H 332.898 4.15527 -0.218224 0
M  V30 3515 H 331.774 5.48677 0.156585 0
M  V30 3516 H 332.035 4.21358 1.33826 0
M  V30 3517 N 331.094 0.475555 1.50254 0
M  V30 3518 C 332.343 -0.0795996 2.01543 0
M  V30 3519 C 332.656 -1.4038 1.36209 0
M  V30 3520 O 333.862 -2.04415 1.7868 0
M  V30 3521 C 332.318 -0.192363 3.59386 0
M  V30 3522 C 331.926 1.12367 4.33679 0
M  V30 3523 C 333.67 -0.699238 4.18701 0
M  V30 3524 C 331.577 0.974453 5.83317 0
M  V30 3525 H 330.507 -0.0335228 0.753254 0
M  V30 3526 H 333.158 0.611128 1.73025 0
M  V30 3527 H 331.54 -0.946974 3.84511 0
M  V30 3528 H 332.714 1.88958 4.20276 0
M  V30 3529 H 331.029 1.562 3.85993 0
M  V30 3530 H 333.626 -0.827978 5.28251 0
M  V30 3531 H 333.969 -1.69171 3.80377 0
M  V30 3532 H 334.502 -0.00188807 3.978 0
M  V30 3533 H 331.241 1.94042 6.26121 0
M  V30 3534 H 330.761 0.248998 5.99283 0
M  V30 3535 H 332.44 0.642867 6.43798 0
M  V30 3536 N 332.573 -1.56217 0.208337 0
M  V30 3537 C 333.984 -1.84243 -0.301904 0
M  V30 3538 C 334.335 -1.12939 -1.60434 0
M  V30 3539 O 333.46 -0.39461 -2.12772 0
M  V30 3540 C 334.055 -3.34231 -0.554543 0
M  V30 3541 C 332.614 -3.62621 -1.00912 0
M  V30 3542 C 331.761 -2.77224 -0.064933 0
M  V30 3543 H 334.712 -1.52712 0.431833 0
M  V30 3544 H 334.733 -3.5372 -1.40223 0
M  V30 3545 H 334.245 -3.86099 0.393561 0
M  V30 3546 H 332.346 -3.16197 -1.97104 0
M  V30 3547 H 332.459 -4.7071 -0.892674 0
M  V30 3548 H 330.823 -2.48256 -0.56929 0
M  V30 3549 H 331.606 -3.31887 0.877851 0
M  V30 3550 N 334.051 0.0651679 -1.57465 0
M  V30 3551 C 335.276 0.779605 -1.9219 0
M  V30 3552 C 335.701 1.69988 -0.805333 0
M  V30 3553 O 335.059 1.79685 0.241435 0
M  V30 3554 C 335.107 1.54364 -3.2589 0
M  V30 3555 O 334.211 2.65474 -3.1559 0
M  V30 3556 H 333.552 0.212249 -0.629163 0
M  V30 3557 H 336.082 0.0314294 -2.04576 0
M  V30 3558 H 336.092 1.92146 -3.59922 0
M  V30 3559 H 334.767 0.868457 -4.06732 0
M  V30 3560 H 333.344 2.30501 -2.93128 0
M  V30 3561 N 335.529 1.53961 0.336706 0
M  V30 3562 C 336.945 1.44378 0.680241 0
M  V30 3563 C 337.145 0.606034 1.9217 0
M  V30 3564 O 336.201 0.099688 2.52303 0
M  V30 3565 C 337.514 2.87945 0.8665 0
M  V30 3566 C 339.062 2.97763 0.964682 0
M  V30 3567 C 339.537 4.42453 1.18321 0
M  V30 3568 N 341.028 4.46008 1.25025 0
M  V30 3569 C 341.763 5.55102 1.43697 0
M  V30 3570 N 341.259 6.7419 1.59498 0
M  V30 3571 N 343.052 5.42727 1.463 0
M  V30 3572 H 335.203 2.06918 -0.479455 0
M  V30 3573 H 337.466 0.935634 -0.152619 0
M  V30 3574 H 337.172 3.51691 0.0256937 0
M  V30 3575 H 337.046 3.33293 1.76623 0
M  V30 3576 H 339.433 2.34153 1.796 0
M  V30 3577 H 339.514 2.55766 0.041708 0
M  V30 3578 H 339.158 5.06645 0.356788 0
M  V30 3579 H 339.088 4.82048 2.11985 0
M  V30 3580 H 341.579 3.60196 1.14312 0
M  V30 3581 H 341.892 7.53095 1.734 0
M  V30 3582 H 340.237 6.77123 1.56621 0
M  V30 3583 H 343.428 4.48647 1.33543 0
M  V30 3584 H 343.601 6.27806 1.6051 0
M  V30 3585 N 337.007 -0.598083 1.45811 0
M  V30 3586 C 338.235 -1.38322 1.53866 0
M  V30 3587 C 338.65 -1.87992 0.174479 0
M  V30 3588 O 338.007 -1.62756 -0.825627 0
M  V30 3589 C 338.058 -2.58125 2.53089 0
M  V30 3590 O 337.779 -2.10516 3.84206 0
M  V30 3591 C 339.28 -3.50869 2.70935 0
M  V30 3592 H 336.5 -0.423093 0.520801 0
M  V30 3593 H 339.044 -0.728527 1.91083 0
M  V30 3594 H 337.199 -3.19615 2.18917 0
M  V30 3595 H 337.613 -2.88425 4.38077 0
M  V30 3596 H 339.087 -4.31451 3.44317 0
M  V30 3597 H 339.564 -4.01822 1.77301 0
M  V30 3598 H 340.17 -2.95225 3.06141 0
M  V30 3599 N 338.485 -1.33259 -0.841409 0
M  V30 3600 C 339.731 -1.24757 -1.59886 0
M  V30 3601 C 340.064 0.186913 -1.93298 0
M  V30 3602 O 339.339 1.12757 -1.5848 0
M  V30 3603 C 339.622 -2.12036 -2.91055 0
M  V30 3604 C 339.475 -3.63929 -2.6434 0
M  V30 3605 C 340.794 -1.9916 -3.92458 0
M  V30 3606 H 337.913 -0.454542 -0.580138 0
M  V30 3607 H 340.555 -1.63335 -0.970647 0
M  V30 3608 H 338.705 -1.79265 -3.44669 0
M  V30 3609 H 340.377 -4.06978 -2.17178 0
M  V30 3610 H 338.62 -3.85935 -1.98082 0
M  V30 3611 H 339.291 -4.20341 -3.57796 0
M  V30 3612 H 341.767 -2.27895 -3.48143 0
M  V30 3613 H 340.643 -2.62484 -4.82072 0
M  V30 3614 H 340.904 -0.963082 -4.31482 0
M  V30 3615 N 339.963 1.05934 -1.16686 0
M  V30 3616 C 340.911 2.15603 -0.872817 0
M  V30 3617 C 341.905 1.68647 0.159576 0
M  V30 3618 O 343.111 1.79995 0.0132125 0
M  V30 3619 H 339.486 0.703885 -0.264671 0
M  V30 3620 H 341.457 2.37613 -1.80507 0
M  V30 3621 C 340.206 3.45457 -0.394344 0
M  V30 3622 H 339.529 3.81984 -1.18019 0
M  V30 3623 H 340.969 4.2339 -0.227408 0
M  V30 3624 C 339.428 3.25021 0.88673 0
M  V30 3625 O 339.958 3.50906 1.95519 0
M  V30 3626 N 338.164 2.78437 0.831925 0
M  V30 3627 H 337.711 2.57572 -0.0377619 0
M  V30 3628 H 337.669 2.65144 1.68956 0
M  V30 3629 N 341.441 0.965919 1.2453 0
M  V30 3630 C 342.857 0.67216 1.44756 0
M  V30 3631 C 343.057 -0.766609 1.86347 0
M  V30 3632 O 342.113 -1.5407 2.00047 0
M  V30 3633 C 343.426 1.65473 2.51076 0
M  V30 3634 C 344.974 1.66716 2.64905 0
M  V30 3635 C 345.449 2.63766 3.74421 0
M  V30 3636 N 346.94 2.62198 3.81846 0
M  V30 3637 C 347.675 3.33966 4.66106 0
M  V30 3638 N 347.171 4.15245 5.54566 0
M  V30 3639 N 348.964 3.22799 4.60171 0
M  V30 3640 H 341.115 1.89553 0.958293 0
M  V30 3641 H 343.378 0.815979 0.482579 0
M  V30 3642 H 343.084 2.68296 2.27399 0
M  V30 3643 H 342.958 1.4261 3.49202 0
M  V30 3644 H 345.345 0.646057 2.87941 0
M  V30 3645 H 345.426 1.93642 1.67142 0
M  V30 3646 H 345.07 3.6601 3.52135 0
M  V30 3647 H 345 2.34121 4.71694 0
M  V30 3648 H 347.491 2.032 3.18619 0
M  V30 3649 H 347.804 4.66898 6.15814 0
M  V30 3650 H 346.149 4.1934 5.54237 0
M  V30 3651 H 349.34 2.58764 3.90075 0
M  V30 3652 H 349.513 3.78994 5.25612 0
M  V30 3653 N 342.919 -1.39368 0.735821 0
M  V30 3654 C 343.866 -2.30599 0.0963825 0
M  V30 3655 C 344.836 -1.49257 -0.728794 0
M  V30 3656 O 346.021 -1.77941 -0.688588 0
M  V30 3657 C 343.161 -3.35596 -0.804305 0
M  V30 3658 C 342.274 -4.31987 0.0335761 0
M  V30 3659 C 341.409 -5.24053 -0.868461 0
M  V30 3660 C 340.448 -6.12095 -0.0258776 0
M  V30 3661 N 339.585 -6.96514 -0.883893 0
M  V30 3662 H 344.425 -2.8471 0.880002 0
M  V30 3663 H 341.962 -1.40188 0.445619 0
M  V30 3664 H 343.92 -3.95062 -1.34096 0
M  V30 3665 H 342.55 -2.82938 -1.55389 0
M  V30 3666 H 341.602 -3.74133 0.68766 0
M  V30 3667 H 342.914 -4.94074 0.685036 0
M  V30 3668 H 342.068 -5.88549 -1.47293 0
M  V30 3669 H 340.807 -4.62289 -1.5537 0
M  V30 3670 H 339.812 -5.4661 0.591386 0
M  V30 3671 H 341.037 -6.75923 0.656156 0
M  V30 3672 H 338.983 -6.37318 -1.55441 0
M  V30 3673 H 338.9 -7.55448 -0.288931 0
M  V30 3674 H 340.168 -7.65439 -1.4739 0
M  V30 3675 N 344.397 -0.483516 -1.5 0
M  V30 3676 C 345.622 0.0667119 -2.07293 0
M  V30 3677 C 346.047 1.3164 -1.3436 0
M  V30 3678 O 345.405 1.76945 -0.394987 0
M  V30 3679 C 345.453 0.321126 -3.59167 0
M  V30 3680 O 344.557 1.39927 -3.87936 0
M  V30 3681 H 343.898 -0.0184758 -0.663743 0
M  V30 3682 H 346.428 -0.678125 -1.93035 0
M  V30 3683 H 346.438 0.557906 -4.04168 0
M  V30 3684 H 345.113 -0.592007 -4.11665 0
M  V30 3685 H 343.69 1.14882 -3.54763 0
M  V30 3686 N 345.875 1.56104 -0.216619 0
M  V30 3687 C 347.103 2.02563 0.421413 0
M  V30 3688 C 347.518 1.0965 1.53695 0
M  V30 3689 O 346.875 0.10521 1.82196 0
M  V30 3690 C 346.926 3.48584 0.957665 0
M  V30 3691 O 346.647 4.37953 -0.113389 0
M  V30 3692 C 348.148 4.10664 1.66943 0
M  V30 3693 H 345.368 0.662944 0.103665 0
M  V30 3694 H 347.912 2.01793 -0.331629 0
M  V30 3695 H 346.067 3.49985 1.661 0
M  V30 3696 H 346.481 5.23704 0.288932 0
M  V30 3697 H 347.955 5.14622 1.99671 0
M  V30 3698 H 348.432 3.55373 2.58083 0
M  V30 3699 H 349.038 4.13098 1.01142 0
M  V30 3700 N 347.353 -0.0568162 1.57498 0
M  V30 3701 C 348.63 -0.786954 1.79071 0
M  V30 3702 C 349.01 -1.95028 0.80792 0
M  V30 3703 O 348.358 -2.27968 -0.155858 0
M  V30 3704 C 348.568 -1.24594 3.26002 0
M  V30 3705 C 349.916 -1.67323 3.90241 0
M  V30 3706 O 350.94 -1.34124 3.29984 0
M  V30 3707 O 349.799 -2.28842 4.9628 0
M  V30 3708 H 346.893 -0.378262 0.735423 0
M  V30 3709 H 349.439 -0.035734 1.69662 0
M  V30 3710 H 348.211 -0.41423 3.89101 0
M  V30 3711 H 347.834 -2.05803 3.40192 0
M  V30 3712 N 348.832 -1.54138 -0.328536 0
M  V30 3713 C 350.057 -1.76378 -1.09112 0
M  V30 3714 C 350.482 -0.508596 -1.81094 0
M  V30 3715 O 349.84 0.539598 -1.73084 0
M  V30 3716 C 349.888 -2.95358 -2.06872 0
M  V30 3717 O 348.992 -2.66556 -3.14677 0
M  V30 3718 H 348.333 -0.584614 -0.314838 0
M  V30 3719 H 350.863 -2.01146 -0.374348 0
M  V30 3720 H 350.873 -3.22566 -2.4983 0
M  V30 3721 H 349.548 -3.86385 -1.5388 0
M  V30 3722 H 348.125 -2.50282 -2.7643 0
M  V30 3723 N 350.31 0.590341 -1.46126 0
M  V30 3724 C 351.721 1.17243 -1.45296 0
M  V30 3725 C 352.072 1.95281 -0.189723 0
M  V30 3726 O 351.197 2.04502 0.707674 0
M  V30 3727 C 351.792 2.13284 -2.6324 0
M  V30 3728 C 350.351 2.66832 -2.65476 0
M  V30 3729 C 349.498 1.42557 -2.3785 0
M  V30 3730 H 352.449 0.378692 -1.54116 0
M  V30 3731 H 352.47 2.96619 -2.38323 0
M  V30 3732 H 351.982 1.56459 -3.55165 0
M  V30 3733 H 350.083 3.27548 -1.77603 0
M  V30 3734 H 350.196 3.10088 -3.65215 0
M  V30 3735 H 348.56 1.72107 -1.87753 0
M  V30 3736 H 349.343 0.875741 -3.31942 0
M  V30 3737 N 351.788 1.33704 0.83433 0
M  V30 3738 C 353.034 1.25603 1.59222 0
M  V30 3739 C 353.367 -0.176659 1.93395 0
M  V30 3740 O 352.642 -1.11915 1.59076 0
M  V30 3741 C 352.925 2.13576 2.89926 0
M  V30 3742 C 352.778 3.65326 2.62406 0
M  V30 3743 C 354.097 2.01238 3.91397 0
M  V30 3744 H 351.216 0.457613 0.577719 0
M  V30 3745 H 353.858 1.63848 0.961972 0
M  V30 3746 H 352.008 1.8109 3.43713 0
M  V30 3747 H 353.68 4.08124 2.15017 0
M  V30 3748 H 351.923 3.8698 1.96033 0
M  V30 3749 H 352.594 4.22232 3.55562 0
M  V30 3750 H 355.07 2.29738 3.46929 0
M  V30 3751 H 353.946 2.65036 4.80673 0
M  V30 3752 H 354.207 0.985951 4.30966 0
M  V30 3753 N 353.266 -1.05314 1.17247 0
M  V30 3754 C 354.176 -2.16538 0.90268 0
M  V30 3755 C 355.192 -1.73523 -0.128707 0
M  V30 3756 O 356.368 -2.01337 0.0502701 0
M  V30 3757 C 353.433 -3.44167 0.418356 0
M  V30 3758 C 352.494 -4.01635 1.51618 0
M  V30 3759 C 351.727 -5.23171 1.05487 0
M  V30 3760 O 351.95 -5.70327 -0.0914715 0
M  V30 3761 O 350.884 -5.72848 1.8474 0
M  V30 3762 H 354.71 -2.42145 1.83302 0
M  V30 3763 H 352.295 -1.15037 0.953246 0
M  V30 3764 H 354.177 -4.21112 0.155726 0
M  V30 3765 H 352.852 -3.20063 -0.48385 0
M  V30 3766 H 351.759 -3.26135 1.83268 0
M  V30 3767 H 353.092 -4.30053 2.39405 0
M  V30 3768 N 354.744 -0.972509 -1.24016 0
M  V30 3769 C 355.984 -0.644951 -1.93958 0
M  V30 3770 C 356.348 0.80559 -1.74282 0
M  V30 3771 O 357.549 1.2436 -2.38302 0
M  V30 3772 C 355.82 -1.01521 -3.42678 0
M  V30 3773 S 357.379 -0.802927 -4.31391 0
M  V30 3774 H 354.197 -0.236452 -0.670531 0
M  V30 3775 H 356.799 -1.25048 -1.50277 0
M  V30 3776 H 355.503 -2.06769 -3.54506 0
M  V30 3777 H 355.034 -0.400648 -3.91355 0
M  V30 3778 H 357.049 0.317256 -4.95185 0
M  V30 3779 N 356.222 1.38976 -0.743202 0
M  V30 3780 C 357.155 2.28128 -0.0572165 0
M  V30 3781 C 358.133 1.44827 0.739182 0
M  V30 3782 O 359.317 1.74207 0.720009 0
M  V30 3783 C 356.444 3.25796 0.926001 0
M  V30 3784 C 355.49 4.25947 0.217099 0
M  V30 3785 S 356.323 5.24604 -1.07477 0
M  V30 3786 C 357.479 6.25829 -0.0943545 0
M  V30 3787 H 357.712 2.85961 -0.813246 0
M  V30 3788 H 355.245 1.44822 -0.535341 0
M  V30 3789 H 357.203 3.82583 1.48797 0
M  V30 3790 H 355.864 2.66966 1.65493 0
M  V30 3791 H 355.057 4.94746 0.961372 0
M  V30 3792 H 354.659 3.73002 -0.273059 0
M  V30 3793 H 356.951 6.73411 0.743239 0
M  V30 3794 H 357.894 7.0412 -0.749713 0
M  V30 3795 H 358.302 5.63797 0.281706 0
M  V30 3796 N 357.7 0.491464 1.49741 0
M  V30 3797 C 358.948 -0.0563141 2.02022 0
M  V30 3798 C 359.269 -1.38363 1.37407 0
M  V30 3799 O 358.539 -1.88702 0.526166 0
M  V30 3800 H 357.119 -0.0238014 0.746621 0
M  V30 3801 H 359.781 0.646533 1.83864 0
M  V30 3802 H 358.877 -0.192967 3.11503 0
M  V30 3803 N 359.178 -1.55987 0.224894 0
M  V30 3804 C 360.11 -2.17722 -0.716224 0
M  V30 3805 C 361.123 -1.14723 -1.15509 0
M  V30 3806 O 362.312 -1.41688 -1.08567 0
M  V30 3807 C 359.412 -2.74873 -1.98238 0
M  V30 3808 C 358.585 -4.03074 -1.69853 0
M  V30 3809 C 357.644 -4.44757 -2.81208 0
M  V30 3810 O 356.67 -5.11587 -2.49534 0
M  V30 3811 N 357.872 -4.10716 -4.10235 0
M  V30 3812 H 360.637 -2.99109 -0.188123 0
M  V30 3813 H 358.198 -1.6184 0.0440123 0
M  V30 3814 H 360.19 -2.99727 -2.7193 0
M  V30 3815 H 358.76 -1.9777 -2.42086 0
M  V30 3816 H 357.98 -3.86041 -0.797875 0
M  V30 3817 H 359.268 -4.86701 -1.48324 0
M  V30 3818 H 358.666 -3.57019 -4.38809 0
M  V30 3819 H 357.223 -4.40455 -4.80461 0
M  V30 3820 N 360.656 0.0484629 -1.57525 0
M  V30 3821 C 361.566 1.07241 -2.08654 0
M  V30 3822 C 362.582 1.409 -1.02095 0
M  V30 3823 O 363.758 1.50609 -1.33712 0
M  V30 3824 C 360.823 2.36008 -2.5397 0
M  V30 3825 C 359.884 2.09108 -3.7493 0
M  V30 3826 C 359.117 3.31736 -4.18075 0
M  V30 3827 O 359.34 4.41714 -3.60895 0
M  V30 3828 O 358.274 3.18576 -5.10679 0
M  V30 3829 H 362.1 0.667965 -2.96263 0
M  V30 3830 H 359.685 0.26417 -1.47046 0
M  V30 3831 H 361.567 3.11747 -2.83535 0
M  V30 3832 H 360.242 2.75786 -1.69481 0
M  V30 3833 H 359.149 1.31 -3.50414 0
M  V30 3834 H 360.482 1.74198 -4.60343 0
M  V30 3835 N 362.134 1.5431 0.320358 0
M  V30 3836 C 363.081 1.83918 1.39438 0
M  V30 3837 C 364.051 0.686525 1.51248 0
M  V30 3838 O 365.236 0.933269 1.66417 0
M  V30 3839 C 362.376 2.075 2.75749 0
M  V30 3840 C 361.489 3.35177 2.72544 0
M  V30 3841 C 360.624 3.48704 4.00723 0
M  V30 3842 C 359.663 4.70244 3.91838 0
M  V30 3843 N 358.8 4.80679 5.11754 0
M  V30 3844 H 363.64 2.75544 1.13489 0
M  V30 3845 H 361.177 1.36459 0.549309 0
M  V30 3846 H 363.135 2.19166 3.54996 0
M  V30 3847 H 361.765 1.19163 3 0
M  V30 3848 H 360.817 3.32233 1.85271 0
M  V30 3849 H 362.129 4.24534 2.61863 0
M  V30 3850 H 361.283 3.59928 4.88402 0
M  V30 3851 H 360.022 2.57445 4.14214 0
M  V30 3852 H 359.027 4.59072 3.02544 0
M  V30 3853 H 360.252 5.6289 3.7991 0
M  V30 3854 H 358.198 3.92337 5.25745 0
M  V30 3855 H 358.115 5.64007 5.0342 0
M  V30 3856 H 359.383 4.96239 6.01138 0
M  V30 3857 N 363.613 -0.582584 1.46437 0
M  V30 3858 C 364.861 -1.33814 1.51453 0
M  V30 3859 C 365.182 -1.94277 0.167792 0
M  V30 3860 O 364.452 -1.78566 -0.805677 0
M  V30 3861 H 363.032 -0.496838 0.557818 0
M  V30 3862 H 365.694 -0.682281 1.82568 0
M  V30 3863 H 364.79 -2.14479 2.26728 0
M  V30 3864 N 365.091 -1.34144 -0.827227 0
M  V30 3865 C 366.001 -1.27428 -1.96975 0
M  V30 3866 C 367.017 -0.182728 -1.73038 0
M  V30 3867 O 368.193 -0.408426 -1.97215 0
M  V30 3868 C 365.258 -1.02526 -3.31194 0
M  V30 3869 C 364.319 -2.20796 -3.68168 0
M  V30 3870 C 363.552 -1.97073 -4.95982 0
M  V30 3871 O 363.775 -0.926822 -5.6282 0
M  V30 3872 O 362.709 -2.83912 -5.30733 0
M  V30 3873 H 366.535 -2.23537 -2.05584 0
M  V30 3874 H 364.12 -1.14307 -0.961989 0
M  V30 3875 H 366.002 -0.904026 -4.11589 0
M  V30 3876 H 364.677 -0.0945389 -3.23562 0
M  V30 3877 H 363.584 -2.38477 -2.88235 0
M  V30 3878 H 364.917 -3.12243 -3.8048 0
M  V30 3879 N 366.569 1.04691 -1.17803 0
M  V30 3880 C 367.816 1.77782 -0.969532 0
M  V30 3881 C 368.144 1.87926 0.501401 0
M  V30 3882 O 367.399 1.37918 1.38842 0
M  V30 3883 C 367.698 3.21467 -1.56186 0
M  V30 3884 C 367.364 3.3137 -3.05786 0
M  V30 3885 C 366.026 3.3378 -3.46619 0
M  V30 3886 C 368.378 3.31976 -4.01797 0
M  V30 3887 C 365.706 3.34431 -4.82051 0
M  V30 3888 C 368.058 3.34167 -5.37136 0
M  V30 3889 C 366.722 3.34866 -5.77426 0
M  V30 3890 H 365.992 0.650549 -0.354777 0
M  V30 3891 H 368.639 1.23006 -1.46772 0
M  V30 3892 H 366.944 3.79203 -0.985515 0
M  V30 3893 H 368.641 3.76652 -1.37602 0
M  V30 3894 H 365.231 3.3021 -2.73238 0
M  V30 3895 H 369.415 3.29311 -3.71306 0
M  V30 3896 H 364.671 3.33285 -5.12573 0
M  V30 3897 H 368.845 3.33585 -6.11305 0
M  V30 3898 H 366.472 3.35124 -6.82346 0
M  V30 3899 N 368.047 0.979072 1.23499 0
M  V30 3900 C 369.463 0.687475 1.44034 0
M  V30 3901 C 369.663 -0.746801 1.8715 0
M  V30 3902 O 368.719 -1.51939 2.0167 0
M  V30 3903 C 370.032 1.68127 2.49307 0
M  V30 3904 C 371.58 1.69516 2.63122 0
M  V30 3905 C 372.055 2.67723 3.71603 0
M  V30 3906 N 373.546 2.66233 3.79044 0
M  V30 3907 C 374.281 3.38891 4.62537 0
M  V30 3908 N 373.777 4.21103 5.50131 0
M  V30 3909 N 375.57 3.27661 4.56721 0
M  V30 3910 H 367.721 1.90559 0.938135 0
M  V30 3911 H 369.984 0.821051 0.473897 0
M  V30 3912 H 369.69 2.70693 2.2454 0
M  V30 3913 H 369.564 1.46306 3.4767 0
M  V30 3914 H 371.951 0.676561 2.8724 0
M  V30 3915 H 372.032 1.95404 1.65079 0
M  V30 3916 H 371.676 3.69724 3.48233 0
M  V30 3917 H 371.606 2.39111 4.69184 0
M  V30 3918 H 374.097 2.06568 3.16446 0
M  V30 3919 H 374.41 4.73403 6.10827 0
M  V30 3920 H 372.755 4.25195 5.49759 0
M  V30 3921 H 375.946 2.62887 3.87309 0
M  V30 3922 H 376.119 3.84547 5.21562 0
M  V30 3923 N 369.525 -1.3858 0.750561 0
M  V30 3924 C 370.435 -2.34278 0.122825 0
M  V30 3925 C 371.451 -1.59116 -0.704131 0
M  V30 3926 O 372.627 -1.91326 -0.628987 0
M  V30 3927 C 369.692 -3.38221 -0.762086 0
M  V30 3928 C 368.753 -4.29227 0.078896 0
M  V30 3929 C 367.986 -5.28205 -0.763874 0
M  V30 3930 O 368.209 -5.34112 -2.00201 0
M  V30 3931 O 367.143 -6.01618 -0.18428 0
M  V30 3932 H 370.969 -2.89649 0.913088 0
M  V30 3933 H 368.554 -1.40374 0.511417 0
M  V30 3934 H 370.436 -4.01872 -1.26793 0
M  V30 3935 H 369.111 -2.85211 -1.5309 0
M  V30 3936 H 368.018 -3.68747 0.630621 0
M  V30 3937 H 369.351 -4.85484 0.810289 0
M  V30 3938 N 371.003 -0.499398 -1.49478 0
M  V30 3939 C 372.252 0.0475259 -2.01644 0
M  V30 3940 C 372.565 1.38195 -1.38425 0
M  V30 3941 O 373.771 2.01547 -1.8191 0
M  V30 3942 C 372.227 0.135164 -3.59646 0
M  V30 3943 C 371.835 -1.19252 -4.31837 0
M  V30 3944 C 373.579 0.632538 -4.19761 0
M  V30 3945 C 371.486 -1.06713 -5.81693 0
M  V30 3946 H 370.416 0.0215349 -0.753692 0
M  V30 3947 H 373.067 -0.638577 -1.7203 0
M  V30 3948 H 371.449 0.885681 -3.85969 0
M  V30 3949 H 372.623 -1.9562 -4.17216 0
M  V30 3950 H 370.938 -1.62321 -3.83459 0
M  V30 3951 H 373.535 0.743833 -5.29501 0
M  V30 3952 H 373.878 1.63098 -3.83021 0
M  V30 3953 H 374.411 -0.0613987 -3.97753 0
M  V30 3954 H 371.15 -2.03979 -6.22955 0
M  V30 3955 H 370.67 -0.344307 -5.98811 0
M  V30 3956 H 372.349 -0.745208 -6.42694 0
M  V30 3957 N 372.481 1.55866 -0.233164 0
M  V30 3958 C 373.728 1.98603 0.395374 0
M  V30 3959 C 374.056 1.12105 1.58942 0
M  V30 3960 O 373.311 0.168656 1.94972 0
M  V30 3961 C 373.61 3.46856 0.861724 0
M  V30 3962 C 373.276 4.50348 -0.223066 0
M  V30 3963 C 371.938 4.78371 -0.521038 0
M  V30 3964 C 374.29 5.12355 -0.956124 0
M  V30 3965 C 371.618 5.6568 -1.55638 0
M  V30 3966 C 373.97 6.00786 -1.98089 0
M  V30 3967 C 372.634 6.27148 -2.28565 0
M  V30 3968 H 371.904 0.726739 0.144677 0
M  V30 3969 H 374.551 1.88491 -0.338114 0
M  V30 3970 H 372.856 3.5423 1.67418 0
M  V30 3971 H 374.553 3.77302 1.35809 0
M  V30 3972 H 371.143 4.28596 0.0193234 0
M  V30 3973 H 375.327 4.90765 -0.739166 0
M  V30 3974 H 370.583 5.84365 -1.798 0
M  V30 3975 H 374.757 6.4788 -2.55391 0
M  V30 3976 H 372.384 6.94597 -3.08932 0
M  V30 3977 N 373.959 -0.0401083 1.57549 0
M  V30 3978 C 375.189 -0.744115 1.92734 0
M  V30 3979 C 375.597 -1.70005 0.830348 0
M  V30 3980 O 374.94 -1.82576 -0.20286 0
M  V30 3981 C 375.002 -1.56516 3.2364 0
M  V30 3982 C 374.666 -0.7752 4.50377 0
M  V30 3983 C 375.663 -0.0803326 5.19838 0
M  V30 3984 C 373.348 -0.733002 4.96923 0
M  V30 3985 C 375.342 0.646154 6.34116 0
M  V30 3986 C 373.029 -0.00276321 6.111 0
M  V30 3987 C 374.027 0.685585 6.7955 0
M  V30 3988 O 373.715 1.40399 7.91545 0
M  V30 3989 H 373.447 -0.214861 0.640945 0
M  V30 3990 H 376.001 -0.00503675 2.05399 0
M  V30 3991 H 374.231 -2.3478 3.07271 0
M  V30 3992 H 375.92 -2.15076 3.44234 0
M  V30 3993 H 376.686 -0.104035 4.84888 0
M  V30 3994 H 372.565 -1.25827 4.43496 0
M  V30 3995 H 376.109 1.18398 6.87479 0
M  V30 3996 H 372.006 0.0229012 6.45496 0
M  V30 3997 H 372.774 1.31653 8.07843 0
M  V30 3998 N 375.437 -1.54477 -0.31217 0
M  V30 3999 C 376.686 -1.72438 -1.04633 0
M  V30 4000 C 376.999 -0.511163 -1.88803 0
M  V30 4001 O 378.205 -0.572341 -2.65399 0
M  V30 4002 C 376.661 -3.05043 -1.9099 0
M  V30 4003 C 376.269 -4.33806 -1.11877 0
M  V30 4004 C 378.013 -3.32364 -2.64073 0
M  V30 4005 C 375.92 -5.57467 -1.97445 0
M  V30 4006 H 374.85 -0.642647 -0.394361 0
M  V30 4007 H 377.501 -1.80966 -0.303929 0
M  V30 4008 H 375.883 -2.90451 -2.69173 0
M  V30 4009 H 377.057 -4.59199 -0.383843 0
M  V30 4010 H 375.372 -4.13336 -0.504252 0
M  V30 4011 H 377.969 -4.21951 -3.28423 0
M  V30 4012 H 378.312 -2.50745 -3.32314 0
M  V30 4013 H 378.845 -3.47875 -1.92944 0
M  V30 4014 H 375.584 -6.41722 -1.33692 0
M  V30 4015 H 375.104 -5.36277 -2.6864 0
M  V30 4016 H 376.783 -5.94303 -2.5576 0
M  V30 4017 N 376.915 0.57481 -1.46744 0
M  V30 4018 C 378.164 1.32898 -1.51727 0
M  V30 4019 C 378.477 1.948 -0.176692 0
M  V30 4020 O 379.683 2.71299 -0.104385 0
M  V30 4021 C 378.139 2.40901 -2.67385 0
M  V30 4022 C 377.747 1.85266 -4.07898 0
M  V30 4023 C 379.491 3.17609 -2.81646 0
M  V30 4024 C 377.398 2.90945 -5.14883 0
M  V30 4025 H 376.328 0.499631 -0.564699 0
M  V30 4026 H 378.979 0.612536 -1.72975 0
M  V30 4027 H 377.361 3.15379 -2.39483 0
M  V30 4028 H 378.535 1.17278 -4.45626 0
M  V30 4029 H 376.85 1.21199 -3.98371 0
M  V30 4030 H 379.447 3.96493 -3.58744 0
M  V30 4031 H 379.79 3.70696 -1.89448 0
M  V30 4032 H 380.323 2.50239 -3.09233 0
M  V30 4033 H 377.062 2.42736 -6.089 0
M  V30 4034 H 376.582 3.57398 -4.81691 0
M  V30 4035 H 378.261 3.54755 -5.41071 0
M  V30 4036 N 378.394 1.34581 0.820102 0
M  V30 4037 C 379.642 1.26845 1.57336 0
M  V30 4038 C 379.963 -0.160667 1.94337 0
M  V30 4039 O 379.233 -1.09396 1.6251 0
M  V30 4040 H 377.813 0.466514 0.583415 0
M  V30 4041 H 380.475 1.68526 0.979027 0
M  V30 4042 H 379.571 1.87513 2.4949 0
M  V30 4043 N 379.872 -1.04064 1.18357 0
M  V30 4044 C 380.835 -2.10243 0.912707 0
M  V30 4045 C 381.835 -1.60477 -0.101928 0
M  V30 4046 O 383.025 -1.73703 0.131517 0
M  V30 4047 C 380.157 -3.38893 0.369387 0
M  V30 4048 H 381.35 -2.35706 1.85426 0
M  V30 4049 H 378.903 -1.20489 0.995594 0
M  V30 4050 H 379.638 -3.19094 -0.578776 0
M  V30 4051 H 379.423 -3.76331 1.1008 0
M  V30 4052 H 380.913 -4.17128 0.198575 0
M  V30 4053 N 381.35 -0.985608 -1.22978 0
M  V30 4054 C 382.596 -0.65836 -1.91816 0
M  V30 4055 C 382.929 0.806692 -1.76653 0
M  V30 4056 O 382.204 1.58252 -1.13078 0
M  V30 4057 C 382.487 -1.056 -3.44268 0
M  V30 4058 C 382.34 -2.57906 -3.68516 0
M  V30 4059 C 383.659 -0.603781 -4.35939 0
M  V30 4060 H 380.778 -0.24065 -0.696604 0
M  V30 4061 H 383.42 -1.22783 -1.44998 0
M  V30 4062 H 381.57 -0.571445 -3.84274 0
M  V30 4063 H 383.242 -3.13976 -3.3796 0
M  V30 4064 H 381.485 -3.00305 -3.13048 0
M  V30 4065 H 382.156 -2.80779 -4.75255 0
M  V30 4066 H 384.632 -1.01987 -4.03408 0
M  V30 4067 H 383.508 -0.910383 -5.41298 0
M  V30 4068 H 383.769 0.495761 -4.39312 0
M  V30 4069 N 382.828 1.3818 -0.7579 0
M  V30 4070 C 384.074 2.00316 -0.316453 0
M  V30 4071 C 384.407 1.60026 1.10025 0
M  V30 4072 O 383.682 0.839835 1.75434 0
M  V30 4073 C 383.965 3.57349 -0.444245 0
M  V30 4074 C 383.818 4.07591 -1.90236 0
M  V30 4075 C 385.137 4.3981 0.1598 0
M  V30 4076 H 382.256 0.727741 -0.116459 0
M  V30 4077 H 384.898 1.6406 -0.958352 0
M  V30 4078 H 383.048 3.88365 0.102233 0
M  V30 4079 H 384.72 3.87199 -2.50748 0
M  V30 4080 H 382.963 3.60297 -2.41595 0
M  V30 4081 H 383.634 5.16677 -1.94291 0
M  V30 4082 H 386.11 4.14971 -0.306314 0
M  V30 4083 H 384.986 5.48885 0.0401675 0
M  V30 4084 H 385.247 4.24102 1.24859 0
M  V30 4085 N 384.306 0.507319 1.49211 0
M  V30 4086 C 385.553 -0.0349529 2.0247 0
M  V30 4087 C 385.881 -1.36409 1.38647 0
M  V30 4088 O 385.136 -1.88841 0.513566 0
M  V30 4089 C 385.435 -0.229513 3.56662 0
M  V30 4090 C 385.101 1.02241 4.39156 0
M  V30 4091 C 383.763 1.36557 4.61417 0
M  V30 4092 C 386.115 1.85428 4.871 0
M  V30 4093 C 383.443 2.53999 5.28868 0
M  V30 4094 C 385.795 3.02028 5.55843 0
M  V30 4095 C 384.459 3.36717 5.76349 0
M  V30 4096 H 383.729 -0.0127902 0.74089 0
M  V30 4097 H 386.376 0.668756 1.79443 0
M  V30 4098 H 384.681 -1.0158 3.78403 0
M  V30 4099 H 386.378 -0.663641 3.9547 0
M  V30 4100 H 382.968 0.745124 4.22073 0
M  V30 4101 H 387.152 1.6023 4.69723 0
M  V30 4102 H 382.408 2.81105 5.42946 0
M  V30 4103 H 386.582 3.66808 5.91967 0
M  V30 4104 H 384.209 4.27821 6.28389 0
M  V30 4105 N 385.784 -1.5574 0.241426 0
M  V30 4106 C 387.03 -1.99104 -0.385406 0
M  V30 4107 C 387.363 -1.1293 -1.57988 0
M  V30 4108 O 386.638 -0.191449 -1.93555 0
M  V30 4109 C 386.921 -3.51087 -0.800616 0
M  V30 4110 C 386.774 -4.48028 0.398874 0
M  V30 4111 C 388.093 -4.08015 -1.64959 0
M  V30 4112 H 385.212 -0.723848 -0.138614 0
M  V30 4113 H 387.854 -1.86903 0.341642 0
M  V30 4114 H 386.004 -3.61615 -1.4201 0
M  V30 4115 H 387.676 -4.49487 1.03726 0
M  V30 4116 H 385.919 -4.21077 1.04293 0
M  V30 4117 H 386.59 -5.51962 0.0651056 0
M  V30 4118 H 389.066 -4.00555 -1.12672 0
M  V30 4119 H 387.942 -5.14635 -1.90898 0
M  V30 4120 H 388.203 -3.56131 -2.61961 0
M  V30 4121 N 387.262 0.0317525 -1.57568 0
M  V30 4122 C 388.508 0.724175 -1.8943 0
M  V30 4123 C 388.841 1.75149 -0.838836 0
M  V30 4124 O 388.116 1.93948 0.146422 0
M  V30 4125 C 388.399 1.39615 -3.31933 0
M  V30 4126 C 388.252 0.382537 -4.4817 0
M  V30 4127 C 389.571 2.33084 -3.73309 0
M  V30 4128 H 386.69 0.261797 -0.688935 0
M  V30 4129 H 389.332 -0.013017 -1.89996 0
M  V30 4130 H 387.482 2.02451 -3.31581 0
M  V30 4131 H 389.154 -0.243689 -4.60656 0
M  V30 4132 H 387.397 -0.29844 -4.32772 0
M  V30 4133 H 388.068 0.891145 -5.44759 0
M  V30 4134 H 390.544 1.80295 -3.7501 0
M  V30 4135 H 389.42 2.77084 -4.73831 0
M  V30 4136 H 389.681 3.19643 -3.05419 0
M  V30 4137 N 388.74 1.54641 0.303973 0
M  V30 4138 C 389.989 1.7299 1.03717 0
M  V30 4139 C 390.302 0.521168 1.88529 0
M  V30 4140 O 391.508 0.586408 2.65092 0
M  V30 4141 C 389.964 3.06051 1.89369 0
M  V30 4142 C 389.572 4.34393 1.09574 0
M  V30 4143 C 391.316 3.3376 2.62306 0
M  V30 4144 C 389.223 5.58506 1.94486 0
M  V30 4145 H 388.153 0.64473 0.390947 0
M  V30 4146 H 390.804 1.81124 0.294328 0
M  V30 4147 H 389.186 2.91874 2.67629 0
M  V30 4148 H 390.36 4.59396 0.359485 0
M  V30 4149 H 388.675 4.13597 0.482324 0
M  V30 4150 H 391.272 4.23687 3.26181 0
M  V30 4151 H 391.615 2.52503 3.3098 0
M  V30 4152 H 392.148 3.48894 1.91097 0
M  V30 4153 H 388.887 6.42422 1.30287 0
M  V30 4154 H 388.407 5.37694 2.65792 0
M  V30 4155 H 390.086 5.95651 2.52605 0
M  V30 4156 N 390.218 -0.567019 1.47046 0
M  V30 4157 C 391.467 -1.32091 1.5243 0
M  V30 4158 C 391.78 -1.94704 0.187021 0
M  V30 4159 O 392.986 -2.7124 0.118771 0
M  V30 4160 C 391.442 -2.39479 2.68659 0
M  V30 4161 C 391.05 -1.831 4.08874 0
M  V30 4162 C 392.794 -3.16111 2.83327 0
M  V30 4163 C 390.701 -2.8821 5.16419 0
M  V30 4164 H 389.631 -0.496629 0.56734 0
M  V30 4165 H 392.282 -0.603354 1.73297 0
M  V30 4166 H 390.664 -3.14105 2.41152 0
M  V30 4167 H 391.838 -1.14913 4.46242 0
M  V30 4168 H 390.153 -1.19085 3.99008 0
M  V30 4169 H 392.75 -3.94585 3.60842 0
M  V30 4170 H 393.093 -3.69686 1.91411 0
M  V30 4171 H 393.626 -2.48595 3.10556 0
M  V30 4172 H 390.365 -2.39504 6.10179 0
M  V30 4173 H 389.885 -3.54839 4.8358 0
M  V30 4174 H 391.564 -3.51881 5.42945 0
M  V30 4175 N 391.696 -1.35014 -0.812953 0
M  V30 4176 C 392.626 -1.30069 -1.93919 0
M  V30 4177 C 393.607 -0.176275 -1.69184 0
M  V30 4178 O 394.792 -0.370227 -1.90638 0
M  V30 4179 C 391.922 -1.06547 -3.30552 0
M  V30 4180 C 390.876 -2.15561 -3.69753 0
M  V30 4181 C 390.202 -1.77214 -5.04479 0
M  V30 4182 C 391.502 -3.57476 -3.808 0
M  V30 4183 H 393.196 -2.24303 -1.98314 0
M  V30 4184 H 390.742 -1.07977 -0.952736 0
M  V30 4185 H 392.695 -1.01729 -4.08937 0
M  V30 4186 H 391.419 -0.0875719 -3.26483 0
M  V30 4187 H 390.078 -2.19466 -2.9365 0
M  V30 4188 H 389.726 -0.780589 -4.96906 0
M  V30 4189 H 389.426 -2.50184 -5.31678 0
M  V30 4190 H 390.95 -1.7391 -5.8531 0
M  V30 4191 H 392.364 -3.55929 -4.4943 0
M  V30 4192 H 390.761 -4.29152 -4.19462 0
M  V30 4193 H 391.831 -3.94091 -2.82525 0
M  V30 4194 N 393.175 1.03435 -1.18907 0
M  V30 4195 C 394.421 1.77005 -0.989798 0
M  V30 4196 C 394.754 1.88205 0.478816 0
M  V30 4197 O 394.029 1.39481 1.35556 0
M  V30 4198 C 394.312 3.19925 -1.65287 0
M  V30 4199 C 394.165 3.1663 -3.19477 0
M  V30 4200 C 395.484 4.18189 -1.37134 0
M  V30 4201 H 392.603 0.642538 -0.360991 0
M  V30 4202 H 395.245 1.20784 -1.46667 0
M  V30 4203 H 393.395 3.67929 -1.24741 0
M  V30 4204 H 395.067 2.76567 -3.692 0
M  V30 4205 H 393.31 2.54491 -3.51307 0
M  V30 4206 H 393.981 4.1758 -3.61013 0
M  V30 4207 H 396.457 3.78761 -1.72276 0
M  V30 4208 H 395.333 5.16394 -1.86087 0
M  V30 4209 H 395.594 4.41112 -0.295424 0
M  V30 4210 N 394.653 0.992116 1.22453 0
M  V30 4211 C 395.902 0.662992 1.90492 0
M  V30 4212 C 396.215 -0.808407 1.78113 0
M  V30 4213 O 397.421 -1.24908 2.41061 0
M  V30 4214 C 395.877 1.1353 3.41524 0
M  V30 4215 C 395.485 2.63187 3.62542 0
M  V30 4216 C 397.229 0.880465 4.15269 0
M  V30 4217 C 395.136 3.04024 5.0727 0
M  V30 4218 H 394.066 0.244278 0.713333 0
M  V30 4219 H 396.717 1.20157 1.38688 0
M  V30 4220 H 395.099 0.52485 3.92506 0
M  V30 4221 H 396.273 3.2957 3.22056 0
M  V30 4222 H 394.588 2.86543 3.02129 0
M  V30 4223 H 397.185 1.16128 5.21937 0
M  V30 4224 H 397.528 -0.183408 4.15896 0
M  V30 4225 H 398.061 1.45307 3.70312 0
M  V30 4226 H 394.8 4.09584 5.11782 0
M  V30 4227 H 394.32 2.42343 5.48662 0
M  V30 4228 H 395.999 2.95282 5.75689 0
M  V30 4229 N 396.131 -1.37776 0.765217 0
M  V30 4230 C 397.38 -1.99092 0.323307 0
M  V30 4231 C 397.693 -1.61434 -1.10446 0
M  V30 4232 O 398.899 -2.15805 -1.64743 0
M  V30 4233 C 397.355 -3.56019 0.527098 0
M  V30 4234 C 396.963 -4.0262 1.96471 0
M  V30 4235 C 398.707 -4.2424 0.148483 0
M  V30 4236 C 396.614 -5.52233 2.11644 0
M  V30 4237 H 395.544 -0.744846 0.117137 0
M  V30 4238 H 398.195 -1.57391 0.943417 0
M  V30 4239 H 396.577 -3.95667 -0.162372 0
M  V30 4240 H 397.751 -3.74234 2.68859 0
M  V30 4241 H 396.066 -3.47161 2.29931 0
M  V30 4242 H 398.663 -5.34159 0.240456 0
M  V30 4243 H 399.006 -4.06446 -0.900422 0
M  V30 4244 H 399.539 -3.89872 0.79025 0
M  V30 4245 H 396.278 -5.74945 3.1483 0
M  V30 4246 H 395.798 -5.82324 1.4373 0
M  V30 4247 H 397.477 -6.18106 1.91193 0
M  V30 4248 N 397.609 -0.515225 -1.4894 0
M  V30 4249 C 398.539 0.244628 -2.32215 0
M  V30 4250 C 399.52 0.949136 -1.41157 0
M  V30 4251 O 400.705 0.937783 -1.70057 0
M  V30 4252 C 397.835 1.30096 -3.22013 0
M  V30 4253 C 396.789 0.715486 -4.21977 0
M  V30 4254 C 396.115 1.87339 -5.00808 0
M  V30 4255 C 397.415 -0.302982 -5.2142 0
M  V30 4256 H 399.109 -0.450501 -2.95991 0
M  V30 4257 H 396.655 -0.218098 -1.42339 0
M  V30 4258 H 398.608 1.84037 -3.79089 0
M  V30 4259 H 397.332 2.02547 -2.56207 0
M  V30 4260 H 395.991 0.197715 -3.66066 0
M  V30 4261 H 395.639 2.58592 -4.31438 0
M  V30 4262 H 395.339 1.48764 -5.68457 0
M  V30 4263 H 396.863 2.41686 -5.60732 0
M  V30 4264 H 398.277 0.148802 -5.73107 0
M  V30 4265 H 396.674 -0.60532 -5.97039 0
M  V30 4266 H 397.744 -1.21395 -4.69459 0
M  V30 4267 N 399.087 1.5561 -0.249682 0
M  V30 4268 C 400.05 2.20217 0.635394 0
M  V30 4269 C 401.05 1.17227 1.10066 0
M  V30 4270 O 402.24 1.42292 1.00492 0
M  V30 4271 C 399.372 2.84794 1.87363 0
M  V30 4272 H 400.565 2.99814 0.0716752 0
M  V30 4273 H 398.118 1.563 -0.000153234 0
M  V30 4274 H 398.853 2.09142 2.47851 0
M  V30 4275 H 398.638 3.60241 1.5482 0
M  V30 4276 H 400.128 3.3423 2.5036 0
M  V30 4277 N 400.565 -0.0233959 1.57583 0
M  V30 4278 C 401.814 -0.712133 1.8871 0
M  V30 4279 C 402.127 -1.76217 0.848944 0
M  V30 4280 O 403.333 -2.50389 1.04964 0
M  V30 4281 C 401.789 -1.3177 3.3491 0
M  V30 4282 C 401.397 -0.303715 4.46969 0
M  V30 4283 C 403.141 -1.98598 3.75179 0
M  V30 4284 C 401.048 -0.917945 5.84233 0
M  V30 4285 H 399.978 -0.269735 0.704101 0
M  V30 4286 H 402.629 0.0333114 1.8347 0
M  V30 4287 H 401.011 -2.11304 3.34913 0
M  V30 4288 H 402.185 0.465325 4.58445 0
M  V30 4289 H 400.5 0.2628 4.1557 0
M  V30 4290 H 403.097 -2.45416 4.75053 0
M  V30 4291 H 403.44 -2.80659 3.07468 0
M  V30 4292 H 403.973 -1.25831 3.77374 0
M  V30 4293 H 400.712 -0.136633 6.55358 0
M  V30 4294 H 400.232 -1.65669 5.76467 0
M  V30 4295 H 401.911 -1.4236 6.31144 0
M  V30 4296 N 402.043 -1.548 -0.295768 0
M  V30 4297 C 403.268 -1.78653 -1.05346 0
M  V30 4298 C 403.693 -0.546894 -1.79974 0
M  V30 4299 O 403.051 0.502763 -1.7419 0
M  V30 4300 C 403.099 -2.99679 -2.00561 0
M  V30 4301 O 402.203 -2.7317 -3.08953 0
M  V30 4302 H 401.544 -0.59116 -0.302367 0
M  V30 4303 H 404.074 -2.01895 -0.331598 0
M  V30 4304 H 404.084 -3.27793 -2.42932 0
M  V30 4305 H 402.759 -3.89562 -1.4565 0
M  V30 4306 H 401.336 -2.56089 -2.71059 0
M  V30 4307 N 403.521 0.559213 -1.47345 0
M  V30 4308 C 404.451 1.67622 -1.62558 0
M  V30 4309 C 405.432 1.63331 -0.475087 0
M  V30 4310 O 406.617 1.80983 -0.704182 0
M  V30 4311 C 403.747 3.0626 -1.63774 0
M  V30 4312 C 402.701 3.25397 -2.7803 0
M  V30 4313 C 402.027 4.64801 -2.64318 0
M  V30 4314 C 403.327 3.10965 -4.19641 0
M  V30 4315 H 405.021 1.55146 -2.56067 0
M  V30 4316 H 402.567 0.744961 -1.23233 0
M  V30 4317 H 404.52 3.84247 -1.73008 0
M  V30 4318 H 403.244 3.1969 -0.66825 0
M  V30 4319 H 401.903 2.49817 -2.68304 0
M  V30 4320 H 401.551 4.75028 -1.65401 0
M  V30 4321 H 401.251 4.78555 -3.40968 0
M  V30 4322 H 402.775 5.44926 -2.75478 0
M  V30 4323 H 404.189 3.78772 -4.30354 0
M  V30 4324 H 402.586 3.36229 -4.97062 0
M  V30 4325 H 403.656 2.07736 -4.38148 0
M  V30 4326 N 404.999 1.35443 0.805782 0
M  V30 4327 C 405.949 1.24972 1.90699 0
M  V30 4328 C 406.933 0.144806 1.60247 0
M  V30 4329 O 408.125 0.376102 1.72958 0
M  V30 4330 C 405.254 1.02475 3.27649 0
M  V30 4331 C 404.34 2.17361 3.64164 0
M  V30 4332 N 404.731 3.42591 3.72109 0
M  V30 4333 C 403.029 2.08765 3.94123 0
M  V30 4334 C 403.73 4.18144 4.04389 0
M  V30 4335 N 402.706 3.4691 4.18515 0
M  V30 4336 H 406.508 2.19852 1.95044 0
M  V30 4337 H 404.022 1.27928 1.00041 0
M  V30 4338 H 406.019 0.930617 4.06381 0
M  V30 4339 H 404.679 0.0848009 3.24589 0
M  V30 4340 H 405.69 3.76932 3.55166 0
M  V30 4341 H 402.367 1.22629 3.99084 0
M  V30 4342 H 403.757 5.26367 4.17597 0
M  V30 4343 N 406.477 -1.02803 1.19454 0
M  V30 4344 C 407.424 -2.11099 0.933046 0
M  V30 4345 C 408.394 -1.65571 -0.132447 0
M  V30 4346 O 409.579 -1.90797 0.00987576 0
M  V30 4347 C 406.719 -3.41763 0.478747 0
M  V30 4348 C 405.832 -4.00833 1.6111 0
M  V30 4349 C 404.967 -5.19511 1.10825 0
M  V30 4350 C 404.006 -5.70639 2.21445 0
M  V30 4351 N 403.143 -6.80589 1.72461 0
M  V30 4352 H 407.983 -2.32804 1.86028 0
M  V30 4353 H 405.52 -1.14179 0.927441 0
M  V30 4354 H 407.478 -4.16736 0.196745 0
M  V30 4355 H 406.108 -3.20166 -0.411493 0
M  V30 4356 H 405.16 -3.23066 2.00829 0
M  V30 4357 H 406.472 -4.34794 2.4445 0
M  V30 4358 H 405.626 -6.01645 0.781533 0
M  V30 4359 H 404.365 -4.87086 0.244606 0
M  V30 4360 H 403.37 -4.87116 2.54947 0
M  V30 4361 H 404.595 -6.05102 3.08267 0
M  V30 4362 H 402.541 -6.50016 0.884056 0
M  V30 4363 H 402.458 -7.13681 2.49389 0
M  V30 4364 H 403.726 -7.66317 1.42755 0
M  V30 4365 N 407.956 -0.998596 -1.21925 0
M  V30 4366 C 409.196 -0.685948 -1.92546 0
M  V30 4367 C 409.56 0.768441 -1.75952 0
M  V30 4368 O 410.761 1.19277 -2.40887 0
M  V30 4369 C 409.032 -1.08767 -3.40448 0
M  V30 4370 S 410.591 -0.894251 -4.29591 0
M  V30 4371 H 407.409 -0.250622 -0.665364 0
M  V30 4372 H 410.011 -1.28207 -1.47591 0
M  V30 4373 H 408.715 -2.14242 -3.50041 0
M  V30 4374 H 408.246 -0.48357 -3.90417 0
M  V30 4375 H 410.261 0.212149 -4.95746 0
M  V30 4376 N 409.434 1.37368 -0.772513 0
M  V30 4377 C 410.85 1.53059 -0.452231 0
M  V30 4378 C 411.05 1.73065 1.03203 0
M  V30 4379 O 410.106 1.75245 1.81784 0
M  V30 4380 C 411.419 2.72659 -1.26797 0
M  V30 4381 C 412.967 2.86521 -1.25995 0
M  V30 4382 C 413.442 4.09105 -2.05905 0
M  V30 4383 N 414.933 4.16219 -2.03263 0
M  V30 4384 C 415.668 5.10107 -2.61875 0
M  V30 4385 N 415.164 6.09547 -3.29278 0
M  V30 4386 N 416.957 5.02596 -2.51701 0
M  V30 4387 H 409.108 1.22634 -1.7342 0
M  V30 4388 H 411.371 0.597206 -0.736239 0
M  V30 4389 H 411.077 2.64343 -2.31982 0
M  V30 4390 H 410.951 3.66363 -0.897672 0
M  V30 4391 H 413.338 2.94308 -0.216081 0
M  V30 4392 H 413.419 1.93774 -1.66989 0
M  V30 4393 H 413.063 4.0208 -3.10313 0
M  V30 4394 H 412.993 5.00968 -1.62292 0
M  V30 4395 H 415.484 3.45012 -1.54192 0
M  V30 4396 H 415.797 6.77718 -3.71374 0
M  V30 4397 H 414.142 6.09824 -3.33377 0
M  V30 4398 H 417.333 4.23855 -1.98657 0
M  V30 4399 H 417.506 5.75582 -2.97673 0
M  V30 4400 N 410.912 0.523116 1.48665 0
M  V30 4401 C 411.859 -0.243398 2.29513 0
M  V30 4402 C 412.829 -0.940139 1.36933 0
M  V30 4403 O 414.014 -0.942503 1.65896 0
M  V30 4404 C 411.154 -1.28855 3.20141 0
M  V30 4405 C 410.267 -0.60135 4.27794 0
M  V30 4406 C 409.402 -1.62884 5.05611 0
M  V30 4407 C 408.441 -0.924726 6.05075 0
M  V30 4408 N 407.578 -1.89744 6.75975 0
M  V30 4409 H 412.418 0.452234 2.94549 0
M  V30 4410 H 409.955 0.234858 1.45213 0
M  V30 4411 H 411.913 -1.90674 3.71079 0
M  V30 4412 H 410.543 -1.95266 2.57043 0
M  V30 4413 H 409.595 0.130623 3.80176 0
M  V30 4414 H 410.907 -0.0481585 4.98777 0
M  V30 4415 H 410.061 -2.32149 5.60528 0
M  V30 4416 H 408.8 -2.21592 4.34452 0
M  V30 4417 H 407.805 -0.217966 5.49368 0
M  V30 4418 H 409.03 -0.343851 6.78229 0
M  V30 4419 H 406.976 -2.47373 6.07571 0
M  V30 4420 H 406.893 -1.3955 7.43009 0
M  V30 4421 H 408.161 -2.58229 7.35485 0
M  V30 4422 N 412.39 -1.55475 0.257931 0
M  V30 4423 C 413.353 -2.20551 -0.623706 0
M  V30 4424 C 414.353 -1.17809 -1.09443 0
M  V30 4425 O 415.543 -1.42823 -0.997362 0
M  V30 4426 C 412.675 -2.85784 -1.8585 0
M  V30 4427 H 413.868 -2.99848 -0.0557743 0
M  V30 4428 H 411.421 -1.56298 0.0084422 0
M  V30 4429 H 412.156 -2.10453 -2.46739 0
M  V30 4430 H 411.941 -3.61057 -1.52907 0
M  V30 4431 H 413.431 -3.35553 -2.48584 0
M  V30 4432 N 413.868 0.0150385 -1.57593 0
M  V30 4433 C 415.116 0.701613 -1.8953 0
M  V30 4434 C 415.437 1.75139 -0.857396 0
M  V30 4435 O 414.707 1.95607 0.107194 0
M  V30 4436 H 413.287 0.26213 -0.699498 0
M  V30 4437 H 415.949 -0.0223304 -1.94887 0
M  V30 4438 H 415.045 1.18236 -2.88837 0
M  V30 4439 N 415.346 1.54954 0.287554 0
M  V30 4440 C 416.592 1.75132 1.02257 0
M  V30 4441 C 416.925 0.542858 1.86458 0
M  V30 4442 O 416.2 -0.459856 1.88986 0
M  V30 4443 C 416.483 3.04812 1.91733 0
M  V30 4444 C 416.336 4.35985 1.10622 0
M  V30 4445 C 417.655 3.30438 2.90687 0
M  V30 4446 H 414.774 0.637194 0.370341 0
M  V30 4447 H 417.416 1.87678 0.296111 0
M  V30 4448 H 415.566 2.94247 2.53675 0
M  V30 4449 H 417.238 4.58487 0.508636 0
M  V30 4450 H 415.481 4.31865 0.409271 0
M  V30 4451 H 416.152 5.23017 1.76513 0
M  V30 4452 H 418.628 3.40701 2.38877 0
M  V30 4453 H 417.504 4.22467 3.50447 0
M  V30 4454 H 417.765 2.49377 3.65053 0
M  V30 4455 N 416.824 -0.551391 1.4764 0
M  V30 4456 C 418.072 -1.30572 1.54258 0
M  V30 4457 C 418.393 -1.93877 0.208963 0
M  V30 4458 O 417.663 -1.80234 -0.767619 0
M  V30 4459 H 416.243 -0.484894 0.568231 0
M  V30 4460 H 418.905 -0.643402 1.83974 0
M  V30 4461 H 418.001 -2.09621 2.31226 0
M  V30 4462 N 418.302 -1.35869 -0.798587 0
M  V30 4463 C 419.234 -1.25305 -1.91915 0
M  V30 4464 C 420.247 -0.174548 -1.61862 0
M  V30 4465 O 421.436 -0.428499 -1.73281 0
M  V30 4466 C 418.536 -0.9086 -3.26493 0
M  V30 4467 C 417.709 -2.08711 -3.84394 0
M  V30 4468 C 416.768 -1.71717 -4.97393 0
M  V30 4469 O 415.794 -2.43692 -5.14396 0
M  V30 4470 N 416.996 -0.645473 -5.769 0
M  V30 4471 H 419.761 -2.21849 -2.01502 0
M  V30 4472 H 417.322 -1.29143 -0.976408 0
M  V30 4473 H 419.314 -0.642455 -3.99568 0
M  V30 4474 H 417.884 -0.0325815 -3.12583 0
M  V30 4475 H 417.104 -2.51659 -3.03416 0
M  V30 4476 H 418.392 -2.87468 -4.19809 0
M  V30 4477 H 417.79 -0.047648 -5.6568 0
M  V30 4478 H 416.347 -0.43913 -6.50319 0
M  V30 4479 N 419.78 1.02168 -1.19998 0
M  V30 4480 C 421.005 1.79833 -1.03319 0
M  V30 4481 C 421.43 1.83504 0.413281 0
M  V30 4482 O 420.788 1.26635 1.29743 0
M  V30 4483 C 420.836 3.22396 -1.61533 0
M  V30 4484 O 419.94 4.03555 -0.849519 0
M  V30 4485 H 419.281 0.554872 -0.364709 0
M  V30 4486 H 421.811 1.28542 -1.59179 0
M  V30 4487 H 421.821 3.73124 -1.65054 0
M  V30 4488 H 420.496 3.19039 -2.66809 0
M  V30 4489 H 419.073 3.62169 -0.888129 0
M  V30 4490 N 421.258 1.00505 1.21394 0
M  V30 4491 C 422.504 0.698477 1.91031 0
M  V30 4492 C 422.859 -0.762448 1.76648 0
M  V30 4493 O 422.152 -1.54554 1.13241 0
M  V30 4494 C 422.346 1.0546 3.41486 0
M  V30 4495 C 422.175 2.5486 3.70508 0
M  V30 4496 C 420.945 3.21461 3.8986 0
M  V30 4497 C 423.143 3.53019 3.74008 0
M  V30 4498 N 421.125 4.60211 4.06299 0
M  V30 4499 C 422.496 4.77279 3.95733 0
M  V30 4500 C 424.551 3.47154 3.56915 0
M  V30 4501 C 423.254 5.96388 4.02137 0
M  V30 4502 C 425.28 4.65652 3.64585 0
M  V30 4503 C 424.642 5.88717 3.86771 0
M  V30 4504 H 420.741 0.30707 0.719189 0
M  V30 4505 H 423.325 1.28753 1.46051 0
M  V30 4506 H 421.496 0.494007 3.85246 0
M  V30 4507 H 423.228 0.702765 3.98552 0
M  V30 4508 H 419.983 2.71906 3.87768 0
M  V30 4509 H 420.407 5.32216 4.1842 0
M  V30 4510 H 425.049 2.53015 3.38738 0
M  V30 4511 H 422.767 6.90919 4.19114 0
M  V30 4512 H 426.353 4.62717 3.52681 0
M  V30 4513 H 425.233 6.78877 3.92549 0
M  V30 4514 N 422.737 -1.36956 0.779787 0
M  V30 4515 C 423.684 -2.30175 0.169697 0
M  V30 4516 C 424.654 -1.51501 -0.68094 0
M  V30 4517 O 425.839 -1.80042 -0.631629 0
M  V30 4518 C 422.979 -3.37985 -0.697131 0
M  V30 4519 C 422.092 -4.31661 0.170992 0
M  V30 4520 C 421.227 -5.2655 -0.701298 0
M  V30 4521 C 420.266 -6.11867 0.168869 0
M  V30 4522 N 419.403 -6.98973 -0.661855 0
M  V30 4523 H 424.243 -2.81767 0.970135 0
M  V30 4524 H 421.78 -1.38699 0.489994 0
M  V30 4525 H 423.738 -3.99128 -1.2146 0
M  V30 4526 H 422.368 -2.87739 -1.46309 0
M  V30 4527 H 421.42 -3.71756 0.80634 0
M  V30 4528 H 422.732 -4.91644 0.841875 0
M  V30 4529 H 421.886 -5.92937 -1.28494 0
M  V30 4530 H 420.625 -4.66998 -1.40584 0
M  V30 4531 H 419.63 -5.44452 0.764986 0
M  V30 4532 H 420.855 -6.73493 0.870863 0
M  V30 4533 H 418.801 -6.41941 -1.35086 0
M  V30 4534 H 418.718 -7.55984 -0.0484447 0
M  V30 4535 H 419.986 -7.6974 -1.22963 0
M  V30 4536 N 424.215 -0.530993 -1.48385 0
M  V30 4537 C 425.125 0.23503 -2.3342 0
M  V30 4538 C 426.141 0.93801 -1.46552 0
M  V30 4539 O 427.317 0.912745 -1.7953 0
M  V30 4540 C 424.382 1.26778 -3.22689 0
M  V30 4541 C 423.443 0.575038 -4.25431 0
M  V30 4542 C 422.676 1.55858 -5.10435 0
M  V30 4543 O 422.899 2.79129 -4.97437 0
M  V30 4544 O 421.833 1.09742 -5.91811 0
M  V30 4545 H 425.659 -0.461794 -3.00169 0
M  V30 4546 H 423.244 -0.291903 -1.46521 0
M  V30 4547 H 425.126 1.86457 -3.77904 0
M  V30 4548 H 423.801 1.94699 -2.586 0
M  V30 4549 H 422.708 -0.0622782 -3.74048 0
M  V30 4550 H 424.041 -0.062253 -4.92161 0
M  V30 4551 N 425.693 1.55336 -0.266172 0
M  V30 4552 C 426.641 2.23587 0.641228 0
M  V30 4553 C 427.635 1.22986 1.16494 0
M  V30 4554 O 428.841 1.40943 1.1196 0
M  V30 4555 H 425.216 0.717452 0.225315 0
M  V30 4556 H 427.187 2.9837 0.0426561 0
M  V30 4557 C 425.936 2.96369 1.81826 0
M  V30 4558 H 425.259 3.73563 1.42445 0
M  V30 4559 H 426.699 3.47459 2.42998 0
M  V30 4560 C 425.158 2.0133 2.70125 0
M  V30 4561 O 425.688 1.55875 3.70224 0
M  V30 4562 N 423.894 1.6802 2.37102 0
M  V30 4563 H 423.441 2.05181 1.55751 0
M  V30 4564 H 423.399 1.047 2.96454 0
M  V30 4565 N 427.171 -0.0066808 1.57599 0
M  V30 4566 C 428.396 -0.707738 1.94951 0
M  V30 4567 C 428.821 -1.66882 0.867868 0
M  V30 4568 O 428.179 -1.80457 -0.17458 0
M  V30 4569 C 428.227 -1.42162 3.31394 0
M  V30 4570 O 427.331 -2.53578 3.25226 0
M  V30 4571 H 426.672 -0.188752 0.636607 0
M  V30 4572 H 429.202 0.0445193 2.04552 0
M  V30 4573 H 429.212 -1.78655 3.66806 0
M  V30 4574 H 427.887 -0.716903 4.09675 0
M  V30 4575 H 426.464 -2.19463 3.01481 0
M  V30 4576 N 428.649 -1.55105 -0.279332 0
M  V30 4577 C 430.06 -1.66186 -0.850832 0
M  V30 4578 C 430.411 -0.584707 -1.87285 0
M  V30 4579 O 429.536 0.274919 -2.14647 0
M  V30 4580 C 430.131 -3.01264 -1.55001 0
M  V30 4581 C 428.69 -3.14394 -2.06963 0
M  V30 4582 C 427.837 -2.61959 -0.909536 0
M  V30 4583 H 430.788 -1.58602 -0.0558235 0
M  V30 4584 H 430.809 -2.93899 -2.41669 0
M  V30 4585 H 430.321 -3.7964 -0.805931 0
M  V30 4586 H 428.422 -2.4078 -2.84352 0
M  V30 4587 H 428.535 -4.20867 -2.28928 0
M  V30 4588 H 426.899 -2.18957 -1.30116 0
M  V30 4589 H 427.682 -3.42833 -0.179062 0
M  V30 4590 N 430.127 0.543554 -1.4793 0
M  V30 4591 C 431.057 1.65888 -1.64327 0
M  V30 4592 C 432.038 1.62818 -0.492383 0
M  V30 4593 O 433.223 1.80226 -0.723338 0
M  V30 4594 C 430.353 3.04506 -1.67013 0
M  V30 4595 C 429.307 3.2243 -2.81466 0
M  V30 4596 C 428.633 4.61972 -2.69233 0
M  V30 4597 C 429.933 3.06496 -4.22915 0
M  V30 4598 H 431.627 1.52421 -2.57698 0
M  V30 4599 H 429.173 0.731849 -1.24016 0
M  V30 4600 H 431.126 3.82391 -1.77074 0
M  V30 4601 H 429.85 3.18964 -0.70212 0
M  V30 4602 H 428.509 2.46957 -2.70938 0
M  V30 4603 H 428.157 4.73247 -1.7043 0
M  V30 4604 H 427.857 4.74911 -3.46025 0
M  V30 4605 H 429.381 5.41974 -2.81242 0
M  V30 4606 H 430.795 3.74186 -4.34348 0
M  V30 4607 H 429.192 3.30938 -5.006 0
M  V30 4608 H 430.262 2.03077 -4.40327 0
M  V30 4609 N 431.605 1.3629 0.791371 0
M  V30 4610 C 432.553 1.30514 1.92533 0
M  V30 4611 C 433.547 0.197285 1.68247 0
M  V30 4612 O 434.753 0.364176 1.76278 0
M  V30 4613 H 431.128 0.406263 0.632815 0
M  V30 4614 H 433.099 2.26282 1.94523 0
M  V30 4615 C 431.848 1.10933 3.29529 0
M  V30 4616 H 431.171 1.95427 3.48781 0
M  V30 4617 H 432.611 1.10937 4.0923 0
M  V30 4618 C 431.07 -0.186123 3.36385 0
M  V30 4619 O 431.6 -1.17664 3.84081 0
M  V30 4620 N 429.806 -0.230128 2.89687 0
M  V30 4621 H 429.353 0.576545 2.51065 0
M  V30 4622 H 429.311 -1.09658 2.94657 0
M  V30 4623 N 433.083 -1.0153 1.20538 0
M  V30 4624 C 434.329 -1.75408 1.01783 0
M  V30 4625 C 434.662 -1.88943 -0.448814 0
M  V30 4626 O 433.937 -1.4162 -1.33319 0
M  V30 4627 C 434.22 -3.17255 1.70356 0
M  V30 4628 C 434.073 -3.11508 3.24473 0
M  V30 4629 C 435.392 -4.15955 1.43769 0
M  V30 4630 H 432.511 -0.636713 0.371167 0
M  V30 4631 H 435.153 -1.18436 1.4857 0
M  V30 4632 H 433.303 -3.65898 1.30578 0
M  V30 4633 H 434.975 -2.70658 3.73553 0
M  V30 4634 H 433.218 -2.4887 3.55311 0
M  V30 4635 H 433.889 -4.11784 3.67611 0
M  V30 4636 H 436.365 -3.75973 1.7828 0
M  V30 4637 H 435.241 -5.13368 1.94279 0
M  V30 4638 H 435.502 -4.40586 0.365564 0
M  V30 4639 N 434.561 -1.01147 -1.20859 0
M  V30 4640 C 435.786 -0.716698 -1.94623 0
M  V30 4641 C 436.211 0.715415 -1.73964 0
M  V30 4642 O 435.569 1.49157 -1.03062 0
M  V30 4643 C 435.617 -1.0513 -3.44935 0
M  V30 4644 O 434.721 -0.160131 -4.12089 0
M  V30 4645 H 434.062 -0.266404 -0.608214 0
M  V30 4646 H 436.592 -1.35346 -1.53436 0
M  V30 4647 H 436.602 -1.00086 -3.95533 0
M  V30 4648 H 435.277 -2.09475 -3.59295 0
M  V30 4649 H 433.854 -0.267657 -3.71938 0
M  V30 4650 O 436.078 1.32499 -0.923373 0
M  V30 4651 H 436.769 1.85906 -0.543924 0
M  V30 END ATOM
M  V30 BEGIN BOND
M  V30 END BOND
M  V30 END CTAB
M  END
$$$$
