drugbank_target|P10826 Retinoic acid receptor beta (DB00210; DB00459; DB00523; DB00755; DB00799; DB00926; DB02877; DB04942; DB05785; DB12808)
 OpenBabel12092119273D

  0  0  0     0  0            999 V3000
M  V30 BEGIN CTAB
M  V30 COUNTS 7085 7165 0 0 0
M  V30 BEGIN ATOM
M  V30 1 H -0.908 1.98254 -0.117106 0
M  V30 2 N 0 1.576 0 0
M  V30 3 C 0.933 2.03868 1.02534 0
M  V30 4 C 1.911 0.928543 1.3348 0
M  V30 5 O 3.095 1.19667 1.45644 0
M  V30 6 C 0.222 2.43627 2.35294 0
M  V30 7 C -0.732 3.65373 2.2001 0
M  V30 8 S 0.101 5.13292 1.52614 0
M  V30 9 C 1.257 5.56322 2.86805 0
M  V30 10 H 1.49 2.90518 0.631377 0
M  V30 11 H -0.977 1.52953 0.210867 0
M  V30 12 H 0.981 2.67203 3.11629 0
M  V30 13 H -0.358 1.57376 2.7183 0
M  V30 14 H -1.165 3.90944 3.18086 0
M  V30 15 H -1.563 3.418 1.51819 0
M  V30 16 H 0.729 5.58782 3.83104 0
M  V30 17 H 1.672 6.56266 2.65933 0
M  V30 18 H 2.08 4.83886 2.90714 0
M  V30 19 N 1.4781 -0.272755 1.55222 0
M  V30 20 C 2.7061 -1.02255 1.79865 0
M  V30 21 C 3.1211 -1.79924 0.572088 0
M  V30 22 O 2.4781 -1.76638 -0.458842 0
M  V30 23 C 2.5291 -1.98094 3.02392 0
M  V30 24 O 2.2501 -1.23572 4.20311 0
M  V30 25 C 3.7511 -2.84884 3.39641 0
M  V30 26 H 0.9711 -0.302057 0.599168 0
M  V30 27 H 3.5151 -0.303465 2.02236 0
M  V30 28 H 1.6701 -2.65465 2.82147 0
M  V30 29 H 2.0841 -1.88172 4.89583 0
M  V30 30 H 3.5581 -3.47927 4.28545 0
M  V30 31 H 4.0351 -3.54665 2.59055 0
M  V30 32 H 4.6411 -2.23003 3.62146 0
M  V30 33 N 2.9562 -1.48159 -0.537278 0
M  V30 34 C 4.1842 -1.59454 -1.31841 0
M  V30 35 C 4.5992 -0.252065 -1.8711 0
M  V30 36 O 3.9562 0.757621 -1.66031 0
M  V30 37 C 4.0072 -2.63546 -2.47439 0
M  V30 38 O 3.7282 -3.92583 -1.94449 0
M  V30 39 C 5.2292 -2.85212 -3.39366 0
M  V30 40 H 2.4492 -0.53785 -0.401196 0
M  V30 41 H 4.9932 -1.93932 -0.648891 0
M  V30 42 H 3.1482 -2.31946 -3.1029 0
M  V30 43 H 3.5622 -4.49629 -2.70063 0
M  V30 44 H 5.0362 -3.61863 -4.16844 0
M  V30 45 H 5.5132 -1.93765 -3.94147 0
M  V30 46 H 6.1192 -3.18086 -2.82314 0
M  V30 47 N 4.4343 0.785586 -1.36625 0
M  V30 48 C 5.6593 1.57963 -1.34397 0
M  V30 49 C 6.0843 1.87964 0.071526 0
M  V30 50 O 5.4423 1.48182 1.0446 0
M  V30 51 C 5.4903 2.87511 -2.17646 0
M  V30 52 O 4.5943 3.81281 -1.57158 0
M  V30 53 H 3.9353 0.479014 -0.459828 0
M  V30 54 H 6.4653 0.973411 -1.79961 0
M  V30 55 H 6.4753 3.36745 -2.30362 0
M  V30 56 H 5.1503 2.65002 -3.20541 0
M  V30 57 H 3.7273 3.39885 -1.53403 0
M  V30 58 N 5.9124 1.20967 1.01018 0
M  V30 59 C 7.1604 1.02172 1.74371 0
M  V30 60 C 7.4814 -0.446414 1.89821 0
M  V30 61 O 6.7514 -1.32234 1.44537 0
M  V30 62 H 5.3314 0.375066 0.646014 0
M  V30 63 H 7.9934 1.52187 1.21758 0
M  V30 64 H 7.0894 1.48538 2.74487 0
M  V30 65 N 7.3905 -1.2043 1.01659 0
M  V30 66 C 8.3405 -2.21076 0.557623 0
M  V30 67 C 9.3245 -1.56176 -0.387029 0
M  V30 68 O 10.5165 -1.7575 -0.209996 0
M  V30 69 C 7.6455 -3.43146 -0.102707 0
M  V30 70 C 6.7315 -4.15213 0.863652 0
M  V30 71 N 7.1225 -4.63662 2.02117 0
M  V30 72 C 5.4205 -4.40716 0.684472 0
M  V30 73 C 6.1215 -5.18868 2.62966 0
M  V30 74 N 5.0975 -5.0893 1.91027 0
M  V30 75 H 8.8995 -2.56201 1.44008 0
M  V30 76 H 6.4135 -1.36366 0.881931 0
M  V30 77 H 8.4105 -4.14475 -0.449054 0
M  V30 78 H 7.0705 -3.09526 -0.981003 0
M  V30 79 H 8.0815 -4.58877 2.40109 0
M  V30 80 H 4.7585 -4.17245 -0.14577 0
M  V30 81 H 6.1485 -5.6673 3.60924 0
M  V30 82 N 8.8686 -0.792821 -1.36206 0
M  V30 83 C 9.8316 -0.199459 -2.2833 0
M  V30 84 C 10.8316 0.605189 -1.48977 0
M  V30 85 O 12.0216 0.425685 -1.68919 0
M  V30 86 C 9.1536 0.723523 -3.33134 0
M  V30 87 H 10.3466 -1.01181 -2.82316 0
M  V30 88 H 7.8996 -0.562485 -1.45828 0
M  V30 89 H 8.6346 1.56008 -2.84309 0
M  V30 90 H 8.4196 0.148436 -3.91819 0
M  V30 91 H 9.9096 1.13344 -4.01924 0
M  V30 92 N 10.3467 1.47872 -0.545128 0
M  V30 93 C 11.5867 2.04391 -0.0187854 0
M  V30 94 C 11.9507 1.41162 1.30144 0
M  V30 95 O 13.1517 1.88656 1.91474 0
M  V30 96 C 11.4227 3.57299 0.0850867 0
M  V30 97 S 12.9817 4.35221 0.559302 0
M  V30 98 H 9.7997 0.710737 -0.0193301 0
M  V30 99 H 12.4017 1.81395 -0.729125 0
M  V30 100 H 11.1057 4.00847 -0.880351 0
M  V30 101 H 10.6367 3.84773 0.819348 0
M  V30 102 H 12.6517 4.61571 1.82118 0
M  V30 103 N 11.8248 0.280983 1.55075 0
M  V30 104 C 13.2358 -0.215629 1.85451 0
M  V30 105 C 13.5868 -1.54991 1.203 0
M  V30 106 O 12.7118 -2.10699 0.493435 0
M  V30 107 C 13.3068 -0.398026 3.36454 0
M  V30 108 C 11.8658 -0.838866 3.66933 0
M  V30 109 C 11.0128 0.064458 2.77225 0
M  V30 110 H 13.9638 0.502601 1.50531 0
M  V30 111 H 13.9848 -1.23569 3.59876 0
M  V30 112 H 13.4968 0.573241 3.83843 0
M  V30 113 H 11.5978 -1.8214 3.25048 0
M  V30 114 H 11.7108 -0.672123 4.74362 0
M  V30 115 H 10.0748 -0.452863 2.50642 0
M  V30 116 H 10.8578 1.03172 3.2743 0
M  V30 117 N 13.3029 -1.57598 0.00835791 0
M  V30 118 C 14.5489 -1.91211 -0.675732 0
M  V30 119 C 14.8819 -0.883139 -1.72958 0
M  V30 120 O 14.1569 0.097016 -1.94258 0
M  V30 121 C 14.4399 -3.35379 -1.31123 0
M  V30 122 C 14.2929 -4.48999 -0.268356 0
M  V30 123 C 15.6119 -3.7912 -2.23508 0
M  V30 124 H 12.7309 -0.695374 -0.244179 0
M  V30 125 H 15.3729 -1.89901 0.0613655 0
M  V30 126 H 13.5229 -3.36626 -1.93946 0
M  V30 127 H 15.1949 -4.59887 0.360844 0
M  V30 128 H 13.4379 -4.31873 0.408482 0
M  V30 129 H 14.1089 -5.46851 -0.752218 0
M  V30 130 H 16.5849 -3.79477 -1.70693 0
M  V30 131 H 15.4609 -4.80729 -2.64936 0
M  V30 132 H 15.7219 -3.13455 -3.11766 0
M  V30 133 N 14.781 0.264519 -1.55364 0
M  V30 134 C 16.192 0.834936 -1.6699 0
M  V30 135 C 16.543 1.86718 -0.602552 0
M  V30 136 O 15.668 2.14899 0.254425 0
M  V30 137 C 16.263 1.5212 -3.02729 0
M  V30 138 C 14.822 2.03954 -3.16354 0
M  V30 139 C 13.969 0.884498 -2.62815 0
M  V30 140 H 16.92 0.0406869 -1.58648 0
M  V30 141 H 16.941 2.38853 -2.96191 0
M  V30 142 H 16.453 0.769668 -3.80392 0
M  V30 143 H 14.554 2.82041 -2.43482 0
M  V30 144 H 14.667 2.24902 -4.23032 0
M  V30 145 H 13.031 1.2802 -2.20188 0
M  V30 146 H 13.814 0.14634 -3.42988 0
M  V30 147 N 16.2591 1.48442 0.529413 0
M  V30 148 C 17.2221 1.62524 1.61612 0
M  V30 149 C 18.2221 0.498509 1.52877 0
M  V30 150 O 19.4121 0.76431 1.56537 0
M  V30 151 C 16.5441 1.59597 3.01233 0
M  V30 152 H 17.7371 2.59423 1.50465 0
M  V30 153 H 15.2901 1.37047 0.751514 0
M  V30 154 H 16.0251 0.641781 3.17886 0
M  V30 155 H 15.8101 2.41397 3.08982 0
M  V30 156 H 17.3001 1.72646 3.80241 0
M  V30 157 N 17.7372 -0.778329 1.37039 0
M  V30 158 C 18.9832 -1.53892 1.32079 0
M  V30 159 C 19.3162 -1.9396 -0.0965386 0
M  V30 160 O 18.5912 -1.63568 -1.05242 0
M  V30 161 C 18.8742 -2.80847 2.25382 0
M  V30 162 C 18.7272 -2.47076 3.75864 0
M  V30 163 C 20.0462 -3.82741 2.1725 0
M  V30 164 H 17.1652 -0.558303 0.48111 0
M  V30 165 H 19.8072 -0.893397 1.67685 0
M  V30 166 H 17.9572 -3.35931 1.95148 0
M  V30 167 H 19.6292 -1.97957 4.16666 0
M  V30 168 H 17.8722 -1.79863 3.94755 0
M  V30 169 H 18.5432 -3.37798 4.36574 0
M  V30 170 H 21.0192 -3.37133 2.43887 0
M  V30 171 H 19.8952 -4.69303 2.84686 0
M  V30 172 H 20.1562 -4.2652 1.16331 0
M  V30 173 N 19.2153 -1.21501 -1.00376 0
M  V30 174 C 20.1633 -0.972442 -2.11297 0
M  V30 175 C 21.1573 0.080731 -1.69208 0
M  V30 176 O 22.3633 -0.0707666 -1.79861 0
M  V30 177 H 18.7383 -0.297218 -0.690772 0
M  V30 178 H 20.7093 -1.91394 -2.28934 0
M  V30 179 C 19.4583 -0.555065 -3.43241 0
M  V30 180 H 18.7813 -1.35709 -3.76062 0
M  V30 181 H 20.2213 -0.424664 -4.21868 0
M  V30 182 C 18.6803 0.734147 -3.28804 0
M  V30 183 O 19.2103 1.78937 -3.59645 0
M  V30 184 N 17.4163 0.701133 -2.82015 0
M  V30 185 H 16.9633 -0.157874 -2.57116 0
M  V30 186 H 16.9213 1.56403 -2.72737 0
M  V30 187 N 20.6934 1.19889 -1.02296 0
M  V30 188 C 21.9414 1.89046 -0.714558 0
M  V30 189 C 22.2624 1.79636 0.758681 0
M  V30 190 O 21.5324 1.20292 1.54618 0
M  V30 191 H 20.1124 0.699802 -0.261317 0
M  V30 192 H 22.7744 1.45574 -1.29592 0
M  V30 193 H 21.8704 2.95524 -1.0036 0
M  V30 194 N 22.1715 0.800033 1.35784 0
M  V30 195 C 23.1215 0.178654 2.27299 0
M  V30 196 C 24.1055 -0.643667 1.47464 0
M  V30 197 O 25.2975 -0.502 1.69732 0
M  V30 198 C 22.4265 -0.677194 3.36555 0
M  V30 199 C 21.5125 0.154497 4.23818 0
M  V30 200 N 21.9035 1.21427 4.91008 0
M  V30 201 C 20.2015 -0.0649462 4.45953 0
M  V30 202 C 20.9025 1.72147 5.55644 0
M  V30 203 N 19.8785 1.02897 5.33773 0
M  V30 204 H 23.6805 0.989637 2.76737 0
M  V30 205 H 21.1945 0.64054 1.49234 0
M  V30 206 H 23.1915 -1.13835 4.01058 0
M  V30 207 H 21.8515 -1.4866 2.8867 0
M  V30 208 H 22.8625 1.59684 4.92668 0
M  V30 209 H 19.5395 -0.844016 4.0888 0
M  V30 210 H 20.9295 2.60683 6.19269 0
M  V30 211 N 23.6496 -1.47581 0.552962 0
M  V30 212 C 24.5826 -2.26883 -0.244857 0
M  V30 213 C 25.5606 -1.33784 -0.924147 0
M  V30 214 O 26.7446 -1.6316 -0.943981 0
M  V30 215 C 23.8716 -3.10695 -1.34856 0
M  V30 216 C 22.9176 -4.19339 -0.778268 0
M  V30 217 S 23.7506 -5.34207 0.37184 0
M  V30 218 C 24.9066 -6.21584 -0.733779 0
M  V30 219 H 25.1396 -2.94202 0.428087 0
M  V30 220 H 22.6726 -1.50628 0.339197 0
M  V30 221 H 24.6306 -3.59555 -1.98066 0
M  V30 222 H 23.2916 -2.42746 -1.99332 0
M  V30 223 H 22.4846 -4.77695 -1.60696 0
M  V30 224 H 22.0866 -3.73338 -0.222422 0
M  V30 225 H 24.3786 -6.57676 -1.62692 0
M  V30 226 H 25.3216 -7.07851 -0.187668 0
M  V30 227 H 25.7296 -5.55125 -1.02454 0
M  V30 228 N 25.1277 -0.289203 -1.54924 0
M  V30 229 C 26.3557 0.326463 -2.04308 0
M  V30 230 C 26.7707 1.48413 -1.16701 0
M  V30 231 O 26.1277 1.81507 -0.190087 0
M  V30 232 C 26.1787 0.794014 -3.52672 0
M  V30 233 O 25.8997 -0.317564 -4.36948 0
M  V30 234 C 27.4007 1.47605 -4.18004 0
M  V30 235 H 24.6207 0.0726272 -0.667058 0
M  V30 236 H 27.1647 -0.425401 -2.00026 0
M  V30 237 H 25.3197 1.49593 -3.57352 0
M  V30 238 H 25.7337 0.0443186 -5.24481 0
M  V30 239 H 27.2077 1.75447 -5.23376 0
M  V30 240 H 27.6847 2.41224 -3.67025 0
M  V30 241 H 28.2907 0.81762 -4.17367 0
M  V30 242 N 26.6058 1.57591 -0.0167156 0
M  V30 243 C 27.5558 2.05953 0.978137 0
M  V30 244 C 28.5398 0.957532 1.29306 0
M  V30 245 O 29.7318 1.22119 1.28125 0
M  V30 246 C 26.8608 2.58006 2.26468 0
M  V30 247 C 25.9468 3.75113 1.97867 0
M  V30 248 N 26.3378 4.86187 1.39486 0
M  V30 249 C 24.6358 3.83363 2.27924 0
M  V30 250 C 25.3368 5.67502 1.27735 0
M  V30 251 N 24.3128 5.14023 1.76866 0
M  V30 252 H 28.1148 2.89236 0.521522 0
M  V30 253 H 25.6288 1.61301 0.188596 0
M  V30 254 H 27.6258 2.90937 2.98599 0
M  V30 255 H 26.2858 1.76148 2.72767 0
M  V30 256 H 27.2968 5.06695 1.07147 0
M  V30 257 H 23.9738 3.1239 2.76982 0
M  V30 258 H 25.3638 6.66791 0.826978 0
M  V30 259 N 28.0839 -0.256276 1.55502 0
M  V30 260 C 29.3139 -1.00196 1.80677 0
M  V30 261 C 29.7219 -1.79805 0.588797 0
M  V30 262 O 29.0649 -1.78055 -0.451883 0
M  V30 263 C 29.1269 -1.99515 2.99055 0
M  V30 264 C 28.7909 -1.38688 4.35448 0
M  V30 265 C 29.7879 -0.794079 5.138 0
M  V30 266 C 27.4729 -1.40906 4.82132 0
M  V30 267 C 29.4669 -0.231562 6.36979 0
M  V30 268 C 27.1539 -0.842684 6.05262 0
M  V30 269 C 28.1519 -0.254953 6.82524 0
M  V30 270 O 27.8399 0.3027 8.0333 0
M  V30 271 H 27.5719 -0.300919 0.60533 0
M  V30 272 H 30.1259 -0.287307 2.03381 0
M  V30 273 H 28.3559 -2.74785 2.72084 0
M  V30 274 H 30.0449 -2.60349 3.11405 0
M  V30 275 H 30.8109 -0.769519 4.78856 0
M  V30 276 H 26.6899 -1.85591 4.21992 0
M  V30 277 H 30.2339 0.227816 6.97228 0
M  V30 278 H 26.1309 -0.86454 6.39684 0
M  V30 279 H 26.8989 0.193662 8.18271 0
M  V30 280 N 29.562 -1.4872 -0.521534 0
M  V30 281 C 30.973 -1.50607 -1.10337 0
M  V30 282 C 31.324 -0.280612 -1.94183 0
M  V30 283 O 30.449 0.611507 -2.0758 0
M  V30 284 C 31.044 -2.72903 -2.00772 0
M  V30 285 C 29.603 -2.77634 -2.54158 0
M  V30 286 C 28.75 -2.44241 -1.31307 0
M  V30 287 H 31.701 -1.55714 -0.306388 0
M  V30 288 H 31.722 -2.519 -2.85178 0
M  V30 289 H 31.234 -3.62077 -1.39721 0
M  V30 290 H 29.335 -1.92689 -3.18907 0
M  V30 291 H 29.448 -3.79283 -2.92714 0
M  V30 292 H 27.812 -1.95577 -1.63161 0
M  V30 293 H 28.595 -3.35666 -0.719943 0
M  V30 294 N 31.0401 0.771051 -1.3745 0
M  V30 295 C 32.0031 1.86598 -1.33093 0
M  V30 296 C 33.0031 1.59076 -0.234845 0
M  V30 297 O 34.1931 1.67145 -0.490732 0
M  V30 298 C 31.3251 3.23747 -1.06773 0
M  V30 299 H 32.5181 1.91873 -2.30488 0
M  V30 300 H 30.0711 0.970876 -1.2249 0
M  V30 301 H 30.8061 3.24148 -0.099129 0
M  V30 302 H 30.5911 3.45115 -1.86112 0
M  V30 303 H 32.0811 4.03824 -1.06377 0
M  V30 304 N 32.5182 1.22032 0.997298 0
M  V30 305 C 33.7462 1.06841 1.7718 0
M  V30 306 C 34.1612 -0.381325 1.84909 0
M  V30 307 O 33.5182 -1.26437 1.31605 0
M  V30 308 C 33.5692 1.66814 3.20711 0
M  V30 309 O 33.2902 3.06116 3.13408 0
M  V30 310 C 34.7912 1.56838 4.14628 0
M  V30 311 H 32.0112 0.374782 0.556578 0
M  V30 312 H 34.5552 1.61532 1.2541 0
M  V30 313 H 32.7102 1.16196 3.69564 0
M  V30 314 H 33.1242 3.34926 4.0364 0
M  V30 315 H 34.5982 2.03532 5.13107 0
M  V30 316 H 35.0752 0.524155 4.36061 0
M  V30 317 H 35.6812 2.06741 3.7167 0
M  V30 318 N 33.9963 -1.19345 1.0293 0
M  V30 319 C 35.4073 -1.70725 0.755633 0
M  V30 320 C 35.7583 -1.82326 -0.724676 0
M  V30 321 O 34.8833 -1.49471 -1.56484 0
M  V30 322 C 35.4783 -3.10084 1.36503 0
M  V30 323 C 34.0373 -3.58723 1.13994 0
M  V30 324 C 33.1843 -2.35577 1.46283 0
M  V30 325 H 36.1353 -1.0418 1.19718 0
M  V30 326 H 36.1563 -3.72787 0.762217 0
M  V30 327 H 35.6683 -3.01609 2.44241 0
M  V30 328 H 33.7693 -3.72512 0.0807901 0
M  V30 329 H 33.8823 -4.42816 1.82894 0
M  V30 330 H 32.2463 -2.38935 0.88217 0
M  V30 331 H 33.0293 -2.29731 2.55105 0
M  V30 332 N 35.4744 -0.807222 -1.35358 0
M  V30 333 C 36.7044 -0.399796 -2.02695 0
M  V30 334 C 37.1124 0.994176 -1.60974 0
M  V30 335 O 36.4554 1.65209 -0.803226 0
M  V30 336 C 36.5174 -0.404445 -3.57218 0
M  V30 337 C 36.1814 -1.74904 -4.22206 0
M  V30 338 C 37.1784 -2.70743 -4.4384 0
M  V30 339 C 34.8634 -2.03322 -4.5931 0
M  V30 340 C 36.8574 -3.93183 -5.01683 0
M  V30 341 C 34.5444 -3.26026 -5.16866 0
M  V30 342 C 35.5424 -4.20774 -5.37994 0
M  V30 343 O 35.2304 -5.41312 -5.94337 0
M  V30 344 H 34.9624 -0.160517 -0.656666 0
M  V30 345 H 37.5164 -1.09235 -1.73945 0
M  V30 346 H 35.7464 0.344707 -3.85161 0
M  V30 347 H 37.4354 -0.0192429 -4.05895 0
M  V30 348 H 38.2014 -2.5008 -4.15554 0
M  V30 349 H 34.0804 -1.30384 -4.42178 0
M  V30 350 H 37.6244 -4.6715 -5.1809 0
M  V30 351 H 33.5214 -3.46559 -5.44579 0
M  V30 352 H 34.2894 -5.42618 -6.12787 0
M  V30 353 N 36.9525 1.47285 -0.560781 0
M  V30 354 C 38.3635 1.86258 -0.128343 0
M  V30 355 C 38.7145 1.46699 1.30284 0
M  V30 356 O 37.8395 0.871698 1.98067 0
M  V30 357 C 38.4345 3.38044 -0.22614 0
M  V30 358 C 36.9935 3.76096 0.151283 0
M  V30 359 C 36.1405 2.71335 -0.572084 0
M  V30 360 H 39.0915 1.38752 -0.770297 0
M  V30 361 H 39.1125 3.76441 0.554322 0
M  V30 362 H 38.6245 3.66806 -1.26788 0
M  V30 363 H 36.7255 3.52951 1.19399 0
M  V30 364 H 36.8385 4.78641 -0.209765 0
M  V30 365 H 35.2025 2.54696 -0.0147653 0
M  V30 366 H 35.9855 3.02938 -1.61504 0
M  V30 367 N 38.4306 0.297415 1.54768 0
M  V30 368 C 39.3606 -0.573494 2.26348 0
M  V30 369 C 40.3416 -1.14085 1.26169 0
M  V30 370 O 41.5266 -1.17086 1.54934 0
M  V30 371 C 38.6566 -1.74716 3.00153 0
M  V30 372 C 37.6106 -1.31032 4.07449 0
M  V30 373 C 36.9366 -2.56887 4.68949 0
M  V30 374 C 38.2366 -0.444183 5.20408 0
M  V30 375 H 39.9306 0.0235131 2.99391 0
M  V30 376 H 37.4766 0.0127488 1.43994 0
M  V30 377 H 39.4296 -2.3625 3.48947 0
M  V30 378 H 38.1536 -2.37035 2.24682 0
M  V30 379 H 36.8126 -0.718066 3.59499 0
M  V30 380 H 36.4606 -3.17512 3.90122 0
M  V30 381 H 36.1606 -2.2836 5.41411 0
M  V30 382 H 37.6846 -3.19229 5.20505 0
M  V30 383 H 39.0986 -0.9651 5.65118 0
M  V30 384 H 37.4956 -0.252846 5.99567 0
M  V30 385 H 38.5656 0.531609 4.81977 0
M  V30 386 N 39.9087 -1.5758 0.0250728 0
M  V30 387 C 40.8387 -2.13007 -0.956575 0
M  V30 388 C 41.8197 -1.0452 -1.342 0
M  V30 389 O 43.0047 -1.32332 -1.42133 0
M  V30 390 C 40.1347 -2.65386 -2.24026 0
M  V30 391 C 39.0887 -3.78623 -1.99571 0
M  V30 392 C 38.4147 -4.17414 -3.3417 0
M  V30 393 C 39.7147 -5.04867 -1.33814 0
M  V30 394 H 41.4087 -2.9528 -0.494991 0
M  V30 395 H 38.9547 -1.42042 -0.236651 0
M  V30 396 H 40.9077 -3.02794 -2.93076 0
M  V30 397 H 39.6317 -1.80268 -2.72343 0
M  V30 398 H 38.2907 -3.41646 -1.32941 0
M  V30 399 H 37.9387 -3.29284 -3.80238 0
M  V30 400 H 37.6387 -4.93719 -3.18615 0
M  V30 401 H 39.1627 -4.57402 -4.04495 0
M  V30 402 H 40.5767 -5.39888 -1.92857 0
M  V30 403 H 38.9737 -5.86144 -1.28669 0
M  V30 404 H 40.0437 -4.83904 -0.310561 0
M  V30 405 N 41.3868 0.248026 -1.55636 0
M  V30 406 C 42.6338 0.976224 -1.77415 0
M  V30 407 C 42.9618 1.85361 -0.589193 0
M  V30 408 O 42.2168 1.90973 0.427529 0
M  V30 409 C 42.5158 1.86819 -3.04686 0
M  V30 410 C 42.1818 1.14625 -4.36087 0
M  V30 411 C 40.8438 0.946723 -4.71795 0
M  V30 412 C 43.1958 0.634463 -5.17324 0
M  V30 413 C 40.5238 0.223091 -5.86276 0
M  V30 414 C 42.8758 -0.0756959 -6.32555 0
M  V30 415 C 41.5398 -0.286711 -6.66884 0
M  V30 416 H 40.8098 0.357226 -0.649208 0
M  V30 417 H 43.4568 0.246415 -1.89908 0
M  V30 418 H 41.7618 2.66502 -2.872 0
M  V30 419 H 43.4588 2.43329 -3.18735 0
M  V30 420 H 40.0488 1.3117 -4.08035 0
M  V30 421 H 44.2328 0.77616 -4.90193 0
M  V30 422 H 39.4888 0.0491185 -6.1138 0
M  V30 423 H 43.6628 -0.479899 -6.94745 0
M  V30 424 H 41.2898 -0.849389 -7.5544 0
M  V30 425 N 42.8649 1.48995 0.513639 0
M  V30 426 C 44.2759 1.5119 1.09537 0
M  V30 427 C 44.6269 0.290906 1.94031 0
M  V30 428 O 43.7519 -0.60049 2.07902 0
M  V30 429 C 44.3469 2.73964 1.99322 0
M  V30 430 C 42.9059 2.78978 2.52682 0
M  V30 431 C 42.0529 2.44934 1.30009 0
M  V30 432 H 45.0039 1.55875 0.298125 0
M  V30 433 H 45.0249 2.53409 2.83838 0
M  V30 434 H 44.5369 3.62813 1.37799 0
M  V30 435 H 42.6379 1.94378 3.1788 0
M  V30 436 H 42.7509 3.8083 2.90698 0
M  V30 437 H 41.1149 1.9644 1.62122 0
M  V30 438 H 41.8979 3.36043 0.702131 0
M  V30 439 N 44.343 -0.763751 1.37857 0
M  V30 440 C 45.754 -1.3405 1.29952 0
M  V30 441 C 46.105 -1.96138 -0.0492898 0
M  V30 442 O 45.23 -1.94372 -0.951239 0
M  V30 443 C 45.825 -2.43729 2.35333 0
M  V30 444 C 44.384 -2.97151 2.31037 0
M  V30 445 C 43.531 -1.70438 2.18738 0
M  V30 446 H 46.482 -0.563396 1.48363 0
M  V30 447 H 46.503 -3.23412 2.00462 0
M  V30 448 H 46.015 -1.9851 3.33489 0
M  V30 449 H 44.116 -3.46724 1.3643 0
M  V30 450 H 44.229 -3.52221 3.24772 0
M  V30 451 H 42.593 -1.93673 1.65418 0
M  V30 452 H 43.376 -1.27312 3.18821 0
M  V30 453 N 45.8211 -1.22559 -0.990812 0
M  V30 454 C 47.0671 -1.05297 -1.73322 0
M  V30 455 C 47.4001 0.410655 -1.89808 0
M  V30 456 O 46.6751 1.30439 -1.44277 0
M  V30 457 C 46.9581 -1.76713 -3.13759 0
M  V30 458 C 46.8111 -3.30684 -3.04907 0
M  V30 459 C 48.1301 -1.52121 -4.12974 0
M  V30 460 H 45.2491 -0.38392 -0.629106 0
M  V30 461 H 47.8911 -1.50926 -1.15418 0
M  V30 462 H 46.0411 -1.37924 -3.63193 0
M  V30 463 H 47.7131 -3.7893 -2.63077 0
M  V30 464 H 45.9561 -3.60253 -2.41661 0
M  V30 465 H 46.6271 -3.75833 -4.04294 0
M  V30 466 H 49.1031 -1.85819 -3.72304 0
M  V30 467 H 47.9791 -2.04582 -5.0935 0
M  V30 468 H 48.2401 -0.454257 -4.3976 0
M  V30 469 N 47.2992 1.18797 -1.03562 0
M  V30 470 C 48.5482 1.87978 -0.731235 0
M  V30 471 C 48.8612 1.80911 0.743671 0
M  V30 472 O 50.0672 2.45407 1.16137 0
M  V30 473 C 48.5232 3.3721 -1.25768 0
M  V30 474 C 48.1312 3.52818 -2.76085 0
M  V30 475 C 49.8752 4.11825 -1.0296 0
M  V30 476 C 47.7822 4.9598 -3.22114 0
M  V30 477 H 46.7122 0.704063 -0.269835 0
M  V30 478 H 49.3632 1.34266 -1.25079 0
M  V30 479 H 47.7452 3.90359 -0.666011 0
M  V30 480 H 48.9192 3.09965 -3.40966 0
M  V30 481 H 47.2342 2.91602 -2.97249 0
M  V30 482 H 49.8312 5.17411 -1.34869 0
M  V30 483 H 50.1742 4.16287 0.0333546 0
M  V30 484 H 50.7072 3.64833 -1.58562 0
M  V30 485 H 47.4462 4.96684 -4.27768 0
M  V30 486 H 46.9662 5.39569 -2.61965 0
M  V30 487 H 48.6452 5.6467 -3.15844 0
M  V30 488 N 48.7773 0.814389 1.34928 0
M  V30 489 C 50.0253 0.397636 1.9815 0
M  V30 490 C 50.3463 -1.04069 1.64908 0
M  V30 491 O 49.6163 -1.72121 0.93548 0
M  V30 492 H 48.1963 0.144043 0.732981 0
M  V30 493 H 50.8583 1.04195 1.6471 0
M  V30 494 H 49.9543 0.509688 3.0791 0
M  V30 495 N 50.2554 -1.46986 0.568584 0
M  V30 496 C 51.5034 -2.02041 0.0487022 0
M  V30 497 C 51.8244 -1.44408 -1.31039 0
M  V30 498 O 51.0944 -0.623477 -1.85714 0
M  V30 499 H 49.6744 -0.746849 0.015014 0
M  V30 500 H 52.3364 -1.80257 0.741168 0
M  V30 501 H 51.4324 -3.12085 -0.0308961 0
M  V30 502 N 51.7335 -0.305618 -1.54608 0
M  V30 503 C 52.6635 0.561482 -2.26649 0
M  V30 504 C 53.6445 1.13415 -1.26772 0
M  V30 505 O 54.8295 1.16262 -1.55553 0
M  V30 506 C 51.9595 1.73122 -3.01075 0
M  V30 507 C 50.9135 1.2887 -4.08138 0
M  V30 508 C 50.2395 2.54396 -4.70305 0
M  V30 509 C 51.5395 0.416578 -5.20636 0
M  V30 510 H 53.2335 -0.0393902 -2.99374 0
M  V30 511 H 50.7795 -0.020385 -1.43986 0
M  V30 512 H 52.7325 2.34396 -3.50195 0
M  V30 513 H 51.4565 2.3584 -2.25936 0
M  V30 514 H 50.1155 0.698991 -3.59875 0
M  V30 515 H 49.7635 3.15439 -3.918 0
M  V30 516 H 49.4635 2.25486 -5.42614 0
M  V30 517 H 50.9875 3.16464 -5.2219 0
M  V30 518 H 52.4015 0.935116 -5.65622 0
M  V30 519 H 50.7985 0.221046 -5.99693 0
M  V30 520 H 51.8685 -0.557162 -4.81688 0
M  V30 521 N 53.2116 1.57565 -0.0334293 0
M  V30 522 C 54.4366 1.96689 0.657895 0
M  V30 523 C 54.8616 0.910057 1.64619 0
M  V30 524 O 54.2196 -0.128598 1.80843 0
M  V30 525 C 54.2676 3.34905 1.33683 0
M  V30 526 O 53.3716 3.31574 2.45219 0
M  V30 527 H 52.7126 0.641205 0.172489 0
M  V30 528 H 55.2426 2.04372 -0.0965621 0
M  V30 529 H 55.2526 3.71234 1.69262 0
M  V30 530 H 53.9276 4.11366 0.612411 0
M  V30 531 H 52.5046 3.06968 2.11719 0
M  V30 532 N 54.6897 -0.239769 1.55765 0
M  V30 533 C 55.6197 -1.30052 1.9393 0
M  V30 534 C 56.6007 -1.49839 0.805132 0
M  V30 535 O 57.7857 -1.62328 1.06599 0
M  V30 536 C 54.9157 -2.65391 2.2402 0
M  V30 537 C 53.8697 -2.60289 3.39755 0
M  V30 538 C 53.1957 -3.99489 3.55405 0
M  V30 539 C 54.4957 -2.16654 4.75246 0
M  V30 540 H 56.1897 -0.983573 2.82783 0
M  V30 541 H 53.7357 -0.471701 1.36055 0
M  V30 542 H 55.6887 -3.3974 2.49308 0
M  V30 543 H 54.4127 -2.98736 1.32 0
M  V30 544 H 53.0717 -1.88398 3.14487 0
M  V30 545 H 52.7197 -4.30112 2.60793 0
M  V30 546 H 52.4197 -3.96962 4.33238 0
M  V30 547 H 53.9437 -4.75528 3.83022 0
M  V30 548 H 55.3577 -2.80737 4.99859 0
M  V30 549 H 53.7547 -2.25223 5.56232 0
M  V30 550 H 54.8247 -1.11835 4.71827 0
M  V30 551 N 56.1678 -1.49265 -0.50573 0
M  V30 552 C 57.5788 -1.51769 -1.08734 0
M  V30 553 C 57.9298 -0.301192 -1.93874 0
M  V30 554 O 57.0548 0.589456 -2.08217 0
M  V30 555 C 57.6498 -2.75017 -1.97867 0
M  V30 556 C 56.2088 -2.80314 -2.51199 0
M  V30 557 C 55.3558 -2.4562 -1.28709 0
M  V30 558 H 58.3068 -1.56031 -0.289855 0
M  V30 559 H 58.3278 -2.5491 -2.82491 0
M  V30 560 H 57.8398 -3.63539 -1.35873 0
M  V30 561 H 55.9408 -1.96061 -3.16845 0
M  V30 562 H 56.0538 -3.82366 -2.88675 0
M  V30 563 H 54.4178 -1.97297 -1.61078 0
M  V30 564 H 55.2008 -3.36411 -0.6843 0
M  V30 565 N 57.6459 0.756429 -1.3826 0
M  V30 566 C 59.0569 1.33359 -1.30661 0
M  V30 567 C 59.4079 1.96161 0.0388875 0
M  V30 568 O 58.5329 1.94874 0.940918 0
M  V30 569 C 59.1279 2.42477 -2.36622 0
M  V30 570 C 57.6869 2.95922 -2.3261 0
M  V30 571 C 56.8339 1.69275 -2.19639 0
M  V30 572 H 59.7849 0.55552 -1.4866 0
M  V30 573 H 59.8059 3.22345 -2.02174 0
M  V30 574 H 59.3179 1.96739 -3.34538 0
M  V30 575 H 57.4189 3.45996 -1.38267 0
M  V30 576 H 57.5319 3.50494 -3.26636 0
M  V30 577 H 55.8959 1.92793 -1.66442 0
M  V30 578 H 56.6789 1.25619 -3.19491 0
M  V30 579 N 59.124 1.23083 0.984299 0
M  V30 580 C 60.054 1.03292 2.09411 0
M  V30 581 C 61.035 -0.048923 1.7003 0
M  V30 582 O 62.22 0.114967 1.93859 0
M  V30 583 C 59.35 0.619155 3.41736 0
M  V30 584 C 58.304 1.64791 3.95004 0
M  V30 585 C 57.63 1.0897 5.23478 0
M  V30 586 C 58.93 3.03999 4.24714 0
M  V30 587 H 60.624 1.96119 2.26225 0
M  V30 588 H 58.17 0.944344 1.08711 0
M  V30 589 H 60.123 0.467777 4.18796 0
M  V30 590 H 58.847 -0.344786 3.24775 0
M  V30 591 H 57.506 1.78721 3.20085 0
M  V30 592 H 57.154 0.11686 5.02864 0
M  V30 593 H 56.854 1.77704 5.60085 0
M  V30 594 H 58.378 0.950093 6.03163 0
M  V30 595 H 59.792 2.93393 4.92538 0
M  V30 596 H 58.189 3.69936 4.72512 0
M  V30 597 H 59.259 3.53285 3.32142 0
M  V30 598 N 60.6021 -1.18246 1.0419 0
M  V30 599 C 61.5521 -2.19843 0.604392 0
M  V30 600 C 62.5361 -1.56962 -0.353814 0
M  V30 601 O 63.7281 -1.76156 -0.17267 0
M  V30 602 C 60.8571 -3.43287 -0.0298975 0
M  V30 603 C 59.9431 -4.13288 0.951531 0
M  V30 604 N 60.3341 -4.59271 2.11906 0
M  V30 605 C 58.6321 -4.39165 0.7778 0
M  V30 606 C 59.3331 -5.13173 2.73912 0
M  V30 607 N 58.3091 -5.04763 2.01779 0
M  V30 608 H 62.1111 -2.53089 1.4941 0
M  V30 609 H 59.6251 -1.34465 0.910658 0
M  V30 610 H 61.6221 -4.15334 -0.361037 0
M  V30 611 H 60.2821 -3.11537 -0.915127 0
M  V30 612 H 61.2931 -4.5368 2.49789 0
M  V30 613 H 57.9701 -4.17461 -0.0572331 0
M  V30 614 H 59.3601 -5.58947 3.72864 0
M  V30 615 N 62.0802 -0.821533 -1.34494 0
M  V30 616 C 63.3282 -0.408139 -1.97936 0
M  V30 617 C 63.6492 1.03193 -1.65457 0
M  V30 618 O 62.9192 1.71622 -0.944595 0
M  V30 619 H 61.4992 -0.147928 -0.732206 0
M  V30 620 H 64.1612 -1.05067 -1.64155 0
M  V30 621 H 63.2572 -0.52601 -3.07635 0
M  V30 622 N 63.5583 1.46682 -0.576371 0
M  V30 623 C 64.4883 2.33028 0.148397 0
M  V30 624 C 65.4693 1.44961 0.889956 0
M  V30 625 O 66.6543 1.73789 0.866662 0
M  V30 626 C 63.7843 3.27117 1.1667 0
M  V30 627 C 62.7383 4.24575 0.540386 0
M  V30 628 C 62.0643 5.08126 1.6647 0
M  V30 629 C 63.3643 5.19722 -0.518331 0
M  V30 630 H 65.0583 2.93875 -0.572509 0
M  V30 631 H 62.6043 1.41315 -0.276768 0
M  V30 632 H 64.5573 3.86374 1.68204 0
M  V30 633 H 63.2813 2.64364 1.9178 0
M  V30 634 H 61.9403 3.66571 0.0461769 0
M  V30 635 H 61.5883 4.41762 2.40531 0
M  V30 636 H 61.2883 5.74122 1.25131 0
M  V30 637 H 62.8123 5.70246 2.18293 0
M  V30 638 H 64.2263 5.73232 -0.0883058 0
M  V30 639 H 62.6233 5.94026 -0.851679 0
M  V30 640 H 63.6933 4.64037 -1.40703 0
M  V30 641 N 65.0364 0.313813 1.54444 0
M  V30 642 C 65.9864 -0.571898 2.20711 0
M  V30 643 C 66.9704 -1.08913 1.18435 0
M  V30 644 O 68.1624 -1.02777 1.44104 0
M  V30 645 C 65.2914 -1.7371 2.96108 0
M  V30 646 C 64.3774 -1.23522 4.05713 0
M  V30 647 N 64.7684 -0.452288 5.03774 0
M  V30 648 C 63.0664 -1.51482 4.19487 0
M  V30 649 C 63.7674 -0.183438 5.81411 0
M  V30 650 N 62.7434 -0.766845 5.38164 0
M  V30 651 H 66.5454 0.0336802 2.93881 0
M  V30 652 H 64.0594 0.119192 1.61962 0
M  V30 653 H 66.0564 -2.38329 3.4206 0
M  V30 654 H 64.7164 -2.34625 2.24458 0
M  V30 655 H 65.7274 -0.0960131 5.17811 0
M  V30 656 H 62.4044 -2.13053 3.59047 0
M  V30 657 H 63.7944 0.446216 6.70417 0
M  V30 658 N 66.5145 -1.57545 0.0417849 0
M  V30 659 C 67.7625 -1.91937 -0.632829 0
M  V30 660 C 68.0835 -0.919978 -1.71934 0
M  V30 661 O 67.3535 0.0366064 -1.95866 0
M  V30 662 H 65.9335 -0.708493 -0.236742 0
M  V30 663 H 68.5955 -1.9468 0.0925745 0
M  V30 664 H 67.6915 -2.92912 -1.07746 0
M  V30 665 N 67.9926 0.231505 -1.5589 0
M  V30 666 C 68.9426 1.29007 -1.87993 0
M  V30 667 C 69.9266 1.42764 -0.742102 0
M  V30 668 O 71.1186 1.45747 -1.00433 0
M  V30 669 C 68.2476 2.6425 -2.1915 0
M  V30 670 C 67.3336 2.54435 -3.39299 0
M  V30 671 N 67.7246 2.14262 -4.58176 0
M  V30 672 C 66.0226 2.85416 -3.42715 0
M  V30 673 C 66.7236 2.15455 -5.40328 0
M  V30 674 N 65.6996 2.55558 -4.79783 0
M  V30 675 H 69.5016 0.970213 -2.77424 0
M  V30 676 H 67.0156 0.440097 -1.56323 0
M  V30 677 H 69.0126 3.40665 -2.40319 0
M  V30 678 H 67.6726 2.9709 -1.31025 0
M  V30 679 H 68.6836 1.85554 -4.83518 0
M  V30 680 H 65.3606 3.22693 -2.64906 0
M  V30 681 H 66.7506 1.86605 -6.45467 0
M  V30 682 N 69.4707 1.49531 0.497807 0
M  V30 683 C 70.8817 1.52344 1.07927 0
M  V30 684 C 71.2327 0.311469 1.93712 0
M  V30 685 O 70.3577 -0.578405 2.08527 0
M  V30 686 C 70.9527 2.76062 1.96405 0
M  V30 687 C 69.5117 2.81643 2.49709 0
M  V30 688 C 68.6587 2.46299 1.27404 0
M  V30 689 H 71.6097 1.56182 0.281576 0
M  V30 690 H 71.6307 2.56405 2.81135 0
M  V30 691 H 71.1427 3.64254 1.33943 0
M  V30 692 H 69.2437 1.97739 3.15801 0
M  V30 693 H 69.3567 3.83891 2.86643 0
M  V30 694 H 67.7207 1.98148 1.60029 0
M  V30 695 H 68.5037 3.36769 0.66645 0
M  V30 696 N 70.9488 -0.749086 1.3866 0
M  V30 697 C 72.3598 -1.32664 1.31366 0
M  V30 698 C 72.7108 -1.96179 -0.028484 0
M  V30 699 O 71.8358 -1.9537 -0.93057 0
M  V30 700 C 72.4308 -2.41219 2.37905 0
M  V30 701 C 70.9898 -2.94684 2.34176 0
M  V30 702 C 70.1368 -1.68108 2.20533 0
M  V30 703 H 73.0878 -0.547628 1.48952 0
M  V30 704 H 73.1088 -3.21268 2.0388 0
M  V30 705 H 72.6208 -1.94962 3.35576 0
M  V30 706 H 70.7218 -3.45258 1.401 0
M  V30 707 H 70.8348 -3.48757 3.2849 0
M  V30 708 H 69.1988 -1.91907 1.67463 0
M  V30 709 H 69.9818 -1.23923 3.20153 0
M  V30 710 N 72.4269 -1.23603 -0.977757 0
M  V30 711 C 73.8379 -1.06424 -1.53398 0
M  V30 712 C 74.1889 0.367578 -1.92726 0
M  V30 713 O 73.3139 1.25465 -1.76316 0
M  V30 714 C 73.9089 -1.92568 -2.78753 0
M  V30 715 C 72.4679 -1.79642 -3.30765 0
M  V30 716 C 71.6149 -1.88111 -2.03739 0
M  V30 717 H 74.5659 -1.37227 -0.797152 0
M  V30 718 H 74.5869 -1.45203 -3.51705 0
M  V30 719 H 74.0989 -2.96771 -2.50098 0
M  V30 720 H 72.1999 -0.782325 -3.64294 0
M  V30 721 H 72.3129 -2.63174 -4.00345 0
M  V30 722 H 70.6769 -1.31723 -2.17994 0
M  V30 723 H 71.4599 -2.93875 -1.77461 0
M  V30 724 N 73.905 1.17692 -1.04816 0
M  V30 725 C 75.13 1.92327 -0.776207 0
M  V30 726 C 75.555 1.76082 0.661581 0
M  V30 727 O 74.913 1.076 1.45917 0
M  V30 728 C 74.961 3.41539 -1.15687 0
M  V30 729 O 74.065 4.11402 -0.286775 0
M  V30 730 H 73.406 0.599735 -0.284981 0
M  V30 731 H 75.936 1.49201 -1.4 0
M  V30 732 H 75.946 3.92269 -1.12202 0
M  V30 733 H 74.621 3.52684 -2.20425 0
M  V30 734 H 73.198 3.70939 -0.381903 0
M  V30 735 N 75.3831 0.828654 1.34056 0
M  V30 736 C 76.6311 0.41863 1.97717 0
M  V30 737 C 76.9521 -1.02314 1.66002 0
M  V30 738 O 76.2221 -1.71119 0.953683 0
M  V30 739 H 74.8021 0.151809 0.731412 0
M  V30 740 H 77.4641 1.05936 1.63596 0
M  V30 741 H 76.5601 0.542318 3.07352 0
M  V30 742 N 76.8612 -1.46375 0.584142 0
M  V30 743 C 78.1012 -2.0427 0.0729695 0
M  V30 744 C 78.4652 -1.44563 -1.26355 0
M  V30 745 O 79.6662 -1.93667 -1.86405 0
M  V30 746 C 77.9372 -3.57399 0.00967464 0
M  V30 747 S 79.4962 -4.36551 -0.443714 0
M  V30 748 H 76.3142 -0.709975 0.0381673 0
M  V30 749 H 78.9162 -1.79398 0.776962 0
M  V30 750 H 77.6202 -3.98372 0.986319 0
M  V30 751 H 77.1512 -3.8681 -0.717044 0
M  V30 752 H 79.1662 -4.66237 -1.69816 0
M  V30 753 N 78.3393 -0.321999 -1.54275 0
M  V30 754 C 79.5643 0.285791 -2.05422 0
M  V30 755 C 79.9893 1.45124 -1.19669 0
M  V30 756 O 79.3473 1.80132 -0.205441 0
M  V30 757 C 79.3953 0.69956 -3.53749 0
M  V30 758 O 78.4993 1.8021 -3.70942 0
M  V30 759 H 77.8403 0.0518962 -0.661969 0
M  V30 760 H 80.3703 -0.469954 -1.9913 0
M  V30 761 H 80.3803 0.982649 -3.9599 0
M  V30 762 H 79.0553 -0.152864 -4.15619 0
M  V30 763 H 77.6323 1.51794 -3.40607 0
M  V30 764 N 79.8174 1.5752 -0.0501392 0
M  V30 765 C 81.0454 1.96963 0.633492 0
M  V30 766 C 81.4604 0.927631 1.6444 0
M  V30 767 O 80.8174 -0.0882665 1.82286 0
M  V30 768 C 80.8684 3.36487 1.32132 0
M  V30 769 O 80.5894 4.36693 0.350894 0
M  V30 770 C 82.0904 3.90682 2.09481 0
M  V30 771 H 79.3104 0.648244 0.173266 0
M  V30 772 H 81.8544 2.0417 -0.116134 0
M  V30 773 H 80.0094 3.30434 2.02218 0
M  V30 774 H 80.4234 5.17702 0.841735 0
M  V30 775 H 81.8974 4.90591 2.5303 0
M  V30 776 H 82.3744 3.26053 2.94255 0
M  V30 777 H 82.9804 4.00069 1.44307 0
M  V30 778 N 81.2955 -0.223234 1.56011 0
M  V30 779 C 82.7065 -0.790368 1.69145 0
M  V30 780 C 83.0575 -1.85055 0.651845 0
M  V30 781 O 82.1825 -2.15498 -0.197359 0
M  V30 782 C 82.7775 -1.4404 3.06656 0
M  V30 783 C 81.3365 -1.95494 3.2165 0
M  V30 784 C 80.4835 -0.814506 2.65068 0
M  V30 785 H 83.4345 0.00139011 1.587 0
M  V30 786 H 83.4555 -2.30916 3.0242 0
M  V30 787 H 82.9675 -0.668543 3.82298 0
M  V30 788 H 81.0685 -2.75487 2.50874 0
M  V30 789 H 81.1815 -2.13607 4.28846 0
M  V30 790 H 79.5455 -1.22137 2.23505 0
M  V30 791 H 80.3285 -0.0553515 3.43255 0
M  V30 792 N 82.7736 -1.49793 -0.48987 0
M  V30 793 C 83.9986 -1.63836 -1.27172 0
M  V30 794 C 84.4236 -0.31402 -1.8546 0
M  V30 795 O 83.7816 0.719803 -1.66399 0
M  V30 796 C 83.8296 -2.71797 -2.36978 0
M  V30 797 O 82.9336 -2.31744 -3.41128 0
M  V30 798 H 82.2746 -0.547997 -0.37496 0
M  V30 799 H 84.8046 -1.96053 -0.585191 0
M  V30 800 H 84.8146 -2.94305 -2.82575 0
M  V30 801 H 83.4896 -3.67923 -1.93921 0
M  V30 802 H 82.0666 -2.1961 -3.01373 0
M  V30 803 N 84.2517 0.741722 -1.39055 0
M  V30 804 C 85.6627 1.31966 -1.32068 0
M  V30 805 C 86.0137 1.96192 0.0180797 0
M  V30 806 O 85.1387 1.95861 0.920196 0
M  V30 807 C 85.7337 2.39954 -2.39181 0
M  V30 808 C 84.2927 2.93438 -2.35735 0
M  V30 809 C 83.4397 1.66936 -2.21422 0
M  V30 810 H 86.3907 0.539721 -1.4924 0
M  V30 811 H 86.4117 3.20182 -2.05581 0
M  V30 812 H 85.9237 1.9318 -3.36605 0
M  V30 813 H 84.0247 3.4451 -1.41929 0
M  V30 814 H 84.1377 3.4701 -3.30335 0
M  V30 815 H 82.5017 1.91016 -1.68478 0
M  V30 816 H 83.2847 1.22224 -3.20806 0
M  V30 817 N 85.7298 1.2412 0.971189 0
M  V30 818 C 86.6928 1.03156 2.04674 0
M  V30 819 C 87.6928 -0.00990322 1.60797 0
M  V30 820 O 88.8828 0.230729 1.72665 0
M  V30 821 C 86.0148 0.562765 3.36223 0
M  V30 822 H 87.2078 1.98614 2.24705 0
M  V30 823 H 84.7608 1.06293 1.14593 0
M  V30 824 H 85.4958 -0.395176 3.21883 0
M  V30 825 H 85.2808 1.31441 3.69413 0
M  V30 826 H 86.7708 0.437015 4.15307 0
M  V30 827 N 87.2079 -1.17134 1.05439 0
M  V30 828 C 88.4359 -1.91372 0.786414 0
M  V30 829 C 88.8509 -1.76955 -0.658202 0
M  V30 830 O 88.2079 -1.10838 -1.44987 0
M  V30 831 C 88.2589 -3.42356 1.1608 0
M  V30 832 O 87.9799 -3.56332 2.54871 0
M  V30 833 C 89.4809 -4.33663 0.919322 0
M  V30 834 H 86.7009 -0.607118 0.285743 0
M  V30 835 H 89.2449 -1.48525 1.40572 0
M  V30 836 H 87.3999 -3.82939 0.586191 0
M  V30 837 H 87.8139 -4.49896 2.69618 0
M  V30 838 H 89.2879 -5.38099 1.231 0
M  V30 839 H 89.7649 -4.38959 -0.145359 0
M  V30 840 H 90.3709 -3.98796 1.47789 0
M  V30 841 N 88.686 -0.835752 -1.33615 0
M  V30 842 C 89.935 -0.426289 -1.97144 0
M  V30 843 C 90.248 1.01912 -1.66953 0
M  V30 844 O 91.454 1.53311 -2.24072 0
M  V30 845 C 89.91 -0.711321 -3.52801 0
M  V30 846 C 89.518 -2.1712 -3.91871 0
M  V30 847 C 91.262 -0.368654 -4.22896 0
M  V30 848 C 89.169 -2.40044 -5.40493 0
M  V30 849 H 88.099 -0.15567 -0.737755 0
M  V30 850 H 90.75 -1.0239 -1.52278 0
M  V30 851 H 89.132 -0.0433766 -3.95976 0
M  V30 852 H 90.306 -2.87936 -3.59763 0
M  V30 853 H 88.621 -2.47654 -3.34749 0
M  V30 854 H 91.218 -0.517601 -5.32189 0
M  V30 855 H 91.561 0.688078 -4.10574 0
M  V30 856 H 92.094 -0.991702 -3.8524 0
M  V30 857 H 88.833 -3.44271 -5.57815 0
M  V30 858 H 88.353 -1.73785 -5.74072 0
M  V30 859 H 90.032 -2.23042 -6.0734 0
M  V30 860 N 90.1641 1.46063 -0.591896 0
M  V30 861 C 91.0741 2.34192 0.13831 0
M  V30 862 C 92.0901 1.50305 0.876608 0
M  V30 863 O 93.2661 1.8315 0.837728 0
M  V30 864 C 90.3311 3.27656 1.13326 0
M  V30 865 C 89.3921 4.27445 0.39863 0
M  V30 866 C 88.6251 5.16443 1.34618 0
M  V30 867 O 88.8481 5.08553 2.58321 0
M  V30 868 O 87.7821 5.95843 0.851768 0
M  V30 869 H 91.6081 2.98002 -0.58552 0
M  V30 870 H 89.1931 1.45188 -0.352239 0
M  V30 871 H 91.0751 3.85291 1.70671 0
M  V30 872 H 89.7501 2.6643 1.83839 0
M  V30 873 H 88.6571 3.73471 -0.216895 0
M  V30 874 H 89.9901 4.91482 -0.265709 0
M  V30 875 N 91.6422 0.330177 1.54103 0
M  V30 876 C 92.8702 -0.272179 2.05102 0
M  V30 877 C 93.2852 -1.45267 1.20595 0
M  V30 878 O 92.6422 -1.8094 0.238144 0
M  V30 879 C 92.6932 -0.70023 3.54653 0
M  V30 880 O 92.4142 0.433301 4.35952 0
M  V30 881 C 93.9152 -1.3647 4.21771 0
M  V30 882 H 91.1352 -0.0549159 0.668749 0
M  V30 883 H 93.6792 0.478285 1.98828 0
M  V30 884 H 91.8342 -1.40066 3.61193 0
M  V30 885 H 92.2482 0.0947539 5.24414 0
M  V30 886 H 93.7222 -1.61509 5.27843 0
M  V30 887 H 94.1992 -2.31409 3.73292 0
M  V30 888 H 94.8052 -0.706675 4.19388 0
M  V30 889 N 93.1203 -1.57491 0.0584922 0
M  V30 890 C 94.0523 -2.08916 -0.942694 0
M  V30 891 C 95.0653 -1.0185 -1.27006 0
M  V30 892 O 96.2543 -1.29398 -1.22957 0
M  V30 893 C 93.3543 -2.52341 -2.26224 0
M  V30 894 C 92.5273 -3.82827 -2.1157 0
M  V30 895 C 91.5863 -4.12487 -3.26712 0
M  V30 896 O 90.6123 -4.82295 -3.02292 0
M  V30 897 N 91.8143 -3.64978 -4.5141 0
M  V30 898 H 94.5793 -2.95437 -0.503722 0
M  V30 899 H 92.1403 -1.61397 -0.12757 0
M  V30 900 H 94.1323 -2.69254 -3.02133 0
M  V30 901 H 92.7023 -1.7103 -2.61663 0
M  V30 902 H 91.9223 -3.75425 -1.20208 0
M  V30 903 H 93.2103 -4.68263 -1.99015 0
M  V30 904 H 92.6083 -3.08558 -4.7414 0
M  V30 905 H 91.1653 -3.87115 -5.2439 0
M  V30 906 N 94.5984 0.214957 -1.56127 0
M  V30 907 C 95.8234 0.95924 -1.83884 0
M  V30 908 C 96.2484 1.7689 -0.639644 0
M  V30 909 O 95.6064 1.76566 0.411601 0
M  V30 910 C 95.6544 1.84723 -3.09693 0
M  V30 911 O 94.7584 2.94346 -2.8885 0
M  V30 912 H 94.0994 0.27125 -0.606069 0
M  V30 913 H 96.6294 0.226276 -2.03345 0
M  V30 914 H 96.6394 2.25576 -3.39969 0
M  V30 915 H 95.3144 1.25218 -3.96602 0
M  V30 916 H 93.8914 2.57391 -2.69823 0
M  V30 917 N 96.0765 1.50051 0.48192 0
M  V30 918 C 97.3045 1.64237 1.25832 0
M  V30 919 C 97.7195 0.321336 1.86045 0
M  V30 920 O 97.0765 -0.695478 1.68729 0
M  V30 921 C 97.1275 2.72548 2.37487 0
M  V30 922 O 96.8485 3.99529 1.79745 0
M  V30 923 C 98.3495 2.9761 3.28547 0
M  V30 924 H 95.5695 0.55237 0.380957 0
M  V30 925 H 98.1135 1.96207 0.576467 0
M  V30 926 H 96.2685 2.43303 3.01467 0
M  V30 927 H 96.6825 4.59342 2.5319 0
M  V30 928 H 98.1565 3.77084 4.03127 0
M  V30 929 H 98.6335 2.0826 3.86684 0
M  V30 930 H 99.2395 3.28345 2.70314 0
M  V30 931 N 97.5546 -0.734337 1.39446 0
M  V30 932 C 98.7796 -1.52866 1.40167 0
M  V30 933 C 99.2046 -1.881 -0.00171513 0
M  V30 934 O 98.5626 -1.51957 -0.988879 0
M  V30 935 C 98.6106 -2.79235 2.28167 0
M  V30 936 O 97.7146 -3.75185 1.71201 0
M  V30 937 H 97.0556 -0.461618 0.477289 0
M  V30 938 H 99.5856 -0.905949 1.8345 0
M  V30 939 H 99.5956 -3.27963 2.42702 0
M  V30 940 H 98.2706 -2.52923 3.30156 0
M  V30 941 H 96.8476 -3.33958 1.65912 0
M  V30 942 N 99.0327 -1.24633 -0.964593 0
M  V30 943 C 100.258 -1.11596 -1.74818 0
M  V30 944 C 100.683 0.32723 -1.85232 0
M  V30 945 O 100.041 1.23695 -1.32549 0
M  V30 946 C 100.089 -1.76397 -3.1451 0
M  V30 947 O 99.1927 -1.03685 -3.99153 0
M  V30 948 H 98.5337 -0.390196 -0.537255 0
M  V30 949 H 101.064 -1.65002 -1.20977 0
M  V30 950 H 101.074 -1.8228 -3.65018 0
M  V30 951 H 99.7487 -2.81401 -3.06246 0
M  V30 952 H 98.3257 -1.05611 -3.57632 0
M  V30 953 N 100.511 1.16574 -1.06058 0
M  V30 954 C 101.421 2.2452 -0.680282 0
M  V30 955 C 102.437 1.71348 0.302604 0
M  V30 956 O 103.613 2.00822 0.152513 0
M  V30 957 C 100.678 3.46629 -0.0700315 0
M  V30 958 C 99.7388 4.14849 -1.10448 0
M  V30 959 C 98.9718 5.31129 -0.523256 0
M  V30 960 O 99.1948 5.66514 0.664709 0
M  V30 961 O 98.1288 5.88526 -1.26179 0
M  V30 962 H 101.955 2.59355 -1.58015 0
M  V30 963 H 99.5398 1.24043 -0.832694 0
M  V30 964 H 101.422 4.20543 0.268667 0
M  V30 965 H 100.097 3.13573 0.803353 0
M  V30 966 H 99.0038 3.42916 -1.49532 0
M  V30 967 H 100.337 4.51954 -1.94931 0
M  V30 968 N 101.989 0.842826 1.3317 0
M  V30 969 C 102.899 0.281444 2.32906 0
M  V30 970 C 103.915 -0.594587 1.63526 0
M  V30 971 O 105.091 -0.49777 1.95152 0
M  V30 972 C 102.156 -0.530929 3.42611 0
M  V30 973 C 101.217 0.369843 4.27704 0
M  V30 974 C 100.45 -0.403853 5.3217 0
M  V30 975 O 100.673 -1.63513 5.46461 0
M  V30 976 O 99.6069 0.224199 6.01482 0
M  V30 977 H 103.433 1.10744 2.82789 0
M  V30 978 H 101.018 0.60545 1.36582 0
M  V30 979 H 102.9 -0.992437 4.09547 0
M  V30 980 H 101.575 -1.33392 2.94938 0
M  V30 981 H 100.482 0.879275 3.6362 0
M  V30 982 H 101.815 1.13771 4.78871 0
M  V30 983 N 103.467 -1.45747 0.599634 0
M  V30 984 C 104.397 -2.33235 -0.111306 0
M  V30 985 C 105.378 -1.46359 -0.866781 0
M  V30 986 O 106.563 -1.75146 -0.838904 0
M  V30 987 C 103.693 -3.28932 -1.11451 0
M  V30 988 C 102.647 -4.25381 -0.472772 0
M  V30 989 C 101.973 -5.1071 -1.58365 0
M  V30 990 C 103.273 -5.18831 0.600948 0
M  V30 991 H 104.967 -2.92927 0.61919 0
M  V30 992 H 102.513 -1.40857 0.299215 0
M  V30 993 H 104.466 -3.89002 -1.62036 0
M  V30 994 H 103.19 -2.67381 -1.8755 0
M  V30 995 H 101.849 -3.66598 0.0121472 0
M  V30 996 H 101.497 -4.45533 -2.33473 0
M  V30 997 H 101.197 -5.7604 -1.15982 0
M  V30 998 H 102.721 -5.73647 -2.09194 0
M  V30 999 H 104.135 -5.73019 0.179491 0
M  V30 1000 H 102.532 -5.92595 0.946076 0
M  V30 1001 H 103.602 -4.6174 1.48068 0
M  V30 1002 N 104.945 -0.338344 -1.53925 0
M  V30 1003 C 106.191 0.260143 -2.01125 0
M  V30 1004 C 106.524 1.50617 -1.22589 0
M  V30 1005 O 105.799 1.91979 -0.312113 0
M  V30 1006 C 106.082 0.579499 -3.55407 0
M  V30 1007 C 105.935 -0.678264 -4.44657 0
M  V30 1008 C 107.254 1.39122 -4.17532 0
M  V30 1009 H 104.373 0.0930772 -0.731099 0
M  V30 1010 H 107.015 -0.457852 -1.84401 0
M  V30 1011 H 105.165 1.19118 -3.69788 0
M  V30 1012 H 106.837 -1.31631 -4.42121 0
M  V30 1013 H 105.08 -1.3042 -4.13731 0
M  V30 1014 H 105.751 -0.410143 -5.50474 0
M  V30 1015 H 108.227 0.874035 -4.06817 0
M  V30 1016 H 107.103 1.58342 -5.25565 0
M  V30 1017 H 107.364 2.39178 -3.71815 0
M  V30 1018 N 106.423 1.57458 -0.0668435 0
M  V30 1019 C 107.834 1.80776 0.466558 0
M  V30 1020 C 108.185 0.980361 1.69951 0
M  V30 1021 O 107.31 0.201441 2.1546 0
M  V30 1022 C 107.905 3.27881 0.85321 0
M  V30 1023 C 106.464 3.52062 1.3315 0
M  V30 1024 C 105.611 2.75513 0.314264 0
M  V30 1025 H 108.562 1.5598 -0.292588 0
M  V30 1026 H 108.583 3.39659 1.715 0
M  V30 1027 H 108.095 3.88075 -0.0443439 0
M  V30 1028 H 106.196 2.97167 2.24772 0
M  V30 1029 H 106.309 4.60762 1.31285 0
M  V30 1030 H 104.673 2.42123 0.790492 0
M  V30 1031 H 105.456 3.38442 -0.575477 0
M  V30 1032 N 107.901 -0.206675 1.56239 0
M  V30 1033 C 109.126 -0.949474 1.8439 0
M  V30 1034 C 109.551 -1.76549 0.649016 0
M  V30 1035 O 108.909 -1.76782 -0.402231 0
M  V30 1036 C 108.957 -1.83078 3.10668 0
M  V30 1037 O 108.061 -2.9281 2.90407 0
M  V30 1038 H 107.402 -0.268033 0.607499 0
M  V30 1039 H 109.932 -0.215488 2.03462 0
M  V30 1040 H 109.942 -2.2377 3.41161 0
M  V30 1041 H 108.617 -1.23112 3.97261 0
M  V30 1042 H 107.194 -2.55956 2.71184 0
M  V30 1043 N 109.379 -1.50304 -0.473955 0
M  V30 1044 C 110.79 -1.54042 -1.0549 0
M  V30 1045 C 111.141 -0.342248 -1.93192 0
M  V30 1046 O 110.266 0.545157 -2.09421 0
M  V30 1047 C 110.861 -2.79152 -1.91989 0
M  V30 1048 C 109.42 -2.8558 -2.45196 0
M  V30 1049 C 108.567 -2.48295 -1.2347 0
M  V30 1050 H 111.518 -1.5661 -0.256693 0
M  V30 1051 H 111.539 -2.60845 -2.7702 0
M  V30 1052 H 111.051 -3.66339 -1.28131 0
M  V30 1053 H 109.152 -2.02738 -3.12615 0
M  V30 1054 H 109.265 -3.88403 -2.80499 0
M  V30 1055 H 107.629 -2.00669 -1.56856 0
M  V30 1056 H 108.412 -3.37787 -0.612789 0
M  V30 1057 N 110.857 0.726932 -1.39834 0
M  V30 1058 C 112.268 1.30558 -1.3346 0
M  V30 1059 C 112.619 1.962 -0.00273003 0
M  V30 1060 O 111.744 1.96826 0.899371 0
M  V30 1061 C 112.339 2.37404 -2.41713 0
M  V30 1062 C 110.898 2.90921 -2.38835 0
M  V30 1063 C 110.045 1.64578 -2.2318 0
M  V30 1064 H 112.996 0.523862 -1.49804 0
M  V30 1065 H 113.017 3.17984 -2.08966 0
M  V30 1066 H 112.529 1.89599 -3.38635 0
M  V30 1067 H 110.63 3.42985 -1.45575 0
M  V30 1068 H 110.743 3.43487 -3.33997 0
M  V30 1069 H 109.107 1.89219 -1.70494 0
M  V30 1070 H 109.89 1.18814 -3.22084 0
M  V30 1071 N 112.336 1.25143 0.95797 0
M  V30 1072 C 113.561 1.12521 1.74223 0
M  V30 1073 C 113.986 -0.317402 1.85403 0
M  V30 1074 O 113.344 -1.2299 1.33204 0
M  V30 1075 C 113.392 1.78062 3.1357 0
M  V30 1076 O 112.496 1.058 3.98598 0
M  V30 1077 H 111.837 0.39304 0.535178 0
M  V30 1078 H 114.367 1.65641 1.201 0
M  V30 1079 H 114.377 1.84213 3.64046 0
M  V30 1080 H 113.052 2.83021 3.04749 0
M  V30 1081 H 111.629 1.07506 3.57067 0
M  V30 1082 N 113.814 -1.1601 1.06675 0
M  V30 1083 C 115.225 -1.68235 0.809565 0
M  V30 1084 C 115.576 -1.8454 -0.666303 0
M  V30 1085 O 114.701 -1.54374 -1.5165 0
M  V30 1086 C 115.296 -3.05585 1.46299 0
M  V30 1087 C 113.855 -3.54915 1.25349 0
M  V30 1088 C 113.002 -2.30804 1.53703 0
M  V30 1089 H 115.953 -1.00318 1.22971 0
M  V30 1090 H 115.974 -3.70174 0.880431 0
M  V30 1091 H 115.486 -2.93686 2.53713 0
M  V30 1092 H 113.587 -3.72067 0.199261 0
M  V30 1093 H 113.7 -4.36774 1.9689 0
M  V30 1094 H 112.064 -2.36007 0.957739 0
M  V30 1095 H 112.847 -2.21499 2.62284 0
M  V30 1096 N 115.292 -0.849877 -1.32721 0
M  V30 1097 C 116.222 -0.306308 -2.31482 0
M  V30 1098 C 117.203 0.591952 -1.59468 0
M  V30 1099 O 118.388 0.513199 -1.87296 0
M  V30 1100 C 115.518 0.510204 -3.43532 0
M  V30 1101 C 114.472 -0.293209 -4.26994 0
M  V30 1102 C 113.798 0.647743 -5.30762 0
M  V30 1103 C 115.098 -1.51634 -4.99804 0
M  V30 1104 H 116.792 -1.13153 -2.77195 0
M  V30 1105 H 114.338 -0.545553 -1.33266 0
M  V30 1106 H 116.291 0.900856 -4.11658 0
M  V30 1107 H 115.015 1.36874 -2.96535 0
M  V30 1108 H 113.674 -0.665555 -3.60508 0
M  V30 1109 H 113.322 1.50299 -4.8002 0
M  V30 1110 H 113.022 0.11422 -5.87489 0
M  V30 1111 H 114.546 1.03567 -6.01753 0
M  V30 1112 H 115.96 -1.19824 -5.60638 0
M  V30 1113 H 114.357 -1.98745 -5.66234 0
M  V30 1114 H 115.427 -2.28018 -4.27943 0
M  V30 1115 N 116.77 1.45427 -0.607355 0
M  V30 1116 C 118.181 1.85756 -0.187535 0
M  V30 1117 C 118.532 1.5077 1.25551 0
M  V30 1118 O 117.657 0.93427 1.95193 0
M  V30 1119 C 118.252 3.37154 -0.333572 0
M  V30 1120 C 116.811 3.76387 0.0315542 0
M  V30 1121 C 115.958 2.69377 -0.658117 0
M  V30 1122 H 118.909 1.36231 -0.81405 0
M  V30 1123 H 118.93 3.78014 0.43428 0
M  V30 1124 H 118.442 3.62586 -1.38393 0
M  V30 1125 H 116.543 3.56571 1.0811 0
M  V30 1126 H 116.656 4.77731 -0.361935 0
M  V30 1127 H 115.02 2.5452 -0.0957873 0
M  V30 1128 H 115.803 2.97646 -1.7106 0
M  V30 1129 N 118.248 0.346503 1.53744 0
M  V30 1130 C 119.659 -0.136779 1.86198 0
M  V30 1131 C 120.01 -1.49749 1.26766 0
M  V30 1132 O 119.135 -2.08417 0.582355 0
M  V30 1133 C 119.73 -0.254966 3.37839 0
M  V30 1134 C 118.289 -0.682482 3.70161 0
M  V30 1135 C 117.436 0.181981 2.76702 0
M  V30 1136 H 120.387 0.565994 1.48264 0
M  V30 1137 H 120.408 -1.08195 3.64793 0
M  V30 1138 H 119.92 0.735526 3.81066 0
M  V30 1139 H 118.021 -1.68189 3.3248 0
M  V30 1140 H 118.134 -0.470326 4.76786 0
M  V30 1141 H 116.498 -0.34615 2.52337 0
M  V30 1142 H 117.281 1.16966 3.2276 0
M  V30 1143 N 119.726 -1.57421 0.075193 0
M  V30 1144 C 121.137 -1.81021 -0.456964 0
M  V30 1145 C 121.488 -0.98936 -1.69429 0
M  V30 1146 O 120.613 -0.212865 -2.15351 0
M  V30 1147 C 121.208 -3.28329 -0.83581 0
M  V30 1148 C 119.767 -3.52764 -1.31281 0
M  V30 1149 C 118.914 -2.75676 -0.299648 0
M  V30 1150 H 121.865 -1.55822 0.300856 0
M  V30 1151 H 121.886 -3.40564 -1.69696 0
M  V30 1152 H 121.398 -3.88046 0.0649238 0
M  V30 1153 H 119.499 -2.98355 -2.23193 0
M  V30 1154 H 119.612 -4.61451 -1.28839 0
M  V30 1155 H 117.976 -2.42538 -0.777641 0
M  V30 1156 H 118.759 -3.38132 0.593417 0
M  V30 1157 N 121.204 0.198386 -1.56346 0
M  V30 1158 C 122.62 0.549085 -1.49857 0
M  V30 1159 C 122.82 1.86016 -0.774611 0
M  V30 1160 O 121.876 2.50416 -0.323776 0
M  V30 1161 C 123.189 0.606868 -2.94512 0
M  V30 1162 C 124.737 0.695925 -3.05165 0
M  V30 1163 C 125.212 0.784848 -4.51225 0
M  V30 1164 N 126.703 0.848463 -4.55363 0
M  V30 1165 C 127.438 0.937378 -5.65686 0
M  V30 1166 N 126.934 0.9888 -6.85707 0
M  V30 1167 N 128.727 0.974312 -5.53592 0
M  V30 1168 H 120.878 -0.661655 -2.01831 0
M  V30 1169 H 123.141 -0.235261 -0.918344 0
M  V30 1170 H 122.847 -0.28732 -3.50524 0
M  V30 1171 H 122.721 1.46268 -3.47686 0
M  V30 1172 H 125.108 1.58055 -2.49204 0
M  V30 1173 H 125.189 -0.186022 -2.55123 0
M  V30 1174 H 124.833 -0.0954072 -5.0781 0
M  V30 1175 H 124.763 1.68255 -4.98997 0
M  V30 1176 H 127.254 0.818103 -3.68938 0
M  V30 1177 H 127.567 1.05707 -7.65536 0
M  V30 1178 H 125.912 0.957534 -6.88372 0
M  V30 1179 H 129.103 0.930954 -4.58749 0
M  V30 1180 H 129.276 1.04015 -6.39597 0
M  V30 1181 N 122.682 1.50554 0.465978 0
M  V30 1182 C 123.928 1.62038 1.21949 0
M  V30 1183 C 124.261 0.322116 1.9151 0
M  V30 1184 O 123.536 -0.676723 1.82348 0
M  V30 1185 C 123.819 2.80421 2.25912 0
M  V30 1186 C 123.672 4.20144 1.60622 0
M  V30 1187 C 124.991 2.94354 3.27176 0
M  V30 1188 H 122.11 0.589752 0.441998 0
M  V30 1189 H 124.752 1.82956 0.51257 0
M  V30 1190 H 122.902 2.62717 2.86203 0
M  V30 1191 H 124.574 4.49449 1.03889 0
M  V30 1192 H 122.817 4.24165 0.909211 0
M  V30 1193 H 123.488 4.98914 2.36196 0
M  V30 1194 H 125.964 3.10578 2.76913 0
M  V30 1195 H 124.84 3.788 3.97242 0
M  V30 1196 H 125.101 2.05186 3.916 0
M  V30 1197 N 124.16 -0.719506 1.40217 0
M  V30 1198 C 125.39 -1.50646 1.41384 0
M  V30 1199 C 125.798 -1.89197 0.0107743 0
M  V30 1200 O 125.141 -1.55709 -0.974708 0
M  V30 1201 C 125.203 -2.81405 2.23722 0
M  V30 1202 C 124.867 -2.65199 3.72181 0
M  V30 1203 C 125.864 -2.32717 4.64907 0
M  V30 1204 C 123.549 -2.81586 4.1595 0
M  V30 1205 C 125.543 -2.16827 5.99387 0
M  V30 1206 C 123.23 -2.65313 5.50502 0
M  V30 1207 C 124.228 -2.32981 6.42035 0
M  V30 1208 O 123.916 -2.16827 7.74107 0
M  V30 1209 H 123.648 -0.471606 0.484318 0
M  V30 1210 H 126.202 -0.895456 1.84853 0
M  V30 1211 H 124.432 -3.44823 1.75026 0
M  V30 1212 H 126.121 -3.43102 2.16878 0
M  V30 1213 H 126.887 -2.19694 4.32388 0
M  V30 1214 H 122.766 -3.0574 3.45027 0
M  V30 1215 H 126.31 -1.91513 6.70797 0
M  V30 1216 H 122.207 -2.7792 5.82607 0
M  V30 1217 H 122.975 -2.31778 7.84998 0
M  V30 1218 N 125.638 -1.25649 -0.95132 0
M  V30 1219 C 126.585 -1.06323 -2.04851 0
M  V30 1220 C 127.555 0.0286491 -1.66075 0
M  V30 1221 O 128.74 -0.12917 -1.90362 0
M  V30 1222 C 125.88 -0.691529 -3.381 0
M  V30 1223 C 124.993 -1.85861 -3.89974 0
M  V30 1224 C 124.128 -1.43096 -5.11563 0
M  V30 1225 C 123.167 -2.56696 -5.55674 0
M  V30 1226 N 122.304 -2.14684 -6.68472 0
M  V30 1227 H 127.144 -2.00222 -2.20715 0
M  V30 1228 H 124.681 -0.997027 -1.08156 0
M  V30 1229 H 126.639 -0.456963 -4.1469 0
M  V30 1230 H 125.269 0.210474 -3.22113 0
M  V30 1231 H 124.321 -2.20639 -3.09875 0
M  V30 1232 H 125.633 -2.71161 -4.18657 0
M  V30 1233 H 124.787 -1.15624 -5.9558 0
M  V30 1234 H 123.526 -0.548722 -4.84603 0
M  V30 1235 H 122.531 -2.84909 -4.7022 0
M  V30 1236 H 123.756 -3.45503 -5.8464 0
M  V30 1237 H 121.702 -1.28881 -6.43215 0
M  V30 1238 H 121.619 -2.9353 -6.96689 0
M  V30 1239 H 122.887 -1.90397 -7.5589 0
M  V30 1240 N 127.117 1.15442 -1.07289 0
M  V30 1241 C 128.528 1.67803 -0.818475 0
M  V30 1242 C 128.879 1.8489 0.656507 0
M  V30 1243 O 128.004 1.55176 1.50829 0
M  V30 1244 C 128.599 3.04805 -1.47917 0
M  V30 1245 C 127.158 3.54245 -1.27229 0
M  V30 1246 C 126.305 2.29986 -1.54925 0
M  V30 1247 H 129.256 0.996646 -1.23502 0
M  V30 1248 H 129.277 3.69702 -0.90005 0
M  V30 1249 H 128.789 2.92336 -2.55267 0
M  V30 1250 H 126.89 3.71956 -0.21899 0
M  V30 1251 H 127.003 4.35723 -1.99203 0
M  V30 1252 H 125.367 2.35496 -0.970242 0
M  V30 1253 H 126.15 2.20105 -2.63455 0
M  V30 1254 N 128.595 0.856903 1.32268 0
M  V30 1255 C 129.835 0.467705 1.98977 0
M  V30 1256 C 130.199 -0.959231 1.66321 0
M  V30 1257 O 131.4 -1.4531 2.26138 0
M  V30 1258 C 129.671 0.70256 3.50427 0
M  V30 1259 S 131.23 0.411269 4.36868 0
M  V30 1260 H 128.048 0.175121 0.689096 0
M  V30 1261 H 130.65 1.1101 1.60925 0
M  V30 1262 H 129.354 1.74012 3.71683 0
M  V30 1263 H 128.885 0.0466707 3.93372 0
M  V30 1264 H 130.9 -0.761799 4.90317 0
M  V30 1265 N 130.073 -1.45103 0.615059 0
M  V30 1266 C 131.32 -2.02183 0.113179 0
M  V30 1267 C 131.648 -1.48249 -1.25906 0
M  V30 1268 O 130.903 -0.650265 -1.84581 0
M  V30 1269 C 131.202 -3.57386 0.0318797 0
M  V30 1270 C 130.868 -4.30505 1.34077 0
M  V30 1271 C 129.53 -4.50197 1.69929 0
M  V30 1272 C 131.882 -4.72238 2.20546 0
M  V30 1273 C 129.21 -5.08881 2.91988 0
M  V30 1274 C 131.562 -5.32272 3.41861 0
M  V30 1275 C 130.226 -5.50187 3.77956 0
M  V30 1276 H 129.496 -0.739842 0.0414151 0
M  V30 1277 H 132.143 -1.74073 0.798168 0
M  V30 1278 H 130.448 -3.84817 -0.736409 0
M  V30 1279 H 132.145 -3.99264 -0.372712 0
M  V30 1280 H 128.735 -4.15496 1.05173 0
M  V30 1281 H 132.919 -4.56751 1.94146 0
M  V30 1282 H 128.175 -5.20939 3.2005 0
M  V30 1283 H 132.349 -5.63563 4.09109 0
M  V30 1284 H 129.976 -5.95427 4.72622 0
M  V30 1285 N 131.551 -0.354651 -1.53558 0
M  V30 1286 C 132.797 0.238797 -2.01389 0
M  V30 1287 C 133.13 1.49309 -1.2418 0
M  V30 1288 O 132.405 1.91638 -0.332457 0
M  V30 1289 C 132.688 0.541771 -3.56001 0
M  V30 1290 C 132.541 -0.725388 -4.43912 0
M  V30 1291 C 133.86 1.34685 -4.18984 0
M  V30 1292 H 130.979 0.0853177 -0.732045 0
M  V30 1293 H 133.621 -0.477384 -1.83905 0
M  V30 1294 H 131.771 1.15189 -3.71031 0
M  V30 1295 H 133.443 -1.36313 -4.407 0
M  V30 1296 H 131.686 -1.34801 -4.12324 0
M  V30 1297 H 132.357 -0.468505 -5.50008 0
M  V30 1298 H 134.833 0.830837 -4.07721 0
M  V30 1299 H 133.709 1.52759 -5.27215 0
M  V30 1300 H 133.97 2.35221 -3.74331 0
M  V30 1301 N 133.029 1.57378 -0.0835403 0
M  V30 1302 C 134.269 1.95808 0.586381 0
M  V30 1303 C 134.633 0.963706 1.66062 0
M  V30 1304 O 135.834 1.23608 2.38693 0
M  V30 1305 C 134.105 3.38808 1.13771 0
M  V30 1306 S 135.664 3.99225 1.82112 0
M  V30 1307 H 132.482 0.684675 0.191679 0
M  V30 1308 H 135.084 1.94843 -0.160194 0
M  V30 1309 H 133.788 4.08954 0.344197 0
M  V30 1310 H 133.319 3.43344 1.92038 0
M  V30 1311 H 135.334 3.87087 3.10449 0
M  V30 1312 N 134.507 -0.190092 1.56449 0
M  V30 1313 C 135.439 -1.25973 1.91477 0
M  V30 1314 C 136.452 -1.41452 0.805931 0
M  V30 1315 O 137.641 -1.41789 1.08435 0
M  V30 1316 C 134.741 -2.63117 2.13594 0
M  V30 1317 C 133.914 -2.69182 3.4476 0
M  V30 1318 C 132.973 -3.87557 3.5593 0
M  V30 1319 O 131.999 -3.74427 4.28711 0
M  V30 1320 N 133.201 -5.03224 2.89388 0
M  V30 1321 H 135.966 -0.962394 2.83828 0
M  V30 1322 H 133.527 -0.379981 1.57378 0
M  V30 1323 H 135.519 -3.40742 2.1835 0
M  V30 1324 H 134.089 -2.85319 1.27719 0
M  V30 1325 H 133.309 -1.77793 3.51828 0
M  V30 1326 H 134.597 -2.70229 4.31107 0
M  V30 1327 H 133.995 -5.16791 2.30094 0
M  V30 1328 H 132.552 -5.78778 2.99764 0
M  V30 1329 N 135.985 -1.50799 -0.457987 0
M  V30 1330 C 137.262 -1.52968 -1.21902 0
M  V30 1331 C 137.642 -0.281906 -2.09209 0
M  V30 1332 O 136.99 0.734076 -2.16388 0
M  V30 1333 C 137.2 -2.8326 -2.03875 0
M  V30 1334 C 138.548 -3.34425 -2.6162 0
M  V30 1335 O 139.572 -2.8467 -2.14106 0
M  V30 1336 O 138.431 -4.21188 -3.48228 0
M  V30 1337 H 135.525 -0.614129 -0.553873 0
M  V30 1338 H 138.071 -1.63098 -0.468739 0
M  V30 1339 H 136.843 -3.65543 -1.39621 0
M  V30 1340 H 136.466 -2.76195 -2.8601 0
M  V30 1341 N 137.463 0.71206 -1.40597 0
M  V30 1342 C 138.41 1.82613 -1.41142 0
M  V30 1343 C 139.38 1.63925 -0.267903 0
M  V30 1344 O 140.565 1.85009 -0.466495 0
M  V30 1345 C 137.705 3.20354 -1.28324 0
M  V30 1346 C 136.818 3.50589 -2.52411 0
M  V30 1347 C 135.953 4.77855 -2.32009 0
M  V30 1348 C 134.992 5.01005 -3.51654 0
M  V30 1349 N 134.129 6.19487 -3.30425 0
M  V30 1350 H 138.969 1.81482 -2.36365 0
M  V30 1351 H 136.506 0.886475 -1.17388 0
M  V30 1352 H 138.464 3.99899 -1.18899 0
M  V30 1353 H 137.094 3.20705 -0.367189 0
M  V30 1354 H 136.146 2.65573 -2.72351 0
M  V30 1355 H 137.458 3.63604 -3.41458 0
M  V30 1356 H 136.612 5.65424 -2.19956 0
M  V30 1357 H 135.351 4.67056 -1.40392 0
M  V30 1358 H 134.356 4.1189 -3.64179 0
M  V30 1359 H 135.581 5.13674 -4.44202 0
M  V30 1360 H 133.527 6.09932 -2.41494 0
M  V30 1361 H 133.444 6.33194 -4.13039 0
M  V30 1362 H 134.712 7.09834 -3.22113 0
M  V30 1363 N 138.941 1.26152 0.944643 0
M  V30 1364 C 140.166 1.14363 1.7302 0
M  V30 1365 C 140.591 -0.29772 1.85729 0
M  V30 1366 O 139.949 -1.2157 1.34501 0
M  V30 1367 C 139.997 1.81378 3.11664 0
M  V30 1368 O 139.101 1.10022 3.97453 0
M  V30 1369 H 138.442 0.398694 0.53098 0
M  V30 1370 H 140.972 1.66906 1.18337 0
M  V30 1371 H 140.982 1.88064 3.62072 0
M  V30 1372 H 139.657 2.86237 3.0173 0
M  V30 1373 H 138.234 1.11287 3.55907 0
M  V30 1374 N 140.419 -1.14872 1.07899 0
M  V30 1375 C 141.644 -1.90202 0.826926 0
M  V30 1376 C 142.069 -1.77774 -0.614664 0
M  V30 1377 O 141.427 -1.11431 -1.43013 0
M  V30 1378 C 141.475 -3.38352 1.24702 0
M  V30 1379 O 140.579 -4.10497 0.39575 0
M  V30 1380 H 139.92 -0.591968 0.300782 0
M  V30 1381 H 142.45 -1.45437 1.43907 0
M  V30 1382 H 142.46 -3.89156 1.22563 0
M  V30 1383 H 141.135 -3.46715 2.29698 0
M  V30 1384 H 139.712 -3.69796 0.480117 0
M  V30 1385 N 141.898 -0.863906 -1.31812 0
M  V30 1386 C 143.146 -0.470904 -1.96537 0
M  V30 1387 C 143.467 0.978771 -1.68657 0
M  V30 1388 O 142.737 1.6853 -0.998717 0
M  V30 1389 H 141.317 -0.171148 -0.72713 0
M  V30 1390 H 143.979 -1.10236 -1.60729 0
M  V30 1391 H 143.075 -0.623616 -3.05806 0
M  V30 1392 N 143.376 1.44774 -0.622745 0
M  V30 1393 C 144.606 2.06187 -0.130532 0
M  V30 1394 C 145.014 1.46547 1.19669 0
M  V30 1395 O 144.357 0.579636 1.74316 0
M  V30 1396 C 144.419 3.59437 0.0674983 0
M  V30 1397 C 144.083 4.41496 -1.18026 0
M  V30 1398 C 145.08 4.75512 -2.102 0
M  V30 1399 C 142.765 4.82007 -1.41333 0
M  V30 1400 C 144.759 5.48912 -3.23998 0
M  V30 1401 C 142.446 5.55157 -2.55429 0
M  V30 1402 C 143.444 5.88528 -3.46589 0
M  V30 1403 O 143.132 6.60191 -4.58697 0
M  V30 1404 H 142.864 0.672045 -0.0730162 0
M  V30 1405 H 145.418 1.86768 -0.854802 0
M  V30 1406 H 143.648 3.77314 0.846825 0
M  V30 1407 H 145.337 4.02642 0.513209 0
M  V30 1408 H 146.103 4.4476 -1.93425 0
M  V30 1409 H 141.982 4.55457 -0.712709 0
M  V30 1410 H 145.526 5.74877 -3.95174 0
M  V30 1411 H 141.423 5.85324 -2.72151 0
M  V30 1412 H 142.191 6.78654 -4.57571 0
M  V30 1413 N 144.854 0.36279 1.53368 0
M  V30 1414 C 145.804 -0.501391 2.22419 0
M  V30 1415 C 146.788 -1.0509 1.2184 0
M  V30 1416 O 147.98 -0.981404 1.47301 0
M  V30 1417 C 145.109 -1.64201 3.01484 0
M  V30 1418 C 144.195 -1.10552 4.09438 0
M  V30 1419 N 144.586 -0.291788 5.04958 0
M  V30 1420 C 142.884 -1.3806 4.24094 0
M  V30 1421 C 143.585 0.00162655 5.817 0
M  V30 1422 N 142.561 -0.595244 5.40331 0
M  V30 1423 H 146.363 0.127159 2.93625 0
M  V30 1424 H 143.877 0.170658 1.61501 0
M  V30 1425 H 145.874 -2.27326 3.49469 0
M  V30 1426 H 144.534 -2.27365 2.31809 0
M  V30 1427 H 145.545 0.0687731 5.17854 0
M  V30 1428 H 142.222 -2.01522 3.65644 0
M  V30 1429 H 143.612 0.659278 6.68658 0
M  V30 1430 N 146.332 -1.57332 0.0918853 0
M  V30 1431 C 147.562 -1.98286 -0.580205 0
M  V30 1432 C 147.97 -0.969713 -1.6246 0
M  V30 1433 O 147.313 0.0493501 -1.83634 0
M  V30 1434 C 147.375 -3.35603 -1.28882 0
M  V30 1435 C 147.039 -4.55285 -0.395559 0
M  V30 1436 C 148.036 -5.18687 0.355002 0
M  V30 1437 C 145.721 -5.01314 -0.314556 0
M  V30 1438 C 147.715 -6.26484 1.17458 0
M  V30 1439 C 145.402 -6.08979 0.508677 0
M  V30 1440 C 146.4 -6.71429 1.2519 0
M  V30 1441 O 146.088 -7.77018 2.06151 0
M  V30 1442 H 145.82 -0.656678 -0.160466 0
M  V30 1443 H 148.374 -2.04721 0.16688 0
M  V30 1444 H 146.604 -3.25842 -2.08241 0
M  V30 1445 H 148.293 -3.61026 -1.85512 0
M  V30 1446 H 149.059 -4.84058 0.302134 0
M  V30 1447 H 144.938 -4.5247 -0.882697 0
M  V30 1448 H 148.482 -6.75159 1.75518 0
M  V30 1449 H 144.379 -6.4304 0.563037 0
M  V30 1450 H 145.147 -7.93991 1.98799 0
M  V30 1451 N 147.81 0.181792 -1.56548 0
M  V30 1452 C 149.058 0.89832 -1.81038 0
M  V30 1453 C 149.379 1.83232 -0.667164 0
M  V30 1454 O 148.649 1.93372 0.313673 0
M  V30 1455 H 147.229 0.33471 -0.667816 0
M  V30 1456 H 149.891 0.184116 -1.94028 0
M  V30 1457 H 148.987 1.4815 -2.74696 0
M  V30 1458 N 149.288 1.51039 0.449983 0
M  V30 1459 C 150.534 1.63322 1.20223 0
M  V30 1460 C 150.867 0.34241 1.91158 0
M  V30 1461 O 150.142 -0.657344 1.83055 0
M  V30 1462 C 150.425 2.82801 2.22925 0
M  V30 1463 C 150.278 4.21823 1.56157 0
M  V30 1464 C 151.597 2.97807 3.24035 0
M  V30 1465 H 148.716 0.594407 0.435718 0
M  V30 1466 H 151.358 1.83489 0.493136 0
M  V30 1467 H 149.508 2.65738 2.834 0
M  V30 1468 H 151.18 4.50526 0.991162 0
M  V30 1469 H 149.423 4.25105 0.864172 0
M  V30 1470 H 150.094 5.01391 2.30891 0
M  V30 1471 H 152.57 3.13497 2.73603 0
M  V30 1472 H 151.446 3.82992 3.93202 0
M  V30 1473 H 151.707 2.09328 3.89402 0
M  V30 1474 N 150.766 -0.704594 1.40972 0
M  V30 1475 C 151.991 -1.49858 1.43378 0
M  V30 1476 C 152.416 -1.88061 0.038184 0
M  V30 1477 O 151.774 -1.5402 -0.956425 0
M  V30 1478 C 151.822 -2.74333 2.34038 0
M  V30 1479 O 150.926 -3.7147 1.7912 0
M  V30 1480 H 150.267 -0.45139 0.486974 0
M  V30 1481 H 152.797 -0.866832 1.8533 0
M  V30 1482 H 152.807 -3.22741 2.49604 0
M  V30 1483 H 151.482 -2.45863 3.35446 0
M  V30 1484 H 150.059 -3.30363 1.72958 0
M  V30 1485 N 152.244 -1.26651 -0.937939 0
M  V30 1486 C 153.207 -1.08546 -2.01867 0
M  V30 1487 C 154.207 -0.0327327 -1.60767 0
M  V30 1488 O 155.397 -0.276427 -1.71993 0
M  V30 1489 C 152.529 -0.651711 -3.34613 0
M  V30 1490 H 153.722 -2.04502 -2.1936 0
M  V30 1491 H 151.275 -1.09294 -1.11734 0
M  V30 1492 H 152.01 0.309696 -3.22818 0
M  V30 1493 H 151.795 -1.41189 -3.65798 0
M  V30 1494 H 153.285 -0.546973 -4.14002 0
M  V30 1495 N 153.722 1.14298 -1.08507 0
M  V30 1496 C 154.962 1.87016 -0.824894 0
M  V30 1497 C 155.326 1.81099 0.637735 0
M  V30 1498 O 156.527 2.48963 1.01345 0
M  V30 1499 C 154.798 3.31584 -1.33368 0
M  V30 1500 S 156.357 4.21903 -1.20596 0
M  V30 1501 H 153.175 0.645259 -0.2986 0
M  V30 1502 H 155.777 1.37822 -1.38656 0
M  V30 1503 H 154.481 3.33439 -2.39262 0
M  V30 1504 H 154.012 3.85836 -0.767734 0
M  V30 1505 H 156.027 4.95971 -0.150891 0
M  V30 1506 N 155.201 0.870884 1.31352 0
M  V30 1507 C 156.111 0.330783 2.32256 0
M  V30 1508 C 157.127 -0.559767 1.6475 0
M  V30 1509 O 158.303 -0.456263 1.96164 0
M  V30 1510 C 155.368 -0.458137 3.4366 0
M  V30 1511 C 154.429 0.460482 4.26823 0
M  V30 1512 C 153.662 -0.290881 5.32907 0
M  V30 1513 O 153.885 -1.51885 5.49806 0
M  V30 1514 O 152.819 0.351732 6.00871 0
M  V30 1515 H 156.645 1.16718 2.80376 0
M  V30 1516 H 154.23 0.634285 1.35267 0
M  V30 1517 H 156.112 -0.905343 4.1156 0
M  V30 1518 H 154.787 -1.27106 2.97701 0
M  V30 1519 H 153.694 0.956207 3.61673 0
M  V30 1520 H 155.027 1.23903 4.7635 0
M  V30 1521 N 156.679 -1.44442 0.630414 0
M  V30 1522 C 157.927 -2.01653 0.134351 0
M  V30 1523 C 158.248 -1.49836 -1.24796 0
M  V30 1524 O 157.518 -0.701684 -1.82902 0
M  V30 1525 H 156.098 -0.74554 0.0466769 0
M  V30 1526 H 158.76 -1.76952 0.816955 0
M  V30 1527 H 157.856 -3.11935 0.101498 0
M  V30 1528 N 158.157 -0.370918 -1.53173 0
M  V30 1529 C 159.397 0.217106 -2.03244 0
M  V30 1530 C 159.761 1.45558 -1.25207 0
M  V30 1531 O 160.962 2.11957 -1.65311 0
M  V30 1532 C 159.233 0.496664 -3.53932 0
M  V30 1533 S 160.792 1.0576 -4.25864 0
M  V30 1534 H 157.61 0.0627827 -0.708223 0
M  V30 1535 H 160.212 -0.515019 -1.88594 0
M  V30 1536 H 158.916 -0.412096 -4.08326 0
M  V30 1537 H 158.447 1.25772 -3.72753 0
M  V30 1538 H 160.462 2.34145 -4.37482 0
M  V30 1539 N 159.635 1.57281 -0.100228 0
M  V30 1540 C 160.582 2.14305 0.856858 0
M  V30 1541 C 161.552 1.06296 1.27634 0
M  V30 1542 O 162.737 1.34109 1.35718 0
M  V30 1543 C 159.877 2.73184 2.10866 0
M  V30 1544 C 158.99 3.95442 1.73925 0
M  V30 1545 C 158.125 4.42468 2.93931 0
M  V30 1546 C 157.164 5.57303 2.5314 0
M  V30 1547 N 156.301 5.99158 3.65997 0
M  V30 1548 H 161.141 2.95772 0.363726 0
M  V30 1549 H 158.678 1.46139 0.167858 0
M  V30 1550 H 160.636 3.05442 2.84185 0
M  V30 1551 H 159.266 1.94437 2.57671 0
M  V30 1552 H 158.318 3.69464 0.905554 0
M  V30 1553 H 159.63 4.78769 1.39935 0
M  V30 1554 H 158.784 4.76537 3.75496 0
M  V30 1555 H 157.523 3.58052 3.31134 0
M  V30 1556 H 156.528 5.22857 1.70003 0
M  V30 1557 H 157.753 6.43471 2.17075 0
M  V30 1558 H 155.699 5.17687 4.02909 0
M  V30 1559 H 155.616 6.77295 3.35869 0
M  V30 1560 H 156.884 6.3786 4.48057 0
M  V30 1561 N 161.113 -0.173488 1.56642 0
M  V30 1562 C 162.361 -0.888706 1.81512 0
M  V30 1563 C 162.682 -1.82875 0.676872 0
M  V30 1564 O 161.952 -1.93536 -0.303414 0
M  V30 1565 H 160.532 -0.331164 0.669582 0
M  V30 1566 H 163.194 -0.173823 1.94123 0
M  V30 1567 H 162.29 -1.46691 2.75478 0
M  V30 1568 N 162.591 -1.51276 -0.441967 0
M  V30 1569 C 163.838 -1.63715 -1.19179 0
M  V30 1570 C 164.166 -0.351175 -1.91303 0
M  V30 1571 O 163.421 0.664524 -1.84072 0
M  V30 1572 C 163.72 -2.78746 -2.23686 0
M  V30 1573 C 163.386 -4.18189 -1.68607 0
M  V30 1574 C 162.048 -4.56125 -1.53308 0
M  V30 1575 C 164.4 -5.05222 -1.28062 0
M  V30 1576 C 161.728 -5.78804 -0.959317 0
M  V30 1577 C 164.08 -6.28476 -0.721162 0
M  V30 1578 C 162.744 -6.65188 -0.55504 0
M  V30 1579 H 162.014 -0.599076 -0.436106 0
M  V30 1580 H 164.661 -1.85296 -0.48351 0
M  V30 1581 H 162.966 -2.51369 -3.00535 0
M  V30 1582 H 164.663 -2.8557 -2.81515 0
M  V30 1583 H 161.253 -3.88277 -1.8149 0
M  V30 1584 H 165.437 -4.76524 -1.38704 0
M  V30 1585 H 160.693 -6.05899 -0.81833 0
M  V30 1586 H 164.867 -6.95259 -0.398458 0
M  V30 1587 H 162.494 -7.60123 -0.108311 0
M  V30 1588 N 164.069 0.697108 -1.41344 0
M  V30 1589 C 165.316 1.45714 -1.40619 0
M  V30 1590 C 165.644 1.94494 -0.0147907 0
M  V30 1591 O 164.899 1.69794 0.973066 0
M  V30 1592 C 165.198 2.68553 -2.35826 0
M  V30 1593 C 164.864 2.38438 -3.82698 0
M  V30 1594 C 163.526 2.29936 -4.22709 0
M  V30 1595 C 165.878 2.13567 -4.75435 0
M  V30 1596 C 163.206 1.94656 -5.53467 0
M  V30 1597 C 165.558 1.79797 -6.06511 0
M  V30 1598 C 164.222 1.69789 -6.45545 0
M  V30 1599 H 163.492 0.533206 -0.51456 0
M  V30 1600 H 166.139 0.796901 -1.74131 0
M  V30 1601 H 164.444 3.39503 -1.95563 0
M  V30 1602 H 166.141 3.2669 -2.32539 0
M  V30 1603 H 162.731 2.4595 -3.51008 0
M  V30 1604 H 166.915 2.19082 -4.45328 0
M  V30 1605 H 162.171 1.8546 -5.82593 0
M  V30 1606 H 166.345 1.59572 -6.77872 0
M  V30 1607 H 163.972 1.4222 -7.46778 0
M  V30 1608 N 165.547 1.27147 0.931209 0
M  V30 1609 C 166.963 1.04475 1.20653 0
M  V30 1610 C 167.163 -0.223885 2.00252 0
M  V30 1611 O 166.219 -0.930332 2.34736 0
M  V30 1612 C 167.532 2.28209 1.95809 0
M  V30 1613 C 169.08 2.33211 2.08762 0
M  V30 1614 C 169.555 3.56665 2.87323 0
M  V30 1615 N 171.046 3.57201 2.94892 0
M  V30 1616 C 171.781 4.49395 3.56134 0
M  V30 1617 N 171.277 5.51889 4.18796 0
M  V30 1618 N 173.07 4.37026 3.53504 0
M  V30 1619 H 165.221 2.08612 0.399333 0
M  V30 1620 H 167.484 0.917312 0.239253 0
M  V30 1621 H 167.19 3.20538 1.44736 0
M  V30 1622 H 167.064 2.33247 2.96438 0
M  V30 1623 H 169.451 1.41391 2.59023 0
M  V30 1624 H 169.532 2.32178 1.07364 0
M  V30 1625 H 169.176 4.4882 2.37746 0
M  V30 1626 H 169.106 3.54948 3.88998 0
M  V30 1627 H 171.597 2.83074 2.50354 0
M  V30 1628 H 171.91 6.18409 4.63454 0
M  V30 1629 H 170.255 5.55735 4.17353 0
M  V30 1630 H 173.446 3.56166 3.03749 0
M  V30 1631 H 173.619 5.09067 4.00942 0
M  V30 1632 N 167.025 -1.13721 1.09112 0
M  V30 1633 C 168.441 -1.36914 0.820174 0
M  V30 1634 C 168.641 -1.93356 -0.567079 0
M  V30 1635 O 167.697 -2.15093 -1.32255 0
M  V30 1636 C 169.01 -2.3235 1.90877 0
M  V30 1637 C 170.558 -2.45973 1.93562 0
M  V30 1638 C 171.033 -3.44714 3.01556 0
M  V30 1639 N 172.524 -3.52263 3.00775 0
M  V30 1640 C 173.259 -4.28536 3.80978 0
M  V30 1641 N 172.755 -5.07991 4.71081 0
M  V30 1642 N 174.548 -4.23804 3.69251 0
M  V30 1643 H 166.699 -0.754348 1.98553 0
M  V30 1644 H 168.962 -0.3944 0.862063 0
M  V30 1645 H 168.668 -1.98027 2.90651 0
M  V30 1646 H 168.542 -3.32332 1.78424 0
M  V30 1647 H 170.929 -2.79584 0.944286 0
M  V30 1648 H 171.01 -1.45926 2.10093 0
M  V30 1649 H 170.654 -3.11835 4.00901 0
M  V30 1650 H 170.584 -4.44558 2.82269 0
M  V30 1651 H 173.075 -2.95567 2.35475 0
M  V30 1652 H 173.388 -5.63487 5.28869 0
M  V30 1653 H 171.733 -5.07235 4.75119 0
M  V30 1654 H 174.924 -3.60806 2.98222 0
M  V30 1655 H 175.097 -4.82995 4.31995 0
M  V30 1656 N 168.503 -0.877838 -1.30888 0
M  V30 1657 C 169.728 -0.506629 -2.01117 0
M  V30 1658 C 170.153 0.895564 -1.65412 0
M  V30 1659 O 169.511 1.5923 -0.866922 0
M  V30 1660 C 169.559 -0.680223 -3.54126 0
M  V30 1661 O 168.663 0.277033 -4.11468 0
M  V30 1662 H 168.004 -0.200518 -0.633 0
M  V30 1663 H 170.534 -1.18342 -1.66902 0
M  V30 1664 H 170.544 -0.5765 -4.03907 0
M  V30 1665 H 169.219 -1.70261 -3.79452 0
M  V30 1666 H 167.796 0.127606 -3.72682 0
M  V30 1667 N 169.982 1.44106 -0.638065 0
M  V30 1668 C 171.231 2.01194 -0.142744 0
M  V30 1669 C 171.544 1.50835 1.24532 0
M  V30 1670 O 172.75 2.00096 1.83504 0
M  V30 1671 C 171.206 3.59319 -0.20442 0
M  V30 1672 C 170.814 4.18674 -1.59423 0
M  V30 1673 C 172.558 4.23854 0.234079 0
M  V30 1674 C 170.465 5.69045 -1.61065 0
M  V30 1675 H 169.395 0.752367 -0.0495998 0
M  V30 1676 H 172.046 1.65246 -0.797881 0
M  V30 1677 H 170.428 3.92598 0.517946 0
M  V30 1678 H 171.602 3.96921 -2.34074 0
M  V30 1679 H 169.917 3.66453 -1.97741 0
M  V30 1680 H 172.514 5.34155 0.241443 0
M  V30 1681 H 172.857 3.96688 1.2627 0
M  V30 1682 H 173.39 3.95403 -0.436025 0
M  V30 1683 H 170.129 6.00956 -2.61787 0
M  V30 1684 H 169.649 5.929 -0.90718 0
M  V30 1685 H 171.328 6.32809 -1.34766 0
M  V30 1686 N 171.46 0.379036 1.52974 0
M  V30 1687 C 172.392 -0.495963 2.2377 0
M  V30 1688 C 173.405 -1.03517 1.25651 0
M  V30 1689 O 174.594 -0.939249 1.51791 0
M  V30 1690 C 171.694 -1.69894 2.93239 0
M  V30 1691 C 170.867 -1.2889 4.17979 0
M  V30 1692 C 169.926 -2.35543 4.70538 0
M  V30 1693 O 168.952 -1.97375 5.33883 0
M  V30 1694 N 170.154 -3.67318 4.49508 0
M  V30 1695 H 172.919 0.110523 2.99496 0
M  V30 1696 H 170.48 0.204878 1.60598 0
M  V30 1697 H 172.472 -2.40747 3.25304 0
M  V30 1698 H 171.042 -2.212 2.20883 0
M  V30 1699 H 170.262 -0.409676 3.92065 0
M  V30 1700 H 171.55 -0.991443 4.99047 0
M  V30 1701 H 170.948 -4.01095 3.98923 0
M  V30 1702 H 169.505 -4.34235 4.8609 0
M  V30 1703 N 172.938 -1.57226 0.108567 0
M  V30 1704 C 173.885 -2.14756 -0.845481 0
M  V30 1705 C 174.855 -1.06971 -1.27068 0
M  V30 1706 O 176.04 -1.34827 -1.35005 0
M  V30 1707 C 173.18 -2.74298 -2.09415 0
M  V30 1708 C 172.293 -3.96358 -1.71826 0
M  V30 1709 C 171.428 -4.44021 -2.9158 0
M  V30 1710 C 170.467 -5.58637 -2.50181 0
M  V30 1711 N 169.604 -6.01091 -3.62814 0
M  V30 1712 H 174.444 -2.95961 -0.348035 0
M  V30 1713 H 171.981 -1.46226 -0.160106 0
M  V30 1714 H 173.939 -3.06945 -2.82561 0
M  V30 1715 H 172.569 -1.95801 -2.56636 0
M  V30 1716 H 171.621 -3.69939 -0.885947 0
M  V30 1717 H 172.933 -4.79504 -1.37394 0
M  V30 1718 H 172.087 -4.78522 -3.72963 0
M  V30 1719 H 170.826 -3.59803 -3.29231 0
M  V30 1720 H 169.831 -5.23751 -1.67228 0
M  V30 1721 H 171.056 -6.44613 -2.13659 0
M  V30 1722 H 169.002 -5.19817 -4.00158 0
M  V30 1723 H 168.919 -6.79066 -3.32273 0
M  V30 1724 H 170.187 -6.40227 -4.44668 0
M  V30 1725 N 174.416 0.165178 -1.56732 0
M  V30 1726 C 175.364 1.22369 -1.97809 0
M  V30 1727 C 176.358 1.45488 -0.867741 0
M  V30 1728 O 177.564 1.45995 -1.05288 0
M  V30 1729 H 173.939 0.411486 -0.629431 0
M  V30 1730 H 175.91 0.850425 -2.86025 0
M  V30 1731 C 174.659 2.55403 -2.35934 0
M  V30 1732 H 173.982 2.38438 -3.20916 0
M  V30 1733 H 175.422 3.2814 -2.68514 0
M  V30 1734 C 173.881 3.14611 -1.20506 0
M  V30 1735 O 174.411 3.98626 -0.496016 0
M  V30 1736 N 172.617 2.7379 -0.97403 0
M  V30 1737 H 172.164 2.0557 -1.55238 0
M  V30 1738 H 172.122 3.1374 -0.203573 0
M  V30 1739 N 175.894 1.51508 0.433938 0
M  V30 1740 C 176.827 1.67756 1.54704 0
M  V30 1741 C 177.805 0.525127 1.53887 0
M  V30 1742 O 178.989 0.749393 1.72963 0
M  V30 1743 C 176.116 1.69424 2.9328 0
M  V30 1744 C 175.162 2.90673 3.12108 0
M  V30 1745 S 175.995 4.51431 2.88046 0
M  V30 1746 C 177.151 4.55849 4.28897 0
M  V30 1747 H 177.384 2.61904 1.40689 0
M  V30 1748 H 174.917 1.41235 0.62386 0
M  V30 1749 H 176.875 1.7107 3.73156 0
M  V30 1750 H 175.536 0.764464 3.04655 0
M  V30 1751 H 174.729 2.88251 4.13434 0
M  V30 1752 H 174.331 2.86786 2.40062 0
M  V30 1753 H 176.623 4.31699 5.22152 0
M  V30 1754 H 177.566 5.57676 4.36351 0
M  V30 1755 H 177.974 3.85137 4.12711 0
M  V30 1756 N 177.372 -0.689602 1.41712 0
M  V30 1757 C 178.621 -1.44534 1.40686 0
M  V30 1758 C 178.934 -1.95588 0.0213352 0
M  V30 1759 O 180.14 -2.71271 -0.111534 0
M  V30 1760 C 178.596 -2.61387 2.47396 0
M  V30 1761 C 178.204 -2.17094 3.91885 0
M  V30 1762 C 179.948 -3.38986 2.55517 0
M  V30 1763 C 177.855 -3.3094 4.90135 0
M  V30 1764 H 176.785 -0.542925 0.52321 0
M  V30 1765 H 179.436 -0.748054 1.6756 0
M  V30 1766 H 177.818 -3.33412 2.13664 0
M  V30 1767 H 178.992 -1.52318 4.34897 0
M  V30 1768 H 177.307 -1.52473 3.8748 0
M  V30 1769 H 179.904 -4.23747 3.26102 0
M  V30 1770 H 180.247 -3.84578 1.59391 0
M  V30 1771 H 180.78 -2.74021 2.8837 0
M  V30 1772 H 177.519 -2.90355 5.87685 0
M  V30 1773 H 177.039 -3.94546 4.51767 0
M  V30 1774 H 178.718 -3.9663 5.11169 0
M  V30 1775 N 178.85 -1.27639 -0.924453 0
M  V30 1776 C 180.08 -1.16819 -1.70402 0
M  V30 1777 C 180.488 0.277191 -1.87158 0
M  V30 1778 O 179.831 1.20025 -1.39067 0
M  V30 1779 C 179.893 -1.78305 -3.12166 0
M  V30 1780 C 179.557 -3.27502 -3.18734 0
M  V30 1781 C 180.554 -4.2409 -3.00738 0
M  V30 1782 C 178.239 -3.68269 -3.4159 0
M  V30 1783 C 180.233 -5.59422 -3.05492 0
M  V30 1784 C 177.92 -5.0373 -3.45977 0
M  V30 1785 C 178.918 -5.99116 -3.27946 0
M  V30 1786 O 178.606 -7.32108 -3.32074 0
M  V30 1787 H 178.338 -0.406931 -0.539799 0
M  V30 1788 H 180.892 -1.69078 -1.16626 0
M  V30 1789 H 179.122 -1.20528 -3.67437 0
M  V30 1790 H 180.811 -1.62154 -3.72103 0
M  V30 1791 H 181.577 -3.93931 -2.82919 0
M  V30 1792 H 177.456 -2.94496 -3.54673 0
M  V30 1793 H 181 -6.33852 -2.91337 0
M  V30 1794 H 176.897 -5.33543 -3.63321 0
M  V30 1795 H 177.665 -7.40598 -3.48507 0
M  V30 1796 N 180.328 1.1314 -1.09713 0
M  V30 1797 C 181.556 1.88321 -0.856898 0
M  V30 1798 C 181.971 1.79276 0.592073 0
M  V30 1799 O 181.328 1.16142 1.40774 0
M  V30 1800 C 181.379 3.37812 -1.28706 0
M  V30 1801 O 181.1 3.46627 -2.67921 0
M  V30 1802 C 182.601 4.29952 -1.07964 0
M  V30 1803 H 179.821 0.596094 -0.308079 0
M  V30 1804 H 182.365 1.43205 -1.45988 0
M  V30 1805 H 180.52 3.805 -0.727912 0
M  V30 1806 H 180.934 4.39579 -2.8613 0
M  V30 1807 H 182.408 5.33159 -1.42986 0
M  V30 1808 H 182.885 4.39196 -0.0176577 0
M  V30 1809 H 183.491 3.93036 -1.62489 0
M  V30 1810 N 181.806 0.884767 1.30421 0
M  V30 1811 C 183.046 0.509806 1.9794 0
M  V30 1812 C 183.41 -0.923736 1.68319 0
M  V30 1813 O 184.611 -1.40481 2.29169 0
M  V30 1814 C 182.882 0.776732 3.48858 0
M  V30 1815 S 184.441 0.503843 4.35898 0
M  V30 1816 H 181.259 0.189699 0.685227 0
M  V30 1817 H 183.861 1.14399 1.58535 0
M  V30 1818 H 182.565 1.81857 3.67908 0
M  V30 1819 H 182.096 0.1301 3.93185 0
M  V30 1820 H 184.111 -0.657625 4.91823 0
M  V30 1821 N 183.284 -1.43765 0.645699 0
M  V30 1822 C 184.234 -2.27884 -0.0726442 0
M  V30 1823 C 185.218 -1.39483 -0.802086 0
M  V30 1824 O 186.41 -1.63174 -0.685791 0
M  V30 1825 C 183.539 -3.27055 -1.04356 0
M  V30 1826 C 182.625 -4.22944 -0.312985 0
M  V30 1827 N 183.016 -5.01391 0.666386 0
M  V30 1828 C 181.314 -4.42528 -0.55546 0
M  V30 1829 C 182.015 -5.71217 1.09935 0
M  V30 1830 N 180.991 -5.41856 0.435137 0
M  V30 1831 H 184.793 -2.85949 0.678988 0
M  V30 1832 H 182.307 -1.55378 0.472368 0
M  V30 1833 H 184.304 -3.86089 -1.57292 0
M  V30 1834 H 182.964 -2.70551 -1.79534 0
M  V30 1835 H 183.975 -5.07252 1.04481 0
M  V30 1836 H 180.652 -3.97104 -1.28899 0
M  V30 1837 H 182.042 -6.44202 1.90929 0
M  V30 1838 N 184.763 -0.387143 -1.52771 0
M  V30 1839 C 186.179 -0.037007 -1.59557 0
M  V30 1840 C 186.379 1.44801 -1.40124 0
M  V30 1841 O 185.435 2.21227 -1.21716 0
M  V30 1842 C 186.748 -0.512256 -2.96305 0
M  V30 1843 C 188.296 -0.468328 -3.09476 0
M  V30 1844 C 188.771 -0.919731 -4.4867 0
M  V30 1845 N 190.262 -0.875656 -4.54848 0
M  V30 1846 C 190.997 -1.19637 -5.6078 0
M  V30 1847 N 190.493 -1.58745 -6.74368 0
M  V30 1848 N 192.286 -1.11776 -5.50874 0
M  V30 1849 H 184.437 -1.35395 -1.63652 0
M  V30 1850 H 186.7 -0.554818 -0.768688 0
M  V30 1851 H 186.406 -1.54935 -3.15734 0
M  V30 1852 H 186.28 0.089805 -3.77093 0
M  V30 1853 H 188.667 0.559671 -2.89744 0
M  V30 1854 H 188.748 -1.10616 -2.30646 0
M  V30 1855 H 188.392 -1.94595 -4.69143 0
M  V30 1856 H 188.322 -0.258927 -5.25963 0
M  V30 1857 H 190.813 -0.587843 -3.733 0
M  V30 1858 H 191.126 -1.81586 -7.51163 0
M  V30 1859 H 189.471 -1.6263 -6.75705 0
M  V30 1860 H 192.662 -0.811264 -4.61016 0
M  V30 1861 H 192.835 -1.37103 -6.3333 0
M  V30 1862 N 186.241 1.57166 -0.116904 0
M  V30 1863 C 187.518 1.86645 0.585049 0
M  V30 1864 C 187.898 1.0177 1.84949 0
M  V30 1865 O 187.246 0.0960379 2.28298 0
M  V30 1866 C 187.456 3.37736 0.879507 0
M  V30 1867 C 188.804 4.06289 1.23348 0
M  V30 1868 O 189.828 3.42743 0.969836 0
M  V30 1869 O 188.687 5.18455 1.7282 0
M  V30 1870 H 185.781 0.772593 0.295007 0
M  V30 1871 H 188.327 1.69025 -0.151249 0
M  V30 1872 H 187.099 3.91296 -0.0166136 0
M  V30 1873 H 186.722 3.6078 1.67103 0
M  V30 1874 N 187.719 -0.156864 1.56817 0
M  V30 1875 C 188.666 -1.19394 1.97519 0
M  V30 1876 C 189.636 -1.4322 0.841265 0
M  V30 1877 O 190.821 -1.55719 1.10255 0
M  V30 1878 C 187.961 -2.52483 2.35258 0
M  V30 1879 C 187.074 -2.35914 3.61896 0
M  V30 1880 C 186.209 -3.61969 3.88782 0
M  V30 1881 C 185.248 -3.40395 5.08722 0
M  V30 1882 N 184.385 -4.58556 5.31668 0
M  V30 1883 H 189.225 -0.839845 2.85921 0
M  V30 1884 H 186.762 -0.403264 1.41464 0
M  V30 1885 H 188.72 -3.30071 2.55165 0
M  V30 1886 H 187.35 -2.85859 1.49949 0
M  V30 1887 H 186.402 -1.49429 3.49821 0
M  V30 1888 H 187.714 -2.15926 4.49641 0
M  V30 1889 H 186.868 -4.47989 4.09135 0
M  V30 1890 H 185.607 -3.84951 2.9944 0
M  V30 1891 H 184.612 -2.52763 4.88253 0
M  V30 1892 H 185.837 -3.18822 5.99608 0
M  V30 1893 H 183.783 -4.81729 4.45279 0
M  V30 1894 H 183.7 -4.41535 6.13664 0
M  V30 1895 H 184.968 -5.45817 5.5651 0
M  V30 1896 N 189.197 -1.51736 -0.425897 0
M  V30 1897 C 190.145 -1.74464 -1.53834 0
M  V30 1898 C 191.139 -0.611241 -1.57988 0
M  V30 1899 O 192.345 -0.792899 -1.61596 0
M  V30 1900 H 188.72 -0.551437 -0.511293 0
M  V30 1901 H 190.691 -2.67694 -1.31843 0
M  V30 1902 C 189.44 -1.8972 -2.91379 0
M  V30 1903 H 188.763 -2.76344 -2.88919 0
M  V30 1904 H 190.203 -2.09629 -3.68553 0
M  V30 1905 C 188.662 -0.65992 -3.30374 0
M  V30 1906 O 189.192 0.180083 -4.01296 0
M  V30 1907 N 187.398 -0.500677 -2.86254 0
M  V30 1908 H 186.945 -1.18532 -2.28709 0
M  V30 1909 H 186.903 0.325903 -3.12706 0
M  V30 1910 N 190.675 0.682077 -1.42076 0
M  V30 1911 C 191.915 1.45424 -1.43636 0
M  V30 1912 C 192.279 1.91939 -0.0484001 0
M  V30 1913 O 193.48 2.6873 0.0612514 0
M  V30 1914 C 191.751 2.62427 -2.42625 0
M  V30 1915 S 193.31 3.51379 -2.62827 0
M  V30 1916 H 190.128 0.496779 -0.508657 0
M  V30 1917 H 192.73 0.794645 -1.78621 0
M  V30 1918 H 191.434 2.26481 -3.42249 0
M  V30 1919 H 190.965 3.33266 -2.09039 0
M  V30 1920 H 192.98 4.58141 -1.9058 0
M  V30 1921 N 192.153 1.28127 0.917671 0
M  V30 1922 C 193.399 1.15223 1.66888 0
M  V30 1923 C 193.732 -0.299293 1.9188 0
M  V30 1924 O 193.007 -1.21805 1.51637 0
M  V30 1925 C 193.29 1.94706 3.02922 0
M  V30 1926 C 193.143 3.47898 2.85109 0
M  V30 1927 C 194.462 1.75939 4.03402 0
M  V30 1928 H 191.581 0.419946 0.605652 0
M  V30 1929 H 194.223 1.57398 1.06423 0
M  V30 1930 H 192.373 1.58864 3.54534 0
M  V30 1931 H 194.045 3.93624 2.40537 0
M  V30 1932 H 192.288 3.7373 2.20246 0
M  V30 1933 H 192.959 3.98765 3.81694 0
M  V30 1934 H 195.435 2.07209 3.60837 0
M  V30 1935 H 194.311 2.33931 4.96556 0
M  V30 1936 H 194.572 0.709877 4.36364 0
M  V30 1937 N 193.631 -1.12557 1.10312 0
M  V30 1938 C 194.88 -1.83395 0.839588 0
M  V30 1939 C 195.193 -1.84939 -0.636929 0
M  V30 1940 O 196.399 -2.51761 -1.01631 0
M  V30 1941 C 194.855 -3.29303 1.45215 0
M  V30 1942 C 194.463 -3.36122 2.96186 0
M  V30 1943 C 196.207 -4.05121 1.26796 0
M  V30 1944 C 194.114 -4.76357 3.50483 0
M  V30 1945 H 193.044 -0.687133 0.310425 0
M  V30 1946 H 195.695 -1.26746 1.32694 0
M  V30 1947 H 194.077 -3.85812 0.892469 0
M  V30 1948 H 195.251 -2.89559 3.58458 0
M  V30 1949 H 193.566 -2.73776 3.13745 0
M  V30 1950 H 196.163 -5.08668 1.64806 0
M  V30 1951 H 196.506 -4.15773 0.209409 0
M  V30 1952 H 197.039 -3.54967 1.79563 0
M  V30 1953 H 193.778 -4.70899 4.55998 0
M  V30 1954 H 193.298 -5.23377 2.92978 0
M  V30 1955 H 194.977 -5.45294 3.48228 0
M  V30 1956 N 195.109 -0.891671 -1.2995 0
M  V30 1957 C 196.057 -0.353066 -2.29905 0
M  V30 1958 C 197.051 0.543509 -1.60444 0
M  V30 1959 O 198.257 0.4272 -1.74857 0
M  V30 1960 H 194.632 -0.095531 -0.745907 0
M  V30 1961 H 196.603 -1.20961 -2.72784 0
M  V30 1962 C 195.352 0.411475 -3.45257 0
M  V30 1963 H 194.675 -0.269182 -3.98893 0
M  V30 1964 H 196.115 0.753328 -4.17254 0
M  V30 1965 C 194.574 1.6111 -2.9588 0
M  V30 1966 O 195.104 2.71045 -2.96475 0
M  V30 1967 N 193.31 1.45054 -2.51809 0
M  V30 1968 H 192.857 0.556175 -2.51524 0
M  V30 1969 H 192.815 2.25453 -2.1913 0
M  V30 1970 N 196.587 1.43421 -0.653314 0
M  V30 1971 C 197.534 2.30768 0.0382271 0
M  V30 1972 C 198.504 1.44755 0.814576 0
M  V30 1973 O 199.689 1.73624 0.791162 0
M  V30 1974 C 196.829 3.30336 0.998599 0
M  V30 1975 C 195.942 4.31448 0.218342 0
M  V30 1976 C 195.077 5.18098 1.17252 0
M  V30 1977 C 194.116 6.10902 0.382702 0
M  V30 1978 N 193.253 6.90176 1.28848 0
M  V30 1979 H 198.093 2.89357 -0.712511 0
M  V30 1980 H 195.63 1.42548 -0.363128 0
M  V30 1981 H 197.588 3.86572 1.56901 0
M  V30 1982 H 196.218 2.73397 1.71621 0
M  V30 1983 H 195.27 3.77506 -0.46836 0
M  V30 1984 H 196.582 4.97227 -0.395812 0
M  V30 1985 H 195.736 5.7896 1.81356 0
M  V30 1986 H 194.475 4.52444 1.82058 0
M  V30 1987 H 193.48 5.49128 -0.27169 0
M  V30 1988 H 194.705 6.78598 -0.260957 0
M  V30 1989 H 192.651 6.27171 1.92334 0
M  V30 1990 H 192.568 7.52478 0.728887 0
M  V30 1991 H 193.836 7.55543 1.91766 0
M  V30 1992 N 198.065 0.39524 1.52563 0
M  V30 1993 C 199.311 -0.185318 2.01952 0
M  V30 1994 C 199.644 -1.45964 1.28095 0
M  V30 1995 O 198.919 -1.90689 0.38315 0
M  V30 1996 C 199.202 -0.447193 3.57312 0
M  V30 1997 C 199.055 0.842828 4.41833 0
M  V30 1998 C 200.374 -1.23529 4.22408 0
M  V30 1999 H 197.493 -0.0658788 0.73405 0
M  V30 2000 H 200.135 0.525975 1.82575 0
M  V30 2001 H 198.285 -1.05312 3.73954 0
M  V30 2002 H 199.957 1.4795 4.36931 0
M  V30 2003 H 198.2 1.45686 4.08605 0
M  V30 2004 H 198.871 0.614165 5.48573 0
M  V30 2005 H 201.347 -0.722445 4.0978 0
M  V30 2006 H 200.223 -1.38727 5.3108 0
M  V30 2007 H 200.484 -2.25213 3.80436 0
M  V30 2008 N 199.544 -1.57102 0.125237 0
M  V30 2009 C 200.772 -1.99761 -0.538797 0
M  V30 2010 C 201.187 -1.00503 -1.59827 0
M  V30 2011 O 200.544 0.00119474 -1.825 0
M  V30 2012 C 200.595 -3.42408 -1.15927 0
M  V30 2013 O 200.316 -4.37869 -0.142143 0
M  V30 2014 C 201.817 -4.00232 -1.90602 0
M  V30 2015 H 199.037 -0.655772 -0.14214 0
M  V30 2016 H 201.581 -2.03383 0.213413 0
M  V30 2017 H 199.736 -3.39706 -1.86223 0
M  V30 2018 H 200.15 -5.21128 -0.593775 0
M  V30 2019 H 201.624 -5.02105 -2.29335 0
M  V30 2020 H 202.101 -3.39721 -2.78363 0
M  V30 2021 H 202.707 -4.06499 -1.25055 0
M  V30 2022 N 201.022 0.148545 -1.56898 0
M  V30 2023 C 202.438 0.501131 -1.51528 0
M  V30 2024 C 202.638 1.83458 -0.833399 0
M  V30 2025 O 201.694 2.49259 -0.40328 0
M  V30 2026 C 203.007 0.512864 -2.96294 0
M  V30 2027 C 204.555 0.598487 -3.07225 0
M  V30 2028 C 205.03 0.640897 -4.53494 0
M  V30 2029 N 206.521 0.703163 -4.57832 0
M  V30 2030 C 207.256 0.756935 -5.68382 0
M  V30 2031 N 206.752 0.770147 -6.88506 0
M  V30 2032 N 208.545 0.797698 -5.56411 0
M  V30 2033 H 200.696 -0.725532 -1.99624 0
M  V30 2034 H 202.959 -0.264358 -0.910395 0
M  V30 2035 H 202.665 -0.398691 -3.49433 0
M  V30 2036 H 202.539 1.35133 -3.52163 0
M  V30 2037 H 204.926 1.50046 -2.54106 0
M  V30 2038 H 205.007 -0.267093 -2.54402 0
M  V30 2039 H 204.651 -0.256915 -5.0725 0
M  V30 2040 H 204.581 1.52295 -5.04097 0
M  V30 2041 H 207.072 0.700314 -3.71354 0
M  V30 2042 H 207.385 0.812983 -7.68512 0
M  V30 2043 H 205.73 0.738049 -6.9107 0
M  V30 2044 H 208.921 0.784535 -4.61479 0
M  V30 2045 H 209.094 0.83614 -6.42583 0
M  V30 2046 N 202.5 1.5196 0.417844 0
M  V30 2047 C 203.448 1.75278 1.52907 0
M  V30 2048 C 204.442 0.619611 1.57662 0
M  V30 2049 O 205.648 0.801457 1.61173 0
M  V30 2050 H 202.023 0.554141 0.508362 0
M  V30 2051 H 203.994 2.68389 1.30422 0
M  V30 2052 C 202.743 1.91262 2.90369 0
M  V30 2053 H 202.066 2.77872 2.8745 0
M  V30 2054 H 203.506 2.11581 3.67436 0
M  V30 2055 C 201.965 0.677431 3.30019 0
M  V30 2056 O 202.495 -0.158799 4.01386 0
M  V30 2057 N 200.701 0.515851 2.85985 0
M  V30 2058 H 200.248 1.19744 2.28077 0
M  V30 2059 H 200.206 -0.309315 3.12875 0
M  V30 2060 N 203.978 -0.674533 1.42435 0
M  V30 2061 C 205.394 -0.98769 1.25367 0
M  V30 2062 C 205.594 -2.00879 0.158044 0
M  V30 2063 O 204.65 -2.48075 -0.470633 0
M  V30 2064 C 205.963 -1.49224 2.6106 0
M  V30 2065 C 207.511 -1.61 2.68417 0
M  V30 2066 C 207.986 -2.14852 4.04478 0
M  V30 2067 N 209.477 -2.22185 4.06434 0
M  V30 2068 C 210.212 -2.64928 5.08528 0
M  V30 2069 N 209.708 -3.07121 6.21006 0
M  V30 2070 N 211.501 -2.64679 4.95885 0
M  V30 2071 H 203.652 0.00152503 2.124 0
M  V30 2072 H 205.915 -0.0618434 0.945981 0
M  V30 2073 H 205.621 -0.816453 3.42092 0
M  V30 2074 H 205.495 -2.47094 2.84999 0
M  V30 2075 H 207.882 -2.27686 1.87732 0
M  V30 2076 H 207.963 -0.616195 2.48267 0
M  V30 2077 H 207.607 -1.48775 4.85622 0
M  V30 2078 H 207.537 -3.15024 4.2198 0
M  V30 2079 H 210.028 -1.92435 3.25234 0
M  V30 2080 H 210.341 -3.38423 6.94759 0
M  V30 2081 H 208.686 -3.04978 6.24511 0
M  V30 2082 H 211.877 -2.31078 4.07088 0
M  V30 2083 H 212.05 -2.9767 5.75584 0
M  V30 2084 N 205.456 -1.28612 -0.910864 0
M  V30 2085 C 206.696 -1.1719 -1.67469 0
M  V30 2086 C 207.06 0.274441 -1.90028 0
M  V30 2087 O 208.261 0.511425 -2.6389 0
M  V30 2088 C 206.532 -1.95137 -2.99427 0
M  V30 2089 S 208.091 -2.00122 -3.90508 0
M  V30 2090 H 204.909 -0.41806 -0.575106 0
M  V30 2091 H 207.511 -1.6275 -1.08317 0
M  V30 2092 H 206.215 -2.99381 -2.80712 0
M  V30 2093 H 205.746 -1.50137 -3.63624 0
M  V30 2094 H 207.761 -1.10981 -4.8363 0
M  V30 2095 N 206.934 1.1197 -1.10907 0
M  V30 2096 C 207.866 2.17592 -0.720175 0
M  V30 2097 C 208.879 1.60938 0.245495 0
M  V30 2098 O 210.068 1.78476 0.0292245 0
M  V30 2099 C 207.168 3.38873 -0.0427917 0
M  V30 2100 C 206.341 4.25006 -1.03388 0
M  V30 2101 C 205.4 5.24774 -0.387075 0
M  V30 2102 O 204.426 5.59631 -1.03934 0
M  V30 2103 N 205.628 5.74208 0.852407 0
M  V30 2104 H 208.393 2.51567 -1.62893 0
M  V30 2105 H 205.954 1.27439 -0.998543 0
M  V30 2106 H 207.946 4.02703 0.401501 0
M  V30 2107 H 206.516 3.03007 0.768456 0
M  V30 2108 H 205.736 3.57716 -1.65629 0
M  V30 2109 H 207.024 4.79397 -1.70458 0
M  V30 2110 H 206.422 5.48062 1.40161 0
M  V30 2111 H 204.979 6.39901 1.23977 0
M  V30 2112 N 208.412 0.89855 1.29475 0
M  V30 2113 C 209.642 0.538479 1.99459 0
M  V30 2114 C 210.05 -0.880922 1.67441 0
M  V30 2115 O 209.393 -1.59283 0.915127 0
M  V30 2116 C 209.455 0.649564 3.53583 0
M  V30 2117 C 209.119 2.03573 4.09154 0
M  V30 2118 C 210.116 3.00675 4.24135 0
M  V30 2119 C 207.801 2.3448 4.44212 0
M  V30 2120 C 209.795 4.26809 4.73405 0
M  V30 2121 C 207.482 3.60857 4.93179 0
M  V30 2122 C 208.48 4.56836 5.0773 0
M  V30 2123 O 208.168 5.80969 5.55635 0
M  V30 2124 H 207.9 0.205372 0.644048 0
M  V30 2125 H 210.454 1.20958 1.66007 0
M  V30 2126 H 208.684 -0.0785592 3.8662 0
M  V30 2127 H 210.373 0.29881 4.04799 0
M  V30 2128 H 211.139 2.78112 3.97339 0
M  V30 2129 H 207.018 1.60534 4.32145 0
M  V30 2130 H 210.562 5.0173 4.84678 0
M  V30 2131 H 206.459 3.83251 5.19412 0
M  V30 2132 H 207.227 5.83542 5.73952 0
M  V30 2133 N 209.89 -1.43072 0.660911 0
M  V30 2134 C 211.13 -2.03596 0.181146 0
M  V30 2135 C 211.494 -1.51057 -1.18515 0
M  V30 2136 O 212.695 -2.03275 -1.75877 0
M  V30 2137 C 210.966 -3.56845 0.19911 0
M  V30 2138 S 212.525 -4.38289 -0.211684 0
M  V30 2139 H 209.343 -0.706954 0.0757479 0
M  V30 2140 H 211.945 -1.75027 0.870965 0
M  V30 2141 H 210.649 -3.92583 1.1961 0
M  V30 2142 H 210.18 -3.90067 -0.510996 0
M  V30 2143 H 212.195 -4.74583 -1.44863 0
M  V30 2144 N 211.368 -0.403325 -1.52352 0
M  V30 2145 C 212.784 -0.0539281 -1.59509 0
M  V30 2146 C 212.984 1.43307 -1.41652 0
M  V30 2147 O 212.04 2.19924 -1.24056 0
M  V30 2148 C 213.353 -0.543654 -2.95745 0
M  V30 2149 C 214.901 -0.501125 -3.08962 0
M  V30 2150 C 215.376 -0.967267 -4.47669 0
M  V30 2151 N 216.867 -0.923849 -4.53893 0
M  V30 2152 C 217.602 -1.25578 -5.5948 0
M  V30 2153 N 217.098 -1.65889 -6.72646 0
M  V30 2154 N 218.891 -1.17613 -5.49658 0
M  V30 2155 H 211.042 -1.37123 -1.62206 0
M  V30 2156 H 213.305 -0.56294 -0.76276 0
M  V30 2157 H 213.011 -1.58275 -3.14073 0
M  V30 2158 H 212.885 0.0498042 -3.77167 0
M  V30 2159 H 215.272 0.528909 -2.90321 0
M  V30 2160 H 215.353 -1.13056 -2.2946 0
M  V30 2161 H 214.997 -1.9956 -4.67053 0
M  V30 2162 H 214.927 -0.314698 -5.25659 0
M  V30 2163 H 217.418 -0.627403 -3.72655 0
M  V30 2164 H 217.731 -1.89543 -7.49195 0
M  V30 2165 H 216.076 -1.69787 -6.73942 0
M  V30 2166 H 219.267 -0.860115 -4.6013 0
M  V30 2167 H 219.44 -1.43812 -6.3184 0
M  V30 2168 N 212.846 1.57033 -0.133567 0
M  V30 2169 C 213.776 2.1909 0.807567 0
M  V30 2170 C 214.757 1.13517 1.26681 0
M  V30 2171 O 215.942 1.41809 1.32679 0
M  V30 2172 C 213.072 2.80188 2.05212 0
M  V30 2173 C 212.026 3.91471 1.73015 0
M  V30 2174 C 211.352 4.39443 3.04622 0
M  V30 2175 C 212.652 5.12886 0.987168 0
M  V30 2176 H 214.346 2.97988 0.290403 0
M  V30 2177 H 211.892 1.43335 0.138239 0
M  V30 2178 H 213.845 3.22264 2.71521 0
M  V30 2179 H 212.569 1.98601 2.59278 0
M  V30 2180 H 211.228 3.49993 1.0909 0
M  V30 2181 H 210.876 3.54695 3.56651 0
M  V30 2182 H 210.576 5.14495 2.83847 0
M  V30 2183 H 212.1 4.8418 3.72024 0
M  V30 2184 H 213.514 5.51891 1.55208 0
M  V30 2185 H 211.911 5.93615 0.87985 0
M  V30 2186 H 212.981 4.84894 -0.0235286 0
M  V30 2187 N 214.325 -0.140222 1.56975 0
M  V30 2188 C 215.257 -1.19818 1.95388 0
M  V30 2189 C 216.27 -1.38816 0.850525 0
M  V30 2190 O 217.459 -1.38267 1.12891 0
M  V30 2191 C 214.559 -2.56189 2.21857 0
M  V30 2192 C 213.732 -2.58077 3.5315 0
M  V30 2193 C 212.791 -3.76037 3.6808 0
M  V30 2194 O 211.817 -3.60598 4.40406 0
M  V30 2195 N 213.019 -4.93763 3.05251 0
M  V30 2196 H 215.784 -0.871609 2.86746 0
M  V30 2197 H 213.345 -0.32972 1.58507 0
M  V30 2198 H 215.337 -3.33623 2.2908 0
M  V30 2199 H 213.907 -2.81111 1.36731 0
M  V30 2200 H 213.127 -1.6651 3.57307 0
M  V30 2201 H 214.415 -2.56377 4.39486 0
M  V30 2202 H 213.813 -5.09209 2.46419 0
M  V30 2203 H 212.37 -5.68949 3.18026 0
M  V30 2204 N 215.803 -1.52179 -0.40978 0
M  V30 2205 C 216.75 -1.75475 -1.49924 0
M  V30 2206 C 217.72 -0.597175 -1.54994 0
M  V30 2207 O 218.905 -0.834655 -1.71575 0
M  V30 2208 C 216.045 -1.9107 -2.87378 0
M  V30 2209 C 215.158 -3.18717 -2.91622 0
M  V30 2210 C 214.293 -3.24747 -4.20372 0
M  V30 2211 C 213.332 -4.46598 -4.18588 0
M  V30 2212 N 212.469 -4.50025 -5.38908 0
M  V30 2213 H 217.309 -2.68458 -1.29361 0
M  V30 2214 H 214.846 -1.33024 -0.627934 0
M  V30 2215 H 216.804 -1.98096 -3.6717 0
M  V30 2216 H 215.434 -1.01469 -3.06437 0
M  V30 2217 H 214.486 -3.20866 -2.04326 0
M  V30 2218 H 215.798 -4.08544 -2.86169 0
M  V30 2219 H 214.952 -3.30841 -5.08556 0
M  V30 2220 H 213.691 -2.32857 -4.28519 0
M  V30 2221 H 212.696 -4.40652 -3.28794 0
M  V30 2222 H 213.921 -5.39783 -4.12081 0
M  V30 2223 H 211.867 -3.61017 -5.47725 0
M  V30 2224 H 211.784 -5.33697 -5.35447 0
M  V30 2225 H 213.052 -4.60347 -6.29048 0
M  V30 2226 N 217.281 0.66697 -1.42791 0
M  V30 2227 C 218.521 1.43892 -1.4517 0
M  V30 2228 C 218.885 1.91877 -0.0687551 0
M  V30 2229 O 220.086 2.6878 0.0327455 0
M  V30 2230 C 218.357 2.59839 -2.45395 0
M  V30 2231 S 219.916 3.48572 -2.66539 0
M  V30 2232 H 216.734 0.491356 -0.513897 0
M  V30 2233 H 219.336 0.775656 -1.79454 0
M  V30 2234 H 218.04 2.22838 -3.44632 0
M  V30 2235 H 217.571 3.3103 -2.12562 0
M  V30 2236 H 219.586 4.56094 -1.95429 0
M  V30 2237 N 218.759 1.29093 0.90403 0
M  V30 2238 C 220.006 1.16813 1.65411 0
M  V30 2239 C 220.334 -0.28128 1.92455 0
M  V30 2240 O 219.589 -1.22006 1.53013 0
M  V30 2241 C 219.888 1.92224 3.01305 0
M  V30 2242 C 219.554 3.41968 2.93885 0
M  V30 2243 C 218.216 3.82807 2.91569 0
M  V30 2244 C 220.568 4.37409 2.83413 0
M  V30 2245 C 217.896 5.1741 2.76594 0
M  V30 2246 C 220.248 5.72097 2.69977 0
M  V30 2247 C 218.912 6.12199 2.66024 0
M  V30 2248 H 218.182 0.42745 0.605283 0
M  V30 2249 H 220.829 1.59981 1.05254 0
M  V30 2250 H 219.134 1.41635 3.65304 0
M  V30 2251 H 220.831 1.80131 3.58265 0
M  V30 2252 H 217.421 3.09504 2.96488 0
M  V30 2253 H 221.605 4.06813 2.84283 0
M  V30 2254 H 216.861 5.47596 2.71935 0
M  V30 2255 H 221.035 6.45704 2.60844 0
M  V30 2256 H 218.662 7.16448 2.54178 0
M  V30 2257 N 220.237 -1.11381 1.11499 0
M  V30 2258 C 221.147 -2.21019 0.786628 0
M  V30 2259 C 222.163 -1.72597 -0.220507 0
M  V30 2260 O 223.339 -2.01321 -0.0565251 0
M  V30 2261 C 220.404 -3.459 0.235333 0
M  V30 2262 C 219.465 -4.09107 1.30115 0
M  V30 2263 C 218.698 -5.28027 0.776068 0
M  V30 2264 O 218.921 -5.6904 -0.393661 0
M  V30 2265 O 217.855 -5.81835 1.54114 0
M  V30 2266 H 221.681 -2.51521 1.70209 0
M  V30 2267 H 219.266 -1.19928 0.890928 0
M  V30 2268 H 221.148 -4.21346 -0.067715 0
M  V30 2269 H 219.823 -3.17049 -0.652828 0
M  V30 2270 H 218.73 -3.35391 1.65722 0
M  V30 2271 H 220.063 -4.42139 2.16273 0
M  V30 2272 N 221.715 -0.905404 -1.28997 0
M  V30 2273 C 222.961 -0.535039 -1.95615 0
M  V30 2274 C 223.294 0.917404 -1.71165 0
M  V30 2275 O 222.569 1.65123 -1.02785 0
M  V30 2276 C 222.852 -0.834918 -3.50287 0
M  V30 2277 C 222.705 -2.33948 -3.84172 0
M  V30 2278 C 224.024 -0.325318 -4.38896 0
M  V30 2279 H 221.143 -0.195861 -0.710498 0
M  V30 2280 H 223.785 -1.13313 -1.52513 0
M  V30 2281 H 221.935 -0.325904 -3.87131 0
M  V30 2282 H 223.607 -2.91847 -3.57243 0
M  V30 2283 H 221.85 -2.79789 -3.31513 0
M  V30 2284 H 222.521 -2.49987 -4.92149 0
M  V30 2285 H 224.997 -0.761256 -4.09077 0
M  V30 2286 H 223.873 -0.564295 -5.45992 0
M  V30 2287 H 224.134 0.774144 -4.35269 0
M  V30 2288 N 223.193 1.4272 -0.668489 0
M  V30 2289 C 224.441 2.01226 -0.187769 0
M  V30 2290 C 224.762 1.53092 1.2078 0
M  V30 2291 O 224.032 0.74993 1.80977 0
M  V30 2292 H 222.612 0.744041 -0.0664272 0
M  V30 2293 H 225.274 1.74723 -0.863583 0
M  V30 2294 H 224.37 3.11556 -0.184166 0
M  V30 2295 N 224.671 0.411399 1.52136 0
M  V30 2296 C 225.604 -0.457614 2.23565 0
M  V30 2297 C 226.582 -1.04613 1.24478 0
M  V30 2298 O 227.766 -1.09356 1.53536 0
M  V30 2299 C 224.893 -1.6354 2.96602 0
M  V30 2300 C 223.939 -1.17005 4.10137 0
M  V30 2301 S 224.772 -0.13333 5.35334 0
M  V30 2302 C 225.928 -1.31638 6.119 0
M  V30 2303 H 226.161 0.148883 2.96927 0
M  V30 2304 H 223.694 0.195713 1.53155 0
M  V30 2305 H 225.652 -2.31074 3.39286 0
M  V30 2306 H 224.313 -2.21324 2.22878 0
M  V30 2307 H 223.506 -2.05005 4.60422 0
M  V30 2308 H 223.108 -0.573319 3.6958 0
M  V30 2309 H 225.4 -2.23957 6.39413 0
M  V30 2310 H 226.343 -0.854014 7.02931 0
M  V30 2311 H 226.751 -1.54321 5.42997 0
M  V30 2312 N 226.149 -1.5696 0.141893 0
M  V30 2313 C 227.374 -2.00754 -0.520838 0
M  V30 2314 C 227.799 -1.0213 -1.57959 0
M  V30 2315 O 227.157 0.00371324 -1.813 0
M  V30 2316 C 227.205 -3.43318 -1.10294 0
M  V30 2317 O 226.309 -3.47679 -2.21795 0
M  V30 2318 H 225.65 -0.651564 -0.127908 0
M  V30 2319 H 228.18 -2.03221 0.23712 0
M  V30 2320 H 228.19 -3.82012 -1.43287 0
M  V30 2321 H 226.865 -4.14608 -0.327574 0
M  V30 2322 H 225.442 -3.20824 -1.9007 0
M  V30 2323 N 227.627 0.131896 -1.57047 0
M  V30 2324 C 228.574 1.16236 -1.99393 0
M  V30 2325 C 229.544 1.41863 -0.863943 0
M  V30 2326 O 230.729 1.53946 -1.12718 0
M  V30 2327 C 227.869 2.48708 -2.39245 0
M  V30 2328 C 226.982 2.30127 -3.65603 0
M  V30 2329 C 226.117 3.55738 -3.94492 0
M  V30 2330 C 225.156 3.32259 -5.14073 0
M  V30 2331 N 224.293 4.50039 -5.38896 0
M  V30 2332 H 229.133 0.794251 -2.87221 0
M  V30 2333 H 226.67 0.380707 -1.42088 0
M  V30 2334 H 228.628 3.25969 -2.60384 0
M  V30 2335 H 227.258 2.83437 -1.54478 0
M  V30 2336 H 226.31 1.43845 -3.52154 0
M  V30 2337 H 227.622 2.08746 -4.5302 0
M  V30 2338 H 226.776 4.41423 -4.1621 0
M  V30 2339 H 225.515 3.80138 -3.05526 0
M  V30 2340 H 224.52 2.44963 -4.92212 0
M  V30 2341 H 225.745 3.09242 -6.04604 0
M  V30 2342 H 223.691 4.74584 -4.52886 0
M  V30 2343 H 223.608 4.31716 -6.2061 0
M  V30 2344 H 224.876 5.36895 -5.65123 0
M  V30 2345 N 229.106 1.52395 0.401703 0
M  V30 2346 C 230.016 1.7917 1.51444 0
M  V30 2347 C 231.032 0.677691 1.6026 0
M  V30 2348 O 232.208 0.963909 1.76835 0
M  V30 2349 C 229.273 1.94347 2.87107 0
M  V30 2350 C 228.334 3.18257 2.88116 0
M  V30 2351 C 227.567 3.32701 4.17308 0
M  V30 2352 O 227.79 2.52238 5.11598 0
M  V30 2353 O 226.724 4.25891 4.25324 0
M  V30 2354 H 230.55 2.73633 1.31752 0
M  V30 2355 H 228.135 1.3733 0.588296 0
M  V30 2356 H 230.017 2.06109 3.67555 0
M  V30 2357 H 228.692 1.03073 3.06851 0
M  V30 2358 H 227.599 3.11947 2.06494 0
M  V30 2359 H 228.932 4.09336 2.73322 0
M  V30 2360 N 230.584 -0.659388 1.43143 0
M  V30 2361 C 231.809 -1.45221 1.48073 0
M  V30 2362 C 232.234 -1.87845 0.097995 0
M  V30 2363 O 231.592 -1.56985 -0.90694 0
M  V30 2364 C 231.64 -2.66748 2.42647 0
M  V30 2365 O 230.744 -3.65583 1.90848 0
M  V30 2366 H 230.085 -0.435669 0.501088 0
M  V30 2367 H 232.615 -0.807432 1.87994 0
M  V30 2368 H 232.625 -3.14637 2.59745 0
M  V30 2369 H 231.3 -2.35067 3.43098 0
M  V30 2370 H 229.877 -3.24693 1.83381 0
M  V30 2371 N 232.062 -1.29571 -0.897171 0
M  V30 2372 C 233.308 -1.17863 -1.65034 0
M  V30 2373 C 233.641 0.268729 -1.92332 0
M  V30 2374 O 232.916 1.19378 -1.53555 0
M  V30 2375 C 233.199 -1.995 -2.99786 0
M  V30 2376 C 233.052 -3.5239 -2.79538 0
M  V30 2377 C 234.371 -1.82335 -4.00552 0
M  V30 2378 H 231.49 -0.429528 -0.598895 0
M  V30 2379 H 234.132 -1.59072 -1.03905 0
M  V30 2380 H 232.282 -1.64485 -3.51962 0
M  V30 2381 H 233.954 -3.97401 -2.34244 0
M  V30 2382 H 232.197 -3.77187 -2.14273 0
M  V30 2383 H 232.868 -4.04787 -3.75302 0
M  V30 2384 H 235.344 -2.12924 -3.57495 0
M  V30 2385 H 234.22 -2.41801 -4.92771 0
M  V30 2386 H 234.481 -0.779209 -4.35179 0
M  V30 2387 N 233.54 1.10788 -1.12088 0
M  V30 2388 C 234.956 1.34691 -0.856186 0
M  V30 2389 C 235.156 1.94791 0.515615 0
M  V30 2390 O 234.212 2.18524 1.26505 0
M  V30 2391 C 235.525 2.27208 -1.9697 0
M  V30 2392 C 237.073 2.40755 -2.00016 0
M  V30 2393 C 237.548 3.36598 -3.1059 0
M  V30 2394 N 239.039 3.44164 -3.10008 0
M  V30 2395 C 239.774 4.18284 -3.92206 0
M  V30 2396 N 239.27 4.95322 -4.84384 0
M  V30 2397 N 241.063 4.13865 -3.80357 0
M  V30 2398 H 233.214 0.70144 -2.00483 0
M  V30 2399 H 235.477 0.371405 -0.872217 0
M  V30 2400 H 235.183 1.90251 -2.958 0
M  V30 2401 H 235.057 3.27485 -1.87172 0
M  V30 2402 H 237.444 2.76982 -1.01808 0
M  V30 2403 H 237.525 1.40305 -2.13888 0
M  V30 2404 H 237.169 3.01096 -4.09028 0
M  V30 2405 H 237.099 4.36918 -2.93956 0
M  V30 2406 H 239.59 2.8922 -2.43228 0
M  V30 2407 H 239.903 5.49267 -5.43623 0
M  V30 2408 H 238.248 4.94459 -4.884 0
M  V30 2409 H 241.439 3.52773 -3.07683 0
M  V30 2410 H 241.612 4.71372 -4.44649 0
M  V30 2411 N 235.018 0.912232 1.28515 0
M  V30 2412 C 235.966 0.389597 2.29314 0
M  V30 2413 C 236.96 -0.517915 1.61289 0
M  V30 2414 O 238.166 -0.399328 1.75515 0
M  V30 2415 H 234.541 0.107386 0.744293 0
M  V30 2416 H 236.512 1.25286 2.70825 0
M  V30 2417 C 235.261 -0.356496 3.45868 0
M  V30 2418 H 234.584 0.332608 3.98414 0
M  V30 2419 H 236.024 -0.686851 4.184 0
M  V30 2420 C 234.483 -1.56383 2.98406 0
M  V30 2421 O 235.013 -2.66294 3.00749 0
M  V30 2422 N 233.219 -1.41029 2.54085 0
M  V30 2423 H 232.766 -0.516089 2.52377 0
M  V30 2424 H 232.724 -2.21939 2.22689 0
M  V30 2425 N 236.496 -1.42363 0.676048 0
M  V30 2426 C 237.773 -1.95183 0.127726 0
M  V30 2427 C 238.153 -1.61641 -1.35777 0
M  V30 2428 O 237.501 -0.913216 -2.09458 0
M  V30 2429 C 237.711 -3.46721 0.398199 0
M  V30 2430 C 239.059 -4.23427 0.315383 0
M  V30 2431 O 240.083 -3.54649 0.332016 0
M  V30 2432 O 238.942 -5.45888 0.25865 0
M  V30 2433 H 236.036 -0.826992 0.00359427 0
M  V30 2434 H 238.582 -1.52184 0.750864 0
M  V30 2435 H 237.354 -3.64344 1.4272 0
M  V30 2436 H 236.977 -3.96769 -0.256885 0
M  V30 2437 N 237.974 -0.419461 -1.51915 0
M  V30 2438 C 239.39 -0.0708431 -1.59443 0
M  V30 2439 C 239.59 1.41796 -1.43164 0
M  V30 2440 O 238.646 2.18596 -1.26381 0
M  V30 2441 C 239.959 -0.574991 -2.95151 0
M  V30 2442 C 241.507 -0.533867 -3.08413 0
M  V30 2443 C 241.982 -1.01469 -4.46618 0
M  V30 2444 N 243.473 -0.971939 -4.52888 0
M  V30 2445 C 244.208 -1.31505 -5.58116 0
M  V30 2446 N 243.704 -1.73014 -6.70849 0
M  V30 2447 N 245.497 -1.23436 -5.48379 0
M  V30 2448 H 237.648 -1.38836 -1.60743 0
M  V30 2449 H 239.911 -0.570998 -0.756747 0
M  V30 2450 H 239.617 -1.61597 -3.12377 0
M  V30 2451 H 239.491 0.00979777 -3.77199 0
M  V30 2452 H 241.878 0.498086 -2.90866 0
M  V30 2453 H 241.959 -1.15484 -2.28248 0
M  V30 2454 H 241.603 -2.04502 -4.6491 0
M  V30 2455 H 241.533 -0.370433 -5.25295 0
M  V30 2456 H 244.024 -0.666893 -3.71969 0
M  V30 2457 H 244.337 -1.97479 -7.47143 0
M  V30 2458 H 242.682 -1.76926 -6.72103 0
M  V30 2459 H 245.873 -0.908869 -4.59192 0
M  V30 2460 H 246.046 -1.50506 -6.30279 0
M  V30 2461 N 239.452 1.56882 -0.150215 0
M  V30 2462 C 240.4 2.18214 0.805313 0
M  V30 2463 C 241.394 1.14006 1.25296 0
M  V30 2464 O 242.6 1.3225 1.22107 0
M  V30 2465 H 238.975 0.698762 0.277913 0
M  V30 2466 H 240.946 2.97231 0.263862 0
M  V30 2467 C 239.695 2.82065 2.03309 0
M  V30 2468 H 239.018 3.61968 1.69763 0
M  V30 2469 H 240.458 3.28477 2.68103 0
M  V30 2470 C 238.917 1.80739 2.84315 0
M  V30 2471 O 239.447 1.27983 3.80767 0
M  V30 2472 N 237.653 1.4997 2.48913 0
M  V30 2473 H 237.2 1.93062 1.70542 0
M  V30 2474 H 237.158 0.824217 3.03404 0
M  V30 2475 N 240.93 -0.123565 1.57115 0
M  V30 2476 C 241.877 -1.15177 2.00007 0
M  V30 2477 C 242.847 -1.41403 0.871454 0
M  V30 2478 O 244.032 -1.53346 1.13533 0
M  V30 2479 C 241.172 -2.47436 2.40561 0
M  V30 2480 C 240.285 -2.28184 3.66819 0
M  V30 2481 C 239.42 -3.53641 3.96373 0
M  V30 2482 C 238.459 -3.29528 5.15827 0
M  V30 2483 N 237.596 -4.47175 5.41275 0
M  V30 2484 H 242.436 -0.779008 2.87638 0
M  V30 2485 H 239.973 -0.373166 1.42288 0
M  V30 2486 H 241.931 -3.24584 2.62109 0
M  V30 2487 H 240.561 -2.82614 1.55978 0
M  V30 2488 H 239.613 -1.41976 3.52912 0
M  V30 2489 H 240.925 -2.0634 4.5412 0
M  V30 2490 H 240.079 -4.39209 4.18545 0
M  V30 2491 H 238.818 -3.78512 3.07538 0
M  V30 2492 H 237.823 -2.42349 4.93505 0
M  V30 2493 H 239.048 -3.06031 6.06236 0
M  V30 2494 H 236.994 -4.72175 4.55397 0
M  V30 2495 H 236.911 -4.28419 6.22891 0
M  V30 2496 H 238.179 -5.3389 5.67963 0
M  V30 2497 N 242.408 -1.52605 -0.393616 0
M  V30 2498 C 243.355 -1.77055 -1.48054 0
M  V30 2499 C 244.325 -0.61358 -1.54352 0
M  V30 2500 O 245.51 -0.852806 -1.70681 0
M  V30 2501 C 242.65 -1.94108 -2.85335 0
M  V30 2502 C 241.763 -3.21792 -2.88226 0
M  V30 2503 C 240.898 -3.29188 -4.16904 0
M  V30 2504 C 239.937 -4.51013 -4.13828 0
M  V30 2505 N 239.074 -4.55716 -5.34105 0
M  V30 2506 H 243.914 -2.69815 -1.26506 0
M  V30 2507 H 241.451 -1.33683 -0.61379 0
M  V30 2508 H 243.409 -2.01979 -3.65049 0
M  V30 2509 H 242.039 -1.04713 -3.05344 0
M  V30 2510 H 241.091 -3.23015 -2.00911 0
M  V30 2511 H 242.403 -4.11557 -2.8182 0
M  V30 2512 H 241.557 -3.36216 -5.05018 0
M  V30 2513 H 240.296 -2.37389 -4.26026 0
M  V30 2514 H 239.301 -4.44115 -3.24102 0
M  V30 2515 H 240.526 -5.44123 -4.06333 0
M  V30 2516 H 238.472 -3.66807 -5.43865 0
M  V30 2517 H 238.389 -5.39346 -5.29756 0
M  V30 2518 H 239.657 -4.66993 -6.2413 0
M  V30 2519 N 243.887 0.651787 -1.4349 0
M  V30 2520 C 244.834 1.76462 -1.4876 0
M  V30 2521 C 245.804 1.62641 -0.337189 0
M  V30 2522 O 246.989 1.82864 -0.544544 0
M  V30 2523 C 244.129 3.14623 -1.41796 0
M  V30 2524 C 243.242 3.39568 -2.67053 0
M  V30 2525 C 242.377 4.67585 -2.52068 0
M  V30 2526 C 241.416 4.85639 -3.72587 0
M  V30 2527 N 240.553 6.04915 -3.56402 0
M  V30 2528 H 245.393 1.71293 -2.43849 0
M  V30 2529 H 242.93 0.835889 -1.21043 0
M  V30 2530 H 244.888 3.94496 -1.35753 0
M  V30 2531 H 243.518 3.18859 -0.50288 0
M  V30 2532 H 242.57 2.53783 -2.8337 0
M  V30 2533 H 243.882 3.48795 -3.56572 0
M  V30 2534 H 243.036 5.55586 -2.4374 0
M  V30 2535 H 241.775 4.60681 -1.60075 0
M  V30 2536 H 240.78 3.96073 -3.81321 0
M  V30 2537 H 242.005 4.94372 -4.65589 0
M  V30 2538 H 239.951 5.9914 -2.67146 0
M  V30 2539 H 239.868 6.15106 -4.39524 0
M  V30 2540 H 241.136 6.95533 -3.51929 0
M  V30 2541 N 245.365 1.30045 0.890287 0
M  V30 2542 C 246.312 1.15976 1.99545 0
M  V30 2543 C 247.282 0.0506202 1.66023 0
M  V30 2544 O 248.467 0.219847 1.89529 0
M  V30 2545 C 245.607 0.852054 3.34416 0
M  V30 2546 C 244.72 2.04255 3.80662 0
M  V30 2547 C 243.855 1.6734 5.04154 0
M  V30 2548 C 242.894 2.82916 5.42794 0
M  V30 2549 N 242.031 2.46333 6.57468 0
M  V30 2550 H 246.871 2.10524 2.10911 0
M  V30 2551 H 244.408 1.04749 1.03276 0
M  V30 2552 H 246.366 0.654296 4.12037 0
M  V30 2553 H 244.996 -0.0565502 3.2275 0
M  V30 2554 H 244.048 2.35172 2.98995 0
M  V30 2555 H 245.36 2.90826 4.05242 0
M  V30 2556 H 244.514 1.43908 5.89386 0
M  V30 2557 H 243.253 0.779308 4.81433 0
M  V30 2558 H 242.258 3.0702 4.56091 0
M  V30 2559 H 243.483 3.73004 5.6749 0
M  V30 2560 H 241.429 1.59423 6.36334 0
M  V30 2561 H 241.346 3.26436 6.81891 0
M  V30 2562 H 242.614 2.26244 7.45945 0
M  V30 2563 N 246.843 -1.10192 1.12674 0
M  V30 2564 C 247.753 -2.20172 0.810026 0
M  V30 2565 C 248.769 -1.72821 -0.202188 0
M  V30 2566 O 249.945 -2.01369 -0.0351691 0
M  V30 2567 C 247.01 -3.45631 0.272007 0
M  V30 2568 C 246.071 -4.07704 1.34447 0
M  V30 2569 C 245.304 -5.27175 0.832029 0
M  V30 2570 O 245.527 -5.69425 -0.333284 0
M  V30 2571 O 244.461 -5.80168 1.60277 0
M  V30 2572 H 248.287 -2.49701 1.72867 0
M  V30 2573 H 245.872 -1.18977 0.903597 0
M  V30 2574 H 247.754 -4.21394 -0.0230219 0
M  V30 2575 H 246.429 -3.17723 -0.619164 0
M  V30 2576 H 245.336 -3.33614 1.6927 0
M  V30 2577 H 246.669 -4.3982 2.2095 0
M  V30 2578 N 248.321 -0.919034 -1.28029 0
M  V30 2579 C 249.549 -0.570971 -1.98866 0
M  V30 2580 C 249.964 0.848996 -1.68634 0
M  V30 2581 O 249.321 1.56307 -0.942036 0
M  V30 2582 C 249.372 -0.776876 -3.53054 0
M  V30 2583 O 249.093 -2.14097 -3.82222 0
M  V30 2584 C 250.594 -0.436356 -4.41147 0
M  V30 2585 H 247.814 -0.217175 -0.634883 0
M  V30 2586 H 250.358 -1.23368 -1.63097 0
M  V30 2587 H 248.513 -0.161085 -3.87065 0
M  V30 2588 H 248.927 -2.18455 -4.76841 0
M  V30 2589 H 250.401 -0.63117 -5.4838 0
M  V30 2590 H 250.878 0.627686 -4.34692 0
M  V30 2591 H 251.484 -1.02991 -4.12641 0
M  V30 2592 N 249.799 1.42003 -0.683588 0
M  V30 2593 C 251.024 2.06265 -0.216647 0
M  V30 2594 C 251.449 1.51059 1.12083 0
M  V30 2595 O 250.807 0.632638 1.69904 0
M  V30 2596 C 250.855 3.60191 -0.171759 0
M  V30 2597 O 249.959 4.03396 0.857069 0
M  V30 2598 H 249.3 0.65502 -0.108834 0
M  V30 2599 H 251.83 1.81982 -0.935077 0
M  V30 2600 H 251.84 4.08 0.0014303 0
M  V30 2601 H 250.515 3.99743 -1.14796 0
M  V30 2602 H 249.092 3.67117 0.654208 0
M  V30 2603 N 251.277 0.427512 1.51691 0
M  V30 2604 C 252.224 -0.388867 2.275 0
M  V30 2605 C 253.194 -1.02532 1.30677 0
M  V30 2606 O 254.379 -1.0461 1.59566 0
M  V30 2607 C 251.519 -1.48954 3.11298 0
M  V30 2608 C 250.632 -0.872194 4.23104 0
M  V30 2609 C 249.767 -1.94709 4.94228 0
M  V30 2610 C 248.806 -1.30766 5.97969 0
M  V30 2611 N 247.943 -2.32349 6.62539 0
M  V30 2612 H 252.783 0.263997 2.96828 0
M  V30 2613 H 250.32 0.142033 1.46413 0
M  V30 2614 H 252.278 -2.13887 3.58201 0
M  V30 2615 H 250.908 -2.11217 2.44105 0
M  V30 2616 H 249.96 -0.111419 3.80237 0
M  V30 2617 H 251.272 -0.365264 4.97461 0
M  V30 2618 H 250.426 -2.67327 5.44629 0
M  V30 2619 H 249.165 -2.48773 4.1948 0
M  V30 2620 H 248.17 -0.566902 5.4687 0
M  V30 2621 H 249.395 -0.774483 6.74669 0
M  V30 2622 H 247.341 -2.85511 5.90609 0
M  V30 2623 H 247.258 -1.8652 7.3263 0
M  V30 2624 H 248.526 -3.04481 7.17574 0
M  V30 2625 N 252.755 -1.56801 0.158532 0
M  V30 2626 C 253.687 -2.14488 -0.807923 0
M  V30 2627 C 254.7 -1.09721 -1.20271 0
M  V30 2628 O 255.889 -1.36956 -1.14478 0
M  V30 2629 C 252.989 -2.66217 -2.09718 0
M  V30 2630 C 252.162 -3.95507 -1.86796 0
M  V30 2631 C 251.221 -4.3243 -2.99818 0
M  V30 2632 O 250.247 -5.00543 -2.71008 0
M  V30 2633 N 251.449 -3.92947 -4.27285 0
M  V30 2634 H 254.214 -2.98042 -0.314816 0
M  V30 2635 H 251.775 -1.61881 -0.0246692 0
M  V30 2636 H 253.767 -2.87924 -2.84398 0
M  V30 2637 H 252.337 -1.87324 -2.50257 0
M  V30 2638 H 251.557 -3.82309 -0.96089 0
M  V30 2639 H 252.845 -4.79972 -1.68833 0
M  V30 2640 H 252.243 -3.38087 -4.53557 0
M  V30 2641 H 250.8 -4.19681 -4.9871 0
M  V30 2642 N 254.233 0.115231 -1.57178 0
M  V30 2643 C 255.143 1.15994 -2.03918 0
M  V30 2644 C 256.159 1.45103 -0.960268 0
M  V30 2645 O 257.335 1.56144 -1.27204 0
M  V30 2646 C 254.4 2.46568 -2.43732 0
M  V30 2647 C 253.461 2.24822 -3.65723 0
M  V30 2648 C 252.694 3.4917 -4.03629 0
M  V30 2649 O 252.917 4.56623 -3.41835 0
M  V30 2650 O 251.851 3.39949 -4.96708 0
M  V30 2651 H 255.677 0.793019 -2.93164 0
M  V30 2652 H 253.262 0.3263 -1.45793 0
M  V30 2653 H 255.144 3.23492 -2.70057 0
M  V30 2654 H 253.819 2.82726 -1.57631 0
M  V30 2655 H 252.726 1.45744 -3.44542 0
M  V30 2656 H 254.059 1.93566 -4.52541 0
M  V30 2657 N 255.711 1.52812 0.385517 0
M  V30 2658 C 256.951 1.69716 1.13911 0
M  V30 2659 C 257.315 0.42962 1.87132 0
M  V30 2660 O 258.516 0.475071 2.64569 0
M  V30 2661 C 256.787 2.90021 2.0886 0
M  V30 2662 S 258.346 3.27531 2.92009 0
M  V30 2663 H 255.164 0.59739 0.385547 0
M  V30 2664 H 257.766 1.90868 0.423061 0
M  V30 2665 H 256.47 3.80493 1.53797 0
M  V30 2666 H 256.001 2.71213 2.84969 0
M  V30 2667 H 258.016 2.77989 4.11019 0
M  V30 2668 N 257.189 -0.644168 1.43834 0
M  V30 2669 C 258.417 -1.43147 1.49387 0
M  V30 2670 C 258.832 -1.88452 0.114583 0
M  V30 2671 O 258.189 -1.60047 -0.876989 0
M  V30 2672 C 258.24 -2.66046 2.44748 0
M  V30 2673 O 257.961 -2.22633 3.77314 0
M  V30 2674 C 259.462 -3.59311 2.59635 0
M  V30 2675 H 256.682 -0.439447 0.507077 0
M  V30 2676 H 259.226 -0.78895 1.88669 0
M  V30 2677 H 257.381 -3.26418 2.08638 0
M  V30 2678 H 257.795 -3.02216 4.28679 0
M  V30 2679 H 259.269 -4.42187 3.30416 0
M  V30 2680 H 259.746 -4.07259 1.64427 0
M  V30 2681 H 260.352 -3.04816 2.96593 0
M  V30 2682 N 258.668 -1.30515 -0.883378 0
M  V30 2683 C 259.578 -1.18959 -2.02203 0
M  V30 2684 C 260.594 -0.109172 -1.73657 0
M  V30 2685 O 261.77 -0.324413 -1.9877 0
M  V30 2686 C 258.835 -0.883871 -3.35244 0
M  V30 2687 C 257.896 -2.04982 -3.77201 0
M  V30 2688 C 257.129 -1.75859 -5.03894 0
M  V30 2689 O 257.352 -0.687276 -5.66244 0
M  V30 2690 O 256.286 -2.61146 -5.42297 0
M  V30 2691 H 260.112 -2.14616 -2.1488 0
M  V30 2692 H 257.697 -1.10124 -1.0096 0
M  V30 2693 H 259.579 -0.728644 -4.15053 0
M  V30 2694 H 258.254 0.0427798 -3.23672 0
M  V30 2695 H 257.161 -2.26038 -2.9809 0
M  V30 2696 H 258.494 -2.95825 -3.93381 0
M  V30 2697 N 260.146 1.09593 -1.13257 0
M  V30 2698 C 261.371 1.8604 -0.916732 0
M  V30 2699 C 261.796 1.80504 0.529146 0
M  V30 2700 O 261.154 1.18127 1.37534 0
M  V30 2701 C 261.202 3.32017 -1.40703 0
M  V30 2702 O 260.306 4.08141 -0.591153 0
M  V30 2703 H 259.647 0.576943 -0.328683 0
M  V30 2704 H 262.177 1.38405 -1.50682 0
M  V30 2705 H 262.187 3.82865 -1.4099 0
M  V30 2706 H 260.862 3.35361 -2.45979 0
M  V30 2707 H 259.439 3.67084 -0.656005 0
M  V30 2708 N 261.624 0.925811 1.2754 0
M  V30 2709 C 262.854 0.580666 1.98272 0
M  V30 2710 C 263.262 -0.845207 1.69272 0
M  V30 2711 O 262.605 -1.57306 0.948707 0
M  V30 2712 C 262.667 0.724418 3.52126 0
M  V30 2713 C 262.331 2.12206 4.04744 0
M  V30 2714 C 263.328 3.09604 4.17662 0
M  V30 2715 C 261.013 2.4385 4.39138 0
M  V30 2716 C 263.007 4.36755 4.64246 0
M  V30 2717 C 260.694 3.71237 4.85414 0
M  V30 2718 C 261.692 4.67503 4.97926 0
M  V30 2719 O 261.38 5.92624 5.43187 0
M  V30 2720 H 261.112 0.218987 0.639547 0
M  V30 2721 H 263.666 1.24452 1.63404 0
M  V30 2722 H 261.896 0.0034663 3.867 0
M  V30 2723 H 263.585 0.384607 4.04074 0
M  V30 2724 H 264.351 2.86478 3.91351 0
M  V30 2725 H 260.23 1.69665 4.28643 0
M  V30 2726 H 263.774 5.11898 4.73927 0
M  V30 2727 H 259.671 3.94182 5.11166 0
M  V30 2728 H 260.439 5.95585 5.61445 0
M  V30 2729 N 263.102 -1.41638 0.69111 0
M  V30 2730 C 264.012 -2.34588 0.0233487 0
M  V30 2731 C 265.028 -1.55987 -0.770984 0
M  V30 2732 O 266.204 -1.88486 -0.709569 0
M  V30 2733 C 263.269 -3.34684 -0.904851 0
M  V30 2734 C 262.33 -4.29176 -0.103225 0
M  V30 2735 C 261.563 -5.2449 -0.987216 0
M  V30 2736 O 261.786 -5.2514 -2.22674 0
M  V30 2737 O 260.72 -6.00295 -0.439281 0
M  V30 2738 H 264.546 -2.93261 0.789416 0
M  V30 2739 H 262.131 -1.42417 0.45142 0
M  V30 2740 H 264.013 -3.96133 -1.43724 0
M  V30 2741 H 262.688 -2.78461 -1.65049 0
M  V30 2742 H 261.595 -3.71089 0.473655 0
M  V30 2743 H 262.928 -4.88484 0.60365 0
M  V30 2744 N 264.58 -0.43555 -1.51462 0
M  V30 2745 C 265.513 0.421989 -2.24264 0
M  V30 2746 C 266.491 1.02619 -1.26127 0
M  V30 2747 O 267.675 1.069 -1.55257 0
M  V30 2748 C 264.802 1.588 -2.99166 0
M  V30 2749 C 263.848 1.10465 -4.11946 0
M  V30 2750 S 264.681 0.048146 -5.35478 0
M  V30 2751 C 265.837 1.21887 -6.13917 0
M  V30 2752 H 266.07 -0.196102 -2.96653 0
M  V30 2753 H 263.603 -0.220054 -1.52824 0
M  V30 2754 H 265.561 2.25647 -3.42919 0
M  V30 2755 H 264.222 2.1775 -2.26371 0
M  V30 2756 H 263.415 1.97654 -4.63626 0
M  V30 2757 H 263.017 0.51445 -3.70445 0
M  V30 2758 H 265.309 2.13756 -6.42895 0
M  V30 2759 H 266.252 0.742076 -7.04201 0
M  V30 2760 H 266.66 1.45663 -5.45383 0
M  V30 2761 N 266.058 1.56714 -0.166846 0
M  V30 2762 C 267.286 2.0112 0.485644 0
M  V30 2763 C 267.701 1.04705 1.57106 0
M  V30 2764 O 267.058 0.0471923 1.82439 0
M  V30 2765 C 267.109 3.45361 1.06808 0
M  V30 2766 O 266.83 4.38092 0.0259995 0
M  V30 2767 C 268.331 4.05145 1.79924 0
M  V30 2768 H 265.551 0.65931 0.124704 0
M  V30 2769 H 268.095 2.02746 -0.267262 0
M  V30 2770 H 266.25 3.44524 1.7715 0
M  V30 2771 H 266.664 5.22519 0.455398 0
M  V30 2772 H 268.138 5.08009 2.15942 0
M  V30 2773 H 268.615 3.46982 2.69258 0
M  V30 2774 H 269.221 4.09672 1.14234 0
M  V30 2775 N 267.536 -0.106894 1.57237 0
M  V30 2776 C 268.499 -1.11466 2.0027 0
M  V30 2777 C 269.499 -1.33623 0.894519 0
M  V30 2778 O 270.689 -1.29935 1.16028 0
M  V30 2779 C 267.821 -2.46646 2.35327 0
M  V30 2780 H 269.014 -0.744516 2.90512 0
M  V30 2781 H 266.567 -0.351576 1.52295 0
M  V30 2782 H 267.302 -2.88558 1.48003 0
M  V30 2783 H 267.087 -2.31915 3.16161 0
M  V30 2784 H 268.577 -3.19151 2.69318 0
M  V30 2785 N 269.014 -1.53014 -0.377408 0
M  V30 2786 C 269.924 -1.81557 -1.48574 0
M  V30 2787 C 270.94 -0.703102 -1.59162 0
M  V30 2788 O 272.116 -0.99192 -1.75279 0
M  V30 2789 C 269.181 -1.9889 -2.83978 0
M  V30 2790 C 268.242 -3.22801 -2.83016 0
M  V30 2791 C 267.475 -3.39298 -4.11962 0
M  V30 2792 O 267.698 -2.60345 -5.0752 0
M  V30 2793 O 266.632 -4.32604 -4.18494 0
M  V30 2794 H 270.458 -2.75695 -1.27382 0
M  V30 2795 H 268.043 -1.38248 -0.566373 0
M  V30 2796 H 269.925 -2.11931 -3.6423 0
M  V30 2797 H 268.6 -1.07942 -3.05172 0
M  V30 2798 H 267.507 -3.15193 -2.01505 0
M  V30 2799 H 268.84 -4.13632 -2.66775 0
M  V30 2800 N 270.492 0.636531 -1.44174 0
M  V30 2801 C 271.422 1.76003 -1.53444 0
M  V30 2802 C 272.403 1.65619 -0.387841 0
M  V30 2803 O 273.588 1.84461 -0.607257 0
M  V30 2804 C 270.718 3.14511 -1.4731 0
M  V30 2805 C 269.672 3.39677 -2.60391 0
M  V30 2806 C 268.998 4.78159 -2.39308 0
M  V30 2807 C 270.298 3.32772 -4.02567 0
M  V30 2808 H 271.992 1.68501 -2.47483 0
M  V30 2809 H 269.538 0.809237 -1.19111 0
M  V30 2810 H 271.491 3.92878 -1.52397 0
M  V30 2811 H 270.215 3.22783 -0.49785 0
M  V30 2812 H 268.874 2.63688 -2.54684 0
M  V30 2813 H 268.522 4.83128 -1.39988 0
M  V30 2814 H 268.222 4.95956 -3.15122 0
M  V30 2815 H 269.746 5.58762 -2.46205 0
M  V30 2816 H 271.16 4.01051 -4.09672 0
M  V30 2817 H 269.557 3.62104 -4.7854 0
M  V30 2818 H 270.627 2.30669 -4.2652 0
M  V30 2819 N 271.97 1.30982 0.876444 0
M  V30 2820 C 273.247 1.10942 1.61094 0
M  V30 2821 C 273.627 -0.338223 2.08373 0
M  V30 2822 O 272.975 -1.33122 1.85717 0
M  V30 2823 C 273.185 2.11789 2.77392 0
M  V30 2824 C 274.533 2.43965 3.47514 0
M  V30 2825 O 275.557 2.10166 2.87591 0
M  V30 2826 O 274.416 3.01817 4.55597 0
M  V30 2827 H 271.51 0.42667 0.708436 0
M  V30 2828 H 274.056 1.42438 0.922474 0
M  V30 2829 H 272.828 3.09194 2.39823 0
M  V30 2830 H 272.451 1.81161 3.5393 0
M  V30 2831 N 273.449 -1.08991 1.13837 0
M  V30 2832 C 274.726 -1.77863 0.813876 0
M  V30 2833 C 275.106 -1.99375 -0.693746 0
M  V30 2834 O 274.454 -1.59875 -1.63255 0
M  V30 2835 C 274.664 -3.0986 1.60586 0
M  V30 2836 C 276.012 -3.84493 1.8014 0
M  V30 2837 O 277.036 -3.19624 1.57222 0
M  V30 2838 O 275.895 -5.00957 2.18413 0
M  V30 2839 H 272.989 -0.771589 0.297624 0
M  V30 2840 H 275.535 -1.15507 1.24323 0
M  V30 2841 H 274.307 -2.89715 2.63022 0
M  V30 2842 H 273.93 -3.79942 1.17173 0
M  V30 2843 N 274.927 -0.932562 -1.27047 0
M  V30 2844 C 275.857 -0.452902 -2.29066 0
M  V30 2845 C 276.838 0.489338 -1.62909 0
M  V30 2846 O 278.023 0.393046 -1.90181 0
M  V30 2847 C 275.153 0.290698 -3.46081 0
M  V30 2848 C 274.107 -0.564168 -4.24265 0
M  V30 2849 C 273.433 0.308886 -5.33807 0
M  V30 2850 C 274.733 -1.83112 -4.89149 0
M  V30 2851 H 276.427 -1.30552 -2.69437 0
M  V30 2852 H 273.973 -0.629201 -1.29526 0
M  V30 2853 H 275.926 0.637233 -4.16554 0
M  V30 2854 H 274.65 1.17738 -3.0464 0
M  V30 2855 H 273.309 -0.893477 -3.55545 0
M  V30 2856 H 272.957 1.19467 -4.88607 0
M  V30 2857 H 272.657 -0.259633 -5.87026 0
M  V30 2858 H 274.181 0.650884 -6.07121 0
M  V30 2859 H 275.595 -1.55236 -5.51883 0
M  V30 2860 H 273.992 -2.34353 -5.52448 0
M  V30 2861 H 275.062 -2.54772 -4.12576 0
M  V30 2862 N 276.405 1.4127 -0.698611 0
M  V30 2863 C 277.633 2.05503 -0.239992 0
M  V30 2864 C 278.048 1.52584 1.11191 0
M  V30 2865 O 277.405 0.675323 1.69545 0
M  V30 2866 C 277.456 3.60987 -0.192429 0
M  V30 2867 O 277.177 4.1195 -1.49094 0
M  V30 2868 C 278.678 4.42371 0.28681 0
M  V30 2869 H 275.898 0.661748 -0.111045 0
M  V30 2870 H 278.442 1.80987 -0.95205 0
M  V30 2871 H 276.597 3.84533 0.470472 0
M  V30 2872 H 277.011 5.06018 -1.38007 0
M  V30 2873 H 278.485 5.51344 0.26896 0
M  V30 2874 H 278.962 4.18699 1.32619 0
M  V30 2875 H 279.568 4.23897 -0.345201 0
M  V30 2876 N 277.883 0.443576 1.51229 0
M  V30 2877 C 278.793 -0.370721 2.31652 0
M  V30 2878 C 279.809 -1.02186 1.40833 0
M  V30 2879 O 280.985 -1.01586 1.73903 0
M  V30 2880 C 278.05 -1.45376 3.14749 0
M  V30 2881 C 277.111 -0.822099 4.21355 0
M  V30 2882 C 276.344 -1.85353 5.0048 0
M  V30 2883 O 276.567 -3.07656 4.80316 0
M  V30 2884 O 275.501 -1.4406 5.84406 0
M  V30 2885 H 279.327 0.286002 3.0235 0
M  V30 2886 H 276.912 0.20598 1.47973 0
M  V30 2887 H 278.794 -2.08173 3.66391 0
M  V30 2888 H 277.469 -2.09445 2.46809 0
M  V30 2889 H 276.376 -0.155909 3.73775 0
M  V30 2890 H 277.709 -0.224797 4.91686 0
M  V30 2891 N 279.361 -1.56624 0.175154 0
M  V30 2892 C 280.308 -2.18149 -0.753634 0
M  V30 2893 C 281.278 -1.12265 -1.22417 0
M  V30 2894 O 282.463 -1.40432 -1.29165 0
M  V30 2895 C 279.603 -2.82933 -1.97592 0
M  V30 2896 C 278.716 -4.03289 -1.5486 0
M  V30 2897 C 277.851 -4.55988 -2.72485 0
M  V30 2898 C 276.89 -5.68746 -2.26262 0
M  V30 2899 N 276.027 -6.15938 -3.36994 0
M  V30 2900 H 280.867 -2.9717 -0.222195 0
M  V30 2901 H 278.404 -1.46774 -0.0979422 0
M  V30 2902 H 280.362 -3.18653 -2.69288 0
M  V30 2903 H 278.992 -2.06509 -2.481 0
M  V30 2904 H 278.044 -3.73364 -0.728246 0
M  V30 2905 H 279.356 -4.849 -1.16933 0
M  V30 2906 H 278.51 -4.9391 -3.52332 0
M  V30 2907 H 277.249 -3.73443 -3.13674 0
M  V30 2908 H 276.254 -5.30372 -1.44863 0
M  V30 2909 H 277.479 -6.53095 -1.86127 0
M  V30 2910 H 275.425 -5.36321 -3.77751 0
M  V30 2911 H 275.342 -6.92548 -3.03172 0
M  V30 2912 H 276.61 -6.58511 -4.17114 0
M  V30 2913 N 280.839 0.0985539 -1.57292 0
M  V30 2914 C 282.088 0.801358 -1.85098 0
M  V30 2915 C 282.401 1.80066 -0.763902 0
M  V30 2916 O 283.607 2.55112 -0.928981 0
M  V30 2917 C 282.063 1.47599 -3.28242 0
M  V30 2918 C 281.671 0.516624 -4.45011 0
M  V30 2919 C 283.415 2.16272 -3.65276 0
M  V30 2920 C 281.322 1.19564 -5.79188 0
M  V30 2921 H 280.252 0.303022 -0.69043 0
M  V30 2922 H 282.903 0.0542623 -1.8342 0
M  V30 2923 H 281.285 2.27042 -3.2445 0
M  V30 2924 H 282.459 -0.246065 -4.60143 0
M  V30 2925 H 280.774 -0.064227 -4.1635 0
M  V30 2926 H 283.371 2.67802 -4.62803 0
M  V30 2927 H 283.714 2.95009 -2.93727 0
M  V30 2928 H 284.247 1.43693 -3.70941 0
M  V30 2929 H 280.986 0.449157 -6.53959 0
M  V30 2930 H 280.506 1.92984 -5.67906 0
M  V30 2931 H 282.185 1.7231 -6.23633 0
M  V30 2932 N 282.317 1.53212 0.369288 0
M  V30 2933 C 283.733 1.42902 0.710712 0
M  V30 2934 C 283.933 0.565135 1.93413 0
M  V30 2935 O 282.989 0.0461484 2.52458 0
M  V30 2936 C 284.302 2.86042 0.927382 0
M  V30 2937 C 285.85 2.9565 1.02762 0
M  V30 2938 C 286.325 4.39843 1.27679 0
M  V30 2939 N 287.816 4.43256 1.34457 0
M  V30 2940 C 288.551 5.51929 1.55439 0
M  V30 2941 N 288.047 6.70655 1.73762 0
M  V30 2942 N 289.84 5.39502 1.57779 0
M  V30 2943 H 281.991 2.07888 -0.435457 0
M  V30 2944 H 284.254 0.938661 -0.132739 0
M  V30 2945 H 283.96 3.51557 0.100287 0
M  V30 2946 H 283.834 3.29472 1.83653 0
M  V30 2947 H 286.221 2.30291 1.84527 0
M  V30 2948 H 286.302 2.5562 0.0959504 0
M  V30 2949 H 285.946 5.05774 0.464175 0
M  V30 2950 H 285.876 4.77443 2.22162 0
M  V30 2951 H 288.367 3.5769 1.21926 0
M  V30 2952 H 288.68 7.49248 1.89335 0
M  V30 2953 H 287.025 6.73648 1.70948 0
M  V30 2954 H 290.216 4.45713 1.43029 0
M  V30 2955 H 290.389 6.2426 1.7379 0
M  V30 2956 N 283.795 -0.628877 1.44509 0
M  V30 2957 C 284.742 -1.74074 1.51549 0
M  V30 2958 C 285.712 -1.62084 0.363021 0
M  V30 2959 O 286.897 -1.81975 0.573567 0
M  V30 2960 C 284.037 -3.12328 1.46784 0
M  V30 2961 C 283.15 -3.35277 2.72422 0
M  V30 2962 C 282.285 -4.63515 2.59475 0
M  V30 2963 C 281.324 -4.7965 3.80266 0
M  V30 2964 N 280.461 -5.99168 3.65981 0
M  V30 2965 H 285.301 -1.67392 2.46544 0
M  V30 2966 H 282.838 -0.816527 1.22357 0
M  V30 2967 H 284.796 -3.92286 1.42012 0
M  V30 2968 H 283.426 -3.18018 0.553544 0
M  V30 2969 H 282.478 -2.49242 2.87372 0
M  V30 2970 H 283.79 -3.43078 3.62076 0
M  V30 2971 H 282.944 -5.51638 2.52548 0
M  V30 2972 H 281.683 -4.58076 1.67384 0
M  V30 2973 H 280.688 -3.89957 3.87574 0
M  V30 2974 H 281.913 -4.86902 4.73395 0
M  V30 2975 H 279.859 -5.94814 2.76644 0
M  V30 2976 H 279.776 -6.08035 4.49254 0
M  V30 2977 H 281.044 -6.89846 3.6295 0
M  V30 2978 N 285.273 -1.31445 -0.869486 0
M  V30 2979 C 286.236 -1.19094 -1.9583 0
M  V30 2980 C 287.236 -0.117906 -1.60367 0
M  V30 2981 O 288.426 -0.367208 -1.70286 0
M  V30 2982 C 285.558 -0.828165 -3.30688 0
M  V30 2983 H 286.751 -2.15842 -2.08212 0
M  V30 2984 H 284.304 -1.15063 -1.05784 0
M  V30 2985 H 285.039 0.138142 -3.24006 0
M  V30 2986 H 284.824 -1.6038 -3.578 0
M  V30 2987 H 286.314 -0.765658 -4.10521 0
M  V30 2988 N 286.751 1.08385 -1.14413 0
M  V30 2989 C 287.701 2.13509 -0.79987 0
M  V30 2990 C 288.685 1.5951 0.211059 0
M  V30 2991 O 289.877 1.76995 0.0133694 0
M  V30 2992 C 287.006 3.42162 -0.279297 0
M  V30 2993 C 286.092 4.03042 -1.31976 0
M  V30 2994 N 286.483 4.38327 -2.52395 0
M  V30 2995 C 284.781 4.30379 -1.17004 0
M  V30 2996 C 285.482 4.86428 -3.19003 0
M  V30 2997 N 284.458 4.84547 -2.46405 0
M  V30 2998 H 288.26 2.38609 -1.7159 0
M  V30 2999 H 285.774 1.2572 -1.02802 0
M  V30 3000 H 287.771 4.16898 -0.0143688 0
M  V30 3001 H 286.431 3.18511 0.630923 0
M  V30 3002 H 287.442 4.29349 -2.89621 0
M  V30 3003 H 284.119 4.16281 -0.318854 0
M  V30 3004 H 285.509 5.23107 -4.21674 0
M  V30 3005 N 288.23 0.939286 1.26551 0
M  V30 3006 C 289.162 0.404704 2.25599 0
M  V30 3007 C 290.175 -0.470983 1.55838 0
M  V30 3008 O 291.364 -0.281734 1.76263 0
M  V30 3009 C 288.464 -0.43764 3.36062 0
M  V30 3010 C 287.637 0.421449 4.35365 0
M  V30 3011 C 286.696 -0.36015 5.24966 0
M  V30 3012 O 285.722 0.236167 5.6871 0
M  V30 3013 N 286.924 -1.65715 5.56344 0
M  V30 3014 H 289.689 1.25618 2.72103 0
M  V30 3015 H 287.25 0.807963 1.40298 0
M  V30 3016 H 289.242 -0.967866 3.92956 0
M  V30 3017 H 287.812 -1.18991 2.89067 0
M  V30 3018 H 287.032 1.1329 3.7757 0
M  V30 3019 H 288.32 1.00835 4.98708 0
M  V30 3020 H 287.718 -2.16378 5.22682 0
M  V30 3021 H 286.275 -2.13366 6.15888 0
M  V30 3022 N 289.708 -1.40897 0.706093 0
M  V30 3023 C 290.618 -2.3455 0.0482286 0
M  V30 3024 C 291.634 -1.56796 -0.754396 0
M  V30 3025 O 292.81 -1.89228 -0.689538 0
M  V30 3026 C 289.875 -3.35625 -0.869303 0
M  V30 3027 C 288.936 -4.29261 -0.0576994 0
M  V30 3028 C 288.169 -5.25508 -0.931531 0
M  V30 3029 O 288.392 -5.27472 -2.17092 0
M  V30 3030 O 287.326 -6.00727 -0.375587 0
M  V30 3031 H 291.152 -2.92407 0.820476 0
M  V30 3032 H 288.737 -1.4193 0.4665 0
M  V30 3033 H 290.619 -3.97635 -1.39514 0
M  V30 3034 H 289.294 -2.80196 -1.62086 0
M  V30 3035 H 288.201 -3.70566 0.512988 0
M  V30 3036 H 289.534 -4.87817 0.655426 0
M  V30 3037 N 291.186 -0.45159 -1.50991 0
M  V30 3038 C 292.414 0.108334 -2.06616 0
M  V30 3039 C 292.829 1.35224 -1.31757 0
M  V30 3040 O 292.186 1.78475 -0.381174 0
M  V30 3041 C 292.237 0.41619 -3.59096 0
M  V30 3042 O 291.958 -0.778361 -4.3113 0
M  V30 3043 C 293.459 1.02523 -4.31282 0
M  V30 3044 H 290.679 0.00159995 -0.670998 0
M  V30 3045 H 293.223 -0.634771 -1.94399 0
M  V30 3046 H 291.378 1.10921 -3.71181 0
M  V30 3047 H 291.792 -0.511181 -5.22003 0
M  V30 3048 H 293.266 1.19053 -5.39009 0
M  V30 3049 H 293.743 2.01013 -3.905 0
M  V30 3050 H 294.349 0.371173 -4.23677 0
M  V30 3051 N 292.664 1.56529 -0.183458 0
M  V30 3052 C 293.911 1.97244 0.458357 0
M  V30 3053 C 294.239 1.06992 1.62428 0
M  V30 3054 O 293.494 0.106542 1.9541 0
M  V30 3055 C 293.793 3.43939 0.971637 0
M  V30 3056 C 293.459 4.5083 -0.0796784 0
M  V30 3057 C 292.121 4.79786 -0.368584 0
M  V30 3058 C 294.473 5.15138 -0.792638 0
M  V30 3059 C 291.801 5.70345 -1.37563 0
M  V30 3060 C 294.153 6.06784 -1.78875 0
M  V30 3061 C 292.817 6.34102 -2.08497 0
M  V30 3062 H 292.087 0.721768 0.167725 0
M  V30 3063 H 294.734 1.89472 -0.277976 0
M  V30 3064 H 293.039 3.48724 1.78602 0
M  V30 3065 H 294.736 3.72791 1.47744 0
M  V30 3066 H 291.326 4.28317 0.155668 0
M  V30 3067 H 295.51 4.92868 -0.582659 0
M  V30 3068 H 290.766 5.89789 -1.61118 0
M  V30 3069 H 294.94 6.55677 -2.3465 0
M  V30 3070 H 292.567 7.04074 -2.86678 0
M  V30 3071 N 294.142 -0.090211 1.57342 0
M  V30 3072 C 295.553 -0.644173 1.75235 0
M  V30 3073 C 295.904 -1.78865 0.806335 0
M  V30 3074 O 295.029 -2.16395 -0.0140128 0
M  V30 3075 C 295.624 -1.17532 3.1776 0
M  V30 3076 C 294.183 -1.67531 3.37061 0
M  V30 3077 C 293.33 -0.58693 2.71017 0
M  V30 3078 H 296.281 0.135884 1.58117 0
M  V30 3079 H 296.302 -2.04455 3.20902 0
M  V30 3080 H 295.814 -0.342138 3.86589 0
M  V30 3081 H 293.915 -2.53234 2.73319 0
M  V30 3082 H 294.028 -1.76493 4.45406 0
M  V30 3083 H 292.392 -1.02756 2.33052 0
M  V30 3084 H 293.175 0.235758 3.4249 0
M  V30 3085 N 295.62 -1.53406 -0.361157 0
M  V30 3086 C 296.845 -1.74024 -1.12829 0
M  V30 3087 C 297.27 -0.470069 -1.82132 0
M  V30 3088 O 296.628 0.57619 -1.719 0
M  V30 3089 C 296.676 -2.90903 -2.13091 0
M  V30 3090 O 295.78 -2.59821 -3.20261 0
M  V30 3091 H 295.121 -0.577804 -0.327168 0
M  V30 3092 H 297.651 -2.00307 -0.41693 0
M  V30 3093 H 297.661 -3.17194 -2.56616 0
M  V30 3094 H 296.336 -3.83034 -1.62042 0
M  V30 3095 H 294.913 -2.44362 -2.81677 0
M  V30 3096 N 297.098 0.621204 -1.44841 0
M  V30 3097 C 298.028 1.74366 -1.55303 0
M  V30 3098 C 299.009 1.65199 -0.405385 0
M  V30 3099 O 300.194 1.83807 -0.626787 0
M  V30 3100 C 297.324 3.12931 -1.50637 0
M  V30 3101 C 296.278 3.36896 -2.63979 0
M  V30 3102 C 295.604 4.75594 -2.44366 0
M  V30 3103 C 296.904 3.28483 -4.06074 0
M  V30 3104 H 298.598 1.65867 -2.49256 0
M  V30 3105 H 296.144 0.796558 -1.19962 0
M  V30 3106 H 298.097 3.9124 -1.56555 0
M  V30 3107 H 296.821 3.22237 -0.532057 0
M  V30 3108 H 295.48 2.60972 -2.57467 0
M  V30 3109 H 295.128 4.81616 -1.45105 0
M  V30 3110 H 294.828 4.92586 -3.20364 0
M  V30 3111 H 296.352 5.5612 -2.52117 0
M  V30 3112 H 297.766 3.96684 -4.13902 0
M  V30 3113 H 296.163 3.57008 -4.82354 0
M  V30 3114 H 297.233 2.26133 -4.28943 0
M  V30 3115 N 298.576 1.31904 0.862503 0
M  V30 3116 C 299.816 1.23324 1.63004 0
M  V30 3117 C 300.18 -0.203724 1.90916 0
M  V30 3118 O 301.381 -0.413132 2.65606 0
M  V30 3119 C 299.652 2.06116 2.91978 0
M  V30 3120 S 301.211 2.14478 3.82812 0
M  V30 3121 H 298.029 0.439117 0.559193 0
M  V30 3122 H 300.631 1.66658 1.02202 0
M  V30 3123 H 299.335 3.09593 2.69407 0
M  V30 3124 H 298.866 1.6353 3.57801 0
M  V30 3125 H 300.881 1.28855 4.79177 0
M  V30 3126 N 300.054 -1.07777 1.14986 0
M  V30 3127 C 300.986 -2.14769 0.800436 0
M  V30 3128 C 301.999 -1.61739 -0.185595 0
M  V30 3129 O 303.188 -1.78462 0.0370358 0
M  V30 3130 C 300.288 -3.38481 0.168533 0
M  V30 3131 C 299.461 -4.20876 1.1909 0
M  V30 3132 C 298.52 -5.22976 0.581575 0
M  V30 3133 O 297.546 -5.55388 1.24633 0
M  V30 3134 N 298.748 -5.76976 -0.638706 0
M  V30 3135 H 301.513 -2.45348 1.72118 0
M  V30 3136 H 299.074 -1.23645 1.04515 0
M  V30 3137 H 301.066 -4.03916 -0.251764 0
M  V30 3138 H 299.636 -3.05651 -0.655467 0
M  V30 3139 H 298.856 -3.51322 1.78791 0
M  V30 3140 H 300.144 -4.7274 1.88133 0
M  V30 3141 H 299.542 -5.52886 -1.19723 0
M  V30 3142 H 298.099 -6.44061 -1.00142 0
M  V30 3143 N 301.532 -0.945985 -1.26051 0
M  V30 3144 C 302.462 -0.477172 -2.28572 0
M  V30 3145 C 303.443 0.472032 -1.63419 0
M  V30 3146 O 304.628 0.372853 -1.90587 0
M  V30 3147 C 301.758 0.253975 -3.4637 0
M  V30 3148 C 300.712 -0.609135 -4.23643 0
M  V30 3149 C 300.038 0.252252 -5.34105 0
M  V30 3150 C 301.338 -1.8829 -4.8718 0
M  V30 3151 H 303.032 -1.33402 -2.68038 0
M  V30 3152 H 300.578 -0.642904 -1.28852 0
M  V30 3153 H 302.531 0.593016 -4.17207 0
M  V30 3154 H 301.255 1.145 -3.05871 0
M  V30 3155 H 299.914 -0.931138 -3.54578 0
M  V30 3156 H 299.562 1.14278 -4.89846 0
M  V30 3157 H 299.262 -0.32188 -5.86718 0
M  V30 3158 H 300.786 0.586454 -6.07777 0
M  V30 3159 H 302.2 -1.61081 -5.50205 0
M  V30 3160 H 300.597 -2.40199 -5.49931 0
M  V30 3161 H 301.667 -2.59134 -4.09851 0
M  V30 3162 N 303.011 1.40521 -0.713556 0
M  V30 3163 C 304.259 2.00527 -0.251692 0
M  V30 3164 C 304.58 1.56857 1.15848 0
M  V30 3165 O 303.85 0.807127 1.785 0
M  V30 3166 H 302.43 0.741551 -0.0900646 0
M  V30 3167 H 305.092 1.71887 -0.918733 0
M  V30 3168 H 304.188 3.10813 -0.283192 0
M  V30 3169 N 304.489 0.459591 1.5075 0
M  V30 3170 C 305.436 -0.340524 2.28274 0
M  V30 3171 C 306.406 -0.997371 1.32822 0
M  V30 3172 O 307.591 -1.01202 1.61749 0
M  V30 3173 C 304.731 -1.42317 3.14388 0
M  V30 3174 C 303.844 -0.782251 4.24859 0
M  V30 3175 C 302.979 -1.84182 4.98247 0
M  V30 3176 C 302.018 -1.18053 6.00608 0
M  V30 3177 N 301.155 -2.18244 6.67319 0
M  V30 3178 H 305.995 0.326899 2.96202 0
M  V30 3179 H 303.532 0.173057 1.46078 0
M  V30 3180 H 305.49 -2.06241 3.62658 0
M  V30 3181 H 304.12 -2.05992 2.4853 0
M  V30 3182 H 303.172 -0.0307404 3.80388 0
M  V30 3183 H 304.484 -0.259663 4.98124 0
M  V30 3184 H 303.638 -2.55714 5.50177 0
M  V30 3185 H 302.377 -2.39819 4.24662 0
M  V30 3186 H 301.382 -0.450776 5.47949 0
M  V30 3187 H 302.607 -0.631202 6.7616 0
M  V30 3188 H 300.553 -2.72919 5.96533 0
M  V30 3189 H 300.47 -1.70938 7.36421 0
M  V30 3190 H 301.738 -2.89191 7.23871 0
M  V30 3191 N 305.967 -1.56429 0.191757 0
M  V30 3192 C 307.197 -2.01574 -0.452928 0
M  V30 3193 C 307.605 -1.07107 -1.55964 0
M  V30 3194 O 306.948 -0.067534 -1.83576 0
M  V30 3195 C 307.01 -3.43121 -1.07278 0
M  V30 3196 C 306.674 -4.56879 -0.105214 0
M  V30 3197 C 307.671 -5.15379 0.684149 0
M  V30 3198 C 305.356 -5.023 0.00489824 0
M  V30 3199 C 307.35 -6.17746 1.57062 0
M  V30 3200 C 305.037 -6.04511 0.894935 0
M  V30 3201 C 306.035 -6.62108 1.67637 0
M  V30 3202 O 305.723 -7.62335 2.55149 0
M  V30 3203 H 305.455 -0.665554 -0.118379 0
M  V30 3204 H 308.009 -2.03245 0.296737 0
M  V30 3205 H 306.239 -3.38425 -1.87097 0
M  V30 3206 H 307.928 -3.72093 -1.62177 0
M  V30 3207 H 308.694 -4.81157 0.609365 0
M  V30 3208 H 304.573 -4.57168 -0.593156 0
M  V30 3209 H 308.117 -6.6263 2.181 0
M  V30 3210 H 304.014 -6.38157 0.970847 0
M  V30 3211 H 304.782 -7.79741 2.48892 0
M  V30 3212 N 307.445 0.0818655 -1.57387 0
M  V30 3213 C 308.673 0.796108 -1.9097 0
M  V30 3214 C 309.088 1.71626 -0.786757 0
M  V30 3215 O 308.445 1.80908 0.240513 0
M  V30 3216 C 308.496 1.59829 -3.24248 0
M  V30 3217 O 308.217 0.715131 -4.32224 0
M  V30 3218 C 309.718 2.41442 -3.7178 0
M  V30 3219 H 306.938 0.22691 -0.631469 0
M  V30 3220 H 309.482 0.0551439 -2.04426 0
M  V30 3221 H 307.637 2.29163 -3.12351 0
M  V30 3222 H 308.051 1.27205 -5.08841 0
M  V30 3223 H 309.525 2.932 -4.67694 0
M  V30 3224 H 310.002 3.2051 -3.00283 0
M  V30 3225 H 310.608 1.77283 -3.86589 0
M  V30 3226 N 308.923 1.53595 0.353017 0
M  V30 3227 C 310.151 1.74311 1.1146 0
M  V30 3228 C 310.566 0.477854 1.82653 0
M  V30 3229 O 309.923 -0.549977 1.74016 0
M  V30 3230 C 309.974 2.91694 2.13534 0
M  V30 3231 O 309.695 4.13325 1.45238 0
M  V30 3232 C 311.196 3.24384 3.02142 0
M  V30 3233 H 308.416 0.582669 0.332773 0
M  V30 3234 H 310.96 2.00386 0.408107 0
M  V30 3235 H 309.115 2.67977 2.79763 0
M  V30 3236 H 309.529 4.79148 2.13349 0
M  V30 3237 H 311.003 4.09893 3.69718 0
M  V30 3238 H 311.48 2.40282 3.67643 0
M  V30 3239 H 312.086 3.50073 2.41514 0
M  V30 3240 N 310.401 -0.613514 1.45168 0
M  V30 3241 C 311.349 -1.74572 1.53712 0
M  V30 3242 C 312.343 -1.64426 0.407505 0
M  V30 3243 O 313.549 -1.70291 0.583176 0
M  V30 3244 H 309.924 -0.576641 0.48269 0
M  V30 3245 H 311.895 -1.64492 2.48968 0
M  V30 3246 C 310.644 -3.12943 1.51532 0
M  V30 3247 H 309.967 -3.21407 2.37776 0
M  V30 3248 H 311.407 -3.9201 1.61569 0
M  V30 3249 C 309.866 -3.36053 0.238798 0
M  V30 3250 O 310.396 -3.95837 -0.6838 0
M  V30 3251 N 308.602 -2.9028 0.136359 0
M  V30 3252 H 308.149 -2.41811 0.887999 0
M  V30 3253 H 308.107 -3.06116 -0.716944 0
M  V30 3254 N 311.879 -1.3236 -0.855495 0
M  V30 3255 C 313.104 -1.2601 -1.64731 0
M  V30 3256 C 313.529 0.169068 -1.87339 0
M  V30 3257 O 312.887 1.12016 -1.42556 0
M  V30 3258 C 312.935 -2.02417 -2.98429 0
M  V30 3259 O 312.039 -1.3714 -3.8893 0
M  V30 3260 H 311.38 -0.434325 -0.502253 0
M  V30 3261 H 313.91 -1.74661 -1.06558 0
M  V30 3262 H 313.92 -2.12559 -3.48257 0
M  V30 3263 H 312.595 -3.06343 -2.81295 0
M  V30 3264 H 311.172 -1.3554 -3.47395 0
M  V30 3265 N 313.357 1.07166 -1.15556 0
M  V30 3266 C 314.582 1.84053 -0.955988 0
M  V30 3267 C 315.007 1.81586 0.490739 0
M  V30 3268 O 314.365 1.21018 1.34997 0
M  V30 3269 C 314.413 3.28957 -1.47714 0
M  V30 3270 O 313.517 4.06795 -0.677593 0
M  V30 3271 H 312.858 0.569842 -0.340847 0
M  V30 3272 H 315.388 1.35178 -1.53584 0
M  V30 3273 H 315.398 3.79788 -1.4908 0
M  V30 3274 H 314.073 3.30068 -2.53037 0
M  V30 3275 H 312.65 3.6561 -0.733721 0
M  V30 3276 N 314.835 0.952656 1.25548 0
M  V30 3277 C 315.798 0.475794 2.24207 0
M  V30 3278 C 316.798 -0.419428 1.55234 0
M  V30 3279 O 317.988 -0.216994 1.72843 0
M  V30 3280 C 315.12 -0.312814 3.39462 0
M  V30 3281 H 316.313 1.34779 2.67908 0
M  V30 3282 H 313.866 0.735739 1.37901 0
M  V30 3283 H 314.601 -1.20257 3.01179 0
M  V30 3284 H 314.386 0.329404 3.90714 0
M  V30 3285 H 315.876 -0.635986 4.12729 0
M  V30 3286 N 316.313 -1.40141 0.720998 0
M  V30 3287 C 317.59 -1.94677 0.189757 0
M  V30 3288 C 317.97 -1.65879 -1.30566 0
M  V30 3289 O 317.318 -0.979391 -2.06447 0
M  V30 3290 C 317.528 -3.45279 0.508304 0
M  V30 3291 C 318.876 -4.22209 0.449934 0
M  V30 3292 O 319.9 -3.53413 0.444677 0
M  V30 3293 O 318.759 -5.44788 0.432189 0
M  V30 3294 H 315.853 -0.826459 0.0299026 0
M  V30 3295 H 318.399 -1.49719 0.7989 0
M  V30 3296 H 317.171 -3.59619 1.54239 0
M  V30 3297 H 316.794 -3.97386 -0.130525 0
M  V30 3298 N 317.792 -0.46758 -1.50504 0
M  V30 3299 C 318.742 0.34698 -2.25344 0
M  V30 3300 C 319.726 0.964469 -1.2879 0
M  V30 3301 O 320.918 0.8776 -1.53711 0
M  V30 3302 C 318.047 1.43042 -3.1208 0
M  V30 3303 C 317.133 0.82084 -4.16081 0
M  V30 3304 N 317.524 -0.0567602 -5.05768 0
M  V30 3305 C 315.822 1.08517 -4.32597 0
M  V30 3306 C 316.523 -0.402343 -5.80307 0
M  V30 3307 N 315.499 0.221607 -5.43148 0
M  V30 3308 H 319.301 -0.329129 -2.92051 0
M  V30 3309 H 316.815 -0.281508 -1.59942 0
M  V30 3310 H 318.812 2.02712 -3.64299 0
M  V30 3311 H 317.472 2.10856 -2.46921 0
M  V30 3312 H 318.483 -0.425349 -5.1615 0
M  V30 3313 H 315.16 1.75855 -3.78657 0
M  V30 3314 H 316.55 -1.11834 -6.62528 0
M  V30 3315 N 319.27 1.56325 -0.20005 0
M  V30 3316 C 320.686 1.58839 0.155716 0
M  V30 3317 C 320.886 1.21636 1.60645 0
M  V30 3318 O 319.942 0.941437 2.34293 0
M  V30 3319 C 321.255 3.0032 -0.151124 0
M  V30 3320 C 322.803 3.12866 -0.0916284 0
M  V30 3321 C 323.278 4.56488 -0.371845 0
M  V30 3322 N 324.769 4.62089 -0.320641 0
M  V30 3323 C 325.504 5.71116 -0.511243 0
M  V30 3324 N 325 6.88592 -0.762461 0
M  V30 3325 N 326.793 5.60335 -0.445157 0
M  V30 3326 H 318.944 1.78788 -1.14668 0
M  V30 3327 H 321.207 0.829996 -0.458051 0
M  V30 3328 H 320.913 3.32117 -1.15721 0
M  V30 3329 H 320.787 3.73257 0.543986 0
M  V30 3330 H 323.174 2.80878 0.905065 0
M  V30 3331 H 323.255 2.42304 -0.81989 0
M  V30 3332 H 322.899 4.89189 -1.36588 0
M  V30 3333 H 322.829 5.25246 0.377362 0
M  V30 3334 H 325.32 3.77665 -0.13329 0
M  V30 3335 H 325.633 7.67581 -0.896576 0
M  V30 3336 H 323.978 6.90387 -0.799412 0
M  V30 3337 H 327.169 4.67436 -0.249278 0
M  V30 3338 H 327.342 6.45243 -0.597116 0
M  V30 3339 N 320.748 -0.0735177 1.57428 0
M  V30 3340 C 321.994 -0.774145 1.87443 0
M  V30 3341 C 322.327 -1.77311 0.792103 0
M  V30 3342 O 321.602 -1.93492 -0.197793 0
M  V30 3343 C 321.885 -1.48367 3.28115 0
M  V30 3344 C 321.738 -0.501227 4.46999 0
M  V30 3345 C 323.057 -2.429 3.66998 0
M  V30 3346 H 320.176 -0.279971 0.681752 0
M  V30 3347 H 322.818 -0.0373616 1.89963 0
M  V30 3348 H 320.968 -2.11171 3.26097 0
M  V30 3349 H 322.64 0.121468 4.6114 0
M  V30 3350 H 320.883 0.183593 4.33411 0
M  V30 3351 H 321.554 -1.03526 5.42205 0
M  V30 3352 H 324.03 -1.90175 3.70098 0
M  V30 3353 H 322.906 -2.89549 4.66318 0
M  V30 3354 H 323.167 -3.27628 2.96837 0
M  V30 3355 N 322.226 -1.5378 -0.344866 0
M  V30 3356 C 323.642 -1.44015 -0.687888 0
M  V30 3357 C 323.842 -0.595834 -1.92489 0
M  V30 3358 O 322.898 -0.0863064 -2.52352 0
M  V30 3359 C 324.211 -2.87481 -0.881758 0
M  V30 3360 C 325.759 -2.97247 -0.980459 0
M  V30 3361 C 326.234 -4.41819 -1.20665 0
M  V30 3362 N 327.725 -4.45339 -1.27389 0
M  V30 3363 C 328.46 -5.54333 -1.46639 0
M  V30 3364 N 327.956 -6.73335 -1.63071 0
M  V30 3365 N 329.749 -5.41944 -1.49176 0
M  V30 3366 H 321.9 -2.07169 0.468475 0
M  V30 3367 H 324.163 -0.93643 0.147655 0
M  V30 3368 H 323.869 -3.51672 -0.0443444 0
M  V30 3369 H 323.743 -3.32352 -1.78388 0
M  V30 3370 H 326.13 -2.33197 -1.8084 0
M  V30 3371 H 326.211 -2.5574 -0.0552713 0
M  V30 3372 H 325.855 -5.06449 -0.383652 0
M  V30 3373 H 325.785 -4.80917 -2.14539 0
M  V30 3374 H 328.276 -3.59585 -1.1622 0
M  V30 3375 H 328.589 -7.52165 -1.77391 0
M  V30 3376 H 326.934 -6.76282 -1.60209 0
M  V30 3377 H 330.125 -4.47932 -1.3592 0
M  V30 3378 H 330.298 -6.26946 -1.63837 0
M  V30 3379 N 323.704 0.605807 -1.45491 0
M  V30 3380 C 324.634 1.72709 -1.57143 0
M  V30 3381 C 325.615 1.6476 -0.422884 0
M  V30 3382 O 326.8 1.83132 -0.646247 0
M  V30 3383 C 323.93 3.11316 -1.53948 0
M  V30 3384 C 322.884 3.34077 -2.67537 0
M  V30 3385 C 322.21 4.72975 -2.49397 0
M  V30 3386 C 323.51 3.24158 -4.09535 0
M  V30 3387 H 325.204 1.63214 -2.51001 0
M  V30 3388 H 322.75 0.78379 -1.208 0
M  V30 3389 H 324.703 3.89557 -1.60696 0
M  V30 3390 H 323.427 3.21655 -0.566205 0
M  V30 3391 H 322.086 2.58227 -2.6022 0
M  V30 3392 H 321.734 4.8005 -1.50205 0
M  V30 3393 H 321.434 4.8916 -3.25571 0
M  V30 3394 H 322.958 5.53414 -2.58002 0
M  V30 3395 H 324.372 3.92271 -4.18086 0
M  V30 3396 H 322.769 3.51872 -4.86113 0
M  V30 3397 H 323.839 2.2157 -4.31317 0
M  V30 3398 N 325.182 1.32811 0.848464 0
M  V30 3399 C 326.459 1.14334 1.58704 0
M  V30 3400 C 326.839 -0.293948 2.09043 0
M  V30 3401 O 326.187 -1.29153 1.88499 0
M  V30 3402 C 326.397 2.17626 2.72837 0
M  V30 3403 C 327.745 2.51282 3.42261 0
M  V30 3404 O 328.769 2.16219 2.83068 0
M  V30 3405 O 327.628 3.11413 4.49093 0
M  V30 3406 H 324.722 0.441601 0.699226 0
M  V30 3407 H 327.268 1.44362 0.892053 0
M  V30 3408 H 326.04 3.14211 2.3321 0
M  V30 3409 H 325.663 1.88628 3.50008 0
M  V30 3410 N 326.66 -1.06551 1.16123 0
M  V30 3411 C 327.59 -2.15935 0.88851 0
M  V30 3412 C 328.571 -1.69306 -0.164135 0
M  V30 3413 O 329.756 -1.94193 -0.0167857 0
M  V30 3414 C 326.886 -3.45149 0.385942 0
M  V30 3415 C 325.84 -4.05271 1.3762 0
M  V30 3416 C 325.166 -5.29664 0.732137 0
M  V30 3417 C 326.466 -4.44355 2.74493 0
M  V30 3418 H 328.16 -2.39006 1.80323 0
M  V30 3419 H 325.706 -1.14866 0.868435 0
M  V30 3420 H 327.659 -4.21004 0.182647 0
M  V30 3421 H 326.383 -3.21689 -0.564274 0
M  V30 3422 H 325.042 -3.3147 1.56599 0
M  V30 3423 H 324.69 -5.02499 -0.224483 0
M  V30 3424 H 324.39 -5.70848 1.39307 0
M  V30 3425 H 325.914 -6.08218 0.538802 0
M  V30 3426 H 327.328 -5.11303 2.59311 0
M  V30 3427 H 325.725 -4.96515 3.37035 0
M  V30 3428 H 326.795 -3.55339 3.29943 0
M  V30 3429 N 328.138 -0.959301 -1.25041 0
M  V30 3430 C 329.386 -0.615393 -1.92503 0
M  V30 3431 C 329.707 0.850969 -1.75452 0
M  V30 3432 O 328.977 1.60658 -1.12098 0
M  V30 3433 H 327.557 -0.224613 -0.712431 0
M  V30 3434 H 330.219 -1.21855 -1.5211 0
M  V30 3435 H 329.315 -0.848738 -3.00338 0
M  V30 3436 N 329.616 1.39756 -0.72842 0
M  V30 3437 C 330.546 2.33289 -0.0991354 0
M  V30 3438 C 331.527 1.53568 0.731489 0
M  V30 3439 O 332.712 1.81987 0.677807 0
M  V30 3440 C 329.842 3.3763 0.813834 0
M  V30 3441 C 328.796 4.2791 0.0878663 0
M  V30 3442 C 328.122 5.22894 1.11741 0
M  V30 3443 C 329.422 5.11314 -1.06563 0
M  V30 3444 H 331.116 2.86163 -0.880408 0
M  V30 3445 H 328.662 1.37591 -0.424819 0
M  V30 3446 H 330.615 4.0201 1.26355 0
M  V30 3447 H 329.339 2.83181 1.62715 0
M  V30 3448 H 327.998 3.65 -0.342159 0
M  V30 3449 H 327.646 4.64744 1.92412 0
M  V30 3450 H 327.346 5.84143 0.636477 0
M  V30 3451 H 328.87 5.90151 1.56697 0
M  V30 3452 H 330.284 5.69076 -0.694671 0
M  V30 3453 H 328.681 5.81671 -1.47577 0
M  V30 3454 H 329.751 4.46534 -1.89038 0
M  V30 3455 N 331.094 0.475555 1.50254 0
M  V30 3456 C 332.34 -0.0701075 2.03279 0
M  V30 3457 C 332.695 -1.37007 1.35081 0
M  V30 3458 O 331.988 -1.8577 0.469052 0
M  V30 3459 C 332.182 -0.305114 3.56095 0
M  V30 3460 C 332.011 0.970515 4.39103 0
M  V30 3461 C 330.781 1.51509 4.82051 0
M  V30 3462 C 332.979 1.8671 4.79212 0
M  V30 3463 N 330.961 2.73928 5.49397 0
M  V30 3464 C 332.332 2.93715 5.46014 0
M  V30 3465 C 334.387 1.87695 4.61167 0
M  V30 3466 C 333.09 4.01699 5.96683 0
M  V30 3467 C 335.116 2.94637 5.12779 0
M  V30 3468 C 334.478 4.00361 5.79561 0
M  V30 3469 H 330.577 0.014486 0.781866 0
M  V30 3470 H 333.161 0.644755 1.83714 0
M  V30 3471 H 331.332 -0.989019 3.75597 0
M  V30 3472 H 333.064 -0.845516 3.95769 0
M  V30 3473 H 329.819 1.06367 4.61501 0
M  V30 3474 H 330.243 3.36109 5.87673 0
M  V30 3475 H 334.885 1.07273 4.08965 0
M  V30 3476 H 332.603 4.82934 6.4792 0
M  V30 3477 H 336.189 2.96388 5.00645 0
M  V30 3478 H 335.069 4.81751 6.18778 0
M  V30 3479 N 332.573 -1.56217 0.208337 0
M  V30 3480 C 333.85 -1.89739 -0.475234 0
M  V30 3481 C 334.23 -1.1238 -1.78701 0
M  V30 3482 O 333.578 -0.228979 -2.2735 0
M  V30 3483 C 333.788 -3.42289 -0.681101 0
M  V30 3484 C 335.136 -4.12789 -0.994507 0
M  V30 3485 O 336.16 -3.47814 -0.768357 0
M  V30 3486 O 335.019 -5.27649 -1.42299 0
M  V30 3487 H 332.113 -0.788478 -0.249461 0
M  V30 3488 H 334.659 -1.67855 0.249538 0
M  V30 3489 H 333.431 -3.90534 0.244722 0
M  V30 3490 H 333.054 -3.69909 -1.45785 0
M  V30 3491 N 334.051 0.0651679 -1.57465 0
M  V30 3492 C 334.998 1.07675 -2.04144 0
M  V30 3493 C 335.968 1.38071 -0.923335 0
M  V30 3494 O 337.153 1.49026 -1.19146 0
M  V30 3495 C 334.293 2.38337 -2.49579 0
M  V30 3496 C 333.406 2.14413 -3.75035 0
M  V30 3497 C 332.541 3.38686 -4.09225 0
M  V30 3498 C 331.58 3.10156 -5.27702 0
M  V30 3499 N 330.717 4.26778 -5.57499 0
M  V30 3500 H 335.557 0.671716 -2.90331 0
M  V30 3501 H 333.094 0.3201 -1.43575 0
M  V30 3502 H 335.052 3.14632 -2.73975 0
M  V30 3503 H 333.682 2.7663 -1.6636 0
M  V30 3504 H 332.734 1.2878 -3.57939 0
M  V30 3505 H 334.046 1.89344 -4.61466 0
M  V30 3506 H 333.2 4.23373 -4.34558 0
M  V30 3507 H 331.939 3.66837 -3.21374 0
M  V30 3508 H 330.944 2.23866 -5.02159 0
M  V30 3509 H 332.169 2.8332 -6.17176 0
M  V30 3510 H 330.115 4.54948 -4.72608 0
M  V30 3511 H 330.032 4.05005 -6.38362 0
M  V30 3512 H 331.3 5.12443 -5.87386 0
M  V30 3513 N 335.529 1.53961 0.336706 0
M  V30 3514 C 336.776 1.71536 1.07618 0
M  V30 3515 C 337.104 0.482125 1.8843 0
M  V30 3516 O 336.359 -0.536142 1.88213 0
M  V30 3517 C 336.658 2.93493 2.03953 0
M  V30 3518 C 336.324 4.28811 1.39399 0
M  V30 3519 C 334.986 4.65602 1.21523 0
M  V30 3520 C 337.338 5.12844 0.929541 0
M  V30 3521 C 334.666 5.84037 0.558312 0
M  V30 3522 C 337.018 6.31951 0.286505 0
M  V30 3523 C 335.682 6.67432 0.0954869 0
M  V30 3524 H 334.952 0.627696 0.393801 0
M  V30 3525 H 337.599 1.88186 0.354715 0
M  V30 3526 H 335.904 2.71475 2.82504 0
M  V30 3527 H 337.601 3.04285 2.61174 0
M  V30 3528 H 334.191 3.99858 1.54311 0
M  V30 3529 H 338.375 4.84947 1.05548 0
M  V30 3530 H 333.631 6.10097 0.398995 0
M  V30 3531 H 337.805 6.96352 -0.0814376 0
M  V30 3532 H 335.432 7.59063 -0.415579 0
M  V30 3533 N 337.007 -0.598083 1.45811 0
M  V30 3534 C 338.232 -1.3881 1.54099 0
M  V30 3535 C 338.657 -1.8726 0.177578 0
M  V30 3536 O 338.015 -1.6069 -0.839541 0
M  V30 3537 C 338.063 -2.56217 2.53743 0
M  V30 3538 O 337.167 -3.5716 2.06182 0
M  V30 3539 H 336.508 -0.414024 0.519115 0
M  V30 3540 H 339.038 -0.726971 1.91249 0
M  V30 3541 H 339.048 -3.03337 2.72856 0
M  V30 3542 H 337.723 -2.20303 3.5276 0
M  V30 3543 H 336.3 -3.16624 1.96987 0
M  V30 3544 N 338.485 -1.33259 -0.841409 0
M  V30 3545 C 339.395 -1.25332 -1.98316 0
M  V30 3546 C 340.411 -0.164364 -1.73222 0
M  V30 3547 O 341.587 -0.387486 -1.97637 0
M  V30 3548 C 338.652 -0.990078 -3.32262 0
M  V30 3549 C 337.713 -2.16879 -3.70489 0
M  V30 3550 C 336.946 -1.91801 -4.98044 0
M  V30 3551 O 337.169 -0.867075 -5.63771 0
M  V30 3552 O 336.103 -2.78267 -5.33714 0
M  V30 3553 H 339.929 -2.21344 -2.07944 0
M  V30 3554 H 337.514 -1.1328 -0.974058 0
M  V30 3555 H 339.396 -0.860321 -4.12524 0
M  V30 3556 H 338.071 -0.0602155 -3.23644 0
M  V30 3557 H 336.978 -2.35407 -2.90748 0
M  V30 3558 H 338.311 -3.0819 -3.8377 0
M  V30 3559 N 339.963 1.05934 -1.16686 0
M  V30 3560 C 340.893 2.1546 -0.899949 0
M  V30 3561 C 341.874 1.69391 0.155154 0
M  V30 3562 O 343.059 1.94199 0.00648693 0
M  V30 3563 C 340.189 3.44939 -0.404241 0
M  V30 3564 C 339.143 4.04536 -1.39767 0
M  V30 3565 C 338.469 5.29268 -0.760216 0
M  V30 3566 C 339.769 4.42893 -2.76845 0
M  V30 3567 H 341.463 2.38046 -1.81588 0
M  V30 3568 H 339.009 1.14404 -0.874514 0
M  V30 3569 H 340.962 4.20901 -0.204971 0
M  V30 3570 H 339.686 3.21983 0.547206 0
M  V30 3571 H 338.345 3.30635 -1.58355 0
M  V30 3572 H 337.993 5.02611 0.197831 0
M  V30 3573 H 337.693 5.70101 -1.42332 0
M  V30 3574 H 339.217 6.07924 -0.57105 0
M  V30 3575 H 340.631 5.09921 -2.62019 0
M  V30 3576 H 339.028 4.94721 -3.39663 0
M  V30 3577 H 340.098 3.53584 -3.31823 0
M  V30 3578 N 341.441 0.965919 1.2453 0
M  V30 3579 C 342.404 0.499547 2.2369 0
M  V30 3580 C 343.404 -0.40294 1.5567 0
M  V30 3581 O 344.594 -0.19865 1.73064 0
M  V30 3582 C 341.726 -0.276792 3.39774 0
M  V30 3583 H 342.919 1.37613 2.66463 0
M  V30 3584 H 340.472 0.750324 1.37112 0
M  V30 3585 H 341.207 -1.17055 3.02438 0
M  V30 3586 H 340.992 0.370826 3.90343 0
M  V30 3587 H 342.482 -0.592175 4.1338 0
M  V30 3588 N 342.919 -1.39368 0.735821 0
M  V30 3589 C 344.147 -2.04795 0.294393 0
M  V30 3590 C 344.562 -1.55478 -1.07107 0
M  V30 3591 O 343.919 -0.720038 -1.67695 0
M  V30 3592 C 343.97 -3.6035 0.288071 0
M  V30 3593 O 343.691 -4.07852 1.59963 0
M  V30 3594 C 345.192 -4.42976 -0.169422 0
M  V30 3595 H 342.412 -0.658571 0.128551 0
M  V30 3596 H 344.956 -1.78399 0.999701 0
M  V30 3597 H 343.111 -3.85645 -0.368355 0
M  V30 3598 H 343.525 -5.02181 1.51375 0
M  V30 3599 H 344.999 -5.51864 -0.122687 0
M  V30 3600 H 345.476 -4.22068 -1.21472 0
M  V30 3601 H 346.082 -4.22832 0.457469 0
M  V30 3602 N 344.397 -0.483516 -1.5 0
M  V30 3603 C 345.344 0.304164 -2.28787 0
M  V30 3604 C 346.314 0.976114 -1.34392 0
M  V30 3605 O 347.499 0.986156 -1.63339 0
M  V30 3606 C 344.639 1.37298 -3.16612 0
M  V30 3607 C 343.752 0.714561 -4.26049 0
M  V30 3608 C 342.887 1.76232 -5.01114 0
M  V30 3609 C 341.926 1.08483 -6.0241 0
M  V30 3610 N 341.063 2.076 -6.70706 0
M  V30 3611 H 345.903 -0.373981 -2.95644 0
M  V30 3612 H 343.44 -0.196275 -1.45785 0
M  V30 3613 H 345.398 2.00445 -3.65893 0
M  V30 3614 H 344.028 2.02012 -2.51776 0
M  V30 3615 H 343.08 -0.0297798 -3.80388 0
M  V30 3616 H 344.392 0.180383 -4.98474 0
M  V30 3617 H 343.546 2.46929 -5.54176 0
M  V30 3618 H 342.285 2.33033 -4.28424 0
M  V30 3619 H 341.29 0.363545 -5.48597 0
M  V30 3620 H 342.515 0.523551 -6.77079 0
M  V30 3621 H 340.461 2.63394 -6.00799 0
M  V30 3622 H 340.378 1.59201 -7.39047 0
M  V30 3623 H 341.646 2.77639 -7.2838 0
M  V30 3624 N 345.875 1.56104 -0.216619 0
M  V30 3625 C 347.115 2.00074 0.418322 0
M  V30 3626 C 347.479 1.10098 1.57297 0
M  V30 3627 O 348.68 1.43393 2.27359 0
M  V30 3628 C 346.951 3.47231 0.846477 0
M  V30 3629 S 348.51 4.13223 1.47622 0
M  V30 3630 H 345.328 0.698457 0.132962 0
M  V30 3631 H 347.93 1.92784 -0.324748 0
M  V30 3632 H 346.634 4.104 -0.0036319 0
M  V30 3633 H 346.165 3.58384 1.62248 0
M  V30 3634 H 348.18 4.12005 2.76526 0
M  V30 3635 N 347.353 -0.0568162 1.57498 0
M  V30 3636 C 348.602 -0.752001 1.87157 0
M  V30 3637 C 348.915 -1.77978 0.811375 0
M  V30 3638 O 350.121 -2.52559 0.996293 0
M  V30 3639 C 348.577 -1.38844 3.3204 0
M  V30 3640 C 348.185 -0.398456 4.46225 0
M  V30 3641 C 349.929 -2.06512 3.70882 0
M  V30 3642 C 347.836 -1.04166 5.82154 0
M  V30 3643 H 346.766 -0.28461 0.698222 0
M  V30 3644 H 349.417 -0.00561272 1.83499 0
M  V30 3645 H 347.799 -2.1836 3.30356 0
M  V30 3646 H 348.973 0.367977 4.59328 0
M  V30 3647 H 347.288 0.174592 4.16034 0
M  V30 3648 H 349.885 -2.55437 4.6974 0
M  V30 3649 H 350.228 -2.87117 3.01445 0
M  V30 3650 H 350.761 -1.33808 3.7462 0
M  V30 3651 H 347.5 -0.275614 6.5492 0
M  V30 3652 H 347.02 -1.7786 5.72823 0
M  V30 3653 H 348.699 -1.55715 6.27982 0
M  V30 3654 N 348.832 -1.54138 -0.328536 0
M  V30 3655 C 350.081 -1.71318 -1.06456 0
M  V30 3656 C 350.394 -0.491109 -1.89334 0
M  V30 3657 O 351.6 -0.54416 -2.65991 0
M  V30 3658 C 350.056 -3.03 -1.94214 0
M  V30 3659 C 349.664 -4.32595 -1.16471 0
M  V30 3660 C 351.408 -3.29544 -2.67583 0
M  V30 3661 C 349.315 -5.55341 -2.03347 0
M  V30 3662 H 348.245 -0.638429 -0.401155 0
M  V30 3663 H 350.896 -1.80633 -0.323106 0
M  V30 3664 H 349.278 -2.87579 -2.72239 0
M  V30 3665 H 350.452 -4.58766 -0.432525 0
M  V30 3666 H 348.767 -4.12777 -0.548063 0
M  V30 3667 H 351.364 -4.18444 -3.3288 0
M  V30 3668 H 351.707 -2.47206 -3.34955 0
M  V30 3669 H 352.24 -3.45809 -1.96623 0
M  V30 3670 H 348.979 -6.40268 -1.40491 0
M  V30 3671 H 348.499 -5.33397 -2.74313 0
M  V30 3672 H 350.178 -5.91557 -2.62049 0
M  V30 3673 N 350.31 0.590341 -1.46126 0
M  V30 3674 C 351.257 1.69994 -1.56111 0
M  V30 3675 C 352.227 1.61065 -0.405867 0
M  V30 3676 O 353.412 1.8039 -0.621613 0
M  V30 3677 C 350.552 3.08326 -1.55013 0
M  V30 3678 C 349.665 3.27936 -2.81215 0
M  V30 3679 C 348.8 4.56473 -2.71673 0
M  V30 3680 C 347.839 4.694 -3.92849 0
M  V30 3681 N 346.976 5.89254 -3.81738 0
M  V30 3682 H 351.816 1.60797 -2.50895 0
M  V30 3683 H 349.353 0.783799 -1.24479 0
M  V30 3684 H 351.311 3.88383 -1.52362 0
M  V30 3685 H 349.941 3.16439 -0.637667 0
M  V30 3686 H 348.993 2.41536 -2.93879 0
M  V30 3687 H 350.305 3.33357 -3.71045 0
M  V30 3688 H 349.459 5.44748 -2.67085 0
M  V30 3689 H 348.198 4.53477 -1.7947 0
M  V30 3690 H 347.203 3.79544 -3.97777 0
M  V30 3691 H 348.428 4.7418 -4.86138 0
M  V30 3692 H 346.374 5.87271 -2.92317 0
M  V30 3693 H 346.291 5.95911 -4.65217 0
M  V30 3694 H 347.559 6.79981 -3.81112 0
M  V30 3695 N 351.788 1.33704 0.83433 0
M  V30 3696 C 353.037 1.24763 1.58484 0
M  V30 3697 C 353.35 -0.183775 1.94735 0
M  V30 3698 O 354.556 -0.395234 2.68608 0
M  V30 3699 C 353.012 2.18638 2.85876 0
M  V30 3700 C 352.62 3.66974 2.56971 0
M  V30 3701 C 354.364 2.18581 3.63899 0
M  V30 3702 C 352.271 4.5275 3.80488 0
M  V30 3703 H 351.201 0.463425 0.594772 0
M  V30 3704 H 353.852 1.58797 0.919551 0
M  V30 3705 H 352.234 1.77542 3.5397 0
M  V30 3706 H 353.408 4.16538 1.9706 0
M  V30 3707 H 351.723 3.69366 1.92244 0
M  V30 3708 H 354.32 2.79894 4.55591 0
M  V30 3709 H 354.663 1.18207 3.99165 0
M  V30 3710 H 355.196 2.58062 3.02735 0
M  V30 3711 H 351.935 5.54017 3.5035 0
M  V30 3712 H 351.455 4.07927 4.39722 0
M  V30 3713 H 353.134 4.66784 4.4802 0
M  V30 3714 N 353.266 -1.05314 1.17247 0
M  V30 3715 C 354.512 -1.78557 0.961513 0
M  V30 3716 C 354.845 -1.87419 -0.508697 0
M  V30 3717 O 354.12 -1.37307 -1.37757 0
M  V30 3718 C 354.403 -3.22514 1.60176 0
M  V30 3719 C 354.256 -3.21673 3.14399 0
M  V30 3720 C 355.575 -4.20318 1.30463 0
M  V30 3721 H 352.694 -0.6482 0.350723 0
M  V30 3722 H 355.336 -1.23102 1.44727 0
M  V30 3723 H 353.486 -3.69867 1.18871 0
M  V30 3724 H 355.158 -2.82405 3.64753 0
M  V30 3725 H 353.401 -2.60048 3.47214 0
M  V30 3726 H 354.072 -4.23271 3.54324 0
M  V30 3727 H 356.548 -3.81454 1.66229 0
M  V30 3728 H 355.424 -5.19289 1.77848 0
M  V30 3729 H 355.685 -4.41526 0.22521 0
M  V30 3730 N 354.744 -0.972509 -1.24016 0
M  V30 3731 C 355.654 -0.5143 -2.28893 0
M  V30 3732 C 356.67 0.427078 -1.68677 0
M  V30 3733 O 357.846 0.298939 -1.99169 0
M  V30 3734 C 354.911 0.183598 -3.46214 0
M  V30 3735 C 353.972 -0.798202 -4.21814 0
M  V30 3736 C 353.205 -0.133514 -5.33533 0
M  V30 3737 O 353.428 1.07714 -5.60137 0
M  V30 3738 O 352.362 -0.828103 -5.96176 0
M  V30 3739 H 356.188 -1.38629 -2.70214 0
M  V30 3740 H 353.773 -0.739769 -1.29799 0
M  V30 3741 H 355.655 0.575433 -4.17453 0
M  V30 3742 H 354.33 1.03048 -3.0686 0
M  V30 3743 H 353.237 -1.24059 -3.52931 0
M  V30 3744 H 354.57 -1.61364 -4.64997 0
M  V30 3745 N 356.222 1.38976 -0.743202 0
M  V30 3746 C 357.469 2.00343 -0.294752 0
M  V30 3747 C 357.797 1.58983 1.12047 0
M  V30 3748 O 357.052 0.813809 1.77977 0
M  V30 3749 C 357.351 3.55647 -0.353517 0
M  V30 3750 C 357.017 4.16685 -1.72292 0
M  V30 3751 C 355.679 4.3307 -2.09771 0
M  V30 3752 C 358.031 4.50464 -2.62168 0
M  V30 3753 C 355.359 4.80526 -3.36618 0
M  V30 3754 C 357.711 4.99332 -3.88395 0
M  V30 3755 C 356.375 5.13924 -4.25956 0
M  V30 3756 H 355.645 0.733108 -0.107857 0
M  V30 3757 H 358.292 1.6618 -0.951651 0
M  V30 3758 H 356.597 3.89884 0.386954 0
M  V30 3759 H 358.294 4.00998 0.0117269 0
M  V30 3760 H 354.884 4.04339 -1.42155 0
M  V30 3761 H 359.068 4.37416 -2.3448 0
M  V30 3762 H 354.324 4.90008 -3.65653 0
M  V30 3763 H 358.498 5.2444 -4.58187 0
M  V30 3764 H 356.125 5.50457 -5.2431 0
M  V30 3765 N 357.7 0.491464 1.49741 0
M  V30 3766 C 358.663 -0.280906 2.27472 0
M  V30 3767 C 359.663 -0.902454 1.33088 0
M  V30 3768 O 360.853 -0.768465 1.56334 0
M  V30 3769 C 357.985 -1.40209 3.10732 0
M  V30 3770 H 359.178 0.401056 2.97206 0
M  V30 3771 H 356.731 0.246131 1.5435 0
M  V30 3772 H 357.466 -2.11849 2.45541 0
M  V30 3773 H 357.251 -0.961969 3.80117 0
M  V30 3774 H 358.741 -1.9464 3.69466 0
M  V30 3775 N 359.178 -1.55987 0.224894 0
M  V30 3776 C 360.125 -2.20436 -0.68385 0
M  V30 3777 C 361.095 -1.16102 -1.18783 0
M  V30 3778 O 362.28 -1.4447 -1.24632 0
M  V30 3779 C 359.42 -2.89076 -1.88491 0
M  V30 3780 C 358.533 -4.08012 -1.41951 0
M  V30 3781 C 357.668 -4.64426 -2.5784 0
M  V30 3782 C 356.707 -5.75656 -2.08053 0
M  V30 3783 N 355.844 -6.26347 -3.17227 0
M  V30 3784 H 360.684 -2.97727 -0.12754 0
M  V30 3785 H 358.221 -1.47011 -0.0511978 0
M  V30 3786 H 360.179 -3.27059 -2.59014 0
M  V30 3787 H 358.809 -2.14298 -2.41405 0
M  V30 3788 H 357.861 -3.75492 -0.609095 0
M  V30 3789 H 359.173 -4.88375 -1.01447 0
M  V30 3790 H 358.327 -5.04869 -3.3644 0
M  V30 3791 H 357.066 -3.83233 -3.01635 0
M  V30 3792 H 356.071 -5.34712 -1.27916 0
M  V30 3793 H 357.296 -6.58686 -1.65255 0
M  V30 3794 H 355.242 -5.48067 -3.60497 0
M  V30 3795 H 355.159 -7.01843 -2.80986 0
M  V30 3796 H 356.427 -6.71447 -3.95953 0
M  V30 3797 N 360.656 0.0484629 -1.57525 0
M  V30 3798 C 362.072 0.40375 -1.54409 0
M  V30 3799 C 362.272 1.77786 -0.948384 0
M  V30 3800 O 361.328 2.46189 -0.560983 0
M  V30 3801 C 362.641 0.323394 -2.98956 0
M  V30 3802 C 364.189 0.401892 -3.10409 0
M  V30 3803 C 364.664 0.351195 -4.56652 0
M  V30 3804 N 366.155 0.410576 -4.61377 0
M  V30 3805 C 366.89 0.393933 -5.72045 0
M  V30 3806 N 366.386 0.330724 -6.9201 0
M  V30 3807 N 368.179 0.442227 -5.60358 0
M  V30 3808 H 360.33 -0.851016 -1.94606 0
M  V30 3809 H 362.593 -0.321721 -0.89174 0
M  V30 3810 H 362.299 -0.62011 -3.4619 0
M  V30 3811 H 362.173 1.12463 -3.60044 0
M  V30 3812 H 364.56 1.33582 -2.63134 0
M  V30 3813 H 364.641 -0.428342 -2.52188 0
M  V30 3814 H 364.285 -0.578987 -5.04589 0
M  V30 3815 H 364.215 1.19928 -5.12762 0
M  V30 3816 H 366.706 0.462729 -3.75056 0
M  V30 3817 H 367.019 0.322592 -7.72126 0
M  V30 3818 H 365.364 0.29706 -6.94365 0
M  V30 3819 H 368.555 0.489464 -4.65534 0
M  V30 3820 H 368.728 0.425788 -6.466 0
M  V30 3821 N 362.134 1.5431 0.320358 0
M  V30 3822 C 363.064 1.86912 1.3995 0
M  V30 3823 C 364.045 0.726211 1.53819 0
M  V30 3824 O 365.23 0.980233 1.67646 0
M  V30 3825 C 362.36 2.09932 2.7667 0
M  V30 3826 C 361.314 3.25776 2.77586 0
M  V30 3827 C 360.64 3.34173 4.17412 0
M  V30 3828 C 361.94 4.6335 2.41048 0
M  V30 3829 H 363.634 2.77292 1.12914 0
M  V30 3830 H 361.18 1.33421 0.541738 0
M  V30 3831 H 363.133 2.31324 3.52232 0
M  V30 3832 H 361.857 1.16304 3.0519 0
M  V30 3833 H 360.516 3.04276 2.04479 0
M  V30 3834 H 360.164 2.38098 4.43078 0
M  V30 3835 H 359.864 4.12033 4.18931 0
M  V30 3836 H 361.388 3.57803 4.94782 0
M  V30 3837 H 362.802 4.84602 3.06324 0
M  V30 3838 H 361.199 5.43782 2.53813 0
M  V30 3839 H 362.269 4.65381 1.36193 0
M  V30 3840 N 363.613 -0.582584 1.46437 0
M  V30 3841 C 365.024 -1.1647 1.45916 0
M  V30 3842 C 365.375 -1.95177 0.200077 0
M  V30 3843 O 364.5 -2.04874 -0.696819 0
M  V30 3844 C 365.095 -2.11885 2.64367 0
M  V30 3845 C 363.654 -2.65421 2.66887 0
M  V30 3846 C 362.801 -1.41294 2.38603 0
M  V30 3847 H 365.752 -0.370514 1.54314 0
M  V30 3848 H 365.773 -2.9535 2.39892 0
M  V30 3849 H 365.285 -1.54573 3.5599 0
M  V30 3850 H 363.386 -3.26602 1.79338 0
M  V30 3851 H 363.499 -3.08147 3.66854 0
M  V30 3852 H 361.863 -1.71109 1.88663 0
M  V30 3853 H 362.646 -0.858125 3.32402 0
M  V30 3854 N 365.091 -1.34144 -0.827227 0
M  V30 3855 C 366.339 -1.26009 -1.58007 0
M  V30 3856 C 366.66 0.170971 -1.94249 0
M  V30 3857 O 365.93 1.10256 -1.61927 0
M  V30 3858 H 364.51 -0.463414 -0.585881 0
M  V30 3859 H 367.172 -1.68005 -0.987951 0
M  V30 3860 H 366.268 -1.86187 -2.50481 0
M  V30 3861 N 366.569 1.04691 -1.17803 0
M  V30 3862 C 367.816 1.77782 -0.969532 0
M  V30 3863 C 368.144 1.87926 0.501401 0
M  V30 3864 O 367.399 1.37918 1.38842 0
M  V30 3865 C 367.698 3.21467 -1.56186 0
M  V30 3866 C 367.364 3.3137 -3.05786 0
M  V30 3867 C 366.026 3.3378 -3.46619 0
M  V30 3868 C 368.378 3.31976 -4.01797 0
M  V30 3869 C 365.706 3.34431 -4.82051 0
M  V30 3870 C 368.058 3.34167 -5.37136 0
M  V30 3871 C 366.722 3.34866 -5.77426 0
M  V30 3872 H 365.992 0.650549 -0.354777 0
M  V30 3873 H 368.639 1.23006 -1.46772 0
M  V30 3874 H 366.944 3.79203 -0.985515 0
M  V30 3875 H 368.641 3.76652 -1.37602 0
M  V30 3876 H 365.231 3.3021 -2.73238 0
M  V30 3877 H 369.415 3.29311 -3.71306 0
M  V30 3878 H 364.671 3.33285 -5.12573 0
M  V30 3879 H 368.845 3.33585 -6.11305 0
M  V30 3880 H 366.472 3.35124 -6.82346 0
M  V30 3881 N 368.047 0.979072 1.23499 0
M  V30 3882 C 369.275 0.665202 1.95915 0
M  V30 3883 C 369.69 -0.767571 1.72493 0
M  V30 3884 O 369.047 -1.51635 1.01554 0
M  V30 3885 C 369.098 0.944438 3.48945 0
M  V30 3886 O 368.819 2.3209 3.71572 0
M  V30 3887 C 370.32 0.646336 4.38563 0
M  V30 3888 H 367.54 0.247218 0.623798 0
M  V30 3889 H 370.084 1.31009 1.57025 0
M  V30 3890 H 368.239 0.345575 3.85856 0
M  V30 3891 H 368.653 2.40957 4.65876 0
M  V30 3892 H 370.127 0.892091 5.44744 0
M  V30 3893 H 370.604 -0.419575 4.37191 0
M  V30 3894 H 371.21 1.22562 4.07258 0
M  V30 3895 N 369.525 -1.3858 0.750561 0
M  V30 3896 C 370.773 -1.99789 0.30477 0
M  V30 3897 C 371.094 -1.59874 -1.11649 0
M  V30 3898 O 370.364 -0.85417 -1.76297 0
M  V30 3899 H 368.944 -0.738902 0.109694 0
M  V30 3900 H 371.606 -1.69391 0.963983 0
M  V30 3901 H 370.702 -3.09952 0.365499 0
M  V30 3902 N 371.003 -0.499398 -1.49478 0
M  V30 3903 C 371.933 0.269244 -2.31943 0
M  V30 3904 C 372.914 0.964054 -1.40143 0
M  V30 3905 O 374.099 0.955767 -1.69052 0
M  V30 3906 C 371.229 1.33504 -3.20615 0
M  V30 3907 C 370.183 0.760202 -4.21195 0
M  V30 3908 C 369.509 1.9264 -4.98792 0
M  V30 3909 C 370.809 -0.247661 -5.21712 0
M  V30 3910 H 372.503 -0.419082 -2.96452 0
M  V30 3911 H 370.049 -0.202988 -1.42562 0
M  V30 3912 H 372.002 1.88048 -3.77115 0
M  V30 3913 H 370.726 2.05253 -2.54045 0
M  V30 3914 H 369.385 0.23653 -3.65836 0
M  V30 3915 H 369.033 2.63154 -4.28671 0
M  V30 3916 H 368.733 1.54785 -5.66847 0
M  V30 3917 H 370.257 2.4762 -5.58137 0
M  V30 3918 H 371.671 0.209579 -5.72917 0
M  V30 3919 H 370.068 -0.541962 -5.97648 0
M  V30 3920 H 371.138 -1.16409 -4.7072 0
M  V30 3921 N 372.481 1.55866 -0.233164 0
M  V30 3922 C 373.709 2.02998 0.399905 0
M  V30 3923 C 374.124 1.11274 1.52524 0
M  V30 3924 O 373.481 0.124528 1.82075 0
M  V30 3925 C 373.532 3.4958 0.920639 0
M  V30 3926 O 373.253 4.37808 -0.159834 0
M  V30 3927 C 374.754 4.12411 1.62578 0
M  V30 3928 H 371.974 0.664006 0.0966281 0
M  V30 3929 H 374.518 2.0143 -0.353013 0
M  V30 3930 H 372.673 3.51727 1.62379 0
M  V30 3931 H 373.087 5.23981 0.23337 0
M  V30 3932 H 374.561 5.16711 1.94201 0
M  V30 3933 H 375.038 3.5809 2.54299 0
M  V30 3934 H 375.644 4.14148 0.967553 0
M  V30 3935 N 373.959 -0.0401083 1.57549 0
M  V30 3936 C 375.208 -0.732108 1.87944 0
M  V30 3937 C 375.521 -1.77107 0.830206 0
M  V30 3938 O 376.727 -2.51488 1.02302 0
M  V30 3939 C 375.183 -1.35315 3.33494 0
M  V30 3940 C 374.791 -0.351105 4.46622 0
M  V30 3941 C 376.535 -2.02566 3.73051 0
M  V30 3942 C 374.442 -0.979859 5.83226 0
M  V30 3943 H 373.372 -0.277188 0.701201 0
M  V30 3944 H 376.023 0.0138501 1.83495 0
M  V30 3945 H 374.405 -2.14844 3.32653 0
M  V30 3946 H 375.579 0.416674 4.58912 0
M  V30 3947 H 373.894 0.218708 4.15825 0
M  V30 3948 H 376.491 -2.50441 4.72423 0
M  V30 3949 H 376.834 -2.83904 3.04474 0
M  V30 3950 H 377.367 -1.29827 3.76018 0
M  V30 3951 H 374.106 -0.206135 6.55176 0
M  V30 3952 H 373.626 -1.71774 5.74677 0
M  V30 3953 H 375.305 -1.49046 6.29599 0
M  V30 3954 N 375.437 -1.54477 -0.31217 0
M  V30 3955 C 376.4 -1.83923 -1.36766 0
M  V30 3956 C 377.4 -0.711563 -1.44199 0
M  V30 3957 O 378.59 -0.979866 -1.44029 0
M  V30 3958 C 375.722 -2.0095 -2.75376 0
M  V30 3959 H 376.915 -2.78239 -1.11906 0
M  V30 3960 H 374.468 -1.46369 -0.548257 0
M  V30 3961 H 375.203 -1.08883 -3.05475 0
M  V30 3962 H 374.988 -2.83018 -2.71373 0
M  V30 3963 H 376.478 -2.2514 -3.51713 0
M  V30 3964 N 376.915 0.57481 -1.46744 0
M  V30 3965 C 378.192 1.3352 -1.4294 0
M  V30 3966 C 378.572 2.10775 -0.117009 0
M  V30 3967 O 377.92 2.09966 0.901474 0
M  V30 3968 C 378.13 2.25456 -2.66403 0
M  V30 3969 C 379.478 2.87035 -3.12883 0
M  V30 3970 O 380.502 2.35766 -2.67007 0
M  V30 3971 O 379.361 3.80179 -3.92589 0
M  V30 3972 H 376.455 0.600318 -0.568812 0
M  V30 3973 H 379.001 0.595171 -1.58921 0
M  V30 3974 H 377.773 1.67851 -3.53471 0
M  V30 3975 H 377.396 3.06785 -2.52921 0
M  V30 3976 N 378.394 1.34581 0.820102 0
M  V30 3977 C 379.326 1.22236 1.93884 0
M  V30 3978 C 380.339 0.148776 1.62119 0
M  V30 3979 O 381.528 0.400877 1.7394 0
M  V30 3980 C 378.628 0.856542 3.27897 0
M  V30 3981 C 377.801 2.02569 3.87666 0
M  V30 3982 C 376.86 1.63782 5.00062 0
M  V30 3983 O 375.886 2.35477 5.18208 0
M  V30 3984 N 377.088 0.553611 5.77854 0
M  V30 3985 H 379.853 2.18615 2.05006 0
M  V30 3986 H 377.414 1.27573 0.99683 0
M  V30 3987 H 379.406 0.578806 4.0054 0
M  V30 3988 H 377.976 -0.0171518 3.12595 0
M  V30 3989 H 377.196 2.468 3.07382 0
M  V30 3990 H 378.484 2.80752 4.24329 0
M  V30 3991 H 377.882 -0.0423528 5.65684 0
M  V30 3992 H 376.439 0.335614 6.50935 0
M  V30 3993 N 379.872 -1.04064 1.18357 0
M  V30 3994 C 381.121 -1.76662 0.973313 0
M  V30 3995 C 381.434 -1.89154 -0.497991 0
M  V30 3996 O 382.64 -2.58606 -0.826762 0
M  V30 3997 C 381.096 -3.17624 1.69242 0
M  V30 3998 C 380.704 -3.13225 3.20303 0
M  V30 3999 C 382.448 -3.946 1.56497 0
M  V30 4000 C 380.355 -4.49046 3.84853 0
M  V30 4001 H 379.285 -0.662214 0.36054 0
M  V30 4002 H 381.936 -1.16553 1.41731 0
M  V30 4003 H 380.318 -3.78129 1.1762 0
M  V30 4004 H 381.492 -2.62172 3.78949 0
M  V30 4005 H 379.807 -2.49749 3.33189 0
M  V30 4006 H 382.404 -4.95042 2.02084 0
M  V30 4007 H 382.747 -4.13074 0.517243 0
M  V30 4008 H 383.28 -3.4067 2.05399 0
M  V30 4009 H 380.019 -4.35777 4.89672 0
M  V30 4010 H 379.539 -5.00203 3.30994 0
M  V30 4011 H 381.218 -5.17961 3.87718 0
M  V30 4012 N 381.35 -0.985608 -1.22978 0
M  V30 4013 C 382.578 -0.675582 -1.95559 0
M  V30 4014 C 382.993 0.758413 -1.72897 0
M  V30 4015 O 382.35 1.51094 -1.02357 0
M  V30 4016 C 382.401 -0.96293 -3.48439 0
M  V30 4017 O 382.122 -2.34057 -3.70336 0
M  V30 4018 C 383.623 -0.669585 -4.38214 0
M  V30 4019 H 380.843 -0.250523 -0.622478 0
M  V30 4020 H 383.387 -1.3184 -1.56328 0
M  V30 4021 H 381.542 -0.366033 -3.85667 0
M  V30 4022 H 381.956 -2.43424 -4.64591 0
M  V30 4023 H 383.43 -0.920967 -5.44263 0
M  V30 4024 H 383.907 0.396383 -4.37408 0
M  V30 4025 H 384.513 -1.2472 -4.06602 0
M  V30 4026 N 382.828 1.3818 -0.7579 0
M  V30 4027 C 383.758 2.33027 -0.148597 0
M  V30 4028 C 384.739 1.55085 0.69875 0
M  V30 4029 O 385.924 1.83384 0.639053 0
M  V30 4030 C 383.054 3.3928 0.742034 0
M  V30 4031 C 382.008 4.28 -0.00291946 0
M  V30 4032 C 381.334 5.25146 1.00625 0
M  V30 4033 C 382.634 5.08938 -1.17385 0
M  V30 4034 H 384.328 2.84231 -0.940909 0
M  V30 4035 H 381.874 1.36659 -0.453908 0
M  V30 4036 H 383.827 4.046 1.17799 0
M  V30 4037 H 382.551 2.86569 1.56671 0
M  V30 4038 H 381.21 3.64192 -0.419504 0
M  V30 4039 H 380.858 4.68721 1.8251 0
M  V30 4040 H 380.558 5.85361 0.512428 0
M  V30 4041 H 382.082 5.93342 1.44143 0
M  V30 4042 H 383.496 5.67474 -0.815224 0
M  V30 4043 H 381.893 5.7841 -1.59882 0
M  V30 4044 H 382.963 4.42424 -1.98468 0
M  V30 4045 N 384.306 0.507319 1.49211 0
M  V30 4046 C 385.236 -0.256939 2.32082 0
M  V30 4047 C 386.217 -0.956609 1.40652 0
M  V30 4048 O 387.402 -0.946788 1.69557 0
M  V30 4049 C 384.532 -1.31802 3.21318 0
M  V30 4050 C 383.486 -0.737855 4.21592 0
M  V30 4051 C 382.812 -1.89992 4.99807 0
M  V30 4052 C 384.112 0.275325 5.21574 0
M  V30 4053 H 385.806 0.434798 2.96226 0
M  V30 4054 H 383.352 0.210546 1.42452 0
M  V30 4055 H 385.305 -1.86045 3.78107 0
M  V30 4056 H 384.029 -2.03903 2.5513 0
M  V30 4057 H 382.688 -0.217126 3.65956 0
M  V30 4058 H 382.336 -2.60877 4.30061 0
M  V30 4059 H 382.036 -1.51777 5.6766 0
M  V30 4060 H 383.56 -2.44657 5.59442 0
M  V30 4061 H 384.974 -0.179193 5.7302 0
M  V30 4062 H 383.371 0.573649 5.97352 0
M  V30 4063 H 384.441 1.18903 4.70096 0
M  V30 4064 N 385.784 -1.5574 0.241426 0
M  V30 4065 C 386.731 -2.21149 -0.660432 0
M  V30 4066 C 387.701 -1.17356 -1.17545 0
M  V30 4067 O 388.886 -1.45784 -1.23093 0
M  V30 4068 C 386.026 -2.91059 -1.85414 0
M  V30 4069 C 385.139 -4.09495 -1.37616 0
M  V30 4070 C 384.274 -4.67135 -2.529 0
M  V30 4071 C 383.313 -5.77831 -2.01936 0
M  V30 4072 N 382.45 -6.29677 -3.10566 0
M  V30 4073 H 387.29 -2.97845 -0.095955 0
M  V30 4074 H 384.827 -1.47057 -0.0356024 0
M  V30 4075 H 386.785 -3.29788 -2.5553 0
M  V30 4076 H 385.415 -2.16846 -2.39118 0
M  V30 4077 H 384.467 -3.76117 -0.569235 0
M  V30 4078 H 385.779 -4.89423 -0.962618 0
M  V30 4079 H 384.933 -5.08409 -3.31067 0
M  V30 4080 H 383.672 -3.86411 -2.97553 0
M  V30 4081 H 382.677 -5.36039 -1.22238 0
M  V30 4082 H 383.902 -6.60402 -1.58259 0
M  V30 4083 H 381.848 -5.5186 -3.54664 0
M  V30 4084 H 381.765 -7.04783 -2.73526 0
M  V30 4085 H 383.033 -6.75609 -3.88809 0
M  V30 4086 N 387.262 0.0317525 -1.57568 0
M  V30 4087 C 388.225 1.01783 -2.0536 0
M  V30 4088 C 389.225 1.29203 -0.957253 0
M  V30 4089 O 390.415 1.24251 -1.22095 0
M  V30 4090 C 387.547 2.35137 -2.46827 0
M  V30 4091 H 388.74 0.605062 -2.93733 0
M  V30 4092 H 386.293 0.278514 -1.53799 0
M  V30 4093 H 387.028 2.81168 -1.61602 0
M  V30 4094 H 386.813 2.16566 -3.26866 0
M  V30 4095 H 388.303 3.05938 -2.84239 0
M  V30 4096 N 388.74 1.54641 0.303973 0
M  V30 4097 C 389.703 1.84646 1.35789 0
M  V30 4098 C 390.703 0.7192 1.4382 0
M  V30 4099 O 391.893 0.987491 1.43507 0
M  V30 4100 C 389.025 2.02407 2.74307 0
M  V30 4101 H 390.218 2.78829 1.10429 0
M  V30 4102 H 387.771 1.46658 0.540487 0
M  V30 4103 H 388.506 1.10502 3.04893 0
M  V30 4104 H 388.291 2.84453 2.69868 0
M  V30 4105 H 389.781 2.27002 3.50514 0
M  V30 4106 N 390.218 -0.567019 1.47046 0
M  V30 4107 C 391.458 -1.3355 1.54738 0
M  V30 4108 C 391.822 -1.90947 0.200772 0
M  V30 4109 O 393.023 -2.68367 0.152489 0
M  V30 4110 C 391.294 -2.42317 2.62712 0
M  V30 4111 S 392.853 -3.29383 2.89918 0
M  V30 4112 H 389.671 -0.454788 0.546525 0
M  V30 4113 H 392.273 -0.650191 1.84371 0
M  V30 4114 H 390.977 -1.98568 3.59164 0
M  V30 4115 H 390.508 -3.15601 2.34861 0
M  V30 4116 H 392.523 -4.41548 2.26384 0
M  V30 4117 N 391.696 -1.35014 -0.812953 0
M  V30 4118 C 392.626 -1.30069 -1.93919 0
M  V30 4119 C 393.607 -0.176275 -1.69184 0
M  V30 4120 O 394.792 -0.370227 -1.90638 0
M  V30 4121 C 391.922 -1.06547 -3.30552 0
M  V30 4122 C 390.876 -2.15561 -3.69753 0
M  V30 4123 C 390.202 -1.77214 -5.04479 0
M  V30 4124 C 391.502 -3.57476 -3.808 0
M  V30 4125 H 393.196 -2.24303 -1.98314 0
M  V30 4126 H 390.742 -1.07977 -0.952736 0
M  V30 4127 H 392.695 -1.01729 -4.08937 0
M  V30 4128 H 391.419 -0.0875719 -3.26483 0
M  V30 4129 H 390.078 -2.19466 -2.9365 0
M  V30 4130 H 389.726 -0.780589 -4.96906 0
M  V30 4131 H 389.426 -2.50184 -5.31678 0
M  V30 4132 H 390.95 -1.7391 -5.8531 0
M  V30 4133 H 392.364 -3.55929 -4.4943 0
M  V30 4134 H 390.761 -4.29152 -4.19462 0
M  V30 4135 H 391.831 -3.94091 -2.82525 0
M  V30 4136 N 393.175 1.03435 -1.18907 0
M  V30 4137 C 394.452 1.73778 -0.89781 0
M  V30 4138 C 394.832 2.02458 0.597832 0
M  V30 4139 O 394.18 1.67482 1.55441 0
M  V30 4140 C 394.39 3.01845 -1.75187 0
M  V30 4141 C 395.738 3.7546 -1.9828 0
M  V30 4142 O 396.762 3.11759 -1.72293 0
M  V30 4143 O 395.621 4.89966 -2.42065 0
M  V30 4144 H 392.715 0.75651 -0.334098 0
M  V30 4145 H 395.261 1.09444 -1.29693 0
M  V30 4146 H 394.033 2.76836 -2.76545 0
M  V30 4147 H 393.656 3.73919 -1.35167 0
M  V30 4148 N 394.653 0.992116 1.22453 0
M  V30 4149 C 395.902 0.662992 1.90492 0
M  V30 4150 C 396.215 -0.808407 1.78113 0
M  V30 4151 O 397.421 -1.24908 2.41061 0
M  V30 4152 C 395.877 1.1353 3.41524 0
M  V30 4153 C 395.485 2.63187 3.62542 0
M  V30 4154 C 397.229 0.880465 4.15269 0
M  V30 4155 C 395.136 3.04024 5.0727 0
M  V30 4156 H 394.066 0.244278 0.713333 0
M  V30 4157 H 396.717 1.20157 1.38688 0
M  V30 4158 H 395.099 0.52485 3.92506 0
M  V30 4159 H 396.273 3.2957 3.22056 0
M  V30 4160 H 394.588 2.86543 3.02129 0
M  V30 4161 H 397.185 1.16128 5.21937 0
M  V30 4162 H 397.528 -0.183408 4.15896 0
M  V30 4163 H 398.061 1.45307 3.70312 0
M  V30 4164 H 394.8 4.09584 5.11782 0
M  V30 4165 H 394.32 2.42343 5.48662 0
M  V30 4166 H 395.999 2.95282 5.75689 0
M  V30 4167 N 396.131 -1.37776 0.765217 0
M  V30 4168 C 397.061 -2.32945 0.160953 0
M  V30 4169 C 398.042 -1.55454 -0.690516 0
M  V30 4170 O 399.227 -1.83721 -0.629318 0
M  V30 4171 C 396.357 -3.39669 -0.724031 0
M  V30 4172 C 395.311 -4.27992 0.0256173 0
M  V30 4173 C 394.637 -5.25673 -0.978383 0
M  V30 4174 C 395.937 -5.08309 1.20082 0
M  V30 4175 H 397.631 -2.83728 0.955969 0
M  V30 4176 H 395.177 -1.36416 0.461149 0
M  V30 4177 H 397.13 -4.05219 -1.15652 0
M  V30 4178 H 395.854 -2.87396 -1.5515 0
M  V30 4179 H 394.513 -3.63964 0.438812 0
M  V30 4180 H 394.161 -4.69682 -1.80022 0
M  V30 4181 H 393.861 -5.85625 -0.481378 0
M  V30 4182 H 395.385 -5.94098 -1.40995 0
M  V30 4183 H 396.799 -5.67034 0.845307 0
M  V30 4184 H 395.196 -5.77554 1.62947 0
M  V30 4185 H 396.266 -4.41365 2.00811 0
M  V30 4186 N 397.609 -0.515225 -1.4894 0
M  V30 4187 C 398.858 0.0261361 -2.01683 0
M  V30 4188 C 399.171 1.36719 -1.39883 0
M  V30 4189 O 400.377 1.99606 -1.84037 0
M  V30 4190 C 398.833 0.0970111 -3.59769 0
M  V30 4191 C 398.441 -1.23825 -4.30548 0
M  V30 4192 C 400.185 0.587981 -4.20408 0
M  V30 4193 C 398.092 -1.12877 -5.80528 0
M  V30 4194 H 397.022 0.0135398 -0.753878 0
M  V30 4195 H 399.673 -0.656787 -1.71343 0
M  V30 4196 H 398.055 0.844694 -3.86886 0
M  V30 4197 H 399.229 -2.00034 -4.15118 0
M  V30 4198 H 397.544 -1.66379 -3.81716 0
M  V30 4199 H 400.141 0.68763 -5.3026 0
M  V30 4200 H 400.484 1.59026 -3.84729 0
M  V30 4201 H 401.017 -0.103582 -3.97665 0
M  V30 4202 H 397.756 -2.10575 -6.20756 0
M  V30 4203 H 397.276 -0.407799 -5.98412 0
M  V30 4204 H 398.955 -0.813332 -6.41868 0
M  V30 4205 N 399.087 1.5561 -0.249682 0
M  V30 4206 C 400.017 2.24477 0.642826 0
M  V30 4207 C 400.998 1.22601 1.17911 0
M  V30 4208 O 402.183 1.5126 1.21795 0
M  V30 4209 C 399.313 2.94638 1.83863 0
M  V30 4210 C 398.267 4.03227 1.435 0
M  V30 4211 C 397.593 4.60828 2.71186 0
M  V30 4212 C 398.893 5.18796 0.604002 0
M  V30 4213 H 400.587 2.99321 0.0685625 0
M  V30 4214 H 398.133 1.43965 0.0315363 0
M  V30 4215 H 400.086 3.41517 2.46868 0
M  V30 4216 H 398.81 2.17287 2.43832 0
M  V30 4217 H 397.469 3.57121 0.828275 0
M  V30 4218 H 397.117 3.80174 3.29358 0
M  V30 4219 H 396.817 5.34132 2.44901 0
M  V30 4220 H 398.341 5.10442 3.35084 0
M  V30 4221 H 399.755 5.61883 1.13842 0
M  V30 4222 H 398.152 5.98506 0.437097 0
M  V30 4223 H 399.222 4.83384 -0.383147 0
M  V30 4224 N 400.565 -0.0233959 1.57583 0
M  V30 4225 C 401.981 -0.379134 1.55031 0
M  V30 4226 C 402.181 -1.76255 0.976548 0
M  V30 4227 O 401.237 -2.45266 0.600078 0
M  V30 4228 C 402.55 -0.275792 2.99433 0
M  V30 4229 C 404.098 -0.352458 3.11009 0
M  V30 4230 C 404.573 -0.278501 4.57152 0
M  V30 4231 N 406.064 -0.337123 4.61972 0
M  V30 4232 C 406.799 -0.302876 5.726 0
M  V30 4233 N 406.295 -0.220589 6.92449 0
M  V30 4234 N 408.088 -0.353023 5.6099 0
M  V30 4235 H 400.239 0.881869 1.93227 0
M  V30 4236 H 402.502 0.335867 0.886509 0
M  V30 4237 H 402.208 0.675108 3.4516 0
M  V30 4238 H 402.082 -1.06721 3.61788 0
M  V30 4239 H 404.469 -1.29379 2.65226 0
M  V30 4240 H 404.55 0.468409 2.51475 0
M  V30 4241 H 404.194 0.659189 5.03604 0
M  V30 4242 H 404.124 -1.11755 5.14605 0
M  V30 4243 H 406.615 -0.403002 3.75745 0
M  V30 4244 H 406.928 -0.199713 7.72542 0
M  V30 4245 H 405.273 -0.186555 6.9475 0
M  V30 4246 H 408.464 -0.415339 4.66254 0
M  V30 4247 H 408.637 -0.322866 6.47195 0
M  V30 4248 N 402.043 -1.548 -0.295768 0
M  V30 4249 C 403.292 -1.73538 -1.02798 0
M  V30 4250 C 403.605 -0.531159 -1.8825 0
M  V30 4251 O 404.811 -0.600458 -2.64777 0
M  V30 4252 C 403.267 -3.07051 -1.87744 0
M  V30 4253 C 402.875 -4.34968 -1.07269 0
M  V30 4254 C 404.619 -3.35146 -2.60533 0
M  V30 4255 C 402.526 -5.5953 -1.91521 0
M  V30 4256 H 401.456 -0.646794 -0.387522 0
M  V30 4257 H 404.107 -1.81278 -0.284718 0
M  V30 4258 H 402.489 -2.93289 -2.66078 0
M  V30 4259 H 403.663 -4.5958 -0.335117 0
M  V30 4260 H 401.978 -4.13847 -0.460384 0
M  V30 4261 H 404.575 -4.2541 -3.23929 0
M  V30 4262 H 404.918 -2.54255 -3.29636 0
M  V30 4263 H 405.451 -3.49902 -1.89244 0
M  V30 4264 H 402.19 -6.43103 -1.26878 0
M  V30 4265 H 401.71 -5.39096 -2.62937 0
M  V30 4266 H 403.389 -5.96982 -2.49442 0
M  V30 4267 N 403.521 0.559213 -1.47345 0
M  V30 4268 C 404.761 1.32728 -1.55444 0
M  V30 4269 C 405.125 1.90838 -0.210895 0
M  V30 4270 O 406.326 2.68282 -0.166719 0
M  V30 4271 C 404.597 2.4092 -2.63993 0
M  V30 4272 S 406.156 3.2784 -2.91661 0
M  V30 4273 H 402.974 0.451883 -0.548929 0
M  V30 4274 H 405.576 0.640404 -1.84714 0
M  V30 4275 H 404.28 1.9666 -3.60212 0
M  V30 4276 H 403.811 3.14351 -2.36531 0
M  V30 4277 H 405.826 4.40341 -2.28722 0
M  V30 4278 N 404.999 1.35443 0.805782 0
M  V30 4279 C 406.227 1.31878 1.59423 0
M  V30 4280 C 406.642 -0.103562 1.88516 0
M  V30 4281 O 405.999 -1.05575 1.48863 0
M  V30 4282 C 406.05 2.12426 2.92502 0
M  V30 4283 O 405.771 3.49115 2.6467 0
M  V30 4284 C 407.272 2.16455 3.86862 0
M  V30 4285 H 404.492 0.453002 0.495005 0
M  V30 4286 H 407.036 1.78309 1.00131 0
M  V30 4287 H 405.191 1.69593 3.48306 0
M  V30 4288 H 405.605 3.90957 3.49647 0
M  V30 4289 H 407.079 2.77204 4.77349 0
M  V30 4290 H 407.556 1.16352 4.23508 0
M  V30 4291 H 408.162 2.59453 3.36993 0
M  V30 4292 N 406.477 -1.02803 1.19454 0
M  V30 4293 C 407.893 -1.28473 0.946937 0
M  V30 4294 C 408.093 -1.97881 -0.380202 0
M  V30 4295 O 407.149 -2.26719 -1.11151 0
M  V30 4296 C 408.462 -2.13099 2.12154 0
M  V30 4297 C 410.01 -2.26404 2.16126 0
M  V30 4298 C 410.485 -3.14402 3.33039 0
M  V30 4299 N 411.976 -3.21991 3.32981 0
M  V30 4300 C 412.711 -3.90272 4.20089 0
M  V30 4301 N 412.207 -4.60777 5.17355 0
M  V30 4302 N 414 -3.8668 4.07964 0
M  V30 4303 H 406.151 -0.561665 2.04839 0
M  V30 4304 H 408.414 -0.310438 0.89573 0
M  V30 4305 H 408.12 -1.69422 3.08203 0
M  V30 4306 H 407.994 -3.13813 2.09287 0
M  V30 4307 H 410.381 -2.69311 1.20647 0
M  V30 4308 H 410.462 -1.25237 2.23045 0
M  V30 4309 H 410.106 -2.72204 4.28798 0
M  V30 4310 H 410.036 -4.1563 3.23356 0
M  V30 4311 H 412.527 -2.71778 2.62574 0
M  V30 4312 H 412.84 -5.10513 5.80169 0
M  V30 4313 H 411.185 -4.5964 5.21302 0
M  V30 4314 H 414.376 -3.30739 3.31254 0
M  V30 4315 H 414.549 -4.39621 4.76064 0
M  V30 4316 N 407.956 -0.998596 -1.21925 0
M  V30 4317 C 409.186 -0.695276 -1.94549 0
M  V30 4318 C 409.594 0.745079 -1.73911 0
M  V30 4319 O 408.937 1.51507 -1.03881 0
M  V30 4320 C 408.999 -0.928485 -3.47303 0
M  V30 4321 C 408.663 -2.35443 -3.91683 0
M  V30 4322 C 409.66 -3.33428 -3.98901 0
M  V30 4323 C 407.345 -2.69038 -4.24174 0
M  V30 4324 C 409.339 -4.63079 -4.37992 0
M  V30 4325 C 407.026 -3.98906 -4.62944 0
M  V30 4326 C 408.024 -4.95738 -4.69822 0
M  V30 4327 O 407.712 -6.23285 -5.07711 0
M  V30 4328 H 407.444 -0.255902 -0.625692 0
M  V30 4329 H 409.998 -1.33767 -1.5587 0
M  V30 4330 H 408.228 -0.228917 -3.86022 0
M  V30 4331 H 409.917 -0.619539 -4.01144 0
M  V30 4332 H 410.683 -3.08807 -3.73983 0
M  V30 4333 H 406.562 -1.94367 -4.18022 0
M  V30 4334 H 410.106 -5.38658 -4.43275 0
M  V30 4335 H 406.003 -4.23314 -4.87314 0
M  V30 4336 H 406.771 -6.27306 -5.25766 0
M  V30 4337 N 409.434 1.37368 -0.772513 0
M  V30 4338 C 410.662 2.03942 -0.348588 0
M  V30 4339 C 411.077 1.58264 1.02947 0
M  V30 4340 O 410.434 0.764246 1.65727 0
M  V30 4341 C 410.485 3.5946 -0.38351 0
M  V30 4342 O 410.206 4.03468 -1.70721 0
M  V30 4343 C 411.707 4.4327 0.0519152 0
M  V30 4344 H 408.927 0.654931 -0.145966 0
M  V30 4345 H 411.471 1.75686 -1.04665 0
M  V30 4346 H 409.626 3.86486 0.265978 0
M  V30 4347 H 410.04 4.97991 -1.64636 0
M  V30 4348 H 411.514 5.51995 -0.0236733 0
M  V30 4349 H 411.991 4.2514 1.10238 0
M  V30 4350 H 412.597 4.21471 -0.569415 0
M  V30 4351 N 410.912 0.523116 1.48665 0
M  V30 4352 C 412.323 0.0808997 1.86525 0
M  V30 4353 C 412.674 -1.33975 1.43336 0
M  V30 4354 O 411.799 -2.00221 0.821009 0
M  V30 4355 C 412.394 0.140037 3.3851 0
M  V30 4356 C 410.953 -0.246948 3.75589 0
M  V30 4357 C 410.1 0.502845 2.72703 0
M  V30 4358 H 413.051 0.734736 1.40667 0
M  V30 4359 H 413.072 -0.649945 3.74908 0
M  V30 4360 H 412.584 1.17412 3.69914 0
M  V30 4361 H 410.685 -1.28343 3.49798 0
M  V30 4362 H 410.798 0.0878859 4.79019 0
M  V30 4363 H 409.162 -0.0500581 2.54651 0
M  V30 4364 H 409.945 1.53743 3.0695 0
M  V30 4365 N 412.39 -1.55475 0.257931 0
M  V30 4366 C 413.3 -2.2549 -0.647425 0
M  V30 4367 C 414.316 -1.2748 -1.18427 0
M  V30 4368 O 415.492 -1.6038 -1.2182 0
M  V30 4369 C 412.557 -2.94916 -1.82278 0
M  V30 4370 C 411.618 -4.08363 -1.32432 0
M  V30 4371 C 410.851 -4.74469 -2.44366 0
M  V30 4372 O 411.074 -4.39701 -3.63344 0
M  V30 4373 O 410.008 -5.62763 -2.13497 0
M  V30 4374 H 413.834 -3.03593 -0.0807707 0
M  V30 4375 H 411.419 -1.49377 0.0259962 0
M  V30 4376 H 413.301 -3.38606 -2.50846 0
M  V30 4377 H 411.976 -2.19744 -2.37685 0
M  V30 4378 H 410.883 -3.69166 -0.605605 0
M  V30 4379 H 412.216 -4.85385 -0.816211 0
M  V30 4380 N 413.868 0.0150385 -1.57593 0
M  V30 4381 C 414.8 1.03912 -2.04291 0
M  V30 4382 C 415.813 1.31618 -0.958146 0
M  V30 4383 O 417.002 1.28859 -1.23522 0
M  V30 4384 C 414.102 2.37749 -2.41514 0
M  V30 4385 C 413.275 2.29198 -3.72541 0
M  V30 4386 C 412.334 3.45598 -3.96797 0
M  V30 4387 O 411.36 3.24461 -4.67668 0
M  V30 4388 N 412.562 4.67945 -3.43523 0
M  V30 4389 H 415.327 0.64099 -2.92765 0
M  V30 4390 H 412.888 0.20272 -1.60626 0
M  V30 4391 H 414.88 3.14364 -2.54867 0
M  V30 4392 H 413.45 2.69357 -1.58637 0
M  V30 4393 H 412.67 1.3759 -3.69408 0
M  V30 4394 H 413.958 2.20642 -4.5847 0
M  V30 4395 H 413.356 4.88017 -2.86104 0
M  V30 4396 H 411.913 5.41878 -3.62232 0
M  V30 4397 N 415.346 1.54954 0.287554 0
M  V30 4398 C 416.623 1.65569 1.04146 0
M  V30 4399 C 417.003 0.512672 2.0478 0
M  V30 4400 O 416.351 -0.489038 2.23205 0
M  V30 4401 C 416.561 3.04163 1.71131 0
M  V30 4402 C 417.909 3.61429 2.22832 0
M  V30 4403 O 418.933 3.06702 1.81141 0
M  V30 4404 O 417.792 4.57281 2.9926 0
M  V30 4405 H 414.886 0.671881 0.482188 0
M  V30 4406 H 417.432 1.67297 0.28457 0
M  V30 4407 H 416.204 3.78796 0.981303 0
M  V30 4408 H 415.827 3.06271 2.53543 0
M  V30 4409 N 416.824 -0.551391 1.4764 0
M  V30 4410 C 418.052 -1.33357 1.58189 0
M  V30 4411 C 418.467 -1.87342 0.234199 0
M  V30 4412 O 417.824 -1.65301 -0.77343 0
M  V30 4413 C 417.875 -2.49942 2.61173 0
M  V30 4414 O 417.596 -1.98187 3.90709 0
M  V30 4415 C 419.097 -3.42072 2.8196 0
M  V30 4416 H 416.317 -0.40631 0.533998 0
M  V30 4417 H 418.861 -0.667367 1.93304 0
M  V30 4418 H 417.016 -3.12489 2.28975 0
M  V30 4419 H 417.43 -2.74342 4.47031 0
M  V30 4420 H 418.904 -4.20278 3.57869 0
M  V30 4421 H 419.381 -3.95978 1.89995 0
M  V30 4422 H 419.987 -2.85336 3.15378 0
M  V30 4423 N 418.302 -1.35869 -0.798587 0
M  V30 4424 C 419.235 -1.23801 -1.91699 0
M  V30 4425 C 420.213 -0.124143 -1.62125 0
M  V30 4426 O 421.397 -0.293656 -1.86199 0
M  V30 4427 C 418.524 -0.908063 -3.263 0
M  V30 4428 C 417.57 -2.0351 -3.74815 0
M  V30 4429 S 418.403 -3.65183 -3.91665 0
M  V30 4430 C 419.559 -3.34283 -5.29156 0
M  V30 4431 H 419.792 -2.18466 -2.01643 0
M  V30 4432 H 417.325 -1.21178 -0.956833 0
M  V30 4433 H 419.283 -0.724506 -4.04056 0
M  V30 4434 H 417.944 0.0206584 -3.14093 0
M  V30 4435 H 417.137 -1.75858 -4.72324 0
M  V30 4436 H 416.739 -2.1774 -3.04081 0
M  V30 4437 H 419.031 -2.87607 -6.13424 0
M  V30 4438 H 419.974 -4.31022 -5.61806 0
M  V30 4439 H 420.382 -2.69854 -4.95822 0
M  V30 4440 N 419.78 1.02168 -1.19998 0
M  V30 4441 C 421.008 1.79296 -1.03249 0
M  V30 4442 C 421.423 1.84103 0.418502 0
M  V30 4443 O 420.78 1.29031 1.29063 0
M  V30 4444 C 420.831 3.24007 -1.60319 0
M  V30 4445 O 420.552 3.19512 -2.99739 0
M  V30 4446 C 422.053 4.17704 -1.48453 0
M  V30 4447 H 419.273 0.564016 -0.363493 0
M  V30 4448 H 421.817 1.28639 -1.58973 0
M  V30 4449 H 419.972 3.7183 -1.08727 0
M  V30 4450 H 420.386 4.10306 -3.26725 0
M  V30 4451 H 421.86 5.17104 -1.93153 0
M  V30 4452 H 422.337 4.37029 -0.436193 0
M  V30 4453 H 422.943 3.7576 -1.99211 0
M  V30 4454 N 421.258 1.00505 1.21394 0
M  V30 4455 C 422.505 0.687774 1.90462 0
M  V30 4456 C 422.833 -0.78147 1.7811 0
M  V30 4457 O 422.088 -1.58208 1.1519 0
M  V30 4458 C 422.387 1.0546 3.41486 0
M  V30 4459 C 422.053 2.51812 3.74034 0
M  V30 4460 C 420.715 2.91804 3.82628 0
M  V30 4461 C 423.067 3.46614 3.8924 0
M  V30 4462 C 420.395 4.2556 4.03876 0
M  V30 4463 C 422.747 4.80044 4.11995 0
M  V30 4464 C 421.411 5.19759 4.18816 0
M  V30 4465 H 420.681 0.251674 0.696951 0
M  V30 4466 H 423.328 1.26349 1.43903 0
M  V30 4467 H 421.633 0.397133 3.89782 0
M  V30 4468 H 423.33 0.786976 3.93202 0
M  V30 4469 H 419.92 2.1982 3.67936 0
M  V30 4470 H 424.104 3.16883 3.81967 0
M  V30 4471 H 419.36 4.55901 4.07387 0
M  V30 4472 H 423.534 5.53439 4.22704 0
M  V30 4473 H 421.161 6.23418 4.35033 0
M  V30 4474 N 422.737 -1.36956 0.779787 0
M  V30 4475 C 423.962 -2.04283 0.358224 0
M  V30 4476 C 424.387 -1.58422 -1.01411 0
M  V30 4477 O 423.745 -0.748179 -1.65142 0
M  V30 4478 C 423.793 -3.58152 0.419479 0
M  V30 4479 O 422.897 -4.08342 -0.577142 0
M  V30 4480 H 422.238 -0.645967 0.153698 0
M  V30 4481 H 424.768 -1.75108 1.05822 0
M  V30 4482 H 424.778 -4.07041 0.279636 0
M  V30 4483 H 423.453 -3.90886 1.42061 0
M  V30 4484 H 422.03 -3.70751 -0.399755 0
M  V30 4485 N 424.215 -0.530993 -1.48385 0
M  V30 4486 C 425.492 0.0671788 -1.95485 0
M  V30 4487 C 425.872 1.51191 -1.47324 0
M  V30 4488 O 425.22 2.17507 -0.700202 0
M  V30 4489 C 425.43 -0.0511206 -3.48963 0
M  V30 4490 C 426.778 0.107632 -4.24464 0
M  V30 4491 O 427.802 0.0226248 -3.56193 0
M  V30 4492 O 426.661 0.285972 -5.45751 0
M  V30 4493 H 423.755 0.0787365 -0.823243 0
M  V30 4494 H 426.301 -0.595662 -1.58902 0
M  V30 4495 H 425.073 -1.05747 -3.7674 0
M  V30 4496 H 424.696 0.650525 -3.92242 0
M  V30 4497 N 425.693 1.55336 -0.266172 0
M  V30 4498 C 426.941 1.99003 0.35246 0
M  V30 4499 C 427.262 1.15591 1.57047 0
M  V30 4500 O 426.532 0.243268 1.94384 0
M  V30 4501 H 425.112 0.735025 0.133217 0
M  V30 4502 H 427.774 1.91367 -0.369434 0
M  V30 4503 H 426.87 3.05289 0.648453 0
M  V30 4504 N 427.171 -0.0066808 1.57599 0
M  V30 4505 C 428.101 -0.999296 2.11036 0
M  V30 4506 C 429.082 -1.36278 1.01795 0
M  V30 4507 O 430.267 -1.4477 1.29442 0
M  V30 4508 C 427.397 -2.29328 2.60818 0
M  V30 4509 C 426.351 -2.07159 3.74525 0
M  V30 4510 C 425.677 -3.42512 4.10596 0
M  V30 4511 C 426.977 -1.43959 5.02069 0
M  V30 4512 H 428.671 -0.554382 2.94223 0
M  V30 4513 H 426.217 -0.265221 1.41536 0
M  V30 4514 H 428.17 -2.99117 2.96828 0
M  V30 4515 H 426.894 -2.7592 1.74745 0
M  V30 4516 H 425.553 -1.39797 3.38899 0
M  V30 4517 H 425.201 -3.86795 3.21556 0
M  V30 4518 H 424.901 -3.28498 4.87199 0
M  V30 4519 H 426.425 -4.13628 4.4916 0
M  V30 4520 H 427.839 -2.03696 5.35893 0
M  V30 4521 H 426.236 -1.40452 5.83432 0
M  V30 4522 H 427.306 -0.407992 4.83181 0
M  V30 4523 N 428.649 -1.55105 -0.279332 0
M  V30 4524 C 429.877 -1.7943 -1.03017 0
M  V30 4525 C 430.292 -0.564456 -1.80165 0
M  V30 4526 O 429.649 0.466326 -1.76442 0
M  V30 4527 C 429.7 -3.0155 -1.99374 0
M  V30 4528 O 429.421 -4.19784 -1.25352 0
M  V30 4529 C 430.922 -3.3843 -2.86321 0
M  V30 4530 H 428.142 -0.597882 -0.304594 0
M  V30 4531 H 430.686 -2.02105 -0.312035 0
M  V30 4532 H 428.841 -2.81019 -2.66659 0
M  V30 4533 H 429.255 -4.88781 -1.90246 0
M  V30 4534 H 430.729 -4.27066 -3.49741 0
M  V30 4535 H 431.206 -2.57549 -3.5576 0
M  V30 4536 H 431.812 -3.61197 -2.24536 0
M  V30 4537 N 430.127 0.543554 -1.4793 0
M  V30 4538 C 431.057 1.65888 -1.64327 0
M  V30 4539 C 432.038 1.62818 -0.492383 0
M  V30 4540 O 433.223 1.80226 -0.723338 0
M  V30 4541 C 430.353 3.04506 -1.67013 0
M  V30 4542 C 429.307 3.2243 -2.81466 0
M  V30 4543 C 428.633 4.61972 -2.69233 0
M  V30 4544 C 429.933 3.06496 -4.22915 0
M  V30 4545 H 431.627 1.52421 -2.57698 0
M  V30 4546 H 429.173 0.731849 -1.24016 0
M  V30 4547 H 431.126 3.82391 -1.77074 0
M  V30 4548 H 429.85 3.18964 -0.70212 0
M  V30 4549 H 428.509 2.46957 -2.70938 0
M  V30 4550 H 428.157 4.73247 -1.7043 0
M  V30 4551 H 427.857 4.74911 -3.46025 0
M  V30 4552 H 429.381 5.41974 -2.81242 0
M  V30 4553 H 430.795 3.74186 -4.34348 0
M  V30 4554 H 429.192 3.30938 -5.006 0
M  V30 4555 H 430.262 2.03077 -4.40327 0
M  V30 4556 N 431.605 1.3629 0.791371 0
M  V30 4557 C 432.553 1.30514 1.92533 0
M  V30 4558 C 433.547 0.197285 1.68247 0
M  V30 4559 O 434.753 0.364176 1.76278 0
M  V30 4560 H 431.128 0.406263 0.632815 0
M  V30 4561 H 433.099 2.26282 1.94523 0
M  V30 4562 C 431.848 1.10933 3.29529 0
M  V30 4563 H 431.171 1.95427 3.48781 0
M  V30 4564 H 432.611 1.10937 4.0923 0
M  V30 4565 C 431.07 -0.186123 3.36385 0
M  V30 4566 O 431.6 -1.17664 3.84081 0
M  V30 4567 N 429.806 -0.230128 2.89687 0
M  V30 4568 H 429.353 0.576545 2.51065 0
M  V30 4569 H 429.311 -1.09658 2.94657 0
M  V30 4570 N 433.083 -1.0153 1.20538 0
M  V30 4571 C 434.499 -1.27461 0.96051 0
M  V30 4572 C 434.699 -1.98273 -0.359193 0
M  V30 4573 O 433.755 -2.27886 -1.0874 0
M  V30 4574 C 435.068 -2.10837 2.14402 0
M  V30 4575 C 436.616 -2.24099 2.18515 0
M  V30 4576 C 437.091 -3.10852 3.36355 0
M  V30 4577 N 438.582 -3.18441 3.36377 0
M  V30 4578 C 439.317 -3.85795 4.24205 0
M  V30 4579 N 438.813 -4.55264 5.22213 0
M  V30 4580 N 440.606 -3.82331 4.12043 0
M  V30 4581 H 432.757 -0.539907 2.05423 0
M  V30 4582 H 435.02 -0.30092 0.898972 0
M  V30 4583 H 434.726 -1.66144 3.09983 0
M  V30 4584 H 434.6 -3.11576 2.12604 0
M  V30 4585 H 436.987 -2.68016 1.23497 0
M  V30 4586 H 437.068 -1.22865 2.24361 0
M  V30 4587 H 436.712 -2.6764 4.31661 0
M  V30 4588 H 436.642 -4.12177 3.27746 0
M  V30 4589 H 439.133 -2.68978 2.65442 0
M  V30 4590 H 439.446 -5.04331 5.85551 0
M  V30 4591 H 437.791 -4.54085 5.26148 0
M  V30 4592 H 440.982 -3.27207 3.34743 0
M  V30 4593 H 441.155 -4.34547 4.807 0
M  V30 4594 N 434.561 -1.01147 -1.20859 0
M  V30 4595 C 435.789 -0.716911 -1.94082 0
M  V30 4596 C 436.204 0.721568 -1.74467 0
M  V30 4597 O 435.561 1.48889 -1.05539 0
M  V30 4598 C 435.612 -1.03662 -3.46318 0
M  V30 4599 O 435.333 -2.4186 -3.65288 0
M  V30 4600 C 436.834 -0.762386 -4.36695 0
M  V30 4601 H 434.054 -0.26367 -0.617024 0
M  V30 4602 H 436.598 -1.35127 -1.53496 0
M  V30 4603 H 434.753 -0.447757 -3.84804 0
M  V30 4604 H 435.167 -2.53224 -4.59323 0
M  V30 4605 H 436.641 -1.03621 -5.42187 0
M  V30 4606 H 437.118 0.303514 -4.3815 0
M  V30 4607 H 437.724 -1.33316 -4.03865 0
M  V30 4608 N 436.039 1.36541 -0.78704 0
M  V30 4609 C 436.971 2.28761 -0.141773 0
M  V30 4610 C 437.984 1.49365 0.647599 0
M  V30 4611 O 439.173 1.71836 0.483173 0
M  V30 4612 C 436.273 3.28771 0.822368 0
M  V30 4613 C 435.446 4.3732 0.0835594 0
M  V30 4614 C 434.505 5.17307 0.963296 0
M  V30 4615 O 433.531 5.67638 0.421419 0
M  V30 4616 N 434.733 5.33515 2.28784 0
M  V30 4617 H 437.498 2.84777 -0.933919 0
M  V30 4618 H 435.059 1.48682 -0.640735 0
M  V30 4619 H 437.051 3.79169 1.41468 0
M  V30 4620 H 435.621 2.73412 1.5154 0
M  V30 4621 H 434.841 3.88118 -0.689809 0
M  V30 4622 H 436.129 5.0701 -0.426358 0
M  V30 4623 H 435.527 4.94234 2.75226 0
M  V30 4624 H 434.084 5.87165 2.82985 0
M  V30 4625 N 437.518 0.538854 1.48102 0
M  V30 4626 C 438.451 -0.266495 2.26639 0
M  V30 4627 C 439.429 -0.93687 1.32897 0
M  V30 4628 O 440.613 -0.959507 1.62252 0
M  V30 4629 C 437.74 -1.37814 3.09394 0
M  V30 4630 C 436.786 -0.818247 4.18577 0
M  V30 4631 S 437.619 0.320848 5.34538 0
M  V30 4632 C 438.775 -0.793059 6.20855 0
M  V30 4633 H 439.008 0.399994 2.94597 0
M  V30 4634 H 436.541 0.324808 1.50945 0
M  V30 4635 H 438.499 -2.01488 3.57649 0
M  V30 4636 H 437.16 -2.01639 2.40833 0
M  V30 4637 H 436.353 -1.65247 4.7614 0
M  V30 4638 H 435.955 -0.258036 3.73109 0
M  V30 4639 H 438.247 -1.68961 6.56093 0
M  V30 4640 H 439.19 -0.255204 7.0764 0
M  V30 4641 H 439.598 -1.07746 5.54122 0
M  V30 4642 N 438.996 -1.55193 0.274407 0
M  V30 4643 C 439.946 -2.19184 -0.627882 0
M  V30 4644 C 440.93 -1.15625 -1.11892 0
M  V30 4645 O 442.122 -1.41441 -1.06411 0
M  V30 4646 C 439.251 -2.91591 -1.81189 0
M  V30 4647 C 438.337 -4.02438 -1.33807 0
M  V30 4648 N 438.728 -5.0246 -0.580349 0
M  V30 4649 C 437.026 -4.15496 -1.62109 0
M  V30 4650 C 437.727 -5.80756 -0.331344 0
M  V30 4651 N 436.703 -5.36038 -0.903556 0
M  V30 4652 H 440.505 -2.93871 -0.0411216 0
M  V30 4653 H 438.019 -1.62213 0.0779348 0
M  V30 4654 H 440.016 -3.35883 -2.46957 0
M  V30 4655 H 438.676 -2.18414 -2.40261 0
M  V30 4656 H 439.687 -5.17399 -0.227762 0
M  V30 4657 H 436.364 -3.53509 -2.22121 0
M  V30 4658 H 437.754 -6.71335 0.275454 0
M  V30 4659 N 440.474 -0.00167713 -1.576 0
M  V30 4660 C 441.422 1.0074 -2.09652 0
M  V30 4661 C 442.416 1.35483 -1.01689 0
M  V30 4662 O 443.622 1.34028 -1.20152 0
M  V30 4663 H 439.997 0.342537 -0.669457 0
M  V30 4664 H 441.968 0.542841 -2.93421 0
M  V30 4665 C 440.717 2.2899 -2.61647 0
M  V30 4666 H 440.04 2.03124 -3.44355 0
M  V30 4667 H 441.48 2.9787 -3.01744 0
M  V30 4668 C 439.939 3.00085 -1.53136 0
M  V30 4669 O 440.469 3.91135 -0.91524 0
M  V30 4670 N 438.675 2.6194 -1.25841 0
M  V30 4671 H 438.222 1.8798 -1.76129 0
M  V30 4672 H 438.18 3.09822 -0.534576 0
M  V30 4673 N 441.952 1.55251 0.271103 0
M  V30 4674 C 442.915 1.87484 1.31842 0
M  V30 4675 C 443.915 0.749545 1.42262 0
M  V30 4676 O 445.105 1.01771 1.4138 0
M  V30 4677 C 442.237 2.0818 2.69951 0
M  V30 4678 H 443.43 2.81108 1.0449 0
M  V30 4679 H 440.983 1.47771 0.509258 0
M  V30 4680 H 441.718 1.16944 3.02481 0
M  V30 4681 H 441.503 2.90114 2.63774 0
M  V30 4682 H 442.993 2.34385 3.4562 0
M  V30 4683 N 443.43 -0.535701 1.48216 0
M  V30 4684 C 444.678 -1.28928 1.55634 0
M  V30 4685 C 444.999 -1.93645 0.229514 0
M  V30 4686 O 444.269 -1.81038 -0.74846 0
M  V30 4687 H 442.849 -0.47884 0.573342 0
M  V30 4688 H 445.511 -0.623853 1.84646 0
M  V30 4689 H 444.607 -2.07157 2.33436 0
M  V30 4690 N 444.908 -1.36708 -0.784132 0
M  V30 4691 C 446.155 -1.31231 -1.54222 0
M  V30 4692 C 446.483 0.106864 -1.94206 0
M  V30 4693 O 445.738 1.07734 -1.63376 0
M  V30 4694 C 446.037 -2.18571 -2.82774 0
M  V30 4695 C 445.703 -3.67039 -2.61903 0
M  V30 4696 C 444.365 -4.07503 -2.55919 0
M  V30 4697 C 446.717 -4.61149 -2.4288 0
M  V30 4698 C 444.045 -5.40211 -2.28886 0
M  V30 4699 C 446.397 -5.94081 -2.17373 0
M  V30 4700 C 445.061 -6.33664 -2.09825 0
M  V30 4701 H 444.331 -0.48021 -0.56434 0
M  V30 4702 H 446.978 -1.68807 -0.904233 0
M  V30 4703 H 445.283 -1.73949 -3.51068 0
M  V30 4704 H 446.98 -2.11655 -3.40592 0
M  V30 4705 H 443.57 -3.34941 -2.67418 0
M  V30 4706 H 447.754 -4.30756 -2.46501 0
M  V30 4707 H 443.01 -5.69855 -2.21529 0
M  V30 4708 H 447.184 -6.66566 -2.01649 0
M  V30 4709 H 444.811 -7.36423 -1.88641 0
M  V30 4710 N 446.386 1.0089 -1.21074 0
M  V30 4711 C 447.634 1.74262 -1.02358 0
M  V30 4712 C 447.955 1.89869 0.444393 0
M  V30 4713 O 447.225 1.44677 1.32081 0
M  V30 4714 H 445.805 0.645615 -0.375754 0
M  V30 4715 H 448.467 1.21596 -1.52317 0
M  V30 4716 H 447.563 2.74328 -1.4883 0
M  V30 4717 N 447.864 1.01787 1.20321 0
M  V30 4718 C 449.275 0.739307 1.71438 0
M  V30 4719 C 449.626 -0.742041 1.81627 0
M  V30 4720 O 448.751 -1.57903 1.47971 0
M  V30 4721 C 449.346 1.33538 3.11373 0
M  V30 4722 C 447.905 1.10566 3.59795 0
M  V30 4723 C 447.052 1.44028 2.36962 0
M  V30 4724 H 450.003 1.18718 1.05317 0
M  V30 4725 H 450.024 0.726611 3.73498 0
M  V30 4726 H 449.536 2.41352 3.03926 0
M  V30 4727 H 447.637 0.0452405 3.72573 0
M  V30 4728 H 447.75 1.78661 4.44542 0
M  V30 4729 H 446.114 0.85933 2.39766 0
M  V30 4730 H 446.897 2.52901 2.32155 0
M  V30 4731 N 449.342 -1.36122 0.79427 0
M  V30 4732 C 450.272 -2.32551 0.210328 0
M  V30 4733 C 451.253 -1.56884 -0.657386 0
M  V30 4734 O 452.438 -1.85014 -0.590207 0
M  V30 4735 C 449.568 -3.41128 -0.651819 0
M  V30 4736 C 448.522 -4.27842 0.116395 0
M  V30 4737 C 447.848 -5.2763 -0.86666 0
M  V30 4738 C 449.148 -5.05647 1.30837 0
M  V30 4739 H 450.842 -2.81636 1.01594 0
M  V30 4740 H 448.388 -1.35407 0.489981 0
M  V30 4741 H 450.341 -4.07581 -1.07031 0
M  V30 4742 H 449.065 -2.90622 -1.49019 0
M  V30 4743 H 447.724 -3.62952 0.515915 0
M  V30 4744 H 447.372 -4.73395 -1.70019 0
M  V30 4745 H 447.072 -5.86514 -0.35705 0
M  V30 4746 H 448.596 -5.96955 -1.28361 0
M  V30 4747 H 450.01 -5.65113 0.965393 0
M  V30 4748 H 448.407 -5.73967 1.75161 0
M  V30 4749 H 449.477 -4.37006 2.10128 0
M  V30 4750 N 450.82 -0.546701 -1.47814 0
M  V30 4751 C 452.048 -0.0232857 -2.06887 0
M  V30 4752 C 452.463 1.26571 -1.4009 0
M  V30 4753 O 451.82 1.7569 -0.493906 0
M  V30 4754 C 451.871 0.186975 -3.61016 0
M  V30 4755 O 451.592 -1.05097 -4.25307 0
M  V30 4756 C 453.093 0.748872 -4.36929 0
M  V30 4757 H 450.313 -0.0410763 -0.669742 0
M  V30 4758 H 452.857 -0.757117 -1.89968 0
M  V30 4759 H 451.012 0.870903 -3.77484 0
M  V30 4760 H 451.426 -0.842121 -5.17695 0
M  V30 4761 H 452.9 0.845334 -5.45489 0
M  V30 4762 H 453.377 1.75772 -4.02493 0
M  V30 4763 H 453.983 0.100979 -4.2518 0
M  V30 4764 N 452.299 1.55045 -0.282633 0
M  V30 4765 C 453.576 1.9179 0.384166 0
M  V30 4766 C 453.956 1.20778 1.73136 0
M  V30 4767 O 453.304 0.33719 2.25998 0
M  V30 4768 C 453.514 3.45149 0.517014 0
M  V30 4769 C 454.862 4.17064 0.796427 0
M  V30 4770 O 455.886 3.51084 0.601535 0
M  V30 4771 O 454.745 5.33837 1.16962 0
M  V30 4772 H 451.839 0.799483 0.211558 0
M  V30 4773 H 454.385 1.66474 -0.32934 0
M  V30 4774 H 453.157 3.88922 -0.430772 0
M  V30 4775 H 452.78 3.76443 1.2797 0
M  V30 4776 N 453.777 0.010035 1.57597 0
M  V30 4777 C 454.707 -0.976857 2.12084 0
M  V30 4778 C 455.688 -1.35191 1.03235 0
M  V30 4779 O 456.873 -1.43389 1.3097 0
M  V30 4780 C 454.003 -2.26548 2.63236 0
M  V30 4781 C 452.957 -2.03175 3.76701 0
M  V30 4782 C 452.283 -3.38138 4.14206 0
M  V30 4783 C 453.583 -1.38625 5.03568 0
M  V30 4784 H 455.277 -0.523145 2.94794 0
M  V30 4785 H 452.823 -0.250195 1.4181 0
M  V30 4786 H 454.776 -2.95952 2.99984 0
M  V30 4787 H 453.5 -2.74051 1.77661 0
M  V30 4788 H 452.159 -1.36195 3.40362 0
M  V30 4789 H 451.807 -3.83363 3.25641 0
M  V30 4790 H 451.507 -3.23312 4.90656 0
M  V30 4791 H 453.031 -4.08841 4.53521 0
M  V30 4792 H 454.445 -1.98 5.38023 0
M  V30 4793 H 452.842 -1.34256 5.84889 0
M  V30 4794 H 453.912 -0.356722 4.83586 0
M  V30 4795 N 455.255 -1.55392 -0.262866 0
M  V30 4796 C 456.501 -1.76737 -0.99458 0
M  V30 4797 C 456.834 -0.572453 -1.85571 0
M  V30 4798 O 456.109 0.429732 -1.89693 0
M  V30 4799 C 456.392 -3.07824 -1.8686 0
M  V30 4800 C 456.245 -4.3769 -1.03672 0
M  V30 4801 C 457.564 -3.35021 -2.85393 0
M  V30 4802 H 454.683 -0.643005 -0.360157 0
M  V30 4803 H 457.325 -1.88126 -0.266216 0
M  V30 4804 H 455.475 -2.98245 -2.48962 0
M  V30 4805 H 457.147 -4.59238 -0.43563 0
M  V30 4806 H 455.39 -4.32461 -0.340513 0
M  V30 4807 H 456.061 -5.25759 -1.6817 0
M  V30 4808 H 458.537 -3.44458 -2.33426 0
M  V30 4809 H 457.413 -4.27989 -3.43681 0
M  V30 4810 H 457.674 -2.55153 -3.61039 0
M  V30 4811 N 456.733 0.527833 -1.48498 0
M  V30 4812 C 457.98 1.28354 -1.56625 0
M  V30 4813 C 458.308 1.93 -0.241096 0
M  V30 4814 O 457.563 1.79967 0.768798 0
M  V30 4815 C 457.862 2.39275 -2.65485 0
M  V30 4816 C 457.528 1.92268 -4.07853 0
M  V30 4817 C 456.19 1.79166 -4.46602 0
M  V30 4818 C 458.542 1.56771 -4.97064 0
M  V30 4819 C 455.87 1.28905 -5.72364 0
M  V30 4820 C 458.222 1.07972 -6.23318 0
M  V30 4821 C 456.886 0.934887 -6.60921 0
M  V30 4822 H 456.156 0.469682 -0.573131 0
M  V30 4823 H 458.803 0.588781 -1.82224 0
M  V30 4824 H 457.108 3.1443 -2.33754 0
M  V30 4825 H 458.805 2.974 -2.68988 0
M  V30 4826 H 455.395 2.03417 -3.77252 0
M  V30 4827 H 459.579 1.65753 -4.67803 0
M  V30 4828 H 454.835 1.16381 -6.00221 0
M  V30 4829 H 459.009 0.795775 -6.91838 0
M  V30 4830 H 456.636 0.543231 -7.58257 0
M  V30 4831 N 458.211 1.37122 0.776871 0
M  V30 4832 C 459.439 1.3523 1.5659 0
M  V30 4833 C 459.854 -0.0635518 1.88693 0
M  V30 4834 O 459.211 -1.02394 1.51069 0
M  V30 4835 C 459.262 2.18583 2.8793 0
M  V30 4836 O 458.983 3.5465 2.57206 0
M  V30 4837 C 460.484 2.24612 3.82183 0
M  V30 4838 H 457.704 0.4634 0.485285 0
M  V30 4839 H 460.248 1.80392 0.963266 0
M  V30 4840 H 458.403 1.76943 3.4463 0
M  V30 4841 H 458.817 3.98286 3.41275 0
M  V30 4842 H 460.291 2.87267 4.71361 0
M  V30 4843 H 460.768 1.25309 4.20944 0
M  V30 4844 H 461.374 2.66543 3.31414 0
M  V30 4845 N 459.689 -1.00246 1.21608 0
M  V30 4846 C 460.936 -1.74061 1.03485 0
M  V30 4847 C 461.264 -1.89658 -0.431308 0
M  V30 4848 O 460.519 -1.42976 -1.33627 0
M  V30 4849 C 460.818 -3.15448 1.68009 0
M  V30 4850 C 460.484 -3.19792 3.17874 0
M  V30 4851 C 459.146 -3.20685 3.58768 0
M  V30 4852 C 461.498 -3.16835 4.13842 0
M  V30 4853 C 458.826 -3.16309 4.94131 0
M  V30 4854 C 461.178 -3.14001 5.49169 0
M  V30 4855 C 459.842 -3.13204 5.89457 0
M  V30 4856 H 459.112 -0.636934 0.378677 0
M  V30 4857 H 461.759 -1.17473 1.51236 0
M  V30 4858 H 460.064 -3.75284 1.12557 0
M  V30 4859 H 461.761 -3.71285 1.51487 0
M  V30 4860 H 458.351 -3.19842 2.85305 0
M  V30 4861 H 462.535 -3.15303 3.83272 0
M  V30 4862 H 457.791 -3.14032 5.24589 0
M  V30 4863 H 461.965 -3.10667 6.23265 0
M  V30 4864 H 459.592 -3.09568 6.94314 0
M  V30 4865 N 461.167 -1.02423 -1.1978 0
M  V30 4866 C 462.13 -0.605703 -2.21052 0
M  V30 4867 C 463.13 0.328209 -1.57415 0
M  V30 4868 O 464.32 0.115853 -1.73814 0
M  V30 4869 C 461.452 0.114366 -3.40708 0
M  V30 4870 H 462.645 -1.5017 -2.59594 0
M  V30 4871 H 460.198 -0.814888 -1.33376 0
M  V30 4872 H 460.933 1.02492 -3.07678 0
M  V30 4873 H 460.718 -0.556641 -3.88129 0
M  V30 4874 H 462.208 0.394272 -4.15735 0
M  V30 4875 N 462.645 1.35699 -0.801477 0
M  V30 4876 C 463.593 2.3177 -0.196317 0
M  V30 4877 C 464.587 1.56388 0.651081 0
M  V30 4878 O 465.793 1.71557 0.544815 0
M  V30 4879 H 462.168 0.750669 -0.0447189 0
M  V30 4880 H 464.139 2.8036 -1.02181 0
M  V30 4881 C 462.888 3.41671 0.644702 0
M  V30 4882 H 462.211 3.998 0.0019921 0
M  V30 4883 H 463.651 4.11184 1.0346 0
M  V30 4884 C 462.11 2.84271 1.80808 0
M  V30 4885 O 462.64 2.77408 2.9053 0
M  V30 4886 N 460.846 2.41391 1.61799 0
M  V30 4887 H 460.393 2.47173 0.725493 0
M  V30 4888 H 460.351 2.03334 2.39797 0
M  V30 4889 N 464.123 0.554532 1.47522 0
M  V30 4890 C 465.055 -0.232106 2.28022 0
M  V30 4891 C 466.068 -0.881865 1.36847 0
M  V30 4892 O 467.257 -0.756168 1.61692 0
M  V30 4893 C 464.357 -1.34604 3.11022 0
M  V30 4894 C 463.53 -0.793582 4.30141 0
M  V30 4895 C 462.589 -1.79168 4.94758 0
M  V30 4896 O 461.615 -1.33886 5.5323 0
M  V30 4897 N 462.817 -3.12495 4.89211 0
M  V30 4898 H 465.582 0.458407 2.96173 0
M  V30 4899 H 463.143 0.390433 1.57122 0
M  V30 4900 H 465.135 -2.01243 3.51118 0
M  V30 4901 H 463.705 -1.93983 2.45131 0
M  V30 4902 H 462.925 0.0495025 3.94169 0
M  V30 4903 H 464.213 -0.403776 5.07195 0
M  V30 4904 H 463.611 -3.51931 4.42901 0
M  V30 4905 H 462.168 -3.74698 5.33333 0
M  V30 4906 N 465.601 -1.54893 0.290851 0
M  V30 4907 C 466.531 -2.26103 -0.583084 0
M  V30 4908 C 467.512 -1.25684 -1.14619 0
M  V30 4909 O 468.697 -1.54436 -1.17741 0
M  V30 4910 C 465.827 -2.99409 -1.75987 0
M  V30 4911 C 464.781 -4.0689 -1.32758 0
M  V30 4912 C 464.107 -4.67856 -2.58872 0
M  V30 4913 C 465.407 -5.20215 -0.46624 0
M  V30 4914 H 467.101 -2.99398 0.0108214 0
M  V30 4915 H 464.647 -1.43998 0.00664468 0
M  V30 4916 H 466.6 -3.47943 -2.37727 0
M  V30 4917 H 465.324 -2.23675 -2.37985 0
M  V30 4918 H 463.983 -3.59191 -0.733299 0
M  V30 4919 H 463.631 -3.88772 -3.19163 0
M  V30 4920 H 463.331 -5.40438 -2.30653 0
M  V30 4921 H 464.855 -5.19147 -3.21433 0
M  V30 4922 H 466.269 -5.64704 -0.989047 0
M  V30 4923 H 464.666 -5.99455 -0.27826 0
M  V30 4924 H 465.736 -4.82198 0.511173 0
M  V30 4925 N 467.08 -0.0183926 -1.57589 0
M  V30 4926 C 468.01 0.965596 -2.12599 0
M  V30 4927 C 468.991 1.34641 -1.0395 0
M  V30 4928 O 470.176 1.42693 -1.31729 0
M  V30 4929 C 467.306 2.25149 -2.64434 0
M  V30 4930 C 466.26 2.01175 -3.77773 0
M  V30 4931 C 465.586 3.35937 -4.15994 0
M  V30 4932 C 466.886 1.35953 -5.04296 0
M  V30 4933 H 468.58 0.507504 -2.95067 0
M  V30 4934 H 466.126 0.242671 -1.41941 0
M  V30 4935 H 468.079 2.94357 -3.01549 0
M  V30 4936 H 466.803 2.73105 -1.79112 0
M  V30 4937 H 465.462 1.34388 -3.4108 0
M  V30 4938 H 465.11 3.81631 -3.27669 0
M  V30 4939 H 464.81 3.20705 -4.92364 0
M  V30 4940 H 466.334 4.0643 -4.55683 0
M  V30 4941 H 467.748 1.95144 -5.39065 0
M  V30 4942 H 466.145 1.31152 -5.85593 0
M  V30 4943 H 467.215 0.331071 -4.83768 0
M  V30 4944 N 468.558 1.5553 0.254621 0
M  V30 4945 C 469.969 1.67518 0.824286 0
M  V30 4946 C 470.32 0.614429 1.86331 0
M  V30 4947 O 469.445 -0.240736 2.15057 0
M  V30 4948 C 470.04 3.03692 1.50189 0
M  V30 4949 C 468.599 3.17646 2.01935 0
M  V30 4950 C 467.746 2.63373 0.867746 0
M  V30 4951 H 470.697 1.58671 0.0305843 0
M  V30 4952 H 470.718 2.97706 2.36962 0
M  V30 4953 H 470.23 3.80874 0.745431 0
M  V30 4954 H 468.331 2.45273 2.80485 0
M  V30 4955 H 468.444 4.24455 2.22204 0
M  V30 4956 H 466.808 2.20999 1.26616 0
M  V30 4957 H 467.591 3.43074 0.124498 0
M  V30 4958 N 470.036 -0.519951 1.48776 0
M  V30 4959 C 470.966 -1.63253 1.66945 0
M  V30 4960 C 471.947 -1.62014 0.518224 0
M  V30 4961 O 473.132 -1.79053 0.751919 0
M  V30 4962 C 470.262 -3.0181 1.71836 0
M  V30 4963 C 469.216 -3.17911 2.8656 0
M  V30 4964 C 468.542 -4.5763 2.76548 0
M  V30 4965 C 469.842 -2.99729 4.27738 0
M  V30 4966 H 471.536 -1.48302 2.6009 0
M  V30 4967 H 469.082 -0.712026 1.25165 0
M  V30 4968 H 471.035 -3.79525 1.83135 0
M  V30 4969 H 469.759 -3.17806 0.752775 0
M  V30 4970 H 468.418 -2.42616 2.74833 0
M  V30 4971 H 468.066 -4.70476 1.77937 0
M  V30 4972 H 467.766 -4.69346 3.53536 0
M  V30 4973 H 469.29 -5.37431 2.89828 0
M  V30 4974 H 470.704 -3.67228 4.40246 0
M  V30 4975 H 469.101 -3.22932 5.05801 0
M  V30 4976 H 470.171 -1.96047 4.43502 0
M  V30 4977 N 471.514 -1.37532 -0.769588 0
M  V30 4978 C 472.424 -1.35668 -1.91393 0
M  V30 4979 C 473.44 -0.255954 -1.72107 0
M  V30 4980 O 474.616 -0.491704 -1.95305 0
M  V30 4981 C 471.681 -1.16481 -3.26547 0
M  V30 4982 C 470.742 -2.36212 -3.58472 0
M  V30 4983 C 469.975 -2.17932 -4.87177 0
M  V30 4984 O 470.198 -1.1647 -5.58382 0
M  V30 4985 O 469.132 -3.06167 -5.18214 0
M  V30 4986 H 472.958 -2.32055 -1.95918 0
M  V30 4987 H 470.543 -1.18284 -0.912641 0
M  V30 4988 H 472.425 -1.07778 -4.07384 0
M  V30 4989 H 471.1 -0.231687 -3.2287 0
M  V30 4990 H 470.007 -2.50488 -2.77861 0
M  V30 4991 H 471.34 -3.281 -3.66894 0
M  V30 4992 N 472.992 0.995999 -1.22138 0
M  V30 4993 C 473.925 2.08302 -0.931952 0
M  V30 4994 C 474.903 1.62127 0.123956 0
M  V30 4995 O 476.087 1.88499 -0.00696004 0
M  V30 4996 C 473.214 3.36317 -0.401068 0
M  V30 4997 C 472.26 4.01413 -1.44117 0
M  V30 4998 S 473.093 4.42664 -3.01345 0
M  V30 4999 C 474.249 5.73853 -2.49887 0
M  V30 5000 H 474.482 2.32532 -1.85246 0
M  V30 5001 H 472.015 1.13005 -1.0521 0
M  V30 5002 H 473.973 4.10375 -0.101352 0
M  V30 5003 H 472.634 3.10123 0.498272 0
M  V30 5004 H 471.827 4.9358 -1.01952 0
M  V30 5005 H 471.429 3.33668 -1.68943 0
M  V30 5006 H 473.721 6.50039 -1.90934 0
M  V30 5007 H 474.664 6.20841 -3.40532 0
M  V30 5008 H 475.072 5.31105 -1.9128 0
M  V30 5009 N 474.47 1.03057 1.19235 0
M  V30 5010 C 475.747 0.642608 1.84743 0
M  V30 5011 C 476.127 -0.878577 1.91948 0
M  V30 5012 O 475.475 -1.77597 1.43776 0
M  V30 5013 C 475.685 1.30665 3.23616 0
M  V30 5014 C 477.033 1.43098 3.9976 0
M  V30 5015 O 478.057 1.26396 3.3302 0
M  V30 5016 O 476.916 1.70223 5.19313 0
M  V30 5017 H 474.01 0.223573 0.796206 0
M  V30 5018 H 476.556 1.12883 1.26711 0
M  V30 5019 H 475.328 2.34544 3.13217 0
M  V30 5020 H 474.951 0.808405 3.89295 0
M  V30 5021 N 475.948 -1.35272 0.808662 0
M  V30 5022 C 477.225 -1.93077 0.313181 0
M  V30 5023 C 477.605 -1.73847 -1.19752 0
M  V30 5024 O 476.953 -1.1087 -1.998 0
M  V30 5025 C 477.163 -3.41347 0.726859 0
M  V30 5026 C 478.511 -4.18493 0.717532 0
M  V30 5027 O 479.535 -3.4987 0.668535 0
M  V30 5028 O 478.394 -5.40937 0.777779 0
M  V30 5029 H 475.488 -0.822885 0.0824018 0
M  V30 5030 H 478.034 -1.44335 0.892499 0
M  V30 5031 H 476.806 -3.49082 1.76797 0
M  V30 5032 H 476.429 -3.97411 0.122461 0
M  V30 5033 N 477.426 -0.562348 -1.47226 0
M  V30 5034 C 478.654 -0.0452275 -2.06851 0
M  V30 5035 C 479.069 1.25078 -1.41424 0
M  V30 5036 O 478.426 1.75156 -0.512513 0
M  V30 5037 C 478.477 0.148674 -3.61194 0
M  V30 5038 O 478.198 -1.09602 -4.24169 0
M  V30 5039 C 479.699 0.702488 -4.37699 0
M  V30 5040 H 476.919 -0.0481775 -0.669268 0
M  V30 5041 H 479.463 -0.777223 -1.89155 0
M  V30 5042 H 477.618 0.830817 -3.78386 0
M  V30 5043 H 478.032 -0.896982 -5.16773 0
M  V30 5044 H 479.506 0.78743 -5.46355 0
M  V30 5045 H 479.983 1.71493 -4.04335 0
M  V30 5046 H 480.589 0.0558772 -4.25263 0
M  V30 5047 N 478.904 1.54736 -0.299062 0
M  V30 5048 C 479.814 2.27127 0.587413 0
M  V30 5049 C 480.83 1.30575 1.15005 0
M  V30 5050 O 482.006 1.63554 1.17525 0
M  V30 5051 C 479.071 2.99645 1.74395 0
M  V30 5052 C 478.132 4.11731 1.21559 0
M  V30 5053 C 477.365 4.80781 2.317 0
M  V30 5054 O 477.588 4.4918 3.51558 0
M  V30 5055 O 476.522 5.68226 1.98501 0
M  V30 5056 H 480.348 3.037 0.000250109 0
M  V30 5057 H 477.933 1.49256 -0.0655919 0
M  V30 5058 H 479.815 3.45138 2.4178 0
M  V30 5059 H 478.49 2.25969 2.31775 0
M  V30 5060 H 477.397 3.70641 0.507514 0
M  V30 5061 H 478.73 4.87379 0.687233 0
M  V30 5062 N 480.382 0.0267497 1.57577 0
M  V30 5063 C 481.61 -0.662661 1.96001 0
M  V30 5064 C 482.025 -1.65799 0.903117 0
M  V30 5065 O 481.382 -1.82135 -0.115317 0
M  V30 5066 C 481.433 -1.37112 3.34488 0
M  V30 5067 O 481.154 -0.415683 4.36123 0
M  V30 5068 C 482.655 -2.15257 3.8753 0
M  V30 5069 H 479.875 -0.18287 0.6456 0
M  V30 5070 H 482.419 0.0858116 2.0432 0
M  V30 5071 H 480.574 -2.07101 3.27395 0
M  V30 5072 H 480.988 -0.918496 5.16395 0
M  V30 5073 H 482.462 -2.60285 4.86781 0
M  V30 5074 H 482.939 -2.99063 3.21649 0
M  V30 5075 H 483.545 -1.50231 3.97883 0
M  V30 5076 N 481.861 -1.55662 -0.24637 0
M  V30 5077 C 483.109 -1.77168 -0.972411 0
M  V30 5078 C 483.43 -0.590827 -1.85834 0
M  V30 5079 O 482.7 0.393365 -1.9191 0
M  V30 5080 H 481.28 -0.653405 -0.362038 0
M  V30 5081 H 483.942 -1.93101 -0.264189 0
M  V30 5082 H 483.038 -2.68335 -1.59382 0
M  V30 5083 N 483.339 0.512053 -1.4905 0
M  V30 5084 C 484.269 1.62365 -1.67809 0
M  V30 5085 C 485.25 1.61737 -0.526809 0
M  V30 5086 O 486.435 1.78651 -0.761404 0
M  V30 5087 C 483.565 3.00895 -1.73435 0
M  V30 5088 C 482.519 3.16387 -2.88242 0
M  V30 5089 C 481.845 4.56157 -2.78971 0
M  V30 5090 C 483.145 2.97457 -4.29321 0
M  V30 5091 H 484.839 1.46921 -2.60873 0
M  V30 5092 H 482.385 0.705379 -1.2554 0
M  V30 5093 H 484.338 3.78549 -1.85145 0
M  V30 5094 H 483.062 3.17403 -0.769619 0
M  V30 5095 H 481.721 2.41155 -2.76116 0
M  V30 5096 H 481.369 4.69525 -1.8043 0
M  V30 5097 H 481.069 4.67465 -3.5602 0
M  V30 5098 H 482.593 5.35886 -2.92675 0
M  V30 5099 H 484.007 3.64888 -4.42187 0
M  V30 5100 H 482.404 3.20245 -5.07507 0
M  V30 5101 H 483.474 1.93692 -4.44535 0
M  V30 5102 N 484.817 1.37938 0.762283 0
M  V30 5103 C 485.747 1.37176 1.88958 0
M  V30 5104 C 486.728 0.238945 1.68413 0
M  V30 5105 O 487.913 0.440726 1.89133 0
M  V30 5106 C 485.043 1.18742 3.2637 0
M  V30 5107 C 483.997 2.29136 3.61498 0
M  V30 5108 C 483.323 1.95816 4.97554 0
M  V30 5109 C 484.623 3.71363 3.6727 0
M  V30 5110 H 486.317 2.31509 1.89853 0
M  V30 5111 H 483.863 1.11438 0.912005 0
M  V30 5112 H 485.816 1.16837 4.04879 0
M  V30 5113 H 484.54 0.208683 3.25933 0
M  V30 5114 H 483.199 2.30213 2.85303 0
M  V30 5115 H 482.847 0.964475 4.93667 0
M  V30 5116 H 482.547 2.69745 5.22026 0
M  V30 5117 H 484.071 1.95513 5.78452 0
M  V30 5118 H 485.485 3.72364 4.35911 0
M  V30 5119 H 483.882 4.44425 4.03245 0
M  V30 5120 H 484.952 4.04305 2.67704 0
M  V30 5121 N 486.295 -0.989507 1.22664 0
M  V30 5122 C 487.52 -1.77031 1.08051 0
M  V30 5123 C 487.945 -1.84535 -0.364483 0
M  V30 5124 O 487.303 -1.3003 -1.2634 0
M  V30 5125 C 487.351 -3.18 1.70024 0
M  V30 5126 O 486.455 -4.01161 0.956216 0
M  V30 5127 H 485.796 -0.545008 0.379292 0
M  V30 5128 H 488.326 -1.24277 1.62531 0
M  V30 5129 H 488.336 -3.68616 1.74888 0
M  V30 5130 H 487.011 -3.11853 2.75174 0
M  V30 5131 H 485.588 -3.59687 0.98384 0
M  V30 5132 N 487.773 -1.03688 -1.18687 0
M  V30 5133 C 488.736 -0.629115 -2.20397 0
M  V30 5134 C 489.736 0.311495 -1.57754 0
M  V30 5135 O 490.926 0.0974107 -1.73927 0
M  V30 5136 C 488.058 0.0782231 -3.4081 0
M  V30 5137 H 489.251 -1.52915 -2.57987 0
M  V30 5138 H 486.804 -0.828988 -1.32505 0
M  V30 5139 H 487.539 0.992233 -3.08748 0
M  V30 5140 H 487.324 -0.597776 -3.87517 0
M  V30 5141 H 488.814 0.350156 -4.16129 0
M  V30 5142 N 489.251 1.34841 -0.815825 0
M  V30 5143 C 490.5 1.97755 -0.396976 0
M  V30 5144 C 490.813 1.65422 1.04379 0
M  V30 5145 O 492.019 2.21771 1.5662 0
M  V30 5146 C 490.475 3.53818 -0.658869 0
M  V30 5147 C 490.083 3.95051 -2.11278 0
M  V30 5148 C 491.827 4.23397 -0.305834 0
M  V30 5149 C 489.734 5.43997 -2.31994 0
M  V30 5150 H 488.664 0.739985 -0.1447 0
M  V30 5151 H 491.315 1.53781 -1.00118 0
M  V30 5152 H 489.697 3.95997 0.0154112 0
M  V30 5153 H 490.871 3.63998 -2.82564 0
M  V30 5154 H 489.186 3.38388 -2.42657 0
M  V30 5155 H 491.783 5.32899 -0.43854 0
M  V30 5156 H 492.126 4.09508 0.748952 0
M  V30 5157 H 492.659 3.8667 -0.934403 0
M  V30 5158 H 489.398 5.62865 -3.35952 0
M  V30 5159 H 488.918 5.76589 -1.65244 0
M  V30 5160 H 490.597 6.10584 -2.14001 0
M  V30 5161 N 490.729 0.570148 1.46925 0
M  V30 5162 C 491.969 0.0534743 2.0433 0
M  V30 5163 C 492.333 -1.27729 1.4335 0
M  V30 5164 O 493.534 -1.88244 1.91879 0
M  V30 5165 C 491.805 -0.0244296 3.57392 0
M  V30 5166 S 493.364 -0.485351 4.36108 0
M  V30 5167 H 490.182 0.0313908 0.710307 0
M  V30 5168 H 492.784 0.759808 1.80131 0
M  V30 5169 H 491.488 0.948261 3.99295 0
M  V30 5170 H 491.019 -0.753922 3.86108 0
M  V30 5171 H 493.034 -1.74258 4.64595 0
M  V30 5172 N 492.207 -1.54576 0.307264 0
M  V30 5173 C 493.137 -2.26708 -0.55907 0
M  V30 5174 C 494.118 -1.26893 -1.1328 0
M  V30 5175 O 495.303 -1.55677 -1.16097 0
M  V30 5176 C 492.433 -3.01259 -1.72801 0
M  V30 5177 C 491.387 -4.08275 -1.28435 0
M  V30 5178 C 490.713 -4.70575 -2.53895 0
M  V30 5179 C 492.013 -5.2068 -0.411038 0
M  V30 5180 H 493.707 -2.9937 0.042576 0
M  V30 5181 H 491.253 -1.43983 0.0219173 0
M  V30 5182 H 493.206 -3.50444 -2.34023 0
M  V30 5183 H 491.93 -2.26187 -2.356 0
M  V30 5184 H 490.589 -3.59949 -0.695161 0
M  V30 5185 H 490.237 -3.92136 -3.15021 0
M  V30 5186 H 489.937 -5.42854 -2.24908 0
M  V30 5187 H 491.461 -5.22527 -3.15908 0
M  V30 5188 H 492.875 -5.65721 -0.929097 0
M  V30 5189 H 491.272 -5.99716 -0.214664 0
M  V30 5190 H 492.342 -4.81629 0.562287 0
M  V30 5191 N 493.685 -0.035106 -1.57561 0
M  V30 5192 C 494.934 0.641604 -1.91223 0
M  V30 5193 C 495.247 1.72944 -0.913761 0
M  V30 5194 O 496.453 2.46321 -1.14185 0
M  V30 5195 C 494.909 1.19249 -3.3957 0
M  V30 5196 C 494.517 0.137616 -4.47789 0
M  V30 5197 C 496.261 1.84537 -3.82291 0
M  V30 5198 C 494.168 0.700478 -5.87237 0
M  V30 5199 H 493.098 0.243417 -0.713627 0
M  V30 5200 H 495.749 -0.101382 -1.8322 0
M  V30 5201 H 494.131 1.98728 -3.42525 0
M  V30 5202 H 495.305 -0.635153 -4.56402 0
M  V30 5203 H 493.62 -0.416855 -4.14308 0
M  V30 5204 H 496.217 2.27616 -4.83834 0
M  V30 5205 H 496.56 2.69054 -3.17672 0
M  V30 5206 H 497.093 1.11739 -3.81784 0
M  V30 5207 H 493.832 -0.106693 -6.55413 0
M  V30 5208 H 493.352 1.4416 -5.82218 0
M  V30 5209 H 495.031 1.18837 -6.35993 0
M  V30 5210 N 495.163 1.55791 0.238111 0
M  V30 5211 C 496.403 1.79801 0.972163 0
M  V30 5212 C 496.767 0.606027 1.82185 0
M  V30 5213 O 497.968 0.725079 2.58836 0
M  V30 5214 C 496.239 3.08608 1.80266 0
M  V30 5215 S 497.798 3.53872 2.59461 0
M  V30 5216 H 494.616 0.631418 0.326852 0
M  V30 5217 H 497.218 1.94031 0.239212 0
M  V30 5218 H 495.922 3.93419 1.1683 0
M  V30 5219 H 495.453 2.9714 2.57821 0
M  V30 5220 H 497.468 3.15899 3.82651 0
M  V30 5221 N 496.642 -0.504142 1.49319 0
M  V30 5222 C 497.89 -1.25598 1.58334 0
M  V30 5223 C 498.211 -1.93114 0.270538 0
M  V30 5224 O 497.481 -1.82585 -0.709891 0
M  V30 5225 H 496.061 -0.466571 0.58337 0
M  V30 5226 H 498.723 -0.584547 1.85928 0
M  V30 5227 H 497.819 -2.02159 2.37778 0
M  V30 5228 N 498.12 -1.38341 -0.754957 0
M  V30 5229 C 499.397 -1.24995 -1.50451 0
M  V30 5230 C 499.777 0.149244 -2.10572 0
M  V30 5231 O 499.125 1.15861 -1.96948 0
M  V30 5232 C 499.335 -2.35904 -2.57197 0
M  V30 5233 C 500.683 -2.74262 -3.24138 0
M  V30 5234 O 501.707 -2.35205 -2.67501 0
M  V30 5235 O 500.566 -3.4161 -4.26574 0
M  V30 5236 H 497.66 -0.48872 -0.667144 0
M  V30 5237 H 500.206 -1.50165 -0.790486 0
M  V30 5238 H 498.978 -3.2953 -2.11011 0
M  V30 5239 H 498.601 -2.12291 -3.36182 0
M  V30 5240 N 499.598 0.982988 -1.23187 0
M  V30 5241 C 501.014 1.2487 -0.993967 0
M  V30 5242 C 501.214 1.99155 0.306498 0
M  V30 5243 O 500.27 2.30688 1.0266 0
M  V30 5244 C 501.583 2.05078 -2.19917 0
M  V30 5245 C 503.131 2.18227 -2.2438 0
M  V30 5246 C 503.606 3.01825 -3.44479 0
M  V30 5247 N 505.097 3.09411 -3.44702 0
M  V30 5248 C 505.832 3.74412 -4.34285 0
M  V30 5249 N 505.328 4.41259 -5.341 0
M  V30 5250 N 507.121 3.71273 -4.22035 0
M  V30 5251 H 499.272 0.485253 -2.06783 0
M  V30 5252 H 501.535 0.276979 -0.906635 0
M  V30 5253 H 501.241 1.57867 -3.14279 0
M  V30 5254 H 501.115 3.05829 -2.2079 0
M  V30 5255 H 503.502 2.64648 -1.30559 0
M  V30 5256 H 503.583 1.16873 -2.2754 0
M  V30 5257 H 503.227 2.56102 -4.38605 0
M  V30 5258 H 503.157 4.03342 -3.38559 0
M  V30 5259 H 505.648 2.61845 -2.7248 0
M  V30 5260 H 505.961 4.88629 -5.98717 0
M  V30 5261 H 504.306 4.39975 -5.38002 0
M  V30 5262 H 507.497 3.18217 -3.43301 0
M  V30 5263 H 507.67 4.21649 -4.92053 0
M  V30 5264 N 501.076 1.04316 1.18135 0
M  V30 5265 C 502.008 0.594444 2.21357 0
M  V30 5266 C 503.021 -0.337215 1.59269 0
M  V30 5267 O 504.21 -0.131337 1.78016 0
M  V30 5268 C 501.31 -0.151251 3.38562 0
M  V30 5269 C 500.483 0.788907 4.30227 0
M  V30 5270 C 499.542 0.0860572 5.2613 0
M  V30 5271 O 498.568 0.717302 5.64662 0
M  V30 5272 N 499.77 -1.17969 5.68387 0
M  V30 5273 H 502.535 1.48227 2.60478 0
M  V30 5274 H 500.096 0.92396 1.32946 0
M  V30 5275 H 502.088 -0.631352 3.99745 0
M  V30 5276 H 500.658 -0.940639 2.98112 0
M  V30 5277 H 499.878 1.44882 3.6661 0
M  V30 5278 H 501.166 1.42738 4.88368 0
M  V30 5279 H 500.564 -1.71302 5.3914 0
M  V30 5280 H 499.121 -1.60402 6.31755 0
M  V30 5281 N 502.554 -1.34406 0.822964 0
M  V30 5282 C 503.831 -1.92733 0.333641 0
M  V30 5283 C 504.211 -1.75107 -1.17901 0
M  V30 5284 O 503.559 -1.12983 -1.98613 0
M  V30 5285 C 503.769 -3.40557 0.763023 0
M  V30 5286 C 505.117 -4.17709 0.761879 0
M  V30 5287 O 506.141 -3.49141 0.705606 0
M  V30 5288 O 505 -5.40082 0.835109 0
M  V30 5289 H 502.094 -0.821964 0.0911249 0
M  V30 5290 H 504.64 -1.4338 0.907757 0
M  V30 5291 H 503.412 -3.47187 1.8049 0
M  V30 5292 H 503.035 -3.97259 0.164605 0
M  V30 5293 N 504.032 -0.577932 -1.46621 0
M  V30 5294 C 504.962 0.145917 -2.33044 0
M  V30 5295 C 505.943 0.888412 -1.45056 0
M  V30 5296 O 507.128 0.864812 -1.73881 0
M  V30 5297 C 504.258 1.16322 -3.27241 0
M  V30 5298 C 503.212 0.535868 -4.24632 0
M  V30 5299 C 502.538 1.65929 -5.08303 0
M  V30 5300 C 503.838 -0.523861 -5.19666 0
M  V30 5301 H 505.532 -0.575636 -2.93814 0
M  V30 5302 H 503.078 -0.278272 -1.41286 0
M  V30 5303 H 505.031 1.67793 -3.86553 0
M  V30 5304 H 503.755 1.91498 -2.64567 0
M  V30 5305 H 502.414 0.0422759 -3.66576 0
M  V30 5306 H 502.062 2.40061 -4.42018 0
M  V30 5307 H 501.762 1.2452 -5.74255 0
M  V30 5308 H 503.286 2.17686 -5.70478 0
M  V30 5309 H 504.7 -0.0944059 -5.73222 0
M  V30 5310 H 503.097 -0.858 -5.93935 0
M  V30 5311 H 504.167 -1.41197 -4.63887 0
M  V30 5312 N 505.51 1.54411 -0.315457 0
M  V30 5313 C 506.42 2.27737 0.56329 0
M  V30 5314 C 507.436 1.31787 1.13614 0
M  V30 5315 O 508.612 1.64791 1.15784 0
M  V30 5316 C 505.677 3.01478 1.71207 0
M  V30 5317 C 504.738 4.12997 1.17185 0
M  V30 5318 C 503.971 4.83212 2.26588 0
M  V30 5319 O 504.194 4.52884 3.46775 0
M  V30 5320 O 503.128 5.70299 1.92463 0
M  V30 5321 H 506.954 3.03683 -0.0319614 0
M  V30 5322 H 504.539 1.49178 -0.0814188 0
M  V30 5323 H 506.421 3.47683 2.38106 0
M  V30 5324 H 505.096 2.28414 2.29366 0
M  V30 5325 H 504.003 3.71159 0.468174 0
M  V30 5326 H 505.336 4.8808 0.635501 0
M  V30 5327 N 506.988 0.0434614 1.5754 0
M  V30 5328 C 507.898 -0.94893 2.14552 0
M  V30 5329 C 508.914 -1.34707 1.10136 0
M  V30 5330 O 510.09 -1.42557 1.42266 0
M  V30 5331 C 507.155 -2.208 2.67298 0
M  V30 5332 C 506.216 -1.86893 3.86484 0
M  V30 5333 C 505.449 -3.06797 4.36705 0
M  V30 5334 O 505.672 -4.19921 3.86034 0
M  V30 5335 O 504.606 -2.8826 5.28384 0
M  V30 5336 H 508.432 -0.494099 2.99654 0
M  V30 5337 H 506.017 -0.177989 1.48336 0
M  V30 5338 H 507.899 -2.94686 3.01228 0
M  V30 5339 H 506.574 -2.65436 1.85272 0
M  V30 5340 H 505.481 -1.10347 3.57455 0
M  V30 5341 H 506.814 -1.47062 4.69716 0
M  V30 5342 N 508.466 -1.55915 -0.229846 0
M  V30 5343 C 509.877 -1.68809 -0.797531 0
M  V30 5344 C 510.228 -0.643995 -1.8533 0
M  V30 5345 O 509.353 0.206492 -2.15413 0
M  V30 5346 C 509.948 -3.06043 -1.45338 0
M  V30 5347 C 508.507 -3.20819 -1.96856 0
M  V30 5348 C 507.654 -2.6472 -0.825736 0
M  V30 5349 H 510.605 -1.58699 -0.00533733 0
M  V30 5350 H 510.626 -3.01438 -2.32196 0
M  V30 5351 H 510.138 -3.82012 -0.684743 0
M  V30 5352 H 508.239 -2.49704 -2.76548 0
M  V30 5353 H 508.352 -4.27937 -2.15423 0
M  V30 5354 H 506.716 -2.22985 -1.23084 0
M  V30 5355 H 507.499 -3.43229 -0.0699019 0
M  V30 5356 N 509.944 0.496216 -1.49584 0
M  V30 5357 C 511.172 1.27394 -1.63029 0
M  V30 5358 C 511.587 1.86344 -0.303569 0
M  V30 5359 O 510.944 1.68057 0.711547 0
M  V30 5360 C 510.995 2.40077 -2.70269 0
M  V30 5361 O 510.716 1.83549 -3.97796 0
M  V30 5362 C 512.217 3.31372 -2.94462 0
M  V30 5363 H 509.437 0.386211 -0.54871 0
M  V30 5364 H 511.981 0.595163 -1.95648 0
M  V30 5365 H 510.136 3.03775 -2.40415 0
M  V30 5366 H 510.55 2.57561 -4.56905 0
M  V30 5367 H 512.024 4.06707 -3.73221 0
M  V30 5368 H 512.501 3.88654 -2.0456 0
M  V30 5369 H 513.107 2.73435 -3.25751 0
M  V30 5370 N 511.423 1.38739 0.74761 0
M  V30 5371 C 512.37 1.36449 1.86146 0
M  V30 5372 C 513.34 0.226098 1.64554 0
M  V30 5373 O 514.525 0.41926 1.86137 0
M  V30 5374 C 511.665 1.2013 3.23516 0
M  V30 5375 C 510.778 2.43407 3.56899 0
M  V30 5376 C 509.913 2.19773 4.83605 0
M  V30 5377 C 508.952 3.3879 5.09792 0
M  V30 5378 N 508.089 3.14553 6.27695 0
M  V30 5379 H 512.929 2.3167 1.87438 0
M  V30 5380 H 510.466 1.15094 0.916063 0
M  V30 5381 H 512.424 1.08683 4.02795 0
M  V30 5382 H 511.054 0.285453 3.21535 0
M  V30 5383 H 510.106 2.65504 2.72418 0
M  V30 5384 H 511.418 3.32094 3.72176 0
M  V30 5385 H 510.572 2.05496 5.70838 0
M  V30 5386 H 509.311 1.28461 4.70478 0
M  V30 5387 H 508.316 3.53579 4.21025 0
M  V30 5388 H 509.541 4.30986 5.24812 0
M  V30 5389 H 507.487 2.25893 6.1588 0
M  V30 5390 H 507.404 3.96791 6.435 0
M  V30 5391 H 508.672 3.03943 7.17801 0
M  V30 5392 N 512.901 -0.976442 1.23707 0
M  V30 5393 C 514.147 -1.72081 1.07312 0
M  V30 5394 C 514.48 -1.90275 -0.388476 0
M  V30 5395 O 513.755 -1.4579 -1.28746 0
M  V30 5396 C 514.038 -3.11675 1.80363 0
M  V30 5397 C 513.891 -3.01027 3.3422 0
M  V30 5398 C 515.21 -4.1117 1.5693 0
M  V30 5399 H 512.329 -0.624583 0.391236 0
M  V30 5400 H 514.971 -1.13649 1.52263 0
M  V30 5401 H 513.121 -3.61559 1.42153 0
M  V30 5402 H 514.793 -2.58637 3.81975 0
M  V30 5403 H 513.036 -2.3744 3.63049 0
M  V30 5404 H 513.707 -3.9988 3.80525 0
M  V30 5405 H 516.183 -3.7011 1.90151 0
M  V30 5406 H 515.059 -5.06928 2.10513 0
M  V30 5407 H 515.32 -4.392 0.505548 0
M  V30 5408 N 514.379 -1.04941 -1.1758 0
M  V30 5409 C 515.656 -0.671918 -1.83697 0
M  V30 5410 C 516.036 0.847929 -1.93322 0
M  V30 5411 O 515.384 1.75287 -1.46583 0
M  V30 5412 C 515.594 -1.35797 -3.21497 0
M  V30 5413 C 516.942 -1.4944 -3.97433 0
M  V30 5414 O 517.966 -1.31678 -3.30967 0
M  V30 5415 O 516.825 -1.78463 -5.1654 0
M  V30 5416 H 513.919 -0.236212 -0.792548 0
M  V30 5417 H 516.465 -1.14884 -1.24899 0
M  V30 5418 H 515.237 -2.39498 -3.09446 0
M  V30 5419 H 514.86 -0.870236 -3.8796 0
M  V30 5420 N 515.857 1.33968 -0.830081 0
M  V30 5421 C 516.804 2.29387 -0.255008 0
M  V30 5422 C 517.774 1.53923 0.624243 0
M  V30 5423 O 518.959 1.82262 0.564372 0
M  V30 5424 C 516.099 3.4034 0.571209 0
M  V30 5425 C 515.212 4.30729 -0.331083 0
M  V30 5426 C 514.347 5.2879 0.505389 0
M  V30 5427 C 513.386 6.10819 -0.395843 0
M  V30 5428 N 512.523 7.00948 0.401979 0
M  V30 5429 H 517.363 2.77972 -1.07404 0
M  V30 5430 H 514.9 1.36785 -0.541133 0
M  V30 5431 H 516.858 4.03361 1.06562 0
M  V30 5432 H 515.488 2.9297 1.35529 0
M  V30 5433 H 514.54 3.68507 -0.943759 0
M  V30 5434 H 515.852 4.88181 -1.02377 0
M  V30 5435 H 515.006 5.97297 1.06399 0
M  V30 5436 H 513.745 4.71894 1.23155 0
M  V30 5437 H 512.75 5.41238 -0.966529 0
M  V30 5438 H 513.975 6.69797 -1.12023 0
M  V30 5439 H 511.921 6.46512 1.11168 0
M  V30 5440 H 511.838 7.55643 -0.232167 0
M  V30 5441 H 513.106 7.73774 0.943102 0
M  V30 5442 N 517.335 0.585699 1.46312 0
M  V30 5443 C 518.265 -0.133556 2.33118 0
M  V30 5444 C 519.246 -0.880707 1.45525 0
M  V30 5445 O 520.431 -0.855579 1.74337 0
M  V30 5446 C 517.561 -1.14585 3.27853 0
M  V30 5447 C 516.515 -0.513341 4.2491 0
M  V30 5448 C 515.841 -1.63231 5.09175 0
M  V30 5449 C 517.141 0.551413 5.19381 0
M  V30 5450 H 518.835 0.59121 2.93505 0
M  V30 5451 H 516.381 0.285761 1.41136 0
M  V30 5452 H 518.334 -1.65741 3.87438 0
M  V30 5453 H 517.058 -1.90093 2.65579 0
M  V30 5454 H 515.717 -0.0228349 3.66593 0
M  V30 5455 H 515.365 -2.37713 4.43285 0
M  V30 5456 H 515.065 -1.21473 5.74907 0
M  V30 5457 H 516.589 -2.14658 5.71624 0
M  V30 5458 H 518.003 0.124804 5.73164 0
M  V30 5459 H 516.4 0.889486 5.93471 0
M  V30 5460 H 517.47 1.43655 4.63132 0
M  V30 5461 N 518.813 -1.54241 0.323641 0
M  V30 5462 C 519.745 -2.21836 -0.576311 0
M  V30 5463 C 520.758 -1.21837 -1.07979 0
M  V30 5464 O 521.947 -1.48306 -0.99336 0
M  V30 5465 C 519.047 -2.86923 -1.80356 0
M  V30 5466 C 518.22 -4.1306 -1.43875 0
M  V30 5467 C 517.279 -4.6174 -2.52353 0
M  V30 5468 O 516.305 -5.26421 -2.16494 0
M  V30 5469 N 517.507 -4.35974 -3.83284 0
M  V30 5470 H 520.272 -2.997 0.00247987 0
M  V30 5471 H 517.833 -1.61233 0.146848 0
M  V30 5472 H 519.825 -3.16414 -2.52318 0
M  V30 5473 H 518.395 -2.12765 -2.29019 0
M  V30 5474 H 517.615 -3.90334 -0.550752 0
M  V30 5475 H 518.903 -4.95148 -1.17071 0
M  V30 5476 H 518.301 -3.84203 -4.15216 0
M  V30 5477 H 516.858 -4.70119 -4.51477 0
M  V30 5478 N 520.291 -0.0518155 -1.57515 0
M  V30 5479 C 521.201 0.937539 -2.15052 0
M  V30 5480 C 522.217 1.34121 -1.10849 0
M  V30 5481 O 523.393 1.418 -1.4302 0
M  V30 5482 C 520.458 2.19379 -2.68466 0
M  V30 5483 C 519.519 1.84841 -3.87469 0
M  V30 5484 C 518.752 3.04477 -4.38326 0
M  V30 5485 O 518.975 4.17868 -3.88256 0
M  V30 5486 O 517.909 2.85453 -5.29906 0
M  V30 5487 H 521.735 0.478201 -2.99912 0
M  V30 5488 H 519.32 0.17012 -1.48428 0
M  V30 5489 H 521.202 2.93084 -3.02787 0
M  V30 5490 H 519.877 2.64449 -1.86677 0
M  V30 5491 H 518.784 1.08449 -3.58036 0
M  V30 5492 H 520.117 1.44569 -4.7049 0
M  V30 5493 N 521.769 1.56035 0.221574 0
M  V30 5494 C 523.18 1.69229 0.788567 0
M  V30 5495 C 523.531 0.653814 1.84986 0
M  V30 5496 O 522.656 -0.195065 2.15519 0
M  V30 5497 C 523.251 3.06809 1.43713 0
M  V30 5498 C 521.81 3.21858 1.95152 0
M  V30 5499 C 520.957 2.65155 0.811685 0
M  V30 5500 H 523.908 1.587 -0.00307894 0
M  V30 5501 H 523.929 3.02666 2.30594 0
M  V30 5502 H 523.441 3.82369 0.664475 0
M  V30 5503 H 521.542 2.51167 2.7522 0
M  V30 5504 H 521.655 4.29073 2.1315 0
M  V30 5505 H 520.019 2.23635 1.21899 0
M  V30 5506 H 520.802 3.43261 0.0516987 0
M  V30 5507 N 523.247 -0.488276 1.49845 0
M  V30 5508 C 524.177 -1.59675 1.70371 0
M  V30 5509 C 525.158 -1.60878 0.552473 0
M  V30 5510 O 526.343 -1.77417 0.78973 0
M  V30 5511 C 523.473 -2.98098 1.782 0
M  V30 5512 C 522.427 -3.11761 2.93239 0
M  V30 5513 C 521.753 -4.51661 2.86193 0
M  V30 5514 C 523.053 -2.90589 4.33999 0
M  V30 5515 H 524.747 -1.42752 2.63177 0
M  V30 5516 H 522.293 -0.685317 1.26647 0
M  V30 5517 H 524.246 -3.75555 1.91144 0
M  V30 5518 H 522.97 -3.16138 0.820018 0
M  V30 5519 H 521.629 -2.36732 2.79917 0
M  V30 5520 H 521.277 -4.66595 1.87877 0
M  V30 5521 H 520.977 -4.61742 3.63412 0
M  V30 5522 H 522.501 -5.31162 3.01163 0
M  V30 5523 H 523.915 -3.57807 4.47936 0
M  V30 5524 H 522.312 -3.1213 5.12538 0
M  V30 5525 H 523.382 -1.86595 4.4756 0
M  V30 5526 N 524.725 -1.39134 -0.740242 0
M  V30 5527 C 525.655 -1.40165 -1.86751 0
M  V30 5528 C 526.636 -0.265708 -1.68012 0
M  V30 5529 O 527.821 -0.47076 -1.88408 0
M  V30 5530 C 524.951 -1.2392 -3.2444 0
M  V30 5531 C 523.905 -2.34858 -3.57807 0
M  V30 5532 C 523.231 -2.03707 -4.94376 0
M  V30 5533 C 524.531 -3.77159 -3.61315 0
M  V30 5534 H 526.225 -2.345 -1.86145 0
M  V30 5535 H 523.771 -1.12875 -0.89416 0
M  V30 5536 H 525.724 -1.23263 -4.02969 0
M  V30 5537 H 524.448 -0.26051 -3.25559 0
M  V30 5538 H 523.107 -2.34723 -2.81604 0
M  V30 5539 H 522.755 -1.04289 -4.9207 0
M  V30 5540 H 522.455 -2.78016 -5.17669 0
M  V30 5541 H 523.979 -2.04691 -5.75268 0
M  V30 5542 H 525.393 -3.79252 -4.29931 0
M  V30 5543 H 523.79 -4.50784 -3.96124 0
M  V30 5544 H 524.86 -4.08513 -2.61238 0
M  V30 5545 N 526.204 0.969867 -1.24223 0
M  V30 5546 C 527.114 2.09806 -1.0497 0
M  V30 5547 C 528.13 1.73998 0.00886455 0
M  V30 5548 O 529.306 2.00513 -0.188848 0
M  V30 5549 C 526.371 3.40467 -0.654452 0
M  V30 5550 C 525.432 3.90236 -1.78926 0
M  V30 5551 C 524.665 5.14662 -1.41277 0
M  V30 5552 O 524.888 5.69602 -0.301632 0
M  V30 5553 O 523.822 5.58761 -2.23763 0
M  V30 5554 H 527.648 2.28942 -1.99548 0
M  V30 5555 H 525.233 1.08197 -1.03023 0
M  V30 5556 H 527.115 4.19039 -0.445452 0
M  V30 5557 H 525.79 3.22636 0.262216 0
M  V30 5558 H 524.697 3.12735 -2.05299 0
M  V30 5559 H 526.03 4.1254 -2.68462 0
M  V30 5560 N 527.682 1.05563 1.17022 0
M  V30 5561 C 528.645 0.664098 2.19368 0
M  V30 5562 C 529.645 -0.286358 1.5823 0
M  V30 5563 O 530.835 -0.069728 1.7406 0
M  V30 5564 C 527.967 -0.0239932 3.40892 0
M  V30 5565 H 529.16 1.57 2.55521 0
M  V30 5566 H 526.713 0.849964 1.31169 0
M  V30 5567 H 527.448 -0.942988 3.10287 0
M  V30 5568 H 527.233 0.659351 3.86516 0
M  V30 5569 H 528.723 -0.283909 4.16634 0
M  V30 5570 N 529.16 -1.33526 0.837174 0
M  V30 5571 C 530.09 -2.31764 0.284206 0
M  V30 5572 C 531.071 -1.58896 -0.607142 0
M  V30 5573 O 532.256 -1.86798 -0.531047 0
M  V30 5574 C 529.386 -3.43029 -0.542962 0
M  V30 5575 C 528.34 -4.27255 0.252451 0
M  V30 5576 C 527.666 -5.3012 -0.69836 0
M  V30 5577 C 528.966 -5.01229 1.46858 0
M  V30 5578 H 530.66 -2.78262 1.10502 0
M  V30 5579 H 528.206 -1.3378 0.532812 0
M  V30 5580 H 530.159 -4.1078 -0.940096 0
M  V30 5581 H 528.883 -2.95216 -1.39697 0
M  V30 5582 H 527.542 -3.61127 0.631124 0
M  V30 5583 H 527.19 -4.78564 -1.54872 0
M  V30 5584 H 526.89 -5.87353 -0.170274 0
M  V30 5585 H 528.414 -6.00737 -1.09305 0
M  V30 5586 H 529.828 -5.61756 1.14469 0
M  V30 5587 H 528.225 -5.68104 1.93333 0
M  V30 5588 H 529.295 -4.301 2.23924 0
M  V30 5589 N 530.638 -0.59345 -1.46 0
M  V30 5590 C 531.585 0.133618 -2.30413 0
M  V30 5591 C 532.555 0.873736 -1.41262 0
M  V30 5592 O 533.74 0.862279 -1.70204 0
M  V30 5593 C 530.88 1.13434 -3.25924 0
M  V30 5594 C 529.993 0.39656 -4.30176 0
M  V30 5595 C 529.128 1.38575 -5.12806 0
M  V30 5596 C 528.167 0.634984 -6.08797 0
M  V30 5597 N 527.304 1.57276 -6.84258 0
M  V30 5598 H 532.144 -0.592252 -2.92055 0
M  V30 5599 H 529.681 -0.303874 -1.43927 0
M  V30 5600 H 531.639 1.72752 -3.79753 0
M  V30 5601 H 530.269 1.82779 -2.66067 0
M  V30 5602 H 529.321 -0.311861 -3.79119 0
M  V30 5603 H 530.633 -0.189869 -4.98438 0
M  V30 5604 H 529.787 2.05141 -5.70966 0
M  V30 5605 H 528.526 2.00611 -4.44529 0
M  V30 5606 H 527.531 -0.0443925 -5.49782 0
M  V30 5607 H 528.756 0.0198678 -6.79097 0
M  V30 5608 H 526.702 2.18103 -6.18682 0
M  V30 5609 H 526.619 1.03941 -7.48821 0
M  V30 5610 H 527.887 2.22844 -7.46968 0
M  V30 5611 N 532.116 1.54067 -0.331816 0
M  V30 5612 C 533.365 1.99895 0.269209 0
M  V30 5613 C 533.678 1.22371 1.52593 0
M  V30 5614 O 534.884 1.58618 2.20347 0
M  V30 5615 C 533.34 3.55972 0.530244 0
M  V30 5616 C 532.948 4.4234 -0.709901 0
M  V30 5617 C 534.692 4.10247 1.09077 0
M  V30 5618 C 532.599 5.89905 -0.420312 0
M  V30 5619 H 531.529 0.746741 0.104371 0
M  V30 5620 H 534.18 1.78014 -0.445324 0
M  V30 5621 H 532.562 3.73873 1.30518 0
M  V30 5622 H 533.736 4.36215 -1.48504 0
M  V30 5623 H 532.051 3.98997 -1.19123 0
M  V30 5624 H 534.648 5.18095 1.32219 0
M  V30 5625 H 534.991 3.62739 2.0427 0
M  V30 5626 H 535.524 3.96011 0.376824 0
M  V30 5627 H 532.263 6.41623 -1.34164 0
M  V30 5628 H 531.783 5.98962 0.316962 0
M  V30 5629 H 533.462 6.46991 -0.0331956 0
M  V30 5630 N 533.594 0.0601682 1.57485 0
M  V30 5631 C 534.824 -0.620037 1.97076 0
M  V30 5632 C 535.232 -1.64381 0.936784 0
M  V30 5633 O 534.575 -1.83497 -0.0863377 0
M  V30 5634 C 534.637 -1.35617 3.32939 0
M  V30 5635 C 534.301 -0.487208 4.54396 0
M  V30 5636 C 535.298 0.250428 5.19297 0
M  V30 5637 C 532.983 -0.415494 5.00579 0
M  V30 5638 C 534.977 1.04812 6.28723 0
M  V30 5639 C 532.664 0.385879 6.0988 0
M  V30 5640 C 533.662 1.11637 6.73815 0
M  V30 5641 O 533.35 1.90454 7.81014 0
M  V30 5642 H 533.082 -0.173664 0.653312 0
M  V30 5643 H 535.636 0.1256 2.05016 0
M  V30 5644 H 533.866 -2.14763 3.2158 0
M  V30 5645 H 535.555 -1.92749 3.57215 0
M  V30 5646 H 536.321 0.204546 4.84568 0
M  V30 5647 H 532.2 -0.973679 4.506 0
M  V30 5648 H 535.744 1.6188 6.78558 0
M  V30 5649 H 531.641 0.433366 6.44044 0
M  V30 5650 H 532.409 1.82762 7.97835 0
M  V30 5651 N 535.072 -1.5615 -0.213296 0
M  V30 5652 C 536.321 -1.78743 -0.93455 0
M  V30 5653 C 536.634 -0.630199 -1.8517 0
M  V30 5654 O 537.84 -0.739966 -2.61222 0
M  V30 5655 C 536.296 -3.16571 -1.71203 0
M  V30 5656 C 535.904 -4.40043 -0.840617 0
M  V30 5657 C 537.648 -3.48485 -2.42401 0
M  V30 5658 C 535.555 -5.68895 -1.61592 0
M  V30 5659 H 534.485 -0.666426 -0.352692 0
M  V30 5660 H 537.136 -1.82532 -0.188227 0
M  V30 5661 H 535.518 -3.06981 -2.50157 0
M  V30 5662 H 536.692 -4.6071 -0.0910326 0
M  V30 5663 H 535.007 -4.15706 -0.240365 0
M  V30 5664 H 537.604 -4.41983 -3.00924 0
M  V30 5665 H 537.947 -2.71371 -3.15695 0
M  V30 5666 H 538.48 -3.59442 -1.7043 0
M  V30 5667 H 535.219 -6.48925 -0.926106 0
M  V30 5668 H 534.739 -5.52275 -2.33991 0
M  V30 5669 H 536.418 -6.09365 -2.17447 0
M  V30 5670 N 536.55 0.480323 -1.50102 0
M  V30 5671 C 537.966 0.813295 -1.37323 0
M  V30 5672 C 538.166 1.97027 -0.422206 0
M  V30 5673 O 537.222 2.5212 0.138563 0
M  V30 5674 C 538.535 1.13404 -2.78496 0
M  V30 5675 C 540.083 1.24104 -2.87345 0
M  V30 5676 C 540.558 1.59497 -4.29331 0
M  V30 5677 N 542.049 1.66507 -4.32238 0
M  V30 5678 C 542.784 1.95378 -5.39087 0
M  V30 5679 N 542.28 2.22333 -6.56155 0
M  V30 5680 N 544.073 1.96803 -5.26522 0
M  V30 5681 H 536.224 -0.282291 -2.10516 0
M  V30 5682 H 538.487 -0.063752 -0.945854 0
M  V30 5683 H 538.193 0.357064 -3.49883 0
M  V30 5684 H 538.067 2.07251 -3.15162 0
M  V30 5685 H 540.454 2.00871 -2.16183 0
M  V30 5686 H 540.535 0.282593 -2.54234 0
M  V30 5687 H 540.179 0.832736 -5.01027 0
M  V30 5688 H 540.109 2.56477 -4.59921 0
M  V30 5689 H 542.6 1.47753 -3.47818 0
M  V30 5690 H 542.913 2.43611 -7.33399 0
M  V30 5691 H 541.258 2.19745 -6.59346 0
M  V30 5692 H 544.449 1.75235 -4.34062 0
M  V30 5693 H 544.622 2.18969 -6.09883 0
M  V30 5694 N 538.028 1.39524 0.732853 0
M  V30 5695 C 538.975 1.38416 1.84688 0
M  V30 5696 C 539.945 0.243539 1.64305 0
M  V30 5697 O 541.13 0.438979 1.85681 0
M  V30 5698 C 538.27 1.23555 3.22224 0
M  V30 5699 C 537.383 2.47179 3.54298 0
M  V30 5700 C 536.518 2.2489 4.81246 0
M  V30 5701 C 535.557 3.44178 5.0617 0
M  V30 5702 N 534.694 3.21192 6.24323 0
M  V30 5703 H 539.534 2.33645 1.84971 0
M  V30 5704 H 537.071 1.16059 0.903804 0
M  V30 5705 H 539.029 1.12949 4.0162 0
M  V30 5706 H 537.659 0.31954 3.21215 0
M  V30 5707 H 536.711 2.68379 2.69587 0
M  V30 5708 H 538.023 3.36022 3.68633 0
M  V30 5709 H 537.177 2.11538 5.68627 0
M  V30 5710 H 535.916 1.33443 4.69089 0
M  V30 5711 H 534.921 3.58025 4.17251 0
M  V30 5712 H 536.146 4.36528 5.20212 0
M  V30 5713 H 534.092 2.32413 6.1345 0
M  V30 5714 H 534.009 4.03594 6.39256 0
M  V30 5715 H 535.277 3.1154 7.14537 0
M  V30 5716 N 539.506 -0.963266 1.24736 0
M  V30 5717 C 540.922 -1.23273 1.01371 0
M  V30 5718 C 541.122 -1.99618 -0.274776 0
M  V30 5719 O 540.178 -2.32293 -0.989769 0
M  V30 5720 C 541.491 -2.01554 2.23152 0
M  V30 5721 C 543.039 -2.14629 2.27823 0
M  V30 5722 C 543.514 -2.96307 3.49237 0
M  V30 5723 N 545.005 -3.03887 3.49581 0
M  V30 5724 C 545.74 -3.67456 4.40186 0
M  V30 5725 N 545.236 -4.32706 5.41052 0
M  V30 5726 N 547.029 -3.64511 4.27888 0
M  V30 5727 H 539.18 -0.452294 2.07528 0
M  V30 5728 H 541.443 -0.262521 0.910926 0
M  V30 5729 H 541.149 -1.52847 3.1675 0
M  V30 5730 H 541.023 -3.02278 2.25628 0
M  V30 5731 H 543.41 -2.62537 1.34753 0
M  V30 5732 H 543.491 -1.13238 2.2937 0
M  V30 5733 H 543.135 -2.49091 4.42624 0
M  V30 5734 H 543.065 -3.97905 3.44933 0
M  V30 5735 H 545.556 -2.57477 2.76611 0
M  V30 5736 H 545.869 -4.79042 6.06415 0
M  V30 5737 H 544.214 -4.31361 5.44934 0
M  V30 5738 H 547.405 -3.12715 3.4832 0
M  V30 5739 H 547.578 -4.13768 4.98698 0
M  V30 5740 N 540.985 -1.06182 -1.16461 0
M  V30 5741 C 542.401 -0.785065 -1.38956 0
M  V30 5742 C 542.601 0.616103 -1.9185 0
M  V30 5743 O 541.657 1.37686 -2.11657 0
M  V30 5744 C 542.97 -1.84902 -2.37132 0
M  V30 5745 C 544.518 -1.8724 -2.50819 0
M  V30 5746 C 544.993 -2.92686 -3.52277 0
M  V30 5747 N 546.484 -2.91712 -3.59803 0
M  V30 5748 C 547.219 -3.69949 -4.38093 0
M  V30 5749 N 546.715 -4.58 -5.19815 0
M  V30 5750 N 548.508 -3.58346 -4.33064 0
M  V30 5751 H 540.659 -1.96569 -0.804634 0
M  V30 5752 H 542.922 -0.851747 -0.416211 0
M  V30 5753 H 542.628 -2.85518 -2.0536 0
M  V30 5754 H 542.502 -1.69908 -3.36766 0
M  V30 5755 H 544.889 -0.872827 -2.81897 0
M  V30 5756 H 544.97 -2.06311 -1.51226 0
M  V30 5757 H 544.614 -3.92835 -3.21937 0
M  V30 5758 H 544.544 -2.70864 -4.51598 0
M  V30 5759 H 547.035 -2.27876 -3.01464 0
M  V30 5760 H 547.348 -5.14357 -5.76764 0
M  V30 5761 H 545.693 -4.62056 -5.19162 0
M  V30 5762 H 548.884 -2.88943 -3.68279 0
M  V30 5763 H 549.057 -4.19563 -4.93833 0
M  V30 5764 N 542.463 1.3308 -0.844243 0
M  V30 5765 C 543.874 1.7992 -0.498566 0
M  V30 5766 C 544.225 1.69808 0.982834 0
M  V30 5767 O 543.35 1.25051 1.7661 0
M  V30 5768 C 543.945 3.26677 -0.898204 0
M  V30 5769 C 542.504 3.71513 -0.604583 0
M  V30 5770 C 541.651 2.54393 -1.10362 0
M  V30 5771 H 544.602 1.20526 -1.03244 0
M  V30 5772 H 544.623 3.79918 -0.21039 0
M  V30 5773 H 544.135 3.34004 -1.97643 0
M  V30 5774 H 542.236 3.69708 0.46335 0
M  V30 5775 H 542.349 4.64755 -1.16358 0
M  V30 5776 H 540.713 2.49246 -0.524273 0
M  V30 5777 H 541.496 2.6448 -2.18873 0
M  V30 5778 N 543.941 0.601185 1.45683 0
M  V30 5779 C 545.166 0.0982245 2.07167 0
M  V30 5780 C 545.591 -1.20546 1.44396 0
M  V30 5781 O 544.949 -1.73247 0.534347 0
M  V30 5782 C 544.997 -0.0346976 3.60583 0
M  V30 5783 O 544.101 -1.08657 3.97828 0
M  V30 5784 H 543.442 0.0711618 0.660176 0
M  V30 5785 H 545.972 0.829376 1.87036 0
M  V30 5786 H 545.982 -0.234969 4.07323 0
M  V30 5787 H 544.657 0.917265 4.05659 0
M  V30 5788 H 543.234 -0.863275 3.6277 0
M  V30 5789 N 545.419 -1.53889 0.339982 0
M  V30 5790 C 546.366 -2.24902 -0.518452 0
M  V30 5791 C 547.336 -1.24593 -1.09844 0
M  V30 5792 O 548.521 -1.53317 -1.13572 0
M  V30 5793 C 545.661 -3.02262 -1.66529 0
M  V30 5794 C 544.774 -4.17418 -1.11295 0
M  V30 5795 C 543.909 -4.82273 -2.2268 0
M  V30 5796 C 542.948 -5.89503 -1.6478 0
M  V30 5797 N 542.085 -6.48153 -2.69893 0
M  V30 5798 H 546.925 -2.97853 0.0936579 0
M  V30 5799 H 544.462 -1.46986 0.0579924 0
M  V30 5800 H 546.42 -3.45371 -2.3404 0
M  V30 5801 H 545.05 -2.31614 -2.24844 0
M  V30 5802 H 544.102 -3.78976 -0.328886 0
M  V30 5803 H 545.414 -4.94554 -0.649414 0
M  V30 5804 H 544.568 -5.28435 -2.98063 0
M  V30 5805 H 543.307 -4.04552 -2.72376 0
M  V30 5806 H 542.312 -5.42728 -0.879004 0
M  V30 5807 H 543.537 -6.6913 -1.1594 0
M  V30 5808 H 541.483 -5.73298 -3.1885 0
M  V30 5809 H 541.4 -7.20752 -2.28151 0
M  V30 5810 H 542.668 -6.98968 -3.45056 0
M  V30 5811 N 546.897 -0.0685191 -1.57451 0
M  V30 5812 C 548.308 0.464634 -1.80826 0
M  V30 5813 C 548.659 1.69847 -0.982169 0
M  V30 5814 O 547.784 2.15439 -0.203734 0
M  V30 5815 C 548.379 0.849721 -3.27971 0
M  V30 5816 C 546.938 1.32776 -3.52204 0
M  V30 5817 C 546.085 0.311332 -2.75547 0
M  V30 5818 H 549.036 -0.294248 -1.55948 0
M  V30 5819 H 549.057 1.71138 -3.39841 0
M  V30 5820 H 548.569 -0.0484736 -3.8807 0
M  V30 5821 H 546.67 2.24456 -2.97406 0
M  V30 5822 H 546.783 1.30794 -4.60901 0
M  V30 5823 H 545.147 0.787915 -2.42206 0
M  V30 5824 H 545.93 -0.579078 -3.38381 0
M  V30 5825 N 548.375 1.56261 0.205012 0
M  V30 5826 C 549.325 1.90155 1.25798 0
M  V30 5827 C 550.309 0.766227 1.41484 0
M  V30 5828 O 551.501 1.02893 1.44021 0
M  V30 5829 C 548.63 2.23603 2.60493 0
M  V30 5830 C 547.716 3.43568 2.48639 0
M  V30 5831 N 548.107 4.61747 2.06455 0
M  V30 5832 C 546.405 3.4751 2.79558 0
M  V30 5833 C 547.106 5.43907 2.06253 0
M  V30 5834 N 546.082 4.84051 2.47377 0
M  V30 5835 H 549.884 2.79031 0.922986 0
M  V30 5836 H 547.398 1.57048 0.413501 0
M  V30 5837 H 549.395 2.46067 3.36537 0
M  V30 5838 H 548.055 1.36049 2.94823 0
M  V30 5839 H 549.066 4.86598 1.77321 0
M  V30 5840 H 545.743 2.70345 3.18151 0
M  V30 5841 H 547.133 6.48542 1.75622 0
M  V30 5842 N 549.853 -0.472356 1.50355 0
M  V30 5843 C 550.786 -1.58923 1.63764 0
M  V30 5844 C 551.764 -1.55173 0.485793 0
M  V30 5845 O 552.948 -1.74815 0.705132 0
M  V30 5846 C 550.075 -2.97497 1.61905 0
M  V30 5847 C 549.121 -3.19405 2.82635 0
M  V30 5848 S 549.954 -2.99441 4.43954 0
M  V30 5849 C 551.11 -4.40359 4.44786 0
M  V30 5850 H 551.343 -1.47309 2.58239 0
M  V30 5851 H 548.876 -0.659601 1.39602 0
M  V30 5852 H 550.834 -3.77389 1.61518 0
M  V30 5853 H 549.495 -3.06502 0.686683 0
M  V30 5854 H 548.688 -4.20636 2.77636 0
M  V30 5855 H 548.29 -2.47283 2.80583 0
M  V30 5856 H 550.582 -5.32969 4.1827 0
M  V30 5857 H 551.525 -4.50403 5.46391 0
M  V30 5858 H 551.933 -4.22378 3.74509 0
M  V30 5859 N 551.331 -1.39911 -0.725443 0
M  V30 5860 C 552.578 -1.37654 -1.48518 0
M  V30 5861 C 552.906 0.0243982 -1.94485 0
M  V30 5862 O 552.161 1.00708 -1.67799 0
M  V30 5863 C 552.46 -2.30368 -2.7325 0
M  V30 5864 C 552.126 -3.77817 -2.461 0
M  V30 5865 C 550.788 -4.17991 -2.38405 0
M  V30 5866 C 553.14 -4.71036 -2.23103 0
M  V30 5867 C 550.468 -5.49433 -2.05768 0
M  V30 5868 C 552.82 -6.02766 -1.9198 0
M  V30 5869 C 551.484 -6.41993 -1.82761 0
M  V30 5870 H 550.754 -0.503713 -0.543465 0
M  V30 5871 H 553.401 -1.7249 -0.831822 0
M  V30 5872 H 551.706 -1.88683 -3.43375 0
M  V30 5873 H 553.403 -2.2591 -3.31309 0
M  V30 5874 H 549.993 -3.45982 -2.52972 0
M  V30 5875 H 554.177 -4.40823 -2.2801 0
M  V30 5876 H 549.433 -5.78738 -1.9716 0
M  V30 5877 H 553.607 -6.74519 -1.73197 0
M  V30 5878 H 551.234 -7.43761 -1.57237 0
M  V30 5879 N 552.809 0.956637 -1.25245 0
M  V30 5880 C 554.22 1.51569 -1.09012 0
M  V30 5881 C 554.571 1.93322 0.334813 0
M  V30 5882 O 553.696 1.78421 1.22454 0
M  V30 5883 C 554.291 2.75444 -1.97271 0
M  V30 5884 C 552.85 3.27669 -1.8523 0
M  V30 5885 C 551.997 2.00517 -1.91542 0
M  V30 5886 H 554.948 0.773746 -1.3856 0
M  V30 5887 H 554.969 3.4919 -1.51151 0
M  V30 5888 H 554.481 2.45024 -3.00973 0
M  V30 5889 H 552.582 3.62914 -0.844045 0
M  V30 5890 H 552.695 3.9582 -2.69932 0
M  V30 5891 H 551.059 2.15727 -1.35404 0
M  V30 5892 H 551.842 1.72448 -2.96844 0
M  V30 5893 N 554.287 1.06798 1.15896 0
M  V30 5894 C 555.234 0.683314 2.20453 0
M  V30 5895 C 556.204 -0.32255 1.62938 0
M  V30 5896 O 557.389 -0.210276 1.89638 0
M  V30 5897 C 554.529 0.0813266 3.45004 0
M  V30 5898 C 553.642 1.13799 4.16742 0
M  V30 5899 C 552.777 0.501598 5.28826 0
M  V30 5900 C 551.816 1.54144 5.92373 0
M  V30 5901 N 550.953 0.928038 6.9594 0
M  V30 5902 H 555.793 1.57932 2.52708 0
M  V30 5903 H 553.33 0.789544 1.24115 0
M  V30 5904 H 555.288 -0.285274 4.16224 0
M  V30 5905 H 553.918 -0.77806 3.13283 0
M  V30 5906 H 552.97 1.62223 3.44075 0
M  V30 5907 H 554.282 1.92664 4.60089 0
M  V30 5908 H 553.436 0.0823162 6.06644 0
M  V30 5909 H 552.175 -0.318883 4.86656 0
M  V30 5910 H 551.18 1.97056 5.13273 0
M  V30 5911 H 552.405 2.3641 6.36621 0
M  V30 5912 H 550.351 0.12836 6.55874 0
M  V30 5913 H 550.268 1.65401 7.37685 0
M  V30 5914 H 551.536 0.534071 7.77668 0
M  V30 5915 N 555.766 -1.3263 0.851289 0
M  V30 5916 C 557.015 -1.96633 0.449267 0
M  V30 5917 C 557.328 -1.68131 -0.999562 0
M  V30 5918 O 558.534 -2.25845 -1.50685 0
M  V30 5919 C 556.99 -3.51946 0.752446 0
M  V30 5920 C 556.598 -3.89311 2.21678 0
M  V30 5921 C 558.342 -4.22437 0.417983 0
M  V30 5922 C 556.249 -5.37655 2.46336 0
M  V30 5923 H 555.179 -0.735888 0.164269 0
M  V30 5924 H 557.83 -1.51073 1.0416 0
M  V30 5925 H 556.212 -3.95899 0.0895858 0
M  V30 5926 H 557.386 -3.56378 2.92115 0
M  V30 5927 H 555.701 -3.31836 2.51543 0
M  V30 5928 H 558.298 -5.31549 0.579674 0
M  V30 5929 H 558.641 -4.11349 -0.640115 0
M  V30 5930 H 559.174 -3.84057 1.03659 0
M  V30 5931 H 555.913 -5.5376 3.50757 0
M  V30 5932 H 555.433 -5.72005 1.80473 0
M  V30 5933 H 557.112 -6.04695 2.30115 0
M  V30 5934 N 557.244 -0.608902 -1.45362 0
M  V30 5935 C 558.174 0.0964526 -2.33301 0
M  V30 5936 C 559.155 0.857444 -1.46908 0
M  V30 5937 O 560.34 0.827735 -1.75676 0
M  V30 5938 C 557.47 1.09354 -3.29635 0
M  V30 5939 C 556.424 0.445676 -4.25673 0
M  V30 5940 C 555.75 1.5511 -5.11708 0
M  V30 5941 C 557.05 -0.633972 -5.18438 0
M  V30 5942 H 558.744 -0.637829 -2.92527 0
M  V30 5943 H 556.29 -0.308178 -1.40664 0
M  V30 5944 H 558.243 1.59556 -3.90025 0
M  V30 5945 H 556.967 1.85843 -2.6857 0
M  V30 5946 H 555.626 -0.0354897 -3.66583 0
M  V30 5947 H 555.274 2.30631 -4.4701 0
M  V30 5948 H 554.974 1.12311 -5.76767 0
M  V30 5949 H 556.498 2.05537 -5.74967 0
M  V30 5950 H 557.912 -0.215974 -5.72893 0
M  V30 5951 H 556.309 -0.983789 -5.91981 0
M  V30 5952 H 557.379 -1.51005 -4.60788 0
M  V30 5953 N 558.722 1.53707 -0.348139 0
M  V30 5954 C 559.655 2.21481 0.549667 0
M  V30 5955 C 560.633 1.20046 1.09671 0
M  V30 5956 O 561.817 1.48883 1.15612 0
M  V30 5957 C 558.944 2.89585 1.75664 0
M  V30 5958 C 557.99 4.04948 1.33864 0
M  V30 5959 S 558.823 5.34325 0.354577 0
M  V30 5960 C 559.979 6.05934 1.56828 0
M  V30 5961 H 560.212 2.97289 -0.0259755 0
M  V30 5962 H 557.745 1.53833 -0.132216 0
M  V30 5963 H 559.703 3.29441 2.44906 0
M  V30 5964 H 558.364 2.13535 2.30351 0
M  V30 5965 H 557.557 4.51552 2.23868 0
M  V30 5966 H 557.159 3.66893 0.725651 0
M  V30 5967 H 559.451 6.29606 2.50205 0
M  V30 5968 H 560.394 6.98799 1.14395 0
M  V30 5969 H 560.802 5.36151 1.76642 0
M  V30 5970 N 560.2 0.0768682 1.57412 0
M  V30 5971 C 561.147 -0.888577 2.13009 0
M  V30 5972 C 562.117 -1.29198 1.0439 0
M  V30 5973 O 563.302 -1.37694 1.3208 0
M  V30 5974 C 560.442 -2.14899 2.70023 0
M  V30 5975 C 559.555 -1.79777 3.92816 0
M  V30 5976 C 558.69 -3.00467 4.38056 0
M  V30 5977 C 557.729 -2.61385 5.53484 0
M  V30 5978 N 556.866 -3.74851 5.93659 0
M  V30 5979 H 561.706 -0.407593 2.95199 0
M  V30 5980 H 559.243 -0.189534 1.45874 0
M  V30 5981 H 561.201 -2.88688 3.0119 0
M  V30 5982 H 559.831 -2.60529 1.9059 0
M  V30 5983 H 558.883 -0.960301 3.68079 0
M  V30 5984 H 560.195 -1.47027 4.76639 0
M  V30 5985 H 559.349 -3.82529 4.7091 0
M  V30 5986 H 558.088 -3.36413 3.53097 0
M  V30 5987 H 557.093 -1.77746 5.20275 0
M  V30 5988 H 558.318 -2.26603 6.40178 0
M  V30 5989 H 556.264 -4.1055 5.11649 0
M  V30 5990 H 556.181 -3.45887 6.72234 0
M  V30 5991 H 557.449 -4.57477 6.31138 0
M  V30 5992 N 561.678 -1.56367 -0.196722 0
M  V30 5993 C 562.927 -1.79724 -0.915539 0
M  V30 5994 C 563.24 -0.649804 -1.84491 0
M  V30 5995 O 564.446 -0.767631 -2.60422 0
M  V30 5996 C 562.902 -3.18369 -1.67836 0
M  V30 5997 C 562.51 -4.4091 -0.793897 0
M  V30 5998 C 564.254 -3.51037 -2.38691 0
M  V30 5999 C 562.161 -5.70577 -1.55549 0
M  V30 6000 H 561.091 -0.67013 -0.345604 0
M  V30 6001 H 563.742 -1.82721 -0.168856 0
M  V30 6002 H 562.124 -3.09617 -2.46887 0
M  V30 6003 H 563.298 -4.60781 -0.042163 0
M  V30 6004 H 561.613 -4.15937 -0.19626 0
M  V30 6005 H 564.21 -4.4515 -2.96219 0
M  V30 6006 H 564.553 -2.74704 -3.12799 0
M  V30 6007 H 565.086 -3.61229 -1.66608 0
M  V30 6008 H 561.825 -6.49871 -0.857226 0
M  V30 6009 H 561.345 -5.54726 -2.2812 0
M  V30 6010 H 563.024 -6.11637 -2.10971 0
M  V30 6011 N 563.156 0.464375 -1.50603 0
M  V30 6012 C 564.384 1.23907 -1.65695 0
M  V30 6013 C 564.799 1.85658 -0.343027 0
M  V30 6014 O 564.156 1.69529 0.675739 0
M  V30 6015 C 564.207 2.3429 -2.75301 0
M  V30 6016 O 563.928 1.7507 -4.01599 0
M  V30 6017 C 565.429 3.25051 -3.01424 0
M  V30 6018 H 562.649 0.374485 -0.556778 0
M  V30 6019 H 565.193 0.55353 -1.96866 0
M  V30 6020 H 563.348 2.98607 -2.46804 0
M  V30 6021 H 563.762 2.47812 -4.62266 0
M  V30 6022 H 565.236 3.98699 -3.81763 0
M  V30 6023 H 565.713 3.84227 -2.12758 0
M  V30 6024 H 566.319 2.66463 -3.31477 0
M  V30 6025 N 564.634 1.40294 0.718013 0
M  V30 6026 C 565.911 1.2894 1.47084 0
M  V30 6027 C 566.291 -0.0933625 2.10893 0
M  V30 6028 O 565.639 -1.10598 1.99951 0
M  V30 6029 C 565.849 2.4264 2.50852 0
M  V30 6030 C 567.197 2.8276 3.16752 0
M  V30 6031 O 568.221 2.42215 2.61171 0
M  V30 6032 O 567.08 3.528 4.17366 0
M  V30 6033 H 564.174 0.506236 0.653952 0
M  V30 6034 H 566.72 1.52208 0.750394 0
M  V30 6035 H 565.492 3.35009 2.022 0
M  V30 6036 H 565.115 2.21129 3.30435 0
M  V30 6037 N 566.112 -0.949982 1.2575 0
M  V30 6038 C 567.042 -2.06483 1.09028 0
M  V30 6039 C 568.023 -1.701 -0.00201532 0
M  V30 6040 O 569.208 -1.93469 0.168383 0
M  V30 6041 C 566.338 -3.39899 0.71316 0
M  V30 6042 C 565.292 -3.90309 1.75621 0
M  V30 6043 C 564.618 -5.20274 1.23365 0
M  V30 6044 C 565.918 -4.16169 3.15596 0
M  V30 6045 H 567.612 -2.20731 2.02283 0
M  V30 6046 H 565.158 -1.06066 0.973964 0
M  V30 6047 H 567.111 -4.17346 0.58309 0
M  V30 6048 H 565.835 -3.25602 -0.255091 0
M  V30 6049 H 564.494 -3.15035 1.8748 0
M  V30 6050 H 564.142 -5.02351 0.255491 0
M  V30 6051 H 563.842 -5.54971 1.93082 0
M  V30 6052 H 565.366 -6.00314 1.11607 0
M  V30 6053 H 566.78 -4.84259 3.06864 0
M  V30 6054 H 565.177 -4.62131 3.82825 0
M  V30 6055 H 566.247 -3.22273 3.6231 0
M  V30 6056 N 567.59 -1.07411 -1.15328 0
M  V30 6057 C 569.006 -0.799759 -1.38116 0
M  V30 6058 C 569.206 0.59572 -1.92493 0
M  V30 6059 O 568.262 1.35433 -2.13106 0
M  V30 6060 C 569.575 -1.87407 -2.35158 0
M  V30 6061 C 571.123 -1.89889 -2.48819 0
M  V30 6062 C 571.598 -2.96406 -3.49153 0
M  V30 6063 N 573.089 -2.95512 -3.56689 0
M  V30 6064 C 573.824 -3.74575 -4.34144 0
M  V30 6065 N 573.32 -4.63488 -5.14928 0
M  V30 6066 N 575.113 -3.62919 -4.29239 0
M  V30 6067 H 567.264 -1.97411 -0.78374 0
M  V30 6068 H 569.527 -0.856113 -0.407154 0
M  V30 6069 H 569.233 -2.8768 -2.0232 0
M  V30 6070 H 569.107 -1.73471 -3.34944 0
M  V30 6071 H 571.494 -0.902677 -2.80955 0
M  V30 6072 H 571.575 -2.07904 -1.49029 0
M  V30 6073 H 571.219 -3.96227 -3.17752 0
M  V30 6074 H 571.149 -2.75638 -4.48699 0
M  V30 6075 H 573.64 -2.31061 -2.99031 0
M  V30 6076 H 573.953 -5.20445 -5.71276 0
M  V30 6077 H 572.298 -4.67537 -5.14232 0
M  V30 6078 H 575.489 -2.92833 -3.65194 0
M  V30 6079 H 575.662 -4.24777 -4.89355 0
M  V30 6080 N 569.068 1.32177 -0.85831 0
M  V30 6081 C 570.293 2.01847 -0.476718 0
M  V30 6082 C 570.718 1.64065 0.920021 0
M  V30 6083 O 570.076 0.843189 1.60499 0
M  V30 6084 C 570.124 3.55097 -0.627578 0
M  V30 6085 O 569.228 4.11012 0.338086 0
M  V30 6086 H 568.569 0.635907 -0.191099 0
M  V30 6087 H 571.099 1.68641 -1.15851 0
M  V30 6088 H 571.109 4.04718 -0.516476 0
M  V30 6089 H 569.784 3.81938 -1.64609 0
M  V30 6090 H 568.361 3.72451 0.182917 0
M  V30 6091 N 570.547 0.616602 1.45037 0
M  V30 6092 C 571.796 0.112861 2.01384 0
M  V30 6093 C 572.109 -1.26758 1.48969 0
M  V30 6094 O 573.315 -1.86454 1.9735 0
M  V30 6095 C 571.771 0.151057 3.59583 0
M  V30 6096 C 571.379 1.53191 4.20995 0
M  V30 6097 C 573.123 -0.296974 4.2346 0
M  V30 6098 C 571.03 1.526 5.71373 0
M  V30 6099 H 569.96 0.0384254 0.75302 0
M  V30 6100 H 572.611 0.773262 1.66412 0
M  V30 6101 H 570.993 -0.57617 3.91786 0
M  V30 6102 H 572.167 2.28156 4.00352 0
M  V30 6103 H 570.482 1.92279 3.69348 0
M  V30 6104 H 573.079 -0.320712 5.33737 0
M  V30 6105 H 573.422 -1.32145 3.9477 0
M  V30 6106 H 573.955 0.377279 3.96007 0
M  V30 6107 H 570.694 2.52837 6.04776 0
M  V30 6108 H 570.214 0.819064 5.94181 0
M  V30 6109 H 571.893 1.25357 6.3474 0
M  V30 6110 N 572.025 -1.5352 0.356285 0
M  V30 6111 C 573.25 -2.06007 -0.239961 0
M  V30 6112 C 573.675 -1.22872 -1.42422 0
M  V30 6113 O 573.033 -0.245516 -1.7963 0
M  V30 6114 C 573.081 -3.5522 -0.620587 0
M  V30 6115 O 572.185 -3.74864 -1.71902 0
M  V30 6116 H 571.526 -0.662961 -0.0371377 0
M  V30 6117 H 574.056 -1.98033 0.514194 0
M  V30 6118 H 574.066 -3.98081 -0.894197 0
M  V30 6119 H 572.741 -4.15175 0.245407 0
M  V30 6120 H 571.318 -3.43904 -1.44169 0
M  V30 6121 N 573.503 -0.0852151 -1.57369 0
M  V30 6122 C 574.466 0.8627 -2.12344 0
M  V30 6123 C 575.466 1.21746 -1.05046 0
M  V30 6124 O 576.656 1.14852 -1.30976 0
M  V30 6125 C 573.788 2.1618 -2.63589 0
M  V30 6126 H 574.981 0.385511 -2.97412 0
M  V30 6127 H 572.534 0.163663 -1.55441 0
M  V30 6128 H 573.269 2.68406 -1.82013 0
M  V30 6129 H 573.054 1.91723 -3.4203 0
M  V30 6130 H 574.544 2.84011 -3.06149 0
M  V30 6131 N 574.981 1.5647 0.188427 0
M  V30 6132 C 575.928 1.95073 1.23349 0
M  V30 6133 C 576.898 0.812238 1.44886 0
M  V30 6134 O 578.083 1.07095 1.57909 0
M  V30 6135 C 575.223 2.30124 2.57171 0
M  V30 6136 C 574.336 3.57069 2.43157 0
M  V30 6137 C 573.471 3.81411 3.69729 0
M  V30 6138 C 572.51 5.0176 3.50575 0
M  V30 6139 N 571.647 5.22321 4.69175 0
M  V30 6140 H 576.487 2.84171 0.89728 0
M  V30 6141 H 574.024 1.40623 0.431683 0
M  V30 6142 H 575.982 2.48463 3.35145 0
M  V30 6143 H 574.612 1.44159 2.88822 0
M  V30 6144 H 573.664 3.4674 1.56447 0
M  V30 6145 H 574.976 4.452 2.24942 0
M  V30 6146 H 574.13 4.00026 4.56141 0
M  V30 6147 H 572.869 2.91624 3.90905 0
M  V30 6148 H 571.874 4.83061 2.62549 0
M  V30 6149 H 573.099 5.93063 3.30837 0
M  V30 6150 H 571.045 4.35483 4.90602 0
M  V30 6151 H 570.962 6.04643 4.53809 0
M  V30 6152 H 572.23 5.45401 5.56919 0
M  V30 6153 N 576.459 -0.456382 1.50847 0
M  V30 6154 C 577.707 -1.20497 1.62249 0
M  V30 6155 C 578.028 -1.92156 0.331839 0
M  V30 6156 O 577.298 -1.84751 -0.651443 0
M  V30 6157 H 575.878 -0.447775 0.597918 0
M  V30 6158 H 578.54 -0.525099 1.87693 0
M  V30 6159 H 577.636 -1.94492 2.44089 0
M  V30 6160 N 577.937 -1.40673 -0.710563 0
M  V30 6161 C 578.9 -1.4108 -1.80635 0
M  V30 6162 C 579.9 -0.303783 -1.57904 0
M  V30 6163 O 581.09 -0.562937 -1.64853 0
M  V30 6164 C 578.222 -1.20748 -3.18799 0
M  V30 6165 H 579.415 -2.38612 -1.81671 0
M  V30 6166 H 576.968 -1.26595 -0.916704 0
M  V30 6167 H 577.703 -0.239964 -3.23411 0
M  V30 6168 H 577.488 -2.00941 -3.36698 0
M  V30 6169 H 578.978 -1.23833 -3.98817 0
M  V30 6170 N 579.415 0.9433 -1.26252 0
M  V30 6171 C 580.325 2.07532 -1.09397 0
M  V30 6172 C 581.341 1.73977 -0.0280449 0
M  V30 6173 O 582.517 2.00067 -0.231337 0
M  V30 6174 C 579.582 3.39002 -0.726523 0
M  V30 6175 C 578.643 3.86353 -1.87163 0
M  V30 6176 C 577.876 5.11549 -1.52162 0
M  V30 6177 O 578.099 5.68834 -0.422385 0
M  V30 6178 O 577.033 5.53889 -2.35565 0
M  V30 6179 H 580.859 2.24658 -2.04359 0
M  V30 6180 H 578.444 1.05988 -1.05295 0
M  V30 6181 H 580.326 4.18 -0.534236 0
M  V30 6182 H 579.001 3.2312 0.193721 0
M  V30 6183 H 577.908 3.0831 -2.11886 0
M  V30 6184 H 579.241 4.06752 -2.77152 0
M  V30 6185 N 580.893 1.08022 1.14757 0
M  V30 6186 C 582.309 0.807072 1.3769 0
M  V30 6187 C 582.509 -0.585504 1.92806 0
M  V30 6188 O 581.565 -1.34301 2.13821 0
M  V30 6189 C 582.878 1.88651 2.34161 0
M  V30 6190 C 584.426 1.91206 2.47809 0
M  V30 6191 C 584.901 2.98253 3.47576 0
M  V30 6192 N 586.392 2.974 3.55117 0
M  V30 6193 C 587.127 3.76872 4.32152 0
M  V30 6194 N 586.623 4.66212 5.12463 0
M  V30 6195 N 588.416 3.6519 4.27309 0
M  V30 6196 H 580.567 1.97824 0.77326 0
M  V30 6197 H 582.83 0.85826 0.402608 0
M  V30 6198 H 582.536 2.88749 2.00791 0
M  V30 6199 H 582.41 1.75244 3.3402 0
M  V30 6200 H 584.797 0.917564 2.80472 0
M  V30 6201 H 584.878 2.08691 1.47925 0
M  V30 6202 H 584.522 3.97907 3.15646 0
M  V30 6203 H 584.452 2.78014 4.47231 0
M  V30 6204 H 586.943 2.32643 2.97801 0
M  V30 6205 H 587.256 5.23468 5.68508 0
M  V30 6206 H 585.601 4.70257 5.11745 0
M  V30 6207 H 588.792 2.94765 3.63636 0
M  V30 6208 H 588.965 4.27366 4.87095 0
M  V30 6209 N 582.371 -1.3172 0.865308 0
M  V30 6210 C 583.617 -1.97168 0.474633 0
M  V30 6211 C 583.95 -1.68263 -0.969604 0
M  V30 6212 O 583.225 -0.976588 -1.68205 0
M  V30 6213 C 583.508 -3.52689 0.726808 0
M  V30 6214 C 583.361 -3.91185 2.22024 0
M  V30 6215 C 584.68 -4.39689 0.190201 0
M  V30 6216 H 581.799 -0.716185 0.17392 0
M  V30 6217 H 584.441 -1.55925 1.08569 0
M  V30 6218 H 582.591 -3.8795 0.206705 0
M  V30 6219 H 584.263 -3.66049 2.80724 0
M  V30 6220 H 582.506 -3.3996 2.69462 0
M  V30 6221 H 583.177 -4.99604 2.34735 0
M  V30 6222 H 585.653 -4.11225 0.635103 0
M  V30 6223 H 584.529 -5.47469 0.396132 0
M  V30 6224 H 584.79 -4.32683 -0.907625 0
M  V30 6225 N 583.85 -0.624285 -1.44708 0
M  V30 6226 C 585.099 -0.123539 -2.01321 0
M  V30 6227 C 585.412 1.25966 -1.49639 0
M  V30 6228 O 586.618 1.85405 -1.98336 0
M  V30 6229 C 585.074 -0.170124 -3.59498 0
M  V30 6230 C 584.682 -1.55421 -4.20176 0
M  V30 6231 C 586.426 0.274513 -4.23611 0
M  V30 6232 C 584.332 -1.55628 -5.70556 0
M  V30 6233 H 583.263 -0.0424183 -0.752806 0
M  V30 6234 H 585.913 -0.782076 -1.65999 0
M  V30 6235 H 584.296 0.555385 -3.92086 0
M  V30 6236 H 585.47 -2.30276 -3.99136 0
M  V30 6237 H 583.784 -1.94235 -3.68323 0
M  V30 6238 H 586.382 0.292402 -5.339 0
M  V30 6239 H 586.725 1.3005 -3.95465 0
M  V30 6240 H 587.258 -0.398275 -3.95801 0
M  V30 6241 H 583.997 -2.56041 -6.03426 0
M  V30 6242 H 583.517 -0.850563 -5.93739 0
M  V30 6243 H 585.196 -1.28721 -6.34066 0
M  V30 6244 N 585.328 1.53329 -0.364422 0
M  V30 6245 C 586.556 2.05657 0.226424 0
M  V30 6246 C 586.971 1.23801 1.42544 0
M  V30 6247 O 586.328 0.27839 1.80364 0
M  V30 6248 C 586.379 3.56125 0.621056 0
M  V30 6249 O 586.1 4.34879 -0.530304 0
M  V30 6250 C 587.601 4.24706 1.27041 0
M  V30 6251 H 584.821 0.669806 0.0400056 0
M  V30 6252 H 587.365 1.97714 -0.522456 0
M  V30 6253 H 585.52 3.64223 1.31985 0
M  V30 6254 H 585.934 5.24073 -0.211546 0
M  V30 6255 H 587.408 5.3131 1.49711 0
M  V30 6256 H 587.885 3.78354 2.23036 0
M  V30 6257 H 588.491 4.20858 0.613079 0
M  V30 6258 N 586.806 0.0935595 1.57322 0
M  V30 6259 C 587.736 -0.863062 2.16964 0
M  V30 6260 C 588.717 -1.29528 1.10256 0
M  V30 6261 O 589.902 -1.36245 1.38387 0
M  V30 6262 C 587.032 -2.12276 2.74875 0
M  V30 6263 C 585.986 -1.82921 3.86942 0
M  V30 6264 C 585.312 -3.15707 4.31548 0
M  V30 6265 C 586.612 -1.11737 5.10208 0
M  V30 6266 H 588.306 -0.366145 2.97153 0
M  V30 6267 H 585.852 -0.174673 1.42937 0
M  V30 6268 H 587.805 -2.79634 3.1525 0
M  V30 6269 H 586.529 -2.64248 1.91938 0
M  V30 6270 H 585.188 -1.17961 3.47103 0
M  V30 6271 H 584.836 -3.65563 3.45504 0
M  V30 6272 H 584.536 -2.96849 5.07104 0
M  V30 6273 H 586.06 -3.84226 4.74555 0
M  V30 6274 H 587.474 -1.69203 5.47762 0
M  V30 6275 H 585.871 -1.03064 5.91183 0
M  V30 6276 H 586.941 -0.0998818 4.84797 0
M  V30 6277 N 588.284 -1.56567 -0.180126 0
M  V30 6278 C 589.231 -1.95725 -1.22313 0
M  V30 6279 C 590.201 -0.819911 -1.44453 0
M  V30 6280 O 591.386 -1.07931 -1.57339 0
M  V30 6281 C 588.526 -2.31484 -2.55947 0
M  V30 6282 C 587.639 -3.58354 -2.4126 0
M  V30 6283 C 586.774 -3.83366 -3.67701 0
M  V30 6284 C 585.813 -5.03612 -3.47909 0
M  V30 6285 N 584.95 -5.24802 -4.66398 0
M  V30 6286 H 589.79 -2.84642 -0.882198 0
M  V30 6287 H 587.327 -1.4085 -0.42422 0
M  V30 6288 H 589.285 -2.50237 -3.33822 0
M  V30 6289 H 587.915 -1.45689 -2.88053 0
M  V30 6290 H 586.967 -3.47565 -1.54606 0
M  V30 6291 H 588.279 -4.46386 -2.22577 0
M  V30 6292 H 587.433 -4.02439 -4.54013 0
M  V30 6293 H 586.172 -2.93692 -3.89353 0
M  V30 6294 H 585.177 -4.84447 -2.59983 0
M  V30 6295 H 586.402 -5.94809 -3.27688 0
M  V30 6296 H 584.348 -4.38079 -4.88286 0
M  V30 6297 H 584.265 -6.07041 -4.50596 0
M  V30 6298 H 585.533 -5.48346 -5.54019 0
M  V30 6299 N 589.762 0.448376 -1.51087 0
M  V30 6300 C 590.695 1.56298 -1.66272 0
M  V30 6301 C 591.673 1.54381 -0.510419 0
M  V30 6302 O 592.857 1.73671 -0.732854 0
M  V30 6303 C 589.984 2.94883 -1.66618 0
M  V30 6304 C 589.03 3.14868 -2.87681 0
M  V30 6305 S 589.863 2.9234 -4.48662 0
M  V30 6306 C 591.019 4.33227 -4.51735 0
M  V30 6307 H 591.252 1.43182 -2.6055 0
M  V30 6308 H 588.785 0.637309 -1.40633 0
M  V30 6309 H 590.743 3.74771 -1.67502 0
M  V30 6310 H 589.404 3.05371 -0.735358 0
M  V30 6311 H 588.597 4.16166 -2.84292 0
M  V30 6312 H 588.199 2.42788 -2.84482 0
M  V30 6313 H 590.491 5.26247 -4.26697 0
M  V30 6314 H 591.434 4.41653 -5.53487 0
M  V30 6315 H 591.842 4.16367 -3.81181 0
M  V30 6316 N 591.24 1.41047 0.703093 0
M  V30 6317 C 592.15 1.44645 1.84703 0
M  V30 6318 C 593.166 0.337778 1.7069 0
M  V30 6319 O 594.342 0.584327 1.92737 0
M  V30 6320 C 591.407 1.31928 3.20618 0
M  V30 6321 C 590.468 2.53047 3.46794 0
M  V30 6322 C 589.701 2.40927 4.76224 0
M  V30 6323 O 589.924 1.42978 5.5219 0
M  V30 6324 O 588.858 3.30543 5.03016 0
M  V30 6325 H 592.684 2.41139 1.84624 0
M  V30 6326 H 590.269 1.22504 0.855167 0
M  V30 6327 H 592.151 1.27092 4.01778 0
M  V30 6328 H 590.826 0.385469 3.21397 0
M  V30 6329 H 589.733 2.6346 2.65593 0
M  V30 6330 H 591.066 3.45231 3.50822 0
M  V30 6331 N 592.718 -0.936591 1.26751 0
M  V30 6332 C 593.967 -1.67778 1.11953 0
M  V30 6333 C 594.28 -1.92694 -0.33589 0
M  V30 6334 O 595.486 -2.64682 -0.604618 0
M  V30 6335 C 593.942 -3.02138 1.95551 0
M  V30 6336 C 593.55 -2.84953 3.45696 0
M  V30 6337 C 595.294 -3.79917 1.89377 0
M  V30 6338 C 593.201 -4.14814 4.21525 0
M  V30 6339 H 592.131 -0.629275 0.415366 0
M  V30 6340 H 594.782 -1.04122 1.51099 0
M  V30 6341 H 593.164 -3.668 1.49243 0
M  V30 6342 H 594.338 -2.29112 3.99805 0
M  V30 6343 H 592.653 -2.20612 3.53156 0
M  V30 6344 H 595.25 -4.76134 2.43312 0
M  V30 6345 H 595.593 -4.07204 0.865464 0
M  V30 6346 H 596.126 -3.22037 2.33532 0
M  V30 6347 H 592.865 -3.92709 5.24843 0
M  V30 6348 H 592.385 -4.70352 3.72195 0
M  V30 6349 H 594.064 -4.83239 4.3022 0
M  V30 6350 N 594.196 -1.08629 -1.14182 0
M  V30 6351 C 595.607 -0.838003 -1.66836 0
M  V30 6352 C 595.958 0.634885 -1.85644 0
M  V30 6353 O 595.083 1.49008 -1.56926 0
M  V30 6354 C 595.678 -1.51465 -3.03058 0
M  V30 6355 C 594.237 -1.31355 -3.52736 0
M  V30 6356 C 593.384 -1.57599 -2.28162 0
M  V30 6357 H 596.335 -1.24656 -0.982165 0
M  V30 6358 H 596.356 -0.943134 -3.68626 0
M  V30 6359 H 595.868 -2.58661 -2.89337 0
M  V30 6360 H 593.969 -0.262384 -3.71675 0
M  V30 6361 H 594.082 -2.04275 -4.33369 0
M  V30 6362 H 592.446 -0.997659 -2.34348 0
M  V30 6363 H 593.229 -2.66006 -2.17015 0
M  V30 6364 N 595.674 1.31259 -0.872281 0
M  V30 6365 C 596.922 1.96233 -0.483409 0
M  V30 6366 C 597.243 1.69276 0.968012 0
M  V30 6367 O 596.513 1.00943 1.67891 0
M  V30 6368 H 595.093 0.726025 -0.175774 0
M  V30 6369 H 597.755 1.60024 -1.11258 0
M  V30 6370 H 596.851 3.05403 -0.643075 0
M  V30 6371 N 597.152 0.631951 1.44375 0
M  V30 6372 C 598.377 0.142146 2.06912 0
M  V30 6373 C 598.802 -1.17456 1.4692 0
M  V30 6374 O 598.16 -1.72074 0.570975 0
M  V30 6375 C 598.208 0.0417952 3.60576 0
M  V30 6376 O 597.312 -1.00194 4.00044 0
M  V30 6377 H 596.653 0.0851491 0.658518 0
M  V30 6378 H 599.183 0.868863 1.85235 0
M  V30 6379 H 599.193 -0.148517 4.0773 0
M  V30 6380 H 597.868 1.0031 4.03622 0
M  V30 6381 H 596.445 -0.786131 3.64519 0
M  V30 6382 N 598.631 -1.53133 0.372548 0
M  V30 6383 C 599.564 -2.22328 -0.514361 0
M  V30 6384 C 600.542 -1.21776 -1.07747 0
M  V30 6385 O 601.726 -1.50704 -1.13228 0
M  V30 6386 C 598.853 -2.92343 -1.71035 0
M  V30 6387 C 597.899 -4.07026 -1.27405 0
M  V30 6388 S 598.732 -5.34821 -0.269526 0
M  V30 6389 C 599.888 -6.08352 -1.47168 0
M  V30 6390 H 600.121 -2.9721 0.0732683 0
M  V30 6391 H 597.654 -1.53603 0.156673 0
M  V30 6392 H 599.612 -3.33296 -2.39634 0
M  V30 6393 H 598.273 -2.17173 -2.26925 0
M  V30 6394 H 597.466 -4.55056 -2.16656 0
M  V30 6395 H 597.068 -3.68001 -0.66719 0
M  V30 6396 H 599.36 -6.33507 -2.40157 0
M  V30 6397 H 600.303 -7.0053 -1.03263 0
M  V30 6398 H 600.711 -5.38893 -1.6809 0
M  V30 6399 N 600.109 -0.101901 -1.5727 0
M  V30 6400 C 601.52 0.426173 -1.81771 0
M  V30 6401 C 601.871 1.67725 -1.01797 0
M  V30 6402 O 600.996 2.14958 -0.249386 0
M  V30 6403 C 601.591 0.779962 -3.297 0
M  V30 6404 C 600.15 1.25275 -3.54941 0
M  V30 6405 C 599.297 0.252814 -2.76145 0
M  V30 6406 H 602.248 -0.32726 -1.55289 0
M  V30 6407 H 602.269 1.63891 -3.43395 0
M  V30 6408 H 601.781 -0.130778 -3.8788 0
M  V30 6409 H 599.882 2.18097 -3.021 0
M  V30 6410 H 599.995 1.20988 -4.63572 0
M  V30 6411 H 598.359 0.736362 -2.43823 0
M  V30 6412 H 599.142 -0.650724 -3.37076 0
M  V30 6413 N 601.587 1.56661 0.17182 0
M  V30 6414 C 602.998 1.71652 0.734329 0
M  V30 6415 C 603.349 0.712335 1.82812 0
M  V30 6416 O 602.474 -0.126401 2.16031 0
M  V30 6417 C 603.069 3.11226 1.3388 0
M  V30 6418 C 601.628 3.27904 1.84813 0
M  V30 6419 C 600.775 2.67603 0.726917 0
M  V30 6420 H 603.726 1.5861 -0.0535665 0
M  V30 6421 H 603.747 3.09849 2.20849 0
M  V30 6422 H 603.259 3.8429 0.54249 0
M  V30 6423 H 601.36 2.59796 2.6709 0
M  V30 6424 H 601.473 4.35637 1.99392 0
M  V30 6425 H 599.837 2.274 1.14723 0
M  V30 6426 H 600.62 3.43252 -0.0575334 0
M  V30 6427 N 603.065 -0.440357 1.51323 0
M  V30 6428 C 603.995 -1.54174 1.75364 0
M  V30 6429 C 604.976 -1.59039 0.603375 0
M  V30 6430 O 606.161 -1.74815 0.845774 0
M  V30 6431 C 603.291 -2.92277 1.87593 0
M  V30 6432 C 602.245 -3.02274 3.03009 0
M  V30 6433 C 601.571 -4.42327 3.00418 0
M  V30 6434 C 602.871 -2.76634 4.43024 0
M  V30 6435 H 604.565 -1.34307 2.67585 0
M  V30 6436 H 602.111 -0.644678 1.28763 0
M  V30 6437 H 604.064 -3.69284 2.02995 0
M  V30 6438 H 602.788 -3.13369 0.920179 0
M  V30 6439 H 601.447 -2.27706 2.87307 0
M  V30 6440 H 601.095 -4.60382 2.02626 0
M  V30 6441 H 600.795 -4.49946 3.77918 0
M  V30 6442 H 602.319 -5.21312 3.17909 0
M  V30 6443 H 603.733 -3.43376 4.59093 0
M  V30 6444 H 602.13 -2.95666 5.22208 0
M  V30 6445 H 603.2 -1.72262 4.5327 0
M  V30 6446 N 604.543 -1.41418 -0.695603 0
M  V30 6447 C 605.792 -1.40073 -1.4513 0
M  V30 6448 C 606.105 -0.0130439 -1.95596 0
M  V30 6449 O 607.311 0.123032 -2.71221 0
M  V30 6450 C 605.767 -2.46286 -2.62433 0
M  V30 6451 C 605.375 -3.90962 -2.18753 0
M  V30 6452 C 607.119 -2.54077 -3.40066 0
M  V30 6453 C 605.026 -4.88728 -3.33015 0
M  V30 6454 H 603.956 -0.520903 -0.545138 0
M  V30 6455 H 606.607 -1.67242 -0.75515 0
M  V30 6456 H 604.989 -2.12248 -3.34315 0
M  V30 6457 H 606.163 -4.34248 -1.54161 0
M  V30 6458 H 604.478 -3.86831 -1.54114 0
M  V30 6459 H 607.075 -3.24303 -4.25125 0
M  V30 6460 H 607.418 -1.5776 -3.8525 0
M  V30 6461 H 607.951 -2.87206 -2.75241 0
M  V30 6462 H 604.69 -5.86449 -2.92844 0
M  V30 6463 H 604.21 -4.50091 -3.96457 0
M  V30 6464 H 605.889 -5.09483 -3.98793 0
M  V30 6465 N 606.021 0.929856 -1.27246 0
M  V30 6466 C 606.953 2.03434 -1.0558 0
M  V30 6467 C 607.966 1.62795 -0.0125762 0
M  V30 6468 O 609.155 1.76685 -0.2539 0
M  V30 6469 C 606.255 3.33915 -0.57912 0
M  V30 6470 C 605.428 4.03259 -1.69415 0
M  V30 6471 C 604.487 5.12014 -1.21357 0
M  V30 6472 O 603.513 5.36097 -1.91282 0
M  V30 6473 N 604.715 5.8046 -0.0680622 0
M  V30 6474 H 607.48 2.22583 -2.00691 0
M  V30 6475 H 605.041 1.1001 -1.18783 0
M  V30 6476 H 607.033 4.03978 -0.241563 0
M  V30 6477 H 605.603 3.11355 0.278703 0
M  V30 6478 H 604.823 3.26958 -2.20209 0
M  V30 6479 H 606.111 4.46337 -2.44255 0
M  V30 6480 H 605.509 5.63345 0.515626 0
M  V30 6481 H 604.066 6.51461 0.210332 0
M  V30 6482 N 607.499 1.09233 1.13605 0
M  V30 6483 C 608.409 0.741939 2.22559 0
M  V30 6484 C 609.425 -0.255236 1.72118 0
M  V30 6485 O 610.601 -0.0970747 2.01166 0
M  V30 6486 C 607.666 0.165595 3.46304 0
M  V30 6487 C 606.727 1.21846 4.11645 0
M  V30 6488 C 605.96 0.669526 5.29484 0
M  V30 6489 O 606.183 -0.508228 5.68131 0
M  V30 6490 O 605.117 1.42361 5.84822 0
M  V30 6491 H 608.943 1.65107 2.54899 0
M  V30 6492 H 606.528 0.866584 1.21699 0
M  V30 6493 H 608.41 -0.152592 4.21124 0
M  V30 6494 H 607.085 -0.716573 3.15669 0
M  V30 6495 H 605.992 1.58931 3.38662 0
M  V30 6496 H 607.325 2.07321 4.46407 0
M  V30 6497 N 608.977 -1.30795 0.87923 0
M  V30 6498 C 609.91 -2.26396 0.286404 0
M  V30 6499 C 610.888 -1.51528 -0.589748 0
M  V30 6500 O 612.072 -1.80566 -0.541119 0
M  V30 6501 C 609.199 -3.33458 -0.593581 0
M  V30 6502 C 608.245 -4.2597 0.21247 0
M  V30 6503 S 609.078 -5.11132 1.59702 0
M  V30 6504 C 610.234 -6.21705 0.723408 0
M  V30 6505 H 610.467 -2.7633 1.09677 0
M  V30 6506 H 608 -1.38703 0.678305 0
M  V30 6507 H 609.958 -3.9561 -1.09557 0
M  V30 6508 H 608.619 -2.82259 -1.37799 0
M  V30 6509 H 607.812 -5.01907 -0.458822 0
M  V30 6510 H 607.414 -3.68363 0.646883 0
M  V30 6511 H 609.706 -6.77472 -0.0620739 0
M  V30 6512 H 610.649 -6.93007 1.4542 0
M  V30 6513 H 611.057 -5.63771 0.286855 0
M  V30 6514 N 610.455 -0.639598 -1.44038 0
M  V30 6515 C 611.385 0.0469443 -2.33453 0
M  V30 6516 C 612.366 0.82609 -1.48694 0
M  V30 6517 O 613.551 0.790285 -1.77393 0
M  V30 6518 C 610.681 1.02338 -3.3188 0
M  V30 6519 C 609.635 0.355284 -4.26523 0
M  V30 6520 C 608.961 1.44221 -5.14883 0
M  V30 6521 C 610.261 -0.743798 -5.16977 0
M  V30 6522 H 611.955 -0.699735 -2.91108 0
M  V30 6523 H 609.501 -0.337946 -1.39978 0
M  V30 6524 H 611.454 1.51247 -3.93322 0
M  V30 6525 H 610.178 1.80105 -2.72451 0
M  V30 6526 H 608.837 -0.113239 -3.66425 0
M  V30 6527 H 608.485 2.21097 -4.51802 0
M  V30 6528 H 608.185 1.00052 -5.79019 0
M  V30 6529 H 609.709 1.93295 -5.79197 0
M  V30 6530 H 611.123 -0.337444 -5.72306 0
M  V30 6531 H 609.52 -1.10914 -5.89761 0
M  V30 6532 H 610.59 -1.60745 -4.57481 0
M  V30 6533 N 611.933 1.52934 -0.380664 0
M  V30 6534 C 612.843 2.29921 0.466192 0
M  V30 6535 C 613.859 1.36488 1.07922 0
M  V30 6536 O 615.035 1.69553 1.0869 0
M  V30 6537 C 612.1 3.08468 1.58266 0
M  V30 6538 C 611.161 4.17595 0.995627 0
M  V30 6539 C 610.394 4.92387 2.05889 0
M  V30 6540 O 610.617 4.67184 3.27254 0
M  V30 6541 O 609.551 5.77949 1.68102 0
M  V30 6542 H 613.377 3.03274 -0.160735 0
M  V30 6543 H 610.962 1.48698 -0.144617 0
M  V30 6544 H 612.844 3.57469 2.23145 0
M  V30 6545 H 611.519 2.37937 2.19471 0
M  V30 6546 H 610.426 3.72811 0.310332 0
M  V30 6547 H 611.759 4.90336 0.427918 0
M  V30 6548 N 613.412 0.11024 1.57214 0
M  V30 6549 C 614.36 -0.860586 2.16094 0
M  V30 6550 C 615.354 -1.28156 1.1078 0
M  V30 6551 O 616.56 -1.25433 1.29099 0
M  V30 6552 H 612.935 -0.295606 0.691463 0
M  V30 6553 H 614.906 -0.33942 2.96463 0
M  V30 6554 C 613.655 -2.10421 2.768 0
M  V30 6555 H 612.978 -1.7892 3.5753 0
M  V30 6556 H 614.418 -2.76375 3.21547 0
M  V30 6557 C 612.877 -2.88823 1.73444 0
M  V30 6558 O 613.407 -3.839 1.18251 0
M  V30 6559 N 611.613 -2.52649 1.43586 0
M  V30 6560 H 611.16 -1.754 1.8866 0
M  V30 6561 H 611.118 -3.05403 0.746735 0
M  V30 6562 N 614.89 -1.56749 -0.16351 0
M  V30 6563 C 616.115 -1.86938 -0.898264 0
M  V30 6564 C 616.54 -0.697456 -1.74692 0
M  V30 6565 O 615.898 0.353327 -1.77824 0
M  V30 6566 C 615.946 -3.15599 -1.74441 0
M  V30 6567 O 615.05 -2.98371 -2.8469 0
M  V30 6568 H 614.391 -0.614659 -0.251178 0
M  V30 6569 H 616.921 -2.03979 -0.159298 0
M  V30 6570 H 616.931 -3.47202 -2.14277 0
M  V30 6571 H 615.606 -4.00505 -1.1211 0
M  V30 6572 H 614.183 -2.7814 -2.4838 0
M  V30 6573 N 616.368 0.432326 -1.51554 0
M  V30 6574 C 617.278 1.55023 -1.76082 0
M  V30 6575 C 618.294 1.61593 -0.645265 0
M  V30 6576 O 619.47 1.78742 -0.928086 0
M  V30 6577 C 616.535 2.90964 -1.88523 0
M  V30 6578 C 615.596 2.9447 -3.12388 0
M  V30 6579 C 614.829 4.23926 -3.24225 0
M  V30 6580 O 615.052 5.16576 -2.4188 0
M  V30 6581 O 613.986 4.33818 -4.17235 0
M  V30 6582 H 617.812 1.37238 -2.70923 0
M  V30 6583 H 615.397 0.615845 -1.36117 0
M  V30 6584 H 617.279 3.71633 -1.98662 0
M  V30 6585 H 615.954 3.08865 -0.9687 0
M  V30 6586 H 614.861 2.12737 -3.07723 0
M  V30 6587 H 616.194 2.81514 -4.03746 0
M  V30 6588 N 617.846 1.41785 0.688094 0
M  V30 6589 C 619.094 1.41264 1.4453 0
M  V30 6590 C 619.415 0.0252946 1.94984 0
M  V30 6591 O 618.685 -0.934081 1.72197 0
M  V30 6592 H 617.265 0.519998 0.536294 0
M  V30 6593 H 619.927 1.7709 0.813941 0
M  V30 6594 H 619.023 2.10439 2.30482 0
M  V30 6595 N 619.324 -0.923095 1.27737 0
M  V30 6596 C 620.274 -2.01061 1.0751 0
M  V30 6597 C 621.258 -1.609 0.00165451 0
M  V30 6598 O 622.45 -1.75618 0.220724 0
M  V30 6599 C 619.579 -3.35467 0.729162 0
M  V30 6600 C 618.665 -3.82059 1.84098 0
M  V30 6601 N 619.056 -4.01115 3.08124 0
M  V30 6602 C 617.354 -4.11135 1.7287 0
M  V30 6603 C 618.055 -4.39989 3.80506 0
M  V30 6604 N 617.031 -4.47721 3.08297 0
M  V30 6605 H 620.833 -2.13832 2.01626 0
M  V30 6606 H 618.347 -1.11027 1.18519 0
M  V30 6607 H 620.344 -4.13049 0.565355 0
M  V30 6608 H 619.004 -3.24056 -0.204334 0
M  V30 6609 H 620.015 -3.87294 3.43836 0
M  V30 6610 H 616.692 -4.08412 0.866352 0
M  V30 6611 H 618.082 -4.62773 4.87125 0
M  V30 6612 N 620.802 -1.09834 -1.13024 0
M  V30 6613 C 621.712 -0.753731 -2.22162 0
M  V30 6614 C 622.728 0.246105 -1.72251 0
M  V30 6615 O 623.904 0.0864051 -2.01215 0
M  V30 6616 C 620.969 -0.183958 -3.46212 0
M  V30 6617 C 620.03 -1.24028 -4.10993 0
M  V30 6618 C 619.263 -0.697597 -5.29121 0
M  V30 6619 O 619.486 0.478092 -5.68393 0
M  V30 6620 O 618.42 -1.4546 -5.84059 0
M  V30 6621 H 622.246 -1.66456 -2.5402 0
M  V30 6622 H 619.831 -0.873026 -1.21238 0
M  V30 6623 H 621.713 0.130257 -4.21199 0
M  V30 6624 H 620.388 0.699823 -3.16045 0
M  V30 6625 H 619.295 -1.60725 -3.37814 0
M  V30 6626 H 620.628 -2.09685 -4.45301 0
M  V30 6627 N 622.28 1.30327 -0.886154 0
M  V30 6628 C 623.691 1.78243 -0.555554 0
M  V30 6629 C 624.042 1.72849 0.928314 0
M  V30 6630 O 623.167 1.30607 1.72542 0
M  V30 6631 C 623.762 3.23654 -1.00168 0
M  V30 6632 C 622.321 3.69401 -0.722471 0
M  V30 6633 C 621.468 2.50753 -1.18399 0
M  V30 6634 H 624.419 1.1718 -1.07026 0
M  V30 6635 H 624.44 3.79056 -0.331152 0
M  V30 6636 H 623.952 3.27548 -2.08169 0
M  V30 6637 H 622.053 3.70995 0.345496 0
M  V30 6638 H 622.166 4.60818 -1.31085 0
M  V30 6639 H 620.53 2.47452 -0.603303 0
M  V30 6640 H 621.313 2.57383 -2.27176 0
M  V30 6641 N 623.758 0.647228 1.43697 0
M  V30 6642 C 624.688 -0.0345631 2.33474 0
M  V30 6643 C 625.669 -0.818193 1.4913 0
M  V30 6644 O 626.854 -0.780867 1.77809 0
M  V30 6645 C 623.984 -1.00576 3.32418 0
M  V30 6646 C 622.938 -0.33266 4.26705 0
M  V30 6647 C 622.264 -1.41489 5.1564 0
M  V30 6648 C 623.564 0.771204 5.16575 0
M  V30 6649 H 625.258 0.715163 2.90733 0
M  V30 6650 H 622.804 0.345364 1.39797 0
M  V30 6651 H 624.757 -1.49159 3.94119 0
M  V30 6652 H 623.481 -1.78657 2.73403 0
M  V30 6653 H 622.14 0.13267 3.6636 0
M  V30 6654 H 621.788 -2.18698 4.52968 0
M  V30 6655 H 621.488 -0.969799 5.79542 0
M  V30 6656 H 623.012 -1.9022 5.80214 0
M  V30 6657 H 624.426 0.36779 5.72119 0
M  V30 6658 H 622.823 1.1404 5.89165 0
M  V30 6659 H 623.893 1.63169 4.56622 0
M  V30 6660 N 625.236 -1.5273 0.388769 0
M  V30 6661 C 626.464 -2.05992 -0.193677 0
M  V30 6662 C 626.879 -1.26053 -1.40557 0
M  V30 6663 O 626.236 -0.307049 -1.79898 0
M  V30 6664 C 626.287 -3.57068 -0.564321 0
M  V30 6665 O 626.008 -4.3398 0.599422 0
M  V30 6666 C 627.509 -4.26674 -1.20269 0
M  V30 6667 H 624.729 -0.670358 -0.0293445 0
M  V30 6668 H 627.273 -1.96857 0.553844 0
M  V30 6669 H 625.428 -3.66277 -1.26174 0
M  V30 6670 H 625.842 -5.2367 0.294895 0
M  V30 6671 H 627.316 -5.33625 -1.4124 0
M  V30 6672 H 627.793 -3.81854 -2.16989 0
M  V30 6673 H 628.399 -4.2178 -0.546047 0
M  V30 6674 N 626.714 -0.118576 -1.57153 0
M  V30 6675 C 628.125 0.40687 -1.82213 0
M  V30 6676 C 628.476 1.66636 -1.03571 0
M  V30 6677 O 627.601 2.14682 -0.272171 0
M  V30 6678 C 628.196 0.744949 -3.30509 0
M  V30 6679 C 626.755 1.21503 -3.5625 0
M  V30 6680 C 625.902 0.223511 -2.76398 0
M  V30 6681 H 628.853 -0.343712 -1.54933 0
M  V30 6682 H 628.874 1.6024 -3.45114 0
M  V30 6683 H 628.386 -0.171911 -3.87719 0
M  V30 6684 H 626.487 2.1488 -3.04396 0
M  V30 6685 H 626.6 1.16065 -4.64829 0
M  V30 6686 H 624.964 0.71046 -2.44591 0
M  V30 6687 H 625.747 -0.686439 -3.36367 0
M  V30 6688 N 628.193 1.56834 0.155195 0
M  V30 6689 C 629.418 1.87412 0.888337 0
M  V30 6690 C 629.843 0.70671 1.74319 0
M  V30 6691 O 629.201 -0.343892 1.78009 0
M  V30 6692 C 629.249 3.1652 1.72765 0
M  V30 6693 O 628.353 2.99877 2.83103 0
M  V30 6694 H 627.694 0.615983 0.247914 0
M  V30 6695 H 630.224 2.04061 0.148478 0
M  V30 6696 H 630.234 3.48334 2.12433 0
M  V30 6697 H 628.909 4.01094 1.09985 0
M  V30 6698 H 627.486 2.79453 2.46902 0
M  V30 6699 N 629.671 -0.424282 1.51781 0
M  V30 6700 C 630.896 -1.19928 1.6921 0
M  V30 6701 C 631.321 -1.8392 0.394355 0
M  V30 6702 O 630.679 -1.69371 -0.646778 0
M  V30 6703 C 630.727 -2.24937 2.81843 0
M  V30 6704 O 629.831 -3.3073 2.46356 0
M  V30 6705 H 629.172 -0.35078 0.563781 0
M  V30 6706 H 631.702 -0.499401 1.98412 0
M  V30 6707 H 631.712 -2.69512 3.06312 0
M  V30 6708 H 630.387 -1.77742 3.76006 0
M  V30 6709 H 628.964 -2.9154 2.32505 0
M  V30 6710 N 631.149 -1.42148 -0.680565 0
M  V30 6711 C 632.374 -1.45901 -1.47403 0
M  V30 6712 C 632.799 -0.0700985 -1.87969 0
M  V30 6713 O 632.157 0.930145 -1.55621 0
M  V30 6714 C 632.205 -2.38661 -2.70321 0
M  V30 6715 O 631.309 -1.85399 -3.68376 0
M  V30 6716 H 630.65 -0.494565 -0.443059 0
M  V30 6717 H 633.18 -1.86774 -0.835251 0
M  V30 6718 H 633.19 -2.55046 -3.18458 0
M  V30 6719 H 631.865 -3.39571 -2.40134 0
M  V30 6720 H 630.442 -1.78541 -3.2738 0
M  V30 6721 N 632.627 0.916307 -1.28225 0
M  V30 6722 C 633.875 1.6619 -1.15002 0
M  V30 6723 C 634.196 1.92642 0.302329 0
M  V30 6724 O 633.466 1.54076 1.20985 0
M  V30 6725 H 632.046 0.615964 -0.422608 0
M  V30 6726 H 634.708 1.09963 -1.60917 0
M  V30 6727 H 633.804 2.62533 -1.68769 0
M  V30 6728 N 634.105 1.10431 1.1244 0
M  V30 6729 C 635.053 0.747974 2.20246 0
M  V30 6730 C 636.047 -0.255848 1.67457 0
M  V30 6731 O 637.253 -0.116221 1.79624 0
M  V30 6732 H 633.628 0.223946 0.71788 0
M  V30 6733 H 635.599 1.6661 2.47556 0
M  V30 6734 C 634.348 0.195957 3.47147 0
M  V30 6735 H 633.671 0.959606 3.88113 0
M  V30 6736 H 635.111 -0.0153154 4.23997 0
M  V30 6737 C 633.57 -1.07132 3.19413 0
M  V30 6738 O 634.1 -2.15284 3.3914 0
M  V30 6739 N 632.306 -0.98994 2.73219 0
M  V30 6740 H 631.853 -0.109736 2.57366 0
M  V30 6741 H 631.811 -1.83856 2.55038 0
M  V30 6742 N 635.583 -1.29855 0.893053 0
M  V30 6743 C 636.811 -1.99976 0.530788 0
M  V30 6744 C 637.226 -1.66889 -0.882799 0
M  V30 6745 O 636.583 -0.910352 -1.58173 0
M  V30 6746 C 636.634 -3.54547 0.705587 0
M  V30 6747 O 636.355 -3.86458 2.06353 0
M  V30 6748 C 637.856 -4.41937 0.347387 0
M  V30 6749 H 635.076 -0.639129 0.204339 0
M  V30 6750 H 637.62 -1.65549 1.20057 0
M  V30 6751 H 635.775 -3.87311 0.0830685 0
M  V30 6752 H 636.189 -4.81146 2.08803 0
M  V30 6753 H 637.663 -5.4954 0.520557 0
M  V30 6754 H 638.14 -4.33339 -0.715139 0
M  V30 6755 H 638.746 -4.14633 0.946567 0
M  V30 6756 N 637.061 -0.65484 -1.43351 0
M  V30 6757 C 638.024 0.0263562 -2.29185 0
M  V30 6758 C 639.024 0.748951 -1.42293 0
M  V30 6759 O 640.214 0.589957 -1.63906 0
M  V30 6760 C 637.346 1.04806 -3.2439 0
M  V30 6761 H 638.539 -0.728883 -2.90908 0
M  V30 6762 H 636.092 -0.416149 -1.50658 0
M  V30 6763 H 636.827 1.83247 -2.67565 0
M  V30 6764 H 636.612 0.533554 -3.88453 0
M  V30 6765 H 638.102 1.52372 -3.88809 0
M  V30 6766 N 638.539 1.52521 -0.396863 0
M  V30 6767 C 639.449 2.30403 0.44178 0
M  V30 6768 C 640.465 1.37625 1.06468 0
M  V30 6769 O 641.641 1.70697 1.06886 0
M  V30 6770 C 638.706 3.1013 1.54986 0
M  V30 6771 C 637.767 4.18628 0.951279 0
M  V30 6772 C 637 4.94543 2.00655 0
M  V30 6773 O 637.223 4.70629 3.22281 0
M  V30 6774 O 636.157 5.797 1.61962 0
M  V30 6775 H 639.983 3.03087 -0.192892 0
M  V30 6776 H 637.568 1.48537 -0.16038 0
M  V30 6777 H 639.45 3.59816 2.19341 0
M  V30 6778 H 638.125 2.40251 2.16935 0
M  V30 6779 H 637.032 3.73119 0.270773 0
M  V30 6780 H 638.365 4.90763 0.375887 0
M  V30 6781 N 640.017 0.126909 1.57088 0
M  V30 6782 C 640.967 -0.831678 2.1229 0
M  V30 6783 C 641.951 -1.22292 1.04564 0
M  V30 6784 O 643.143 -1.19269 1.30782 0
M  V30 6785 C 640.272 -2.07866 2.73215 0
M  V30 6786 C 639.358 -1.71143 3.88035 0
M  V30 6787 N 639.749 -1.05136 4.94753 0
M  V30 6788 C 638.047 -2.00549 3.98367 0
M  V30 6789 C 638.748 -0.877257 5.75047 0
M  V30 6790 N 637.724 -1.40477 5.25135 0
M  V30 6791 H 641.526 -0.317926 2.92175 0
M  V30 6792 H 639.04 -0.0753052 1.62225 0
M  V30 6793 H 641.037 -2.77516 3.11111 0
M  V30 6794 H 639.697 -2.59778 1.94796 0
M  V30 6795 H 640.708 -0.71442 5.12949 0
M  V30 6796 H 637.385 -2.54452 3.30999 0
M  V30 6797 H 638.775 -0.358536 6.70943 0
M  V30 6798 N 641.495 -1.56914 -0.146875 0
M  V30 6799 C 642.72 -1.87881 -0.878386 0
M  V30 6800 C 643.145 -0.715945 -1.73942 0
M  V30 6801 O 642.503 0.334447 -1.78189 0
M  V30 6802 C 642.551 -3.17431 -1.71084 0
M  V30 6803 O 641.655 -3.01374 -2.81509 0
M  V30 6804 H 640.996 -0.617289 -0.244644 0
M  V30 6805 H 643.526 -2.04136 -0.137654 0
M  V30 6806 H 643.536 -3.49455 -2.10582 0
M  V30 6807 H 642.211 -4.01671 -1.07856 0
M  V30 6808 H 640.788 -2.80758 -2.45416 0
M  V30 6809 N 642.974 0.416227 -1.52004 0
M  V30 6810 C 644.385 0.995319 -1.57957 0
M  V30 6811 C 644.736 1.91744 -0.415754 0
M  V30 6812 O 643.861 2.11349 0.464808 0
M  V30 6813 C 644.456 1.81191 -2.86278 0
M  V30 6814 C 643.015 2.34115 -2.94732 0
M  V30 6815 C 642.162 1.139 -2.52828 0
M  V30 6816 H 645.113 0.196716 -1.57476 0
M  V30 6817 H 645.134 2.66859 -2.71231 0
M  V30 6818 H 644.646 1.14051 -3.70963 0
M  V30 6819 H 642.747 3.04647 -2.14525 0
M  V30 6820 H 642.86 2.65466 -3.98829 0
M  V30 6821 H 641.224 1.49081 -2.06511 0
M  V30 6822 H 642.007 0.483383 -3.3988 0
M  V30 6823 N 644.452 1.42507 0.673017 0
M  V30 6824 C 645.677 1.4668 1.46627 0
M  V30 6825 C 646.102 0.080066 1.8793 0
M  V30 6826 O 645.46 -0.921879 1.56112 0
M  V30 6827 C 645.508 2.40091 2.69051 0
M  V30 6828 O 644.612 1.8735 3.67387 0
M  V30 6829 H 643.953 0.496908 0.44043 0
M  V30 6830 H 646.483 1.87215 0.825334 0
M  V30 6831 H 646.493 2.56731 3.17101 0
M  V30 6832 H 645.168 3.4084 2.3833 0
M  V30 6833 H 643.745 1.80274 3.26429 0
M  V30 6834 N 645.93 -0.909495 1.28709 0
M  V30 6835 C 647.179 -1.65365 1.15487 0
M  V30 6836 C 647.492 -1.93364 -0.294941 0
M  V30 6837 O 648.698 -2.65905 -0.548338 0
M  V30 6838 C 647.154 -2.97923 2.01916 0
M  V30 6839 C 646.762 -2.77556 3.51663 0
M  V30 6840 C 648.506 -3.75814 1.97393 0
M  V30 6841 C 646.413 -4.0578 4.30229 0
M  V30 6842 H 645.343 -0.620323 0.42862 0
M  V30 6843 H 647.994 -1.00894 1.53273 0
M  V30 6844 H 646.376 -3.63552 1.5699 0
M  V30 6845 H 647.55 -2.2058 4.04575 0
M  V30 6846 H 645.865 -2.13072 3.57756 0
M  V30 6847 H 648.462 -4.70866 2.53357 0
M  V30 6848 H 648.805 -4.05277 0.951643 0
M  V30 6849 H 649.338 -3.1701 2.40311 0
M  V30 6850 H 646.077 -3.81488 5.33055 0
M  V30 6851 H 645.597 -4.62351 3.82089 0
M  V30 6852 H 647.276 -4.74004 4.40374 0
M  V30 6853 N 647.408 -1.11026 -1.11852 0
M  V30 6854 C 648.633 -0.879064 -1.87849 0
M  V30 6855 C 649.058 0.565406 -1.79401 0
M  V30 6856 O 648.416 1.39886 -1.15333 0
M  V30 6857 C 648.464 -1.33985 -3.34784 0
M  V30 6858 O 647.568 -0.508803 -4.09249 0
M  V30 6859 H 646.909 -0.316992 -0.583448 0
M  V30 6860 H 649.439 -1.47863 -1.41413 0
M  V30 6861 H 649.449 -1.33248 -3.85628 0
M  V30 6862 H 648.124 -2.39172 -3.40249 0
M  V30 6863 H 646.701 -0.581913 -3.68332 0
M  V30 6864 N 648.886 1.2938 -0.899927 0
M  V30 6865 C 650.297 1.77644 -0.574427 0
M  V30 6866 C 650.648 1.73824 0.909928 0
M  V30 6867 O 649.773 1.32429 1.71147 0
M  V30 6868 C 650.368 3.22573 -1.03595 0
M  V30 6869 C 648.927 3.68614 -0.76161 0
M  V30 6870 C 648.074 2.49483 -1.21052 0
M  V30 6871 H 651.025 1.16038 -1.08263 0
M  V30 6872 H 651.046 3.78684 -0.371337 0
M  V30 6873 H 650.558 3.25321 -2.11631 0
M  V30 6874 H 648.659 3.7134 0.306127 0
M  V30 6875 H 648.772 4.59402 -1.35965 0
M  V30 6876 H 647.136 2.46798 -0.629515 0
M  V30 6877 H 647.919 2.54959 -2.29893 0
M  V30 6878 N 650.364 0.662433 1.43002 0
M  V30 6879 C 651.589 0.186003 2.06564 0
M  V30 6880 C 652.014 -1.14314 1.49379 0
M  V30 6881 O 651.372 -1.70824 0.607346 0
M  V30 6882 C 651.42 0.118269 3.60406 0
M  V30 6883 O 650.524 -0.916859 4.02079 0
M  V30 6884 H 649.865 0.0990981 0.656563 0
M  V30 6885 H 652.395 0.907958 1.8335 0
M  V30 6886 H 652.405 -0.0619981 4.07953 0
M  V30 6887 H 651.08 1.08849 4.01403 0
M  V30 6888 H 649.657 -0.708635 3.66105 0
M  V30 6889 N 651.842 -1.52309 0.404946 0
M  V30 6890 C 653.067 -2.06666 -0.1743 0
M  V30 6891 C 653.492 -1.27341 -1.38441 0
M  V30 6892 O 652.85 -0.302539 -1.78758 0
M  V30 6893 C 652.898 -3.57014 -0.507262 0
M  V30 6894 O 652.002 -3.80144 -1.59889 0
M  V30 6895 H 651.343 -0.663807 -0.0160273 0
M  V30 6896 H 653.873 -1.96297 0.576937 0
M  V30 6897 H 653.883 -4.00724 -0.767098 0
M  V30 6898 H 652.558 -4.14184 0.377368 0
M  V30 6899 H 651.135 -3.48316 -1.33155 0
M  V30 6900 N 653.32 -0.135238 -1.57019 0
M  V30 6901 C 654.566 0.519563 -1.96032 0
M  V30 6902 C 654.899 1.65284 -1.01955 0
M  V30 6903 O 654.174 1.94408 -0.059727 0
M  V30 6904 C 654.457 1.0369 -3.44848 0
M  V30 6905 C 654.31 -0.0940754 -4.49702 0
M  V30 6906 C 655.629 1.92254 -3.95887 0
M  V30 6907 H 652.748 0.18739 -0.712779 0
M  V30 6908 H 655.39 -0.214086 -1.8879 0
M  V30 6909 H 653.54 1.66209 -3.5115 0
M  V30 6910 H 655.212 -0.73 -4.55487 0
M  V30 6911 H 653.455 -0.754924 -4.27181 0
M  V30 6912 H 654.126 0.309419 -5.51132 0
M  V30 6913 H 656.602 1.39581 -3.9199 0
M  V30 6914 H 655.478 2.25364 -5.00502 0
M  V30 6915 H 655.739 2.85513 -3.37543 0
M  V30 6916 N 654.798 1.5699 0.138552 0
M  V30 6917 C 655.708 2.02174 1.19008 0
M  V30 6918 C 656.724 0.938622 1.46512 0
M  V30 6919 O 657.9 1.24872 1.58016 0
M  V30 6920 C 654.965 2.40045 2.50159 0
M  V30 6921 C 654.026 3.62346 2.30226 0
M  V30 6922 C 653.259 3.98401 3.55123 0
M  V30 6923 O 653.482 3.35019 4.61647 0
M  V30 6924 O 652.416 4.91606 3.47285 0
M  V30 6925 H 656.242 2.91954 0.836452 0
M  V30 6926 H 653.827 1.45293 0.347907 0
M  V30 6927 H 655.709 2.65225 3.27465 0
M  V30 6928 H 654.384 1.53417 2.85035 0
M  V30 6929 H 653.291 3.42341 1.50843 0
M  V30 6930 H 654.624 4.49617 2.00262 0
M  V30 6931 N 656.276 -0.40816 1.52223 0
M  V30 6932 C 657.224 -1.51788 1.76248 0
M  V30 6933 C 658.218 -1.57264 0.629638 0
M  V30 6934 O 659.424 -1.60659 0.811704 0
M  V30 6935 H 655.799 -0.504823 0.557367 0
M  V30 6936 H 657.77 -1.2871 2.69214 0
M  V30 6937 C 656.519 -2.89145 1.93107 0
M  V30 6938 H 655.842 -2.85674 2.79697 0
M  V30 6939 H 657.282 -3.66082 2.13916 0
M  V30 6940 C 655.741 -3.29581 0.698431 0
M  V30 6941 O 656.271 -4.01479 -0.133238 0
M  V30 6942 N 654.477 -2.85651 0.53405 0
M  V30 6943 H 654.024 -2.2731 1.21194 0
M  V30 6944 H 653.982 -3.13065 -0.289387 0
M  V30 6945 N 657.755 -1.42862 -0.66545 0
M  V30 6946 C 658.98 -1.47456 -1.45848 0
M  V30 6947 C 659.405 -0.0900312 -1.87884 0
M  V30 6948 O 658.763 0.913587 -1.56599 0
M  V30 6949 C 658.811 -2.41514 -2.67774 0
M  V30 6950 O 657.915 -1.89296 -3.66389 0
M  V30 6951 H 657.256 -0.499236 -0.437789 0
M  V30 6952 H 659.786 -1.8765 -0.815394 0
M  V30 6953 H 659.796 -2.58409 -3.15735 0
M  V30 6954 H 658.471 -3.42099 -2.36519 0
M  V30 6955 H 657.048 -1.82003 -3.25468 0
M  V30 6956 N 659.233 0.902656 -1.29189 0
M  V30 6957 C 660.481 1.6496 -1.16758 0
M  V30 6958 C 660.802 1.92952 0.28188 0
M  V30 6959 O 660.072 1.55351 1.19344 0
M  V30 6960 H 658.652 0.611447 -0.429118 0
M  V30 6961 H 661.314 1.0825 -1.62074 0
M  V30 6962 H 660.41 2.60728 -1.71544 0
M  V30 6963 N 660.711 1.11618 1.11262 0
M  V30 6964 C 661.957 0.867463 1.83311 0
M  V30 6965 C 662.29 -0.605366 1.84524 0
M  V30 6966 O 661.565 -1.44704 1.29965 0
M  V30 6967 C 661.848 1.43207 3.30399 0
M  V30 6968 C 661.701 2.97265 3.3757 0
M  V30 6969 C 663.02 1.08454 4.26528 0
M  V30 6970 H 660.139 0.316578 0.665543 0
M  V30 6971 H 662.781 1.38137 1.30454 0
M  V30 6972 H 660.931 0.994982 3.75543 0
M  V30 6973 H 662.603 3.49591 3.00971 0
M  V30 6974 H 660.846 3.33237 2.77733 0
M  V30 6975 H 661.517 3.31859 4.41105 0
M  V30 6976 H 663.993 1.4619 3.89574 0
M  V30 6977 H 662.869 1.50633 5.27826 0
M  V30 6978 H 663.13 -0.00444568 4.421 0
M  V30 6979 N 662.189 -1.289 0.906776 0
M  V30 6980 C 663.414 -1.99939 0.551303 0
M  V30 6981 C 663.839 -1.67366 -0.858496 0
M  V30 6982 O 663.197 -0.902176 -1.57259 0
M  V30 6983 C 663.245 -3.52523 0.758937 0
M  V30 6984 O 662.349 -4.11983 -0.185308 0
M  V30 6985 H 661.69 -0.628376 0.214568 0
M  V30 6986 H 664.22 -1.64225 1.2203 0
M  V30 6987 H 664.23 -4.02522 0.666329 0
M  V30 6988 H 662.905 -3.75566 1.78671 0
M  V30 6989 H 661.482 -3.72873 -0.0445577 0
M  V30 6990 N 663.667 -0.670007 -1.42649 0
M  V30 6991 C 664.599 0.0501746 -2.29145 0
M  V30 6992 C 665.612 0.770331 -1.43422 0
M  V30 6993 O 666.801 0.625288 -1.6719 0
M  V30 6994 C 663.901 1.09463 -3.20735 0
M  V30 6995 C 663.074 0.44926 -4.35087 0
M  V30 6996 C 662.133 1.39285 -5.07431 0
M  V30 6997 O 661.159 0.894997 -5.6212 0
M  V30 6998 N 662.361 2.72631 -5.12496 0
M  V30 6999 H 665.126 -0.692312 -2.91594 0
M  V30 7000 H 662.687 -0.514056 -1.53522 0
M  V30 7001 H 664.679 1.72705 -3.65999 0
M  V30 7002 H 663.249 1.73891 -2.59771 0
M  V30 7003 H 662.469 -0.362573 -3.92529 0
M  V30 7004 H 663.757 -0.000544776 -5.088 0
M  V30 7005 H 663.155 3.15623 -4.69467 0
M  V30 7006 H 661.712 3.31132 -5.61422 0
M  V30 7007 N 665.145 1.52092 -0.413018 0
M  V30 7008 C 666.37 2.06756 0.163338 0
M  V30 7009 C 666.795 1.28073 1.37764 0
M  V30 7010 O 666.153 0.312015 1.78595 0
M  V30 7011 C 666.201 3.57278 0.488322 0
M  V30 7012 O 665.305 3.80986 1.57871 0
M  V30 7013 H 664.646 0.663882 0.0125068 0
M  V30 7014 H 667.176 1.95988 -0.587339 0
M  V30 7015 H 667.186 4.01125 0.745836 0
M  V30 7016 H 665.861 4.13978 -0.399327 0
M  V30 7017 H 664.438 3.49017 1.31306 0
M  V30 7018 N 666.623 0.143563 1.56945 0
M  V30 7019 C 668.034 -0.37783 1.82837 0
M  V30 7020 C 668.385 -1.64967 1.06209 0
M  V30 7021 O 667.51 -2.14221 0.306291 0
M  V30 7022 C 668.105 -0.692274 3.31652 0
M  V30 7023 C 666.664 -1.1582 3.58138 0
M  V30 7024 C 665.811 -0.17951 2.76718 0
M  V30 7025 H 668.762 0.368317 1.54367 0
M  V30 7026 H 668.783 -1.54729 3.47619 0
M  V30 7027 H 668.295 0.233572 3.87397 0
M  V30 7028 H 666.396 -2.10011 3.07776 0
M  V30 7029 H 666.509 -1.08655 4.66616 0
M  V30 7030 H 664.873 -0.671458 2.4569 0
M  V30 7031 H 665.656 0.739865 3.35233 0
M  V30 7032 N 668.101 -1.57061 -0.130224 0
M  V30 7033 C 669.031 -2.02552 -1.16168 0
M  V30 7034 C 670.012 -0.907971 -1.4384 0
M  V30 7035 O 671.197 -1.17693 -1.54473 0
M  V30 7036 C 668.327 -2.42035 -2.49071 0
M  V30 7037 C 667.281 -3.5713 -2.35886 0
M  V30 7038 C 666.607 -3.82478 -3.7365 0
M  V30 7039 C 667.907 -4.89236 -1.8288 0
M  V30 7040 H 669.601 -2.8897 -0.783359 0
M  V30 7041 H 667.147 -1.39021 -0.375376 0
M  V30 7042 H 669.1 -2.72462 -3.21469 0
M  V30 7043 H 667.824 -1.52573 -2.88771 0
M  V30 7044 H 666.483 -3.26895 -1.65938 0
M  V30 7045 H 666.131 -2.9024 -4.10816 0
M  V30 7046 H 665.831 -4.59944 -3.65685 0
M  V30 7047 H 667.355 -4.15347 -4.47571 0
M  V30 7048 H 668.769 -5.18272 -2.45085 0
M  V30 7049 H 667.166 -5.70624 -1.85763 0
M  V30 7050 H 668.236 -4.78494 -0.785571 0
M  V30 7051 N 669.579 0.400081 -1.52437 0
M  V30 7052 C 670.825 1.14788 -1.67187 0
M  V30 7053 C 671.158 1.89928 -0.405074 0
M  V30 7054 O 670.433 1.85118 0.596804 0
M  V30 7055 C 670.716 2.13507 -2.89977 0
M  V30 7056 C 670.569 1.42204 -4.2673 0
M  V30 7057 C 671.888 3.14069 -3.083 0
M  V30 7058 H 669.007 0.415939 -0.608411 0
M  V30 7059 H 671.649 0.432542 -1.85011 0
M  V30 7060 H 669.799 2.7451 -2.74912 0
M  V30 7061 H 671.471 0.842503 -4.53541 0
M  V30 7062 H 669.714 0.723939 -4.27717 0
M  V30 7063 H 670.385 2.14281 -5.08712 0
M  V30 7064 H 672.861 2.63148 -3.22323 0
M  V30 7065 H 671.737 3.80398 -3.95713 0
M  V30 7066 H 671.998 3.82309 -2.22018 0
M  V30 7067 N 671.057 1.43213 0.657864 0
M  V30 7068 C 671.989 1.43974 1.78337 0
M  V30 7069 C 673.002 0.336482 1.59285 0
M  V30 7070 O 674.191 0.600631 1.68091 0
M  V30 7071 C 671.291 1.23242 3.15697 0
M  V30 7072 C 670.464 2.46319 3.61449 0
M  V30 7073 C 669.523 2.2088 4.77597 0
M  V30 7074 O 668.549 2.942 4.87273 0
M  V30 7075 N 669.751 1.22251 5.67481 0
M  V30 7076 H 672.516 2.40993 1.78164 0
M  V30 7077 H 670.077 1.3831 0.841549 0
M  V30 7078 H 672.069 1.04113 3.91079 0
M  V30 7079 H 670.639 0.346849 3.1067 0
M  V30 7080 H 669.859 2.80904 2.76563 0
M  V30 7081 H 671.147 3.28239 3.88763 0
M  V30 7082 H 670.545 0.616433 5.62331 0
M  V30 7083 H 669.102 1.09107 6.42603 0
M  V30 7084 O 672.574 -0.8008 1.40248 0
M  V30 7085 H 673.265 -1.44601 1.28881 0
M  V30 END ATOM
M  V30 BEGIN BOND
M  V30 END BOND
M  V30 END CTAB
M  END
$$$$
