drugbank_target|Q7RTT9 Equilibrative nucleoside transporter 4 (DB01104)
 OpenBabel12092120583D

  0  0  0     0  0            999 V3000
M  V30 BEGIN CTAB
M  V30 COUNTS 8212 8321 0 0 0
M  V30 BEGIN ATOM
M  V30 1 H -0.908 1.98254 -0.117106 0
M  V30 2 N 0 1.576 0 0
M  V30 3 C 0.933 2.03868 1.02534 0
M  V30 4 C 1.911 0.928543 1.3348 0
M  V30 5 O 3.095 1.19667 1.45644 0
M  V30 6 C 0.222 2.43627 2.35294 0
M  V30 7 C -0.732 3.65373 2.2001 0
M  V30 8 S 0.101 5.13292 1.52614 0
M  V30 9 C 1.257 5.56322 2.86805 0
M  V30 10 H 1.49 2.90518 0.631377 0
M  V30 11 H -0.977 1.52953 0.210867 0
M  V30 12 H 0.981 2.67203 3.11629 0
M  V30 13 H -0.358 1.57376 2.7183 0
M  V30 14 H -1.165 3.90944 3.18086 0
M  V30 15 H -1.563 3.418 1.51819 0
M  V30 16 H 0.729 5.58782 3.83104 0
M  V30 17 H 1.672 6.56266 2.65933 0
M  V30 18 H 2.08 4.83886 2.90714 0
M  V30 19 N 1.4781 -0.272755 1.55222 0
M  V30 20 C 2.7261 -1.00234 1.75492 0
M  V30 21 C 3.0471 -1.8681 0.5592 0
M  V30 22 O 2.3171 -1.91215 -0.425882 0
M  V30 23 H 0.8971 -0.373076 0.647166 0
M  V30 24 H 3.5591 -0.296926 1.92625 0
M  V30 25 H 2.6551 -1.63913 2.65592 0
M  V30 26 N 2.9562 -1.48159 -0.537278 0
M  V30 27 C 4.1812 -1.59707 -1.32319 0
M  V30 28 C 4.6062 -0.254859 -1.86365 0
M  V30 29 O 3.9642 0.772378 -1.64024 0
M  V30 30 C 4.0122 -2.6412 -2.45505 0
M  V30 31 O 3.1162 -2.20774 -3.48328 0
M  V30 32 H 2.4572 -0.535791 -0.392204 0
M  V30 33 H 4.9872 -1.94092 -0.647268 0
M  V30 34 H 4.9972 -2.85166 -2.91795 0
M  V30 35 H 3.6722 -3.61567 -2.05528 0
M  V30 36 H 2.2492 -2.09911 -3.08207 0
M  V30 37 N 4.4343 0.785586 -1.36625 0
M  V30 38 C 5.6803 1.54591 -1.31261 0
M  V30 39 C 6.0133 1.93906 0.106823 0
M  V30 40 O 5.2883 1.63007 1.06108 0
M  V30 41 C 5.5713 2.82038 -2.23889 0
M  V30 42 C 5.4243 2.49066 -3.74548 0
M  V30 43 C 6.7433 3.83887 -2.15217 0
M  V30 44 H 3.8623 0.560846 -0.478143 0
M  V30 45 H 6.5043 0.902278 -1.67209 0
M  V30 46 H 4.6543 3.36961 -1.93363 0
M  V30 47 H 6.3263 2.00164 -4.15611 0
M  V30 48 H 4.5693 1.81954 -3.93796 0
M  V30 49 H 5.2403 3.40109 -4.34776 0
M  V30 50 H 7.7163 3.38421 -2.42096 0
M  V30 51 H 6.5923 4.70806 -2.82193 0
M  V30 52 H 6.8533 4.27131 -1.14068 0
M  V30 53 N 5.9124 1.20967 1.01018 0
M  V30 54 C 7.1604 1.02172 1.74371 0
M  V30 55 C 7.4814 -0.446414 1.89821 0
M  V30 56 O 6.7514 -1.32234 1.44537 0
M  V30 57 H 5.3314 0.375066 0.646014 0
M  V30 58 H 7.9934 1.52187 1.21758 0
M  V30 59 H 7.0894 1.48538 2.74487 0
M  V30 60 N 7.3905 -1.2043 1.01659 0
M  V30 61 C 8.6155 -1.94318 0.724942 0
M  V30 62 C 9.0405 -1.74266 -0.708034 0
M  V30 63 O 8.3985 -1.03694 -1.48719 0
M  V30 64 C 8.4465 -3.44486 1.06591 0
M  V30 65 O 7.5505 -4.12017 0.177599 0
M  V30 66 H 6.8915 -0.60708 0.26898 0
M  V30 67 H 9.4215 -1.52861 1.35995 0
M  V30 68 H 9.4315 -3.95106 1.01762 0
M  V30 69 H 8.1065 -3.58404 2.10997 0
M  V30 70 H 6.6835 -3.71821 0.283421 0
M  V30 71 N 8.8686 -0.792821 -1.36206 0
M  V30 72 C 9.8006 -0.151469 -2.28699 0
M  V30 73 C 10.8136 0.641262 -1.49638 0
M  V30 74 O 12.0026 0.475885 -1.72039 0
M  V30 75 C 9.1026 0.808424 -3.29117 0
M  V30 76 C 8.2756 0.0650202 -4.37352 0
M  V30 77 C 7.3346 0.941358 -5.17711 0
M  V30 78 O 6.3606 0.397352 -5.67811 0
M  V30 79 N 7.5626 2.2652 -5.3448 0
M  V30 80 H 10.3276 -0.945982 -2.84379 0
M  V30 81 H 7.8886 -0.647032 -1.48409 0
M  V30 82 H 9.8806 1.3986 -3.79765 0
M  V30 83 H 8.4506 1.5038 -2.74052 0
M  V30 84 H 7.6706 -0.706255 -3.87822 0
M  V30 85 H 8.9586 -0.447847 -5.06825 0
M  V30 86 H 8.3566 2.73128 -4.95396 0
M  V30 87 H 6.9136 2.80493 -5.88359 0
M  V30 88 N 10.3467 1.47872 -0.545128 0
M  V30 89 C 11.7627 1.5829 -0.204032 0
M  V30 90 C 11.9627 1.54529 1.29317 0
M  V30 91 O 11.0187 1.44232 2.07252 0
M  V30 92 C 12.3317 2.89304 -0.819987 0
M  V30 93 C 13.8797 3.02864 -0.790105 0
M  V30 94 C 14.3547 4.3656 -1.38491 0
M  V30 95 N 15.8457 4.43165 -1.34755 0
M  V30 96 C 16.5807 5.45153 -1.77753 0
M  V30 97 N 16.0767 6.54016 -2.2855 0
M  V30 98 N 17.8697 5.36125 -1.68897 0
M  V30 99 H 10.0207 1.4856 -1.51802 0
M  V30 100 H 12.2837 0.706305 -0.632327 0
M  V30 101 H 11.9897 2.97757 -1.87173 0
M  V30 102 H 11.8637 3.75957 -0.305915 0
M  V30 103 H 14.2507 2.94014 0.252913 0
M  V30 104 H 14.3317 2.17782 -1.34181 0
M  V30 105 H 13.9757 4.46164 -2.42693 0
M  V30 106 H 13.9057 5.20353 -0.808754 0
M  V30 107 H 16.3967 3.65083 -0.975855 0
M  V30 108 H 16.7097 7.27994 -2.59314 0
M  V30 109 H 15.0547 6.54938 -2.32553 0
M  V30 110 H 18.2457 4.49975 -1.28998 0
M  V30 111 H 18.4187 6.15472 -2.02726 0
M  V30 112 N 11.8248 0.280983 1.55075 0
M  V30 113 C 12.7548 -0.597469 2.25727 0
M  V30 114 C 13.7358 -1.15417 1.24952 0
M  V30 115 O 14.9208 -1.18722 1.53684 0
M  V30 116 C 12.0508 -1.7789 2.98283 0
M  V30 117 C 11.0048 -1.35347 4.06036 0
M  V30 118 C 10.3308 -2.61846 4.66198 0
M  V30 119 C 11.6308 -0.499354 5.19907 0
M  V30 120 H 13.3248 -0.00824265 2.99399 0
M  V30 121 H 10.8708 -0.0025244 1.44 0
M  V30 122 H 12.8238 -2.39937 3.46422 0
M  V30 123 H 11.5478 -2.39405 2.22155 0
M  V30 124 H 10.2068 -0.756156 3.58717 0
M  V30 125 H 9.8548 -3.21632 3.86732 0
M  V30 126 H 9.5548 -2.3409 5.38958 0
M  V30 127 H 11.0788 -3.24732 5.1709 0
M  V30 128 H 12.4928 -1.02498 5.64063 0
M  V30 129 H 10.8898 -0.316424 5.99265 0
M  V30 130 H 11.9598 0.480459 4.82514 0
M  V30 131 N 13.3029 -1.57598 0.00835791 0
M  V30 132 C 14.2129 -2.12385 -0.996487 0
M  V30 133 C 15.2289 -1.07108 -1.37127 0
M  V30 134 O 16.4049 -1.39055 -1.4569 0
M  V30 135 C 13.4699 -2.62314 -2.26699 0
M  V30 136 C 12.5309 -3.82225 -1.95456 0
M  V30 137 C 11.7639 -4.29763 -3.16449 0
M  V30 138 O 11.9869 -3.76584 -4.28416 0
M  V30 139 O 10.9209 -5.21832 -2.99958 0
M  V30 140 H 14.7469 -2.98479 -0.560725 0
M  V30 141 H 12.3319 -1.47903 -0.210987 0
M  V30 142 H 14.2139 -2.94589 -3.01322 0
M  V30 143 H 12.8889 -1.79313 -2.69497 0
M  V30 144 H 11.7959 -3.54909 -1.18282 0
M  V30 145 H 13.1289 -4.66324 -1.57489 0
M  V30 146 N 14.781 0.264519 -1.55364 0
M  V30 147 C 15.691 1.34902 -1.91934 0
M  V30 148 C 16.707 1.53595 -0.817593 0
M  V30 149 O 17.883 1.67558 -1.11742 0
M  V30 150 C 14.948 2.68676 -2.19121 0
M  V30 151 C 14.009 2.58657 -3.4263 0
M  V30 152 C 13.242 3.86051 -3.68511 0
M  V30 153 O 13.465 4.87126 -2.96757 0
M  V30 154 O 12.399 3.85744 -4.62045 0
M  V30 155 H 16.225 1.06883 -2.8427 0
M  V30 156 H 13.81 0.463775 -1.42019 0
M  V30 157 H 15.692 3.47759 -2.37995 0
M  V30 158 H 14.367 2.96463 -1.29966 0
M  V30 159 H 13.274 1.7792 -3.29082 0
M  V30 160 H 14.607 2.35818 -4.32031 0
M  V30 161 N 16.2591 1.48442 0.529413 0
M  V30 162 C 17.6701 1.5002 1.11134 0
M  V30 163 C 18.0211 0.27031 1.94329 0
M  V30 164 O 17.1461 -0.622507 2.07253 0
M  V30 165 C 17.7411 2.71834 2.02217 0
M  V30 166 C 16.3001 2.76283 2.55627 0
M  V30 167 C 15.4471 2.43542 1.326 0
M  V30 168 H 18.3981 1.5555 0.314641 0
M  V30 169 H 18.4191 2.50384 2.8651 0
M  V30 170 H 17.9311 3.61331 1.41639 0
M  V30 171 H 16.0321 1.90995 3.19924 0
M  V30 172 H 16.1451 3.77725 2.94721 0
M  V30 173 H 14.5091 1.94709 1.64196 0
M  V30 174 H 15.2921 3.3528 0.737734 0
M  V30 175 N 17.7372 -0.778329 1.37039 0
M  V30 176 C 18.9622 -1.57248 1.35233 0
M  V30 177 C 19.3872 -1.87999 -0.0615568 0
M  V30 178 O 18.7452 -1.48734 -1.03672 0
M  V30 179 C 18.7932 -2.86353 2.19167 0
M  V30 180 O 17.8972 -3.80442 1.59178 0
M  V30 181 H 17.2382 -0.476569 0.462362 0
M  V30 182 H 19.7682 -0.963853 1.80474 0
M  V30 183 H 19.7782 -3.35519 2.32145 0
M  V30 184 H 18.4532 -2.63299 3.21942 0
M  V30 185 H 17.0302 -3.39067 1.55203 0
M  V30 186 N 19.2153 -1.21501 -1.00376 0
M  V30 187 C 20.4613 -1.03452 -1.74429 0
M  V30 188 C 20.7943 0.430764 -1.89362 0
M  V30 189 O 20.0693 1.31962 -1.42886 0
M  V30 190 C 20.3523 -1.73375 -3.15615 0
M  V30 191 C 20.2053 -3.27431 -3.08397 0
M  V30 192 C 21.5243 -1.47732 -4.14564 0
M  V30 193 H 18.6433 -0.377226 -0.633143 0
M  V30 194 H 21.2853 -1.49693 -1.17013 0
M  V30 195 H 19.4353 -1.34064 -3.64636 0
M  V30 196 H 21.1073 -3.76119 -2.67081 0
M  V30 197 H 19.3503 -3.5767 -2.45468 0
M  V30 198 H 20.0213 -3.71524 -4.08258 0
M  V30 199 H 22.4973 -1.8186 -3.74254 0
M  V30 200 H 21.3733 -1.99169 -5.11491 0
M  V30 201 H 21.6343 -0.407589 -4.40217 0
M  V30 202 N 20.6934 1.19889 -1.02296 0
M  V30 203 C 21.6564 2.21116 -0.603351 0
M  V30 204 C 22.6564 1.5738 0.329884 0
M  V30 205 O 23.8464 1.73802 0.117702 0
M  V30 206 C 20.9784 3.40696 0.117992 0
M  V30 207 H 22.1714 2.59754 -1.49893 0
M  V30 208 H 19.7244 1.33463 -0.813468 0
M  V30 209 H 20.4594 3.07569 1.0282 0
M  V30 210 H 20.2444 3.88188 -0.552511 0
M  V30 211 H 21.7344 4.15692 0.398696 0
M  V30 212 N 22.1715 0.800033 1.35784 0
M  V30 213 C 23.4195 0.376597 1.9856 0
M  V30 214 C 23.7405 -1.05812 1.63795 0
M  V30 215 O 23.0105 -1.73103 0.917171 0
M  V30 216 H 21.5905 0.136261 0.734467 0
M  V30 217 H 24.2525 1.02442 1.65806 0
M  V30 218 H 23.3485 0.477002 3.08433 0
M  V30 219 N 23.6496 -1.47581 0.552962 0
M  V30 220 C 24.8776 -2.06875 0.0320556 0
M  V30 221 C 25.2926 -1.40625 -1.25976 0
M  V30 222 O 24.6496 -0.501349 -1.75479 0
M  V30 223 C 24.7006 -3.61092 -0.17167 0
M  V30 224 O 24.4216 -4.24858 1.06899 0
M  V30 225 C 25.9226 -4.37242 -0.730344 0
M  V30 226 H 23.1426 -0.669561 0.043915 0
M  V30 227 H 25.6866 -1.89646 0.765163 0
M  V30 228 H 23.8416 -3.7785 -0.854894 0
M  V30 229 H 24.2556 -5.17334 0.864059 0
M  V30 230 H 25.7296 -5.45842 -0.822203 0
M  V30 231 H 26.2066 -4.03235 -1.74064 0
M  V30 232 H 26.8126 -4.25219 -0.0829543 0
M  V30 233 N 25.1277 -0.289203 -1.54924 0
M  V30 234 C 26.5387 0.205791 -1.85562 0
M  V30 235 C 26.8897 1.54351 -1.2112 0
M  V30 236 O 26.0147 2.10435 -0.504601 0
M  V30 237 C 26.6097 0.380177 -3.3666 0
M  V30 238 C 25.1687 0.819395 -3.67373 0
M  V30 239 C 24.3157 -0.079159 -2.77187 0
M  V30 240 H 27.2667 -0.510577 -1.50262 0
M  V30 241 H 27.2877 1.21659 -3.60526 0
M  V30 242 H 26.7997 -0.593589 -3.83534 0
M  V30 243 H 24.9007 1.80413 -3.26009 0
M  V30 244 H 25.0137 0.646957 -4.74712 0
M  V30 245 H 23.3777 0.439565 -2.50878 0
M  V30 246 H 24.1607 -1.04906 -3.26878 0
M  V30 247 N 26.6058 1.57591 -0.0167156 0
M  V30 248 C 27.8828 1.82547 0.702564 0
M  V30 249 C 28.2628 0.898018 1.91047 0
M  V30 250 O 27.6108 -0.0493456 2.28447 0
M  V30 251 C 27.8208 3.31459 1.09251 0
M  V30 252 C 29.1688 3.97622 1.48937 0
M  V30 253 O 30.1928 3.35881 1.18584 0
M  V30 254 O 29.0518 5.06415 2.05442 0
M  V30 255 H 26.1458 0.752268 0.343544 0
M  V30 256 H 28.6918 1.69644 -0.0434495 0
M  V30 257 H 27.4638 3.9061 0.23227 0
M  V30 258 H 27.0868 3.49422 1.89709 0
M  V30 259 N 28.0839 -0.256276 1.55502 0
M  V30 260 C 29.4949 -0.826068 1.67431 0
M  V30 261 C 29.8459 -1.86396 0.612446 0
M  V30 262 O 28.9709 -2.15031 -0.243025 0
M  V30 263 C 29.5659 -1.50512 3.03532 0
M  V30 264 C 28.1249 -2.02273 3.17431 0
M  V30 265 C 27.2719 -0.870548 2.63281 0
M  V30 266 H 30.2229 -0.0322728 1.58667 0
M  V30 267 H 30.2439 -2.37279 2.97454 0
M  V30 268 H 29.7559 -0.749484 3.80794 0
M  V30 269 H 27.8569 -2.80746 2.44974 0
M  V30 270 H 27.9699 -2.22655 4.24219 0
M  V30 271 H 26.3339 -1.26851 2.20864 0
M  V30 272 H 27.1169 -0.128149 3.43061 0
M  V30 273 N 29.562 -1.4872 -0.521534 0
M  V30 274 C 30.81 -1.56857 -1.27437 0
M  V30 275 C 31.131 -0.247982 -1.93417 0
M  V30 276 O 30.401 0.731151 -1.81744 0
M  V30 277 H 28.981 -0.577885 -0.473347 0
M  V30 278 H 31.643 -1.85233 -0.606205 0
M  V30 279 H 30.739 -2.35402 -2.0492 0
M  V30 280 N 31.0401 0.771051 -1.3745 0
M  V30 281 C 32.2861 1.5319 -1.32894 0
M  V30 282 C 32.6191 1.94008 0.0862511 0
M  V30 283 O 31.8941 1.64124 1.04373 0
M  V30 284 C 32.1771 2.79648 -2.26868 0
M  V30 285 C 32.0301 2.45079 -3.77169 0
M  V30 286 C 33.3491 3.81583 -2.19277 0
M  V30 287 H 30.4681 0.555744 -0.484064 0
M  V30 288 H 33.1101 0.884492 -1.68157 0
M  V30 289 H 31.2601 3.34891 -1.96926 0
M  V30 290 H 32.9321 1.95745 -4.1771 0
M  V30 291 H 31.1751 1.77767 -3.95704 0
M  V30 292 H 31.8461 3.35478 -4.38359 0
M  V30 293 H 34.3221 3.35835 -2.45671 0
M  V30 294 H 33.1981 4.67787 -2.87171 0
M  V30 295 H 33.4591 4.25897 -1.18592 0
M  V30 296 N 32.5182 1.22032 0.997298 0
M  V30 297 C 33.7642 1.04376 1.73878 0
M  V30 298 C 34.0972 -0.420716 1.89588 0
M  V30 299 O 33.3722 -1.31202 1.43583 0
M  V30 300 C 33.6552 1.75047 3.14691 0
M  V30 301 C 33.5082 3.29062 3.06656 0
M  V30 302 C 34.8272 1.49928 4.13775 0
M  V30 303 H 31.9462 0.380578 0.631133 0
M  V30 304 H 34.5882 1.50312 1.16217 0
M  V30 305 H 32.7382 1.35996 3.63919 0
M  V30 306 H 34.4102 3.7753 2.65083 0
M  V30 307 H 32.6532 3.58967 2.43568 0
M  V30 308 H 33.3242 3.73683 4.06282 0
M  V30 309 H 35.8002 1.83842 3.73285 0
M  V30 310 H 34.6762 2.01878 5.10428 0
M  V30 311 H 34.9372 0.430929 4.39995 0
M  V30 312 N 33.9963 -1.19345 1.0293 0
M  V30 313 C 34.9293 -2.21347 0.555029 0
M  V30 314 C 35.9073 -1.57492 -0.404351 0
M  V30 315 O 37.0913 -1.85741 -0.321352 0
M  V30 316 C 34.2183 -3.38163 -0.19064 0
M  V30 317 C 33.2643 -4.20375 0.720236 0
M  V30 318 S 34.0973 -4.88371 2.19668 0
M  V30 319 C 35.2533 -6.08597 1.46153 0
M  V30 320 H 35.4863 -2.61235 1.41929 0
M  V30 321 H 33.0193 -1.29598 0.839272 0
M  V30 322 H 34.9773 -4.05871 -0.614724 0
M  V30 323 H 33.6383 -2.9671 -1.03063 0
M  V30 324 H 32.8313 -5.03793 0.14455 0
M  V30 325 H 32.4333 -3.57987 1.08266 0
M  V30 326 H 34.7253 -6.73354 0.748357 0
M  V30 327 H 35.6683 -6.7065 2.27233 0
M  V30 328 H 36.0763 -5.56297 0.958842 0
M  V30 329 N 35.4744 -0.807222 -1.35358 0
M  V30 330 C 36.6994 -0.399309 -2.0352 0
M  V30 331 C 37.1244 0.981986 -1.60433 0
M  V30 332 O 36.4824 1.63601 -0.781299 0
M  V30 333 C 36.5304 -0.491552 -3.57234 0
M  V30 334 O 35.6344 0.494754 -4.09421 0
M  V30 335 H 34.9754 -0.166682 -0.642739 0
M  V30 336 H 37.5054 -1.09328 -1.72941 0
M  V30 337 H 37.5154 -0.361588 -4.06395 0
M  V30 338 H 36.1904 -1.49907 -3.87944 0
M  V30 339 H 34.7674 0.324977 -3.71481 0
M  V30 340 N 36.9525 1.47285 -0.560781 0
M  V30 341 C 38.1995 2.02464 -0.038062 0
M  V30 342 C 38.5275 1.43474 1.31322 0
M  V30 343 O 37.7825 0.581311 1.86867 0
M  V30 344 C 38.0815 3.57258 0.100784 0
M  V30 345 C 37.7475 4.35184 -1.18007 0
M  V30 346 C 36.4095 4.56194 -1.53103 0
M  V30 347 C 38.7615 4.80098 -2.02867 0
M  V30 348 C 36.0895 5.19367 -2.729 0
M  V30 349 C 38.4415 5.44593 -3.21871 0
M  V30 350 C 37.1055 5.63835 -3.57276 0
M  V30 351 H 36.3755 0.740869 -0.0139279 0
M  V30 352 H 39.0225 1.76916 -0.733012 0
M  V30 353 H 37.3275 3.81819 0.878724 0
M  V30 354 H 39.0245 3.97606 0.520639 0
M  V30 355 H 35.6145 4.19113 -0.8968 0
M  V30 356 H 39.7985 4.63642 -1.7706 0
M  V30 357 H 35.0545 5.32459 -3.00496 0
M  V30 358 H 39.2285 5.78358 -3.87911 0
M  V30 359 H 36.8555 6.12557 -4.50197 0
M  V30 360 N 38.4306 0.297415 1.54768 0
M  V30 361 C 39.6586 -0.315623 2.04478 0
M  V30 362 C 40.0736 -1.47792 1.17486 0
M  V30 363 O 39.4306 -1.81404 0.19971 0
M  V30 364 C 39.4816 -0.7753 3.53088 0
M  V30 365 O 39.2026 0.340732 4.36773 0
M  V30 366 C 40.7036 -1.45386 4.18781 0
M  V30 367 H 37.9236 -0.0690887 0.667434 0
M  V30 368 H 40.4676 0.436003 1.99798 0
M  V30 369 H 38.6226 -1.47696 3.58141 0
M  V30 370 H 39.0366 -0.0165035 5.24497 0
M  V30 371 H 40.5106 -1.72669 5.24299 0
M  V30 372 H 40.9876 -2.39275 3.68299 0
M  V30 373 H 41.5936 -0.795475 4.17795 0
M  V30 374 N 39.9087 -1.5758 0.0250728 0
M  V30 375 C 41.1557 -1.91633 -0.654444 0
M  V30 376 C 41.4837 -0.901103 -1.72367 0
M  V30 377 O 40.7387 0.0905647 -1.9549 0
M  V30 378 C 41.0377 -3.32421 -1.31268 0
M  V30 379 C 40.7037 -4.49344 -0.374223 0
M  V30 380 C 39.3657 -4.8106 -0.115911 0
M  V30 381 C 41.7177 -5.20498 0.270432 0
M  V30 382 C 39.0457 -5.8129 0.79493 0
M  V30 383 C 41.3977 -6.21699 1.1693 0
M  V30 384 C 40.0617 -6.51859 1.43655 0
M  V30 385 H 39.3317 -0.701236 -0.239478 0
M  V30 386 H 41.9787 -1.91307 0.0859734 0
M  V30 387 H 40.2837 -3.28989 -2.12775 0
M  V30 388 H 41.9807 -3.56038 -1.84494 0
M  V30 389 H 38.5707 -4.24579 -0.58573 0
M  V30 390 H 42.7547 -4.96229 0.0839194 0
M  V30 391 H 38.0107 -6.03005 1.00973 0
M  V30 392 H 42.1847 -6.75955 1.67504 0
M  V30 393 H 39.8117 -7.2934 2.144 0
M  V30 394 N 41.3868 0.248026 -1.55636 0
M  V30 395 C 42.6638 0.998988 -1.68165 0
M  V30 396 C 43.0438 2.03409 -0.564621 0
M  V30 397 O 42.3918 2.24378 0.432076 0
M  V30 398 C 42.6018 1.63334 -3.0842 0
M  V30 399 C 43.9498 2.13562 -3.66983 0
M  V30 400 O 44.9738 1.73277 -3.11213 0
M  V30 401 O 43.8328 2.87526 -4.64749 0
M  V30 402 H 40.9268 0.464933 -0.683935 0
M  V30 403 H 43.4728 0.241902 -1.67967 0
M  V30 404 H 42.2448 0.884583 -3.8117 0
M  V30 405 H 41.8678 2.45666 -3.12624 0
M  V30 406 N 42.8649 1.48995 0.513639 0
M  V30 407 C 44.0899 1.61792 1.29762 0
M  V30 408 C 44.5149 0.284475 1.85936 0
M  V30 409 O 43.8729 -0.746185 1.65232 0
M  V30 410 C 43.9209 2.67993 2.41272 0
M  V30 411 O 43.0249 2.26287 3.44772 0
M  V30 412 H 42.3659 0.541963 0.38363 0
M  V30 413 H 44.8959 1.95097 0.616307 0
M  V30 414 H 44.9059 2.89772 2.87221 0
M  V30 415 H 43.5809 3.64791 1.9975 0
M  V30 416 H 42.1579 2.14788 3.04829 0
M  V30 417 N 44.343 -0.763751 1.37857 0
M  V30 418 C 45.293 -1.86765 1.30777 0
M  V30 419 C 46.277 -1.59726 0.194015 0
M  V30 420 O 47.469 -1.7172 0.42911 0
M  V30 421 C 44.598 -3.24343 1.12502 0
M  V30 422 C 43.684 -3.57307 2.28456 0
M  V30 423 N 44.075 -3.61398 3.53871 0
M  V30 424 C 42.373 -3.87517 2.20786 0
M  V30 425 C 43.074 -3.91339 4.30382 0
M  V30 426 N 42.05 -4.07649 3.59615 0
M  V30 427 H 45.852 -1.88191 2.25746 0
M  V30 428 H 43.366 -0.9606 1.30944 0
M  V30 429 H 45.363 -4.03327 1.05514 0
M  V30 430 H 44.023 -3.24175 0.184574 0
M  V30 431 H 45.034 -3.43407 3.87675 0
M  V30 432 H 41.711 -3.95125 1.34844 0
M  V30 433 H 43.101 -4.01213 5.3896 0
M  V30 434 N 45.8211 -1.22559 -0.990812 0
M  V30 435 C 46.7531 -0.955325 -2.08342 0
M  V30 436 C 47.7661 0.0668408 -1.62663 0
M  V30 437 O 48.9551 -0.167421 -1.77713 0
M  V30 438 C 46.0551 -0.415566 -3.36342 0
M  V30 439 C 45.2281 -1.49544 -4.11042 0
M  V30 440 C 44.2871 -0.962399 -5.17324 0
M  V30 441 O 43.3131 -1.64907 -5.44788 0
M  V30 442 N 44.5151 0.215134 -5.80101 0
M  V30 443 H 47.2801 -1.89596 -2.32106 0
M  V30 444 H 44.8411 -1.13276 -1.15673 0
M  V30 445 H 46.8331 -0.0442386 -4.04676 0
M  V30 446 H 45.4031 0.430232 -3.09625 0
M  V30 447 H 44.6231 -2.04 -3.37309 0
M  V30 448 H 45.9111 -2.22195 -4.57719 0
M  V30 449 H 45.3091 0.789779 -5.6016 0
M  V30 450 H 43.8661 0.527826 -6.49659 0
M  V30 451 N 47.2992 1.18797 -1.03562 0
M  V30 452 C 48.2292 2.24472 -0.643019 0
M  V30 453 C 49.2102 1.66433 0.351283 0
M  V30 454 O 50.3952 1.92803 0.232505 0
M  V30 455 C 47.5252 3.473 4.24935e-05 0
M  V30 456 C 46.4792 4.18055 -0.917257 0
M  V30 457 C 45.8052 5.34519 -0.138941 0
M  V30 458 C 47.1052 4.72109 -2.23407 0
M  V30 459 H 48.7992 2.57566 -1.52643 0
M  V30 460 H 46.3452 1.23806 -0.735394 0
M  V30 461 H 48.2982 4.20426 0.286383 0
M  V30 462 H 47.0222 3.13424 0.918299 0
M  V30 463 H 45.6812 3.46821 -1.1879 0
M  V30 464 H 45.3292 4.96891 0.781562 0
M  V30 465 H 45.0292 5.82794 -0.750005 0
M  V30 466 H 46.5532 6.10438 0.1405 0
M  V30 467 H 47.9672 5.36955 -2.00879 0
M  V30 468 H 46.3642 5.30897 -2.79765 0
M  V30 469 H 47.4342 3.89807 -2.88407 0
M  V30 470 N 48.7773 0.814389 1.34928 0
M  V30 471 C 49.6873 0.231978 2.3345 0
M  V30 472 C 50.7033 -0.629139 1.62228 0
M  V30 473 O 51.8793 -0.539052 1.94052 0
M  V30 474 C 48.9443 -0.603482 3.41407 0
M  V30 475 C 48.0053 0.279037 4.28392 0
M  V30 476 C 47.2383 -0.516643 5.31193 0
M  V30 477 O 47.4613 -1.75068 5.4287 0
M  V30 478 O 46.3953 0.0965652 6.01823 0
M  V30 479 H 50.2213 1.04721 2.85074 0
M  V30 480 H 47.8063 0.576343 1.37836 0
M  V30 481 H 49.6883 -1.07908 4.0735 0
M  V30 482 H 48.3633 -1.39618 2.92042 0
M  V30 483 H 47.2703 0.801948 3.65403 0
M  V30 484 H 48.6033 1.03588 4.81176 0
M  V30 485 N 50.2554 -1.46986 0.568584 0
M  V30 486 C 51.1654 -2.33942 -0.17555 0
M  V30 487 C 52.1814 -1.48891 -0.90041 0
M  V30 488 O 53.3574 -1.81794 -0.86676 0
M  V30 489 C 50.4224 -3.25811 -1.18524 0
M  V30 490 C 49.4834 -4.26757 -0.466582 0
M  V30 491 C 48.7164 -5.14236 -1.42817 0
M  V30 492 O 48.9394 -5.04379 -2.66379 0
M  V30 493 O 47.8734 -5.94412 -0.946453 0
M  V30 494 H 51.6994 -2.98896 0.538036 0
M  V30 495 H 49.2844 -1.4573 0.329097 0
M  V30 496 H 51.1664 -3.82527 -1.76779 0
M  V30 497 H 49.8414 -2.63471 -1.88055 0
M  V30 498 H 48.7484 -3.73769 0.157451 0
M  V30 499 H 50.0814 -4.91843 0.187485 0
M  V30 500 N 51.7335 -0.305618 -1.54608 0
M  V30 501 C 52.6965 0.555591 -2.22364 0
M  V30 502 C 53.6965 1.05768 -1.21119 0
M  V30 503 O 54.8865 0.952972 -1.45822 0
M  V30 504 C 52.0185 1.76974 -2.91364 0
M  V30 505 H 53.2115 -0.0364572 -2.99878 0
M  V30 506 H 50.7645 -0.0565007 -1.56198 0
M  V30 507 H 51.4995 2.40151 -2.17941 0
M  V30 508 H 51.2845 1.41732 -3.65588 0
M  V30 509 H 52.7745 2.38148 -3.43038 0
M  V30 510 N 53.2116 1.57565 -0.0334293 0
M  V30 511 C 54.1746 2.09393 0.932048 0
M  V30 512 C 55.1746 1.00986 1.25134 0
M  V30 513 O 56.3646 1.27129 1.19096 0
M  V30 514 C 53.4966 2.56338 2.2473 0
M  V30 515 H 54.6896 2.95984 0.483085 0
M  V30 516 H 52.2426 1.54819 0.21468 0
M  V30 517 H 52.9776 1.7309 2.74245 0
M  V30 518 H 52.7626 3.35542 2.02865 0
M  V30 519 H 54.2526 2.96646 2.93923 0
M  V30 520 N 54.6897 -0.239769 1.55765 0
M  V30 521 C 55.5997 -1.31831 1.94056 0
M  V30 522 C 56.6157 -1.52275 0.841925 0
M  V30 523 O 57.7917 -1.65759 1.14394 0
M  V30 524 C 54.8567 -2.65156 2.23368 0
M  V30 525 C 53.9177 -2.53173 3.46701 0
M  V30 526 C 53.1507 -3.8014 3.74606 0
M  V30 527 O 53.3737 -4.82343 3.04469 0
M  V30 528 O 52.3077 -3.78344 4.68123 0
M  V30 529 H 56.1337 -1.02347 2.85935 0
M  V30 530 H 53.7187 -0.441123 1.42739 0
M  V30 531 H 55.6007 -3.43929 2.43497 0
M  V30 532 H 54.2757 -2.94358 1.34666 0
M  V30 533 H 53.1827 -1.72662 3.31871 0
M  V30 534 H 54.5157 -2.28915 4.35728 0
M  V30 535 N 56.1678 -1.49265 -0.50573 0
M  V30 536 C 57.1308 -1.65075 -1.59006 0
M  V30 537 C 58.1308 -0.522768 -1.52065 0
M  V30 538 O 59.3208 -0.789117 -1.55302 0
M  V30 539 C 56.4528 -1.64369 -2.98656 0
M  V30 540 H 57.6458 -2.61784 -1.46319 0
M  V30 541 H 55.1988 -1.38226 -0.729616 0
M  V30 542 H 55.9338 -0.692272 -3.16825 0
M  V30 543 H 55.7188 -2.46282 -3.05103 0
M  V30 544 H 57.2088 -1.78674 -3.77446 0
M  V30 545 N 57.6459 0.756429 -1.3826 0
M  V30 546 C 58.6089 1.85176 -1.35065 0
M  V30 547 C 59.6089 1.58818 -0.251703 0
M  V30 548 O 60.7989 1.66615 -0.508433 0
M  V30 549 C 57.9309 3.22596 -1.10201 0
M  V30 550 H 59.1239 1.89417 -2.3251 0
M  V30 551 H 56.6769 0.95783 -1.23512 0
M  V30 552 H 57.4119 3.24025 -0.133504 0
M  V30 553 H 57.1969 3.43122 -1.89762 0
M  V30 554 H 58.6869 4.02673 -1.10654 0
M  V30 555 N 59.124 1.23083 0.984299 0
M  V30 556 C 60.056 0.96636 2.07832 0
M  V30 557 C 61.069 -0.0582135 1.62696 0
M  V30 558 O 62.258 0.176843 1.77622 0
M  V30 559 C 59.358 0.433397 3.36117 0
M  V30 560 C 58.531 1.51722 4.10243 0
M  V30 561 C 57.59 0.989821 5.16807 0
M  V30 562 O 56.616 1.67794 5.43906 0
M  V30 563 N 57.818 -0.184367 5.80207 0
M  V30 564 H 60.583 1.90824 2.31098 0
M  V30 565 H 58.144 1.13888 1.1507 0
M  V30 566 H 60.136 0.065699 4.04647 0
M  V30 567 H 58.706 -0.413806 3.09849 0
M  V30 568 H 57.926 2.05786 3.36223 0
M  V30 569 H 59.214 2.24619 4.56534 0
M  V30 570 H 58.612 -0.760062 5.60571 0
M  V30 571 H 57.169 -0.493366 6.4993 0
M  V30 572 N 60.6021 -1.18246 1.0419 0
M  V30 573 C 61.8501 -1.87886 0.744543 0
M  V30 574 C 62.1711 -1.8082 -0.730006 0
M  V30 575 O 61.4411 -1.22736 -1.52685 0
M  V30 576 H 60.0211 -0.695556 0.272417 0
M  V30 577 H 62.6831 -1.43494 1.31892 0
M  V30 578 H 61.7791 -2.9389 1.05049 0
M  V30 579 N 62.0802 -0.821533 -1.34494 0
M  V30 580 C 63.0122 -0.199946 -2.28326 0
M  V30 581 C 64.0252 0.609377 -1.50965 0
M  V30 582 O 65.2142 0.439285 -1.7301 0
M  V30 583 C 62.3142 0.738431 -3.30757 0
M  V30 584 C 61.4872 -0.0277632 -4.37391 0
M  V30 585 C 60.5462 0.831332 -5.19591 0
M  V30 586 O 59.5722 0.276822 -5.68526 0
M  V30 587 N 60.7742 2.15132 -5.39165 0
M  V30 588 H 63.5392 -1.00609 -2.82308 0
M  V30 589 H 61.1002 -0.678366 -1.47003 0
M  V30 590 H 63.0922 1.31773 -3.82646 0
M  V30 591 H 61.6622 1.44533 -2.7718 0
M  V30 592 H 60.8822 -0.788359 -3.86236 0
M  V30 593 H 62.1702 -0.555251 -5.05761 0
M  V30 594 H 61.5682 2.62559 -5.01078 0
M  V30 595 H 60.1252 2.6795 -5.94177 0
M  V30 596 N 63.5583 1.46682 -0.576371 0
M  V30 597 C 64.8063 2.02013 -0.0594163 0
M  V30 598 C 65.1273 1.45101 1.30271 0
M  V30 599 O 64.3973 0.633317 1.8538 0
M  V30 600 H 62.9773 0.746759 -0.0189745 0
M  V30 601 H 65.6393 1.79862 -0.750717 0
M  V30 602 H 64.7353 3.12097 0.014345 0
M  V30 603 N 65.0364 0.313813 1.54444 0
M  V30 604 C 65.9664 -0.549454 2.26943 0
M  V30 605 C 66.9474 -1.12741 1.27372 0
M  V30 606 O 68.1324 -1.15436 1.56167 0
M  V30 607 C 65.2624 -1.71523 3.01989 0
M  V30 608 C 64.2164 -1.26703 4.08816 0
M  V30 609 C 63.5424 -2.51898 4.71647 0
M  V30 610 C 64.8424 -0.388962 5.2085 0
M  V30 611 H 66.5364 0.0552661 2.99349 0
M  V30 612 H 64.0824 0.0280207 1.43973 0
M  V30 613 H 66.0354 -2.32535 3.51433 0
M  V30 614 H 64.7594 -2.34639 2.27183 0
M  V30 615 H 63.4184 -0.679896 3.6024 0
M  V30 616 H 63.0664 -3.13356 3.93468 0
M  V30 617 H 62.7664 -2.22605 5.43802 0
M  V30 618 H 64.2904 -3.1369 5.23861 0
M  V30 619 H 65.7044 -0.905107 5.6611 0
M  V30 620 H 64.1014 -0.18924 5.99802 0
M  V30 621 H 65.1714 0.582699 4.81386 0
M  V30 622 N 66.5145 -1.57545 0.0417849 0
M  V30 623 C 67.9305 -1.56467 -0.314704 0
M  V30 624 C 68.1305 -1.04859 -1.72066 0
M  V30 625 O 67.1865 -0.700983 -2.42575 0
M  V30 626 C 68.4995 -3.00317 -0.15174 0
M  V30 627 C 70.0475 -3.12201 -0.223553 0
M  V30 628 C 70.5225 -4.57913 -0.0892295 0
M  V30 629 N 72.0135 -4.6297 -0.145808 0
M  V30 630 C 72.7485 -5.73362 -0.0658459 0
M  V30 631 N 72.2445 -6.92769 0.0659282 0
M  V30 632 N 74.0375 -5.6197 -0.12075 0
M  V30 633 H 66.1885 -1.89416 0.961014 0
M  V30 634 H 68.4515 -0.871862 0.372237 0
M  V30 635 H 68.1575 -3.42073 0.817254 0
M  V30 636 H 68.0315 -3.65892 -0.916692 0
M  V30 637 H 70.4185 -2.70349 -1.18301 0
M  V30 638 H 70.4995 -2.49323 0.571994 0
M  V30 639 H 70.1435 -5.00448 0.866867 0
M  V30 640 H 70.0735 -5.18786 -0.903802 0
M  V30 641 H 72.5645 -3.7709 -0.247286 0
M  V30 642 H 72.8775 -7.72707 0.119905 0
M  V30 643 H 71.2225 -6.94927 0.100885 0
M  V30 644 H 74.4135 -4.67572 -0.222187 0
M  V30 645 H 74.5865 -6.47977 -0.0549735 0
M  V30 646 N 67.9926 0.231505 -1.5589 0
M  V30 647 C 68.9556 1.27028 -1.90779 0
M  V30 648 C 69.9556 1.40308 -0.785507 0
M  V30 649 O 71.1456 1.38744 -1.05336 0
M  V30 650 C 68.2776 2.64566 -2.14983 0
M  V30 651 H 69.4706 0.973017 -2.83677 0
M  V30 652 H 67.0236 0.471486 -1.49019 0
M  V30 653 H 67.7586 2.99406 -1.24604 0
M  V30 654 H 67.5436 2.56305 -2.96732 0
M  V30 655 H 69.0336 3.39543 -2.43105 0
M  V30 656 N 69.4707 1.49531 0.497807 0
M  V30 657 C 70.8867 1.36365 0.829266 0
M  V30 658 C 71.0867 0.399184 1.97506 0
M  V30 659 O 70.1427 -0.167977 2.51941 0
M  V30 660 C 71.4557 2.77153 1.16647 0
M  V30 661 C 73.0037 2.85877 1.27449 0
M  V30 662 C 73.4787 4.2744 1.64497 0
M  V30 663 N 74.9697 4.30265 1.7154 0
M  V30 664 C 75.7047 5.3677 2.01656 0
M  V30 665 N 75.2007 6.53516 2.29976 0
M  V30 666 N 76.9937 5.24189 2.02934 0
M  V30 667 H 69.1447 2.10831 -0.257703 0
M  V30 668 H 71.4077 0.946534 -0.0527091 0
M  V30 669 H 71.1137 3.49442 0.397872 0
M  V30 670 H 70.9877 3.12722 2.10915 0
M  V30 671 H 73.3747 2.13824 2.0338 0
M  V30 672 H 73.4557 2.53887 0.312244 0
M  V30 673 H 73.0997 5.00021 0.891151 0
M  V30 674 H 73.0297 4.56896 2.61827 0
M  V30 675 H 75.5207 3.4607 1.51802 0
M  V30 676 H 75.8337 7.30506 2.52153 0
M  V30 677 H 74.1787 6.56737 2.27425 0
M  V30 678 H 77.3697 4.31988 1.80289 0
M  V30 679 H 77.5427 6.07286 2.26071 0
M  V30 680 N 70.9488 -0.749086 1.3866 0
M  V30 681 C 72.1968 -1.50535 1.34847 0
M  V30 682 C 72.5178 -1.94909 -0.0595016 0
M  V30 683 O 71.7878 -1.67973 -1.00806 0
M  V30 684 H 70.3678 -0.558395 0.49619 0
M  V30 685 H 73.0298 -0.890165 1.73384 0
M  V30 686 H 72.1258 -2.39413 2.00219 0
M  V30 687 N 72.4269 -1.23603 -0.977757 0
M  V30 688 C 73.6729 -1.07129 -1.72195 0
M  V30 689 C 74.0059 0.390501 -1.90233 0
M  V30 690 O 73.2809 1.28902 -1.45653 0
M  V30 691 C 73.5639 -1.80031 -3.11867 0
M  V30 692 C 73.4169 -3.33899 -3.01383 0
M  V30 693 C 74.7359 -1.56492 -4.11337 0
M  V30 694 H 71.8549 -0.390571 -0.624999 0
M  V30 695 H 74.4969 -1.52142 -1.13811 0
M  V30 696 H 72.6469 -1.41768 -3.6171 0
M  V30 697 H 74.3189 -3.81699 -2.59043 0
M  V30 698 H 72.5619 -3.62796 -2.37827 0
M  V30 699 H 73.2329 -3.801 -4.00285 0
M  V30 700 H 75.7089 -1.89757 -3.70313 0
M  V30 701 H 74.5849 -2.09973 -5.07151 0
M  V30 702 H 74.8459 -0.500874 -4.39254 0
M  V30 703 N 73.905 1.17692 -1.04816 0
M  V30 704 C 75.316 1.69501 -0.782698 0
M  V30 705 C 75.667 1.83456 0.695577 0
M  V30 706 O 74.792 1.51942 1.54086 0
M  V30 707 C 75.387 3.07874 -1.41419 0
M  V30 708 C 73.946 3.56864 -1.19686 0
M  V30 709 C 73.093 2.3322 -1.50012 0
M  V30 710 H 76.044 1.02262 -1.2136 0
M  V30 711 H 76.065 3.71528 -0.821428 0
M  V30 712 H 75.577 2.97685 -2.49009 0
M  V30 713 H 73.678 3.72337 -0.140043 0
M  V30 714 H 73.791 4.39851 -1.89916 0
M  V30 715 H 72.155 2.37501 -0.920071 0
M  V30 716 H 72.938 2.25644 -2.58727 0
M  V30 717 N 75.3831 0.828654 1.34056 0
M  V30 718 C 76.3461 0.259927 2.27721 0
M  V30 719 C 77.3461 -0.565478 1.50529 0
M  V30 720 O 78.5361 -0.38075 1.69988 0
M  V30 721 C 75.6681 -0.634944 3.34935 0
M  V30 722 H 76.8611 1.0863 2.79534 0
M  V30 723 H 74.4141 0.600951 1.44285 0
M  V30 724 H 75.1491 -1.48416 2.88346 0
M  V30 725 H 74.9341 -0.0444999 3.92075 0
M  V30 726 H 76.4241 -1.02648 4.04788 0
M  V30 727 N 76.8612 -1.46375 0.584142 0
M  V30 728 C 78.1082 -2.02378 0.0702675 0
M  V30 729 C 78.4362 -1.45545 -1.29023 0
M  V30 730 O 77.6912 -0.610967 -1.85918 0
M  V30 731 C 77.9902 -3.57373 -0.0439342 0
M  V30 732 C 77.6562 -4.33252 1.24915 0
M  V30 733 C 76.3182 -4.53701 1.60341 0
M  V30 734 C 78.6702 -4.7681 2.1048 0
M  V30 735 C 75.9982 -5.1496 2.81128 0
M  V30 736 C 78.3502 -5.39404 3.30494 0
M  V30 737 C 77.0142 -5.5808 3.66201 0
M  V30 738 H 76.2842 -0.740554 0.0257127 0
M  V30 739 H 78.9312 -1.75727 0.761065 0
M  V30 740 H 77.2362 -3.83169 -0.817869 0
M  V30 741 H 78.9332 -3.98384 -0.457318 0
M  V30 742 H 75.5232 -4.17633 0.963364 0
M  V30 743 H 79.7072 -4.60766 1.84414 0
M  V30 744 H 74.9632 -5.27611 3.08928 0
M  V30 745 H 79.1372 -5.72114 3.97063 0
M  V30 746 H 76.7642 -6.05318 4.59885 0
M  V30 747 N 78.3393 -0.321999 -1.54275 0
M  V30 748 C 79.5673 0.283052 -2.04955 0
M  V30 749 C 79.9823 1.45904 -1.19823 0
M  V30 750 O 79.3393 1.81063 -0.228545 0
M  V30 751 C 79.3903 0.719028 -3.54277 0
M  V30 752 O 79.1113 -0.410175 -4.36176 0
M  V30 753 C 80.6123 1.38705 -4.21041 0
M  V30 754 H 77.8323 0.0584616 -0.668448 0
M  V30 755 H 80.3763 -0.467734 -1.99079 0
M  V30 756 H 78.5313 1.41979 -3.60445 0
M  V30 757 H 78.9453 -0.0669416 -5.24457 0
M  V30 758 H 80.4193 1.64306 -5.2698 0
M  V30 759 H 80.8963 2.33385 -3.72059 0
M  V30 760 H 81.5023 0.728906 -4.19007 0
M  V30 761 N 79.8174 1.5752 -0.0501392 0
M  V30 762 C 81.0944 1.83996 0.663685 0
M  V30 763 C 81.4744 0.938339 1.89099 0
M  V30 764 O 80.8224 -0.00087759 2.285 0
M  V30 765 C 81.0324 3.33702 1.02196 0
M  V30 766 C 82.3804 4.00691 1.40469 0
M  V30 767 O 83.4044 3.38321 1.11433 0
M  V30 768 O 82.2634 5.10658 1.94654 0
M  V30 769 H 79.3574 0.759385 0.32751 0
M  V30 770 H 81.9034 1.69514 -0.0794238 0
M  V30 771 H 80.6754 3.91015 0.149364 0
M  V30 772 H 80.2984 3.53368 1.82255 0
M  V30 773 N 81.2955 -0.223234 1.56011 0
M  V30 774 C 82.5235 -0.964812 1.83027 0
M  V30 775 C 82.9385 -1.78013 0.62904 0
M  V30 776 O 82.2955 -1.78008 -0.402414 0
M  V30 777 C 82.3465 -1.88373 3.08542 0
M  V30 778 O 82.0675 -1.10137 4.2403 0
M  V30 779 C 83.5685 -2.73934 3.48533 0
M  V30 780 H 80.7885 -0.282842 0.608475 0
M  V30 781 H 83.3325 -0.238971 2.03099 0
M  V30 782 H 81.4875 -2.56354 2.9045 0
M  V30 783 H 81.9015 -1.72501 4.95322 0
M  V30 784 H 83.3755 -3.34117 4.39397 0
M  V30 785 H 83.8525 -3.46244 2.70207 0
M  V30 786 H 84.4585 -2.11369 3.69057 0
M  V30 787 N 82.7736 -1.49793 -0.48987 0
M  V30 788 C 84.0016 -1.63568 -1.26701 0
M  V30 789 C 84.4166 -0.311465 -1.86213 0
M  V30 790 O 83.7736 0.704416 -1.68357 0
M  V30 791 C 83.8246 -2.71284 -2.38929 0
M  V30 792 O 83.5456 -3.9857 -1.81861 0
M  V30 793 C 85.0466 -2.95864 -3.3012 0
M  V30 794 H 82.2666 -0.550342 -0.383881 0
M  V30 795 H 84.8106 -1.95898 -0.586864 0
M  V30 796 H 82.9656 -2.417 -3.02753 0
M  V30 797 H 83.3796 -4.57993 -2.55622 0
M  V30 798 H 84.8536 -3.74941 -4.05121 0
M  V30 799 H 85.3306 -2.06206 -3.87783 0
M  V30 800 H 85.9366 -3.26907 -2.72051 0
M  V30 801 N 84.2517 0.741722 -1.39055 0
M  V30 802 C 85.1817 1.869 -1.39966 0
M  V30 803 C 86.1627 1.6804 -0.26392 0
M  V30 804 O 87.3477 1.88458 -0.468755 0
M  V30 805 C 84.4777 3.24572 -1.23574 0
M  V30 806 C 83.4317 3.58056 -2.34477 0
M  V30 807 C 82.7577 4.94593 -2.0318 0
M  V30 808 C 84.0577 3.61716 -3.76774 0
M  V30 809 H 85.7517 1.86395 -2.34302 0
M  V30 810 H 83.2977 0.895361 -1.1278 0
M  V30 811 H 85.2507 4.031 -1.22834 0
M  V30 812 H 83.9747 3.25587 -0.257045 0
M  V30 813 H 82.6337 2.81854 -2.34423 0
M  V30 814 H 82.2817 4.92181 -1.03765 0
M  V30 815 H 81.9817 5.17964 -2.77465 0
M  V30 816 H 83.5057 5.75486 -2.04079 0
M  V30 817 H 84.9197 4.30335 -3.78794 0
M  V30 818 H 83.3167 3.96603 -4.50362 0
M  V30 819 H 84.3867 2.61672 -4.08235 0
M  V30 820 N 85.7298 1.2412 0.971189 0
M  V30 821 C 87.0068 0.986867 1.6888 0
M  V30 822 C 87.3868 -0.491857 2.0529 0
M  V30 823 O 86.7348 -1.46531 1.75331 0
M  V30 824 C 86.9448 1.9063 2.92338 0
M  V30 825 C 88.2928 2.17515 3.64654 0
M  V30 826 O 89.3168 1.88254 3.02388 0
M  V30 827 O 88.1758 2.6719 4.7673 0
M  V30 828 H 85.2698 0.372944 0.738134 0
M  V30 829 H 87.8158 1.35203 1.02559 0
M  V30 830 H 86.5878 2.90552 2.62097 0
M  V30 831 H 86.2108 1.54408 3.66393 0
M  V30 832 N 87.2079 -1.17134 1.05439 0
M  V30 833 C 88.1179 -2.24878 0.668365 0
M  V30 834 C 89.1339 -1.71186 -0.311687 0
M  V30 835 O 90.3099 -2.00738 -0.163161 0
M  V30 836 C 87.3749 -3.46662 0.051648 0
M  V30 837 C 86.4359 -4.15429 1.08246 0
M  V30 838 C 85.6689 -5.31399 0.495082 0
M  V30 839 O 85.8919 -5.66153 -0.694743 0
M  V30 840 O 84.8259 -5.89187 1.23056 0
M  V30 841 H 88.6519 -2.60189 1.56637 0
M  V30 842 H 86.2369 -1.24482 0.826104 0
M  V30 843 H 88.1189 -4.20394 -0.290966 0
M  V30 844 H 86.7939 -3.13142 -0.819971 0
M  V30 845 H 85.7009 -3.43704 1.47711 0
M  V30 846 H 87.0339 -4.52982 1.92532 0
M  V30 847 N 88.686 -0.835752 -1.33615 0
M  V30 848 C 90.097 -0.487099 -1.80234 0
M  V30 849 C 90.448 0.993627 -1.69179 0
M  V30 850 O 89.573 1.77403 -1.23924 0
M  V30 851 C 90.168 -0.877385 -3.27242 0
M  V30 852 C 88.727 -0.580915 -3.7189 0
M  V30 853 C 87.874 -1.0874 -2.5509 0
M  V30 854 H 90.825 -1.02474 -1.2118 0
M  V30 855 H 90.846 -0.186195 -3.80044 0
M  V30 856 H 90.358 -1.95512 -3.35256 0
M  V30 857 H 88.459 0.486881 -3.69405 0
M  V30 858 H 88.572 -1.13396 -4.65487 0
M  V30 859 H 86.936 -0.508392 -2.49575 0
M  V30 860 H 87.719 -2.17184 -2.65868 0
M  V30 861 N 90.1641 1.46063 -0.591896 0
M  V30 862 C 91.4101 2.02638 -0.0811191 0
M  V30 863 C 91.7431 1.4613 1.27905 0
M  V30 864 O 91.0181 0.629908 1.84017 0
M  V30 865 C 91.3011 3.60091 -0.0252436 0
M  V30 866 C 91.1541 4.26965 -1.41496 0
M  V30 867 C 92.4731 4.3496 0.670685 0
M  V30 868 H 89.5921 0.73635 -0.0309524 0
M  V30 869 H 92.2341 1.741 -0.760859 0
M  V30 870 H 90.3841 3.84535 0.553624 0
M  V30 871 H 92.0561 4.13756 -2.0397 0
M  V30 872 H 90.2991 3.85971 -1.98011 0
M  V30 873 H 90.9701 5.35781 -1.32825 0
M  V30 874 H 93.4461 4.15716 0.178825 0
M  V30 875 H 92.3221 5.44686 0.678837 0
M  V30 876 H 92.5831 4.06685 1.73379 0
M  V30 877 N 91.6422 0.330177 1.54103 0
M  V30 878 C 93.0532 -0.15652 1.86043 0
M  V30 879 C 93.4042 -1.51086 1.2517 0
M  V30 880 O 92.5292 -2.09023 0.560217 0
M  V30 881 C 93.1242 -0.290784 3.3755 0
M  V30 882 C 91.6832 -0.721705 3.69416 0
M  V30 883 C 90.8302 0.152622 2.7688 0
M  V30 884 H 93.7812 0.550237 1.48856 0
M  V30 885 H 93.8022 -1.12058 3.63625 0
M  V30 886 H 93.3142 0.695068 3.81825 0
M  V30 887 H 91.4152 -1.71706 3.30678 0
M  V30 888 H 91.5282 -0.520869 4.7626 0
M  V30 889 H 89.8922 -0.372894 2.51956 0
M  V30 890 H 90.6752 1.13536 3.23982 0
M  V30 891 N 93.1203 -1.57491 0.0584922 0
M  V30 892 C 94.3973 -1.84346 -0.653918 0
M  V30 893 C 94.7773 -0.948355 -1.88599 0
M  V30 894 O 94.1253 -0.0112403 -2.28497 0
M  V30 895 C 94.3353 -3.34239 -1.00425 0
M  V30 896 C 95.6833 -4.01431 -1.38342 0
M  V30 897 O 96.7073 -3.38907 -1.09637 0
M  V30 898 O 95.5663 -5.11683 -1.91943 0
M  V30 899 H 92.6603 -0.761112 -0.323478 0
M  V30 900 H 95.2063 -1.6947 0.0884125 0
M  V30 901 H 93.9783 -3.91089 -0.128625 0
M  V30 902 H 93.6013 -3.54329 -1.80378 0
M  V30 903 N 94.5984 0.214957 -1.56127 0
M  V30 904 C 95.8754 0.963093 -1.70247 0
M  V30 905 C 96.2554 2.02166 -0.60764 0
M  V30 906 O 95.6034 2.25244 0.384385 0
M  V30 907 C 95.8134 1.56756 -3.11815 0
M  V30 908 C 97.1614 2.0573 -3.7143 0
M  V30 909 O 98.1854 1.66637 -3.14818 0
M  V30 910 O 97.0444 2.77603 -4.70743 0
M  V30 911 H 94.1384 0.450321 -0.693643 0
M  V30 912 H 96.6844 0.206219 -1.68442 0
M  V30 913 H 95.4564 0.803533 -3.82961 0
M  V30 914 H 95.0794 2.3898 -3.17765 0
M  V30 915 N 96.0765 1.50051 0.48192 0
M  V30 916 C 97.4925 1.37237 0.814756 0
M  V30 917 C 97.6925 0.420109 1.97072 0
M  V30 918 O 96.7485 -0.141246 2.52105 0
M  V30 919 C 98.0615 2.78375 1.13701 0
M  V30 920 C 99.6095 2.87213 1.2441 0
M  V30 921 C 100.084 4.29161 1.59954 0
M  V30 922 N 101.575 4.32061 1.66967 0
M  V30 923 C 102.31 5.38879 1.95952 0
M  V30 924 N 101.806 6.55918 2.23031 0
M  V30 925 N 103.599 5.26312 1.97363 0
M  V30 926 H 95.7505 2.10546 -0.28005 0
M  V30 927 H 98.0135 0.945921 -0.0627454 0
M  V30 928 H 97.7195 3.49845 0.360787 0
M  V30 929 H 97.5935 3.14941 2.07586 0
M  V30 930 H 99.9805 2.15969 2.01101 0
M  V30 931 H 100.061 2.54204 0.285299 0
M  V30 932 H 99.7055 5.00938 0.838067 0
M  V30 933 H 99.6355 4.59648 2.56966 0
M  V30 934 H 102.126 3.47661 1.48123 0
M  V30 935 H 102.439 7.33139 2.44391 0
M  V30 936 H 100.784 6.59112 2.20447 0
M  V30 937 H 103.975 4.33876 1.75697 0
M  V30 938 H 104.148 6.09649 2.19618 0
M  V30 939 N 97.5546 -0.734337 1.39446 0
M  V30 940 C 98.7846 -1.52137 1.39778 0
M  V30 941 C 99.1926 -1.89198 -0.00929312 0
M  V30 942 O 98.5356 -1.54666 -0.991168 0
M  V30 943 C 98.5976 -2.83762 2.20724 0
M  V30 944 C 98.2616 -2.69131 3.69347 0
M  V30 945 C 99.2586 -2.37635 4.62413 0
M  V30 946 C 96.9436 -2.85982 4.1294 0
M  V30 947 C 98.9376 -2.23172 5.97054 0
M  V30 948 C 96.6246 -2.71137 5.47657 0
M  V30 949 C 97.6226 -2.39777 6.39528 0
M  V30 950 O 97.3106 -2.25026 7.71763 0
M  V30 951 H 97.0426 -0.476717 0.479288 0
M  V30 952 H 99.5966 -0.915012 1.83893 0
M  V30 953 H 97.8266 -3.4666 1.71359 0
M  V30 954 H 99.5156 -3.45383 2.13226 0
M  V30 955 H 100.282 -2.24267 4.30034 0
M  V30 956 H 96.1606 -3.09383 3.41765 0
M  V30 957 H 99.7046 -1.98617 6.68728 0
M  V30 958 H 95.6016 -2.84083 5.79626 0
M  V30 959 H 96.3696 -2.40091 7.82495 0
M  V30 960 N 99.0327 -1.24633 -0.964593 0
M  V30 961 C 99.9827 -1.00841 -2.04487 0
M  V30 962 C 100.967 0.0512468 -1.60818 0
M  V30 963 O 102.159 -0.162865 -1.76249 0
M  V30 964 C 99.2877 -0.618474 -3.37683 0
M  V30 965 C 98.3737 -1.71437 -3.87905 0
M  V30 966 N 98.7647 -2.9477 -4.11029 0
M  V30 967 C 97.0627 -1.5926 -4.16596 0
M  V30 968 C 97.7637 -3.65834 -4.52261 0
M  V30 969 N 96.7397 -2.9341 -4.57615 0
M  V30 970 H 100.542 -1.94487 -2.20345 0
M  V30 971 H 98.0557 -1.14805 -1.14863 0
M  V30 972 H 100.053 -0.429247 -4.14684 0
M  V30 973 H 98.7127 0.310766 -3.23209 0
M  V30 974 H 99.7237 -3.30917 -3.9839 0
M  V30 975 H 96.4007 -0.731606 -4.1104 0
M  V30 976 H 97.7907 -4.71646 -4.78539 0
M  V30 977 N 100.511 1.16574 -1.06058 0
M  V30 978 C 101.474 2.19085 -0.673392 0
M  V30 979 C 102.474 1.5835 0.279648 0
M  V30 980 O 103.664 1.74088 0.0623488 0
M  V30 981 C 100.796 3.40899 0.00954234 0
M  V30 982 H 101.989 2.54853 -1.58081 0
M  V30 983 H 99.5418 1.30808 -0.855516 0
M  V30 984 H 100.277 3.10684 0.929826 0
M  V30 985 H 100.062 3.86233 -0.67573 0
M  V30 986 H 101.552 4.1675 0.266245 0
M  V30 987 N 101.989 0.842826 1.3317 0
M  V30 988 C 103.238 0.436738 1.96915 0
M  V30 989 C 103.551 -1.01025 1.67491 0
M  V30 990 O 104.757 -1.5212 2.24881 0
M  V30 991 C 103.213 0.730021 3.52418 0
M  V30 992 C 102.821 2.19195 3.90714 0
M  V30 993 C 104.565 0.391076 4.22695 0
M  V30 994 C 102.472 2.42907 5.39212 0
M  V30 995 H 101.402 0.15958 0.736919 0
M  V30 996 H 104.053 1.03196 1.51733 0
M  V30 997 H 102.435 0.0643755 3.95948 0
M  V30 998 H 103.609 2.8984 3.58231 0
M  V30 999 H 101.924 2.49425 3.33431 0
M  V30 1000 H 104.521 0.545817 5.31907 0
M  V30 1001 H 104.864 -0.666294 4.10933 0
M  V30 1002 H 105.397 1.01212 3.84709 0
M  V30 1003 H 102.136 3.47224 5.55982 0
M  V30 1004 H 101.656 1.76827 5.73142 0
M  V30 1005 H 103.335 2.2626 6.06148 0
M  V30 1006 N 103.467 -1.45747 0.599634 0
M  V30 1007 C 104.697 -2.06369 0.0977132 0
M  V30 1008 C 105.105 -1.44624 -1.21985 0
M  V30 1009 O 104.448 -0.551831 -1.75216 0
M  V30 1010 C 104.51 -3.59284 -0.124673 0
M  V30 1011 C 104.174 -4.43318 1.10987 0
M  V30 1012 C 105.171 -4.78796 2.02609 0
M  V30 1013 C 102.856 -4.84194 1.33647 0
M  V30 1014 C 104.85 -5.53997 3.15224 0
M  V30 1015 C 102.537 -5.5915 2.46565 0
M  V30 1016 C 103.535 -5.93968 3.37182 0
M  V30 1017 O 103.223 -6.67405 4.48136 0
M  V30 1018 H 102.955 -0.673122 0.0623153 0
M  V30 1019 H 105.509 -1.88104 0.824981 0
M  V30 1020 H 103.739 -3.75919 -0.906745 0
M  V30 1021 H 105.428 -4.01775 -0.577201 0
M  V30 1022 H 106.194 -4.47781 1.86325 0
M  V30 1023 H 102.073 -4.56534 0.64016 0
M  V30 1024 H 105.617 -5.81091 3.85978 0
M  V30 1025 H 101.514 -5.89579 2.62805 0
M  V30 1026 H 102.282 -6.85847 4.46717 0
M  V30 1027 N 104.945 -0.338344 -1.53925 0
M  V30 1028 C 106.192 0.259758 -2.00827 0
M  V30 1029 C 106.52 1.50973 -1.22628 0
M  V30 1030 O 105.775 1.93379 -0.300509 0
M  V30 1031 C 106.074 0.62448 -3.51902 0
M  V30 1032 C 105.74 -0.528006 -4.47798 0
M  V30 1033 C 104.402 -0.844298 -4.73735 0
M  V30 1034 C 106.754 -1.30143 -5.0469 0
M  V30 1035 C 104.082 -1.93648 -5.53821 0
M  V30 1036 C 106.434 -2.38382 -5.85967 0
M  V30 1037 C 105.098 -2.70576 -6.10201 0
M  V30 1038 H 104.368 0.0950523 -0.734878 0
M  V30 1039 H 107.015 -0.465182 -1.85764 0
M  V30 1040 H 105.32 1.43006 -3.64769 0
M  V30 1041 H 107.017 1.09905 -3.85645 0
M  V30 1042 H 103.607 -0.271421 -4.2774 0
M  V30 1043 H 107.791 -1.07033 -4.84621 0
M  V30 1044 H 103.047 -2.19021 -5.70824 0
M  V30 1045 H 107.221 -2.98746 -6.29066 0
M  V30 1046 H 104.848 -3.55333 -6.72044 0
M  V30 1047 N 106.423 1.57458 -0.0668435 0
M  V30 1048 C 107.386 2.11323 0.887422 0
M  V30 1049 C 108.386 1.03618 1.22964 0
M  V30 1050 O 109.576 1.29626 1.16373 0
M  V30 1051 C 106.708 2.61048 2.19242 0
M  V30 1052 H 107.901 2.96942 0.420194 0
M  V30 1053 H 105.454 1.55239 0.181793 0
M  V30 1054 H 106.189 1.78868 2.70512 0
M  V30 1055 H 105.974 3.39769 1.95702 0
M  V30 1056 H 107.464 3.02814 2.87565 0
M  V30 1057 N 107.901 -0.206675 1.56239 0
M  V30 1058 C 108.834 -1.28383 1.88661 0
M  V30 1059 C 109.812 -1.44504 0.745481 0
M  V30 1060 O 110.996 -1.60079 0.995336 0
M  V30 1061 C 108.123 -2.65211 2.10667 0
M  V30 1062 C 107.169 -2.66025 3.33366 0
M  V30 1063 S 108.002 -2.18609 4.88846 0
M  V30 1064 C 109.158 -3.57283 5.13906 0
M  V30 1065 H 109.391 -1.00691 2.7973 0
M  V30 1066 H 106.924 -0.409627 1.48867 0
M  V30 1067 H 108.882 -3.43979 2.24029 0
M  V30 1068 H 107.543 -2.90121 1.20369 0
M  V30 1069 H 106.736 -3.66607 3.45855 0
M  V30 1070 H 106.338 -1.95331 3.18938 0
M  V30 1071 H 108.63 -4.53074 5.03717 0
M  V30 1072 H 109.573 -3.49699 6.15724 0
M  V30 1073 H 109.981 -3.51659 4.41583 0
M  V30 1074 N 109.379 -1.50304 -0.473955 0
M  V30 1075 C 110.309 -1.71886 -1.58042 0
M  V30 1076 C 111.29 -0.567799 -1.60344 0
M  V30 1077 O 112.475 -0.806623 -1.76656 0
M  V30 1078 C 109.605 -1.81036 -2.96384 0
M  V30 1079 C 108.559 -2.962 -3.08949 0
M  V30 1080 C 107.885 -2.9049 -4.48909 0
M  V30 1081 C 109.185 -4.36752 -2.86434 0
M  V30 1082 H 110.879 -2.64527 -1.40234 0
M  V30 1083 H 108.425 -1.27295 -0.673201 0
M  V30 1084 H 110.378 -1.94719 -3.73714 0
M  V30 1085 H 109.102 -0.850147 -3.15341 0
M  V30 1086 H 107.761 -2.82164 -2.3405 0
M  V30 1087 H 107.409 -1.92321 -4.64781 0
M  V30 1088 H 107.109 -3.67802 -4.58253 0
M  V30 1089 H 108.633 -3.06218 -5.28264 0
M  V30 1090 H 110.047 -4.5133 -3.53517 0
M  V30 1091 H 108.444 -5.15493 -3.07225 0
M  V30 1092 H 109.514 -4.49321 -1.82316 0
M  V30 1093 N 110.857 0.726932 -1.39834 0
M  V30 1094 C 111.787 1.85405 -1.41941 0
M  V30 1095 C 112.768 1.67751 -0.281728 0
M  V30 1096 O 113.953 1.8795 -0.488717 0
M  V30 1097 C 111.083 3.23243 -1.2701 0
M  V30 1098 C 110.037 3.55549 -2.38262 0
M  V30 1099 C 109.363 4.9241 -2.08415 0
M  V30 1100 C 110.663 3.577 -3.80589 0
M  V30 1101 H 112.357 1.83899 -2.36266 0
M  V30 1102 H 109.903 0.883349 -1.13723 0
M  V30 1103 H 111.856 4.01775 -1.27103 0
M  V30 1104 H 110.58 3.25296 -0.291564 0
M  V30 1105 H 109.239 2.79351 -2.37399 0
M  V30 1106 H 108.887 4.91052 -1.0898 0
M  V30 1107 H 108.587 5.14992 -2.82943 0
M  V30 1108 H 110.111 5.73289 -2.10171 0
M  V30 1109 H 111.525 4.26293 -3.83337 0
M  V30 1110 H 109.922 3.91804 -4.54543 0
M  V30 1111 H 110.992 2.57328 -4.10987 0
M  V30 1112 N 112.336 1.25143 0.95797 0
M  V30 1113 C 113.299 1.05321 2.03569 0
M  V30 1114 C 114.299 0.007152 1.60798 0
M  V30 1115 O 115.489 0.24903 1.72411 0
M  V30 1116 C 112.621 0.598394 3.35607 0
M  V30 1117 H 113.814 2.00986 2.22586 0
M  V30 1118 H 111.367 1.07502 1.13459 0
M  V30 1119 H 112.102 -0.361014 3.22284 0
M  V30 1120 H 111.887 1.35351 3.67998 0
M  V30 1121 H 113.377 0.48104 4.1482 0
M  V30 1122 N 113.814 -1.1601 1.06675 0
M  V30 1123 C 115.062 -1.86264 0.784229 0
M  V30 1124 C 115.383 -1.82328 -0.691488 0
M  V30 1125 O 114.653 -1.25947 -1.50047 0
M  V30 1126 H 113.233 -0.689621 0.28711 0
M  V30 1127 H 115.895 -1.40664 1.34906 0
M  V30 1128 H 114.991 -2.91595 1.11259 0
M  V30 1129 N 115.292 -0.849877 -1.32721 0
M  V30 1130 C 116.538 -0.451591 -1.97708 0
M  V30 1131 C 116.871 0.989175 -1.6712 0
M  V30 1132 O 116.146 1.69334 -0.956891 0
M  V30 1133 C 116.429 -0.685598 -3.53513 0
M  V30 1134 C 116.282 -2.17444 -3.93749 0
M  V30 1135 C 117.601 -0.138874 -4.39881 0
M  V30 1136 H 114.72 -0.16555 -0.718166 0
M  V30 1137 H 117.362 -1.06742 -1.57182 0
M  V30 1138 H 115.512 -0.161416 -3.88165 0
M  V30 1139 H 117.184 -2.76433 -3.693 0
M  V30 1140 H 115.427 -2.65476 -3.43081 0
M  V30 1141 H 116.098 -2.28888 -5.02309 0
M  V30 1142 H 118.574 -0.587068 -4.11938 0
M  V30 1143 H 117.45 -0.332213 -5.47894 0
M  V30 1144 H 117.711 0.95806 -4.31594 0
M  V30 1145 N 116.77 1.45427 -0.607355 0
M  V30 1146 C 118.018 2.01841 -0.102253 0
M  V30 1147 C 118.339 1.47832 1.27164 0
M  V30 1148 O 117.609 0.672497 1.83995 0
M  V30 1149 H 116.189 0.746188 -0.0348101 0
M  V30 1150 H 118.851 1.78229 -0.7887 0
M  V30 1151 H 117.947 3.12057 -0.0518585 0
M  V30 1152 N 118.248 0.346503 1.53744 0
M  V30 1153 C 119.495 -0.249104 2.00962 0
M  V30 1154 C 119.823 -1.5032 1.23426 0
M  V30 1155 O 119.078 -1.93217 0.310761 0
M  V30 1156 C 119.377 -0.605809 3.52228 0
M  V30 1157 C 119.043 0.551747 4.47512 0
M  V30 1158 C 117.705 0.86941 4.73281 0
M  V30 1159 C 120.057 1.32818 5.03993 0
M  V30 1160 C 117.385 1.96582 5.52786 0
M  V30 1161 C 119.737 2.41486 5.84694 0
M  V30 1162 C 118.401 2.73808 6.08757 0
M  V30 1163 H 117.671 -0.0911538 0.735372 0
M  V30 1164 H 120.318 0.475027 1.85515 0
M  V30 1165 H 118.623 -1.4107 3.65522 0
M  V30 1166 H 120.32 -1.07858 3.86222 0
M  V30 1167 H 116.91 0.294102 4.2759 0
M  V30 1168 H 121.094 1.09602 4.84047 0
M  V30 1169 H 116.35 2.22045 5.69654 0
M  V30 1170 H 120.524 3.02078 6.27473 0
M  V30 1171 H 118.151 3.58892 6.7015 0
M  V30 1172 N 119.726 -1.57421 0.075193 0
M  V30 1173 C 120.656 -2.15942 -0.888324 0
M  V30 1174 C 121.637 -1.08737 -1.30806 0
M  V30 1175 O 122.822 -1.36787 -1.37851 0
M  V30 1176 C 119.952 -2.72379 -2.1547 0
M  V30 1177 C 118.906 -3.8478 -1.87425 0
M  V30 1178 C 118.232 -4.27834 -3.20721 0
M  V30 1179 C 119.532 -5.08869 -1.17684 0
M  V30 1180 H 121.226 -2.96705 -0.400799 0
M  V30 1181 H 118.772 -1.42723 -0.191342 0
M  V30 1182 H 120.725 -3.11965 -2.83295 0
M  V30 1183 H 119.449 -1.88841 -2.6647 0
M  V30 1184 H 118.108 -3.45703 -1.22004 0
M  V30 1185 H 117.756 -3.41214 -3.6957 0
M  V30 1186 H 117.456 -5.03605 -3.02746 0
M  V30 1187 H 118.98 -4.70039 -3.89738 0
M  V30 1188 H 120.394 -5.4575 -1.75584 0
M  V30 1189 H 118.791 -5.8994 -1.09956 0
M  V30 1190 H 119.861 -4.84648 -0.156453 0
M  V30 1191 N 121.204 0.198386 -1.56346 0
M  V30 1192 C 122.134 1.24865 -1.9731 0
M  V30 1193 C 123.115 1.47651 -0.844576 0
M  V30 1194 O 124.3 1.59444 -1.10866 0
M  V30 1195 C 121.43 2.59358 -2.30977 0
M  V30 1196 C 120.384 2.5119 -3.46537 0
M  V30 1197 C 119.71 3.89926 -3.65871 0
M  V30 1198 C 121.01 2.03977 -4.80823 0
M  V30 1199 H 122.704 0.908252 -2.85291 0
M  V30 1200 H 120.25 0.435462 -1.37258 0
M  V30 1201 H 122.203 3.33011 -2.58228 0
M  V30 1202 H 120.927 2.95132 -1.39874 0
M  V30 1203 H 119.586 1.79993 -3.19371 0
M  V30 1204 H 119.234 4.23046 -2.72105 0
M  V30 1205 H 118.934 3.85336 -4.4361 0
M  V30 1206 H 120.458 4.65205 -3.95495 0
M  V30 1207 H 121.872 2.67386 -5.07127 0
M  V30 1208 H 120.269 2.10397 -5.62008 0
M  V30 1209 H 121.339 0.992861 -4.74626 0
M  V30 1210 N 122.682 1.50554 0.465978 0
M  V30 1211 C 124.093 1.54599 1.04671 0
M  V30 1212 C 124.444 0.352488 1.93008 0
M  V30 1213 O 123.569 -0.534044 2.09707 0
M  V30 1214 C 124.164 2.80166 1.90505 0
M  V30 1215 C 122.723 2.86876 2.43678 0
M  V30 1216 C 121.87 2.48947 1.22151 0
M  V30 1217 H 124.821 1.56744 0.248384 0
M  V30 1218 H 124.842 2.62311 2.75633 0
M  V30 1219 H 124.354 3.67013 1.26186 0
M  V30 1220 H 122.455 2.04393 3.11536 0
M  V30 1221 H 122.568 3.89885 2.78436 0
M  V30 1222 H 120.932 2.01498 1.5579 0
M  V30 1223 H 121.715 3.38107 0.594866 0
M  V30 1224 N 124.16 -0.719506 1.40217 0
M  V30 1225 C 125.39 -1.50646 1.41384 0
M  V30 1226 C 125.798 -1.89197 0.0107743 0
M  V30 1227 O 125.141 -1.55709 -0.974708 0
M  V30 1228 C 125.203 -2.81405 2.23722 0
M  V30 1229 C 124.867 -2.65199 3.72181 0
M  V30 1230 C 125.864 -2.32717 4.64907 0
M  V30 1231 C 123.549 -2.81586 4.1595 0
M  V30 1232 C 125.543 -2.16827 5.99387 0
M  V30 1233 C 123.23 -2.65313 5.50502 0
M  V30 1234 C 124.228 -2.32981 6.42035 0
M  V30 1235 O 123.916 -2.16827 7.74107 0
M  V30 1236 H 123.648 -0.471606 0.484318 0
M  V30 1237 H 126.202 -0.895456 1.84853 0
M  V30 1238 H 124.432 -3.44823 1.75026 0
M  V30 1239 H 126.121 -3.43102 2.16878 0
M  V30 1240 H 126.887 -2.19694 4.32388 0
M  V30 1241 H 122.766 -3.0574 3.45027 0
M  V30 1242 H 126.31 -1.91513 6.70797 0
M  V30 1243 H 122.207 -2.7792 5.82607 0
M  V30 1244 H 122.975 -2.31778 7.84998 0
M  V30 1245 N 125.638 -1.25649 -0.95132 0
M  V30 1246 C 126.586 -1.06118 -2.06982 0
M  V30 1247 C 127.58 0.00889169 -1.69398 0
M  V30 1248 O 128.786 -0.146988 -1.79399 0
M  V30 1249 H 125.161 -0.326248 -0.677544 0
M  V30 1250 H 127.132 -2.00932 -2.2061 0
M  V30 1251 C 125.881 -0.700145 -3.40578 0
M  V30 1252 H 125.204 -1.51537 -3.69968 0
M  V30 1253 H 126.644 -0.603211 -4.19687 0
M  V30 1254 C 125.103 0.59403 -3.31622 0
M  V30 1255 O 125.633 1.63522 -3.66911 0
M  V30 1256 N 123.839 0.58089 -2.84735 0
M  V30 1257 H 123.386 -0.266783 -2.56215 0
M  V30 1258 H 123.344 1.44695 -2.79125 0
M  V30 1259 N 127.117 1.15442 -1.07289 0
M  V30 1260 C 128.342 1.90638 -0.816828 0
M  V30 1261 C 128.767 1.77445 0.624083 0
M  V30 1262 O 128.125 1.10671 1.43602 0
M  V30 1263 C 128.173 3.39008 -1.22906 0
M  V30 1264 O 127.277 4.10701 -0.373975 0
M  V30 1265 H 126.618 0.593555 -0.297638 0
M  V30 1266 H 129.148 1.46198 -1.43134 0
M  V30 1267 H 129.158 3.89801 -1.20497 0
M  V30 1268 H 127.833 3.47929 -2.27856 0
M  V30 1269 H 126.41 3.70046 -0.460499 0
M  V30 1270 N 128.595 0.856903 1.32268 0
M  V30 1271 C 129.842 0.461386 1.97174 0
M  V30 1272 C 130.17 -0.983491 1.67803 0
M  V30 1273 O 129.425 -1.70541 0.959903 0
M  V30 1274 C 129.724 0.649919 3.51441 0
M  V30 1275 C 129.39 2.0656 4.00804 0
M  V30 1276 C 128.052 2.45279 4.13995 0
M  V30 1277 C 130.404 2.98947 4.26943 0
M  V30 1278 C 127.732 3.75653 4.50668 0
M  V30 1279 C 130.084 4.28822 4.65075 0
M  V30 1280 C 128.748 4.67472 4.76472 0
M  V30 1281 H 128.018 0.168833 0.72151 0
M  V30 1282 H 130.665 1.08739 1.57633 0
M  V30 1283 H 128.97 -0.0593018 3.91755 0
M  V30 1284 H 130.667 0.32391 3.9969 0
M  V30 1285 H 127.257 1.75495 3.91024 0
M  V30 1286 H 131.441 2.70265 4.16258 0
M  V30 1287 H 126.697 4.05379 4.57688 0
M  V30 1288 H 130.871 5.0047 4.84255 0
M  V30 1289 H 128.498 5.68539 5.04646 0
M  V30 1290 N 130.073 -1.45103 0.615059 0
M  V30 1291 C 131.322 -2.01396 0.110718 0
M  V30 1292 C 131.635 -1.48834 -1.26916 0
M  V30 1293 O 132.841 -1.97152 -1.86664 0
M  V30 1294 C 131.297 -3.59599 0.14723 0
M  V30 1295 C 130.905 -4.21158 1.52743 0
M  V30 1296 C 132.649 -4.23428 -0.30148 0
M  V30 1297 C 130.556 -5.71535 1.51992 0
M  V30 1298 H 129.486 -0.753061 0.0376241 0
M  V30 1299 H 132.137 -1.66494 0.77149 0
M  V30 1300 H 130.519 -3.91724 -0.580339 0
M  V30 1301 H 131.693 -4.00594 2.2773 0
M  V30 1302 H 130.008 -3.69552 1.91886 0
M  V30 1303 H 132.605 -5.33703 -0.326392 0
M  V30 1304 H 132.948 -3.94629 -1.32565 0
M  V30 1305 H 133.481 -3.96047 0.373065 0
M  V30 1306 H 130.22 -6.05044 2.52193 0
M  V30 1307 H 129.74 -5.94268 0.81274 0
M  V30 1308 H 131.419 -6.34873 1.24681 0
M  V30 1309 N 131.551 -0.354651 -1.53558 0
M  V30 1310 C 132.779 0.239515 -2.05509 0
M  V30 1311 C 133.194 1.4333 -1.2289 0
M  V30 1312 O 132.551 1.80538 -0.266899 0
M  V30 1313 C 132.602 0.643719 -3.55723 0
M  V30 1314 O 132.323 -0.502602 -4.35207 0
M  V30 1315 C 133.824 1.29743 -4.23889 0
M  V30 1316 H 131.044 0.0442697 -0.669538 0
M  V30 1317 H 133.588 -0.509856 -1.98042 0
M  V30 1318 H 131.743 1.34302 -3.63376 0
M  V30 1319 H 132.157 -0.178172 -5.24197 0
M  V30 1320 H 133.631 1.53091 -5.30346 0
M  V30 1321 H 134.108 2.25441 -3.76926 0
M  V30 1322 H 134.714 0.639865 -4.20459 0
M  V30 1323 N 133.029 1.57378 -0.0835403 0
M  V30 1324 C 134.306 1.85363 0.624507 0
M  V30 1325 C 134.686 0.978239 1.87066 0
M  V30 1326 O 134.034 0.0475908 2.2845 0
M  V30 1327 C 134.244 3.35795 0.950947 0
M  V30 1328 C 135.592 4.03581 1.31939 0
M  V30 1329 O 136.616 3.40609 1.04232 0
M  V30 1330 O 135.475 5.14672 1.83779 0
M  V30 1331 H 132.569 0.766162 0.311329 0
M  V30 1332 H 135.115 1.69307 -0.115362 0
M  V30 1333 H 133.887 3.91244 0.0663899 0
M  V30 1334 H 133.51 3.57154 1.74719 0
M  V30 1335 N 134.507 -0.190092 1.56449 0
M  V30 1336 C 135.753 -0.911052 1.81184 0
M  V30 1337 C 136.086 -1.82699 0.658396 0
M  V30 1338 O 135.361 -1.91491 -0.340775 0
M  V30 1339 C 135.644 -1.72297 3.16205 0
M  V30 1340 C 135.497 -0.831419 4.42049 0
M  V30 1341 C 136.816 -2.69454 3.47969 0
M  V30 1342 H 133.935 -0.32977 0.659106 0
M  V30 1343 H 136.577 -0.178169 1.89163 0
M  V30 1344 H 134.727 -2.34778 3.09534 0
M  V30 1345 H 136.399 -0.220929 4.60771 0
M  V30 1346 H 134.642 -0.138406 4.33579 0
M  V30 1347 H 135.313 -1.43461 5.33032 0
M  V30 1348 H 137.789 -2.17104 3.54972 0
M  V30 1349 H 136.665 -3.23342 4.43555 0
M  V30 1350 H 136.926 -3.48744 2.71717 0
M  V30 1351 N 135.985 -1.50799 -0.457987 0
M  V30 1352 C 137.262 -1.52968 -1.21902 0
M  V30 1353 C 137.642 -0.281906 -2.09209 0
M  V30 1354 O 136.99 0.734076 -2.16388 0
M  V30 1355 C 137.2 -2.8326 -2.03875 0
M  V30 1356 C 138.548 -3.34425 -2.6162 0
M  V30 1357 O 139.572 -2.8467 -2.14106 0
M  V30 1358 O 138.431 -4.21188 -3.48228 0
M  V30 1359 H 135.525 -0.614129 -0.553873 0
M  V30 1360 H 138.071 -1.63098 -0.468739 0
M  V30 1361 H 136.843 -3.65543 -1.39621 0
M  V30 1362 H 136.466 -2.76195 -2.8601 0
M  V30 1363 N 137.463 0.71206 -1.40597 0
M  V30 1364 C 138.693 1.49894 -1.42181 0
M  V30 1365 C 139.101 1.89189 -0.0208078 0
M  V30 1366 O 138.444 1.56223 0.966436 0
M  V30 1367 C 138.506 2.80215 -2.25211 0
M  V30 1368 C 138.17 2.63221 -3.73582 0
M  V30 1369 C 139.167 2.30249 -4.66135 0
M  V30 1370 C 136.852 2.79376 -4.17438 0
M  V30 1371 C 138.846 2.13645 -6.00529 0
M  V30 1372 C 136.533 2.6239 -5.51901 0
M  V30 1373 C 137.531 2.29573 -6.43262 0
M  V30 1374 O 137.219 2.12719 -7.75246 0
M  V30 1375 H 136.951 0.469031 -0.486812 0
M  V30 1376 H 139.505 0.88564 -1.85326 0
M  V30 1377 H 137.735 3.4389 -1.76852 0
M  V30 1378 H 139.424 3.41947 -2.18694 0
M  V30 1379 H 140.19 2.17398 -4.33547 0
M  V30 1380 H 136.069 3.03906 -3.46644 0
M  V30 1381 H 139.613 1.87953 -6.71803 0
M  V30 1382 H 135.51 2.74826 -5.84073 0
M  V30 1383 H 136.278 2.27611 -7.86216 0
M  V30 1384 N 138.941 1.26152 0.944643 0
M  V30 1385 C 139.871 1.09902 2.06019 0
M  V30 1386 C 140.852 0.00519538 1.70099 0
M  V30 1387 O 142.037 0.176583 1.93396 0
M  V30 1388 C 139.167 0.727562 3.39594 0
M  V30 1389 C 138.121 1.77274 3.89561 0
M  V30 1390 C 137.447 1.25569 5.19747 0
M  V30 1391 C 138.747 3.17357 4.14827 0
M  V30 1392 H 140.441 2.03217 2.19871 0
M  V30 1393 H 137.987 0.978452 1.05652 0
M  V30 1394 H 139.94 0.600777 4.17095 0
M  V30 1395 H 138.664 -0.241287 3.25707 0
M  V30 1396 H 137.323 1.88814 3.14237 0
M  V30 1397 H 136.971 0.276783 5.02238 0
M  V30 1398 H 136.671 1.95433 5.54148 0
M  V30 1399 H 138.195 1.1415 5.99835 0
M  V30 1400 H 139.609 3.08914 4.82954 0
M  V30 1401 H 138.006 3.84781 4.60504 0
M  V30 1402 H 139.076 3.63673 3.20734 0
M  V30 1403 N 140.419 -1.14872 1.07899 0
M  V30 1404 C 141.369 -2.17809 0.674027 0
M  V30 1405 C 142.353 -1.58008 -0.303699 0
M  V30 1406 O 143.545 -1.76616 -0.11654 0
M  V30 1407 C 140.674 -3.43208 0.0793318 0
M  V30 1408 C 139.76 -4.10051 1.08253 0
M  V30 1409 N 140.151 -4.52296 2.2641 0
M  V30 1410 C 138.449 -4.36469 0.917124 0
M  V30 1411 C 139.15 -5.04199 2.901 0
M  V30 1412 N 138.126 -4.98088 2.17736 0
M  V30 1413 H 141.928 -2.48207 1.57386 0
M  V30 1414 H 139.442 -1.315 0.952976 0
M  V30 1415 H 141.439 -4.16272 -0.228719 0
M  V30 1416 H 140.099 -3.14291 -0.815551 0
M  V30 1417 H 141.11 -4.45504 2.64096 0
M  V30 1418 H 137.787 -4.17432 0.0756078 0
M  V30 1419 H 139.177 -5.46802 3.90458 0
M  V30 1420 N 141.898 -0.863906 -1.31812 0
M  V30 1421 C 142.848 -0.286898 -2.26188 0
M  V30 1422 C 143.832 0.572577 -1.50367 0
M  V30 1423 O 145.024 0.420447 -1.71934 0
M  V30 1424 C 142.153 0.515849 -3.39402 0
M  V30 1425 C 141.239 -0.356531 -4.22599 0
M  V30 1426 N 141.63 -1.44716 -4.84656 0
M  V30 1427 C 139.928 -0.147898 -4.45755 0
M  V30 1428 C 140.629 -1.98462 -5.46798 0
M  V30 1429 N 139.605 -1.28247 -5.28255 0
M  V30 1430 H 143.407 -1.12055 -2.717 0
M  V30 1431 H 140.921 -0.711012 -1.46008 0
M  V30 1432 H 142.918 0.945701 -4.06032 0
M  V30 1433 H 141.578 1.34718 -2.95434 0
M  V30 1434 H 142.589 -1.83008 -4.84488 0
M  V30 1435 H 139.266 0.647973 -4.12441 0
M  V30 1436 H 140.656 -2.89932 -6.06126 0
M  V30 1437 N 143.376 1.44774 -0.622745 0
M  V30 1438 C 144.323 2.30635 0.0871679 0
M  V30 1439 C 145.293 1.42994 0.845097 0
M  V30 1440 O 146.478 1.71907 0.827812 0
M  V30 1441 C 143.618 3.28144 1.06844 0
M  V30 1442 C 142.731 4.30888 0.309809 0
M  V30 1443 C 141.866 5.15494 1.28215 0
M  V30 1444 C 140.905 6.09953 0.512198 0
M  V30 1445 N 140.042 6.87287 1.43458 0
M  V30 1446 H 144.882 2.90803 -0.650974 0
M  V30 1447 H 142.419 1.43286 -0.33281 0
M  V30 1448 H 144.377 3.83157 1.65066 0
M  V30 1449 H 143.007 2.69695 1.77382 0
M  V30 1450 H 142.059 3.78414 -0.388181 0
M  V30 1451 H 143.371 4.97955 -0.290254 0
M  V30 1452 H 142.525 5.74983 1.93596 0
M  V30 1453 H 141.264 4.48481 1.91614 0
M  V30 1454 H 140.269 5.49581 -0.155151 0
M  V30 1455 H 141.494 6.78999 -0.116958 0
M  V30 1456 H 139.44 6.2295 2.05594 0
M  V30 1457 H 139.357 7.50763 0.888335 0
M  V30 1458 H 140.625 7.51306 2.07749 0
M  V30 1459 N 144.854 0.36279 1.53368 0
M  V30 1460 C 146.084 -0.228281 2.05335 0
M  V30 1461 C 146.492 -1.43226 1.23625 0
M  V30 1462 O 145.835 -1.81717 0.269206 0
M  V30 1463 C 145.897 -0.688549 3.52845 0
M  V30 1464 C 145.561 0.398362 4.5526 0
M  V30 1465 C 146.558 1.24732 5.04716 0
M  V30 1466 C 144.243 0.557805 4.99193 0
M  V30 1467 C 146.237 2.2411 5.96702 0
M  V30 1468 C 143.924 1.55495 5.90986 0
M  V30 1469 C 144.922 2.39503 6.39631 0
M  V30 1470 O 144.61 3.37517 7.29615 0
M  V30 1471 H 144.342 -0.044395 0.674541 0
M  V30 1472 H 146.896 0.518668 1.98744 0
M  V30 1473 H 145.126 -1.48706 3.56964 0
M  V30 1474 H 146.815 -1.20231 3.87685 0
M  V30 1475 H 147.581 1.13532 4.71525 0
M  V30 1476 H 143.46 -0.0862959 4.60919 0
M  V30 1477 H 147.004 2.89718 6.34594 0
M  V30 1478 H 142.901 1.66744 6.23592 0
M  V30 1479 H 143.669 3.33213 7.47604 0
M  V30 1480 N 146.332 -1.57332 0.0918853 0
M  V30 1481 C 147.743 -1.81496 -0.437739 0
M  V30 1482 C 148.094 -1.00727 -1.6837 0
M  V30 1483 O 147.219 -0.235694 -2.15113 0
M  V30 1484 C 147.814 -3.29197 -0.800939 0
M  V30 1485 C 146.373 -3.54136 -1.27532 0
M  V30 1486 C 145.52 -2.75979 -0.270392 0
M  V30 1487 H 148.471 -1.55494 0.317366 0
M  V30 1488 H 148.492 -3.42344 -1.66074 0
M  V30 1489 H 148.004 -3.87955 0.106078 0
M  V30 1490 H 146.105 -3.00705 -2.20016 0
M  V30 1491 H 146.218 -4.62792 -1.23938 0
M  V30 1492 H 144.582 -2.43349 -0.751872 0
M  V30 1493 H 145.365 -3.37484 0.629248 0
M  V30 1494 N 147.81 0.181792 -1.56548 0
M  V30 1495 C 149.058 0.89832 -1.81038 0
M  V30 1496 C 149.379 1.83232 -0.667164 0
M  V30 1497 O 148.649 1.93372 0.313673 0
M  V30 1498 H 147.229 0.33471 -0.667816 0
M  V30 1499 H 149.891 0.184116 -1.94028 0
M  V30 1500 H 148.987 1.4815 -2.74696 0
M  V30 1501 N 149.288 1.51039 0.449983 0
M  V30 1502 C 150.516 1.66869 1.2232 0
M  V30 1503 C 150.931 0.360727 1.85322 0
M  V30 1504 O 150.288 -0.659531 1.70166 0
M  V30 1505 C 150.339 2.77524 2.31652 0
M  V30 1506 O 150.06 4.03252 1.7123 0
M  V30 1507 C 151.561 3.04512 3.2216 0
M  V30 1508 H 148.781 0.560326 0.369155 0
M  V30 1509 H 151.325 1.97385 0.534719 0
M  V30 1510 H 149.48 2.49642 2.96239 0
M  V30 1511 H 149.894 4.64609 2.43389 0
M  V30 1512 H 151.368 3.85551 3.95038 0
M  V30 1513 H 151.845 2.16415 3.8218 0
M  V30 1514 H 152.451 3.34005 2.63288 0
M  V30 1515 N 150.766 -0.704594 1.40972 0
M  V30 1516 C 151.991 -1.49858 1.43378 0
M  V30 1517 C 152.416 -1.88061 0.038184 0
M  V30 1518 O 151.774 -1.5402 -0.956425 0
M  V30 1519 C 151.822 -2.74333 2.34038 0
M  V30 1520 O 150.926 -3.7147 1.7912 0
M  V30 1521 H 150.267 -0.45139 0.486974 0
M  V30 1522 H 152.797 -0.866832 1.8533 0
M  V30 1523 H 152.807 -3.22741 2.49604 0
M  V30 1524 H 151.482 -2.45863 3.35446 0
M  V30 1525 H 150.059 -3.30363 1.72958 0
M  V30 1526 N 152.244 -1.26651 -0.937939 0
M  V30 1527 C 153.493 -1.11775 -1.67897 0
M  V30 1528 C 153.806 0.33794 -1.92659 0
M  V30 1529 O 155.012 0.607434 -2.64618 0
M  V30 1530 C 153.468 -1.9523 -3.02346 0
M  V30 1531 C 153.076 -3.45393 -2.8532 0
M  V30 1532 C 154.82 -1.88972 -3.80118 0
M  V30 1533 C 152.727 -4.21083 -4.15263 0
M  V30 1534 H 151.657 -0.414696 -0.629717 0
M  V30 1535 H 154.308 -1.50988 -1.04283 0
M  V30 1536 H 152.69 -1.48853 -3.66959 0
M  V30 1537 H 153.864 -3.99561 -2.29537 0
M  V30 1538 H 152.179 -3.52921 -2.20988 0
M  V30 1539 H 154.776 -2.42805 -4.76392 0
M  V30 1540 H 155.119 -0.86113 -4.07296 0
M  V30 1541 H 155.652 -2.33189 -3.22285 0
M  V30 1542 H 152.391 -5.24425 -3.93267 0
M  V30 1543 H 151.911 -3.71695 -4.70747 0
M  V30 1544 H 153.59 -4.29706 -4.83696 0
M  V30 1545 N 153.722 1.14298 -1.08507 0
M  V30 1546 C 154.968 1.85633 -0.816581 0
M  V30 1547 C 155.301 1.82784 0.656021 0
M  V30 1548 O 154.576 1.25926 1.48233 0
M  V30 1549 C 154.859 3.34223 -1.34041 0
M  V30 1550 C 154.712 3.45639 -2.87843 0
M  V30 1551 C 156.031 4.29356 -0.9665 0
M  V30 1552 H 153.15 0.67402 -0.298104 0
M  V30 1553 H 155.792 1.34214 -1.34487 0
M  V30 1554 H 153.942 3.78144 -0.89104 0
M  V30 1555 H 155.614 3.10498 -3.41158 0
M  V30 1556 H 153.857 2.86817 -3.25451 0
M  V30 1557 H 154.528 4.50089 -3.19569 0
M  V30 1558 H 157.004 3.93457 -1.35391 0
M  V30 1559 H 155.88 5.3178 -1.3602 0
M  V30 1560 H 156.141 4.41919 0.126362 0
M  V30 1561 N 155.201 0.870884 1.31352 0
M  V30 1562 C 156.448 0.482273 1.96673 0
M  V30 1563 C 156.776 -0.965638 1.68836 0
M  V30 1564 O 156.031 -1.69514 0.977937 0
M  V30 1565 C 156.33 0.687157 3.50732 0
M  V30 1566 C 155.996 2.108 3.9859 0
M  V30 1567 C 154.658 2.49656 4.1137 0
M  V30 1568 C 157.01 3.03459 4.23748 0
M  V30 1569 C 154.338 3.80412 4.46659 0
M  V30 1570 C 156.69 4.3373 4.60501 0
M  V30 1571 C 155.354 4.725 4.71487 0
M  V30 1572 H 154.624 0.176476 0.719679 0
M  V30 1573 H 157.271 1.10405 1.56471 0
M  V30 1574 H 155.576 -0.0177476 3.91796 0
M  V30 1575 H 157.273 0.366284 3.99324 0
M  V30 1576 H 153.863 1.79633 3.8914 0
M  V30 1577 H 158.047 2.74665 4.13368 0
M  V30 1578 H 153.303 4.1021 4.53362 0
M  V30 1579 H 157.477 5.05578 4.78919 0
M  V30 1580 H 155.104 5.73859 4.98588 0
M  V30 1581 N 156.679 -1.44442 0.630414 0
M  V30 1582 C 157.956 -1.9549 0.0655657 0
M  V30 1583 C 158.336 -1.5724 -1.40851 0
M  V30 1584 O 157.684 -0.846116 -2.12257 0
M  V30 1585 C 157.894 -3.47812 0.287691 0
M  V30 1586 C 159.242 -4.24216 0.180513 0
M  V30 1587 O 160.266 -3.55526 0.219019 0
M  V30 1588 O 159.125 -5.46434 0.0848493 0
M  V30 1589 H 156.219 -0.826688 -0.0227177 0
M  V30 1590 H 158.765 -1.54496 0.702068 0
M  V30 1591 H 157.537 -3.687 1.31056 0
M  V30 1592 H 157.16 -3.95751 -0.382984 0
M  V30 1593 N 158.157 -0.370918 -1.53173 0
M  V30 1594 C 159.09 0.516727 -2.22273 0
M  V30 1595 C 160.068 1.07877 -1.21661 0
M  V30 1596 O 161.252 1.13389 -1.50583 0
M  V30 1597 C 158.379 1.71346 -2.92161 0
M  V30 1598 C 157.425 1.27838 -4.0689 0
M  V30 1599 S 158.258 0.275217 -5.34792 0
M  V30 1600 C 159.414 1.47816 -6.08195 0
M  V30 1601 H 159.647 -0.0701054 -2.97217 0
M  V30 1602 H 157.18 -0.155038 -1.5362 0
M  V30 1603 H 159.138 2.39988 -3.3304 0
M  V30 1604 H 157.799 2.27156 -2.16931 0
M  V30 1605 H 156.992 2.17141 -4.54825 0
M  V30 1606 H 156.594 0.671105 -3.6793 0
M  V30 1607 H 158.886 2.40831 -6.33251 0
M  V30 1608 H 159.829 1.04008 -7.0042 0
M  V30 1609 H 160.237 1.68663 -5.38714 0
M  V30 1610 N 159.635 1.57281 -0.100228 0
M  V30 1611 C 160.86 1.99302 0.573881 0
M  V30 1612 C 161.285 0.979059 1.60611 0
M  V30 1613 O 160.643 -0.0517803 1.81226 0
M  V30 1614 C 160.691 3.40274 1.19358 0
M  V30 1615 O 159.795 3.41676 2.30935 0
M  V30 1616 H 159.136 0.647944 0.145138 0
M  V30 1617 H 161.666 2.03779 -0.183156 0
M  V30 1618 H 161.676 3.78078 1.53365 0
M  V30 1619 H 160.351 4.13594 0.437385 0
M  V30 1620 H 158.928 3.15672 1.98509 0
M  V30 1621 N 161.113 -0.173488 1.56642 0
M  V30 1622 C 162.043 -1.2171 1.99271 0
M  V30 1623 C 163.024 -1.46289 0.867959 0
M  V30 1624 O 164.209 -1.5766 1.13388 0
M  V30 1625 C 161.339 -2.55651 2.35074 0
M  V30 1626 C 160.293 -2.45645 3.50489 0
M  V30 1627 C 159.619 -3.84056 3.72028 0
M  V30 1628 C 160.919 -1.96302 4.84007 0
M  V30 1629 H 162.613 -0.86275 2.867 0
M  V30 1630 H 160.159 -0.413571 1.37933 0
M  V30 1631 H 162.112 -3.2886 2.63494 0
M  V30 1632 H 160.836 -2.92869 1.44552 0
M  V30 1633 H 159.495 -1.7489 3.22194 0
M  V30 1634 H 159.143 -4.18664 2.788 0
M  V30 1635 H 158.843 -3.7823 4.49684 0
M  V30 1636 H 160.367 -4.58854 4.02846 0
M  V30 1637 H 161.781 -2.59284 5.11317 0
M  V30 1638 H 160.178 -2.01429 5.65284 0
M  V30 1639 H 161.248 -0.917226 4.76146 0
M  V30 1640 N 162.591 -1.51276 -0.441967 0
M  V30 1641 C 163.819 -1.67516 -1.21434 0
M  V30 1642 C 164.234 -0.37055 -1.85128 0
M  V30 1643 O 163.591 0.650498 -1.70513 0
M  V30 1644 C 163.642 -2.78748 -2.30177 0
M  V30 1645 O 163.363 -4.04154 -1.69089 0
M  V30 1646 C 164.864 -3.06217 -3.20541 0
M  V30 1647 H 162.084 -0.562276 -0.366178 0
M  V30 1648 H 164.628 -1.97666 -0.524244 0
M  V30 1649 H 162.783 -2.5121 -2.94911 0
M  V30 1650 H 163.197 -4.65894 -2.40922 0
M  V30 1651 H 164.671 -3.8764 -3.92987 0
M  V30 1652 H 165.148 -2.18439 -3.81026 0
M  V30 1653 H 165.754 -3.35397 -2.61513 0
M  V30 1654 N 164.069 0.697108 -1.41344 0
M  V30 1655 C 165.299 1.48377 -1.43763 0
M  V30 1656 C 165.707 1.89156 -0.0408726 0
M  V30 1657 O 165.05 1.57239 0.949812 0
M  V30 1658 C 165.112 2.7781 -2.2817 0
M  V30 1659 C 164.776 2.59244 -3.76353 0
M  V30 1660 C 165.773 2.25292 -4.68551 0
M  V30 1661 C 163.458 2.74933 -4.20378 0
M  V30 1662 C 165.452 2.07264 -6.02761 0
M  V30 1663 C 163.139 2.56521 -5.54653 0
M  V30 1664 C 164.137 2.22737 -6.4566 0
M  V30 1665 O 163.825 2.04485 -7.77458 0
M  V30 1666 H 163.557 0.463842 -0.491759 0
M  V30 1667 H 166.111 0.865934 -1.86255 0
M  V30 1668 H 164.341 3.41995 -1.8049 0
M  V30 1669 H 166.03 3.39608 -2.22309 0
M  V30 1670 H 166.796 2.12787 -4.35829 0
M  V30 1671 H 162.675 3.00213 -3.49848 0
M  V30 1672 H 166.219 1.80817 -6.73759 0
M  V30 1673 H 162.116 2.68616 -5.86955 0
M  V30 1674 H 162.884 2.1926 -7.88586 0
M  V30 1675 N 165.547 1.27147 0.931209 0
M  V30 1676 C 166.796 1.12664 1.67302 0
M  V30 1677 C 167.109 -0.327718 1.92835 0
M  V30 1678 O 168.315 -0.593392 2.64936 0
M  V30 1679 C 166.771 1.9683 3.01307 0
M  V30 1680 C 166.379 3.46901 2.83485 0
M  V30 1681 C 168.123 1.90985 3.79111 0
M  V30 1682 C 166.03 4.23279 4.13024 0
M  V30 1683 H 164.96 0.41803 0.627509 0
M  V30 1684 H 167.611 1.51539 1.03481 0
M  V30 1685 H 165.993 1.50797 3.66164 0
M  V30 1686 H 167.167 4.00773 2.27415 0
M  V30 1687 H 165.482 3.54088 2.19113 0
M  V30 1688 H 168.079 2.45328 4.75098 0
M  V30 1689 H 168.422 0.882718 4.06834 0
M  V30 1690 H 168.955 2.34895 3.21044 0
M  V30 1691 H 165.694 5.26503 3.90481 0
M  V30 1692 H 165.214 3.74186 4.6877 0
M  V30 1693 H 166.893 4.32265 4.81411 0
M  V30 1694 N 167.025 -1.13721 1.09112 0
M  V30 1695 C 167.955 -2.21148 0.749385 0
M  V30 1696 C 168.936 -1.6792 -0.271475 0
M  V30 1697 O 170.121 -1.93693 -0.140251 0
M  V30 1698 C 167.251 -3.46905 0.165659 0
M  V30 1699 C 166.205 -4.13203 1.11567 0
M  V30 1700 C 165.531 -5.33248 0.393809 0
M  V30 1701 C 166.831 -4.60912 2.45678 0
M  V30 1702 H 168.525 -2.4999 1.64758 0
M  V30 1703 H 166.071 -1.20156 0.793626 0
M  V30 1704 H 168.024 -4.21313 -0.085466 0
M  V30 1705 H 166.748 -3.17449 -0.767714 0
M  V30 1706 H 165.407 -3.40758 1.35202 0
M  V30 1707 H 165.055 -5.00054 -0.543599 0
M  V30 1708 H 164.755 -5.78552 1.02721 0
M  V30 1709 H 166.279 -6.10413 0.150908 0
M  V30 1710 H 167.693 -5.26759 2.26269 0
M  V30 1711 H 166.09 -5.16944 3.04776 0
M  V30 1712 H 167.16 -3.75603 3.06677 0
M  V30 1713 N 168.503 -0.877838 -1.30888 0
M  V30 1714 C 169.749 -0.493426 -1.96706 0
M  V30 1715 C 170.082 0.953504 -1.6918 0
M  V30 1716 O 169.357 1.67266 -0.992594 0
M  V30 1717 C 169.64 -0.760429 -3.51979 0
M  V30 1718 C 169.493 -2.25747 -3.89048 0
M  V30 1719 C 170.812 -0.232148 -4.39487 0
M  V30 1720 H 167.931 -0.180746 -0.714493 0
M  V30 1721 H 170.573 -1.10052 -1.54882 0
M  V30 1722 H 168.723 -0.243715 -3.87735 0
M  V30 1723 H 170.395 -2.84204 -3.63354 0
M  V30 1724 H 168.638 -2.72694 -3.37373 0
M  V30 1725 H 169.309 -2.39491 -4.97341 0
M  V30 1726 H 171.785 -0.674314 -4.106 0
M  V30 1727 H 170.661 -0.448355 -5.47066 0
M  V30 1728 H 170.922 0.866297 -4.33529 0
M  V30 1729 N 169.982 1.44106 -0.638065 0
M  V30 1730 C 170.945 2.29138 0.0531013 0
M  V30 1731 C 171.945 1.41409 0.765506 0
M  V30 1732 O 173.135 1.63206 0.609046 0
M  V30 1733 C 170.267 3.23144 1.08584 0
M  V30 1734 H 171.46 2.91739 -0.694883 0
M  V30 1735 H 169.013 1.51134 -0.398538 0
M  V30 1736 H 169.748 2.65408 1.86357 0
M  V30 1737 H 169.533 3.87804 0.578852 0
M  V30 1738 H 171.023 3.87004 1.56899 0
M  V30 1739 N 171.46 0.379036 1.52974 0
M  V30 1740 C 172.39 -0.452706 2.29069 0
M  V30 1741 C 173.371 -1.07237 1.32039 0
M  V30 1742 O 174.556 -1.08708 1.60923 0
M  V30 1743 C 171.686 -1.5856 3.08992 0
M  V30 1744 C 170.64 -1.0925 4.13822 0
M  V30 1745 C 169.966 -2.31668 4.81907 0
M  V30 1746 C 171.266 -0.167702 5.22031 0
M  V30 1747 H 172.96 0.182181 2.98845 0
M  V30 1748 H 170.506 0.0890592 1.43724 0
M  V30 1749 H 172.459 -2.1742 3.6098 0
M  V30 1750 H 171.183 -2.24792 2.36931 0
M  V30 1751 H 169.842 -0.526494 3.628 0
M  V30 1752 H 169.49 -2.96386 4.06404 0
M  V30 1753 H 169.19 -1.9934 5.52754 0
M  V30 1754 H 170.714 -2.91189 5.36695 0
M  V30 1755 H 172.128 -0.664186 5.6944 0
M  V30 1756 H 170.525 0.0653265 6.00064 0
M  V30 1757 H 171.595 0.786347 4.78482 0
M  V30 1758 N 172.938 -1.57226 0.108567 0
M  V30 1759 C 173.901 -2.13602 -0.831082 0
M  V30 1760 C 174.901 -1.06841 -1.20173 0
M  V30 1761 O 176.091 -1.32666 -1.12895 0
M  V30 1762 C 173.223 -2.66769 -2.12243 0
M  V30 1763 H 174.416 -2.97951 -0.341317 0
M  V30 1764 H 171.969 -1.55667 -0.14057 0
M  V30 1765 H 172.704 -1.85977 -2.65675 0
M  V30 1766 H 172.489 -3.44839 -1.86625 0
M  V30 1767 H 173.979 -3.10332 -2.79435 0
M  V30 1768 N 174.416 0.165178 -1.56732 0
M  V30 1769 C 175.379 1.18822 -1.95995 0
M  V30 1770 C 176.379 1.3685 -0.84431 0
M  V30 1771 O 177.569 1.34152 -1.11126 0
M  V30 1772 C 174.701 2.5521 -2.26011 0
M  V30 1773 H 175.894 0.851825 -2.87548 0
M  V30 1774 H 173.447 0.407857 -1.50885 0
M  V30 1775 H 174.182 2.93852 -1.37191 0
M  V30 1776 H 173.967 2.43489 -3.07336 0
M  V30 1777 H 175.457 3.28927 -2.57288 0
M  V30 1778 N 175.894 1.51508 0.433938 0
M  V30 1779 C 177.14 1.64588 1.18484 0
M  V30 1780 C 177.473 0.362666 1.90784 0
M  V30 1781 O 176.748 -0.637892 1.83742 0
M  V30 1782 C 177.031 2.85149 2.19913 0
M  V30 1783 C 176.884 4.23456 1.51674 0
M  V30 1784 C 178.203 3.01227 3.20858 0
M  V30 1785 H 175.322 0.598994 0.429389 0
M  V30 1786 H 177.964 1.84002 0.473647 0
M  V30 1787 H 176.114 2.68729 2.80566 0
M  V30 1788 H 177.786 4.51552 0.943322 0
M  V30 1789 H 176.029 4.25998 0.819035 0
M  V30 1790 H 176.7 5.03812 2.2556 0
M  V30 1791 H 179.176 3.16382 2.70263 0
M  V30 1792 H 178.052 3.87141 3.89118 0
M  V30 1793 H 178.313 2.13447 3.8716 0
M  V30 1794 N 177.372 -0.689602 1.41712 0
M  V30 1795 C 178.302 -1.81577 1.46806 0
M  V30 1796 C 179.283 -1.66945 0.326105 0
M  V30 1797 O 180.468 -1.86588 0.538377 0
M  V30 1798 C 177.598 -3.19762 1.35535 0
M  V30 1799 C 176.552 -3.49107 2.47605 0
M  V30 1800 C 175.878 -4.86711 2.21397 0
M  V30 1801 C 177.178 -3.47483 3.89939 0
M  V30 1802 H 178.872 -1.7757 2.41058 0
M  V30 1803 H 176.418 -0.852887 1.16025 0
M  V30 1804 H 178.371 -3.98263 1.3771 0
M  V30 1805 H 177.095 -3.24409 0.377708 0
M  V30 1806 H 175.754 -2.72959 2.44722 0
M  V30 1807 H 175.402 -4.8799 1.21961 0
M  V30 1808 H 175.102 -5.0731 2.96497 0
M  V30 1809 H 176.626 -5.67515 2.25297 0
M  V30 1810 H 178.04 -4.1598 3.94505 0
M  V30 1811 H 176.437 -3.79615 4.64771 0
M  V30 1812 H 177.507 -2.46341 4.17665 0
M  V30 1813 N 178.85 -1.27639 -0.924453 0
M  V30 1814 C 179.78 -1.13166 -2.04244 0
M  V30 1815 C 180.761 -0.032256 -1.70069 0
M  V30 1816 O 181.946 -0.207328 -1.9309 0
M  V30 1817 C 179.076 -0.781496 -3.38393 0
M  V30 1818 C 178.03 -1.83449 -3.86692 0
M  V30 1819 C 177.356 -1.33822 -5.17683 0
M  V30 1820 C 178.656 -3.23917 -4.09726 0
M  V30 1821 H 180.35 -2.06689 -2.1661 0
M  V30 1822 H 177.896 -0.995136 -1.04082 0
M  V30 1823 H 179.849 -0.667057 -4.16087 0
M  V30 1824 H 178.573 0.189439 -3.2605 0
M  V30 1825 H 177.232 -1.93789 -3.11193 0
M  V30 1826 H 176.88 -0.35665 -5.01734 0
M  V30 1827 H 176.58 -2.04224 -5.50968 0
M  V30 1828 H 178.104 -1.23679 -5.97943 0
M  V30 1829 H 179.518 -3.16559 -4.77978 0
M  V30 1830 H 177.915 -3.92059 -4.54324 0
M  V30 1831 H 178.985 -3.68729 -3.14908 0
M  V30 1832 N 180.328 1.1314 -1.09713 0
M  V30 1833 C 181.276 2.20717 -0.733934 0
M  V30 1834 C 182.27 1.6729 0.266506 0
M  V30 1835 O 183.476 1.79547 0.127656 0
M  V30 1836 H 179.851 0.719292 -0.21937 0
M  V30 1837 H 181.822 2.48611 -1.6503 0
M  V30 1838 C 180.571 3.47265 -0.173849 0
M  V30 1839 H 179.894 3.88716 -0.934873 0
M  V30 1840 H 181.334 4.23979 0.0423126 0
M  V30 1841 C 179.793 3.18724 1.09164 0
M  V30 1842 O 180.323 3.37762 2.17439 0
M  V30 1843 N 178.529 2.72583 1.00732 0
M  V30 1844 H 178.076 2.57291 0.126121 0
M  V30 1845 H 178.034 2.53862 1.85476 0
M  V30 1846 N 181.806 0.884767 1.30421 0
M  V30 1847 C 182.754 0.340869 2.30089 0
M  V30 1848 C 183.748 -0.55201 1.60154 0
M  V30 1849 O 184.954 -0.436467 1.74628 0
M  V30 1850 H 181.329 0.0915739 0.746404 0
M  V30 1851 H 183.3 1.19513 2.73421 0
M  V30 1852 C 182.049 -0.429779 3.45034 0
M  V30 1853 H 181.372 0.248024 3.9903 0
M  V30 1854 H 182.812 -0.775445 4.16849 0
M  V30 1855 C 181.271 -1.62677 2.95022 0
M  V30 1856 O 181.801 -2.72614 2.95033 0
M  V30 1857 N 180.007 -1.46387 2.51036 0
M  V30 1858 H 179.554 -0.569506 2.51226 0
M  V30 1859 H 179.512 -2.26612 2.17932 0
M  V30 1860 N 183.284 -1.43765 0.645699 0
M  V30 1861 C 184.53 -2.02197 0.156271 0
M  V30 1862 C 184.863 -1.50776 -1.22393 0
M  V30 1863 O 184.138 -0.697771 -1.81553 0
M  V30 1864 C 184.421 -3.59749 0.158872 0
M  V30 1865 C 184.274 -4.21419 1.57245 0
M  V30 1866 C 185.593 -4.37149 -0.50879 0
M  V30 1867 H 182.712 -0.734694 0.0582602 0
M  V30 1868 H 185.354 -1.71157 0.824951 0
M  V30 1869 H 183.504 -3.86325 -0.410525 0
M  V30 1870 H 185.176 -4.059 2.19186 0
M  V30 1871 H 183.419 -3.78356 2.122 0
M  V30 1872 H 184.09 -5.30482 1.52619 0
M  V30 1873 H 186.566 -4.16093 -0.024412 0
M  V30 1874 H 185.442 -5.4683 -0.476213 0
M  V30 1875 H 185.703 -4.12839 -1.58165 0
M  V30 1876 N 184.763 -0.387143 -1.52771 0
M  V30 1877 C 185.693 0.440551 -2.29306 0
M  V30 1878 C 186.674 1.06535 -1.32606 0
M  V30 1879 O 187.859 1.07853 -1.61497 0
M  V30 1880 C 184.989 1.56919 -3.09829 0
M  V30 1881 C 183.943 1.07054 -4.14395 0
M  V30 1882 C 183.269 2.29109 -4.83129 0
M  V30 1883 C 184.569 0.140015 -5.22112 0
M  V30 1884 H 186.263 -0.198026 -2.98744 0
M  V30 1885 H 183.809 -0.09668 -1.43675 0
M  V30 1886 H 185.762 2.15503 -3.62128 0
M  V30 1887 H 184.486 2.23532 -2.3812 0
M  V30 1888 H 183.145 0.507247 -3.63074 0
M  V30 1889 H 182.793 2.94227 -4.0797 0
M  V30 1890 H 182.493 1.96406 -5.53804 0
M  V30 1891 H 184.017 2.88339 -5.38231 0
M  V30 1892 H 185.431 0.633978 -5.69784 0
M  V30 1893 H 183.828 -0.0971485 -6.00021 0
M  V30 1894 H 184.898 -0.811711 -4.78058 0
M  V30 1895 N 186.241 1.57166 -0.116904 0
M  V30 1896 C 187.487 1.95412 0.542405 0
M  V30 1897 C 187.82 1.00019 1.66463 0
M  V30 1898 O 187.095 0.0370346 1.94465 0
M  V30 1899 C 187.378 3.43615 1.07708 0
M  V30 1900 C 187.231 4.49781 -0.0415868 0
M  V30 1901 C 188.55 3.93616 1.96861 0
M  V30 1902 H 185.669 0.710543 0.195696 0
M  V30 1903 H 188.311 1.89027 -0.192038 0
M  V30 1904 H 186.461 3.49187 1.70296 0
M  V30 1905 H 188.133 4.56308 -0.676793 0
M  V30 1906 H 186.376 4.28033 -0.705019 0
M  V30 1907 H 187.047 5.50733 0.373717 0
M  V30 1908 H 189.523 3.90335 1.44146 0
M  V30 1909 H 188.399 4.97838 2.3119 0
M  V30 1910 H 188.66 3.34188 2.89432 0
M  V30 1911 N 187.719 -0.156864 1.56817 0
M  V30 1912 C 188.629 -1.2136 2.00771 0
M  V30 1913 C 189.645 -1.47598 0.921459 0
M  V30 1914 O 190.821 -1.59462 1.2302 0
M  V30 1915 C 187.886 -2.52943 2.37109 0
M  V30 1916 C 186.947 -2.34439 3.59634 0
M  V30 1917 C 186.18 -3.59748 3.94229 0
M  V30 1918 O 186.403 -4.65526 3.29609 0
M  V30 1919 O 185.337 -3.52998 4.8752 0
M  V30 1920 H 189.163 -0.870468 2.90958 0
M  V30 1921 H 186.748 -0.36484 1.44877 0
M  V30 1922 H 188.63 -3.30538 2.61386 0
M  V30 1923 H 187.305 -2.86806 1.5008 0
M  V30 1924 H 186.212 -1.54828 3.40557 0
M  V30 1925 H 187.545 -2.05496 4.4725 0
M  V30 1926 N 189.197 -1.51736 -0.425897 0
M  V30 1927 C 190.613 -1.40166 -0.76326 0
M  V30 1928 C 190.813 -0.492962 -1.95377 0
M  V30 1929 O 189.869 0.0475815 -2.52455 0
M  V30 1930 C 191.182 -2.82403 -1.03291 0
M  V30 1931 C 192.73 -2.91632 -1.13665 0
M  V30 1932 C 193.205 -4.34801 -1.43916 0
M  V30 1933 N 194.696 -4.3796 -1.50816 0
M  V30 1934 C 195.431 -5.4578 -1.75817 0
M  V30 1935 N 194.927 -6.63744 -1.98534 0
M  V30 1936 N 196.72 -5.33274 -1.77694 0
M  V30 1937 H 188.871 -2.09361 0.358 0
M  V30 1938 H 191.134 -0.942941 0.0978094 0
M  V30 1939 H 190.84 -3.50943 -0.230696 0
M  V30 1940 H 190.714 -3.22428 -1.95754 0
M  V30 1941 H 193.101 -2.23284 -1.92947 0
M  V30 1942 H 193.182 -2.55088 -0.190756 0
M  V30 1943 H 192.826 -5.03703 -0.65157 0
M  V30 1944 H 192.756 -4.68868 -2.39729 0
M  V30 1945 H 195.247 -3.52919 -1.35118 0
M  V30 1946 H 195.56 -7.41704 -2.17013 0
M  V30 1947 H 193.905 -6.66839 -1.95832 0
M  V30 1948 H 197.096 -4.40098 -1.59473 0
M  V30 1949 H 197.269 -6.1738 -1.9684 0
M  V30 1950 N 190.675 0.682077 -1.42076 0
M  V30 1951 C 191.605 1.80796 -1.47767 0
M  V30 1952 C 192.586 1.6677 -0.334954 0
M  V30 1953 O 193.771 1.863 -0.548264 0
M  V30 1954 C 190.901 3.19038 -1.37229 0
M  V30 1955 C 189.855 3.47789 -2.49453 0
M  V30 1956 C 189.181 4.8553 -2.23975 0
M  V30 1957 C 190.481 3.45411 -3.91776 0
M  V30 1958 H 192.175 1.7629 -2.41997 0
M  V30 1959 H 189.721 0.846721 -1.16476 0
M  V30 1960 H 191.674 3.97528 -1.39821 0
M  V30 1961 H 190.398 3.24204 -0.394907 0
M  V30 1962 H 189.057 2.71657 -2.46166 0
M  V30 1963 H 188.705 4.87337 -1.24547 0
M  V30 1964 H 188.405 5.0573 -2.99184 0
M  V30 1965 H 189.929 5.66312 -2.28304 0
M  V30 1966 H 191.343 4.13882 -3.96705 0
M  V30 1967 H 189.74 3.77145 -4.66778 0
M  V30 1968 H 190.81 2.44122 -4.18966 0
M  V30 1969 N 192.153 1.28127 0.917671 0
M  V30 1970 C 193.381 1.17892 1.70026 0
M  V30 1971 C 193.796 -0.262958 1.8696 0
M  V30 1972 O 193.153 -1.17811 1.3938 0
M  V30 1973 C 193.204 1.86872 3.09453 0
M  V30 1974 O 192.925 3.25428 2.93306 0
M  V30 1975 C 194.426 1.8289 4.03815 0
M  V30 1976 H 191.646 0.40942 0.531617 0
M  V30 1977 H 194.19 1.69181 1.14883 0
M  V30 1978 H 192.345 1.39464 3.61426 0
M  V30 1979 H 192.759 3.59918 3.81523 0
M  V30 1980 H 194.233 2.35751 4.99125 0
M  V30 1981 H 194.71 0.800412 4.31845 0
M  V30 1982 H 195.316 2.29959 3.57769 0
M  V30 1983 N 193.631 -1.12557 1.10312 0
M  V30 1984 C 194.561 -2.20341 0.772798 0
M  V30 1985 C 195.542 -1.68198 -0.25365 0
M  V30 1986 O 196.727 -1.93831 -0.119699 0
M  V30 1987 C 193.857 -3.46709 0.202443 0
M  V30 1988 C 192.811 -4.11996 1.15943 0
M  V30 1989 C 192.137 -5.328 0.450345 0
M  V30 1990 C 193.437 -4.5828 2.50552 0
M  V30 1991 H 195.131 -2.48229 1.674 0
M  V30 1992 H 192.677 -1.19308 0.806326 0
M  V30 1993 H 194.63 -4.2138 -0.0407752 0
M  V30 1994 H 193.354 -3.18245 -0.734001 0
M  V30 1995 H 192.013 -3.39305 1.38808 0
M  V30 1996 H 191.661 -5.00602 -0.490531 0
M  V30 1997 H 191.361 -5.7743 1.08851 0
M  V30 1998 H 192.885 -6.10219 0.215642 0
M  V30 1999 H 194.299 -5.2433 2.31843 0
M  V30 2000 H 192.696 -5.13683 3.10242 0
M  V30 2001 H 193.766 -3.72329 3.10643 0
M  V30 2002 N 195.109 -0.891671 -1.2995 0
M  V30 2003 C 196.059 -0.334811 -2.25528 0
M  V30 2004 C 197.043 0.540553 -1.51548 0
M  V30 2005 O 198.235 0.383882 -1.72787 0
M  V30 2006 C 195.364 0.44374 -3.4042 0
M  V30 2007 C 194.45 -0.44609 -4.21747 0
M  V30 2008 N 194.841 -1.54963 -4.81477 0
M  V30 2009 C 193.139 -0.242415 -4.45341 0
M  V30 2010 C 193.84 -2.10015 -5.42465 0
M  V30 2011 N 192.816 -1.39423 -5.25416 0
M  V30 2012 H 196.618 -1.17792 -2.69262 0
M  V30 2013 H 194.132 -0.741822 -1.44467 0
M  V30 2014 H 196.129 0.859362 -4.07947 0
M  V30 2015 H 194.789 1.28421 -2.98225 0
M  V30 2016 H 195.8 -1.93244 -4.80497 0
M  V30 2017 H 192.477 0.560342 -4.13723 0
M  V30 2018 H 193.867 -3.02724 -5.9984 0
M  V30 2019 N 196.587 1.43421 -0.653314 0
M  V30 2020 C 197.815 2.06163 -0.174491 0
M  V30 2021 C 198.23 1.48969 1.1599 0
M  V30 2022 O 197.587 0.621042 1.71608 0
M  V30 2023 C 197.638 3.61417 -0.0774865 0
M  V30 2024 O 197.359 4.16485 -1.35912 0
M  V30 2025 C 198.86 4.41235 0.427402 0
M  V30 2026 H 196.08 0.664946 -0.0899353 0
M  V30 2027 H 198.624 1.83924 -0.893988 0
M  V30 2028 H 196.779 3.82841 0.59257 0
M  V30 2029 H 197.193 5.10153 -1.21839 0
M  V30 2030 H 198.667 5.5021 0.44423 0
M  V30 2031 H 199.144 4.14268 1.45873 0
M  V30 2032 H 199.75 4.2478 -0.210167 0
M  V30 2033 N 198.065 0.39524 1.52563 0
M  V30 2034 C 199.481 0.0454682 1.59535 0
M  V30 2035 C 199.681 -1.44056 1.4089 0
M  V30 2036 O 198.737 -2.20579 1.22888 0
M  V30 2037 C 200.05 0.527963 2.96029 0
M  V30 2038 C 201.598 0.484733 3.09224 0
M  V30 2039 C 202.073 0.943512 4.48176 0
M  V30 2040 N 203.564 0.899765 4.54377 0
M  V30 2041 C 204.299 1.22609 5.60138 0
M  V30 2042 N 203.795 1.62319 6.73516 0
M  V30 2043 N 205.588 1.14696 5.50274 0
M  V30 2044 H 197.739 1.36261 1.62931 0
M  V30 2045 H 200.002 0.558887 0.765735 0
M  V30 2046 H 199.708 1.56607 3.14908 0
M  V30 2047 H 199.582 -0.0698056 3.77135 0
M  V30 2048 H 201.969 -0.544298 2.90037 0
M  V30 2049 H 202.05 1.11838 2.30056 0
M  V30 2050 H 201.694 1.9708 4.68104 0
M  V30 2051 H 201.624 0.286817 5.25818 0
M  V30 2052 H 204.115 0.607632 3.72983 0
M  V30 2053 H 204.428 1.85567 7.5019 0
M  V30 2054 H 202.773 1.66211 6.74833 0
M  V30 2055 H 205.964 0.835701 4.6058 0
M  V30 2056 H 206.137 1.40459 6.32594 0
M  V30 2057 N 199.544 -1.57102 0.125237 0
M  V30 2058 C 200.793 -1.94582 -0.531095 0
M  V30 2059 C 201.106 -1.01126 -1.6743 0
M  V30 2060 O 202.312 -1.28097 -2.39381 0
M  V30 2061 C 200.768 -3.45839 -0.996164 0
M  V30 2062 C 200.376 -4.47842 0.118926 0
M  V30 2063 C 202.12 -3.92227 -1.62352 0
M  V30 2064 C 200.027 -5.90284 -0.363192 0
M  V30 2065 H 198.957 -0.726391 -0.20217 0
M  V30 2066 H 201.608 -1.82339 0.206092 0
M  V30 2067 H 199.99 -3.53338 -1.78796 0
M  V30 2068 H 201.164 -4.52018 0.895358 0
M  V30 2069 H 199.479 -4.11243 0.653324 0
M  V30 2070 H 202.076 -4.96069 -1.99548 0
M  V30 2071 H 202.419 -3.32552 -2.50429 0
M  V30 2072 H 202.952 -3.87554 -0.897019 0
M  V30 2073 H 199.691 -6.53728 0.481679 0
M  V30 2074 H 199.211 -5.89515 -1.10597 0
M  V30 2075 H 200.89 -6.41752 -0.822377 0
M  V30 2076 N 201.022 0.148545 -1.56898 0
M  V30 2077 C 202.25 0.876389 -1.87422 0
M  V30 2078 C 202.665 1.74809 -0.713256 0
M  V30 2079 O 202.022 1.79725 0.317025 0
M  V30 2080 C 202.073 1.73438 -3.17178 0
M  V30 2081 O 201.794 0.897809 -4.28802 0
M  V30 2082 C 203.295 2.56993 -3.61205 0
M  V30 2083 H 200.515 0.253489 -0.621277 0
M  V30 2084 H 203.059 0.141798 -2.04008 0
M  V30 2085 H 201.214 2.42205 -3.0235 0
M  V30 2086 H 201.628 1.48672 -5.02988 0
M  V30 2087 H 203.102 3.12773 -4.54838 0
M  V30 2088 H 203.579 3.32958 -2.86419 0
M  V30 2089 H 204.185 1.9352 -3.78722 0
M  V30 2090 N 202.5 1.5196 0.417844 0
M  V30 2091 C 203.463 1.74065 1.49111 0
M  V30 2092 C 204.463 0.610537 1.48758 0
M  V30 2093 O 205.653 0.87832 1.50437 0
M  V30 2094 C 202.785 1.81502 2.88565 0
M  V30 2095 H 203.978 2.69869 1.30807 0
M  V30 2096 H 201.531 1.42244 0.647785 0
M  V30 2097 H 202.266 0.875813 3.1225 0
M  V30 2098 H 202.051 2.63651 2.90225 0
M  V30 2099 H 203.541 2.00376 3.66387 0
M  V30 2100 N 203.978 -0.674533 1.42435 0
M  V30 2101 C 205.226 -1.43175 1.42637 0
M  V30 2102 C 205.547 -1.94951 0.0438992 0
M  V30 2103 O 204.817 -1.7308 -0.917607 0
M  V30 2104 H 203.397 -0.531307 0.525092 0
M  V30 2105 H 206.059 -0.797006 1.77859 0
M  V30 2106 H 205.155 -2.28463 2.12629 0
M  V30 2107 N 205.456 -1.28612 -0.910864 0
M  V30 2108 C 206.686 -1.1862 -1.69153 0
M  V30 2109 C 207.094 0.257324 -1.87442 0
M  V30 2110 O 206.437 1.18543 -1.40332 0
M  V30 2111 C 206.499 -1.81606 -3.10257 0
M  V30 2112 C 206.163 -3.30864 -3.15243 0
M  V30 2113 C 207.16 -4.27256 -2.96223 0
M  V30 2114 C 204.845 -3.71871 -3.37664 0
M  V30 2115 C 206.839 -5.62631 -2.99541 0
M  V30 2116 C 204.526 -5.07371 -3.40614 0
M  V30 2117 C 205.524 -6.02561 -3.21573 0
M  V30 2118 O 205.212 -7.35589 -3.2429 0
M  V30 2119 H 204.944 -0.412633 -0.535453 0
M  V30 2120 H 207.498 -1.70306 -1.14827 0
M  V30 2121 H 205.728 -1.24418 -3.66138 0
M  V30 2122 H 207.417 -1.66092 -3.70362 0
M  V30 2123 H 208.183 -3.9691 -2.78725 0
M  V30 2124 H 204.062 -2.98241 -3.5153 0
M  V30 2125 H 207.606 -6.36907 -2.84597 0
M  V30 2126 H 203.503 -5.37366 -3.57642 0
M  V30 2127 H 204.271 -7.44252 -3.40633 0
M  V30 2128 N 206.934 1.1197 -1.10907 0
M  V30 2129 C 207.864 2.19928 -0.784473 0
M  V30 2130 C 208.845 1.6833 0.244726 0
M  V30 2131 O 210.03 1.93892 0.109418 0
M  V30 2132 C 207.16 3.46597 -0.220827 0
M  V30 2133 C 206.114 4.11376 -1.18127 0
M  V30 2134 C 205.44 5.32554 -0.478594 0
M  V30 2135 C 206.74 4.56945 -2.52979 0
M  V30 2136 H 208.434 2.47337 -1.68715 0
M  V30 2137 H 205.98 1.18879 -0.812642 0
M  V30 2138 H 207.933 4.21396 0.0184278 0
M  V30 2139 H 206.657 3.1863 0.717113 0
M  V30 2140 H 205.316 3.38564 -1.40606 0
M  V30 2141 H 204.964 5.00856 0.463976 0
M  V30 2142 H 204.664 5.76844 -1.11912 0
M  V30 2143 H 206.188 6.10096 -0.248 0
M  V30 2144 H 207.602 5.23093 -2.3462 0
M  V30 2145 H 205.999 5.1203 -3.12962 0
M  V30 2146 H 207.069 3.70676 -3.12614 0
M  V30 2147 N 208.412 0.89855 1.29475 0
M  V30 2148 C 209.342 0.39201 2.30186 0
M  V30 2149 C 210.323 -0.532359 1.61555 0
M  V30 2150 O 211.508 -0.443331 1.89072 0
M  V30 2151 C 208.638 -0.382353 3.45189 0
M  V30 2152 C 207.592 0.451483 4.25612 0
M  V30 2153 C 206.918 -0.450307 5.328 0
M  V30 2154 C 208.218 1.70079 4.93832 0
M  V30 2155 H 209.912 1.23362 2.72804 0
M  V30 2156 H 207.458 0.594638 1.31149 0
M  V30 2157 H 209.411 -0.747451 4.14718 0
M  V30 2158 H 208.135 -1.25774 3.01411 0
M  V30 2159 H 206.794 0.798897 3.57789 0
M  V30 2160 H 206.442 -1.32379 4.85268 0
M  V30 2161 H 206.142 0.103902 5.87508 0
M  V30 2162 H 207.666 -0.811623 6.05182 0
M  V30 2163 H 209.08 1.40549 5.55805 0
M  V30 2164 H 207.477 2.19623 5.58467 0
M  V30 2165 H 208.547 2.43744 4.19186 0
M  V30 2166 N 209.89 -1.43072 0.660911 0
M  V30 2167 C 210.853 -2.29194 -0.0166406 0
M  V30 2168 C 211.853 -1.42609 -0.742912 0
M  V30 2169 O 213.043 -1.64155 -0.583004 0
M  V30 2170 C 210.175 -3.24831 -1.0343 0
M  V30 2171 H 211.368 -2.90596 0.741208 0
M  V30 2172 H 208.921 -1.5048 0.422532 0
M  V30 2173 H 209.656 -2.68339 -1.82111 0
M  V30 2174 H 209.441 -3.88676 -0.517082 0
M  V30 2175 H 210.931 -3.89451 -1.50723 0
M  V30 2176 N 211.368 -0.403325 -1.52352 0
M  V30 2177 C 212.298 0.416205 -2.29761 0
M  V30 2178 C 213.279 1.05123 -1.33728 0
M  V30 2179 O 214.464 1.06134 -1.62632 0
M  V30 2180 C 211.594 1.53624 -3.11475 0
M  V30 2181 C 210.548 1.02653 -4.15507 0
M  V30 2182 C 209.874 2.23971 -4.85532 0
M  V30 2183 C 211.174 0.08463 -5.22231 0
M  V30 2184 H 212.868 -0.229701 -2.98518 0
M  V30 2185 H 210.414 -0.111913 -1.43564 0
M  V30 2186 H 212.367 2.1165 -3.64393 0
M  V30 2187 H 211.091 2.20994 -2.40477 0
M  V30 2188 H 209.75 0.46871 -3.63591 0
M  V30 2189 H 209.398 2.89883 -4.11068 0
M  V30 2190 H 209.098 1.90521 -5.55856 0
M  V30 2191 H 210.622 2.82614 -5.41259 0
M  V30 2192 H 212.036 0.573509 -5.70424 0
M  V30 2193 H 210.433 -0.160783 -5.99885 0
M  V30 2194 H 211.503 -0.86237 -4.7717 0
M  V30 2195 N 212.846 1.57033 -0.133567 0
M  V30 2196 C 214.094 1.953 0.519848 0
M  V30 2197 C 214.415 1.01866 1.66278 0
M  V30 2198 O 213.685 0.0776513 1.95746 0
M  V30 2199 H 212.265 0.721091 0.195032 0
M  V30 2200 H 214.927 1.93809 -0.205921 0
M  V30 2201 H 214.023 2.98695 0.904854 0
M  V30 2202 N 214.325 -0.140222 1.56975 0
M  V30 2203 C 215.736 -0.699596 1.73097 0
M  V30 2204 C 216.087 -1.8134 0.749022 0
M  V30 2205 O 215.212 -2.16241 -0.0828503 0
M  V30 2206 C 215.807 -1.27582 3.1386 0
M  V30 2207 C 214.366 -1.78169 3.31561 0
M  V30 2208 C 213.513 -0.672855 2.69013 0
M  V30 2209 H 216.464 0.0855115 1.58469 0
M  V30 2210 H 216.485 -2.14561 3.14235 0
M  V30 2211 H 215.997 -0.464955 3.85305 0
M  V30 2212 H 214.098 -2.61801 2.65124 0
M  V30 2213 H 214.211 -1.90574 4.39566 0
M  V30 2214 H 212.575 -1.10118 2.29665 0
M  V30 2215 H 213.358 0.126679 3.43066 0
M  V30 2216 N 215.803 -1.52179 -0.40978 0
M  V30 2217 C 216.733 -1.78435 -1.5061 0
M  V30 2218 C 217.714 -0.635295 -1.57791 0
M  V30 2219 O 218.899 -0.880823 -1.73076 0
M  V30 2220 C 216.029 -1.93444 -2.88439 0
M  V30 2221 C 214.983 -3.09038 -2.96108 0
M  V30 2222 C 214.309 -3.09268 -4.36185 0
M  V30 2223 C 215.609 -4.48508 -2.67652 0
M  V30 2224 H 217.303 -2.70237 -1.28889 0
M  V30 2225 H 214.849 -1.30036 -0.618605 0
M  V30 2226 H 216.802 -2.10394 -3.65119 0
M  V30 2227 H 215.526 -0.983129 -3.11452 0
M  V30 2228 H 214.185 -2.91837 -2.21872 0
M  V30 2229 H 213.833 -2.11861 -4.56206 0
M  V30 2230 H 213.533 -3.86907 -4.42241 0
M  V30 2231 H 215.057 -3.28348 -5.14801 0
M  V30 2232 H 216.471 -4.65918 -3.34056 0
M  V30 2233 H 214.868 -5.28059 -2.85085 0
M  V30 2234 H 215.938 -4.56649 -1.63095 0
M  V30 2235 N 217.281 0.66697 -1.42791 0
M  V30 2236 C 218.211 1.79218 -1.49677 0
M  V30 2237 C 219.192 1.66405 -0.352623 0
M  V30 2238 O 220.377 1.85708 -0.567993 0
M  V30 2239 C 217.507 3.17565 -1.40605 0
M  V30 2240 C 216.461 3.45124 -2.53127 0
M  V30 2241 C 215.787 4.83127 -2.29112 0
M  V30 2242 C 217.087 3.41236 -3.95418 0
M  V30 2243 H 218.781 1.73713 -2.43853 0
M  V30 2244 H 216.327 0.83432 -1.17367 0
M  V30 2245 H 218.28 3.96022 -1.44029 0
M  V30 2246 H 217.004 3.23767 -0.429271 0
M  V30 2247 H 215.663 2.69031 -2.49034 0
M  V30 2248 H 215.311 4.85988 -1.29709 0
M  V30 2249 H 215.011 5.02528 -3.04531 0
M  V30 2250 H 216.535 5.63859 -2.34297 0
M  V30 2251 H 217.949 4.09651 -4.01073 0
M  V30 2252 H 216.346 3.72173 -4.70752 0
M  V30 2253 H 217.416 2.39665 -4.21532 0
M  V30 2254 N 218.759 1.29093 0.90403 0
M  V30 2255 C 220.006 1.16813 1.65411 0
M  V30 2256 C 220.334 -0.28128 1.92455 0
M  V30 2257 O 219.589 -1.22006 1.53013 0
M  V30 2258 C 219.888 1.92224 3.01305 0
M  V30 2259 C 219.554 3.41968 2.93885 0
M  V30 2260 C 218.216 3.82807 2.91569 0
M  V30 2261 C 220.568 4.37409 2.83413 0
M  V30 2262 C 217.896 5.1741 2.76594 0
M  V30 2263 C 220.248 5.72097 2.69977 0
M  V30 2264 C 218.912 6.12199 2.66024 0
M  V30 2265 H 218.182 0.42745 0.605283 0
M  V30 2266 H 220.829 1.59981 1.05254 0
M  V30 2267 H 219.134 1.41635 3.65304 0
M  V30 2268 H 220.831 1.80131 3.58265 0
M  V30 2269 H 217.421 3.09504 2.96488 0
M  V30 2270 H 221.605 4.06813 2.84283 0
M  V30 2271 H 216.861 5.47596 2.71935 0
M  V30 2272 H 221.035 6.45704 2.60844 0
M  V30 2273 H 218.662 7.16448 2.54178 0
M  V30 2274 N 220.237 -1.11381 1.11499 0
M  V30 2275 C 221.486 -1.82494 0.858993 0
M  V30 2276 C 221.799 -1.85605 -0.617278 0
M  V30 2277 O 223.005 -2.52824 -0.989552 0
M  V30 2278 C 221.461 -3.27745 1.48699 0
M  V30 2279 C 221.069 -3.32961 2.99735 0
M  V30 2280 C 222.813 -4.03754 1.31085 0
M  V30 2281 C 220.72 -4.72612 3.55516 0
M  V30 2282 H 219.65 -0.683802 0.317696 0
M  V30 2283 H 222.301 -1.25331 1.34031 0
M  V30 2284 H 220.683 -3.84844 0.933339 0
M  V30 2285 H 221.857 -2.85741 3.61509 0
M  V30 2286 H 220.172 -2.70433 3.16631 0
M  V30 2287 H 222.769 -5.06891 1.70192 0
M  V30 2288 H 223.112 -4.15527 0.253496 0
M  V30 2289 H 223.645 -3.53043 1.83318 0
M  V30 2290 H 220.384 -4.66036 4.60967 0
M  V30 2291 H 219.904 -5.2024 2.98513 0
M  V30 2292 H 221.583 -5.4157 3.53992 0
M  V30 2293 N 221.715 -0.905404 -1.28997 0
M  V30 2294 C 222.94 -0.549175 -1.99997 0
M  V30 2295 C 223.365 0.860276 -1.67275 0
M  V30 2296 O 222.723 1.57355 -0.900502 0
M  V30 2297 C 222.771 -0.755185 -3.52604 0
M  V30 2298 O 221.875 0.189692 -4.11964 0
M  V30 2299 H 221.216 -0.213899 -0.628604 0
M  V30 2300 H 223.746 -1.21856 -1.64354 0
M  V30 2301 H 223.756 -0.662045 -4.02593 0
M  V30 2302 H 222.431 -1.78271 -3.75755 0
M  V30 2303 H 221.008 0.0485257 -3.72868 0
M  V30 2304 N 223.193 1.4272 -0.668489 0
M  V30 2305 C 224.442 2.00846 -0.185389 0
M  V30 2306 C 224.755 1.53442 1.21305 0
M  V30 2307 O 225.961 2.03944 1.79218 0
M  V30 2308 C 224.417 3.58805 -0.280591 0
M  V30 2309 C 224.025 4.15198 -1.68268 0
M  V30 2310 C 225.769 4.24255 0.14412 0
M  V30 2311 C 223.676 5.655 -1.73099 0
M  V30 2312 H 222.606 0.751145 -0.0655475 0
M  V30 2313 H 225.257 1.63516 -0.832752 0
M  V30 2314 H 223.639 3.93608 0.434553 0
M  V30 2315 H 224.813 3.91866 -2.42441 0
M  V30 2316 H 223.128 3.62176 -2.05469 0
M  V30 2317 H 225.725 5.34547 0.128086 0
M  V30 2318 H 226.068 3.99277 1.17827 0
M  V30 2319 H 226.601 3.94389 -0.519798 0
M  V30 2320 H 223.34 5.95268 -2.74475 0
M  V30 2321 H 222.86 5.90842 -1.03274 0
M  V30 2322 H 224.539 6.29808 -1.48158 0
M  V30 2323 N 224.671 0.411399 1.52136 0
M  V30 2324 C 225.911 -0.163143 2.03748 0
M  V30 2325 C 226.275 -1.42187 1.29022 0
M  V30 2326 O 227.476 -2.075 1.70872 0
M  V30 2327 C 225.747 -0.402651 3.55125 0
M  V30 2328 S 227.306 -0.944315 4.28519 0
M  V30 2329 H 224.124 -0.0439833 0.709638 0
M  V30 2330 H 226.726 0.56484 1.87163 0
M  V30 2331 H 225.43 0.520212 4.0709 0
M  V30 2332 H 224.961 -1.15844 3.75957 0
M  V30 2333 H 226.976 -2.22463 4.43536 0
M  V30 2334 N 226.149 -1.5696 0.141893 0
M  V30 2335 C 227.426 -1.87553 -0.555281 0
M  V30 2336 C 227.806 -1.04699 -1.83306 0
M  V30 2337 O 227.154 -0.132346 -2.28116 0
M  V30 2338 C 227.364 -3.39093 -0.825664 0
M  V30 2339 C 228.712 -4.08199 -1.16869 0
M  V30 2340 O 229.736 -3.44242 -0.915185 0
M  V30 2341 O 228.595 -5.21139 -1.6455 0
M  V30 2342 H 225.689 -0.777188 -0.282679 0
M  V30 2343 H 228.235 -1.68763 0.17812 0
M  V30 2344 H 227.007 -3.91221 0.0788633 0
M  V30 2345 H 226.63 -3.63393 -1.61343 0
M  V30 2346 N 227.627 0.131896 -1.57047 0
M  V30 2347 C 228.873 0.843179 -1.84441 0
M  V30 2348 C 229.206 1.80129 -0.725749 0
M  V30 2349 O 228.481 1.92624 0.269469 0
M  V30 2350 C 228.764 1.60442 -3.22382 0
M  V30 2351 C 228.617 0.666782 -4.4483 0
M  V30 2352 C 229.936 2.56354 -3.5773 0
M  V30 2353 H 227.055 0.305081 -0.670891 0
M  V30 2354 H 229.697 0.107839 -1.89694 0
M  V30 2355 H 227.847 2.23128 -3.18035 0
M  V30 2356 H 229.519 0.0497646 -4.61273 0
M  V30 2357 H 227.762 -0.022609 -4.33794 0
M  V30 2358 H 228.433 1.23579 -5.37989 0
M  V30 2359 H 230.909 2.0378 -3.62785 0
M  V30 2360 H 229.785 3.06657 -4.5525 0
M  V30 2361 H 230.046 3.38419 -2.84473 0
M  V30 2362 N 229.106 1.52395 0.401703 0
M  V30 2363 C 230.352 1.68019 1.14635 0
M  V30 2364 C 230.707 0.408722 1.88009 0
M  V30 2365 O 230 -0.597133 1.82057 0
M  V30 2366 C 230.194 2.84578 2.16217 0
M  V30 2367 C 230.023 4.22938 1.5282 0
M  V30 2368 C 228.793 4.88352 1.29772 0
M  V30 2369 C 230.991 5.04778 0.985094 0
M  V30 2370 N 228.973 6.10726 0.623455 0
M  V30 2371 C 230.344 6.1845 0.438172 0
M  V30 2372 C 232.399 4.90057 0.880275 0
M  V30 2373 C 231.102 7.19013 -0.203306 0
M  V30 2374 C 233.128 5.9086 0.252639 0
M  V30 2375 C 232.49 7.03829 -0.283573 0
M  V30 2376 H 228.589 0.668413 0.405892 0
M  V30 2377 H 231.173 1.89717 0.437674 0
M  V30 2378 H 229.344 2.64483 2.84435 0
M  V30 2379 H 231.076 2.89202 2.83098 0
M  V30 2380 H 227.831 4.46846 1.56926 0
M  V30 2381 H 228.255 6.76323 0.302733 0
M  V30 2382 H 232.897 4.02938 1.28065 0
M  V30 2383 H 230.615 8.05751 -0.615726 0
M  V30 2384 H 234.201 5.81543 0.172954 0
M  V30 2385 H 233.081 7.80493 -0.761575 0
M  V30 2386 N 230.584 -0.659388 1.43143 0
M  V30 2387 C 231.514 -1.78422 1.50625 0
M  V30 2388 C 232.495 -1.66216 0.361443 0
M  V30 2389 O 233.68 -1.85404 0.577834 0
M  V30 2390 C 230.81 -3.16815 1.42287 0
M  V30 2391 C 229.764 -3.43777 2.54954 0
M  V30 2392 C 229.09 -4.81905 2.31671 0
M  V30 2393 C 230.39 -3.39134 3.97222 0
M  V30 2394 H 232.084 -1.72417 2.44771 0
M  V30 2395 H 229.63 -0.828084 1.17808 0
M  V30 2396 H 231.583 -3.95253 1.46127 0
M  V30 2397 H 230.307 -3.23534 0.446435 0
M  V30 2398 H 228.966 -2.67707 2.50457 0
M  V30 2399 H 228.614 -4.85294 1.32284 0
M  V30 2400 H 228.314 -5.00906 3.07192 0
M  V30 2401 H 229.838 -5.62609 2.37284 0
M  V30 2402 H 231.252 -4.07518 4.03239 0
M  V30 2403 H 229.649 -3.69671 4.72719 0
M  V30 2404 H 230.719 -2.37426 4.22797 0
M  V30 2405 N 232.062 -1.29571 -0.897171 0
M  V30 2406 C 232.994 -1.10724 -2.00681 0
M  V30 2407 C 234.007 -0.0540026 -1.6271 0
M  V30 2408 O 235.196 -0.298783 -1.75982 0
M  V30 2409 C 232.296 -0.663912 -3.32333 0
M  V30 2410 C 231.469 -1.79622 -3.98816 0
M  V30 2411 C 230.528 -1.34349 -5.0876 0
M  V30 2412 O 229.554 -2.04864 -5.31055 0
M  V30 2413 N 230.756 -0.215764 -5.80099 0
M  V30 2414 H 233.521 -2.06291 -2.17403 0
M  V30 2415 H 231.082 -1.21544 -1.06951 0
M  V30 2416 H 233.074 -0.344295 -4.03233 0
M  V30 2417 H 231.644 0.199375 -3.11964 0
M  V30 2418 H 230.864 -2.28459 -3.21248 0
M  V30 2419 H 232.152 -2.55535 -4.39976 0
M  V30 2420 H 231.55 0.372091 -5.64475 0
M  V30 2421 H 230.107 0.0444707 -6.51785 0
M  V30 2422 N 233.54 1.10788 -1.12088 0
M  V30 2423 C 234.47 2.19083 -0.807755 0
M  V30 2424 C 235.451 1.6858 0.226859 0
M  V30 2425 O 236.636 1.93997 0.0888475 0
M  V30 2426 C 233.766 3.46344 -0.257576 0
M  V30 2427 C 232.72 4.101 -1.22483 0
M  V30 2428 C 232.046 5.32016 -0.535052 0
M  V30 2429 C 233.346 4.54236 -2.57811 0
M  V30 2430 H 235.04 2.45534 -1.71328 0
M  V30 2431 H 232.586 1.1801 -0.825205 0
M  V30 2432 H 234.539 4.21392 -0.0262679 0
M  V30 2433 H 233.263 3.19373 0.683278 0
M  V30 2434 H 231.922 3.37054 -1.44189 0
M  V30 2435 H 231.57 5.01319 0.410827 0
M  V30 2436 H 231.27 5.75625 -1.18024 0
M  V30 2437 H 232.794 6.09799 -0.312695 0
M  V30 2438 H 234.208 5.20575 -2.40155 0
M  V30 2439 H 232.605 5.08682 -3.18375 0
M  V30 2440 H 233.675 3.6734 -3.16528 0
M  V30 2441 N 235.018 0.912232 1.28515 0
M  V30 2442 C 236.265 0.544599 1.95039 0
M  V30 2443 C 236.593 -0.911435 1.71823 0
M  V30 2444 O 235.848 -1.66317 1.03137 0
M  V30 2445 C 236.147 0.798392 3.48368 0
M  V30 2446 C 235.813 2.23374 3.91682 0
M  V30 2447 C 234.475 2.62617 4.03219 0
M  V30 2448 C 236.827 3.16786 4.13879 0
M  V30 2449 C 234.155 3.94429 4.3433 0
M  V30 2450 C 236.507 4.48161 4.46469 0
M  V30 2451 C 235.171 4.8726 4.56217 0
M  V30 2452 H 234.441 0.199283 0.7137 0
M  V30 2453 H 237.088 1.15327 1.52879 0
M  V30 2454 H 235.393 0.106908 3.91654 0
M  V30 2455 H 237.09 0.493141 3.97956 0
M  V30 2456 H 233.68 1.91922 3.83228 0
M  V30 2457 H 237.864 2.87677 4.0442 0
M  V30 2458 H 233.12 4.24426 4.40082 0
M  V30 2459 H 237.294 5.20559 4.62592 0
M  V30 2460 H 234.921 5.89431 4.80078 0
M  V30 2461 N 236.496 -1.42363 0.676048 0
M  V30 2462 C 237.721 -2.06377 0.205705 0
M  V30 2463 C 238.146 -1.50463 -1.12883 0
M  V30 2464 O 237.504 -0.623619 -1.70237 0
M  V30 2465 C 237.552 -3.60277 0.152655 0
M  V30 2466 O 236.656 -4.02935 -0.87845 0
M  V30 2467 H 235.997 -0.655588 0.105359 0
M  V30 2468 H 238.527 -1.82475 0.925412 0
M  V30 2469 H 238.537 -4.07993 -0.0230675 0
M  V30 2470 H 237.212 -4.00346 1.12675 0
M  V30 2471 H 235.789 -3.66764 -0.673668 0
M  V30 2472 N 237.974 -0.419461 -1.51915 0
M  V30 2473 C 239.39 -0.0708431 -1.59443 0
M  V30 2474 C 239.59 1.41796 -1.43164 0
M  V30 2475 O 238.646 2.18596 -1.26381 0
M  V30 2476 C 239.959 -0.574991 -2.95151 0
M  V30 2477 C 241.507 -0.533867 -3.08413 0
M  V30 2478 C 241.982 -1.01469 -4.46618 0
M  V30 2479 N 243.473 -0.971939 -4.52888 0
M  V30 2480 C 244.208 -1.31505 -5.58116 0
M  V30 2481 N 243.704 -1.73014 -6.70849 0
M  V30 2482 N 245.497 -1.23436 -5.48379 0
M  V30 2483 H 237.648 -1.38836 -1.60743 0
M  V30 2484 H 239.911 -0.570998 -0.756747 0
M  V30 2485 H 239.617 -1.61597 -3.12377 0
M  V30 2486 H 239.491 0.00979777 -3.77199 0
M  V30 2487 H 241.878 0.498086 -2.90866 0
M  V30 2488 H 241.959 -1.15484 -2.28248 0
M  V30 2489 H 241.603 -2.04502 -4.6491 0
M  V30 2490 H 241.533 -0.370433 -5.25295 0
M  V30 2491 H 244.024 -0.666893 -3.71969 0
M  V30 2492 H 244.337 -1.97479 -7.47143 0
M  V30 2493 H 242.682 -1.76926 -6.72103 0
M  V30 2494 H 245.873 -0.908869 -4.59192 0
M  V30 2495 H 246.046 -1.50506 -6.30279 0
M  V30 2496 N 239.452 1.56882 -0.150215 0
M  V30 2497 C 240.729 1.87844 0.545327 0
M  V30 2498 C 241.109 1.0567 1.82749 0
M  V30 2499 O 240.457 0.144442 2.28043 0
M  V30 2500 C 240.667 3.39526 0.80767 0
M  V30 2501 C 242.015 4.08814 1.14703 0
M  V30 2502 O 243.039 3.44723 0.896917 0
M  V30 2503 O 241.898 5.22004 1.61784 0
M  V30 2504 H 238.992 0.778677 0.278553 0
M  V30 2505 H 241.538 1.68666 -0.187068 0
M  V30 2506 H 240.31 3.91173 -0.0996096 0
M  V30 2507 H 239.933 3.64243 1.59413 0
M  V30 2508 N 240.93 -0.123565 1.57115 0
M  V30 2509 C 241.862 -1.17739 1.96648 0
M  V30 2510 C 242.875 -1.37906 0.865201 0
M  V30 2511 O 244.064 -1.37062 1.14351 0
M  V30 2512 C 241.164 -2.53821 2.24562 0
M  V30 2513 C 240.337 -2.54317 3.55867 0
M  V30 2514 C 239.396 -3.72112 3.72047 0
M  V30 2515 O 238.422 -3.55907 4.44206 0
M  V30 2516 N 239.624 -4.90498 3.10471 0
M  V30 2517 H 242.389 -0.841147 2.87654 0
M  V30 2518 H 239.95 -0.31289 1.58848 0
M  V30 2519 H 241.942 -3.31175 2.32606 0
M  V30 2520 H 240.512 -2.79645 1.39705 0
M  V30 2521 H 239.732 -1.62711 3.59053 0
M  V30 2522 H 241.02 -2.51701 4.42181 0
M  V30 2523 H 240.418 -5.06567 2.51806 0
M  V30 2524 H 238.975 -5.65544 3.24043 0
M  V30 2525 N 242.408 -1.52605 -0.393616 0
M  V30 2526 C 243.371 -1.76415 -1.46323 0
M  V30 2527 C 244.371 -0.634126 -1.47768 0
M  V30 2528 O 245.561 -0.902142 -1.4902 0
M  V30 2529 C 242.693 -1.8607 -2.85641 0
M  V30 2530 H 243.886 -2.71916 -1.26498 0
M  V30 2531 H 241.439 -1.43257 -0.625073 0
M  V30 2532 H 242.174 -0.925378 -3.10817 0
M  V30 2533 H 241.959 -2.68235 -2.85993 0
M  V30 2534 H 243.449 -2.06179 -3.63153 0
M  V30 2535 N 243.887 0.651787 -1.4349 0
M  V30 2536 C 245.117 1.43728 -1.48411 0
M  V30 2537 C 245.525 1.8893 -0.10103 0
M  V30 2538 O 244.868 1.60182 0.899307 0
M  V30 2539 C 244.93 2.70411 -2.36893 0
M  V30 2540 C 244.594 2.4714 -3.8441 0
M  V30 2541 C 245.591 2.10271 -4.75481 0
M  V30 2542 C 243.276 2.6142 -4.28912 0
M  V30 2543 C 245.27 1.87982 -6.0905 0
M  V30 2544 C 242.957 2.38746 -5.62533 0
M  V30 2545 C 243.955 2.02083 -6.5242 0
M  V30 2546 O 243.643 1.79647 -7.8357 0
M  V30 2547 H 243.375 0.447962 -0.506267 0
M  V30 2548 H 245.929 0.80624 -1.88915 0
M  V30 2549 H 244.159 3.36079 -1.91278 0
M  V30 2550 H 245.848 3.32364 -2.33 0
M  V30 2551 H 246.614 1.98814 -4.42378 0
M  V30 2552 H 242.493 2.88931 -3.59222 0
M  V30 2553 H 246.037 1.5929 -6.7917 0
M  V30 2554 H 241.934 2.49806 -5.95203 0
M  V30 2555 H 242.702 1.9406 -7.95162 0
M  V30 2556 N 245.365 1.30045 0.890287 0
M  V30 2557 C 246.328 1.15963 1.977 0
M  V30 2558 C 247.328 0.0923777 1.60534 0
M  V30 2559 O 248.518 0.340071 1.70848 0
M  V30 2560 C 245.65 0.775451 3.31963 0
M  V30 2561 H 246.843 2.12502 2.11619 0
M  V30 2562 H 244.396 1.13366 1.07601 0
M  V30 2563 H 245.131 -0.189671 3.23745 0
M  V30 2564 H 244.916 1.54668 3.60306 0
M  V30 2565 H 246.406 0.700251 4.11687 0
M  V30 2566 N 246.843 -1.10192 1.12674 0
M  V30 2567 C 248.092 -1.81573 0.8783 0
M  V30 2568 C 248.405 -1.86249 -0.597557 0
M  V30 2569 O 249.611 -2.5386 -0.962681 0
M  V30 2570 C 248.067 -3.26149 1.52167 0
M  V30 2571 C 247.675 -3.29763 3.03249 0
M  V30 2572 C 249.419 -4.0234 1.3536 0
M  V30 2573 C 247.326 -4.68815 3.60508 0
M  V30 2574 H 246.256 -0.680394 0.324931 0
M  V30 2575 H 248.907 -1.23902 1.35353 0
M  V30 2576 H 247.289 -3.83832 0.974104 0
M  V30 2577 H 248.463 -2.8189 3.6452 0
M  V30 2578 H 246.778 -2.67059 3.19481 0
M  V30 2579 H 249.375 -5.05058 1.75559 0
M  V30 2580 H 249.718 -4.15235 0.297554 0
M  V30 2581 H 250.251 -3.51079 1.87052 0
M  V30 2582 H 246.99 -4.61121 4.65884 0
M  V30 2583 H 246.51 -5.17045 3.04014 0
M  V30 2584 H 248.189 -5.37785 3.59717 0
M  V30 2585 N 248.321 -0.919034 -1.28029 0
M  V30 2586 C 249.269 -0.401753 -2.29104 0
M  V30 2587 C 250.263 0.509354 -1.61561 0
M  V30 2588 O 251.469 0.390014 -1.75724 0
M  V30 2589 H 247.844 -0.111331 -0.743713 0
M  V30 2590 H 249.815 -1.2672 -2.70156 0
M  V30 2591 C 248.564 0.338148 -3.46052 0
M  V30 2592 H 247.887 -0.353732 -3.98232 0
M  V30 2593 H 249.327 0.664653 -4.18758 0
M  V30 2594 C 247.786 1.54798 -2.99231 0
M  V30 2595 O 248.316 2.64696 -3.02157 0
M  V30 2596 N 246.522 1.3968 -2.54829 0
M  V30 2597 H 246.069 0.502698 -2.52647 0
M  V30 2598 H 246.027 2.20755 -2.23863 0
M  V30 2599 N 249.799 1.42003 -0.683588 0
M  V30 2600 C 250.729 2.33487 -0.024866 0
M  V30 2601 C 251.71 1.51163 0.779975 0
M  V30 2602 O 252.895 1.79739 0.735362 0
M  V30 2603 C 250.025 3.3487 0.920836 0
M  V30 2604 C 248.979 4.27414 0.223958 0
M  V30 2605 C 248.305 5.19074 1.2832 0
M  V30 2606 C 249.605 5.14445 -0.90242 0
M  V30 2607 H 251.299 2.88819 -0.788921 0
M  V30 2608 H 248.845 1.38873 -0.38083 0
M  V30 2609 H 250.798 3.97787 1.39081 0
M  V30 2610 H 249.522 2.77861 1.71642 0
M  V30 2611 H 248.181 3.65904 -0.225864 0
M  V30 2612 H 247.829 4.58387 2.071 0
M  V30 2613 H 247.529 5.81822 0.821995 0
M  V30 2614 H 249.053 5.84867 1.75392 0
M  V30 2615 H 250.467 5.70998 -0.513272 0
M  V30 2616 H 248.864 5.86072 -1.28997 0
M  V30 2617 H 249.934 4.52322 -1.74737 0
M  V30 2618 N 251.277 0.427512 1.51691 0
M  V30 2619 C 252.24 -0.377132 2.26076 0
M  V30 2620 C 253.24 -0.958089 1.29141 0
M  V30 2621 O 254.43 -0.83408 1.52934 0
M  V30 2622 C 251.562 -1.53262 3.04506 0
M  V30 2623 H 252.755 0.27464 2.9864 0
M  V30 2624 H 250.308 0.180445 1.55255 0
M  V30 2625 H 251.043 -2.22072 2.36335 0
M  V30 2626 H 250.828 -1.12232 3.75694 0
M  V30 2627 H 252.318 -2.10135 3.60878 0
M  V30 2628 N 252.755 -1.56801 0.158532 0
M  V30 2629 C 253.718 -2.16138 -0.762705 0
M  V30 2630 C 254.718 -1.1061 -1.16713 0
M  V30 2631 O 255.908 -1.36191 -1.08617 0
M  V30 2632 C 253.04 -2.73386 -2.03649 0
M  V30 2633 H 254.233 -2.98886 -0.246354 0
M  V30 2634 H 251.786 -1.56035 -0.0909744 0
M  V30 2635 H 252.521 -1.94335 -2.59623 0
M  V30 2636 H 252.306 -3.50601 -1.75559 0
M  V30 2637 H 253.796 -3.19065 -2.6942 0
M  V30 2638 N 254.233 0.115231 -1.57178 0
M  V30 2639 C 255.479 0.82357 -1.85325 0
M  V30 2640 C 255.812 1.79349 -0.744814 0
M  V30 2641 O 255.087 1.92899 0.249024 0
M  V30 2642 C 255.37 1.57014 -3.24066 0
M  V30 2643 C 255.223 0.619565 -4.45513 0
M  V30 2644 C 256.542 2.52545 -3.60429 0
M  V30 2645 H 253.661 0.297948 -0.674089 0
M  V30 2646 H 256.303 0.0877138 -1.89797 0
M  V30 2647 H 254.453 2.19742 -3.20383 0
M  V30 2648 H 256.125 0.000837639 -4.613 0
M  V30 2649 H 254.368 -0.0686174 -4.33746 0
M  V30 2650 H 255.039 1.17866 -5.3927 0
M  V30 2651 H 257.515 1.9992 -3.64926 0
M  V30 2652 H 256.391 3.01811 -4.58477 0
M  V30 2653 H 256.652 3.35383 -2.88047 0
M  V30 2654 N 255.711 1.52812 0.385517 0
M  V30 2655 C 256.959 1.67694 1.12797 0
M  V30 2656 C 257.28 0.421115 1.90399 0
M  V30 2657 O 256.55 -0.564551 1.87589 0
M  V30 2658 H 255.13 0.618155 0.419396 0
M  V30 2659 H 257.792 1.89938 0.436972 0
M  V30 2660 H 256.888 2.52896 1.82894 0
M  V30 2661 N 257.189 -0.644168 1.43834 0
M  V30 2662 C 258.417 -1.43147 1.49387 0
M  V30 2663 C 258.832 -1.88452 0.114583 0
M  V30 2664 O 258.189 -1.60047 -0.876989 0
M  V30 2665 C 258.24 -2.66046 2.44748 0
M  V30 2666 O 257.961 -2.22633 3.77314 0
M  V30 2667 C 259.462 -3.59311 2.59635 0
M  V30 2668 H 256.682 -0.439447 0.507077 0
M  V30 2669 H 259.226 -0.78895 1.88669 0
M  V30 2670 H 257.381 -3.26418 2.08638 0
M  V30 2671 H 257.795 -3.02216 4.28679 0
M  V30 2672 H 259.269 -4.42187 3.30416 0
M  V30 2673 H 259.746 -4.07259 1.64427 0
M  V30 2674 H 260.352 -3.04816 2.96593 0
M  V30 2675 N 258.668 -1.30515 -0.883378 0
M  V30 2676 C 259.914 -1.19607 -1.63774 0
M  V30 2677 C 260.247 0.248314 -1.92606 0
M  V30 2678 O 259.522 1.17742 -1.54813 0
M  V30 2679 C 259.805 -2.02669 -2.97653 0
M  V30 2680 C 259.658 -3.55335 -2.75784 0
M  V30 2681 C 260.977 -1.86573 -3.98596 0
M  V30 2682 H 258.096 -0.435856 -0.594305 0
M  V30 2683 H 260.738 -1.60165 -1.02212 0
M  V30 2684 H 258.888 -1.68208 -3.50197 0
M  V30 2685 H 260.56 -3.99863 -2.30016 0
M  V30 2686 H 258.803 -3.79438 -2.1026 0
M  V30 2687 H 259.474 -4.08745 -3.70988 0
M  V30 2688 H 261.95 -2.16703 -3.55217 0
M  V30 2689 H 260.826 -2.47014 -4.90179 0
M  V30 2690 H 261.087 -0.825321 -4.34328 0
M  V30 2691 N 260.146 1.09593 -1.13257 0
M  V30 2692 C 261.109 2.14359 -0.811358 0
M  V30 2693 C 262.109 1.59808 0.178377 0
M  V30 2694 O 263.299 1.74132 -0.0484911 0
M  V30 2695 C 260.431 3.40269 -0.207276 0
M  V30 2696 H 261.624 2.44284 -1.73969 0
M  V30 2697 H 259.177 1.25102 -0.936973 0
M  V30 2698 H 259.912 3.15969 0.73036 0
M  V30 2699 H 259.697 3.81154 -0.919992 0
M  V30 2700 H 261.187 4.176 0.000667944 0
M  V30 2701 N 261.624 0.925811 1.2754 0
M  V30 2702 C 262.871 0.565255 1.94451 0
M  V30 2703 C 263.199 -0.89316 1.7278 0
M  V30 2704 O 262.454 -1.65213 1.04895 0
M  V30 2705 C 262.753 0.835296 3.47502 0
M  V30 2706 C 262.419 2.27515 3.89291 0
M  V30 2707 C 261.081 2.66879 4.00411 0
M  V30 2708 C 263.433 3.21158 4.10496 0
M  V30 2709 C 260.761 3.99014 4.30122 0
M  V30 2710 C 263.113 4.52871 4.4169 0
M  V30 2711 C 261.777 4.92072 4.51023 0
M  V30 2712 H 261.047 0.206841 0.711546 0
M  V30 2713 H 263.694 1.16942 1.51647 0
M  V30 2714 H 261.999 0.148442 3.91519 0
M  V30 2715 H 263.696 0.535322 3.97411 0
M  V30 2716 H 260.286 1.95976 3.81171 0
M  V30 2717 H 264.47 2.9195 4.01346 0
M  V30 2718 H 259.726 4.2907 4.35556 0
M  V30 2719 H 263.9 5.25436 4.57045 0
M  V30 2720 H 261.527 5.9449 4.738 0
M  V30 2721 N 263.102 -1.41638 0.69111 0
M  V30 2722 C 264.35 -2.00902 0.219758 0
M  V30 2723 C 264.671 -1.54994 -1.18329 0
M  V30 2724 O 263.941 -0.778628 -1.79762 0
M  V30 2725 H 262.521 -0.74289 0.0782558 0
M  V30 2726 H 265.183 -1.73327 0.891271 0
M  V30 2727 H 264.279 -3.11224 0.233708 0
M  V30 2728 N 264.58 -0.43555 -1.51462 0
M  V30 2729 C 265.82 0.130708 -2.03982 0
M  V30 2730 C 266.184 1.40117 -1.31268 0
M  V30 2731 O 267.385 2.04755 -1.74152 0
M  V30 2732 C 265.656 0.346102 -3.5572 0
M  V30 2733 S 267.215 0.876022 -4.29967 0
M  V30 2734 H 264.033 0.0326881 -0.710248 0
M  V30 2735 H 266.635 -0.594544 -1.8624 0
M  V30 2736 H 265.339 -0.584911 -4.0621 0
M  V30 2737 H 264.87 1.09849 -3.77752 0
M  V30 2738 H 266.885 2.15379 -4.47019 0
M  V30 2739 N 266.058 1.56714 -0.166846 0
M  V30 2740 C 267.286 2.0112 0.485644 0
M  V30 2741 C 267.701 1.04705 1.57106 0
M  V30 2742 O 267.058 0.0471923 1.82439 0
M  V30 2743 C 267.109 3.45361 1.06808 0
M  V30 2744 O 266.83 4.38092 0.0259995 0
M  V30 2745 C 268.331 4.05145 1.79924 0
M  V30 2746 H 265.551 0.65931 0.124704 0
M  V30 2747 H 268.095 2.02746 -0.267262 0
M  V30 2748 H 266.25 3.44524 1.7715 0
M  V30 2749 H 266.664 5.22519 0.455398 0
M  V30 2750 H 268.138 5.08009 2.15942 0
M  V30 2751 H 268.615 3.46982 2.69258 0
M  V30 2752 H 269.221 4.09672 1.14234 0
M  V30 2753 N 267.536 -0.106894 1.57237 0
M  V30 2754 C 268.782 -0.81373 1.85759 0
M  V30 2755 C 269.115 -1.78952 0.754315 0
M  V30 2756 O 268.39 -1.93029 -0.23879 0
M  V30 2757 C 268.673 -1.55293 3.24894 0
M  V30 2758 C 268.526 -0.595929 4.45835 0
M  V30 2759 C 269.845 -2.5063 3.61763 0
M  V30 2760 H 266.964 -0.294369 0.67566 0
M  V30 2761 H 269.606 -0.0776472 1.89841 0
M  V30 2762 H 267.756 -2.1804 3.21544 0
M  V30 2763 H 269.428 0.0236262 4.61294 0
M  V30 2764 H 267.671 0.0916191 4.33703 0
M  V30 2765 H 268.342 -1.15004 5.39887 0
M  V30 2766 H 270.818 -1.97982 3.65981 0
M  V30 2767 H 269.694 -2.99376 4.60071 0
M  V30 2768 H 269.955 -3.3385 2.89821 0
M  V30 2769 N 269.014 -1.53014 -0.377408 0
M  V30 2770 C 269.946 -1.74884 -1.48149 0
M  V30 2771 C 270.959 -0.629433 -1.5014 0
M  V30 2772 O 272.148 -0.905416 -1.53833 0
M  V30 2773 C 269.248 -1.80299 -2.86959 0
M  V30 2774 C 268.421 -3.09776 -3.08801 0
M  V30 2775 C 267.48 -3.06586 -4.27658 0
M  V30 2776 O 266.506 -3.80419 -4.23403 0
M  V30 2777 N 267.708 -2.26578 -5.34455 0
M  V30 2778 H 270.473 -2.70147 -1.29771 0
M  V30 2779 H 268.034 -1.51646 -0.56703 0
M  V30 2780 H 270.026 -1.75657 -3.64591 0
M  V30 2781 H 268.596 -0.92372 -2.98641 0
M  V30 2782 H 267.816 -3.27815 -2.18931 0
M  V30 2783 H 269.104 -3.95366 -3.20255 0
M  V30 2784 H 268.502 -1.66081 -5.40771 0
M  V30 2785 H 267.059 -2.27766 -6.10709 0
M  V30 2786 N 270.492 0.636531 -1.44174 0
M  V30 2787 C 271.424 1.7618 -1.46606 0
M  V30 2788 C 272.437 1.58768 -0.360091 0
M  V30 2789 O 273.626 1.67181 -0.625518 0
M  V30 2790 C 270.726 3.13833 -1.27915 0
M  V30 2791 C 269.899 3.57753 -2.51658 0
M  V30 2792 C 268.958 4.74265 -2.27945 0
M  V30 2793 O 267.984 4.82852 -3.01401 0
M  V30 2794 N 269.186 5.65604 -1.30662 0
M  V30 2795 H 271.951 1.74567 -2.43612 0
M  V30 2796 H 269.512 0.820924 -1.39544 0
M  V30 2797 H 271.504 3.8949 -1.09907 0
M  V30 2798 H 270.074 3.10121 -0.39293 0
M  V30 2799 H 269.294 2.72362 -2.84978 0
M  V30 2800 H 270.582 3.83847 -3.33974 0
M  V30 2801 H 269.98 5.61354 -0.699844 0
M  V30 2802 H 268.537 6.40913 -1.18634 0
M  V30 2803 N 271.97 1.30982 0.876444 0
M  V30 2804 C 273.195 1.23373 1.66715 0
M  V30 2805 C 273.62 -0.19885 1.87046 0
M  V30 2806 O 272.978 -1.1427 1.40756 0
M  V30 2807 C 273.026 1.97644 3.01611 0
M  V30 2808 O 272.13 1.30935 3.91062 0
M  V30 2809 H 271.471 0.426279 0.509099 0
M  V30 2810 H 274.001 1.72944 1.09323 0
M  V30 2811 H 274.011 2.06992 3.51594 0
M  V30 2812 H 272.686 3.01829 2.86133 0
M  V30 2813 H 271.263 1.29996 3.49507 0
M  V30 2814 N 273.449 -1.08991 1.13837 0
M  V30 2815 C 274.674 -1.85551 0.926585 0
M  V30 2816 C 275.099 -1.80782 -0.519566 0
M  V30 2817 O 274.457 -1.18855 -1.36906 0
M  V30 2818 C 274.505 -3.31266 1.42462 0
M  V30 2819 O 273.609 -4.07822 0.612789 0
M  V30 2820 H 272.95 -0.575192 0.331738 0
M  V30 2821 H 275.48 -1.37604 1.51414 0
M  V30 2822 H 275.49 -3.82112 1.43019 0
M  V30 2823 H 274.165 -3.34052 2.47754 0
M  V30 2824 H 272.742 -3.66731 0.675463 0
M  V30 2825 N 274.927 -0.932562 -1.27047 0
M  V30 2826 C 276.174 -0.575559 -1.94148 0
M  V30 2827 C 276.502 0.883984 -1.73251 0
M  V30 2828 O 275.757 1.64655 -1.0577 0
M  V30 2829 C 276.056 -0.853713 -3.47054 0
M  V30 2830 C 275.722 -2.29577 -3.88079 0
M  V30 2831 C 274.384 -2.68999 -3.9899 0
M  V30 2832 C 276.736 -3.23331 -4.08787 0
M  V30 2833 C 274.064 -4.01289 -4.28 0
M  V30 2834 C 276.416 -4.55207 -4.39282 0
M  V30 2835 C 275.08 -4.94457 -4.48407 0
M  V30 2836 H 274.35 -0.210612 -0.710439 0
M  V30 2837 H 276.997 -1.17744 -1.51025 0
M  V30 2838 H 275.302 -0.169204 -3.91434 0
M  V30 2839 H 276.999 -0.55639 -3.97121 0
M  V30 2840 H 273.589 -1.97994 -3.80127 0
M  V30 2841 H 277.773 -2.94074 -3.99793 0
M  V30 2842 H 273.029 -4.31374 -4.33275 0
M  V30 2843 H 277.203 -5.27852 -4.54252 0
M  V30 2844 H 274.83 -5.96994 -4.7064 0
M  V30 2845 N 276.405 1.4127 -0.698611 0
M  V30 2846 C 277.635 2.05205 -0.239644 0
M  V30 2847 C 278.043 1.52684 1.11733 0
M  V30 2848 O 277.386 0.671222 1.70998 0
M  V30 2849 C 277.448 3.59289 -0.123126 0
M  V30 2850 C 277.112 4.34619 -1.41263 0
M  V30 2851 C 278.109 4.63701 -2.35111 0
M  V30 2852 C 275.794 4.73837 -1.66684 0
M  V30 2853 C 277.788 5.30966 -3.52639 0
M  V30 2854 C 275.475 5.40837 -2.84498 0
M  V30 2855 C 276.473 5.69329 -3.77298 0
M  V30 2856 O 276.161 6.34949 -4.93047 0
M  V30 2857 H 275.893 0.66723 -0.108537 0
M  V30 2858 H 278.447 1.81974 -0.952602 0
M  V30 2859 H 276.677 3.81272 0.645628 0
M  V30 2860 H 278.366 4.04797 0.299056 0
M  V30 2861 H 279.132 4.33882 -2.16729 0
M  V30 2862 H 275.011 4.51039 -0.953135 0
M  V30 2863 H 278.555 5.53121 -4.25091 0
M  V30 2864 H 274.452 5.70075 -3.02795 0
M  V30 2865 H 275.22 6.53445 -4.92902 0
M  V30 2866 N 277.883 0.443576 1.51229 0
M  V30 2867 C 279.131 -0.120557 2.0174 0
M  V30 2868 C 279.452 -1.42665 1.32935 0
M  V30 2869 O 278.722 -1.9028 0.465866 0
M  V30 2870 H 277.302 -0.0475426 0.745486 0
M  V30 2871 H 279.964 0.587711 1.85828 0
M  V30 2872 H 279.06 -0.291972 3.10731 0
M  V30 2873 N 279.361 -1.56624 0.175154 0
M  V30 2874 C 280.591 -2.01082 -0.474283 0
M  V30 2875 C 280.999 -1.05447 -1.57091 0
M  V30 2876 O 280.342 -0.0480595 -1.83637 0
M  V30 2877 C 280.404 -3.41963 -1.10911 0
M  V30 2878 C 280.068 -4.56742 -0.153666 0
M  V30 2879 C 281.065 -5.16076 0.629448 0
M  V30 2880 C 278.75 -5.02277 -0.0483776 0
M  V30 2881 C 280.744 -6.19377 1.50501 0
M  V30 2882 C 278.431 -6.05427 0.830768 0
M  V30 2883 C 279.429 -6.63849 1.60605 0
M  V30 2884 O 279.117 -7.64998 2.47049 0
M  V30 2885 H 278.849 -0.664261 -0.125432 0
M  V30 2886 H 281.403 -2.03549 0.275163 0
M  V30 2887 H 279.633 -3.36422 -1.90676 0
M  V30 2888 H 281.322 -3.70352 -1.66114 0
M  V30 2889 H 282.088 -4.81776 0.558297 0
M  V30 2890 H 277.967 -4.56513 -0.641611 0
M  V30 2891 H 281.511 -6.64906 2.1106 0
M  V30 2892 H 277.408 -6.39151 0.903107 0
M  V30 2893 H 278.176 -7.82336 2.40607 0
M  V30 2894 N 280.839 0.0985539 -1.57292 0
M  V30 2895 C 282.067 0.816318 -1.90115 0
M  V30 2896 C 282.482 1.72451 -0.768509 0
M  V30 2897 O 281.839 1.80643 0.259687 0
M  V30 2898 C 281.89 1.63259 -3.22535 0
M  V30 2899 O 281.611 0.760934 -4.31441 0
M  V30 2900 C 283.112 2.45372 -3.69199 0
M  V30 2901 H 280.332 0.233595 -0.629027 0
M  V30 2902 H 282.876 0.0768229 -2.04356 0
M  V30 2903 H 281.031 2.32463 -3.09903 0
M  V30 2904 H 281.445 1.32595 -5.07463 0
M  V30 2905 H 282.919 2.98144 -4.64558 0
M  V30 2906 H 283.396 3.23677 -2.96867 0
M  V30 2907 H 284.002 1.81373 -3.84687 0
M  V30 2908 N 282.317 1.53212 0.369288 0
M  V30 2909 C 283.565 1.68881 1.11012 0
M  V30 2910 C 283.886 0.441285 1.89941 0
M  V30 2911 O 283.156 -0.544623 1.88177 0
M  V30 2912 H 281.736 0.622569 0.412816 0
M  V30 2913 H 284.398 1.90391 0.416802 0
M  V30 2914 H 283.494 2.54822 1.80201 0
M  V30 2915 N 283.795 -0.628877 1.44509 0
M  V30 2916 C 284.728 -1.75367 1.46019 0
M  V30 2917 C 285.706 -1.59444 0.318787 0
M  V30 2918 O 286.89 -1.81297 0.516099 0
M  V30 2919 C 284.017 -3.12965 1.29501 0
M  V30 2920 C 283.063 -3.47532 2.47233 0
M  V30 2921 S 283.896 -3.44758 4.09758 0
M  V30 2922 C 285.052 -4.84973 3.95667 0
M  V30 2923 H 285.285 -1.7382 2.41193 0
M  V30 2924 H 282.818 -0.803686 1.31834 0
M  V30 2925 H 284.776 -3.92367 1.20658 0
M  V30 2926 H 283.437 -3.12049 0.358341 0
M  V30 2927 H 282.63 -4.47664 2.31544 0
M  V30 2928 H 282.232 -2.75598 2.52828 0
M  V30 2929 H 284.524 -5.74255 3.59496 0
M  V30 2930 H 285.467 -5.05716 4.95638 0
M  V30 2931 H 285.875 -4.59653 3.27688 0
M  V30 2932 N 285.273 -1.31445 -0.869486 0
M  V30 2933 C 286.203 -1.21727 -1.99261 0
M  V30 2934 C 287.184 -0.104359 -1.6978 0
M  V30 2935 O 288.369 -0.289038 -1.92037 0
M  V30 2936 C 285.499 -0.924317 -3.34774 0
M  V30 2937 C 284.453 -1.99685 -3.78563 0
M  V30 2938 C 283.779 -1.55658 -5.11541 0
M  V30 2939 C 285.079 -3.41003 -3.95619 0
M  V30 2940 H 286.773 -2.1569 -2.07649 0
M  V30 2941 H 284.319 -1.03839 -0.997675 0
M  V30 2942 H 286.272 -0.842934 -4.12883 0
M  V30 2943 H 284.996 0.0509793 -3.2656 0
M  V30 2944 H 283.655 -2.06813 -3.02694 0
M  V30 2945 H 283.303 -0.569132 -4.9977 0
M  V30 2946 H 283.003 -2.27409 -5.41811 0
M  V30 2947 H 284.527 -1.48928 -5.92159 0
M  V30 2948 H 285.941 -3.36547 -4.64122 0
M  V30 2949 H 284.338 -4.10975 -4.37286 0
M  V30 2950 H 285.408 -3.81754 -2.98985 0
M  V30 2951 N 286.751 1.08385 -1.14413 0
M  V30 2952 C 288.162 1.62258 -0.923535 0
M  V30 2953 C 288.513 1.88691 0.537595 0
M  V30 2954 O 287.638 1.64454 1.40655 0
M  V30 2955 C 288.233 2.94781 -1.67002 0
M  V30 2956 C 286.792 3.45437 -1.495 0
M  V30 2957 C 285.939 2.19668 -1.69238 0
M  V30 2958 H 288.89 0.916086 -1.2959 0
M  V30 2959 H 288.911 3.63229 -1.13334 0
M  V30 2960 H 288.423 2.7551 -2.73342 0
M  V30 2961 H 286.524 3.6981 -0.455097 0
M  V30 2962 H 286.637 4.22173 -2.2651 0
M  V30 2963 H 285.001 2.28849 -1.11804 0
M  V30 2964 H 285.784 2.02905 -2.7692 0
M  V30 2965 N 288.23 0.939286 1.26551 0
M  V30 2966 C 289.177 0.446088 2.26448 0
M  V30 2967 C 290.147 -0.493234 1.58608 0
M  V30 2968 O 291.332 -0.409857 1.86346 0
M  V30 2969 C 288.472 -0.284375 3.43926 0
M  V30 2970 C 287.585 0.690399 4.26448 0
M  V30 2971 C 286.72 -0.0610712 5.31165 0
M  V30 2972 C 285.759 0.905649 6.05363 0
M  V30 2973 N 284.896 0.186055 7.01853 0
M  V30 2974 H 289.736 1.30291 2.68008 0
M  V30 2975 H 287.273 0.65371 1.31776 0
M  V30 2976 H 289.231 -0.724313 4.10864 0
M  V30 2977 H 287.861 -1.10535 3.03285 0
M  V30 2978 H 286.913 1.24885 3.59316 0
M  V30 2979 H 288.225 1.42873 4.779 0
M  V30 2980 H 287.379 -0.56038 6.04106 0
M  V30 2981 H 286.118 -0.832297 4.80546 0
M  V30 2982 H 285.123 1.4161 5.3125 0
M  V30 2983 H 286.348 1.67685 6.58072 0
M  V30 2984 H 284.294 -0.566714 6.53548 0
M  V30 2985 H 284.211 0.863752 7.51049 0
M  V30 2986 H 285.479 -0.292221 7.78952 0
M  V30 2987 N 289.708 -1.40897 0.706093 0
M  V30 2988 C 291.124 -1.55042 0.37869 0
M  V30 2989 C 291.324 -1.67944 -1.11342 0
M  V30 2990 O 290.38 -1.66372 -1.89938 0
M  V30 2991 C 291.693 -2.78398 1.13643 0
M  V30 2992 C 293.241 -2.92206 1.12181 0
M  V30 2993 C 293.716 -4.18463 1.86152 0
M  V30 2994 N 295.207 -4.25443 1.83173 0
M  V30 2995 C 295.942 -5.2202 2.37239 0
M  V30 2996 N 295.438 -6.24563 2.99821 0
M  V30 2997 N 297.231 -5.14033 2.27435 0
M  V30 2998 H 289.382 -1.30769 1.67372 0
M  V30 2999 H 291.645 -0.631653 0.706907 0
M  V30 3000 H 291.351 -2.7511 2.19106 0
M  V30 3001 H 291.225 -3.70228 0.721853 0
M  V30 3002 H 293.612 -2.95004 0.0754171 0
M  V30 3003 H 293.693 -2.01521 1.57554 0
M  V30 3004 H 293.337 -4.16427 2.90776 0
M  V30 3005 H 293.267 -5.08141 1.38206 0
M  V30 3006 H 295.758 -3.51976 1.37556 0
M  V30 3007 H 296.071 -6.94665 3.38616 0
M  V30 3008 H 294.416 -6.25035 3.03902 0
M  V30 3009 H 297.607 -4.3285 1.78208 0
M  V30 3010 H 297.78 -5.89129 2.69873 0
M  V30 3011 N 291.186 -0.45159 -1.50991 0
M  V30 3012 C 292.416 0.108177 -2.06317 0
M  V30 3013 C 292.824 1.35774 -1.31765 0
M  V30 3014 O 292.167 1.79838 -0.374694 0
M  V30 3015 C 292.229 0.481659 -3.56259 0
M  V30 3016 C 291.893 -0.663114 -4.52163 0
M  V30 3017 C 292.89 -1.53947 -4.96585 0
M  V30 3018 C 290.575 -0.8479 -4.95092 0
M  V30 3019 C 292.569 -2.58518 -5.82621 0
M  V30 3020 C 290.256 -1.89686 -5.80915 0
M  V30 3021 C 291.254 -2.76388 -6.24579 0
M  V30 3022 O 290.942 -3.79482 -7.08695 0
M  V30 3023 H 290.674 0.00499183 -0.675982 0
M  V30 3024 H 293.228 -0.633659 -1.95381 0
M  V30 3025 H 291.458 1.27641 -3.65027 0
M  V30 3026 H 293.147 0.974233 -3.94035 0
M  V30 3027 H 293.913 -1.4083 -4.64103 0
M  V30 3028 H 289.792 -0.18258 -4.60638 0
M  V30 3029 H 293.336 -3.26224 -6.16623 0
M  V30 3030 H 289.233 -2.02817 -6.12809 0
M  V30 3031 H 290.001 -3.76234 -7.26905 0
M  V30 3032 N 292.664 1.56529 -0.183458 0
M  V30 3033 C 293.892 2.01623 0.464285 0
M  V30 3034 C 294.307 1.06366 1.55986 0
M  V30 3035 O 293.664 0.0665398 1.82379 0
M  V30 3036 C 293.715 3.46475 1.03139 0
M  V30 3037 O 293.436 4.38095 -0.0204675 0
M  V30 3038 C 294.937 4.0703 1.75617 0
M  V30 3039 H 292.157 0.660596 0.117704 0
M  V30 3040 H 294.701 2.02451 -0.288751 0
M  V30 3041 H 292.856 3.46383 1.73486 0
M  V30 3042 H 293.27 5.22973 0.399952 0
M  V30 3043 H 294.744 5.10271 2.10542 0
M  V30 3044 H 295.221 3.49819 2.65563 0
M  V30 3045 H 295.827 4.1086 1.09882 0
M  V30 3046 N 294.142 -0.090211 1.57342 0
M  V30 3047 C 295.074 -1.13541 1.99101 0
M  V30 3048 C 296.087 -1.3604 0.894258 0
M  V30 3049 O 297.276 -1.34606 1.17233 0
M  V30 3050 C 294.376 -2.49001 2.29895 0
M  V30 3051 C 293.549 -2.46712 3.61182 0
M  V30 3052 C 292.608 -3.64136 3.79857 0
M  V30 3053 O 291.634 -3.46405 4.51655 0
M  V30 3054 N 292.836 -4.83802 3.20806 0
M  V30 3055 H 295.601 -0.779942 2.89373 0
M  V30 3056 H 293.162 -0.279125 1.59476 0
M  V30 3057 H 295.154 -3.26166 2.39578 0
M  V30 3058 H 293.724 -2.76619 1.45605 0
M  V30 3059 H 292.944 -1.55058 3.62423 0
M  V30 3060 H 294.232 -2.42265 4.4742 0
M  V30 3061 H 293.63 -5.01112 2.62494 0
M  V30 3062 H 292.187 -5.58543 3.35966 0
M  V30 3063 N 295.62 -1.53406 -0.361157 0
M  V30 3064 C 296.868 -1.69467 -1.10115 0
M  V30 3065 C 297.189 -0.451352 -1.89705 0
M  V30 3066 O 296.459 0.534636 -1.88463 0
M  V30 3067 H 295.039 -0.624749 -0.409508 0
M  V30 3068 H 297.701 -1.90609 -0.406699 0
M  V30 3069 H 296.797 -2.55774 -1.78847 0
M  V30 3070 N 297.098 0.621204 -1.44841 0
M  V30 3071 C 298.344 1.3826 -1.48365 0
M  V30 3072 C 298.677 1.93831 -0.119624 0
M  V30 3073 O 297.952 1.74251 0.864111 0
M  V30 3074 C 298.235 2.54058 -2.55199 0
M  V30 3075 C 298.088 2.03772 -4.00995 0
M  V30 3076 C 299.407 3.56225 -2.58442 0
M  V30 3077 H 296.526 0.501374 -0.540179 0
M  V30 3078 H 299.168 0.7015 -1.76576 0
M  V30 3079 H 297.318 3.12162 -2.31274 0
M  V30 3080 H 298.99 1.50423 -4.36086 0
M  V30 3081 H 297.233 1.34876 -4.12299 0
M  V30 3082 H 297.904 2.87185 -4.71411 0
M  V30 3083 H 300.38 3.07939 -2.79844 0
M  V30 3084 H 299.256 4.34756 -3.3508 0
M  V30 3085 H 299.517 4.10949 -1.63013 0
M  V30 3086 N 298.576 1.31904 0.862503 0
M  V30 3087 C 299.509 1.14514 1.97388 0
M  V30 3088 C 300.487 0.0466493 1.62533 0
M  V30 3089 O 301.671 0.204484 1.87388 0
M  V30 3090 C 298.798 0.751347 3.30261 0
M  V30 3091 C 297.844 1.85395 3.84098 0
M  V30 3092 S 298.677 3.46081 4.08642 0
M  V30 3093 C 299.833 3.08655 5.44502 0
M  V30 3094 H 300.066 2.08597 2.11836 0
M  V30 3095 H 297.599 1.16475 1.01356 0
M  V30 3096 H 299.557 0.530901 4.07052 0
M  V30 3097 H 298.218 -0.170493 3.13637 0
M  V30 3098 H 297.411 1.53122 4.80177 0
M  V30 3099 H 297.013 2.02984 3.14123 0
M  V30 3100 H 299.305 2.58012 6.26447 0
M  V30 3101 H 300.248 4.03726 5.81731 0
M  V30 3102 H 300.656 2.45891 5.08132 0
M  V30 3103 N 300.054 -1.07777 1.14986 0
M  V30 3104 C 301.282 -1.84018 0.945773 0
M  V30 3105 C 301.697 -1.81897 -0.505863 0
M  V30 3106 O 301.054 -1.22726 -1.35072 0
M  V30 3107 C 301.105 -3.31287 1.44677 0
M  V30 3108 O 300.826 -3.33449 2.84154 0
M  V30 3109 C 302.327 -4.24311 1.28355 0
M  V30 3110 H 299.547 -0.580716 0.336169 0
M  V30 3111 H 302.091 -1.36077 1.52654 0
M  V30 3112 H 300.246 -3.76594 0.908625 0
M  V30 3113 H 300.66 -4.25427 3.06777 0
M  V30 3114 H 302.134 -5.2573 1.68261 0
M  V30 3115 H 302.611 -4.38612 0.227184 0
M  V30 3116 H 303.217 -3.84836 1.81056 0
M  V30 3117 N 301.532 -0.945985 -1.26051 0
M  V30 3118 C 302.78 -0.594941 -1.93145 0
M  V30 3119 C 303.101 0.86953 -1.7454 0
M  V30 3120 O 302.371 1.61838 -1.10387 0
M  V30 3121 H 300.951 -0.217044 -0.714773 0
M  V30 3122 H 303.613 -1.20235 -1.53393 0
M  V30 3123 H 302.709 -0.816835 -3.01221 0
M  V30 3124 N 303.011 1.40521 -0.713556 0
M  V30 3125 C 303.921 2.34522 -0.0606667 0
M  V30 3126 C 304.937 1.57193 0.74607 0
M  V30 3127 O 306.113 1.89591 0.679493 0
M  V30 3128 C 303.178 3.36081 0.851491 0
M  V30 3129 C 302.239 4.29286 0.0349339 0
M  V30 3130 C 301.472 5.25994 0.903649 0
M  V30 3131 O 301.695 5.28616 2.14292 0
M  V30 3132 O 300.629 6.00918 0.343723 0
M  V30 3133 H 304.455 2.91968 -0.835972 0
M  V30 3134 H 302.04 1.41681 -0.47402 0
M  V30 3135 H 303.922 3.98369 1.37404 0
M  V30 3136 H 302.597 2.81052 1.60598 0
M  V30 3137 H 301.504 3.70289 -0.532633 0
M  V30 3138 H 302.837 4.87462 -0.681287 0
M  V30 3139 N 304.489 0.459591 1.5075 0
M  V30 3140 C 305.714 -0.0996819 2.0716 0
M  V30 3141 C 306.139 -1.33761 1.32249 0
M  V30 3142 O 305.497 -1.77551 0.366786 0
M  V30 3143 C 305.545 -0.378226 3.58611 0
M  V30 3144 O 304.649 -1.46081 3.85661 0
M  V30 3145 H 303.99 0.00791392 0.663953 0
M  V30 3146 H 306.52 0.647329 1.9409 0
M  V30 3147 H 306.53 -0.622135 4.03229 0
M  V30 3148 H 305.205 0.526439 4.12555 0
M  V30 3149 H 303.782 -1.20511 3.5289 0
M  V30 3150 N 305.967 -1.56429 0.191757 0
M  V30 3151 C 307.195 -2.01867 -0.453586 0
M  V30 3152 C 307.61 -1.07191 -1.5542 0
M  V30 3153 O 306.967 -0.0762108 -1.82341 0
M  V30 3154 C 307.018 -3.47017 -1.013 0
M  V30 3155 O 306.739 -4.38078 0.0437005 0
M  V30 3156 C 308.24 -4.07956 -1.73456 0
M  V30 3157 H 305.46 -0.661211 -0.114199 0
M  V30 3158 H 308.004 -2.02295 0.299483 0
M  V30 3159 H 306.159 -3.47298 -1.71647 0
M  V30 3160 H 306.573 -5.23178 -0.372212 0
M  V30 3161 H 308.047 -5.1138 -2.07833 0
M  V30 3162 H 308.524 -3.51222 -2.63704 0
M  V30 3163 H 309.13 -4.11437 -1.07702 0
M  V30 3164 N 307.445 0.0818655 -1.57387 0
M  V30 3165 C 308.408 1.08265 -2.02018 0
M  V30 3166 C 309.408 1.32183 -0.915664 0
M  V30 3167 O 310.598 1.28073 -1.18081 0
M  V30 3168 C 307.73 2.42871 -2.39221 0
M  V30 3169 H 308.923 0.698204 -2.91659 0
M  V30 3170 H 306.476 0.327303 -1.52835 0
M  V30 3171 H 307.211 2.86167 -1.52575 0
M  V30 3172 H 306.996 2.26855 -3.19811 0
M  V30 3173 H 308.486 3.14826 -2.74362 0
M  V30 3174 N 308.923 1.53595 0.353017 0
M  V30 3175 C 310.171 1.70049 1.09215 0
M  V30 3176 C 310.492 0.461406 1.89463 0
M  V30 3177 O 309.762 -0.524633 1.88744 0
M  V30 3178 H 308.342 0.626912 0.40619 0
M  V30 3179 H 311.004 1.90822 0.396585 0
M  V30 3180 H 310.1 2.56718 1.77488 0
M  V30 3181 N 310.401 -0.613514 1.45168 0
M  V30 3182 C 311.647 -1.37471 1.49096 0
M  V30 3183 C 311.98 -1.93765 0.129901 0
M  V30 3184 O 311.255 -1.74707 -0.854858 0
M  V30 3185 C 311.538 -2.52701 2.56542 0
M  V30 3186 C 311.391 -2.01643 4.0207 0
M  V30 3187 C 312.71 -3.54849 2.60327 0
M  V30 3188 H 309.829 -0.498502 0.54283 0
M  V30 3189 H 312.471 -0.692125 1.76945 0
M  V30 3190 H 310.621 -3.10931 2.32926 0
M  V30 3191 H 312.293 -1.48108 4.36877 0
M  V30 3192 H 310.536 -1.32688 4.13009 0
M  V30 3193 H 311.207 -2.84681 4.72928 0
M  V30 3194 H 313.683 -3.0645 2.81474 0
M  V30 3195 H 312.559 -4.32973 3.37381 0
M  V30 3196 H 312.82 -4.10079 1.6519 0
M  V30 3197 N 311.879 -1.3236 -0.855495 0
M  V30 3198 C 312.812 -1.15559 -1.96777 0
M  V30 3199 C 313.79 -0.0552681 -1.62506 0
M  V30 3200 O 314.974 -0.214419 -1.87277 0
M  V30 3201 C 312.101 -0.768851 -3.29858 0
M  V30 3202 C 311.147 -1.87429 -3.83109 0
M  V30 3203 S 311.98 -3.48243 -4.06801 0
M  V30 3204 C 313.136 -3.11539 -5.42858 0
M  V30 3205 H 313.369 -2.09717 -2.10727 0
M  V30 3206 H 310.902 -1.17011 -1.00737 0
M  V30 3207 H 312.86 -0.55248 -4.06765 0
M  V30 3208 H 311.521 0.153857 -3.13723 0
M  V30 3209 H 310.714 -1.55667 -4.79358 0
M  V30 3210 H 310.316 -2.04647 -3.13042 0
M  V30 3211 H 312.608 -2.61331 -6.2507 0
M  V30 3212 H 313.551 -4.06806 -5.79582 0
M  V30 3213 H 313.959 -2.48582 -5.06821 0
M  V30 3214 N 313.357 1.07166 -1.15556 0
M  V30 3215 C 314.606 1.79181 -0.926132 0
M  V30 3216 C 314.919 1.87768 0.547967 0
M  V30 3217 O 316.125 2.56323 0.895036 0
M  V30 3218 C 314.581 3.22 -1.60761 0
M  V30 3219 C 314.189 3.21607 -3.11886 0
M  V30 3220 C 315.933 3.9861 -1.4598 0
M  V30 3221 C 313.84 4.59092 -3.72812 0
M  V30 3222 H 312.77 0.67154 -0.342856 0
M  V30 3223 H 315.421 1.2027 -1.3859 0
M  V30 3224 H 313.803 3.81115 -1.07553 0
M  V30 3225 H 314.977 2.72127 -3.71865 0
M  V30 3226 H 313.292 2.58495 -3.2645 0
M  V30 3227 H 315.889 5.00225 -1.88888 0
M  V30 3228 H 316.232 4.143 -0.407541 0
M  V30 3229 H 316.765 3.45996 -1.96295 0
M  V30 3230 H 313.504 4.48606 -4.77946 0
M  V30 3231 H 313.024 5.08803 -3.17616 0
M  V30 3232 H 314.703 5.28059 -3.73848 0
M  V30 3233 N 314.835 0.952656 1.25548 0
M  V30 3234 C 316.06 0.623025 1.97821 0
M  V30 3235 C 316.485 -0.7976 1.70352 0
M  V30 3236 O 315.843 -1.53905 0.958283 0
M  V30 3237 C 315.891 0.885532 3.49558 0
M  V30 3238 O 314.995 -0.0366641 4.12384 0
M  V30 3239 H 314.336 0.237082 0.620232 0
M  V30 3240 H 316.866 1.27871 1.59719 0
M  V30 3241 H 316.876 0.811009 3.99858 0
M  V30 3242 H 315.551 1.92094 3.6888 0
M  V30 3243 H 314.128 0.0898954 3.72792 0
M  V30 3244 N 316.313 -1.40141 0.720998 0
M  V30 3245 C 317.243 -2.33339 0.0867621 0
M  V30 3246 C 318.224 -1.53178 -0.739622 0
M  V30 3247 O 319.409 -1.81625 -0.687449 0
M  V30 3248 C 316.539 -3.37194 -0.831728 0
M  V30 3249 C 315.493 -4.27857 -0.110558 0
M  V30 3250 C 314.819 -5.22294 -1.14513 0
M  V30 3251 C 316.119 -5.11872 1.0385 0
M  V30 3252 H 317.813 -2.86626 0.865219 0
M  V30 3253 H 315.359 -1.37814 0.417516 0
M  V30 3254 H 317.312 -4.01335 -1.28485 0
M  V30 3255 H 316.036 -2.82314 -1.64214 0
M  V30 3256 H 314.695 -3.65176 0.322797 0
M  V30 3257 H 314.343 -4.63717 -1.94874 0
M  V30 3258 H 314.043 -5.83797 -0.667446 0
M  V30 3259 H 315.567 -5.89312 -1.59824 0
M  V30 3260 H 316.981 -5.69436 0.664482 0
M  V30 3261 H 315.378 -5.82445 1.4449 0
M  V30 3262 H 316.448 -4.4753 1.86668 0
M  V30 3263 N 317.792 -0.46758 -1.50504 0
M  V30 3264 C 319.017 0.0886943 -2.0721 0
M  V30 3265 C 319.442 1.33057 -1.32956 0
M  V30 3266 O 318.8 1.77354 -0.376197 0
M  V30 3267 C 318.848 0.359202 -3.58806 0
M  V30 3268 O 317.952 1.44034 -3.8643 0
M  V30 3269 H 317.293 -0.0114349 -0.663902 0
M  V30 3270 H 319.823 -0.657613 -1.93744 0
M  V30 3271 H 319.833 0.600742 -4.03553 0
M  V30 3272 H 318.508 -0.548311 -4.1227 0
M  V30 3273 H 317.085 1.18638 -3.53524 0
M  V30 3274 N 319.27 1.56325 -0.20005 0
M  V30 3275 C 320.686 1.58839 0.155716 0
M  V30 3276 C 320.886 1.21636 1.60645 0
M  V30 3277 O 319.942 0.941437 2.34293 0
M  V30 3278 C 321.255 3.0032 -0.151124 0
M  V30 3279 C 322.803 3.12866 -0.0916284 0
M  V30 3280 C 323.278 4.56488 -0.371845 0
M  V30 3281 N 324.769 4.62089 -0.320641 0
M  V30 3282 C 325.504 5.71116 -0.511243 0
M  V30 3283 N 325 6.88592 -0.762461 0
M  V30 3284 N 326.793 5.60335 -0.445157 0
M  V30 3285 H 318.944 1.78788 -1.14668 0
M  V30 3286 H 321.207 0.829996 -0.458051 0
M  V30 3287 H 320.913 3.32117 -1.15721 0
M  V30 3288 H 320.787 3.73257 0.543986 0
M  V30 3289 H 323.174 2.80878 0.905065 0
M  V30 3290 H 323.255 2.42304 -0.81989 0
M  V30 3291 H 322.899 4.89189 -1.36588 0
M  V30 3292 H 322.829 5.25246 0.377362 0
M  V30 3293 H 325.32 3.77665 -0.13329 0
M  V30 3294 H 325.633 7.67581 -0.896576 0
M  V30 3295 H 323.978 6.90387 -0.799412 0
M  V30 3296 H 327.169 4.67436 -0.249278 0
M  V30 3297 H 327.342 6.45243 -0.597116 0
M  V30 3298 N 320.748 -0.0735177 1.57428 0
M  V30 3299 C 321.997 -0.771809 1.86349 0
M  V30 3300 C 322.31 -1.78828 0.792452 0
M  V30 3301 O 323.516 -2.53602 0.96945 0
M  V30 3302 C 321.972 -1.42358 3.30548 0
M  V30 3303 C 321.58 -0.445761 4.45777 0
M  V30 3304 C 323.324 -2.10434 3.6867 0
M  V30 3305 C 321.231 -1.10335 5.81016 0
M  V30 3306 H 320.161 -0.291999 0.695164 0
M  V30 3307 H 322.812 -0.0250749 1.83483 0
M  V30 3308 H 321.194 -2.21852 3.28021 0
M  V30 3309 H 322.368 0.319239 4.59693 0
M  V30 3310 H 320.683 0.130457 4.16196 0
M  V30 3311 H 323.28 -2.60405 4.67004 0
M  V30 3312 H 323.623 -2.90298 2.98383 0
M  V30 3313 H 324.156 -1.37773 3.7318 0
M  V30 3314 H 320.895 -0.345061 6.54591 0
M  V30 3315 H 320.415 -1.83925 5.70904 0
M  V30 3316 H 322.094 -1.62367 6.26295 0
M  V30 3317 N 322.226 -1.5378 -0.344866 0
M  V30 3318 C 323.156 -1.84662 -1.42906 0
M  V30 3319 C 324.137 -0.701648 -1.54955 0
M  V30 3320 O 325.322 -0.953438 -1.69184 0
M  V30 3321 C 322.452 -2.05503 -2.79974 0
M  V30 3322 C 321.406 -3.21318 -2.82734 0
M  V30 3323 C 320.732 -3.2749 -4.22675 0
M  V30 3324 C 322.032 -4.59456 -2.48389 0
M  V30 3325 H 323.726 -2.75461 -1.17311 0
M  V30 3326 H 321.272 -1.32542 -0.562896 0
M  V30 3327 H 323.225 -2.25691 -3.55867 0
M  V30 3328 H 321.949 -1.11434 -3.07002 0
M  V30 3329 H 320.608 -3.00984 -2.09294 0
M  V30 3330 H 320.256 -2.31019 -4.4681 0
M  V30 3331 H 319.956 -4.05316 -4.25433 0
M  V30 3332 H 321.48 -3.49887 -5.00412 0
M  V30 3333 H 322.894 -4.79667 -3.13995 0
M  V30 3334 H 321.291 -5.39675 -2.62432 0
M  V30 3335 H 322.361 -4.63155 -1.4358 0
M  V30 3336 N 323.704 0.605807 -1.45491 0
M  V30 3337 C 324.932 1.39136 -1.5313 0
M  V30 3338 C 325.347 1.88082 -0.164507 0
M  V30 3339 O 324.704 1.62316 0.834247 0
M  V30 3340 C 324.755 2.59463 -2.51716 0
M  V30 3341 O 324.476 2.12551 -3.83084 0
M  V30 3342 C 325.977 3.52301 -2.6907 0
M  V30 3343 H 323.197 0.425849 -0.51855 0
M  V30 3344 H 325.741 0.73865 -1.90694 0
M  V30 3345 H 323.896 3.20772 -2.17219 0
M  V30 3346 H 324.31 2.90744 -4.36541 0
M  V30 3347 H 325.784 4.33271 -3.42024 0
M  V30 3348 H 326.261 4.02757 -1.75167 0
M  V30 3349 H 326.867 2.96845 -3.04571 0
M  V30 3350 N 325.182 1.32811 0.848464 0
M  V30 3351 C 326.129 1.22265 1.95755 0
M  V30 3352 C 327.099 0.103413 1.65778 0
M  V30 3353 O 328.284 0.280033 1.88734 0
M  V30 3354 C 325.424 0.958014 3.31536 0
M  V30 3355 C 324.537 2.16262 3.73971 0
M  V30 3356 C 323.672 1.83295 4.98575 0
M  V30 3357 C 322.711 3.00041 5.33518 0
M  V30 3358 N 321.848 2.67125 6.49299 0
M  V30 3359 H 326.688 2.17128 2.04107 0
M  V30 3360 H 324.225 1.07982 0.998913 0
M  V30 3361 H 326.183 0.785052 4.09747 0
M  V30 3362 H 324.813 0.046159 3.22767 0
M  V30 3363 H 323.865 2.44565 2.91362 0
M  V30 3364 H 325.177 3.03572 3.95785 0
M  V30 3365 H 324.331 1.62586 5.84509 0
M  V30 3366 H 323.07 0.932078 4.7871 0
M  V30 3367 H 322.075 3.21374 4.46093 0
M  V30 3368 H 323.3 3.90869 5.55336 0
M  V30 3369 H 321.246 1.79586 6.3094 0
M  V30 3370 H 321.163 3.47965 6.71161 0
M  V30 3371 H 322.431 2.49861 7.3837 0
M  V30 3372 N 326.66 -1.06551 1.16123 0
M  V30 3373 C 327.59 -2.15935 0.88851 0
M  V30 3374 C 328.571 -1.69306 -0.164135 0
M  V30 3375 O 329.756 -1.94193 -0.0167857 0
M  V30 3376 C 326.886 -3.45149 0.385942 0
M  V30 3377 C 325.84 -4.05271 1.3762 0
M  V30 3378 C 325.166 -5.29664 0.732137 0
M  V30 3379 C 326.466 -4.44355 2.74493 0
M  V30 3380 H 328.16 -2.39006 1.80323 0
M  V30 3381 H 325.706 -1.14866 0.868435 0
M  V30 3382 H 327.659 -4.21004 0.182647 0
M  V30 3383 H 326.383 -3.21689 -0.564274 0
M  V30 3384 H 325.042 -3.3147 1.56599 0
M  V30 3385 H 324.69 -5.02499 -0.224483 0
M  V30 3386 H 324.39 -5.70848 1.39307 0
M  V30 3387 H 325.914 -6.08218 0.538802 0
M  V30 3388 H 327.328 -5.11303 2.59311 0
M  V30 3389 H 325.725 -4.96515 3.37035 0
M  V30 3390 H 326.795 -3.55339 3.29943 0
M  V30 3391 N 328.138 -0.959301 -1.25041 0
M  V30 3392 C 329.068 -0.501388 -2.28053 0
M  V30 3393 C 330.049 0.454673 -1.63911 0
M  V30 3394 O 331.234 0.352618 -1.90972 0
M  V30 3395 C 328.364 0.217224 -3.4662 0
M  V30 3396 C 327.318 -0.654034 -4.22973 0
M  V30 3397 C 326.644 0.195589 -5.34342 0
M  V30 3398 C 327.944 -1.93447 -4.85155 0
M  V30 3399 H 329.638 -1.36238 -2.66608 0
M  V30 3400 H 327.184 -0.656534 -1.28163 0
M  V30 3401 H 329.137 0.548732 -4.17812 0
M  V30 3402 H 327.861 1.1125 -3.07068 0
M  V30 3403 H 326.52 -0.968693 -3.5357 0
M  V30 3404 H 326.168 1.09076 -4.91031 0
M  V30 3405 H 325.868 -0.384091 -5.86343 0
M  V30 3406 H 327.392 0.521958 -6.08365 0
M  V30 3407 H 328.806 -1.66908 -5.48466 0
M  V30 3408 H 327.203 -2.46018 -5.47353 0
M  V30 3409 H 328.273 -2.63466 -4.07079 0
M  V30 3410 N 329.616 1.39756 -0.72842 0
M  V30 3411 C 330.546 2.33289 -0.0991354 0
M  V30 3412 C 331.527 1.53568 0.731489 0
M  V30 3413 O 332.712 1.81987 0.677807 0
M  V30 3414 C 329.842 3.3763 0.813834 0
M  V30 3415 C 328.796 4.2791 0.0878663 0
M  V30 3416 C 328.122 5.22894 1.11741 0
M  V30 3417 C 329.422 5.11314 -1.06563 0
M  V30 3418 H 331.116 2.86163 -0.880408 0
M  V30 3419 H 328.662 1.37591 -0.424819 0
M  V30 3420 H 330.615 4.0201 1.26355 0
M  V30 3421 H 329.339 2.83181 1.62715 0
M  V30 3422 H 327.998 3.65 -0.342159 0
M  V30 3423 H 327.646 4.64744 1.92412 0
M  V30 3424 H 327.346 5.84143 0.636477 0
M  V30 3425 H 328.87 5.90151 1.56697 0
M  V30 3426 H 330.284 5.69076 -0.694671 0
M  V30 3427 H 328.681 5.81671 -1.47577 0
M  V30 3428 H 329.751 4.46534 -1.89038 0
M  V30 3429 N 331.094 0.475555 1.50254 0
M  V30 3430 C 332.505 0.0215174 1.86688 0
M  V30 3431 C 332.856 -1.38467 1.39001 0
M  V30 3432 O 331.981 -2.02732 0.756894 0
M  V30 3433 C 332.576 0.0322715 3.38785 0
M  V30 3434 C 331.135 -0.366314 3.74613 0
M  V30 3435 C 330.282 0.415832 2.74164 0
M  V30 3436 H 333.233 0.689612 1.42934 0
M  V30 3437 H 333.254 -0.76889 3.7265 0
M  V30 3438 H 332.766 1.05584 3.73462 0
M  V30 3439 H 330.867 -1.39406 3.45538 0
M  V30 3440 H 330.98 -0.064555 4.79057 0
M  V30 3441 H 329.344 -0.131048 2.54363 0
M  V30 3442 H 330.127 1.43899 3.11686 0
M  V30 3443 N 332.573 -1.56217 0.208337 0
M  V30 3444 C 333.85 -1.89739 -0.475234 0
M  V30 3445 C 334.23 -1.1238 -1.78701 0
M  V30 3446 O 333.578 -0.228979 -2.2735 0
M  V30 3447 C 333.788 -3.42289 -0.681101 0
M  V30 3448 C 335.136 -4.12789 -0.994507 0
M  V30 3449 O 336.16 -3.47814 -0.768357 0
M  V30 3450 O 335.019 -5.27649 -1.42299 0
M  V30 3451 H 332.113 -0.788478 -0.249461 0
M  V30 3452 H 334.659 -1.67855 0.249538 0
M  V30 3453 H 333.431 -3.90534 0.244722 0
M  V30 3454 H 333.054 -3.69909 -1.45785 0
M  V30 3455 N 334.051 0.0651679 -1.57465 0
M  V30 3456 C 334.961 1.09448 -2.07505 0
M  V30 3457 C 335.977 1.41974 -1.00595 0
M  V30 3458 O 337.153 1.52018 -1.32107 0
M  V30 3459 C 334.218 2.38689 -2.51453 0
M  V30 3460 C 333.279 2.13073 -3.72691 0
M  V30 3461 C 332.512 3.36152 -4.14533 0
M  V30 3462 O 332.735 4.45517 -3.56189 0
M  V30 3463 O 331.669 3.23974 -5.07272 0
M  V30 3464 H 335.495 0.69935 -2.95538 0
M  V30 3465 H 333.08 0.279752 -1.46757 0
M  V30 3466 H 334.962 3.14736 -2.80212 0
M  V30 3467 H 333.637 2.77568 -1.66546 0
M  V30 3468 H 332.544 1.34709 -3.49005 0
M  V30 3469 H 333.877 1.79071 -4.5847 0
M  V30 3470 N 335.529 1.53961 0.336706 0
M  V30 3471 C 336.945 1.44378 0.680241 0
M  V30 3472 C 337.145 0.606034 1.9217 0
M  V30 3473 O 336.201 0.099688 2.52303 0
M  V30 3474 C 337.514 2.87945 0.8665 0
M  V30 3475 C 339.062 2.97763 0.964682 0
M  V30 3476 C 339.537 4.42453 1.18321 0
M  V30 3477 N 341.028 4.46008 1.25025 0
M  V30 3478 C 341.763 5.55102 1.43697 0
M  V30 3479 N 341.259 6.7419 1.59498 0
M  V30 3480 N 343.052 5.42727 1.463 0
M  V30 3481 H 335.203 2.06918 -0.479455 0
M  V30 3482 H 337.466 0.935634 -0.152619 0
M  V30 3483 H 337.172 3.51691 0.0256937 0
M  V30 3484 H 337.046 3.33293 1.76623 0
M  V30 3485 H 339.433 2.34153 1.796 0
M  V30 3486 H 339.514 2.55766 0.041708 0
M  V30 3487 H 339.158 5.06645 0.356788 0
M  V30 3488 H 339.088 4.82048 2.11985 0
M  V30 3489 H 341.579 3.60196 1.14312 0
M  V30 3490 H 341.892 7.53095 1.734 0
M  V30 3491 H 340.237 6.77123 1.56621 0
M  V30 3492 H 343.428 4.48647 1.33543 0
M  V30 3493 H 343.601 6.27806 1.6051 0
M  V30 3494 N 337.007 -0.598083 1.45811 0
M  V30 3495 C 337.97 -1.69018 1.54808 0
M  V30 3496 C 338.97 -1.55037 0.426652 0
M  V30 3497 O 340.16 -1.59932 0.690456 0
M  V30 3498 C 337.292 -3.0835 1.45371 0
M  V30 3499 H 338.485 -1.62403 2.52121 0
M  V30 3500 H 336.038 -0.814626 1.33392 0
M  V30 3501 H 336.773 -3.20534 0.492793 0
M  V30 3502 H 336.558 -3.19907 2.26721 0
M  V30 3503 H 338.048 -3.8788 1.54721 0
M  V30 3504 N 338.485 -1.33259 -0.841409 0
M  V30 3505 C 339.71 -1.2775 -1.63385 0
M  V30 3506 C 340.135 0.149188 -1.87507 0
M  V30 3507 O 339.493 1.10498 -1.43736 0
M  V30 3508 C 339.541 -2.05571 -2.96265 0
M  V30 3509 O 338.645 -1.41257 -3.87453 0
M  V30 3510 H 337.986 -0.439627 -0.497618 0
M  V30 3511 H 340.516 -1.75782 -1.04699 0
M  V30 3512 H 340.526 -2.16241 -3.45982 0
M  V30 3513 H 339.201 -3.09309 -2.7803 0
M  V30 3514 H 337.778 -1.39217 -3.45938 0
M  V30 3515 N 339.963 1.05934 -1.16686 0
M  V30 3516 C 341.191 1.8249 -0.974929 0
M  V30 3517 C 341.606 1.82679 0.476861 0
M  V30 3518 O 340.963 1.2486 1.33103 0
M  V30 3519 C 341.014 3.28943 -1.49929 0
M  V30 3520 O 340.735 3.28886 -2.89423 0
M  V30 3521 C 342.236 4.22215 -1.35089 0
M  V30 3522 H 339.456 0.575295 -0.345365 0
M  V30 3523 H 342 1.33631 -1.548 0
M  V30 3524 H 340.155 3.751 -0.968423 0
M  V30 3525 H 340.569 4.20493 -3.13506 0
M  V30 3526 H 342.043 5.22987 -1.76603 0
M  V30 3527 H 342.52 4.38195 -0.296935 0
M  V30 3528 H 343.126 3.81907 -1.87155 0
M  V30 3529 N 341.441 0.965919 1.2453 0
M  V30 3530 C 342.371 0.513476 2.27784 0
M  V30 3531 C 343.352 -0.445974 1.6415 0
M  V30 3532 O 344.537 -0.342485 1.91156 0
M  V30 3533 C 341.667 -0.198839 3.4673 0
M  V30 3534 C 340.621 0.676456 4.2262 0
M  V30 3535 C 339.947 -0.167248 5.34438 0
M  V30 3536 C 341.247 1.96017 4.84123 0
M  V30 3537 H 342.941 1.3765 2.65881 0
M  V30 3538 H 340.487 0.663321 1.27813 0
M  V30 3539 H 342.44 -0.526567 4.18097 0
M  V30 3540 H 341.164 -1.0962 3.07654 0
M  V30 3541 H 339.823 0.98743 3.53052 0
M  V30 3542 H 339.471 -1.0647 4.91603 0
M  V30 3543 H 339.171 0.415181 5.86131 0
M  V30 3544 H 340.695 -0.489688 6.08633 0
M  V30 3545 H 342.109 1.69814 5.47573 0
M  V30 3546 H 340.506 2.48918 5.4604 0
M  V30 3547 H 341.576 2.65622 4.05676 0
M  V30 3548 N 342.919 -1.39368 0.735821 0
M  V30 3549 C 344.168 -1.99733 0.281004 0
M  V30 3550 C 344.481 -1.59055 -1.13846 0
M  V30 3551 O 345.687 -2.12262 -1.69284 0
M  V30 3552 C 344.143 -3.57057 0.451462 0
M  V30 3553 C 343.751 -4.06697 1.87886 0
M  V30 3554 C 345.495 -4.2446 0.0584616 0
M  V30 3555 C 343.402 -5.56598 1.99883 0
M  V30 3556 H 342.332 -0.747163 0.101311 0
M  V30 3557 H 344.983 -1.59357 0.909819 0
M  V30 3558 H 343.365 -3.95234 -0.246263 0
M  V30 3559 H 344.539 -3.79853 2.60861 0
M  V30 3560 H 342.854 -3.5196 2.22515 0
M  V30 3561 H 345.451 -5.34549 0.127099 0
M  V30 3562 H 345.794 -4.04444 -0.986433 0
M  V30 3563 H 346.327 -3.9146 0.707374 0
M  V30 3564 H 343.066 -5.81494 3.02564 0
M  V30 3565 H 342.586 -5.85242 1.31346 0
M  V30 3566 H 344.265 -6.22022 1.78039 0
M  V30 3567 N 344.397 -0.483516 -1.5 0
M  V30 3568 C 345.644 0.0671597 -2.02389 0
M  V30 3569 C 345.972 1.38597 -1.36459 0
M  V30 3570 O 345.227 1.89634 -0.483458 0
M  V30 3571 C 345.526 0.286226 -3.56252 0
M  V30 3572 C 345.192 -0.952416 -4.40726 0
M  V30 3573 C 343.854 -1.29199 -4.63531 0
M  V30 3574 C 346.206 -1.77655 -4.89988 0
M  V30 3575 C 343.534 -2.45553 -5.32842 0
M  V30 3576 C 345.886 -2.93147 -5.60578 0
M  V30 3577 C 344.55 -3.27505 -5.81633 0
M  V30 3578 H 343.82 0.0245755 -0.740592 0
M  V30 3579 H 346.467 -0.640124 -1.80485 0
M  V30 3580 H 344.772 1.07587 -3.76739 0
M  V30 3581 H 346.469 0.726473 -3.94365 0
M  V30 3582 H 343.059 -0.677881 -4.23205 0
M  V30 3583 H 347.243 -1.52737 -4.72213 0
M  V30 3584 H 342.499 -2.72431 -5.47349 0
M  V30 3585 H 346.673 -3.57344 -5.97727 0
M  V30 3586 H 344.3 -4.1777 -6.35116 0
M  V30 3587 N 345.875 1.56104 -0.216619 0
M  V30 3588 C 347.122 1.98172 0.416416 0
M  V30 3589 C 347.45 1.10413 1.60122 0
M  V30 3590 O 346.705 0.147967 1.9514 0
M  V30 3591 C 347.004 3.45923 0.898464 0
M  V30 3592 C 346.67 4.50559 -0.175288 0
M  V30 3593 C 345.332 4.78897 -0.470271 0
M  V30 3594 C 347.684 5.1334 -0.901728 0
M  V30 3595 C 345.012 5.67299 -1.4963 0
M  V30 3596 C 347.364 6.02853 -1.91705 0
M  V30 3597 C 346.028 6.29537 -2.21901 0
M  V30 3598 H 345.298 0.725164 0.152377 0
M  V30 3599 H 347.945 1.88839 -0.318103 0
M  V30 3600 H 346.25 3.52434 1.71165 0
M  V30 3601 H 347.947 3.75841 1.39803 0
M  V30 3602 H 344.537 4.28551 0.0647806 0
M  V30 3603 H 348.721 4.91521 -0.687072 0
M  V30 3604 H 343.977 5.86239 -1.73592 0
M  V30 3605 H 348.151 6.50552 -2.48505 0
M  V30 3606 H 345.778 6.97835 -3.01548 0
M  V30 3607 N 347.353 -0.0568162 1.57498 0
M  V30 3608 C 348.283 -1.06593 2.0775 0
M  V30 3609 C 349.264 -1.39448 0.974082 0
M  V30 3610 O 350.449 -1.48815 1.24771 0
M  V30 3611 C 347.579 -2.37509 2.5339 0
M  V30 3612 C 346.533 -2.1897 3.67745 0
M  V30 3613 C 345.859 -3.55402 3.99492 0
M  V30 3614 C 347.159 -1.59859 4.97235 0
M  V30 3615 H 348.853 -0.647706 2.9231 0
M  V30 3616 H 346.399 -0.310116 1.40621 0
M  V30 3617 H 348.352 -3.08409 2.87162 0
M  V30 3618 H 347.076 -2.8134 1.65878 0
M  V30 3619 H 345.735 -1.50508 3.3428 0
M  V30 3620 H 345.383 -3.9683 3.09088 0
M  V30 3621 H 345.083 -3.43831 4.76502 0
M  V30 3622 H 346.607 -4.27708 4.35773 0
M  V30 3623 H 348.021 -2.20642 5.29141 0
M  V30 3624 H 346.418 -1.58942 5.78669 0
M  V30 3625 H 347.488 -0.561506 4.81638 0
M  V30 3626 N 348.832 -1.54138 -0.328536 0
M  V30 3627 C 350.078 -1.7236 -1.06865 0
M  V30 3628 C 350.411 -0.493231 -1.87832 0
M  V30 3629 O 349.686 0.5098 -1.877 0
M  V30 3630 C 349.969 -2.99621 -1.99747 0
M  V30 3631 C 349.822 -4.32899 -1.22143 0
M  V30 3632 C 351.141 -3.22615 -2.99345 0
M  V30 3633 H 348.26 -0.627151 -0.387105 0
M  V30 3634 H 350.902 -1.86827 -0.345767 0
M  V30 3635 H 349.052 -2.87418 -2.61387 0
M  V30 3636 H 350.724 -4.56978 -0.630017 0
M  V30 3637 H 348.967 -4.30628 -0.523628 0
M  V30 3638 H 349.638 -5.18154 -1.90318 0
M  V30 3639 H 352.114 -3.34248 -2.47826 0
M  V30 3640 H 350.99 -4.13027 -3.61524 0
M  V30 3641 H 351.251 -2.3961 -3.71536 0
M  V30 3642 N 350.31 0.590341 -1.46126 0
M  V30 3643 C 351.535 1.37991 -1.54833 0
M  V30 3644 C 351.96 1.87163 -0.187506 0
M  V30 3645 O 351.318 1.61133 0.831008 0
M  V30 3646 C 351.366 2.54867 -2.55098 0
M  V30 3647 O 350.47 3.56061 -2.08073 0
M  V30 3648 H 349.811 0.411265 -0.521303 0
M  V30 3649 H 352.341 0.716819 -1.91632 0
M  V30 3650 H 352.351 3.01886 -2.74461 0
M  V30 3651 H 351.026 2.18429 -3.53923 0
M  V30 3652 H 349.603 3.15574 -1.98664 0
M  V30 3653 N 351.788 1.33704 0.83433 0
M  V30 3654 C 353.034 1.25603 1.59222 0
M  V30 3655 C 353.367 -0.176659 1.93395 0
M  V30 3656 O 352.642 -1.11915 1.59076 0
M  V30 3657 C 352.925 2.13576 2.89926 0
M  V30 3658 C 352.778 3.65326 2.62406 0
M  V30 3659 C 354.097 2.01238 3.91397 0
M  V30 3660 H 351.216 0.457613 0.577719 0
M  V30 3661 H 353.858 1.63848 0.961972 0
M  V30 3662 H 352.008 1.8109 3.43713 0
M  V30 3663 H 353.68 4.08124 2.15017 0
M  V30 3664 H 351.923 3.8698 1.96033 0
M  V30 3665 H 352.594 4.22232 3.55562 0
M  V30 3666 H 355.07 2.29738 3.46929 0
M  V30 3667 H 353.946 2.65036 4.80673 0
M  V30 3668 H 354.207 0.985951 4.30966 0
M  V30 3669 N 353.266 -1.05314 1.17247 0
M  V30 3670 C 354.229 -2.112 0.890357 0
M  V30 3671 C 355.229 -1.60359 -0.118943 0
M  V30 3672 O 356.419 -1.73833 0.113086 0
M  V30 3673 C 353.551 -3.39266 0.333422 0
M  V30 3674 H 354.744 -2.37659 1.82916 0
M  V30 3675 H 352.297 -1.21538 0.982758 0
M  V30 3676 H 353.032 -3.18462 -0.612587 0
M  V30 3677 H 352.817 -3.77477 1.06082 0
M  V30 3678 H 354.307 -4.17315 0.154322 0
M  V30 3679 N 354.744 -0.972509 -1.24016 0
M  V30 3680 C 355.674 -0.525548 -2.27509 0
M  V30 3681 C 356.655 0.437262 -1.64384 0
M  V30 3682 O 357.84 0.332343 -1.91335 0
M  V30 3683 C 354.97 0.180448 -3.46831 0
M  V30 3684 C 353.924 -0.698859 -4.22256 0
M  V30 3685 C 353.25 0.138903 -5.3452 0
M  V30 3686 C 354.55 -1.98582 -4.83076 0
M  V30 3687 H 356.244 -1.39058 -2.65148 0
M  V30 3688 H 353.79 -0.67009 -1.27459 0
M  V30 3689 H 355.743 0.504387 -4.18371 0
M  V30 3690 H 354.467 1.07987 -3.08231 0
M  V30 3691 H 353.126 -1.00614 -3.52523 0
M  V30 3692 H 352.774 1.03862 -4.9216 0
M  V30 3693 H 352.474 -0.446259 -5.85903 0
M  V30 3694 H 353.998 0.457404 -6.08884 0
M  V30 3695 H 355.412 -1.72715 -5.46665 0
M  V30 3696 H 353.809 -2.5181 -5.44713 0
M  V30 3697 H 354.879 -2.67769 -4.04262 0
M  V30 3698 N 356.222 1.38976 -0.743202 0
M  V30 3699 C 357.132 2.3434 -0.110399 0
M  V30 3700 C 358.148 1.58741 0.712559 0
M  V30 3701 O 359.324 1.9099 0.639125 0
M  V30 3702 C 356.389 3.37812 0.780012 0
M  V30 3703 C 355.45 4.29263 -0.0561319 0
M  V30 3704 C 354.683 5.27793 0.791875 0
M  V30 3705 O 354.906 5.33043 2.03031 0
M  V30 3706 O 353.84 6.01512 0.216183 0
M  V30 3707 H 357.666 2.90129 -0.897714 0
M  V30 3708 H 355.251 1.40643 -0.503966 0
M  V30 3709 H 357.133 4.01194 1.28923 0
M  V30 3710 H 355.808 2.84395 1.546 0
M  V30 3711 H 354.715 3.69076 -0.611056 0
M  V30 3712 H 356.048 4.85907 -0.784531 0
M  V30 3713 N 357.7 0.491464 1.49741 0
M  V30 3714 C 358.63 -0.28154 2.31796 0
M  V30 3715 C 359.611 -0.971473 1.3963 0
M  V30 3716 O 360.796 -0.964719 1.68543 0
M  V30 3717 C 357.926 -1.35203 3.19902 0
M  V30 3718 C 356.88 -0.782529 4.20786 0
M  V30 3719 C 356.206 -1.95283 4.97764 0
M  V30 3720 C 357.506 0.21999 5.21837 0
M  V30 3721 H 359.2 0.403355 2.96671 0
M  V30 3722 H 356.746 0.195425 1.42668 0
M  V30 3723 H 358.699 -1.90045 3.76113 0
M  V30 3724 H 357.423 -2.06598 2.52953 0
M  V30 3725 H 356.082 -0.255928 3.65706 0
M  V30 3726 H 355.73 -2.65423 4.2727 0
M  V30 3727 H 355.43 -1.57789 5.66018 0
M  V30 3728 H 356.954 -2.50577 5.56816 0
M  V30 3729 H 358.368 -0.23996 5.72798 0
M  V30 3730 H 356.765 0.51026 5.97927 0
M  V30 3731 H 357.835 1.13911 4.7133 0
M  V30 3732 N 359.178 -1.55987 0.224894 0
M  V30 3733 C 360.108 -2.23426 -0.678457 0
M  V30 3734 C 361.089 -1.20709 -1.19847 0
M  V30 3735 O 362.274 -1.49304 -1.24186 0
M  V30 3736 C 359.404 -2.91676 -1.88527 0
M  V30 3737 C 358.358 -4.00893 -1.49896 0
M  V30 3738 C 357.684 -4.56455 -2.78483 0
M  V30 3739 C 358.984 -5.17769 -0.686461 0
M  V30 3740 H 360.678 -2.99175 -0.116173 0
M  V30 3741 H 358.224 -1.43897 -0.054436 0
M  V30 3742 H 360.177 -3.37547 -2.5227 0
M  V30 3743 H 358.901 -2.1338 -2.47258 0
M  V30 3744 H 357.56 -3.55758 -0.884985 0
M  V30 3745 H 357.208 -3.74886 -3.35365 0
M  V30 3746 H 356.908 -5.30169 -2.53368 0
M  V30 3747 H 358.432 -5.05047 -3.43162 0
M  V30 3748 H 359.846 -5.60001 -1.22767 0
M  V30 3749 H 358.243 -5.97735 -0.532259 0
M  V30 3750 H 359.313 -4.83932 0.306196 0
M  V30 3751 N 360.656 0.0484629 -1.57525 0
M  V30 3752 C 361.896 0.748196 -1.90214 0
M  V30 3753 C 362.26 1.73545 -0.821347 0
M  V30 3754 O 363.461 2.48201 -1.03198 0
M  V30 3755 C 361.732 1.41727 -3.28098 0
M  V30 3756 S 363.291 2.14884 -3.82584 0
M  V30 3757 H 360.109 0.248307 -0.666232 0
M  V30 3758 H 362.711 0.00343188 -1.955 0
M  V30 3759 H 361.415 0.685244 -4.04639 0
M  V30 3760 H 360.946 2.20099 -3.26068 0
M  V30 3761 H 362.961 3.41755 -3.59747 0
M  V30 3762 N 362.134 1.5431 0.320358 0
M  V30 3763 C 363.381 1.72668 1.05792 0
M  V30 3764 C 363.709 0.502084 1.87908 0
M  V30 3765 O 362.964 -0.516149 1.88771 0
M  V30 3766 C 363.263 2.95639 2.00828 0
M  V30 3767 C 362.929 4.30265 1.34843 0
M  V30 3768 C 361.591 4.66865 1.16578 0
M  V30 3769 C 363.943 5.13801 0.875095 0
M  V30 3770 C 361.271 5.84597 0.496336 0
M  V30 3771 C 363.623 6.32219 0.219463 0
M  V30 3772 C 362.287 6.67495 0.0246915 0
M  V30 3773 H 361.557 0.631837 0.387121 0
M  V30 3774 H 364.204 1.88552 0.334735 0
M  V30 3775 H 362.509 2.74456 2.79609 0
M  V30 3776 H 364.206 3.07038 2.57932 0
M  V30 3777 H 360.796 4.01472 1.50061 0
M  V30 3778 H 364.98 4.86039 1.00398 0
M  V30 3779 H 360.236 6.10486 0.334264 0
M  V30 3780 H 364.41 6.96227 -0.155291 0
M  V30 3781 H 362.037 7.5858 -0.496065 0
M  V30 3782 N 363.613 -0.582584 1.46437 0
M  V30 3783 C 364.543 -1.70187 1.59871 0
M  V30 3784 C 365.524 -1.64066 0.449042 0
M  V30 3785 O 366.709 -1.82081 0.6753 0
M  V30 3786 C 363.839 -3.08827 1.58881 0
M  V30 3787 C 362.793 -3.29779 2.72819 0
M  V30 3788 C 362.119 -4.68947 2.5689 0
M  V30 3789 C 363.419 -3.17601 4.1464 0
M  V30 3790 H 365.113 -1.592 2.53566 0
M  V30 3791 H 362.659 -0.764472 1.22032 0
M  V30 3792 H 364.612 -3.86951 1.66873 0
M  V30 3793 H 363.336 -3.20713 0.617306 0
M  V30 3794 H 361.995 -2.54054 2.64296 0
M  V30 3795 H 361.643 -4.77599 1.57823 0
M  V30 3796 H 361.343 -4.83919 3.33312 0
M  V30 3797 H 362.867 -5.4924 2.66773 0
M  V30 3798 H 364.281 -3.8557 4.24274 0
M  V30 3799 H 362.678 -3.44094 4.9165 0
M  V30 3800 H 363.748 -2.14681 4.34788 0
M  V30 3801 N 365.091 -1.34144 -0.827227 0
M  V30 3802 C 366.021 -1.28005 -1.95287 0
M  V30 3803 C 367.002 -0.158321 -1.69362 0
M  V30 3804 O 368.187 -0.349987 -1.9102 0
M  V30 3805 C 365.317 -1.03036 -3.31664 0
M  V30 3806 C 364.271 -2.11628 -3.72019 0
M  V30 3807 C 363.597 -1.71854 -5.0633 0
M  V30 3808 C 364.897 -3.53417 -3.8457 0
M  V30 3809 H 366.591 -2.22187 -2.00682 0
M  V30 3810 H 364.137 -1.0696 -0.964135 0
M  V30 3811 H 366.09 -0.973863 -4.09993 0
M  V30 3812 H 364.814 -0.0529391 -3.26557 0
M  V30 3813 H 363.473 -2.16339 -2.95961 0
M  V30 3814 H 363.121 -0.727841 -4.97706 0
M  V30 3815 H 362.821 -2.44531 -5.34302 0
M  V30 3816 H 364.345 -1.67692 -5.87122 0
M  V30 3817 H 365.759 -3.51142 -4.5318 0
M  V30 3818 H 364.156 -4.24679 -4.2399 0
M  V30 3819 H 365.226 -3.91072 -2.86689 0
M  V30 3820 N 366.569 1.04691 -1.17803 0
M  V30 3821 C 367.519 2.10856 -0.867391 0
M  V30 3822 C 368.503 1.601 0.160206 0
M  V30 3823 O 369.695 1.76948 -0.042947 0
M  V30 3824 C 366.824 3.411 -0.388012 0
M  V30 3825 C 365.91 3.9864 -1.44732 0
M  V30 3826 N 366.301 4.30075 -2.66212 0
M  V30 3827 C 364.599 4.26439 -1.30637 0
M  V30 3828 C 365.3 4.76033 -3.34317 0
M  V30 3829 N 364.276 4.76462 -2.61696 0
M  V30 3830 H 368.078 2.33029 -1.79094 0
M  V30 3831 H 365.592 1.22386 -1.0675 0
M  V30 3832 H 367.589 4.16641 -0.146994 0
M  V30 3833 H 366.249 3.20357 0.529271 0
M  V30 3834 H 367.26 4.19917 -3.03134 0
M  V30 3835 H 363.937 4.15056 -0.451129 0
M  V30 3836 H 365.327 5.09427 -4.38103 0
M  V30 3837 N 368.047 0.979072 1.23499 0
M  V30 3838 C 368.977 0.537606 2.27227 0
M  V30 3839 C 369.958 -0.428539 1.64613 0
M  V30 3840 O 371.143 -0.322191 1.91509 0
M  V30 3841 C 368.273 -0.162052 3.46922 0
M  V30 3842 C 367.227 0.721242 4.21879 0
M  V30 3843 C 366.553 -0.110555 5.34586 0
M  V30 3844 C 367.853 2.01141 4.82016 0
M  V30 3845 H 369.547 1.40462 2.64406 0
M  V30 3846 H 367.093 0.67684 1.27102 0
M  V30 3847 H 369.046 -0.482192 4.18632 0
M  V30 3848 H 367.77 -1.06351 3.08799 0
M  V30 3849 H 366.429 1.02482 3.51984 0
M  V30 3850 H 366.077 -1.0125 4.92704 0
M  V30 3851 H 365.777 0.477325 5.85658 0
M  V30 3852 H 367.301 -0.425107 6.09118 0
M  V30 3853 H 368.715 1.75612 5.45741 0
M  V30 3854 H 367.112 2.54695 5.43369 0
M  V30 3855 H 368.182 2.69909 4.02836 0
M  V30 3856 N 369.525 -1.3858 0.750561 0
M  V30 3857 C 370.455 -2.33102 0.136237 0
M  V30 3858 C 371.436 -1.54713 -0.706965 0
M  V30 3859 O 372.621 -1.83043 -0.648769 0
M  V30 3860 C 369.751 -3.38882 -0.760017 0
M  V30 3861 C 368.705 -4.27995 -0.0197785 0
M  V30 3862 C 368.031 -5.24605 -1.03408 0
M  V30 3863 C 369.331 -5.09554 1.14684 0
M  V30 3864 H 371.025 -2.84726 0.925822 0
M  V30 3865 H 368.571 -1.36898 0.446654 0
M  V30 3866 H 370.524 -4.0397 -1.19943 0
M  V30 3867 H 369.248 -2.85734 -1.58189 0
M  V30 3868 H 367.907 -3.64409 0.400184 0
M  V30 3869 H 367.555 -4.67746 -1.84994 0
M  V30 3870 H 367.255 -5.85081 -0.543464 0
M  V30 3871 H 368.779 -5.9257 -1.47288 0
M  V30 3872 H 370.193 -5.67899 0.785118 0
M  V30 3873 H 368.59 -5.7925 1.56812 0
M  V30 3874 H 369.66 -4.4347 1.96118 0
M  V30 3875 N 371.003 -0.499398 -1.49478 0
M  V30 3876 C 372.249 0.0457576 -2.02748 0
M  V30 3877 C 372.582 1.36793 -1.37846 0
M  V30 3878 O 371.857 1.87596 -0.513601 0
M  V30 3879 C 372.14 0.199986 -3.59544 0
M  V30 3880 C 371.993 -1.1452 -4.34977 0
M  V30 3881 C 373.312 0.94137 -4.29914 0
M  V30 3882 H 370.431 0.0151552 -0.736844 0
M  V30 3883 H 373.073 -0.650498 -1.78518 0
M  V30 3884 H 371.223 0.793007 -3.8032 0
M  V30 3885 H 372.895 -1.77697 -4.25701 0
M  V30 3886 H 371.138 -1.73488 -3.97598 0
M  V30 3887 H 371.809 -0.990607 -5.43039 0
M  V30 3888 H 374.285 0.43844 -4.13784 0
M  V30 3889 H 373.161 1.01812 -5.39375 0
M  V30 3890 H 373.422 1.98471 -3.95046 0
M  V30 3891 N 372.481 1.55866 -0.233164 0
M  V30 3892 C 373.897 1.59133 0.121988 0
M  V30 3893 C 374.097 1.25016 1.58029 0
M  V30 3894 O 373.153 0.990922 2.32243 0
M  V30 3895 C 374.466 2.99932 -0.214792 0
M  V30 3896 C 376.014 3.12601 -0.157971 0
M  V30 3897 C 376.489 4.55597 -0.46859 0
M  V30 3898 N 377.98 4.61305 -0.418585 0
M  V30 3899 C 378.715 5.69903 -0.63227 0
M  V30 3900 N 378.211 6.86819 -0.90835 0
M  V30 3901 N 380.004 5.59264 -0.563913 0
M  V30 3902 H 372.155 1.76315 -1.18434 0
M  V30 3903 H 374.418 0.820093 -0.475553 0
M  V30 3904 H 374.124 3.29588 -1.22739 0
M  V30 3905 H 373.998 3.74327 0.464691 0
M  V30 3906 H 376.385 2.82735 0.845283 0
M  V30 3907 H 376.466 2.40511 -0.871102 0
M  V30 3908 H 376.11 4.86182 -1.46934 0
M  V30 3909 H 376.04 5.25928 0.265865 0
M  V30 3910 H 378.531 3.77297 -0.213368 0
M  V30 3911 H 378.844 7.65507 -1.05919 0
M  V30 3912 H 377.189 6.88536 -0.945673 0
M  V30 3913 H 380.38 4.66802 -0.348372 0
M  V30 3914 H 380.553 6.43831 -0.733847 0
M  V30 3915 N 373.959 -0.0401083 1.57549 0
M  V30 3916 C 375.375 -0.395556 1.54621 0
M  V30 3917 C 375.575 -1.77281 0.957799 0
M  V30 3918 O 374.631 -2.45888 0.574031 0
M  V30 3919 C 375.944 -0.307535 2.99123 0
M  V30 3920 C 377.492 -0.385425 3.10618 0
M  V30 3921 C 377.967 -0.326973 4.56831 0
M  V30 3922 N 379.458 -0.386102 4.61588 0
M  V30 3923 C 380.193 -0.363591 5.72246 0
M  V30 3924 N 379.689 -0.29402 6.92176 0
M  V30 3925 N 381.482 -0.412503 5.60584 0
M  V30 3926 H 373.633 0.861325 1.94152 0
M  V30 3927 H 375.896 0.326445 0.890021 0
M  V30 3928 H 375.602 0.638461 3.45856 0
M  V30 3929 H 375.476 -1.10552 3.60636 0
M  V30 3930 H 377.863 -1.32185 2.63839 0
M  V30 3931 H 377.944 0.44171 2.51957 0
M  V30 3932 H 377.588 0.605738 5.04275 0
M  V30 3933 H 377.518 -1.17207 5.13391 0
M  V30 3934 H 380.009 -0.442832 3.75296 0
M  V30 3935 H 380.322 -0.28164 7.72287 0
M  V30 3936 H 378.667 -0.260232 6.94513 0
M  V30 3937 H 381.858 -0.464769 4.65787 0
M  V30 3938 H 382.031 -0.391492 6.46816 0
M  V30 3939 N 375.437 -1.54477 -0.31217 0
M  V30 3940 C 376.662 -1.77526 -1.07235 0
M  V30 3941 C 377.087 -0.527775 -1.80544 0
M  V30 3942 O 376.445 0.52121 -1.73646 0
M  V30 3943 C 376.493 -2.97535 -2.03728 0
M  V30 3944 O 375.597 -2.69878 -3.11833 0
M  V30 3945 H 374.938 -0.58792 -0.30862 0
M  V30 3946 H 377.468 -2.01532 -0.352993 0
M  V30 3947 H 377.478 -3.25198 -2.46395 0
M  V30 3948 H 376.153 -3.87996 -1.49774 0
M  V30 3949 H 374.73 -2.53199 -2.7376 0
M  V30 3950 N 376.915 0.57481 -1.46744 0
M  V30 3951 C 378.331 0.898981 -1.31873 0
M  V30 3952 C 378.531 1.99313 -0.29605 0
M  V30 3953 O 377.587 2.50728 0.298621 0
M  V30 3954 C 378.9 1.30886 -2.7072 0
M  V30 3955 C 380.448 1.42127 -2.78871 0
M  V30 3956 C 380.923 1.86478 -4.18318 0
M  V30 3957 N 382.414 1.93658 -4.20774 0
M  V30 3958 C 383.149 2.29267 -5.2557 0
M  V30 3959 N 382.645 2.63612 -6.40688 0
M  V30 3960 N 384.438 2.29889 -5.1294 0
M  V30 3961 H 376.589 -0.147839 -2.11885 0
M  V30 3962 H 378.852 -0.00347013 -0.947994 0
M  V30 3963 H 378.558 0.578853 -3.46904 0
M  V30 3964 H 378.432 2.26874 -3.01343 0
M  V30 3965 H 380.819 2.14213 -2.0297 0
M  V30 3966 H 380.9 0.443705 -2.51922 0
M  V30 3967 H 380.544 1.14968 -4.94717 0
M  V30 3968 H 380.474 2.85207 -4.42679 0
M  V30 3969 H 382.965 1.69574 -3.37718 0
M  V30 3970 H 383.278 2.89759 -7.16421 0
M  V30 3971 H 381.623 2.61232 -6.44036 0
M  V30 3972 H 384.814 2.02485 -4.22039 0
M  V30 3973 H 384.987 2.57312 -5.94722 0
M  V30 3974 N 378.394 1.34581 0.820102 0
M  V30 3975 C 379.641 1.27096 1.57648 0
M  V30 3976 C 379.969 -0.158317 1.93855 0
M  V30 3977 O 379.224 -1.12028 1.60463 0
M  V30 3978 C 379.523 2.10997 2.8847 0
M  V30 3979 C 379.189 3.59966 2.71543 0
M  V30 3980 C 377.851 4.00575 2.66634 0
M  V30 3981 C 380.203 4.54548 2.55021 0
M  V30 3982 C 377.531 5.33953 2.43128 0
M  V30 3983 C 379.883 5.88109 2.33047 0
M  V30 3984 C 378.547 6.27878 2.26552 0
M  V30 3985 H 377.817 0.465078 0.576874 0
M  V30 3986 H 380.464 1.6635 0.948671 0
M  V30 3987 H 378.769 1.6458 3.55557 0
M  V30 3988 H 380.466 2.0255 3.46084 0
M  V30 3989 H 377.056 3.27733 2.76205 0
M  V30 3990 H 381.24 4.24069 2.57835 0
M  V30 3991 H 376.496 5.63781 2.3656 0
M  V30 3992 H 380.67 6.60985 2.19251 0
M  V30 3993 H 378.297 7.31162 2.081 0
M  V30 3994 N 379.872 -1.04064 1.18357 0
M  V30 3995 C 381.118 -1.77528 0.980397 0
M  V30 3996 C 381.451 -1.87948 -0.48879 0
M  V30 3997 O 380.726 -1.3876 -1.36293 0
M  V30 3998 C 381.009 -3.20797 1.63588 0
M  V30 3999 C 380.862 -3.1832 3.17793 0
M  V30 4000 C 382.181 -4.18911 1.34914 0
M  V30 4001 H 379.3 -0.644443 0.357578 0
M  V30 4002 H 381.942 -1.2156 1.46024 0
M  V30 4003 H 380.092 -3.68586 1.22788 0
M  V30 4004 H 381.764 -2.78521 3.67728 0
M  V30 4005 H 380.007 -2.56351 3.49952 0
M  V30 4006 H 380.678 -4.19489 3.58794 0
M  V30 4007 H 383.154 -3.7967 1.70265 0
M  V30 4008 H 382.03 -5.17374 1.83346 0
M  V30 4009 H 382.291 -4.41262 0.272027 0
M  V30 4010 N 381.35 -0.985608 -1.22978 0
M  V30 4011 C 382.28 -0.549649 -2.26939 0
M  V30 4012 C 383.261 0.419803 -1.64838 0
M  V30 4013 O 384.446 0.31203 -1.91677 0
M  V30 4014 C 381.576 0.143652 -3.47003 0
M  V30 4015 C 380.53 -0.743606 -4.21491 0
M  V30 4016 C 379.856 0.0822027 -5.34637 0
M  V30 4017 C 381.156 -2.03694 -4.80943 0
M  V30 4018 H 382.85 -1.41862 -2.63658 0
M  V30 4019 H 380.396 -0.683571 -1.26741 0
M  V30 4020 H 382.349 0.459985 -4.18882 0
M  V30 4021 H 381.073 1.04711 -3.09359 0
M  V30 4022 H 379.732 -1.04347 -3.51436 0
M  V30 4023 H 379.38 0.986359 -4.93234 0
M  V30 4024 H 379.08 -0.508377 -5.85397 0
M  V30 4025 H 380.604 0.392797 -6.09335 0
M  V30 4026 H 382.018 -1.78504 -5.44802 0
M  V30 4027 H 380.415 -2.57573 -5.42011 0
M  V30 4028 H 381.485 -2.72042 -4.01399 0
M  V30 4029 N 382.828 1.3818 -0.7579 0
M  V30 4030 C 384.075 2.00019 -0.315985 0
M  V30 4031 C 384.403 1.60163 1.10355 0
M  V30 4032 O 383.658 0.83264 1.77103 0
M  V30 4033 C 383.957 3.55252 -0.391218 0
M  V30 4034 C 383.623 4.14834 -1.76702 0
M  V30 4035 C 382.285 4.30821 -2.14353 0
M  V30 4036 C 384.637 4.47658 -2.66931 0
M  V30 4037 C 381.965 4.76928 -3.41696 0
M  V30 4038 C 384.317 4.95184 -3.93669 0
M  V30 4039 C 382.981 5.09377 -4.31383 0
M  V30 4040 H 382.251 0.731923 -0.115627 0
M  V30 4041 H 384.898 1.65161 -0.969223 0
M  V30 4042 H 383.203 3.90273 0.34558 0
M  V30 4043 H 384.9 4.00988 -0.030805 0
M  V30 4044 H 381.49 4.02808 -1.46435 0
M  V30 4045 H 385.674 4.34904 -2.39106 0
M  V30 4046 H 380.93 4.86103 -3.70829 0
M  V30 4047 H 385.104 5.19551 -4.63724 0
M  V30 4048 H 382.731 5.44865 -5.30119 0
M  V30 4049 N 384.306 0.507319 1.49211 0
M  V30 4050 C 385.536 -0.0315292 2.06576 0
M  V30 4051 C 385.944 -1.30791 1.36713 0
M  V30 4052 O 385.287 -1.78324 0.441181 0
M  V30 4053 C 385.349 -0.349104 3.57801 0
M  V30 4054 C 385.013 0.830475 4.49391 0
M  V30 4055 C 386.01 1.72271 4.90529 0
M  V30 4056 C 383.695 1.03107 4.91604 0
M  V30 4057 C 385.689 2.79964 5.72625 0
M  V30 4058 C 383.376 2.11116 5.73475 0
M  V30 4059 C 384.374 2.99379 6.1389 0
M  V30 4060 O 384.062 4.05523 6.94123 0
M  V30 4061 H 383.794 0.0201002 0.675701 0
M  V30 4062 H 386.348 0.705737 1.92895 0
M  V30 4063 H 384.578 -1.14005 3.69513 0
M  V30 4064 H 386.267 -0.827319 3.97379 0
M  V30 4065 H 387.033 1.57958 4.58557 0
M  V30 4066 H 382.912 0.353417 4.59643 0
M  V30 4067 H 386.456 3.48884 6.04091 0
M  V30 4068 H 382.353 2.25421 6.0486 0
M  V30 4069 H 383.121 4.02953 7.1244 0
M  V30 4070 N 385.784 -1.5574 0.241426 0
M  V30 4071 C 387.012 -2.03208 -0.389134 0
M  V30 4072 C 387.427 -1.12082 -1.51931 0
M  V30 4073 O 386.784 -0.134183 -1.82006 0
M  V30 4074 C 386.835 -3.50064 -0.902087 0
M  V30 4075 O 386.556 -4.37717 0.18305 0
M  V30 4076 C 388.057 -4.13268 -1.60389 0
M  V30 4077 H 385.277 -0.664509 -0.0931053 0
M  V30 4078 H 387.821 -2.0124 0.36369 0
M  V30 4079 H 385.976 -3.52583 -1.60511 0
M  V30 4080 H 386.39 -5.24097 -0.205579 0
M  V30 4081 H 387.864 -5.17733 -1.91458 0
M  V30 4082 H 388.341 -3.59434 -2.52397 0
M  V30 4083 H 388.947 -4.14655 -0.945576 0
M  V30 4084 N 387.262 0.0317525 -1.57568 0
M  V30 4085 C 388.49 0.734949 -1.93407 0
M  V30 4086 C 388.905 1.69036 -0.84096 0
M  V30 4087 O 388.262 1.81582 0.182836 0
M  V30 4088 C 388.313 1.49432 -3.29169 0
M  V30 4089 O 388.034 0.577261 -4.3428 0
M  V30 4090 C 389.535 2.29492 -3.79273 0
M  V30 4091 H 386.755 0.206706 -0.638368 0
M  V30 4092 H 389.299 -0.00992046 -2.04498 0
M  V30 4093 H 387.454 2.1911 -3.19483 0
M  V30 4094 H 387.868 1.10952 -5.1263 0
M  V30 4095 H 389.342 2.78172 -4.76785 0
M  V30 4096 H 389.819 3.10794 -3.10328 0
M  V30 4097 H 390.425 1.64894 -3.92033 0
M  V30 4098 N 388.74 1.54641 0.303973 0
M  V30 4099 C 390.156 1.45788 0.649463 0
M  V30 4100 C 390.356 0.64666 1.90842 0
M  V30 4101 O 389.412 0.153183 2.52035 0
M  V30 4102 C 390.725 2.89718 0.805227 0
M  V30 4103 C 392.273 2.99742 0.901305 0
M  V30 4104 C 392.748 4.44863 1.08909 0
M  V30 4105 N 394.239 4.48559 1.15536 0
M  V30 4106 C 394.974 5.58026 1.3189 0
M  V30 4107 N 394.47 6.77422 1.45161 0
M  V30 4108 N 396.263 5.45708 1.34755 0
M  V30 4109 H 388.414 2.05854 -0.523237 0
M  V30 4110 H 390.677 0.932186 -0.172431 0
M  V30 4111 H 390.383 3.51666 -0.0489108 0
M  V30 4112 H 390.257 3.36964 1.69513 0
M  V30 4113 H 392.644 2.3791 1.74593 0
M  V30 4114 H 392.725 2.55797 -0.0125531 0
M  V30 4115 H 392.369 5.07288 0.249241 0
M  V30 4116 H 392.299 4.86436 2.01713 0
M  V30 4117 H 394.79 3.6254 1.06646 0
M  V30 4118 H 395.103 7.56604 1.57387 0
M  V30 4119 H 393.448 6.80292 1.42223 0
M  V30 4120 H 396.639 4.51378 1.23996 0
M  V30 4121 H 396.812 6.3107 1.47157 0
M  V30 4122 N 390.218 -0.567019 1.47046 0
M  V30 4123 C 391.629 -1.14916 1.47143 0
M  V30 4124 C 391.98 -1.94954 0.220767 0
M  V30 4125 O 391.105 -2.05602 -0.67505 0
M  V30 4126 C 391.7 -2.09069 2.666 0
M  V30 4127 C 390.259 -2.62575 2.69687 0
M  V30 4128 C 389.406 -1.38755 2.40088 0
M  V30 4129 H 392.357 -0.354126 1.54699 0
M  V30 4130 H 392.378 -2.92789 2.43011 0
M  V30 4131 H 391.89 -1.50789 3.57609 0
M  V30 4132 H 389.991 -3.24681 1.82792 0
M  V30 4133 H 390.104 -3.04239 3.70102 0
M  V30 4134 H 388.468 -1.69098 1.90468 0
M  V30 4135 H 389.251 -0.822822 3.33293 0
M  V30 4136 N 391.696 -1.35014 -0.812953 0
M  V30 4137 C 393.112 -1.14914 -1.10757 0
M  V30 4138 C 393.312 0.0426818 -2.01455 0
M  V30 4139 O 392.368 0.715212 -2.42159 0
M  V30 4140 C 393.681 -2.44911 -1.74468 0
M  V30 4141 C 395.229 -2.5106 -1.86917 0
M  V30 4142 C 395.704 -3.81085 -2.54044 0
M  V30 4143 N 397.195 -3.82301 -2.61535 0
M  V30 4144 C 397.93 -4.79634 -3.14227 0
M  V30 4145 N 397.426 -5.87353 -3.67407 0
M  V30 4146 N 399.219 -4.67078 -3.12721 0
M  V30 4147 H 391.37 -2.1136 -0.20989 0
M  V30 4148 H 393.633 -0.935128 -0.155692 0
M  V30 4149 H 393.339 -3.32267 -1.15289 0
M  V30 4150 H 393.213 -2.58989 -2.74234 0
M  V30 4151 H 395.6 -1.64137 -2.45241 0
M  V30 4152 H 395.681 -2.40901 -0.860242 0
M  V30 4153 H 395.325 -4.68402 -1.96372 0
M  V30 4154 H 395.255 -3.88529 -3.55461 0
M  V30 4155 H 397.746 -3.04465 -2.23851 0
M  V30 4156 H 398.059 -6.57624 -4.05894 0
M  V30 4157 H 396.404 -5.91054 -3.65623 0
M  V30 4158 H 399.595 -3.82067 -2.70449 0
M  V30 4159 H 399.768 -5.43098 -3.53481 0
M  V30 4160 N 393.175 1.03435 -1.18907 0
M  V30 4161 C 394.452 1.73778 -0.89781 0
M  V30 4162 C 394.832 2.02458 0.597832 0
M  V30 4163 O 394.18 1.67482 1.55441 0
M  V30 4164 C 394.39 3.01845 -1.75187 0
M  V30 4165 C 395.738 3.7546 -1.9828 0
M  V30 4166 O 396.762 3.11759 -1.72293 0
M  V30 4167 O 395.621 4.89966 -2.42065 0
M  V30 4168 H 392.715 0.75651 -0.334098 0
M  V30 4169 H 395.261 1.09444 -1.29693 0
M  V30 4170 H 394.033 2.76836 -2.76545 0
M  V30 4171 H 393.656 3.73919 -1.35167 0
M  V30 4172 N 394.653 0.992116 1.22453 0
M  V30 4173 C 395.878 0.685644 1.95739 0
M  V30 4174 C 396.303 -0.743 1.72804 0
M  V30 4175 O 395.661 -1.50778 1.00676 0
M  V30 4176 C 395.709 0.996293 3.46564 0
M  V30 4177 O 394.813 0.0945512 4.12292 0
M  V30 4178 H 394.154 0.256694 0.612376 0
M  V30 4179 H 396.684 1.32888 1.5557 0
M  V30 4180 H 396.694 0.93781 3.97076 0
M  V30 4181 H 395.369 2.03733 3.62582 0
M  V30 4182 H 393.946 0.208451 3.72317 0
M  V30 4183 N 396.131 -1.37776 0.765217 0
M  V30 4184 C 397.081 -2.2768 0.12075 0
M  V30 4185 C 398.065 -1.45778 -0.680988 0
M  V30 4186 O 399.257 -1.684 -0.545033 0
M  V30 4187 C 396.386 -3.34722 -0.762626 0
M  V30 4188 C 395.472 -4.24074 0.0465881 0
M  V30 4189 N 395.863 -4.93939 1.08892 0
M  V30 4190 C 394.161 -4.45643 -0.178418 0
M  V30 4191 C 394.862 -5.59845 1.57951 0
M  V30 4192 N 393.838 -5.36218 0.892797 0
M  V30 4193 H 397.64 -2.79166 0.918889 0
M  V30 4194 H 395.154 -1.50816 0.602353 0
M  V30 4195 H 397.151 -3.98031 -1.24005 0
M  V30 4196 H 395.811 -2.84793 -1.55959 0
M  V30 4197 H 396.822 -4.96572 1.47095 0
M  V30 4198 H 393.499 -4.06599 -0.9478 0
M  V30 4199 H 394.889 -6.25703 2.44838 0
M  V30 4200 N 397.609 -0.515225 -1.4894 0
M  V30 4201 C 399.025 -0.172099 -1.58669 0
M  V30 4202 C 399.225 1.32405 -1.51892 0
M  V30 4203 O 398.281 2.10116 -1.40027 0
M  V30 4204 C 399.594 -0.761533 -2.90897 0
M  V30 4205 C 401.142 -0.728926 -3.04394 0
M  V30 4206 C 401.617 -1.29667 -4.39261 0
M  V30 4207 N 403.108 -1.25799 -4.4579 0
M  V30 4208 C 403.843 -1.66733 -5.48623 0
M  V30 4209 N 403.339 -2.15327 -6.58488 0
M  V30 4210 N 405.132 -1.58061 -5.39419 0
M  V30 4211 H 397.283 -1.48778 -1.51588 0
M  V30 4212 H 399.546 -0.617968 -0.718901 0
M  V30 4213 H 399.252 -1.81136 -3.01468 0
M  V30 4214 H 399.126 -0.230106 -3.76497 0
M  V30 4215 H 401.513 0.312098 -2.93445 0
M  V30 4216 H 401.594 -1.29766 -2.20442 0
M  V30 4217 H 401.238 -2.33655 -4.50963 0
M  V30 4218 H 401.168 -0.703752 -5.21876 0
M  V30 4219 H 403.659 -0.902102 -3.66975 0
M  V30 4220 H 403.972 -2.44594 -7.33071 0
M  V30 4221 H 402.317 -2.19311 -6.59491 0
M  V30 4222 H 405.508 -1.19906 -4.52482 0
M  V30 4223 H 405.681 -1.90284 -6.19432 0
M  V30 4224 N 399.087 1.5561 -0.249682 0
M  V30 4225 C 400.335 1.98618 0.373548 0
M  V30 4226 C 400.656 1.13919 1.58264 0
M  V30 4227 O 399.926 0.222637 1.94631 0
M  V30 4228 H 398.506 0.733571 0.141006 0
M  V30 4229 H 401.168 1.91748 -0.349117 0
M  V30 4230 H 400.264 3.04584 0.680796 0
M  V30 4231 N 400.565 -0.0233959 1.57583 0
M  V30 4232 C 401.981 -0.379134 1.55031 0
M  V30 4233 C 402.181 -1.76255 0.976548 0
M  V30 4234 O 401.237 -2.45266 0.600078 0
M  V30 4235 C 402.55 -0.275792 2.99433 0
M  V30 4236 C 404.098 -0.352458 3.11009 0
M  V30 4237 C 404.573 -0.278501 4.57152 0
M  V30 4238 N 406.064 -0.337123 4.61972 0
M  V30 4239 C 406.799 -0.302876 5.726 0
M  V30 4240 N 406.295 -0.220589 6.92449 0
M  V30 4241 N 408.088 -0.353023 5.6099 0
M  V30 4242 H 400.239 0.881869 1.93227 0
M  V30 4243 H 402.502 0.335867 0.886509 0
M  V30 4244 H 402.208 0.675108 3.4516 0
M  V30 4245 H 402.082 -1.06721 3.61788 0
M  V30 4246 H 404.469 -1.29379 2.65226 0
M  V30 4247 H 404.55 0.468409 2.51475 0
M  V30 4248 H 404.194 0.659189 5.03604 0
M  V30 4249 H 404.124 -1.11755 5.14605 0
M  V30 4250 H 406.615 -0.403002 3.75745 0
M  V30 4251 H 406.928 -0.199713 7.72542 0
M  V30 4252 H 405.273 -0.186555 6.9475 0
M  V30 4253 H 408.464 -0.415339 4.66254 0
M  V30 4254 H 408.637 -0.322866 6.47195 0
M  V30 4255 N 402.043 -1.548 -0.295768 0
M  V30 4256 C 403.454 -1.65274 -0.868411 0
M  V30 4257 C 403.805 -0.56481 -1.87894 0
M  V30 4258 O 402.93 0.29767 -2.14343 0
M  V30 4259 C 403.525 -2.99603 -1.58188 0
M  V30 4260 C 402.084 -3.12181 -2.10286 0
M  V30 4261 C 401.231 -2.6098 -0.93727 0
M  V30 4262 H 404.182 -1.58534 -0.0726422 0
M  V30 4263 H 404.203 -2.91319 -2.44772 0
M  V30 4264 H 403.715 -3.78764 -0.846151 0
M  V30 4265 H 401.816 -2.3775 -2.8689 0
M  V30 4266 H 401.929 -4.18415 -2.33379 0
M  V30 4267 H 400.293 -2.17564 -1.32431 0
M  V30 4268 H 401.076 -3.42623 -0.215414 0
M  V30 4269 N 403.521 0.559213 -1.47345 0
M  V30 4270 C 404.769 1.31388 -1.53563 0
M  V30 4271 C 405.09 1.93985 -0.198678 0
M  V30 4272 O 404.36 1.79825 0.777167 0
M  V30 4273 H 402.94 0.487901 -0.565652 0
M  V30 4274 H 405.602 0.65315 -1.8363 0
M  V30 4275 H 404.698 2.10844 -2.30111 0
M  V30 4276 N 404.999 1.35443 0.805782 0
M  V30 4277 C 405.929 1.31095 1.93226 0
M  V30 4278 C 406.91 0.185244 1.69088 0
M  V30 4279 O 408.095 0.380332 1.90439 0
M  V30 4280 C 405.225 1.08299 3.29983 0
M  V30 4281 C 404.179 2.17519 3.68605 0
M  V30 4282 C 403.505 1.79887 5.03532 0
M  V30 4283 C 404.805 3.5949 3.78898 0
M  V30 4284 H 406.499 2.25352 1.97122 0
M  V30 4285 H 404.045 1.0848 0.946996 0
M  V30 4286 H 405.998 1.03897 4.08391 0
M  V30 4287 H 404.722 0.104885 3.26432 0
M  V30 4288 H 403.381 2.2102 2.92482 0
M  V30 4289 H 403.029 0.80693 4.96485 0
M  V30 4290 H 402.729 2.53001 5.30344 0
M  V30 4291 H 404.253 1.77011 5.84379 0
M  V30 4292 H 405.667 3.58307 4.47536 0
M  V30 4293 H 404.064 4.31371 4.1718 0
M  V30 4294 H 405.134 3.95584 2.80431 0
M  V30 4295 N 406.477 -1.02803 1.19454 0
M  V30 4296 C 407.725 -1.75869 0.995722 0
M  V30 4297 C 408.046 -1.89138 -0.474543 0
M  V30 4298 O 407.316 -1.42558 -1.34366 0
M  V30 4299 H 405.896 -0.651511 0.365435 0
M  V30 4300 H 408.558 -1.24004 1.50363 0
M  V30 4301 H 407.654 -2.76661 1.44447 0
M  V30 4302 N 407.956 -0.998596 -1.21925 0
M  V30 4303 C 409.372 -0.710303 -1.42923 0
M  V30 4304 C 409.572 0.716933 -1.88314 0
M  V30 4305 O 408.628 1.48712 -2.04062 0
M  V30 4306 C 409.941 -1.72072 -2.466 0
M  V30 4307 C 411.489 -1.73681 -2.60392 0
M  V30 4308 C 411.964 -2.73601 -3.67296 0
M  V30 4309 N 413.455 -2.7223 -3.7476 0
M  V30 4310 C 414.19 -3.46206 -4.57087 0
M  V30 4311 N 413.686 -4.29802 -5.43362 0
M  V30 4312 N 415.479 -3.34886 -4.51451 0
M  V30 4313 H 407.63 -1.92028 -0.9077 0
M  V30 4314 H 409.893 -0.828487 -0.460775 0
M  V30 4315 H 409.599 -2.74231 -2.20206 0
M  V30 4316 H 409.473 -1.51818 -3.45299 0
M  V30 4317 H 411.86 -0.722173 -2.86127 0
M  V30 4318 H 411.941 -1.98005 -1.61949 0
M  V30 4319 H 411.585 -3.75217 -3.42307 0
M  V30 4320 H 411.515 -2.46545 -4.65321 0
M  V30 4321 H 414.006 -2.11576 -3.1312 0
M  V30 4322 H 414.319 -4.83061 -6.03218 0
M  V30 4323 H 412.664 -4.33887 -5.42925 0
M  V30 4324 H 415.855 -2.69015 -3.83078 0
M  V30 4325 H 416.028 -3.92796 -5.15379 0
M  V30 4326 N 409.434 1.37368 -0.772513 0
M  V30 4327 C 410.682 1.99279 -0.336516 0
M  V30 4328 C 411.003 1.6163 1.09091 0
M  V30 4329 O 410.273 0.882109 1.74916 0
M  V30 4330 H 408.853 0.737063 -0.121435 0
M  V30 4331 H 411.515 1.67836 -0.990809 0
M  V30 4332 H 410.611 3.09332 -0.414763 0
M  V30 4333 N 410.912 0.523116 1.48665 0
M  V30 4334 C 412.142 -0.00961724 2.06598 0
M  V30 4335 C 412.55 -1.29333 1.38093 0
M  V30 4336 O 411.893 -1.77846 0.46007 0
M  V30 4337 C 411.955 -0.311135 3.58151 0
M  V30 4338 C 411.619 0.878092 4.48485 0
M  V30 4339 C 412.616 1.77464 4.88674 0
M  V30 4340 C 410.301 1.08315 4.90483 0
M  V30 4341 C 412.295 2.86021 5.69623 0
M  V30 4342 C 409.982 2.17187 5.71203 0
M  V30 4343 C 410.98 3.05873 6.10681 0
M  V30 4344 O 410.668 4.12862 6.89783 0
M  V30 4345 H 410.4 0.0272658 0.67545 0
M  V30 4346 H 412.954 0.726156 1.92136 0
M  V30 4347 H 411.184 -1.10079 3.70701 0
M  V30 4348 H 412.873 -0.785125 3.98234 0
M  V30 4349 H 413.639 1.62813 4.56855 0
M  V30 4350 H 409.518 0.402149 4.59243 0
M  V30 4351 H 413.062 3.55272 6.00356 0
M  V30 4352 H 408.959 2.31824 6.02435 0
M  V30 4353 H 409.727 4.10487 7.08126 0
M  V30 4354 N 412.39 -1.55475 0.257931 0
M  V30 4355 C 413.638 -1.98813 -0.363009 0
M  V30 4356 C 413.959 -1.14757 -1.57657 0
M  V30 4357 O 413.229 -0.232956 -1.9451 0
M  V30 4358 H 411.809 -0.734308 -0.137113 0
M  V30 4359 H 414.471 -1.9156 0.359281 0
M  V30 4360 H 413.567 -3.04941 -0.664634 0
M  V30 4361 N 413.868 0.0150385 -1.57593 0
M  V30 4362 C 415.098 0.713359 -1.93894 0
M  V30 4363 C 415.506 1.68663 -0.857289 0
M  V30 4364 O 414.849 1.82876 0.173788 0
M  V30 4365 C 414.911 1.51348 -3.26089 0
M  V30 4366 C 414.575 0.703451 -4.51554 0
M  V30 4367 C 415.572 -0.00237924 -5.199 0
M  V30 4368 C 413.257 0.653854 -4.98026 0
M  V30 4369 C 415.251 -0.746955 -6.33008 0
M  V30 4370 C 412.938 -0.0944578 -6.11027 0
M  V30 4371 C 413.936 -0.793609 -6.78374 0
M  V30 4372 O 413.624 -1.52974 -7.89211 0
M  V30 4373 H 413.356 0.204637 -0.644282 0
M  V30 4374 H 415.91 -0.0276411 -2.05381 0
M  V30 4375 H 414.14 2.29862 -3.10967 0
M  V30 4376 H 415.829 2.09572 -3.47612 0
M  V30 4377 H 416.595 0.0268803 -4.84993 0
M  V30 4378 H 412.474 1.18756 -4.45441 0
M  V30 4379 H 416.018 -1.2932 -6.85509 0
M  V30 4380 H 411.915 -0.125591 -6.45378 0
M  V30 4381 H 412.683 -1.44488 -8.05646 0
M  V30 4382 N 415.346 1.54954 0.287554 0
M  V30 4383 C 416.762 1.46469 0.633964 0
M  V30 4384 C 416.962 0.666865 1.90145 0
M  V30 4385 O 416.018 0.179906 2.51858 0
M  V30 4386 C 417.331 2.90556 0.774454 0
M  V30 4387 C 418.879 3.00681 0.869462 0
M  V30 4388 C 419.354 4.45993 1.04184 0
M  V30 4389 N 420.845 4.4976 1.10772 0
M  V30 4390 C 421.58 5.59393 1.25964 0
M  V30 4391 N 421.076 6.78923 1.37968 0
M  V30 4392 N 422.869 5.47107 1.28959 0
M  V30 4393 H 415.02 2.05288 -0.545041 0
M  V30 4394 H 417.283 0.930305 -0.182308 0
M  V30 4395 H 416.989 3.51594 -0.086207 0
M  V30 4396 H 416.863 3.38743 1.6593 0
M  V30 4397 H 419.25 2.39749 1.7206 0
M  V30 4398 H 419.331 2.55769 -0.0396831 0
M  V30 4399 H 418.975 5.07524 0.195422 0
M  V30 4400 H 418.905 4.88548 1.96542 0
M  V30 4401 H 421.396 3.63651 1.02794 0
M  V30 4402 H 421.709 7.58231 1.49353 0
M  V30 4403 H 420.054 6.81763 1.34999 0
M  V30 4404 H 423.245 4.52668 1.19202 0
M  V30 4405 H 423.418 6.32595 1.40455 0
M  V30 4406 N 416.824 -0.551391 1.4764 0
M  V30 4407 C 418.07 -1.31024 1.54792 0
M  V30 4408 C 418.403 -1.9304 0.211967 0
M  V30 4409 O 417.678 -1.78175 -0.77999 0
M  V30 4410 C 417.961 -2.41593 2.67029 0
M  V30 4411 C 417.814 -1.84408 4.10261 0
M  V30 4412 C 419.133 -3.43488 2.75143 0
M  V30 4413 H 416.252 -0.475031 0.563485 0
M  V30 4414 H 418.894 -0.616454 1.79722 0
M  V30 4415 H 417.044 -3.00772 2.45904 0
M  V30 4416 H 418.716 -1.29445 4.42766 0
M  V30 4417 H 416.959 -1.15051 4.18265 0
M  V30 4418 H 417.63 -2.64367 4.84576 0
M  V30 4419 H 420.106 -2.94236 2.94218 0
M  V30 4420 H 418.982 -4.18274 3.55441 0
M  V30 4421 H 419.243 -4.02703 1.82435 0
M  V30 4422 N 418.302 -1.35869 -0.798587 0
M  V30 4423 C 419.252 -1.25982 -1.90033 0
M  V30 4424 C 420.236 -0.153303 -1.60168 0
M  V30 4425 O 421.428 -0.38527 -1.72756 0
M  V30 4426 C 418.557 -1.04211 -3.27101 0
M  V30 4427 C 417.643 -2.19289 -3.63006 0
M  V30 4428 N 418.034 -3.44559 -3.70287 0
M  V30 4429 C 416.332 -2.10852 -3.93011 0
M  V30 4430 C 417.033 -4.20283 -4.02166 0
M  V30 4431 N 416.009 -3.49124 -4.16669 0
M  V30 4432 H 419.811 -2.20883 -1.93876 0
M  V30 4433 H 417.325 -1.28457 -0.993614 0
M  V30 4434 H 419.322 -0.952155 -4.05881 0
M  V30 4435 H 417.982 -0.102013 -3.2454 0
M  V30 4436 H 418.993 -3.7881 -3.53162 0
M  V30 4437 H 415.67 -1.24744 -3.98428 0
M  V30 4438 H 417.06 -5.28575 -4.14799 0
M  V30 4439 N 419.78 1.02168 -1.19998 0
M  V30 4440 C 420.73 2.08969 -0.911921 0
M  V30 4441 C 421.714 1.60404 0.12621 0
M  V30 4442 O 422.906 1.76817 -0.0804706 0
M  V30 4443 C 420.035 3.402 -0.460277 0
M  V30 4444 C 419.121 3.9548 -1.53155 0
M  V30 4445 N 419.512 4.24332 -2.75275 0
M  V30 4446 C 417.81 4.23572 -1.39653 0
M  V30 4447 C 418.511 4.68834 -3.44339 0
M  V30 4448 N 417.487 4.70804 -2.71744 0
M  V30 4449 H 421.289 2.29178 -1.83997 0
M  V30 4450 H 418.803 1.20094 -1.09322 0
M  V30 4451 H 420.8 4.16235 -0.235337 0
M  V30 4452 H 419.46 3.21408 0.4612 0
M  V30 4453 H 420.471 4.13393 -3.11973 0
M  V30 4454 H 417.148 4.14005 -0.539067 0
M  V30 4455 H 418.538 5.00019 -4.4881 0
M  V30 4456 N 421.258 1.00505 1.21394 0
M  V30 4457 C 422.535 0.603277 1.86064 0
M  V30 4458 C 422.915 -0.919095 1.90042 0
M  V30 4459 O 422.263 -1.80607 1.39977 0
M  V30 4460 C 422.473 1.23772 3.26315 0
M  V30 4461 C 423.821 1.34586 4.02705 0
M  V30 4462 O 424.845 1.19304 3.35626 0
M  V30 4463 O 423.704 1.59169 5.22807 0
M  V30 4464 H 420.798 0.206634 0.800769 0
M  V30 4465 H 423.344 1.1017 1.29076 0
M  V30 4466 H 422.116 2.27848 3.18121 0
M  V30 4467 H 421.739 0.725648 3.90922 0
M  V30 4468 N 422.737 -1.36956 0.779787 0
M  V30 4469 C 423.983 -1.99787 0.348281 0
M  V30 4470 C 424.316 -1.61756 -1.07465 0
M  V30 4471 O 423.591 -0.867639 -1.74075 0
M  V30 4472 C 423.874 -3.56597 0.50104 0
M  V30 4473 C 423.727 -4.04513 1.96697 0
M  V30 4474 C 425.046 -4.40008 -0.0898097 0
M  V30 4475 H 422.165 -0.725796 0.128022 0
M  V30 4476 H 424.807 -1.62514 0.984331 0
M  V30 4477 H 422.957 -3.88479 -0.0404347 0
M  V30 4478 H 424.629 -3.83161 2.56876 0
M  V30 4479 H 422.872 -3.56408 2.47297 0
M  V30 4480 H 423.543 -5.1352 2.02486 0
M  V30 4481 H 426.019 -4.14431 0.372293 0
M  V30 4482 H 424.895 -5.4888 0.0471605 0
M  V30 4483 H 425.156 -4.26035 -1.18096 0
M  V30 4484 N 424.215 -0.530993 -1.48385 0
M  V30 4485 C 425.461 0.00274135 -2.028 0
M  V30 4486 C 425.794 1.33838 -1.40716 0
M  V30 4487 O 425.069 1.86465 -0.553277 0
M  V30 4488 C 425.352 0.123676 -3.59888 0
M  V30 4489 C 425.205 -1.2372 -4.3245 0
M  V30 4490 C 426.524 0.849967 -4.31814 0
M  V30 4491 H 423.643 -0.000477758 -0.737 0
M  V30 4492 H 426.285 -0.688217 -1.77098 0
M  V30 4493 H 424.435 0.712157 -3.81917 0
M  V30 4494 H 426.107 -1.86687 -4.21836 0
M  V30 4495 H 424.35 -1.81882 -3.93829 0
M  V30 4496 H 425.021 -1.10557 -5.40815 0
M  V30 4497 H 427.497 0.350572 -4.14621 0
M  V30 4498 H 426.373 0.903486 -5.41413 0
M  V30 4499 H 426.634 1.90047 -3.99167 0
M  V30 4500 N 425.693 1.55336 -0.266172 0
M  V30 4501 C 426.656 2.20878 0.612001 0
M  V30 4502 C 427.656 1.18388 1.08816 0
M  V30 4503 O 428.846 1.4335 0.989774 0
M  V30 4504 C 425.978 2.86765 1.84332 0
M  V30 4505 H 427.171 2.99873 0.0398718 0
M  V30 4506 H 424.724 1.56291 -0.0167309 0
M  V30 4507 H 425.459 2.11759 2.45619 0
M  V30 4508 H 425.244 3.61862 1.5099 0
M  V30 4509 H 426.734 3.36867 2.46801 0
M  V30 4510 N 427.171 -0.0066808 1.57599 0
M  V30 4511 C 428.419 -0.691552 1.899 0
M  V30 4512 C 428.74 -1.74682 0.866672 0
M  V30 4513 O 428.01 -1.95661 -0.0968189 0
M  V30 4514 H 426.59 -0.258416 0.700878 0
M  V30 4515 H 429.252 0.0326655 1.94873 0
M  V30 4516 H 428.348 -1.16702 2.8946 0
M  V30 4517 N 428.649 -1.55105 -0.279332 0
M  V30 4518 C 429.926 -1.66119 -1.03267 0
M  V30 4519 C 430.306 -0.523525 -2.04505 0
M  V30 4520 O 429.654 0.477194 -2.23462 0
M  V30 4521 C 429.864 -3.05067 -1.69515 0
M  V30 4522 C 431.212 -3.62606 -2.20912 0
M  V30 4523 O 432.236 -3.07659 -1.79512 0
M  V30 4524 O 431.095 -4.58861 -2.96831 0
M  V30 4525 H 428.189 -0.674429 -0.478618 0
M  V30 4526 H 430.735 -1.67446 -0.275694 0
M  V30 4527 H 429.507 -3.79311 -0.9612 0
M  V30 4528 H 429.13 -3.07611 -2.51915 0
M  V30 4529 N 430.127 0.543554 -1.4793 0
M  V30 4530 C 431.373 1.30201 -1.55485 0
M  V30 4531 C 431.706 1.92925 -0.222201 0
M  V30 4532 O 430.981 1.78586 0.77053 0
M  V30 4533 C 431.264 2.40174 -2.68307 0
M  V30 4534 C 431.117 1.8223 -4.11233 0
M  V30 4535 C 432.436 3.42024 -2.76961 0
M  V30 4536 H 429.555 0.472036 -0.565996 0
M  V30 4537 H 432.197 0.606914 -1.80046 0
M  V30 4538 H 430.347 2.99463 -2.47495 0
M  V30 4539 H 432.019 1.27096 -4.43446 0
M  V30 4540 H 430.262 1.12832 -4.18869 0
M  V30 4541 H 430.933 2.61793 -4.85972 0
M  V30 4542 H 433.409 2.92672 -2.95774 0
M  V30 4543 H 432.285 4.16383 -3.57654 0
M  V30 4544 H 432.546 4.0173 -1.84568 0
M  V30 4545 N 431.605 1.3629 0.791371 0
M  V30 4546 C 432.555 1.26988 1.89362 0
M  V30 4547 C 433.539 0.161795 1.60084 0
M  V30 4548 O 434.731 0.394426 1.72549 0
M  V30 4549 C 431.86 1.05944 3.26544 0
M  V30 4550 C 430.946 2.21211 3.61838 0
M  V30 4551 N 431.337 3.46518 3.68455 0
M  V30 4552 C 429.635 2.12933 3.91887 0
M  V30 4553 C 430.336 4.2241 3.99931 0
M  V30 4554 N 429.312 3.51329 4.14812 0
M  V30 4555 H 433.114 2.21908 1.92702 0
M  V30 4556 H 430.628 1.28982 0.986787 0
M  V30 4557 H 432.625 0.973666 4.05371 0
M  V30 4558 H 431.285 0.119223 3.24481 0
M  V30 4559 H 432.296 3.80677 3.51148 0
M  V30 4560 H 428.973 1.26855 3.97761 0
M  V30 4561 H 430.363 5.30767 4.1199 0
M  V30 4562 N 433.083 -1.0153 1.20538 0
M  V30 4563 C 434.33 -1.75149 1.01633 0
M  V30 4564 C 434.658 -1.89189 -0.451399 0
M  V30 4565 O 433.913 -1.41551 -1.35136 0
M  V30 4566 C 434.212 -3.17213 1.64654 0
M  V30 4567 C 433.878 -3.23146 3.14464 0
M  V30 4568 C 432.54 -3.24472 3.55347 0
M  V30 4569 C 434.892 -3.21207 4.10458 0
M  V30 4570 C 432.22 -3.21532 4.90748 0
M  V30 4571 C 434.572 -3.19808 5.45807 0
M  V30 4572 C 433.236 -3.19439 5.86102 0
M  V30 4573 H 432.506 -0.640914 0.3719 0
M  V30 4574 H 435.153 -1.19071 1.49981 0
M  V30 4575 H 433.458 -3.76457 1.08571 0
M  V30 4576 H 435.155 -3.72871 1.4754 0
M  V30 4577 H 431.745 -3.2285 2.81897 0
M  V30 4578 H 435.929 -3.19351 3.79906 0
M  V30 4579 H 431.185 -3.19578 5.21229 0
M  V30 4580 H 435.359 -3.1726 6.19935 0
M  V30 4581 H 432.986 -3.16915 6.90991 0
M  V30 4582 N 434.561 -1.01147 -1.20859 0
M  V30 4583 C 435.471 -0.58686 -2.27141 0
M  V30 4584 C 436.487 0.373198 -1.69951 0
M  V30 4585 O 437.663 0.235423 -2.00019 0
M  V30 4586 C 434.728 0.0733602 -3.46622 0
M  V30 4587 C 433.789 -0.931995 -4.19061 0
M  V30 4588 C 433.022 -0.303186 -5.32838 0
M  V30 4589 O 433.245 0.898395 -5.63281 0
M  V30 4590 O 432.179 -1.01735 -5.9324 0
M  V30 4591 H 436.005 -1.47155 -2.65667 0
M  V30 4592 H 433.59 -0.780689 -1.2738 0
M  V30 4593 H 435.472 0.442333 -4.19072 0
M  V30 4594 H 434.147 0.932329 -3.09983 0
M  V30 4595 H 433.054 -1.35224 -3.48805 0
M  V30 4596 H 434.387 -1.76076 -4.59628 0
M  V30 4597 N 436.039 1.36541 -0.78704 0
M  V30 4598 C 436.989 2.27459 -0.156957 0
M  V30 4599 C 437.973 1.46843 0.657709 0
M  V30 4600 O 439.165 1.69245 0.518173 0
M  V30 4601 C 436.294 3.35893 0.709278 0
M  V30 4602 C 435.38 4.23947 -0.114049 0
M  V30 4603 N 435.771 4.92145 -1.16736 0
M  V30 4604 C 434.069 4.4587 0.107497 0
M  V30 4605 C 434.77 5.57261 -1.66837 0
M  V30 4606 N 433.746 5.3473 -0.977992 0
M  V30 4607 H 437.548 2.77669 -0.963185 0
M  V30 4608 H 435.062 1.49839 -0.62627 0
M  V30 4609 H 437.059 3.99953 1.17656 0
M  V30 4610 H 435.719 2.87238 1.51408 0
M  V30 4611 H 436.73 4.94169 -1.54976 0
M  V30 4612 H 433.407 4.08056 0.882994 0
M  V30 4613 H 434.797 6.21728 -2.54762 0
M  V30 4614 N 437.518 0.538854 1.48102 0
M  V30 4615 C 438.929 0.100679 1.86428 0
M  V30 4616 C 439.28 -1.32447 1.44749 0
M  V30 4617 O 438.405 -1.99339 0.842199 0
M  V30 4618 C 439 0.175933 3.38343 0
M  V30 4619 C 437.559 -0.207098 3.7583 0
M  V30 4620 C 436.706 0.531741 2.72154 0
M  V30 4621 H 439.657 0.749614 1.3988 0
M  V30 4622 H 439.678 -0.610144 3.75576 0
M  V30 4623 H 439.19 1.21328 3.68648 0
M  V30 4624 H 437.291 -1.24626 3.5114 0
M  V30 4625 H 437.404 0.138687 4.78899 0
M  V30 4626 H 435.768 -0.0230462 2.5469 0
M  V30 4627 H 436.551 1.56989 3.05302 0
M  V30 4628 N 438.996 -1.55193 0.274407 0
M  V30 4629 C 439.959 -2.212 -0.600279 0
M  V30 4630 C 440.959 -1.18963 -1.08187 0
M  V30 4631 O 442.149 -1.43873 -0.982158 0
M  V30 4632 C 439.281 -2.87739 -1.82809 0
M  V30 4633 H 440.474 -2.9989 -0.0239682 0
M  V30 4634 H 438.027 -1.5628 0.0250192 0
M  V30 4635 H 438.762 -2.13058 -2.44493 0
M  V30 4636 H 438.547 -3.62658 -1.49069 0
M  V30 4637 H 440.037 -3.38171 -2.45011 0
M  V30 4638 N 440.474 -0.00167713 -1.576 0
M  V30 4639 C 441.885 0.54091 -1.78693 0
M  V30 4640 C 442.236 1.7386 -0.909247 0
M  V30 4641 O 441.361 2.16109 -0.112176 0
M  V30 4642 C 441.956 0.98806 -3.24072 0
M  V30 4643 C 440.515 1.47594 -3.46256 0
M  V30 4644 C 439.662 0.42792 -2.73978 0
M  V30 4645 H 442.613 -0.22784 -1.57056 0
M  V30 4646 H 442.634 1.85398 -3.32277 0
M  V30 4647 H 442.146 0.116164 -3.87926 0
M  V30 4648 H 440.247 2.36868 -2.87618 0
M  V30 4649 H 440.36 1.50225 -4.54939 0
M  V30 4650 H 438.724 0.889934 -2.38647 0
M  V30 4651 H 439.507 -0.435038 -3.40532 0
M  V30 4652 N 441.952 1.55251 0.271103 0
M  V30 4653 C 442.915 1.87484 1.31842 0
M  V30 4654 C 443.915 0.749545 1.42262 0
M  V30 4655 O 445.105 1.01771 1.4138 0
M  V30 4656 C 442.237 2.0818 2.69951 0
M  V30 4657 H 443.43 2.81108 1.0449 0
M  V30 4658 H 440.983 1.47771 0.509258 0
M  V30 4659 H 441.718 1.16944 3.02481 0
M  V30 4660 H 441.503 2.90114 2.63774 0
M  V30 4661 H 442.993 2.34385 3.4562 0
M  V30 4662 N 443.43 -0.535701 1.48216 0
M  V30 4663 C 444.36 -1.65014 1.65204 0
M  V30 4664 C 445.341 -1.62554 0.501011 0
M  V30 4665 O 446.526 -1.7984 0.732886 0
M  V30 4666 C 443.656 -3.03616 1.68626 0
M  V30 4667 C 442.61 -3.20932 2.83172 0
M  V30 4668 C 441.936 -4.60537 2.71679 0
M  V30 4669 C 443.236 -3.04249 4.24535 0
M  V30 4670 H 444.93 -1.51053 2.58502 0
M  V30 4671 H 442.476 -0.725262 1.24402 0
M  V30 4672 H 444.429 -3.81446 1.79099 0
M  V30 4673 H 443.153 -3.18587 0.719026 0
M  V30 4674 H 441.812 -2.45517 2.72244 0
M  V30 4675 H 441.46 -4.72336 1.72937 0
M  V30 4676 H 441.16 -4.73069 3.48538 0
M  V30 4677 H 442.684 -5.40475 2.84112 0
M  V30 4678 H 444.098 -3.71877 4.36326 0
M  V30 4679 H 442.495 -3.28278 5.02348 0
M  V30 4680 H 443.565 -2.00739 4.41397 0
M  V30 4681 N 444.908 -1.36708 -0.784132 0
M  V30 4682 C 445.871 -1.31307 -1.87859 0
M  V30 4683 C 446.871 -0.219654 -1.59293 0
M  V30 4684 O 448.061 -0.47476 -1.67606 0
M  V30 4685 C 445.193 -1.03679 -3.24751 0
M  V30 4686 H 446.386 -2.28647 -1.94064 0
M  V30 4687 H 443.939 -1.21558 -0.98252 0
M  V30 4688 H 444.674 -0.0681936 -3.24228 0
M  V30 4689 H 444.459 -1.82811 -3.46876 0
M  V30 4690 H 445.949 -1.02518 -4.04821 0
M  V30 4691 N 446.386 1.0089 -1.21074 0
M  V30 4692 C 447.797 1.56056 -1.02486 0
M  V30 4693 C 448.148 1.91728 0.416506 0
M  V30 4694 O 447.273 1.73066 1.29912 0
M  V30 4695 C 447.868 2.83563 -1.85411 0
M  V30 4696 C 446.427 3.3523 -1.71166 0
M  V30 4697 C 445.574 2.0846 -1.82865 0
M  V30 4698 H 448.525 0.831818 -1.35154 0
M  V30 4699 H 448.546 3.55286 -1.36205 0
M  V30 4700 H 448.058 2.57569 -2.9031 0
M  V30 4701 H 446.159 3.66167 -0.689361 0
M  V30 4702 H 446.272 4.06913 -2.52901 0
M  V30 4703 H 444.636 2.21275 -1.26132 0
M  V30 4704 H 445.419 1.84883 -2.89263 0
M  V30 4705 N 447.864 1.01787 1.20321 0
M  V30 4706 C 448.812 0.58254 2.25187 0
M  V30 4707 C 449.806 -0.379359 1.65098 0
M  V30 4708 O 451.012 -0.249142 1.78267 0
M  V30 4709 H 447.387 0.170078 0.732514 0
M  V30 4710 H 449.358 1.47788 2.59232 0
M  V30 4711 C 448.107 -0.0620885 3.47645 0
M  V30 4712 H 447.43 0.669069 3.94162 0
M  V30 4713 H 448.87 -0.329784 4.22716 0
M  V30 4714 C 447.329 -1.3053 3.10586 0
M  V30 4715 O 447.859 -2.39848 3.22236 0
M  V30 4716 N 446.065 -1.18988 2.65123 0
M  V30 4717 H 445.612 -0.300341 2.55843 0
M  V30 4718 H 445.57 -2.02267 2.40698 0
M  V30 4719 N 449.342 -1.36122 0.79427 0
M  V30 4720 C 450.252 -2.33769 0.197296 0
M  V30 4721 C 451.268 -1.61276 -0.653153 0
M  V30 4722 O 452.444 -1.9323 -0.5678 0
M  V30 4723 C 449.509 -3.40474 -0.654098 0
M  V30 4724 C 448.57 -4.28759 0.215411 0
M  V30 4725 C 447.803 -5.30368 -0.595443 0
M  V30 4726 O 448.026 -5.40211 -1.83107 0
M  V30 4727 O 446.96 -6.019 0.00721351 0
M  V30 4728 H 450.786 -2.86597 1.00478 0
M  V30 4729 H 448.371 -1.38676 0.555818 0
M  V30 4730 H 450.253 -4.05703 -1.13944 0
M  V30 4731 H 448.928 -2.89937 -1.43938 0
M  V30 4732 H 447.835 -3.66554 0.747615 0
M  V30 4733 H 449.168 -4.82661 0.964332 0
M  V30 4734 N 450.82 -0.546701 -1.47814 0
M  V30 4735 C 452.045 -0.021268 -2.07389 0
M  V30 4736 C 452.47 1.25822 -1.39822 0
M  V30 4737 O 451.828 1.75111 -0.46968 0
M  V30 4738 C 451.876 0.168502 -3.60206 0
M  V30 4739 O 450.98 1.23347 -3.93522 0
M  V30 4740 H 450.321 -0.0466108 -0.662362 0
M  V30 4741 H 452.851 -0.759387 -1.89985 0
M  V30 4742 H 452.861 0.385982 -4.0617 0
M  V30 4743 H 451.536 -0.766075 -4.08784 0
M  V30 4744 H 450.113 0.997319 -3.59316 0
M  V30 4745 N 452.299 1.55045 -0.282633 0
M  V30 4746 C 453.71 1.85473 0.213655 0
M  V30 4747 C 454.061 1.20465 1.54863 0
M  V30 4748 O 453.186 0.495676 2.10647 0
M  V30 4749 C 453.781 3.36496 0.394445 0
M  V30 4750 C 452.34 3.67022 0.834961 0
M  V30 4751 C 451.487 2.77218 -0.0674081 0
M  V30 4752 H 454.438 1.50478 -0.504202 0
M  V30 4753 H 454.459 3.60007 1.23186 0
M  V30 4754 H 453.971 3.83782 -0.577326 0
M  V30 4755 H 452.072 3.25241 1.81794 0
M  V30 4756 H 452.185 4.74433 0.667075 0
M  V30 4757 H 450.549 2.5069 0.450196 0
M  V30 4758 H 451.332 3.2732 -1.0352 0
M  V30 4759 N 453.777 0.010035 1.57597 0
M  V30 4760 C 454.724 -0.978122 2.09049 0
M  V30 4761 C 455.694 -1.33509 0.988159 0
M  V30 4762 O 456.879 -1.43172 1.26121 0
M  V30 4763 C 454.019 -2.26158 2.60666 0
M  V30 4764 C 453.132 -1.96275 3.84838 0
M  V30 4765 C 452.267 -3.18776 4.24918 0
M  V30 4766 C 451.306 -2.84625 5.41899 0
M  V30 4767 N 450.443 -3.99693 5.77226 0
M  V30 4768 H 455.283 -0.532431 2.93205 0
M  V30 4769 H 452.82 -0.251234 1.44939 0
M  V30 4770 H 454.778 -3.01202 2.88675 0
M  V30 4771 H 453.408 -2.68378 1.79369 0
M  V30 4772 H 452.46 -1.11555 3.63675 0
M  V30 4773 H 453.772 -1.67111 4.69974 0
M  V30 4774 H 452.926 -4.02157 4.54262 0
M  V30 4775 H 451.665 -3.51087 3.38511 0
M  V30 4776 H 450.67 -1.99653 5.12268 0
M  V30 4777 H 451.895 -2.53551 6.29991 0
M  V30 4778 H 449.841 -4.31882 4.93776 0
M  V30 4779 H 449.758 -3.74087 6.56959 0
M  V30 4780 H 451.026 -4.83834 6.11167 0
M  V30 4781 N 455.255 -1.55392 -0.262866 0
M  V30 4782 C 456.532 -1.67204 -1.01499 0
M  V30 4783 C 456.912 -0.545186 -2.03939 0
M  V30 4784 O 456.26 0.453467 -2.23955 0
M  V30 4785 C 456.47 -3.06847 -1.6627 0
M  V30 4786 C 457.818 -3.64928 -2.17054 0
M  V30 4787 O 458.842 -3.09545 -1.76239 0
M  V30 4788 O 457.701 -4.61984 -2.91947 0
M  V30 4789 H 454.795 -0.679467 -0.471438 0
M  V30 4790 H 457.341 -1.67729 -0.257918 0
M  V30 4791 H 456.113 -3.80309 -0.920915 0
M  V30 4792 H 455.736 -3.10266 -2.48638 0
M  V30 4793 N 456.733 0.527833 -1.48498 0
M  V30 4794 C 457.958 1.313 -1.60546 0
M  V30 4795 C 458.383 1.86199 -0.26672 0
M  V30 4796 O 457.741 1.64513 0.761918 0
M  V30 4797 C 457.789 2.43818 -2.65678 0
M  V30 4798 O 456.893 3.46916 -2.22987 0
M  V30 4799 H 456.234 0.388784 -0.538277 0
M  V30 4800 H 458.764 0.634896 -1.945 0
M  V30 4801 H 458.774 2.89973 -2.87018 0
M  V30 4802 H 457.449 2.03222 -3.62869 0
M  V30 4803 H 456.026 3.06864 -2.11869 0
M  V30 4804 N 458.211 1.37122 0.776871 0
M  V30 4805 C 459.622 1.28667 1.35284 0
M  V30 4806 C 459.973 -0.0680035 1.96082 0
M  V30 4807 O 459.098 -0.969743 1.93455 0
M  V30 4808 C 459.693 2.32997 2.45963 0
M  V30 4809 C 458.252 2.28191 2.99342 0
M  V30 4810 C 457.399 2.17101 1.72517 0
M  V30 4811 H 460.35 1.47819 0.577527 0
M  V30 4812 H 460.371 1.97366 3.2531 0
M  V30 4813 H 459.883 3.3158 2.01684 0
M  V30 4814 H 457.984 1.33115 3.4801 0
M  V30 4815 H 458.097 3.21397 3.55304 0
M  V30 4816 H 456.461 1.63562 1.95242 0
M  V30 4817 H 457.244 3.17591 1.30348 0
M  V30 4818 N 459.689 -1.00246 1.21608 0
M  V30 4819 C 460.652 -2.07233 0.979133 0
M  V30 4820 C 461.652 -1.6072 -0.0508219 0
M  V30 4821 O 462.842 -1.73196 0.186712 0
M  V30 4822 C 459.974 -3.37546 0.477016 0
M  V30 4823 H 461.167 -2.29687 1.92831 0
M  V30 4824 H 458.72 -1.17261 1.03342 0
M  V30 4825 H 459.455 -3.20773 -0.476966 0
M  V30 4826 H 459.24 -3.72638 1.21997 0
M  V30 4827 H 460.73 -4.16285 0.331181 0
M  V30 4828 N 461.167 -1.02423 -1.1978 0
M  V30 4829 C 462.117 -0.571689 -2.20716 0
M  V30 4830 C 463.101 0.377077 -1.56419 0
M  V30 4831 O 464.293 0.198801 -1.7588 0
M  V30 4832 C 461.422 0.0808555 -3.43205 0
M  V30 4833 C 460.508 -0.890073 -4.14655 0
M  V30 4834 N 460.899 -2.05065 -4.62366 0
M  V30 4835 C 459.197 -0.71252 -4.40272 0
M  V30 4836 C 459.898 -2.66264 -5.17183 0
M  V30 4837 N 458.874 -1.94264 -5.07703 0
M  V30 4838 H 462.676 -1.45636 -2.55279 0
M  V30 4839 H 460.19 -0.890596 -1.35802 0
M  V30 4840 H 462.187 0.422654 -4.14752 0
M  V30 4841 H 460.847 0.961274 -3.10144 0
M  V30 4842 H 461.858 -2.43026 -4.57339 0
M  V30 4843 H 458.535 0.119199 -4.1733 0
M  V30 4844 H 459.925 -3.64526 -5.64421 0
M  V30 4845 N 462.645 1.35699 -0.801477 0
M  V30 4846 C 463.555 2.33661 -0.209691 0
M  V30 4847 C 464.571 1.6162 0.644591 0
M  V30 4848 O 465.747 1.93529 0.557545 0
M  V30 4849 C 462.812 3.40816 0.636033 0
M  V30 4850 C 461.873 4.28639 -0.238147 0
M  V30 4851 C 461.106 5.30676 0.567307 0
M  V30 4852 O 461.329 5.41174 1.8024 0
M  V30 4853 O 460.263 6.01887 -0.0391336 0
M  V30 4854 H 464.089 2.8606 -1.01996 0
M  V30 4855 H 461.674 1.38379 -0.563164 0
M  V30 4856 H 463.556 4.06301 1.11791 0
M  V30 4857 H 462.231 2.90696 1.42399 0
M  V30 4858 H 461.138 3.66152 -0.767044 0
M  V30 4859 H 462.471 4.82143 -0.989915 0
M  V30 4860 N 464.123 0.554532 1.47522 0
M  V30 4861 C 465.369 0.0295227 2.02779 0
M  V30 4862 C 465.702 -1.31582 1.42828 0
M  V30 4863 O 464.977 -1.85561 0.582872 0
M  V30 4864 C 465.26 -0.0664057 3.60039 0
M  V30 4865 C 465.113 1.30585 4.30427 0
M  V30 4866 C 466.432 -0.781162 4.33112 0
M  V30 4867 H 463.551 0.0122027 0.736899 0
M  V30 4868 H 466.193 0.716305 1.7598 0
M  V30 4869 H 464.343 -0.651307 3.83002 0
M  V30 4870 H 466.015 1.93374 4.18813 0
M  V30 4871 H 464.258 1.88125 3.90886 0
M  V30 4872 H 464.929 1.19147 5.38988 0
M  V30 4873 H 467.405 -0.284565 4.15126 0
M  V30 4874 H 466.281 -0.817237 5.42782 0
M  V30 4875 H 466.542 -1.83672 4.0214 0
M  V30 4876 N 465.601 -1.54893 0.290851 0
M  V30 4877 C 466.829 -2.04343 -0.324288 0
M  V30 4878 C 467.244 -1.16859 -1.48289 0
M  V30 4879 O 466.601 -0.192018 -1.81487 0
M  V30 4880 C 466.652 -3.52756 -0.79026 0
M  V30 4881 O 466.373 -4.36913 0.322213 0
M  V30 4882 C 467.874 -4.18161 -1.4716 0
M  V30 4883 H 465.094 -0.667135 -0.0719173 0
M  V30 4884 H 467.638 -1.99981 0.427529 0
M  V30 4885 H 465.793 -3.57511 -1.49213 0
M  V30 4886 H 466.207 -5.24486 -0.0387372 0
M  V30 4887 H 467.681 -5.23562 -1.7489 0
M  V30 4888 H 468.158 -3.67282 -2.40834 0
M  V30 4889 H 468.764 -4.17454 -0.813178 0
M  V30 4890 N 467.08 -0.0183926 -1.57589 0
M  V30 4891 C 468.328 0.661253 -1.90976 0
M  V30 4892 C 468.649 1.73281 -0.894353 0
M  V30 4893 O 467.919 1.9579 0.0656788 0
M  V30 4894 H 466.499 0.247233 -0.704901 0
M  V30 4895 H 469.161 -0.0636639 -1.94796 0
M  V30 4896 H 468.257 1.12083 -2.9128 0
M  V30 4897 N 468.558 1.5553 0.254621 0
M  V30 4898 C 469.783 1.81383 1.00573 0
M  V30 4899 C 470.208 0.594419 1.78461 0
M  V30 4900 O 469.566 -0.456403 1.75461 0
M  V30 4901 C 469.614 3.04892 1.92545 0
M  V30 4902 O 468.718 2.81266 3.01601 0
M  V30 4903 H 468.059 0.598969 0.286587 0
M  V30 4904 H 470.589 2.02703 0.277952 0
M  V30 4905 H 470.599 3.34119 2.34155 0
M  V30 4906 H 469.274 3.93287 1.3527 0
M  V30 4907 H 467.851 2.63185 2.64174 0
M  V30 4908 N 470.036 -0.519951 1.48776 0
M  V30 4909 C 471.284 -1.2727 1.56993 0
M  V30 4910 C 471.605 -1.9339 0.25004 0
M  V30 4911 O 470.875 -1.81822 -0.729216 0
M  V30 4912 H 469.455 -0.472732 0.578389 0
M  V30 4913 H 472.117 -0.604234 1.85297 0
M  V30 4914 H 471.213 -2.04669 2.3562 0
M  V30 4915 N 471.514 -1.37532 -0.769588 0
M  V30 4916 C 472.762 -1.32597 -1.5252 0
M  V30 4917 C 473.083 0.0884294 -1.94799 0
M  V30 4918 O 472.353 1.03289 -1.66458 0
M  V30 4919 H 470.933 -0.487846 -0.565699 0
M  V30 4920 H 473.595 -1.72044 -0.915806 0
M  V30 4921 H 472.691 -1.96643 -2.42359 0
M  V30 4922 N 472.992 0.995999 -1.22138 0
M  V30 4923 C 473.955 2.06711 -0.990109 0
M  V30 4924 C 474.955 1.60744 0.0422978 0
M  V30 4925 O 476.145 1.73095 -0.195895 0
M  V30 4926 C 473.277 3.37288 -0.49491 0
M  V30 4927 H 474.47 2.28661 -1.94047 0
M  V30 4928 H 472.023 1.16711 -1.03963 0
M  V30 4929 H 472.758 3.21022 0.459948 0
M  V30 4930 H 472.543 3.71986 -1.23971 0
M  V30 4931 H 474.033 4.16103 -0.353253 0
M  V30 4932 N 474.47 1.03057 1.19235 0
M  V30 4933 C 475.7 0.746613 1.92638 0
M  V30 4934 C 476.108 -0.698708 1.75826 0
M  V30 4935 O 475.451 -1.487 1.07861 0
M  V30 4936 C 475.513 1.02024 3.44719 0
M  V30 4937 C 475.177 2.45745 3.85303 0
M  V30 4938 C 476.174 3.43887 3.8992 0
M  V30 4939 C 473.859 2.8019 4.16892 0
M  V30 4940 C 475.853 4.74529 4.2556 0
M  V30 4941 C 473.54 4.1104 4.52205 0
M  V30 4942 C 474.538 5.0802 4.56513 0
M  V30 4943 O 474.226 6.36527 4.91008 0
M  V30 4944 H 473.958 0.272401 0.618687 0
M  V30 4945 H 476.512 1.37853 1.52269 0
M  V30 4946 H 474.742 0.331184 3.85279 0
M  V30 4947 H 476.431 0.725677 3.9936 0
M  V30 4948 H 477.197 3.18614 3.65664 0
M  V30 4949 H 473.076 2.05382 4.12722 0
M  V30 4950 H 476.62 5.50222 4.28838 0
M  V30 4951 H 472.517 4.36086 4.7592 0
M  V30 4952 H 473.285 6.41025 5.08949 0
M  V30 4953 N 475.948 -1.35272 0.808662 0
M  V30 4954 C 476.881 -2.27595 0.165994 0
M  V30 4955 C 477.859 -1.48189 -0.669241 0
M  V30 4956 O 479.043 -1.77444 -0.636073 0
M  V30 4957 C 476.17 -3.29843 -0.769505 0
M  V30 4958 C 475.216 -4.26498 -0.0136267 0
M  V30 4959 S 476.049 -5.18878 1.32384 0
M  V30 4960 C 477.205 -6.24666 0.392838 0
M  V30 4961 H 477.438 -2.81755 0.948756 0
M  V30 4962 H 474.971 -1.42103 0.603828 0
M  V30 4963 H 476.929 -3.89247 -1.30374 0
M  V30 4964 H 475.59 -2.74558 -1.52567 0
M  V30 4965 H 474.783 -4.98769 -0.724227 0
M  V30 4966 H 474.385 -3.71274 0.450713 0
M  V30 4967 H 476.677 -6.7619 -0.4211 0
M  V30 4968 H 477.62 -6.99741 1.0848 0
M  V30 4969 H 478.028 -5.64499 -0.0123908 0
M  V30 4970 N 477.426 -0.562348 -1.47226 0
M  V30 4971 C 478.842 -0.222492 -1.58042 0
M  V30 4972 C 479.042 1.27505 -1.56028 0
M  V30 4973 O 478.098 2.05555 -1.46641 0
M  V30 4974 C 479.411 -0.853694 -2.88327 0
M  V30 4975 C 480.959 -0.825397 -3.01921 0
M  V30 4976 C 481.434 -1.43576 -4.34914 0
M  V30 4977 N 482.925 -1.39918 -4.41562 0
M  V30 4978 C 483.66 -1.84103 -5.43041 0
M  V30 4979 N 483.156 -2.36167 -6.51304 0
M  V30 4980 N 484.949 -1.75142 -5.34118 0
M  V30 4981 H 477.1 -1.53525 -1.46778 0
M  V30 4982 H 479.363 -0.640527 -0.698877 0
M  V30 4983 H 479.069 -1.90635 -2.95552 0
M  V30 4984 H 478.943 -0.34977 -3.75575 0
M  V30 4985 H 481.33 0.218583 -2.94289 0
M  V30 4986 H 481.411 -1.36713 -2.16202 0
M  V30 4987 H 481.055 -2.47884 -4.43301 0
M  V30 4988 H 480.985 -0.869427 -5.19373 0
M  V30 4989 H 483.476 -1.0184 -3.63919 0
M  V30 4990 H 483.789 -2.67793 -7.24919 0
M  V30 4991 H 482.134 -2.40181 -6.52179 0
M  V30 4992 H 485.325 -1.34241 -4.48439 0
M  V30 4993 H 485.498 -2.09895 -6.13065 0
M  V30 4994 N 478.904 1.54736 -0.299062 0
M  V30 4995 C 480.151 2.00101 0.310784 0
M  V30 4996 C 480.479 1.18746 1.54045 0
M  V30 4997 O 479.734 0.251198 1.94081 0
M  V30 4998 C 480.033 3.50199 0.713835 0
M  V30 4999 C 479.699 4.48997 -0.413873 0
M  V30 5000 C 478.361 4.7573 -0.723462 0
M  V30 5001 C 480.713 5.07839 -1.17257 0
M  V30 5002 C 478.041 5.5857 -1.79491 0
M  V30 5003 C 480.393 5.91844 -2.23392 0
M  V30 5004 C 479.057 6.16889 -2.54959 0
M  V30 5005 H 478.327 0.732221 0.113724 0
M  V30 5006 H 480.974 1.86888 -0.417756 0
M  V30 5007 H 479.279 3.61012 1.52243 0
M  V30 5008 H 480.976 3.82723 1.19684 0
M  V30 5009 H 477.566 4.28292 -0.162476 0
M  V30 5010 H 481.75 4.87188 -0.946651 0
M  V30 5011 H 477.006 5.76213 -2.04423 0
M  V30 5012 H 481.18 6.36465 -2.8264 0
M  V30 5013 H 478.807 6.80869 -3.38114 0
M  V30 5014 N 480.382 0.0267497 1.57577 0
M  V30 5015 C 481.659 -0.690926 1.82991 0
M  V30 5016 C 482.039 -1.90471 0.910164 0
M  V30 5017 O 481.387 -2.28474 -0.0347985 0
M  V30 5018 C 481.597 -1.07139 3.32148 0
M  V30 5019 C 482.945 -1.46402 3.98562 0
M  V30 5020 O 483.969 -1.16443 3.36629 0
M  V30 5021 O 482.828 -2.02214 5.07712 0
M  V30 5022 H 479.922 -0.338747 0.75444 0
M  V30 5023 H 482.468 0.0542506 1.69613 0
M  V30 5024 H 481.24 -0.207394 3.9075 0
M  V30 5025 H 480.863 -1.87481 3.50623 0
M  V30 5026 N 481.861 -1.55662 -0.24637 0
M  V30 5027 C 483.107 -1.77782 -0.975779 0
M  V30 5028 C 483.44 -0.592103 -1.84953 0
M  V30 5029 O 482.715 0.409588 -1.90138 0
M  V30 5030 C 482.998 -3.09788 -1.83584 0
M  V30 5031 C 482.851 -4.38764 -0.990241 0
M  V30 5032 C 484.17 -3.38029 -2.81823 0
M  V30 5033 H 481.289 -0.646789 -0.353317 0
M  V30 5034 H 483.931 -1.88398 -0.246248 0
M  V30 5035 H 482.081 -3.00869 -2.45784 0
M  V30 5036 H 483.753 -4.59675 -0.386897 0
M  V30 5037 H 481.996 -4.32798 -0.294626 0
M  V30 5038 H 482.667 -5.27514 -1.62584 0
M  V30 5039 H 485.143 -3.46915 -2.2976 0
M  V30 5040 H 484.019 -4.3161 -3.39122 0
M  V30 5041 H 484.28 -2.58968 -3.58313 0
M  V30 5042 N 483.339 0.512053 -1.4905 0
M  V30 5043 C 484.75 1.09376 -1.51307 0
M  V30 5044 C 485.101 1.94 -0.292971 0
M  V30 5045 O 484.226 2.07965 0.598277 0
M  V30 5046 C 484.821 1.99031 -2.74176 0
M  V30 5047 C 483.38 2.52385 -2.79247 0
M  V30 5048 C 482.527 1.29749 -2.45073 0
M  V30 5049 H 485.478 0.296467 -1.55906 0
M  V30 5050 H 485.499 2.83569 -2.53711 0
M  V30 5051 H 485.011 1.37412 -3.62959 0
M  V30 5052 H 483.112 3.17673 -1.94716 0
M  V30 5053 H 483.225 2.90293 -3.81139 0
M  V30 5054 H 481.589 1.61912 -1.96612 0
M  V30 5055 H 482.372 0.698555 -3.36118 0
M  V30 5056 N 484.817 1.37938 0.762283 0
M  V30 5057 C 486.233 1.18945 1.06415 0
M  V30 5058 C 486.433 0.0321163 2.01474 0
M  V30 5059 O 485.489 -0.624844 2.44647 0
M  V30 5060 C 486.802 2.51218 1.65258 0
M  V30 5061 C 488.35 2.57824 1.7747 0
M  V30 5062 C 488.825 3.90251 2.39725 0
M  V30 5063 N 490.316 3.91744 2.47166 0
M  V30 5064 C 491.051 4.90966 2.96209 0
M  V30 5065 N 490.547 6.00585 3.45354 0
M  V30 5066 N 492.34 4.78363 2.9517 0
M  V30 5067 H 484.491 2.11994 0.131301 0
M  V30 5068 H 486.754 0.940262 0.120879 0
M  V30 5069 H 486.46 3.36317 1.02878 0
M  V30 5070 H 486.334 2.68989 2.64433 0
M  V30 5071 H 488.721 1.73126 2.3898 0
M  V30 5072 H 488.802 2.43928 0.770241 0
M  V30 5073 H 488.446 4.75368 1.78852 0
M  V30 5074 H 488.376 4.01454 3.40796 0
M  V30 5075 H 490.867 3.12563 2.12397 0
M  V30 5076 H 491.18 6.72236 3.81207 0
M  V30 5077 H 489.525 6.04217 3.43434 0
M  V30 5078 H 492.716 3.91841 2.56082 0
M  V30 5079 H 492.889 5.55843 3.33081 0
M  V30 5080 N 486.295 -0.989507 1.22664 0
M  V30 5081 C 487.706 -1.54406 1.04955 0
M  V30 5082 C 488.057 -1.92366 -0.385951 0
M  V30 5083 O 487.182 -1.75111 -1.27142 0
M  V30 5084 C 487.777 -2.80578 1.89899 0
M  V30 5085 C 486.336 -3.32464 1.76478 0
M  V30 5086 C 485.483 -2.05524 1.86159 0
M  V30 5087 H 488.434 -0.810211 1.3646 0
M  V30 5088 H 488.455 -3.53075 1.4184 0
M  V30 5089 H 487.967 -2.52918 2.94371 0
M  V30 5090 H 486.068 -3.65024 0.747528 0
M  V30 5091 H 486.181 -4.02838 2.59342 0
M  V30 5092 H 484.545 -2.19241 1.29636 0
M  V30 5093 H 485.328 -1.80258 2.92168 0
M  V30 5094 N 487.773 -1.03688 -1.18687 0
M  V30 5095 C 489.189 -0.755413 -1.4059 0
M  V30 5096 C 489.389 0.656659 -1.905 0
M  V30 5097 O 488.445 1.42144 -2.08689 0
M  V30 5098 C 489.758 -1.7983 -2.41001 0
M  V30 5099 C 491.306 -1.81877 -2.54735 0
M  V30 5100 C 491.781 -2.85148 -3.58406 0
M  V30 5101 N 493.272 -2.84015 -3.6591 0
M  V30 5102 C 494.007 -3.60573 -4.45841 0
M  V30 5103 N 493.503 -4.46871 -5.29413 0
M  V30 5104 N 495.296 -3.49079 -4.40568 0
M  V30 5105 H 487.447 -1.94818 -0.846148 0
M  V30 5106 H 489.71 -0.842727 -0.434184 0
M  V30 5107 H 489.416 -2.81097 -2.1137 0
M  V30 5108 H 489.29 -1.62727 -3.40294 0
M  V30 5109 H 491.677 -0.812836 -2.83685 0
M  V30 5110 H 491.758 -2.03057 -1.55568 0
M  V30 5111 H 491.402 -3.85918 -3.30197 0
M  V30 5112 H 491.332 -2.61224 -4.57241 0
M  V30 5113 H 493.823 -2.21431 -3.0623 0
M  V30 5114 H 494.136 -5.02007 -5.87545 0
M  V30 5115 H 492.481 -4.5094 -5.28846 0
M  V30 5116 H 495.672 -2.81066 -3.74325 0
M  V30 5117 H 495.845 -4.08994 -5.02621 0
M  V30 5118 N 489.251 1.34841 -0.815825 0
M  V30 5119 C 490.497 1.98793 -0.401129 0
M  V30 5120 C 490.83 1.64548 1.03139 0
M  V30 5121 O 490.105 0.913487 1.71714 0
M  V30 5122 C 490.388 3.55143 -0.595409 0
M  V30 5123 C 490.241 3.99155 -2.07352 0
M  V30 5124 C 491.56 4.40092 -0.0268823 0
M  V30 5125 H 488.679 0.722146 -0.14722 0
M  V30 5126 H 491.321 1.59847 -1.02707 0
M  V30 5127 H 489.471 3.8845 -0.0625779 0
M  V30 5128 H 491.143 3.76216 -2.66945 0
M  V30 5129 H 489.386 3.49726 -2.56659 0
M  V30 5130 H 490.057 5.07971 -2.1603 0
M  V30 5131 H 492.533 4.13298 -0.482042 0
M  V30 5132 H 491.409 5.48562 -0.19267 0
M  V30 5133 H 491.67 4.29016 1.06759 0
M  V30 5134 N 490.729 0.570148 1.46925 0
M  V30 5135 C 491.661 -0.207909 2.28255 0
M  V30 5136 C 492.674 -0.867301 1.37774 0
M  V30 5137 O 493.863 -0.738976 1.62485 0
M  V30 5138 C 490.963 -1.31298 3.12433 0
M  V30 5139 C 490.136 -0.747915 4.30958 0
M  V30 5140 C 489.195 -1.7391 4.9663 0
M  V30 5141 O 488.221 -1.2801 5.54619 0
M  V30 5142 N 489.423 -3.07288 4.92498 0
M  V30 5143 H 492.188 0.489794 2.95671 0
M  V30 5144 H 489.749 0.407076 1.56699 0
M  V30 5145 H 491.741 -1.97507 3.53232 0
M  V30 5146 H 490.311 -1.91373 2.47175 0
M  V30 5147 H 489.531 0.0913066 3.94094 0
M  V30 5148 H 490.819 -0.349958 5.07595 0
M  V30 5149 H 490.217 -3.47213 4.46609 0
M  V30 5150 H 488.774 -3.69021 5.37277 0
M  V30 5151 N 492.207 -1.54576 0.307264 0
M  V30 5152 C 493.623 -1.59534 -0.0459251 0
M  V30 5153 C 493.823 -1.32414 -1.51884 0
M  V30 5154 O 492.879 -1.1006 -2.27251 0
M  V30 5155 C 494.192 -2.98566 0.357649 0
M  V30 5156 C 495.74 -3.11491 0.306937 0
M  V30 5157 C 496.215 -4.52842 0.685427 0
M  V30 5158 N 497.706 -4.58782 0.638203 0
M  V30 5159 C 498.441 -5.66238 0.903458 0
M  V30 5160 N 497.937 -6.81703 1.23501 0
M  V30 5161 N 499.73 -5.55937 0.830102 0
M  V30 5162 H 491.881 -1.70464 1.26712 0
M  V30 5163 H 494.144 -0.79647 0.514139 0
M  V30 5164 H 493.85 -3.23356 1.38325 0
M  V30 5165 H 493.724 -3.76117 -0.285565 0
M  V30 5166 H 496.111 -2.86446 -0.709424 0
M  V30 5167 H 496.192 -2.36081 0.984861 0
M  V30 5168 H 495.836 -4.78618 1.69963 0
M  V30 5169 H 495.766 -5.26598 -0.0146346 0
M  V30 5170 H 498.257 -3.75849 0.393138 0
M  V30 5171 H 498.57 -7.59582 1.42322 0
M  V30 5172 H 496.915 -6.8324 1.27311 0
M  V30 5173 H 500.106 -4.64608 0.570693 0
M  V30 5174 H 500.279 -6.39597 1.04019 0
M  V30 5175 N 493.685 -0.035106 -1.57561 0
M  V30 5176 C 494.91 0.655802 -1.96759 0
M  V30 5177 C 495.335 1.64523 -0.911809 0
M  V30 5178 O 494.693 1.80857 0.126673 0
M  V30 5179 C 494.741 1.33326 -3.35047 0
M  V30 5180 O 493.845 2.44866 -3.31835 0
M  V30 5181 H 493.186 0.171807 -0.641388 0
M  V30 5182 H 495.716 -0.0987369 -2.04362 0
M  V30 5183 H 495.726 1.68867 -3.71413 0
M  V30 5184 H 494.401 0.608033 -4.11431 0
M  V30 5185 H 492.978 2.11392 -3.07193 0
M  V30 5186 N 495.163 1.55791 0.238111 0
M  V30 5187 C 496.409 1.79211 0.962035 0
M  V30 5188 C 496.764 0.605463 1.82625 0
M  V30 5189 O 496.057 -0.40104 1.87356 0
M  V30 5190 C 496.251 3.05869 1.84875 0
M  V30 5191 C 496.08 4.36739 1.07186 0
M  V30 5192 C 494.85 4.99346 0.773424 0
M  V30 5193 C 497.048 5.1237 0.445168 0
M  V30 5194 N 495.03 6.13894 -0.0266037 0
M  V30 5195 C 496.401 6.19613 -0.219023 0
M  V30 5196 C 498.456 4.96622 0.356522 0
M  V30 5197 C 497.159 7.1282 -0.963358 0
M  V30 5198 C 499.185 5.90214 -0.374304 0
M  V30 5199 C 498.547 6.96872 -1.0271 0
M  V30 5200 H 494.646 0.707627 0.332849 0
M  V30 5201 H 497.23 1.93284 0.234368 0
M  V30 5202 H 495.401 2.93108 2.54837 0
M  V30 5203 H 497.133 3.17547 2.5089 0
M  V30 5204 H 493.888 4.60948 1.08738 0
M  V30 5205 H 494.312 6.75727 -0.414968 0
M  V30 5206 H 498.954 4.14232 0.846878 0
M  V30 5207 H 496.672 7.94704 -1.46529 0
M  V30 5208 H 500.258 5.80106 -0.443678 0
M  V30 5209 H 499.138 7.68045 -1.58358 0
M  V30 5210 N 496.642 -0.504142 1.49319 0
M  V30 5211 C 498.053 -1.08572 1.51885 0
M  V30 5212 C 498.404 -1.93842 0.303255 0
M  V30 5213 O 497.529 -2.0828 -0.58724 0
M  V30 5214 C 498.124 -1.97574 2.75227 0
M  V30 5215 C 496.683 -2.509 2.80581 0
M  V30 5216 C 495.83 -1.28447 2.45757 0
M  V30 5217 H 498.781 -0.288194 1.56061 0
M  V30 5218 H 498.802 -2.82219 2.55211 0
M  V30 5219 H 498.314 -1.35486 3.63683 0
M  V30 5220 H 496.415 -3.16636 1.96398 0
M  V30 5221 H 496.528 -2.88268 3.82673 0
M  V30 5222 H 494.892 -1.60868 1.97468 0
M  V30 5223 H 495.675 -0.68072 3.36483 0
M  V30 5224 N 498.12 -1.38341 -0.754957 0
M  V30 5225 C 499.348 -1.37704 -1.54419 0
M  V30 5226 C 499.763 0.0335243 -1.8877 0
M  V30 5227 O 499.12 0.999773 -1.52679 0
M  V30 5228 C 499.171 -2.23136 -2.84416 0
M  V30 5229 O 498.892 -3.58697 -2.51531 0
M  V30 5230 C 500.393 -2.30664 -3.78562 0
M  V30 5231 H 497.613 -0.471061 -0.477852 0
M  V30 5232 H 500.157 -1.81902 -0.934446 0
M  V30 5233 H 498.312 -1.82403 -3.41772 0
M  V30 5234 H 498.726 -4.03665 -3.34896 0
M  V30 5235 H 500.2 -2.9473 -4.66732 0
M  V30 5236 H 500.677 -1.3199 -4.18898 0
M  V30 5237 H 501.283 -2.71781 -3.27131 0
M  V30 5238 N 499.598 0.982988 -1.23187 0
M  V30 5239 C 500.845 1.72392 -1.06241 0
M  V30 5240 C 501.173 1.9032 0.40108 0
M  V30 5241 O 500.428 1.45084 1.31336 0
M  V30 5242 C 500.727 3.12736 -1.73006 0
M  V30 5243 C 500.393 3.14695 -3.22921 0
M  V30 5244 C 499.055 3.14937 -3.63824 0
M  V30 5245 C 501.407 3.10211 -4.1883 0
M  V30 5246 C 498.735 3.08408 -4.99101 0
M  V30 5247 C 501.087 3.05224 -5.54095 0
M  V30 5248 C 499.751 3.03787 -5.94365 0
M  V30 5249 H 499.021 0.630829 -0.388762 0
M  V30 5250 H 501.668 1.15053 -1.53085 0
M  V30 5251 H 499.973 3.73446 -1.18514 0
M  V30 5252 H 501.67 3.68828 -1.57374 0
M  V30 5253 H 498.26 3.15262 -2.90358 0
M  V30 5254 H 502.444 3.09166 -3.8824 0
M  V30 5255 H 497.7 3.05646 -5.29519 0
M  V30 5256 H 501.874 3.00712 -6.28128 0
M  V30 5257 H 499.501 2.98483 -6.99151 0
M  V30 5258 N 501.076 1.04316 1.18135 0
M  V30 5259 C 502.492 0.762858 1.40188 0
M  V30 5260 C 502.692 -0.646547 1.90846 0
M  V30 5261 O 501.748 -1.41036 2.0944 0
M  V30 5262 C 503.061 1.81106 2.40044 0
M  V30 5263 C 504.609 1.83226 2.53766 0
M  V30 5264 C 505.084 2.87044 3.56889 0
M  V30 5265 N 506.575 2.85951 3.64398 0
M  V30 5266 C 507.31 3.62932 4.43923 0
M  V30 5267 N 506.806 4.49672 5.27036 0
M  V30 5268 N 508.599 3.51411 4.38711 0
M  V30 5269 H 500.75 1.95264 0.835805 0
M  V30 5270 H 503.013 0.845017 0.429709 0
M  V30 5271 H 502.719 2.82214 2.09876 0
M  V30 5272 H 502.593 1.64529 3.39426 0
M  V30 5273 H 504.98 0.827869 2.8325 0
M  V30 5274 H 505.061 2.03879 1.54489 0
M  V30 5275 H 504.705 3.87663 3.28145 0
M  V30 5276 H 504.635 2.63645 4.5585 0
M  V30 5277 H 507.126 2.23051 3.05052 0
M  V30 5278 H 507.439 5.05116 5.84874 0
M  V30 5279 H 505.784 4.53738 5.26447 0
M  V30 5280 H 508.975 2.83047 3.72829 0
M  V30 5281 H 509.148 4.11654 5.00445 0
M  V30 5282 N 502.554 -1.34406 0.822964 0
M  V30 5283 C 503.517 -2.2783 0.250271 0
M  V30 5284 C 504.517 -1.50288 -0.571854 0
M  V30 5285 O 505.707 -1.69825 -0.387952 0
M  V30 5286 C 502.839 -3.34663 -0.649137 0
M  V30 5287 H 504.032 -2.79992 1.07444 0
M  V30 5288 H 501.585 -1.44539 0.594829 0
M  V30 5289 H 502.32 -2.87714 -1.49637 0
M  V30 5290 H 502.105 -3.92052 -0.0611199 0
M  V30 5291 H 503.595 -4.04349 -1.04363 0
M  V30 5292 N 504.032 -0.577932 -1.46621 0
M  V30 5293 C 504.962 0.145917 -2.33044 0
M  V30 5294 C 505.943 0.888412 -1.45056 0
M  V30 5295 O 507.128 0.864812 -1.73881 0
M  V30 5296 C 504.258 1.16322 -3.27241 0
M  V30 5297 C 503.212 0.535868 -4.24632 0
M  V30 5298 C 502.538 1.65929 -5.08303 0
M  V30 5299 C 503.838 -0.523861 -5.19666 0
M  V30 5300 H 505.532 -0.575636 -2.93814 0
M  V30 5301 H 503.078 -0.278272 -1.41286 0
M  V30 5302 H 505.031 1.67793 -3.86553 0
M  V30 5303 H 503.755 1.91498 -2.64567 0
M  V30 5304 H 502.414 0.0422759 -3.66576 0
M  V30 5305 H 502.062 2.40061 -4.42018 0
M  V30 5306 H 501.762 1.2452 -5.74255 0
M  V30 5307 H 503.286 2.17686 -5.70478 0
M  V30 5308 H 504.7 -0.0944059 -5.73222 0
M  V30 5309 H 503.097 -0.858 -5.93935 0
M  V30 5310 H 504.167 -1.41197 -4.63887 0
M  V30 5311 N 505.51 1.54411 -0.315457 0
M  V30 5312 C 506.44 2.27002 0.547039 0
M  V30 5313 C 507.421 1.27492 1.12605 0
M  V30 5314 O 508.606 1.5629 1.15269 0
M  V30 5315 C 505.736 3.02171 1.71201 0
M  V30 5316 C 504.69 4.0895 1.26268 0
M  V30 5317 C 504.016 4.71915 2.51396 0
M  V30 5318 C 505.316 5.20891 0.383419 0
M  V30 5319 H 507.01 2.99343 -0.0584517 0
M  V30 5320 H 504.556 1.4397 -0.0295527 0
M  V30 5321 H 506.509 3.51681 2.32161 0
M  V30 5322 H 505.233 2.27433 2.34397 0
M  V30 5323 H 503.892 3.60312 0.676062 0
M  V30 5324 H 503.54 3.93801 3.12937 0
M  V30 5325 H 503.24 5.44039 2.22026 0
M  V30 5326 H 504.764 5.24195 3.13133 0
M  V30 5327 H 506.178 5.66206 0.899082 0
M  V30 5328 H 504.575 5.99821 0.182857 0
M  V30 5329 H 505.645 4.81324 -0.587821 0
M  V30 5330 N 506.988 0.0434614 1.5754 0
M  V30 5331 C 507.918 -0.931651 2.14109 0
M  V30 5332 C 508.899 -1.32971 1.06079 0
M  V30 5333 O 510.084 -1.40579 1.33982 0
M  V30 5334 C 507.214 -2.20914 2.67982 0
M  V30 5335 C 506.168 -1.95139 3.80926 0
M  V30 5336 C 505.494 -3.29276 4.21285 0
M  V30 5337 C 506.794 -1.27913 5.06395 0
M  V30 5338 H 508.488 -0.460497 2.95837 0
M  V30 5339 H 506.034 -0.220058 1.42309 0
M  V30 5340 H 507.987 -2.89522 3.06194 0
M  V30 5341 H 506.711 -2.70221 1.83434 0
M  V30 5342 H 505.37 -1.28945 3.43175 0
M  V30 5343 H 505.018 -3.76369 3.33699 0
M  V30 5344 H 504.718 -3.12831 4.97404 0
M  V30 5345 H 506.242 -3.99129 4.62091 0
M  V30 5346 H 507.656 -1.86544 5.42102 0
M  V30 5347 H 506.053 -1.2182 5.87605 0
M  V30 5348 H 507.123 -0.254066 4.84234 0
M  V30 5349 N 508.466 -1.55915 -0.229846 0
M  V30 5350 C 509.416 -1.8813 -1.28807 0
M  V30 5351 C 510.4 -0.743621 -1.42685 0
M  V30 5352 O 511.592 -1.00588 -1.4564 0
M  V30 5353 C 508.721 -2.19431 -2.64017 0
M  V30 5354 C 507.807 -3.39569 -2.54074 0
M  V30 5355 N 508.198 -4.58404 -2.13774 0
M  V30 5356 C 506.496 -3.43019 -2.85051 0
M  V30 5357 C 507.197 -5.40557 -2.1488 0
M  V30 5358 N 506.173 -4.80054 -2.55047 0
M  V30 5359 H 509.975 -2.77527 -0.967261 0
M  V30 5360 H 507.489 -1.5637 -0.438433 0
M  V30 5361 H 509.486 -2.40681 -3.40409 0
M  V30 5362 H 508.146 -1.31341 -2.9695 0
M  V30 5363 H 509.157 -4.83716 -1.8504 0
M  V30 5364 H 505.834 -2.65249 -3.22411 0
M  V30 5365 H 507.224 -6.45666 -1.85918 0
M  V30 5366 N 509.944 0.496216 -1.49584 0
M  V30 5367 C 511.36 0.827814 -1.36453 0
M  V30 5368 C 511.56 1.97464 -0.401285 0
M  V30 5369 O 510.616 2.51958 0.165296 0
M  V30 5370 C 511.929 1.16352 -2.77277 0
M  V30 5371 C 513.477 1.27145 -2.86013 0
M  V30 5372 C 513.952 1.64042 -4.27615 0
M  V30 5373 N 515.443 1.71082 -4.30448 0
M  V30 5374 C 516.178 2.01085 -5.36984 0
M  V30 5375 N 515.674 2.2928 -6.5376 0
M  V30 5376 N 517.467 2.02376 -5.24405 0
M  V30 5377 H 509.618 -0.259947 -2.10803 0
M  V30 5378 H 511.881 -0.0537163 -0.946477 0
M  V30 5379 H 511.587 0.394153 -3.49484 0
M  V30 5380 H 511.461 2.10582 -3.12946 0
M  V30 5381 H 513.848 2.03152 -2.1404 0
M  V30 5382 H 513.929 0.309542 -2.5392 0
M  V30 5383 H 513.573 0.88583 -5.00115 0
M  V30 5384 H 513.503 2.6134 -4.57175 0
M  V30 5385 H 515.994 1.51434 -3.46232 0
M  V30 5386 H 516.307 2.51376 -7.30774 0
M  V30 5387 H 514.652 2.26726 -6.56978 0
M  V30 5388 H 517.843 1.79829 -4.32179 0
M  V30 5389 H 518.016 2.25425 -6.07526 0
M  V30 5390 N 511.423 1.38739 0.74761 0
M  V30 5391 C 512.653 1.3832 1.53464 0
M  V30 5392 C 513.061 -0.0273464 1.8918 0
M  V30 5393 O 512.404 -1.00588 1.53713 0
M  V30 5394 C 512.466 2.18007 2.85855 0
M  V30 5395 C 512.13 3.66762 2.72644 0
M  V30 5396 C 513.127 4.60124 2.42037 0
M  V30 5397 C 510.812 4.10193 2.89909 0
M  V30 5398 C 512.806 5.94897 2.28859 0
M  V30 5399 C 510.493 5.45045 2.7635 0
M  V30 5400 C 511.491 6.37211 2.45869 0
M  V30 5401 O 511.179 7.69581 2.3238 0
M  V30 5402 H 510.911 0.474718 0.481268 0
M  V30 5403 H 513.465 1.83012 0.932518 0
M  V30 5404 H 511.695 1.68043 3.48279 0
M  V30 5405 H 513.384 2.09921 3.47402 0
M  V30 5406 H 514.15 4.27874 2.28361 0
M  V30 5407 H 510.029 3.38797 3.1263 0
M  V30 5408 H 513.573 6.66802 2.04989 0
M  V30 5409 H 509.47 5.76889 2.89601 0
M  V30 5410 H 510.238 7.80169 2.47546 0
M  V30 5411 N 512.901 -0.976442 1.23707 0
M  V30 5412 C 514.147 -1.72081 1.07312 0
M  V30 5413 C 514.48 -1.90275 -0.388476 0
M  V30 5414 O 513.755 -1.4579 -1.28746 0
M  V30 5415 C 514.038 -3.11675 1.80363 0
M  V30 5416 C 513.891 -3.01027 3.3422 0
M  V30 5417 C 515.21 -4.1117 1.5693 0
M  V30 5418 H 512.329 -0.624583 0.391236 0
M  V30 5419 H 514.971 -1.13649 1.52263 0
M  V30 5420 H 513.121 -3.61559 1.42153 0
M  V30 5421 H 514.793 -2.58637 3.81975 0
M  V30 5422 H 513.036 -2.3744 3.63049 0
M  V30 5423 H 513.707 -3.9988 3.80525 0
M  V30 5424 H 516.183 -3.7011 1.90151 0
M  V30 5425 H 515.059 -5.06928 2.10513 0
M  V30 5426 H 515.32 -4.392 0.505548 0
M  V30 5427 N 514.379 -1.04941 -1.1758 0
M  V30 5428 C 515.625 -0.759112 -1.88057 0
M  V30 5429 C 515.958 0.711918 -1.8068 0
M  V30 5430 O 515.233 1.52035 -1.21308 0
M  V30 5431 C 515.516 -1.237 -3.38187 0
M  V30 5432 C 515.369 -2.77078 -3.54327 0
M  V30 5433 C 516.688 -0.834014 -4.32125 0
M  V30 5434 H 513.807 -0.277237 -0.682868 0
M  V30 5435 H 516.449 -1.30296 -1.38286 0
M  V30 5436 H 514.599 -0.774337 -3.80705 0
M  V30 5437 H 516.271 -3.31449 -3.20842 0
M  V30 5438 H 514.514 -3.16477 -2.96689 0
M  V30 5439 H 515.185 -3.05577 -4.59703 0
M  V30 5440 H 517.661 -1.23228 -3.97434 0
M  V30 5441 H 516.537 -1.19603 -5.35711 0
M  V30 5442 H 516.798 0.262195 -4.41322 0
M  V30 5443 N 515.857 1.33968 -0.830081 0
M  V30 5444 C 516.82 2.27694 -0.26235 0
M  V30 5445 C 517.82 1.50589 0.563876 0
M  V30 5446 O 519.01 1.70028 0.378941 0
M  V30 5447 C 516.142 3.35002 0.63138 0
M  V30 5448 H 517.335 2.79419 -1.08928 0
M  V30 5449 H 514.888 1.44221 -0.602486 0
M  V30 5450 H 515.623 2.88504 1.48109 0
M  V30 5451 H 515.408 3.92079 0.0403276 0
M  V30 5452 H 516.898 4.04897 1.02217 0
M  V30 5453 N 517.335 0.585699 1.46312 0
M  V30 5454 C 518.751 0.247607 1.57668 0
M  V30 5455 C 518.951 -1.25007 1.58037 0
M  V30 5456 O 518.007 -2.03196 1.49893 0
M  V30 5457 C 519.32 0.899456 2.86933 0
M  V30 5458 C 520.868 0.873326 3.00569 0
M  V30 5459 C 521.343 1.50477 4.32574 0
M  V30 5460 N 522.834 1.46925 4.3928 0
M  V30 5461 C 523.569 1.92719 5.40044 0
M  V30 5462 N 523.065 2.46499 6.47464 0
M  V30 5463 N 524.858 1.83617 5.31264 0
M  V30 5464 H 517.009 1.55841 1.44317 0
M  V30 5465 H 519.272 0.651564 0.688599 0
M  V30 5466 H 518.978 1.95313 2.92482 0
M  V30 5467 H 518.852 0.409476 3.74971 0
M  V30 5468 H 521.239 -0.171736 2.946 0
M  V30 5469 H 521.32 1.40136 2.13999 0
M  V30 5470 H 520.964 2.54905 4.39302 0
M  V30 5471 H 520.894 0.951944 5.17924 0
M  V30 5472 H 523.385 1.07616 3.62253 0
M  V30 5473 H 523.698 2.79291 7.20567 0
M  V30 5474 H 522.043 2.50526 6.48276 0
M  V30 5475 H 525.234 1.41358 4.46246 0
M  V30 5476 H 525.407 2.19622 6.09648 0
M  V30 5477 N 518.813 -1.54241 0.323641 0
M  V30 5478 C 520.059 -2.00867 -0.279323 0
M  V30 5479 C 520.392 -1.21146 -1.5178 0
M  V30 5480 O 519.667 -0.29378 -1.92269 0
M  V30 5481 C 519.95 -3.54837 -0.613387 0
M  V30 5482 C 519.803 -4.45284 0.635803 0
M  V30 5483 C 521.122 -4.16186 -1.43099 0
M  V30 5484 H 518.241 -0.730177 -0.100049 0
M  V30 5485 H 520.883 -1.84829 0.440235 0
M  V30 5486 H 519.033 -3.68634 -1.22641 0
M  V30 5487 H 520.705 -4.43357 1.27406 0
M  V30 5488 H 518.948 -4.14956 1.26466 0
M  V30 5489 H 519.619 -5.5084 0.357597 0
M  V30 5490 H 522.095 -4.05964 -0.912814 0
M  V30 5491 H 520.971 -5.24031 -1.6335 0
M  V30 5492 H 521.232 -3.69516 -2.42715 0
M  V30 5493 N 520.291 -0.0518155 -1.57515 0
M  V30 5494 C 521.54 0.621286 -1.91893 0
M  V30 5495 C 521.853 1.71966 -0.932052 0
M  V30 5496 O 523.059 2.45096 -1.16791 0
M  V30 5497 C 521.515 1.15641 -3.40816 0
M  V30 5498 C 521.123 0.0901146 -4.47909 0
M  V30 5499 C 522.867 1.80472 -3.84227 0
M  V30 5500 C 520.774 0.638154 -5.87947 0
M  V30 5501 H 519.704 0.235835 -0.716169 0
M  V30 5502 H 522.355 -0.120809 -1.83102 0
M  V30 5503 H 520.737 1.95084 -3.44613 0
M  V30 5504 H 521.911 -0.683525 -4.55702 0
M  V30 5505 H 520.226 -0.460774 -4.13843 0
M  V30 5506 H 522.823 2.22471 -4.86221 0
M  V30 5507 H 523.166 2.65669 -3.20508 0
M  V30 5508 H 523.699 1.07683 -3.82948 0
M  V30 5509 H 520.438 -0.176202 -6.55263 0
M  V30 5510 H 519.958 1.37976 -5.83714 0
M  V30 5511 H 521.637 1.12085 -6.37217 0
M  V30 5512 N 521.769 1.56035 0.221574 0
M  V30 5513 C 523.015 1.80221 0.942973 0
M  V30 5514 C 523.37 0.624799 1.81973 0
M  V30 5515 O 522.663 -0.381145 1.87771 0
M  V30 5516 C 522.857 3.07813 1.8162 0
M  V30 5517 C 522.686 4.37852 1.02548 0
M  V30 5518 C 521.456 5.00138 0.720418 0
M  V30 5519 C 523.654 5.12813 0.390799 0
M  V30 5520 N 521.636 6.13831 -0.0917139 0
M  V30 5521 C 523.007 6.19346 -0.284728 0
M  V30 5522 C 525.062 4.96972 0.303828 0
M  V30 5523 C 523.765 7.11758 -1.03891 0
M  V30 5524 C 525.791 5.89784 -0.436883 0
M  V30 5525 C 525.153 6.95743 -1.10095 0
M  V30 5526 H 521.252 0.711117 0.325325 0
M  V30 5527 H 523.836 1.93522 0.213854 0
M  V30 5528 H 522.007 2.95795 2.51714 0
M  V30 5529 H 523.739 3.20191 2.47508 0
M  V30 5530 H 520.494 4.62075 1.03843 0
M  V30 5531 H 520.918 6.75249 -0.486615 0
M  V30 5532 H 525.56 4.15107 0.802896 0
M  V30 5533 H 523.278 7.93105 -1.54949 0
M  V30 5534 H 526.864 5.79603 -0.505181 0
M  V30 5535 H 525.744 7.66322 -1.66495 0
M  V30 5536 N 523.247 -0.488276 1.49845 0
M  V30 5537 C 524.21 -1.57069 1.66919 0
M  V30 5538 C 525.21 -1.51445 0.540479 0
M  V30 5539 O 526.4 -1.5437 0.807188 0
M  V30 5540 C 523.532 -2.96718 1.67844 0
M  V30 5541 H 524.725 -1.43254 2.63474 0
M  V30 5542 H 522.278 -0.713435 1.39068 0
M  V30 5543 H 523.013 -3.15996 0.7292 0
M  V30 5544 H 522.798 -3.02208 2.49826 0
M  V30 5545 H 524.288 -3.75335 1.83066 0
M  V30 5546 N 524.725 -1.39134 -0.740242 0
M  V30 5547 C 526.002 -1.26584 -1.49117 0
M  V30 5548 C 526.382 0.126902 -2.10718 0
M  V30 5549 O 525.73 1.13765 -1.98166 0
M  V30 5550 C 525.94 -2.38619 -2.54681 0
M  V30 5551 C 527.288 -2.77685 -3.21211 0
M  V30 5552 O 528.312 -2.38029 -2.64991 0
M  V30 5553 O 527.171 -3.46115 -4.22926 0
M  V30 5554 H 524.265 -0.495769 -0.661923 0
M  V30 5555 H 526.811 -1.50995 -0.774514 0
M  V30 5556 H 525.583 -3.3175 -2.07504 0
M  V30 5557 H 525.206 -2.15845 -3.33911 0
M  V30 5558 N 526.204 0.969867 -1.24223 0
M  V30 5559 C 527.137 2.06279 -0.975926 0
M  V30 5560 C 528.115 1.62353 0.0895385 0
M  V30 5561 O 529.299 1.88442 -0.0469418 0
M  V30 5562 C 526.426 3.35391 -0.472315 0
M  V30 5563 C 525.472 3.98266 -1.526 0
M  V30 5564 S 526.305 4.36172 -3.10667 0
M  V30 5565 C 527.461 5.68423 -2.62003 0
M  V30 5566 H 527.694 2.28551 -1.90137 0
M  V30 5567 H 525.227 1.10748 -1.07584 0
M  V30 5568 H 527.185 4.10068 -0.188376 0
M  V30 5569 H 525.846 3.1111 0.432378 0
M  V30 5570 H 525.039 4.91307 -1.12399 0
M  V30 5571 H 524.641 3.30009 -1.75983 0
M  V30 5572 H 526.933 6.45842 -2.0468 0
M  V30 5573 H 527.876 6.13478 -3.53625 0
M  V30 5574 H 528.284 5.26928 -2.02502 0
M  V30 5575 N 527.682 1.05563 1.17022 0
M  V30 5576 C 528.612 0.681026 2.23348 0
M  V30 5577 C 529.593 -0.322983 1.67005 0
M  V30 5578 O 530.778 -0.199746 1.9317 0
M  V30 5579 C 527.908 0.0589053 3.4725 0
M  V30 5580 C 526.862 0.988082 4.16438 0
M  V30 5581 C 526.188 0.229646 5.34207 0
M  V30 5582 C 527.488 2.31388 4.68249 0
M  V30 5583 H 529.182 1.56993 2.54938 0
M  V30 5584 H 526.728 0.756302 1.2254 0
M  V30 5585 H 528.681 -0.214982 4.20851 0
M  V30 5586 H 527.405 -0.864968 3.14938 0
M  V30 5587 H 526.064 1.24659 3.44754 0
M  V30 5588 H 525.712 -0.697111 4.98146 0
M  V30 5589 H 525.412 0.848815 5.81437 0
M  V30 5590 H 526.936 -0.0368694 6.10589 0
M  V30 5591 H 528.35 2.09964 5.33468 0
M  V30 5592 H 526.747 2.88736 5.26072 0
M  V30 5593 H 527.817 2.94982 3.84855 0
M  V30 5594 N 529.16 -1.33526 0.837174 0
M  V30 5595 C 530.385 -2.0258 0.444545 0
M  V30 5596 C 530.81 -1.6258 -0.946006 0
M  V30 5597 O 530.168 -0.817548 -1.6182 0
M  V30 5598 C 530.216 -3.5605 0.571006 0
M  V30 5599 O 529.32 -4.10422 -0.403431 0
M  V30 5600 H 528.661 -0.638866 0.180958 0
M  V30 5601 H 531.191 -1.70462 1.13154 0
M  V30 5602 H 531.201 -4.05488 0.452024 0
M  V30 5603 H 529.876 -3.84509 1.58512 0
M  V30 5604 H 528.453 -3.72113 -0.242147 0
M  V30 5605 N 530.638 -0.59345 -1.46 0
M  V30 5606 C 531.887 -0.0808084 -2.01538 0
M  V30 5607 C 532.2 1.29112 -1.46934 0
M  V30 5608 O 533.406 1.8957 -1.94359 0
M  V30 5609 C 531.862 -0.0938311 -3.59778 0
M  V30 5610 C 531.47 -1.46474 -4.23379 0
M  V30 5611 C 533.214 0.364306 -4.22934 0
M  V30 5612 C 531.121 -1.4349 -5.73729 0
M  V30 5613 H 530.051 -0.0264407 -0.753536 0
M  V30 5614 H 532.702 -0.746689 -1.67621 0
M  V30 5615 H 531.084 0.638427 -3.9082 0
M  V30 5616 H 532.258 -2.21758 -4.03931 0
M  V30 5617 H 530.573 -1.86379 -3.7236 0
M  V30 5618 H 533.17 0.405584 -5.3316 0
M  V30 5619 H 533.513 1.38409 -3.92618 0
M  V30 5620 H 534.046 -0.31423 -3.96557 0
M  V30 5621 H 530.785 -2.43184 -6.08722 0
M  V30 5622 H 530.305 -0.724431 -5.95409 0
M  V30 5623 H 531.984 -1.15243 -6.36654 0
M  V30 5624 N 532.116 1.54067 -0.331816 0
M  V30 5625 C 533.079 2.23275 0.517768 0
M  V30 5626 C 534.079 1.22897 1.03697 0
M  V30 5627 O 535.269 1.47419 0.928084 0
M  V30 5628 C 532.401 2.94326 1.72004 0
M  V30 5629 H 533.594 2.99773 -0.0873507 0
M  V30 5630 H 531.147 1.56079 -0.0830042 0
M  V30 5631 H 531.882 2.21986 2.36417 0
M  V30 5632 H 531.667 3.67941 1.35507 0
M  V30 5633 H 533.157 3.47031 2.32291 0
M  V30 5634 N 533.594 0.0601682 1.57485 0
M  V30 5635 C 534.84 -0.612501 1.93329 0
M  V30 5636 C 535.173 -1.6996 0.939526 0
M  V30 5637 O 534.448 -1.94472 -0.0330957 0
M  V30 5638 C 534.731 -1.20025 3.39508 0
M  V30 5639 C 534.584 -0.12059 4.49638 0
M  V30 5640 C 535.903 -2.10923 3.86264 0
M  V30 5641 H 533.022 -0.221185 0.703027 0
M  V30 5642 H 535.664 0.123768 1.89596 0
M  V30 5643 H 533.814 -1.82774 3.42821 0
M  V30 5644 H 535.486 0.51185 4.58452 0
M  V30 5645 H 533.729 0.550251 4.30296 0
M  V30 5646 H 534.4 -0.572019 5.49028 0
M  V30 5647 H 536.876 -1.58124 3.84884 0
M  V30 5648 H 535.752 -2.48987 4.8918 0
M  V30 5649 H 536.013 -3.01292 3.23536 0
M  V30 5650 N 535.072 -1.5615 -0.213296 0
M  V30 5651 C 536.3 -1.83638 -0.953139 0
M  V30 5652 C 536.715 -0.640362 -1.77609 0
M  V30 5653 O 536.072 0.391071 -1.78261 0
M  V30 5654 C 536.123 -3.09735 -1.86405 0
M  V30 5655 O 535.844 -4.24723 -1.07435 0
M  V30 5656 C 537.345 -3.5027 -2.71709 0
M  V30 5657 H 534.565 -0.610263 -0.278962 0
M  V30 5658 H 537.109 -2.03247 -0.226035 0
M  V30 5659 H 535.264 -2.92077 -2.545 0
M  V30 5660 H 535.678 -4.9641 -1.69343 0
M  V30 5661 H 537.152 -4.41515 -3.31313 0
M  V30 5662 H 537.629 -2.72406 -3.44516 0
M  V30 5663 H 538.235 -3.70396 -2.09015 0
M  V30 5664 N 536.55 0.480323 -1.50102 0
M  V30 5665 C 537.78 1.25475 -1.64133 0
M  V30 5666 C 538.188 1.8647 -0.320272 0
M  V30 5667 O 537.531 1.69561 0.70673 0
M  V30 5668 C 537.593 2.40996 -2.6676 0
M  V30 5669 C 537.257 2.00711 -4.10565 0
M  V30 5670 C 538.254 1.53492 -4.96725 0
M  V30 5671 C 535.939 2.09714 -4.56427 0
M  V30 5672 C 537.933 1.15806 -6.26792 0
M  V30 5673 C 535.62 1.7164 -5.86501 0
M  V30 5674 C 536.618 1.24763 -6.71508 0
M  V30 5675 O 536.306 0.872122 -7.99155 0
M  V30 5676 H 536.038 0.385983 -0.554971 0
M  V30 5677 H 538.592 0.580848 -1.97016 0
M  V30 5678 H 536.822 3.11528 -2.291 0
M  V30 5679 H 538.511 3.02981 -2.70106 0
M  V30 5680 H 539.277 1.45966 -4.62514 0
M  V30 5681 H 535.156 2.4515 -3.90413 0
M  V30 5682 H 538.7 0.791465 -6.93096 0
M  V30 5683 H 534.597 1.78822 -6.20236 0
M  V30 5684 H 535.365 1.00178 -8.12346 0
M  V30 5685 N 538.028 1.39524 0.732853 0
M  V30 5686 C 539.275 1.36865 1.49246 0
M  V30 5687 C 539.603 -0.0347118 1.94469 0
M  V30 5688 O 538.858 -1.01596 1.67262 0
M  V30 5689 C 539.157 2.28916 2.74468 0
M  V30 5690 C 538.823 3.76506 2.481 0
M  V30 5691 C 537.485 4.16721 2.40619 0
M  V30 5692 C 539.837 4.69846 2.25598 0
M  V30 5693 C 537.165 5.48334 2.08679 0
M  V30 5694 C 539.517 6.01739 1.95174 0
M  V30 5695 C 538.181 6.41015 1.86163 0
M  V30 5696 H 537.451 0.500824 0.546129 0
M  V30 5697 H 540.098 1.72047 0.840958 0
M  V30 5698 H 538.403 1.86859 3.4437 0
M  V30 5699 H 540.1 2.2415 3.32502 0
M  V30 5700 H 536.69 3.44635 2.54803 0
M  V30 5701 H 540.874 4.39608 2.30344 0
M  V30 5702 H 536.13 5.77685 2.00226 0
M  V30 5703 H 540.304 6.73591 1.76771 0
M  V30 5704 H 537.931 7.42917 1.61179 0
M  V30 5705 N 539.506 -0.963266 1.24736 0
M  V30 5706 C 540.755 -1.70115 1.08369 0
M  V30 5707 C 541.068 -1.91939 -0.376688 0
M  V30 5708 O 542.274 -2.6334 -0.660624 0
M  V30 5709 C 540.73 -3.06218 1.89099 0
M  V30 5710 C 540.338 -2.92221 3.39574 0
M  V30 5711 C 542.082 -3.83848 1.81275 0
M  V30 5712 C 539.989 -4.23662 4.12631 0
M  V30 5713 H 538.919 -0.637944 0.401924 0
M  V30 5714 H 541.57 -1.07304 1.48856 0
M  V30 5715 H 539.952 -3.69884 1.41429 0
M  V30 5716 H 541.126 -2.37541 3.94856 0
M  V30 5717 H 539.441 -2.28054 3.48397 0
M  V30 5718 H 542.038 -4.81188 2.33158 0
M  V30 5719 H 542.381 -4.08949 0.778895 0
M  V30 5720 H 542.914 -3.26918 2.26649 0
M  V30 5721 H 539.653 -4.03753 5.16395 0
M  V30 5722 H 539.173 -4.78141 3.62135 0
M  V30 5723 H 540.852 -4.92256 4.19873 0
M  V30 5724 N 540.985 -1.06182 -1.16461 0
M  V30 5725 C 542.213 -0.798583 -1.90867 0
M  V30 5726 C 542.628 0.646921 -1.77371 0
M  V30 5727 O 541.985 1.44279 -1.11758 0
M  V30 5728 C 542.036 -1.18258 -3.4161 0
M  V30 5729 O 541.757 -2.57135 -3.54701 0
M  V30 5730 C 543.258 -0.946917 -4.33069 0
M  V30 5731 H 540.478 -0.289603 -0.605286 0
M  V30 5732 H 543.022 -1.41515 -1.47627 0
M  V30 5733 H 541.177 -0.610562 -3.82558 0
M  V30 5734 H 541.591 -2.72477 -4.4817 0
M  V30 5735 H 543.065 -1.26523 -5.37304 0
M  V30 5736 H 543.542 0.117406 -4.39043 0
M  V30 5737 H 544.148 -1.50326 -3.97847 0
M  V30 5738 N 542.463 1.3308 -0.844243 0
M  V30 5739 C 543.393 2.3161 -0.296493 0
M  V30 5740 C 544.374 1.59215 0.598707 0
M  V30 5741 O 545.559 1.87077 0.521134 0
M  V30 5742 C 542.689 3.43313 0.524762 0
M  V30 5743 C 541.643 4.27115 -0.275106 0
M  V30 5744 C 540.969 5.30483 0.670236 0
M  V30 5745 C 542.269 5.00443 -1.49514 0
M  V30 5746 H 543.963 2.77672 -1.11976 0
M  V30 5747 H 541.509 1.33496 -0.539899 0
M  V30 5748 H 543.462 4.11273 0.918298 0
M  V30 5749 H 542.186 2.95952 1.3813 0
M  V30 5750 H 540.845 3.60787 -0.650267 0
M  V30 5751 H 540.493 4.79379 1.52332 0
M  V30 5752 H 540.193 5.87435 0.139123 0
M  V30 5753 H 541.717 6.01308 1.06117 0
M  V30 5754 H 543.131 5.61141 -1.17447 0
M  V30 5755 H 541.528 5.67071 -1.96343 0
M  V30 5756 H 542.598 4.28906 -2.26202 0
M  V30 5757 N 543.941 0.601185 1.45683 0
M  V30 5758 C 545.181 0.0968037 2.04171 0
M  V30 5759 C 545.545 -1.2466 1.46027 0
M  V30 5760 O 546.746 -1.84132 1.95829 0
M  V30 5761 C 545.017 0.051384 3.57363 0
M  V30 5762 S 546.576 -0.392737 4.37039 0
M  V30 5763 H 543.394 0.0464504 0.709481 0
M  V30 5764 H 545.996 0.797846 1.78479 0
M  V30 5765 H 544.7 1.03274 3.97193 0
M  V30 5766 H 544.231 -0.671853 3.87621 0
M  V30 5767 H 546.246 -1.64364 4.68187 0
M  V30 5768 N 545.419 -1.53889 0.339982 0
M  V30 5769 C 546.349 -2.27843 -0.510856 0
M  V30 5770 C 547.33 -1.29267 -1.10563 0
M  V30 5771 O 548.515 -1.58104 -1.12768 0
M  V30 5772 C 545.645 -3.04857 -1.66372 0
M  V30 5773 C 544.599 -4.10907 -1.19746 0
M  V30 5774 C 543.925 -4.75855 -2.43857 0
M  V30 5775 C 545.225 -5.21435 -0.300501 0
M  V30 5776 H 546.919 -2.99212 0.106067 0
M  V30 5777 H 544.465 -1.43904 0.0524533 0
M  V30 5778 H 546.418 -3.5533 -2.26537 0
M  V30 5779 H 545.142 -2.31133 -2.30749 0
M  V30 5780 H 543.801 -3.61342 -0.618654 0
M  V30 5781 H 543.449 -3.9873 -3.06633 0
M  V30 5782 H 543.149 -5.47502 -2.13343 0
M  V30 5783 H 544.673 -5.2911 -3.04754 0
M  V30 5784 H 546.087 -5.67565 -0.80889 0
M  V30 5785 H 544.484 -6.00036 -0.0874076 0
M  V30 5786 H 545.554 -4.80328 0.664321 0
M  V30 5787 N 546.897 -0.0685191 -1.57451 0
M  V30 5788 C 548.144 0.601348 -1.93365 0
M  V30 5789 C 548.472 1.69816 -0.948294 0
M  V30 5790 O 547.727 1.95666 0.0366199 0
M  V30 5791 C 548.026 1.22051 -3.35914 0
M  V30 5792 C 547.692 0.250165 -4.50205 0
M  V30 5793 C 546.354 -0.0167954 -4.81197 0
M  V30 5794 C 548.706 -0.413867 -5.19554 0
M  V30 5795 C 546.034 -0.95493 -5.78876 0
M  V30 5796 C 548.386 -1.3403 -6.18238 0
M  V30 5797 C 547.05 -1.61576 -6.47649 0
M  V30 5798 H 546.32 0.220049 -0.707573 0
M  V30 5799 H 548.967 -0.138697 -1.90997 0
M  V30 5800 H 547.272 2.03622 -3.34732 0
M  V30 5801 H 548.969 1.74605 -3.6099 0
M  V30 5802 H 545.559 0.468421 -4.26033 0
M  V30 5803 H 549.743 -0.220733 -4.95809 0
M  V30 5804 H 544.999 -1.17563 -5.99991 0
M  V30 5805 H 549.173 -1.86081 -6.71079 0
M  V30 5806 H 546.8 -2.34431 -7.2315 0
M  V30 5807 N 548.375 1.56261 0.205012 0
M  V30 5808 C 549.786 1.70056 0.770574 0
M  V30 5809 C 550.137 0.673398 1.84282 0
M  V30 5810 O 549.262 -0.172196 2.15714 0
M  V30 5811 C 549.857 3.08316 1.40451 0
M  V30 5812 C 548.416 3.2391 1.91727 0
M  V30 5813 C 547.563 2.66001 0.783516 0
M  V30 5814 H 550.514 1.58688 -0.019911 0
M  V30 5815 H 550.535 3.05094 2.27371 0
M  V30 5816 H 550.047 3.83053 0.623882 0
M  V30 5817 H 548.148 2.54072 2.7254 0
M  V30 5818 H 548.261 4.3131 2.08588 0
M  V30 5819 H 546.625 2.24915 1.19521 0
M  V30 5820 H 547.408 3.43297 0.0152883 0
M  V30 5821 N 549.853 -0.472356 1.50355 0
M  V30 5822 C 551.101 -1.22211 1.60962 0
M  V30 5823 C 551.422 -1.92497 0.311439 0
M  V30 5824 O 550.692 -1.8405 -0.671002 0
M  V30 5825 H 549.272 -0.454092 0.593135 0
M  V30 5826 H 551.934 -0.544977 1.87126 0
M  V30 5827 H 551.03 -1.9707 2.42012 0
M  V30 5828 N 551.331 -1.39911 -0.725443 0
M  V30 5829 C 552.261 -1.42138 -1.85254 0
M  V30 5830 C 553.242 -0.283513 -1.67721 0
M  V30 5831 O 554.427 -0.490717 -1.87898 0
M  V30 5832 C 551.557 -1.27354 -3.23107 0
M  V30 5833 C 550.511 -2.3864 -3.55296 0
M  V30 5834 C 549.837 -2.08939 -4.92188 0
M  V30 5835 C 551.137 -3.8097 -3.57295 0
M  V30 5836 H 552.831 -2.36461 -1.83648 0
M  V30 5837 H 550.377 -1.13817 -0.882138 0
M  V30 5838 H 552.33 -1.2753 -4.01639 0
M  V30 5839 H 551.054 -0.295025 -3.25265 0
M  V30 5840 H 549.713 -2.37696 -2.79099 0
M  V30 5841 H 549.361 -1.09502 -4.90936 0
M  V30 5842 H 549.061 -2.83491 -5.14691 0
M  V30 5843 H 550.585 -2.10781 -5.73065 0
M  V30 5844 H 551.999 -3.8379 -4.25885 0
M  V30 5845 H 550.396 -4.5496 -3.9132 0
M  V30 5846 H 551.466 -4.11261 -2.5689 0
M  V30 5847 N 552.809 0.956637 -1.25245 0
M  V30 5848 C 553.719 2.0868 -1.0719 0
M  V30 5849 C 554.735 1.73997 -0.00959074 0
M  V30 5850 O 555.911 2.00301 -0.210104 0
M  V30 5851 C 552.976 3.39754 -0.690526 0
M  V30 5852 C 552.037 3.88316 -1.83055 0
M  V30 5853 C 551.27 5.13134 -1.46728 0
M  V30 5854 O 551.493 5.6925 -0.362029 0
M  V30 5855 O 550.427 5.56356 -2.29677 0
M  V30 5856 H 554.253 2.26813 -2.01965 0
M  V30 5857 H 551.838 1.07098 -1.04165 0
M  V30 5858 H 553.72 4.18543 -0.489871 0
M  V30 5859 H 552.395 3.22896 0.227981 0
M  V30 5860 H 551.302 3.1054 -2.08604 0
M  V30 5861 H 552.635 4.09669 -2.72822 0
M  V30 5862 N 554.287 1.06798 1.15896 0
M  V30 5863 C 555.512 0.808739 1.90982 0
M  V30 5864 C 555.937 -0.6316 1.77179 0
M  V30 5865 O 555.295 -1.4407 1.10061 0
M  V30 5866 C 555.343 1.21468 3.39526 0
M  V30 5867 O 554.447 0.356562 4.10856 0
M  V30 5868 H 553.788 0.29512 0.594811 0
M  V30 5869 H 556.318 1.42513 1.46804 0
M  V30 5870 H 556.328 1.18844 3.90308 0
M  V30 5871 H 555.003 2.26379 3.48891 0
M  V30 5872 H 553.58 0.444808 3.70238 0
M  V30 5873 N 555.766 -1.3263 0.851289 0
M  V30 5874 C 556.676 -2.32722 0.296268 0
M  V30 5875 C 557.692 -1.63901 -0.584162 0
M  V30 5876 O 558.868 -1.95465 -0.485334 0
M  V30 5877 C 555.933 -3.42942 -0.509103 0
M  V30 5878 C 554.994 -4.2746 0.397069 0
M  V30 5879 C 554.227 -5.32416 -0.36996 0
M  V30 5880 O 554.45 -5.47491 -1.6003 0
M  V30 5881 O 553.384 -6.01327 0.262493 0
M  V30 5882 H 557.21 -2.82078 1.12543 0
M  V30 5883 H 554.795 -1.36194 0.614135 0
M  V30 5884 H 556.677 -4.1017 -0.96634 0
M  V30 5885 H 555.352 -2.95781 -1.31512 0
M  V30 5886 H 554.259 -3.63053 0.902411 0
M  V30 5887 H 555.592 -4.78136 1.16818 0
M  V30 5888 N 557.244 -0.608902 -1.45362 0
M  V30 5889 C 558.493 -0.10218 -2.01441 0
M  V30 5890 C 558.806 1.27546 -1.48295 0
M  V30 5891 O 560.012 1.87498 -1.96359 0
M  V30 5892 C 558.468 -0.131985 -3.59658 0
M  V30 5893 C 558.076 -1.50956 -4.21801 0
M  V30 5894 C 559.82 0.319427 -4.23296 0
M  V30 5895 C 557.727 -1.49568 -5.72174 0
M  V30 5896 H 556.657 -0.0344314 -0.753213 0
M  V30 5897 H 559.308 -0.764426 -1.6682 0
M  V30 5898 H 557.69 0.596939 -3.91475 0
M  V30 5899 H 558.864 -2.26029 -4.01556 0
M  V30 5900 H 557.179 -1.90318 -3.70362 0
M  V30 5901 H 559.776 0.349013 -5.3356 0
M  V30 5902 H 560.119 1.34237 -3.94064 0
M  V30 5903 H 560.652 -0.356273 -3.96201 0
M  V30 5904 H 557.391 -2.49626 -6.06108 0
M  V30 5905 H 556.911 -0.787542 -5.94607 0
M  V30 5906 H 558.59 -1.21989 -6.35396 0
M  V30 5907 N 558.722 1.53707 -0.348139 0
M  V30 5908 C 560.138 1.596 0.00361134 0
M  V30 5909 C 560.338 1.36394 1.4832 0
M  V30 5910 O 559.394 1.16046 2.24253 0
M  V30 5911 C 560.707 2.97512 -0.436682 0
M  V30 5912 C 562.255 3.10568 -0.389416 0
M  V30 5913 C 562.73 4.50866 -0.805249 0
M  V30 5914 N 564.221 4.56929 -0.759616 0
M  V30 5915 C 564.956 5.63643 -1.05327 0
M  V30 5916 N 564.452 6.78189 -1.41531 0
M  V30 5917 N 566.245 5.5354 -0.977207 0
M  V30 5918 H 558.396 1.67044 -1.31187 0
M  V30 5919 H 560.659 0.782559 -0.535075 0
M  V30 5920 H 560.365 3.19575 -1.46849 0
M  V30 5921 H 560.239 3.76742 0.185744 0
M  V30 5922 H 562.626 2.88226 0.633228 0
M  V30 5923 H 562.707 2.33387 -1.04711 0
M  V30 5924 H 562.351 4.73943 -1.82593 0
M  V30 5925 H 562.281 5.26452 -0.124989 0
M  V30 5926 H 564.772 3.74675 -0.49265 0
M  V30 5927 H 565.085 7.55541 -1.62411 0
M  V30 5928 H 563.43 6.79624 -1.45381 0
M  V30 5929 H 566.621 4.62932 -0.693675 0
M  V30 5930 H 566.794 6.36614 -1.2094 0
M  V30 5931 N 560.2 0.0768682 1.57412 0
M  V30 5932 C 561.15 -0.898795 2.09537 0
M  V30 5933 C 562.134 -1.25556 1.0062 0
M  V30 5934 O 563.326 -1.23369 1.26921 0
M  V30 5935 C 560.455 -2.16453 2.66464 0
M  V30 5936 C 559.541 -1.83401 3.82393 0
M  V30 5937 N 559.932 -1.20823 4.91157 0
M  V30 5938 C 558.23 -2.13121 3.91785 0
M  V30 5939 C 558.931 -1.05976 5.71965 0
M  V30 5940 N 557.907 -1.57113 5.204 0
M  V30 5941 H 561.709 -0.410718 2.91016 0
M  V30 5942 H 559.223 -0.126878 1.61904 0
M  V30 5943 H 561.22 -2.87274 3.02125 0
M  V30 5944 H 559.88 -2.65844 1.86433 0
M  V30 5945 H 560.891 -0.877249 5.10416 0
M  V30 5946 H 557.568 -2.64854 3.22736 0
M  V30 5947 H 558.958 -0.571809 6.69462 0
M  V30 5948 N 561.678 -1.56367 -0.196722 0
M  V30 5949 C 562.918 -1.82315 -0.92415 0
M  V30 5950 C 563.282 -0.654117 -1.80514 0
M  V30 5951 O 564.483 -0.79345 -2.56823 0
M  V30 5952 C 562.754 -3.13279 -1.72021 0
M  V30 5953 S 564.313 -3.60627 -2.49988 0
M  V30 5954 H 561.131 -0.639862 -0.309997 0
M  V30 5955 H 563.733 -1.94597 -0.187684 0
M  V30 5956 H 562.437 -3.96379 -1.06358 0
M  V30 5957 H 561.968 -3.03871 -2.49852 0
M  V30 5958 H 563.983 -3.25934 -3.74141 0
M  V30 5959 N 563.156 0.464375 -1.50603 0
M  V30 5960 C 564.405 1.21277 -1.61167 0
M  V30 5961 C 564.718 1.92953 -0.320704 0
M  V30 5962 O 565.924 2.69778 -0.30534 0
M  V30 5963 C 564.38 2.20403 -2.84518 0
M  V30 5964 C 563.988 1.54499 -4.20516 0
M  V30 5965 C 565.732 2.95843 -3.0443 0
M  V30 5966 C 563.639 2.51951 -5.35047 0
M  V30 5967 H 562.569 0.456367 -0.600204 0
M  V30 5968 H 565.22 0.48254 -1.77042 0
M  V30 5969 H 563.602 2.96746 -2.62217 0
M  V30 5970 H 564.776 0.83899 -4.53098 0
M  V30 5971 H 563.091 0.913152 -4.06264 0
M  V30 5972 H 565.688 3.6879 -3.87167 0
M  V30 5973 H 566.031 3.55622 -2.16423 0
M  V30 5974 H 566.564 2.26611 -3.26944 0
M  V30 5975 H 563.303 1.96901 -6.25228 0
M  V30 5976 H 562.823 3.20683 -5.06875 0
M  V30 5977 H 564.502 3.13643 -5.65895 0
M  V30 5978 N 564.634 1.40294 0.718013 0
M  V30 5979 C 565.564 1.43118 1.84498 0
M  V30 5980 C 566.545 0.292403 1.67568 0
M  V30 5981 O 567.73 0.500675 1.87635 0
M  V30 5982 C 564.86 1.29065 3.22427 0
M  V30 5983 C 563.814 2.40521 3.54025 0
M  V30 5984 C 563.14 2.11546 4.91073 0
M  V30 5985 C 564.44 3.82859 3.55269 0
M  V30 5986 H 566.134 2.37432 1.82391 0
M  V30 5987 H 563.68 1.14283 0.87609 0
M  V30 5988 H 565.633 1.29658 4.00957 0
M  V30 5989 H 564.357 0.312271 3.25104 0
M  V30 5990 H 563.016 2.39173 2.77834 0
M  V30 5991 H 562.664 1.12104 4.90348 0
M  V30 5992 H 562.364 2.86216 5.1318 0
M  V30 5993 H 563.888 2.13817 5.71939 0
M  V30 5994 H 565.302 3.86044 4.23843 0
M  V30 5995 H 563.699 4.57029 3.88902 0
M  V30 5996 H 564.769 4.12617 2.54706 0
M  V30 5997 N 566.112 -0.949982 1.2575 0
M  V30 5998 C 567.36 -1.6918 1.10555 0
M  V30 5999 C 567.681 -1.91773 -0.353298 0
M  V30 6000 O 566.951 -1.50814 -1.25027 0
M  V30 6001 H 565.531 -0.626952 0.406129 0
M  V30 6002 H 568.193 -1.1419 1.57945 0
M  V30 6003 H 567.289 -2.66915 1.61749 0
M  V30 6004 N 567.59 -1.07411 -1.15328 0
M  V30 6005 C 568.5 -0.706438 -2.23711 0
M  V30 6006 C 569.516 0.282586 -1.7169 0
M  V30 6007 O 570.692 0.129066 -2.00986 0
M  V30 6008 C 567.757 -0.11048 -3.46524 0
M  V30 6009 C 566.818 -1.15282 -4.13532 0
M  V30 6010 C 566.051 -0.585205 -5.30482 0
M  V30 6011 O 566.274 0.598549 -5.67251 0
M  V30 6012 O 565.208 -1.33039 -5.87013 0
M  V30 6013 H 569.034 -1.61031 -2.57493 0
M  V30 6014 H 566.619 -0.847113 -1.23062 0
M  V30 6015 H 568.501 0.21957 -4.20828 0
M  V30 6016 H 567.176 0.766703 -3.14489 0
M  V30 6017 H 566.083 -1.53523 -3.41147 0
M  V30 6018 H 567.416 -2.00192 -4.49649 0
M  V30 6019 N 569.068 1.32177 -0.85831 0
M  V30 6020 C 570.314 1.97813 -0.47346 0
M  V30 6021 C 570.669 1.66674 0.961122 0
M  V30 6022 O 569.962 0.94657 1.66585 0
M  V30 6023 C 570.156 3.51372 -0.653658 0
M  V30 6024 C 569.985 3.97433 -2.1042 0
M  V30 6025 C 568.755 4.24338 -2.74345 0
M  V30 6026 C 570.953 4.12233 -3.0752 0
M  V30 6027 N 568.935 4.56672 -4.10272 0
M  V30 6028 C 570.306 4.48146 -4.28445 0
M  V30 6029 C 572.361 3.94577 -3.03667 0
M  V30 6030 C 571.064 4.68246 -5.4602 0
M  V30 6031 C 573.09 4.15864 -4.20489 0
M  V30 6032 C 572.452 4.52098 -5.40173 0
M  V30 6033 H 568.551 0.749808 -0.222061 0
M  V30 6034 H 571.135 1.59927 -1.11047 0
M  V30 6035 H 569.306 3.88372 -0.0463267 0
M  V30 6036 H 571.038 4.03998 -0.238343 0
M  V30 6037 H 567.793 4.16544 -2.25362 0
M  V30 6038 H 568.217 4.77019 -4.80398 0
M  V30 6039 H 572.859 3.65662 -2.12252 0
M  V30 6040 H 570.577 4.96014 -6.37962 0
M  V30 6041 H 574.163 4.03702 -4.18947 0
M  V30 6042 H 573.043 4.68238 -6.29065 0
M  V30 6043 N 570.547 0.616602 1.45037 0
M  V30 6044 C 571.477 -0.0840787 2.33349 0
M  V30 6045 C 572.458 -0.849641 1.4736 0
M  V30 6046 O 573.643 -0.818407 1.76113 0
M  V30 6047 C 570.773 -1.07604 3.3021 0
M  V30 6048 C 569.727 -0.423096 4.25904 0
M  V30 6049 C 569.053 -1.52394 5.12523 0
M  V30 6050 C 570.353 0.661457 5.18095 0
M  V30 6051 H 572.047 0.653333 2.92185 0
M  V30 6052 H 569.593 0.315634 1.40498 0
M  V30 6053 H 571.546 -1.57485 3.90866 0
M  V30 6054 H 570.27 -1.84416 2.69552 0
M  V30 6055 H 568.929 0.05493 3.66559 0
M  V30 6056 H 568.577 -2.28257 4.48227 0
M  V30 6057 H 568.277 -1.09251 5.77354 0
M  V30 6058 H 569.801 -2.02485 5.76049 0
M  V30 6059 H 571.215 0.246353 5.7277 0
M  V30 6060 H 569.612 1.01517 5.91451 0
M  V30 6061 H 570.682 1.53446 4.59981 0
M  V30 6062 N 572.025 -1.5352 0.356285 0
M  V30 6063 C 573.436 -1.86282 -0.12492 0
M  V30 6064 C 573.787 -1.27717 -1.48939 0
M  V30 6065 O 572.912 -0.595614 -2.08042 0
M  V30 6066 C 573.507 -3.37995 -0.23345 0
M  V30 6067 C 572.066 -3.70588 -0.658899 0
M  V30 6068 C 571.213 -2.76581 0.199596 0
M  V30 6069 H 574.164 -1.47901 0.575423 0
M  V30 6070 H 574.185 -3.65475 -1.0587 0
M  V30 6071 H 573.697 -3.8059 0.759776 0
M  V30 6072 H 571.798 -3.33544 -1.66069 0
M  V30 6073 H 571.911 -4.77076 -0.439957 0
M  V30 6074 H 570.275 -2.52552 -0.330076 0
M  V30 6075 H 571.058 -3.22008 1.19019 0
M  V30 6076 N 573.503 -0.0852151 -1.57369 0
M  V30 6077 C 574.752 0.580443 -1.93168 0
M  V30 6078 C 575.065 1.6995 -0.968319 0
M  V30 6079 O 576.271 2.42564 -1.21963 0
M  V30 6080 C 574.727 1.08386 -3.43192 0
M  V30 6081 C 574.335 -0.00491388 -4.48 0
M  V30 6082 C 576.079 1.72281 -3.87968 0
M  V30 6083 C 573.986 0.513299 -5.89168 0
M  V30 6084 H 572.916 0.22059 -0.72101 0
M  V30 6085 H 575.567 -0.159621 -1.82804 0
M  V30 6086 H 573.949 1.8773 -3.48674 0
M  V30 6087 H 575.123 -0.780032 -4.5415 0
M  V30 6088 H 573.438 -0.548453 -4.12772 0
M  V30 6089 H 576.035 2.12108 -4.9083 0
M  V30 6090 H 576.378 2.58811 -3.26071 0
M  V30 6091 H 576.911 0.995359 -3.85146 0
M  V30 6092 H 573.65 -0.315153 -6.54742 0
M  V30 6093 H 573.17 1.25564 -5.8651 0
M  V30 6094 H 574.849 0.985433 -6.39451 0
M  V30 6095 N 574.981 1.5647 0.188427 0
M  V30 6096 C 575.911 1.98101 1.23606 0
M  V30 6097 C 576.892 0.853961 1.47111 0
M  V30 6098 O 578.077 1.11879 1.58735 0
M  V30 6099 C 575.207 2.32624 2.57882 0
M  V30 6100 C 574.161 3.48129 2.48978 0
M  V30 6101 C 573.487 3.68347 3.87588 0
M  V30 6102 C 574.787 4.82112 2.00911 0
M  V30 6103 H 576.481 2.85864 0.890068 0
M  V30 6104 H 574.027 1.37532 0.426714 0
M  V30 6105 H 575.98 2.60343 3.3136 0
M  V30 6106 H 574.704 1.41751 2.94235 0
M  V30 6107 H 573.363 3.20511 1.77956 0
M  V30 6108 H 573.011 2.74793 4.21305 0
M  V30 6109 H 572.711 4.46055 3.82503 0
M  V30 6110 H 574.235 3.98449 4.62678 0
M  V30 6111 H 575.649 5.08819 2.64151 0
M  V30 6112 H 574.046 5.63337 2.06814 0
M  V30 6113 H 575.116 4.75249 0.96262 0
M  V30 6114 N 576.459 -0.456382 1.50847 0
M  V30 6115 C 577.708 -1.2042 1.61808 0
M  V30 6116 C 578.021 -1.9278 0.330932 0
M  V30 6117 O 579.227 -2.69612 0.319643 0
M  V30 6118 C 577.683 -2.18891 2.85683 0
M  V30 6119 C 577.291 -1.52267 4.2133 0
M  V30 6120 C 579.035 -2.94224 3.05994 0
M  V30 6121 C 576.942 -2.4911 5.36375 0
M  V30 6122 H 575.872 -0.453177 0.602616 0
M  V30 6123 H 578.523 -0.473144 1.77295 0
M  V30 6124 H 576.905 -2.95351 2.63787 0
M  V30 6125 H 578.079 -0.814949 4.53536 0
M  V30 6126 H 576.394 -0.891594 4.06743 0
M  V30 6127 H 578.991 -3.66732 3.89117 0
M  V30 6128 H 579.334 -3.54469 2.18306 0
M  V30 6129 H 579.867 -2.24874 3.28141 0
M  V30 6130 H 576.606 -1.93582 6.26264 0
M  V30 6131 H 576.126 -3.17991 5.08569 0
M  V30 6132 H 577.805 -3.10637 5.67551 0
M  V30 6133 N 577.937 -1.40673 -0.710563 0
M  V30 6134 C 578.87 -1.35742 -1.83438 0
M  V30 6135 C 579.848 -0.226997 -1.61008 0
M  V30 6136 O 581.032 -0.411477 -1.83954 0
M  V30 6137 C 578.159 -1.11374 -3.19865 0
M  V30 6138 C 577.205 -2.26935 -3.61113 0
M  V30 6139 S 578.038 -3.89352 -3.67648 0
M  V30 6140 C 579.194 -3.67258 -5.06826 0
M  V30 6141 H 579.427 -2.30848 -1.87341 0
M  V30 6142 H 576.96 -1.27018 -0.877831 0
M  V30 6143 H 578.918 -0.980004 -3.9863 0
M  V30 6144 H 577.579 -0.179135 -3.13589 0
M  V30 6145 H 576.772 -2.0554 -4.60184 0
M  V30 6146 H 576.374 -2.36638 -2.89618 0
M  V30 6147 H 578.666 -3.26036 -5.93891 0
M  V30 6148 H 579.609 -4.65878 -5.33257 0
M  V30 6149 H 580.017 -3.0084 -4.77656 0
M  V30 6150 N 579.415 0.9433 -1.26252 0
M  V30 6151 C 580.378 2.02326 -1.07689 0
M  V30 6152 C 581.378 1.60779 -0.0259174 0
M  V30 6153 O 582.568 1.72108 -0.269134 0
M  V30 6154 C 579.7 3.34886 -0.63752 0
M  V30 6155 H 580.893 2.20225 -2.0357 0
M  V30 6156 H 578.446 1.12197 -1.08819 0
M  V30 6157 H 579.181 3.22684 0.323377 0
M  V30 6158 H 578.966 3.66393 -1.39637 0
M  V30 6159 H 580.456 4.14231 -0.529418 0
M  V30 6160 N 580.893 1.08022 1.14757 0
M  V30 6161 C 582.139 0.808705 1.85978 0
M  V30 6162 C 582.472 -0.663764 1.82504 0
M  V30 6163 O 581.747 -1.48765 1.25296 0
M  V30 6164 C 582.03 1.32623 3.34788 0
M  V30 6165 C 581.883 2.86375 3.46856 0
M  V30 6166 C 583.202 0.948291 4.29762 0
M  V30 6167 H 580.321 0.295244 0.675278 0
M  V30 6168 H 582.963 1.33917 1.34783 0
M  V30 6169 H 581.113 0.875002 3.78518 0
M  V30 6170 H 582.785 3.39839 3.11941 0
M  V30 6171 H 581.028 3.24232 2.88194 0
M  V30 6172 H 581.699 3.17658 4.51439 0
M  V30 6173 H 584.175 1.33722 3.94028 0
M  V30 6174 H 583.051 1.33765 5.32352 0
M  V30 6175 H 583.312 -0.145094 4.41862 0
M  V30 6176 N 582.371 -1.3172 0.865308 0
M  V30 6177 C 583.618 -1.96876 0.473931 0
M  V30 6178 C 583.946 -1.68425 -0.972786 0
M  V30 6179 O 583.201 -0.970742 -1.69927 0
M  V30 6180 C 583.5 -3.5102 0.672283 0
M  V30 6181 C 583.166 -3.9948 2.09108 0
M  V30 6182 C 581.828 -4.12425 2.4791 0
M  V30 6183 C 584.18 -4.2503 3.0166 0
M  V30 6184 C 581.508 -4.48267 3.78515 0
M  V30 6185 C 583.86 -4.62335 4.31774 0
M  V30 6186 C 582.524 -4.73486 4.70497 0
M  V30 6187 H 581.794 -0.72042 0.173424 0
M  V30 6188 H 584.441 -1.56937 1.0974 0
M  V30 6189 H 582.746 -3.91785 -0.034356 0
M  V30 6190 H 584.443 -3.99475 0.349353 0
M  V30 6191 H 581.033 -3.89898 1.77981 0
M  V30 6192 H 585.217 -4.14529 2.7291 0
M  V30 6193 H 580.473 -4.55097 4.08285 0
M  V30 6194 H 584.647 -4.81058 5.03543 0
M  V30 6195 H 582.274 -5.01016 5.71741 0
M  V30 6196 N 583.85 -0.624285 -1.44708 0
M  V30 6197 C 584.798 0.0969952 -2.32398 0
M  V30 6198 C 585.792 0.842762 -1.46949 0
M  V30 6199 O 586.998 0.756436 -1.63334 0
M  V30 6200 H 583.373 0.0501306 -0.750327 0
M  V30 6201 H 585.344 -0.660767 -2.90992 0
M  V30 6202 C 584.093 1.06967 -3.30837 0
M  V30 6203 H 583.416 0.505242 -3.96595 0
M  V30 6204 H 584.856 1.54397 -3.94889 0
M  V30 6205 C 583.315 2.15153 -2.5925 0
M  V30 6206 O 583.845 3.23139 -2.3863 0
M  V30 6207 N 582.051 1.90898 -2.19103 0
M  V30 6208 H 581.598 1.03086 -2.36074 0
M  V30 6209 H 581.556 2.63485 -1.71531 0
M  V30 6210 N 585.328 1.53329 -0.364422 0
M  V30 6211 C 586.258 2.28627 0.474543 0
M  V30 6212 C 587.239 1.31009 1.08492 0
M  V30 6213 O 588.424 1.59878 1.10239 0
M  V30 6214 C 585.554 3.07465 1.61501 0
M  V30 6215 C 584.508 4.1276 1.13194 0
M  V30 6216 C 583.834 4.79674 2.36255 0
M  V30 6217 C 585.134 5.21847 0.217507 0
M  V30 6218 H 586.828 2.99005 -0.153656 0
M  V30 6219 H 584.374 1.43803 -0.0753406 0
M  V30 6220 H 586.327 3.58889 2.20855 0
M  V30 6221 H 585.051 2.34775 2.27042 0
M  V30 6222 H 583.71 3.62281 0.56109 0
M  V30 6223 H 583.358 4.03557 3.00251 0
M  V30 6224 H 583.058 5.50827 2.04606 0
M  V30 6225 H 584.582 5.33892 2.96297 0
M  V30 6226 H 585.996 5.6878 0.718493 0
M  V30 6227 H 584.393 6.00099 -0.00806408 0
M  V30 6228 H 585.463 4.7921 -0.740653 0
M  V30 6229 N 586.806 0.0935595 1.57322 0
M  V30 6230 C 588.031 -0.582324 1.99057 0
M  V30 6231 C 588.456 -1.61025 0.972242 0
M  V30 6232 O 587.814 -1.81202 -0.0594622 0
M  V30 6233 C 587.862 -1.20799 3.39765 0
M  V30 6234 O 586.966 -2.32382 3.40694 0
M  V30 6235 H 586.307 -0.147884 0.647323 0
M  V30 6236 H 588.837 0.174516 2.03854 0
M  V30 6237 H 588.847 -1.54966 3.77425 0
M  V30 6238 H 587.522 -0.454914 4.13405 0
M  V30 6239 H 586.099 -1.99845 3.14827 0
M  V30 6240 N 588.284 -1.56567 -0.180126 0
M  V30 6241 C 589.561 -1.7235 -0.924931 0
M  V30 6242 C 589.941 -0.652523 -2.00762 0
M  V30 6243 O 589.289 0.334115 -2.26044 0
M  V30 6244 C 589.499 -3.1523 -1.49771 0
M  V30 6245 C 590.847 -3.75921 -1.97405 0
M  V30 6246 O 591.871 -3.18452 -1.59583 0
M  V30 6247 O 590.73 -4.7681 -2.67048 0
M  V30 6248 H 587.824 -0.703502 -0.434758 0
M  V30 6249 H 590.37 -1.6886 -0.168647 0
M  V30 6250 H 589.142 -3.84656 -0.718027 0
M  V30 6251 H 588.765 -3.23009 -2.31842 0
M  V30 6252 N 589.762 0.448376 -1.51087 0
M  V30 6253 C 591.009 1.19872 -1.63209 0
M  V30 6254 C 591.337 1.91451 -0.343062 0
M  V30 6255 O 590.592 1.83789 0.672321 0
M  V30 6256 C 590.891 2.24866 -2.77795 0
M  V30 6257 C 590.557 1.70378 -4.17471 0
M  V30 6258 C 589.219 1.55241 -4.55471 0
M  V30 6259 C 591.571 1.30203 -5.04675 0
M  V30 6260 C 588.899 0.983844 -5.78392 0
M  V30 6261 C 591.251 0.747798 -6.28165 0
M  V30 6262 C 589.915 0.583233 -6.64947 0
M  V30 6263 H 589.185 0.438642 -0.597222 0
M  V30 6264 H 591.832 0.49136 -1.85089 0
M  V30 6265 H 590.137 3.01598 -2.50092 0
M  V30 6266 H 591.834 2.82723 -2.84374 0
M  V30 6267 H 588.424 1.83134 -3.87505 0
M  V30 6268 H 592.608 1.40723 -4.75932 0
M  V30 6269 H 587.864 0.844007 -6.05546 0
M  V30 6270 H 592.038 0.427927 -6.95084 0
M  V30 6271 H 589.665 0.140532 -7.6007 0
M  V30 6272 N 591.24 1.41047 0.703093 0
M  V30 6273 C 592.486 1.40207 1.46526 0
M  V30 6274 C 592.819 0.00847763 1.94198 0
M  V30 6275 O 592.094 -0.962437 1.69019 0
M  V30 6276 C 592.377 2.40238 2.6825 0
M  V30 6277 C 592.23 3.88674 2.26391 0
M  V30 6278 C 593.549 2.37627 3.70434 0
M  V30 6279 H 590.668 0.510594 0.531472 0
M  V30 6280 H 593.31 1.72271 0.801422 0
M  V30 6281 H 591.46 2.13026 3.24888 0
M  V30 6282 H 593.132 4.2676 1.75138 0
M  V30 6283 H 591.375 4.03903 1.58255 0
M  V30 6284 H 592.046 4.542 3.13698 0
M  V30 6285 H 594.522 2.61759 3.23452 0
M  V30 6286 H 593.398 3.09645 4.53223 0
M  V30 6287 H 593.659 1.39223 4.19606 0
M  V30 6288 N 592.718 -0.936591 1.26751 0
M  V30 6289 C 593.966 -1.67998 1.12343 0
M  V30 6290 C 594.287 -1.92137 -0.332938 0
M  V30 6291 O 593.557 -1.52132 -1.23421 0
M  V30 6292 H 592.137 -0.622609 0.412756 0
M  V30 6293 H 594.799 -1.12509 1.59147 0
M  V30 6294 H 593.895 -2.65185 1.64571 0
M  V30 6295 N 594.196 -1.08629 -1.14182 0
M  V30 6296 C 595.143 -0.718299 -2.19338 0
M  V30 6297 C 596.113 0.296587 -1.63431 0
M  V30 6298 O 597.298 0.180079 -1.89948 0
M  V30 6299 C 594.438 -0.136203 -3.44831 0
M  V30 6300 C 593.551 -1.20414 -4.14879 0
M  V30 6301 C 592.686 -0.585666 -5.27962 0
M  V30 6302 C 591.725 -1.63548 -5.89846 0
M  V30 6303 N 590.862 -1.03864 -6.94375 0
M  V30 6304 H 595.702 -1.61932 -2.50164 0
M  V30 6305 H 593.239 -0.80919 -1.22844 0
M  V30 6306 H 595.197 0.219021 -4.16625 0
M  V30 6307 H 593.827 0.728121 -3.14481 0
M  V30 6308 H 592.879 -1.67676 -3.41451 0
M  V30 6309 H 594.191 -1.99959 -4.56966 0
M  V30 6310 H 593.345 -0.178818 -6.06436 0
M  V30 6311 H 592.084 0.24142 -4.87102 0
M  V30 6312 H 591.089 -2.05197 -5.10073 0
M  V30 6313 H 592.314 -2.46509 -6.3278 0
M  V30 6314 H 590.26 -0.232687 -6.55587 0
M  V30 6315 H 590.177 -1.77116 -7.3496 0
M  V30 6316 H 591.445 -0.657724 -7.7672 0
M  V30 6317 N 595.674 1.31259 -0.872281 0
M  V30 6318 C 596.923 1.95893 -0.480493 0
M  V30 6319 C 597.236 1.697 0.972688 0
M  V30 6320 O 598.442 2.28214 1.47073 0
M  V30 6321 C 596.898 3.50705 -0.808342 0
M  V30 6322 C 596.506 3.85735 -2.27844 0
M  V30 6323 C 598.25 4.21719 -0.485136 0
M  V30 6324 C 596.157 5.33668 -2.54858 0
M  V30 6325 H 595.087 0.733182 -0.175955 0
M  V30 6326 H 597.738 1.49396 -1.0655 0
M  V30 6327 H 596.12 3.95706 -0.152558 0
M  V30 6328 H 597.294 3.51686 -2.97748 0
M  V30 6329 H 595.609 3.27792 -2.56791 0
M  V30 6330 H 598.206 5.30559 -0.664166 0
M  V30 6331 H 598.549 4.12316 0.574592 0
M  V30 6332 H 599.082 3.82359 -1.09756 0
M  V30 6333 H 595.821 5.48109 -3.59523 0
M  V30 6334 H 595.341 5.69061 -1.8955 0
M  V30 6335 H 597.02 6.00958 -2.39706 0
M  V30 6336 N 597.152 0.631951 1.44375 0
M  V30 6337 C 598.082 -0.0593243 2.33425 0
M  V30 6338 C 599.063 -0.833964 1.48253 0
M  V30 6339 O 600.248 -0.799682 1.76971 0
M  V30 6340 C 597.378 -1.04096 3.31333 0
M  V30 6341 C 596.332 -0.377899 4.26328 0
M  V30 6342 C 595.658 -1.4695 5.14111 0
M  V30 6343 C 596.958 0.716371 5.17364 0
M  V30 6344 H 598.652 0.684287 2.91475 0
M  V30 6345 H 596.198 0.330518 1.40156 0
M  V30 6346 H 598.151 -1.53331 3.92514 0
M  V30 6347 H 596.875 -1.81547 2.71493 0
M  V30 6348 H 595.534 0.0938054 3.6648 0
M  V30 6349 H 595.182 -2.2349 4.50623 0
M  V30 6350 H 594.882 -1.03121 5.78481 0
M  V30 6351 H 596.406 -1.96363 5.78164 0
M  V30 6352 H 597.82 0.307089 5.72477 0
M  V30 6353 H 596.217 1.07784 5.90341 0
M  V30 6354 H 597.287 1.58316 4.58327 0
M  V30 6355 N 598.631 -1.53133 0.372548 0
M  V30 6356 C 599.594 -2.24569 -0.458389 0
M  V30 6357 C 600.594 -1.25603 -1.00402 0
M  V30 6358 O 601.784 -1.49827 -0.888672 0
M  V30 6359 C 598.916 -2.98783 -1.6414 0
M  V30 6360 H 600.109 -2.99436 0.166799 0
M  V30 6361 H 597.662 -1.55805 0.124357 0
M  V30 6362 H 598.397 -2.28176 -2.30448 0
M  V30 6363 H 598.182 -3.71404 -1.25704 0
M  V30 6364 H 599.672 -3.53068 -2.23008 0
M  V30 6365 N 600.109 -0.101901 -1.5727 0
M  V30 6366 C 601.072 0.840129 -2.13247 0
M  V30 6367 C 602.072 1.20625 -1.06331 0
M  V30 6368 O 603.262 1.13456 -1.32186 0
M  V30 6369 C 600.394 2.13372 -2.65867 0
M  V30 6370 H 601.587 0.353945 -2.97804 0
M  V30 6371 H 599.14 0.147167 -1.55606 0
M  V30 6372 H 599.875 2.66461 -1.84849 0
M  V30 6373 H 599.66 1.88085 -3.44044 0
M  V30 6374 H 601.15 2.80748 -3.09145 0
M  V30 6375 N 601.587 1.56661 0.17182 0
M  V30 6376 C 602.517 1.99401 1.21498 0
M  V30 6377 C 603.498 0.869516 1.46197 0
M  V30 6378 O 604.683 1.13556 1.57539 0
M  V30 6379 C 601.813 2.35346 2.55401 0
M  V30 6380 C 600.767 3.5075 2.45272 0
M  V30 6381 C 600.093 3.72437 3.8366 0
M  V30 6382 C 601.393 4.84216 1.95787 0
M  V30 6383 H 603.087 2.86792 0.859699 0
M  V30 6384 H 600.633 1.37977 0.412103 0
M  V30 6385 H 602.586 2.63843 3.2858 0
M  V30 6386 H 601.31 1.44864 2.92715 0
M  V30 6387 H 599.969 3.2238 1.74547 0
M  V30 6388 H 599.617 2.79246 4.18367 0
M  V30 6389 H 599.317 4.50087 3.77751 0
M  V30 6390 H 600.841 4.03334 4.58426 0
M  V30 6391 H 602.255 5.11592 2.5874 0
M  V30 6392 H 600.652 5.65498 2.00827 0
M  V30 6393 H 601.722 4.76243 0.912159 0
M  V30 6394 N 603.065 -0.440357 1.51323 0
M  V30 6395 C 604.476 -1.02032 1.56353 0
M  V30 6396 C 604.827 -1.92382 0.385197 0
M  V30 6397 O 603.952 -2.10583 -0.498373 0
M  V30 6398 C 604.547 -1.85723 2.83359 0
M  V30 6399 C 603.106 -2.38774 2.90971 0
M  V30 6400 C 602.253 -1.17908 2.50984 0
M  V30 6401 H 605.204 -0.221744 1.57143 0
M  V30 6402 H 605.225 -2.71141 2.66951 0
M  V30 6403 H 604.737 -1.19939 3.69102 0
M  V30 6404 H 602.838 -3.08021 2.09651 0
M  V30 6405 H 602.951 -2.71778 3.94555 0
M  V30 6406 H 601.315 -1.52347 2.04114 0
M  V30 6407 H 602.098 -0.537393 3.39068 0
M  V30 6408 N 604.543 -1.41418 -0.695603 0
M  V30 6409 C 605.789 -1.40982 -1.4578 0
M  V30 6410 C 606.122 -0.0187763 -1.94191 0
M  V30 6411 O 605.397 0.95346 -1.69527 0
M  V30 6412 C 605.68 -2.41657 -2.66972 0
M  V30 6413 C 605.533 -3.89869 -2.24327 0
M  V30 6414 C 606.852 -2.39589 -3.69168 0
M  V30 6415 H 603.971 -0.513405 -0.528757 0
M  V30 6416 H 606.613 -1.72693 -0.792275 0
M  V30 6417 H 604.763 -2.14746 -3.23754 0
M  V30 6418 H 606.435 -4.27683 -1.72872 0
M  V30 6419 H 604.678 -4.04737 -1.56111 0
M  V30 6420 H 605.349 -4.55857 -3.11285 0
M  V30 6421 H 607.825 -2.63471 -3.2206 0
M  V30 6422 H 606.701 -3.12044 -4.51575 0
M  V30 6423 H 606.962 -1.41447 -4.18862 0
M  V30 6424 N 606.021 0.929856 -1.27246 0
M  V30 6425 C 607.298 1.65544 -1.04186 0
M  V30 6426 C 607.678 2.06796 0.424097 0
M  V30 6427 O 607.026 1.80053 1.40688 0
M  V30 6428 C 607.236 2.85912 -2.00138 0
M  V30 6429 C 608.584 3.57305 -2.29387 0
M  V30 6430 O 609.608 2.96036 -1.98094 0
M  V30 6431 O 608.467 4.67688 -2.82719 0
M  V30 6432 H 605.561 0.725473 -0.397011 0
M  V30 6433 H 608.107 0.980583 -1.38501 0
M  V30 6434 H 606.879 2.52403 -2.99013 0
M  V30 6435 H 606.502 3.61118 -1.66371 0
M  V30 6436 N 607.499 1.09233 1.13605 0
M  V30 6437 C 608.745 0.838255 1.85324 0
M  V30 6438 C 609.1 -0.629314 1.81817 0
M  V30 6439 O 608.393 -1.45729 1.24393 0
M  V30 6440 C 608.587 1.305 3.32723 0
M  V30 6441 C 608.416 2.81641 3.50583 0
M  V30 6442 C 607.186 3.49494 3.64941 0
M  V30 6443 C 609.384 3.79789 3.46792 0
M  V30 6444 N 607.366 4.89082 3.71042 0
M  V30 6445 C 608.737 5.05319 3.59239 0
M  V30 6446 C 610.792 3.72673 3.30181 0
M  V30 6447 C 609.495 6.24574 3.56791 0
M  V30 6448 C 611.521 4.91413 3.29039 0
M  V30 6449 C 610.883 6.15785 3.42035 0
M  V30 6450 H 606.982 0.359572 0.69443 0
M  V30 6451 H 609.566 1.39232 1.36098 0
M  V30 6452 H 607.737 0.778411 3.8052 0
M  V30 6453 H 609.469 0.996465 3.92241 0
M  V30 6454 H 606.224 2.9992 3.66531 0
M  V30 6455 H 606.648 5.61787 3.77789 0
M  V30 6456 H 611.29 2.77444 3.19037 0
M  V30 6457 H 609.008 7.20105 3.66708 0
M  V30 6458 H 612.594 4.87604 3.17386 0
M  V30 6459 H 611.474 7.06126 3.41111 0
M  V30 6460 N 608.977 -1.30795 0.87923 0
M  V30 6461 C 610.393 -1.48981 0.57243 0
M  V30 6462 C 610.593 -1.80719 -0.891236 0
M  V30 6463 O 609.649 -1.89136 -1.67283 0
M  V30 6464 C 610.962 -2.61721 1.48063 0
M  V30 6465 C 612.51 -2.75603 1.48365 0
M  V30 6466 C 612.985 -3.91449 2.37763 0
M  V30 6467 N 614.476 -3.98751 2.35695 0
M  V30 6468 C 615.211 -4.87684 3.01583 0
M  V30 6469 N 614.707 -5.81454 3.76674 0
M  V30 6470 N 616.5 -4.81005 2.90844 0
M  V30 6471 H 608.651 -1.08465 1.82617 0
M  V30 6472 H 610.914 -0.536813 0.781368 0
M  V30 6473 H 610.62 -2.45073 2.52254 0
M  V30 6474 H 610.494 -3.58071 1.18596 0
M  V30 6475 H 612.881 -2.9166 0.44927 0
M  V30 6476 H 612.962 -1.79891 1.81859 0
M  V30 6477 H 612.606 -3.76149 3.41283 0
M  V30 6478 H 612.536 -4.86487 2.01589 0
M  V30 6479 H 615.027 -3.31668 1.81121 0
M  V30 6480 H 615.34 -6.46063 4.24054 0
M  V30 6481 H 613.685 -5.81403 3.80782 0
M  V30 6482 H 616.876 -4.06728 2.31711 0
M  V30 6483 H 617.049 -5.50107 3.42471 0
M  V30 6484 N 610.455 -0.639598 -1.44038 0
M  V30 6485 C 611.703 -0.147188 -2.01563 0
M  V30 6486 C 612.024 1.2384 -1.50628 0
M  V30 6487 O 611.294 1.82452 -0.713316 0
M  V30 6488 H 609.874 -0.0514231 -0.745228 0
M  V30 6489 H 612.536 -0.828205 -1.76428 0
M  V30 6490 H 611.632 -0.121358 -3.11864 0
M  V30 6491 N 611.933 1.52934 -0.380664 0
M  V30 6492 C 613.161 2.05886 0.204599 0
M  V30 6493 C 613.576 1.25305 1.41223 0
M  V30 6494 O 612.933 0.297504 1.80059 0
M  V30 6495 C 612.984 3.56764 0.583249 0
M  V30 6496 O 612.705 4.34292 -0.576398 0
M  V30 6497 C 614.206 4.2603 1.2253 0
M  V30 6498 H 611.426 0.670193 0.0328991 0
M  V30 6499 H 613.97 1.97148 -0.543397 0
M  V30 6500 H 612.125 3.65603 1.28115 0
M  V30 6501 H 612.539 5.23819 -0.267119 0
M  V30 6502 H 614.013 5.32868 1.44068 0
M  V30 6503 H 614.49 3.80698 2.19011 0
M  V30 6504 H 615.096 4.21485 0.568407 0
M  V30 6505 N 613.412 0.11024 1.57214 0
M  V30 6506 C 614.362 -0.854147 2.11396 0
M  V30 6507 C 615.346 -1.23394 1.03261 0
M  V30 6508 O 616.538 -1.20649 1.2951 0
M  V30 6509 C 613.667 -2.10752 2.70995 0
M  V30 6510 C 612.753 -1.75249 3.86198 0
M  V30 6511 N 613.144 -1.10377 4.9361 0
M  V30 6512 C 611.442 -2.04763 3.96217 0
M  V30 6513 C 612.143 -0.938199 5.74084 0
M  V30 6514 N 611.119 -1.46039 5.23616 0
M  V30 6515 H 614.921 -0.348897 2.91822 0
M  V30 6516 H 612.435 -0.0925071 1.62136 0
M  V30 6517 H 614.432 -2.80801 3.0815 0
M  V30 6518 H 613.092 -2.61829 1.9203 0
M  V30 6519 H 614.103 -0.768785 5.12162 0
M  V30 6520 H 610.78 -2.57948 3.28282 0
M  V30 6521 H 612.17 -0.429678 6.70525 0
M  V30 6522 N 614.89 -1.56749 -0.16351 0
M  V30 6523 C 615.82 -2.00042 -1.20438 0
M  V30 6524 C 616.801 -0.877256 -1.45733 0
M  V30 6525 O 617.986 -1.1439 -1.56935 0
M  V30 6526 C 615.116 -2.36697 -2.54149 0
M  V30 6527 C 614.07 -3.52046 -2.43408 0
M  V30 6528 C 613.396 -3.74466 -3.81679 0
M  V30 6529 C 614.696 -4.85247 -1.93216 0
M  V30 6530 H 616.39 -2.87244 -0.844477 0
M  V30 6531 H 613.936 -1.38194 -0.40478 0
M  V30 6532 H 615.889 -2.65582 -3.27176 0
M  V30 6533 H 614.613 -1.46414 -2.91943 0
M  V30 6534 H 613.272 -3.23301 -1.72834 0
M  V30 6535 H 612.92 -2.81461 -4.1688 0
M  V30 6536 H 612.62 -4.52084 -3.75359 0
M  V30 6537 H 614.144 -4.0576 -4.5628 0
M  V30 6538 H 615.558 -5.12957 -2.56023 0
M  V30 6539 H 613.955 -5.66556 -1.97825 0
M  V30 6540 H 615.025 -4.7672 -0.88689 0
M  V30 6541 N 616.368 0.432326 -1.51554 0
M  V30 6542 C 617.298 1.53242 -1.76179 0
M  V30 6543 C 618.279 1.58717 -0.611801 0
M  V30 6544 O 619.464 1.74364 -0.855033 0
M  V30 6545 C 616.594 2.91278 -1.89141 0
M  V30 6546 C 615.548 3.00663 -3.04608 0
M  V30 6547 C 614.874 4.40728 -3.02759 0
M  V30 6548 C 616.174 2.74281 -4.44485 0
M  V30 6549 H 617.868 1.32886 -2.68294 0
M  V30 6550 H 615.414 0.637841 -1.29103 0
M  V30 6551 H 617.367 3.68203 -2.04951 0
M  V30 6552 H 616.091 3.12877 -0.936785 0
M  V30 6553 H 614.75 2.26179 -2.88511 0
M  V30 6554 H 614.398 4.59301 -2.05065 0
M  V30 6555 H 614.098 4.47936 -3.80299 0
M  V30 6556 H 615.622 5.19619 -3.20669 0
M  V30 6557 H 617.036 3.40936 -4.60907 0
M  V30 6558 H 615.433 2.92893 -5.23769 0
M  V30 6559 H 616.503 1.69856 -4.54177 0
M  V30 6560 N 617.846 1.41785 0.688094 0
M  V30 6561 C 618.809 1.43936 1.78368 0
M  V30 6562 C 619.809 0.328866 1.57401 0
M  V30 6563 O 620.999 0.589093 1.63937 0
M  V30 6564 C 618.131 1.25804 3.16838 0
M  V30 6565 H 619.324 2.41472 1.77852 0
M  V30 6566 H 616.877 1.28037 0.896448 0
M  V30 6567 H 617.612 0.291386 3.22988 0
M  V30 6568 H 617.397 2.06272 3.33458 0
M  V30 6569 H 618.887 1.30162 3.96797 0
M  V30 6570 N 619.324 -0.923095 1.27737 0
M  V30 6571 C 620.564 -1.6858 1.15586 0
M  V30 6572 C 620.928 -1.89758 -0.292562 0
M  V30 6573 O 622.129 -2.6339 -0.536583 0
M  V30 6574 C 620.4 -3.01275 1.92271 0
M  V30 6575 S 621.959 -3.924 1.96387 0
M  V30 6576 H 618.777 -0.579069 0.412554 0
M  V30 6577 H 621.379 -1.09866 1.61709 0
M  V30 6578 H 620.083 -2.83556 2.96689 0
M  V30 6579 H 619.614 -3.6504 1.46661 0
M  V30 6580 H 621.629 -4.84667 1.06361 0
M  V30 6581 N 620.802 -1.09834 -1.13024 0
M  V30 6582 C 622.027 -0.85909 -1.88771 0
M  V30 6583 C 622.452 0.584402 -1.78791 0
M  V30 6584 O 621.81 1.41101 -1.13842 0
M  V30 6585 C 621.858 -1.30427 -3.36186 0
M  V30 6586 O 620.962 -0.465368 -4.09766 0
M  V30 6587 H 620.303 -0.310786 -0.586778 0
M  V30 6588 H 622.833 -1.46355 -1.42973 0
M  V30 6589 H 622.843 -1.2915 -3.8702 0
M  V30 6590 H 621.518 -2.3555 -3.42767 0
M  V30 6591 H 620.095 -0.542814 -3.68928 0
M  V30 6592 N 622.28 1.30327 -0.886154 0
M  V30 6593 C 623.52 1.97886 -0.511912 0
M  V30 6594 C 623.884 1.68417 0.921944 0
M  V30 6595 O 625.085 2.29319 1.40237 0
M  V30 6596 C 623.356 3.48775 -0.780444 0
M  V30 6597 S 624.915 4.35844 -0.508482 0
M  V30 6598 H 621.733 0.685024 -0.190428 0
M  V30 6599 H 624.335 1.58413 -1.14567 0
M  V30 6600 H 623.039 3.67714 -1.82248 0
M  V30 6601 H 622.57 3.93171 -0.134284 0
M  V30 6602 H 624.585 4.91893 0.65239 0
M  V30 6603 N 623.758 0.647228 1.43697 0
M  V30 6604 C 624.688 -0.0345631 2.33474 0
M  V30 6605 C 625.669 -0.818193 1.4913 0
M  V30 6606 O 626.854 -0.780867 1.77809 0
M  V30 6607 C 623.984 -1.00576 3.32418 0
M  V30 6608 C 622.938 -0.33266 4.26705 0
M  V30 6609 C 622.264 -1.41489 5.1564 0
M  V30 6610 C 623.564 0.771204 5.16575 0
M  V30 6611 H 625.258 0.715163 2.90733 0
M  V30 6612 H 622.804 0.345364 1.39797 0
M  V30 6613 H 624.757 -1.49159 3.94119 0
M  V30 6614 H 623.481 -1.78657 2.73403 0
M  V30 6615 H 622.14 0.13267 3.6636 0
M  V30 6616 H 621.788 -2.18698 4.52968 0
M  V30 6617 H 621.488 -0.969799 5.79542 0
M  V30 6618 H 623.012 -1.9022 5.80214 0
M  V30 6619 H 624.426 0.36779 5.72119 0
M  V30 6620 H 622.823 1.1404 5.89165 0
M  V30 6621 H 623.893 1.63169 4.56622 0
M  V30 6622 N 625.236 -1.5273 0.388769 0
M  V30 6623 C 626.652 -1.59553 0.0387049 0
M  V30 6624 C 626.852 -1.40278 -1.44652 0
M  V30 6625 O 625.908 -1.21951 -2.21098 0
M  V30 6626 C 627.221 -2.9625 0.515409 0
M  V30 6627 C 628.769 -3.09426 0.471621 0
M  V30 6628 C 629.244 -4.48572 0.924505 0
M  V30 6629 N 630.735 -4.54754 0.880496 0
M  V30 6630 C 631.47 -5.60653 1.20234 0
M  V30 6631 N 630.966 -6.74198 1.59463 0
M  V30 6632 N 632.759 -5.50755 1.12363 0
M  V30 6633 H 624.91 -1.63508 1.35569 0
M  V30 6634 H 627.173 -0.768097 0.555636 0
M  V30 6635 H 626.879 -3.15569 1.5527 0
M  V30 6636 H 626.753 -3.77102 -0.085792 0
M  V30 6637 H 629.14 -2.89804 -0.556588 0
M  V30 6638 H 629.221 -2.30528 1.10862 0
M  V30 6639 H 628.865 -4.68936 1.95094 0
M  V30 6640 H 628.795 -5.25935 0.264524 0
M  V30 6641 H 631.286 -3.73237 0.591815 0
M  V30 6642 H 631.599 -7.5097 1.82385 0
M  V30 6643 H 629.944 -6.75531 1.63349 0
M  V30 6644 H 633.135 -4.6093 0.816169 0
M  V30 6645 H 633.308 -6.33184 1.37777 0
M  V30 6646 N 626.714 -0.118576 -1.57153 0
M  V30 6647 C 627.96 0.540326 -1.95469 0
M  V30 6648 C 628.293 1.66356 -1.00196 0
M  V30 6649 O 627.568 1.94461 -0.039104 0
M  V30 6650 C 627.851 1.07342 -3.43729 0
M  V30 6651 C 627.704 -0.0463732 -4.49776 0
M  V30 6652 C 629.023 1.96442 -3.93826 0
M  V30 6653 H 626.142 0.19494 -0.710751 0
M  V30 6654 H 628.784 -0.19405 -1.89006 0
M  V30 6655 H 626.934 1.69925 -3.49368 0
M  V30 6656 H 628.606 -0.681648 -4.56236 0
M  V30 6657 H 626.849 -0.709574 -4.27957 0
M  V30 6658 H 627.52 0.367856 -5.50773 0
M  V30 6659 H 629.996 1.43731 -3.90488 0
M  V30 6660 H 628.872 2.3066 -4.98084 0
M  V30 6661 H 629.133 2.89077 -3.34495 0
M  V30 6662 N 628.193 1.56834 0.155195 0
M  V30 6663 C 629.439 1.83169 0.870467 0
M  V30 6664 C 629.772 0.698929 1.81187 0
M  V30 6665 O 629.047 -0.298035 1.92203 0
M  V30 6666 C 629.33 3.19965 1.65211 0
M  V30 6667 C 629.183 4.43792 0.732744 0
M  V30 6668 C 630.502 3.53885 2.61636 0
M  V30 6669 H 627.621 0.666288 0.315006 0
M  V30 6670 H 630.263 1.89513 0.135988 0
M  V30 6671 H 628.413 3.14687 2.27825 0
M  V30 6672 H 630.085 4.61148 0.118236 0
M  V30 6673 H 628.328 4.3378 0.0417906 0
M  V30 6674 H 628.999 5.36095 1.31552 0
M  V30 6675 H 631.475 3.5972 2.09143 0
M  V30 6676 H 630.351 4.50648 3.13381 0
M  V30 6677 H 630.612 2.79418 3.42605 0
M  V30 6678 N 629.671 -0.424282 1.51781 0
M  V30 6679 C 630.918 -1.1726 1.65095 0
M  V30 6680 C 631.246 -1.90881 0.373477 0
M  V30 6681 O 630.501 -1.84835 -0.642997 0
M  V30 6682 C 630.8 -2.20418 2.81337 0
M  V30 6683 C 630.466 -1.63715 4.20129 0
M  V30 6684 C 629.128 -1.47975 4.57883 0
M  V30 6685 C 631.48 -1.22157 5.06682 0
M  V30 6686 C 628.808 -0.891703 5.79884 0
M  V30 6687 C 631.16 -0.647767 6.29275 0
M  V30 6688 C 629.824 -0.477371 6.65791 0
M  V30 6689 H 629.094 -0.429085 0.604125 0
M  V30 6690 H 631.741 -0.461852 1.85847 0
M  V30 6691 H 630.046 -2.97581 2.54859 0
M  V30 6692 H 631.743 -2.78163 2.88836 0
M  V30 6693 H 628.333 -1.76946 3.90369 0
M  V30 6694 H 632.517 -1.33133 4.7811 0
M  V30 6695 H 627.773 -0.747563 6.06813 0
M  V30 6696 H 631.947 -0.317291 6.95677 0
M  V30 6697 H 629.574 -0.0195936 7.60197 0
M  V30 6698 N 631.149 -1.42148 -0.680565 0
M  V30 6699 C 632.398 -1.41604 -1.43636 0
M  V30 6700 C 632.711 -0.0337887 -1.95571 0
M  V30 6701 O 633.917 0.0942588 -2.71336 0
M  V30 6702 C 632.373 -2.49056 -2.59806 0
M  V30 6703 C 631.981 -3.9326 -2.14594 0
M  V30 6704 C 633.725 -2.5767 -3.37352 0
M  V30 6705 C 631.632 -4.92232 -3.27813 0
M  V30 6706 H 630.562 -0.526656 -0.539583 0
M  V30 6707 H 633.213 -1.68033 -0.737369 0
M  V30 6708 H 631.595 -2.15782 -3.32045 0
M  V30 6709 H 632.769 -4.35858 -1.49546 0
M  V30 6710 H 631.084 -3.88443 -1.50002 0
M  V30 6711 H 633.681 -3.28794 -4.21662 0
M  V30 6712 H 634.024 -1.61837 -3.83555 0
M  V30 6713 H 634.557 -2.90109 -2.72179 0
M  V30 6714 H 631.296 -5.89522 -2.86607 0
M  V30 6715 H 630.816 -4.5427 -3.91661 0
M  V30 6716 H 632.495 -5.13684 -3.93367 0
M  V30 6717 N 632.627 0.916307 -1.28225 0
M  V30 6718 C 634.038 1.48024 -1.13779 0
M  V30 6719 C 634.389 1.94289 0.273139 0
M  V30 6720 O 633.514 1.82226 1.16716 0
M  V30 6721 C 634.109 2.69029 -2.05935 0
M  V30 6722 C 632.668 3.2161 -1.95561 0
M  V30 6723 C 631.815 1.94321 -1.97825 0
M  V30 6724 H 634.766 0.729272 -1.40951 0
M  V30 6725 H 634.787 3.44204 -1.62184 0
M  V30 6726 H 634.299 2.35325 -3.08616 0
M  V30 6727 H 632.4 3.60045 -0.959076 0
M  V30 6728 H 632.513 3.87032 -2.82388 0
M  V30 6729 H 630.877 2.1131 -1.42198 0
M  V30 6730 H 631.66 1.62917 -3.0218 0
M  V30 6731 N 634.105 1.10431 1.1244 0
M  V30 6732 C 635.035 0.775143 2.20258 0
M  V30 6733 C 636.016 -0.25186 1.68225 0
M  V30 6734 O 637.201 -0.117637 1.93843 0
M  V30 6735 C 634.331 0.206133 3.46688 0
M  V30 6736 C 633.285 1.16382 4.11873 0
M  V30 6737 C 632.611 0.456014 5.32752 0
M  V30 6738 C 633.911 2.5104 4.58013 0
M  V30 6739 H 635.605 1.67665 2.4805 0
M  V30 6740 H 633.151 0.807595 1.19222 0
M  V30 6741 H 635.104 -0.036291 4.21384 0
M  V30 6742 H 633.828 -0.730614 3.18323 0
M  V30 6743 H 632.487 1.39169 3.39157 0
M  V30 6744 H 632.135 -0.485203 5.00654 0
M  V30 6745 H 631.835 1.09466 5.77314 0
M  V30 6746 H 633.359 0.222135 6.10196 0
M  V30 6747 H 634.773 2.32401 5.24083 0
M  V30 6748 H 633.17 3.10789 5.13352 0
M  V30 6749 H 634.24 3.11039 3.71998 0
M  V30 6750 N 635.583 -1.29855 0.893053 0
M  V30 6751 C 636.83 -1.95826 0.515585 0
M  V30 6752 C 637.158 -1.70451 -0.936842 0
M  V30 6753 O 636.413 -1.00657 -1.67829 0
M  V30 6754 C 636.712 -3.49515 0.746588 0
M  V30 6755 C 636.378 -3.94955 2.17535 0
M  V30 6756 C 635.04 -4.07073 2.56603 0
M  V30 6757 C 637.392 -4.18536 3.10607 0
M  V30 6758 C 634.72 -4.40138 3.87938 0
M  V30 6759 C 637.072 -4.53073 4.41484 0
M  V30 6760 C 635.736 -4.634 4.80434 0
M  V30 6761 H 635.006 -0.71658 0.188666 0
M  V30 6762 H 637.653 -1.54574 1.13045 0
M  V30 6763 H 635.958 -3.9177 0.0487551 0
M  V30 6764 H 637.655 -3.98644 0.434009 0
M  V30 6765 H 634.245 -3.86035 1.86212 0
M  V30 6766 H 638.429 -4.08646 2.81641 0
M  V30 6767 H 633.685 -4.46335 4.17846 0
M  V30 6768 H 637.859 -4.70269 5.13634 0
M  V30 6769 H 635.486 -4.88775 5.82239 0
M  V30 6770 N 637.061 -0.65484 -1.43351 0
M  V30 6771 C 638.31 -0.166215 -2.01014 0
M  V30 6772 C 638.623 1.22764 -1.52278 0
M  V30 6773 O 639.829 1.81156 -2.02224 0
M  V30 6774 C 638.285 -0.246341 -3.59056 0
M  V30 6775 C 637.893 -1.64299 -4.16785 0
M  V30 6776 C 639.637 0.184597 -4.24098 0
M  V30 6777 C 637.544 -1.67695 -5.67126 0
M  V30 6778 H 636.474 -0.0583769 -0.751737 0
M  V30 6779 H 639.125 -0.817111 -1.64303 0
M  V30 6780 H 637.507 0.472092 -3.93176 0
M  V30 6781 H 638.681 -2.3869 -3.94162 0
M  V30 6782 H 636.996 -2.02004 -3.6412 0
M  V30 6783 H 639.593 0.179088 -5.344 0
M  V30 6784 H 639.936 1.21632 -3.98135 0
M  V30 6785 H 640.469 -0.482141 -3.94867 0
M  V30 6786 H 637.208 -2.68783 -5.9786 0
M  V30 6787 H 636.728 -0.976313 -5.91801 0
M  V30 6788 H 638.407 -1.42142 -6.31193 0
M  V30 6789 N 638.539 1.52521 -0.396863 0
M  V30 6790 C 639.469 2.29582 0.425941 0
M  V30 6791 C 640.45 1.33281 1.05689 0
M  V30 6792 O 641.635 1.62181 1.06823 0
M  V30 6793 C 638.765 3.10821 1.54943 0
M  V30 6794 C 637.719 4.15069 1.04413 0
M  V30 6795 C 637.045 4.84578 2.26028 0
M  V30 6796 C 638.345 5.22191 0.106767 0
M  V30 6797 H 640.039 2.98612 -0.217045 0
M  V30 6798 H 637.585 1.43611 -0.105826 0
M  V30 6799 H 639.538 3.63492 2.13193 0
M  V30 6800 H 638.262 2.39538 2.22011 0
M  V30 6801 H 636.921 3.63389 0.484118 0
M  V30 6802 H 636.569 4.09835 2.91623 0
M  V30 6803 H 636.269 5.55043 1.92876 0
M  V30 6804 H 637.793 5.40056 2.84906 0
M  V30 6805 H 639.207 5.70176 0.597685 0
M  V30 6806 H 637.604 5.99947 -0.135352 0
M  V30 6807 H 638.674 4.77531 -0.842134 0
M  V30 6808 N 640.017 0.126909 1.57088 0
M  V30 6809 C 641.257 -0.53216 1.97351 0
M  V30 6810 C 641.621 -1.63342 1.00913 0
M  V30 6811 O 642.822 -2.35194 1.30144 0
M  V30 6812 C 641.093 -1.04385 3.41817 0
M  V30 6813 S 642.652 -1.71033 4.04095 0
M  V30 6814 H 639.47 -0.172724 0.689701 0
M  V30 6815 H 642.072 0.213865 1.94327 0
M  V30 6816 H 640.776 -0.231289 4.09748 0
M  V30 6817 H 640.307 -1.82496 3.48509 0
M  V30 6818 H 642.322 -2.99656 3.95501 0
M  V30 6819 N 641.495 -1.56914 -0.146875 0
M  V30 6820 C 642.741 -1.83628 -0.860741 0
M  V30 6821 C 643.074 -0.708528 -1.80813 0
M  V30 6822 O 642.349 0.287838 -1.92358 0
M  V30 6823 C 642.632 -3.20836 -1.63511 0
M  V30 6824 C 642.485 -4.44174 -0.709199 0
M  V30 6825 C 643.804 -3.55268 -2.59756 0
M  V30 6826 H 640.923 -0.667949 -0.311468 0
M  V30 6827 H 643.565 -1.89582 -0.125936 0
M  V30 6828 H 641.715 -3.15891 -2.26153 0
M  V30 6829 H 643.387 -4.61205 -0.0937781 0
M  V30 6830 H 641.63 -4.33796 -0.0187856 0
M  V30 6831 H 642.301 -5.36785 -1.28707 0
M  V30 6832 H 644.777 -3.60824 -2.07232 0
M  V30 6833 H 643.653 -4.52303 -3.10987 0
M  V30 6834 H 643.914 -2.81231 -3.41118 0
M  V30 6835 N 642.974 0.416227 -1.52004 0
M  V30 6836 C 644.204 1.18401 -1.69307 0
M  V30 6837 C 644.612 1.84943 -0.399072 0
M  V30 6838 O 643.955 1.72406 0.634177 0
M  V30 6839 C 644.017 2.29465 -2.76742 0
M  V30 6840 C 643.681 1.83117 -4.18709 0
M  V30 6841 C 644.678 1.32286 -5.02789 0
M  V30 6842 C 642.363 1.90167 -4.64911 0
M  V30 6843 C 644.357 0.891178 -6.31139 0
M  V30 6844 C 642.044 1.4661 -5.93253 0
M  V30 6845 C 643.042 0.961696 -6.76196 0
M  V30 6846 O 642.73 0.532388 -8.02135 0
M  V30 6847 H 642.462 0.362098 -0.570843 0
M  V30 6848 H 645.016 0.496764 -1.99302 0
M  V30 6849 H 643.246 3.01531 -2.42107 0
M  V30 6850 H 644.935 2.91252 -2.82713 0
M  V30 6851 H 645.701 1.26218 -4.68288 0
M  V30 6852 H 641.58 2.28371 -4.00459 0
M  V30 6853 H 645.124 0.496788 -6.95829 0
M  V30 6854 H 641.021 1.52355 -6.27263 0
M  V30 6855 H 641.789 0.656339 -8.15864 0
M  V30 6856 N 644.452 1.42507 0.673017 0
M  V30 6857 C 645.863 1.38347 1.25367 0
M  V30 6858 C 646.214 0.0776327 1.96046 0
M  V30 6859 O 645.339 -0.823571 2.00116 0
M  V30 6860 C 645.934 2.506 2.28002 0
M  V30 6861 C 644.493 2.49767 2.81591 0
M  V30 6862 C 643.64 2.293 1.55938 0
M  V30 6863 H 646.591 1.51695 0.466288 0
M  V30 6864 H 646.612 2.20953 3.09774 0
M  V30 6865 H 646.124 3.45627 1.76532 0
M  V30 6866 H 644.225 1.58563 3.37177 0
M  V30 6867 H 644.338 3.46867 3.30485 0
M  V30 6868 H 642.702 1.77594 1.82572 0
M  V30 6869 H 643.485 3.26385 1.06431 0
M  V30 6870 N 645.93 -0.909495 1.28709 0
M  V30 6871 C 647.155 -1.69801 1.1909 0
M  V30 6872 C 647.58 -1.86479 -0.246388 0
M  V30 6873 O 646.938 -1.37802 -1.17815 0
M  V30 6874 C 646.986 -3.06543 1.89904 0
M  V30 6875 O 646.09 -3.94268 1.2094 0
M  V30 6876 H 645.431 -0.519783 0.413185 0
M  V30 6877 H 647.961 -1.13689 1.70106 0
M  V30 6878 H 647.971 -3.56748 1.97977 0
M  V30 6879 H 646.646 -2.93722 2.94449 0
M  V30 6880 H 645.223 -3.52702 1.2106 0
M  V30 6881 N 647.408 -1.11026 -1.11852 0
M  V30 6882 C 648.656 -0.854769 -1.83134 0
M  V30 6883 C 648.977 0.621375 -1.84835 0
M  V30 6884 O 648.247 1.45129 -1.31584 0
M  V30 6885 H 646.827 -0.313229 -0.678157 0
M  V30 6886 H 649.489 -1.40178 -1.35411 0
M  V30 6887 H 648.585 -1.22311 -2.87135 0
M  V30 6888 N 648.886 1.2938 -0.899927 0
M  V30 6889 C 649.819 2.25911 -0.322386 0
M  V30 6890 C 650.797 1.52447 0.565567 0
M  V30 6891 O 651.981 1.81404 0.512324 0
M  V30 6892 C 649.108 3.3436 0.540455 0
M  V30 6893 C 648.154 4.25579 -0.280211 0
M  V30 6894 S 648.987 5.08526 -1.67814 0
M  V30 6895 C 650.143 6.20476 -0.822224 0
M  V30 6896 H 650.376 2.7455 -1.1406 0
M  V30 6897 H 647.909 1.37606 -0.700285 0
M  V30 6898 H 649.867 3.97303 1.0325 0
M  V30 6899 H 648.528 2.84416 1.33291 0
M  V30 6900 H 647.721 5.02574 0.378915 0
M  V30 6901 H 647.323 3.67287 -0.705405 0
M  V30 6902 H 649.615 6.77485 -0.0457138 0
M  V30 6903 H 650.558 6.90606 -1.56426 0
M  V30 6904 H 650.966 5.63243 -0.37651 0
M  V30 6905 N 650.364 0.662433 1.43002 0
M  V30 6906 C 651.775 0.258315 1.84904 0
M  V30 6907 C 652.126 -1.19703 1.55453 0
M  V30 6908 O 651.251 -1.91484 1.00811 0
M  V30 6909 C 651.846 0.462047 3.35635 0
M  V30 6910 C 650.405 0.112165 3.76233 0
M  V30 6911 C 649.552 0.760479 2.66668 0
M  V30 6912 H 652.503 0.865467 1.33024 0
M  V30 6913 H 652.524 -0.289646 3.79396 0
M  V30 6914 H 652.036 1.52135 3.57039 0
M  V30 6915 H 650.137 -0.944179 3.60439 0
M  V30 6916 H 650.25 0.544058 4.76001 0
M  V30 6917 H 648.614 0.192887 2.53969 0
M  V30 6918 H 649.397 1.82299 2.90898 0
M  V30 6919 N 651.842 -1.52309 0.404946 0
M  V30 6920 C 652.805 -2.25491 -0.410651 0
M  V30 6921 C 653.805 -1.27704 -0.977154 0
M  V30 6922 O 654.995 -1.51679 -0.856691 0
M  V30 6923 C 652.127 -3.02197 -1.57765 0
M  V30 6924 H 653.32 -2.99015 0.230277 0
M  V30 6925 H 650.873 -1.55506 0.157377 0
M  V30 6926 H 651.608 -2.33013 -2.25556 0
M  V30 6927 H 651.393 -3.73987 -1.17797 0
M  V30 6928 H 652.883 -3.57719 -2.15469 0
M  V30 6929 N 653.32 -0.135238 -1.57019 0
M  V30 6930 C 654.25 0.805235 -2.19176 0
M  V30 6931 C 655.231 1.2656 -1.13651 0
M  V30 6932 O 656.416 1.32528 -1.4195 0
M  V30 6933 C 653.546 2.04914 -2.80406 0
M  V30 6934 C 652.5 1.72598 -3.91655 0
M  V30 6935 C 651.826 3.04154 -4.39766 0
M  V30 6936 C 653.126 0.981709 -5.12991 0
M  V30 6937 H 654.82 0.287232 -2.98019 0
M  V30 6938 H 652.366 0.136714 -1.4335 0
M  V30 6939 H 654.319 2.71178 -3.22553 0
M  V30 6940 H 653.043 2.59067 -1.98877 0
M  V30 6941 H 651.702 1.08717 -3.50109 0
M  V30 6942 H 651.35 3.56274 -3.55075 0
M  V30 6943 H 651.05 2.83299 -5.14796 0
M  V30 6944 H 652.574 3.71509 -4.84576 0
M  V30 6945 H 653.988 1.5462 -5.52056 0
M  V30 6946 H 652.385 0.873533 -5.93708 0
M  V30 6947 H 653.455 -0.0286887 -4.84892 0
M  V30 6948 N 654.798 1.5699 0.138552 0
M  V30 6949 C 656.214 1.51844 0.491472 0
M  V30 6950 C 656.414 0.845063 1.82923 0
M  V30 6951 O 655.47 0.419143 2.48997 0
M  V30 6952 C 656.783 2.96615 0.493987 0
M  V30 6953 C 658.331 3.076 0.578913 0
M  V30 6954 C 658.806 4.53893 0.612009 0
M  V30 6955 N 660.297 4.5827 0.673997 0
M  V30 6956 C 661.032 5.68852 0.720729 0
M  V30 6957 N 660.528 6.88982 0.726292 0
M  V30 6958 N 662.321 5.56908 0.762253 0
M  V30 6959 H 654.472 1.99158 -0.738228 0
M  V30 6960 H 656.735 0.908693 -0.270149 0
M  V30 6961 H 656.441 3.49172 -0.420933 0
M  V30 6962 H 656.315 3.53017 1.32887 0
M  V30 6963 H 658.702 2.55057 1.48425 0
M  V30 6964 H 658.783 2.54227 -0.283286 0
M  V30 6965 H 658.427 5.07076 -0.289208 0
M  V30 6966 H 658.357 5.05057 1.49082 0
M  V30 6967 H 660.848 3.71793 0.676654 0
M  V30 6968 H 661.161 7.69014 0.764032 0
M  V30 6969 H 659.506 6.91526 0.69403 0
M  V30 6970 H 662.697 4.61969 0.755135 0
M  V30 6971 H 662.87 6.43102 0.795207 0
M  V30 6972 N 656.276 -0.40816 1.52223 0
M  V30 6973 C 657.226 -1.49648 1.72016 0
M  V30 6974 C 658.21 -1.50311 0.574069 0
M  V30 6975 O 659.402 -1.56271 0.831173 0
M  V30 6976 C 656.531 -2.87566 1.87512 0
M  V30 6977 C 655.617 -2.91547 3.07995 0
M  V30 6978 N 656.008 -2.65225 4.30685 0
M  V30 6979 C 654.306 -3.22715 3.07849 0
M  V30 6980 C 655.007 -2.75799 5.12162 0
M  V30 6981 N 653.983 -3.08719 4.4743 0
M  V30 6982 H 657.785 -1.28093 2.64517 0
M  V30 6983 H 655.299 -0.61588 1.50269 0
M  V30 6984 H 657.296 -3.65899 1.99809 0
M  V30 6985 H 655.956 -3.10118 0.962114 0
M  V30 6986 H 656.967 -2.39601 4.59142 0
M  V30 6987 H 653.644 -3.50856 2.26289 0
M  V30 6988 H 655.034 -2.59155 6.1991 0
M  V30 6989 N 657.755 -1.42862 -0.66545 0
M  V30 6990 C 659.166 -1.3901 -1.24632 0
M  V30 6991 C 659.517 -0.0880285 -1.96002 0
M  V30 6992 O 658.642 0.812947 -2.0055 0
M  V30 6993 C 659.237 -2.51806 -2.2667 0
M  V30 6994 C 657.796 -2.51257 -2.80262 0
M  V30 6995 C 656.943 -2.30124 -1.5472 0
M  V30 6996 H 659.894 -1.5194 -0.458237 0
M  V30 6997 H 659.915 -2.22593 -3.08598 0
M  V30 6998 H 659.427 -3.46558 -1.74697 0
M  V30 6999 H 657.528 -1.60349 -3.36332 0
M  V30 7000 H 657.641 -3.48614 -3.28641 0
M  V30 7001 H 656.005 -1.7856 -1.81627 0
M  V30 7002 H 656.788 -3.26945 -1.04699 0
M  V30 7003 N 659.233 0.902656 -1.29189 0
M  V30 7004 C 660.196 1.98797 -1.14071 0
M  V30 7005 C 661.196 1.60615 -0.0770549 0
M  V30 7006 O 662.386 1.71165 -0.323753 0
M  V30 7007 C 659.518 3.32688 -0.743739 0
M  V30 7008 H 660.711 2.13637 -2.10473 0
M  V30 7009 H 658.264 1.08678 -1.12334 0
M  V30 7010 H 658.999 3.23549 0.220554 0
M  V30 7011 H 658.784 3.61765 -1.51223 0
M  V30 7012 H 660.274 4.12337 -0.660935 0
M  V30 7013 N 660.711 1.11618 1.11262 0
M  V30 7014 C 661.957 0.877377 1.83504 0
M  V30 7015 C 662.312 -0.590606 1.83111 0
M  V30 7016 O 661.605 -1.43057 1.27456 0
M  V30 7017 C 661.799 1.37529 3.2988 0
M  V30 7018 C 661.628 2.89014 3.4453 0
M  V30 7019 C 660.398 3.57157 3.57445 0
M  V30 7020 C 662.596 3.8706 3.38658 0
M  V30 7021 N 660.578 4.96842 3.60585 0
M  V30 7022 C 661.949 5.12825 3.4844 0
M  V30 7023 C 664.004 3.79593 3.22201 0
M  V30 7024 C 662.707 6.32002 3.43462 0
M  V30 7025 C 664.733 4.98282 3.18542 0
M  V30 7026 C 664.095 6.22901 3.28897 0
M  V30 7027 H 660.194 0.37422 0.686646 0
M  V30 7028 H 662.778 1.42087 1.33114 0
M  V30 7029 H 660.949 0.85895 3.78783 0
M  V30 7030 H 662.681 1.07944 3.90039 0
M  V30 7031 H 659.436 3.07628 3.60086 0
M  V30 7032 H 659.86 5.69674 3.65788 0
M  V30 7033 H 664.502 2.84149 3.1308 0
M  V30 7034 H 662.22 7.27721 3.51352 0
M  V30 7035 H 665.806 4.94226 3.06972 0
M  V30 7036 H 664.686 7.13202 3.26056 0
M  V30 7037 N 662.189 -1.289 0.906776 0
M  V30 7038 C 663.6 -1.77336 0.58384 0
M  V30 7039 C 663.951 -1.74304 -0.900697 0
M  V30 7040 O 663.076 -1.33335 -1.70443 0
M  V30 7041 C 663.671 -3.22019 1.05304 0
M  V30 7042 C 662.23 -3.68205 0.781148 0
M  V30 7043 C 661.377 -2.48837 1.22373 0
M  V30 7044 H 664.328 -1.15462 1.08877 0
M  V30 7045 H 664.349 -3.78481 0.391414 0
M  V30 7046 H 663.861 -3.24194 2.13353 0
M  V30 7047 H 661.962 -3.71497 -0.28643 0
M  V30 7048 H 662.075 -4.58675 1.384 0
M  V30 7049 H 660.439 -2.46461 0.642594 0
M  V30 7050 H 661.222 -2.53736 2.31242 0
M  V30 7051 N 663.667 -0.670007 -1.42649 0
M  V30 7052 C 664.907 -0.194106 -2.03476 0
M  V30 7053 C 665.271 1.1755 -1.51809 0
M  V30 7054 O 666.472 1.74579 -2.04391 0
M  V30 7055 C 664.743 -0.221828 -3.56711 0
M  V30 7056 S 666.302 0.183772 -4.38415 0
M  V30 7057 H 663.12 -0.0802478 -0.706457 0
M  V30 7058 H 665.722 -0.882092 -1.74469 0
M  V30 7059 H 664.426 -1.22107 -3.91814 0
M  V30 7060 H 663.957 0.486149 -3.90385 0
M  V30 7061 H 665.972 1.41839 -4.75496 0
M  V30 7062 N 665.145 1.52092 -0.413018 0
M  V30 7063 C 666.394 2.01041 0.16287 0
M  V30 7064 C 666.707 1.30288 1.45892 0
M  V30 7065 O 667.913 1.70075 2.11629 0
M  V30 7066 C 666.369 3.58283 0.340806 0
M  V30 7067 C 665.977 4.37955 -0.943377 0
M  V30 7068 C 667.721 4.15452 0.871774 0
M  V30 7069 C 665.628 5.86847 -0.732417 0
M  V30 7070 H 664.558 0.751224 0.0646414 0
M  V30 7071 H 667.209 1.75404 -0.539059 0
M  V30 7072 H 665.591 3.80266 1.10516 0
M  V30 7073 H 666.765 4.2773 -1.71418 0
M  V30 7074 H 665.08 3.92122 -1.40105 0
M  V30 7075 H 667.677 5.24375 1.0457 0
M  V30 7076 H 668.02 3.73057 1.84755 0
M  V30 7077 H 668.553 3.97452 0.166377 0
M  V30 7078 H 665.292 6.33609 -1.67986 0
M  V30 7079 H 664.812 5.998 -0.000980058 0
M  V30 7080 H 666.491 6.45906 -0.376105 0
M  V30 7081 N 666.623 0.143563 1.56945 0
M  V30 7082 C 667.87 -0.508407 1.96014 0
M  V30 7083 C 668.198 -1.65099 1.02824 0
M  V30 7084 O 667.453 -1.95618 0.0567764 0
M  V30 7085 C 667.752 -1.05885 3.41355 0
M  V30 7086 C 667.418 -0.0350809 4.50886 0
M  V30 7087 C 666.08 0.246362 4.80569 0
M  V30 7088 C 668.432 0.661282 5.16988 0
M  V30 7089 C 665.76 1.23003 5.73661 0
M  V30 7090 C 668.112 1.63375 6.11139 0
M  V30 7091 C 666.776 1.92292 6.39203 0
M  V30 7092 H 666.046 -0.186039 0.717266 0
M  V30 7093 H 668.693 0.229667 1.90118 0
M  V30 7094 H 666.998 -1.87419 3.44066 0
M  V30 7095 H 668.695 -1.57183 3.6891 0
M  V30 7096 H 665.285 -0.264622 4.27782 0
M  V30 7097 H 669.469 0.457038 4.94191 0
M  V30 7098 H 664.725 1.46056 5.93698 0
M  V30 7099 H 668.899 2.17887 6.61436 0
M  V30 7100 H 666.526 2.68666 7.11142 0
M  V30 7101 N 668.101 -1.57061 -0.130224 0
M  V30 7102 C 669.326 -1.88802 -0.858409 0
M  V30 7103 C 669.751 -0.734353 -1.73173 0
M  V30 7104 O 669.109 0.315529 -1.78533 0
M  V30 7105 C 669.157 -3.19228 -1.67708 0
M  V30 7106 O 668.261 -3.04343 -2.78297 0
M  V30 7107 H 667.602 -0.619849 -0.238083 0
M  V30 7108 H 670.132 -2.04271 -0.115995 0
M  V30 7109 H 670.142 -3.51669 -2.06864 0
M  V30 7110 H 668.817 -4.02793 -1.0359 0
M  V30 7111 H 667.394 -2.83346 -2.42425 0
M  V30 7112 N 669.579 0.400081 -1.52437 0
M  V30 7113 C 670.509 1.4947 -1.7939 0
M  V30 7114 C 671.49 1.57383 -0.645329 0
M  V30 7115 O 672.675 1.72511 -0.891826 0
M  V30 7116 C 669.805 2.87201 -1.95276 0
M  V30 7117 C 668.759 2.94134 -3.10917 0
M  V30 7118 C 668.085 4.34207 -3.1204 0
M  V30 7119 C 669.385 2.64791 -4.50203 0
M  V30 7120 H 671.079 1.27165 -2.71052 0
M  V30 7121 H 668.625 0.610312 -1.30427 0
M  V30 7122 H 670.578 3.63772 -2.12715 0
M  V30 7123 H 669.302 3.10819 -1.00294 0
M  V30 7124 H 667.961 2.20009 -2.93243 0
M  V30 7125 H 667.609 4.54848 -2.14761 0
M  V30 7126 H 667.309 4.39768 -3.89715 0
M  V30 7127 H 668.833 5.127 -3.31619 0
M  V30 7128 H 670.247 3.31083 -4.68035 0
M  V30 7129 H 668.644 2.81717 -5.29864 0
M  V30 7130 H 669.714 1.60184 -4.57678 0
M  V30 7131 N 671.057 1.43213 0.657864 0
M  V30 7132 C 671.987 1.50815 1.78262 0
M  V30 7133 C 672.968 0.363211 1.66177 0
M  V30 7134 O 674.153 0.579806 1.85343 0
M  V30 7135 C 671.283 1.42625 3.16663 0
M  V30 7136 C 670.237 2.5532 3.43505 0
M  V30 7137 C 669.563 2.32184 4.81658 0
M  V30 7138 C 670.863 3.97583 3.38711 0
M  V30 7139 H 672.557 2.44954 1.72157 0
M  V30 7140 H 670.103 1.17896 0.82683 0
M  V30 7141 H 672.056 1.46548 3.95097 0
M  V30 7142 H 670.78 0.449877 3.23487 0
M  V30 7143 H 669.439 2.50742 2.6744 0
M  V30 7144 H 669.087 1.32801 4.85153 0
M  V30 7145 H 668.787 3.07724 5.00579 0
M  V30 7146 H 670.311 2.37883 5.62356 0
M  V30 7147 H 671.725 4.03673 4.07089 0
M  V30 7148 H 670.122 4.73112 3.69168 0
M  V30 7149 H 671.192 4.23049 2.36976 0
M  V30 7150 N 672.536 -0.895792 1.29666 0
M  V30 7151 C 673.469 -2.00238 1.09453 0
M  V30 7152 C 674.447 -1.62599 0.00527044 0
M  V30 7153 O 675.631 -1.87847 0.156729 0
M  V30 7154 C 672.758 -3.32066 0.667054 0
M  V30 7155 C 671.804 -3.88691 1.7556 0
M  V30 7156 S 672.637 -4.17317 3.35569 0
M  V30 7157 C 673.793 -5.52181 2.94698 0
M  V30 7158 H 674.026 -2.17076 2.03138 0
M  V30 7159 H 671.559 -1.04287 1.13858 0
M  V30 7160 H 673.517 -4.08272 0.427136 0
M  V30 7161 H 672.178 -3.13101 -0.250256 0
M  V30 7162 H 671.371 -4.83918 1.40853 0
M  V30 7163 H 670.973 -3.19187 1.94924 0
M  V30 7164 H 673.265 -6.3281 2.41986 0
M  V30 7165 H 674.208 -5.91817 3.88791 0
M  V30 7166 H 674.616 -5.14225 2.32879 0
M  V30 7167 N 674.014 -1.12206 -1.10668 0
M  V30 7168 C 675.262 -0.874144 -1.82217 0
M  V30 7169 C 675.583 0.601736 -1.85484 0
M  V30 7170 O 674.853 1.43725 -1.33116 0
M  V30 7171 H 673.433 -0.320404 -0.674797 0
M  V30 7172 H 676.095 -1.41606 -1.33917 0
M  V30 7173 H 675.191 -1.25349 -2.85822 0
M  V30 7174 N 675.492 1.28418 -0.913599 0
M  V30 7175 C 676.741 1.94265 -0.542572 0
M  V30 7176 C 677.054 1.72709 0.918207 0
M  V30 7177 O 678.26 2.32778 1.39738 0
M  V30 7178 C 676.716 3.47956 -0.919507 0
M  V30 7179 C 676.324 3.78291 -2.4 0
M  V30 7180 C 678.068 4.19962 -0.619057 0
M  V30 7181 C 675.975 5.2529 -2.71707 0
M  V30 7182 H 674.905 0.727213 -0.199192 0
M  V30 7183 H 677.556 1.45931 -1.11249 0
M  V30 7184 H 675.938 3.9502 -0.278372 0
M  V30 7185 H 677.112 3.42035 -3.08786 0
M  V30 7186 H 675.427 3.19456 -2.67089 0
M  V30 7187 H 678.024 5.28178 -0.832623 0
M  V30 7188 H 678.367 4.13935 0.443126 0
M  V30 7189 H 678.9 3.78674 -1.21865 0
M  V30 7190 H 675.639 5.36394 -3.76778 0
M  V30 7191 H 675.159 5.62743 -2.07559 0
M  V30 7192 H 676.838 5.93027 -2.58703 0
M  V30 7193 N 676.97 0.677563 1.42291 0
M  V30 7194 C 678.195 0.207901 2.06355 0
M  V30 7195 C 678.62 -1.12723 1.50583 0
M  V30 7196 O 677.978 -1.70171 0.62543 0
M  V30 7197 C 678.026 0.156489 3.6026 0
M  V30 7198 O 677.13 -0.874162 4.03029 0
M  V30 7199 H 676.471 0.106056 0.655475 0
M  V30 7200 H 679.001 0.927354 1.82377 0
M  V30 7201 H 679.011 -0.0187258 4.07996 0
M  V30 7202 H 677.686 1.13101 4.00226 0
M  V30 7203 H 676.263 -0.669764 3.66836 0
M  V30 7204 N 678.448 -1.51871 0.421078 0
M  V30 7205 C 679.396 -2.28903 -0.413066 0
M  V30 7206 C 680.39 -1.3408 -1.03532 0
M  V30 7207 O 681.596 -1.5149 -0.972146 0
M  V30 7208 H 677.971 -0.736478 -0.152003 0
M  V30 7209 H 679.942 -2.97285 0.257695 0
M  V30 7210 C 678.691 -3.13156 -1.51091 0
M  V30 7211 H 678.014 -3.85997 -1.04145 0
M  V30 7212 H 679.454 -3.7014 -2.06814 0
M  V30 7213 C 677.913 -2.27482 -2.48503 0
M  V30 7214 O 678.443 -1.92325 -3.52667 0
M  V30 7215 N 676.649 -1.91019 -2.18998 0
M  V30 7216 H 676.196 -2.19808 -1.34322 0
M  V30 7217 H 676.154 -1.3399 -2.84419 0
M  V30 7218 N 679.926 -0.151884 -1.56866 0
M  V30 7219 C 681.174 0.497021 -1.95893 0
M  V30 7220 C 681.495 1.65078 -1.03799 0
M  V30 7221 O 680.765 1.95642 -0.10049 0
M  V30 7222 H 679.345 0.186603 -0.723318 0
M  V30 7223 H 682.007 -0.228525 -1.93556 0
M  V30 7224 H 681.103 0.869933 -2.99731 0
M  V30 7225 N 681.404 1.57128 0.121893 0
M  V30 7226 C 682.634 1.88609 0.843227 0
M  V30 7227 C 683.042 0.740917 1.74089 0
M  V30 7228 O 682.385 -0.297426 1.81276 0
M  V30 7229 C 682.447 3.15073 1.73117 0
M  V30 7230 C 682.111 4.45742 1.0081 0
M  V30 7231 C 683.108 5.18719 0.350255 0
M  V30 7232 C 680.793 4.92444 0.99014 0
M  V30 7233 C 682.787 6.36617 -0.315889 0
M  V30 7234 C 680.474 6.10261 0.320196 0
M  V30 7235 C 681.472 6.82194 -0.331666 0
M  V30 7236 O 681.16 7.97769 -0.990927 0
M  V30 7237 H 680.892 0.628919 0.247865 0
M  V30 7238 H 683.446 2.05096 0.111725 0
M  V30 7239 H 681.676 2.9466 2.50424 0
M  V30 7240 H 683.365 3.32597 2.32667 0
M  V30 7241 H 684.131 4.83693 0.35577 0
M  V30 7242 H 680.01 4.36361 1.48695 0
M  V30 7243 H 683.554 6.92701 -0.825272 0
M  V30 7244 H 679.451 6.44743 0.312433 0
M  V30 7245 H 680.219 8.13591 -0.895113 0
M  V30 7246 N 682.882 -0.391992 1.52647 0
M  V30 7247 C 684.129 -1.13732 1.67545 0
M  V30 7248 C 684.457 -1.90045 0.413881 0
M  V30 7249 O 683.712 -1.86157 -0.603646 0
M  V30 7250 C 684.011 -2.14401 2.85949 0
M  V30 7251 C 683.677 -1.54767 4.23507 0
M  V30 7252 C 682.339 -1.38229 4.60919 0
M  V30 7253 C 684.691 -1.11382 5.0916 0
M  V30 7254 C 682.019 -0.7685 5.81645 0
M  V30 7255 C 684.371 -0.514143 6.30507 0
M  V30 7256 C 683.035 -0.33604 6.66654 0
M  V30 7257 H 682.305 -0.416174 0.613091 0
M  V30 7258 H 684.952 -0.422327 1.86785 0
M  V30 7259 H 683.257 -2.92108 2.61114 0
M  V30 7260 H 684.954 -2.71974 2.94671 0
M  V30 7261 H 681.544 -1.68626 3.94035 0
M  V30 7262 H 685.728 -1.22962 4.80826 0
M  V30 7263 H 680.984 -0.618681 6.08262 0
M  V30 7264 H 685.158 -0.169657 6.96193 0
M  V30 7265 H 682.785 0.14166 7.60068 0
M  V30 7266 N 684.36 -1.4356 -0.65026 0
M  V30 7267 C 685.608 -1.45046 -1.40734 0
M  V30 7268 C 685.929 -0.0769822 -1.94848 0
M  V30 7269 O 685.199 0.888098 -1.74613 0
M  V30 7270 H 683.779 -0.534034 -0.522318 0
M  V30 7271 H 686.441 -1.79186 -0.766703 0
M  V30 7272 H 685.537 -2.16476 -2.24822 0
M  V30 7273 N 685.838 0.888903 -1.30139 0
M  V30 7274 C 687.063 1.67884 -1.21777 0
M  V30 7275 C 687.488 1.86848 0.216689 0
M  V30 7276 O 686.846 1.39659 1.15608 0
M  V30 7277 C 686.894 3.03483 -1.94757 0
M  V30 7278 O 685.998 3.92294 -1.27198 0
M  V30 7279 H 685.339 0.513144 -0.421402 0
M  V30 7280 H 687.869 1.10968 -1.71893 0
M  V30 7281 H 687.879 3.53553 -2.03627 0
M  V30 7282 H 686.554 2.89 -2.99085 0
M  V30 7283 H 685.131 3.50732 -1.26655 0
M  V30 7284 N 687.317 1.12792 1.10072 0
M  V30 7285 C 688.563 0.886857 1.82381 0
M  V30 7286 C 688.896 -0.58576 1.85155 0
M  V30 7287 O 688.171 -1.43317 1.31493 0
M  V30 7288 C 688.454 1.46703 3.28862 0
M  V30 7289 C 688.307 3.00829 3.34398 0
M  V30 7290 C 689.626 1.12971 4.25353 0
M  V30 7291 H 686.745 0.32362 0.662148 0
M  V30 7292 H 689.387 1.39513 1.28982 0
M  V30 7293 H 687.537 1.03476 3.74466 0
M  V30 7294 H 689.209 3.52764 2.97247 0
M  V30 7295 H 687.452 3.36164 2.74183 0
M  V30 7296 H 688.123 3.36519 4.3756 0
M  V30 7297 H 690.599 1.50313 3.88001 0
M  V30 7298 H 689.475 1.56223 5.26199 0
M  V30 7299 H 689.736 0.0424452 4.4208 0
M  V30 7300 N 688.795 -1.27931 0.920396 0
M  V30 7301 C 690.206 -1.76707 0.602616 0
M  V30 7302 C 690.557 -1.75249 -0.882159 0
M  V30 7303 O 689.682 -1.35135 -1.69019 0
M  V30 7304 C 690.277 -3.20884 1.08714 0
M  V30 7305 C 688.836 -3.67356 0.820157 0
M  V30 7306 C 687.983 -2.47525 1.25006 0
M  V30 7307 H 690.934 -1.14301 1.10095 0
M  V30 7308 H 690.955 -3.78045 0.431535 0
M  V30 7309 H 690.467 -3.21913 2.1678 0
M  V30 7310 H 688.568 -3.7178 -0.247012 0
M  V30 7311 H 688.681 -4.57181 1.43257 0
M  V30 7312 H 687.045 -2.45765 0.668698 0
M  V30 7313 H 687.828 -2.51269 2.3392 0
M  V30 7314 N 690.273 -0.685099 -1.4193 0
M  V30 7315 C 691.206 0.0371639 -2.2817 0
M  V30 7316 C 692.184 0.798436 -1.41647 0
M  V30 7317 O 693.368 0.791428 -1.71081 0
M  V30 7318 C 690.495 1.05993 -3.21688 0
M  V30 7319 C 689.541 0.393043 -4.24685 0
M  V30 7320 S 690.374 -0.856921 -5.28599 0
M  V30 7321 C 691.53 0.164508 -6.25684 0
M  V30 7322 H 691.763 -0.694305 -2.89079 0
M  V30 7323 H 689.296 -0.474999 -1.46912 0
M  V30 7324 H 691.254 1.64489 -3.76103 0
M  V30 7325 H 689.915 1.7639 -2.59895 0
M  V30 7326 H 689.108 1.16513 -4.90348 0
M  V30 7327 H 688.71 -0.118589 -3.73812 0
M  V30 7328 H 691.002 1.02106 -6.69762 0
M  V30 7329 H 691.945 -0.457917 -7.06618 0
M  V30 7330 H 692.353 0.514596 -5.6215 0
M  V30 7331 N 691.751 1.51645 -0.429126 0
M  V30 7332 C 693 2.01203 0.141538 0
M  V30 7333 C 693.313 1.31828 1.44502 0
M  V30 7334 O 694.519 1.7231 2.09813 0
M  V30 7335 C 692.975 3.58624 0.302786 0
M  V30 7336 C 692.583 4.3693 -0.989775 0
M  V30 7337 C 694.327 4.16353 0.827661 0
M  V30 7338 C 692.234 5.86037 -0.794619 0
M  V30 7339 H 691.164 0.751867 0.05667 0
M  V30 7340 H 693.815 1.74822 -0.557633 0
M  V30 7341 H 692.197 3.81417 1.06476 0
M  V30 7342 H 693.371 4.25887 -1.75945 0
M  V30 7343 H 691.686 3.90614 -1.44256 0
M  V30 7344 H 694.283 5.25455 0.990026 0
M  V30 7345 H 694.626 3.74995 1.80787 0
M  V30 7346 H 695.159 3.97606 0.124213 0
M  V30 7347 H 691.898 6.31792 -1.74697 0
M  V30 7348 H 691.418 5.99765 -0.0645968 0
M  V30 7349 H 693.097 6.45471 -0.444591 0
M  V30 7350 N 693.229 0.160201 1.56784 0
M  V30 7351 C 694.159 -0.770264 2.2043 0
M  V30 7352 C 695.14 -1.24736 1.15651 0
M  V30 7353 O 696.325 -1.30253 1.44041 0
M  V30 7354 C 693.455 -2.00427 2.83631 0
M  V30 7355 C 692.409 -1.66345 3.94352 0
M  V30 7356 C 691.735 -2.97119 4.4455 0
M  V30 7357 C 693.035 -0.899972 5.14488 0
M  V30 7358 H 694.729 -0.239783 2.98438 0
M  V30 7359 H 692.275 -0.113891 1.43549 0
M  V30 7360 H 694.228 -2.66012 3.26827 0
M  V30 7361 H 692.952 -2.5587 2.02973 0
M  V30 7362 H 691.611 -1.03133 3.51794 0
M  V30 7363 H 691.259 -3.5058 3.60698 0
M  V30 7364 H 690.959 -2.75073 5.19238 0
M  V30 7365 H 692.483 -3.63753 4.90425 0
M  V30 7366 H 693.897 -1.45818 5.54446 0
M  V30 7367 H 692.294 -0.778968 5.95023 0
M  V30 7368 H 693.364 0.105827 4.84785 0
M  V30 7369 N 694.707 -1.5719 -0.113559 0
M  V30 7370 C 695.67 -1.99796 -1.12314 0
M  V30 7371 C 696.67 -0.888847 -1.34001 0
M  V30 7372 O 697.86 -1.15476 -1.30426 0
M  V30 7373 C 694.992 -2.34279 -2.47641 0
M  V30 7374 H 696.185 -2.90193 -0.756825 0
M  V30 7375 H 693.738 -1.52144 -0.358029 0
M  V30 7376 H 694.473 -1.46778 -2.89183 0
M  V30 7377 H 694.258 -3.15175 -2.33253 0
M  V30 7378 H 695.748 -2.67963 -3.2029 0
M  V30 7379 N 696.185 0.383891 -1.52853 0
M  V30 7380 C 697.148 1.45197 -1.77343 0
M  V30 7381 C 698.148 1.47362 -0.643522 0
M  V30 7382 O 699.338 1.48443 -0.911613 0
M  V30 7383 C 696.47 2.8445 -1.87885 0
M  V30 7384 H 697.663 1.24764 -2.72716 0
M  V30 7385 H 695.216 0.615939 -1.43652 0
M  V30 7386 H 695.951 3.10222 -0.94515 0
M  V30 7387 H 695.736 2.8428 -2.70051 0
M  V30 7388 H 697.226 3.61832 -2.08488 0
M  V30 7389 N 697.663 1.43903 0.642637 0
M  V30 7390 C 698.911 1.45791 1.39962 0
M  V30 7391 C 699.232 0.0873144 1.94804 0
M  V30 7392 O 698.502 -0.878825 1.75081 0
M  V30 7393 H 697.082 0.536797 0.519479 0
M  V30 7394 H 699.744 1.7959 0.757189 0
M  V30 7395 H 698.84 2.17665 2.2367 0
M  V30 7396 N 699.141 -0.881989 1.30609 0
M  V30 7397 C 700.088 -1.98803 1.17244 0
M  V30 7398 C 701.058 -1.65987 0.0611905 0
M  V30 7399 O 702.243 -1.89385 0.231911 0
M  V30 7400 C 699.383 -3.33867 0.87333 0
M  V30 7401 C 698.496 -3.79354 2.06675 0
M  V30 7402 C 697.631 -5.03078 1.70547 0
M  V30 7403 C 696.67 -5.40981 2.86366 0
M  V30 7404 N 695.807 -6.55886 2.50514 0
M  V30 7405 H 700.647 -2.09566 2.11863 0
M  V30 7406 H 698.184 -1.02607 1.05405 0
M  V30 7407 H 700.142 -4.11612 0.680519 0
M  V30 7408 H 698.772 -3.2278 -0.0359983 0
M  V30 7409 H 697.824 -2.97492 2.37071 0
M  V30 7410 H 699.136 -4.03382 2.93401 0
M  V30 7411 H 698.29 -5.88457 1.47658 0
M  V30 7412 H 697.029 -4.80927 0.809947 0
M  V30 7413 H 696.034 -4.54127 3.09917 0
M  V30 7414 H 697.259 -5.65104 3.76609 0
M  V30 7415 H 695.205 -6.35306 1.63471 0
M  V30 7416 H 695.122 -6.79799 3.30771 0
M  V30 7417 H 696.39 -7.44489 2.30989 0
M  V30 7418 N 700.619 -1.13374 -1.09472 0
M  V30 7419 C 701.865 -0.896516 -1.81908 0
M  V30 7420 C 702.198 0.575933 -1.85463 0
M  V30 7421 O 701.473 1.42618 -1.32251 0
M  V30 7422 C 701.756 -1.48445 -3.28079 0
M  V30 7423 C 701.609 -3.02598 -3.32798 0
M  V30 7424 C 702.928 -1.15226 -4.24748 0
M  V30 7425 H 700.047 -0.327127 -0.660422 0
M  V30 7426 H 702.689 -1.40195 -1.2824 0
M  V30 7427 H 700.839 -1.0546 -3.73912 0
M  V30 7428 H 702.511 -3.54335 -2.95372 0
M  V30 7429 H 700.754 -3.37613 -2.72397 0
M  V30 7430 H 701.425 -3.38835 -4.3577 0
M  V30 7431 H 703.901 -1.52369 -3.87199 0
M  V30 7432 H 702.777 -1.59012 -5.25363 0
M  V30 7433 H 703.038 -0.0658891 -4.42051 0
M  V30 7434 N 702.098 1.27442 -0.927168 0
M  V30 7435 C 703.323 1.99036 -0.583042 0
M  V30 7436 C 703.748 1.68711 0.83176 0
M  V30 7437 O 703.106 0.927081 1.55804 0
M  V30 7438 C 703.154 3.51271 -0.814925 0
M  V30 7439 O 702.258 4.12226 0.119742 0
M  V30 7440 H 701.599 0.624883 -0.224538 0
M  V30 7441 H 704.129 1.62263 -1.24628 0
M  V30 7442 H 704.139 4.01411 -0.730282 0
M  V30 7443 H 702.814 3.72676 -1.84623 0
M  V30 7444 H 701.391 3.72897 -0.0147688 0
M  V30 7445 N 703.576 0.692616 1.41565 0
M  V30 7446 C 704.987 0.297478 1.84315 0
M  V30 7447 C 705.338 -1.16379 1.57957 0
M  V30 7448 O 704.463 -1.89303 1.0485 0
M  V30 7449 C 705.058 0.533136 3.34579 0
M  V30 7450 C 703.617 0.191944 3.7591 0
M  V30 7451 C 702.764 0.816873 2.64995 0
M  V30 7452 H 705.715 0.893488 1.31158 0
M  V30 7453 H 705.736 -0.209105 3.79925 0
M  V30 7454 H 705.248 1.59674 3.53731 0
M  V30 7455 H 703.349 -0.867512 3.6236 0
M  V30 7456 H 703.462 0.644902 4.7474 0
M  V30 7457 H 701.826 0.246715 2.53502 0
M  V30 7458 H 702.609 1.88429 2.86966 0
M  V30 7459 N 705.054 -1.51416 0.437162 0
M  V30 7460 C 706.001 -2.27743 -0.374374 0
M  V30 7461 C 706.971 -1.31327 -1.01698 0
M  V30 7462 O 708.156 -1.60229 -1.03592 0
M  V30 7463 C 705.296 -3.12241 -1.46969 0
M  V30 7464 C 704.409 -4.23651 -0.845236 0
M  V30 7465 C 703.544 -4.95458 -1.91559 0
M  V30 7466 C 702.583 -5.98789 -1.26956 0
M  V30 7467 N 701.72 -6.64005 -2.28126 0
M  V30 7468 H 706.56 -2.96654 0.282892 0
M  V30 7469 H 704.097 -1.46319 0.151352 0
M  V30 7470 H 706.055 -3.59556 -2.11602 0
M  V30 7471 H 704.685 -2.45445 -2.09659 0
M  V30 7472 H 703.737 -3.803 -0.0872059 0
M  V30 7473 H 705.049 -4.97683 -0.333582 0
M  V30 7474 H 704.203 -5.46321 -2.63854 0
M  V30 7475 H 702.942 -4.21055 -2.46097 0
M  V30 7476 H 701.947 -5.47219 -0.53207 0
M  V30 7477 H 703.172 -6.75149 -0.731509 0
M  V30 7478 H 701.118 -5.92415 -2.81745 0
M  V30 7479 H 701.035 -7.33802 -1.81852 0
M  V30 7480 H 702.303 -7.19498 -2.99905 0
M  V30 7481 N 706.532 -0.168513 -1.56696 0
M  V30 7482 C 707.464 0.794249 -2.14998 0
M  V30 7483 C 708.477 1.1957 -1.10485 0
M  V30 7484 O 709.666 1.13604 -1.37682 0
M  V30 7485 C 706.766 2.08018 -2.67547 0
M  V30 7486 C 705.939 1.84274 -3.96689 0
M  V30 7487 C 704.998 2.97059 -4.3433 0
M  V30 7488 O 704.024 2.67815 -5.02259 0
M  V30 7489 N 705.226 4.24775 -3.9566 0
M  V30 7490 H 707.991 0.295832 -2.98236 0
M  V30 7491 H 705.552 0.0143611 -1.61894 0
M  V30 7492 H 707.544 2.82559 -2.89729 0
M  V30 7493 H 706.114 2.49059 -1.88914 0
M  V30 7494 H 705.334 0.936528 -3.82914 0
M  V30 7495 H 706.622 1.65773 -4.81037 0
M  V30 7496 H 706.02 4.51395 -3.40968 0
M  V30 7497 H 704.577 4.96027 -4.22848 0
M  V30 7498 N 708.01 1.57248 0.105221 0
M  V30 7499 C 709.426 1.52853 0.459153 0
M  V30 7500 C 709.626 0.883674 1.8109 0
M  V30 7501 O 708.682 0.471864 2.48052 0
M  V30 7502 C 709.995 2.97596 0.43096 0
M  V30 7503 C 711.543 3.08758 0.513536 0
M  V30 7504 C 712.018 4.55089 0.515593 0
M  V30 7505 N 713.509 4.59597 0.576639 0
M  V30 7506 C 714.244 5.70253 0.599904 0
M  V30 7507 N 713.74 6.90368 0.579985 0
M  V30 7508 N 715.533 5.58399 0.643953 0
M  V30 7509 H 707.684 1.97547 -0.780306 0
M  V30 7510 H 709.947 0.902758 -0.289363 0
M  V30 7511 H 709.653 3.48201 -0.494903 0
M  V30 7512 H 709.527 3.55756 1.2537 0
M  V30 7513 H 711.914 2.58148 1.42982 0
M  V30 7514 H 711.995 2.53568 -0.337148 0
M  V30 7515 H 711.639 5.06348 -0.396701 0
M  V30 7516 H 711.569 5.08105 1.38335 0
M  V30 7517 H 714.06 3.73144 0.597639 0
M  V30 7518 H 714.373 7.70462 0.600741 0
M  V30 7519 H 712.718 6.92843 0.547191 0
M  V30 7520 H 715.909 4.63467 0.656975 0
M  V30 7521 H 716.082 6.44644 0.658616 0
M  V30 7522 N 709.488 -0.375779 1.53054 0
M  V30 7523 C 710.398 -1.48381 1.81715 0
M  V30 7524 C 711.414 -1.59087 0.704795 0
M  V30 7525 O 712.59 -1.75174 0.993785 0
M  V30 7526 C 709.655 -2.83767 1.99192 0
M  V30 7527 C 708.716 -2.82673 3.23102 0
M  V30 7528 C 707.949 -4.11601 3.39736 0
M  V30 7529 O 708.172 -5.07243 2.60885 0
M  V30 7530 O 707.106 -4.18034 4.33049 0
M  V30 7531 H 710.932 -1.27089 2.7583 0
M  V30 7532 H 708.517 -0.564902 1.38308 0
M  V30 7533 H 710.399 -3.64004 2.12318 0
M  V30 7534 H 709.074 -3.05057 1.08267 0
M  V30 7535 H 707.981 -2.0117 3.15407 0
M  V30 7536 H 709.314 -2.66335 4.13916 0
M  V30 7537 N 710.966 -1.44241 -0.634997 0
M  V30 7538 C 711.896 -1.53632 -1.7584 0
M  V30 7539 C 712.877 -0.389603 -1.65578 0
M  V30 7540 O 714.062 -0.609219 -1.84397 0
M  V30 7541 C 711.192 -1.47644 -3.14354 0
M  V30 7542 C 710.146 -2.60752 -3.394 0
M  V30 7543 C 709.472 -2.39817 -4.77904 0
M  V30 7544 C 710.772 -4.02921 -3.32343 0
M  V30 7545 H 712.466 -2.47662 -1.68238 0
M  V30 7546 H 710.012 -1.19197 -0.807969 0
M  V30 7547 H 711.965 -1.52815 -3.92716 0
M  V30 7548 H 710.689 -0.501284 -3.2273 0
M  V30 7549 H 709.348 -2.54965 -2.63417 0
M  V30 7550 H 708.996 -1.40502 -4.82978 0
M  V30 7551 H 708.696 -3.15649 -4.9562 0
M  V30 7552 H 710.22 -2.46799 -5.585 0
M  V30 7553 H 711.634 -4.10098 -4.00615 0
M  V30 7554 H 710.031 -4.78925 -3.61595 0
M  V30 7555 H 711.101 -4.26766 -2.30215 0
M  V30 7556 N 712.444 0.87505 -1.31075 0
M  V30 7557 C 713.407 1.96333 -1.18263 0
M  V30 7558 C 714.407 1.60416 -0.111106 0
M  V30 7559 O 715.597 1.7044 -0.359987 0
M  V30 7560 C 712.729 3.31036 -0.81414 0
M  V30 7561 H 713.922 2.09125 -2.14958 0
M  V30 7562 H 711.475 1.06271 -1.14614 0
M  V30 7563 H 712.21 3.23944 0.151875 0
M  V30 7564 H 711.995 3.58476 -1.58862 0
M  V30 7565 H 713.485 4.10842 -0.748249 0
M  V30 7566 N 713.922 1.13953 1.08869 0
M  V30 7567 C 715.17 0.903023 1.80803 0
M  V30 7568 C 715.491 -0.572151 1.86417 0
M  V30 7569 O 714.761 -1.41589 1.35386 0
M  V30 7570 H 713.341 0.331099 0.669614 0
M  V30 7571 H 716.003 1.43719 1.31647 0
M  V30 7572 H 715.099 1.29881 2.83791 0
M  V30 7573 N 715.4 -1.26948 0.933913 0
M  V30 7574 C 716.348 -2.2862 0.428463 0
M  V30 7575 C 717.342 -1.62144 -0.490464 0
M  V30 7576 O 718.548 -1.76167 -0.36948 0
M  V30 7577 H 714.923 -0.742363 0.120003 0
M  V30 7578 H 716.894 -2.68659 1.29865 0
M  V30 7579 C 715.643 -3.46423 -0.29774 0
M  V30 7580 H 714.966 -3.97792 0.400183 0
M  V30 7581 H 716.406 -4.19505 -0.615736 0
M  V30 7582 C 714.865 -3.01017 -1.51295 0
M  V30 7583 O 715.395 -3.05226 -2.61151 0
M  V30 7584 N 713.601 -2.56442 -1.36696 0
M  V30 7585 H 713.148 -2.53217 -0.473178 0
M  V30 7586 H 713.106 -2.26424 -2.18127 0
M  V30 7587 N 716.879 -0.700114 -1.41195 0
M  V30 7588 C 718.107 -0.242179 -2.05478 0
M  V30 7589 C 718.522 1.11029 -1.52702 0
M  V30 7590 O 717.879 1.69473 -0.677127 0
M  V30 7591 C 717.93 -0.196271 -3.60967 0
M  V30 7592 O 717.651 -1.49532 -4.11791 0
M  V30 7593 C 719.152 0.282102 -4.42401 0
M  V30 7594 H 716.372 -0.111749 -0.661629 0
M  V30 7595 H 718.916 -0.953975 -1.80885 0
M  V30 7596 H 717.071 0.46638 -3.84582 0
M  V30 7597 H 717.485 -1.38545 -5.05871 0
M  V30 7598 H 718.959 0.263093 -5.51373 0
M  V30 7599 H 719.436 1.32174 -4.1884 0
M  V30 7600 H 720.042 -0.349712 -4.2386 0
M  V30 7601 N 718.357 1.51182 -0.445186 0
M  V30 7602 C 719.29 2.24528 0.4077 0
M  V30 7603 C 720.268 1.26778 1.01814 0
M  V30 7604 O 721.452 1.55934 1.05909 0
M  V30 7605 C 718.579 3.00171 1.56892 0
M  V30 7606 C 717.625 4.12641 1.0784 0
M  V30 7607 S 718.458 5.35498 0.014049 0
M  V30 7608 C 719.614 6.14681 1.17975 0
M  V30 7609 H 719.847 2.96522 -0.214987 0
M  V30 7610 H 717.38 1.52681 -0.229781 0
M  V30 7611 H 719.338 3.44349 2.23459 0
M  V30 7612 H 717.999 2.27752 2.16304 0
M  V30 7613 H 717.192 4.64875 1.94698 0
M  V30 7614 H 716.794 3.70765 0.490852 0
M  V30 7615 H 719.086 6.44244 2.09658 0
M  V30 7616 H 720.029 7.04659 0.697222 0
M  V30 7617 H 720.437 5.46299 1.42187 0
M  V30 7618 N 719.835 0.176821 1.56605 0
M  V30 7619 C 721.063 -0.472828 2.01425 0
M  V30 7620 C 721.478 -1.56436 1.05703 0
M  V30 7621 O 720.835 -1.82405 0.058808 0
M  V30 7622 C 720.886 -1.04607 3.46034 0
M  V30 7623 O 720.607 0.00189608 4.381 0
M  V30 7624 C 722.108 -1.7734 4.06282 0
M  V30 7625 H 719.328 -0.120503 0.660091 0
M  V30 7626 H 721.872 0.280166 2.02572 0
M  V30 7627 H 720.027 -1.74953 3.45645 0
M  V30 7628 H 720.441 -0.422118 5.22799 0
M  V30 7629 H 721.915 -2.12703 5.09374 0
M  V30 7630 H 722.392 -2.67043 3.4869 0
M  V30 7631 H 722.998 -1.11623 4.10391 0
M  V30 7632 N 721.313 -1.57302 -0.09688 0
M  V30 7633 C 722.559 -1.86273 -0.801885 0
M  V30 7634 C 722.892 -0.765694 -1.78468 0
M  V30 7635 O 722.167 0.226495 -1.93177 0
M  V30 7636 C 722.45 -3.25876 -1.53221 0
M  V30 7637 C 722.303 -4.46205 -0.567529 0
M  V30 7638 C 723.622 -3.63352 -2.48321 0
M  V30 7639 H 720.741 -0.67752 -0.29006 0
M  V30 7640 H 723.383 -1.89887 -0.0655577 0
M  V30 7641 H 721.533 -3.22926 -2.15988 0
M  V30 7642 H 723.205 -4.6127 0.0529982 0
M  V30 7643 H 721.448 -4.33636 0.119233 0
M  V30 7644 H 722.119 -5.40608 -1.11564 0
M  V30 7645 H 724.595 -3.67234 -1.95648 0
M  V30 7646 H 723.471 -4.61968 -2.9644 0
M  V30 7647 H 723.732 -2.91941 -3.31998 0
M  V30 7648 N 722.791 0.367657 -1.53252 0
M  V30 7649 C 724.016 1.13566 -1.73544 0
M  V30 7650 C 724.441 1.82329 -0.462344 0
M  V30 7651 O 723.799 1.71655 0.583472 0
M  V30 7652 C 723.847 2.14322 -2.89997 0
M  V30 7653 O 722.951 3.21359 -2.58461 0
M  V30 7654 H 722.292 0.329614 -0.576412 0
M  V30 7655 H 724.822 0.425417 -2.00128 0
M  V30 7656 H 724.832 2.57958 -3.16104 0
M  V30 7657 H 723.507 1.63664 -3.82344 0
M  V30 7658 H 722.084 2.8271 -2.43165 0
M  V30 7659 N 724.269 1.44576 0.627338 0
M  V30 7660 C 725.499 1.50829 1.41189 0
M  V30 7661 C 725.907 0.133083 1.88731 0
M  V30 7662 O 725.25 -0.87199 1.61685 0
M  V30 7663 C 725.312 2.41449 2.66351 0
M  V30 7664 C 724.976 3.88549 2.40579 0
M  V30 7665 C 725.973 4.78981 2.0217 0
M  V30 7666 C 723.658 4.33287 2.54102 0
M  V30 7667 C 725.652 6.12153 1.77618 0
M  V30 7668 C 723.339 5.66505 2.29163 0
M  V30 7669 C 724.337 6.55756 1.9098 0
M  V30 7670 O 724.025 7.86506 1.66321 0
M  V30 7671 H 723.757 0.513797 0.439304 0
M  V30 7672 H 726.311 1.90256 0.774059 0
M  V30 7673 H 724.541 1.96955 3.32784 0
M  V30 7674 H 726.23 2.38608 3.28361 0
M  V30 7675 H 726.996 4.45689 1.91277 0
M  V30 7676 H 722.875 3.64074 2.82792 0
M  V30 7677 H 726.419 6.81776 1.47739 0
M  V30 7678 H 722.316 5.99358 2.39668 0
M  V30 7679 H 723.084 7.98341 1.80536 0
M  V30 7680 N 725.747 -0.868086 1.31537 0
M  V30 7681 C 726.68 -1.97871 1.13676 0
M  V30 7682 C 727.658 -1.62551 0.0397589 0
M  V30 7683 O 728.842 -1.87473 0.196539 0
M  V30 7684 C 725.969 -3.30577 0.73734 0
M  V30 7685 C 725.015 -3.8488 1.83765 0
M  V30 7686 S 725.848 -4.10106 3.44345 0
M  V30 7687 C 727.004 -5.45806 3.06344 0
M  V30 7688 H 727.237 -2.12719 2.07697 0
M  V30 7689 H 724.77 -1.01849 1.16044 0
M  V30 7690 H 726.728 -4.07274 0.513641 0
M  V30 7691 H 725.389 -3.13562 -0.183787 0
M  V30 7692 H 724.582 -4.80821 1.51085 0
M  V30 7693 H 724.184 -3.14981 2.01651 0
M  V30 7694 H 726.476 -6.27535 2.55354 0
M  V30 7695 H 727.419 -5.83437 4.01257 0
M  V30 7696 H 727.827 -5.0917 2.43734 0
M  V30 7697 N 727.225 -1.14528 -1.08264 0
M  V30 7698 C 728.45 -0.938381 -1.84957 0
M  V30 7699 C 728.875 0.508044 -1.81109 0
M  V30 7700 O 728.233 1.36146 -1.19724 0
M  V30 7701 C 728.281 -1.44568 -3.30352 0
M  V30 7702 O 727.385 -0.638745 -4.07423 0
M  V30 7703 H 726.726 -0.335394 -0.573068 0
M  V30 7704 H 729.256 -1.52287 -1.36637 0
M  V30 7705 H 729.266 -1.45449 -3.81194 0
M  V30 7706 H 727.941 -2.49876 -3.32468 0
M  V30 7707 H 726.518 -0.698801 -3.66294 0
M  V30 7708 N 728.703 1.26451 -0.940633 0
M  V30 7709 C 729.951 1.93395 -0.586748 0
M  V30 7710 C 730.272 1.7417 0.876921 0
M  V30 7711 O 729.542 1.097 1.62304 0
M  V30 7712 H 728.122 0.715687 -0.214012 0
M  V30 7713 H 730.784 1.53902 -1.19584 0
M  V30 7714 H 729.88 3.01565 -0.804059 0
M  V30 7715 N 730.181 0.707592 1.40822 0
M  V30 7716 C 731.111 0.0644925 2.33411 0
M  V30 7717 C 732.092 -0.754205 1.52466 0
M  V30 7718 O 733.277 -0.704749 1.80961 0
M  V30 7719 C 730.407 -0.863865 3.36385 0
M  V30 7720 C 729.361 -0.15138 4.27732 0
M  V30 7721 C 728.687 -1.19491 5.21177 0
M  V30 7722 C 729.987 0.989607 5.12839 0
M  V30 7723 H 731.681 0.837829 2.87438 0
M  V30 7724 H 729.227 0.404346 1.38207 0
M  V30 7725 H 731.18 -1.32309 4.0009 0
M  V30 7726 H 729.904 -1.66901 2.80734 0
M  V30 7727 H 728.563 0.287937 3.65467 0
M  V30 7728 H 728.211 -1.9929 4.61836 0
M  V30 7729 H 727.911 -0.723123 5.83134 0
M  V30 7730 H 729.435 -1.6544 5.8776 0
M  V30 7731 H 730.849 0.610114 5.70044 0
M  V30 7732 H 729.246 1.38926 5.83798 0
M  V30 7733 H 730.316 1.82389 4.49291 0
M  V30 7734 N 731.66 -1.50943 0.453197 0
M  V30 7735 C 732.888 -2.06628 -0.106135 0
M  V30 7736 C 733.303 -1.31901 -1.35084 0
M  V30 7737 O 732.66 -0.383074 -1.78434 0
M  V30 7738 C 732.711 -3.5914 -0.412368 0
M  V30 7739 O 732.432 -4.31047 0.782948 0
M  V30 7740 C 733.933 -4.31391 -1.02064 0
M  V30 7741 H 731.153 -0.670999 -0.000885896 0
M  V30 7742 H 733.697 -1.94331 0.63684 0
M  V30 7743 H 731.852 -3.71299 -1.10526 0
M  V30 7744 H 732.266 -5.21948 0.516736 0
M  V30 7745 H 733.74 -5.39135 -1.1848 0
M  V30 7746 H 734.217 -3.90714 -2.00598 0
M  V30 7747 H 734.823 -4.23716 -0.366664 0
M  V30 7748 N 733.138 -0.185124 -1.56509 0
M  V30 7749 C 734.068 0.735098 -2.21627 0
M  V30 7750 C 735.049 1.2288 -1.1762 0
M  V30 7751 O 736.234 1.27945 -1.46095 0
M  V30 7752 C 733.364 1.95889 -2.86783 0
M  V30 7753 C 732.318 1.6005 -3.96948 0
M  V30 7754 C 731.644 2.90009 -4.4922 0
M  V30 7755 C 732.944 0.818008 -5.15855 0
M  V30 7756 H 734.638 0.192274 -2.98782 0
M  V30 7757 H 732.184 0.0910393 -1.43712 0
M  V30 7758 H 734.137 2.60779 -3.31017 0
M  V30 7759 H 732.861 2.52608 -2.07018 0
M  V30 7760 H 731.52 0.975237 -3.5339 0
M  V30 7761 H 731.168 3.44797 -3.6623 0
M  V30 7762 H 730.868 2.66778 -5.23549 0
M  V30 7763 H 732.392 3.55904 -4.9615 0
M  V30 7764 H 733.806 1.36979 -5.56695 0
M  V30 7765 H 732.203 0.684207 -5.96187 0
M  V30 7766 H 733.273 -0.182939 -4.84555 0
M  V30 7767 N 734.616 1.57351 0.0885366 0
M  V30 7768 C 735.864 1.86051 0.789262 0
M  V30 7769 C 736.185 0.774763 1.78948 0
M  V30 7770 O 735.455 -0.198324 1.94894 0
M  V30 7771 H 734.035 0.686508 0.294475 0
M  V30 7772 H 736.697 1.94779 0.0686055 0
M  V30 7773 H 735.793 2.83007 1.31581 0
M  V30 7774 N 736.094 -0.359525 1.53444 0
M  V30 7775 C 737.319 -1.12644 1.74144 0
M  V30 7776 C 737.744 -1.82082 0.472007 0
M  V30 7777 O 737.102 -1.71962 -0.57436 0
M  V30 7778 C 737.15 -2.12781 2.9113 0
M  V30 7779 O 736.254 -3.19984 2.60162 0
M  V30 7780 H 735.595 -0.326553 0.578152 0
M  V30 7781 H 738.125 -0.414798 2.00351 0
M  V30 7782 H 738.135 -2.56278 3.17467 0
M  V30 7783 H 736.81 -1.61634 3.83207 0
M  V30 7784 H 735.387 -2.81417 2.44661 0
M  V30 7785 N 737.572 -1.44907 -0.619662 0
M  V30 7786 C 738.535 -1.52282 -1.71297 0
M  V30 7787 C 739.535 -0.40359 -1.55653 0
M  V30 7788 O 740.725 -0.666638 -1.6094 0
M  V30 7789 C 737.857 -1.40778 -3.10474 0
M  V30 7790 H 739.05 -2.49683 -1.66128 0
M  V30 7791 H 736.603 -1.32168 -0.834339 0
M  V30 7792 H 737.338 -0.445156 -3.2123 0
M  V30 7793 H 737.123 -2.21947 -3.23237 0
M  V30 7794 H 738.613 -1.48946 -3.90135 0
M  V30 7795 N 739.05 0.861098 -1.31996 0
M  V30 7796 C 740.296 1.61721 -1.22369 0
M  V30 7797 C 740.629 1.93 0.215587 0
M  V30 7798 O 739.904 1.56789 1.15098 0
M  V30 7799 C 740.187 2.9417 -2.07691 0
M  V30 7800 C 740.04 2.69714 -3.59965 0
M  V30 7801 C 741.359 3.95372 -1.93312 0
M  V30 7802 H 738.478 0.586822 -0.44588 0
M  V30 7803 H 741.12 0.994788 -1.61876 0
M  V30 7804 H 739.27 3.47292 -1.74128 0
M  V30 7805 H 740.942 2.23196 -4.03709 0
M  V30 7806 H 739.185 2.03789 -3.82952 0
M  V30 7807 H 739.856 3.63996 -4.14983 0
M  V30 7808 H 742.332 3.51487 -2.22701 0
M  V30 7809 H 741.208 4.85916 -2.55298 0
M  V30 7810 H 741.469 4.32865 -0.898922 0
M  V30 7811 N 740.528 1.15101 1.07655 0
M  V30 7812 C 741.491 0.847625 2.12951 0
M  V30 7813 C 742.491 -0.151227 1.60087 0
M  V30 7814 O 743.681 0.0780399 1.74025 0
M  V30 7815 C 740.813 0.265 3.39868 0
M  V30 7816 H 742.006 1.7809 2.41296 0
M  V30 7817 H 739.559 0.958072 1.23494 0
M  V30 7818 H 740.294 -0.676625 3.17163 0
M  V30 7819 H 740.079 0.984554 3.79538 0
M  V30 7820 H 741.569 0.0702121 4.17541 0
M  V30 7821 N 742.006 -1.2595 0.947325 0
M  V30 7822 C 743.236 -1.97258 0.614235 0
M  V30 7823 C 743.644 -1.70682 -0.816355 0
M  V30 7824 O 742.987 -0.97527 -1.55673 0
M  V30 7825 C 743.049 -3.50845 0.784081 0
M  V30 7826 C 742.713 -4.01084 2.19045 0
M  V30 7827 C 743.71 -4.12347 3.16648 0
M  V30 7828 C 741.395 -4.34936 2.51268 0
M  V30 7829 C 743.389 -4.56766 4.44572 0
M  V30 7830 C 741.076 -4.79043 3.79422 0
M  V30 7831 C 742.074 -4.89919 4.75887 0
M  V30 7832 O 741.762 -5.3305 6.01758 0
M  V30 7833 H 741.494 -0.635738 0.22981 0
M  V30 7834 H 744.048 -1.61268 1.27207 0
M  V30 7835 H 742.278 -3.86638 0.069101 0
M  V30 7836 H 743.967 -4.03363 0.453135 0
M  V30 7837 H 744.733 -3.86432 2.93079 0
M  V30 7838 H 740.612 -4.25702 1.76916 0
M  V30 7839 H 744.156 -4.6517 5.19868 0
M  V30 7840 H 740.053 -5.04402 4.02802 0
M  V30 7841 H 740.821 -5.51255 6.05029 0
M  V30 7842 N 743.484 -0.715051 -1.40445 0
M  V30 7843 C 744.724 -0.258742 -2.02756 0
M  V30 7844 C 745.088 1.12661 -1.55472 0
M  V30 7845 O 746.289 1.67988 -2.09842 0
M  V30 7846 C 744.56 -0.335201 -3.55825 0
M  V30 7847 S 746.119 0.044201 -4.38778 0
M  V30 7848 H 742.937 -0.102683 -0.703546 0
M  V30 7849 H 745.539 -0.937151 -1.71574 0
M  V30 7850 H 744.243 -1.34511 -3.87731 0
M  V30 7851 H 743.774 0.361705 -3.91734 0
M  V30 7852 H 745.789 1.26639 -4.79768 0
M  V30 7853 N 744.962 1.50701 -0.461195 0
M  V30 7854 C 746.19 2.06681 0.0951756 0
M  V30 7855 C 746.605 1.32615 1.34382 0
M  V30 7856 O 745.962 0.392531 1.78229 0
M  V30 7857 C 746.013 3.59354 0.393316 0
M  V30 7858 O 745.734 4.30626 -0.805797 0
M  V30 7859 C 747.235 4.31926 0.997744 0
M  V30 7860 H 744.455 0.670995 -0.00267259 0
M  V30 7861 H 746.999 1.93991 -0.647137 0
M  V30 7862 H 745.154 3.7188 1.08555 0
M  V30 7863 H 745.568 5.21667 -0.544409 0
M  V30 7864 H 747.042 5.39756 1.15619 0
M  V30 7865 H 747.519 3.91772 1.98523 0
M  V30 7866 H 748.125 4.23905 0.344188 0
M  V30 7867 N 746.441 0.193421 1.56409 0
M  V30 7868 C 747.671 -0.450783 2.01622 0
M  V30 7869 C 748.079 -1.5585 1.07273 0
M  V30 7870 O 747.422 -1.83569 0.0694875 0
M  V30 7871 C 747.484 -1.06913 3.43235 0
M  V30 7872 C 747.148 -0.100352 4.5689 0
M  V30 7873 C 748.145 0.689633 5.15306 0
M  V30 7874 C 745.83 0.0102436 5.02299 0
M  V30 7875 C 747.824 1.5772 6.17579 0
M  V30 7876 C 745.511 0.901368 6.04416 0
M  V30 7877 C 746.509 1.68341 6.61929 0
M  V30 7878 O 746.197 2.5596 7.62063 0
M  V30 7879 H 745.929 -0.117671 0.66568 0
M  V30 7880 H 748.483 0.2989 2.03214 0
M  V30 7881 H 746.713 -1.86736 3.38624 0
M  V30 7882 H 748.402 -1.61781 3.72266 0
M  V30 7883 H 749.168 0.614485 4.81092 0
M  V30 7884 H 745.047 -0.58829 4.57231 0
M  V30 7885 H 748.591 2.18805 6.62397 0
M  V30 7886 H 744.488 0.977637 6.38054 0
M  V30 7887 H 745.256 2.49721 7.79475 0
M  V30 7888 N 747.919 -1.57396 -0.0801906 0
M  V30 7889 C 749.144 -1.91437 -0.797909 0
M  V30 7890 C 749.569 -0.789075 -1.70749 0
M  V30 7891 O 748.927 0.25857 -1.79447 0
M  V30 7892 C 748.975 -3.24402 -1.57467 0
M  V30 7893 O 748.079 -3.13043 -2.68473 0
M  V30 7894 H 747.42 -0.627109 -0.218243 0
M  V30 7895 H 749.95 -2.04537 -0.050949 0
M  V30 7896 H 749.96 -3.58072 -1.95571 0
M  V30 7897 H 748.635 -4.05884 -0.907229 0
M  V30 7898 H 747.212 -2.90915 -2.33287 0
M  V30 7899 N 749.397 0.351382 -1.53633 0
M  V30 7900 C 750.327 1.43688 -1.84055 0
M  V30 7901 C 751.308 1.55251 -0.695073 0
M  V30 7902 O 752.493 1.69587 -0.946257 0
M  V30 7903 C 749.623 2.80843 -2.04315 0
M  V30 7904 C 748.577 2.84094 -3.20117 0
M  V30 7905 C 747.903 4.2406 -3.25696 0
M  V30 7906 C 749.203 2.50334 -4.58399 0
M  V30 7907 H 750.897 1.18478 -2.74961 0
M  V30 7908 H 748.443 0.568509 -1.32303 0
M  V30 7909 H 750.396 3.56821 -2.2418 0
M  V30 7910 H 749.12 3.07471 -1.10132 0
M  V30 7911 H 747.779 2.10568 -3.00094 0
M  V30 7912 H 747.427 4.47785 -2.29123 0
M  V30 7913 H 747.127 4.27147 -4.03509 0
M  V30 7914 H 748.651 5.0189 -3.47762 0
M  V30 7915 H 750.065 3.16025 -4.78332 0
M  V30 7916 H 748.462 2.64717 -5.38558 0
M  V30 7917 H 749.532 1.45542 -4.62543 0
M  V30 7918 N 750.875 1.45233 0.611969 0
M  V30 7919 C 752.103 1.52539 1.39784 0
M  V30 7920 C 752.518 0.156533 1.8815 0
M  V30 7921 O 751.875 -0.84112 1.61961 0
M  V30 7922 C 751.926 2.50614 2.60528 0
M  V30 7923 O 751.647 3.8218 2.14173 0
M  V30 7924 C 753.148 2.67574 3.53439 0
M  V30 7925 H 750.368 0.51674 0.428043 0
M  V30 7926 H 752.912 1.90379 0.746727 0
M  V30 7927 H 751.067 2.15858 3.2169 0
M  V30 7928 H 751.481 4.35305 2.92592 0
M  V30 7929 H 752.955 3.40184 4.34717 0
M  V30 7930 H 753.432 1.73458 4.03496 0
M  V30 7931 H 754.038 3.0331 2.98133 0
M  V30 7932 N 752.353 -0.854086 1.3245 0
M  V30 7933 C 753.769 -1.14238 1.11453 0
M  V30 7934 C 753.969 -2.01228 -0.10461 0
M  V30 7935 O 753.025 -2.39845 -0.789339 0
M  V30 7936 C 754.338 -1.81916 2.39431 0
M  V30 7937 C 755.886 -1.94549 2.45193 0
M  V30 7938 C 756.361 -2.65642 3.73093 0
M  V30 7939 N 757.852 -2.73167 3.74078 0
M  V30 7940 C 758.587 -3.28828 4.69744 0
M  V30 7941 N 758.083 -3.85295 5.75778 0
M  V30 7942 N 759.876 -3.26936 4.57241 0
M  V30 7943 H 752.027 -0.274786 2.10615 0
M  V30 7944 H 754.29 -0.184375 0.929898 0
M  V30 7945 H 753.996 -1.25452 3.28565 0
M  V30 7946 H 753.87 -2.82068 2.50434 0
M  V30 7947 H 756.257 -2.50172 1.56518 0
M  V30 7948 H 756.338 -0.933914 2.38142 0
M  V30 7949 H 755.982 -2.10683 4.62142 0
M  V30 7950 H 755.912 -3.6724 3.77415 0
M  V30 7951 H 758.403 -2.33108 2.97438 0
M  V30 7952 H 758.716 -4.25925 6.44832 0
M  V30 7953 H 757.061 -3.83625 5.79531 0
M  V30 7954 H 760.252 -2.8207 3.7357 0
M  V30 7955 H 760.425 -3.70014 5.31971 0
M  V30 7956 N 753.831 -1.1567 -1.07043 0
M  V30 7957 C 755.108 -0.843948 -1.76456 0
M  V30 7958 C 755.488 0.659806 -2.00524 0
M  V30 7959 O 754.836 1.60518 -1.62623 0
M  V30 7960 C 755.046 -1.65822 -3.0709 0
M  V30 7961 C 756.394 -1.8664 -3.8138 0
M  V30 7962 O 757.418 -1.62624 -3.1691 0
M  V30 7963 O 756.277 -2.26884 -4.97178 0
M  V30 7964 H 753.371 -0.310677 -0.766426 0
M  V30 7965 H 755.917 -1.26266 -1.1338 0
M  V30 7966 H 754.689 -2.67902 -2.85209 0
M  V30 7967 H 754.312 -1.23605 -3.77899 0
M  V30 7968 N 755.309 1.25446 -0.953992 0
M  V30 7969 C 756.272 2.24156 -0.478179 0
M  V30 7970 C 757.272 1.55278 0.417776 0
M  V30 7971 O 758.462 1.72866 0.215155 0
M  V30 7972 C 755.594 3.39495 0.309202 0
M  V30 7973 H 756.787 2.67764 -1.35064 0
M  V30 7974 H 754.34 1.37822 -0.737206 0
M  V30 7975 H 755.075 3.01307 1.19936 0
M  V30 7976 H 754.86 3.90679 -0.333562 0
M  V30 7977 H 756.35 4.12796 0.631594 0
M  V30 7978 N 756.787 0.722489 1.40064 0
M  V30 7979 C 757.737 0.0506801 2.27944 0
M  V30 7980 C 758.721 -0.725493 1.43615 0
M  V30 7981 O 759.913 -0.596559 1.66644 0
M  V30 7982 C 757.042 -0.865195 3.32219 0
M  V30 7983 C 756.128 -0.0838393 4.24017 0
M  V30 7984 N 756.519 0.936516 4.97054 0
M  V30 7985 C 754.817 -0.315371 4.44884 0
M  V30 7986 C 755.518 1.4066 5.64437 0
M  V30 7987 N 754.494 0.727485 5.3871 0
M  V30 7988 H 758.296 0.832609 2.8186 0
M  V30 7989 H 755.81 0.555691 1.52597 0
M  V30 7990 H 757.807 -1.36186 3.94029 0
M  V30 7991 H 756.467 -1.64642 2.79862 0
M  V30 7992 H 757.478 1.31755 5.0086 0
M  V30 7993 H 754.155 -1.07238 4.03492 0
M  V30 7994 H 755.545 2.25482 6.32936 0
M  V30 7995 N 758.265 -1.50454 0.469181 0
M  V30 7996 C 759.513 -2.01916 -0.0862982 0
M  V30 7997 C 759.834 -1.35337 -1.40388 0
M  V30 7998 O 759.104 -0.498096 -1.89462 0
M  V30 7999 H 757.684 -0.746185 -0.0348825 0
M  V30 8000 H 760.346 -1.84804 0.619167 0
M  V30 8001 H 759.442 -3.11182 -0.239189 0
M  V30 8002 N 759.743 -0.201713 -1.56304 0
M  V30 8003 C 760.968 0.443815 -2.02596 0
M  V30 8004 C 761.393 1.53945 -1.08086 0
M  V30 8005 O 760.751 1.81182 -0.0655056 0
M  V30 8006 C 760.799 0.971066 -3.47279 0
M  V30 8007 O 759.903 2.0836 -3.55893 0
M  V30 8008 H 759.244 0.10294 -0.655972 0
M  V30 8009 H 761.774 -0.314533 -2.02168 0
M  V30 8010 H 761.784 1.28598 -3.87204 0
M  V30 8011 H 760.459 0.169048 -4.15556 0
M  V30 8012 H 759.036 1.77683 -3.27846 0
M  V30 8013 N 761.222 1.57436 0.0718424 0
M  V30 8014 C 762.462 1.89082 0.776351 0
M  V30 8015 C 762.826 0.795494 1.74745 0
M  V30 8016 O 764.027 0.995025 2.49705 0
M  V30 8017 C 762.298 3.25958 1.46582 0
M  V30 8018 S 763.857 3.79352 2.2054 0
M  V30 8019 H 760.675 0.662472 0.25817 0
M  V30 8020 H 763.277 1.95473 0.0324536 0
M  V30 8021 H 761.981 4.03577 0.745237 0
M  V30 8022 H 761.512 3.22764 2.24915 0
M  V30 8023 H 763.527 3.54634 3.47058 0
M  V30 8024 N 762.7 -0.34323 1.53817 0
M  V30 8025 C 763.63 -1.42709 1.84814 0
M  V30 8026 C 764.611 -1.5488 0.703297 0
M  V30 8027 O 765.796 -1.69082 0.955237 0
M  V30 8028 C 762.926 -2.79756 2.05801 0
M  V30 8029 C 761.88 -2.82392 3.21619 0
M  V30 8030 C 761.206 -4.22326 3.2794 0
M  V30 8031 C 762.506 -2.479 4.59721 0
M  V30 8032 H 764.2 -1.17018 2.75585 0
M  V30 8033 H 761.746 -0.561485 1.32602 0
M  V30 8034 H 763.699 -3.55627 2.26069 0
M  V30 8035 H 762.423 -3.06883 1.11761 0
M  V30 8036 H 761.082 -2.08974 3.01207 0
M  V30 8037 H 760.73 -4.46564 2.31494 0
M  V30 8038 H 760.43 -4.25001 4.05768 0
M  V30 8039 H 761.954 -5.00039 3.50419 0
M  V30 8040 H 763.368 -3.13484 4.80001 0
M  V30 8041 H 761.765 -2.61857 5.39954 0
M  V30 8042 H 762.835 -1.43087 4.63308 0
M  V30 8043 N 764.178 -1.45556 -0.604258 0
M  V30 8044 C 765.128 -1.50906 -1.70913 0
M  V30 8045 C 766.112 -0.371996 -1.56541 0
M  V30 8046 O 767.304 -0.619064 -1.65821 0
M  V30 8047 C 764.433 -1.48181 -3.09673 0
M  V30 8048 C 763.519 -2.67102 -3.2942 0
M  V30 8049 N 763.91 -3.92184 -3.19414 0
M  V30 8050 C 762.208 -2.6287 -3.60299 0
M  V30 8051 C 762.909 -4.71571 -3.40581 0
M  V30 8052 N 761.885 -4.03081 -3.64728 0
M  V30 8053 H 765.687 -2.45435 -1.61675 0
M  V30 8054 H 763.201 -1.40894 -0.807622 0
M  V30 8055 H 765.198 -1.501 -3.88942 0
M  V30 8056 H 763.858 -0.54712 -3.20057 0
M  V30 8057 H 764.869 -4.23756 -2.97743 0
M  V30 8058 H 761.546 -1.78324 -3.77501 0
M  V30 8059 H 762.936 -5.80571 -3.38211 0
M  V30 8060 N 765.656 0.84705 -1.32902 0
M  V30 8061 C 766.619 1.9378 -1.224 0
M  V30 8062 C 767.619 1.60144 -0.145108 0
M  V30 8063 O 768.809 1.69638 -0.396058 0
M  V30 8064 C 765.941 3.29234 -0.884174 0
M  V30 8065 H 767.134 2.04518 -2.19345 0
M  V30 8066 H 764.687 1.03816 -1.16842 0
M  V30 8067 H 765.422 3.24193 0.0831277 0
M  V30 8068 H 765.207 3.55026 -1.6643 0
M  V30 8069 H 766.697 4.09162 -0.835226 0
M  V30 8070 N 767.134 1.16236 1.06428 0
M  V30 8071 C 768.359 0.967688 1.83441 0
M  V30 8072 C 768.784 -0.479167 1.81894 0
M  V30 8073 O 768.142 -1.34224 1.21875 0
M  V30 8074 C 768.19 1.49806 3.2801 0
M  V30 8075 O 767.294 0.703481 4.06356 0
M  V30 8076 H 766.635 0.344468 0.56766 0
M  V30 8077 H 769.165 1.54442 1.34197 0
M  V30 8078 H 769.175 1.51495 3.78831 0
M  V30 8079 H 767.85 2.55133 3.2845 0
M  V30 8080 H 766.427 0.756986 3.65136 0
M  V30 8081 N 768.612 -1.24939 0.960631 0
M  V30 8082 C 769.84 -1.96881 0.636045 0
M  V30 8083 C 770.255 -1.71334 -0.793093 0
M  V30 8084 O 769.612 -0.992917 -1.53125 0
M  V30 8085 C 769.663 -3.50309 0.892533 0
M  V30 8086 O 769.384 -3.74977 2.26548 0
M  V30 8087 C 770.885 -4.39474 0.581159 0
M  V30 8088 H 768.105 -0.627399 0.237931 0
M  V30 8089 H 770.649 -1.58952 1.28664 0
M  V30 8090 H 768.804 -3.86326 0.288257 0
M  V30 8091 H 769.218 -4.69401 2.34014 0
M  V30 8092 H 770.692 -5.46008 0.811125 0
M  V30 8093 H 771.169 -4.3652 -0.48443 0
M  V30 8094 H 771.775 -4.09032 1.16502 0
M  V30 8095 N 770.09 -0.729906 -1.39679 0
M  V30 8096 C 771.053 -0.0951668 -2.29002 0
M  V30 8097 C 772.053 0.672471 -1.46063 0
M  V30 8098 O 773.243 0.502245 -1.66803 0
M  V30 8099 C 770.375 0.874631 -3.29489 0
M  V30 8100 H 771.568 -0.882062 -2.86635 0
M  V30 8101 H 769.121 -0.495424 -1.4824 0
M  V30 8102 H 769.856 1.68807 -2.76902 0
M  V30 8103 H 769.641 0.326893 -3.90735 0
M  V30 8104 H 771.131 1.31548 -3.96339 0
M  V30 8105 N 771.568 1.50203 -0.477153 0
M  V30 8106 C 772.516 2.30278 0.327826 0
M  V30 8107 C 773.51 1.37831 0.984839 0
M  V30 8108 O 774.716 1.54994 0.915251 0
M  V30 8109 H 771.091 0.741612 0.124564 0
M  V30 8110 H 773.062 2.96124 -0.367853 0
M  V30 8111 C 771.811 3.18548 1.39365 0
M  V30 8112 H 771.134 3.89596 0.897475 0
M  V30 8113 H 772.574 3.77561 1.92934 0
M  V30 8114 C 771.033 2.36548 2.39889 0
M  V30 8115 O 771.563 2.05282 3.45286 0
M  V30 8116 N 769.769 1.99015 2.11758 0
M  V30 8117 H 769.316 2.24641 1.26071 0
M  V30 8118 H 769.274 1.44454 2.7925 0
M  V30 8119 N 773.046 0.209999 1.56195 0
M  V30 8120 C 774.294 -0.423974 1.97603 0
M  V30 8121 C 774.615 -1.61112 1.09854 0
M  V30 8122 O 773.885 -1.95134 0.173032 0
M  V30 8123 H 772.465 -0.159629 0.729745 0
M  V30 8124 H 775.127 0.300205 1.92574 0
M  V30 8125 H 774.223 -0.75809 3.02753 0
M  V30 8126 N 774.524 -1.57472 -0.0634922 0
M  V30 8127 C 775.749 -1.92273 -0.77756 0
M  V30 8128 C 776.174 -0.807141 -1.69902 0
M  V30 8129 O 775.532 0.239523 -1.79711 0
M  V30 8130 C 775.58 -3.26054 -1.54017 0
M  V30 8131 O 774.684 -3.15873 -2.65138 0
M  V30 8132 H 774.025 -0.629389 -0.211579 0
M  V30 8133 H 776.555 -2.04579 -0.0292523 0
M  V30 8134 H 776.565 -3.60127 -1.91763 0
M  V30 8135 H 775.24 -4.06824 -0.864128 0
M  V30 8136 H 773.817 -2.93373 -2.30189 0
M  V30 8137 N 776.003 0.335068 -1.53997 0
M  V30 8138 C 777.252 1.07182 -1.70865 0
M  V30 8139 C 777.565 1.89541 -0.483078 0
M  V30 8140 O 778.771 2.66219 -0.532879 0
M  V30 8141 C 777.227 1.95497 -3.02174 0
M  V30 8142 C 776.835 1.18304 -4.32097 0
M  V30 8143 C 778.579 2.68978 -3.28407 0
M  V30 8144 C 776.486 2.05699 -5.54474 0
M  V30 8145 H 775.416 0.403857 -0.636722 0
M  V30 8146 H 778.067 0.33076 -1.80494 0
M  V30 8147 H 776.449 2.73456 -2.86423 0
M  V30 8148 H 777.623 0.451969 -4.58578 0
M  V30 8149 H 775.938 0.565556 -4.12541 0
M  V30 8150 H 778.535 3.34651 -4.17029 0
M  V30 8151 H 778.878 3.36 -2.45784 0
M  V30 8152 H 779.411 1.98087 -3.44973 0
M  V30 8153 H 776.15 1.43204 -6.39666 0
M  V30 8154 H 775.67 2.76572 -5.32229 0
M  V30 8155 H 777.349 2.64554 -5.90441 0
M  V30 8156 N 777.481 1.45874 0.596531 0
M  V30 8157 C 778.411 1.5824 1.71705 0
M  V30 8158 C 779.392 0.433366 1.64487 0
M  V30 8159 O 780.577 0.657895 1.82717 0
M  V30 8160 C 777.707 1.55927 3.10329 0
M  V30 8161 C 776.661 2.69659 3.32367 0
M  V30 8162 C 775.987 2.52403 4.71377 0
M  V30 8163 C 777.287 4.11591 3.21544 0
M  V30 8164 H 778.981 2.52035 1.61613 0
M  V30 8165 H 776.527 1.21297 0.776082 0
M  V30 8166 H 778.48 1.63173 3.88526 0
M  V30 8167 H 777.204 0.586674 3.21288 0
M  V30 8168 H 775.863 2.61859 2.56564 0
M  V30 8169 H 775.511 1.53258 4.79083 0
M  V30 8170 H 775.211 3.28679 4.87077 0
M  V30 8171 H 776.735 2.6152 5.5176 0
M  V30 8172 H 778.149 4.20576 3.89601 0
M  V30 8173 H 776.546 4.88344 3.4877 0
M  V30 8174 H 777.616 4.32719 2.1882 0
M  V30 8175 N 778.959 -0.83999 1.33349 0
M  V30 8176 C 779.922 -1.93128 1.23426 0
M  V30 8177 C 780.922 -1.60065 0.153599 0
M  V30 8178 O 782.112 -1.69425 0.405049 0
M  V30 8179 C 779.244 -3.28761 0.901622 0
M  V30 8180 H 780.437 -2.03352 2.20427 0
M  V30 8181 H 777.99 -1.03194 1.17391 0
M  V30 8182 H 778.725 -3.24233 -0.0659337 0
M  V30 8183 H 778.51 -3.54138 1.68311 0
M  V30 8184 H 780 -4.08714 0.856913 0
M  V30 8185 N 780.437 -1.16799 -1.0581 0
M  V30 8186 C 781.685 -0.950642 -1.78346 0
M  V30 8187 C 782.006 0.522524 -1.87869 0
M  V30 8188 O 781.276 1.3795 -1.39092 0
M  V30 8189 H 779.856 -0.348736 -0.6606 0
M  V30 8190 H 782.518 -1.47158 -1.27791 0
M  V30 8191 H 781.614 -1.37359 -2.80248 0
M  V30 8192 N 781.915 1.24427 -0.967243 0
M  V30 8193 C 782.845 2.2773 -0.515899 0
M  V30 8194 C 783.826 1.64197 0.444227 0
M  V30 8195 O 785.011 1.91193 0.340451 0
M  V30 8196 C 782.141 3.46751 0.195149 0
M  V30 8197 C 781.095 4.22548 -0.680953 0
M  V30 8198 C 780.421 5.34456 0.161561 0
M  V30 8199 C 781.721 4.83914 -1.96532 0
M  V30 8200 H 783.415 2.65735 -1.37933 0
M  V30 8201 H 780.961 1.27742 -0.664681 0
M  V30 8202 H 782.914 4.18153 0.522117 0
M  V30 8203 H 781.638 3.07771 1.09292 0
M  V30 8204 H 780.297 3.52946 -0.991186 0
M  V30 8205 H 779.945 4.91716 1.05947 0
M  V30 8206 H 779.645 5.86087 -0.421418 0
M  V30 8207 H 781.169 6.08685 0.483211 0
M  V30 8208 H 782.583 5.47392 -1.70396 0
M  V30 8209 H 780.98 5.45775 -2.49499 0
M  V30 8210 H 782.05 4.05393 -2.66053 0
M  V30 8211 O 783.432 0.875006 1.35742 0
M  V30 8212 H 784.123 0.476549 1.87746 0
M  V30 END ATOM
M  V30 BEGIN BOND
M  V30 END BOND
M  V30 END CTAB
M  END
$$$$
