drugbank_target|P39045 D-alanyl-D-alanine carboxypeptidase (DB04742)
 OpenBabel12092120303D

  0  0  0     0  0            999 V3000
M  V30 BEGIN CTAB
M  V30 COUNTS 7595 7663 0 0 0
M  V30 BEGIN ATOM
M  V30 1 H -0.908 1.98254 -0.117106 0
M  V30 2 N 0 1.576 0 0
M  V30 3 C 0.933 2.03868 1.02534 0
M  V30 4 C 1.911 0.928543 1.3348 0
M  V30 5 O 3.095 1.19667 1.45644 0
M  V30 6 C 0.222 2.43627 2.35294 0
M  V30 7 C -0.732 3.65373 2.2001 0
M  V30 8 S 0.101 5.13292 1.52614 0
M  V30 9 C 1.257 5.56322 2.86805 0
M  V30 10 H 1.49 2.90518 0.631377 0
M  V30 11 H -0.977 1.52953 0.210867 0
M  V30 12 H 0.981 2.67203 3.11629 0
M  V30 13 H -0.358 1.57376 2.7183 0
M  V30 14 H -1.165 3.90944 3.18086 0
M  V30 15 H -1.563 3.418 1.51819 0
M  V30 16 H 0.729 5.58782 3.83104 0
M  V30 17 H 1.672 6.56266 2.65933 0
M  V30 18 H 2.08 4.83886 2.90714 0
M  V30 19 N 1.4781 -0.272755 1.55222 0
M  V30 20 C 2.4251 -1.33716 1.88119 0
M  V30 21 C 3.3951 -1.49066 0.73271 0
M  V30 22 O 4.5801 -1.63469 0.984002 0
M  V30 23 C 1.7201 -2.69238 2.15882 0
M  V30 24 C 0.8331 -2.62108 3.43399 0
M  V30 25 C -0.0319 -3.89811 3.60861 0
M  V30 26 C -0.9929 -3.77193 4.8207 0
M  V30 27 N -1.8559 -4.9673 4.96189 0
M  V30 28 H 2.9841 -1.04962 2.78903 0
M  V30 29 H 0.5211 -0.507088 1.38083 0
M  V30 30 H 2.4791 -3.48089 2.29978 0
M  V30 31 H 1.1091 -2.96194 1.28331 0
M  V30 32 H 0.1611 -1.74967 3.37773 0
M  V30 33 H 1.4731 -2.48685 4.32386 0
M  V30 34 H 0.6271 -4.77103 3.74777 0
M  V30 35 H -0.6339 -4.06102 2.7006 0
M  V30 36 H -1.6289 -2.88284 4.68159 0
M  V30 37 H -0.4039 -3.62421 5.74307 0
M  V30 38 H -2.4579 -5.13431 4.08319 0
M  V30 39 H -2.5409 -4.85839 5.79221 0
M  V30 40 H -1.2729 -5.85594 5.1449 0
M  V30 41 N 2.9562 -1.48159 -0.537278 0
M  V30 42 C 3.8882 -1.58218 -1.65831 0
M  V30 43 C 4.9012 -0.466948 -1.5596 0
M  V30 44 O 6.0902 -0.73747 -1.62553 0
M  V30 45 C 3.1902 -1.48906 -3.04434 0
M  V30 46 C 2.3632 -2.75343 -3.3986 0
M  V30 47 C 1.4222 -2.59588 -4.57712 0
M  V30 48 O 0.4482 -3.33457 -4.61297 0
M  V30 49 N 1.6502 -1.68724 -5.55439 0
M  V30 50 H 4.4152 -2.54891 -1.57641 0
M  V30 51 H 1.9762 -1.4479 -0.724386 0
M  V30 52 H 3.9682 -1.36072 -3.81139 0
M  V30 53 H 2.5382 -0.602368 -3.06741 0
M  V30 54 H 1.7582 -3.02795 -2.52406 0
M  V30 55 H 3.0462 -3.5924 -3.60311 0
M  V30 56 H 2.4442 -1.07898 -5.55315 0
M  V30 57 H 1.0012 -1.61832 -6.3139 0
M  V30 58 N 4.4343 0.785586 -1.36625 0
M  V30 59 C 5.6593 1.57963 -1.34397 0
M  V30 60 C 6.0843 1.87964 0.071526 0
M  V30 61 O 5.4423 1.48182 1.0446 0
M  V30 62 C 5.4903 2.87511 -2.17646 0
M  V30 63 O 4.5943 3.81281 -1.57158 0
M  V30 64 H 3.9353 0.479014 -0.459828 0
M  V30 65 H 6.4653 0.973411 -1.79961 0
M  V30 66 H 6.4753 3.36745 -2.30362 0
M  V30 67 H 5.1503 2.65002 -3.20541 0
M  V30 68 H 3.7273 3.39885 -1.53403 0
M  V30 69 N 5.9124 1.20967 1.01018 0
M  V30 70 C 7.1374 1.0503 1.78839 0
M  V30 71 C 7.5624 -0.395752 1.8389 0
M  V30 72 O 6.9204 -1.28529 1.27867 0
M  V30 73 C 6.9684 1.64602 3.2084 0
M  V30 74 O 6.0724 0.887988 4.02726 0
M  V30 75 H 5.4134 0.369987 0.551367 0
M  V30 76 H 7.9434 1.60399 1.27018 0
M  V30 77 H 7.9534 1.68607 3.71532 0
M  V30 78 H 6.6284 2.69841 3.16479 0
M  V30 79 H 5.2054 0.922648 3.61305 0
M  V30 80 N 7.3905 -1.2043 1.01659 0
M  V30 81 C 8.8015 -1.71517 0.737482 0
M  V30 82 C 9.1525 -1.81547 -0.743973 0
M  V30 83 O 8.2775 -1.47803 -1.58061 0
M  V30 84 C 8.8725 -3.11515 1.33206 0
M  V30 85 C 7.4315 -3.59912 1.10183 0
M  V30 86 C 6.5785 -2.37116 1.43776 0
M  V30 87 H 9.5295 -1.05444 1.18606 0
M  V30 88 H 9.5505 -3.73575 0.722636 0
M  V30 89 H 9.0625 -3.04182 2.41028 0
M  V30 90 H 7.1635 -3.72577 0.0412756 0
M  V30 91 H 7.2765 -4.44731 1.78188 0
M  V30 92 H 5.6405 -2.39857 0.856778 0
M  V30 93 H 6.4235 -2.32424 2.52654 0
M  V30 94 N 8.8686 -0.792821 -1.36206 0
M  V30 95 C 9.7786 -0.194808 -2.3379 0
M  V30 96 C 10.7946 0.654869 -1.61206 0
M  V30 97 O 11.9706 0.569856 -1.9317 0
M  V30 98 C 9.0356 0.657721 -3.40404 0
M  V30 99 C 8.0966 -0.210849 -4.28782 0
M  V30 100 C 7.3296 0.601086 -5.30304 0
M  V30 101 O 7.5526 1.83682 -5.40016 0
M  V30 102 O 6.4866 -0.000808277 -6.019 0
M  V30 103 H 10.3126 -1.00172 -2.86704 0
M  V30 104 H 7.8976 -0.554341 -1.38735 0
M  V30 105 H 9.7796 1.14375 -4.05581 0
M  V30 106 H 8.4546 1.44247 -2.89784 0
M  V30 107 H 7.3616 -0.743714 -3.66633 0
M  V30 108 H 8.6946 -0.959195 -4.82763 0
M  V30 109 N 10.3467 1.47872 -0.545128 0
M  V30 110 C 11.7577 1.86384 -0.108581 0
M  V30 111 C 12.1087 1.45309 1.31832 0
M  V30 112 O 11.2337 0.850641 1.9898 0
M  V30 113 C 11.8287 3.38265 -0.190274 0
M  V30 114 C 10.3877 3.75914 0.191164 0
M  V30 115 C 9.5347 2.71926 -0.543273 0
M  V30 116 H 12.4857 1.39561 -0.755537 0
M  V30 117 H 12.5067 3.75831 0.594217 0
M  V30 118 H 12.0187 3.6813 -1.2289 0
M  V30 119 H 10.1197 3.51665 1.23136 0
M  V30 120 H 10.2327 4.78836 -0.158987 0
M  V30 121 H 8.5967 2.54697 0.0122495 0
M  V30 122 H 9.3797 3.04634 -1.58282 0
M  V30 123 N 11.8248 0.280983 1.55075 0
M  V30 124 C 12.7548 -0.597469 2.25727 0
M  V30 125 C 13.7358 -1.15417 1.24952 0
M  V30 126 O 14.9208 -1.18722 1.53684 0
M  V30 127 C 12.0508 -1.7789 2.98283 0
M  V30 128 C 11.0048 -1.35347 4.06036 0
M  V30 129 C 10.3308 -2.61846 4.66198 0
M  V30 130 C 11.6308 -0.499354 5.19907 0
M  V30 131 H 13.3248 -0.00824265 2.99399 0
M  V30 132 H 10.8708 -0.0025244 1.44 0
M  V30 133 H 12.8238 -2.39937 3.46422 0
M  V30 134 H 11.5478 -2.39405 2.22155 0
M  V30 135 H 10.2068 -0.756156 3.58717 0
M  V30 136 H 9.8548 -3.21632 3.86732 0
M  V30 137 H 9.5548 -2.3409 5.38958 0
M  V30 138 H 11.0788 -3.24732 5.1709 0
M  V30 139 H 12.4928 -1.02498 5.64063 0
M  V30 140 H 10.8898 -0.316424 5.99265 0
M  V30 141 H 11.9598 0.480459 4.82514 0
M  V30 142 N 13.3029 -1.57598 0.00835791 0
M  V30 143 C 14.7189 -1.55764 -0.347822 0
M  V30 144 C 14.9189 -1.01186 -1.74252 0
M  V30 145 O 13.9749 -0.649371 -2.44007 0
M  V30 146 C 15.2879 -2.99927 -0.215407 0
M  V30 147 C 16.8359 -3.11656 -0.289725 0
M  V30 148 C 17.3109 -4.57621 -0.18634 0
M  V30 149 N 18.8019 -4.62557 -0.243978 0
M  V30 150 C 19.5369 -5.73094 -0.18745 0
M  V30 151 N 19.0329 -6.92753 -0.0810331 0
M  V30 152 N 20.8259 -5.61588 -0.239925 0
M  V30 153 H 12.9769 -1.91411 0.92062 0
M  V30 154 H 15.2399 -0.879562 0.353659 0
M  V30 155 H 14.9459 -3.43729 0.744512 0
M  V30 156 H 14.8199 -3.63865 -0.994097 0
M  V30 157 H 17.2069 -2.67779 -1.24009 0
M  V30 158 H 17.2879 -2.5048 0.51898 0
M  V30 159 H 16.9319 -5.02174 0.760519 0
M  V30 160 H 16.8619 -5.16752 -1.01364 0
M  V30 161 H 19.3529 -3.76481 -0.327217 0
M  V30 162 H 19.6659 -7.72787 -0.0440241 0
M  V30 163 H 18.0109 -6.94984 -0.0465419 0
M  V30 164 H 21.2019 -4.66996 -0.321317 0
M  V30 165 H 21.3749 -6.47714 -0.192407 0
M  V30 166 N 14.781 0.264519 -1.55364 0
M  V30 167 C 16.192 0.834936 -1.6699 0
M  V30 168 C 16.543 1.86718 -0.602552 0
M  V30 169 O 15.668 2.14899 0.254425 0
M  V30 170 C 16.263 1.5212 -3.02729 0
M  V30 171 C 14.822 2.03954 -3.16354 0
M  V30 172 C 13.969 0.884498 -2.62815 0
M  V30 173 H 16.92 0.0406869 -1.58648 0
M  V30 174 H 16.941 2.38853 -2.96191 0
M  V30 175 H 16.453 0.769668 -3.80392 0
M  V30 176 H 14.554 2.82041 -2.43482 0
M  V30 177 H 14.667 2.24902 -4.23032 0
M  V30 178 H 13.031 1.2802 -2.20188 0
M  V30 179 H 13.814 0.14634 -3.42988 0
M  V30 180 N 16.2591 1.48442 0.529413 0
M  V30 181 C 17.6751 1.34575 0.858004 0
M  V30 182 C 17.8751 0.3572 1.98309 0
M  V30 183 O 16.9311 -0.221379 2.51528 0
M  V30 184 C 18.2441 2.74617 1.22499 0
M  V30 185 C 19.7921 2.83109 1.33484 0
M  V30 186 C 20.2671 4.23854 1.73526 0
M  V30 187 N 21.7581 4.2653 1.80628 0
M  V30 188 C 22.4931 5.32372 2.12997 0
M  V30 189 N 21.9891 6.48491 2.43786 0
M  V30 190 N 23.7821 5.19766 2.14008 0
M  V30 191 H 15.9331 2.1133 -0.212925 0
M  V30 192 H 18.1961 0.947439 -0.0326199 0
M  V30 193 H 17.9021 3.4852 0.471905 0
M  V30 194 H 17.7761 3.08177 2.17501 0
M  V30 195 H 20.1631 2.09462 2.0787 0
M  V30 196 H 20.2441 2.53168 0.366027 0
M  V30 197 H 19.8881 4.98018 0.997013 0
M  V30 198 H 19.8181 4.5124 2.71459 0
M  V30 199 H 22.3091 3.42772 1.59108 0
M  V30 200 H 22.6221 7.24993 2.67592 0
M  V30 201 H 20.9671 6.51765 2.41304 0
M  V30 202 H 24.1581 4.28066 1.89412 0
M  V30 203 H 24.3311 6.02354 2.38902 0
M  V30 204 N 17.7372 -0.778329 1.37039 0
M  V30 205 C 19.1532 -1.07796 1.17695 0
M  V30 206 C 19.3532 -2.01498 0.00860115 0
M  V30 207 O 18.4092 -2.43901 -0.653352 0
M  V30 208 C 19.7222 -1.68178 2.49272 0
M  V30 209 C 21.2702 -1.80467 2.55735 0
M  V30 210 C 21.7452 -2.44263 3.87427 0
M  V30 211 N 23.2362 -2.51721 3.88833 0
M  V30 212 C 23.9712 -3.01919 4.87476 0
M  V30 213 N 23.4672 -3.5234 5.96513 0
M  V30 214 N 25.2602 -3.00733 4.74885 0
M  V30 215 H 17.4112 -0.156032 2.11826 0
M  V30 216 H 19.6742 -0.131844 0.938787 0
M  V30 217 H 19.3802 -1.06796 3.35093 0
M  V30 218 H 19.2542 -2.67554 2.65885 0
M  V30 219 H 21.6412 -2.40984 1.70325 0
M  V30 220 H 21.7222 -0.798656 2.43013 0
M  V30 221 H 21.3662 -1.84388 4.73248 0
M  V30 222 H 21.2962 -3.45458 3.9745 0
M  V30 223 H 23.7872 -2.1603 3.10063 0
M  V30 224 H 24.1002 -3.89027 6.67741 0
M  V30 225 H 22.4452 -3.50462 6.00168 0
M  V30 226 H 25.6362 -2.60638 3.88826 0
M  V30 227 H 25.8092 -3.39545 5.51918 0
M  V30 228 N 19.2153 -1.21501 -1.00376 0
M  V30 229 C 20.4433 -1.059 -1.77744 0
M  V30 230 C 20.8583 0.391125 -1.84704 0
M  V30 231 O 20.2153 1.27133 -1.30933 0
M  V30 232 C 20.2663 -1.65111 -3.21591 0
M  V30 233 O 19.9873 -3.0445 -3.15027 0
M  V30 234 C 21.4883 -1.54637 -4.15454 0
M  V30 235 H 18.7083 -0.371825 -0.558558 0
M  V30 236 H 21.2523 -1.60865 -1.26264 0
M  V30 237 H 19.4073 -1.14235 -3.70175 0
M  V30 238 H 19.8213 -3.3278 -4.0541 0
M  V30 239 H 21.2953 -2.00808 -5.14179 0
M  V30 240 H 21.7723 -0.501022 -4.36333 0
M  V30 241 H 22.3783 -2.04767 -3.72761 0
M  V30 242 N 20.6934 1.19889 -1.02296 0
M  V30 243 C 21.9414 1.89046 -0.714558 0
M  V30 244 C 22.2624 1.79636 0.758681 0
M  V30 245 O 21.5324 1.20292 1.54618 0
M  V30 246 H 20.1124 0.699802 -0.261317 0
M  V30 247 H 22.7744 1.45574 -1.29592 0
M  V30 248 H 21.8704 2.95524 -1.0036 0
M  V30 249 N 22.1715 0.800033 1.35784 0
M  V30 250 C 23.4195 0.376597 1.9856 0
M  V30 251 C 23.7405 -1.05812 1.63795 0
M  V30 252 O 23.0105 -1.73103 0.917171 0
M  V30 253 H 21.5905 0.136261 0.734467 0
M  V30 254 H 24.2525 1.02442 1.65806 0
M  V30 255 H 23.3485 0.477002 3.08433 0
M  V30 256 N 23.6496 -1.47581 0.552962 0
M  V30 257 C 25.0656 -1.5818 0.212424 0
M  V30 258 C 25.2656 -1.55213 -1.28496 0
M  V30 259 O 24.3216 -1.45329 -2.06484 0
M  V30 260 C 25.6346 -2.88865 0.835318 0
M  V30 261 C 27.1826 -3.0244 0.806156 0
M  V30 262 C 27.6576 -4.35819 1.40804 0
M  V30 263 N 29.1486 -4.42444 1.37103 0
M  V30 264 C 29.8836 -5.44202 1.80641 0
M  V30 265 N 29.3796 -6.52795 2.32015 0
M  V30 266 N 31.1726 -5.35222 1.71738 0
M  V30 267 H 23.3236 -1.47753 1.52587 0
M  V30 268 H 25.5866 -0.702941 0.636064 0
M  V30 269 H 25.2926 -2.9676 1.88749 0
M  V30 270 H 25.1666 -3.7579 0.325848 0
M  V30 271 H 27.5536 -2.94144 -0.237317 0
M  V30 272 H 27.6346 -2.17068 1.35334 0
M  V30 273 H 27.2786 -4.44871 2.45056 0
M  V30 274 H 27.2086 -5.19916 0.836338 0
M  V30 275 H 29.6996 -3.6456 0.995202 0
M  V30 276 H 30.0126 -7.26609 2.63171 0
M  V30 277 H 28.3576 -6.53696 2.36023 0
M  V30 278 H 31.5486 -4.49284 1.31382 0
M  V30 279 H 31.7216 -6.14389 2.05987 0
M  V30 280 N 25.1277 -0.289203 -1.54924 0
M  V30 281 C 26.3757 0.322879 -1.99504 0
M  V30 282 C 26.6967 1.55313 -1.1791 0
M  V30 283 O 25.9667 1.94001 -0.272097 0
M  V30 284 H 24.5467 0.122291 -0.736922 0
M  V30 285 H 27.2087 -0.397802 -1.90797 0
M  V30 286 H 26.3047 0.603061 -3.06218 0
M  V30 287 N 26.6058 1.57591 -0.0167156 0
M  V30 288 C 27.8538 1.90906 0.663285 0
M  V30 289 C 28.1748 0.892509 1.73376 0
M  V30 290 O 27.4448 -0.0677623 1.95783 0
M  V30 291 H 26.0248 0.704637 0.247983 0
M  V30 292 H 28.6868 1.94803 -0.0615909 0
M  V30 293 H 27.7828 2.9116 1.12393 0
M  V30 294 N 28.0839 -0.256276 1.55502 0
M  V30 295 C 29.0469 -1.30047 1.88734 0
M  V30 296 C 30.0469 -1.4154 0.763086 0
M  V30 297 O 31.2369 -1.40403 1.03115 0
M  V30 298 C 28.3689 -2.67953 2.10747 0
M  V30 299 H 29.5619 -1.01802 2.82093 0
M  V30 300 H 27.1149 -0.495134 1.4825 0
M  V30 301 H 27.8499 -3.01351 1.19825 0
M  V30 302 H 27.6349 -2.60993 2.92617 0
M  V30 303 H 29.1249 -3.43368 2.37673 0
M  V30 304 N 29.562 -1.4872 -0.521534 0
M  V30 305 C 30.978 -1.35028 -0.850855 0
M  V30 306 C 31.178 -0.367712 -1.98116 0
M  V30 307 O 30.234 0.208037 -2.51642 0
M  V30 308 C 31.547 -2.75263 -1.21041 0
M  V30 309 C 33.095 -2.83813 -1.31981 0
M  V30 310 C 33.57 -4.24769 -1.71276 0
M  V30 311 N 35.061 -4.27482 -1.78363 0
M  V30 312 C 35.796 -5.33494 -2.1017 0
M  V30 313 N 35.292 -6.49775 -2.40343 0
M  V30 314 N 37.085 -5.20894 -2.11248 0
M  V30 315 H 29.236 -2.11214 0.22413 0
M  V30 316 H 31.499 -0.947252 0.0376439 0
M  V30 317 H 31.205 -3.48765 -0.453415 0
M  V30 318 H 31.079 -3.09327 -2.15863 0
M  V30 319 H 33.466 -2.10561 -2.06756 0
M  V30 320 H 33.547 -2.53358 -0.352596 0
M  V30 321 H 33.191 -4.9854 -0.970588 0
M  V30 322 H 33.121 -4.52673 -2.69062 0
M  V30 323 H 35.612 -3.43611 -1.57288 0
M  V30 324 H 35.925 -7.26402 -2.63743 0
M  V30 325 H 34.27 -6.53035 -2.37844 0
M  V30 326 H 37.461 -4.29065 -1.87139 0
M  V30 327 H 37.634 -6.03612 -2.35704 0
M  V30 328 N 31.0401 0.771051 -1.3745 0
M  V30 329 C 32.4561 1.07171 -1.18265 0
M  V30 330 C 32.6561 2.01491 -0.019287 0
M  V30 331 O 31.7121 2.44244 0.640408 0
M  V30 332 C 33.0251 1.66854 -2.50161 0
M  V30 333 C 34.5731 1.79109 -2.56689 0
M  V30 334 C 35.0481 2.42205 -3.88717 0
M  V30 335 N 36.5391 2.49655 -3.90162 0
M  V30 336 C 37.2741 2.9933 -4.8907 0
M  V30 337 N 36.7701 3.49172 -5.98374 0
M  V30 338 N 38.5631 2.9821 -4.76474 0
M  V30 339 H 30.7141 0.144796 -2.11906 0
M  V30 340 H 32.9771 0.126863 -0.939473 0
M  V30 341 H 32.6831 1.05017 -3.35655 0
M  V30 342 H 32.5571 2.6614 -2.673 0
M  V30 343 H 34.9441 2.40077 -1.71601 0
M  V30 344 H 35.0251 0.785757 -2.43433 0
M  V30 345 H 34.6691 1.81875 -4.74219 0
M  V30 346 H 34.5991 3.43345 -3.99276 0
M  V30 347 H 37.0901 2.14383 -3.11205 0
M  V30 348 H 37.4031 3.8548 -6.69795 0
M  V30 349 H 35.7481 3.47275 -6.02018 0
M  V30 350 H 38.9391 2.58572 -3.90203 0
M  V30 351 H 39.1121 3.36613 -5.53711 0
M  V30 352 N 32.5182 1.22032 0.997298 0
M  V30 353 C 33.4812 0.987909 2.06816 0
M  V30 354 C 34.4812 -0.0440084 1.6074 0
M  V30 355 O 35.6712 0.194053 1.73116 0
M  V30 356 C 32.8032 0.49132 3.37341 0
M  V30 357 H 33.9962 1.93803 2.28868 0
M  V30 358 H 31.5492 1.03838 1.16822 0
M  V30 359 H 32.2842 -0.463364 3.20973 0
M  V30 360 H 32.0692 1.23575 3.72118 0
M  V30 361 H 33.5592 0.348824 4.16141 0
M  V30 362 N 33.9963 -1.19345 1.0293 0
M  V30 363 C 34.9593 -2.20793 0.615069 0
M  V30 364 C 35.9593 -1.57553 -0.321533 0
M  V30 365 O 37.1493 -1.73862 -0.108483 0
M  V30 366 C 34.2813 -3.40754 -0.0999222 0
M  V30 367 H 35.4743 -2.58955 1.51269 0
M  V30 368 H 33.0273 -1.3303 0.820534 0
M  V30 369 H 33.7623 -3.0811 -1.01187 0
M  V30 370 H 33.5473 -3.87889 0.57309 0
M  V30 371 H 35.0373 -4.15898 -0.376645 0
M  V30 372 N 35.4744 -0.807222 -1.35358 0
M  V30 373 C 36.4374 -0.223665 -2.28106 0
M  V30 374 C 37.4374 0.589354 -1.4961 0
M  V30 375 O 38.6274 0.407745 -1.69361 0
M  V30 376 C 35.7594 0.688149 -3.33882 0
M  V30 377 H 36.9524 -1.04169 -2.81227 0
M  V30 378 H 34.5054 -0.577921 -1.45223 0
M  V30 379 H 35.2404 1.52984 -2.85948 0
M  V30 380 H 35.0254 0.10687 -3.91954 0
M  V30 381 H 36.5154 1.09075 -4.03104 0
M  V30 382 N 36.9525 1.47285 -0.560781 0
M  V30 383 C 37.8825 2.32857 0.173105 0
M  V30 384 C 38.8635 1.44009 0.905281 0
M  V30 385 O 40.0485 1.7286 0.885046 0
M  V30 386 C 37.1785 3.25861 1.20133 0
M  V30 387 C 36.1325 4.23978 0.585388 0
M  V30 388 C 35.4585 5.06332 1.7185 0
M  V30 389 C 36.7585 5.20242 -0.463178 0
M  V30 390 H 38.4525 2.94466 -0.541307 0
M  V30 391 H 35.9985 1.41601 -0.261764 0
M  V30 392 H 37.9515 3.84569 1.72293 0
M  V30 393 H 36.6755 2.62315 1.94573 0
M  V30 394 H 35.3345 3.66501 0.085054 0
M  V30 395 H 34.9825 4.39186 2.45203 0
M  V30 396 H 34.6825 5.72762 1.31213 0
M  V30 397 H 36.2065 5.67899 2.24329 0
M  V30 398 H 37.6205 5.73293 -0.027502 0
M  V30 399 H 36.0175 5.94896 -0.788627 0
M  V30 400 H 37.0875 4.65504 -1.35773 0
M  V30 401 N 38.4306 0.297415 1.54768 0
M  V30 402 C 39.6766 -0.313376 2.00364 0
M  V30 403 C 40.0096 -1.53815 1.18553 0
M  V30 404 O 39.2846 -1.92739 0.261103 0
M  V30 405 C 39.5676 -0.673525 3.53745 0
M  V30 406 C 39.4206 0.560133 4.46299 0
M  V30 407 C 40.7396 -1.50143 4.13697 0
M  V30 408 H 37.8586 -0.112428 0.728374 0
M  V30 409 H 40.5006 0.4088 1.8555 0
M  V30 410 H 38.6506 -1.28881 3.665 0
M  V30 411 H 40.3226 1.19863 4.45455 0
M  V30 412 H 38.5656 1.19405 4.17043 0
M  V30 413 H 39.2366 0.26405 5.51368 0
M  V30 414 H 41.7126 -0.981588 4.04356 0
M  V30 415 H 40.5886 -1.72221 5.21182 0
M  V30 416 H 40.8496 -2.48952 3.65343 0
M  V30 417 N 39.9087 -1.5758 0.0250728 0
M  V30 418 C 41.1367 -1.9593 -0.664747 0
M  V30 419 C 41.5517 -0.901352 -1.65895 0
M  V30 420 O 40.9087 0.117255 -1.82123 0
M  V30 421 C 40.9597 -3.34342 -1.37468 0
M  V30 422 O 40.6807 -4.36079 -0.420324 0
M  V30 423 C 42.1817 -3.873 -2.1567 0
M  V30 424 H 39.4017 -0.645405 -0.183557 0
M  V30 425 H 41.9457 -2.04329 0.0836372 0
M  V30 426 H 40.1007 -3.27175 -2.0745 0
M  V30 427 H 40.5147 -5.16297 -0.923991 0
M  V30 428 H 41.9887 -4.86504 -2.60803 0
M  V30 429 H 42.4657 -3.21331 -2.99405 0
M  V30 430 H 43.0717 -3.97723 -1.50654 0
M  V30 431 N 41.3868 0.248026 -1.55636 0
M  V30 432 C 42.6358 0.974134 -1.76617 0
M  V30 433 C 42.9488 1.86528 -0.588796 0
M  V30 434 O 44.1548 2.62805 -0.681594 0
M  V30 435 C 42.6108 1.78213 -3.12679 0
M  V30 436 C 42.2188 0.93843 -4.38061 0
M  V30 437 C 43.9628 2.50104 -3.42999 0
M  V30 438 C 41.8698 1.74225 -5.65155 0
M  V30 439 H 40.7998 0.36745 -0.658405 0
M  V30 440 H 43.4508 0.22884 -1.82067 0
M  V30 441 H 41.8328 2.56933 -3.01333 0
M  V30 442 H 43.0068 0.193635 -4.60393 0
M  V30 443 H 41.3218 0.332905 -4.15067 0
M  V30 444 H 43.9188 3.10694 -4.3517 0
M  V30 445 H 44.2618 3.21662 -2.64271 0
M  V30 446 H 44.7948 1.78395 -3.55556 0
M  V30 447 H 41.5338 1.07043 -6.46701 0
M  V30 448 H 41.0538 2.46235 -5.46926 0
M  V30 449 H 42.7328 2.30967 -6.0437 0
M  V30 450 N 42.8649 1.48995 0.513639 0
M  V30 451 C 44.2759 1.5119 1.09537 0
M  V30 452 C 44.6269 0.290906 1.94031 0
M  V30 453 O 43.7519 -0.60049 2.07902 0
M  V30 454 C 44.3469 2.73964 1.99322 0
M  V30 455 C 42.9059 2.78978 2.52682 0
M  V30 456 C 42.0529 2.44934 1.30009 0
M  V30 457 H 45.0039 1.55875 0.298125 0
M  V30 458 H 45.0249 2.53409 2.83838 0
M  V30 459 H 44.5369 3.62813 1.37799 0
M  V30 460 H 42.6379 1.94378 3.1788 0
M  V30 461 H 42.7509 3.8083 2.90698 0
M  V30 462 H 41.1149 1.9644 1.62122 0
M  V30 463 H 41.8979 3.36043 0.702131 0
M  V30 464 N 44.343 -0.763751 1.37857 0
M  V30 465 C 45.273 -1.89103 1.36975 0
M  V30 466 C 46.254 -1.68439 0.237152 0
M  V30 467 O 47.439 -1.8918 0.438713 0
M  V30 468 C 44.569 -3.26496 1.18395 0
M  V30 469 C 43.523 -3.61741 2.28751 0
M  V30 470 C 42.849 -4.97762 1.95286 0
M  V30 471 C 44.149 -3.67665 3.70972 0
M  V30 472 H 45.843 -1.90099 2.31307 0
M  V30 473 H 43.389 -0.91319 1.11341 0
M  V30 474 H 45.342 -4.05003 1.16406 0
M  V30 475 H 44.066 -3.25955 0.205215 0
M  V30 476 H 42.725 -2.85547 2.29909 0
M  V30 477 H 42.373 -4.93769 0.959221 0
M  V30 478 H 42.073 -5.22313 2.69189 0
M  V30 479 H 43.597 -5.7866 1.94898 0
M  V30 480 H 45.011 -4.36307 3.719 0
M  V30 481 H 43.408 -4.03718 4.43995 0
M  V30 482 H 44.478 -2.68134 4.0402 0
M  V30 483 N 45.8211 -1.22559 -0.990812 0
M  V30 484 C 46.7511 -1.0218 -2.09956 0
M  V30 485 C 47.7321 0.0579394 -1.70001 0
M  V30 486 O 48.9171 -0.104684 -1.93918 0
M  V30 487 C 46.0471 -0.601023 -3.4206 0
M  V30 488 C 45.0011 -1.62694 -3.95872 0
M  V30 489 C 44.3271 -1.06193 -5.24049 0
M  V30 490 C 45.6271 -3.01743 -4.2632 0
M  V30 491 H 47.3211 -1.94916 -2.27262 0
M  V30 492 H 44.8671 -0.938566 -1.09211 0
M  V30 493 H 46.8201 -0.445561 -4.19038 0
M  V30 494 H 45.5441 0.362005 -3.24588 0
M  V30 495 H 44.2031 -1.77021 -3.21028 0
M  V30 496 H 43.8511 -0.0901903 -5.02919 0
M  V30 497 H 43.5511 -1.74732 -5.61019 0
M  V30 498 H 45.0751 -0.918092 -6.03658 0
M  V30 499 H 46.4891 -2.90777 -4.94087 0
M  V30 500 H 44.8861 -3.67425 -4.74467 0
M  V30 501 H 45.9561 -3.51518 -3.34011 0
M  V30 502 N 47.2992 1.18797 -1.03562 0
M  V30 503 C 48.7102 1.70322 -0.764676 0
M  V30 504 C 49.0612 1.82708 0.714996 0
M  V30 505 O 48.1862 1.50299 1.55689 0
M  V30 506 C 48.7812 3.09356 -1.38145 0
M  V30 507 C 47.3402 3.58114 -1.15895 0
M  V30 508 C 46.4872 2.34798 -1.4753 0
M  V30 509 H 49.4382 1.03543 -1.20268 0
M  V30 510 H 49.4592 3.72378 -0.781977 0
M  V30 511 H 48.9712 3.00309 -2.45837 0
M  V30 512 H 47.0722 3.72464 -0.100544 0
M  V30 513 H 47.1852 4.4184 -1.8524 0
M  V30 514 H 45.5492 2.38464 -0.894829 0
M  V30 515 H 46.3322 2.28375 -2.56319 0
M  V30 516 N 48.7773 0.814389 1.34928 0
M  V30 517 C 49.7103 0.175641 2.27523 0
M  V30 518 C 50.6883 -0.662953 1.48471 0
M  V30 519 O 51.8723 -0.628545 1.77712 0
M  V30 520 C 48.9993 -0.755516 3.30166 0
M  V30 521 C 48.0453 0.00445305 4.265 0
M  V30 522 S 48.8783 1.34582 5.18313 0
M  V30 523 C 50.0343 0.419315 6.24494 0
M  V30 524 H 50.2673 0.960691 2.8135 0
M  V30 525 H 47.8003 0.609846 1.41846 0
M  V30 526 H 49.7583 -1.28723 3.89796 0
M  V30 527 H 48.4193 -1.51402 2.75202 0
M  V30 528 H 47.6123 -0.703077 4.99072 0
M  V30 529 H 47.2143 0.466447 3.7108 0
M  V30 530 H 49.5063 -0.392432 6.76362 0
M  V30 531 H 50.4493 1.11446 6.99275 0
M  V30 532 H 50.8573 0.0115389 5.64499 0
M  V30 533 N 50.2554 -1.46986 0.568584 0
M  V30 534 C 51.4834 -2.0683 0.0539956 0
M  V30 535 C 51.8984 -1.41953 -1.24478 0
M  V30 536 O 51.2554 -0.519933 -1.74937 0
M  V30 537 C 51.3064 -3.61254 -0.133362 0
M  V30 538 O 51.0274 -4.237 1.11399 0
M  V30 539 C 52.5284 -4.37992 -0.683927 0
M  V30 540 H 49.7484 -0.669058 0.0510141 0
M  V30 541 H 52.2924 -1.88824 0.785234 0
M  V30 542 H 50.4474 -3.78735 -0.81477 0
M  V30 543 H 50.8614 -5.16388 0.91888 0
M  V30 544 H 52.3354 -5.46684 -0.764263 0
M  V30 545 H 52.8124 -4.05058 -1.69778 0
M  V30 546 H 53.4184 -4.25283 -0.0378494 0
M  V30 547 N 51.7335 -0.305618 -1.54608 0
M  V30 548 C 52.6635 0.561482 -2.26649 0
M  V30 549 C 53.6445 1.13415 -1.26772 0
M  V30 550 O 54.8295 1.16262 -1.55553 0
M  V30 551 C 51.9595 1.73122 -3.01075 0
M  V30 552 C 50.9135 1.2887 -4.08138 0
M  V30 553 C 50.2395 2.54396 -4.70305 0
M  V30 554 C 51.5395 0.416578 -5.20636 0
M  V30 555 H 53.2335 -0.0393902 -2.99374 0
M  V30 556 H 50.7795 -0.020385 -1.43986 0
M  V30 557 H 52.7325 2.34396 -3.50195 0
M  V30 558 H 51.4565 2.3584 -2.25936 0
M  V30 559 H 50.1155 0.698991 -3.59875 0
M  V30 560 H 49.7635 3.15439 -3.918 0
M  V30 561 H 49.4635 2.25486 -5.42614 0
M  V30 562 H 50.9875 3.16464 -5.2219 0
M  V30 563 H 52.4015 0.935116 -5.65622 0
M  V30 564 H 50.7985 0.221046 -5.99693 0
M  V30 565 H 51.8685 -0.557162 -4.81688 0
M  V30 566 N 53.2116 1.57565 -0.0334293 0
M  V30 567 C 54.1416 2.13511 0.945265 0
M  V30 568 C 55.1226 1.05231 1.33643 0
M  V30 569 O 56.3076 1.33084 1.41429 0
M  V30 570 C 53.4376 2.6657 2.22616 0
M  V30 571 C 52.3916 3.79676 1.97561 0
M  V30 572 C 51.7176 4.1918 3.31952 0
M  V30 573 C 53.0176 5.0557 1.31135 0
M  V30 574 H 54.7116 2.95538 0.479325 0
M  V30 575 H 52.2576 1.42166 0.229115 0
M  V30 576 H 54.2106 3.04344 2.91466 0
M  V30 577 H 52.9346 1.8171 2.71384 0
M  V30 578 H 51.5936 3.42347 1.31127 0
M  V30 579 H 51.2416 3.31296 3.78487 0
M  V30 580 H 50.9416 4.95402 3.15992 0
M  V30 581 H 52.4656 4.59541 4.02063 0
M  V30 582 H 53.8796 5.40903 1.89992 0
M  V30 583 H 52.2766 5.86818 1.25559 0
M  V30 584 H 53.3466 4.84062 0.284894 0
M  V30 585 N 54.6897 -0.239769 1.55765 0
M  V30 586 C 55.9377 -0.964892 1.77579 0
M  V30 587 C 56.2587 -1.85582 0.598699 0
M  V30 588 O 55.5287 -1.92075 -0.385226 0
M  V30 589 H 54.1087 -0.359265 0.654933 0
M  V30 590 H 56.7707 -0.256001 1.93211 0
M  V30 591 H 55.8667 -1.58243 2.69009 0
M  V30 592 N 56.1678 -1.49265 -0.50573 0
M  V30 593 C 57.1308 -1.65075 -1.59006 0
M  V30 594 C 58.1308 -0.522768 -1.52065 0
M  V30 595 O 59.3208 -0.789117 -1.55302 0
M  V30 596 C 56.4528 -1.64369 -2.98656 0
M  V30 597 H 57.6458 -2.61784 -1.46319 0
M  V30 598 H 55.1988 -1.38226 -0.729616 0
M  V30 599 H 55.9338 -0.692272 -3.16825 0
M  V30 600 H 55.7188 -2.46282 -3.05103 0
M  V30 601 H 57.2088 -1.78674 -3.77446 0
M  V30 602 N 57.6459 0.756429 -1.3826 0
M  V30 603 C 58.8709 1.55077 -1.37717 0
M  V30 604 C 59.2959 1.88073 0.03164 0
M  V30 605 O 58.6539 1.50364 1.01293 0
M  V30 606 C 58.7019 2.8283 -2.23695 0
M  V30 607 O 57.8059 3.77862 -1.6521 0
M  V30 608 H 57.1469 0.469152 -0.469885 0
M  V30 609 H 59.6769 0.935019 -1.81985 0
M  V30 610 H 59.6869 3.31783 -2.37453 0
M  V30 611 H 58.3619 2.58144 -3.2609 0
M  V30 612 H 56.9389 3.36555 -1.60578 0
M  V30 613 N 59.124 1.23083 0.984299 0
M  V30 614 C 60.535 1.05609 1.5396 0
M  V30 615 C 60.886 -0.377793 1.92528 0
M  V30 616 O 60.011 -1.26398 1.75649 0
M  V30 617 C 60.606 1.91087 2.7977 0
M  V30 618 C 59.165 1.77885 3.31713 0
M  V30 619 C 58.312 1.87028 2.04733 0
M  V30 620 H 61.263 1.36802 0.804419 0
M  V30 621 H 61.284 1.43336 3.5247 0
M  V30 622 H 60.796 2.9544 2.51668 0
M  V30 623 H 58.897 0.762995 3.64704 0
M  V30 624 H 59.01 2.61047 4.01735 0
M  V30 625 H 57.374 1.30565 2.18689 0
M  V30 626 H 58.157 2.92929 1.79017 0
M  V30 627 N 60.6021 -1.18246 1.0419 0
M  V30 628 C 61.5651 -2.20128 0.638452 0
M  V30 629 C 62.5651 -1.57885 -0.304805 0
M  V30 630 O 63.7551 -1.73967 -0.0900369 0
M  V30 631 C 60.8871 -3.4084 -0.0637751 0
M  V30 632 H 62.0801 -2.57336 1.54007 0
M  V30 633 H 59.6331 -1.32152 0.834598 0
M  V30 634 H 60.3681 -3.09166 -0.979136 0
M  V30 635 H 60.1531 -3.8726 0.614198 0
M  V30 636 H 61.6431 -4.16274 -0.332512 0
M  V30 637 N 62.0802 -0.821533 -1.34494 0
M  V30 638 C 63.0102 -0.257138 -2.3208 0
M  V30 639 C 63.9912 0.625645 -1.58176 0
M  V30 640 O 65.1762 0.552811 -1.86166 0
M  V30 641 C 62.3062 0.582958 -3.42372 0
M  V30 642 C 61.2602 -0.202571 -4.2752 0
M  V30 643 C 60.5862 0.760179 -5.29269 0
M  V30 644 C 61.8862 -1.40998 -5.02908 0
M  V30 645 H 63.5802 -1.07247 -2.79532 0
M  V30 646 H 61.1262 -0.517163 -1.34393 0
M  V30 647 H 63.0792 0.987972 -4.09655 0
M  V30 648 H 61.8032 1.43133 -2.93565 0
M  V30 649 H 60.4622 -0.588936 -3.61838 0
M  V30 650 H 60.1102 1.60447 -4.76724 0
M  V30 651 H 59.8102 0.238809 -5.87115 0
M  V30 652 H 61.3342 1.16308 -5.9942 0
M  V30 653 H 62.7482 -1.07905 -5.63054 0
M  V30 654 H 61.1452 -1.86689 -5.70322 0
M  V30 655 H 62.2152 -2.1889 -4.32684 0
M  V30 656 N 63.5583 1.46682 -0.576371 0
M  V30 657 C 64.5213 2.28707 0.150239 0
M  V30 658 C 65.5213 1.38035 0.824794 0
M  V30 659 O 66.7113 1.60476 0.677719 0
M  V30 660 C 63.8433 3.18248 1.22192 0
M  V30 661 H 65.0363 2.94423 -0.570521 0
M  V30 662 H 62.5893 1.52688 -0.334078 0
M  V30 663 H 63.3243 2.57265 1.97447 0
M  V30 664 H 63.1093 3.85 0.742812 0
M  V30 665 H 64.5993 3.80001 1.73172 0
M  V30 666 N 65.0364 0.313813 1.54444 0
M  V30 667 C 66.3134 -0.345447 1.92525 0
M  V30 668 C 66.6934 -1.70667 1.24242 0
M  V30 669 O 66.0414 -2.25273 0.382654 0
M  V30 670 C 66.2514 -0.44737 3.46121 0
M  V30 671 C 67.5994 -0.712238 4.18584 0
M  V30 672 O 68.6234 -0.530678 3.52225 0
M  V30 673 O 67.4824 -1.06183 5.36085 0
M  V30 674 H 64.5764 -0.195407 0.803583 0
M  V30 675 H 67.1224 0.362813 1.65776 0
M  V30 676 H 65.8944 0.509043 3.87975 0
M  V30 677 H 65.5174 -1.20359 3.78945 0
M  V30 678 N 66.5145 -1.57545 0.0417849 0
M  V30 679 C 67.4775 -2.09885 -0.92093 0
M  V30 680 C 68.4775 -1.01648 -1.24596 0
M  V30 681 O 69.6675 -1.27759 -1.1842 0
M  V30 682 C 66.7995 -2.57527 -2.23367 0
M  V30 683 H 67.9925 -2.96236 -0.467382 0
M  V30 684 H 65.5455 -1.5493 -0.206467 0
M  V30 685 H 66.2805 -1.74542 -2.73323 0
M  V30 686 H 66.0655 -3.36613 -2.01083 0
M  V30 687 H 67.5555 -2.98201 -2.92346 0
M  V30 688 N 67.9926 0.231505 -1.5589 0
M  V30 689 C 69.2176 0.978689 -1.82856 0
M  V30 690 C 69.6426 1.77559 -0.620846 0
M  V30 691 O 69.0006 1.76119 0.430305 0
M  V30 692 C 69.0486 1.87997 -3.07716 0
M  V30 693 O 68.1526 2.97393 -2.85712 0
M  V30 694 H 67.4936 0.277663 -0.603158 0
M  V30 695 H 70.0236 0.24783 -2.03093 0
M  V30 696 H 70.0336 2.2917 -3.37558 0
M  V30 697 H 68.7086 1.29417 -3.95252 0
M  V30 698 H 67.2856 2.60238 -2.67078 0
M  V30 699 N 69.4707 1.49531 0.497807 0
M  V30 700 C 70.7187 1.58865 1.24926 0
M  V30 701 C 71.0397 0.278721 1.92998 0
M  V30 702 O 70.3097 -0.702144 1.82885 0
M  V30 703 H 68.8897 0.585343 0.464094 0
M  V30 704 H 71.5517 1.86174 0.57666 0
M  V30 705 H 70.6477 2.38633 2.01149 0
M  V30 706 N 70.9488 -0.749086 1.3866 0
M  V30 707 C 71.9118 -1.84457 1.36045 0
M  V30 708 C 72.9118 -1.58682 0.260122 0
M  V30 709 O 74.1018 -1.66343 0.517261 0
M  V30 710 C 71.2338 -3.22008 1.11911 0
M  V30 711 H 72.4268 -1.88182 2.33512 0
M  V30 712 H 69.9798 -0.951266 1.24019 0
M  V30 713 H 70.7148 -3.2395 0.150686 0
M  V30 714 H 70.4998 -3.42111 1.91579 0
M  V30 715 H 71.9898 -4.0208 1.12788 0
M  V30 716 N 72.4269 -1.23603 -0.977757 0
M  V30 717 C 73.8429 -0.999251 -1.24447 0
M  V30 718 C 74.0429 0.298053 -1.99283 0
M  V30 719 O 73.0989 1.01681 -2.31122 0
M  V30 720 C 74.4119 -2.20784 -2.04144 0
M  V30 721 C 75.9599 -2.25303 -2.17273 0
M  V30 722 C 76.4349 -3.45755 -3.00362 0
M  V30 723 N 77.9259 -3.4601 -3.07947 0
M  V30 724 C 78.6609 -4.35868 -3.72568 0
M  V30 725 N 78.1569 -5.35966 -4.38991 0
M  V30 726 N 79.9499 -4.23605 -3.6948 0
M  V30 727 H 72.1009 -2.06986 -0.476483 0
M  V30 728 H 74.3639 -0.907801 -0.273134 0
M  V30 729 H 74.0699 -3.14945 -1.56533 0
M  V30 730 H 73.9439 -2.22085 -3.04891 0
M  V30 731 H 76.3309 -1.3168 -2.64092 0
M  V30 732 H 76.4119 -2.28033 -1.15907 0
M  V30 733 H 76.0559 -4.39687 -2.5424 0
M  V30 734 H 75.9859 -3.40266 -4.01904 0
M  V30 735 H 78.4769 -2.73588 -2.60688 0
M  V30 736 H 78.7899 -6.00783 -4.86086 0
M  V30 737 H 77.1349 -5.39863 -4.37691 0
M  V30 738 H 80.3259 -3.44647 -3.16759 0
M  V30 739 H 80.4989 -4.93836 -4.1956 0
M  V30 740 N 73.905 1.17692 -1.04816 0
M  V30 741 C 74.835 2.23777 -0.666791 0
M  V30 742 C 75.816 1.66796 0.33361 0
M  V30 743 O 77.001 1.93039 0.212042 0
M  V30 744 C 74.131 3.47281 -0.0367933 0
M  V30 745 C 73.085 4.17059 -0.961546 0
M  V30 746 C 72.411 5.34342 -0.195626 0
M  V30 747 C 73.711 4.69713 -2.28402 0
M  V30 748 H 75.405 2.55933 -1.55367 0
M  V30 749 H 72.951 1.23019 -0.748484 0
M  V30 750 H 74.904 4.20706 0.241775 0
M  V30 751 H 73.628 3.14381 0.885004 0
M  V30 752 H 72.287 3.45541 -1.22462 0
M  V30 753 H 71.935 4.97692 0.728816 0
M  V30 754 H 71.635 5.81966 -0.811775 0
M  V30 755 H 73.159 6.10553 0.0757473 0
M  V30 756 H 74.573 5.34794 -2.06563 0
M  V30 757 H 72.97 5.279 -2.8538 0
M  V30 758 H 74.04 3.86726 -2.92525 0
M  V30 759 N 75.3831 0.828654 1.34056 0
M  V30 760 C 76.6111 0.43262 2.02326 0
M  V30 761 C 77.0261 -0.963147 1.62385 0
M  V30 762 O 76.3831 -1.62425 0.832121 0
M  V30 763 C 76.4341 0.53182 3.57567 0
M  V30 764 O 76.1551 1.87258 3.96063 0
M  V30 765 C 77.6561 0.131422 4.43105 0
M  V30 766 H 74.8761 0.172923 0.648335 0
M  V30 767 H 77.4201 1.1184 1.71208 0
M  V30 768 H 75.5751 -0.105938 3.87255 0
M  V30 769 H 75.9891 1.85087 4.90758 0
M  V30 770 H 77.4631 0.251904 5.51425 0
M  V30 771 H 77.9401 -0.925645 4.29335 0
M  V30 772 H 78.5461 0.743207 4.18756 0
M  V30 773 N 76.8612 -1.46375 0.584142 0
M  V30 774 C 77.7712 -2.34115 -0.150728 0
M  V30 775 C 78.7872 -1.49838 -0.884567 0
M  V30 776 O 79.9632 -1.82704 -0.847429 0
M  V30 777 C 77.0282 -3.2705 -1.15062 0
M  V30 778 C 76.0892 -4.27228 -0.421293 0
M  V30 779 C 75.3222 -5.15722 -1.37355 0
M  V30 780 O 75.5452 -5.07176 -2.61014 0
M  V30 781 O 74.4792 -5.95383 -0.883355 0
M  V30 782 H 78.3052 -2.98309 0.569708 0
M  V30 783 H 75.8902 -1.45373 0.344535 0
M  V30 784 H 77.7722 -3.84381 -1.72712 0
M  V30 785 H 76.4472 -2.65451 -1.8525 0
M  V30 786 H 75.3542 -3.7358 0.197085 0
M  V30 787 H 76.6872 -4.91616 0.239641 0
M  V30 788 N 78.3393 -0.321999 -1.54275 0
M  V30 789 C 79.2693 0.537411 -2.27231 0
M  V30 790 C 80.2503 1.12064 -1.27968 0
M  V30 791 O 81.4353 1.14606 -1.56777 0
M  V30 792 C 78.5653 1.69919 -3.02894 0
M  V30 793 C 77.5193 1.24534 -4.09482 0
M  V30 794 C 76.8453 2.49394 -4.72977 0
M  V30 795 C 78.1453 0.361335 -5.21049 0
M  V30 796 H 79.8393 -0.0711406 -2.99315 0
M  V30 797 H 77.3853 -0.0356555 -1.43956 0
M  V30 798 H 79.3383 2.30668 -3.52662 0
M  V30 799 H 78.0623 2.33431 -2.28424 0
M  V30 800 H 76.7213 0.660782 -3.60596 0
M  V30 801 H 76.3693 3.11265 -3.95124 0
M  V30 802 H 76.0693 2.19718 -5.44975 0
M  V30 803 H 77.5933 3.10908 -5.25517 0
M  V30 804 H 79.0073 0.875072 -5.66582 0
M  V30 805 H 77.4043 0.157428 -5.99893 0
M  V30 806 H 78.4743 -0.60822 -4.8107 0
M  V30 807 N 79.8174 1.5752 -0.0501392 0
M  V30 808 C 81.2334 1.56631 0.306402 0
M  V30 809 C 81.4334 1.0577 1.71508 0
M  V30 810 O 80.4894 0.713837 2.422 0
M  V30 811 C 81.8024 3.00393 0.135811 0
M  V30 812 C 83.3504 3.12315 0.206993 0
M  V30 813 C 83.8254 4.57954 0.064944 0
M  V30 814 N 85.3164 4.63041 0.121254 0
M  V30 815 C 86.0514 5.73389 0.0354381 0
M  V30 816 N 85.5474 6.92724 -0.102666 0
M  V30 817 N 87.3404 5.62026 0.090946 0
M  V30 818 H 79.4914 1.88903 -0.971046 0
M  V30 819 H 81.7544 0.869876 -0.376855 0
M  V30 820 H 81.4604 3.41635 -0.835384 0
M  V30 821 H 81.3344 3.66373 0.897275 0
M  V30 822 H 83.7214 2.70973 1.16866 0
M  V30 823 H 83.8024 2.49016 -0.585208 0
M  V30 824 H 83.4464 4.99981 -0.893394 0
M  V30 825 H 83.3764 5.19258 0.876277 0
M  V30 826 H 85.8674 3.77216 0.227284 0
M  V30 827 H 86.1804 7.72633 -0.160882 0
M  V30 828 H 84.5254 6.94864 -0.137737 0
M  V30 829 H 87.7164 4.67684 0.197388 0
M  V30 830 H 87.8894 6.47997 0.0206089 0
M  V30 831 N 81.2955 -0.223234 1.56011 0
M  V30 832 C 82.2055 -1.29766 1.95443 0
M  V30 833 C 83.2215 -1.51373 0.858028 0
M  V30 834 O 84.3975 -1.64536 1.16146 0
M  V30 835 C 81.4625 -2.62772 2.26167 0
M  V30 836 C 80.5235 -2.49482 3.49367 0
M  V30 837 C 79.7565 -3.76145 3.78616 0
M  V30 838 O 79.9795 -4.79087 3.09568 0
M  V30 839 O 78.9135 -3.73358 4.72109 0
M  V30 840 H 82.7395 -0.99309 2.87004 0
M  V30 841 H 80.3245 -0.425958 1.43199 0
M  V30 842 H 82.2065 -3.41327 2.47131 0
M  V30 843 H 80.8815 -2.92913 1.37781 0
M  V30 844 H 79.7885 -1.69133 3.33684 0
M  V30 845 H 81.1215 -2.2428 4.38131 0
M  V30 846 N 82.7736 -1.49793 -0.48987 0
M  V30 847 C 84.0506 -1.50348 -1.25119 0
M  V30 848 C 84.4306 -0.237466 -2.0976 0
M  V30 849 O 83.7786 0.77981 -2.14782 0
M  V30 850 C 83.9886 -2.78872 -2.09837 0
M  V30 851 C 85.3366 -3.288 -2.68655 0
M  V30 852 O 86.3606 -2.80065 -2.20096 0
M  V30 853 O 85.2196 -4.13707 -3.57083 0
M  V30 854 H 82.3136 -0.602242 -0.566775 0
M  V30 855 H 84.8596 -1.62067 -0.503229 0
M  V30 856 H 83.6316 -3.62499 -1.47343 0
M  V30 857 H 83.2546 -2.70066 -2.91805 0
M  V30 858 N 84.2517 0.741722 -1.39055 0
M  V30 859 C 85.5007 1.49656 -1.35225 0
M  V30 860 C 85.8137 1.95533 0.0512708 0
M  V30 861 O 87.0197 2.7067 0.212138 0
M  V30 862 C 85.4757 2.70389 -2.37525 0
M  V30 863 C 85.0837 2.31489 -3.83558 0
M  V30 864 C 86.8277 3.48236 -2.42759 0
M  V30 865 C 84.7347 3.48903 -4.77515 0
M  V30 866 H 83.6647 0.56197 -0.502699 0
M  V30 867 H 86.3157 0.809727 -1.64668 0
M  V30 868 H 84.6977 3.41113 -2.01142 0
M  V30 869 H 85.8717 1.68354 -4.28945 0
M  V30 870 H 84.1867 1.66749 -3.81554 0
M  V30 871 H 86.7837 4.35558 -3.1015 0
M  V30 872 H 87.1267 3.90229 -1.45008 0
M  V30 873 H 87.6597 2.84535 -2.78002 0
M  V30 874 H 84.3987 3.11966 -5.76504 0
M  V30 875 H 83.9187 4.11041 -4.36813 0
M  V30 876 H 85.5977 4.15328 -4.96096 0
M  V30 877 N 85.7298 1.2412 0.971189 0
M  V30 878 C 87.0068 0.986867 1.6888 0
M  V30 879 C 87.3868 -0.491857 2.0529 0
M  V30 880 O 86.7348 -1.46531 1.75331 0
M  V30 881 C 86.9448 1.9063 2.92338 0
M  V30 882 C 88.2928 2.17515 3.64654 0
M  V30 883 O 89.3168 1.88254 3.02388 0
M  V30 884 O 88.1758 2.6719 4.7673 0
M  V30 885 H 85.2698 0.372944 0.738134 0
M  V30 886 H 87.8158 1.35203 1.02559 0
M  V30 887 H 86.5878 2.90552 2.62097 0
M  V30 888 H 86.2108 1.54408 3.66393 0
M  V30 889 N 87.2079 -1.17134 1.05439 0
M  V30 890 C 88.1709 -2.19439 0.661764 0
M  V30 891 C 89.1709 -1.58199 -0.288042 0
M  V30 892 O 90.3609 -1.74053 -0.0715803 0
M  V30 893 C 87.4929 -3.40889 -0.0276209 0
M  V30 894 H 88.6859 -2.55688 1.56728 0
M  V30 895 H 86.2389 -1.31259 0.848567 0
M  V30 896 H 86.9739 -3.10187 -0.94629 0
M  V30 897 H 86.7589 -3.86586 0.655238 0
M  V30 898 H 88.2489 -4.16603 -0.288342 0
M  V30 899 N 88.686 -0.835752 -1.33615 0
M  V30 900 C 89.935 -0.426289 -1.97144 0
M  V30 901 C 90.248 1.01912 -1.66953 0
M  V30 902 O 91.454 1.53311 -2.24072 0
M  V30 903 C 89.91 -0.711321 -3.52801 0
M  V30 904 C 89.518 -2.1712 -3.91871 0
M  V30 905 C 91.262 -0.368654 -4.22896 0
M  V30 906 C 89.169 -2.40044 -5.40493 0
M  V30 907 H 88.099 -0.15567 -0.737755 0
M  V30 908 H 90.75 -1.0239 -1.52278 0
M  V30 909 H 89.132 -0.0433766 -3.95976 0
M  V30 910 H 90.306 -2.87936 -3.59763 0
M  V30 911 H 88.621 -2.47654 -3.34749 0
M  V30 912 H 91.218 -0.517601 -5.32189 0
M  V30 913 H 91.561 0.688078 -4.10574 0
M  V30 914 H 92.094 -0.991702 -3.8524 0
M  V30 915 H 88.833 -3.44271 -5.57815 0
M  V30 916 H 88.353 -1.73785 -5.74072 0
M  V30 917 H 90.032 -2.23042 -6.0734 0
M  V30 918 N 90.1641 1.46063 -0.591896 0
M  V30 919 C 91.0941 2.33172 0.123673 0
M  V30 920 C 92.0751 1.45897 0.87453 0
M  V30 921 O 93.2601 1.74698 0.848181 0
M  V30 922 C 90.3901 3.28336 1.13194 0
M  V30 923 C 89.3441 4.25124 0.495324 0
M  V30 924 C 88.6701 5.09863 1.61071 0
M  V30 925 C 89.9701 5.19143 -0.573425 0
M  V30 926 H 91.6641 2.93252 -0.603646 0
M  V30 927 H 89.2101 1.41014 -0.291741 0
M  V30 928 H 91.1631 3.88137 1.64097 0
M  V30 929 H 89.8871 2.66383 1.88965 0
M  V30 930 H 88.5461 3.66599 0.00729452 0
M  V30 931 H 88.1941 4.44288 2.35832 0
M  V30 932 H 87.8941 5.75417 1.19035 0
M  V30 933 H 89.4181 5.72529 2.12233 0
M  V30 934 H 90.8321 5.73106 -0.1491 0
M  V30 935 H 89.2291 5.93089 -0.914636 0
M  V30 936 H 90.2991 4.62519 -1.45617 0
M  V30 937 N 91.6422 0.330177 1.54103 0
M  V30 938 C 92.5522 -0.541534 2.28264 0
M  V30 939 C 93.5682 -1.12351 1.32866 0
M  V30 940 O 94.7442 -1.14206 1.65888 0
M  V30 941 C 91.8092 -1.68322 3.03098 0
M  V30 942 C 90.8702 -1.13238 4.14096 0
M  V30 943 C 90.1032 -2.21966 4.85352 0
M  V30 944 O 90.3262 -3.42437 4.56172 0
M  V30 945 O 89.2602 -1.87013 5.7211 0
M  V30 946 H 93.0862 0.060938 3.03639 0
M  V30 947 H 90.6712 0.09565 1.49093 0
M  V30 948 H 92.5532 -2.34777 3.49939 0
M  V30 949 H 91.2282 -2.27176 2.30593 0
M  V30 950 H 90.1352 -0.432736 3.71589 0
M  V30 951 H 91.4682 -0.588898 4.88664 0
M  V30 952 N 93.1203 -1.57491 0.0584922 0
M  V30 953 C 94.3973 -1.84346 -0.653918 0
M  V30 954 C 94.7773 -0.948355 -1.88599 0
M  V30 955 O 94.1253 -0.0112403 -2.28497 0
M  V30 956 C 94.3353 -3.34239 -1.00425 0
M  V30 957 C 95.6833 -4.01431 -1.38342 0
M  V30 958 O 96.7073 -3.38907 -1.09637 0
M  V30 959 O 95.5663 -5.11683 -1.91943 0
M  V30 960 H 92.6603 -0.761112 -0.323478 0
M  V30 961 H 95.2063 -1.6947 0.0884125 0
M  V30 962 H 93.9783 -3.91089 -0.128625 0
M  V30 963 H 93.6013 -3.54329 -1.80378 0
M  V30 964 N 94.5984 0.214957 -1.56127 0
M  V30 965 C 96.0094 0.781386 -1.69562 0
M  V30 966 C 96.3604 1.84707 -0.66165 0
M  V30 967 O 95.4854 2.156 0.185927 0
M  V30 968 C 96.0804 1.42411 -3.07416 0
M  V30 969 C 94.6394 1.93786 -3.22683 0
M  V30 970 C 93.7864 0.800438 -2.65496 0
M  V30 971 H 96.7374 -0.00980633 -1.58697 0
M  V30 972 H 96.7584 2.29309 -3.0364 0
M  V30 973 H 96.2704 0.64826 -3.82648 0
M  V30 974 H 94.3714 2.74152 -2.52332 0
M  V30 975 H 94.4844 2.1133 -4.29973 0
M  V30 976 H 92.8484 1.2095 -2.2415 0
M  V30 977 H 93.6314 0.0371471 -3.4328 0
M  V30 978 N 96.0765 1.50051 0.48192 0
M  V30 979 C 97.0395 1.67584 1.5636 0
M  V30 980 C 98.0395 0.546894 1.51214 0
M  V30 981 O 99.2295 0.813725 1.54026 0
M  V30 982 C 96.3615 1.691 2.96003 0
M  V30 983 H 97.5545 2.64078 1.42136 0
M  V30 984 H 95.1075 1.39369 0.707533 0
M  V30 985 H 95.8425 0.742589 3.15684 0
M  V30 986 H 95.6275 2.51105 3.01146 0
M  V30 987 H 97.1175 1.84656 3.74556 0
M  V30 988 N 97.5546 -0.734337 1.39446 0
M  V30 989 C 98.4846 -1.86155 1.40955 0
M  V30 990 C 99.4656 -1.67898 0.272827 0
M  V30 991 O 100.651 -1.88207 0.478743 0
M  V30 992 C 97.7806 -3.23912 1.25294 0
M  V30 993 C 96.7346 -3.56808 2.36373 0
M  V30 994 C 96.0606 -4.93508 2.058 0
M  V30 995 C 97.3606 -3.59713 3.78687 0
M  V30 996 H 99.0546 -1.8515 2.35287 0
M  V30 997 H 96.6006 -0.889367 1.13253 0
M  V30 998 H 98.5536 -4.02443 1.2497 0
M  V30 999 H 97.2776 -3.25446 0.274308 0
M  V30 1000 H 95.9366 -2.80606 2.35914 0
M  V30 1001 H 95.5846 -4.91623 1.06374 0
M  V30 1002 H 95.2846 -5.16486 2.80208 0
M  V30 1003 H 96.8086 -5.74396 2.07128 0
M  V30 1004 H 98.2226 -4.2832 3.81071 0
M  V30 1005 H 96.6196 -3.94209 4.52459 0
M  V30 1006 H 97.6896 -2.59504 4.09617 0
M  V30 1007 N 99.0327 -1.24633 -0.964593 0
M  V30 1008 C 99.9427 -1.05859 -2.09359 0
M  V30 1009 C 100.959 0.00148855 -1.74 0
M  V30 1010 O 102.135 -0.197346 -2.00431 0
M  V30 1011 C 99.1997 -0.668879 -3.40187 0
M  V30 1012 C 98.2607 -1.80578 -3.89474 0
M  V30 1013 C 97.4937 -1.43457 -5.14058 0
M  V30 1014 O 97.7167 -0.325775 -5.69469 0
M  V30 1015 O 96.6507 -2.2613 -5.57807 0
M  V30 1016 H 100.477 -2.00516 -2.28094 0
M  V30 1017 H 98.0617 -1.03481 -1.0776 0
M  V30 1018 H 99.9437 -0.463211 -4.18846 0
M  V30 1019 H 98.6187 0.248536 -3.22744 0
M  V30 1020 H 97.5257 -2.06623 -3.11862 0
M  V30 1021 H 98.8587 -2.70208 -4.11398 0
M  V30 1022 N 100.511 1.16574 -1.06058 0
M  V30 1023 C 101.759 1.86677 -0.77434 0
M  V30 1024 C 102.08 1.81959 0.701147 0
M  V30 1025 O 101.35 1.2515 1.50713 0
M  V30 1026 H 99.9298 0.691134 -0.283449 0
M  V30 1027 H 102.592 1.41378 -1.34158 0
M  V30 1028 H 101.688 2.92181 -1.09711 0
M  V30 1029 N 101.989 0.842826 1.3317 0
M  V30 1030 C 102.952 0.284065 2.27433 0
M  V30 1031 C 103.952 -0.54948 1.5112 0
M  V30 1032 O 105.142 -0.362699 1.70382 0
M  V30 1033 C 102.274 -0.599384 3.35589 0
M  V30 1034 H 103.467 1.11589 2.78366 0
M  V30 1035 H 101.02 0.616221 1.4364 0
M  V30 1036 H 101.755 -1.45349 2.89904 0
M  V30 1037 H 101.54 -0.00291266 3.921 0
M  V30 1038 H 103.03 -0.983488 4.05854 0
M  V30 1039 N 103.467 -1.45747 0.599634 0
M  V30 1040 C 104.713 -2.02592 0.0918643 0
M  V30 1041 C 105.046 -1.46806 -1.27128 0
M  V30 1042 O 104.321 -0.639658 -1.83681 0
M  V30 1043 C 104.604 -3.60073 0.0443398 0
M  V30 1044 C 104.457 -4.26208 1.43759 0
M  V30 1045 C 105.776 -4.35309 -0.647608 0
M  V30 1046 H 102.895 -0.736175 0.034857 0
M  V30 1047 H 105.537 -1.73694 0.770081 0
M  V30 1048 H 103.687 -3.84823 -0.533224 0
M  V30 1049 H 105.359 -4.12668 2.06162 0
M  V30 1050 H 103.602 -3.84916 2.00056 0
M  V30 1051 H 104.273 -5.35069 1.35665 0
M  V30 1052 H 106.749 -4.15805 -0.156776 0
M  V30 1053 H 105.625 -5.45038 -0.649942 0
M  V30 1054 H 105.886 -4.07598 -1.71219 0
M  V30 1055 N 104.945 -0.338344 -1.53925 0
M  V30 1056 C 106.17 0.263987 -2.05713 0
M  V30 1057 C 106.595 1.43847 -1.21201 0
M  V30 1058 O 105.953 1.79904 -0.224535 0
M  V30 1059 C 106.001 0.662 -3.54471 0
M  V30 1060 O 105.105 1.76265 -3.72833 0
M  V30 1061 H 104.446 0.0448722 -0.662482 0
M  V30 1062 H 106.976 -0.491048 -1.9862 0
M  V30 1063 H 106.986 0.940594 -3.9701 0
M  V30 1064 H 105.661 -0.196937 -4.15433 0
M  V30 1065 H 104.238 1.48173 -3.42198 0
M  V30 1066 N 106.423 1.57458 -0.0668435 0
M  V30 1067 C 107.671 1.92919 0.602214 0
M  V30 1068 C 107.992 0.947215 1.70449 0
M  V30 1069 O 107.262 -0.00544117 1.95899 0
M  V30 1070 H 105.842 0.71217 0.22544 0
M  V30 1071 H 108.504 1.94508 -0.123535 0
M  V30 1072 H 107.6 2.94589 1.03073 0
M  V30 1073 N 107.901 -0.206675 1.56239 0
M  V30 1074 C 109.147 -0.930218 1.80208 0
M  V30 1075 C 109.48 -1.83387 0.638981 0
M  V30 1076 O 108.755 -1.91119 -0.361066 0
M  V30 1077 C 109.038 -1.75641 3.1436 0
M  V30 1078 C 108.891 -0.878257 4.41142 0
M  V30 1079 C 110.21 -2.73129 3.45092 0
M  V30 1080 H 107.329 -0.336742 0.655571 0
M  V30 1081 H 109.971 -0.198222 1.88963 0
M  V30 1082 H 108.121 -2.38048 3.07027 0
M  V30 1083 H 109.793 -0.269787 4.6051 0
M  V30 1084 H 108.036 -0.184385 4.33408 0
M  V30 1085 H 108.707 -1.49106 5.3148 0
M  V30 1086 H 111.183 -2.20856 3.52649 0
M  V30 1087 H 110.059 -3.28028 4.40101 0
M  V30 1088 H 110.32 -3.51606 2.68003 0
M  V30 1089 N 109.379 -1.50304 -0.473955 0
M  V30 1090 C 110.625 -1.61389 -1.22806 0
M  V30 1091 C 110.958 -0.311955 -1.91678 0
M  V30 1092 O 110.233 0.686384 -1.81986 0
M  V30 1093 C 110.516 -2.79219 -2.27396 0
M  V30 1094 C 110.369 -4.19286 -1.62848 0
M  V30 1095 C 111.688 -2.92614 -3.28732 0
M  V30 1096 H 108.807 -0.587399 -0.445119 0
M  V30 1097 H 111.449 -1.82681 -0.522265 0
M  V30 1098 H 109.599 -2.61195 -2.87592 0
M  V30 1099 H 111.271 -4.48892 -1.06271 0
M  V30 1100 H 109.514 -4.23677 -0.931693 0
M  V30 1101 H 110.185 -4.97655 -2.38838 0
M  V30 1102 H 112.661 -3.09105 -2.78556 0
M  V30 1103 H 111.537 -3.76688 -3.99246 0
M  V30 1104 H 111.798 -2.03107 -3.92683 0
M  V30 1105 N 110.857 0.726932 -1.39834 0
M  V30 1106 C 112.103 1.48884 -1.377 0
M  V30 1107 C 112.436 1.94185 0.0244852 0
M  V30 1108 O 111.711 1.67361 0.990986 0
M  V30 1109 C 111.994 2.72288 -2.3565 0
M  V30 1110 C 111.847 2.32956 -3.84775 0
M  V30 1111 C 113.166 3.74414 -2.31306 0
M  V30 1112 H 110.285 0.540062 -0.5015 0
M  V30 1113 H 112.927 0.830547 -1.70886 0
M  V30 1114 H 111.077 3.28457 -2.07481 0
M  V30 1115 H 112.749 1.82356 -4.23726 0
M  V30 1116 H 110.992 1.65088 -4.01159 0
M  V30 1117 H 111.663 3.21362 -4.4881 0
M  V30 1118 H 114.139 3.27849 -2.56231 0
M  V30 1119 H 113.015 4.58414 -3.01907 0
M  V30 1120 H 113.276 4.21909 -1.32081 0
M  V30 1121 N 112.336 1.25143 0.95797 0
M  V30 1122 C 113.582 1.09855 1.70469 0
M  V30 1123 C 113.915 -0.360187 1.90831 0
M  V30 1124 O 113.19 -1.26568 1.47685 0
M  V30 1125 C 113.473 1.8497 3.08963 0
M  V30 1126 C 113.326 3.38652 2.96032 0
M  V30 1127 C 114.645 1.63016 4.08795 0
M  V30 1128 H 111.764 0.400465 0.618706 0
M  V30 1129 H 114.406 1.53933 1.11376 0
M  V30 1130 H 112.556 1.47505 3.59409 0
M  V30 1131 H 114.228 3.85772 2.52938 0
M  V30 1132 H 112.471 3.66534 2.32025 0
M  V30 1133 H 113.142 3.8642 3.94187 0
M  V30 1134 H 115.618 1.95625 3.67247 0
M  V30 1135 H 114.494 2.18015 5.03747 0
M  V30 1136 H 114.755 0.570692 4.38401 0
M  V30 1137 N 113.814 -1.1601 1.06675 0
M  V30 1138 C 115.091 -1.82679 0.699114 0
M  V30 1139 C 115.471 -1.94559 -0.819137 0
M  V30 1140 O 114.819 -1.49169 -1.73092 0
M  V30 1141 C 115.029 -3.19445 1.40555 0
M  V30 1142 C 116.377 -3.95171 1.55323 0
M  V30 1143 O 117.401 -3.28976 1.36577 0
M  V30 1144 O 116.26 -5.13833 1.86112 0
M  V30 1145 H 113.354 -0.788954 0.247951 0
M  V30 1146 H 115.9 -1.23179 1.16726 0
M  V30 1147 H 114.672 -3.05856 2.44065 0
M  V30 1148 H 114.295 -3.86625 0.927733 0
M  V30 1149 N 115.292 -0.849877 -1.32721 0
M  V30 1150 C 116.52 -0.464754 -2.01613 0
M  V30 1151 C 116.935 0.937191 -1.63897 0
M  V30 1152 O 116.292 1.61081 -0.857856 0
M  V30 1153 C 116.343 -0.588638 -3.56675 0
M  V30 1154 O 116.064 -1.93535 -3.93034 0
M  V30 1155 C 117.565 -0.2019 -4.4284 0
M  V30 1156 H 114.785 -0.183215 -0.645502 0
M  V30 1157 H 117.329 -1.1455 -1.69407 0
M  V30 1158 H 115.484 0.0443159 -3.87375 0
M  V30 1159 H 115.898 -1.92871 -4.87751 0
M  V30 1160 H 117.372 -0.339599 -5.50954 0
M  V30 1161 H 117.849 0.857224 -4.30753 0
M  V30 1162 H 118.455 -0.809733 -4.17521 0
M  V30 1163 N 116.77 1.45427 -0.607355 0
M  V30 1164 C 117.733 2.28974 0.101693 0
M  V30 1165 C 118.733 1.39754 0.795329 0
M  V30 1166 O 119.923 1.61878 0.643527 0
M  V30 1167 C 117.055 3.20768 1.15414 0
M  V30 1168 H 118.248 2.93147 -0.632844 0
M  V30 1169 H 115.801 1.51945 -0.366391 0
M  V30 1170 H 116.536 2.61395 1.91945 0
M  V30 1171 H 116.321 3.86489 0.66098 0
M  V30 1172 H 117.811 3.83589 1.65073 0
M  V30 1173 N 118.248 0.346503 1.53744 0
M  V30 1174 C 119.476 -0.25041 2.05379 0
M  V30 1175 C 119.891 -1.43979 1.22129 0
M  V30 1176 O 119.248 -1.80677 0.257321 0
M  V30 1177 C 119.299 -0.662575 3.55376 0
M  V30 1178 O 119.02 0.479515 4.35468 0
M  V30 1179 C 120.521 -1.31989 4.23195 0
M  V30 1180 H 117.741 -0.0478198 0.669294 0
M  V30 1181 H 120.285 0.499346 1.9831 0
M  V30 1182 H 118.44 -1.36227 3.62658 0
M  V30 1183 H 118.854 0.15037 5.24284 0
M  V30 1184 H 120.328 -1.55902 5.29527 0
M  V30 1185 H 120.805 -2.27436 3.75725 0
M  V30 1186 H 121.411 -0.662154 4.20114 0
M  V30 1187 N 119.726 -1.57421 0.075193 0
M  V30 1188 C 120.974 -1.93236 -0.591974 0
M  V30 1189 C 121.295 -0.956241 -1.69944 0
M  V30 1190 O 120.565 -0.00494792 -1.95899 0
M  V30 1191 H 119.145 -0.713355 -0.22166 0
M  V30 1192 H 121.807 -1.9444 0.133848 0
M  V30 1193 H 120.903 -2.95131 -1.01509 0
M  V30 1194 N 121.204 0.198386 -1.56346 0
M  V30 1195 C 122.114 1.2664 -1.97483 0
M  V30 1196 C 123.13 1.49989 -0.882002 0
M  V30 1197 O 124.306 1.62668 -1.18748 0
M  V30 1198 C 121.371 2.59141 -2.30319 0
M  V30 1199 C 120.432 2.43892 -3.53292 0
M  V30 1200 C 119.665 3.70074 -3.84553 0
M  V30 1201 O 119.888 4.74101 -3.1715 0
M  V30 1202 O 118.822 3.658 -4.7799 0
M  V30 1203 H 122.648 0.947304 -2.88548 0
M  V30 1204 H 120.233 0.403123 -1.43859 0
M  V30 1205 H 122.115 3.37352 -2.5253 0
M  V30 1206 H 120.79 2.90684 -1.42423 0
M  V30 1207 H 119.697 1.63803 -3.36332 0
M  V30 1208 H 121.03 2.17282 -4.41644 0
M  V30 1209 N 122.682 1.50554 0.465978 0
M  V30 1210 C 123.592 1.72585 1.58907 0
M  V30 1211 C 124.608 0.60911 1.6299 0
M  V30 1212 O 125.784 0.88804 1.80765 0
M  V30 1213 C 122.849 1.81995 2.95091 0
M  V30 1214 C 121.91 3.05751 3.01355 0
M  V30 1215 C 121.143 3.14702 4.31043 0
M  V30 1216 O 121.366 2.30313 5.21835 0
M  V30 1217 O 120.3 4.07468 4.43005 0
M  V30 1218 H 124.126 2.67799 1.43239 0
M  V30 1219 H 121.711 1.34711 0.646013 0
M  V30 1220 H 123.593 1.90335 3.75966 0
M  V30 1221 H 122.268 0.899659 3.10947 0
M  V30 1222 H 121.175 3.02908 2.19539 0
M  V30 1223 H 122.508 3.97375 2.90437 0
M  V30 1224 N 124.16 -0.719506 1.40217 0
M  V30 1225 C 125.09 -1.8465 1.42922 0
M  V30 1226 C 126.071 -1.67599 0.29062 0
M  V30 1227 O 127.256 -1.87688 0.498677 0
M  V30 1228 C 124.386 -3.22565 1.28722 0
M  V30 1229 C 123.34 -3.54281 2.40144 0
M  V30 1230 C 122.666 -4.91298 2.11023 0
M  V30 1231 C 123.966 -3.55676 3.82481 0
M  V30 1232 H 125.66 -1.82644 2.37237 0
M  V30 1233 H 123.206 -0.877305 1.1419 0
M  V30 1234 H 125.159 -4.01095 1.29232 0
M  V30 1235 H 123.883 -3.25137 0.308811 0
M  V30 1236 H 122.542 -2.78088 2.38877 0
M  V30 1237 H 122.19 -4.90468 1.11582 0
M  V30 1238 H 121.89 -5.13485 2.8567 0
M  V30 1239 H 123.414 -5.72166 2.13209 0
M  V30 1240 H 124.828 -4.24254 3.85592 0
M  V30 1241 H 123.225 -3.89388 4.56614 0
M  V30 1242 H 124.295 -2.55144 4.12346 0
M  V30 1243 N 125.638 -1.25649 -0.95132 0
M  V30 1244 C 126.868 -1.13179 -1.72841 0
M  V30 1245 C 127.276 0.316827 -1.86528 0
M  V30 1246 O 126.619 1.22948 -1.3649 0
M  V30 1247 C 126.681 -1.71644 -3.15878 0
M  V30 1248 C 126.345 -3.20667 -3.25609 0
M  V30 1249 C 127.342 -4.17616 -3.09666 0
M  V30 1250 C 125.027 -3.6094 -3.49324 0
M  V30 1251 C 127.021 -5.52817 -3.17289 0
M  V30 1252 C 124.708 -4.96278 -3.56584 0
M  V30 1253 C 125.706 -5.92025 -3.40581 0
M  V30 1254 O 125.394 -7.24899 -3.47528 0
M  V30 1255 H 125.126 -0.395389 -0.54831 0
M  V30 1256 H 127.68 -1.66566 -1.20187 0
M  V30 1257 H 125.91 -1.12707 -3.69911 0
M  V30 1258 H 127.599 -1.54225 -3.75459 0
M  V30 1259 H 128.365 -3.87842 -2.91211 0
M  V30 1260 H 124.244 -2.86907 -3.6084 0
M  V30 1261 H 127.788 -6.2753 -3.04716 0
M  V30 1262 H 123.685 -5.25716 -3.74556 0
M  V30 1263 H 124.453 -7.33039 -3.64138 0
M  V30 1264 N 127.117 1.15442 -1.07289 0
M  V30 1265 C 128.342 1.90638 -0.816828 0
M  V30 1266 C 128.767 1.77445 0.624083 0
M  V30 1267 O 128.125 1.10671 1.43602 0
M  V30 1268 C 128.173 3.39008 -1.22906 0
M  V30 1269 O 127.277 4.10701 -0.373975 0
M  V30 1270 H 126.618 0.593555 -0.297638 0
M  V30 1271 H 129.148 1.46198 -1.43134 0
M  V30 1272 H 129.158 3.89801 -1.20497 0
M  V30 1273 H 127.833 3.47929 -2.27856 0
M  V30 1274 H 126.41 3.70046 -0.460499 0
M  V30 1275 N 128.595 0.856903 1.32268 0
M  V30 1276 C 130.011 0.547061 1.49931 0
M  V30 1277 C 130.211 -0.921781 1.7918 0
M  V30 1278 O 129.267 -1.70469 1.8627 0
M  V30 1279 C 130.58 1.43599 2.64196 0
M  V30 1280 C 132.128 1.43665 2.78081 0
M  V30 1281 C 132.603 2.31085 3.95428 0
M  V30 1282 N 134.094 2.28893 4.02694 0
M  V30 1283 C 134.829 2.93262 4.92732 0
M  V30 1284 N 134.325 3.66751 5.87763 0
M  V30 1285 N 136.118 2.82638 4.85873 0
M  V30 1286 H 128.269 1.8075 1.11549 0
M  V30 1287 H 130.532 0.772144 0.549997 0
M  V30 1288 H 130.238 2.48058 2.49319 0
M  V30 1289 H 130.112 1.12502 3.60032 0
M  V30 1290 H 132.499 0.399701 2.92381 0
M  V30 1291 H 132.58 1.7878 1.82952 0
M  V30 1292 H 132.224 3.34849 3.81888 0
M  V30 1293 H 132.154 1.93302 4.89839 0
M  V30 1294 H 134.645 1.75466 3.34694 0
M  V30 1295 H 134.958 4.13027 6.53168 0
M  V30 1296 H 133.303 3.70859 5.87783 0
M  V30 1297 H 136.494 2.24774 4.10602 0
M  V30 1298 H 136.667 3.33084 5.55841 0
M  V30 1299 N 130.073 -1.45103 0.615059 0
M  V30 1300 C 131.35 -1.95549 0.0448276 0
M  V30 1301 C 131.73 -1.55737 -1.4251 0
M  V30 1302 O 131.078 -0.823556 -2.13143 0
M  V30 1303 C 131.288 -3.48098 0.250785 0
M  V30 1304 C 132.636 -4.24384 0.135509 0
M  V30 1305 O 133.66 -3.55738 0.181299 0
M  V30 1306 O 132.519 -5.46493 0.0268878 0
M  V30 1307 H 129.613 -0.8264 -0.0314845 0
M  V30 1308 H 132.159 -1.55232 0.685642 0
M  V30 1309 H 130.931 -3.7007 1.27139 0
M  V30 1310 H 130.554 -3.95323 -0.424937 0
M  V30 1311 N 131.551 -0.354651 -1.53558 0
M  V30 1312 C 132.799 0.237972 -2.00694 0
M  V30 1313 C 133.12 1.50173 -1.24391 0
M  V30 1314 O 132.39 1.92673 -0.354135 0
M  V30 1315 H 130.97 0.0909256 -0.741446 0
M  V30 1316 H 133.632 -0.478368 -1.88938 0
M  V30 1317 H 132.728 0.47264 -3.085 0
M  V30 1318 N 133.029 1.57378 -0.0835403 0
M  V30 1319 C 134.277 1.93547 0.581718 0
M  V30 1320 C 134.598 0.96524 1.69435 0
M  V30 1321 O 133.868 0.0153369 1.95894 0
M  V30 1322 H 132.448 0.714521 0.217874 0
M  V30 1323 H 135.11 1.94366 -0.144158 0
M  V30 1324 H 134.206 2.95665 0.999423 0
M  V30 1325 N 134.507 -0.190092 1.56449 0
M  V30 1326 C 135.417 -1.25591 1.98152 0
M  V30 1327 C 136.433 -1.49519 0.889944 0
M  V30 1328 O 137.609 -1.62036 1.19609 0
M  V30 1329 C 134.674 -2.57916 2.3169 0
M  V30 1330 C 133.735 -2.42015 3.5458 0
M  V30 1331 C 132.968 -3.6803 3.8651 0
M  V30 1332 O 133.191 -4.72413 3.1966 0
M  V30 1333 O 132.125 -3.6326 4.79923 0
M  V30 1334 H 135.951 -0.931988 2.89046 0
M  V30 1335 H 133.536 -0.395488 1.4407 0
M  V30 1336 H 135.418 -3.36008 2.54316 0
M  V30 1337 H 134.093 -2.89925 1.43963 0
M  V30 1338 H 133 -1.62017 3.37196 0
M  V30 1339 H 134.333 -2.14937 4.4279 0
M  V30 1340 N 135.985 -1.50799 -0.457987 0
M  V30 1341 C 136.917 -1.66786 -1.57211 0
M  V30 1342 C 137.93 -0.548962 -1.53265 0
M  V30 1343 O 139.119 -0.8226 -1.58416 0
M  V30 1344 C 136.219 -1.64834 -2.96113 0
M  V30 1345 C 135.392 -2.92971 -3.24787 0
M  V30 1346 C 134.451 -2.83485 -4.43309 0
M  V30 1347 O 133.477 -3.5744 -4.42973 0
M  V30 1348 N 134.679 -1.97929 -5.45714 0
M  V30 1349 H 137.444 -2.62889 -1.43909 0
M  V30 1350 H 135.005 -1.48427 -0.646617 0
M  V30 1351 H 136.997 -1.56084 -3.7339 0
M  V30 1352 H 135.567 -0.764118 -3.03117 0
M  V30 1353 H 134.787 -3.15749 -2.36 0
M  V30 1354 H 136.075 -3.77834 -3.40762 0
M  V30 1355 H 135.473 -1.37182 -5.48815 0
M  V30 1356 H 134.03 -1.95073 -6.21924 0
M  V30 1357 N 137.463 0.71206 -1.40597 0
M  V30 1358 C 138.393 1.83889 -1.43899 0
M  V30 1359 C 139.374 1.67442 -0.299504 0
M  V30 1360 O 140.559 1.87421 -0.508624 0
M  V30 1361 C 137.689 3.21877 -1.30431 0
M  V30 1362 C 136.643 3.53002 -2.42019 0
M  V30 1363 C 135.969 4.90172 -2.13626 0
M  V30 1364 C 137.269 3.53643 -3.84362 0
M  V30 1365 H 138.963 1.81383 -2.38203 0
M  V30 1366 H 136.509 0.871237 -1.14654 0
M  V30 1367 H 138.462 4.00404 -1.31357 0
M  V30 1368 H 137.186 3.24968 -0.326049 0
M  V30 1369 H 135.845 2.76818 -2.40349 0
M  V30 1370 H 135.493 4.89869 -1.14182 0
M  V30 1371 H 135.193 5.11962 -2.88389 0
M  V30 1372 H 136.717 5.71028 -2.1624 0
M  V30 1373 H 138.131 4.22203 -3.87837 0
M  V30 1374 H 136.528 3.86961 -4.58673 0
M  V30 1375 H 137.598 2.52954 -4.13693 0
M  V30 1376 N 138.941 1.26152 0.944643 0
M  V30 1377 C 139.871 1.09902 2.06019 0
M  V30 1378 C 140.852 0.00519538 1.70099 0
M  V30 1379 O 142.037 0.176583 1.93396 0
M  V30 1380 C 139.167 0.727562 3.39594 0
M  V30 1381 C 138.121 1.77274 3.89561 0
M  V30 1382 C 137.447 1.25569 5.19747 0
M  V30 1383 C 138.747 3.17357 4.14827 0
M  V30 1384 H 140.441 2.03217 2.19871 0
M  V30 1385 H 137.987 0.978452 1.05652 0
M  V30 1386 H 139.94 0.600777 4.17095 0
M  V30 1387 H 138.664 -0.241287 3.25707 0
M  V30 1388 H 137.323 1.88814 3.14237 0
M  V30 1389 H 136.971 0.276783 5.02238 0
M  V30 1390 H 136.671 1.95433 5.54148 0
M  V30 1391 H 138.195 1.1415 5.99835 0
M  V30 1392 H 139.609 3.08914 4.82954 0
M  V30 1393 H 138.006 3.84781 4.60504 0
M  V30 1394 H 139.076 3.63673 3.20734 0
M  V30 1395 N 140.419 -1.14872 1.07899 0
M  V30 1396 C 141.83 -1.67367 0.827363 0
M  V30 1397 C 142.181 -1.85236 -0.646693 0
M  V30 1398 O 141.306 -1.55974 -1.50004 0
M  V30 1399 C 141.901 -3.04016 1.49532 0
M  V30 1400 C 140.46 -3.53566 1.29106 0
M  V30 1401 C 139.607 -2.29161 1.56143 0
M  V30 1402 H 142.558 -0.990083 1.24028 0
M  V30 1403 H 142.579 -3.69219 0.919643 0
M  V30 1404 H 142.091 -2.90978 2.56814 0
M  V30 1405 H 140.192 -3.71835 0.238713 0
M  V30 1406 H 140.305 -4.34661 2.01511 0
M  V30 1407 H 138.669 -2.34978 0.982717 0
M  V30 1408 H 139.452 -2.18705 2.64619 0
M  V30 1409 N 141.898 -0.863906 -1.31812 0
M  V30 1410 C 142.861 -0.320212 -2.26952 0
M  V30 1411 C 143.861 0.525369 -1.51975 0
M  V30 1412 O 145.051 0.335547 -1.70938 0
M  V30 1413 C 142.183 0.545919 -3.365 0
M  V30 1414 H 143.376 -1.16004 -2.76556 0
M  V30 1415 H 140.929 -0.638995 -1.42641 0
M  V30 1416 H 141.664 1.40718 -2.92179 0
M  V30 1417 H 141.449 -0.0594674 -3.92055 0
M  V30 1418 H 142.939 0.918796 -4.07367 0
M  V30 1419 N 143.376 1.44774 -0.622745 0
M  V30 1420 C 144.601 2.06999 -0.128968 0
M  V30 1421 C 145.026 1.4617 1.1839 0
M  V30 1422 O 144.384 0.560007 1.72434 0
M  V30 1423 C 144.432 3.60595 -0.0188351 0
M  V30 1424 O 143.536 3.99398 1.02739 0
M  V30 1425 H 142.877 0.659047 -0.0809544 0
M  V30 1426 H 145.407 1.85784 -0.85705 0
M  V30 1427 H 145.417 4.07627 0.174476 0
M  V30 1428 H 144.092 4.04252 -0.977384 0
M  V30 1429 H 142.669 3.64011 0.809326 0
M  V30 1430 N 144.854 0.36279 1.53368 0
M  V30 1431 C 145.802 -0.500155 2.27159 0
M  V30 1432 C 146.796 -1.08575 1.3003 0
M  V30 1433 O 148.002 -1.02927 1.47668 0
M  V30 1434 H 144.377 -0.180009 0.730138 0
M  V30 1435 H 146.348 0.14401 2.98052 0
M  V30 1436 C 145.097 -1.62937 3.07159 0
M  V30 1437 H 144.42 -1.18806 3.8174 0
M  V30 1438 H 145.86 -2.20795 3.61975 0
M  V30 1439 C 144.319 -2.57007 2.17829 0
M  V30 1440 O 144.849 -3.59752 1.78721 0
M  V30 1441 N 143.055 -2.26131 1.82518 0
M  V30 1442 H 142.602 -1.42616 2.14519 0
M  V30 1443 H 142.56 -2.89327 1.23034 0
M  V30 1444 N 146.332 -1.57332 0.0918853 0
M  V30 1445 C 147.265 -2.09499 -0.904735 0
M  V30 1446 C 148.243 -1.00479 -1.27839 0
M  V30 1447 O 149.427 -1.27954 -1.38419 0
M  V30 1448 C 146.554 -2.56931 -2.2069 0
M  V30 1449 C 145.6 -3.77579 -1.98334 0
M  V30 1450 S 146.433 -5.21317 -1.22428 0
M  V30 1451 C 147.589 -5.72097 -2.53882 0
M  V30 1452 H 147.822 -2.93705 -0.460922 0
M  V30 1453 H 145.355 -1.53923 -0.121332 0
M  V30 1454 H 147.313 -2.84917 -2.95521 0
M  V30 1455 H 145.974 -1.72956 -2.62192 0
M  V30 1456 H 145.167 -4.08824 -2.94752 0
M  V30 1457 H 144.769 -3.5007 -1.31633 0
M  V30 1458 H 147.061 -5.80168 -3.49874 0
M  V30 1459 H 148.004 -6.70654 -2.27219 0
M  V30 1460 H 148.412 -5.00012 -2.62007 0
M  V30 1461 N 147.81 0.181792 -1.56548 0
M  V30 1462 C 148.757 1.22521 -1.95595 0
M  V30 1463 C 149.727 1.4454 -0.818373 0
M  V30 1464 O 150.912 1.57454 -1.07763 0
M  V30 1465 C 148.052 2.56193 -2.31212 0
M  V30 1466 C 147.165 2.41641 -3.58097 0
M  V30 1467 C 146.3 3.68108 -3.82975 0
M  V30 1468 C 145.339 3.48445 -5.03242 0
M  V30 1469 N 144.476 4.66956 -5.24306 0
M  V30 1470 H 149.316 0.885226 -2.84548 0
M  V30 1471 H 146.853 0.425718 -1.40805 0
M  V30 1472 H 148.811 3.34088 -2.49882 0
M  V30 1473 H 147.441 2.88208 -1.45382 0
M  V30 1474 H 146.493 1.54976 -3.474 0
M  V30 1475 H 147.805 2.23052 -4.46149 0
M  V30 1476 H 146.959 4.54441 -4.01956 0
M  V30 1477 H 145.698 3.89666 -2.93278 0
M  V30 1478 H 144.703 2.60499 -4.8417 0
M  V30 1479 H 145.928 3.2832 -5.9446 0
M  V30 1480 H 143.874 4.88752 -4.37559 0
M  V30 1481 H 143.791 4.51242 -6.06561 0
M  V30 1482 H 145.059 5.54602 -5.47756 0
M  V30 1483 N 149.288 1.51039 0.449983 0
M  V30 1484 C 150.218 1.74379 1.55288 0
M  V30 1485 C 151.199 0.593236 1.5942 0
M  V30 1486 O 152.384 0.834625 1.7535 0
M  V30 1487 C 149.514 1.85728 2.93466 0
M  V30 1488 C 148.468 3.01078 3.04197 0
M  V30 1489 C 147.794 2.97595 4.44231 0
M  V30 1490 C 149.094 4.41254 2.7945 0
M  V30 1491 H 150.788 2.66725 1.36008 0
M  V30 1492 H 148.334 1.2835 0.652864 0
M  V30 1493 H 150.287 2.0064 3.70569 0
M  V30 1494 H 149.011 0.900207 3.13949 0
M  V30 1495 H 147.67 2.85851 2.29531 0
M  V30 1496 H 147.318 1.99691 4.61663 0
M  V30 1497 H 147.018 3.75046 4.52343 0
M  V30 1498 H 148.542 3.14583 5.23326 0
M  V30 1499 H 149.956 4.56897 3.46292 0
M  V30 1500 H 148.353 5.20315 2.98985 0
M  V30 1501 H 149.423 4.52164 1.75144 0
M  V30 1502 N 150.766 -0.704594 1.40972 0
M  V30 1503 C 152.013 -1.46458 1.39844 0
M  V30 1504 C 152.341 -1.94499 0.00447594 0
M  V30 1505 O 151.596 -1.69275 -0.982057 0
M  V30 1506 C 151.895 -2.698 2.34399 0
M  V30 1507 C 151.561 -2.40464 3.81429 0
M  V30 1508 C 150.223 -2.32174 4.21484 0
M  V30 1509 C 152.575 -2.16086 4.74296 0
M  V30 1510 C 149.903 -1.97589 5.52427 0
M  V30 1511 C 152.255 -1.83011 6.05549 0
M  V30 1512 C 150.919 -1.7321 6.44635 0
M  V30 1513 H 150.189 -0.535927 0.511725 0
M  V30 1514 H 152.836 -0.806124 1.73706 0
M  V30 1515 H 151.141 -3.40536 1.93759 0
M  V30 1516 H 152.838 -3.27919 2.30804 0
M  V30 1517 H 149.428 -2.47808 3.49699 0
M  V30 1518 H 153.612 -2.2144 4.4416 0
M  V30 1519 H 148.868 -1.88547 5.81601 0
M  V30 1520 H 153.042 -1.63164 6.77016 0
M  V30 1521 H 150.669 -1.46179 7.46013 0
M  V30 1522 N 152.244 -1.26651 -0.937939 0
M  V30 1523 C 153.472 -1.15173 -1.7188 0
M  V30 1524 C 153.887 0.292668 -1.86518 0
M  V30 1525 O 153.244 1.20014 -1.37488 0
M  V30 1526 C 153.295 -1.81925 -3.12387 0
M  V30 1527 O 153.016 -3.2072 -2.98446 0
M  V30 1528 C 154.517 -1.76442 -4.06673 0
M  V30 1529 H 151.737 -0.400911 -0.538063 0
M  V30 1530 H 154.281 -1.67332 -1.1756 0
M  V30 1531 H 152.436 -1.33696 -3.63599 0
M  V30 1532 H 152.85 -3.53802 -3.872 0
M  V30 1533 H 154.324 -2.27781 -5.02812 0
M  V30 1534 H 154.801 -0.731608 -4.33064 0
M  V30 1535 H 155.407 -2.24238 -3.61382 0
M  V30 1536 N 153.722 1.14298 -1.08507 0
M  V30 1537 C 154.685 2.17607 -0.719711 0
M  V30 1538 C 155.685 1.58907 0.245997 0
M  V30 1539 O 156.875 1.74181 0.0254081 0
M  V30 1540 C 154.007 3.40842 -0.0627695 0
M  V30 1541 H 155.2 2.51443 -1.63452 0
M  V30 1542 H 152.753 1.28963 -0.88307 0
M  V30 1543 H 153.488 3.12587 0.863716 0
M  V30 1544 H 153.273 3.84713 -0.757504 0
M  V30 1545 H 154.763 4.17221 0.177786 0
M  V30 1546 N 155.201 0.870884 1.31352 0
M  V30 1547 C 156.164 0.332243 2.26779 0
M  V30 1548 C 157.164 -0.517302 1.52252 0
M  V30 1549 O 158.354 -0.326477 1.71113 0
M  V30 1550 C 155.486 -0.528066 3.36785 0
M  V30 1551 H 156.679 1.17469 2.75937 0
M  V30 1552 H 154.232 0.64655 1.423 0
M  V30 1553 H 154.967 -1.39167 2.92922 0
M  V30 1554 H 154.752 0.0802582 3.92018 0
M  V30 1555 H 156.242 -0.897179 4.07849 0
M  V30 1556 N 156.679 -1.44442 0.630414 0
M  V30 1557 C 157.642 -2.29107 -0.0652523 0
M  V30 1558 C 158.642 -1.41002 -0.772995 0
M  V30 1559 O 159.832 -1.62881 -0.617692 0
M  V30 1560 C 156.964 -3.22564 -1.10296 0
M  V30 1561 H 158.157 -2.92103 0.679401 0
M  V30 1562 H 155.71 -1.51343 0.390517 0
M  V30 1563 H 156.445 -2.64416 -1.87762 0
M  V30 1564 H 156.23 -3.87491 -0.59941 0
M  V30 1565 H 157.72 -3.86167 -1.5895 0
M  V30 1566 N 158.157 -0.370918 -1.53173 0
M  V30 1567 C 159.12 0.460778 -2.24521 0
M  V30 1568 C 160.12 1.00536 -1.25496 0
M  V30 1569 O 161.31 0.890266 -1.49733 0
M  V30 1570 C 158.442 1.64457 -2.98608 0
M  V30 1571 H 159.635 -0.163613 -2.99453 0
M  V30 1572 H 157.188 -0.122699 -1.55818 0
M  V30 1573 H 157.923 2.30691 -2.2793 0
M  V30 1574 H 157.708 1.26099 -3.7127 0
M  V30 1575 H 159.198 2.23384 -3.5283 0
M  V30 1576 N 159.635 1.57281 -0.100228 0
M  V30 1577 C 160.565 2.17328 0.853857 0
M  V30 1578 C 161.546 1.10804 1.2906 0
M  V30 1579 O 162.731 1.38963 1.35657 0
M  V30 1580 C 159.861 2.75772 2.11109 0
M  V30 1581 C 158.815 3.87713 1.81279 0
M  V30 1582 C 158.141 4.32882 3.13874 0
M  V30 1583 C 159.441 5.10677 1.09574 0
M  V30 1584 H 161.135 2.97305 0.353545 0
M  V30 1585 H 158.681 1.43009 0.168612 0
M  V30 1586 H 160.634 3.16433 2.78296 0
M  V30 1587 H 159.358 1.93057 2.63432 0
M  V30 1588 H 158.017 3.476 1.16489 0
M  V30 1589 H 157.665 3.47051 3.64095 0
M  V30 1590 H 157.365 5.08358 2.94696 0
M  V30 1591 H 158.889 4.7618 3.82211 0
M  V30 1592 H 160.303 5.48474 1.66879 0
M  V30 1593 H 158.7 5.91615 1.00557 0
M  V30 1594 H 159.77 4.84835 0.0793299 0
M  V30 1595 N 161.113 -0.173488 1.56642 0
M  V30 1596 C 162.023 -1.23482 1.99473 0
M  V30 1597 C 163.039 -1.48567 0.905752 0
M  V30 1598 O 164.215 -1.60758 1.21321 0
M  V30 1599 C 161.28 -2.55444 2.34413 0
M  V30 1600 C 160.341 -2.38241 3.57127 0
M  V30 1601 C 159.574 -3.63909 3.90392 0
M  V30 1602 O 159.797 -4.68996 3.24653 0
M  V30 1603 O 158.731 -3.58149 4.83749 0
M  V30 1604 H 162.557 -0.901279 2.90018 0
M  V30 1605 H 160.142 -0.380185 1.44482 0
M  V30 1606 H 162.024 -3.33292 2.57865 0
M  V30 1607 H 160.699 -2.88382 1.4703 0
M  V30 1608 H 159.606 -1.58431 3.38896 0
M  V30 1609 H 160.939 -2.10228 4.45045 0
M  V30 1610 N 162.591 -1.51276 -0.441967 0
M  V30 1611 C 163.837 -1.63958 -1.19355 0
M  V30 1612 C 164.17 -0.352543 -1.90973 0
M  V30 1613 O 163.445 0.647627 -1.83401 0
M  V30 1614 C 163.728 -2.83979 -2.21422 0
M  V30 1615 C 163.581 -4.22646 -1.53918 0
M  V30 1616 C 164.9 -2.99521 -3.22451 0
M  V30 1617 H 162.019 -0.596709 -0.432559 0
M  V30 1618 H 164.661 -1.83748 -0.483398 0
M  V30 1619 H 162.811 -2.67237 -2.81987 0
M  V30 1620 H 164.483 -4.51045 -0.967256 0
M  V30 1621 H 162.726 -4.25558 -0.841615 0
M  V30 1622 H 163.397 -5.02609 -2.28229 0
M  V30 1623 H 165.873 -3.14944 -2.71937 0
M  V30 1624 H 164.749 -3.85072 -3.91166 0
M  V30 1625 H 165.01 -2.11391 -3.88287 0
M  V30 1626 N 164.069 0.697108 -1.41344 0
M  V30 1627 C 164.999 1.82353 -1.45841 0
M  V30 1628 C 165.98 1.67115 -0.317247 0
M  V30 1629 O 167.165 1.86871 -0.528474 0
M  V30 1630 C 164.295 3.20476 -1.33838 0
M  V30 1631 C 163.249 3.50415 -2.4575 0
M  V30 1632 C 162.575 4.87878 -2.18813 0
M  V30 1633 C 163.875 3.49546 -3.88091 0
M  V30 1634 H 165.569 1.78846 -2.40113 0
M  V30 1635 H 163.115 0.859028 -1.15571 0
M  V30 1636 H 165.068 3.98988 -1.35596 0
M  V30 1637 H 163.792 3.24604 -0.360498 0
M  V30 1638 H 162.451 2.74253 -2.43271 0
M  V30 1639 H 162.099 4.8863 -1.19371 0
M  V30 1640 H 161.799 5.08875 -2.93803 0
M  V30 1641 H 163.323 5.68702 -2.22284 0
M  V30 1642 H 164.737 4.18066 -3.92293 0
M  V30 1643 H 163.134 3.82075 -4.62751 0
M  V30 1644 H 164.204 2.48552 -4.16353 0
M  V30 1645 N 165.547 1.27147 0.931209 0
M  V30 1646 C 166.795 1.13055 1.6752 0
M  V30 1647 C 167.116 -0.324791 1.92276 0
M  V30 1648 O 166.386 -1.22775 1.52654 0
M  V30 1649 H 164.966 0.415391 0.620854 0
M  V30 1650 H 167.628 1.59623 1.11833 0
M  V30 1651 H 166.724 1.65694 2.64485 0
M  V30 1652 N 167.025 -1.13721 1.09112 0
M  V30 1653 C 167.988 -2.17222 0.731241 0
M  V30 1654 C 168.988 -1.59035 -0.237566 0
M  V30 1655 O 170.178 -1.74192 -0.0161704 0
M  V30 1656 C 167.31 -3.40804 0.0808443 0
M  V30 1657 H 168.503 -2.50573 1.64783 0
M  V30 1658 H 166.056 -1.28493 0.889897 0
M  V30 1659 H 166.791 -3.1304 -0.847127 0
M  V30 1660 H 166.576 -3.84306 0.777896 0
M  V30 1661 H 168.066 -4.1731 -0.155657 0
M  V30 1662 N 168.503 -0.877838 -1.30888 0
M  V30 1663 C 169.78 -0.413052 -1.91189 0
M  V30 1664 C 170.16 1.1056 -1.79832 0
M  V30 1665 O 169.508 1.93771 -1.21099 0
M  V30 1666 C 169.718 -0.903191 -3.3711 0
M  V30 1667 C 171.066 -0.93395 -4.14201 0
M  V30 1668 O 172.09 -0.849373 -3.45925 0
M  V30 1669 O 170.949 -1.05772 -5.36167 0
M  V30 1670 H 168.043 -0.125035 -0.817493 0
M  V30 1671 H 170.589 -0.966269 -1.39504 0
M  V30 1672 H 169.361 -1.94692 -3.39427 0
M  V30 1673 H 168.984 -0.328732 -3.96239 0
M  V30 1674 N 169.982 1.44106 -0.638065 0
M  V30 1675 C 170.932 2.27843 0.0847285 0
M  V30 1676 C 171.916 1.39055 0.809471 0
M  V30 1677 O 173.108 1.62808 0.694435 0
M  V30 1678 C 170.237 3.26497 1.06089 0
M  V30 1679 C 169.323 4.22772 0.33541 0
M  V30 1680 N 169.714 5.01737 -0.639787 0
M  V30 1681 C 168.012 4.42227 0.578921 0
M  V30 1682 C 168.713 5.71792 -1.06904 0
M  V30 1683 N 167.689 5.42079 -0.406395 0
M  V30 1684 H 171.491 2.86305 -0.663814 0
M  V30 1685 H 169.005 1.55627 -0.464122 0
M  V30 1686 H 171.002 3.8525 1.59337 0
M  V30 1687 H 169.662 2.69595 1.80966 0
M  V30 1688 H 170.673 5.07799 -1.01789 0
M  V30 1689 H 167.35 3.96415 1.31003 0
M  V30 1690 H 168.74 6.45205 -1.8751 0
M  V30 1691 N 171.46 0.379036 1.52974 0
M  V30 1692 C 172.685 -0.209353 2.06341 0
M  V30 1693 C 173.11 -1.40583 1.24972 0
M  V30 1694 O 172.468 -1.79246 0.272155 0
M  V30 1695 C 172.516 -0.567786 3.56102 0
M  V30 1696 O 171.62 -1.66318 3.77375 0
M  V30 1697 H 170.961 -0.0272919 0.663439 0
M  V30 1698 H 173.491 0.543536 1.97248 0
M  V30 1699 H 173.501 -0.835003 3.99364 0
M  V30 1700 H 172.176 0.307013 4.14765 0
M  V30 1701 H 170.753 -1.39048 3.46006 0
M  V30 1702 N 172.938 -1.57226 0.108567 0
M  V30 1703 C 174.185 -1.94833 -0.551943 0
M  V30 1704 C 174.513 -0.991204 -1.67348 0
M  V30 1705 O 173.768 -0.0131878 -1.95696 0
M  V30 1706 C 174.067 -3.38911 -1.13463 0
M  V30 1707 C 173.733 -4.50696 -0.135509 0
M  V30 1708 C 172.395 -4.80998 0.139252 0
M  V30 1709 C 174.747 -5.18333 0.545957 0
M  V30 1710 C 172.075 -5.76259 1.10194 0
M  V30 1711 C 174.427 -6.14627 1.49721 0
M  V30 1712 C 173.091 -6.43327 1.78006 0
M  V30 1713 H 172.361 -0.712944 -0.20197 0
M  V30 1714 H 175.008 -1.90582 0.18726 0
M  V30 1715 H 173.313 -3.39805 -1.95037 0
M  V30 1716 H 175.01 -3.65317 -1.65362 0
M  V30 1717 H 171.6 -4.27087 -0.359846 0
M  V30 1718 H 175.784 -4.95087 0.346842 0
M  V30 1719 H 171.04 -5.96804 1.32795 0
M  V30 1720 H 175.214 -6.66126 2.03099 0
M  V30 1721 H 172.841 -7.1695 2.52759 0
M  V30 1722 N 174.416 0.165178 -1.56732 0
M  V30 1723 C 175.664 0.879068 -1.8198 0
M  V30 1724 C 175.985 1.82514 -0.686561 0
M  V30 1725 O 175.255 1.93694 0.293146 0
M  V30 1726 H 173.835 0.327608 -0.671329 0
M  V30 1727 H 176.497 0.163526 -1.94213 0
M  V30 1728 H 175.593 1.45228 -2.76252 0
M  V30 1729 N 175.894 1.51508 0.433938 0
M  V30 1730 C 177.122 1.68157 1.20543 0
M  V30 1731 C 177.537 0.380362 1.84929 0
M  V30 1732 O 176.894 -0.641446 1.70856 0
M  V30 1733 C 176.945 2.79965 2.28696 0
M  V30 1734 O 176.666 4.05045 1.66943 0
M  V30 1735 C 178.167 3.07912 3.18912 0
M  V30 1736 H 175.387 0.56421 0.363191 0
M  V30 1737 H 177.931 1.97941 0.513754 0
M  V30 1738 H 176.086 2.5277 2.93574 0
M  V30 1739 H 176.5 4.67165 2.38448 0
M  V30 1740 H 177.974 3.89719 3.90926 0
M  V30 1741 H 178.451 2.20456 3.79863 0
M  V30 1742 H 179.057 3.36779 2.59731 0
M  V30 1743 N 177.372 -0.689602 1.41712 0
M  V30 1744 C 178.282 -1.83314 1.46401 0
M  V30 1745 C 179.298 -1.7036 0.35405 0
M  V30 1746 O 180.474 -1.92171 0.602692 0
M  V30 1747 C 177.539 -3.19344 1.34982 0
M  V30 1748 C 176.6 -3.44363 2.56344 0
M  V30 1749 C 175.833 -4.73904 2.45461 0
M  V30 1750 O 176.056 -5.508 1.48241 0
M  V30 1751 O 174.99 -4.99839 3.35328 0
M  V30 1752 H 178.816 -1.82314 2.42889 0
M  V30 1753 H 176.401 -0.843438 1.23315 0
M  V30 1754 H 178.283 -4.00547 1.3092 0
M  V30 1755 H 176.958 -3.21014 0.41612 0
M  V30 1756 H 175.865 -2.63067 2.65982 0
M  V30 1757 H 177.198 -3.47512 3.48563 0
M  V30 1758 N 178.85 -1.27639 -0.924453 0
M  V30 1759 C 180.096 -1.14336 -1.67497 0
M  V30 1760 C 180.429 0.309465 -1.91718 0
M  V30 1761 O 179.704 1.22608 -1.50989 0
M  V30 1762 C 179.987 -1.93096 -3.0395 0
M  V30 1763 C 179.84 -3.46381 -2.8695 0
M  V30 1764 C 181.159 -1.73798 -4.0433 0
M  V30 1765 H 178.278 -0.416728 -0.607871 0
M  V30 1766 H 180.92 -1.56832 -1.07256 0
M  V30 1767 H 179.07 -1.56982 -3.55372 0
M  V30 1768 H 180.742 -3.92343 -2.42621 0
M  V30 1769 H 178.985 -3.72557 -2.22225 0
M  V30 1770 H 179.656 -3.96735 -3.83804 0
M  V30 1771 H 182.132 -2.05293 -3.61931 0
M  V30 1772 H 181.008 -2.31294 -4.97789 0
M  V30 1773 H 181.269 -0.686725 -4.36734 0
M  V30 1774 N 180.328 1.1314 -1.09713 0
M  V30 1775 C 181.291 2.16831 -0.742751 0
M  V30 1776 C 182.291 1.59159 0.229129 0
M  V30 1777 O 183.481 1.74199 0.00693237 0
M  V30 1778 C 180.613 3.40756 -0.0989168 0
M  V30 1779 H 181.806 2.49695 -1.66109 0
M  V30 1780 H 179.359 1.2802 -0.896699 0
M  V30 1781 H 180.094 3.13485 0.830514 0
M  V30 1782 H 179.879 3.83888 -0.798265 0
M  V30 1783 H 181.369 4.17386 0.133524 0
M  V30 1784 N 181.806 0.884767 1.30421 0
M  V30 1785 C 182.769 0.356277 2.26414 0
M  V30 1786 C 183.769 -0.501124 1.52792 0
M  V30 1787 O 184.959 -0.30831 1.7145 0
M  V30 1788 C 182.091 -0.492316 3.37326 0
M  V30 1789 H 183.284 1.20389 2.74675 0
M  V30 1790 H 180.837 0.661607 1.41607 0
M  V30 1791 H 181.572 -1.36052 2.94381 0
M  V30 1792 H 181.357 0.121832 3.91911 0
M  V30 1793 H 182.847 -0.853871 4.08777 0
M  V30 1794 N 183.284 -1.43765 0.645699 0
M  V30 1795 C 184.194 -2.34544 -0.0512957 0
M  V30 1796 C 185.21 -1.53455 -0.82022 0
M  V30 1797 O 186.386 -1.86133 -0.769176 0
M  V30 1798 C 183.451 -3.31636 -1.01087 0
M  V30 1799 C 182.512 -4.2863 -0.239712 0
M  V30 1800 C 181.745 -5.21084 -1.15358 0
M  V30 1801 O 181.968 -5.1779 -2.39269 0
M  V30 1802 O 180.902 -5.98593 -0.630038 0
M  V30 1803 H 184.728 -2.95624 0.695718 0
M  V30 1804 H 182.313 -1.43781 0.405882 0
M  V30 1805 H 184.195 -3.9136 -1.56254 0
M  V30 1806 H 182.87 -2.73069 -1.73824 0
M  V30 1807 H 181.777 -3.72408 0.355356 0
M  V30 1808 H 183.11 -4.90157 0.447936 0
M  V30 1809 N 184.763 -0.387143 -1.52771 0
M  V30 1810 C 185.988 0.198407 -2.06449 0
M  V30 1811 C 186.413 1.39918 -1.25716 0
M  V30 1812 O 185.771 1.79099 -0.281657 0
M  V30 1813 C 185.819 0.548893 -3.56398 0
M  V30 1814 O 184.923 1.64315 -3.78252 0
M  V30 1815 H 184.264 0.0237731 -0.663574 0
M  V30 1816 H 186.794 -0.553989 -1.96957 0
M  V30 1817 H 186.804 0.813812 -3.99801 0
M  V30 1818 H 185.479 -0.329005 -4.14597 0
M  V30 1819 H 184.056 1.37211 -3.46738 0
M  V30 1820 N 186.241 1.57166 -0.116904 0
M  V30 1821 C 187.204 2.14039 0.819742 0
M  V30 1822 C 188.204 1.07477 1.19605 0
M  V30 1823 O 189.394 1.33263 1.1219 0
M  V30 1824 C 186.526 2.67891 2.10826 0
M  V30 1825 H 187.719 2.98128 0.325511 0
M  V30 1826 H 185.272 1.55739 0.132312 0
M  V30 1827 H 186.007 1.87384 2.64685 0
M  V30 1828 H 185.792 3.45823 1.84793 0
M  V30 1829 H 187.282 3.11809 2.77785 0
M  V30 1830 N 187.719 -0.156864 1.56817 0
M  V30 1831 C 189.13 -0.717916 1.72345 0
M  V30 1832 C 189.481 -1.82124 0.729747 0
M  V30 1833 O 188.606 -2.16141 -0.105781 0
M  V30 1834 C 189.201 -1.30904 3.12489 0
M  V30 1835 C 187.76 -1.81676 3.29653 0
M  V30 1836 C 186.907 -0.701349 2.68284 0
M  V30 1837 H 189.858 0.0686989 1.58551 0
M  V30 1838 H 189.879 -2.17882 3.11942 0
M  V30 1839 H 189.391 -0.505796 3.8479 0
M  V30 1840 H 187.492 -2.64598 2.62333 0
M  V30 1841 H 187.605 -1.95226 4.3752 0
M  V30 1842 H 185.969 -1.12548 2.28484 0
M  V30 1843 H 186.752 0.0902846 3.43181 0
M  V30 1844 N 189.197 -1.51736 -0.425897 0
M  V30 1845 C 190.445 -1.64644 -1.17204 0
M  V30 1846 C 190.766 -0.370486 -1.91448 0
M  V30 1847 O 190.036 0.614088 -1.86026 0
M  V30 1848 H 188.616 -0.606819 -0.435638 0
M  V30 1849 H 191.278 -1.88713 -0.487177 0
M  V30 1850 H 190.374 -2.47958 -1.89534 0
M  V30 1851 N 190.675 0.682077 -1.42076 0
M  V30 1852 C 192.091 0.994324 -1.24841 0
M  V30 1853 C 192.291 2.0096 -0.147389 0
M  V30 1854 O 191.347 2.47822 0.483782 0
M  V30 1855 C 192.66 1.50607 -2.60265 0
M  V30 1856 C 194.208 1.62421 -2.6756 0
M  V30 1857 C 194.683 2.16994 -4.03333 0
M  V30 1858 N 196.174 2.24337 -4.0525 0
M  V30 1859 C 196.909 2.67621 -5.07116 0
M  V30 1860 N 196.405 3.1041 -6.19368 0
M  V30 1861 N 198.198 2.67305 -4.94474 0
M  V30 1862 H 190.349 0.00973908 -2.12398 0
M  V30 1863 H 192.612 0.0668593 -0.945639 0
M  V30 1864 H 192.318 0.834583 -3.41654 0
M  V30 1865 H 192.192 2.48602 -2.83684 0
M  V30 1866 H 194.579 2.28678 -1.86521 0
M  V30 1867 H 194.66 0.629352 -2.47937 0
M  V30 1868 H 194.304 1.51349 -4.84826 0
M  V30 1869 H 194.234 3.17258 -4.20304 0
M  V30 1870 H 196.725 1.94158 -3.24209 0
M  V30 1871 H 197.038 3.42103 -6.92954 0
M  V30 1872 H 195.383 3.08286 -6.22884 0
M  V30 1873 H 198.574 2.33233 -4.05857 0
M  V30 1874 H 198.747 3.00718 -5.73997 0
M  V30 1875 N 192.153 1.28127 0.917671 0
M  V30 1876 C 193.569 1.05749 1.19538 0
M  V30 1877 C 193.769 -0.202633 2.00479 0
M  V30 1878 O 192.825 -0.905382 2.3571 0
M  V30 1879 C 194.138 2.30273 1.93378 0
M  V30 1880 C 195.686 2.35412 2.06277 0
M  V30 1881 C 196.161 3.59692 2.83524 0
M  V30 1882 N 197.652 3.60309 2.91087 0
M  V30 1883 C 198.387 4.53147 3.51348 0
M  V30 1884 N 197.883 5.563 4.12919 0
M  V30 1885 N 199.676 4.40751 3.48849 0
M  V30 1886 H 191.827 2.09024 0.377184 0
M  V30 1887 H 194.09 0.919798 0.22951 0
M  V30 1888 H 193.796 3.22055 1.41328 0
M  V30 1889 H 193.67 2.36378 2.93947 0
M  V30 1890 H 196.057 1.4413 2.57508 0
M  V30 1891 H 196.138 2.33304 1.04895 0
M  V30 1892 H 195.782 4.51316 2.32973 0
M  V30 1893 H 195.712 3.59054 3.85211 0
M  V30 1894 H 198.203 2.85714 2.47338 0
M  V30 1895 H 198.516 6.2329 4.56869 0
M  V30 1896 H 196.861 5.60131 4.11435 0
M  V30 1897 H 200.052 3.59367 2.99955 0
M  V30 1898 H 200.225 5.13291 3.9552 0
M  V30 1899 N 193.631 -1.12557 1.10312 0
M  V30 1900 C 194.879 -1.83675 0.843091 0
M  V30 1901 C 195.2 -1.84435 -0.633131 0
M  V30 1902 O 194.47 -1.30657 -1.45964 0
M  V30 1903 H 193.05 -0.680138 0.308904 0
M  V30 1904 H 195.712 -1.36301 1.39313 0
M  V30 1905 H 194.808 -2.87908 1.2048 0
M  V30 1906 N 195.109 -0.891671 -1.2995 0
M  V30 1907 C 196.019 -0.367691 -2.31701 0
M  V30 1908 C 197.035 0.533486 -1.6562 0
M  V30 1909 O 198.211 0.424997 -1.96865 0
M  V30 1910 C 195.276 0.403406 -3.44345 0
M  V30 1911 C 194.337 -0.528328 -4.26037 0
M  V30 1912 C 193.57 0.206063 -5.33302 0
M  V30 1913 O 193.793 1.43119 -5.52153 0
M  V30 1914 O 192.727 -0.447281 -6.00236 0
M  V30 1915 H 196.553 -1.21163 -2.78484 0
M  V30 1916 H 194.138 -0.655725 -1.34241 0
M  V30 1917 H 196.02 0.839753 -4.12948 0
M  V30 1918 H 194.695 1.22354 -2.99685 0
M  V30 1919 H 193.602 -1.01362 -3.60106 0
M  V30 1920 H 194.935 -1.31465 -4.74318 0
M  V30 1921 N 196.587 1.43421 -0.653314 0
M  V30 1922 C 197.833 2.02111 -0.166992 0
M  V30 1923 C 198.166 1.51423 1.21592 0
M  V30 1924 O 197.441 0.707389 1.8118 0
M  V30 1925 C 197.724 3.5966 -0.177948 0
M  V30 1926 C 197.577 4.20579 -1.59478 0
M  V30 1927 C 198.896 4.37413 0.4856 0
M  V30 1928 H 196.015 0.734374 -0.0621557 0
M  V30 1929 H 198.657 1.70717 -0.834016 0
M  V30 1930 H 196.807 3.86537 0.390032 0
M  V30 1931 H 198.479 4.04732 -2.21336 0
M  V30 1932 H 196.722 3.77226 -2.14204 0
M  V30 1933 H 197.393 5.29665 -1.5543 0
M  V30 1934 H 199.869 4.161 0.00234528 0
M  V30 1935 H 198.745 5.47075 0.447207 0
M  V30 1936 H 199.006 4.13672 1.55974 0
M  V30 1937 N 198.065 0.39524 1.52563 0
M  V30 1938 C 198.997 -0.472201 2.24283 0
M  V30 1939 C 200.01 -1.02178 1.26742 0
M  V30 1940 O 201.199 -0.923097 1.52778 0
M  V30 1941 C 198.299 -1.66775 2.95024 0
M  V30 1942 C 197.472 -1.2445 4.19322 0
M  V30 1943 C 196.531 -2.30539 4.7301 0
M  V30 1944 O 195.557 -1.91702 5.35947 0
M  V30 1945 N 196.759 -3.6253 4.53379 0
M  V30 1946 H 199.524 0.142282 2.99362 0
M  V30 1947 H 197.085 0.2219 1.60372 0
M  V30 1948 H 199.077 -2.37283 3.27839 0
M  V30 1949 H 197.647 -2.18845 2.23217 0
M  V30 1950 H 196.867 -0.368069 3.92478 0
M  V30 1951 H 198.155 -0.938457 5.0007 0
M  V30 1952 H 197.553 -3.96841 4.03154 0
M  V30 1953 H 196.11 -4.29055 4.90668 0
M  V30 1954 N 199.544 -1.57102 0.125237 0
M  V30 1955 C 200.821 -1.86953 -0.575142 0
M  V30 1956 C 201.201 -1.02749 -1.84407 0
M  V30 1957 O 200.549 -0.108144 -2.28244 0
M  V30 1958 C 200.759 -3.38198 -0.861583 0
M  V30 1959 C 202.107 -4.06937 -1.21192 0
M  V30 1960 O 203.131 -3.43252 -0.951645 0
M  V30 1961 O 201.99 -5.19364 -1.70068 0
M  V30 1962 H 199.084 -0.774147 -0.290906 0
M  V30 1963 H 201.63 -1.68942 0.160211 0
M  V30 1964 H 200.402 -3.91282 0.0373647 0
M  V30 1965 H 200.025 -3.61661 -1.65188 0
M  V30 1966 N 201.022 0.148545 -1.56898 0
M  V30 1967 C 201.952 1.18524 -2.01182 0
M  V30 1968 C 202.933 1.4489 -0.891123 0
M  V30 1969 O 204.118 1.55836 -1.15882 0
M  V30 1970 C 201.248 2.51879 -2.39112 0
M  V30 1971 C 200.202 2.40038 -3.54353 0
M  V30 1972 C 199.528 3.78089 -3.78091 0
M  V30 1973 C 200.828 1.88577 -4.87069 0
M  V30 1974 H 202.522 0.817029 -2.88036 0
M  V30 1975 H 200.068 0.391575 -1.38574 0
M  V30 1976 H 202.021 3.24627 -2.68692 0
M  V30 1977 H 200.745 2.90532 -1.49193 0
M  V30 1978 H 199.404 1.69742 -3.24936 0
M  V30 1979 H 199.052 4.14175 -2.85426 0
M  V30 1980 H 198.752 3.71028 -4.55645 0
M  V30 1981 H 200.276 4.52387 -4.10095 0
M  V30 1982 H 201.69 2.51117 -5.15377 0
M  V30 1983 H 200.087 1.9241 -5.68417 0
M  V30 1984 H 201.157 0.84136 -4.77545 0
M  V30 1985 N 202.5 1.5196 0.417844 0
M  V30 1986 C 203.73 1.69181 1.18581 0
M  V30 1987 C 204.138 0.397104 1.84986 0
M  V30 1988 O 203.481 -0.636011 1.72339 0
M  V30 1989 C 203.543 2.76497 2.29759 0
M  V30 1990 C 203.207 4.18514 1.83563 0
M  V30 1991 C 204.204 5.02648 1.32821 0
M  V30 1992 C 201.889 4.64708 1.90661 0
M  V30 1993 C 203.883 6.31044 0.897894 0
M  V30 1994 C 201.57 5.93096 1.47241 0
M  V30 1995 C 202.568 6.76093 0.968891 0
M  V30 1996 O 202.256 8.02078 0.540924 0
M  V30 1997 H 201.988 0.570457 0.362705 0
M  V30 1998 H 204.542 1.99249 0.498885 0
M  V30 1999 H 202.772 2.41786 3.01789 0
M  V30 2000 H 204.461 2.82403 2.91553 0
M  V30 2001 H 205.227 4.68154 1.26716 0
M  V30 2002 H 201.106 4.00216 2.28797 0
M  V30 2003 H 204.65 6.95776 0.504192 0
M  V30 2004 H 200.547 6.271 1.53022 0
M  V30 2005 H 201.315 8.15794 0.66502 0
M  V30 2006 N 203.978 -0.674533 1.42435 0
M  V30 2007 C 204.908 -1.80009 1.48724 0
M  V30 2008 C 205.889 -1.6659 0.343793 0
M  V30 2009 O 207.074 -1.86007 0.558137 0
M  V30 2010 C 204.204 -3.18306 1.38919 0
M  V30 2011 C 203.158 -3.46461 2.51294 0
M  V30 2012 C 202.484 -4.84335 2.26547 0
M  V30 2013 C 203.784 -3.43328 3.93603 0
M  V30 2014 H 205.478 -1.75004 2.42928 0
M  V30 2015 H 203.024 -0.840533 1.16923 0
M  V30 2016 H 204.977 -3.9678 1.41927 0
M  V30 2017 H 203.701 -3.2399 0.412094 0
M  V30 2018 H 202.36 -2.70348 2.47604 0
M  V30 2019 H 202.008 -4.86669 1.2713 0
M  V30 2020 H 201.708 -5.04136 3.01861 0
M  V30 2021 H 203.232 -5.65094 2.31304 0
M  V30 2022 H 204.646 -4.11772 3.98894 0
M  V30 2023 H 203.043 -3.74664 4.68771 0
M  V30 2024 H 204.113 -2.41897 4.20255 0
M  V30 2025 N 205.456 -1.28612 -0.910864 0
M  V30 2026 C 206.702 -1.16106 -1.66274 0
M  V30 2027 C 207.035 0.289113 -1.92036 0
M  V30 2028 O 206.31 1.21 -1.52281 0
M  V30 2029 C 206.593 -1.96309 -3.01885 0
M  V30 2030 C 206.446 -3.49405 -2.8326 0
M  V30 2031 C 207.765 -1.78076 -4.02463 0
M  V30 2032 H 204.884 -0.423152 -0.603417 0
M  V30 2033 H 207.526 -1.57961 -1.05586 0
M  V30 2034 H 205.676 -1.60742 -3.53687 0
M  V30 2035 H 207.348 -3.94894 -2.38446 0
M  V30 2036 H 205.591 -3.74893 -2.18261 0
M  V30 2037 H 206.262 -4.00784 -3.79574 0
M  V30 2038 H 208.738 -2.0912 -3.59733 0
M  V30 2039 H 207.614 -2.36561 -4.95308 0
M  V30 2040 H 207.875 -0.733008 -4.35981 0
M  V30 2041 N 206.934 1.1197 -1.10907 0
M  V30 2042 C 208.182 1.83225 -0.852819 0
M  V30 2043 C 208.503 1.84769 0.623341 0
M  V30 2044 O 207.773 1.3143 1.45269 0
M  V30 2045 H 206.353 0.67849 -0.312507 0
M  V30 2046 H 209.015 1.3556 -1.40033 0
M  V30 2047 H 208.111 2.87265 -1.22005 0
M  V30 2048 N 208.412 0.89855 1.29475 0
M  V30 2049 C 209.828 0.594483 1.48115 0
M  V30 2050 C 210.028 -0.86431 1.82022 0
M  V30 2051 O 209.084 -1.64457 1.91599 0
M  V30 2052 C 210.397 1.51932 2.59494 0
M  V30 2053 C 211.945 1.5244 2.7337 0
M  V30 2054 C 212.42 2.43548 3.87877 0
M  V30 2055 N 213.911 2.41589 3.95208 0
M  V30 2056 C 214.646 3.08789 4.83153 0
M  V30 2057 N 214.142 3.85265 5.75798 0
M  V30 2058 N 215.935 2.97952 4.76635 0
M  V30 2059 H 208.086 1.84207 1.05742 0
M  V30 2060 H 210.349 0.789251 0.525154 0
M  V30 2061 H 210.055 2.55865 2.41301 0
M  V30 2062 H 209.929 1.23899 3.56271 0
M  V30 2063 H 212.316 0.492518 2.90961 0
M  V30 2064 H 212.397 1.8451 1.77172 0
M  V30 2065 H 212.041 3.46829 3.71041 0
M  V30 2066 H 211.971 2.08788 4.83441 0
M  V30 2067 H 214.462 1.86025 3.28943 0
M  V30 2068 H 214.775 4.33598 6.39697 0
M  V30 2069 H 213.12 3.89371 5.75687 0
M  V30 2070 H 216.311 2.37723 4.03244 0
M  V30 2071 H 216.484 3.50599 5.44962 0
M  V30 2072 N 209.89 -1.43072 0.660911 0
M  V30 2073 C 211.138 -2.01323 0.177094 0
M  V30 2074 C 211.459 -1.5245 -1.2159 0
M  V30 2075 O 210.729 -0.740322 -1.81373 0
M  V30 2076 H 209.309 -0.744382 0.0624804 0
M  V30 2077 H 211.971 -1.75179 0.854305 0
M  V30 2078 H 211.067 -3.11649 0.167641 0
M  V30 2079 N 211.368 -0.403325 -1.52352 0
M  V30 2080 C 212.645 0.232611 -1.94212 0
M  V30 2081 C 213.025 1.63133 -1.33981 0
M  V30 2082 O 212.373 2.22659 -0.513344 0
M  V30 2083 C 212.583 0.244811 -3.4814 0
M  V30 2084 C 213.931 0.46698 -4.22024 0
M  V30 2085 O 214.955 0.324419 -3.5472 0
M  V30 2086 O 213.814 0.74747 -5.41364 0
M  V30 2087 H 210.908 0.148223 -0.813609 0
M  V30 2088 H 213.454 -0.458848 -1.63379 0
M  V30 2089 H 212.226 -0.734378 -3.84347 0
M  V30 2090 H 211.849 0.980611 -3.85318 0
M  V30 2091 N 212.846 1.57033 -0.133567 0
M  V30 2092 C 214.257 1.82593 0.389464 0
M  V30 2093 C 214.608 1.05156 1.6564 0
M  V30 2094 O 213.733 0.292644 2.14412 0
M  V30 2095 C 214.328 3.31204 0.713377 0
M  V30 2096 C 212.887 3.57393 1.18098 0
M  V30 2097 C 212.034 2.76598 0.197126 0
M  V30 2098 H 214.985 1.54598 -0.358481 0
M  V30 2099 H 215.006 3.46627 1.56939 0
M  V30 2100 H 214.518 3.87537 -0.2089 0
M  V30 2101 H 212.619 3.06433 2.11966 0
M  V30 2102 H 212.732 4.65915 1.11624 0
M  V30 2103 H 211.096 2.45257 0.687088 0
M  V30 2104 H 211.879 3.35697 -0.718504 0
M  V30 2105 N 214.325 -0.140222 1.56975 0
M  V30 2106 C 215.553 -0.866437 1.87884 0
M  V30 2107 C 215.968 -1.74428 0.722517 0
M  V30 2108 O 215.325 -1.79891 -0.30749 0
M  V30 2109 C 215.376 -1.71753 3.18093 0
M  V30 2110 O 215.097 -0.875056 4.29272 0
M  V30 2111 C 216.598 -2.55074 3.62563 0
M  V30 2112 H 213.818 -0.25019 0.622612 0
M  V30 2113 H 216.362 -0.130977 2.0408 0
M  V30 2114 H 214.517 -2.40598 3.03631 0
M  V30 2115 H 214.931 -1.46002 5.03769 0
M  V30 2116 H 216.405 -3.10356 4.5649 0
M  V30 2117 H 216.882 -3.31434 2.88181 0
M  V30 2118 H 217.488 -1.91509 3.79743 0
M  V30 2119 N 215.803 -1.52179 -0.40978 0
M  V30 2120 C 216.733 -1.78435 -1.5061 0
M  V30 2121 C 217.714 -0.635295 -1.57791 0
M  V30 2122 O 218.899 -0.880823 -1.73076 0
M  V30 2123 C 216.029 -1.93444 -2.88439 0
M  V30 2124 C 214.983 -3.09038 -2.96108 0
M  V30 2125 C 214.309 -3.09268 -4.36185 0
M  V30 2126 C 215.609 -4.48508 -2.67652 0
M  V30 2127 H 217.303 -2.70237 -1.28889 0
M  V30 2128 H 214.849 -1.30036 -0.618605 0
M  V30 2129 H 216.802 -2.10394 -3.65119 0
M  V30 2130 H 215.526 -0.983129 -3.11452 0
M  V30 2131 H 214.185 -2.91837 -2.21872 0
M  V30 2132 H 213.833 -2.11861 -4.56206 0
M  V30 2133 H 213.533 -3.86907 -4.42241 0
M  V30 2134 H 215.057 -3.28348 -5.14801 0
M  V30 2135 H 216.471 -4.65918 -3.34056 0
M  V30 2136 H 214.868 -5.28059 -2.85085 0
M  V30 2137 H 215.938 -4.56649 -1.63095 0
M  V30 2138 N 217.281 0.66697 -1.42791 0
M  V30 2139 C 218.506 1.46004 -1.47301 0
M  V30 2140 C 218.931 1.87894 -0.0880317 0
M  V30 2141 O 218.289 1.56502 0.915253 0
M  V30 2142 C 218.337 2.68031 -2.41229 0
M  V30 2143 O 217.441 3.6659 -1.88906 0
M  V30 2144 H 216.782 0.43832 -0.49877 0
M  V30 2145 H 219.312 0.817391 -1.87563 0
M  V30 2146 H 219.322 3.1601 -2.58073 0
M  V30 2147 H 217.997 2.36883 -3.41847 0
M  V30 2148 H 216.574 3.25661 -1.81656 0
M  V30 2149 N 218.759 1.29093 0.90403 0
M  V30 2150 C 219.722 1.1386 1.98919 0
M  V30 2151 C 220.722 0.0753457 1.60623 0
M  V30 2152 O 221.912 0.321931 1.71199 0
M  V30 2153 C 219.044 0.740198 3.32767 0
M  V30 2154 H 220.237 2.10246 2.13861 0
M  V30 2155 H 217.79 1.12218 1.08797 0
M  V30 2156 H 218.525 -0.223997 3.23525 0
M  V30 2157 H 218.31 1.50838 3.61926 0
M  V30 2158 H 219.8 0.656546 4.12407 0
M  V30 2159 N 220.237 -1.11381 1.11499 0
M  V30 2160 C 221.147 -2.21019 0.786628 0
M  V30 2161 C 222.163 -1.72597 -0.220507 0
M  V30 2162 O 223.339 -2.01321 -0.0565251 0
M  V30 2163 C 220.404 -3.459 0.235333 0
M  V30 2164 C 219.465 -4.09107 1.30115 0
M  V30 2165 C 218.698 -5.28027 0.776068 0
M  V30 2166 O 218.921 -5.6904 -0.393661 0
M  V30 2167 O 217.855 -5.81835 1.54114 0
M  V30 2168 H 221.681 -2.51521 1.70209 0
M  V30 2169 H 219.266 -1.19928 0.890928 0
M  V30 2170 H 221.148 -4.21346 -0.067715 0
M  V30 2171 H 219.823 -3.17049 -0.652828 0
M  V30 2172 H 218.73 -3.35391 1.65722 0
M  V30 2173 H 220.063 -4.42139 2.16273 0
M  V30 2174 N 221.715 -0.905404 -1.28997 0
M  V30 2175 C 222.992 -0.453513 -1.9027 0
M  V30 2176 C 223.372 1.06721 -1.82137 0
M  V30 2177 O 222.72 1.91159 -1.25182 0
M  V30 2178 C 222.93 -0.974494 -3.35119 0
M  V30 2179 C 224.278 -1.0216 -4.12127 0
M  V30 2180 O 225.302 -0.922557 -3.44046 0
M  V30 2181 O 224.161 -1.17121 -5.33802 0
M  V30 2182 H 221.255 -0.142347 -0.814657 0
M  V30 2183 H 223.801 -0.995642 -1.37423 0
M  V30 2184 H 222.573 -2.01848 -3.35221 0
M  V30 2185 H 222.196 -0.412706 -3.95452 0
M  V30 2186 N 223.193 1.4272 -0.668489 0
M  V30 2187 C 224.123 2.335 -0.000100175 0
M  V30 2188 C 225.104 1.50328 0.795964 0
M  V30 2189 O 226.289 1.78949 0.754385 0
M  V30 2190 C 223.419 3.33874 0.956302 0
M  V30 2191 C 222.373 4.27152 0.269278 0
M  V30 2192 C 221.699 5.17684 1.33818 0
M  V30 2193 C 222.999 5.15373 -0.847805 0
M  V30 2194 H 224.693 2.89639 -0.758244 0
M  V30 2195 H 222.239 1.39269 -0.366079 0
M  V30 2196 H 224.192 3.9629 1.43292 0
M  V30 2197 H 222.916 2.76025 1.74579 0
M  V30 2198 H 221.575 3.66123 -0.187042 0
M  V30 2199 H 221.223 4.56165 2.1195 0
M  V30 2200 H 220.923 5.80918 0.883659 0
M  V30 2201 H 222.447 5.82974 1.81586 0
M  V30 2202 H 223.861 5.7151 -0.452681 0
M  V30 2203 H 222.258 5.87407 -1.22773 0
M  V30 2204 H 223.328 4.5415 -1.69929 0
M  V30 2205 N 224.671 0.411399 1.52136 0
M  V30 2206 C 225.948 -0.222308 1.94333 0
M  V30 2207 C 226.328 -1.6242 1.34844 0
M  V30 2208 O 225.676 -2.22384 0.525145 0
M  V30 2209 C 225.886 -0.226345 3.48265 0
M  V30 2210 C 227.234 -0.444592 4.22266 0
M  V30 2211 O 228.258 -0.305602 3.54887 0
M  V30 2212 O 227.117 -0.718749 5.41753 0
M  V30 2213 H 224.211 -0.143907 0.814383 0
M  V30 2214 H 226.757 0.467506 1.63133 0
M  V30 2215 H 225.529 0.75475 3.83952 0
M  V30 2216 H 225.152 -0.960163 3.85832 0
M  V30 2217 N 226.149 -1.5696 0.141893 0
M  V30 2218 C 227.112 -2.15316 -0.785587 0
M  V30 2219 C 228.112 -1.09366 -1.1788 0
M  V30 2220 O 229.302 -1.35031 -1.10056 0
M  V30 2221 C 226.434 -2.71211 -2.06537 0
M  V30 2222 H 227.627 -2.98608 -0.278041 0
M  V30 2223 H 225.18 -1.5593 -0.107519 0
M  V30 2224 H 225.915 -1.91571 -2.6167 0
M  V30 2225 H 225.7 -3.4872 -1.79268 0
M  V30 2226 H 227.19 -3.16189 -2.72789 0
M  V30 2227 N 227.627 0.131896 -1.57047 0
M  V30 2228 C 228.56 1.19236 -1.94571 0
M  V30 2229 C 229.538 1.40782 -0.813576 0
M  V30 2230 O 230.722 1.55148 -1.07058 0
M  V30 2231 C 227.849 2.54858 -2.23081 0
M  V30 2232 C 226.895 2.49817 -3.45679 0
M  V30 2233 S 227.728 1.95036 -4.98719 0
M  V30 2234 C 228.884 3.32357 -5.30367 0
M  V30 2235 H 229.117 0.872297 -2.84215 0
M  V30 2236 H 226.65 0.338134 -1.50652 0
M  V30 2237 H 228.608 3.32898 -2.40185 0
M  V30 2238 H 227.269 2.84047 -1.34074 0
M  V30 2239 H 226.462 3.49688 -3.62952 0
M  V30 2240 H 226.064 1.79892 -3.27895 0
M  V30 2241 H 228.356 4.28525 -5.2476 0
M  V30 2242 H 229.299 3.19923 -6.31708 0
M  V30 2243 H 229.707 3.3019 -4.57859 0
M  V30 2244 N 229.106 1.52395 0.401703 0
M  V30 2245 C 230.069 1.75636 1.47257 0
M  V30 2246 C 231.069 0.62628 1.48103 0
M  V30 2247 O 232.259 0.894227 1.49497 0
M  V30 2248 C 229.391 1.84553 2.86624 0
M  V30 2249 H 230.584 2.71241 1.27938 0
M  V30 2250 H 228.137 1.42923 0.632662 0
M  V30 2251 H 228.872 0.908882 3.11303 0
M  V30 2252 H 228.657 2.66715 2.87412 0
M  V30 2253 H 230.147 2.04251 3.64241 0
M  V30 2254 N 230.584 -0.659388 1.43143 0
M  V30 2255 C 231.547 -1.75432 1.47501 0
M  V30 2256 C 232.547 -1.56707 0.360512 0
M  V30 2257 O 233.737 -1.62717 0.622002 0
M  V30 2258 C 230.869 -3.14239 1.32162 0
M  V30 2259 H 232.062 -1.7295 2.45006 0
M  V30 2260 H 229.615 -0.870469 1.29817 0
M  V30 2261 H 230.35 -3.22336 0.356401 0
M  V30 2262 H 230.135 -3.29235 2.12948 0
M  V30 2263 H 231.625 -3.94094 1.3813 0
M  V30 2264 N 232.062 -1.29571 -0.897171 0
M  V30 2265 C 232.972 -1.16808 -2.03453 0
M  V30 2266 C 233.988 -0.0907471 -1.73763 0
M  V30 2267 O 235.164 -0.303312 -1.99103 0
M  V30 2268 C 232.229 -0.848264 -3.36163 0
M  V30 2269 C 231.29 -2.0097 -3.79354 0
M  V30 2270 C 230.523 -1.70505 -5.05731 0
M  V30 2271 O 230.746 -0.62718 -5.66941 0
M  V30 2272 O 229.68 -2.5538 -5.45036 0
M  V30 2273 H 233.506 -2.12325 -2.17144 0
M  V30 2274 H 231.091 -1.09047 -1.02123 0
M  V30 2275 H 232.973 -0.684581 -4.15802 0
M  V30 2276 H 231.648 0.0771071 -3.23608 0
M  V30 2277 H 230.555 -2.22863 -3.00471 0
M  V30 2278 H 231.888 -2.91636 -3.96496 0
M  V30 2279 N 233.54 1.10788 -1.12088 0
M  V30 2280 C 234.786 1.82942 -0.875226 0
M  V30 2281 C 235.119 1.84779 0.597538 0
M  V30 2282 O 234.394 1.30578 1.44152 0
M  V30 2283 C 234.677 3.29789 -1.44606 0
M  V30 2284 C 234.53 3.36307 -2.98693 0
M  V30 2285 C 235.849 4.26064 -1.10261 0
M  V30 2286 H 232.968 0.664195 -0.319397 0
M  V30 2287 H 235.61 1.29867 -1.38689 0
M  V30 2288 H 233.76 3.75118 -1.01089 0
M  V30 2289 H 235.432 2.99487 -3.50864 0
M  V30 2290 H 233.675 2.76318 -3.34411 0
M  V30 2291 H 234.346 4.39694 -3.33726 0
M  V30 2292 H 236.822 3.88951 -1.4784 0
M  V30 2293 H 235.698 5.27183 -1.52869 0
M  V30 2294 H 235.959 4.42098 -0.0142953 0
M  V30 2295 N 235.018 0.912232 1.28515 0
M  V30 2296 C 235.981 0.404223 2.25607 0
M  V30 2297 C 236.981 -0.468602 1.53821 0
M  V30 2298 O 238.171 -0.271873 1.72065 0
M  V30 2299 C 235.303 -0.420653 3.38295 0
M  V30 2300 H 236.496 1.26188 2.7206 0
M  V30 2301 H 234.049 0.691495 1.40171 0
M  V30 2302 H 234.784 -1.29777 2.97201 0
M  V30 2303 H 234.569 0.204935 3.91564 0
M  V30 2304 H 236.059 -0.766971 4.10496 0
M  V30 2305 N 236.496 -1.42363 0.676048 0
M  V30 2306 C 237.459 -2.29199 0.00766941 0
M  V30 2307 C 238.459 -1.43389 -0.727745 0
M  V30 2308 O 239.649 -1.64764 -0.56556 0
M  V30 2309 C 236.781 -3.2591 -0.999785 0
M  V30 2310 H 237.974 -2.89794 0.771988 0
M  V30 2311 H 235.527 -1.50024 0.438468 0
M  V30 2312 H 236.262 -2.70256 -1.79255 0
M  V30 2313 H 236.047 -3.89202 -0.475829 0
M  V30 2314 H 237.537 -3.91028 -1.46583 0
M  V30 2315 N 237.974 -0.419461 -1.51915 0
M  V30 2316 C 239.199 0.154572 -2.06823 0
M  V30 2317 C 239.624 1.3722 -1.28656 0
M  V30 2318 O 238.982 1.78461 -0.319583 0
M  V30 2319 C 239.03 0.473172 -3.57482 0
M  V30 2320 O 238.134 1.56255 -3.81652 0
M  V30 2321 H 237.475 0.0096924 -0.663929 0
M  V30 2322 H 240.005 -0.595642 -1.95738 0
M  V30 2323 H 240.015 0.728825 -4.01438 0
M  V30 2324 H 238.69 -0.416873 -4.13805 0
M  V30 2325 H 237.267 1.29825 -3.49571 0
M  V30 2326 N 239.452 1.56882 -0.150215 0
M  V30 2327 C 240.7 1.9584 0.499105 0
M  V30 2328 C 241.021 1.03623 1.65188 0
M  V30 2329 O 240.291 0.0984084 1.95653 0
M  V30 2330 H 238.871 0.723119 0.187373 0
M  V30 2331 H 241.533 1.9358 -0.226466 0
M  V30 2332 H 240.629 2.99638 0.873122 0
M  V30 2333 N 240.93 -0.123565 1.57115 0
M  V30 2334 C 242.176 -0.833386 1.84885 0
M  V30 2335 C 242.509 -1.79742 0.735292 0
M  V30 2336 O 241.784 -1.92764 -0.25925 0
M  V30 2337 C 242.067 -1.5873 3.23228 0
M  V30 2338 C 241.92 -0.643183 4.45178 0
M  V30 2339 C 243.239 -2.54453 3.59085 0
M  V30 2340 H 240.358 -0.301518 0.6725 0
M  V30 2341 H 243 -0.097778 1.89748 0
M  V30 2342 H 241.15 -2.21438 3.19214 0
M  V30 2343 H 242.822 -0.0253015 4.61293 0
M  V30 2344 H 241.065 0.0456139 4.33776 0
M  V30 2345 H 241.736 -1.20724 5.38637 0
M  V30 2346 H 244.212 -2.01853 3.63861 0
M  V30 2347 H 243.088 -3.04238 4.5687 0
M  V30 2348 H 243.349 -3.36906 2.86264 0
M  V30 2349 N 242.408 -1.52605 -0.393616 0
M  V30 2350 C 243.824 -1.41753 -0.733357 0
M  V30 2351 C 244.024 -0.534293 -1.94287 0
M  V30 2352 O 243.08 -0.0059787 -2.52499 0
M  V30 2353 C 244.393 -2.84531 -0.972772 0
M  V30 2354 C 245.941 -2.93978 -1.07453 0
M  V30 2355 C 246.416 -4.37756 -1.3466 0
M  V30 2356 N 247.907 -4.4106 -1.41492 0
M  V30 2357 C 248.642 -5.49387 -1.642 0
M  V30 2358 N 248.138 -6.67806 -1.8441 0
M  V30 2359 N 249.931 -5.36923 -1.66342 0
M  V30 2360 H 242.082 -2.08555 0.402328 0
M  V30 2361 H 244.345 -0.940654 0.117789 0
M  V30 2362 H 244.051 -3.51353 -0.156204 0
M  V30 2363 H 243.925 -3.26508 -1.88871 0
M  V30 2364 H 246.312 -2.27326 -1.88167 0
M  V30 2365 H 246.393 -2.55435 -0.136605 0
M  V30 2366 H 246.037 -5.04972 -0.544581 0
M  V30 2367 H 245.967 -4.73848 -2.2973 0
M  V30 2368 H 248.458 -3.55705 -1.27601 0
M  V30 2369 H 248.771 -7.46141 -2.01231 0
M  V30 2370 H 247.116 -6.70843 -1.81644 0
M  V30 2371 H 250.307 -4.43381 -1.50102 0
M  V30 2372 H 250.48 -6.21416 -1.837 0
M  V30 2373 N 243.887 0.651787 -1.4349 0
M  V30 2374 C 245.115 1.43937 -1.48626 0
M  V30 2375 C 245.53 1.8851 -0.104587 0
M  V30 2376 O 244.887 1.5958 0.885464 0
M  V30 2377 C 244.938 2.6734 -2.43334 0
M  V30 2378 O 244.659 2.24631 -3.76128 0
M  V30 2379 C 246.16 3.60683 -2.57726 0
M  V30 2380 H 243.38 0.44213 -0.504739 0
M  V30 2381 H 245.924 0.798944 -1.88248 0
M  V30 2382 H 244.079 3.2752 -2.06904 0
M  V30 2383 H 244.493 3.04485 -4.2707 0
M  V30 2384 H 245.967 4.43933 -3.28067 0
M  V30 2385 H 246.444 4.08126 -1.62265 0
M  V30 2386 H 247.05 3.06384 -2.94973 0
M  V30 2387 N 245.365 1.30045 0.890287 0
M  V30 2388 C 246.611 1.18737 1.64406 0
M  V30 2389 C 246.944 -0.258525 1.92472 0
M  V30 2390 O 246.219 -1.18562 1.54186 0
M  V30 2391 C 246.502 2.01087 2.98724 0
M  V30 2392 C 246.355 3.53867 2.77665 0
M  V30 2393 C 247.674 1.84457 3.9958 0
M  V30 2394 H 244.793 0.432698 0.596608 0
M  V30 2395 H 247.435 1.5962 1.0306 0
M  V30 2396 H 245.585 1.66349 3.51084 0
M  V30 2397 H 247.257 3.98637 2.32133 0
M  V30 2398 H 245.5 3.78318 2.12269 0
M  V30 2399 H 246.171 4.06772 3.7315 0
M  V30 2400 H 248.647 2.14817 3.56361 0
M  V30 2401 H 247.523 2.44411 4.91482 0
M  V30 2402 H 247.784 0.802276 4.3476 0
M  V30 2403 N 246.843 -1.10192 1.12674 0
M  V30 2404 C 248.259 -1.34235 0.863317 0
M  V30 2405 C 248.459 -1.95062 -0.505277 0
M  V30 2406 O 247.515 -2.19192 -1.25345 0
M  V30 2407 C 248.828 -2.2616 1.98172 0
M  V30 2408 C 250.376 -2.3969 2.0129 0
M  V30 2409 C 250.851 -3.34946 3.1237 0
M  V30 2410 N 252.342 -3.42515 3.11829 0
M  V30 2411 C 253.077 -4.16199 3.94419 0
M  V30 2412 N 252.573 -4.92747 4.87004 0
M  V30 2413 N 254.366 -4.11843 3.82547 0
M  V30 2414 H 246.517 -0.690798 2.00853 0
M  V30 2415 H 248.78 -0.366774 0.874174 0
M  V30 2416 H 248.486 -1.8868 2.96804 0
M  V30 2417 H 248.36 -3.26488 1.88906 0
M  V30 2418 H 250.747 -2.76438 1.03276 0
M  V30 2419 H 250.828 -1.39169 2.14629 0
M  V30 2420 H 250.472 -2.98923 4.10619 0
M  V30 2421 H 250.402 -4.35353 2.96269 0
M  V30 2422 H 252.893 -2.87926 2.44759 0
M  V30 2423 H 253.206 -5.46376 5.46528 0
M  V30 2424 H 251.551 -4.91862 4.91016 0
M  V30 2425 H 254.742 -3.51136 3.0955 0
M  V30 2426 H 254.915 -4.69007 4.47142 0
M  V30 2427 N 248.321 -0.919034 -1.28029 0
M  V30 2428 C 249.569 -0.553838 -1.94363 0
M  V30 2429 C 249.89 0.906357 -1.72656 0
M  V30 2430 O 249.16 1.64143 -1.0693 0
M  V30 2431 H 247.74 -0.201834 -0.719216 0
M  V30 2432 H 250.402 -1.16954 -1.55909 0
M  V30 2433 H 249.498 -0.752758 -3.02886 0
M  V30 2434 N 249.799 1.42003 -0.683588 0
M  V30 2435 C 251.076 1.95112 -0.138075 0
M  V30 2436 C 251.456 1.62359 1.34918 0
M  V30 2437 O 250.804 0.924311 2.08971 0
M  V30 2438 C 251.014 3.46505 -0.416581 0
M  V30 2439 C 252.362 4.23254 -0.337834 0
M  V30 2440 O 253.386 3.54468 -0.35082 0
M  V30 2441 O 252.245 5.45743 -0.287596 0
M  V30 2442 H 249.339 0.826961 -0.00797996 0
M  V30 2443 H 251.885 1.51784 -0.758924 0
M  V30 2444 H 250.657 3.63582 -1.4465 0
M  V30 2445 H 250.28 3.969 0.235839 0
M  V30 2446 N 251.277 0.427512 1.51691 0
M  V30 2447 C 252.207 -0.3796 2.30394 0
M  V30 2448 C 253.188 -1.02982 1.35384 0
M  V30 2449 O 254.373 -1.03534 1.643 0
M  V30 2450 C 251.503 -1.48649 3.1388 0
M  V30 2451 C 250.457 -0.960294 4.17088 0
M  V30 2452 C 249.783 -2.16219 4.89033 0
M  V30 2453 C 251.083 -0.00153679 5.223 0
M  V30 2454 H 252.777 0.277164 2.98114 0
M  V30 2455 H 250.323 0.134739 1.43368 0
M  V30 2456 H 252.276 -2.05826 3.67714 0
M  V30 2457 H 251 -2.1714 2.43962 0
M  V30 2458 H 249.659 -0.410806 3.64291 0
M  V30 2459 H 249.307 -2.83307 4.15628 0
M  V30 2460 H 249.007 -1.81654 5.58816 0
M  V30 2461 H 250.531 -2.73968 5.45687 0
M  V30 2462 H 251.945 -0.482687 5.71264 0
M  V30 2463 H 250.342 0.256199 5.99553 0
M  V30 2464 H 251.412 0.938174 4.75738 0
M  V30 2465 N 252.755 -1.56801 0.158532 0
M  V30 2466 C 253.985 -2.00568 -0.495583 0
M  V30 2467 C 254.393 -1.03774 -1.58201 0
M  V30 2468 O 253.736 -0.0285797 -1.83678 0
M  V30 2469 C 253.798 -3.40768 -1.14532 0
M  V30 2470 C 253.462 -4.56553 -0.202101 0
M  V30 2471 C 254.459 -5.16714 0.574675 0
M  V30 2472 C 252.144 -5.02197 -0.101648 0
M  V30 2473 C 254.138 -6.20939 1.43924 0
M  V30 2474 C 251.825 -6.06274 0.766508 0
M  V30 2475 C 252.823 -6.65515 1.53555 0
M  V30 2476 O 252.511 -7.67575 2.38922 0
M  V30 2477 H 252.243 -0.662893 -0.13247 0
M  V30 2478 H 254.797 -2.03829 0.253559 0
M  V30 2479 H 253.027 -3.34381 -1.94233 0
M  V30 2480 H 254.716 -3.6857 -1.70033 0
M  V30 2481 H 255.482 -4.82341 0.507167 0
M  V30 2482 H 251.361 -4.55807 -0.689994 0
M  V30 2483 H 254.905 -6.67107 2.03996 0
M  V30 2484 H 250.802 -6.40073 0.835266 0
M  V30 2485 H 251.57 -7.84844 2.32296 0
M  V30 2486 N 254.233 0.115231 -1.57178 0
M  V30 2487 C 255.196 1.12526 -1.99676 0
M  V30 2488 C 256.196 1.34095 -0.88742 0
M  V30 2489 O 257.386 1.30548 -1.15337 0
M  V30 2490 C 254.518 2.4789 -2.34015 0
M  V30 2491 H 255.711 0.759912 -2.90113 0
M  V30 2492 H 253.264 0.359648 -1.52106 0
M  V30 2493 H 253.999 2.89339 -1.4647 0
M  V30 2494 H 253.784 2.33588 -3.14927 0
M  V30 2495 H 255.274 3.20575 -2.67622 0
M  V30 2496 N 255.711 1.52812 0.385517 0
M  V30 2497 C 256.988 1.5861 1.14465 0
M  V30 2498 C 257.368 0.381402 2.07626 0
M  V30 2499 O 256.716 -0.629999 2.19643 0
M  V30 2500 C 256.926 2.92664 1.90128 0
M  V30 2501 C 258.274 3.46526 2.45367 0
M  V30 2502 O 259.298 2.94562 2.0028 0
M  V30 2503 O 258.157 4.37323 3.27736 0
M  V30 2504 H 255.251 0.639855 0.523941 0
M  V30 2505 H 257.797 1.65149 0.390389 0
M  V30 2506 H 256.569 3.71788 1.22022 0
M  V30 2507 H 256.192 2.89527 2.72507 0
M  V30 2508 N 257.189 -0.644168 1.43834 0
M  V30 2509 C 258.466 -1.40188 1.36406 0
M  V30 2510 C 258.846 -2.11094 0.0163124 0
M  V30 2511 O 258.194 -2.05426 -1.00062 0
M  V30 2512 C 258.404 -2.3791 2.55343 0
M  V30 2513 C 259.752 -3.01637 2.98832 0
M  V30 2514 O 260.776 -2.48237 2.55455 0
M  V30 2515 O 259.635 -3.98477 3.74003 0
M  V30 2516 H 256.729 -0.626773 0.539523 0
M  V30 2517 H 259.275 -0.670317 1.559 0
M  V30 2518 H 258.047 -1.84525 3.4506 0
M  V30 2519 H 257.67 -3.18503 2.37995 0
M  V30 2520 N 258.668 -1.30515 -0.883378 0
M  V30 2521 C 259.896 -1.22359 -1.66841 0
M  V30 2522 C 260.311 0.213296 -1.87591 0
M  V30 2523 O 259.668 1.14075 -1.42454 0
M  V30 2524 C 259.719 -1.95011 -3.04389 0
M  V30 2525 O 259.44 -3.3309 -2.84575 0
M  V30 2526 C 260.941 -1.93532 -3.98824 0
M  V30 2527 H 258.161 -0.423371 -0.520575 0
M  V30 2528 H 260.705 -1.72167 -1.10357 0
M  V30 2529 H 258.86 -1.48997 -3.57601 0
M  V30 2530 H 259.274 -3.69907 -3.71846 0
M  V30 2531 H 260.748 -2.48902 -4.92699 0
M  V30 2532 H 261.225 -0.914627 -4.29571 0
M  V30 2533 H 261.831 -2.39364 -3.51547 0
M  V30 2534 N 260.146 1.09593 -1.13257 0
M  V30 2535 C 261.392 1.82181 -0.904521 0
M  V30 2536 C 261.747 1.83967 0.563358 0
M  V30 2537 O 261.04 1.29566 1.41149 0
M  V30 2538 C 261.234 3.27802 -1.42411 0
M  V30 2539 C 261.063 3.40201 -2.94097 0
M  V30 2540 C 259.833 3.52104 -3.62424 0
M  V30 2541 C 262.031 3.32875 -3.92044 0
M  V30 2542 N 260.013 3.53169 -5.0214 0
M  V30 2543 C 261.384 3.40789 -5.17941 0
M  V30 2544 C 263.439 3.16531 -3.84334 0
M  V30 2545 C 262.142 3.34042 -6.37031 0
M  V30 2546 C 264.168 3.11109 -5.02956 0
M  V30 2547 C 263.53 3.19614 -6.27715 0
M  V30 2548 H 259.629 0.681015 -0.384373 0
M  V30 2549 H 262.213 1.3099 -1.44048 0
M  V30 2550 H 260.384 3.77466 -0.915086 0
M  V30 2551 H 262.116 3.88393 -1.13722 0
M  V30 2552 H 258.871 3.5548 -3.12939 0
M  V30 2553 H 259.295 3.57291 -5.75041 0
M  V30 2554 H 263.937 3.08827 -2.88766 0
M  V30 2555 H 261.655 3.4051 -7.32857 0
M  V30 2556 H 265.241 2.99601 -4.98729 0
M  V30 2557 H 264.121 3.15432 -7.17964 0
M  V30 2558 N 261.624 0.925811 1.2754 0
M  V30 2559 C 262.871 0.565255 1.94451 0
M  V30 2560 C 263.199 -0.89316 1.7278 0
M  V30 2561 O 262.454 -1.65213 1.04895 0
M  V30 2562 C 262.753 0.835296 3.47502 0
M  V30 2563 C 262.419 2.27515 3.89291 0
M  V30 2564 C 261.081 2.66879 4.00411 0
M  V30 2565 C 263.433 3.21158 4.10496 0
M  V30 2566 C 260.761 3.99014 4.30122 0
M  V30 2567 C 263.113 4.52871 4.4169 0
M  V30 2568 C 261.777 4.92072 4.51023 0
M  V30 2569 H 261.047 0.206841 0.711546 0
M  V30 2570 H 263.694 1.16942 1.51647 0
M  V30 2571 H 261.999 0.148442 3.91519 0
M  V30 2572 H 263.696 0.535322 3.97411 0
M  V30 2573 H 260.286 1.95976 3.81171 0
M  V30 2574 H 264.47 2.9195 4.01346 0
M  V30 2575 H 259.726 4.2907 4.35556 0
M  V30 2576 H 263.9 5.25436 4.57045 0
M  V30 2577 H 261.527 5.9449 4.738 0
M  V30 2578 N 263.102 -1.41638 0.69111 0
M  V30 2579 C 264.379 -1.95036 0.148421 0
M  V30 2580 C 264.759 -1.63072 -1.34055 0
M  V30 2581 O 264.107 -0.93538 -2.08478 0
M  V30 2582 C 264.317 -3.46279 0.434951 0
M  V30 2583 C 265.665 -4.23069 0.360275 0
M  V30 2584 O 266.689 -3.54277 0.369613 0
M  V30 2585 O 265.548 -5.45583 0.316534 0
M  V30 2586 H 262.642 -0.826908 0.0123654 0
M  V30 2587 H 265.188 -1.5138 0.766963 0
M  V30 2588 H 263.96 -3.6281 1.46576 0
M  V30 2589 H 263.583 -3.97019 -0.214787 0
M  V30 2590 N 264.58 -0.43555 -1.51462 0
M  V30 2591 C 265.805 0.132627 -2.06976 0
M  V30 2592 C 266.23 1.35848 -1.30104 0
M  V30 2593 O 265.588 1.78112 -0.338493 0
M  V30 2594 C 265.636 0.43523 -3.57964 0
M  V30 2595 O 264.74 1.52198 -3.83288 0
M  V30 2596 H 264.081 0.00265 -0.663995 0
M  V30 2597 H 266.611 -0.616369 -1.95095 0
M  V30 2598 H 266.621 0.686206 -4.02188 0
M  V30 2599 H 265.296 -0.460739 -4.1334 0
M  V30 2600 H 263.873 1.2611 -3.50928 0
M  V30 2601 N 266.058 1.56714 -0.166846 0
M  V30 2602 C 266.968 2.21331 0.777791 0
M  V30 2603 C 267.984 1.20358 1.25658 0
M  V30 2604 O 269.16 1.53005 1.30964 0
M  V30 2605 C 266.225 2.83787 1.99163 0
M  V30 2606 C 265.286 3.99947 1.56016 0
M  V30 2607 C 264.519 4.59415 2.71613 0
M  V30 2608 O 264.742 4.17769 3.88362 0
M  V30 2609 O 263.676 5.49359 2.45945 0
M  V30 2610 H 267.502 3.02605 0.257636 0
M  V30 2611 H 265.087 1.49275 0.0611393 0
M  V30 2612 H 266.969 3.23405 2.70161 0
M  V30 2613 H 265.644 2.05513 2.50092 0
M  V30 2614 H 264.551 3.65007 0.819809 0
M  V30 2615 H 265.884 4.79801 1.09782 0
M  V30 2616 N 267.536 -0.106894 1.57237 0
M  V30 2617 C 268.952 -0.46078 1.52804 0
M  V30 2618 C 269.152 -1.81184 0.881746 0
M  V30 2619 O 268.208 -2.48102 0.469224 0
M  V30 2620 C 269.521 -0.434127 2.9755 0
M  V30 2621 C 271.069 -0.516821 3.08704 0
M  V30 2622 C 271.544 -0.520436 4.55033 0
M  V30 2623 N 273.035 -0.58153 4.59535 0
M  V30 2624 C 273.77 -0.605973 5.70189 0
M  V30 2625 N 273.266 -0.587331 6.90306 0
M  V30 2626 N 275.059 -0.649895 5.5833 0
M  V30 2627 H 267.21 0.778203 1.9763 0
M  V30 2628 H 269.473 0.288403 0.903066 0
M  V30 2629 H 269.179 0.491197 3.48253 0
M  V30 2630 H 269.053 -1.25748 3.55622 0
M  V30 2631 H 271.44 -1.43256 2.57995 0
M  V30 2632 H 271.521 0.334449 2.53604 0
M  V30 2633 H 271.165 0.391313 5.0639 0
M  V30 2634 H 271.095 -1.38876 5.07958 0
M  V30 2635 H 273.586 -0.60161 3.73081 0
M  V30 2636 H 273.899 -0.60894 7.70397 0
M  V30 2637 H 272.244 -0.554564 6.92784 0
M  V30 2638 H 275.435 -0.661907 4.63397 0
M  V30 2639 H 275.608 -0.665476 6.44574 0
M  V30 2640 N 269.014 -1.53014 -0.377408 0
M  V30 2641 C 269.944 -1.81589 -1.46791 0
M  V30 2642 C 270.925 -0.668622 -1.56408 0
M  V30 2643 O 272.11 -0.917337 -1.71168 0
M  V30 2644 C 269.24 -1.99519 -2.8427 0
M  V30 2645 C 268.194 -3.15249 -2.89486 0
M  V30 2646 C 267.52 -3.18451 -4.29527 0
M  V30 2647 C 268.82 -4.54084 -2.58079 0
M  V30 2648 H 270.514 -2.7291 -1.23127 0
M  V30 2649 H 268.06 -1.31319 -0.590883 0
M  V30 2650 H 270.013 -2.18092 -3.60575 0
M  V30 2651 H 268.737 -1.04897 -3.09296 0
M  V30 2652 H 267.396 -2.96477 -2.15631 0
M  V30 2653 H 267.044 -2.2149 -4.5161 0
M  V30 2654 H 266.744 -3.962 -4.33934 0
M  V30 2655 H 268.268 -3.39193 -5.07721 0
M  V30 2656 H 269.682 -4.72899 -3.24098 0
M  V30 2657 H 268.079 -5.33987 -2.7382 0
M  V30 2658 H 269.149 -4.60006 -1.53372 0
M  V30 2659 N 270.492 0.636531 -1.44174 0
M  V30 2660 C 271.738 1.39826 -1.4689 0
M  V30 2661 C 272.071 1.93947 -0.0990585 0
M  V30 2662 O 271.346 1.73325 0.882544 0
M  V30 2663 C 271.629 2.56751 -2.5249 0
M  V30 2664 C 271.482 2.08014 -3.98811 0
M  V30 2665 C 272.801 3.58946 -2.54649 0
M  V30 2666 H 269.92 0.507075 -0.53483 0
M  V30 2667 H 272.562 0.720188 -1.75822 0
M  V30 2668 H 270.712 3.14597 -2.2795 0
M  V30 2669 H 272.384 1.5504 -4.34466 0
M  V30 2670 H 270.627 1.39242 -4.10846 0
M  V30 2671 H 271.298 2.92169 -4.68339 0
M  V30 2672 H 273.774 3.1089 -2.76563 0
M  V30 2673 H 272.65 4.38286 -3.3045 0
M  V30 2674 H 272.911 4.12655 -1.58646 0
M  V30 2675 N 271.97 1.30982 0.876444 0
M  V30 2676 C 273.247 1.10942 1.61094 0
M  V30 2677 C 273.627 -0.338223 2.08373 0
M  V30 2678 O 272.975 -1.33122 1.85717 0
M  V30 2679 C 273.185 2.11789 2.77392 0
M  V30 2680 C 274.533 2.43965 3.47514 0
M  V30 2681 O 275.557 2.10166 2.87591 0
M  V30 2682 O 274.416 3.01817 4.55597 0
M  V30 2683 H 271.51 0.42667 0.708436 0
M  V30 2684 H 274.056 1.42438 0.922474 0
M  V30 2685 H 272.828 3.09194 2.39823 0
M  V30 2686 H 272.451 1.81161 3.5393 0
M  V30 2687 N 273.449 -1.08991 1.13837 0
M  V30 2688 C 274.726 -1.77863 0.813876 0
M  V30 2689 C 275.106 -1.99375 -0.693746 0
M  V30 2690 O 274.454 -1.59875 -1.63255 0
M  V30 2691 C 274.664 -3.0986 1.60586 0
M  V30 2692 C 276.012 -3.84493 1.8014 0
M  V30 2693 O 277.036 -3.19624 1.57222 0
M  V30 2694 O 275.895 -5.00957 2.18413 0
M  V30 2695 H 272.989 -0.771589 0.297624 0
M  V30 2696 H 275.535 -1.15507 1.24323 0
M  V30 2697 H 274.307 -2.89715 2.63022 0
M  V30 2698 H 273.93 -3.79942 1.17173 0
M  V30 2699 N 274.927 -0.932562 -1.27047 0
M  V30 2700 C 276.173 -0.585913 -1.94778 0
M  V30 2701 C 276.528 0.864142 -1.71902 0
M  V30 2702 O 275.821 1.60894 -1.04037 0
M  V30 2703 C 276.015 -0.853713 -3.47054 0
M  V30 2704 C 275.844 -2.32825 -3.84737 0
M  V30 2705 C 274.614 -2.98184 -4.07939 0
M  V30 2706 C 276.812 -3.30612 -3.93954 0
M  V30 2707 N 274.794 -4.3574 -4.3244 0
M  V30 2708 C 276.165 -4.53395 -4.22887 0
M  V30 2709 C 278.22 -3.25755 -3.76548 0
M  V30 2710 C 276.923 -5.71927 -4.36224 0
M  V30 2711 C 278.949 -4.43604 -3.91113 0
M  V30 2712 C 278.311 -5.65166 -4.20437 0
M  V30 2713 H 274.41 -0.264617 -0.735868 0
M  V30 2714 H 276.994 -1.20019 -1.53309 0
M  V30 2715 H 275.165 -0.268557 -3.8747 0
M  V30 2716 H 276.897 -0.469202 -4.01971 0
M  V30 2717 H 273.652 -2.48835 -4.02961 0
M  V30 2718 H 274.076 -5.06915 -4.48738 0
M  V30 2719 H 278.718 -2.32835 -3.52913 0
M  V30 2720 H 276.436 -6.65308 -4.58683 0
M  V30 2721 H 280.022 -4.41368 -3.79059 0
M  V30 2722 H 278.902 -6.54836 -4.31462 0
M  V30 2723 N 276.405 1.4127 -0.698611 0
M  V30 2724 C 277.651 2.01979 -0.239972 0
M  V30 2725 C 278.006 1.54353 1.14861 0
M  V30 2726 O 277.299 0.746218 1.76471 0
M  V30 2727 C 277.493 3.56592 -0.240192 0
M  V30 2728 C 277.322 4.19226 -1.62726 0
M  V30 2729 C 276.092 4.53389 -2.23084 0
M  V30 2730 C 278.29 4.45228 -2.57443 0
M  V30 2731 N 276.272 5.01327 -3.54323 0
M  V30 2732 C 277.643 4.94973 -3.73365 0
M  V30 2733 C 279.698 4.27243 -2.55671 0
M  V30 2734 C 278.401 5.28624 -4.878 0
M  V30 2735 C 280.427 4.61985 -3.69221 0
M  V30 2736 C 279.789 5.11904 -4.83873 0
M  V30 2737 H 275.888 0.770561 -0.133269 0
M  V30 2738 H 278.472 1.71767 -0.916748 0
M  V30 2739 H 276.643 3.86271 0.406082 0
M  V30 2740 H 278.375 4.04025 0.23356 0
M  V30 2741 H 275.13 4.39946 -1.75341 0
M  V30 2742 H 275.554 5.29697 -4.21604 0
M  V30 2743 H 280.196 3.87884 -1.68243 0
M  V30 2744 H 277.914 5.66905 -5.75885 0
M  V30 2745 H 281.5 4.49725 -3.69105 0
M  V30 2746 H 280.38 5.38282 -5.70282 0
M  V30 2747 N 277.883 0.443576 1.51229 0
M  V30 2748 C 279.294 -0.0180867 1.86691 0
M  V30 2749 C 279.645 -1.41384 1.36033 0
M  V30 2750 O 278.77 -2.04291 0.713722 0
M  V30 2751 C 279.365 -0.039597 3.38777 0
M  V30 2752 C 277.924 -0.445692 3.73752 0
M  V30 2753 C 277.071 0.357584 2.74985 0
M  V30 2754 H 280.022 0.659138 1.44364 0
M  V30 2755 H 280.043 -0.847761 3.70936 0
M  V30 2756 H 279.555 0.976382 3.75617 0
M  V30 2757 H 277.656 -1.46704 3.42503 0
M  V30 2758 H 277.769 -0.166155 4.78812 0
M  V30 2759 H 276.133 -0.184973 2.54027 0
M  V30 2760 H 276.916 1.37256 3.14668 0
M  V30 2761 N 279.361 -1.56624 0.175154 0
M  V30 2762 C 280.271 -2.21741 -0.766042 0
M  V30 2763 C 281.287 -1.21023 -1.25018 0
M  V30 2764 O 282.463 -1.53697 -1.3015 0
M  V30 2765 C 279.528 -2.84839 -1.97655 0
M  V30 2766 C 278.589 -4.00769 -1.53892 0
M  V30 2767 C 277.822 -4.60849 -2.69173 0
M  V30 2768 O 278.045 -4.19823 -3.86141 0
M  V30 2769 O 276.979 -5.50655 -2.43028 0
M  V30 2770 H 280.805 -3.02738 -0.241585 0
M  V30 2771 H 278.39 -1.49305 -0.053222 0
M  V30 2772 H 280.272 -3.24834 -2.68442 0
M  V30 2773 H 278.947 -2.06836 -2.48999 0
M  V30 2774 H 277.854 -3.65436 -0.80044 0
M  V30 2775 H 279.187 -4.80376 -1.07236 0
M  V30 2776 N 280.839 0.0985539 -1.57292 0
M  V30 2777 C 282.116 0.834155 -1.76921 0
M  V30 2778 C 282.496 1.97101 -0.755928 0
M  V30 2779 O 281.844 2.27474 0.216245 0
M  V30 2780 C 282.054 1.33194 -3.22584 0
M  V30 2781 C 283.402 1.77611 -3.85668 0
M  V30 2782 O 284.426 1.42825 -3.26312 0
M  V30 2783 O 283.285 2.4192 -4.90038 0
M  V30 2784 H 280.379 0.397628 -0.725135 0
M  V30 2785 H 282.925 0.0807044 -1.69508 0
M  V30 2786 H 281.697 0.517248 -3.87866 0
M  V30 2787 H 281.32 2.1475 -3.34616 0
M  V30 2788 N 282.317 1.53212 0.369288 0
M  V30 2789 C 283.227 1.82342 1.47609 0
M  V30 2790 C 284.243 0.711532 1.58787 0
M  V30 2791 O 285.419 1.0012 1.74751 0
M  V30 2792 C 282.484 2.00393 2.8292 0
M  V30 2793 C 281.545 3.24297 2.81301 0
M  V30 2794 C 280.778 3.41478 4.10157 0
M  V30 2795 O 281.001 2.63033 5.06132 0
M  V30 2796 O 279.935 4.34817 4.16194 0
M  V30 2797 H 283.761 2.76366 1.25918 0
M  V30 2798 H 281.346 1.38547 0.559034 0
M  V30 2799 H 283.228 2.13859 3.63101 0
M  V30 2800 H 281.903 1.09559 3.04596 0
M  V30 2801 H 280.81 3.16257 1.99831 0
M  V30 2802 H 282.143 4.15041 2.64578 0
M  V30 2803 N 283.795 -0.628877 1.44509 0
M  V30 2804 C 285.206 -1.21054 1.42137 0
M  V30 2805 C 285.557 -1.95715 0.137881 0
M  V30 2806 O 284.682 -2.02554 -0.761645 0
M  V30 2807 C 285.277 -2.20189 2.57493 0
M  V30 2808 C 283.836 -2.73777 2.58308 0
M  V30 2809 C 282.983 -1.48813 2.33987 0
M  V30 2810 H 285.934 -0.41942 1.53057 0
M  V30 2811 H 285.955 -3.02833 2.30375 0
M  V30 2812 H 285.467 -1.6582 3.50892 0
M  V30 2813 H 283.568 -3.32142 1.68856 0
M  V30 2814 H 283.681 -3.19662 3.56865 0
M  V30 2815 H 282.045 -1.77024 1.83124 0
M  V30 2816 H 282.828 -0.963442 3.29504 0
M  V30 2817 N 285.273 -1.31445 -0.869486 0
M  V30 2818 C 286.503 -1.23942 -1.65294 0
M  V30 2819 C 286.911 0.197561 -1.88166 0
M  V30 2820 O 286.254 1.14019 -1.44033 0
M  V30 2821 C 286.316 -1.91385 -3.04322 0
M  V30 2822 C 285.98 -3.40726 -3.04557 0
M  V30 2823 C 286.977 -4.36464 -2.82481 0
M  V30 2824 C 284.662 -3.82425 -3.25663 0
M  V30 2825 C 286.656 -5.71876 -2.8149 0
M  V30 2826 C 284.343 -5.1795 -3.243 0
M  V30 2827 C 285.341 -6.12486 -3.02241 0
M  V30 2828 O 285.029 -7.45534 -3.00724 0
M  V30 2829 H 284.761 -0.429459 -0.522054 0
M  V30 2830 H 287.315 -1.73873 -1.0935 0
M  V30 2831 H 285.545 -1.36004 -3.61994 0
M  V30 2832 H 287.234 -1.77791 -3.64891 0
M  V30 2833 H 288 -4.05576 -2.65956 0
M  V30 2834 H 283.879 -3.09274 -3.41863 0
M  V30 2835 H 287.423 -6.45638 -2.64191 0
M  V30 2836 H 283.32 -5.48473 -3.40365 0
M  V30 2837 H 284.088 -7.54713 -3.16782 0
M  V30 2838 N 286.751 1.08385 -1.14413 0
M  V30 2839 C 287.714 2.13486 -0.834048 0
M  V30 2840 C 288.714 1.59988 0.161418 0
M  V30 2841 O 289.904 1.74071 -0.0669575 0
M  V30 2842 C 287.036 3.4003 -0.243354 0
M  V30 2843 H 288.229 2.42425 -1.7655 0
M  V30 2844 H 285.782 1.24101 -0.950189 0
M  V30 2845 H 286.517 3.16726 0.696807 0
M  V30 2846 H 286.302 3.80157 -0.960367 0
M  V30 2847 H 287.792 4.17577 -0.0436242 0
M  V30 2848 N 288.23 0.939286 1.26551 0
M  V30 2849 C 289.46 0.601663 1.97645 0
M  V30 2850 C 289.868 -0.827206 1.70159 0
M  V30 2851 O 289.211 -1.56291 0.965338 0
M  V30 2852 C 289.273 0.761725 3.51337 0
M  V30 2853 C 288.937 2.16487 4.0247 0
M  V30 2854 C 289.934 3.14016 4.14355 0
M  V30 2855 C 287.619 2.48494 4.36527 0
M  V30 2856 C 289.613 4.41654 4.59587 0
M  V30 2857 C 287.3 3.76364 4.81449 0
M  V30 2858 C 288.298 4.72758 4.92939 0
M  V30 2859 O 287.986 5.98352 5.36871 0
M  V30 2860 H 287.718 0.225758 0.637189 0
M  V30 2861 H 290.272 1.26178 1.62075 0
M  V30 2862 H 288.502 0.0444808 3.86674 0
M  V30 2863 H 290.191 0.427442 4.03643 0
M  V30 2864 H 290.957 2.90613 3.8829 0
M  V30 2865 H 286.836 1.74202 4.26819 0
M  V30 2866 H 290.38 5.16896 4.68471 0
M  V30 2867 H 286.277 3.99582 5.06956 0
M  V30 2868 H 287.045 6.01507 5.55096 0
M  V30 2869 N 289.708 -1.40897 0.706093 0
M  V30 2870 C 290.933 -2.05895 0.249435 0
M  V30 2871 C 291.358 -1.52823 -1.09666 0
M  V30 2872 O 290.716 -0.659589 -1.68876 0
M  V30 2873 C 290.764 -3.59872 0.22904 0
M  V30 2874 O 289.868 -4.04708 -0.792784 0
M  V30 2875 H 289.209 -0.653206 0.119241 0
M  V30 2876 H 291.739 -1.80471 0.96391 0
M  V30 2877 H 291.749 -4.07951 0.0634791 0
M  V30 2878 H 290.424 -3.97866 1.21141 0
M  V30 2879 H 289.001 -3.68111 -0.59572 0
M  V30 2880 N 291.186 -0.45159 -1.50991 0
M  V30 2881 C 292.149 0.341117 -2.26647 0
M  V30 2882 C 293.149 0.937422 -1.30649 0
M  V30 2883 O 294.339 0.809644 -1.54241 0
M  V30 2884 C 291.471 1.48398 -3.06905 0
M  V30 2885 H 292.664 -0.322117 -2.98165 0
M  V30 2886 H 290.217 -0.205122 -1.54948 0
M  V30 2887 H 290.952 2.18284 -2.39838 0
M  V30 2888 H 290.737 1.06241 -3.77432 0
M  V30 2889 H 292.227 2.04367 -3.64176 0
M  V30 2890 N 292.664 1.56529 -0.183458 0
M  V30 2891 C 293.596 2.15747 0.773697 0
M  V30 2892 C 294.609 1.1162 1.1851 0
M  V30 2893 O 295.798 1.3876 1.12285 0
M  V30 2894 C 292.898 2.6952 2.05456 0
M  V30 2895 C 292.071 3.98429 1.8048 0
M  V30 2896 C 291.13 4.37145 2.92901 0
M  V30 2897 O 290.156 5.04791 2.6301 0
M  V30 2898 N 291.358 3.99695 4.2098 0
M  V30 2899 H 294.123 2.98505 0.26736 0
M  V30 2900 H 291.684 1.619 -0.0010878 0
M  V30 2901 H 293.676 2.92412 2.79781 0
M  V30 2902 H 292.246 1.91282 2.47245 0
M  V30 2903 H 291.466 3.8379 0.899947 0
M  V30 2904 H 292.754 4.82597 1.61175 0
M  V30 2905 H 292.152 3.4526 4.48121 0
M  V30 2906 H 290.709 4.27562 4.9197 0
M  V30 2907 N 294.142 -0.090211 1.57342 0
M  V30 2908 C 295.391 -0.791531 1.8552 0
M  V30 2909 C 295.704 -1.79659 0.773441 0
M  V30 2910 O 296.91 -2.54616 0.942497 0
M  V30 2911 C 295.366 -1.45856 3.2902 0
M  V30 2912 C 294.974 -0.493017 4.45279 0
M  V30 2913 C 296.718 -2.14332 3.66418 0
M  V30 2914 C 294.625 -1.16491 5.79814 0
M  V30 2915 H 293.555 -0.299356 0.692027 0
M  V30 2916 H 296.206 -0.0445343 1.83446 0
M  V30 2917 H 294.588 -2.25318 3.2565 0
M  V30 2918 H 295.762 0.270464 4.60006 0
M  V30 2919 H 294.077 0.0863061 4.16311 0
M  V30 2920 H 296.674 -2.65344 4.64216 0
M  V30 2921 H 297.017 -2.93447 2.95287 0
M  V30 2922 H 297.55 -1.41724 3.71698 0
M  V30 2923 H 294.289 -0.41447 6.54188 0
M  V30 2924 H 293.809 -1.8997 5.68921 0
M  V30 2925 H 295.488 -1.69001 6.24538 0
M  V30 2926 N 295.62 -1.53406 -0.361157 0
M  V30 2927 C 296.845 -1.74024 -1.12829 0
M  V30 2928 C 297.27 -0.470069 -1.82132 0
M  V30 2929 O 296.628 0.57619 -1.719 0
M  V30 2930 C 296.676 -2.90903 -2.13091 0
M  V30 2931 O 295.78 -2.59821 -3.20261 0
M  V30 2932 H 295.121 -0.577804 -0.327168 0
M  V30 2933 H 297.651 -2.00307 -0.41693 0
M  V30 2934 H 297.661 -3.17194 -2.56616 0
M  V30 2935 H 296.336 -3.83034 -1.62042 0
M  V30 2936 H 294.913 -2.44362 -2.81677 0
M  V30 2937 N 297.098 0.621204 -1.44841 0
M  V30 2938 C 298.061 1.71459 -1.521 0
M  V30 2939 C 299.061 1.55696 -0.401933 0
M  V30 2940 O 300.251 1.61011 -0.664925 0
M  V30 2941 C 297.383 3.10624 -1.40447 0
M  V30 2942 H 298.576 1.66394 -2.49506 0
M  V30 2943 H 296.129 0.835745 -1.3208 0
M  V30 2944 H 296.864 3.21277 -0.441737 0
M  V30 2945 H 296.649 3.23473 -2.21602 0
M  V30 2946 H 298.139 3.90293 -1.4853 0
M  V30 2947 N 298.576 1.31904 0.862503 0
M  V30 2948 C 299.506 1.22782 1.98612 0
M  V30 2949 C 300.487 0.113362 1.69722 0
M  V30 2950 O 301.672 0.299218 1.91881 0
M  V30 2951 C 298.802 0.942058 3.34279 0
M  V30 2952 C 297.756 2.0169 3.77499 0
M  V30 2953 C 297.082 1.58369 5.10709 0
M  V30 2954 C 298.382 3.43096 3.93805 0
M  V30 2955 H 300.076 2.16788 2.06502 0
M  V30 2956 H 297.622 1.04366 0.992154 0
M  V30 2957 H 299.575 0.864818 4.1243 0
M  V30 2958 H 298.299 -0.0336603 3.26583 0
M  V30 2959 H 296.958 2.08416 3.01593 0
M  V30 2960 H 296.606 0.595628 4.99461 0
M  V30 2961 H 296.306 2.30279 5.40597 0
M  V30 2962 H 297.83 1.52067 5.91361 0
M  V30 2963 H 299.244 3.39003 4.62331 0
M  V30 2964 H 297.641 4.13288 4.35101 0
M  V30 2965 H 298.711 3.83334 2.96957 0
M  V30 2966 N 300.054 -1.07777 1.14986 0
M  V30 2967 C 301.282 -1.84018 0.945773 0
M  V30 2968 C 301.697 -1.81897 -0.505863 0
M  V30 2969 O 301.054 -1.22726 -1.35072 0
M  V30 2970 C 301.105 -3.31287 1.44677 0
M  V30 2971 O 300.826 -3.33449 2.84154 0
M  V30 2972 C 302.327 -4.24311 1.28355 0
M  V30 2973 H 299.547 -0.580716 0.336169 0
M  V30 2974 H 302.091 -1.36077 1.52654 0
M  V30 2975 H 300.246 -3.76594 0.908625 0
M  V30 2976 H 300.66 -4.25427 3.06777 0
M  V30 2977 H 302.134 -5.2573 1.68261 0
M  V30 2978 H 302.611 -4.38612 0.227184 0
M  V30 2979 H 303.217 -3.84836 1.81056 0
M  V30 2980 N 301.532 -0.945985 -1.26051 0
M  V30 2981 C 302.778 -0.597002 -1.93814 0
M  V30 2982 C 303.111 0.862484 -1.73997 0
M  V30 2983 O 302.386 1.61769 -1.07986 0
M  V30 2984 C 302.669 -0.945937 -3.47454 0
M  V30 2985 C 302.522 -2.46052 -3.76535 0
M  V30 2986 C 303.841 -0.464785 -4.37639 0
M  V30 2987 H 300.96 -0.218366 -0.703907 0
M  V30 2988 H 303.602 -1.18107 -1.48831 0
M  V30 2989 H 301.752 -0.448902 -3.85898 0
M  V30 2990 H 303.424 -3.03065 -3.47778 0
M  V30 2991 H 301.667 -2.90194 -3.22444 0
M  V30 2992 H 302.338 -2.65517 -4.83947 0
M  V30 2993 H 304.814 -0.891016 -4.06448 0
M  V30 2994 H 303.69 -0.737712 -5.4392 0
M  V30 2995 H 303.951 0.635274 -4.37512 0
M  V30 2996 N 303.011 1.40521 -0.713556 0
M  V30 2997 C 303.974 2.29098 -0.0684347 0
M  V30 2998 C 304.974 1.45268 0.689472 0
M  V30 2999 O 306.164 1.66205 0.521677 0
M  V30 3000 C 303.296 3.28446 0.913024 0
M  V30 3001 H 304.489 2.87645 -0.84855 0
M  V30 3002 H 302.042 1.48809 -0.47809 0
M  V30 3003 H 302.777 2.74913 1.72027 0
M  V30 3004 H 302.562 3.90327 0.372472 0
M  V30 3005 H 304.052 3.94777 1.36165 0
M  V30 3006 N 304.489 0.459591 1.5075 0
M  V30 3007 C 305.439 -0.358926 2.25157 0
M  V30 3008 C 306.423 -0.971285 1.28276 0
M  V30 3009 O 307.615 -0.885739 1.53244 0
M  V30 3010 C 304.744 -1.44695 3.11317 0
M  V30 3011 C 303.83 -0.842894 4.15639 0
M  V30 3012 N 304.221 0.0299373 5.05791 0
M  V30 3013 C 302.519 -1.10809 4.32015 0
M  V30 3014 C 303.22 0.371563 5.80512 0
M  V30 3015 N 302.196 -0.250409 5.43023 0
M  V30 3016 H 305.998 0.313636 2.92222 0
M  V30 3017 H 303.512 0.273021 1.60089 0
M  V30 3018 H 305.509 -2.04641 3.63218 0
M  V30 3019 H 304.169 -2.12162 2.45799 0
M  V30 3020 H 305.18 0.39797 5.16369 0
M  V30 3021 H 301.857 -1.7786 3.77719 0
M  V30 3022 H 303.247 1.08319 6.63111 0
M  V30 3023 N 305.967 -1.56429 0.191757 0
M  V30 3024 C 307.215 -1.97095 -0.447006 0
M  V30 3025 C 307.536 -1.07967 -1.62383 0
M  V30 3026 O 306.806 -0.150248 -1.95323 0
M  V30 3027 H 305.386 -0.727832 -0.168135 0
M  V30 3028 H 308.048 -1.92911 0.27771 0
M  V30 3029 H 307.144 -3.01848 -0.793371 0
M  V30 3030 N 307.445 0.0818655 -1.57387 0
M  V30 3031 C 308.355 1.11642 -2.06333 0
M  V30 3032 C 309.371 1.43033 -0.99083 0
M  V30 3033 O 310.547 1.53411 -1.30488 0
M  V30 3034 C 307.612 2.41342 -2.48907 0
M  V30 3035 C 306.673 2.17014 -3.7041 0
M  V30 3036 C 305.906 3.4053 -4.10944 0
M  V30 3037 O 306.129 4.4927 -3.51444 0
M  V30 3038 O 305.063 3.29336 -5.03807 0
M  V30 3039 H 308.889 0.730657 -2.9478 0
M  V30 3040 H 306.474 0.295301 -1.46452 0
M  V30 3041 H 308.356 3.17691 -2.76858 0
M  V30 3042 H 307.031 2.79319 -1.63593 0
M  V30 3043 H 305.938 1.38403 -3.47556 0
M  V30 3044 H 307.271 1.83923 -4.56545 0
M  V30 3045 N 308.923 1.53595 0.353017 0
M  V30 3046 C 310.339 1.43648 0.695516 0
M  V30 3047 C 310.539 0.585617 1.92802 0
M  V30 3048 O 309.595 0.0729223 2.52395 0
M  V30 3049 C 310.908 2.8701 0.896991 0
M  V30 3050 C 312.456 2.96723 0.996209 0
M  V30 3051 C 312.931 4.41173 1.23007 0
M  V30 3052 N 314.422 4.44657 1.29749 0
M  V30 3053 C 315.157 5.53547 1.49577 0
M  V30 3054 N 314.653 6.72461 1.66639 0
M  V30 3055 N 316.446 5.41145 1.52048 0
M  V30 3056 H 308.597 2.07415 -0.457481 0
M  V30 3057 H 310.86 0.9372 -0.142687 0
M  V30 3058 H 310.566 3.51644 0.0629938 0
M  V30 3059 H 310.44 3.31401 1.80148 0
M  V30 3060 H 312.827 2.32235 1.82074 0
M  V30 3061 H 312.908 2.55707 0.0688331 0
M  V30 3062 H 312.552 5.06238 0.410505 0
M  V30 3063 H 312.482 4.79772 2.17086 0
M  V30 3064 H 314.973 3.58963 1.18126 0
M  V30 3065 H 315.286 7.51214 1.81378 0
M  V30 3066 H 313.631 6.75423 1.63794 0
M  V30 3067 H 316.822 4.47205 1.38294 0
M  V30 3068 H 316.995 6.26068 1.67159 0
M  V30 3069 N 310.401 -0.613514 1.45168 0
M  V30 3070 C 311.648 -1.37268 1.48875 0
M  V30 3071 C 311.976 -1.94077 0.128161 0
M  V30 3072 O 311.231 -1.75178 -0.872416 0
M  V30 3073 C 311.53 -2.54347 2.51083 0
M  V30 3074 C 311.196 -2.1572 3.95949 0
M  V30 3075 C 309.858 -2.04899 4.35396 0
M  V30 3076 C 312.21 -1.85485 4.87078 0
M  V30 3077 C 309.538 -1.62057 5.63875 0
M  V30 3078 C 311.89 -1.4413 6.15962 0
M  V30 3079 C 310.554 -1.31863 6.54346 0
M  V30 3080 H 309.824 -0.502299 0.544773 0
M  V30 3081 H 312.471 -0.694021 1.78481 0
M  V30 3082 H 310.776 -3.27524 2.15024 0
M  V30 3083 H 312.473 -3.12577 2.51191 0
M  V30 3084 H 309.063 -2.25066 3.64751 0
M  V30 3085 H 313.247 -1.92745 4.57343 0
M  V30 3086 H 308.503 -1.51177 5.92415 0
M  V30 3087 H 312.677 -1.19778 6.86022 0
M  V30 3088 H 310.304 -0.984392 7.538 0
M  V30 3089 N 311.879 -1.3236 -0.855495 0
M  V30 3090 C 313.156 -1.13491 -1.59309 0
M  V30 3091 C 313.536 0.30503 -2.08885 0
M  V30 3092 O 312.884 1.30151 -1.87811 0
M  V30 3093 C 313.094 -2.16176 -2.73987 0
M  V30 3094 C 314.442 -2.49463 -3.43589 0
M  V30 3095 O 315.466 -2.14715 -2.84211 0
M  V30 3096 O 314.325 -3.09027 -4.50738 0
M  V30 3097 H 311.419 -0.437887 -0.701559 0
M  V30 3098 H 313.965 -1.43887 -0.899696 0
M  V30 3099 H 312.737 -3.1297 -2.34873 0
M  V30 3100 H 312.36 -1.86769 -3.51003 0
M  V30 3101 N 313.357 1.07166 -1.15556 0
M  V30 3102 C 314.585 1.83514 -0.955519 0
M  V30 3103 C 315 1.82163 0.49621 0
M  V30 3104 O 314.357 1.23441 1.34419 0
M  V30 3105 C 314.408 3.30515 -1.46432 0
M  V30 3106 O 314.129 3.31937 -2.85918 0
M  V30 3107 C 315.63 4.23625 -1.30603 0
M  V30 3108 H 312.85 0.578926 -0.339244 0
M  V30 3109 H 315.394 1.35265 -1.53374 0
M  V30 3110 H 313.549 3.76106 -0.928584 0
M  V30 3111 H 313.963 4.23794 -3.09029 0
M  V30 3112 H 315.437 5.24831 -1.71047 0
M  V30 3113 H 315.914 4.38485 -0.250441 0
M  V30 3114 H 316.52 3.83871 -1.83094 0
M  V30 3115 N 314.835 0.952656 1.25548 0
M  V30 3116 C 316.083 0.605176 1.92826 0
M  V30 3117 C 316.404 -0.860261 1.74999 0
M  V30 3118 O 315.674 -1.6125 1.11244 0
M  V30 3119 H 314.254 0.220832 0.713612 0
M  V30 3120 H 316.916 1.21047 1.52754 0
M  V30 3121 H 316.012 0.832798 3.00784 0
M  V30 3122 N 316.313 -1.40141 0.720998 0
M  V30 3123 C 317.559 -2.01084 0.263231 0
M  V30 3124 C 317.892 -1.57052 -1.14229 0
M  V30 3125 O 317.167 -0.793027 -1.77599 0
M  V30 3126 C 317.45 -3.58401 0.349344 0
M  V30 3127 C 317.303 -4.12491 1.79363 0
M  V30 3128 C 318.622 -4.39231 -0.276351 0
M  V30 3129 H 315.741 -0.730572 0.0971228 0
M  V30 3130 H 318.383 -1.66543 0.914518 0
M  V30 3131 H 316.533 -3.87958 -0.205165 0
M  V30 3132 H 318.205 -3.93711 2.40394 0
M  V30 3133 H 316.448 -3.66576 2.31958 0
M  V30 3134 H 317.119 -5.21646 1.80524 0
M  V30 3135 H 319.595 -4.15637 0.196184 0
M  V30 3136 H 318.471 -5.48586 -0.185681 0
M  V30 3137 H 318.732 -4.20643 -1.36059 0
M  V30 3138 N 317.792 -0.46758 -1.50504 0
M  V30 3139 C 319.02 0.0864133 -2.06719 0
M  V30 3140 C 319.435 1.33819 -1.33184 0
M  V30 3141 O 318.792 1.78061 -0.400083 0
M  V30 3142 C 318.843 0.378079 -3.59517 0
M  V30 3143 O 318.564 -0.824044 -4.3028 0
M  V30 3144 C 320.065 0.979426 -4.32345 0
M  V30 3145 H 317.285 -0.00551697 -0.670977 0
M  V30 3146 H 319.829 -0.655354 -1.93715 0
M  V30 3147 H 317.984 1.06977 -3.72337 0
M  V30 3148 H 318.398 -0.566518 -5.21432 0
M  V30 3149 H 319.872 1.1333 -5.40241 0
M  V30 3150 H 320.349 1.9686 -3.9261 0
M  V30 3151 H 320.955 0.326216 -4.24047 0
M  V30 3152 N 319.27 1.56325 -0.20005 0
M  V30 3153 C 320.18 2.22931 0.730668 0
M  V30 3154 C 321.196 1.22997 1.23076 0
M  V30 3155 O 322.372 1.55748 1.27689 0
M  V30 3156 C 319.437 2.87948 1.93098 0
M  V30 3157 C 318.498 4.03166 1.47497 0
M  V30 3158 C 317.731 4.65073 2.61807 0
M  V30 3159 O 317.954 4.25913 3.79413 0
M  V30 3160 O 316.888 5.54452 2.34237 0
M  V30 3161 H 320.714 3.03084 0.193391 0
M  V30 3162 H 318.299 1.49371 0.0294621 0
M  V30 3163 H 320.181 3.29063 2.6324 0
M  V30 3164 H 318.856 2.10771 2.45677 0
M  V30 3165 H 317.763 3.66664 0.742201 0
M  V30 3166 H 319.096 4.82022 0.995796 0
M  V30 3167 N 320.748 -0.0735177 1.57428 0
M  V30 3168 C 321.994 -0.774145 1.87443 0
M  V30 3169 C 322.327 -1.77311 0.792103 0
M  V30 3170 O 321.602 -1.93492 -0.197793 0
M  V30 3171 C 321.885 -1.48367 3.28115 0
M  V30 3172 C 321.738 -0.501227 4.46999 0
M  V30 3173 C 323.057 -2.429 3.66998 0
M  V30 3174 H 320.176 -0.279971 0.681752 0
M  V30 3175 H 322.818 -0.0373616 1.89963 0
M  V30 3176 H 320.968 -2.11171 3.26097 0
M  V30 3177 H 322.64 0.121468 4.6114 0
M  V30 3178 H 320.883 0.183593 4.33411 0
M  V30 3179 H 321.554 -1.03526 5.42205 0
M  V30 3180 H 324.03 -1.90175 3.70098 0
M  V30 3181 H 322.906 -2.89549 4.66318 0
M  V30 3182 H 323.167 -3.27628 2.96837 0
M  V30 3183 N 322.226 -1.5378 -0.344866 0
M  V30 3184 C 323.451 -1.75211 -1.10977 0
M  V30 3185 C 323.876 -0.48936 -1.81623 0
M  V30 3186 O 323.234 0.557925 -1.72502 0
M  V30 3187 C 323.282 -2.93147 -2.09993 0
M  V30 3188 O 322.386 -2.63203 -3.17487 0
M  V30 3189 H 321.727 -0.581241 -0.321021 0
M  V30 3190 H 324.257 -2.00738 -0.395661 0
M  V30 3191 H 324.267 -3.19898 -2.53237 0
M  V30 3192 H 322.942 -3.84731 -1.5797 0
M  V30 3193 H 321.519 -2.47336 -2.79069 0
M  V30 3194 N 323.704 0.605807 -1.45491 0
M  V30 3195 C 324.95 1.36679 -1.49823 0
M  V30 3196 C 325.283 1.93693 -0.140175 0
M  V30 3197 O 324.558 1.75158 0.845581 0
M  V30 3198 C 324.841 2.51337 -2.57879 0
M  V30 3199 C 324.694 1.99508 -4.03134 0
M  V30 3200 C 326.013 3.53463 -2.62205 0
M  V30 3201 H 323.132 0.495617 -0.545466 0
M  V30 3202 H 325.774 0.682732 -1.7731 0
M  V30 3203 H 323.924 3.09691 -2.34571 0
M  V30 3204 H 325.596 1.45789 -4.37656 0
M  V30 3205 H 323.839 1.30496 -4.13707 0
M  V30 3206 H 324.51 2.82169 -4.74431 0
M  V30 3207 H 326.986 3.04953 -2.83095 0
M  V30 3208 H 325.862 4.31178 -3.39672 0
M  V30 3209 H 326.123 4.09197 -1.67363 0
M  V30 3210 N 325.182 1.32811 0.848464 0
M  V30 3211 C 326.41 1.26739 1.63538 0
M  V30 3212 C 326.825 -0.163484 1.88091 0
M  V30 3213 O 326.182 -1.10258 1.45429 0
M  V30 3214 C 326.233 2.03013 2.99112 0
M  V30 3215 O 325.954 3.40518 2.75643 0
M  V30 3216 C 327.455 2.04038 3.93552 0
M  V30 3217 H 324.675 0.437024 0.509167 0
M  V30 3218 H 327.219 1.75033 1.05753 0
M  V30 3219 H 325.374 1.58426 3.53525 0
M  V30 3220 H 325.788 3.79635 3.61908 0
M  V30 3221 H 327.262 2.61877 4.85926 0
M  V30 3222 H 327.739 1.0282 4.26995 0
M  V30 3223 H 328.345 2.486 3.45077 0
M  V30 3224 N 326.66 -1.06551 1.16123 0
M  V30 3225 C 328.071 -1.60768 0.949232 0
M  V30 3226 C 328.422 -1.89523 -0.507508 0
M  V30 3227 O 327.547 -1.66671 -1.38021 0
M  V30 3228 C 328.142 -2.92086 1.71671 0
M  V30 3229 C 326.701 -3.43015 1.54977 0
M  V30 3230 C 325.848 -2.16947 1.72711 0
M  V30 3231 H 328.799 -0.895354 1.31031 0
M  V30 3232 H 328.82 -3.6138 1.19099 0
M  V30 3233 H 328.332 -2.71127 2.7769 0
M  V30 3234 H 326.433 -3.69039 0.513873 0
M  V30 3235 H 326.546 -4.18516 2.33198 0
M  V30 3236 H 324.91 -2.27041 1.15431 0
M  V30 3237 H 325.693 -1.98473 2.80113 0
M  V30 3238 N 328.138 -0.959301 -1.25041 0
M  V30 3239 C 329.101 -0.487677 -2.23952 0
M  V30 3240 C 330.101 0.41119 -1.55454 0
M  V30 3241 O 331.291 0.207825 -1.72956 0
M  V30 3242 C 328.423 0.294807 -3.39623 0
M  V30 3243 H 329.616 -1.36198 -2.67189 0
M  V30 3244 H 327.169 -0.743042 -1.37508 0
M  V30 3245 H 327.904 1.18658 -3.01813 0
M  V30 3246 H 327.689 -0.35012 -3.90534 0
M  V30 3247 H 329.179 0.614089 -4.1306 0
M  V30 3248 N 329.616 1.39756 -0.72842 0
M  V30 3249 C 330.579 2.29012 -0.0927297 0
M  V30 3250 C 331.579 1.45992 0.674025 0
M  V30 3251 O 332.769 1.66749 0.50402 0
M  V30 3252 C 329.901 3.29396 0.878137 0
M  V30 3253 H 331.094 2.86729 -0.879011 0
M  V30 3254 H 328.647 1.48293 -0.493847 0
M  V30 3255 H 329.382 2.76722 1.69101 0
M  V30 3256 H 329.167 3.907 0.331051 0
M  V30 3257 H 330.657 3.96199 1.3197 0
M  V30 3258 N 331.094 0.475555 1.50254 0
M  V30 3259 C 332.004 -0.321501 2.32387 0
M  V30 3260 C 333.02 -0.991755 1.42969 0
M  V30 3261 O 334.196 -0.978747 1.76018 0
M  V30 3262 C 331.261 -1.38667 3.17762 0
M  V30 3263 C 330.322 -0.732538 4.23004 0
M  V30 3264 C 329.555 -1.74695 5.04299 0
M  V30 3265 O 329.778 -2.97399 4.86734 0
M  V30 3266 O 328.712 -1.31631 5.8733 0
M  V30 3267 H 332.538 0.350071 3.01676 0
M  V30 3268 H 330.123 0.237321 1.47503 0
M  V30 3269 H 332.005 -2.00354 3.70724 0
M  V30 3270 H 330.68 -2.04163 2.51196 0
M  V30 3271 H 329.587 -0.0765902 3.74022 0
M  V30 3272 H 330.92 -0.120452 4.92053 0
M  V30 3273 N 332.573 -1.56217 0.208337 0
M  V30 3274 C 333.821 -1.97558 -0.426076 0
M  V30 3275 C 334.142 -1.09683 -1.61229 0
M  V30 3276 O 333.412 -0.170956 -1.95153 0
M  V30 3277 H 331.992 -0.729575 -0.160405 0
M  V30 3278 H 334.654 -1.92606 0.298155 0
M  V30 3279 H 333.75 -3.02672 -0.761312 0
M  V30 3280 N 334.051 0.0651679 -1.57465 0
M  V30 3281 C 334.961 1.09448 -2.07505 0
M  V30 3282 C 335.977 1.41974 -1.00595 0
M  V30 3283 O 337.153 1.52018 -1.32107 0
M  V30 3284 C 334.218 2.38689 -2.51453 0
M  V30 3285 C 333.279 2.13073 -3.72691 0
M  V30 3286 C 332.512 3.36152 -4.14533 0
M  V30 3287 O 332.735 4.45517 -3.56189 0
M  V30 3288 O 331.669 3.23974 -5.07272 0
M  V30 3289 H 335.495 0.69935 -2.95538 0
M  V30 3290 H 333.08 0.279752 -1.46757 0
M  V30 3291 H 334.962 3.14736 -2.80212 0
M  V30 3292 H 333.637 2.77568 -1.66546 0
M  V30 3293 H 332.544 1.34709 -3.49005 0
M  V30 3294 H 333.877 1.79071 -4.5847 0
M  V30 3295 N 335.529 1.53961 0.336706 0
M  V30 3296 C 336.94 1.62914 0.911925 0
M  V30 3297 C 337.291 0.514795 1.89326 0
M  V30 3298 O 336.416 -0.354395 2.13478 0
M  V30 3299 C 337.011 2.95304 1.66076 0
M  V30 3300 C 335.57 3.06496 2.18489 0
M  V30 3301 C 334.717 2.58403 1.00613 0
M  V30 3302 H 337.668 1.58285 0.114649 0
M  V30 3303 H 337.689 2.84727 2.5241 0
M  V30 3304 H 337.201 3.76387 0.946276 0
M  V30 3305 H 335.302 2.3006 2.93092 0
M  V30 3306 H 335.415 4.1208 2.44391 0
M  V30 3307 H 333.779 2.13977 1.38152 0
M  V30 3308 H 334.562 3.41932 0.306179 0
M  V30 3309 N 337.007 -0.598083 1.45811 0
M  V30 3310 C 337.97 -1.69018 1.54808 0
M  V30 3311 C 338.97 -1.55037 0.426652 0
M  V30 3312 O 340.16 -1.59932 0.690456 0
M  V30 3313 C 337.292 -3.0835 1.45371 0
M  V30 3314 H 338.485 -1.62403 2.52121 0
M  V30 3315 H 336.038 -0.814626 1.33392 0
M  V30 3316 H 336.773 -3.20534 0.492793 0
M  V30 3317 H 336.558 -3.19907 2.26721 0
M  V30 3318 H 338.048 -3.8788 1.54721 0
M  V30 3319 N 338.485 -1.33259 -0.841409 0
M  V30 3320 C 339.762 -1.15174 -1.58096 0
M  V30 3321 C 340.142 0.282858 -2.09196 0
M  V30 3322 O 339.49 1.28151 -1.89181 0
M  V30 3323 C 339.7 -2.1907 -2.71679 0
M  V30 3324 C 341.048 -2.53093 -3.40924 0
M  V30 3325 O 342.072 -2.17717 -2.81918 0
M  V30 3326 O 340.931 -3.1379 -4.47435 0
M  V30 3327 H 338.025 -0.445303 -0.696875 0
M  V30 3328 H 340.571 -1.44833 -0.884385 0
M  V30 3329 H 339.343 -3.15443 -2.31541 0
M  V30 3330 H 338.966 -1.90481 -3.49002 0
M  V30 3331 N 339.963 1.05934 -1.16686 0
M  V30 3332 C 341.209 1.79065 -0.95203 0
M  V30 3333 C 341.542 1.87147 0.518629 0
M  V30 3334 O 340.817 1.36574 1.38484 0
M  V30 3335 C 341.1 3.23359 -1.58464 0
M  V30 3336 C 340.953 3.23336 -3.12689 0
M  V30 3337 C 342.272 4.21004 -1.28232 0
M  V30 3338 H 339.391 0.65005 -0.34728 0
M  V30 3339 H 342.033 1.23868 -1.44072 0
M  V30 3340 H 340.183 3.70493 -1.16908 0
M  V30 3341 H 341.855 2.84336 -3.6325 0
M  V30 3342 H 340.098 2.61886 -3.4583 0
M  V30 3343 H 340.769 4.25144 -3.52075 0
M  V30 3344 H 343.245 3.8233 -1.64203 0
M  V30 3345 H 342.121 5.20225 -1.75092 0
M  V30 3346 H 342.382 4.41639 -0.201791 0
M  V30 3347 N 341.441 0.965919 1.2453 0
M  V30 3348 C 342.718 0.543777 1.87889 0
M  V30 3349 C 343.098 -0.97909 1.87021 0
M  V30 3350 O 342.446 -1.84969 1.3416 0
M  V30 3351 C 342.656 1.13327 3.30088 0
M  V30 3352 C 344.004 1.21707 4.06783 0
M  V30 3353 O 345.028 1.08566 3.39252 0
M  V30 3354 O 343.887 1.42456 5.27606 0
M  V30 3355 H 340.981 0.181054 0.806938 0
M  V30 3356 H 343.527 1.06007 1.32516 0
M  V30 3357 H 342.299 2.17612 3.25209 0
M  V30 3358 H 341.922 0.600911 3.93033 0
M  V30 3359 N 342.919 -1.39368 0.735821 0
M  V30 3360 C 343.849 -2.33234 0.111506 0
M  V30 3361 C 344.83 -1.53954 -0.723334 0
M  V30 3362 O 346.015 -1.82344 -0.668147 0
M  V30 3363 C 343.145 -3.38057 -0.795917 0
M  V30 3364 C 342.099 -4.2795 -0.065172 0
M  V30 3365 C 341.425 -5.23479 -1.08967 0
M  V30 3366 C 342.725 -5.10741 1.09273 0
M  V30 3367 H 344.419 -2.85692 0.895571 0
M  V30 3368 H 341.965 -1.37364 0.432109 0
M  V30 3369 H 343.918 -4.02675 -1.24221 0
M  V30 3370 H 342.642 -2.8404 -1.61211 0
M  V30 3371 H 341.301 -3.64813 0.361511 0
M  V30 3372 H 340.949 -4.65758 -1.89944 0
M  V30 3373 H 340.649 -5.84472 -0.605489 0
M  V30 3374 H 342.173 -5.90974 -1.53565 0
M  V30 3375 H 343.587 -5.68699 0.724841 0
M  V30 3376 H 341.984 -5.8088 1.50659 0
M  V30 3377 H 343.054 -4.45525 1.91404 0
M  V30 3378 N 344.397 -0.483516 -1.5 0
M  V30 3379 C 345.645 0.067027 -2.01989 0
M  V30 3380 C 345.966 1.3909 -1.36671 0
M  V30 3381 O 345.236 1.88978 -0.516152 0
M  V30 3382 H 343.816 0.0277606 -0.746484 0
M  V30 3383 H 346.478 -0.636773 -1.84204 0
M  V30 3384 H 345.574 0.209484 -3.11396 0
M  V30 3385 N 345.875 1.56104 -0.216619 0
M  V30 3386 C 346.838 2.18819 0.681962 0
M  V30 3387 C 347.838 1.14866 1.12528 0
M  V30 3388 O 349.028 1.40128 1.03488 0
M  V30 3389 C 346.16 2.80756 1.93362 0
M  V30 3390 H 347.353 2.99595 0.135254 0
M  V30 3391 H 344.906 1.56265 0.0330003 0
M  V30 3392 H 345.641 2.03837 2.52232 0
M  V30 3393 H 345.426 3.56876 1.62426 0
M  V30 3394 H 346.916 3.28844 2.57393 0
M  V30 3395 N 347.353 -0.0568162 1.57498 0
M  V30 3396 C 348.316 -1.05038 2.03715 0
M  V30 3397 C 349.316 -1.30709 0.936577 0
M  V30 3398 O 350.506 -1.26178 1.20103 0
M  V30 3399 C 347.638 -2.39034 2.43055 0
M  V30 3400 H 348.831 -0.651715 2.92733 0
M  V30 3401 H 346.384 -0.302947 1.53336 0
M  V30 3402 H 347.119 -2.83703 1.57108 0
M  V30 3403 H 346.904 -2.21739 3.2338 0
M  V30 3404 H 348.394 -3.10421 2.79336 0
M  V30 3405 N 348.832 -1.54138 -0.328536 0
M  V30 3406 C 349.742 -1.86192 -1.42723 0
M  V30 3407 C 350.758 -0.753382 -1.56844 0
M  V30 3408 O 351.934 -1.04718 -1.72035 0
M  V30 3409 C 348.999 -2.07824 -2.77507 0
M  V30 3410 C 348.06 -3.31641 -2.72603 0
M  V30 3411 C 347.293 -3.52232 -4.00959 0
M  V30 3412 O 347.516 -2.7636 -4.9898 0
M  V30 3413 O 346.45 -4.45699 -4.0452 0
M  V30 3414 H 350.276 -2.79608 -1.18547 0
M  V30 3415 H 347.861 -1.3998 -0.522104 0
M  V30 3416 H 349.743 -2.23411 -3.57303 0
M  V30 3417 H 348.418 -1.17596 -3.01584 0
M  V30 3418 H 347.325 -3.21444 -1.91376 0
M  V30 3419 H 348.658 -4.2191 -2.53481 0
M  V30 3420 N 350.31 0.590341 -1.46126 0
M  V30 3421 C 351.558 1.34616 -1.50742 0
M  V30 3422 C 351.879 1.94363 -0.157486 0
M  V30 3423 O 351.149 1.78136 0.815136 0
M  V30 3424 H 349.729 0.499789 -0.555175 0
M  V30 3425 H 352.391 0.691953 -1.82203 0
M  V30 3426 H 351.487 2.15678 -2.25587 0
M  V30 3427 N 351.788 1.33704 0.83433 0
M  V30 3428 C 353.018 1.28281 1.6195 0
M  V30 3429 C 353.426 -0.147603 1.88623 0
M  V30 3430 O 352.769 -1.1016 1.47005 0
M  V30 3431 C 352.831 1.99386 2.99141 0
M  V30 3432 C 352.495 3.48681 2.95416 0
M  V30 3433 C 353.492 4.438 2.70809 0
M  V30 3434 C 351.177 3.90925 3.15409 0
M  V30 3435 C 353.171 5.79138 2.66229 0
M  V30 3436 C 350.858 5.26366 3.10454 0
M  V30 3437 C 351.856 6.20284 2.85895 0
M  V30 3438 O 351.544 7.53245 2.80852 0
M  V30 3439 H 351.276 0.44315 0.510484 0
M  V30 3440 H 353.83 1.76711 1.04702 0
M  V30 3441 H 352.06 1.45554 3.58261 0
M  V30 3442 H 353.749 1.87403 3.60049 0
M  V30 3443 H 354.515 4.12485 2.5511 0
M  V30 3444 H 350.394 3.18229 3.33543 0
M  V30 3445 H 353.938 6.52416 2.4698 0
M  V30 3446 H 349.835 5.57304 3.25703 0
M  V30 3447 H 350.603 7.62846 2.96661 0
M  V30 3448 N 353.266 -1.05314 1.17247 0
M  V30 3449 C 354.229 -2.112 0.890357 0
M  V30 3450 C 355.229 -1.60359 -0.118943 0
M  V30 3451 O 356.419 -1.73833 0.113086 0
M  V30 3452 C 353.551 -3.39266 0.333422 0
M  V30 3453 H 354.744 -2.37659 1.82916 0
M  V30 3454 H 352.297 -1.21538 0.982758 0
M  V30 3455 H 353.032 -3.18462 -0.612587 0
M  V30 3456 H 352.817 -3.77477 1.06082 0
M  V30 3457 H 354.307 -4.17315 0.154322 0
M  V30 3458 N 354.744 -0.972509 -1.24016 0
M  V30 3459 C 355.654 -0.5143 -2.28893 0
M  V30 3460 C 356.67 0.427078 -1.68677 0
M  V30 3461 O 357.846 0.298939 -1.99169 0
M  V30 3462 C 354.911 0.183598 -3.46214 0
M  V30 3463 C 353.972 -0.798202 -4.21814 0
M  V30 3464 C 353.205 -0.133514 -5.33533 0
M  V30 3465 O 353.428 1.07714 -5.60137 0
M  V30 3466 O 352.362 -0.828103 -5.96176 0
M  V30 3467 H 356.188 -1.38629 -2.70214 0
M  V30 3468 H 353.773 -0.739769 -1.29799 0
M  V30 3469 H 355.655 0.575433 -4.17453 0
M  V30 3470 H 354.33 1.03048 -3.0686 0
M  V30 3471 H 353.237 -1.24059 -3.52931 0
M  V30 3472 H 354.57 -1.61364 -4.64997 0
M  V30 3473 N 356.222 1.38976 -0.743202 0
M  V30 3474 C 357.152 2.33171 -0.123873 0
M  V30 3475 C 358.133 1.54336 0.71516 0
M  V30 3476 O 359.318 1.82696 0.658467 0
M  V30 3477 C 356.448 3.38474 0.777978 0
M  V30 3478 C 355.402 4.27979 0.0424758 0
M  V30 3479 C 354.728 5.2405 1.06189 0
M  V30 3480 C 356.028 5.10155 -1.1198 0
M  V30 3481 H 357.722 2.85213 -0.910709 0
M  V30 3482 H 355.268 1.37133 -0.439388 0
M  V30 3483 H 357.221 4.03328 1.22084 0
M  V30 3484 H 355.945 2.84891 1.59702 0
M  V30 3485 H 354.604 3.64616 -0.380853 0
M  V30 3486 H 354.252 4.66758 1.87472 0
M  V30 3487 H 353.952 5.84785 0.574485 0
M  V30 3488 H 355.476 5.9178 1.50428 0
M  V30 3489 H 356.89 5.68307 -0.75499 0
M  V30 3490 H 355.287 5.80073 -1.53738 0
M  V30 3491 H 356.357 4.44504 -1.93764 0
M  V30 3492 N 357.7 0.491464 1.49741 0
M  V30 3493 C 358.977 -0.118984 1.95238 0
M  V30 3494 C 359.357 -1.55044 1.43264 0
M  V30 3495 O 358.705 -2.19287 0.642287 0
M  V30 3496 C 358.915 -0.0414187 3.48975 0
M  V30 3497 C 360.263 -0.220133 4.24029 0
M  V30 3498 O 361.287 -0.117055 3.56008 0
M  V30 3499 O 360.146 -0.430567 5.44801 0
M  V30 3500 H 357.24 -0.100536 0.820866 0
M  V30 3501 H 359.786 0.553322 1.60426 0
M  V30 3502 H 358.558 0.957214 3.79412 0
M  V30 3503 H 358.181 -0.754292 3.9038 0
M  V30 3504 N 359.178 -1.55987 0.224894 0
M  V30 3505 C 360.126 -2.21808 -0.700283 0
M  V30 3506 C 361.12 -1.19854 -1.19714 0
M  V30 3507 O 362.326 -1.37925 -1.15658 0
M  V30 3508 H 358.701 -0.711226 -0.244258 0
M  V30 3509 H 360.672 -2.98152 -0.121749 0
M  V30 3510 C 359.421 -2.91444 -1.8962 0
M  V30 3511 H 358.744 -3.69655 -1.52299 0
M  V30 3512 H 360.184 -3.40894 -2.52125 0
M  V30 3513 C 358.643 -1.94098 -2.75368 0
M  V30 3514 O 359.173 -1.46004 -3.74227 0
M  V30 3515 N 357.379 -1.61675 -2.41474 0
M  V30 3516 H 356.926 -2.00979 -1.61137 0
M  V30 3517 H 356.884 -0.968036 -2.99126 0
M  V30 3518 N 360.656 0.0484629 -1.57525 0
M  V30 3519 C 362.072 0.40375 -1.54409 0
M  V30 3520 C 362.272 1.77786 -0.948384 0
M  V30 3521 O 361.328 2.46189 -0.560983 0
M  V30 3522 C 362.641 0.323394 -2.98956 0
M  V30 3523 C 364.189 0.401892 -3.10409 0
M  V30 3524 C 364.664 0.351195 -4.56652 0
M  V30 3525 N 366.155 0.410576 -4.61377 0
M  V30 3526 C 366.89 0.393933 -5.72045 0
M  V30 3527 N 366.386 0.330724 -6.9201 0
M  V30 3528 N 368.179 0.442227 -5.60358 0
M  V30 3529 H 360.33 -0.851016 -1.94606 0
M  V30 3530 H 362.593 -0.321721 -0.89174 0
M  V30 3531 H 362.299 -0.62011 -3.4619 0
M  V30 3532 H 362.173 1.12463 -3.60044 0
M  V30 3533 H 364.56 1.33582 -2.63134 0
M  V30 3534 H 364.641 -0.428342 -2.52188 0
M  V30 3535 H 364.285 -0.578987 -5.04589 0
M  V30 3536 H 364.215 1.19928 -5.12762 0
M  V30 3537 H 366.706 0.462729 -3.75056 0
M  V30 3538 H 367.019 0.322592 -7.72126 0
M  V30 3539 H 365.364 0.29706 -6.94365 0
M  V30 3540 H 368.555 0.489464 -4.65534 0
M  V30 3541 H 368.728 0.425788 -6.466 0
M  V30 3542 N 362.134 1.5431 0.320358 0
M  V30 3543 C 363.097 1.83195 1.3774 0
M  V30 3544 C 364.097 0.703906 1.44575 0
M  V30 3545 O 365.287 0.972214 1.44546 0
M  V30 3546 C 362.419 1.99487 2.76438 0
M  V30 3547 H 363.612 2.77642 1.1338 0
M  V30 3548 H 361.165 1.46076 0.556012 0
M  V30 3549 H 361.9 1.07262 3.06048 0
M  V30 3550 H 361.685 2.81575 2.7287 0
M  V30 3551 H 363.175 2.23271 3.52902 0
M  V30 3552 N 363.613 -0.582584 1.46437 0
M  V30 3553 C 364.859 -1.34278 1.51978 0
M  V30 3554 C 365.192 -1.93446 0.170973 0
M  V30 3555 O 364.467 -1.76481 -0.817608 0
M  V30 3556 C 364.75 -2.47203 2.61845 0
M  V30 3557 C 364.603 -1.93069 4.06257 0
M  V30 3558 C 365.922 -3.49247 2.67795 0
M  V30 3559 H 363.041 -0.486876 0.553282 0
M  V30 3560 H 365.683 -0.654437 1.78374 0
M  V30 3561 H 363.833 -3.0592 2.39469 0
M  V30 3562 H 365.505 -1.38808 4.3992 0
M  V30 3563 H 363.748 -1.23898 4.1573 0
M  V30 3564 H 364.419 -2.74586 4.7886 0
M  V30 3565 H 366.895 -3.00411 2.8791 0
M  V30 3566 H 365.771 -4.25719 3.46489 0
M  V30 3567 H 366.032 -4.06482 1.73852 0
M  V30 3568 N 365.091 -1.34144 -0.827227 0
M  V30 3569 C 366.319 -1.29325 -1.61501 0
M  V30 3570 C 366.734 0.13354 -1.88327 0
M  V30 3571 O 366.091 1.0793 -1.47164 0
M  V30 3572 C 366.142 -2.07746 -2.95844 0
M  V30 3573 O 365.863 -3.4486 -2.70191 0
M  V30 3574 C 367.364 -2.10273 -3.90256 0
M  V30 3575 H 364.584 -0.445069 -0.50215 0
M  V30 3576 H 367.128 -1.76693 -1.02955 0
M  V30 3577 H 365.283 -1.6403 -3.5096 0
M  V30 3578 H 365.697 -3.85345 -3.55822 0
M  V30 3579 H 367.171 -2.69575 -4.81698 0
M  V30 3580 H 367.648 -1.096 -4.25305 0
M  V30 3581 H 368.254 -2.54059 -3.41078 0
M  V30 3582 N 366.569 1.04691 -1.17803 0
M  V30 3583 C 367.817 1.7743 -0.967617 0
M  V30 3584 C 368.138 1.88359 0.504574 0
M  V30 3585 O 367.408 1.40402 1.36617 0
M  V30 3586 H 365.988 0.657242 -0.355024 0
M  V30 3587 H 368.65 1.2638 -1.48371 0
M  V30 3588 H 367.746 2.78924 -1.40027 0
M  V30 3589 N 368.047 0.979072 1.23499 0
M  V30 3590 C 369.01 0.523244 2.23147 0
M  V30 3591 C 370.01 -0.386406 1.56088 0
M  V30 3592 O 371.2 -0.180283 1.73265 0
M  V30 3593 C 368.332 -0.240739 3.40049 0
M  V30 3594 H 369.525 1.40432 2.64989 0
M  V30 3595 H 367.078 0.764824 1.36309 0
M  V30 3596 H 367.813 -1.13841 3.03662 0
M  V30 3597 H 367.598 0.412207 3.89927 0
M  V30 3598 H 369.088 -0.548297 4.13985 0
M  V30 3599 N 369.525 -1.3858 0.750561 0
M  V30 3600 C 370.488 -2.28836 0.129152 0
M  V30 3601 C 371.488 -1.47045 -0.650714 0
M  V30 3602 O 372.678 -1.6753 -0.477428 0
M  V30 3603 C 369.81 -3.30751 -0.825622 0
M  V30 3604 H 371.003 -2.85294 0.924516 0
M  V30 3605 H 368.556 -1.47489 0.517376 0
M  V30 3606 H 369.291 -2.79378 -1.64677 0
M  V30 3607 H 369.076 -3.91177 -0.268852 0
M  V30 3608 H 370.566 -3.98249 -1.2565 0
M  V30 3609 N 371.003 -0.499398 -1.49478 0
M  V30 3610 C 372.251 0.0455996 -2.02049 0
M  V30 3611 C 372.572 1.37633 -1.38138 0
M  V30 3612 O 371.842 1.8842 -0.536166 0
M  V30 3613 H 370.422 0.0198416 -0.746736 0
M  V30 3614 H 373.084 -0.656274 -1.83519 0
M  V30 3615 H 372.18 0.176445 -3.11601 0
M  V30 3616 N 372.481 1.55866 -0.233164 0
M  V30 3617 C 373.706 2.03449 0.402906 0
M  V30 3618 C 374.131 1.11166 1.51736 0
M  V30 3619 O 373.489 0.101996 1.81013 0
M  V30 3620 C 373.537 3.49165 0.9009 0
M  V30 3621 O 372.641 3.60019 2.01147 0
M  V30 3622 H 371.982 0.657913 0.0897025 0
M  V30 3623 H 374.512 2.01493 -0.355201 0
M  V30 3624 H 374.522 3.89716 1.2077 0
M  V30 3625 H 373.197 4.15813 0.0852889 0
M  V30 3626 H 371.774 3.3136 1.71042 0
M  V30 3627 N 373.959 -0.0401083 1.57549 0
M  V30 3628 C 374.922 -1.02871 2.04817 0
M  V30 3629 C 375.922 -1.29708 0.950388 0
M  V30 3630 O 377.112 -1.24897 1.21435 0
M  V30 3631 C 374.244 -2.36443 2.45576 0
M  V30 3632 H 375.437 -0.620631 2.93408 0
M  V30 3633 H 372.99 -0.286667 1.53649 0
M  V30 3634 H 373.725 -2.82021 1.60108 0
M  V30 3635 H 373.51 -2.18296 3.25713 0
M  V30 3636 H 375 -3.07441 2.82612 0
M  V30 3637 N 375.437 -1.54477 -0.31217 0
M  V30 3638 C 376.385 -1.85395 -1.40469 0
M  V30 3639 C 377.379 -0.726749 -1.53019 0
M  V30 3640 O 378.585 -0.910582 -1.55269 0
M  V30 3641 H 374.96 -0.587845 -0.46898 0
M  V30 3642 H 376.931 -2.76736 -1.11623 0
M  V30 3643 C 375.68 -2.10811 -2.76503 0
M  V30 3644 H 375.003 -2.97014 -2.67625 0
M  V30 3645 H 376.443 -2.3639 -3.51988 0
M  V30 3646 C 374.902 -0.903165 -3.24568 0
M  V30 3647 O 375.432 -0.118085 -4.01526 0
M  V30 3648 N 373.638 -0.711634 -2.81752 0
M  V30 3649 H 373.185 -1.35171 -2.19286 0
M  V30 3650 H 373.143 0.0930473 -3.14262 0
M  V30 3651 N 376.915 0.57481 -1.46744 0
M  V30 3652 C 378.143 1.35856 -1.56047 0
M  V30 3653 C 378.558 1.87691 -0.204365 0
M  V30 3654 O 377.915 1.64049 0.79963 0
M  V30 3655 C 377.966 2.54066 -2.57163 0
M  V30 3656 O 377.687 2.04377 -3.87507 0
M  V30 3657 C 379.188 3.46514 -2.76483 0
M  V30 3658 H 376.408 0.414754 -0.527466 0
M  V30 3659 H 378.952 0.698035 -1.92218 0
M  V30 3660 H 377.107 3.16092 -2.23974 0
M  V30 3661 H 377.521 2.81419 -4.4261 0
M  V30 3662 H 378.995 4.25919 -3.51137 0
M  V30 3663 H 379.472 3.98951 -1.83671 0
M  V30 3664 H 380.078 2.90318 -3.10799 0
M  V30 3665 N 378.394 1.34581 0.820102 0
M  V30 3666 C 379.324 1.29038 1.94606 0
M  V30 3667 C 380.305 0.1673 1.69275 0
M  V30 3668 O 381.49 0.360112 1.90832 0
M  V30 3669 C 378.62 1.04793 3.31113 0
M  V30 3670 C 377.574 2.13597 3.70891 0
M  V30 3671 C 376.9 1.74537 5.05412 0
M  V30 3672 C 378.2 3.55451 3.8269 0
M  V30 3673 H 379.894 2.23248 1.99501 0
M  V30 3674 H 377.44 1.0747 0.958449 0
M  V30 3675 H 379.393 0.995592 4.0947 0
M  V30 3676 H 378.117 0.0702565 3.26524 0
M  V30 3677 H 376.776 2.17905 2.9481 0
M  V30 3678 H 376.424 0.754226 4.97313 0
M  V30 3679 H 376.124 2.47361 5.32997 0
M  V30 3680 H 377.648 1.70803 5.86224 0
M  V30 3681 H 379.062 3.5354 4.51312 0
M  V30 3682 H 377.459 4.26922 4.21732 0
M  V30 3683 H 378.529 3.92587 2.84611 0
M  V30 3684 N 379.872 -1.04064 1.18357 0
M  V30 3685 C 381.118 -1.77528 0.980397 0
M  V30 3686 C 381.451 -1.87948 -0.48879 0
M  V30 3687 O 380.726 -1.3876 -1.36293 0
M  V30 3688 C 381.009 -3.20797 1.63588 0
M  V30 3689 C 380.862 -3.1832 3.17793 0
M  V30 3690 C 382.181 -4.18911 1.34914 0
M  V30 3691 H 379.3 -0.644443 0.357578 0
M  V30 3692 H 381.942 -1.2156 1.46024 0
M  V30 3693 H 380.092 -3.68586 1.22788 0
M  V30 3694 H 381.764 -2.78521 3.67728 0
M  V30 3695 H 380.007 -2.56351 3.49952 0
M  V30 3696 H 380.678 -4.19489 3.58794 0
M  V30 3697 H 383.154 -3.7967 1.70265 0
M  V30 3698 H 382.03 -5.17374 1.83346 0
M  V30 3699 H 382.291 -4.41262 0.272027 0
M  V30 3700 N 381.35 -0.985608 -1.22978 0
M  V30 3701 C 382.599 -0.652881 -1.90841 0
M  V30 3702 C 382.912 0.817842 -1.77681 0
M  V30 3703 O 384.118 1.26185 -2.40395 0
M  V30 3704 C 382.574 -1.11717 -3.42122 0
M  V30 3705 C 382.182 -2.6126 -3.63933 0
M  V30 3706 C 383.926 -0.85843 -4.1573 0
M  V30 3707 C 381.833 -3.0133 -5.08876 0
M  V30 3708 H 380.763 -0.240491 -0.714619 0
M  V30 3709 H 383.414 -1.1942 -1.39324 0
M  V30 3710 H 381.796 -0.504027 -3.92779 0
M  V30 3711 H 382.97 -3.27858 -3.23799 0
M  V30 3712 H 381.285 -2.84937 -3.03644 0
M  V30 3713 H 383.882 -1.13359 -5.22546 0
M  V30 3714 H 384.225 0.205461 -4.15793 0
M  V30 3715 H 384.758 -1.43341 -3.71077 0
M  V30 3716 H 381.497 -4.06864 -5.13947 0
M  V30 3717 H 381.017 -2.3943 -5.49939 0
M  V30 3718 H 382.696 -2.92224 -5.77247 0
M  V30 3719 N 382.828 1.3818 -0.7579 0
M  V30 3720 C 384.105 1.94106 -0.241306 0
M  V30 3721 C 384.485 1.69282 1.26122 0
M  V30 3722 O 383.833 1.03378 2.03777 0
M  V30 3723 C 384.043 3.43809 -0.59967 0
M  V30 3724 C 385.391 4.20868 -0.561717 0
M  V30 3725 O 386.415 3.5211 -0.538222 0
M  V30 3726 O 385.274 5.43451 -0.576478 0
M  V30 3727 H 382.368 0.825376 -0.0518042 0
M  V30 3728 H 384.914 1.47548 -0.838315 0
M  V30 3729 H 383.686 3.55403 -1.6372 0
M  V30 3730 H 383.309 3.97592 0.0251197 0
M  V30 3731 N 384.306 0.507319 1.49211 0
M  V30 3732 C 385.722 0.163682 1.58758 0
M  V30 3733 C 385.922 -1.33208 1.51188 0
M  V30 3734 O 384.978 -2.10855 1.38911 0
M  V30 3735 C 386.291 0.746095 2.91297 0
M  V30 3736 C 387.839 0.712773 3.04776 0
M  V30 3737 C 388.314 1.27336 4.39943 0
M  V30 3738 N 389.805 1.23433 4.46451 0
M  V30 3739 C 390.54 1.63821 5.495 0
M  V30 3740 N 390.036 2.11832 6.5962 0
M  V30 3741 N 391.829 1.55198 5.4025 0
M  V30 3742 H 383.98 1.47972 1.52375 0
M  V30 3743 H 386.243 0.614147 0.722168 0
M  V30 3744 H 385.949 1.79534 3.02424 0
M  V30 3745 H 385.823 0.210137 3.76614 0
M  V30 3746 H 388.21 -0.327656 2.93275 0
M  V30 3747 H 388.291 1.28595 2.21127 0
M  V30 3748 H 387.935 2.3126 4.52196 0
M  V30 3749 H 387.865 0.676066 5.22242 0
M  V30 3750 H 390.356 0.882627 3.67448 0
M  V30 3751 H 390.669 2.40703 7.34358 0
M  V30 3752 H 389.014 2.1581 6.60644 0
M  V30 3753 H 392.205 1.17505 4.53112 0
M  V30 3754 H 392.378 1.86997 6.20432 0
M  V30 3755 N 385.784 -1.5574 0.241426 0
M  V30 3756 C 387.195 -1.84842 -0.262755 0
M  V30 3757 C 387.546 -1.16317 -1.58003 0
M  V30 3758 O 386.671 -0.439653 -2.11887 0
M  V30 3759 C 387.266 -3.35332 -0.483523 0
M  V30 3760 C 385.825 -3.6468 -0.931977 0
M  V30 3761 C 384.972 -2.77299 -0.0061151 0
M  V30 3762 H 387.923 -1.51761 0.464129 0
M  V30 3763 H 387.944 -3.56615 -1.32688 0
M  V30 3764 H 387.456 -3.85178 0.47537 0
M  V30 3765 H 385.557 -3.20307 -1.90353 0
M  V30 3766 H 385.67 -4.72498 -0.792628 0
M  V30 3767 H 384.034 -2.49408 -0.516503 0
M  V30 3768 H 384.817 -3.2995 0.948052 0
M  V30 3769 N 387.262 0.0317525 -1.57568 0
M  V30 3770 C 388.508 0.724175 -1.8943 0
M  V30 3771 C 388.841 1.75149 -0.838836 0
M  V30 3772 O 388.116 1.93948 0.146422 0
M  V30 3773 C 388.399 1.39615 -3.31933 0
M  V30 3774 C 388.252 0.382537 -4.4817 0
M  V30 3775 C 389.571 2.33084 -3.73309 0
M  V30 3776 H 386.69 0.261797 -0.688935 0
M  V30 3777 H 389.332 -0.013017 -1.89996 0
M  V30 3778 H 387.482 2.02451 -3.31581 0
M  V30 3779 H 389.154 -0.243689 -4.60656 0
M  V30 3780 H 387.397 -0.29844 -4.32772 0
M  V30 3781 H 388.068 0.891145 -5.44759 0
M  V30 3782 H 390.544 1.80295 -3.7501 0
M  V30 3783 H 389.42 2.77084 -4.73831 0
M  V30 3784 H 389.681 3.19643 -3.05419 0
M  V30 3785 N 388.74 1.54641 0.303973 0
M  V30 3786 C 389.988 1.73437 1.0375 0
M  V30 3787 C 390.309 0.521449 1.87899 0
M  V30 3788 O 389.579 -0.46432 1.90318 0
M  V30 3789 H 388.159 0.639518 0.386039 0
M  V30 3790 H 390.821 1.91988 0.335675 0
M  V30 3791 H 389.917 2.62235 1.69231 0
M  V30 3792 N 390.218 -0.567019 1.47046 0
M  V30 3793 C 391.446 -1.35027 1.56765 0
M  V30 3794 C 391.861 -1.8758 0.214316 0
M  V30 3795 O 391.218 -1.64471 -0.790919 0
M  V30 3796 C 391.269 -2.52698 2.58507 0
M  V30 3797 O 390.99 -2.0232 3.88585 0
M  V30 3798 C 392.491 -3.45043 2.78316 0
M  V30 3799 H 389.711 -0.41195 0.529658 0
M  V30 3800 H 392.255 -0.687832 1.92585 0
M  V30 3801 H 390.41 -3.149 2.25648 0
M  V30 3802 H 390.824 -2.79068 4.44096 0
M  V30 3803 H 392.298 -4.2405 3.53391 0
M  V30 3804 H 392.775 -3.97971 1.85784 0
M  V30 3805 H 393.381 -2.88665 3.12334 0
M  V30 3806 N 391.696 -1.35014 -0.812953 0
M  V30 3807 C 392.644 -1.27435 -1.94585 0
M  V30 3808 C 393.638 -0.170494 -1.6854 0
M  V30 3809 O 394.844 -0.336085 -1.76835 0
M  V30 3810 H 391.219 -0.396144 -0.639198 0
M  V30 3811 H 393.19 -2.23158 -1.98098 0
M  V30 3812 C 391.939 -1.05677 -3.31252 0
M  V30 3813 H 391.262 -1.89853 -3.51846 0
M  V30 3814 H 392.702 -1.04413 -4.10943 0
M  V30 3815 C 391.161 0.239615 -3.36047 0
M  V30 3816 O 391.691 1.23759 -3.8216 0
M  V30 3817 N 389.897 0.276186 -2.89285 0
M  V30 3818 H 389.444 -0.53653 -2.51951 0
M  V30 3819 H 389.402 1.14332 -2.92875 0
M  V30 3820 N 393.175 1.03435 -1.18907 0
M  V30 3821 C 394.403 1.80381 -1.01342 0
M  V30 3822 C 394.818 1.83649 0.438005 0
M  V30 3823 O 394.175 1.27655 1.30424 0
M  V30 3824 C 394.226 3.25689 -1.56873 0
M  V30 3825 O 393.947 3.22673 -2.96334 0
M  V30 3826 C 395.448 4.19255 -1.44014 0
M  V30 3827 H 392.668 0.56784 -0.35749 0
M  V30 3828 H 395.212 1.30317 -1.576 0
M  V30 3829 H 393.367 3.72962 -1.04777 0
M  V30 3830 H 393.781 4.13748 -3.22355 0
M  V30 3831 H 395.255 5.19123 -1.87657 0
M  V30 3832 H 395.732 4.37467 -0.389815 0
M  V30 3833 H 396.338 3.77851 -1.95214 0
M  V30 3834 N 394.653 0.992116 1.22453 0
M  V30 3835 C 395.902 0.662992 1.90492 0
M  V30 3836 C 396.215 -0.808407 1.78113 0
M  V30 3837 O 397.421 -1.24908 2.41061 0
M  V30 3838 C 395.877 1.1353 3.41524 0
M  V30 3839 C 395.485 2.63187 3.62542 0
M  V30 3840 C 397.229 0.880465 4.15269 0
M  V30 3841 C 395.136 3.04024 5.0727 0
M  V30 3842 H 394.066 0.244278 0.713333 0
M  V30 3843 H 396.717 1.20157 1.38688 0
M  V30 3844 H 395.099 0.52485 3.92506 0
M  V30 3845 H 396.273 3.2957 3.22056 0
M  V30 3846 H 394.588 2.86543 3.02129 0
M  V30 3847 H 397.185 1.16128 5.21937 0
M  V30 3848 H 397.528 -0.183408 4.15896 0
M  V30 3849 H 398.061 1.45307 3.70312 0
M  V30 3850 H 394.8 4.09584 5.11782 0
M  V30 3851 H 394.32 2.42343 5.48662 0
M  V30 3852 H 395.999 2.95282 5.75689 0
M  V30 3853 N 396.131 -1.37776 0.765217 0
M  V30 3854 C 397.094 -2.28686 0.153416 0
M  V30 3855 C 398.094 -1.47727 -0.635081 0
M  V30 3856 O 399.284 -1.68027 -0.459632 0
M  V30 3857 C 396.416 -3.31608 -0.790495 0
M  V30 3858 H 397.609 -2.84297 0.954723 0
M  V30 3859 H 395.162 -1.46932 0.53299 0
M  V30 3860 H 395.897 -2.81109 -1.61705 0
M  V30 3861 H 395.682 -3.9144 -0.227348 0
M  V30 3862 H 397.172 -3.99559 -1.21419 0
M  V30 3863 N 397.609 -0.515225 -1.4894 0
M  V30 3864 C 398.855 0.0242508 -2.02785 0
M  V30 3865 C 399.188 1.35323 -1.39289 0
M  V30 3866 O 398.463 1.87041 -0.533469 0
M  V30 3867 C 398.746 0.16184 -3.59736 0
M  V30 3868 C 398.599 -1.19127 -4.33738 0
M  V30 3869 C 399.918 0.895719 -4.30888 0
M  V30 3870 H 397.037 0.00733914 -0.736963 0
M  V30 3871 H 399.679 -0.669395 -1.77818 0
M  V30 3872 H 397.829 0.752624 -3.8114 0
M  V30 3873 H 399.501 -1.82202 -4.23792 0
M  V30 3874 H 397.744 -1.77695 -3.95736 0
M  V30 3875 H 398.415 -1.04815 -5.41957 0
M  V30 3876 H 400.891 0.394528 -4.14225 0
M  V30 3877 H 399.767 0.960859 -5.40425 0
M  V30 3878 H 400.028 1.9427 -3.97129 0
M  V30 3879 N 399.087 1.5561 -0.249682 0
M  V30 3880 C 400.315 2.03411 0.378352 0
M  V30 3881 C 400.73 1.12886 1.51335 0
M  V30 3882 O 400.087 0.143833 1.81932 0
M  V30 3883 C 400.138 3.50537 0.88351 0
M  V30 3884 O 399.859 4.37614 -0.20626 0
M  V30 3885 C 401.36 4.14113 1.58195 0
M  V30 3886 H 398.58 0.664994 0.08958 0
M  V30 3887 H 401.124 2.01044 -0.374357 0
M  V30 3888 H 399.279 3.5343 1.58639 0
M  V30 3889 H 399.693 5.24199 0.177782 0
M  V30 3890 H 401.167 5.18741 1.8871 0
M  V30 3891 H 401.644 3.60767 2.50487 0
M  V30 3892 H 402.25 4.15151 0.923573 0
M  V30 3893 N 400.565 -0.0233959 1.57583 0
M  V30 3894 C 401.813 -0.711654 1.89156 0
M  V30 3895 C 402.134 -1.75591 0.848096 0
M  V30 3896 O 401.404 -1.95547 -0.117566 0
M  V30 3897 H 399.984 -0.265835 0.698098 0
M  V30 3898 H 402.646 0.0119948 1.94896 0
M  V30 3899 H 401.742 -1.19766 2.88206 0
M  V30 3900 N 402.043 -1.548 -0.295768 0
M  V30 3901 C 403.268 -1.78653 -1.05346 0
M  V30 3902 C 403.693 -0.546894 -1.79974 0
M  V30 3903 O 403.051 0.502763 -1.7419 0
M  V30 3904 C 403.099 -2.99679 -2.00561 0
M  V30 3905 O 402.203 -2.7317 -3.08953 0
M  V30 3906 H 401.544 -0.59116 -0.302367 0
M  V30 3907 H 404.074 -2.01895 -0.331598 0
M  V30 3908 H 404.084 -3.27793 -2.42932 0
M  V30 3909 H 402.759 -3.89562 -1.4565 0
M  V30 3910 H 401.336 -2.56089 -2.71059 0
M  V30 3911 N 403.521 0.559213 -1.47345 0
M  V30 3912 C 404.451 1.67622 -1.62558 0
M  V30 3913 C 405.432 1.63331 -0.475087 0
M  V30 3914 O 406.617 1.80983 -0.704182 0
M  V30 3915 C 403.747 3.0626 -1.63774 0
M  V30 3916 C 402.701 3.25397 -2.7803 0
M  V30 3917 C 402.027 4.64801 -2.64318 0
M  V30 3918 C 403.327 3.10965 -4.19641 0
M  V30 3919 H 405.021 1.55146 -2.56067 0
M  V30 3920 H 402.567 0.744961 -1.23233 0
M  V30 3921 H 404.52 3.84247 -1.73008 0
M  V30 3922 H 403.244 3.1969 -0.66825 0
M  V30 3923 H 401.903 2.49817 -2.68304 0
M  V30 3924 H 401.551 4.75028 -1.65401 0
M  V30 3925 H 401.251 4.78555 -3.40968 0
M  V30 3926 H 402.775 5.44926 -2.75478 0
M  V30 3927 H 404.189 3.78772 -4.30354 0
M  V30 3928 H 402.586 3.36229 -4.97062 0
M  V30 3929 H 403.656 2.07736 -4.38148 0
M  V30 3930 N 404.999 1.35443 0.805782 0
M  V30 3931 C 406.41 1.25768 1.37983 0
M  V30 3932 C 406.761 -0.10958 1.95894 0
M  V30 3933 O 405.886 -1.01056 1.91355 0
M  V30 3934 C 406.481 2.27727 2.5085 0
M  V30 3935 C 405.04 2.2179 3.04115 0
M  V30 3936 C 404.187 2.13393 1.77084 0
M  V30 3937 H 407.138 1.4656 0.608752 0
M  V30 3938 H 407.159 1.90422 3.29424 0
M  V30 3939 H 406.671 3.27227 2.08671 0
M  V30 3940 H 404.772 1.25703 3.50756 0
M  V30 3941 H 404.885 3.13788 3.62042 0
M  V30 3942 H 403.249 1.59384 1.98668 0
M  V30 3943 H 404.032 3.14755 1.37056 0
M  V30 3944 N 406.477 -1.02803 1.19454 0
M  V30 3945 C 407.44 -2.09264 0.934955 0
M  V30 3946 C 408.44 -1.60576 -0.0849015 0
M  V30 3947 O 409.63 -1.73554 0.149933 0
M  V30 3948 C 406.762 -3.38482 0.40531 0
M  V30 3949 H 407.955 -2.33726 1.87916 0
M  V30 3950 H 405.508 -1.19426 1.00832 0
M  V30 3951 H 406.243 -3.19689 -0.544899 0
M  V30 3952 H 406.028 -3.75142 1.14065 0
M  V30 3953 H 407.518 -4.16894 0.242806 0
M  V30 3954 N 407.956 -0.998596 -1.21925 0
M  V30 3955 C 409.233 -0.593401 -1.86382 0
M  V30 3956 C 409.613 0.92916 -1.89552 0
M  V30 3957 O 408.961 1.81347 -1.39017 0
M  V30 3958 C 409.171 -1.22039 -3.26967 0
M  V30 3959 C 410.519 -1.32449 -4.03413 0
M  V30 3960 O 411.543 -1.17522 -3.36254 0
M  V30 3961 O 410.402 -1.56395 -5.23644 0
M  V30 3962 H 407.496 -0.202385 -0.801854 0
M  V30 3963 H 410.042 -1.09484 -1.29659 0
M  V30 3964 H 408.814 -2.26158 -3.19325 0
M  V30 3965 H 408.437 -0.704906 -3.91301 0
M  V30 3966 N 409.434 1.37368 -0.772513 0
M  V30 3967 C 410.397 2.28601 -0.165541 0
M  V30 3968 C 411.397 1.48062 0.627238 0
M  V30 3969 O 412.587 1.68268 0.450715 0
M  V30 3970 C 409.719 3.32023 0.772897 0
M  V30 3971 H 410.912 2.83787 -0.969787 0
M  V30 3972 H 408.465 1.46647 -0.540775 0
M  V30 3973 H 409.2 2.81962 1.60212 0
M  V30 3974 H 408.985 3.91555 0.206585 0
M  V30 3975 H 410.475 4.00197 1.19298 0
M  V30 3976 N 410.912 0.523116 1.48665 0
M  V30 3977 C 411.875 -0.232592 2.28017 0
M  V30 3978 C 412.875 -0.874021 1.34972 0
M  V30 3979 O 414.065 -0.735132 1.57929 0
M  V30 3980 C 411.197 -1.33586 3.13636 0
M  V30 3981 H 412.39 0.464008 2.96289 0
M  V30 3982 H 409.943 0.278816 1.53793 0
M  V30 3983 H 410.678 -2.06593 2.4998 0
M  V30 3984 H 410.463 -0.881125 3.82071 0
M  V30 3985 H 411.953 -1.86759 3.73511 0
M  V30 3986 N 412.39 -1.55475 0.257931 0
M  V30 3987 C 413.801 -1.8511 -0.243135 0
M  V30 3988 C 414.152 -1.17986 -1.5676 0
M  V30 3989 O 413.277 -0.462102 -2.11409 0
M  V30 3990 C 413.872 -3.35826 -0.447929 0
M  V30 3991 C 412.431 -3.65647 -0.893245 0
M  V30 3992 C 411.578 -2.7729 0.0232965 0
M  V30 3993 H 414.529 -1.51261 0.480199 0
M  V30 3994 H 414.55 -3.58002 -1.28898 0
M  V30 3995 H 414.062 -3.84652 0.516196 0
M  V30 3996 H 412.163 -3.22308 -1.86945 0
M  V30 3997 H 412.276 -4.73312 -0.742469 0
M  V30 3998 H 410.64 -2.49942 -0.490021 0
M  V30 3999 H 411.423 -3.28926 0.982994 0
M  V30 4000 N 413.868 0.0150385 -1.57593 0
M  V30 4001 C 415.114 0.704043 -1.90187 0
M  V30 4002 C 415.447 1.74249 -0.857366 0
M  V30 4003 O 414.722 1.94092 0.125843 0
M  V30 4004 C 415.005 1.36087 -3.33395 0
M  V30 4005 C 414.858 0.334981 -4.48551 0
M  V30 4006 C 416.177 2.29112 -3.7576 0
M  V30 4007 H 413.296 0.254475 -0.691673 0
M  V30 4008 H 415.938 -0.0331678 -1.89971 0
M  V30 4009 H 414.088 1.98922 -3.3371 0
M  V30 4010 H 415.76 -0.292534 -4.60372 0
M  V30 4011 H 414.003 -0.344325 -4.32431 0
M  V30 4012 H 414.674 0.833316 -5.45674 0
M  V30 4013 H 417.15 1.76308 -3.76902 0
M  V30 4014 H 416.026 2.72043 -4.76743 0
M  V30 4015 H 416.287 3.16385 -3.08793 0
M  V30 4016 N 415.346 1.54954 0.287554 0
M  V30 4017 C 416.574 1.78881 1.03967 0
M  V30 4018 C 416.989 0.554894 1.80462 0
M  V30 4019 O 416.346 -0.475676 1.76192 0
M  V30 4020 C 416.397 3.00488 2.0097 0
M  V30 4021 O 416.118 4.19113 1.27577 0
M  V30 4022 C 417.619 3.36907 2.88112 0
M  V30 4023 H 414.839 0.596259 0.307761 0
M  V30 4024 H 417.383 2.01937 0.322749 0
M  V30 4025 H 415.538 2.79601 2.68145 0
M  V30 4026 H 415.952 4.87765 1.92835 0
M  V30 4027 H 417.426 4.25205 3.52001 0
M  V30 4028 H 417.903 2.55659 3.57121 0
M  V30 4029 H 418.509 3.60001 2.26449 0
M  V30 4030 N 416.824 -0.551391 1.4764 0
M  V30 4031 C 417.787 -1.64007 1.60107 0
M  V30 4032 C 418.787 -1.53601 0.47576 0
M  V30 4033 O 419.977 -1.57655 0.740988 0
M  V30 4034 C 417.109 -3.03569 1.55108 0
M  V30 4035 H 418.302 -1.543 2.57161 0
M  V30 4036 H 415.855 -0.771776 1.35917 0
M  V30 4037 H 416.59 -3.18804 0.594519 0
M  V30 4038 H 416.375 -3.12532 2.36783 0
M  V30 4039 H 417.865 -3.82762 1.66982 0
M  V30 4040 N 418.302 -1.35869 -0.798587 0
M  V30 4041 C 419.232 -1.32118 -1.92528 0
M  V30 4042 C 420.213 -0.194209 -1.68988 0
M  V30 4043 O 421.398 -0.390426 -1.90235 0
M  V30 4044 C 418.528 -1.10047 -3.29404 0
M  V30 4045 C 417.482 -2.19471 -3.67446 0
M  V30 4046 C 416.808 -1.82555 -5.02571 0
M  V30 4047 C 418.108 -3.61495 -3.76987 0
M  V30 4048 H 419.802 -2.26394 -1.95924 0
M  V30 4049 H 417.348 -1.08981 -0.94123 0
M  V30 4050 H 419.301 -1.06061 -4.07835 0
M  V30 4051 H 418.025 -0.122195 -3.26371 0
M  V30 4052 H 416.684 -2.22568 -2.91306 0
M  V30 4053 H 416.332 -0.833249 -4.9605 0
M  V30 4054 H 416.032 -2.5581 -5.28995 0
M  V30 4055 H 417.556 -1.80108 -5.83432 0
M  V30 4056 H 418.97 -3.60676 -4.4563 0
M  V30 4057 H 417.367 -4.33577 -4.14887 0
M  V30 4058 H 418.437 -3.97065 -2.78329 0
M  V30 4059 N 419.78 1.02168 -1.19998 0
M  V30 4060 C 421.196 1.27969 -0.953737 0
M  V30 4061 C 421.396 1.98079 0.369703 0
M  V30 4062 O 420.452 2.27306 1.09947 0
M  V30 4063 C 421.765 2.11971 -2.13281 0
M  V30 4064 C 423.313 2.25255 -2.17323 0
M  V30 4065 C 423.788 3.12632 -3.34702 0
M  V30 4066 N 425.279 3.2022 -3.34684 0
M  V30 4067 C 426.014 3.88039 -4.22153 0
M  V30 4068 N 425.51 4.58027 -5.19791 0
M  V30 4069 N 427.303 3.84511 -4.10009 0
M  V30 4070 H 419.454 0.550794 -2.05134 0
M  V30 4071 H 421.717 0.305683 -0.897364 0
M  V30 4072 H 421.423 1.67785 -3.09097 0
M  V30 4073 H 421.297 3.12699 -2.10949 0
M  V30 4074 H 423.684 2.68667 -1.22073 0
M  V30 4075 H 423.765 1.24053 -2.23706 0
M  V30 4076 H 423.409 2.69926 -4.30235 0
M  V30 4077 H 423.339 4.13909 -3.25556 0
M  V30 4078 H 425.83 2.70382 -2.64012 0
M  V30 4079 H 426.143 5.07429 -5.82868 0
M  V30 4080 H 424.488 4.56869 -5.23733 0
M  V30 4081 H 427.679 3.28978 -3.33003 0
M  V30 4082 H 427.852 4.3709 -4.78389 0
M  V30 4083 N 421.258 1.00505 1.21394 0
M  V30 4084 C 422.486 0.706609 1.9446 0
M  V30 4085 C 422.901 -0.73081 1.74082 0
M  V30 4086 O 422.258 -1.49446 1.04747 0
M  V30 4087 C 422.309 1.01824 3.46863 0
M  V30 4088 O 422.03 2.39919 3.66566 0
M  V30 4089 C 423.531 0.739216 4.37093 0
M  V30 4090 H 420.751 0.260394 0.618414 0
M  V30 4091 H 423.295 1.34311 1.54211 0
M  V30 4092 H 421.45 0.427343 3.85036 0
M  V30 4093 H 421.864 2.50784 4.6066 0
M  V30 4094 H 423.338 1.00744 5.42729 0
M  V30 4095 H 423.815 -0.326746 4.37983 0
M  V30 4096 H 424.421 1.31173 4.04566 0
M  V30 4097 N 422.737 -1.36956 0.779787 0
M  V30 4098 C 423.983 -1.99787 0.348281 0
M  V30 4099 C 424.316 -1.61756 -1.07465 0
M  V30 4100 O 423.591 -0.867639 -1.74075 0
M  V30 4101 C 423.874 -3.56597 0.50104 0
M  V30 4102 C 423.727 -4.04513 1.96697 0
M  V30 4103 C 425.046 -4.40008 -0.0898097 0
M  V30 4104 H 422.165 -0.725796 0.128022 0
M  V30 4105 H 424.807 -1.62514 0.984331 0
M  V30 4106 H 422.957 -3.88479 -0.0404347 0
M  V30 4107 H 424.629 -3.83161 2.56876 0
M  V30 4108 H 422.872 -3.56408 2.47297 0
M  V30 4109 H 423.543 -5.1352 2.02486 0
M  V30 4110 H 426.019 -4.14431 0.372293 0
M  V30 4111 H 424.895 -5.4888 0.0471605 0
M  V30 4112 H 425.156 -4.26035 -1.18096 0
M  V30 4113 N 424.215 -0.530993 -1.48385 0
M  V30 4114 C 425.492 0.0671788 -1.95485 0
M  V30 4115 C 425.872 1.51191 -1.47324 0
M  V30 4116 O 425.22 2.17507 -0.700202 0
M  V30 4117 C 425.43 -0.0511206 -3.48963 0
M  V30 4118 C 426.778 0.107632 -4.24464 0
M  V30 4119 O 427.802 0.0226248 -3.56193 0
M  V30 4120 O 426.661 0.285972 -5.45751 0
M  V30 4121 H 423.755 0.0787365 -0.823243 0
M  V30 4122 H 426.301 -0.595662 -1.58902 0
M  V30 4123 H 425.073 -1.05747 -3.7674 0
M  V30 4124 H 424.696 0.650525 -3.92242 0
M  V30 4125 N 425.693 1.55336 -0.266172 0
M  V30 4126 C 426.603 2.2583 0.635458 0
M  V30 4127 C 427.619 1.28106 1.17749 0
M  V30 4128 O 428.795 1.61024 1.20968 0
M  V30 4129 C 425.86 2.95879 1.80712 0
M  V30 4130 C 424.921 4.09059 1.30265 0
M  V30 4131 C 424.154 4.75759 2.41846 0
M  V30 4132 O 424.377 4.41622 3.61007 0
M  V30 4133 O 423.311 5.63888 2.1051 0
M  V30 4134 H 427.137 3.03631 0.0646693 0
M  V30 4135 H 424.722 1.49361 -0.0339177 0
M  V30 4136 H 426.604 3.39932 2.49047 0
M  V30 4137 H 425.279 2.21002 2.36516 0
M  V30 4138 H 424.186 3.69482 0.586019 0
M  V30 4139 H 425.519 4.85811 0.790458 0
M  V30 4140 N 427.171 -0.0066808 1.57599 0
M  V30 4141 C 428.582 -0.550379 1.78403 0
M  V30 4142 C 428.933 -1.74339 0.900014 0
M  V30 4143 O 428.058 -2.16166 0.100713 0
M  V30 4144 C 428.653 -1.00523 3.23544 0
M  V30 4145 C 427.212 -1.49428 3.45468 0
M  V30 4146 C 426.359 -0.442444 2.73748 0
M  V30 4147 H 429.31 0.219508 1.57175 0
M  V30 4148 H 429.331 -1.87157 3.31289 0
M  V30 4149 H 428.843 -0.136735 3.87859 0
M  V30 4150 H 426.944 -2.3839 2.86358 0
M  V30 4151 H 427.057 -1.52635 4.54136 0
M  V30 4152 H 425.421 -0.902578 2.38171 0
M  V30 4153 H 426.204 0.416973 3.40758 0
M  V30 4154 N 428.649 -1.55105 -0.279332 0
M  V30 4155 C 429.612 -1.86783 -1.32834 0
M  V30 4156 C 430.612 -0.74199 -1.42657 0
M  V30 4157 O 431.802 -1.0102 -1.41918 0
M  V30 4158 C 428.934 -2.06746 -2.71052 0
M  V30 4159 H 430.127 -2.8055 -1.05979 0
M  V30 4160 H 427.68 -1.47499 -0.517087 0
M  V30 4161 H 428.415 -1.15339 -3.03097 0
M  V30 4162 H 428.2 -2.88711 -2.65309 0
M  V30 4163 H 429.69 -2.32549 -3.46858 0
M  V30 4164 N 430.127 0.543554 -1.4793 0
M  V30 4165 C 431.09 1.63156 -1.60975 0
M  V30 4166 C 432.09 1.53346 -0.483899 0
M  V30 4167 O 433.28 1.5726 -0.749339 0
M  V30 4168 C 430.412 3.02743 -1.56716 0
M  V30 4169 H 431.605 1.52934 -2.57975 0
M  V30 4170 H 429.158 0.764557 -1.36324 0
M  V30 4171 H 429.893 3.18484 -0.611418 0
M  V30 4172 H 429.678 3.11272 -2.38438 0
M  V30 4173 H 431.168 3.81871 -1.6901 0
M  V30 4174 N 431.605 1.3629 0.791371 0
M  V30 4175 C 432.535 1.33137 1.91825 0
M  V30 4176 C 433.516 0.203168 1.68882 0
M  V30 4177 O 434.701 0.400509 1.90025 0
M  V30 4178 C 431.831 1.11793 3.28816 0
M  V30 4179 C 430.785 2.21417 3.66277 0
M  V30 4180 C 430.111 1.85218 5.01596 0
M  V30 4181 C 431.411 3.63489 3.75064 0
M  V30 4182 H 433.105 2.2743 1.9472 0
M  V30 4183 H 430.651 1.09479 0.935437 0
M  V30 4184 H 432.604 1.08222 4.07266 0
M  V30 4185 H 431.328 0.139501 3.26302 0
M  V30 4186 H 429.987 2.2411 2.90121 0
M  V30 4187 H 429.635 0.859544 4.95602 0
M  V30 4188 H 429.335 2.58611 5.27631 0
M  V30 4189 H 430.859 1.832 5.82469 0
M  V30 4190 H 432.273 3.63034 4.43711 0
M  V30 4191 H 430.67 4.35771 4.12582 0
M  V30 4192 H 431.74 3.98536 2.76219 0
M  V30 4193 N 433.083 -1.0153 1.20538 0
M  V30 4194 C 434.046 -2.0826 0.957098 0
M  V30 4195 C 435.046 -1.60657 -0.0678655 0
M  V30 4196 O 436.236 -1.73385 0.168332 0
M  V30 4197 C 433.368 -3.38033 0.441188 0
M  V30 4198 H 434.561 -2.31719 1.90384 0
M  V30 4199 H 432.114 -1.1835 1.02093 0
M  V30 4200 H 432.849 -3.20249 -0.510961 0
M  V30 4201 H 432.634 -3.73911 1.18038 0
M  V30 4202 H 434.124 -4.16613 0.287009 0
M  V30 4203 N 434.561 -1.01147 -1.20859 0
M  V30 4204 C 435.809 -0.696486 -1.89719 0
M  V30 4205 C 436.13 0.775788 -1.78904 0
M  V30 4206 O 435.4 1.55759 -1.18811 0
M  V30 4207 H 433.98 -0.254628 -0.702263 0
M  V30 4208 H 436.642 -1.28197 -1.46804 0
M  V30 4209 H 435.738 -0.975357 -2.96468 0
M  V30 4210 N 436.039 1.36541 -0.78704 0
M  V30 4211 C 436.989 2.27459 -0.156957 0
M  V30 4212 C 437.973 1.46843 0.657709 0
M  V30 4213 O 439.165 1.69245 0.518173 0
M  V30 4214 C 436.294 3.35893 0.709278 0
M  V30 4215 C 435.38 4.23947 -0.114049 0
M  V30 4216 N 435.771 4.92145 -1.16736 0
M  V30 4217 C 434.069 4.4587 0.107497 0
M  V30 4218 C 434.77 5.57261 -1.66837 0
M  V30 4219 N 433.746 5.3473 -0.977992 0
M  V30 4220 H 437.548 2.77669 -0.963185 0
M  V30 4221 H 435.062 1.49839 -0.62627 0
M  V30 4222 H 437.059 3.99953 1.17656 0
M  V30 4223 H 435.719 2.87238 1.51408 0
M  V30 4224 H 436.73 4.94169 -1.54976 0
M  V30 4225 H 433.407 4.08056 0.882994 0
M  V30 4226 H 434.797 6.21728 -2.54762 0
M  V30 4227 N 437.518 0.538854 1.48102 0
M  V30 4228 C 438.448 -0.207654 2.32575 0
M  V30 4229 C 439.429 -0.926559 1.4265 0
M  V30 4230 O 440.614 -0.91061 1.71527 0
M  V30 4231 C 437.744 -1.24957 3.24042 0
M  V30 4232 C 436.698 -0.648263 4.23062 0
M  V30 4233 C 436.024 -1.79348 5.03725 0
M  V30 4234 C 437.324 0.385897 5.20872 0
M  V30 4235 H 439.018 0.497534 2.95237 0
M  V30 4236 H 436.564 0.240715 1.41974 0
M  V30 4237 H 438.517 -1.77983 3.81969 0
M  V30 4238 H 437.241 -1.98446 2.59397 0
M  V30 4239 H 435.9 -0.139452 3.66335 0
M  V30 4240 H 435.548 -2.51696 4.35498 0
M  V30 4241 H 435.248 -1.39702 5.70751 0
M  V30 4242 H 436.772 -2.32735 5.64506 0
M  V30 4243 H 438.186 -0.057607 5.73271 0
M  V30 4244 H 436.583 0.700227 5.96001 0
M  V30 4245 H 437.653 1.28848 4.67468 0
M  V30 4246 N 438.996 -1.55193 0.274407 0
M  V30 4247 C 440.243 -1.99581 -0.342579 0
M  V30 4248 C 440.571 -1.1628 -1.55914 0
M  V30 4249 O 439.826 -0.22029 -1.94456 0
M  V30 4250 C 440.125 -3.49019 -0.769458 0
M  V30 4251 C 439.791 -4.49598 0.342389 0
M  V30 4252 C 438.453 -4.76821 0.647686 0
M  V30 4253 C 440.805 -5.0964 1.09163 0
M  V30 4254 C 438.133 -5.61354 1.70581 0
M  V30 4255 C 440.485 -5.95323 2.13948 0
M  V30 4256 C 439.149 -6.20867 2.45113 0
M  V30 4257 H 438.419 -0.730319 -0.125358 0
M  V30 4258 H 441.066 -1.87529 0.387971 0
M  V30 4259 H 439.371 -3.58544 -1.57967 0
M  V30 4260 H 441.068 -3.8077 -1.25757 0
M  V30 4261 H 437.658 -4.28496 0.094318 0
M  V30 4262 H 441.842 -4.88632 0.869024 0
M  V30 4263 H 437.098 -5.79392 1.9523 0
M  V30 4264 H 441.272 -6.40881 2.72478 0
M  V30 4265 H 438.899 -6.86162 3.27239 0
M  V30 4266 N 440.474 -0.00167713 -1.576 0
M  V30 4267 C 441.384 1.00548 -2.1196 0
M  V30 4268 C 442.4 1.3758 -1.06526 0
M  V30 4269 O 443.576 1.46278 -1.38436 0
M  V30 4270 C 440.641 2.27809 -2.6135 0
M  V30 4271 C 439.702 1.97074 -3.81393 0
M  V30 4272 C 438.935 3.18267 -4.28417 0
M  V30 4273 O 439.158 4.30009 -3.74765 0
M  V30 4274 O 438.092 3.02167 -5.20556 0
M  V30 4275 H 441.918 0.573373 -2.98238 0
M  V30 4276 H 439.503 0.217255 -1.47812 0
M  V30 4277 H 441.385 3.02568 -2.93309 0
M  V30 4278 H 440.06 2.70254 -1.78169 0
M  V30 4279 H 438.967 1.19785 -3.54404 0
M  V30 4280 H 440.3 1.59464 -4.65652 0
M  V30 4281 N 441.952 1.55251 0.271103 0
M  V30 4282 C 442.862 1.9136 1.35714 0
M  V30 4283 C 443.878 0.811075 1.5394 0
M  V30 4284 O 445.054 1.11031 1.6803 0
M  V30 4285 C 442.119 2.1798 2.69603 0
M  V30 4286 C 441.18 3.4153 2.60107 0
M  V30 4287 C 440.413 3.66871 3.8761 0
M  V30 4288 O 440.636 2.94689 4.8838 0
M  V30 4289 O 439.57 4.60405 3.87699 0
M  V30 4290 H 443.396 2.83815 1.08088 0
M  V30 4291 H 440.981 1.41821 0.469792 0
M  V30 4292 H 442.863 2.36518 3.48765 0
M  V30 4293 H 441.538 1.28708 2.97012 0
M  V30 4294 H 440.445 3.28325 1.79314 0
M  V30 4295 H 441.778 4.31027 2.37647 0
M  V30 4296 N 443.43 -0.535701 1.48216 0
M  V30 4297 C 444.393 -1.623 1.61838 0
M  V30 4298 C 445.393 -1.53087 0.492024 0
M  V30 4299 O 446.583 -1.5686 0.757668 0
M  V30 4300 C 443.715 -3.01907 1.58319 0
M  V30 4301 H 444.908 -1.51564 2.58783 0
M  V30 4302 H 442.461 -0.757317 1.36727 0
M  V30 4303 H 443.196 -3.18155 0.628299 0
M  V30 4304 H 442.981 -3.10003 2.40085 0
M  V30 4305 H 444.471 -3.80969 1.71033 0
M  V30 4306 N 444.908 -1.36708 -0.784132 0
M  V30 4307 C 445.838 -1.34153 -1.91116 0
M  V30 4308 C 446.819 -0.212121 -1.68772 0
M  V30 4309 O 448.004 -0.410581 -1.8981 0
M  V30 4310 C 445.134 -1.13535 -3.28218 0
M  V30 4311 C 444.088 -2.23356 -3.65097 0
M  V30 4312 C 443.414 -1.87875 -5.00607 0
M  V30 4313 C 444.714 -3.65473 -3.73131 0
M  V30 4314 H 446.408 -2.28459 -1.93512 0
M  V30 4315 H 443.954 -1.09973 -0.929618 0
M  V30 4316 H 445.907 -1.10381 -4.06687 0
M  V30 4317 H 444.631 -0.156804 -3.26223 0
M  V30 4318 H 443.29 -2.25645 -2.88929 0
M  V30 4319 H 442.938 -0.885814 -4.95139 0
M  V30 4320 H 442.638 -2.61406 -5.26252 0
M  V30 4321 H 444.162 -1.86286 -5.81489 0
M  V30 4322 H 445.576 -3.65382 -4.41779 0
M  V30 4323 H 443.973 -4.37953 -4.10265 0
M  V30 4324 H 445.043 -3.99995 -2.74102 0
M  V30 4325 N 446.386 1.0089 -1.21074 0
M  V30 4326 C 447.296 2.13039 -0.982425 0
M  V30 4327 C 448.312 1.73881 0.0642161 0
M  V30 4328 O 449.488 2.01012 -0.12496 0
M  V30 4329 C 446.553 3.42377 -0.545803 0
M  V30 4330 C 445.614 3.95731 -1.6642 0
M  V30 4331 C 444.847 5.18896 -1.24832 0
M  V30 4332 O 445.07 5.70273 -0.120265 0
M  V30 4333 O 444.004 5.65597 -2.05873 0
M  V30 4334 H 447.83 2.35175 -1.92163 0
M  V30 4335 H 445.415 1.1142 -0.995285 0
M  V30 4336 H 447.297 4.20244 -0.311912 0
M  V30 4337 H 445.972 3.21639 0.364727 0
M  V30 4338 H 444.879 3.19108 -1.95246 0
M  V30 4339 H 446.212 4.20872 -2.55201 0
M  V30 4340 N 447.864 1.01787 1.20321 0
M  V30 4341 C 449.089 0.727009 1.9424 0
M  V30 4342 C 449.514 -0.706179 1.74341 0
M  V30 4343 O 448.872 -1.48609 1.03852 0
M  V30 4344 C 448.92 1.06958 3.44372 0
M  V30 4345 O 448.024 0.181983 4.11998 0
M  V30 4346 H 447.365 0.269626 0.606793 0
M  V30 4347 H 449.895 1.36158 1.52716 0
M  V30 4348 H 449.905 1.02182 3.94997 0
M  V30 4349 H 448.58 2.11378 3.58179 0
M  V30 4350 H 447.157 0.287378 3.71791 0
M  V30 4351 N 449.342 -1.36122 0.79427 0
M  V30 4352 C 450.29 -2.31871 0.184023 0
M  V30 4353 C 451.284 -1.56041 -0.659365 0
M  V30 4354 O 452.49 -1.71266 -0.553906 0
M  V30 4355 H 448.865 -0.750896 0.0407373 0
M  V30 4356 H 450.836 -2.80898 1.00693 0
M  V30 4357 C 449.585 -3.41324 -0.662813 0
M  V30 4358 H 448.908 -3.99793 -0.0231944 0
M  V30 4359 H 450.348 -4.10629 -1.05639 0
M  V30 4360 C 448.807 -2.83308 -1.82313 0
M  V30 4361 O 449.337 -2.75863 -2.91997 0
M  V30 4362 N 447.543 -2.40529 -1.63077 0
M  V30 4363 H 447.09 -2.46785 -0.738591 0
M  V30 4364 H 447.048 -2.02059 -2.40872 0
M  V30 4365 N 450.82 -0.546701 -1.47814 0
M  V30 4366 C 452.068 -0.0187037 -2.02091 0
M  V30 4367 C 452.389 1.33168 -1.42447 0
M  V30 4368 O 451.659 1.86619 -0.595839 0
M  V30 4369 H 450.239 -0.00392531 -0.74699 0
M  V30 4370 H 452.901 -0.714327 -1.81338 0
M  V30 4371 H 451.997 0.0772219 -3.12004 0
M  V30 4372 N 452.299 1.55045 -0.282633 0
M  V30 4373 C 453.545 2.00056 0.332481 0
M  V30 4374 C 453.878 1.1708 1.54939 0
M  V30 4375 O 453.153 0.2427 1.9298 0
M  V30 4376 C 453.436 3.53086 0.70725 0
M  V30 4377 C 453.289 4.46813 -0.517521 0
M  V30 4378 C 454.608 4.12245 1.54084 0
M  V30 4379 H 451.727 0.727268 0.119373 0
M  V30 4380 H 454.369 1.85932 -0.391076 0
M  V30 4381 H 452.519 3.65253 1.32372 0
M  V30 4382 H 454.191 4.46579 -1.15607 0
M  V30 4383 H 452.434 4.18163 -1.1542 0
M  V30 4384 H 453.105 5.51595 -0.211426 0
M  V30 4385 H 455.581 4.03401 1.02013 0
M  V30 4386 H 454.457 5.19515 1.77186 0
M  V30 4387 H 454.718 3.62951 2.52427 0
M  V30 4388 N 453.777 0.010035 1.57597 0
M  V30 4389 C 455.005 -0.683413 1.95287 0
M  V30 4390 C 455.42 -1.66747 0.885481 0
M  V30 4391 O 454.777 -1.82003 -0.134629 0
M  V30 4392 C 454.828 -1.40652 3.33015 0
M  V30 4393 O 454.549 -0.461916 4.35658 0
M  V30 4394 C 456.05 -2.19356 3.85225 0
M  V30 4395 H 453.27 -0.189708 0.643624 0
M  V30 4396 H 455.814 0.0641359 2.04399 0
M  V30 4397 H 453.969 -2.10562 3.2518 0
M  V30 4398 H 454.383 -0.973215 5.15392 0
M  V30 4399 H 455.857 -2.65433 4.83993 0
M  V30 4400 H 456.334 -3.02457 3.18459 0
M  V30 4401 H 456.94 -1.54442 3.96267 0
M  V30 4402 N 455.255 -1.55392 -0.262866 0
M  V30 4403 C 456.501 -1.76737 -0.99458 0
M  V30 4404 C 456.834 -0.572453 -1.85571 0
M  V30 4405 O 456.109 0.429732 -1.89693 0
M  V30 4406 C 456.392 -3.07824 -1.8686 0
M  V30 4407 C 456.245 -4.3769 -1.03672 0
M  V30 4408 C 457.564 -3.35021 -2.85393 0
M  V30 4409 H 454.683 -0.643005 -0.360157 0
M  V30 4410 H 457.325 -1.88126 -0.266216 0
M  V30 4411 H 455.475 -2.98245 -2.48962 0
M  V30 4412 H 457.147 -4.59238 -0.43563 0
M  V30 4413 H 455.39 -4.32461 -0.340513 0
M  V30 4414 H 456.061 -5.25759 -1.6817 0
M  V30 4415 H 458.537 -3.44458 -2.33426 0
M  V30 4416 H 457.413 -4.27989 -3.43681 0
M  V30 4417 H 457.674 -2.55153 -3.61039 0
M  V30 4418 N 456.733 0.527833 -1.48498 0
M  V30 4419 C 457.68 1.6322 -1.6318 0
M  V30 4420 C 458.65 1.59199 -0.473815 0
M  V30 4421 O 459.835 1.77591 -0.697563 0
M  V30 4422 C 456.975 3.01474 -1.67951 0
M  V30 4423 C 456.088 3.15713 -2.94871 0
M  V30 4424 C 455.223 4.44539 -2.90789 0
M  V30 4425 C 454.262 4.52315 -4.12404 0
M  V30 4426 N 453.399 5.72533 -4.06387 0
M  V30 4427 H 458.239 1.50011 -2.57489 0
M  V30 4428 H 455.776 0.730298 -1.27691 0
M  V30 4429 H 457.734 3.81572 -1.68698 0
M  V30 4430 H 456.364 3.1345 -0.771306 0
M  V30 4431 H 455.416 2.28854 -3.03859 0
M  V30 4432 H 456.728 3.1732 -3.8485 0
M  V30 4433 H 455.882 5.3293 -2.89949 0
M  V30 4434 H 454.621 4.45457 -1.98542 0
M  V30 4435 H 453.626 3.62331 -4.13517 0
M  V30 4436 H 454.851 4.53134 -5.05812 0
M  V30 4437 H 452.797 5.74344 -3.16962 0
M  V30 4438 H 452.714 5.75643 -4.90073 0
M  V30 4439 H 453.982 6.63204 -4.0961 0
M  V30 4440 N 458.211 1.37122 0.776871 0
M  V30 4441 C 459.459 1.31787 1.53221 0
M  V30 4442 C 459.78 -0.0987589 1.9475 0
M  V30 4443 O 459.05 -1.0417 1.65908 0
M  V30 4444 H 457.63 0.484839 0.568278 0
M  V30 4445 H 460.292 1.71556 0.924917 0
M  V30 4446 H 459.388 1.95355 2.43398 0
M  V30 4447 N 459.689 -1.00246 1.21608 0
M  V30 4448 C 460.966 -1.71336 0.943568 0
M  V30 4449 C 461.346 -2.03972 -0.543943 0
M  V30 4450 O 460.694 -1.71545 -1.50946 0
M  V30 4451 C 460.904 -2.97094 1.83128 0
M  V30 4452 C 462.252 -3.70071 2.08165 0
M  V30 4453 O 463.276 -3.07081 1.80498 0
M  V30 4454 O 462.135 -4.83376 2.54971 0
M  V30 4455 H 459.229 -0.747386 0.354039 0
M  V30 4456 H 461.775 -1.05967 1.32549 0
M  V30 4457 H 460.547 -2.69407 2.83788 0
M  V30 4458 H 460.17 -3.70204 1.45034 0
M  V30 4459 N 461.167 -1.02423 -1.1978 0
M  V30 4460 C 462.413 -0.719051 -1.89625 0
M  V30 4461 C 462.746 0.750083 -1.7913 0
M  V30 4462 O 462.021 1.54574 -1.18056 0
M  V30 4463 C 462.304 -1.16499 -3.40735 0
M  V30 4464 C 462.157 -2.695 -3.60125 0
M  V30 4465 C 463.476 -0.742166 -4.33797 0
M  V30 4466 H 460.595 -0.26269 -0.688595 0
M  V30 4467 H 463.237 -1.27333 -1.41018 0
M  V30 4468 H 461.387 -0.69341 -3.82262 0
M  V30 4469 H 463.059 -3.24569 -3.278 0
M  V30 4470 H 461.302 -3.10113 -3.03336 0
M  V30 4471 H 461.973 -2.95757 -4.66081 0
M  V30 4472 H 464.449 -1.1477 -3.99959 0
M  V30 4473 H 463.325 -1.08213 -5.38127 0
M  V30 4474 H 463.586 0.355747 -4.40666 0
M  V30 4475 N 462.645 1.35699 -0.801477 0
M  V30 4476 C 463.893 1.9852 -0.37871 0
M  V30 4477 C 464.214 1.63907 1.05638 0
M  V30 4478 O 463.484 0.919013 1.73006 0
M  V30 4479 H 462.064 0.734322 -0.137042 0
M  V30 4480 H 464.726 1.65697 -1.02619 0
M  V30 4481 H 463.822 3.08382 -0.480284 0
M  V30 4482 N 464.123 0.554532 1.47522 0
M  V30 4483 C 465.053 -0.182974 2.32782 0
M  V30 4484 C 466.034 -0.911377 1.43624 0
M  V30 4485 O 467.219 -0.892366 1.72483 0
M  V30 4486 C 464.349 -1.21513 3.25349 0
M  V30 4487 C 463.303 -0.603355 4.23726 0
M  V30 4488 C 462.629 -1.73995 5.05598 0
M  V30 4489 C 463.929 0.441121 5.20434 0
M  V30 4490 H 465.623 0.52882 2.94693 0
M  V30 4491 H 463.169 0.255759 1.41711 0
M  V30 4492 H 465.122 -1.73922 3.83835 0
M  V30 4493 H 463.846 -1.95683 2.61487 0
M  V30 4494 H 462.505 -0.10059 3.66462 0
M  V30 4495 H 462.153 -2.47063 4.38143 0
M  V30 4496 H 461.853 -1.3364 5.72201 0
M  V30 4497 H 463.377 -2.26735 5.66942 0
M  V30 4498 H 464.791 0.00319931 5.733 0
M  V30 4499 H 463.188 0.763402 5.95224 0
M  V30 4500 H 464.258 1.33799 4.66075 0
M  V30 4501 N 465.601 -1.54893 0.290851 0
M  V30 4502 C 466.849 -1.99538 -0.320756 0
M  V30 4503 C 467.17 -1.18075 -1.55188 0
M  V30 4504 O 466.44 -0.274162 -1.93972 0
M  V30 4505 H 465.02 -0.737052 -0.121507 0
M  V30 4506 H 467.682 -1.90755 0.399832 0
M  V30 4507 H 466.778 -3.06282 -0.599802 0
M  V30 4508 N 467.08 -0.0183926 -1.57589 0
M  V30 4509 C 468.328 0.661253 -1.90976 0
M  V30 4510 C 468.649 1.73281 -0.894353 0
M  V30 4511 O 467.919 1.9579 0.0656788 0
M  V30 4512 H 466.499 0.247233 -0.704901 0
M  V30 4513 H 469.161 -0.0636639 -1.94796 0
M  V30 4514 H 468.257 1.12083 -2.9128 0
M  V30 4515 N 468.558 1.5553 0.254621 0
M  V30 4516 C 469.804 1.77262 0.985193 0
M  V30 4517 C 470.137 0.582286 1.85265 0
M  V30 4518 O 469.412 -0.419666 1.89919 0
M  V30 4519 C 469.695 3.0881 1.85225 0
M  V30 4520 C 469.548 4.38233 1.0135 0
M  V30 4521 C 470.867 3.3653 2.83612 0
M  V30 4522 H 467.986 0.644906 0.356742 0
M  V30 4523 H 470.628 1.88264 0.256236 0
M  V30 4524 H 468.778 2.99562 2.47376 0
M  V30 4525 H 470.45 4.59463 0.411269 0
M  V30 4526 H 468.693 4.32636 0.317574 0
M  V30 4527 H 469.364 5.26644 1.65379 0
M  V30 4528 H 471.84 3.45691 2.31596 0
M  V30 4529 H 470.716 4.29805 3.41407 0
M  V30 4530 H 470.977 2.57064 3.59681 0
M  V30 4531 N 470.036 -0.519951 1.48776 0
M  V30 4532 C 471.447 -1.10177 1.50725 0
M  V30 4533 C 471.798 -1.94153 0.282678 0
M  V30 4534 O 470.923 -2.07645 -0.609298 0
M  V30 4535 C 471.518 -2.00482 2.73116 0
M  V30 4536 C 470.077 -2.53862 2.77905 0
M  V30 4537 C 469.224 -1.31047 2.44381 0
M  V30 4538 H 472.175 -0.30473 1.55747 0
M  V30 4539 H 472.196 -2.8491 2.52203 0
M  V30 4540 H 471.708 -1.39335 3.62225 0
M  V30 4541 H 469.809 -3.18702 1.93029 0
M  V30 4542 H 469.922 -2.9231 3.79594 0
M  V30 4543 H 468.286 -1.62953 1.95751 0
M  V30 4544 H 469.069 -0.71637 3.35743 0
M  V30 4545 N 471.514 -1.37532 -0.769588 0
M  V30 4546 C 472.477 -1.33292 -1.86456 0
M  V30 4547 C 473.477 -0.236537 -1.59051 0
M  V30 4548 O 474.667 -0.492511 -1.67093 0
M  V30 4549 C 471.799 -1.07118 -3.23633 0
M  V30 4550 H 472.992 -2.30692 -1.91628 0
M  V30 4551 H 470.545 -1.22593 -0.969572 0
M  V30 4552 H 471.28 -0.102578 -3.24138 0
M  V30 4553 H 471.065 -1.86479 -3.44917 0
M  V30 4554 H 472.555 -1.06806 -4.03711 0
M  V30 4555 N 472.992 0.995999 -1.22138 0
M  V30 4556 C 474.269 1.70834 -0.952642 0
M  V30 4557 C 474.649 2.04257 0.533119 0
M  V30 4558 O 473.997 1.72343 1.50034 0
M  V30 4559 C 474.207 2.96119 -1.84701 0
M  V30 4560 C 475.555 3.68962 -2.10124 0
M  V30 4561 O 476.579 3.0612 -1.82124 0
M  V30 4562 O 475.438 4.82017 -2.57531 0
M  V30 4563 H 472.532 0.745498 -0.357997 0
M  V30 4564 H 475.078 1.05262 -1.33109 0
M  V30 4565 H 473.85 2.67898 -2.85213 0
M  V30 4566 H 473.473 3.6943 -1.46995 0
M  V30 4567 N 474.47 1.03057 1.19235 0
M  V30 4568 C 475.716 0.738841 1.89506 0
M  V30 4569 C 476.071 -0.724807 1.78225 0
M  V30 4570 O 475.364 -1.52118 1.16494 0
M  V30 4571 C 475.558 1.1268 3.39172 0
M  V30 4572 C 475.387 2.62662 3.65019 0
M  V30 4573 C 474.157 3.29658 3.82954 0
M  V30 4574 C 476.355 3.60873 3.66436 0
M  V30 4575 N 474.337 4.68726 3.96446 0
M  V30 4576 C 475.708 4.85566 3.8552 0
M  V30 4577 C 477.763 3.54647 3.49471 0
M  V30 4578 C 476.466 6.04783 3.89397 0
M  V30 4579 C 478.492 4.73281 3.54625 0
M  V30 4580 C 477.854 5.96789 3.74196 0
M  V30 4581 H 473.953 0.322256 0.712513 0
M  V30 4582 H 476.537 1.31822 1.43287 0
M  V30 4583 H 474.708 0.575612 3.84111 0
M  V30 4584 H 476.44 0.787145 3.96971 0
M  V30 4585 H 473.195 2.8007 3.81913 0
M  V30 4586 H 473.619 5.40971 4.07037 0
M  V30 4587 H 478.261 2.60143 3.33295 0
M  V30 4588 H 475.979 6.99654 4.04364 0
M  V30 4589 H 479.565 4.70094 3.42787 0
M  V30 4590 H 478.445 6.87051 3.78061 0
M  V30 4591 N 475.948 -1.35272 0.808662 0
M  V30 4592 C 476.88 -2.28507 0.178149 0
M  V30 4593 C 477.893 -1.50377 -0.623754 0
M  V30 4594 O 479.082 -1.72583 -0.455774 0
M  V30 4595 C 476.182 -3.30038 -0.769959 0
M  V30 4596 C 475.355 -4.37398 -0.0139749 0
M  V30 4597 C 474.414 -5.18775 -0.880875 0
M  V30 4598 O 473.44 -5.68236 -0.331059 0
M  V30 4599 N 474.642 -5.37087 -2.20267 0
M  V30 4600 H 477.407 -2.83255 0.979106 0
M  V30 4601 H 474.968 -1.47643 0.664308 0
M  V30 4602 H 476.96 -3.81371 -1.35418 0
M  V30 4603 H 475.53 -2.75789 -1.47171 0
M  V30 4604 H 474.75 -3.86971 0.751468 0
M  V30 4605 H 476.038 -5.06268 0.506965 0
M  V30 4606 H 475.436 -4.9855 -2.67328 0
M  V30 4607 H 473.993 -5.91593 -2.73608 0
M  V30 4608 N 477.426 -0.562348 -1.47226 0
M  V30 4609 C 478.703 0.0256985 -1.95583 0
M  V30 4610 C 479.083 1.48032 -1.50498 0
M  V30 4611 O 478.431 2.15973 -0.746181 0
M  V30 4612 C 478.641 -0.125129 -3.48776 0
M  V30 4613 C 479.989 0.0175728 -4.24596 0
M  V30 4614 O 481.013 -0.0529341 -3.56161 0
M  V30 4615 O 479.872 0.170145 -5.46235 0
M  V30 4616 H 476.966 0.0612565 -0.824728 0
M  V30 4617 H 479.512 -0.629233 -1.57603 0
M  V30 4618 H 478.284 -1.13715 -3.74412 0
M  V30 4619 H 477.907 0.567178 -3.93534 0
M  V30 4620 N 478.904 1.54736 -0.299062 0
M  V30 4621 C 479.867 2.22127 0.565012 0
M  V30 4622 C 480.867 1.20669 1.06281 0
M  V30 4623 O 482.057 1.45417 0.959145 0
M  V30 4624 C 479.189 2.90611 1.78208 0
M  V30 4625 H 480.382 2.99891 -0.0237448 0
M  V30 4626 H 477.935 1.5622 -0.0498788 0
M  V30 4627 H 478.67 2.16921 2.41072 0
M  V30 4628 H 478.455 3.64984 1.43281 0
M  V30 4629 H 479.945 3.42026 2.396 0
M  V30 4630 N 480.382 0.0267497 1.57577 0
M  V30 4631 C 481.292 -0.971633 2.13533 0
M  V30 4632 C 482.308 -1.35868 1.08701 0
M  V30 4633 O 483.484 -1.44058 1.40746 0
M  V30 4634 C 480.549 -2.23622 2.64941 0
M  V30 4635 C 479.61 -1.90982 3.8448 0
M  V30 4636 C 478.843 -3.11411 4.33427 0
M  V30 4637 O 479.066 -4.23992 3.81558 0
M  V30 4638 O 478 -2.93848 5.25297 0
M  V30 4639 H 481.826 -0.525853 2.99113 0
M  V30 4640 H 479.411 -0.193712 1.48139 0
M  V30 4641 H 481.293 -2.97864 2.98086 0
M  V30 4642 H 479.968 -2.67386 1.82446 0
M  V30 4643 H 478.875 -1.14132 3.56265 0
M  V30 4644 H 480.208 -1.52036 4.6813 0
M  V30 4645 N 481.861 -1.55662 -0.24637 0
M  V30 4646 C 483.107 -1.77782 -0.975779 0
M  V30 4647 C 483.44 -0.592103 -1.84953 0
M  V30 4648 O 482.715 0.409588 -1.90138 0
M  V30 4649 C 482.998 -3.09788 -1.83584 0
M  V30 4650 C 482.851 -4.38764 -0.990241 0
M  V30 4651 C 484.17 -3.38029 -2.81823 0
M  V30 4652 H 481.289 -0.646789 -0.353317 0
M  V30 4653 H 483.931 -1.88398 -0.246248 0
M  V30 4654 H 482.081 -3.00869 -2.45784 0
M  V30 4655 H 483.753 -4.59675 -0.386897 0
M  V30 4656 H 481.996 -4.32798 -0.294626 0
M  V30 4657 H 482.667 -5.27514 -1.62584 0
M  V30 4658 H 485.143 -3.46915 -2.2976 0
M  V30 4659 H 484.019 -4.3161 -3.39122 0
M  V30 4660 H 484.28 -2.58968 -3.58313 0
M  V30 4661 N 483.339 0.512053 -1.4905 0
M  V30 4662 C 484.269 1.62365 -1.67809 0
M  V30 4663 C 485.25 1.61737 -0.526809 0
M  V30 4664 O 486.435 1.78651 -0.761404 0
M  V30 4665 C 483.565 3.00895 -1.73435 0
M  V30 4666 C 482.519 3.16387 -2.88242 0
M  V30 4667 C 481.845 4.56157 -2.78971 0
M  V30 4668 C 483.145 2.97457 -4.29321 0
M  V30 4669 H 484.839 1.46921 -2.60873 0
M  V30 4670 H 482.385 0.705379 -1.2554 0
M  V30 4671 H 484.338 3.78549 -1.85145 0
M  V30 4672 H 483.062 3.17403 -0.769619 0
M  V30 4673 H 481.721 2.41155 -2.76116 0
M  V30 4674 H 481.369 4.69525 -1.8043 0
M  V30 4675 H 481.069 4.67465 -3.5602 0
M  V30 4676 H 482.593 5.35886 -2.92675 0
M  V30 4677 H 484.007 3.64888 -4.42187 0
M  V30 4678 H 482.404 3.20245 -5.07507 0
M  V30 4679 H 483.474 1.93692 -4.44535 0
M  V30 4680 N 484.817 1.37938 0.762283 0
M  V30 4681 C 485.78 1.34279 1.85747 0
M  V30 4682 C 486.78 0.244969 1.58923 0
M  V30 4683 O 487.97 0.501365 1.66829 0
M  V30 4684 C 485.102 1.08833 3.23061 0
M  V30 4685 H 486.295 2.31705 1.90401 0
M  V30 4686 H 483.848 1.23105 0.963057 0
M  V30 4687 H 484.583 0.119767 3.24079 0
M  V30 4688 H 484.368 1.88306 3.43923 0
M  V30 4689 H 485.858 1.08946 4.03138 0
M  V30 4690 N 486.295 -0.989507 1.22664 0
M  V30 4691 C 487.572 -1.70326 0.961688 0
M  V30 4692 C 487.952 -2.04537 -0.522279 0
M  V30 4693 O 487.3 -1.73136 -1.49118 0
M  V30 4694 C 487.51 -2.95135 1.86269 0
M  V30 4695 C 488.858 -3.67842 2.12078 0
M  V30 4696 O 489.882 -3.0515 1.83745 0
M  V30 4697 O 488.741 -4.80644 2.60083 0
M  V30 4698 H 485.835 -0.743589 0.361946 0
M  V30 4699 H 488.381 -1.04555 1.33665 0
M  V30 4700 H 487.153 -2.66382 2.8663 0
M  V30 4701 H 486.776 -3.68645 1.48952 0
M  V30 4702 N 487.773 -1.03688 -1.18687 0
M  V30 4703 C 488.723 -0.595067 -2.20098 0
M  V30 4704 C 489.707 0.360465 -1.5681 0
M  V30 4705 O 490.899 0.180136 -1.76081 0
M  V30 4706 C 488.028 0.0444495 -3.43271 0
M  V30 4707 C 487.114 -0.934002 -4.13687 0
M  V30 4708 N 487.505 -2.09957 -4.60165 0
M  V30 4709 C 485.803 -0.759177 -4.39491 0
M  V30 4710 C 486.504 -2.71735 -5.1433 0
M  V30 4711 N 485.48 -1.99638 -5.05614 0
M  V30 4712 H 489.282 -1.48336 -2.5372 0
M  V30 4713 H 486.796 -0.904949 -1.3485 0
M  V30 4714 H 488.793 0.37864 -4.15177 0
M  V30 4715 H 487.453 0.928325 -3.11147 0
M  V30 4716 H 488.464 -2.47863 -4.54735 0
M  V30 4717 H 485.141 0.0749292 -4.17433 0
M  V30 4718 H 486.531 -3.70492 -5.60523 0
M  V30 4719 N 489.251 1.34841 -0.815825 0
M  V30 4720 C 490.479 2.0273 -0.413294 0
M  V30 4721 C 490.894 1.61459 0.978599 0
M  V30 4722 O 490.251 0.816584 1.63212 0
M  V30 4723 C 490.302 3.58058 -0.497676 0
M  V30 4724 O 490.023 3.97832 -1.8347 0
M  V30 4725 C 491.524 4.4321 -0.0891339 0
M  V30 4726 H 488.744 0.649956 -0.166728 0
M  V30 4727 H 491.288 1.72267 -1.10201 0
M  V30 4728 H 489.443 3.87136 0.142886 0
M  V30 4729 H 489.857 4.92501 -1.80396 0
M  V30 4730 H 491.331 5.5164 -0.199274 0
M  V30 4731 H 491.808 4.28432 0.966571 0
M  V30 4732 H 492.414 4.19446 -0.703214 0
M  V30 4733 N 490.729 0.570148 1.46925 0
M  V30 4734 C 491.954 0.0542592 2.07329 0
M  V30 4735 C 492.379 -1.23582 1.41806 0
M  V30 4736 O 491.737 -1.74341 0.497479 0
M  V30 4737 C 491.785 -0.111175 3.60429 0
M  V30 4738 O 490.889 -1.17071 3.95434 0
M  V30 4739 H 490.23 0.0571425 0.661537 0
M  V30 4740 H 492.76 0.789516 1.88753 0
M  V30 4741 H 492.77 -0.321315 4.06733 0
M  V30 4742 H 491.445 0.831012 4.07513 0
M  V30 4743 H 490.022 -0.940029 3.60857 0
M  V30 4744 N 492.207 -1.54576 0.307264 0
M  V30 4745 C 493.17 -2.22423 -0.553224 0
M  V30 4746 C 494.17 -1.21231 -1.05639 0
M  V30 4747 O 495.36 -1.45923 -0.951419 0
M  V30 4748 C 492.492 -2.91552 -1.76664 0
M  V30 4749 H 493.685 -2.99874 0.0396484 0
M  V30 4750 H 491.238 -1.56192 0.0581629 0
M  V30 4751 H 491.973 -2.18196 -2.39918 0
M  V30 4752 H 491.758 -3.65738 -1.41343 0
M  V30 4753 H 493.248 -3.43292 -2.37783 0
M  V30 4754 N 493.685 -0.035106 -1.57561 0
M  V30 4755 C 494.595 0.960295 -2.14046 0
M  V30 4756 C 495.611 1.3529 -1.0942 0
M  V30 4757 O 496.787 1.43309 -1.41508 0
M  V30 4758 C 493.852 2.22214 -2.66124 0
M  V30 4759 C 492.913 1.8894 -3.85487 0
M  V30 4760 C 492.146 3.09109 -4.35072 0
M  V30 4761 O 492.369 4.21963 -3.83802 0
M  V30 4762 O 491.303 2.91058 -5.26848 0
M  V30 4763 H 495.129 0.509983 -2.99387 0
M  V30 4764 H 492.714 0.185853 -1.48239 0
M  V30 4765 H 494.596 2.96279 -2.99661 0
M  V30 4766 H 493.271 2.66414 -1.83862 0
M  V30 4767 H 492.178 1.12241 -3.56865 0
M  V30 4768 H 493.511 1.49551 -4.6893 0
M  V30 4769 N 495.163 1.55791 0.238111 0
M  V30 4770 C 496.093 1.94068 1.29846 0
M  V30 4771 C 497.074 0.806726 1.49753 0
M  V30 4772 O 498.259 1.06772 1.62214 0
M  V30 4773 C 495.389 2.24302 2.65153 0
M  V30 4774 C 494.343 3.40032 2.59927 0
M  V30 4775 C 493.669 3.55829 3.99111 0
M  V30 4776 C 494.969 4.75476 2.16148 0
M  V30 4777 H 496.663 2.82887 0.980563 0
M  V30 4778 H 494.209 1.36105 0.470253 0
M  V30 4779 H 496.162 2.4967 3.39475 0
M  V30 4780 H 494.886 1.32318 2.98596 0
M  V30 4781 H 493.545 3.14687 1.88063 0
M  V30 4782 H 493.193 2.6125 4.29834 0
M  V30 4783 H 492.893 4.3366 3.96501 0
M  V30 4784 H 494.417 3.83528 4.7512 0
M  V30 4785 H 495.831 5.00158 2.80205 0
M  V30 4786 H 494.228 5.56472 2.24631 0
M  V30 4787 H 495.298 4.71946 1.11333 0
M  V30 4788 N 496.642 -0.504142 1.49319 0
M  V30 4789 C 497.867 -1.28729 1.62615 0
M  V30 4790 C 498.292 -1.85752 0.296309 0
M  V30 4791 O 497.65 -1.65704 -0.735649 0
M  V30 4792 C 497.698 -2.39561 2.69524 0
M  V30 4793 O 496.802 -3.43324 2.28478 0
M  V30 4794 H 496.143 -0.380172 0.544395 0
M  V30 4795 H 498.673 -0.603872 1.95485 0
M  V30 4796 H 498.683 -2.8537 2.91595 0
M  V30 4797 H 497.358 -1.97423 3.66056 0
M  V30 4798 H 495.935 -3.03455 2.16725 0
M  V30 4799 N 498.12 -1.38341 -0.754957 0
M  V30 4800 C 499.03 -1.3769 -1.89944 0
M  V30 4801 C 500.046 -0.274194 -1.71826 0
M  V30 4802 O 501.222 -0.512391 -1.94773 0
M  V30 4803 C 498.287 -1.19938 -3.25293 0
M  V30 4804 C 497.348 -2.40001 -3.55946 0
M  V30 4805 C 496.581 -2.23087 -4.84838 0
M  V30 4806 O 496.804 -1.22386 -5.57116 0
M  V30 4807 O 495.738 -3.11646 -5.14937 0
M  V30 4808 H 499.564 -2.3412 -1.93446 0
M  V30 4809 H 497.149 -1.19246 -0.900044 0
M  V30 4810 H 499.031 -1.12093 -4.06218 0
M  V30 4811 H 497.706 -0.265919 -3.22606 0
M  V30 4812 H 496.613 -2.53421 -2.75188 0
M  V30 4813 H 497.946 -3.31973 -3.63394 0
M  V30 4814 N 499.598 0.982988 -1.23187 0
M  V30 4815 C 500.847 1.71817 -1.05649 0
M  V30 4816 C 501.16 1.91315 0.407176 0
M  V30 4817 O 502.366 2.62256 0.702436 0
M  V30 4818 C 500.822 3.09188 -1.84203 0
M  V30 4819 C 500.43 2.97586 -3.34882 0
M  V30 4820 C 502.174 3.86684 -1.75146 0
M  V30 4821 C 500.081 4.30173 -4.05839 0
M  V30 4822 H 499.011 0.644258 -0.391724 0
M  V30 4823 H 501.662 1.09659 -1.4713 0
M  V30 4824 H 500.044 3.72087 -1.35527 0
M  V30 4825 H 501.218 2.43793 -3.91026 0
M  V30 4826 H 499.533 2.33567 -3.44725 0
M  V30 4827 H 502.13 4.84836 -2.25473 0
M  V30 4828 H 502.473 4.10136 -0.713737 0
M  V30 4829 H 503.006 3.30482 -2.21419 0
M  V30 4830 H 499.745 4.11918 -5.09906 0
M  V30 4831 H 499.265 4.83841 -3.54482 0
M  V30 4832 H 500.944 4.98873 -4.11989 0
M  V30 4833 N 501.076 1.04316 1.18135 0
M  V30 4834 C 502.006 0.657299 2.24058 0
M  V30 4835 C 502.987 -0.340678 1.66654 0
M  V30 4836 O 504.172 -0.220223 1.92947 0
M  V30 4837 C 501.302 0.0220715 3.47293 0
M  V30 4838 C 500.256 0.943857 4.17463 0
M  V30 4839 C 499.582 0.172973 5.3442 0
M  V30 4840 C 500.882 2.26409 4.70677 0
M  V30 4841 H 502.576 1.5428 2.56589 0
M  V30 4842 H 500.122 0.743263 1.23335 0
M  V30 4843 H 502.075 -0.259607 4.206 0
M  V30 4844 H 500.799 -0.898323 3.14003 0
M  V30 4845 H 499.458 1.20996 3.46057 0
M  V30 4846 H 499.106 -0.749907 4.97379 0
M  V30 4847 H 498.806 0.787098 5.82304 0
M  V30 4848 H 500.33 -0.101628 6.10515 0
M  V30 4849 H 501.744 2.04294 5.35665 0
M  V30 4850 H 500.141 2.8314 5.29105 0
M  V30 4851 H 501.211 2.90883 3.87962 0
M  V30 4852 N 502.554 -1.34406 0.822964 0
M  V30 4853 C 503.8 -1.98578 0.411666 0
M  V30 4854 C 504.133 -1.65093 -1.02264 0
M  V30 4855 O 503.408 -0.92258 -1.71227 0
M  V30 4856 C 503.691 -3.54823 0.614235 0
M  V30 4857 C 503.544 -3.9805 2.09466 0
M  V30 4858 C 504.863 -4.40071 0.050221 0
M  V30 4859 H 501.982 -0.721355 0.151047 0
M  V30 4860 H 504.624 -1.59301 1.03554 0
M  V30 4861 H 502.774 -3.88411 0.0831774 0
M  V30 4862 H 504.446 -3.74795 2.68936 0
M  V30 4863 H 502.689 -3.4836 2.5851 0
M  V30 4864 H 503.36 -5.06819 2.18721 0
M  V30 4865 H 505.836 -4.13037 0.503953 0
M  V30 4866 H 504.712 -5.48452 0.221759 0
M  V30 4867 H 504.973 -4.29576 -1.04482 0
M  V30 4868 N 504.032 -0.577932 -1.46621 0
M  V30 4869 C 505.443 -0.150071 -1.86096 0
M  V30 4870 C 505.794 1.28563 -1.48209 0
M  V30 4871 O 504.919 1.97036 -0.894754 0
M  V30 4872 C 505.514 -0.265576 -3.37758 0
M  V30 4873 C 504.073 0.10738 -3.76247 0
M  V30 4874 C 503.22 -0.603711 -2.70649 0
M  V30 4875 H 506.171 -0.786438 -1.37844 0
M  V30 4876 H 506.192 0.510352 -3.77062 0
M  V30 4877 H 505.704 -1.3106 -3.65301 0
M  V30 4878 H 503.805 1.15272 -3.54321 0
M  V30 4879 H 503.918 -0.26561 -4.78363 0
M  V30 4880 H 502.282 -0.0444884 -2.54661 0
M  V30 4881 H 503.065 -1.65029 -3.01032 0
M  V30 4882 N 505.51 1.54411 -0.315457 0
M  V30 4883 C 506.757 2.00419 0.289543 0
M  V30 4884 C 507.085 1.20373 1.52776 0
M  V30 4885 O 506.34 0.271769 1.93804 0
M  V30 4886 C 506.639 3.50936 0.676652 0
M  V30 4887 C 506.305 4.48532 -0.461472 0
M  V30 4888 C 504.967 4.74936 -0.773879 0
M  V30 4889 C 507.319 5.06567 -1.22637 0
M  V30 4890 C 504.647 5.56634 -1.85405 0
M  V30 4891 C 506.999 5.89441 -2.29657 0
M  V30 4892 C 505.663 6.1415 -2.61488 0
M  V30 4893 H 504.933 0.733386 0.105951 0
M  V30 4894 H 507.58 1.86434 -0.437554 0
M  V30 4895 H 505.885 3.62606 1.48405 0
M  V30 4896 H 507.582 3.83971 1.15618 0
M  V30 4897 H 504.172 4.28096 -0.207893 0
M  V30 4898 H 508.356 4.86157 -0.998271 0
M  V30 4899 H 503.612 5.74012 -2.10523 0
M  V30 4900 H 507.786 6.33432 -2.89374 0
M  V30 4901 H 505.413 6.77245 -3.45317 0
M  V30 4902 N 506.988 0.0434614 1.5754 0
M  V30 4903 C 507.921 -0.968729 2.06618 0
M  V30 4904 C 508.899 -1.30868 0.965 0
M  V30 4905 O 510.083 -1.42288 1.23638 0
M  V30 4906 C 507.21 -2.28486 2.50023 0
M  V30 4907 C 506.256 -2.09851 3.71302 0
M  V30 4908 S 507.089 -1.38401 5.17306 0
M  V30 4909 C 508.245 -2.71354 5.64019 0
M  V30 4910 H 508.478 -0.551021 2.92149 0
M  V30 4911 H 506.011 -0.168607 1.53477 0
M  V30 4912 H 507.969 -3.04142 2.75695 0
M  V30 4913 H 506.63 -2.67387 1.64812 0
M  V30 4914 H 505.823 -3.07184 3.99567 0
M  V30 4915 H 505.425 -1.42336 3.45856 0
M  V30 4916 H 507.717 -3.67549 5.69134 0
M  V30 4917 H 508.66 -2.47734 6.6335 0
M  V30 4918 H 509.068 -2.77259 4.91719 0
M  V30 4919 N 508.466 -1.55915 -0.229846 0
M  V30 4920 C 509.413 -1.91734 -1.28478 0
M  V30 4921 C 510.383 -0.773539 -1.46988 0
M  V30 4922 O 511.568 -1.02871 -1.60693 0
M  V30 4923 C 508.708 -2.23224 -2.63182 0
M  V30 4924 C 507.821 -3.50497 -2.52539 0
M  V30 4925 C 506.956 -3.71474 -3.79711 0
M  V30 4926 C 505.995 -4.92289 -3.63755 0
M  V30 4927 N 505.132 -5.09698 -4.82858 0
M  V30 4928 H 509.972 -2.81692 -0.972308 0
M  V30 4929 H 507.509 -1.39429 -0.468815 0
M  V30 4930 H 509.467 -2.3949 -3.41614 0
M  V30 4931 H 508.097 -1.36451 -2.92542 0
M  V30 4932 H 507.149 -3.4247 -1.65585 0
M  V30 4933 H 508.461 -4.39079 -2.36666 0
M  V30 4934 H 507.615 -3.87791 -4.66586 0
M  V30 4935 H 506.354 -2.81157 -3.985 0
M  V30 4936 H 505.359 -4.7593 -2.75264 0
M  V30 4937 H 506.584 -5.84083 -3.46445 0
M  V30 4938 H 504.53 -4.22322 -5.01976 0
M  V30 4939 H 504.447 -5.92399 -4.69681 0
M  V30 4940 H 505.715 -5.30443 -5.71183 0
M  V30 4941 N 509.944 0.496216 -1.49584 0
M  V30 4942 C 511.191 1.25003 -1.59312 0
M  V30 4943 C 511.519 1.92445 -0.28198 0
M  V30 4944 O 510.774 1.81557 0.730452 0
M  V30 4945 C 511.073 2.3359 -2.705 0
M  V30 4946 C 510.739 1.83574 -4.11839 0
M  V30 4947 C 509.401 1.69653 -4.50302 0
M  V30 4948 C 511.753 1.46193 -5.00277 0
M  V30 4949 C 509.081 1.16736 -5.74969 0
M  V30 4950 C 511.433 0.947265 -6.25468 0
M  V30 4951 C 510.097 0.794485 -6.62755 0
M  V30 4952 H 509.367 0.45742 -0.582965 0
M  V30 4953 H 512.014 0.549996 -1.83432 0
M  V30 4954 H 510.319 3.09401 -2.40371 0
M  V30 4955 H 512.016 2.91627 -2.75235 0
M  V30 4956 H 508.606 1.9537 -3.81482 0
M  V30 4957 H 512.79 1.55793 -4.71214 0
M  V30 4958 H 508.046 1.03623 -6.02555 0
M  V30 4959 H 512.22 0.648846 -6.93371 0
M  V30 4960 H 509.847 0.382271 -7.59238 0
M  V30 4961 N 511.423 1.38739 0.74761 0
M  V30 4962 C 512.648 1.38702 1.54197 0
M  V30 4963 C 513.073 -0.019664 1.8809 0
M  V30 4964 O 512.431 -1.00333 1.51006 0
M  V30 4965 C 512.479 2.25492 2.814 0
M  V30 4966 O 511.583 1.67613 3.76802 0
M  V30 4967 H 510.924 0.472863 0.466151 0
M  V30 4968 H 513.454 1.82577 0.923413 0
M  V30 4969 H 513.464 2.39561 3.30264 0
M  V30 4970 H 512.139 3.27727 2.56062 0
M  V30 4971 H 510.716 1.62718 3.35526 0
M  V30 4972 N 512.901 -0.976442 1.23707 0
M  V30 4973 C 513.849 -2.09078 1.01927 0
M  V30 4974 C 514.843 -1.69345 -0.0430193 0
M  V30 4975 O 516.049 -1.79659 0.110814 0
M  V30 4976 H 512.424 -0.68398 0.312531 0
M  V30 4977 H 514.395 -2.24614 1.96447 0
M  V30 4978 C 513.144 -3.41919 0.631385 0
M  V30 4979 H 512.467 -3.72946 1.44053 0
M  V30 4980 H 513.907 -4.20817 0.518532 0
M  V30 4981 C 512.366 -3.30357 -0.660723 0
M  V30 4982 O 512.896 -3.63542 -1.70881 0
M  V30 4983 N 511.102 -2.83507 -0.638139 0
M  V30 4984 H 510.649 -2.567 0.215108 0
M  V30 4985 H 510.607 -2.76153 -1.50289 0
M  V30 4986 N 514.379 -1.04941 -1.1758 0
M  V30 4987 C 515.327 -0.64204 -2.23563 0
M  V30 4988 C 516.321 0.335453 -1.66045 0
M  V30 4989 O 517.527 0.20179 -1.78865 0
M  V30 4990 H 513.902 -0.18944 -0.727748 0
M  V30 4991 H 515.873 -1.54609 -2.55223 0
M  V30 4992 C 514.622 -0.0301051 -3.47687 0
M  V30 4993 H 513.945 -0.773339 -3.92249 0
M  V30 4994 H 515.385 0.217592 -4.23441 0
M  V30 4995 C 513.844 1.2225 -3.13937 0
M  V30 4996 O 514.374 2.3122 -3.28482 0
M  V30 4997 N 512.58 1.11917 -2.68185 0
M  V30 4998 H 512.127 0.232403 -2.5655 0
M  V30 4999 H 512.085 1.95814 -2.45976 0
M  V30 5000 N 515.857 1.33968 -0.830081 0
M  V30 5001 C 517.105 1.97672 -0.420734 0
M  V30 5002 C 517.426 1.66111 1.02138 0
M  V30 5003 O 516.696 0.955503 1.71017 0
M  V30 5004 H 515.276 0.73125 -0.152587 0
M  V30 5005 H 517.938 1.63483 -1.0611 0
M  V30 5006 H 517.034 3.07294 -0.545588 0
M  V30 5007 N 517.335 0.585699 1.46312 0
M  V30 5008 C 518.285 -0.166813 2.27389 0
M  V30 5009 C 519.269 -0.859076 1.36047 0
M  V30 5010 O 520.461 -0.752678 1.60199 0
M  V30 5011 C 517.59 -1.17791 3.2246 0
M  V30 5012 C 516.676 -0.487605 4.21288 0
M  V30 5013 N 517.067 0.45849 5.03718 0
M  V30 5014 C 515.365 -0.737971 4.39852 0
M  V30 5015 C 516.066 0.862213 5.75275 0
M  V30 5016 N 515.042 0.210707 5.43191 0
M  V30 5017 H 518.844 0.560167 2.88512 0
M  V30 5018 H 516.358 0.407715 1.57199 0
M  V30 5019 H 518.355 -1.73122 3.79255 0
M  V30 5020 H 517.015 -1.90568 2.62896 0
M  V30 5021 H 518.026 0.834163 5.11138 0
M  V30 5022 H 514.703 -1.45209 3.91434 0
M  V30 5023 H 516.093 1.64128 6.51546 0
M  V30 5024 N 518.813 -1.54241 0.323641 0
M  V30 5025 C 519.776 -2.22997 -0.529602 0
M  V30 5026 C 520.776 -1.22345 -1.04347 0
M  V30 5027 O 521.966 -1.46924 -0.935889 0
M  V30 5028 C 519.098 -2.93409 -1.73562 0
M  V30 5029 H 520.291 -2.99815 0.0714518 0
M  V30 5030 H 517.844 -1.56121 0.0747258 0
M  V30 5031 H 518.579 -2.20729 -2.37591 0
M  V30 5032 H 518.364 -3.67217 -1.37456 0
M  V30 5033 H 519.854 -3.45794 -2.34128 0
M  V30 5034 N 520.291 -0.0518155 -1.57515 0
M  V30 5035 C 521.201 0.937539 -2.15052 0
M  V30 5036 C 522.217 1.34121 -1.10849 0
M  V30 5037 O 523.393 1.418 -1.4302 0
M  V30 5038 C 520.458 2.19379 -2.68466 0
M  V30 5039 C 519.519 1.84841 -3.87469 0
M  V30 5040 C 518.752 3.04477 -4.38326 0
M  V30 5041 O 518.975 4.17868 -3.88256 0
M  V30 5042 O 517.909 2.85453 -5.29906 0
M  V30 5043 H 521.735 0.478201 -2.99912 0
M  V30 5044 H 519.32 0.17012 -1.48428 0
M  V30 5045 H 521.202 2.93084 -3.02787 0
M  V30 5046 H 519.877 2.64449 -1.86677 0
M  V30 5047 H 518.784 1.08449 -3.58036 0
M  V30 5048 H 520.117 1.44569 -4.7049 0
M  V30 5049 N 521.769 1.56035 0.221574 0
M  V30 5050 C 522.702 1.87427 1.30178 0
M  V30 5051 C 523.68 0.731658 1.45209 0
M  V30 5052 O 524.864 0.980016 1.61022 0
M  V30 5053 C 521.991 2.08127 2.67209 0
M  V30 5054 C 521.037 3.30813 2.69194 0
M  V30 5055 S 521.87 4.86738 2.23263 0
M  V30 5056 C 523.026 5.10474 3.62171 0
M  V30 5057 H 523.259 2.78756 1.03355 0
M  V30 5058 H 520.792 1.48469 0.423813 0
M  V30 5059 H 522.75 2.20736 3.46101 0
M  V30 5060 H 521.411 1.17595 2.91256 0
M  V30 5061 H 520.604 3.42341 3.6989 0
M  V30 5062 H 520.206 3.1706 1.98366 0
M  V30 5063 H 522.498 4.9937 4.5786 0
M  V30 5064 H 523.441 6.12359 3.55558 0
M  V30 5065 H 523.849 4.38208 3.55857 0
M  V30 5066 N 523.247 -0.488276 1.49845 0
M  V30 5067 C 524.177 -1.59675 1.70371 0
M  V30 5068 C 525.158 -1.60878 0.552473 0
M  V30 5069 O 526.343 -1.77417 0.78973 0
M  V30 5070 C 523.473 -2.98098 1.782 0
M  V30 5071 C 522.427 -3.11761 2.93239 0
M  V30 5072 C 521.753 -4.51661 2.86193 0
M  V30 5073 C 523.053 -2.90589 4.33999 0
M  V30 5074 H 524.747 -1.42752 2.63177 0
M  V30 5075 H 522.293 -0.685317 1.26647 0
M  V30 5076 H 524.246 -3.75555 1.91144 0
M  V30 5077 H 522.97 -3.16138 0.820018 0
M  V30 5078 H 521.629 -2.36732 2.79917 0
M  V30 5079 H 521.277 -4.66595 1.87877 0
M  V30 5080 H 520.977 -4.61742 3.63412 0
M  V30 5081 H 522.501 -5.31162 3.01163 0
M  V30 5082 H 523.915 -3.57807 4.47936 0
M  V30 5083 H 522.312 -3.1213 5.12538 0
M  V30 5084 H 523.382 -1.86595 4.4756 0
M  V30 5085 N 524.725 -1.39134 -0.740242 0
M  V30 5086 C 525.971 -1.36273 -1.50192 0
M  V30 5087 C 526.304 0.0430136 -1.94152 0
M  V30 5088 O 525.579 1.00691 -1.66408 0
M  V30 5089 C 525.862 -2.33041 -2.74525 0
M  V30 5090 C 525.715 -3.82535 -2.36617 0
M  V30 5091 C 527.034 -2.27723 -3.76604 0
M  V30 5092 H 524.153 -0.496323 -0.544823 0
M  V30 5093 H 526.795 -1.70085 -0.846815 0
M  V30 5094 H 524.945 -2.04337 -3.30422 0
M  V30 5095 H 526.617 -4.21967 -1.86391 0
M  V30 5096 H 524.86 -3.99565 -1.68909 0
M  V30 5097 H 525.531 -4.45723 -3.2563 0
M  V30 5098 H 528.007 -2.53091 -3.30279 0
M  V30 5099 H 526.883 -2.97519 -4.61274 0
M  V30 5100 H 527.144 -1.28049 -4.2315 0
M  V30 5101 N 526.204 0.969867 -1.24223 0
M  V30 5102 C 527.151 2.06407 -1.0327 0
M  V30 5103 C 528.121 1.66014 0.0533 0
M  V30 5104 O 529.306 1.90533 -0.100896 0
M  V30 5105 C 526.446 3.3909 -0.641262 0
M  V30 5106 C 525.559 3.9269 -1.80051 0
M  V30 5107 C 524.694 5.13631 -1.35486 0
M  V30 5108 C 523.733 5.59423 -2.48419 0
M  V30 5109 N 522.87 6.71586 -2.04737 0
M  V30 5110 H 527.71 2.23663 -1.96923 0
M  V30 5111 H 525.247 1.09624 -0.980862 0
M  V30 5112 H 527.205 4.15323 -0.395351 0
M  V30 5113 H 525.835 3.21765 0.258269 0
M  V30 5114 H 524.887 3.13116 -2.16014 0
M  V30 5115 H 526.199 4.22636 -2.64916 0
M  V30 5116 H 525.353 5.97231 -1.0677 0
M  V30 5117 H 524.092 4.85364 -0.476722 0
M  V30 5118 H 523.097 4.74398 -2.77897 0
M  V30 5119 H 524.322 5.89705 -3.36786 0
M  V30 5120 H 522.268 6.45058 -1.19318 0
M  V30 5121 H 522.185 7.0097 -2.83156 0
M  V30 5122 H 523.453 7.58633 -1.79154 0
M  V30 5123 N 527.682 1.05563 1.17022 0
M  V30 5124 C 528.907 0.788437 1.91829 0
M  V30 5125 C 529.332 -0.650356 1.76499 0
M  V30 5126 O 528.69 -1.45229 1.08527 0
M  V30 5127 C 528.738 1.1786 3.40795 0
M  V30 5128 O 527.842 0.312965 4.11211 0
M  V30 5129 H 527.183 0.288794 0.597908 0
M  V30 5130 H 529.713 1.40948 1.48307 0
M  V30 5131 H 529.723 1.14697 3.91546 0
M  V30 5132 H 528.398 2.22666 3.51273 0
M  V30 5133 H 526.975 0.405515 3.70689 0
M  V30 5134 N 529.16 -1.33526 0.837174 0
M  V30 5135 C 530.409 -1.97098 0.428387 0
M  V30 5136 C 530.722 -1.67062 -1.01734 0
M  V30 5137 O 531.928 -2.24235 -1.53072 0
M  V30 5138 C 530.384 -3.52725 0.715075 0
M  V30 5139 C 529.992 -3.9164 2.17537 0
M  V30 5140 C 531.736 -4.22857 0.373154 0
M  V30 5141 C 529.643 -5.40237 2.40619 0
M  V30 5142 H 528.573 -0.737589 0.156455 0
M  V30 5143 H 531.224 -1.52169 1.02552 0
M  V30 5144 H 529.606 -3.95971 0.0475904 0
M  V30 5145 H 530.78 -3.59456 2.88319 0
M  V30 5146 H 529.095 -3.34485 2.4801 0
M  V30 5147 H 531.692 -5.32133 0.523264 0
M  V30 5148 H 532.035 -4.10647 -0.683708 0
M  V30 5149 H 532.568 -3.85135 0.995801 0
M  V30 5150 H 529.307 -5.57449 3.44864 0
M  V30 5151 H 528.827 -5.73887 1.74396 0
M  V30 5152 H 530.506 -6.07102 2.23688 0
M  V30 5153 N 530.638 -0.59345 -1.46 0
M  V30 5154 C 531.886 -0.082988 -2.0193 0
M  V30 5155 C 532.207 1.28569 -1.46612 0
M  V30 5156 O 531.477 1.84629 -0.654909 0
M  V30 5157 H 530.057 -0.0276882 -0.746487 0
M  V30 5158 H 532.719 -0.771657 -1.78973 0
M  V30 5159 H 531.815 -0.022079 -3.12092 0
M  V30 5160 N 532.116 1.54067 -0.331816 0
M  V30 5161 C 533.048 2.22139 0.564538 0
M  V30 5162 C 534.061 1.22408 1.07332 0
M  V30 5163 O 535.25 1.4883 0.985481 0
M  V30 5164 C 532.35 2.87876 1.78831 0
M  V30 5165 C 531.523 4.13817 1.41682 0
M  V30 5166 C 530.582 4.63072 2.49901 0
M  V30 5167 O 529.608 5.27562 2.13699 0
M  V30 5168 N 530.81 4.38001 3.80967 0
M  V30 5169 H 533.575 2.99694 -0.0183736 0
M  V30 5170 H 531.136 1.61153 -0.155396 0
M  V30 5171 H 533.128 3.17747 2.50637 0
M  V30 5172 H 531.698 2.13977 2.27887 0
M  V30 5173 H 530.918 3.9062 0.530044 0
M  V30 5174 H 532.206 4.95762 1.14443 0
M  V30 5175 H 531.604 3.864 4.13173 0
M  V30 5176 H 530.161 4.72507 4.48977 0
M  V30 5177 N 533.594 0.0601682 1.57485 0
M  V30 5178 C 534.504 -0.926121 2.15546 0
M  V30 5179 C 535.52 -1.33532 1.11558 0
M  V30 5180 O 536.696 -1.4104 1.4377 0
M  V30 5181 C 533.761 -2.17952 2.69625 0
M  V30 5182 C 532.822 -1.82783 3.88444 0
M  V30 5183 C 532.055 -3.02148 4.39935 0
M  V30 5184 O 532.278 -4.15803 3.90466 0
M  V30 5185 O 531.212 -2.82639 5.31412 0
M  V30 5186 H 535.038 -0.462289 3.00161 0
M  V30 5187 H 532.623 -0.162246 1.48516 0
M  V30 5188 H 534.505 -2.91474 3.04337 0
M  V30 5189 H 533.18 -2.63456 1.88077 0
M  V30 5190 H 532.087 -1.06549 3.58606 0
M  V30 5191 H 533.42 -1.42072 4.7125 0
M  V30 5192 N 535.072 -1.5615 -0.213296 0
M  V30 5193 C 536.3 -1.83638 -0.953139 0
M  V30 5194 C 536.715 -0.640362 -1.77609 0
M  V30 5195 O 536.072 0.391071 -1.78261 0
M  V30 5196 C 536.123 -3.09735 -1.86405 0
M  V30 5197 O 535.844 -4.24723 -1.07435 0
M  V30 5198 C 537.345 -3.5027 -2.71709 0
M  V30 5199 H 534.565 -0.610263 -0.278962 0
M  V30 5200 H 537.109 -2.03247 -0.226035 0
M  V30 5201 H 535.264 -2.92077 -2.545 0
M  V30 5202 H 535.678 -4.9641 -1.69343 0
M  V30 5203 H 537.152 -4.41515 -3.31313 0
M  V30 5204 H 537.629 -2.72406 -3.44516 0
M  V30 5205 H 538.235 -3.70396 -2.09015 0
M  V30 5206 N 536.55 0.480323 -1.50102 0
M  V30 5207 C 537.513 1.56181 -1.6775 0
M  V30 5208 C 538.513 1.51156 -0.548503 0
M  V30 5209 O 539.703 1.5394 -0.815363 0
M  V30 5210 C 536.835 2.95823 -1.69415 0
M  V30 5211 H 538.028 1.41855 -2.6423 0
M  V30 5212 H 535.581 0.70605 -1.39444 0
M  V30 5213 H 536.316 3.15604 -0.745948 0
M  V30 5214 H 536.101 3.00878 -2.51425 0
M  V30 5215 H 537.591 3.74359 -1.85054 0
M  V30 5216 N 538.028 1.39524 0.732853 0
M  V30 5217 C 539.276 1.36594 1.48951 0
M  V30 5218 C 539.597 -0.0367507 1.94965 0
M  V30 5219 O 538.867 -0.988391 1.69138 0
M  V30 5220 H 537.447 0.502673 0.552566 0
M  V30 5221 H 540.109 1.74411 0.869869 0
M  V30 5222 H 539.205 2.03 2.3706 0
M  V30 5223 N 539.506 -0.963266 1.24736 0
M  V30 5224 C 540.469 -2.04013 1.04457 0
M  V30 5225 C 541.469 -1.608 0.000335555 0
M  V30 5226 O 542.659 -1.72515 0.241719 0
M  V30 5227 C 539.791 -3.35858 0.584162 0
M  V30 5228 H 540.984 -2.23436 2.00041 0
M  V30 5229 H 538.537 -1.13914 1.07021 0
M  V30 5230 H 539.272 -3.22128 -0.374673 0
M  V30 5231 H 539.057 -3.68568 1.3379 0
M  V30 5232 H 540.547 -4.1502 0.463451 0
M  V30 5233 N 540.985 -1.06182 -1.16461 0
M  V30 5234 C 542.233 -0.776326 -1.86595 0
M  V30 5235 C 542.554 0.69921 -1.82033 0
M  V30 5236 O 541.824 1.50579 -1.2531 0
M  V30 5237 H 540.404 -0.284184 -0.690832 0
M  V30 5238 H 543.066 -1.34308 -1.41235 0
M  V30 5239 H 542.162 -1.10022 -2.92064 0
M  V30 5240 N 542.463 1.3308 -0.844243 0
M  V30 5241 C 543.691 2.01808 -0.456203 0
M  V30 5242 C 544.106 1.63498 0.944131 0
M  V30 5243 O 543.463 0.85102 1.61443 0
M  V30 5244 C 543.514 3.56922 -0.573513 0
M  V30 5245 O 543.235 3.93851 -1.91868 0
M  V30 5246 C 544.736 4.42922 -0.183125 0
M  V30 5247 H 541.956 0.646273 -0.180477 0
M  V30 5248 H 544.5 1.69891 -1.1383 0
M  V30 5249 H 542.655 3.87352 0.0607367 0
M  V30 5250 H 543.069 4.88564 -1.90802 0
M  V30 5251 H 544.543 5.51093 -0.316241 0
M  V30 5252 H 545.02 4.30386 0.875477 0
M  V30 5253 H 545.626 4.1786 -0.792027 0
M  V30 5254 N 543.941 0.601185 1.45683 0
M  V30 5255 C 545.187 0.102425 2.03142 0
M  V30 5256 C 545.542 -1.25066 1.46207 0
M  V30 5257 O 544.835 -1.81126 0.624806 0
M  V30 5258 C 545.029 -0.00222425 3.574 0
M  V30 5259 C 544.858 1.33917 4.29298 0
M  V30 5260 C 543.628 1.91818 4.67476 0
M  V30 5261 C 545.826 2.26652 4.61664 0
M  V30 5262 N 543.808 3.19504 5.24204 0
M  V30 5263 C 545.179 3.38933 5.19157 0
M  V30 5264 C 547.234 2.26103 4.43601 0
M  V30 5265 C 545.937 4.50823 5.60492 0
M  V30 5266 C 547.963 3.37036 4.85964 0
M  V30 5267 C 547.325 4.48039 5.43545 0
M  V30 5268 H 543.424 0.0806974 0.777825 0
M  V30 5269 H 546.008 0.798134 1.77589 0
M  V30 5270 H 544.179 -0.66714 3.82627 0
M  V30 5271 H 545.911 -0.507058 4.01511 0
M  V30 5272 H 542.666 1.45097 4.50826 0
M  V30 5273 H 543.09 3.84705 5.57073 0
M  V30 5274 H 547.732 1.41547 3.98402 0
M  V30 5275 H 545.45 5.36108 6.0466 0
M  V30 5276 H 549.036 3.37752 4.73725 0
M  V30 5277 H 547.916 5.32459 5.75723 0
M  V30 5278 N 545.419 -1.53889 0.339982 0
M  V30 5279 C 546.696 -1.93084 -0.312719 0
M  V30 5280 C 547.076 -1.2712 -1.68534 0
M  V30 5281 O 546.424 -0.420835 -2.24591 0
M  V30 5282 C 546.634 -3.4683 -0.388558 0
M  V30 5283 C 547.982 -4.19732 -0.641088 0
M  V30 5284 O 549.006 -3.53075 -0.470818 0
M  V30 5285 O 547.865 -5.3781 -0.970685 0
M  V30 5286 H 544.959 -0.806784 -0.18174 0
M  V30 5287 H 547.505 -1.65137 0.390898 0
M  V30 5288 H 546.277 -3.87055 0.574821 0
M  V30 5289 H 545.9 -3.80933 -1.1391 0
M  V30 5290 N 546.897 -0.0685191 -1.57451 0
M  V30 5291 C 547.86 0.885173 -2.11417 0
M  V30 5292 C 548.86 1.22853 -1.03748 0
M  V30 5293 O 550.05 1.16235 -1.2975 0
M  V30 5294 C 547.182 2.18964 -2.61281 0
M  V30 5295 H 548.375 0.417034 -2.96986 0
M  V30 5296 H 545.928 0.18014 -1.55258 0
M  V30 5297 H 546.663 2.70321 -1.79156 0
M  V30 5298 H 546.448 1.9534 -3.39977 0
M  V30 5299 H 547.938 2.87242 -3.0312 0
M  V30 5300 N 548.375 1.56261 0.205012 0
M  V30 5301 C 549.623 1.79684 0.925096 0
M  V30 5302 C 549.944 0.63989 1.84202 0
M  V30 5303 O 549.214 -0.342345 1.92885 0
M  V30 5304 H 547.794 0.662774 0.344587 0
M  V30 5305 H 550.456 1.93734 0.212899 0
M  V30 5306 H 549.552 2.72467 1.52211 0
M  V30 5307 N 549.853 -0.472356 1.50355 0
M  V30 5308 C 550.783 -1.57859 1.72055 0
M  V30 5309 C 551.764 -1.60283 0.569505 0
M  V30 5310 O 552.949 -1.7657 0.808503 0
M  V30 5311 C 550.079 -2.96191 1.81351 0
M  V30 5312 C 549.033 -3.08633 2.96529 0
M  V30 5313 C 548.359 -4.486 2.90968 0
M  V30 5314 C 549.659 -2.85969 4.37057 0
M  V30 5315 H 551.353 -1.39953 2.64676 0
M  V30 5316 H 548.899 -0.671846 1.27367 0
M  V30 5317 H 550.852 -3.73507 1.95117 0
M  V30 5318 H 549.576 -3.15251 0.853502 0
M  V30 5319 H 548.235 -2.33749 2.82413 0
M  V30 5320 H 547.883 -4.64577 1.92815 0
M  V30 5321 H 547.583 -4.57861 3.68289 0
M  V30 5322 H 549.107 -5.27938 3.0678 0
M  V30 5323 H 550.521 -3.53036 4.51706 0
M  V30 5324 H 548.918 -3.06677 5.15819 0
M  V30 5325 H 549.988 -1.81838 4.49514 0
M  V30 5326 N 551.331 -1.39911 -0.725443 0
M  V30 5327 C 552.577 -1.37858 -1.48738 0
M  V30 5328 C 552.91 0.0224187 -1.94187 0
M  V30 5329 O 552.185 0.989204 -1.67466 0
M  V30 5330 C 552.468 -2.3594 -2.72038 0
M  V30 5331 C 552.321 -3.85023 -2.32546 0
M  V30 5332 C 553.64 -2.31704 -3.74167 0
M  V30 5333 H 550.759 -0.502074 -0.539528 0
M  V30 5334 H 553.401 -1.70974 -0.828728 0
M  V30 5335 H 551.551 -2.0783 -3.28236 0
M  V30 5336 H 553.223 -4.2392 -1.81905 0
M  V30 5337 H 551.466 -4.01334 -1.64661 0
M  V30 5338 H 552.137 -4.49152 -3.20884 0
M  V30 5339 H 554.613 -2.5658 -3.27576 0
M  V30 5340 H 553.489 -3.02395 -4.58092 0
M  V30 5341 H 553.75 -1.3253 -4.21768 0
M  V30 5342 N 552.809 0.956637 -1.25245 0
M  V30 5343 C 554.057 1.69764 -1.09657 0
M  V30 5344 C 554.378 1.91583 0.363464 0
M  V30 5345 O 553.648 1.50149 1.25825 0
M  V30 5346 H 552.228 0.629097 -0.402798 0
M  V30 5347 H 554.89 1.15026 -1.57337 0
M  V30 5348 H 553.986 2.67769 -1.60331 0
M  V30 5349 N 554.287 1.06798 1.15896 0
M  V30 5350 C 555.533 0.788934 1.86825 0
M  V30 5351 C 555.866 -0.683084 1.8179 0
M  V30 5352 O 555.141 -1.50086 1.23711 0
M  V30 5353 C 555.424 1.29065 3.36176 0
M  V30 5354 C 555.277 2.8268 3.49874 0
M  V30 5355 C 556.596 0.902655 4.30744 0
M  V30 5356 H 553.715 0.288066 0.678371 0
M  V30 5357 H 556.357 1.32479 1.36195 0
M  V30 5358 H 554.507 0.834806 3.79425 0
M  V30 5359 H 556.179 3.36511 3.15528 0
M  V30 5360 H 554.422 3.21157 2.91617 0
M  V30 5361 H 555.093 3.12852 4.54783 0
M  V30 5362 H 557.569 1.29535 3.95424 0
M  V30 5363 H 556.445 1.28111 5.3374 0
M  V30 5364 H 556.706 -0.191951 4.41683 0
M  V30 5365 N 555.766 -1.3263 0.851289 0
M  V30 5366 C 556.676 -2.32722 0.296268 0
M  V30 5367 C 557.692 -1.63901 -0.584162 0
M  V30 5368 O 558.868 -1.95465 -0.485334 0
M  V30 5369 C 555.933 -3.42942 -0.509103 0
M  V30 5370 C 554.994 -4.2746 0.397069 0
M  V30 5371 C 554.227 -5.32416 -0.36996 0
M  V30 5372 O 554.45 -5.47491 -1.6003 0
M  V30 5373 O 553.384 -6.01327 0.262493 0
M  V30 5374 H 557.21 -2.82078 1.12543 0
M  V30 5375 H 554.795 -1.36194 0.614135 0
M  V30 5376 H 556.677 -4.1017 -0.96634 0
M  V30 5377 H 555.352 -2.95781 -1.31512 0
M  V30 5378 H 554.259 -3.63053 0.902411 0
M  V30 5379 H 555.592 -4.78136 1.16818 0
M  V30 5380 N 557.244 -0.608902 -1.45362 0
M  V30 5381 C 558.154 0.110969 -2.34337 0
M  V30 5382 C 559.17 0.859007 -1.51318 0
M  V30 5383 O 560.346 0.816296 -1.84116 0
M  V30 5384 C 557.411 1.09494 -3.28956 0
M  V30 5385 C 556.472 0.348718 -4.27881 0
M  V30 5386 C 555.705 1.28582 -5.17979 0
M  V30 5387 O 555.928 2.52369 -5.11533 0
M  V30 5388 O 554.862 0.782172 -5.96796 0
M  V30 5389 H 558.688 -0.620258 -2.97299 0
M  V30 5390 H 556.273 -0.36916 -1.44767 0
M  V30 5391 H 558.155 1.66163 -3.87257 0
M  V30 5392 H 556.83 1.80717 -2.68557 0
M  V30 5393 H 555.737 -0.260465 -3.73192 0
M  V30 5394 H 557.07 -0.323049 -4.91139 0
M  V30 5395 N 558.722 1.53707 -0.348139 0
M  V30 5396 C 559.685 2.23812 0.494058 0
M  V30 5397 C 560.685 1.23989 1.02388 0
M  V30 5398 O 561.875 1.48395 0.912396 0
M  V30 5399 C 559.007 2.96133 1.68872 0
M  V30 5400 H 560.2 2.99663 -0.119141 0
M  V30 5401 H 557.753 1.55983 -0.0995539 0
M  V30 5402 H 558.488 2.24481 2.34049 0
M  V30 5403 H 558.273 3.69357 1.31596 0
M  V30 5404 H 559.763 3.49475 2.28597 0
M  V30 5405 N 560.2 0.0768682 1.57412 0
M  V30 5406 C 561.13 -0.886026 2.16037 0
M  V30 5407 C 562.111 -1.30691 1.08876 0
M  V30 5408 O 563.296 -1.37705 1.36934 0
M  V30 5409 C 560.426 -2.1518 2.72608 0
M  V30 5410 C 559.38 -1.87015 3.8498 0
M  V30 5411 C 558.706 -3.20266 4.28175 0
M  V30 5412 C 560.006 -1.17143 5.08994 0
M  V30 5413 H 561.7 -0.397642 2.96748 0
M  V30 5414 H 559.246 -0.189823 1.42743 0
M  V30 5415 H 561.199 -2.82962 3.12266 0
M  V30 5416 H 559.923 -2.66269 1.89125 0
M  V30 5417 H 558.582 -1.21636 3.45833 0
M  V30 5418 H 558.23 -3.69207 3.41607 0
M  V30 5419 H 557.93 -3.0221 5.03927 0
M  V30 5420 H 559.454 -3.89237 4.70454 0
M  V30 5421 H 560.868 -1.75003 5.45937 0
M  V30 5422 H 559.265 -1.09328 5.90057 0
M  V30 5423 H 560.335 -0.151295 4.84664 0
M  V30 5424 N 561.678 -1.56367 -0.196722 0
M  V30 5425 C 562.903 -1.84991 -0.937714 0
M  V30 5426 C 563.328 -0.660244 -1.76132 0
M  V30 5427 O 562.686 0.390967 -1.77034 0
M  V30 5428 C 562.734 -3.11828 -1.81096 0
M  V30 5429 O 561.838 -2.92266 -2.90955 0
M  V30 5430 H 561.179 -0.609193 -0.264159 0
M  V30 5431 H 563.709 -2.03595 -0.202529 0
M  V30 5432 H 563.719 -3.42579 -2.21594 0
M  V30 5433 H 562.394 -3.98037 -1.2058 0
M  V30 5434 H 560.971 -2.72809 -2.54224 0
M  V30 5435 N 563.156 0.464375 -1.50603 0
M  V30 5436 C 564.404 1.21356 -1.61608 0
M  V30 5437 C 564.725 1.92329 -0.321643 0
M  V30 5438 O 563.995 1.84403 0.661232 0
M  V30 5439 H 562.575 0.45094 -0.595535 0
M  V30 5440 H 565.237 0.535046 -1.87412 0
M  V30 5441 H 564.333 1.95783 -2.43054 0
M  V30 5442 N 564.634 1.40294 0.718013 0
M  V30 5443 C 565.564 1.43118 1.84498 0
M  V30 5444 C 566.545 0.292403 1.67568 0
M  V30 5445 O 567.73 0.500675 1.87635 0
M  V30 5446 C 564.86 1.29065 3.22427 0
M  V30 5447 C 563.814 2.40521 3.54025 0
M  V30 5448 C 563.14 2.11546 4.91073 0
M  V30 5449 C 564.44 3.82859 3.55269 0
M  V30 5450 H 566.134 2.37432 1.82391 0
M  V30 5451 H 563.68 1.14283 0.87609 0
M  V30 5452 H 565.633 1.29658 4.00957 0
M  V30 5453 H 564.357 0.312271 3.25104 0
M  V30 5454 H 563.016 2.39173 2.77834 0
M  V30 5455 H 562.664 1.12104 4.90348 0
M  V30 5456 H 562.364 2.86216 5.1318 0
M  V30 5457 H 563.888 2.13817 5.71939 0
M  V30 5458 H 565.302 3.86044 4.23843 0
M  V30 5459 H 563.699 4.57029 3.88902 0
M  V30 5460 H 564.769 4.12617 2.54706 0
M  V30 5461 N 566.112 -0.949982 1.2575 0
M  V30 5462 C 567.36 -1.6918 1.10555 0
M  V30 5463 C 567.681 -1.91773 -0.353298 0
M  V30 5464 O 566.951 -1.50814 -1.25027 0
M  V30 5465 H 565.531 -0.626952 0.406129 0
M  V30 5466 H 568.193 -1.1419 1.57945 0
M  V30 5467 H 567.289 -2.66915 1.61749 0
M  V30 5468 N 567.59 -1.07411 -1.15328 0
M  V30 5469 C 568.836 -0.798831 -1.86404 0
M  V30 5470 C 569.169 0.673433 -1.8215 0
M  V30 5471 O 568.444 1.49428 -1.24505 0
M  V30 5472 C 568.727 -1.30846 -3.35487 0
M  V30 5473 C 568.58 -2.84532 -3.4837 0
M  V30 5474 C 569.899 -0.925486 -4.30259 0
M  V30 5475 H 567.018 -0.291659 -0.676834 0
M  V30 5476 H 569.66 -1.332 -1.35491 0
M  V30 5477 H 567.81 -0.854916 -3.78977 0
M  V30 5478 H 569.482 -3.3818 -3.13739 0
M  V30 5479 H 567.725 -3.22699 -2.8991 0
M  V30 5480 H 568.396 -3.15259 -4.53118 0
M  V30 5481 H 570.872 -1.3163 -3.94731 0
M  V30 5482 H 569.748 -1.3094 -5.33053 0
M  V30 5483 H 570.009 0.168525 -4.41779 0
M  V30 5484 N 569.068 1.32177 -0.85831 0
M  V30 5485 C 570.345 1.91781 -0.384624 0
M  V30 5486 C 570.725 1.78171 1.13217 0
M  V30 5487 O 570.073 1.18209 1.95548 0
M  V30 5488 C 570.283 3.38414 -0.853047 0
M  V30 5489 C 571.631 4.15542 -0.872359 0
M  V30 5490 O 572.655 3.47148 -0.797926 0
M  V30 5491 O 571.514 5.37678 -0.978009 0
M  V30 5492 H 568.608 0.819259 -0.112886 0
M  V30 5493 H 571.154 1.40923 -0.945453 0
M  V30 5494 H 569.926 3.4228 -1.89632 0
M  V30 5495 H 569.549 3.96683 -0.269874 0
M  V30 5496 N 570.547 0.616602 1.45037 0
M  V30 5497 C 571.775 0.121968 2.0654 0
M  V30 5498 C 572.19 -1.19743 1.45969 0
M  V30 5499 O 571.547 -1.73133 0.577168 0
M  V30 5500 C 571.598 -0.0145171 3.61497 0
M  V30 5501 O 571.319 1.25269 4.19809 0
M  V30 5502 C 572.82 -0.539555 4.40004 0
M  V30 5503 H 570.04 0.0729837 0.667019 0
M  V30 5504 H 572.584 0.846891 1.8614 0
M  V30 5505 H 570.739 -0.689809 3.81209 0
M  V30 5506 H 571.153 1.08816 5.13088 0
M  V30 5507 H 572.627 -0.584112 5.48901 0
M  V30 5508 H 573.104 -1.56368 4.10421 0
M  V30 5509 H 573.71 0.101995 4.25178 0
M  V30 5510 N 572.025 -1.5352 0.356285 0
M  V30 5511 C 572.988 -2.24071 -0.482182 0
M  V30 5512 C 573.988 -1.24531 -1.01729 0
M  V30 5513 O 575.178 -1.48876 -0.904513 0
M  V30 5514 C 572.31 -2.97025 -1.67299 0
M  V30 5515 H 573.503 -2.99596 0.135031 0
M  V30 5516 H 571.056 -1.55928 0.107825 0
M  V30 5517 H 571.791 -2.25719 -2.32855 0
M  V30 5518 H 571.576 -3.7005 -1.29636 0
M  V30 5519 H 573.066 -3.50683 -2.26741 0
M  V30 5520 N 573.503 -0.0852151 -1.57369 0
M  V30 5521 C 574.751 0.579658 -1.93609 0
M  V30 5522 C 575.072 1.69332 -0.967043 0
M  V30 5523 O 574.342 1.95892 -0.0174215 0
M  V30 5524 H 572.922 0.217113 -0.714752 0
M  V30 5525 H 575.584 -0.146226 -1.94351 0
M  V30 5526 H 574.68 0.996276 -2.95771 0
M  V30 5527 N 574.981 1.5647 0.188427 0
M  V30 5528 C 575.911 1.98101 1.23606 0
M  V30 5529 C 576.892 0.853961 1.47111 0
M  V30 5530 O 578.077 1.11879 1.58735 0
M  V30 5531 C 575.207 2.32624 2.57882 0
M  V30 5532 C 574.161 3.48129 2.48978 0
M  V30 5533 C 573.487 3.68347 3.87588 0
M  V30 5534 C 574.787 4.82112 2.00911 0
M  V30 5535 H 576.481 2.85864 0.890068 0
M  V30 5536 H 574.027 1.37532 0.426714 0
M  V30 5537 H 575.98 2.60343 3.3136 0
M  V30 5538 H 574.704 1.41751 2.94235 0
M  V30 5539 H 573.363 3.20511 1.77956 0
M  V30 5540 H 573.011 2.74793 4.21305 0
M  V30 5541 H 572.711 4.46055 3.82503 0
M  V30 5542 H 574.235 3.98449 4.62678 0
M  V30 5543 H 575.649 5.08819 2.64151 0
M  V30 5544 H 574.046 5.63337 2.06814 0
M  V30 5545 H 575.116 4.75249 0.96262 0
M  V30 5546 N 576.459 -0.456382 1.50847 0
M  V30 5547 C 577.705 -1.20914 1.62811 0
M  V30 5548 C 578.038 -1.91301 0.334304 0
M  V30 5549 O 577.313 -1.82775 -0.665098 0
M  V30 5550 C 577.596 -2.24122 2.81853 0
M  V30 5551 C 577.449 -1.57944 4.21158 0
M  V30 5552 C 578.768 -3.25295 2.96431 0
M  V30 5553 H 575.887 -0.438233 0.592554 0
M  V30 5554 H 578.529 -0.50091 1.83278 0
M  V30 5555 H 576.679 -2.84524 2.64534 0
M  V30 5556 H 578.351 -1.01025 4.50102 0
M  V30 5557 H 576.594 -0.882185 4.24735 0
M  V30 5558 H 577.265 -2.33014 5.00408 0
M  V30 5559 H 579.741 -2.7493 3.12335 0
M  V30 5560 H 578.617 -3.94822 3.81322 0
M  V30 5561 H 578.878 -3.90286 2.07676 0
M  V30 5562 N 577.937 -1.40673 -0.710563 0
M  V30 5563 C 578.867 -1.44095 -1.83736 0
M  V30 5564 C 579.848 -0.301286 -1.67411 0
M  V30 5565 O 581.033 -0.510618 -1.87367 0
M  V30 5566 C 578.163 -1.30773 -3.21738 0
M  V30 5567 C 577.117 -2.42395 -3.52745 0
M  V30 5568 C 576.443 -2.14147 -4.89944 0
M  V30 5569 C 577.743 -3.84738 -3.53234 0
M  V30 5570 H 579.437 -2.38396 -1.81129 0
M  V30 5571 H 576.983 -1.14746 -0.870017 0
M  V30 5572 H 578.936 -1.31783 -4.00264 0
M  V30 5573 H 577.66 -0.329507 -3.24934 0
M  V30 5574 H 576.319 -2.40643 -2.76562 0
M  V30 5575 H 575.967 -1.14703 -4.89747 0
M  V30 5576 H 575.667 -2.88934 -5.11655 0
M  V30 5577 H 577.191 -2.16848 -5.70797 0
M  V30 5578 H 578.605 -3.88286 -4.2179 0
M  V30 5579 H 577.002 -4.59085 -3.86473 0
M  V30 5580 H 578.072 -4.13962 -2.52514 0
M  V30 5581 N 579.415 0.9433 -1.26252 0
M  V30 5582 C 580.363 2.06302 -1.07434 0
M  V30 5583 C 581.357 1.694 -0.00189471 0
M  V30 5584 O 582.563 1.79302 -0.158408 0
M  V30 5585 H 578.938 0.675453 -0.330556 0
M  V30 5586 H 580.909 2.19326 -2.02333 0
M  V30 5587 C 579.658 3.40125 -0.721817 0
M  V30 5588 H 578.981 3.68996 -1.5389 0
M  V30 5589 H 580.421 4.19295 -0.629922 0
M  V30 5590 C 578.88 3.31993 0.572902 0
M  V30 5591 O 579.41 3.67945 1.61182 0
M  V30 5592 N 577.616 2.85099 0.562748 0
M  V30 5593 H 577.163 2.5604 -0.283092 0
M  V30 5594 H 577.121 2.80041 1.42915 0
M  V30 5595 N 580.893 1.08022 1.14757 0
M  V30 5596 C 582.17 0.720386 1.81851 0
M  V30 5597 C 582.55 -0.796375 1.95502 0
M  V30 5598 O 581.898 -1.71339 1.51179 0
M  V30 5599 C 582.108 1.44273 3.17783 0
M  V30 5600 C 583.456 1.59925 3.93331 0
M  V30 5601 O 584.48 1.40407 3.2736 0
M  V30 5602 O 583.339 1.92096 5.11626 0
M  V30 5603 H 580.433 0.257142 0.786007 0
M  V30 5604 H 582.979 1.18155 1.21809 0
M  V30 5605 H 581.751 2.47618 3.02987 0
M  V30 5606 H 581.374 0.97279 3.85516 0
M  V30 5607 N 582.371 -1.3172 0.865308 0
M  V30 5608 C 583.619 -1.96487 0.472995 0
M  V30 5609 C 583.94 -1.68761 -0.976975 0
M  V30 5610 O 583.21 -1.00051 -1.68424 0
M  V30 5611 H 581.79 -0.726947 0.171922 0
M  V30 5612 H 584.452 -1.60612 1.10407 0
M  V30 5613 H 583.548 -3.0574 0.62687 0
M  V30 5614 N 583.85 -0.624285 -1.44708 0
M  V30 5615 C 585.075 -0.131171 -2.06985 0
M  V30 5616 C 585.5 1.18234 -1.46295 0
M  V30 5617 O 584.858 1.72375 -0.561842 0
M  V30 5618 C 584.906 -0.0226724 -3.60593 0
M  V30 5619 O 584.01 1.02314 -3.99507 0
M  V30 5620 H 583.351 -0.0816556 -0.65896 0
M  V30 5621 H 585.88 -0.859027 -1.85693 0
M  V30 5622 H 585.891 0.170138 -4.07645 0
M  V30 5623 H 584.566 -0.981685 -4.04148 0
M  V30 5624 H 583.143 0.805452 -3.64097 0
M  V30 5625 N 585.328 1.53329 -0.364422 0
M  V30 5626 C 586.576 2.00842 0.225189 0
M  V30 5627 C 586.897 1.25345 1.49378 0
M  V30 5628 O 586.167 0.366396 1.92443 0
M  V30 5629 H 584.747 0.742009 0.0862027 0
M  V30 5630 H 587.409 1.8863 -0.490389 0
M  V30 5631 H 586.505 3.08795 0.452987 0
M  V30 5632 N 586.806 0.0935595 1.57322 0
M  V30 5633 C 587.736 -0.863062 2.16964 0
M  V30 5634 C 588.717 -1.29528 1.10256 0
M  V30 5635 O 589.902 -1.36245 1.38387 0
M  V30 5636 C 587.032 -2.12276 2.74875 0
M  V30 5637 C 585.986 -1.82921 3.86942 0
M  V30 5638 C 585.312 -3.15707 4.31548 0
M  V30 5639 C 586.612 -1.11737 5.10208 0
M  V30 5640 H 588.306 -0.366145 2.97153 0
M  V30 5641 H 585.852 -0.174673 1.42937 0
M  V30 5642 H 587.805 -2.79634 3.1525 0
M  V30 5643 H 586.529 -2.64248 1.91938 0
M  V30 5644 H 585.188 -1.17961 3.47103 0
M  V30 5645 H 584.836 -3.65563 3.45504 0
M  V30 5646 H 584.536 -2.96849 5.07104 0
M  V30 5647 H 586.06 -3.84226 4.74555 0
M  V30 5648 H 587.474 -1.69203 5.47762 0
M  V30 5649 H 585.871 -1.03064 5.91183 0
M  V30 5650 H 586.941 -0.0998818 4.84797 0
M  V30 5651 N 588.284 -1.56567 -0.180126 0
M  V30 5652 C 589.509 -1.85975 -0.918041 0
M  V30 5653 C 589.934 -0.678888 -1.75422 0
M  V30 5654 O 589.292 0.372168 -1.77439 0
M  V30 5655 C 589.34 -3.13731 -1.77779 0
M  V30 5656 O 588.444 -2.95335 -2.87838 0
M  V30 5657 H 587.785 -0.61196 -0.257683 0
M  V30 5658 H 590.315 -2.03798 -0.180923 0
M  V30 5659 H 590.325 -3.4491 -2.17948 0
M  V30 5660 H 589 -3.99293 -1.16352 0
M  V30 5661 H 587.577 -2.7549 -2.51316 0
M  V30 5662 N 589.762 0.448376 -1.51087 0
M  V30 5663 C 591.178 0.783984 -1.39017 0
M  V30 5664 C 591.378 1.96087 -0.463904 0
M  V30 5665 O 590.434 2.52357 0.0850534 0
M  V30 5666 C 591.747 1.07471 -2.80839 0
M  V30 5667 C 593.295 1.17981 -2.89913 0
M  V30 5668 C 593.77 1.50354 -4.32617 0
M  V30 5669 N 595.261 1.57301 -4.35673 0
M  V30 5670 C 595.996 1.839 -5.4311 0
M  V30 5671 N 595.492 2.08365 -6.60724 0
M  V30 5672 N 597.285 1.8559 -5.30578 0
M  V30 5673 H 589.436 -0.326881 -2.0987 0
M  V30 5674 H 591.699 -0.0838006 -0.944289 0
M  V30 5675 H 591.405 0.282768 -3.50561 0
M  V30 5676 H 591.279 2.00519 -3.19487 0
M  V30 5677 H 593.666 1.9624 -2.20395 0
M  V30 5678 H 593.747 0.228603 -2.54776 0
M  V30 5679 H 593.391 0.726273 -5.0268 0
M  V30 5680 H 593.321 2.46663 -4.65258 0
M  V30 5681 H 595.812 1.40342 -3.50874 0
M  V30 5682 H 596.125 2.27999 -7.38401 0
M  V30 5683 H 594.47 2.0571 -6.63859 0
M  V30 5684 H 597.661 1.65989 -4.37682 0
M  V30 5685 H 597.834 2.05983 -6.1439 0
M  V30 5686 N 591.24 1.41047 0.703093 0
M  V30 5687 C 592.488 1.39723 1.4602 0
M  V30 5688 C 592.809 0.00461257 1.94999 0
M  V30 5689 O 592.079 -0.952292 1.71196 0
M  V30 5690 H 590.659 0.514281 0.541779 0
M  V30 5691 H 593.321 1.76217 0.832678 0
M  V30 5692 H 592.417 2.07982 2.32701 0
M  V30 5693 N 592.718 -0.936591 1.26751 0
M  V30 5694 C 593.666 -2.0573 1.08527 0
M  V30 5695 C 594.66 -1.69397 0.0108784 0
M  V30 5696 O 595.866 -1.79215 0.167915 0
M  V30 5697 H 592.241 -0.673691 0.334133 0
M  V30 5698 H 594.212 -2.1825 2.03493 0
M  V30 5699 C 592.961 -3.39738 0.739845 0
M  V30 5700 H 592.284 -3.68174 1.55845 0
M  V30 5701 H 593.724 -4.18955 0.652149 0
M  V30 5702 C 592.183 -3.32292 -0.555288 0
M  V30 5703 O 592.713 -3.68794 -1.59229 0
M  V30 5704 N 590.919 -2.85394 -0.54762 0
M  V30 5705 H 590.466 -2.55886 0.296667 0
M  V30 5706 H 590.424 -2.80795 -1.41427 0
M  V30 5707 N 594.196 -1.08629 -1.14182 0
M  V30 5708 C 595.126 -0.740003 -2.21464 0
M  V30 5709 C 596.107 0.278591 -1.67803 0
M  V30 5710 O 597.292 0.148461 -1.93632 0
M  V30 5711 C 594.422 -0.150952 -3.46972 0
M  V30 5712 C 593.376 -1.09815 -4.13672 0
M  V30 5713 C 592.702 -0.3712 -5.3341 0
M  V30 5714 C 594.002 -2.43722 -4.61949 0
M  V30 5715 H 595.696 -1.63697 -2.50686 0
M  V30 5716 H 593.242 -0.788526 -1.20492 0
M  V30 5717 H 595.195 0.103325 -4.21273 0
M  V30 5718 H 593.919 0.781164 -3.1712 0
M  V30 5719 H 592.578 -1.33756 -3.41328 0
M  V30 5720 H 592.226 0.564792 -4.99819 0
M  V30 5721 H 591.926 -1.00267 -5.78982 0
M  V30 5722 H 593.45 -0.12503 -6.10472 0
M  V30 5723 H 594.864 -2.24034 -5.27714 0
M  V30 5724 H 593.261 -3.02582 -5.18232 0
M  V30 5725 H 594.331 -3.05082 -3.76899 0
M  V30 5726 N 595.674 1.31259 -0.872281 0
M  V30 5727 C 596.92 1.96913 -0.485083 0
M  V30 5728 C 597.253 1.68774 0.960667 0
M  V30 5729 O 596.528 0.985495 1.67685 0
M  V30 5730 C 596.811 3.52299 -0.745502 0
M  V30 5731 C 596.664 3.90002 -2.24095 0
M  V30 5732 C 597.983 4.39582 -0.213516 0
M  V30 5733 H 595.102 0.715252 -0.177716 0
M  V30 5734 H 597.744 1.55347 -1.09395 0
M  V30 5735 H 595.894 3.87835 -0.227276 0
M  V30 5736 H 597.566 3.64555 -2.82661 0
M  V30 5737 H 595.809 3.38526 -2.71261 0
M  V30 5738 H 596.48 4.98352 -2.37381 0
M  V30 5739 H 598.956 4.10882 -0.656902 0
M  V30 5740 H 597.832 5.47251 -0.42516 0
M  V30 5741 H 598.093 4.33158 0.884666 0
M  V30 5742 N 597.152 0.631951 1.44375 0
M  V30 5743 C 598.38 0.143867 2.06399 0
M  V30 5744 C 598.795 -1.18188 1.47231 0
M  V30 5745 O 598.152 -1.72511 0.595498 0
M  V30 5746 C 598.203 0.0238253 3.61492 0
M  V30 5747 O 597.924 1.29715 4.18456 0
M  V30 5748 C 599.425 -0.492856 4.40552 0
M  V30 5749 H 596.645 0.0800542 0.666207 0
M  V30 5750 H 599.189 0.866586 1.85231 0
M  V30 5751 H 597.344 -0.649338 3.81919 0
M  V30 5752 H 597.758 1.14252 5.11905 0
M  V30 5753 H 599.232 -0.525861 5.49489 0
M  V30 5754 H 599.709 -1.52006 4.12057 0
M  V30 5755 H 600.315 0.147085 4.25046 0
M  V30 5756 N 598.631 -1.53133 0.372548 0
M  V30 5757 C 599.594 -2.24569 -0.458389 0
M  V30 5758 C 600.594 -1.25603 -1.00402 0
M  V30 5759 O 601.784 -1.49827 -0.888672 0
M  V30 5760 C 598.916 -2.98783 -1.6414 0
M  V30 5761 H 600.109 -2.99436 0.166799 0
M  V30 5762 H 597.662 -1.55805 0.124357 0
M  V30 5763 H 598.397 -2.28176 -2.30448 0
M  V30 5764 H 598.182 -3.71404 -1.25704 0
M  V30 5765 H 599.672 -3.53068 -2.23008 0
M  V30 5766 N 600.109 -0.101901 -1.5727 0
M  V30 5767 C 601.386 0.602832 -1.86079 0
M  V30 5768 C 601.766 1.85912 -1 0
M  V30 5769 O 601.114 2.28379 -0.0742488 0
M  V30 5770 C 601.324 0.911694 -3.36881 0
M  V30 5771 C 602.672 1.2722 -4.05093 0
M  V30 5772 O 603.696 1.0025 -3.41802 0
M  V30 5773 O 602.555 1.7776 -5.16782 0
M  V30 5774 H 599.649 0.302366 -0.769743 0
M  V30 5775 H 602.195 -0.135113 -1.69161 0
M  V30 5776 H 600.967 0.0207256 -3.91295 0
M  V30 5777 H 600.59 1.70538 -3.59169 0
M  V30 5778 N 601.587 1.56661 0.17182 0
M  V30 5779 C 602.815 1.861 0.904115 0
M  V30 5780 C 603.23 0.687227 1.75848 0
M  V30 5781 O 602.587 -0.343671 1.79235 0
M  V30 5782 C 602.638 3.14568 1.78127 0
M  V30 5783 O 602.359 4.27422 0.961366 0
M  V30 5784 C 603.86 3.5735 2.62327 0
M  V30 5785 H 601.08 0.617445 0.262684 0
M  V30 5786 H 603.624 2.03775 0.172068 0
M  V30 5787 H 601.779 2.98721 2.46666 0
M  V30 5788 H 602.193 5.00725 1.56123 0
M  V30 5789 H 603.667 4.50144 3.1949 0
M  V30 5790 H 604.144 2.81445 3.37173 0
M  V30 5791 H 604.75 3.75807 1.99121 0
M  V30 5792 N 603.065 -0.440357 1.51323 0
M  V30 5793 C 604.311 -1.19181 1.64085 0
M  V30 5794 C 604.644 -1.90936 0.354575 0
M  V30 5795 O 603.919 -1.8347 -0.645675 0
M  V30 5796 C 604.202 -2.2112 2.84215 0
M  V30 5797 C 604.055 -1.53468 4.22809 0
M  V30 5798 C 605.374 -3.22133 2.99864 0
M  V30 5799 H 602.493 -0.431924 0.597169 0
M  V30 5800 H 605.135 -0.481443 1.83799 0
M  V30 5801 H 603.285 -2.81703 2.67537 0
M  V30 5802 H 604.957 -0.962455 4.51148 0
M  V30 5803 H 603.2 -0.837086 4.25647 0
M  V30 5804 H 603.871 -2.27694 5.02852 0
M  V30 5805 H 606.347 -2.71601 3.15233 0
M  V30 5806 H 605.223 -3.90756 3.85488 0
M  V30 5807 H 605.484 -3.88061 2.11804 0
M  V30 5808 N 604.543 -1.41418 -0.695603 0
M  V30 5809 C 605.789 -1.40982 -1.4578 0
M  V30 5810 C 606.122 -0.0187763 -1.94191 0
M  V30 5811 O 605.397 0.95346 -1.69527 0
M  V30 5812 C 605.68 -2.41657 -2.66972 0
M  V30 5813 C 605.533 -3.89869 -2.24327 0
M  V30 5814 C 606.852 -2.39589 -3.69168 0
M  V30 5815 H 603.971 -0.513405 -0.528757 0
M  V30 5816 H 606.613 -1.72693 -0.792275 0
M  V30 5817 H 604.763 -2.14746 -3.23754 0
M  V30 5818 H 606.435 -4.27683 -1.72872 0
M  V30 5819 H 604.678 -4.04737 -1.56111 0
M  V30 5820 H 605.349 -4.55857 -3.11285 0
M  V30 5821 H 607.825 -2.63471 -3.2206 0
M  V30 5822 H 606.701 -3.12044 -4.51575 0
M  V30 5823 H 606.962 -1.41447 -4.18862 0
M  V30 5824 N 606.021 0.929856 -1.27246 0
M  V30 5825 C 607.298 1.65544 -1.04186 0
M  V30 5826 C 607.678 2.06796 0.424097 0
M  V30 5827 O 607.026 1.80053 1.40688 0
M  V30 5828 C 607.236 2.85912 -2.00138 0
M  V30 5829 C 608.584 3.57305 -2.29387 0
M  V30 5830 O 609.608 2.96036 -1.98094 0
M  V30 5831 O 608.467 4.67688 -2.82719 0
M  V30 5832 H 605.561 0.725473 -0.397011 0
M  V30 5833 H 608.107 0.980583 -1.38501 0
M  V30 5834 H 606.879 2.52403 -2.99013 0
M  V30 5835 H 606.502 3.61118 -1.66371 0
M  V30 5836 N 607.499 1.09233 1.13605 0
M  V30 5837 C 608.429 0.751738 2.21068 0
M  V30 5838 C 609.41 -0.269688 1.67948 0
M  V30 5839 O 610.595 -0.13819 1.93708 0
M  V30 5840 C 607.725 0.16935 3.46887 0
M  V30 5841 C 606.679 1.12007 4.13084 0
M  V30 5842 C 606.005 0.399483 5.33206 0
M  V30 5843 C 607.305 2.46168 4.6065 0
M  V30 5844 H 608.999 1.65024 2.49815 0
M  V30 5845 H 606.545 0.794905 1.20072 0
M  V30 5846 H 608.498 -0.0809824 4.21322 0
M  V30 5847 H 607.222 -0.764335 3.1753 0
M  V30 5848 H 605.881 1.35564 3.40614 0
M  V30 5849 H 605.529 -0.538277 5.00112 0
M  V30 5850 H 605.229 1.03337 5.78442 0
M  V30 5851 H 606.753 0.157403 6.10397 0
M  V30 5852 H 608.167 2.26829 5.26518 0
M  V30 5853 H 606.564 3.05326 5.1662 0
M  V30 5854 H 607.634 3.07076 3.75276 0
M  V30 5855 N 608.977 -1.30795 0.87923 0
M  V30 5856 C 609.907 -2.30742 0.357796 0
M  V30 5857 C 610.888 -1.60747 -0.556283 0
M  V30 5858 O 612.073 -1.88393 -0.47135 0
M  V30 5859 C 609.203 -3.44583 -0.433555 0
M  V30 5860 C 608.157 -4.26235 0.388251 0
M  V30 5861 C 607.483 -5.32073 -0.529352 0
M  V30 5862 C 608.783 -4.96303 1.62729 0
M  V30 5863 H 610.477 -2.74605 1.19299 0
M  V30 5864 H 608.023 -1.32017 0.575104 0
M  V30 5865 H 609.976 -4.13563 -0.808934 0
M  V30 5866 H 608.7 -2.99511 -1.30234 0
M  V30 5867 H 607.359 -3.58936 0.745695 0
M  V30 5868 H 607.007 -4.83249 -1.39569 0
M  V30 5869 H 606.707 -5.87598 0.0166741 0
M  V30 5870 H 608.231 -6.0391 -0.901373 0
M  V30 5871 H 609.645 -5.5783 1.32283 0
M  V30 5872 H 608.042 -5.61666 2.11309 0
M  V30 5873 H 609.112 -4.22758 2.37494 0
M  V30 5874 N 610.455 -0.639598 -1.44038 0
M  V30 5875 C 611.703 -0.147188 -2.01563 0
M  V30 5876 C 612.024 1.2384 -1.50628 0
M  V30 5877 O 611.294 1.82452 -0.713316 0
M  V30 5878 H 609.874 -0.0514231 -0.745228 0
M  V30 5879 H 612.536 -0.828205 -1.76428 0
M  V30 5880 H 611.632 -0.121358 -3.11864 0
M  V30 5881 N 611.933 1.52934 -0.380664 0
M  V30 5882 C 612.865 2.23822 0.493581 0
M  V30 5883 C 613.878 1.25761 1.03383 0
M  V30 5884 O 615.067 1.5189 0.937633 0
M  V30 5885 C 612.167 2.9342 1.69582 0
M  V30 5886 C 611.34 4.18115 1.28445 0
M  V30 5887 C 610.399 4.70788 2.35042 0
M  V30 5888 O 609.425 5.34093 1.96807 0
M  V30 5889 N 610.627 4.49899 3.66839 0
M  V30 5890 H 613.392 2.99484 -0.11371 0
M  V30 5891 H 610.953 1.60577 -0.206587 0
M  V30 5892 H 612.945 3.2556 2.40401 0
M  V30 5893 H 611.515 2.21119 2.20965 0
M  V30 5894 H 610.735 3.92109 0.405503 0
M  V30 5895 H 612.023 4.99152 0.986132 0
M  V30 5896 H 611.421 3.99349 4.0067 0
M  V30 5897 H 609.978 4.86551 4.33718 0
M  V30 5898 N 613.412 0.11024 1.57214 0
M  V30 5899 C 614.375 -0.828808 2.1369 0
M  V30 5900 C 615.375 -1.20059 1.06969 0
M  V30 5901 O 616.565 -1.12754 1.32786 0
M  V30 5902 C 613.697 -2.11959 2.66994 0
M  V30 5903 H 614.89 -0.338146 2.97988 0
M  V30 5904 H 612.443 -0.138913 1.55681 0
M  V30 5905 H 613.178 -2.65476 1.8626 0
M  V30 5906 H 612.963 -1.86258 3.45037 0
M  V30 5907 H 614.453 -2.79105 3.10629 0
M  V30 5908 N 614.89 -1.56749 -0.16351 0
M  V30 5909 C 616.138 -1.82074 -0.87713 0
M  V30 5910 C 616.459 -0.688503 -1.82441 0
M  V30 5911 O 615.729 0.291085 -1.93725 0
M  V30 5912 H 614.309 -0.671677 -0.326893 0
M  V30 5913 H 616.971 -1.9423 -0.161459 0
M  V30 5914 H 616.067 -2.76407 -1.44934 0
M  V30 5915 N 616.368 0.432326 -1.51554 0
M  V30 5916 C 617.593 1.20824 -1.68571 0
M  V30 5917 C 618.018 1.84126 -0.384596 0
M  V30 5918 O 617.376 1.69025 0.655751 0
M  V30 5919 C 617.424 2.26429 -2.80646 0
M  V30 5920 O 616.528 3.32032 -2.44598 0
M  V30 5921 H 615.869 0.353765 -0.561913 0
M  V30 5922 H 618.399 0.509916 -1.98144 0
M  V30 5923 H 618.409 2.71133 -3.04878 0
M  V30 5924 H 617.084 1.79733 -3.75058 0
M  V30 5925 H 615.661 2.92769 -2.30956 0
M  V30 5926 N 617.846 1.41785 0.688094 0
M  V30 5927 C 618.809 1.43936 1.78368 0
M  V30 5928 C 619.809 0.328866 1.57401 0
M  V30 5929 O 620.999 0.589093 1.63937 0
M  V30 5930 C 618.131 1.25804 3.16838 0
M  V30 5931 H 619.324 2.41472 1.77852 0
M  V30 5932 H 616.877 1.28037 0.896448 0
M  V30 5933 H 617.612 0.291386 3.22988 0
M  V30 5934 H 617.397 2.06272 3.33458 0
M  V30 5935 H 618.887 1.30162 3.96797 0
M  V30 5936 N 619.324 -0.923095 1.27737 0
M  V30 5937 C 620.735 -1.48626 1.12993 0
M  V30 5938 C 621.086 -1.94142 -0.283439 0
M  V30 5939 O 620.211 -1.81605 -1.17681 0
M  V30 5940 C 620.806 -2.70117 2.04505 0
M  V30 5941 C 619.365 -3.22642 1.93853 0
M  V30 5942 C 618.512 -1.95368 1.96791 0
M  V30 5943 H 621.463 -0.736737 1.40563 0
M  V30 5944 H 621.484 -3.4506 1.60356 0
M  V30 5945 H 620.996 -2.36959 3.07363 0
M  V30 5946 H 619.097 -3.60549 0.939968 0
M  V30 5947 H 619.21 -3.88525 2.80331 0
M  V30 5948 H 617.574 -2.12061 1.41076 0
M  V30 5949 H 618.357 -1.64517 3.01312 0
M  V30 5950 N 620.802 -1.09834 -1.13024 0
M  V30 5951 C 622.048 -0.848072 -1.84876 0
M  V30 5952 C 622.403 0.619663 -1.82148 0
M  V30 5953 O 621.696 1.45067 -1.25164 0
M  V30 5954 C 621.89 -1.32263 -3.32026 0
M  V30 5955 C 621.719 -2.83497 -3.49084 0
M  V30 5956 C 620.489 -3.51425 -3.63082 0
M  V30 5957 C 622.687 -3.81623 -3.44773 0
M  V30 5958 N 620.669 -4.91042 -3.68443 0
M  V30 5959 C 622.04 -5.07217 -3.56555 0
M  V30 5960 C 624.095 -3.74419 -3.282 0
M  V30 5961 C 622.798 -6.26457 -3.53474 0
M  V30 5962 C 624.824 -4.93151 -3.26429 0
M  V30 5963 C 624.186 -6.1759 -3.38765 0
M  V30 5964 H 620.285 -0.363249 -0.692513 0
M  V30 5965 H 622.869 -1.39952 -1.35357 0
M  V30 5966 H 621.04 -0.79858 -3.80102 0
M  V30 5967 H 622.772 -1.01725 -3.91707 0
M  V30 5968 H 619.527 -3.0186 -3.64935 0
M  V30 5969 H 619.951 -5.63782 -3.74805 0
M  V30 5970 H 624.593 -2.79132 -3.17561 0
M  V30 5971 H 622.311 -7.22039 -3.62884 0
M  V30 5972 H 625.897 -4.8928 -3.14796 0
M  V30 5973 H 624.777 -7.07925 -3.37361 0
M  V30 5974 N 622.28 1.30327 -0.886154 0
M  V30 5975 C 623.243 2.26376 -0.358687 0
M  V30 5976 C 624.243 1.52845 0.499498 0
M  V30 5977 O 625.433 1.71483 0.306485 0
M  V30 5978 C 622.565 3.37379 0.488726 0
M  V30 5979 H 623.758 2.74547 -1.20681 0
M  V30 5980 H 621.311 1.41536 -0.663113 0
M  V30 5981 H 622.046 2.94526 1.35739 0
M  V30 5982 H 621.831 3.91897 -0.126003 0
M  V30 5983 H 623.321 4.08868 0.84952 0
M  V30 5984 N 623.758 0.647228 1.43697 0
M  V30 5985 C 624.69 -0.0866232 2.29036 0
M  V30 5986 C 625.703 -0.793051 1.42178 0
M  V30 5987 O 626.892 -0.651807 1.66174 0
M  V30 5988 C 623.992 -1.14552 3.18953 0
M  V30 5989 C 623.165 -0.518422 4.34317 0
M  V30 5990 C 622.224 -1.4734 5.05151 0
M  V30 5991 O 621.25 -0.984312 5.60625 0
M  V30 5992 N 622.452 -2.8075 5.08094 0
M  V30 5993 H 625.217 0.645834 2.92659 0
M  V30 5994 H 622.778 0.489567 1.54321 0
M  V30 5995 H 624.77 -1.78505 3.63205 0
M  V30 5996 H 623.34 -1.78001 2.56971 0
M  V30 5997 H 622.56 0.300079 3.93056 0
M  V30 5998 H 623.848 -0.080401 5.08736 0
M  V30 5999 H 623.246 -3.23052 4.64386 0
M  V30 6000 H 621.803 -3.40022 5.56083 0
M  V30 6001 N 625.236 -1.5273 0.388769 0
M  V30 6002 C 626.464 -2.05992 -0.193677 0
M  V30 6003 C 626.879 -1.26053 -1.40557 0
M  V30 6004 O 626.236 -0.307049 -1.79898 0
M  V30 6005 C 626.287 -3.57068 -0.564321 0
M  V30 6006 O 626.008 -4.3398 0.599422 0
M  V30 6007 C 627.509 -4.26674 -1.20269 0
M  V30 6008 H 624.729 -0.670358 -0.0293445 0
M  V30 6009 H 627.273 -1.96857 0.553844 0
M  V30 6010 H 625.428 -3.66277 -1.26174 0
M  V30 6011 H 625.842 -5.2367 0.294895 0
M  V30 6012 H 627.316 -5.33625 -1.4124 0
M  V30 6013 H 627.793 -3.81854 -2.16989 0
M  V30 6014 H 628.399 -4.2178 -0.546047 0
M  V30 6015 N 626.714 -0.118576 -1.57153 0
M  V30 6016 C 627.96 0.534078 -1.96263 0
M  V30 6017 C 628.315 1.64316 -1.0009 0
M  V30 6018 O 627.608 1.91575 -0.0308582 0
M  V30 6019 C 627.802 1.11303 -3.39627 0
M  V30 6020 C 627.631 0.0615624 -4.49658 0
M  V30 6021 C 626.401 -0.370103 -5.03943 0
M  V30 6022 C 628.599 -0.719249 -5.09246 0
M  V30 6023 N 626.581 -1.40738 -5.9755 0
M  V30 6024 C 627.952 -1.60774 -5.98792 0
M  V30 6025 C 630.007 -0.770183 -4.91907 0
M  V30 6026 C 628.71 -2.54272 -6.72858 0
M  V30 6027 C 630.736 -1.69288 -5.66653 0
M  V30 6028 C 630.098 -2.56894 -6.55885 0
M  V30 6029 H 626.197 0.165072 -0.764379 0
M  V30 6030 H 628.781 -0.206596 -1.93601 0
M  V30 6031 H 626.952 1.82342 -3.42937 0
M  V30 6032 H 628.684 1.72996 -3.65861 0
M  V30 6033 H 625.439 0.0222121 -4.73595 0
M  V30 6034 H 625.863 -1.92493 -6.49057 0
M  V30 6035 H 630.505 -0.106999 -4.22665 0
M  V30 6036 H 628.223 -3.21605 -7.41347 0
M  V30 6037 H 631.809 -1.73772 -5.55243 0
M  V30 6038 H 630.689 -3.27131 -7.1271 0
M  V30 6039 N 628.193 1.56834 0.155195 0
M  V30 6040 C 629.418 1.87412 0.888337 0
M  V30 6041 C 629.843 0.70671 1.74319 0
M  V30 6042 O 629.201 -0.343892 1.78009 0
M  V30 6043 C 629.249 3.1652 1.72765 0
M  V30 6044 O 628.353 2.99877 2.83103 0
M  V30 6045 H 627.694 0.615983 0.247914 0
M  V30 6046 H 630.224 2.04061 0.148478 0
M  V30 6047 H 630.234 3.48334 2.12433 0
M  V30 6048 H 628.909 4.01094 1.09985 0
M  V30 6049 H 627.486 2.79453 2.46902 0
M  V30 6050 N 629.671 -0.424282 1.51781 0
M  V30 6051 C 630.634 -1.49848 1.73431 0
M  V30 6052 C 631.634 -1.49016 0.604225 0
M  V30 6053 O 632.824 -1.50808 0.871935 0
M  V30 6054 C 629.956 -2.89332 1.80277 0
M  V30 6055 H 631.149 -1.3195 2.69312 0
M  V30 6056 H 628.702 -0.653809 1.41968 0
M  V30 6057 H 629.437 -3.12618 0.862568 0
M  V30 6058 H 629.222 -2.9134 2.62419 0
M  V30 6059 H 630.712 -3.67233 1.98821 0
M  V30 6060 N 631.149 -1.42148 -0.680565 0
M  V30 6061 C 632.374 -1.45901 -1.47403 0
M  V30 6062 C 632.799 -0.0700985 -1.87969 0
M  V30 6063 O 632.157 0.930145 -1.55621 0
M  V30 6064 C 632.205 -2.38661 -2.70321 0
M  V30 6065 O 631.309 -1.85399 -3.68376 0
M  V30 6066 H 630.65 -0.494565 -0.443059 0
M  V30 6067 H 633.18 -1.86774 -0.835251 0
M  V30 6068 H 633.19 -2.55046 -3.18458 0
M  V30 6069 H 631.865 -3.39571 -2.40134 0
M  V30 6070 H 630.442 -1.78541 -3.2738 0
M  V30 6071 N 632.627 0.916307 -1.28225 0
M  V30 6072 C 633.557 2.0352 -1.14464 0
M  V30 6073 C 634.538 1.70045 -0.0430844 0
M  V30 6074 O 635.723 1.92954 -0.219619 0
M  V30 6075 C 632.853 3.37889 -0.803027 0
M  V30 6076 C 631.807 3.85516 -1.85908 0
M  V30 6077 C 631.133 5.1682 -1.37116 0
M  V30 6078 C 632.433 4.07655 -3.26519 0
M  V30 6079 H 634.127 2.1529 -2.08064 0
M  V30 6080 H 631.673 1.03446 -1.00174 0
M  V30 6081 H 633.626 4.15654 -0.693537 0
M  V30 6082 H 632.35 3.26164 0.168674 0
M  V30 6083 H 631.009 3.09953 -1.95767 0
M  V30 6084 H 630.657 5.01497 -0.38859 0
M  V30 6085 H 630.357 5.49657 -2.07728 0
M  V30 6086 H 631.881 5.97143 -1.27484 0
M  V30 6087 H 633.295 4.75953 -3.19596 0
M  V30 6088 H 631.692 4.51818 -3.94943 0
M  V30 6089 H 632.762 3.12553 -3.70727 0
M  V30 6090 N 634.105 1.10431 1.1244 0
M  V30 6091 C 635.516 0.864439 1.65482 0
M  V30 6092 C 635.867 -0.60527 1.8663 0
M  V30 6093 O 634.992 -1.46492 1.59276 0
M  V30 6094 C 635.587 1.56267 3.0061 0
M  V30 6095 C 634.146 1.3695 3.50602 0
M  V30 6096 C 633.293 1.61209 2.25626 0
M  V30 6097 H 636.244 1.26203 0.962209 0
M  V30 6098 H 636.265 1.00166 3.67079 0
M  V30 6099 H 635.777 2.63231 2.85186 0
M  V30 6100 H 633.878 0.321481 3.71211 0
M  V30 6101 H 633.991 2.11143 4.30064 0
M  V30 6102 H 632.355 1.03482 2.32731 0
M  V30 6103 H 633.138 2.69425 2.12756 0
M  V30 6104 N 635.583 -1.29855 0.893053 0
M  V30 6105 C 636.829 -1.96116 0.516349 0
M  V30 6106 C 637.162 -1.70281 -0.933695 0
M  V30 6107 O 636.437 -1.01205 -1.66096 0
M  V30 6108 C 636.72 -3.51068 0.801455 0
M  V30 6109 C 636.573 -3.86387 2.30272 0
M  V30 6110 C 637.892 -4.39186 0.283423 0
M  V30 6111 H 635.011 -0.712335 0.189072 0
M  V30 6112 H 637.653 -1.53587 1.11852 0
M  V30 6113 H 635.803 -3.87424 0.288949 0
M  V30 6114 H 637.475 -3.60012 2.88425 0
M  V30 6115 H 635.718 -3.34167 2.76613 0
M  V30 6116 H 636.389 -4.94512 2.45279 0
M  V30 6117 H 638.865 -4.09785 0.722187 0
M  V30 6118 H 637.741 -5.46505 0.512169 0
M  V30 6119 H 638.002 -4.34511 -0.815643 0
M  V30 6120 N 637.061 -0.65484 -1.43351 0
M  V30 6121 C 638.024 0.0263562 -2.29185 0
M  V30 6122 C 639.024 0.748951 -1.42293 0
M  V30 6123 O 640.214 0.589957 -1.63906 0
M  V30 6124 C 637.346 1.04806 -3.2439 0
M  V30 6125 H 638.539 -0.728883 -2.90908 0
M  V30 6126 H 636.092 -0.416149 -1.50658 0
M  V30 6127 H 636.827 1.83247 -2.67565 0
M  V30 6128 H 636.612 0.533554 -3.88453 0
M  V30 6129 H 638.102 1.52372 -3.88809 0
M  V30 6130 N 638.539 1.52521 -0.396863 0
M  V30 6131 C 639.787 2.01274 0.182536 0
M  V30 6132 C 640.108 1.28485 1.46685 0
M  V30 6133 O 639.378 0.407134 1.91623 0
M  V30 6134 H 637.958 0.743671 0.0704442 0
M  V30 6135 H 640.62 1.87547 -0.530289 0
M  V30 6136 H 639.716 3.09687 0.387385 0
M  V30 6137 N 640.017 0.126909 1.57088 0
M  V30 6138 C 640.927 -0.833867 2.1928 0
M  V30 6139 C 641.943 -1.2868 1.17122 0
M  V30 6140 O 643.119 -1.34815 1.49622 0
M  V30 6141 C 640.184 -2.0632 2.78627 0
M  V30 6142 C 639.245 -1.66143 3.95847 0
M  V30 6143 C 638.478 -2.83217 4.52354 0
M  V30 6144 O 638.701 -3.98868 4.0775 0
M  V30 6145 O 637.635 -2.59846 5.42922 0
M  V30 6146 H 641.461 -0.334564 3.01852 0
M  V30 6147 H 639.046 -0.0991091 1.49071 0
M  V30 6148 H 640.928 -2.78304 3.16425 0
M  V30 6149 H 639.603 -2.55242 1.99082 0
M  V30 6150 H 638.51 -0.912435 3.62802 0
M  V30 6151 H 639.843 -1.21957 4.76852 0
M  V30 6152 N 641.495 -1.56914 -0.146875 0
M  V30 6153 C 642.72 -1.87881 -0.878386 0
M  V30 6154 C 643.145 -0.715945 -1.73942 0
M  V30 6155 O 642.503 0.334447 -1.78189 0
M  V30 6156 C 642.551 -3.17431 -1.71084 0
M  V30 6157 O 641.655 -3.01374 -2.81509 0
M  V30 6158 H 640.996 -0.617289 -0.244644 0
M  V30 6159 H 643.526 -2.04136 -0.137654 0
M  V30 6160 H 643.536 -3.49455 -2.10582 0
M  V30 6161 H 642.211 -4.01671 -1.07856 0
M  V30 6162 H 640.788 -2.80758 -2.45416 0
M  V30 6163 N 642.974 0.416227 -1.52004 0
M  V30 6164 C 644.251 1.17637 -1.56272 0
M  V30 6165 C 644.631 2.08352 -0.339493 0
M  V30 6166 O 643.979 2.1833 0.674124 0
M  V30 6167 C 644.189 1.95986 -2.88774 0
M  V30 6168 C 645.537 2.52299 -3.41512 0
M  V30 6169 O 646.561 2.06174 -2.90467 0
M  V30 6170 O 645.42 3.3648 -4.30631 0
M  V30 6171 H 642.514 0.536726 -0.629169 0
M  V30 6172 H 645.06 0.423583 -1.64329 0
M  V30 6173 H 643.832 1.29487 -3.69254 0
M  V30 6174 H 643.455 2.78285 -2.83978 0
M  V30 6175 N 644.452 1.42507 0.673017 0
M  V30 6176 C 645.863 1.38347 1.25367 0
M  V30 6177 C 646.214 0.0776327 1.96046 0
M  V30 6178 O 645.339 -0.823571 2.00116 0
M  V30 6179 C 645.934 2.506 2.28002 0
M  V30 6180 C 644.493 2.49767 2.81591 0
M  V30 6181 C 643.64 2.293 1.55938 0
M  V30 6182 H 646.591 1.51695 0.466288 0
M  V30 6183 H 646.612 2.20953 3.09774 0
M  V30 6184 H 646.124 3.45627 1.76532 0
M  V30 6185 H 644.225 1.58563 3.37177 0
M  V30 6186 H 644.338 3.46867 3.30485 0
M  V30 6187 H 642.702 1.77594 1.82572 0
M  V30 6188 H 643.485 3.26385 1.06431 0
M  V30 6189 N 645.93 -0.909495 1.28709 0
M  V30 6190 C 647.177 -1.65905 1.16111 0
M  V30 6191 C 647.505 -1.92334 -0.289436 0
M  V30 6192 O 646.76 -1.52495 -1.22653 0
M  V30 6193 C 647.059 -3.02117 1.90945 0
M  V30 6194 C 646.725 -2.95332 3.40719 0
M  V30 6195 C 645.387 -2.93189 3.81567 0
M  V30 6196 C 647.739 -2.85264 4.36204 0
M  V30 6197 C 645.067 -2.78784 5.16233 0
M  V30 6198 C 647.419 -2.724 5.70948 0
M  V30 6199 C 646.083 -2.68617 6.11066 0
M  V30 6200 H 645.353 -0.60709 0.42488 0
M  V30 6201 H 648 -1.05932 1.59533 0
M  V30 6202 H 646.305 -3.65901 1.40085 0
M  V30 6203 H 648.002 -3.59026 1.7861 0
M  V30 6204 H 644.592 -2.97797 3.08245 0
M  V30 6205 H 648.776 -2.86005 4.05605 0
M  V30 6206 H 644.032 -2.74254 5.46438 0
M  V30 6207 H 648.206 -2.63579 6.44592 0
M  V30 6208 H 645.833 -2.57213 7.15364 0
M  V30 6209 N 647.408 -1.11026 -1.11852 0
M  V30 6210 C 648.654 -0.857729 -1.83768 0
M  V30 6211 C 648.987 0.615143 -1.842 0
M  V30 6212 O 648.262 1.45391 -1.29196 0
M  V30 6213 C 648.545 -1.41453 -3.31154 0
M  V30 6214 C 648.398 -2.95471 -3.39142 0
M  V30 6215 C 649.717 -1.0619 -4.27097 0
M  V30 6216 H 646.836 -0.313044 -0.667212 0
M  V30 6217 H 649.478 -1.37443 -1.31185 0
M  V30 6218 H 647.628 -0.975052 -3.76065 0
M  V30 6219 H 649.3 -3.4799 -3.02821 0
M  V30 6220 H 647.543 -3.31759 -2.79497 0
M  V30 6221 H 648.214 -3.29515 -4.42859 0
M  V30 6222 H 650.69 -1.44122 -3.90344 0
M  V30 6223 H 649.566 -1.47832 -5.28618 0
M  V30 6224 H 649.827 0.0278912 -4.42091 0
M  V30 6225 N 648.886 1.2938 -0.899927 0
M  V30 6226 C 650.134 1.95164 -0.524924 0
M  V30 6227 C 650.455 1.71292 0.931888 0
M  V30 6228 O 649.725 1.04481 1.65712 0
M  V30 6229 H 648.305 0.722133 -0.191135 0
M  V30 6230 H 650.967 1.57628 -1.14627 0
M  V30 6231 H 650.063 3.0397 -0.707711 0
M  V30 6232 N 650.364 0.662433 1.43002 0
M  V30 6233 C 651.612 0.179237 2.01304 0
M  V30 6234 C 651.933 -1.21428 1.52579 0
M  V30 6235 O 651.203 -1.81294 0.742252 0
M  V30 6236 H 649.783 0.0632725 0.744316 0
M  V30 6237 H 652.445 0.856169 1.75088 0
M  V30 6238 H 651.541 0.170957 3.11631 0
M  V30 6239 N 651.842 -1.52309 0.404946 0
M  V30 6240 C 653.07 -2.06185 -0.171818 0
M  V30 6241 C 653.485 -1.27536 -1.39212 0
M  V30 6242 O 652.842 -0.326112 -1.79563 0
M  V30 6243 C 652.893 -3.57647 -0.526417 0
M  V30 6244 O 652.614 -4.3332 0.645417 0
M  V30 6245 C 654.115 -4.27925 -1.15736 0
M  V30 6246 H 651.335 -0.670632 -0.0222328 0
M  V30 6247 H 653.879 -1.96259 0.574692 0
M  V30 6248 H 652.034 -3.67595 -1.22282 0
M  V30 6249 H 652.448 -5.23328 0.35042 0
M  V30 6250 H 653.922 -5.35093 -1.35572 0
M  V30 6251 H 654.399 -3.84134 -2.12926 0
M  V30 6252 H 655.005 -4.22335 -0.501281 0
M  V30 6253 N 653.32 -0.135238 -1.57019 0
M  V30 6254 C 654.25 0.805235 -2.19176 0
M  V30 6255 C 655.231 1.2656 -1.13651 0
M  V30 6256 O 656.416 1.32528 -1.4195 0
M  V30 6257 C 653.546 2.04914 -2.80406 0
M  V30 6258 C 652.5 1.72598 -3.91655 0
M  V30 6259 C 651.826 3.04154 -4.39766 0
M  V30 6260 C 653.126 0.981709 -5.12991 0
M  V30 6261 H 654.82 0.287232 -2.98019 0
M  V30 6262 H 652.366 0.136714 -1.4335 0
M  V30 6263 H 654.319 2.71178 -3.22553 0
M  V30 6264 H 653.043 2.59067 -1.98877 0
M  V30 6265 H 651.702 1.08717 -3.50109 0
M  V30 6266 H 651.35 3.56274 -3.55075 0
M  V30 6267 H 651.05 2.83299 -5.14796 0
M  V30 6268 H 652.574 3.71509 -4.84576 0
M  V30 6269 H 653.988 1.5462 -5.52056 0
M  V30 6270 H 652.385 0.873533 -5.93708 0
M  V30 6271 H 653.455 -0.0286887 -4.84892 0
M  V30 6272 N 654.798 1.5699 0.138552 0
M  V30 6273 C 655.761 1.97984 1.15478 0
M  V30 6274 C 656.761 0.867416 1.35398 0
M  V30 6275 O 657.951 1.13387 1.32246 0
M  V30 6276 C 655.083 2.3031 2.51337 0
M  V30 6277 H 656.276 2.88953 0.802896 0
M  V30 6278 H 653.829 1.51555 0.382189 0
M  V30 6279 H 654.564 1.42159 2.91481 0
M  V30 6280 H 654.349 3.11425 2.38237 0
M  V30 6281 H 655.839 2.62834 3.24512 0
M  V30 6282 N 656.276 -0.40816 1.52223 0
M  V30 6283 C 657.224 -1.51788 1.76248 0
M  V30 6284 C 658.218 -1.57264 0.629638 0
M  V30 6285 O 659.424 -1.60659 0.811704 0
M  V30 6286 H 655.799 -0.504823 0.557367 0
M  V30 6287 H 657.77 -1.2871 2.69214 0
M  V30 6288 C 656.519 -2.89145 1.93107 0
M  V30 6289 H 655.842 -2.85674 2.79697 0
M  V30 6290 H 657.282 -3.66082 2.13916 0
M  V30 6291 C 655.741 -3.29581 0.698431 0
M  V30 6292 O 656.271 -4.01479 -0.133238 0
M  V30 6293 N 654.477 -2.85651 0.53405 0
M  V30 6294 H 654.024 -2.2731 1.21194 0
M  V30 6295 H 653.982 -3.13065 -0.289387 0
M  V30 6296 N 657.755 -1.42862 -0.66545 0
M  V30 6297 C 659.171 -1.25993 -0.979687 0
M  V30 6298 C 659.371 -0.170831 -2.00775 0
M  V30 6299 O 658.427 0.454827 -2.4837 0
M  V30 6300 C 659.74 -2.62005 -1.47559 0
M  V30 6301 C 661.288 -2.69437 -1.59288 0
M  V30 6302 C 661.763 -4.05838 -2.12272 0
M  V30 6303 N 663.254 -4.0784 -2.19592 0
M  V30 6304 C 663.989 -5.10205 -2.61684 0
M  V30 6305 N 663.485 -6.22949 -3.03161 0
M  V30 6306 N 665.278 -4.9756 -2.61516 0
M  V30 6307 H 657.429 -2.12395 0.0150493 0
M  V30 6308 H 659.692 -0.946355 -0.0558187 0
M  V30 6309 H 659.398 -3.42605 -0.794654 0
M  V30 6310 H 659.272 -2.86566 -2.45275 0
M  V30 6311 H 661.659 -1.89178 -2.26486 0
M  V30 6312 H 661.74 -2.48655 -0.600374 0
M  V30 6313 H 661.384 -4.86559 -1.4568 0
M  V30 6314 H 661.314 -4.23977 -3.12331 0
M  V30 6315 H 663.805 -3.26452 -1.90361 0
M  V30 6316 H 664.118 -6.96899 -3.33993 0
M  V30 6317 H 662.463 -6.2644 -3.00995 0
M  V30 6318 H 665.654 -4.08551 -2.28481 0
M  V30 6319 H 665.827 -5.77468 -2.93999 0
M  V30 6320 N 659.233 0.902656 -1.29189 0
M  V30 6321 C 660.166 2.00816 -1.0839 0
M  V30 6322 C 661.144 1.626 0.00335266 0
M  V30 6323 O 662.328 1.87928 -0.146765 0
M  V30 6324 C 659.455 3.32415 -0.649435 0
M  V30 6325 C 658.501 3.89617 -1.73496 0
M  V30 6326 S 659.334 4.19091 -3.33351 0
M  V30 6327 C 660.49 5.53736 -2.91766 0
M  V30 6328 H 660.723 2.18151 -2.01984 0
M  V30 6329 H 658.256 1.0489 -1.13303 0
M  V30 6330 H 660.214 4.08492 -0.405479 0
M  V30 6331 H 658.875 3.12964 0.266857 0
M  V30 6332 H 658.068 4.84658 -1.38284 0
M  V30 6333 H 657.67 3.20217 -1.93229 0
M  V30 6334 H 659.962 6.34085 -2.38627 0
M  V30 6335 H 660.905 5.93871 -3.85647 0
M  V30 6336 H 661.313 5.15453 -2.30149 0
M  V30 6337 N 660.711 1.11618 1.11262 0
M  V30 6338 C 662.127 0.850468 1.35053 0
M  V30 6339 C 662.327 -0.523868 1.94571 0
M  V30 6340 O 661.383 -1.2743 2.17986 0
M  V30 6341 C 662.696 1.96005 2.28041 0
M  V30 6342 C 664.244 1.98993 2.416 0
M  V30 6343 C 664.719 3.0916 3.37911 0
M  V30 6344 N 666.21 3.08547 3.45475 0
M  V30 6345 C 666.945 3.9043 4.19943 0
M  V30 6346 N 666.441 4.8228 4.97371 0
M  V30 6347 N 668.234 3.786 4.15474 0
M  V30 6348 H 660.385 2.00184 0.709932 0
M  V30 6349 H 662.648 0.870635 0.375099 0
M  V30 6350 H 662.354 2.9499 1.91503 0
M  V30 6351 H 662.228 1.85782 3.28275 0
M  V30 6352 H 664.615 1.00633 2.77411 0
M  V30 6353 H 664.696 2.13292 1.4121 0
M  V30 6354 H 664.34 4.07748 3.02827 0
M  V30 6355 H 664.27 2.92102 4.3816 0
M  V30 6356 H 666.761 2.42 2.90249 0
M  V30 6357 H 667.074 5.41289 5.51567 0
M  V30 6358 H 665.419 4.863 4.96525 0
M  V30 6359 H 668.61 3.06185 3.54074 0
M  V30 6360 H 668.783 4.42647 4.73253 0
M  V30 6361 N 662.189 -1.289 0.906776 0
M  V30 6362 C 663.437 -1.94883 0.535266 0
M  V30 6363 C 663.758 -1.71784 -0.922791 0
M  V30 6364 O 663.028 -1.05359 -1.65156 0
M  V30 6365 H 661.608 -0.721109 0.194962 0
M  V30 6366 H 664.27 -1.57018 1.15461 0
M  V30 6367 H 663.366 -3.03591 0.723821 0
M  V30 6368 N 663.667 -0.670007 -1.42649 0
M  V30 6369 C 664.895 -0.19854 -2.05945 0
M  V30 6370 C 665.31 1.14243 -1.50313 0
M  V30 6371 O 664.667 1.70872 -0.641027 0
M  V30 6372 C 664.718 -0.11966 -3.61302 0
M  V30 6373 O 664.439 -1.40764 -4.1487 0
M  V30 6374 C 665.94 0.375878 -4.41704 0
M  V30 6375 H 663.16 -0.0976894 -0.663851 0
M  V30 6376 H 665.704 -0.915392 -1.82868 0
M  V30 6377 H 663.859 0.547851 -3.83507 0
M  V30 6378 H 664.273 -1.27784 -5.08696 0
M  V30 6379 H 665.747 0.379988 -5.50691 0
M  V30 6380 H 666.224 1.41028 -4.15942 0
M  V30 6381 H 666.83 -0.259727 -4.24506 0
M  V30 6382 N 665.145 1.52092 -0.413018 0
M  V30 6383 C 666.108 2.25706 0.398687 0
M  V30 6384 C 667.108 1.28221 0.970368 0
M  V30 6385 O 668.298 1.52131 0.848635 0
M  V30 6386 C 665.43 3.03029 1.5616 0
M  V30 6387 H 666.623 2.98888 -0.246131 0
M  V30 6388 H 664.176 1.5542 -0.165622 0
M  V30 6389 H 664.911 2.34205 2.24317 0
M  V30 6390 H 664.696 3.74606 1.15812 0
M  V30 6391 H 666.186 3.58857 2.13569 0
M  V30 6392 N 666.623 0.143563 1.56945 0
M  V30 6393 C 667.586 -0.783295 2.154 0
M  V30 6394 C 668.586 -1.17763 1.09492 0
M  V30 6395 O 669.776 -1.09912 1.35148 0
M  V30 6396 C 666.908 -2.06248 2.7143 0
M  V30 6397 H 668.101 -0.274863 2.98638 0
M  V30 6398 H 665.654 -0.105859 1.55941 0
M  V30 6399 H 666.389 -2.61466 1.91849 0
M  V30 6400 H 666.174 -1.78897 3.4891 0
M  V30 6401 H 667.664 -2.72453 3.16479 0
M  V30 6402 N 668.101 -1.57061 -0.130224 0
M  V30 6403 C 669.011 -2.02802 -1.17934 0
M  V30 6404 C 670.027 -0.946378 -1.46013 0
M  V30 6405 O 671.203 -1.25708 -1.57351 0
M  V30 6406 C 668.268 -2.41368 -2.48882 0
M  V30 6407 C 667.329 -3.63561 -2.28301 0
M  V30 6408 C 666.562 -4.00279 -3.53005 0
M  V30 6409 O 666.785 -3.37463 -4.59864 0
M  V30 6410 O 665.719 -4.93441 -3.44673 0
M  V30 6411 H 669.545 -2.92394 -0.820958 0
M  V30 6412 H 667.13 -1.45475 -0.340197 0
M  V30 6413 H 669.012 -2.66958 -3.26054 0
M  V30 6414 H 667.687 -1.54926 -2.84217 0
M  V30 6415 H 666.594 -3.43136 -1.49025 0
M  V30 6416 H 667.927 -4.50673 -1.97875 0
M  V30 6417 N 669.579 0.400081 -1.52437 0
M  V30 6418 C 670.827 1.14392 -1.6661 0
M  V30 6419 C 671.148 1.90792 -0.402927 0
M  V30 6420 O 670.418 1.87042 0.582425 0
M  V30 6421 H 668.998 0.425275 -0.614125 0
M  V30 6422 H 671.66 0.455076 -1.89513 0
M  V30 6423 H 670.756 1.85298 -2.51139 0
M  V30 6424 N 671.057 1.43213 0.657864 0
M  V30 6425 C 672.303 1.44798 1.41991 0
M  V30 6426 C 672.636 0.070256 1.94073 0
M  V30 6427 O 671.911 -0.908177 1.71995 0
M  V30 6428 C 672.194 2.4865 2.60471 0
M  V30 6429 C 672.047 3.95679 2.13911 0
M  V30 6430 C 673.366 2.49292 3.62686 0
M  V30 6431 H 670.485 0.527244 0.514959 0
M  V30 6432 H 673.127 1.74733 0.74621 0
M  V30 6433 H 671.277 2.23254 3.17946 0
M  V30 6434 H 672.949 4.32116 1.61472 0
M  V30 6435 H 671.192 4.08733 1.45325 0
M  V30 6436 H 671.863 4.6395 2.99089 0
M  V30 6437 H 674.339 2.71917 3.14961 0
M  V30 6438 H 673.215 3.23907 4.43143 0
M  V30 6439 H 673.476 1.52502 4.14964 0
M  V30 6440 N 672.536 -0.895792 1.29666 0
M  V30 6441 C 673.782 -1.64908 1.18039 0
M  V30 6442 C 674.115 -1.9236 -0.266682 0
M  V30 6443 O 673.39 -1.53682 -1.19214 0
M  V30 6444 C 673.673 -2.99574 1.99819 0
M  V30 6445 C 673.526 -2.79163 3.52687 0
M  V30 6446 C 674.845 -4.00358 1.82761 0
M  V30 6447 H 671.964 -0.598437 0.430165 0
M  V30 6448 H 674.606 -1.03736 1.59182 0
M  V30 6449 H 672.756 -3.51786 1.64859 0
M  V30 6450 H 674.428 -2.33821 3.9765 0
M  V30 6451 H 672.671 -2.13871 3.77414 0
M  V30 6452 H 673.342 -3.74871 4.05186 0
M  V30 6453 H 675.818 -3.57268 2.13304 0
M  V30 6454 H 674.694 -4.92514 2.42325 0
M  V30 6455 H 674.955 -4.35096 0.783839 0
M  V30 6456 N 674.014 -1.12206 -1.10668 0
M  V30 6457 C 674.924 -0.800686 -2.20513 0
M  V30 6458 C 675.94 0.209512 -1.72734 0
M  V30 6459 O 677.116 0.043705 -2.01353 0
M  V30 6460 C 674.181 -0.257353 -3.45744 0
M  V30 6461 C 673.242 -1.32718 -4.0827 0
M  V30 6462 C 672.475 -0.809674 -5.27522 0
M  V30 6463 O 672.698 0.35742 -5.69279 0
M  V30 6464 O 671.632 -1.57816 -5.80842 0
M  V30 6465 H 675.458 -1.71807 -2.50432 0
M  V30 6466 H 673.043 -0.898546 -1.19359 0
M  V30 6467 H 674.925 0.0408849 -4.2138 0
M  V30 6468 H 673.6 0.632627 -3.17458 0
M  V30 6469 H 672.507 -1.67855 -3.34329 0
M  V30 6470 H 673.84 -2.19083 -4.40753 0
M  V30 6471 N 675.492 1.28418 -0.913599 0
M  V30 6472 C 676.455 2.25564 -0.406624 0
M  V30 6473 C 677.455 1.5387 0.466965 0
M  V30 6474 O 678.645 1.72094 0.270042 0
M  V30 6475 C 675.777 3.38339 0.417053 0
M  V30 6476 H 676.97 2.71926 -1.26477 0
M  V30 6477 H 674.523 1.40098 -0.692986 0
M  V30 6478 H 675.258 2.97339 1.29461 0
M  V30 6479 H 675.043 3.91542 -0.209102 0
M  V30 6480 H 676.533 4.10578 0.762602 0
M  V30 6481 N 676.97 0.677563 1.42291 0
M  V30 6482 C 677.917 0.000947061 2.308 0
M  V30 6483 C 678.887 -0.789889 1.46116 0
M  V30 6484 O 680.072 -0.761578 1.74942 0
M  V30 6485 C 677.212 -0.942387 3.31984 0
M  V30 6486 C 676.325 -0.14508 4.31756 0
M  V30 6487 C 675.46 -1.08442 5.20013 0
M  V30 6488 C 674.499 -0.278958 6.11464 0
M  V30 6489 N 673.636 -1.17115 6.92263 0
M  V30 6490 H 678.476 0.761521 2.88106 0
M  V30 6491 H 676.013 0.38727 1.41911 0
M  V30 6492 H 677.971 -1.50317 3.89179 0
M  V30 6493 H 676.601 -1.66956 2.76271 0
M  V30 6494 H 675.653 0.532368 3.76656 0
M  V30 6495 H 676.965 0.48015 4.96484 0
M  V30 6496 H 676.119 -1.71504 5.81955 0
M  V30 6497 H 674.858 -1.74353 4.55469 0
M  V30 6498 H 673.863 0.364856 5.48588 0
M  V30 6499 H 675.088 0.376099 6.78058 0
M  V30 6500 H 673.034 -1.81661 6.30345 0
M  V30 6501 H 672.951 -0.601063 7.53607 0
M  V30 6502 H 674.219 -1.78915 7.58689 0
M  V30 6503 N 678.448 -1.51871 0.421078 0
M  V30 6504 C 679.676 -2.06356 -0.14994 0
M  V30 6505 C 680.091 -1.29006 -1.37851 0
M  V30 6506 O 679.448 -0.345139 -1.79207 0
M  V30 6507 C 679.499 -3.58185 -0.488454 0
M  V30 6508 O 679.22 -4.32611 0.691341 0
M  V30 6509 C 680.721 -4.29129 -1.11191 0
M  V30 6510 H 677.941 -0.67083 -0.0151186 0
M  V30 6511 H 680.485 -1.95638 0.595476 0
M  V30 6512 H 678.64 -3.68871 -1.18376 0
M  V30 6513 H 679.054 -5.22927 0.405906 0
M  V30 6514 H 680.528 -5.36501 -1.29889 0
M  V30 6515 H 681.005 -3.86371 -2.0884 0
M  V30 6516 H 681.611 -4.22843 -0.456458 0
M  V30 6517 N 679.926 -0.151884 -1.56866 0
M  V30 6518 C 681.174 0.497021 -1.95893 0
M  V30 6519 C 681.495 1.65078 -1.03799 0
M  V30 6520 O 680.765 1.95642 -0.10049 0
M  V30 6521 H 679.345 0.186603 -0.723318 0
M  V30 6522 H 682.007 -0.228525 -1.93556 0
M  V30 6523 H 681.103 0.869933 -2.99731 0
M  V30 6524 N 681.404 1.57128 0.121893 0
M  V30 6525 C 682.632 1.88883 0.844451 0
M  V30 6526 C 683.047 0.742824 1.73573 0
M  V30 6527 O 682.404 -0.286475 1.80238 0
M  V30 6528 C 682.455 3.20076 1.68029 0
M  V30 6529 O 682.176 4.30264 0.824898 0
M  V30 6530 C 683.677 3.65515 2.50826 0
M  V30 6531 H 680.897 0.62549 0.242907 0
M  V30 6532 H 683.441 2.04219 0.107151 0
M  V30 6533 H 681.596 3.06418 2.37038 0
M  V30 6534 H 682.01 5.05439 1.40113 0
M  V30 6535 H 683.484 4.60081 3.05008 0
M  V30 6536 H 683.961 2.92029 3.28048 0
M  V30 6537 H 684.567 3.81952 1.87064 0
M  V30 6538 N 682.882 -0.391992 1.52647 0
M  V30 6539 C 683.815 -1.50019 1.71958 0
M  V30 6540 C 684.793 -1.5238 0.567365 0
M  V30 6541 O 685.977 -1.70831 0.796806 0
M  V30 6542 C 683.104 -2.88496 1.77447 0
M  V30 6543 C 682.15 -3.03974 2.99169 0
M  V30 6544 S 682.983 -2.75487 4.59203 0
M  V30 6545 C 684.139 -4.16163 4.67503 0
M  V30 6546 H 684.372 -1.33413 2.65685 0
M  V30 6547 H 681.905 -0.584674 1.42902 0
M  V30 6548 H 683.863 -3.68296 1.81296 0
M  V30 6549 H 682.524 -3.02431 0.848188 0
M  V30 6550 H 681.717 -4.05328 2.99542 0
M  V30 6551 H 681.319 -2.32062 2.93297 0
M  V30 6552 H 683.611 -5.10048 4.45934 0
M  V30 6553 H 684.554 -4.20806 5.69498 0
M  V30 6554 H 684.962 -4.01933 3.96371 0
M  V30 6555 N 684.36 -1.4356 -0.65026 0
M  V30 6556 C 685.585 -1.48995 -1.44275 0
M  V30 6557 C 686.01 -0.109954 -1.87778 0
M  V30 6558 O 685.368 0.896926 -1.57559 0
M  V30 6559 C 685.416 -2.44341 -2.65198 0
M  V30 6560 O 684.52 -1.93172 -3.6436 0
M  V30 6561 H 683.861 -0.503852 -0.432469 0
M  V30 6562 H 686.391 -1.88504 -0.795446 0
M  V30 6563 H 686.401 -2.61743 -3.12977 0
M  V30 6564 H 685.076 -3.44588 -2.32877 0
M  V30 6565 H 683.653 -1.85445 -3.23519 0
M  V30 6566 N 685.838 0.888903 -1.30139 0
M  V30 6567 C 687.086 1.63713 -1.18501 0
M  V30 6568 C 687.407 1.9324 0.261399 0
M  V30 6569 O 686.677 1.56608 1.17689 0
M  V30 6570 H 685.257 0.606861 -0.435579 0
M  V30 6571 H 687.919 1.06525 -1.63213 0
M  V30 6572 H 687.015 2.58894 -1.743 0
M  V30 6573 N 687.317 1.12792 1.10072 0
M  V30 6574 C 688.563 0.886857 1.82381 0
M  V30 6575 C 688.896 -0.58576 1.85155 0
M  V30 6576 O 688.171 -1.43317 1.31493 0
M  V30 6577 C 688.454 1.46703 3.28862 0
M  V30 6578 C 688.307 3.00829 3.34398 0
M  V30 6579 C 689.626 1.12971 4.25353 0
M  V30 6580 H 686.745 0.32362 0.662148 0
M  V30 6581 H 689.387 1.39513 1.28982 0
M  V30 6582 H 687.537 1.03476 3.74466 0
M  V30 6583 H 689.209 3.52764 2.97247 0
M  V30 6584 H 687.452 3.36164 2.74183 0
M  V30 6585 H 688.123 3.36519 4.3756 0
M  V30 6586 H 690.599 1.50313 3.88001 0
M  V30 6587 H 689.475 1.56223 5.26199 0
M  V30 6588 H 689.736 0.0424452 4.4208 0
M  V30 6589 N 688.795 -1.27931 0.920396 0
M  V30 6590 C 690.02 -1.99343 0.572478 0
M  V30 6591 C 690.445 -1.68267 -0.840696 0
M  V30 6592 O 689.803 -0.918805 -1.56294 0
M  V30 6593 C 689.851 -3.51698 0.796284 0
M  V30 6594 O 688.955 -4.12157 -0.141602 0
M  V30 6595 H 688.296 -0.626065 0.221221 0
M  V30 6596 H 690.826 -1.62921 1.23765 0
M  V30 6597 H 690.836 -4.01793 0.708984 0
M  V30 6598 H 689.511 -3.73649 1.82644 0
M  V30 6599 H 688.088 -3.729 -0.005007 0
M  V30 6600 N 690.273 -0.685099 -1.4193 0
M  V30 6601 C 691.236 -0.0222632 -2.29189 0
M  V30 6602 C 692.236 0.7186 -1.4385 0
M  V30 6603 O 693.426 0.555058 -1.6512 0
M  V30 6604 C 690.558 0.979013 -3.2654 0
M  V30 6605 H 691.751 -0.790424 -2.89296 0
M  V30 6606 H 689.304 -0.448012 -1.49742 0
M  V30 6607 H 690.039 1.77531 -2.71392 0
M  V30 6608 H 689.824 0.451037 -3.89497 0
M  V30 6609 H 691.314 1.44091 -3.91954 0
M  V30 6610 N 691.751 1.51645 -0.429126 0
M  V30 6611 C 692.681 2.30434 0.377148 0
M  V30 6612 C 693.662 1.35493 1.02838 0
M  V30 6613 O 694.847 1.6441 1.03359 0
M  V30 6614 C 691.977 3.14038 1.48315 0
M  V30 6615 C 690.931 4.1719 0.955855 0
M  V30 6616 C 690.257 4.89263 2.15698 0
M  V30 6617 C 691.557 5.223 -0.00402136 0
M  V30 6618 H 693.251 2.98085 -0.280336 0
M  V30 6619 H 690.797 1.43354 -0.136265 0
M  V30 6620 H 692.75 3.67933 2.05435 0
M  V30 6621 H 691.474 2.44193 2.16881 0
M  V30 6622 H 690.133 3.64335 0.406929 0
M  V30 6623 H 689.781 4.15929 2.82864 0
M  V30 6624 H 689.481 5.59009 1.81059 0
M  V30 6625 H 691.005 5.45978 2.73387 0
M  V30 6626 H 692.419 5.71315 0.476607 0
M  V30 6627 H 690.816 5.99525 -0.26258 0
M  V30 6628 H 691.886 4.75638 -0.943236 0
M  V30 6629 N 693.229 0.160201 1.56784 0
M  V30 6630 C 694.454 -0.497373 2.01348 0
M  V30 6631 C 694.879 -1.56757 1.03966 0
M  V30 6632 O 694.237 -1.81292 0.0174455 0
M  V30 6633 C 694.285 -1.0628 3.44582 0
M  V30 6634 O 693.389 -2.17723 3.50244 0
M  V30 6635 H 692.73 -0.120295 0.653012 0
M  V30 6636 H 695.26 0.260821 2.02931 0
M  V30 6637 H 695.27 -1.38819 3.83658 0
M  V30 6638 H 693.945 -0.279166 4.14962 0
M  V30 6639 H 692.522 -1.86313 3.2302 0
M  V30 6640 N 694.707 -1.5719 -0.113559 0
M  V30 6641 C 695.955 -1.84772 -0.818761 0
M  V30 6642 C 696.276 -0.746196 -1.80158 0
M  V30 6643 O 695.546 0.229305 -1.94553 0
M  V30 6644 H 694.126 -0.681737 -0.305359 0
M  V30 6645 H 696.788 -1.94645 -0.0995845 0
M  V30 6646 H 695.884 -2.80878 -1.36067 0
M  V30 6647 N 696.185 0.383891 -1.52853 0
M  V30 6648 C 697.415 1.14783 -1.7178 0
M  V30 6649 C 697.823 1.84055 -0.438211 0
M  V30 6650 O 697.166 1.73713 0.597465 0
M  V30 6651 C 697.228 2.23543 -2.81547 0
M  V30 6652 C 696.892 1.74195 -4.22499 0
M  V30 6653 C 697.889 1.21591 -5.05481 0
M  V30 6654 C 695.574 1.80262 -4.6884 0
M  V30 6655 C 697.568 0.757104 -6.32888 0
M  V30 6656 C 695.255 1.33993 -5.96229 0
M  V30 6657 C 696.253 0.818049 -6.78083 0
M  V30 6658 O 695.941 0.362123 -8.03084 0
M  V30 6659 H 695.673 0.349908 -0.578395 0
M  V30 6660 H 698.227 0.454377 -2.00311 0
M  V30 6661 H 696.457 2.96328 -2.48449 0
M  V30 6662 H 698.146 2.8519 -2.88828 0
M  V30 6663 H 698.912 1.16257 -4.7086 0
M  V30 6664 H 694.791 2.19825 -4.05213 0
M  V30 6665 H 698.335 0.34908 -6.96726 0
M  V30 6666 H 694.232 1.39015 -6.30353 0
M  V30 6667 H 695 0.483134 -8.17073 0
M  V30 6668 N 697.663 1.43903 0.642637 0
M  V30 6669 C 698.909 1.46296 1.40447 0
M  V30 6670 C 699.242 0.0908361 1.93987 0
M  V30 6671 O 698.517 -0.889884 1.72949 0
M  V30 6672 C 698.8 2.51399 2.57819 0
M  V30 6673 C 698.653 3.97926 2.09702 0
M  V30 6674 C 699.972 2.53125 3.60022 0
M  V30 6675 H 697.091 0.532676 0.509338 0
M  V30 6676 H 699.733 1.75515 0.727635 0
M  V30 6677 H 697.883 2.26614 3.1556 0
M  V30 6678 H 699.555 4.33804 1.5688 0
M  V30 6679 H 697.798 4.10252 1.40982 0
M  V30 6680 H 698.469 4.67096 2.94152 0
M  V30 6681 H 700.945 2.75242 3.12059 0
M  V30 6682 H 699.821 3.28589 4.39682 0
M  V30 6683 H 700.082 1.56895 4.13324 0
M  V30 6684 N 699.141 -0.881989 1.30609 0
M  V30 6685 C 700.552 -1.44956 1.17664 0
M  V30 6686 C 700.903 -1.94945 -0.221531 0
M  V30 6687 O 700.028 -1.85257 -1.11844 0
M  V30 6688 C 700.623 -2.63474 2.12995 0
M  V30 6689 C 699.182 -3.16312 2.04019 0
M  V30 6690 C 698.329 -1.89008 2.02907 0
M  V30 6691 H 701.28 -0.691645 1.42835 0
M  V30 6692 H 701.301 -3.39783 1.71253 0
M  V30 6693 H 700.813 -2.2706 3.14746 0
M  V30 6694 H 698.914 -3.57376 1.0542 0
M  V30 6695 H 699.027 -3.79409 2.9255 0
M  V30 6696 H 697.391 -2.07465 1.47751 0
M  V30 6697 H 698.174 -1.54848 3.06394 0
M  V30 6698 N 700.619 -1.13374 -1.09472 0
M  V30 6699 C 701.867 -0.893422 -1.8128 0
M  V30 6700 C 702.188 0.582029 -1.86111 0
M  V30 6701 O 701.458 1.42305 -1.34633 0
M  V30 6702 H 700.038 -0.327543 -0.67136 0
M  V30 6703 H 702.7 -1.43018 -1.32408 0
M  V30 6704 H 701.796 -1.28374 -2.84476 0
M  V30 6705 N 702.098 1.27442 -0.927168 0
M  V30 6706 C 703.509 1.76385 -0.611979 0
M  V30 6707 C 703.86 1.75715 0.872853 0
M  V30 6708 O 702.985 1.3603 1.683 0
M  V30 6709 C 703.58 3.20303 -1.10414 0
M  V30 6710 C 702.139 3.66916 -0.839628 0
M  V30 6711 C 701.286 2.46859 -1.26317 0
M  V30 6712 H 704.237 1.13716 -1.107 0
M  V30 6713 H 704.258 3.77811 -0.451578 0
M  V30 6714 H 703.77 3.20759 -2.18484 0
M  V30 6715 H 701.871 3.71906 0.227292 0
M  V30 6716 H 701.984 4.56415 -1.45679 0
M  V30 6717 H 700.348 2.45407 -0.681723 0
M  V30 6718 H 701.131 2.50025 -2.3525 0
M  V30 6719 N 703.576 0.692616 1.41565 0
M  V30 6720 C 704.486 0.0258451 2.34586 0
M  V30 6721 C 705.502 -0.769324 1.56069 0
M  V30 6722 O 706.678 -0.707563 1.88562 0
M  V30 6723 C 703.743 -0.901289 3.3478 0
M  V30 6724 C 702.804 -0.0986579 4.29187 0
M  V30 6725 C 702.037 -0.981634 5.24595 0
M  V30 6726 O 702.26 -2.22115 5.25377 0
M  V30 6727 O 701.194 -0.432892 6.00341 0
M  V30 6728 H 705.02 0.792537 2.93177 0
M  V30 6729 H 702.605 0.452935 1.42369 0
M  V30 6730 H 704.487 -1.43302 3.96286 0
M  V30 6731 H 703.162 -1.64752 2.78637 0
M  V30 6732 H 702.069 0.477604 3.71039 0
M  V30 6733 H 703.402 0.608848 4.8842 0
M  V30 6734 N 705.054 -1.51416 0.437162 0
M  V30 6735 C 706.302 -2.01687 -0.129108 0
M  V30 6736 C 706.623 -1.32329 -1.43227 0
M  V30 6737 O 705.893 -0.457796 -1.90476 0
M  V30 6738 H 704.473 -0.745277 -0.0507023 0
M  V30 6739 H 707.135 -1.86075 0.579828 0
M  V30 6740 H 706.231 -3.10605 -0.305141 0
M  V30 6741 N 706.532 -0.168513 -1.56696 0
M  V30 6742 C 707.442 0.775435 -2.21414 0
M  V30 6743 C 708.458 1.25529 -1.20492 0
M  V30 6744 O 709.634 1.30801 -1.53144 0
M  V30 6745 C 706.699 1.9886 -2.83999 0
M  V30 6746 C 705.76 1.5559 -4.00113 0
M  V30 6747 C 704.993 2.71124 -4.59704 0
M  V30 6748 O 705.216 3.87917 -4.18182 0
M  V30 6749 O 704.15 2.4536 -5.4962 0
M  V30 6750 H 707.976 0.254416 -3.02632 0
M  V30 6751 H 705.561 0.0595507 -1.49281 0
M  V30 6752 H 707.443 2.69816 -3.23693 0
M  V30 6753 H 706.118 2.49874 -2.05779 0
M  V30 6754 H 705.025 0.815924 -3.65094 0
M  V30 6755 H 706.358 1.09271 -4.79917 0
M  V30 6756 N 708.01 1.57248 0.105221 0
M  V30 6757 C 708.94 2.04374 1.12931 0
M  V30 6758 C 709.921 0.93074 1.42377 0
M  V30 6759 O 711.106 1.20136 1.52581 0
M  V30 6760 C 708.236 2.45967 2.45189 0
M  V30 6761 C 707.19 3.60838 2.30174 0
M  V30 6762 C 706.516 3.88374 3.67518 0
M  V30 6763 C 707.816 4.92084 1.75073 0
M  V30 6764 H 709.51 2.9018 0.737287 0
M  V30 6765 H 707.056 1.39601 0.353211 0
M  V30 6766 H 709.009 2.77542 3.17094 0
M  V30 6767 H 707.733 1.57148 2.86308 0
M  V30 6768 H 706.392 3.29493 1.60716 0
M  V30 6769 H 706.04 2.96739 4.06147 0
M  V30 6770 H 705.74 4.65703 3.58321 0
M  V30 6771 H 707.264 4.22415 4.40906 0
M  V30 6772 H 708.678 5.22106 2.36809 0
M  V30 6773 H 707.075 5.73507 1.76662 0
M  V30 6774 H 708.145 4.79684 0.709347 0
M  V30 6775 N 709.488 -0.375779 1.53054 0
M  V30 6776 C 710.451 -1.44254 1.7811 0
M  V30 6777 C 711.451 -1.47018 0.651328 0
M  V30 6778 O 712.641 -1.47957 0.919472 0
M  V30 6779 C 709.773 -2.8345 1.89391 0
M  V30 6780 H 710.966 -1.23316 2.73374 0
M  V30 6781 H 708.519 -0.608312 1.43977 0
M  V30 6782 H 709.254 -3.09716 0.961589 0
M  V30 6783 H 709.039 -2.82844 2.71555 0
M  V30 6784 H 710.529 -3.60722 2.10404 0
M  V30 6785 N 710.966 -1.44241 -0.634997 0
M  V30 6786 C 712.213 -1.46821 -1.39463 0
M  V30 6787 C 712.541 -0.0993362 -1.94246 0
M  V30 6788 O 711.796 0.898325 -1.73864 0
M  V30 6789 C 712.095 -2.47279 -2.58046 0
M  V30 6790 C 711.761 -3.92703 -2.21574 0
M  V30 6791 C 710.423 -4.32306 -2.1134 0
M  V30 6792 C 712.775 -4.84271 -1.92695 0
M  V30 6793 C 710.103 -5.61407 -1.70409 0
M  V30 6794 C 712.455 -6.13755 -1.53258 0
M  V30 6795 C 711.119 -6.52316 -1.41562 0
M  V30 6796 H 710.389 -0.537256 -0.51033 0
M  V30 6797 H 713.036 -1.77431 -0.720441 0
M  V30 6798 H 711.341 -2.10138 -3.3068 0
M  V30 6799 H 713.038 -2.46523 -3.16271 0
M  V30 6800 H 709.628 -3.61369 -2.30456 0
M  V30 6801 H 713.812 -4.54432 -1.99513 0
M  V30 6802 H 709.068 -5.90105 -1.59955 0
M  V30 6803 H 713.242 -6.84168 -1.29949 0
M  V30 6804 H 710.869 -7.52255 -1.09619 0
M  V30 6805 N 712.444 0.87505 -1.31075 0
M  V30 6806 C 713.669 1.66583 -1.23551 0
M  V30 6807 C 714.094 1.87067 0.19686 0
M  V30 6808 O 713.452 1.40877 1.1412 0
M  V30 6809 C 713.5 3.01401 -1.97965 0
M  V30 6810 O 712.604 3.90923 -1.31351 0
M  V30 6811 H 711.945 0.508645 -0.426821 0
M  V30 6812 H 714.475 1.09139 -1.7306 0
M  V30 6813 H 714.485 3.51374 -2.07366 0
M  V30 6814 H 713.16 2.85812 -3.02133 0
M  V30 6815 H 711.737 3.49369 -1.30368 0
M  V30 6816 N 713.922 1.13953 1.08869 0
M  V30 6817 C 715.171 0.899431 1.80536 0
M  V30 6818 C 715.484 -0.575781 1.86933 0
M  V30 6819 O 716.69 -0.932988 2.54966 0
M  V30 6820 C 715.146 1.55963 3.24351 0
M  V30 6821 C 714.754 3.07077 3.26202 0
M  V30 6822 C 716.498 1.40046 4.00733 0
M  V30 6823 C 714.405 3.65955 4.64576 0
M  V30 6824 H 713.335 0.332849 0.676556 0
M  V30 6825 H 715.986 1.3679 1.22314 0
M  V30 6826 H 714.368 1.01883 3.82669 0
M  V30 6827 H 715.542 3.67785 2.77617 0
M  V30 6828 H 713.857 3.22576 2.63312 0
M  V30 6829 H 716.454 1.81441 5.02974 0
M  V30 6830 H 716.797 0.345993 4.1486 0
M  V30 6831 H 717.33 1.91137 3.48872 0
M  V30 6832 H 714.069 4.71234 4.55652 0
M  V30 6833 H 713.589 3.10027 5.13462 0
M  V30 6834 H 715.268 3.65968 5.33551 0
M  V30 6835 N 715.4 -1.26948 0.933913 0
M  V30 6836 C 716.646 -1.94374 0.57848 0
M  V30 6837 C 716.979 -1.73166 -0.879048 0
M  V30 6838 O 716.254 -1.06438 -1.62792 0
M  V30 6839 C 716.537 -3.4834 0.912739 0
M  V30 6840 C 716.39 -3.78866 2.42448 0
M  V30 6841 C 717.709 -4.38062 0.423003 0
M  V30 6842 H 714.828 -0.705959 0.211639 0
M  V30 6843 H 717.47 -1.49951 1.16682 0
M  V30 6844 H 715.62 -3.86309 0.412058 0
M  V30 6845 H 717.292 -3.50654 2.99733 0
M  V30 6846 H 715.535 -3.25198 2.87104 0
M  V30 6847 H 716.206 -4.86458 2.60887 0
M  V30 6848 H 718.682 -4.0728 0.852191 0
M  V30 6849 H 717.558 -5.44599 0.685776 0
M  V30 6850 H 717.819 -4.36886 -0.676994 0
M  V30 6851 N 716.879 -0.700114 -1.41195 0
M  V30 6852 C 717.827 -0.0263301 -2.32585 0
M  V30 6853 C 718.821 0.763683 -1.51209 0
M  V30 6854 O 720.027 0.668793 -1.67114 0
M  V30 6855 H 716.402 0.0102869 -0.75193 0
M  V30 6856 H 718.373 -0.814087 -2.8708 0
M  V30 6857 C 717.122 0.892793 -3.36042 0
M  V30 6858 H 716.445 0.294306 -3.98715 0
M  V30 6859 H 717.885 1.33247 -4.02518 0
M  V30 6860 C 716.344 2.01109 -2.7029 0
M  V30 6861 O 716.874 3.10035 -2.55423 0
M  V30 6862 N 715.08 1.79015 -2.28915 0
M  V30 6863 H 714.627 0.904275 -2.41207 0
M  V30 6864 H 714.585 2.54022 -1.85257 0
M  V30 6865 N 718.357 1.51182 -0.445186 0
M  V30 6866 C 719.305 2.29531 0.376597 0
M  V30 6867 C 720.299 1.35711 1.01385 0
M  V30 6868 O 721.505 1.53018 0.947922 0
M  V30 6869 H 717.88 0.738803 0.140267 0
M  V30 6870 H 719.851 2.96838 -0.304958 0
M  V30 6871 C 718.6 3.1552 1.4609 0
M  V30 6872 H 717.923 3.87605 0.979912 0
M  V30 6873 H 719.363 3.73384 2.009 0
M  V30 6874 C 717.822 2.31406 2.44852 0
M  V30 6875 O 718.352 1.97912 3.49562 0
M  V30 6876 N 716.558 1.94478 2.15932 0
M  V30 6877 H 716.105 2.21917 1.30808 0
M  V30 6878 H 716.063 1.38498 2.82251 0
M  V30 6879 N 719.835 0.176821 1.56605 0
M  V30 6880 C 721.083 -0.465793 1.96659 0
M  V30 6881 C 721.404 -1.63406 1.06412 0
M  V30 6882 O 720.674 -1.95457 0.131603 0
M  V30 6883 H 719.254 -0.175072 0.726195 0
M  V30 6884 H 721.916 0.25929 1.93168 0
M  V30 6885 H 721.012 -0.822138 3.01077 0
M  V30 6886 N 721.313 -1.57302 -0.09688 0
M  V30 6887 C 722.263 -1.98369 -1.12399 0
M  V30 6888 C 723.247 -0.861872 -1.3587 0
M  V30 6889 O 724.439 -1.1257 -1.36591 0
M  V30 6890 C 721.568 -2.41017 -2.4447 0
M  V30 6891 C 720.654 -3.59881 -2.24381 0
M  V30 6892 N 721.045 -4.74872 -1.74155 0
M  V30 6893 C 719.343 -3.65943 -2.54954 0
M  V30 6894 C 720.044 -5.56823 -1.68294 0
M  V30 6895 N 719.02 -4.99942 -2.13444 0
M  V30 6896 H 722.822 -2.84726 -0.728575 0
M  V30 6897 H 720.336 -1.59523 -0.304332 0
M  V30 6898 H 722.333 -2.68665 -3.18786 0
M  V30 6899 H 720.993 -1.56036 -2.84751 0
M  V30 6900 H 722.004 -4.97657 -1.43379 0
M  V30 6901 H 718.681 -2.9162 -2.98771 0
M  V30 6902 H 720.071 -6.59099 -1.30528 0
M  V30 6903 N 722.791 0.367657 -1.53252 0
M  V30 6904 C 724.016 1.13566 -1.73544 0
M  V30 6905 C 724.441 1.82329 -0.462344 0
M  V30 6906 O 723.799 1.71655 0.583472 0
M  V30 6907 C 723.847 2.14322 -2.89997 0
M  V30 6908 O 722.951 3.21359 -2.58461 0
M  V30 6909 H 722.292 0.329614 -0.576412 0
M  V30 6910 H 724.822 0.425417 -2.00128 0
M  V30 6911 H 724.832 2.57958 -3.16104 0
M  V30 6912 H 723.507 1.63664 -3.82344 0
M  V30 6913 H 722.084 2.8271 -2.43165 0
M  V30 6914 N 724.269 1.44576 0.627338 0
M  V30 6915 C 725.517 1.47267 1.38408 0
M  V30 6916 C 725.838 0.107971 1.94701 0
M  V30 6917 O 725.108 -0.860206 1.76004 0
M  V30 6918 H 723.688 0.542276 0.513756 0
M  V30 6919 H 726.35 1.80383 0.738099 0
M  V30 6920 H 725.446 2.20025 2.21349 0
M  V30 6921 N 725.747 -0.868086 1.31537 0
M  V30 6922 C 727.158 -1.437 1.19195 0
M  V30 6923 C 727.509 -1.95169 -0.200842 0
M  V30 6924 O 726.634 -1.86432 -1.09872 0
M  V30 6925 C 727.229 -2.612 2.15778 0
M  V30 6926 C 725.788 -3.1413 2.07363 0
M  V30 6927 C 724.935 -1.86845 2.049 0
M  V30 6928 H 727.886 -0.676457 1.43561 0
M  V30 6929 H 727.907 -3.37948 1.74847 0
M  V30 6930 H 727.419 -2.23709 3.17137 0
M  V30 6931 H 725.52 -3.56238 1.09204 0
M  V30 6932 H 725.633 -3.76285 2.96557 0
M  V30 6933 H 723.997 -2.05886 1.49943 0
M  V30 6934 H 724.78 -1.51589 3.08019 0
M  V30 6935 N 727.225 -1.14528 -1.08264 0
M  V30 6936 C 728.188 -0.83632 -2.13397 0
M  V30 6937 C 729.188 0.159715 -1.60005 0
M  V30 6938 O 730.378 -0.0688098 -1.74064 0
M  V30 6939 C 727.51 -0.246973 -3.40004 0
M  V30 6940 H 728.703 -1.76808 -2.42237 0
M  V30 6941 H 726.256 -0.951509 -1.24 0
M  V30 6942 H 726.991 0.693436 -3.168 0
M  V30 6943 H 726.776 -0.964412 -3.80055 0
M  V30 6944 H 728.266 -0.0480679 -4.17572 0
M  V30 6945 N 728.703 1.26451 -0.940633 0
M  V30 6946 C 730.114 1.75726 -0.630653 0
M  V30 6947 C 730.465 1.76631 0.854167 0
M  V30 6948 O 729.59 1.37807 1.66848 0
M  V30 6949 C 730.185 3.19114 -1.13805 0
M  V30 6950 C 728.744 3.66005 -0.878497 0
M  V30 6951 C 727.891 2.45505 -1.28928 0
M  V30 6952 H 730.842 1.12535 -1.119 0
M  V30 6953 H 730.863 3.77311 -0.491625 0
M  V30 6954 H 730.375 3.18424 -2.21874 0
M  V30 6955 H 728.476 3.72126 0.187833 0
M  V30 6956 H 728.589 4.54844 -1.50512 0
M  V30 6957 H 726.953 2.4467 -0.707713 0
M  V30 6958 H 727.736 2.47516 -2.37888 0
M  V30 6959 N 730.181 0.707592 1.40822 0
M  V30 6960 C 731.111 0.0644925 2.33411 0
M  V30 6961 C 732.092 -0.754205 1.52466 0
M  V30 6962 O 733.277 -0.704749 1.80961 0
M  V30 6963 C 730.407 -0.863865 3.36385 0
M  V30 6964 C 729.361 -0.15138 4.27732 0
M  V30 6965 C 728.687 -1.19491 5.21177 0
M  V30 6966 C 729.987 0.989607 5.12839 0
M  V30 6967 H 731.681 0.837829 2.87438 0
M  V30 6968 H 729.227 0.404346 1.38207 0
M  V30 6969 H 731.18 -1.32309 4.0009 0
M  V30 6970 H 729.904 -1.66901 2.80734 0
M  V30 6971 H 728.563 0.287937 3.65467 0
M  V30 6972 H 728.211 -1.9929 4.61836 0
M  V30 6973 H 727.911 -0.723123 5.83134 0
M  V30 6974 H 729.435 -1.6544 5.8776 0
M  V30 6975 H 730.849 0.610114 5.70044 0
M  V30 6976 H 729.246 1.38926 5.83798 0
M  V30 6977 H 730.316 1.82389 4.49291 0
M  V30 6978 N 731.66 -1.50943 0.453197 0
M  V30 6979 C 732.623 -2.26684 -0.338705 0
M  V30 6980 C 733.623 -1.30748 -0.936032 0
M  V30 6981 O 734.813 -1.54327 -0.808002 0
M  V30 6982 C 731.945 -3.07063 -1.48071 0
M  V30 6983 H 733.138 -2.98131 0.325289 0
M  V30 6984 H 730.691 -1.54926 0.206771 0
M  V30 6985 H 731.426 -2.4007 -2.18029 0
M  V30 6986 H 731.211 -3.77545 -1.0584 0
M  V30 6987 H 732.701 -3.64393 -2.0398 0
M  V30 6988 N 733.138 -0.185124 -1.56509 0
M  V30 6989 C 734.384 0.456934 -1.97585 0
M  V30 6990 C 734.717 1.61957 -1.07161 0
M  V30 6991 O 733.992 1.9412 -0.121546 0
M  V30 6992 C 734.275 0.926666 -3.47973 0
M  V30 6993 C 734.128 -0.237097 -4.49175 0
M  V30 6994 C 735.447 1.79561 -4.01803 0
M  V30 6995 H 732.566 0.164619 -0.71838 0
M  V30 6996 H 735.208 -0.274039 -1.88013 0
M  V30 6997 H 733.358 1.54954 -3.56261 0
M  V30 6998 H 735.03 -0.87454 -4.52934 0
M  V30 6999 H 733.273 -0.890446 -4.24563 0
M  V30 7000 H 733.944 0.133924 -5.51838 0
M  V30 7001 H 736.42 1.27039 -3.96232 0
M  V30 7002 H 735.296 2.09327 -5.07418 0
M  V30 7003 H 735.557 2.74629 -3.46455 0
M  V30 7004 N 734.616 1.57351 0.0885366 0
M  V30 7005 C 735.548 1.99221 1.13329 0
M  V30 7006 C 736.561 0.895705 1.35945 0
M  V30 7007 O 737.75 1.17376 1.34481 0
M  V30 7008 C 734.85 2.3016 2.48756 0
M  V30 7009 C 734.023 3.61444 2.46327 0
M  V30 7010 C 733.082 3.80244 3.63732 0
M  V30 7011 O 732.108 4.52024 3.45924 0
M  V30 7012 N 733.31 3.2132 4.8346 0
M  V30 7013 H 736.075 2.89456 0.776862 0
M  V30 7014 H 733.636 1.59505 0.277428 0
M  V30 7015 H 735.628 2.39925 3.25911 0
M  V30 7016 H 734.198 1.459 2.76464 0
M  V30 7017 H 733.418 3.62588 1.54673 0
M  V30 7018 H 734.706 4.47678 2.41789 0
M  V30 7019 H 734.104 2.63028 5.00832 0
M  V30 7020 H 732.661 3.3656 5.58185 0
M  V30 7021 N 736.094 -0.359525 1.53444 0
M  V30 7022 C 737.371 -1.11756 1.6053 0
M  V30 7023 C 737.751 -2.06949 0.416587 0
M  V30 7024 O 737.099 -2.20681 -0.592628 0
M  V30 7025 C 737.309 -1.85133 2.95849 0
M  V30 7026 C 738.657 -2.3945 3.50641 0
M  V30 7027 O 739.681 -1.95251 2.97918 0
M  V30 7028 O 738.54 -3.20266 4.42823 0
M  V30 7029 H 735.634 -0.513005 0.648656 0
M  V30 7030 H 738.18 -0.362301 1.65787 0
M  V30 7031 H 736.952 -1.15694 3.73806 0
M  V30 7032 H 736.575 -2.67554 2.9411 0
M  V30 7033 N 737.572 -1.44907 -0.619662 0
M  V30 7034 C 738.535 -1.52282 -1.71297 0
M  V30 7035 C 739.535 -0.40359 -1.55653 0
M  V30 7036 O 740.725 -0.666638 -1.6094 0
M  V30 7037 C 737.857 -1.40778 -3.10474 0
M  V30 7038 H 739.05 -2.49683 -1.66128 0
M  V30 7039 H 736.603 -1.32168 -0.834339 0
M  V30 7040 H 737.338 -0.445156 -3.2123 0
M  V30 7041 H 737.123 -2.21947 -3.23237 0
M  V30 7042 H 738.613 -1.48946 -3.90135 0
M  V30 7043 N 739.05 0.861098 -1.31996 0
M  V30 7044 C 740.299 1.60965 -1.21545 0
M  V30 7045 C 740.612 1.94325 0.222972 0
M  V30 7046 O 741.818 2.67757 0.449272 0
M  V30 7047 C 740.274 2.90223 -2.12834 0
M  V30 7048 C 739.882 2.64313 -3.61722 0
M  V30 7049 C 741.626 3.68229 -2.11205 0
M  V30 7050 C 739.533 3.89532 -4.44993 0
M  V30 7051 H 738.463 0.603988 -0.451348 0
M  V30 7052 H 741.114 0.951358 -1.56912 0
M  V30 7053 H 739.496 3.57475 -1.70375 0
M  V30 7054 H 740.67 2.05413 -4.12483 0
M  V30 7055 H 738.985 1.99647 -3.65418 0
M  V30 7056 H 741.582 4.61138 -2.70658 0
M  V30 7057 H 741.925 4.01466 -1.1014 0
M  V30 7058 H 742.458 3.07873 -2.51911 0
M  V30 7059 H 739.197 3.61441 -5.46846 0
M  V30 7060 H 738.717 4.47851 -3.98985 0
M  V30 7061 H 740.396 4.57334 -4.57663 0
M  V30 7062 N 740.528 1.15101 1.07655 0
M  V30 7063 C 741.491 0.847625 2.12951 0
M  V30 7064 C 742.491 -0.151227 1.60087 0
M  V30 7065 O 743.681 0.0780399 1.74025 0
M  V30 7066 C 740.813 0.265 3.39868 0
M  V30 7067 H 742.006 1.7809 2.41296 0
M  V30 7068 H 739.559 0.958072 1.23494 0
M  V30 7069 H 740.294 -0.676625 3.17163 0
M  V30 7070 H 740.079 0.984554 3.79538 0
M  V30 7071 H 741.569 0.0702121 4.17541 0
M  V30 7072 N 742.006 -1.2595 0.947325 0
M  V30 7073 C 743.252 -1.9375 0.599064 0
M  V30 7074 C 743.585 -1.74088 -0.860632 0
M  V30 7075 O 742.86 -1.08158 -1.61654 0
M  V30 7076 C 743.143 -3.47353 0.949634 0
M  V30 7077 C 742.996 -3.76273 2.46452 0
M  V30 7078 C 744.315 -4.37589 0.469442 0
M  V30 7079 H 741.434 -0.703674 0.219115 0
M  V30 7080 H 744.076 -1.48705 1.18266 0
M  V30 7081 H 742.226 -3.8585 0.453008 0
M  V30 7082 H 743.898 -3.47455 3.03435 0
M  V30 7083 H 742.141 -3.22135 2.90537 0
M  V30 7084 H 742.812 -4.83664 2.66032 0
M  V30 7085 H 745.288 -4.06353 0.89534 0
M  V30 7086 H 744.164 -5.43841 0.7435 0
M  V30 7087 H 744.425 -4.37579 -0.630618 0
M  V30 7088 N 743.484 -0.715051 -1.40445 0
M  V30 7089 C 744.9 -0.388555 -1.54798 0
M  V30 7090 C 745.1 1.10271 -1.68649 0
M  V30 7091 O 744.156 1.88875 -1.67578 0
M  V30 7092 C 745.469 -1.15414 -2.77669 0
M  V30 7093 C 747.017 -1.14039 -2.91486 0
M  V30 7094 C 747.492 -1.88812 -4.1727 0
M  V30 7095 N 748.983 -1.85878 -4.24268 0
M  V30 7096 C 749.718 -2.40558 -5.20499 0
M  V30 7097 N 749.214 -3.03791 -6.22642 0
M  V30 7098 N 751.007 -2.30703 -5.12574 0
M  V30 7099 H 743.158 -1.68201 -1.297 0
M  V30 7100 H 745.421 -0.710915 -0.627139 0
M  V30 7101 H 745.127 -2.20853 -2.7371 0
M  V30 7102 H 745.001 -0.745412 -3.69761 0
M  V30 7103 H 747.388 -0.0941996 -2.9495 0
M  V30 7104 H 747.469 -1.58834 -2.00513 0
M  V30 7105 H 747.113 -2.93422 -4.14568 0
M  V30 7106 H 747.043 -1.41438 -5.0725 0
M  V30 7107 H 749.534 -1.39794 -3.51093 0
M  V30 7108 H 749.847 -3.43032 -6.92495 0
M  V30 7109 H 748.192 -3.07875 -6.23087 0
M  V30 7110 H 751.383 -1.80961 -4.31707 0
M  V30 7111 H 751.556 -2.73618 -5.87398 0
M  V30 7112 N 744.962 1.50701 -0.461195 0
M  V30 7113 C 745.892 2.31182 0.328184 0
M  V30 7114 C 746.873 1.37644 0.999408 0
M  V30 7115 O 748.058 1.66565 0.99848 0
M  V30 7116 C 745.188 3.17113 1.41621 0
M  V30 7117 C 744.142 4.19124 0.867148 0
M  V30 7118 C 743.468 4.93728 2.05272 0
M  V30 7119 C 744.768 5.22174 -0.114808 0
M  V30 7120 H 746.462 2.97423 -0.343501 0
M  V30 7121 H 744.008 1.43033 -0.166641 0
M  V30 7122 H 745.961 3.72208 1.97584 0
M  V30 7123 H 744.685 2.48739 2.11652 0
M  V30 7124 H 743.344 3.65116 0.329557 0
M  V30 7125 H 742.992 4.21835 2.73978 0
M  V30 7126 H 742.692 5.62724 1.69161 0
M  V30 7127 H 744.216 5.51654 2.61744 0
M  V30 7128 H 745.63 5.72198 0.355316 0
M  V30 7129 H 744.027 5.98833 -0.389689 0
M  V30 7130 H 745.097 4.7353 -1.04391 0
M  V30 7131 N 746.441 0.193421 1.56409 0
M  V30 7132 C 747.404 -0.714371 2.17783 0
M  V30 7133 C 748.404 -1.1422 1.13183 0
M  V30 7134 O 749.594 -1.05557 1.38576 0
M  V30 7135 C 746.726 -1.97509 2.77855 0
M  V30 7136 H 747.919 -0.179714 2.99361 0
M  V30 7137 H 745.472 -0.0561944 1.56199 0
M  V30 7138 H 746.207 -2.5523 2.0007 0
M  V30 7139 H 745.992 -1.67706 3.54425 0
M  V30 7140 H 747.482 -2.62246 3.24987 0
M  V30 7141 N 747.919 -1.57396 -0.0801906 0
M  V30 7142 C 748.829 -2.06451 -1.11423 0
M  V30 7143 C 749.845 -0.992352 -1.42928 0
M  V30 7144 O 751.021 -1.30651 -1.53272 0
M  V30 7145 C 748.086 -2.49164 -2.41077 0
M  V30 7146 C 747.147 -3.70641 -2.16619 0
M  V30 7147 C 746.38 -4.11307 -3.40092 0
M  V30 7148 O 746.603 -3.51922 -4.48895 0
M  V30 7149 O 745.537 -5.04157 -3.288 0
M  V30 7150 H 749.363 -2.94857 -0.727519 0
M  V30 7151 H 746.948 -1.46484 -0.293743 0
M  V30 7152 H 748.83 -2.77196 -3.17396 0
M  V30 7153 H 747.505 -1.6389 -2.79145 0
M  V30 7154 H 746.412 -3.47703 -1.38033 0
M  V30 7155 H 747.745 -4.5674 -1.83437 0
M  V30 7156 N 749.397 0.351382 -1.53633 0
M  V30 7157 C 750.627 1.11113 -1.74176 0
M  V30 7158 C 751.035 1.83084 -0.477154 0
M  V30 7159 O 750.378 1.74941 0.560483 0
M  V30 7160 C 750.44 2.17521 -2.86225 0
M  V30 7161 C 750.104 1.65193 -4.26099 0
M  V30 7162 C 751.101 1.10842 -5.07947 0
M  V30 7163 C 748.786 1.70277 -4.72558 0
M  V30 7164 C 750.78 0.622689 -6.34351 0
M  V30 7165 C 748.467 1.21316 -5.98937 0
M  V30 7166 C 749.465 0.674033 -6.79666 0
M  V30 7167 O 749.153 0.191696 -8.03671 0
M  V30 7168 H 748.885 0.33756 -0.585687 0
M  V30 7169 H 751.439 0.411786 -2.0123 0
M  V30 7170 H 749.669 2.90991 -2.54678 0
M  V30 7171 H 751.358 2.78999 -2.94812 0
M  V30 7172 H 752.124 1.06243 -4.7322 0
M  V30 7173 H 748.003 2.11181 -4.09785 0
M  V30 7174 H 751.547 0.201216 -6.9731 0
M  V30 7175 H 747.444 1.25613 -6.3316 0
M  V30 7176 H 748.212 0.309712 -8.17914 0
M  V30 7177 N 750.875 1.45233 0.611969 0
M  V30 7178 C 751.838 1.53189 1.70487 0
M  V30 7179 C 752.838 0.411839 1.55437 0
M  V30 7180 O 754.028 0.675164 1.60584 0
M  V30 7181 C 751.16 1.42422 3.09723 0
M  V30 7182 H 752.353 2.5056 1.64802 0
M  V30 7183 H 749.906 1.32609 0.827318 0
M  V30 7184 H 750.641 0.462185 3.2099 0
M  V30 7185 H 750.426 2.23658 3.22055 0
M  V30 7186 H 751.916 1.51012 3.89339 0
M  V30 7187 N 752.353 -0.854086 1.3245 0
M  V30 7188 C 753.601 -1.60513 1.228 0
M  V30 7189 C 753.922 -1.93865 -0.210073 0
M  V30 7190 O 753.192 -1.59673 -1.13496 0
M  V30 7191 H 751.772 -0.595099 0.451516 0
M  V30 7192 H 754.434 -1.0216 1.6598 0
M  V30 7193 H 753.53 -2.54182 1.81102 0
M  V30 7194 N 753.831 -1.1567 -1.07043 0
M  V30 7195 C 754.781 -0.824733 -2.12561 0
M  V30 7196 C 755.765 0.19243 -1.59745 0
M  V30 7197 O 756.957 -0.00728759 -1.76998 0
M  V30 7198 C 754.086 -0.31921 -3.41813 0
M  V30 7199 C 753.172 -1.36671 -4.01475 0
M  V30 7200 N 753.563 -2.57493 -4.35351 0
M  V30 7201 C 751.861 -1.22018 -4.28984 0
M  V30 7202 C 752.562 -3.24658 -4.82672 0
M  V30 7203 N 751.538 -2.52043 -4.81638 0
M  V30 7204 H 755.34 -1.74363 -2.3659 0
M  V30 7205 H 752.854 -1.04262 -1.24511 0
M  V30 7206 H 754.851 -0.0630216 -4.16852 0
M  V30 7207 H 753.511 0.593708 -3.19226 0
M  V30 7208 H 754.522 -2.94612 -4.25939 0
M  V30 7209 H 751.199 -0.367414 -4.1588 0
M  V30 7210 H 752.589 -4.2775 -5.1815 0
M  V30 7211 N 755.309 1.25446 -0.953992 0
M  V30 7212 C 756.241 2.25111 -0.431004 0
M  V30 7213 C 757.254 1.56377 0.452764 0
M  V30 7214 O 758.443 1.76579 0.261144 0
M  V30 7215 C 755.543 3.3655 0.39839 0
M  V30 7216 C 754.716 4.34843 -0.472229 0
M  V30 7217 C 753.775 5.25351 0.29886 0
M  V30 7218 O 752.801 5.68396 -0.302522 0
M  V30 7219 N 754.003 5.5824 1.59211 0
M  V30 7220 H 756.768 2.70619 -1.28785 0
M  V30 7221 H 754.329 1.39346 -0.824281 0
M  V30 7222 H 756.321 3.94059 0.921941 0
M  V30 7223 H 754.891 2.90436 1.15609 0
M  V30 7224 H 754.111 3.76222 -1.17689 0
M  V30 7225 H 755.399 4.97497 -1.06648 0
M  V30 7226 H 754.797 5.25172 2.10264 0
M  V30 7227 H 753.354 6.18336 2.06164 0
M  V30 7228 N 756.787 0.722489 1.40064 0
M  V30 7229 C 757.75 0.0830209 2.2905 0
M  V30 7230 C 758.75 -0.680208 1.45705 0
M  V30 7231 O 759.94 -0.511084 1.66534 0
M  V30 7232 C 757.072 -0.892092 3.29021 0
M  V30 7233 H 758.265 0.866848 2.87099 0
M  V30 7234 H 755.818 0.487556 1.48501 0
M  V30 7235 H 756.553 -1.70273 2.76003 0
M  V30 7236 H 756.338 -0.34761 3.90556 0
M  V30 7237 H 757.828 -1.33648 3.95636 0
M  V30 7238 N 758.265 -1.50454 0.469181 0
M  V30 7239 C 759.676 -1.86695 0.0136034 0
M  V30 7240 C 760.027 -1.38413 -1.39055 0
M  V30 7241 O 759.152 -0.748294 -2.03051 0
M  V30 7242 C 759.747 -3.38795 0.0179098 0
M  V30 7243 C 758.306 -3.74455 -0.382191 0
M  V30 7244 C 757.453 -2.74338 0.404207 0
M  V30 7245 H 760.404 -1.43225 0.683547 0
M  V30 7246 H 760.425 -3.72321 -0.78468 0
M  V30 7247 H 759.937 -3.73906 1.04 0
M  V30 7248 H 758.038 -3.44944 -1.4087 0
M  V30 7249 H 758.151 -4.79025 -0.084862 0
M  V30 7250 H 756.515 -2.54305 -0.141829 0
M  V30 7251 H 757.298 -3.12293 1.42577 0
M  V30 7252 N 759.743 -0.201713 -1.56304 0
M  V30 7253 C 760.653 0.728296 -2.23009 0
M  V30 7254 C 761.669 1.22945 -1.23128 0
M  V30 7255 O 762.845 1.27523 -1.55884 0
M  V30 7256 C 759.91 1.92792 -2.88153 0
M  V30 7257 C 758.971 1.47068 -4.03323 0
M  V30 7258 C 758.204 2.61312 -4.65351 0
M  V30 7259 O 758.427 3.7896 -4.26317 0
M  V30 7260 O 757.361 2.33646 -5.54701 0
M  V30 7261 H 761.187 0.190166 -3.03104 0
M  V30 7262 H 758.772 0.0278725 -1.49374 0
M  V30 7263 H 760.654 2.6289 -3.29343 0
M  V30 7264 H 759.329 2.45452 -2.11033 0
M  V30 7265 H 758.236 0.738299 -3.66742 0
M  V30 7266 H 759.569 0.990666 -4.82127 0
M  V30 7267 N 761.222 1.57436 0.0718424 0
M  V30 7268 C 762.47 1.86878 0.769484 0
M  V30 7269 C 762.791 0.7937 1.78116 0
M  V30 7270 O 762.061 -0.177642 1.95093 0
M  V30 7271 H 760.641 0.689593 0.287177 0
M  V30 7272 H 763.303 1.94841 0.0479427 0
M  V30 7273 H 762.399 2.84387 1.28572 0
M  V30 7274 N 762.7 -0.34323 1.53817 0
M  V30 7275 C 763.663 -1.40444 1.8113 0
M  V30 7276 C 764.663 -1.45604 0.682366 0
M  V30 7277 O 765.853 -1.45974 0.950649 0
M  V30 7278 C 762.985 -2.79369 1.95361 0
M  V30 7279 H 764.178 -1.17489 2.75928 0
M  V30 7280 H 761.731 -0.577636 1.45234 0
M  V30 7281 H 762.466 -3.07607 1.02707 0
M  V30 7282 H 762.251 -2.7702 2.77493 0
M  V30 7283 H 763.741 -3.56178 2.18008 0
M  V30 7284 N 764.178 -1.45556 -0.604258 0
M  V30 7285 C 765.594 -1.30035 -0.925368 0
M  V30 7286 C 765.794 -0.255833 -1.99869 0
M  V30 7287 O 764.85 0.349076 -2.50075 0
M  V30 7288 C 766.163 -2.68028 -1.36314 0
M  V30 7289 C 767.711 -2.75951 -1.47717 0
M  V30 7290 C 768.186 -4.14476 -1.94868 0
M  V30 7291 N 769.677 -4.16787 -2.02097 0
M  V30 7292 C 770.412 -5.20845 -2.39809 0
M  V30 7293 N 769.908 -6.35246 -2.76467 0
M  V30 7294 N 771.701 -5.08204 -2.40177 0
M  V30 7295 H 763.852 -2.1214 0.10512 0
M  V30 7296 H 766.115 -0.947871 -0.0156303 0
M  V30 7297 H 765.821 -3.45667 -0.648628 0
M  V30 7298 H 765.695 -2.96711 -2.329 0
M  V30 7299 H 768.082 -1.98613 -2.18258 0
M  V30 7300 H 768.163 -2.50977 -0.494371 0
M  V30 7301 H 767.807 -4.923 -1.24912 0
M  V30 7302 H 767.737 -4.36843 -2.94068 0
M  V30 7303 H 770.228 -3.34233 -1.76343 0
M  V30 7304 H 770.541 -7.10438 -3.04134 0
M  V30 7305 H 768.886 -6.38642 -2.74155 0
M  V30 7306 H 772.077 -4.17874 -2.10947 0
M  V30 7307 H 772.25 -5.89417 -2.69242 0
M  V30 7308 N 765.656 0.84705 -1.32902 0
M  V30 7309 C 766.589 1.96038 -1.1681 0
M  V30 7310 C 767.567 1.62468 -0.0656144 0
M  V30 7311 O 768.751 1.87136 -0.226339 0
M  V30 7312 C 765.878 3.29362 -0.789839 0
M  V30 7313 C 764.924 3.81908 -1.89865 0
M  V30 7314 S 765.757 4.04576 -3.50826 0
M  V30 7315 C 766.913 5.40863 -3.14989 0
M  V30 7316 H 767.146 2.09387 -2.11055 0
M  V30 7317 H 764.679 0.999896 -1.1765 0
M  V30 7318 H 766.637 4.06405 -0.578369 0
M  V30 7319 H 765.298 3.13815 0.133878 0
M  V30 7320 H 764.491 4.78357 -1.58716 0
M  V30 7321 H 764.093 3.11733 -2.06636 0
M  V30 7322 H 766.385 6.23393 -2.65306 0
M  V30 7323 H 767.328 5.7698 -4.10488 0
M  V30 7324 H 767.736 5.05228 -2.51804 0
M  V30 7325 N 767.134 1.16236 1.06428 0
M  V30 7326 C 768.067 0.81119 2.13295 0
M  V30 7327 C 769.045 -0.216555 1.61151 0
M  V30 7328 O 770.229 -0.100949 1.88229 0
M  V30 7329 C 767.356 0.207901 3.38061 0
M  V30 7330 C 766.402 1.20904 4.09004 0
M  V30 7331 S 767.235 2.75513 4.59187 0
M  V30 7332 C 768.391 2.1663 5.87216 0
M  V30 7333 H 768.624 1.71632 2.42755 0
M  V30 7334 H 766.157 0.985693 1.18842 0
M  V30 7335 H 768.115 -0.133715 4.10282 0
M  V30 7336 H 766.776 -0.67497 3.06762 0
M  V30 7337 H 765.969 0.735326 4.98607 0
M  V30 7338 H 765.571 1.49567 3.42791 0
M  V30 7339 H 767.863 1.53413 6.59902 0
M  V30 7340 H 768.806 3.04437 6.39315 0
M  V30 7341 H 769.214 1.60565 5.41183 0
M  V30 7342 N 768.612 -1.24939 0.960631 0
M  V30 7343 C 770.028 -1.45039 0.666018 0
M  V30 7344 C 770.228 -1.86021 -0.774501 0
M  V30 7345 O 769.284 -1.99392 -1.54916 0
M  V30 7346 C 770.597 -2.51775 1.64408 0
M  V30 7347 C 772.145 -2.6561 1.65592 0
M  V30 7348 C 772.62 -3.75536 2.62177 0
M  V30 7349 N 774.111 -3.82954 2.60577 0
M  V30 7350 C 774.846 -4.67517 3.31987 0
M  V30 7351 N 774.342 -5.56321 4.1289 0
M  V30 7352 N 776.135 -4.61535 3.20845 0
M  V30 7353 H 768.286 -0.96632 1.89145 0
M  V30 7354 H 770.549 -0.486034 0.813926 0
M  V30 7355 H 770.255 -2.28534 2.67329 0
M  V30 7356 H 770.129 -3.49804 1.41128 0
M  V30 7357 H 772.516 -2.88212 0.633846 0
M  V30 7358 H 772.597 -1.67962 1.92931 0
M  V30 7359 H 772.241 -3.53684 3.64514 0
M  V30 7360 H 772.171 -4.72682 2.32119 0
M  V30 7361 H 774.662 -3.19478 2.01847 0
M  V30 7362 H 774.975 -6.17787 4.64283 0
M  V30 7363 H 773.32 -5.5601 4.16987 0
M  V30 7364 H 776.511 -3.91169 2.57108 0
M  V30 7365 H 776.684 -5.27214 3.76762 0
M  V30 7366 N 770.09 -0.729906 -1.39679 0
M  V30 7367 C 771.338 -0.275077 -2.00219 0
M  V30 7368 C 771.659 1.1401 -1.58199 0
M  V30 7369 O 770.929 1.77546 -0.827904 0
M  V30 7370 H 769.509 -0.0987127 -0.740449 0
M  V30 7371 H 772.171 -0.93873 -1.70804 0
M  V30 7372 H 771.267 -0.319446 -3.10461 0
M  V30 7373 N 771.568 1.50203 -0.477153 0
M  V30 7374 C 772.979 1.86685 -0.0235041 0
M  V30 7375 C 773.33 1.39148 1.38319 0
M  V30 7376 O 772.455 0.759051 2.02651 0
M  V30 7377 C 773.05 3.38781 -0.0358767 0
M  V30 7378 C 771.609 3.74652 0.362327 0
M  V30 7379 C 770.756 2.7412 -0.41875 0
M  V30 7380 H 773.707 1.4286 -0.691133 0
M  V30 7381 H 773.728 3.72732 0.764924 0
M  V30 7382 H 773.24 3.73349 -1.05981 0
M  V30 7383 H 771.341 3.45686 1.39039 0
M  V30 7384 H 771.454 4.79063 0.059457 0
M  V30 7385 H 769.818 2.54376 0.128341 0
M  V30 7386 H 770.601 3.11532 -1.44231 0
M  V30 7387 N 773.046 0.209999 1.56195 0
M  V30 7388 C 774.292 -0.425442 1.98287 0
M  V30 7389 C 774.625 -1.60232 1.09724 0
M  V30 7390 O 773.9 -1.93902 0.152414 0
M  V30 7391 C 774.183 -0.871189 3.49403 0
M  V30 7392 C 774.036 0.308527 4.48741 0
M  V30 7393 C 775.355 -1.73146 4.04609 0
M  V30 7394 H 772.474 -0.153169 0.720908 0
M  V30 7395 H 775.116 0.303916 1.87554 0
M  V30 7396 H 773.266 -1.49266 3.58681 0
M  V30 7397 H 774.938 0.946487 4.51486 0
M  V30 7398 H 773.181 0.957878 4.23092 0
M  V30 7399 H 773.852 -0.0461143 5.51981 0
M  V30 7400 H 776.328 -1.2072 3.98203 0
M  V30 7401 H 775.204 -2.01228 5.10684 0
M  V30 7402 H 775.465 -2.69083 3.5078 0
M  V30 7403 N 774.524 -1.57472 -0.0634922 0
M  V30 7404 C 775.456 -2.00999 -1.10145 0
M  V30 7405 C 776.469 -0.917219 -1.34503 0
M  V30 7406 O 777.658 -1.19501 -1.32596 0
M  V30 7407 C 774.758 -2.34089 -2.45063 0
M  V30 7408 C 773.931 -3.65317 -2.40546 0
M  V30 7409 C 772.99 -3.85982 -3.57637 0
M  V30 7410 O 772.016 -4.5747 -3.38689 0
M  V30 7411 N 773.218 -3.28971 -4.78287 0
M  V30 7412 H 775.983 -2.90656 -0.730714 0
M  V30 7413 H 773.544 -1.59926 -0.252017 0
M  V30 7414 H 775.536 -2.4508 -3.22053 0
M  V30 7415 H 774.106 -1.50279 -2.74107 0
M  V30 7416 H 773.326 -3.65003 -1.48885 0
M  V30 7417 H 774.614 -4.51468 -2.34636 0
M  V30 7418 H 774.012 -2.70962 -4.96584 0
M  V30 7419 H 772.569 -3.45398 -5.5276 0
M  V30 7420 N 776.003 0.335068 -1.53997 0
M  V30 7421 C 777.251 1.07223 -1.71312 0
M  V30 7422 C 777.572 1.88911 -0.483486 0
M  V30 7423 O 776.842 1.89344 0.50257 0
M  V30 7424 H 775.422 0.398846 -0.63161 0
M  V30 7425 H 778.084 0.374288 -1.91272 0
M  V30 7426 H 777.18 1.7448 -2.58772 0
M  V30 7427 N 777.481 1.45874 0.596531 0
M  V30 7428 C 778.706 1.54247 1.38646 0
M  V30 7429 C 779.131 0.179571 1.87241 0
M  V30 7430 O 778.489 -0.837831 1.6078 0
M  V30 7431 C 778.537 2.54015 2.55946 0
M  V30 7432 O 777.641 2.06561 3.5694 0
M  V30 7433 H 776.982 0.519555 0.413471 0
M  V30 7434 H 779.512 1.91327 0.724936 0
M  V30 7435 H 779.522 2.73179 3.03047 0
M  V30 7436 H 778.197 3.52994 2.19928 0
M  V30 7437 H 776.774 1.97324 3.16414 0
M  V30 7438 N 778.959 -0.83999 1.33349 0
M  V30 7439 C 780.207 -1.59202 1.24496 0
M  V30 7440 C 780.528 -1.94077 -0.189499 0
M  V30 7441 O 779.798 -1.60868 -1.11796 0
M  V30 7442 H 778.378 -0.590276 0.457802 0
M  V30 7443 H 781.04 -1.00394 1.67054 0
M  V30 7444 H 780.136 -2.52247 1.83788 0
M  V30 7445 N 780.437 -1.16799 -1.0581 0
M  V30 7446 C 781.347 -0.893492 -2.16919 0
M  V30 7447 C 782.363 0.136061 -1.73467 0
M  V30 7448 O 783.539 -0.0417348 -2.01357 0
M  V30 7449 C 780.604 -0.403763 -3.44341 0
M  V30 7450 C 779.665 -1.49914 -4.02274 0
M  V30 7451 C 778.898 -1.03269 -5.23614 0
M  V30 7452 O 779.121 0.115647 -5.70283 0
M  V30 7453 O 778.055 -1.8231 -5.73626 0
M  V30 7454 H 781.881 -1.82274 -2.42919 0
M  V30 7455 H 779.466 -0.948361 -1.1544 0
M  V30 7456 H 781.348 -0.137874 -4.21174 0
M  V30 7457 H 780.023 0.497413 -3.19855 0
M  V30 7458 H 778.93 -1.81883 -3.26909 0
M  V30 7459 H 780.263 -2.3758 -4.31064 0
M  V30 7460 N 781.915 1.24427 -0.967243 0
M  V30 7461 C 782.845 2.2773 -0.515899 0
M  V30 7462 C 783.826 1.64197 0.444227 0
M  V30 7463 O 785.011 1.91193 0.340451 0
M  V30 7464 C 782.141 3.46751 0.195149 0
M  V30 7465 C 781.095 4.22548 -0.680953 0
M  V30 7466 C 780.421 5.34456 0.161561 0
M  V30 7467 C 781.721 4.83914 -1.96532 0
M  V30 7468 H 783.415 2.65735 -1.37933 0
M  V30 7469 H 780.961 1.27742 -0.664681 0
M  V30 7470 H 782.914 4.18153 0.522117 0
M  V30 7471 H 781.638 3.07771 1.09292 0
M  V30 7472 H 780.297 3.52946 -0.991186 0
M  V30 7473 H 779.945 4.91716 1.05947 0
M  V30 7474 H 779.645 5.86087 -0.421418 0
M  V30 7475 H 781.169 6.08685 0.483211 0
M  V30 7476 H 782.583 5.47392 -1.70396 0
M  V30 7477 H 780.98 5.45775 -2.49499 0
M  V30 7478 H 782.05 4.05393 -2.66053 0
M  V30 7479 N 783.393 0.737304 1.3929 0
M  V30 7480 C 784.303 0.100464 2.34385 0
M  V30 7481 C 785.319 -0.719282 1.58437 0
M  V30 7482 O 786.495 -0.647216 1.90717 0
M  V30 7483 C 783.56 -0.794325 3.37478 0
M  V30 7484 C 782.621 0.0379345 4.29283 0
M  V30 7485 C 781.854 -0.814241 5.27452 0
M  V30 7486 O 782.077 -2.05288 5.32177 0
M  V30 7487 O 781.011 -0.241679 6.01415 0
M  V30 7488 H 784.837 0.885407 2.90507 0
M  V30 7489 H 782.422 0.497999 1.40856 0
M  V30 7490 H 784.304 -1.30622 4.00644 0
M  V30 7491 H 782.979 -1.55804 2.83737 0
M  V30 7492 H 781.886 0.595405 3.69331 0
M  V30 7493 H 783.219 0.763926 4.86236 0
M  V30 7494 N 784.871 -1.49948 0.485112 0
M  V30 7495 C 786.111 -2.04301 -0.0635728 0
M  V30 7496 C 786.475 -1.35804 -1.35725 0
M  V30 7497 O 787.676 -1.80789 -1.98919 0
M  V30 7498 C 785.947 -3.56666 -0.228962 0
M  V30 7499 S 787.506 -4.32614 -0.734185 0
M  V30 7500 H 784.324 -0.710939 -0.00931895 0
M  V30 7501 H 786.926 -1.84185 0.655455 0
M  V30 7502 H 785.63 -4.04068 0.718148 0
M  V30 7503 H 785.161 -3.8116 -0.973696 0
M  V30 7504 H 787.176 -4.53859 -2.00565 0
M  V30 7505 N 786.349 -0.21828 -1.56081 0
M  V30 7506 C 787.574 0.422302 -2.03055 0
M  V30 7507 C 787.999 1.5279 -1.09713 0
M  V30 7508 O 787.357 1.81102 -0.0847187 0
M  V30 7509 C 787.405 0.934177 -3.48289 0
M  V30 7510 O 786.509 2.04574 -3.58083 0
M  V30 7511 H 785.85 0.0959764 -0.657027 0
M  V30 7512 H 788.38 -0.335958 -2.01823 0
M  V30 7513 H 788.39 1.24484 -3.88546 0
M  V30 7514 H 787.065 0.124963 -4.15712 0
M  V30 7515 H 785.642 1.74196 -3.29712 0
M  V30 7516 N 787.827 1.57504 0.0551401 0
M  V30 7517 C 789.073 1.89191 0.74688 0
M  V30 7518 C 789.428 0.813936 1.74335 0
M  V30 7519 O 788.721 -0.180217 1.90751 0
M  V30 7520 C 788.915 3.25311 1.48013 0
M  V30 7521 C 788.744 4.46247 0.556176 0
M  V30 7522 C 787.514 5.04954 0.186891 0
M  V30 7523 C 789.712 5.14068 -0.154295 0
M  V30 7524 N 787.694 6.09411 -0.741041 0
M  V30 7525 C 789.065 6.12851 -0.938809 0
M  V30 7526 C 791.12 4.97396 -0.224007 0
M  V30 7527 C 789.823 6.96759 -1.78658 0
M  V30 7528 C 791.849 5.81845 -1.05881 0
M  V30 7529 C 791.211 6.80178 -1.83133 0
M  V30 7530 H 787.31 0.741562 0.248213 0
M  V30 7531 H 789.894 1.94698 0.00777734 0
M  V30 7532 H 788.065 3.20781 2.18985 0
M  V30 7533 H 789.797 3.44594 2.12219 0
M  V30 7534 H 786.552 4.70472 0.543415 0
M  V30 7535 H 786.976 6.66303 -1.19874 0
M  V30 7536 H 791.618 4.21274 0.358924 0
M  V30 7537 H 789.336 7.72245 -2.38042 0
M  V30 7538 H 792.922 5.70997 -1.11595 0
M  V30 7539 H 791.802 7.44389 -2.46687 0
M  V30 7540 N 789.305 -0.326896 1.54172 0
M  V30 7541 C 790.551 -1.06681 1.72473 0
M  V30 7542 C 790.884 -1.87779 0.49523 0
M  V30 7543 O 790.159 -1.87754 -0.507803 0
M  V30 7544 C 790.442 -1.99429 2.99834 0
M  V30 7545 C 790.295 -1.21682 4.33028 0
M  V30 7546 C 791.614 -2.99002 3.22933 0
M  V30 7547 H 788.733 -0.386438 0.627563 0
M  V30 7548 H 791.375 -0.343779 1.86864 0
M  V30 7549 H 789.525 -2.61081 2.87696 0
M  V30 7550 H 791.197 -0.625153 4.57044 0
M  V30 7551 H 789.44 -0.519045 4.30684 0
M  V30 7552 H 790.111 -1.89766 5.18356 0
M  V30 7553 H 792.587 -2.4747 3.34511 0
M  V30 7554 H 791.463 -3.61085 4.13412 0
M  V30 7555 H 791.724 -3.71281 2.40006 0
M  V30 7556 N 790.784 -1.46188 -0.588786 0
M  V30 7557 C 791.716 -1.52319 -1.71265 0
M  V30 7558 C 792.729 -0.412096 -1.57498 0
M  V30 7559 O 793.918 -0.680146 -1.65034 0
M  V30 7560 C 791.018 -1.38164 -3.09458 0
M  V30 7561 C 790.191 -2.63284 -3.49286 0
M  V30 7562 C 789.25 -2.43415 -4.66514 0
M  V30 7563 O 788.276 -3.17113 -4.72682 0
M  V30 7564 N 789.478 -1.49187 -5.61002 0
M  V30 7565 H 792.243 -2.49219 -1.66463 0
M  V30 7566 H 789.804 -1.42167 -0.774601 0
M  V30 7567 H 791.796 -1.22653 -3.85666 0
M  V30 7568 H 790.366 -0.494678 -3.08661 0
M  V30 7569 H 789.586 -2.93779 -2.62845 0
M  V30 7570 H 790.874 -3.46413 -3.7266 0
M  V30 7571 H 790.272 -0.884027 -5.5875 0
M  V30 7572 H 788.829 -1.39642 -6.36666 0
M  V30 7573 N 792.262 0.832906 -1.33792 0
M  V30 7574 C 793.225 1.92471 -1.24449 0
M  V30 7575 C 794.225 1.59981 -0.162085 0
M  V30 7576 O 795.415 1.69208 -0.414029 0
M  V30 7577 C 792.547 3.28278 -0.919044 0
M  V30 7578 H 793.74 2.0218 -2.21502 0
M  V30 7579 H 791.293 1.0257 -1.17936 0
M  V30 7580 H 792.028 3.24263 0.048738 0
M  V30 7581 H 791.813 3.53241 -1.70187 0
M  V30 7582 H 793.303 4.08253 -0.878576 0
M  V30 7583 N 793.74 1.17359 1.05189 0
M  V30 7584 C 794.98 0.972812 1.79766 0
M  V30 7585 C 795.344 -0.489832 1.85647 0
M  V30 7586 O 796.545 -0.809682 2.56315 0
M  V30 7587 C 794.816 1.59636 3.19767 0
M  V30 7588 S 796.375 1.54178 4.10822 0
M  V30 7589 H 793.193 0.34959 0.619119 0
M  V30 7590 H 795.795 1.49304 1.26209 0
M  V30 7591 H 794.499 2.65336 3.13089 0
M  V30 7592 H 794.03 1.07594 3.78401 0
M  V30 7593 H 796.045 0.549785 4.93145 0
M  V30 7594 O 795.257 -1.17967 1.103 0
M  V30 7595 H 795.948 -1.76242 0.803645 0
M  V30 END ATOM
M  V30 BEGIN BOND
M  V30 END BOND
M  V30 END CTAB
M  END
$$$$
