drugbank_target|O00264 Membrane-associated progesterone receptor component 1 (DB00540; DB01104)
 OpenBabel12092120593D

  0  0  0     0  0            999 V3000
M  V30 BEGIN CTAB
M  V30 COUNTS 3001 3034 0 0 0
M  V30 BEGIN ATOM
M  V30 1 H -0.908 1.98254 -0.117106 0
M  V30 2 N 0 1.576 0 0
M  V30 3 C 0.933 2.03868 1.02534 0
M  V30 4 C 1.911 0.928543 1.3348 0
M  V30 5 O 3.095 1.19667 1.45644 0
M  V30 6 C 0.222 2.43627 2.35294 0
M  V30 7 C -0.732 3.65373 2.2001 0
M  V30 8 S 0.101 5.13292 1.52614 0
M  V30 9 C 1.257 5.56322 2.86805 0
M  V30 10 H 1.49 2.90518 0.631377 0
M  V30 11 H -0.977 1.52953 0.210867 0
M  V30 12 H 0.981 2.67203 3.11629 0
M  V30 13 H -0.358 1.57376 2.7183 0
M  V30 14 H -1.165 3.90944 3.18086 0
M  V30 15 H -1.563 3.418 1.51819 0
M  V30 16 H 0.729 5.58782 3.83104 0
M  V30 17 H 1.672 6.56266 2.65933 0
M  V30 18 H 2.08 4.83886 2.90714 0
M  V30 19 N 1.4781 -0.272755 1.55222 0
M  V30 20 C 2.4411 -1.32041 1.87344 0
M  V30 21 C 3.4411 -1.42342 0.74803 0
M  V30 22 O 4.6311 -1.41488 1.0162 0
M  V30 23 C 1.7631 -2.70173 2.07893 0
M  V30 24 H 2.9561 -1.04789 2.80997 0
M  V30 25 H 0.5091 -0.51083 1.47717 0
M  V30 26 H 1.2441 -3.02605 1.16622 0
M  V30 27 H 1.0291 -2.64082 2.89833 0
M  V30 28 H 2.5191 -3.45869 2.34017 0
M  V30 29 N 2.9562 -1.48159 -0.537278 0
M  V30 30 C 3.9192 -1.61665 -1.62472 0
M  V30 31 C 4.9192 -0.490395 -1.5314 0
M  V30 32 O 6.1092 -0.755998 -1.5694 0
M  V30 33 C 3.2412 -1.57997 -3.02076 0
M  V30 34 H 4.4342 -2.58621 -1.51839 0
M  V30 35 H 1.9872 -1.36647 -0.758771 0
M  V30 36 H 2.7222 -0.624913 -3.18222 0
M  V30 37 H 2.5072 -2.39755 -3.10258 0
M  V30 38 H 3.9972 -1.70627 -3.81151 0
M  V30 39 N 4.4343 0.785586 -1.36625 0
M  V30 40 C 5.3443 1.92964 -1.33425 0
M  V30 41 C 6.3603 1.72394 -0.235851 0
M  V30 42 O 7.5363 1.95866 -0.468878 0
M  V30 43 C 4.6013 3.27884 -1.12662 0
M  V30 44 C 3.6623 3.61204 -2.32013 0
M  V30 45 C 2.8953 4.89687 -2.12231 0
M  V30 46 O 3.1183 5.59704 -1.09945 0
M  V30 47 O 2.0523 5.21752 -3.00098 0
M  V30 48 H 5.8783 1.98613 -2.29753 0
M  V30 49 H 3.4633 0.926384 -1.17211 0
M  V30 50 H 5.3453 4.08614 -1.03016 0
M  V30 51 H 4.0203 3.23118 -0.193991 0
M  V30 52 H 2.9273 2.80765 -2.47228 0
M  V30 53 H 4.2603 3.70698 -3.23796 0
M  V30 54 N 5.9124 1.20967 1.01018 0
M  V30 55 C 7.1894 0.93264 1.71934 0
M  V30 56 C 7.5694 -0.55692 2.03621 0
M  V30 57 O 6.9174 -1.52035 1.7058 0
M  V30 58 C 7.1274 1.81233 2.98254 0
M  V30 59 C 8.4754 2.05804 3.71389 0
M  V30 60 O 9.4994 1.78539 3.08225 0
M  V30 61 O 8.3584 2.51888 4.84989 0
M  V30 62 H 5.4524 0.349272 0.749625 0
M  V30 63 H 7.9984 1.31871 1.06808 0
M  V30 64 H 6.7704 2.82067 2.71208 0
M  V30 65 H 6.3934 1.42674 3.7112 0
M  V30 66 N 7.3905 -1.2043 1.01659 0
M  V30 67 C 8.6365 -1.90079 0.706963 0
M  V30 68 C 8.9695 -1.78648 -0.761474 0
M  V30 69 O 8.2445 -1.17069 -1.55323 0
M  V30 70 C 8.5275 -3.41469 1.14327 0
M  V30 71 C 8.3805 -3.61833 2.67201 0
M  V30 72 C 9.6995 -4.34261 0.714529 0
M  V30 73 H 6.8185 -0.690254 0.2583 0
M  V30 74 H 9.4605 -1.41826 1.26433 0
M  V30 75 H 7.6105 -3.82696 0.669056 0
M  V30 76 H 9.2825 -3.2986 3.22475 0
M  V30 77 H 7.5255 -3.05304 3.08175 0
M  V30 78 H 8.1965 -4.67955 2.92783 0
M  V30 79 H 10.6725 -4.00682 1.12221 0
M  V30 80 H 9.5485 -5.38806 1.04784 0
M  V30 81 H 9.8095 -4.40431 -0.383799 0
M  V30 82 N 8.8686 -0.792821 -1.36206 0
M  V30 83 C 10.1146 -0.36733 -1.99446 0
M  V30 84 C 10.4476 1.05917 -1.62774 0
M  V30 85 O 9.7226 1.7324 -0.88421 0
M  V30 86 C 10.0056 -0.535044 -3.56103 0
M  V30 87 C 9.8586 -2.00548 -4.02617 0
M  V30 88 C 11.1776 0.0478191 -4.40074 0
M  V30 89 H 8.2966 -0.134941 -0.724541 0
M  V30 90 H 10.9386 -0.999794 -1.61568 0
M  V30 91 H 9.0886 0.00336329 -3.885 0
M  V30 92 H 10.7606 -2.60521 -3.80692 0
M  V30 93 H 9.0036 -2.50686 -3.54032 0
M  V30 94 H 9.6746 -2.07377 -5.11565 0
M  V30 95 H 12.1506 -0.411822 -4.14057 0
M  V30 96 H 11.0266 -0.0995336 -5.4881 0
M  V30 97 H 11.2876 1.14025 -4.27142 0
M  V30 98 N 10.3467 1.47872 -0.545128 0
M  V30 99 C 11.3097 2.28337 0.198717 0
M  V30 100 C 12.3097 1.36255 0.853888 0
M  V30 101 O 13.4997 1.59003 0.711606 0
M  V30 102 C 10.6317 3.15585 1.28915 0
M  V30 103 H 11.8247 2.95567 -0.507941 0
M  V30 104 H 9.3777 1.53362 -0.301616 0
M  V30 105 H 10.1127 2.53019 2.02859 0
M  V30 106 H 9.8977 3.83337 0.824309 0
M  V30 107 H 11.3877 3.76243 1.81194 0
M  V30 108 N 11.8248 0.280983 1.55075 0
M  V30 109 C 13.0528 -0.337293 2.04132 0
M  V30 110 C 13.4678 -1.4903 1.15912 0
M  V30 111 O 12.8248 -1.81606 0.180459 0
M  V30 112 C 12.8758 -0.812706 3.52246 0
M  V30 113 O 12.5968 0.294387 4.3711 0
M  V30 114 C 14.0978 -1.4982 4.17216 0
M  V30 115 H 11.3178 -0.0761638 0.666663 0
M  V30 116 H 13.8618 0.414787 2.00249 0
M  V30 117 H 12.0168 -1.51486 3.56554 0
M  V30 118 H 12.4308 -0.0721325 5.2445 0
M  V30 119 H 13.9048 -1.7822 5.22438 0
M  V30 120 H 14.3818 -2.43168 3.65741 0
M  V30 121 H 14.9878 -0.839742 4.16927 0
M  V30 122 N 13.3029 -1.57598 0.00835791 0
M  V30 123 C 14.5509 -1.90551 -0.6734 0
M  V30 124 C 14.8719 -0.883301 -1.73847 0
M  V30 125 O 14.1419 0.0781442 -1.95744 0
M  V30 126 H 12.7219 -0.703312 -0.251717 0
M  V30 127 H 15.3839 -1.94833 0.0512592 0
M  V30 128 H 14.4799 -2.9056 -1.13935 0
M  V30 129 N 14.781 0.264519 -1.55364 0
M  V30 130 C 15.744 1.31046 -1.88042 0
M  V30 131 C 16.744 1.41943 -0.755569 0
M  V30 132 O 17.934 1.40947 -1.02369 0
M  V30 133 C 15.066 2.69067 -2.09323 0
M  V30 134 H 16.259 1.03297 -2.81549 0
M  V30 135 H 13.812 0.502989 -1.47986 0
M  V30 136 H 14.547 3.01982 -1.18226 0
M  V30 137 H 14.332 2.62542 -2.91229 0
M  V30 138 H 15.822 3.44623 -2.35848 0
M  V30 139 N 16.2591 1.48442 0.529413 0
M  V30 140 C 17.5361 1.46978 1.29062 0
M  V30 141 C 17.9161 0.181769 2.10316 0
M  V30 142 O 17.2641 -0.836481 2.12639 0
M  V30 143 C 17.4741 2.7321 2.17157 0
M  V30 144 C 18.8221 3.21562 2.77278 0
M  V30 145 O 19.8461 2.74131 2.27444 0
M  V30 146 O 18.7051 4.04094 3.67927 0
M  V30 147 H 15.7991 0.587003 0.582543 0
M  V30 148 H 18.3451 1.60676 0.546021 0
M  V30 149 H 17.1171 3.58465 1.56903 0
M  V30 150 H 16.7401 2.62235 2.98862 0
M  V30 151 N 17.7372 -0.778329 1.37039 0
M  V30 152 C 19.1482 -1.35421 1.28523 0
M  V30 153 C 19.4992 -1.96075 -0.0700901 0
M  V30 154 O 18.6242 -1.93352 -0.971801 0
M  V30 155 C 19.2192 -2.46211 2.32735 0
M  V30 156 C 17.7782 -2.99585 2.27873 0
M  V30 157 C 16.9252 -1.72748 2.16918 0
M  V30 158 H 19.8762 -0.5791 1.47757 0
M  V30 159 H 19.8972 -3.2552 1.9702 0
M  V30 160 H 19.4092 -2.02036 3.31365 0
M  V30 161 H 17.5102 -3.48152 1.32745 0
M  V30 162 H 17.6232 -3.55646 3.21018 0
M  V30 163 H 15.9872 -1.95416 1.63354 0
M  V30 164 H 16.7702 -1.30686 3.17452 0
M  V30 165 N 19.2153 -1.21501 -1.00376 0
M  V30 166 C 20.4403 -1.05977 -1.78279 0
M  V30 167 C 20.8653 0.385994 -1.84097 0
M  V30 168 O 20.2233 1.27849 -1.28547 0
M  V30 169 C 20.2713 -1.66302 -3.19963 0
M  V30 170 O 19.3753 -0.909333 -4.0225 0
M  V30 171 H 18.7163 -0.372906 -0.549397 0
M  V30 172 H 21.2463 -1.6107 -1.26165 0
M  V30 173 H 21.2563 -1.70574 -3.70632 0
M  V30 174 H 19.9313 -2.71515 -3.15043 0
M  V30 175 H 18.5083 -0.941795 -3.60811 0
M  V30 176 N 20.6934 1.19889 -1.02296 0
M  V30 177 C 21.9704 1.85148 -0.630832 0
M  V30 178 C 22.3504 1.91385 0.890782 0
M  V30 179 O 21.6984 1.42642 1.78509 0
M  V30 180 C 21.9084 3.24442 -1.28602 0
M  V30 181 C 23.2564 4.00663 -1.4055 0
M  V30 182 O 24.2804 3.33818 -1.24273 0
M  V30 183 O 23.1394 5.20387 -1.66913 0
M  V30 184 H 20.2334 0.797613 -0.218499 0
M  V30 185 H 22.7794 1.27427 -1.12074 0
M  V30 186 H 21.5514 3.14704 -2.32545 0
M  V30 187 H 21.1744 3.89802 -0.7836 0
M  V30 188 N 22.1715 0.800033 1.35784 0
M  V30 189 C 23.1015 0.220184 2.3246 0
M  V30 190 C 24.0825 -0.65073 1.57161 0
M  V30 191 O 25.2675 -0.582359 1.85263 0
M  V30 192 C 22.3975 -0.637353 3.41402 0
M  V30 193 C 21.3515 0.134531 4.27789 0
M  V30 194 C 20.6775 -0.844285 5.27992 0
M  V30 195 C 21.9775 1.32979 5.05088 0
M  V30 196 H 23.6715 1.02787 2.81203 0
M  V30 197 H 21.2175 0.495717 1.35199 0
M  V30 198 H 23.1705 -1.05302 4.08031 0
M  V30 199 H 21.8945 -1.47785 2.91251 0
M  V30 200 H 20.5535 0.531296 3.6273 0
M  V30 201 H 20.2015 -1.68011 4.74111 0
M  V30 202 H 19.9015 -0.332184 5.8666 0
M  V30 203 H 21.4255 -1.2583 5.97494 0
M  V30 204 H 22.8395 0.98934 5.64699 0
M  V30 205 H 21.2365 1.77593 5.7322 0
M  V30 206 H 22.3065 2.11978 4.36111 0
M  V30 207 N 23.6496 -1.47581 0.552962 0
M  V30 208 C 24.5596 -2.33743 -0.200353 0
M  V30 209 C 25.5756 -1.47928 -0.916151 0
M  V30 210 O 26.7516 -1.80865 -0.885993 0
M  V30 211 C 23.8166 -3.24536 -1.21973 0
M  V30 212 C 22.8776 -4.26238 -0.511819 0
M  V30 213 C 22.1106 -5.12693 -1.48263 0
M  V30 214 O 22.3336 -5.01525 -2.71714 0
M  V30 215 O 21.2676 -5.93375 -1.00945 0
M  V30 216 H 25.0936 -2.9945 0.506304 0
M  V30 217 H 22.6786 -1.46071 0.313622 0
M  V30 218 H 24.5606 -3.80631 -1.80827 0
M  V30 219 H 23.2356 -2.61462 -1.90839 0
M  V30 220 H 22.1426 -3.73914 0.117799 0
M  V30 221 H 23.4756 -4.92014 0.135308 0
M  V30 222 N 25.1277 -0.289203 -1.54924 0
M  V30 223 C 26.3527 0.329299 -2.04769 0
M  V30 224 C 26.7777 1.4763 -1.16564 0
M  V30 225 O 26.1357 1.80527 -0.167186 0
M  V30 226 C 26.1837 0.774438 -3.52186 0
M  V30 227 O 25.2877 1.88038 -3.67036 0
M  V30 228 H 24.6287 0.0659259 -0.660719 0
M  V30 229 H 27.1587 -0.42761 -2.00082 0
M  V30 230 H 27.1687 1.06642 -3.93816 0
M  V30 231 H 25.8437 -0.0646707 -4.1585 0
M  V30 232 H 24.4207 1.58985 -3.3731 0
M  V30 233 N 26.6058 1.57591 -0.0167156 0
M  V30 234 C 27.8538 1.90906 0.663285 0
M  V30 235 C 28.1748 0.892509 1.73376 0
M  V30 236 O 27.4448 -0.0677623 1.95783 0
M  V30 237 H 26.0248 0.704637 0.247983 0
M  V30 238 H 28.6868 1.94803 -0.0615909 0
M  V30 239 H 27.7828 2.9116 1.12393 0
M  V30 240 N 28.0839 -0.256276 1.55502 0
M  V30 241 C 29.3319 -0.983672 1.76545 0
M  V30 242 C 29.6529 -1.86206 0.578982 0
M  V30 243 O 28.9229 -1.91656 -0.405577 0
M  V30 244 H 27.5029 -0.366191 0.651086 0
M  V30 245 H 30.1649 -0.276479 1.92929 0
M  V30 246 H 29.2609 -1.61087 2.67315 0
M  V30 247 N 29.562 -1.4872 -0.521534 0
M  V30 248 C 30.492 -1.66771 -1.63431 0
M  V30 249 C 31.473 -0.516499 -1.62069 0
M  V30 250 O 32.658 -0.750013 -1.79132 0
M  V30 251 C 29.788 -1.71515 -3.01993 0
M  V30 252 C 28.742 -2.86222 -3.18216 0
M  V30 253 C 28.068 -2.76061 -4.57924 0
M  V30 254 C 29.368 -4.27419 -3.00184 0
M  V30 255 H 31.062 -2.59932 -1.48579 0
M  V30 256 H 28.608 -1.25089 -0.713358 0
M  V30 257 H 30.561 -1.82731 -3.7972 0
M  V30 258 H 29.285 -0.749393 -3.17886 0
M  V30 259 H 27.944 -2.74575 -2.42908 0
M  V30 260 H 27.592 -1.77437 -4.70665 0
M  V30 261 H 27.292 -3.53037 -4.69722 0
M  V30 262 H 28.816 -2.89256 -5.37739 0
M  V30 263 H 30.23 -4.39855 -3.67697 0
M  V30 264 H 28.627 -5.05458 -3.2347 0
M  V30 265 H 29.697 -4.43293 -1.96518 0
M  V30 266 N 31.0401 0.771051 -1.3745 0
M  V30 267 C 31.9701 1.89827 -1.3597 0
M  V30 268 C 32.9511 1.68562 -0.228216 0
M  V30 269 O 34.1361 1.8941 -0.428675 0
M  V30 270 C 31.2661 3.2712 -1.16662 0
M  V30 271 C 30.2201 3.6295 -2.2683 0
M  V30 272 C 29.5461 4.98791 -1.92644 0
M  V30 273 C 30.8461 3.69627 -3.69017 0
M  V30 274 H 32.5401 1.91323 -2.30295 0
M  V30 275 H 30.0861 0.919082 -1.10855 0
M  V30 276 H 32.0391 4.05615 -1.14256 0
M  V30 277 H 30.7631 3.26059 -0.187926 0
M  V30 278 H 29.4221 2.86763 -2.28392 0
M  V30 279 H 29.0701 4.94271 -0.933021 0
M  V30 280 H 28.7701 5.23733 -2.66416 0
M  V30 281 H 30.2941 5.79685 -1.91826 0
M  V30 282 H 31.7081 4.38273 -3.69581 0
M  V30 283 H 30.1051 4.06067 -4.41848 0
M  V30 284 H 31.1751 2.70273 -4.02592 0
M  V30 285 N 32.5182 1.22032 0.997298 0
M  V30 286 C 33.4682 0.953838 2.07089 0
M  V30 287 C 34.4522 -0.0938669 1.60626 0
M  V30 288 O 35.6442 0.116078 1.76619 0
M  V30 289 C 32.7732 0.528726 3.39204 0
M  V30 290 C 31.8592 1.61092 3.92314 0
M  V30 291 N 32.2502 2.83768 4.18699 0
M  V30 292 C 30.5482 1.48158 4.20672 0
M  V30 293 C 31.2492 3.53715 4.61802 0
M  V30 294 N 30.2252 2.81174 4.65233 0
M  V30 295 H 34.0272 1.88577 2.25424 0
M  V30 296 H 31.5412 1.11719 1.17867 0
M  V30 297 H 33.5382 0.31915 4.15677 0
M  V30 298 H 32.1982 -0.39635 3.22272 0
M  V30 299 H 33.2092 3.20238 4.07023 0
M  V30 300 H 29.8862 0.622369 4.12835 0
M  V30 301 H 31.2762 4.58793 4.90875 0
M  V30 302 N 33.9963 -1.19345 1.0293 0
M  V30 303 C 34.9063 -2.26245 0.620515 0
M  V30 304 C 35.9223 -1.70486 -0.347928 0
M  V30 305 O 37.0983 -2.00347 -0.205704 0
M  V30 306 C 34.1633 -3.46693 -0.0218957 0
M  V30 307 C 33.2243 -4.17632 0.994102 0
M  V30 308 C 32.4573 -5.32329 0.382253 0
M  V30 309 O 32.6803 -5.64552 -0.814676 0
M  V30 310 O 31.6143 -5.91664 1.10531 0
M  V30 311 H 35.4403 -2.63453 1.51083 0
M  V30 312 H 33.0253 -1.26207 0.799513 0
M  V30 313 H 34.9073 -4.19683 -0.380072 0
M  V30 314 H 33.5823 -3.11333 -0.886209 0
M  V30 315 H 32.4893 -3.4676 1.40387 0
M  V30 316 H 33.8223 -4.56964 1.8288 0
M  V30 317 N 35.4744 -0.807222 -1.35358 0
M  V30 318 C 36.7234 -0.384376 -1.98004 0
M  V30 319 C 37.0364 1.0543 -1.64754 0
M  V30 320 O 38.2424 1.58029 -2.20769 0
M  V30 321 C 36.6984 -0.636326 -3.5423 0
M  V30 322 C 36.3064 -2.08759 -3.96388 0
M  V30 323 C 38.0504 -0.278869 -4.23583 0
M  V30 324 C 35.9574 -2.28525 -5.45463 0
M  V30 325 H 34.8874 -0.139986 -0.740891 0
M  V30 326 H 37.5384 -0.991369 -1.54415 0
M  V30 327 H 35.9204 0.0406256 -3.95979 0
M  V30 328 H 37.0944 -2.8024 -3.6579 0
M  V30 329 H 35.4094 -2.40497 -3.39926 0
M  V30 330 H 38.0064 -0.404599 -5.33167 0
M  V30 331 H 38.3494 0.775012 -4.09022 0
M  V30 332 H 38.8824 -0.909764 -3.87257 0
M  V30 333 H 35.6214 -3.32361 -5.64992 0
M  V30 334 H 35.1414 -1.61569 -5.77629 0
M  V30 335 H 36.8204 -2.10109 -6.11934 0
M  V30 336 N 36.9525 1.47285 -0.560781 0
M  V30 337 C 38.1995 2.02464 -0.038062 0
M  V30 338 C 38.5275 1.43474 1.31322 0
M  V30 339 O 37.7825 0.581311 1.86867 0
M  V30 340 C 38.0815 3.57258 0.100784 0
M  V30 341 C 37.7475 4.35184 -1.18007 0
M  V30 342 C 36.4095 4.56194 -1.53103 0
M  V30 343 C 38.7615 4.80098 -2.02867 0
M  V30 344 C 36.0895 5.19367 -2.729 0
M  V30 345 C 38.4415 5.44593 -3.21871 0
M  V30 346 C 37.1055 5.63835 -3.57276 0
M  V30 347 H 36.3755 0.740869 -0.0139279 0
M  V30 348 H 39.0225 1.76916 -0.733012 0
M  V30 349 H 37.3275 3.81819 0.878724 0
M  V30 350 H 39.0245 3.97606 0.520639 0
M  V30 351 H 35.6145 4.19113 -0.8968 0
M  V30 352 H 39.7985 4.63642 -1.7706 0
M  V30 353 H 35.0545 5.32459 -3.00496 0
M  V30 354 H 39.2285 5.78358 -3.87911 0
M  V30 355 H 36.8555 6.12557 -4.50197 0
M  V30 356 N 38.4306 0.297415 1.54768 0
M  V30 357 C 39.6586 -0.315623 2.04478 0
M  V30 358 C 40.0736 -1.47792 1.17486 0
M  V30 359 O 39.4306 -1.81404 0.19971 0
M  V30 360 C 39.4816 -0.7753 3.53088 0
M  V30 361 O 39.2026 0.340732 4.36773 0
M  V30 362 C 40.7036 -1.45386 4.18781 0
M  V30 363 H 37.9236 -0.0690887 0.667434 0
M  V30 364 H 40.4676 0.436003 1.99798 0
M  V30 365 H 38.6226 -1.47696 3.58141 0
M  V30 366 H 39.0366 -0.0165035 5.24497 0
M  V30 367 H 40.5106 -1.72669 5.24299 0
M  V30 368 H 40.9876 -2.39275 3.68299 0
M  V30 369 H 41.5936 -0.795475 4.17795 0
M  V30 370 N 39.9087 -1.5758 0.0250728 0
M  V30 371 C 41.1337 -1.96337 -0.668317 0
M  V30 372 C 41.5587 -0.901314 -1.651 0
M  V30 373 O 40.9167 0.138187 -1.80773 0
M  V30 374 C 40.9647 -3.34191 -1.35457 0
M  V30 375 O 40.0687 -3.30269 -2.46974 0
M  V30 376 H 39.4097 -0.640281 -0.175887 0
M  V30 377 H 41.9397 -2.0442 0.0857224 0
M  V30 378 H 41.9497 -3.70331 -1.71228 0
M  V30 379 H 40.6247 -4.11036 -0.634218 0
M  V30 380 H 39.2017 -3.05841 -2.13344 0
M  V30 381 N 41.3868 0.248026 -1.55636 0
M  V30 382 C 42.7978 0.817177 -1.67866 0
M  V30 383 C 43.1488 1.86069 -0.622322 0
M  V30 384 O 42.2738 2.15157 0.231618 0
M  V30 385 C 42.8688 1.489 -3.04326 0
M  V30 386 C 41.4278 2.00587 -3.185 0
M  V30 387 C 40.5748 0.856573 -2.63739 0
M  V30 388 H 43.5258 0.0238579 -1.58682 0
M  V30 389 H 43.5468 2.35698 -2.98708 0
M  V30 390 H 43.0588 0.729279 -3.81186 0
M  V30 391 H 41.1598 2.79443 -2.4646 0
M  V30 392 H 41.2728 2.20402 -4.25393 0
M  V30 393 H 39.6368 1.25678 -2.21534 0
M  V30 394 H 40.4198 0.109953 -3.43124 0
M  V30 395 N 42.8649 1.48995 0.513639 0
M  V30 396 C 43.7949 1.67636 1.62544 0
M  V30 397 C 44.7759 0.525087 1.61793 0
M  V30 398 O 45.9609 0.759502 1.78732 0
M  V30 399 C 43.0909 1.73114 3.01079 0
M  V30 400 C 42.0449 2.87905 3.16693 0
M  V30 401 C 41.3709 2.78486 4.56453 0
M  V30 402 C 42.6709 4.29005 2.97913 0
M  V30 403 H 44.3649 2.60716 1.47198 0
M  V30 404 H 41.9109 1.25465 0.706714 0
M  V30 405 H 43.8639 1.84742 3.78746 0
M  V30 406 H 42.5879 0.766241 3.17484 0
M  V30 407 H 41.2469 2.75859 2.41448 0
M  V30 408 H 40.8949 1.7993 4.69717 0
M  V30 409 H 40.5949 3.55523 4.67843 0
M  V30 410 H 42.1189 2.92104 5.36197 0
M  V30 411 H 43.5329 4.41798 3.65359 0
M  V30 412 H 41.9299 5.07166 3.20785 0
M  V30 413 H 42.9999 4.44329 1.94165 0
M  V30 414 N 44.343 -0.763751 1.37857 0
M  V30 415 C 45.291 -1.89864 1.34367 0
M  V30 416 C 46.285 -1.67816 0.231143 0
M  V30 417 O 47.491 -1.75508 0.399617 0
M  V30 418 H 43.866 -0.624501 0.41893 0
M  V30 419 H 45.837 -1.89925 2.30155 0
M  V30 420 C 44.586 -3.27227 1.1755 0
M  V30 421 H 43.909 -3.44773 2.02414 0
M  V30 422 H 45.349 -4.06911 1.1916 0
M  V30 423 C 43.808 -3.36692 -0.118311 0
M  V30 424 O 44.338 -3.86374 -1.09902 0
M  V30 425 N 42.544 -2.90092 -0.171717 0
M  V30 426 H 42.091 -2.49853 0.627012 0
M  V30 427 H 42.049 -2.96806 -1.03699 0
M  V30 428 N 45.8211 -1.22559 -0.990812 0
M  V30 429 C 46.7511 -1.0218 -2.09956 0
M  V30 430 C 47.7321 0.0579394 -1.70001 0
M  V30 431 O 48.9171 -0.104684 -1.93918 0
M  V30 432 C 46.0471 -0.601023 -3.4206 0
M  V30 433 C 45.0011 -1.62694 -3.95872 0
M  V30 434 C 44.3271 -1.06193 -5.24049 0
M  V30 435 C 45.6271 -3.01743 -4.2632 0
M  V30 436 H 47.3211 -1.94916 -2.27262 0
M  V30 437 H 44.8671 -0.938566 -1.09211 0
M  V30 438 H 46.8201 -0.445561 -4.19038 0
M  V30 439 H 45.5441 0.362005 -3.24588 0
M  V30 440 H 44.2031 -1.77021 -3.21028 0
M  V30 441 H 43.8511 -0.0901903 -5.02919 0
M  V30 442 H 43.5511 -1.74732 -5.61019 0
M  V30 443 H 45.0751 -0.918092 -6.03658 0
M  V30 444 H 46.4891 -2.90777 -4.94087 0
M  V30 445 H 44.8861 -3.67425 -4.74467 0
M  V30 446 H 45.9561 -3.51518 -3.34011 0
M  V30 447 N 47.2992 1.18797 -1.03562 0
M  V30 448 C 48.2292 2.24472 -0.643019 0
M  V30 449 C 49.2102 1.66433 0.351283 0
M  V30 450 O 50.3952 1.92803 0.232505 0
M  V30 451 C 47.5252 3.473 4.24935e-05 0
M  V30 452 C 46.4792 4.18055 -0.917257 0
M  V30 453 C 45.8052 5.34519 -0.138941 0
M  V30 454 C 47.1052 4.72109 -2.23407 0
M  V30 455 H 48.7992 2.57566 -1.52643 0
M  V30 456 H 46.3452 1.23806 -0.735394 0
M  V30 457 H 48.2982 4.20426 0.286383 0
M  V30 458 H 47.0222 3.13424 0.918299 0
M  V30 459 H 45.6812 3.46821 -1.1879 0
M  V30 460 H 45.3292 4.96891 0.781562 0
M  V30 461 H 45.0292 5.82794 -0.750005 0
M  V30 462 H 46.5532 6.10438 0.1405 0
M  V30 463 H 47.9672 5.36955 -2.00879 0
M  V30 464 H 46.3642 5.30897 -2.79765 0
M  V30 465 H 47.4342 3.89807 -2.88407 0
M  V30 466 N 48.7773 0.814389 1.34928 0
M  V30 467 C 49.7073 0.244827 2.32213 0
M  V30 468 C 50.6883 -0.634024 1.57842 0
M  V30 469 O 51.8733 -0.562676 1.8587 0
M  V30 470 C 49.0033 -0.601106 3.42058 0
M  V30 471 C 47.9573 0.179896 4.27622 0
M  V30 472 C 47.2833 -0.788237 5.28858 0
M  V30 473 C 48.5833 1.38329 5.03649 0
M  V30 474 H 50.2773 1.05763 2.80097 0
M  V30 475 H 47.8233 0.510029 1.34665 0
M  V30 476 H 49.7763 -1.00968 4.09125 0
M  V30 477 H 48.5003 -1.44688 2.92802 0
M  V30 478 H 47.1593 0.569739 3.62146 0
M  V30 479 H 46.8073 -1.62973 4.75866 0
M  V30 480 H 46.5073 -0.269942 5.8698 0
M  V30 481 H 48.0313 -1.19485 5.98795 0
M  V30 482 H 49.4453 1.04918 5.63618 0
M  V30 483 H 47.8423 1.83662 5.71304 0
M  V30 484 H 48.9123 2.16592 4.33839 0
M  V30 485 N 50.2554 -1.46986 0.568584 0
M  V30 486 C 51.1854 -2.32946 -0.160753 0
M  V30 487 C 52.1664 -1.44487 -0.897631 0
M  V30 488 O 53.3514 -1.73327 -0.875867 0
M  V30 489 C 50.4814 -3.26494 -1.18403 0
M  V30 490 C 49.4354 -4.24282 -0.562895 0
M  V30 491 C 48.7614 -5.07236 -1.69163 0
M  V30 492 C 50.0614 -5.19989 0.490761 0
M  V30 493 H 51.7554 -2.94175 0.556916 0
M  V30 494 H 49.3014 -1.4146 0.26927 0
M  V30 495 H 51.2544 -3.85477 -1.70251 0
M  V30 496 H 49.9784 -2.63343 -1.93179 0
M  V30 497 H 48.6374 -3.66541 -0.0656164 0
M  V30 498 H 48.2854 -4.4048 -2.42871 0
M  V30 499 H 47.9854 -5.7345 -1.28174 0
M  V30 500 H 49.5094 -5.6908 -2.21314 0
M  V30 501 H 50.9234 -5.73271 0.0579047 0
M  V30 502 H 49.3204 -5.94469 0.820165 0
M  V30 503 H 50.3904 -4.64777 1.3824 0
M  V30 504 N 51.7335 -0.305618 -1.54608 0
M  V30 505 C 52.9815 0.301701 -1.99835 0
M  V30 506 C 53.3025 1.54054 -1.19551 0
M  V30 507 O 52.5725 1.93702 -0.292658 0
M  V30 508 H 51.1525 0.114468 -0.738178 0
M  V30 509 H 53.8145 -0.418016 -1.90364 0
M  V30 510 H 52.9105 0.570548 -3.06841 0
M  V30 511 N 53.2116 1.57565 -0.0334293 0
M  V30 512 C 54.1416 2.13511 0.945265 0
M  V30 513 C 55.1226 1.05231 1.33643 0
M  V30 514 O 56.3076 1.33084 1.41429 0
M  V30 515 C 53.4376 2.6657 2.22616 0
M  V30 516 C 52.3916 3.79676 1.97561 0
M  V30 517 C 51.7176 4.1918 3.31952 0
M  V30 518 C 53.0176 5.0557 1.31135 0
M  V30 519 H 54.7116 2.95538 0.479325 0
M  V30 520 H 52.2576 1.42166 0.229115 0
M  V30 521 H 54.2106 3.04344 2.91466 0
M  V30 522 H 52.9346 1.8171 2.71384 0
M  V30 523 H 51.5936 3.42347 1.31127 0
M  V30 524 H 51.2416 3.31296 3.78487 0
M  V30 525 H 50.9416 4.95402 3.15992 0
M  V30 526 H 52.4656 4.59541 4.02063 0
M  V30 527 H 53.8796 5.40903 1.89992 0
M  V30 528 H 52.2766 5.86818 1.25559 0
M  V30 529 H 53.3466 4.84062 0.284894 0
M  V30 530 N 54.6897 -0.239769 1.55765 0
M  V30 531 C 55.9297 -0.974076 1.79697 0
M  V30 532 C 56.2937 -1.82249 0.604088 0
M  V30 533 O 57.4947 -2.58913 0.722324 0
M  V30 534 C 55.7657 -1.80595 3.08416 0
M  V30 535 S 57.3247 -2.59838 3.53596 0
M  V30 536 H 54.1427 -0.327524 0.63107 0
M  V30 537 H 56.7447 -0.241277 1.94005 0
M  V30 538 H 55.4487 -1.17249 3.93295 0
M  V30 539 H 54.9797 -2.58137 2.96865 0
M  V30 540 H 56.9947 -3.82987 3.15492 0
M  V30 541 N 56.1678 -1.49265 -0.50573 0
M  V30 542 C 57.4168 -1.57761 -1.25675 0
M  V30 543 C 57.7298 -0.267371 -1.93764 0
M  V30 544 O 58.9358 -0.230827 -2.70517 0
M  V30 545 C 57.3918 -2.78332 -2.28165 0
M  V30 546 C 56.9998 -4.16096 -1.66037 0
M  V30 547 C 58.7438 -2.96155 -3.04125 0
M  V30 548 C 56.6508 -5.27895 -2.6661 0
M  V30 549 H 55.5808 -0.587391 -0.472745 0
M  V30 550 H 58.2318 -1.75644 -0.53118 0
M  V30 551 H 56.6138 -2.53934 -3.03865 0
M  V30 552 H 57.7878 -4.50612 -0.963622 0
M  V30 553 H 56.1028 -4.03591 -1.02484 0
M  V30 554 H 58.6998 -3.76849 -3.79327 0
M  V30 555 H 59.0428 -2.06534 -3.61455 0
M  V30 556 H 59.5758 -3.2057 -2.35541 0
M  V30 557 H 56.3148 -6.1956 -2.14068 0
M  V30 558 H 55.8348 -4.97839 -3.34539 0
M  V30 559 H 57.5138 -5.57031 -3.29129 0
M  V30 560 N 57.6459 0.756429 -1.3826 0
M  V30 561 C 58.8929 1.51547 -1.34312 0
M  V30 562 C 59.2209 1.94382 0.0677144 0
M  V30 563 O 58.4759 1.65514 1.04421 0
M  V30 564 C 58.7749 2.78313 -2.24224 0
M  V30 565 C 58.4409 2.54455 -3.72241 0
M  V30 566 C 57.1029 2.47657 -4.12576 0
M  V30 567 C 59.4549 2.3354 -4.65949 0
M  V30 568 C 56.7829 2.17956 -5.44713 0
M  V30 569 C 59.1349 2.05359 -5.9834 0
M  V30 570 C 57.7989 1.97016 -6.37762 0
M  V30 571 H 57.0689 0.55455 -0.491482 0
M  V30 572 H 59.7159 0.870039 -1.70595 0
M  V30 573 H 58.0209 3.47492 -1.80987 0
M  V30 574 H 59.7179 3.36259 -2.18474 0
M  V30 575 H 56.3079 2.60616 -3.40261 0
M  V30 576 H 60.4919 2.37772 -4.35635 0
M  V30 577 H 55.7479 2.10003 -5.74203 0
M  V30 578 H 59.9219 1.88179 -6.70494 0
M  V30 579 H 57.5489 1.73766 -7.40074 0
M  V30 580 N 59.124 1.23083 0.984299 0
M  V30 581 C 60.054 1.03292 2.09411 0
M  V30 582 C 61.035 -0.048923 1.7003 0
M  V30 583 O 62.22 0.114967 1.93859 0
M  V30 584 C 59.35 0.619155 3.41736 0
M  V30 585 C 58.304 1.64791 3.95004 0
M  V30 586 C 57.63 1.0897 5.23478 0
M  V30 587 C 58.93 3.03999 4.24714 0
M  V30 588 H 60.624 1.96119 2.26225 0
M  V30 589 H 58.17 0.944344 1.08711 0
M  V30 590 H 60.123 0.467777 4.18796 0
M  V30 591 H 58.847 -0.344786 3.24775 0
M  V30 592 H 57.506 1.78721 3.20085 0
M  V30 593 H 57.154 0.11686 5.02864 0
M  V30 594 H 56.854 1.77704 5.60085 0
M  V30 595 H 58.378 0.950093 6.03163 0
M  V30 596 H 59.792 2.93393 4.92538 0
M  V30 597 H 58.189 3.69936 4.72512 0
M  V30 598 H 59.259 3.53285 3.32142 0
M  V30 599 N 60.6021 -1.18246 1.0419 0
M  V30 600 C 61.5321 -2.24127 0.654914 0
M  V30 601 C 62.5131 -1.66617 -0.342451 0
M  V30 602 O 63.6981 -1.92924 -0.222277 0
M  V30 603 C 60.8281 -3.47295 0.0183757 0
M  V30 604 C 59.7821 -4.17563 0.939414 0
M  V30 605 C 59.1081 -5.34438 0.167286 0
M  V30 606 C 60.4081 -4.70917 2.25908 0
M  V30 607 H 62.1021 -2.56753 1.54007 0
M  V30 608 H 59.6481 -1.23414 0.74195 0
M  V30 609 H 61.6011 -4.20572 -0.264082 0
M  V30 610 H 60.3251 -3.13907 -0.901664 0
M  V30 611 H 58.9841 -3.46186 1.20628 0
M  V30 612 H 58.6321 -4.97298 -0.7552 0
M  V30 613 H 58.3321 -5.82388 0.780901 0
M  V30 614 H 59.8561 -6.10504 -0.108125 0
M  V30 615 H 61.2701 -5.35882 2.03724 0
M  V30 616 H 59.6671 -5.29406 2.82577 0
M  V30 617 H 60.7371 -3.88272 2.9047 0
M  V30 618 N 62.0802 -0.821533 -1.34494 0
M  V30 619 C 63.3102 -0.421272 -2.02259 0
M  V30 620 C 63.7182 0.977047 -1.6202 0
M  V30 621 O 63.0612 1.64348 -0.820703 0
M  V30 622 C 63.1232 -0.44231 -3.56769 0
M  V30 623 C 62.7872 -1.79372 -4.20327 0
M  V30 624 C 63.7842 -2.75435 -4.40944 0
M  V30 625 C 61.4692 -2.08182 -4.57127 0
M  V30 626 C 63.4632 -3.98482 -4.97484 0
M  V30 627 C 61.1502 -3.31489 -5.13379 0
M  V30 628 C 62.1482 -4.26457 -5.33501 0
M  V30 629 O 61.8362 -5.47585 -5.88562 0
M  V30 630 H 61.5682 -0.167473 -0.654927 0
M  V30 631 H 64.1222 -1.11073 -1.72777 0
M  V30 632 H 62.3522 0.303836 -3.85505 0
M  V30 633 H 64.0412 -0.0622925 -4.05852 0
M  V30 634 H 64.8072 -2.54473 -4.12878 0
M  V30 635 H 60.6862 -1.35066 -4.4077 0
M  V30 636 H 64.2302 -4.72618 -5.13106 0
M  V30 637 H 60.1272 -3.52316 -5.40873 0
M  V30 638 H 60.8952 -5.49086 -6.06998 0
M  V30 639 N 63.5583 1.46682 -0.576371 0
M  V30 640 C 64.5053 2.30241 0.160499 0
M  V30 641 C 65.4753 1.40233 0.890162 0
M  V30 642 O 66.6603 1.69186 0.882084 0
M  V30 643 C 63.8003 3.24578 1.1723 0
M  V30 644 C 62.9133 4.29684 0.446736 0
M  V30 645 C 62.0483 5.11154 1.44551 0
M  V30 646 C 61.0873 6.08015 0.70599 0
M  V30 647 N 60.2243 6.82376 1.65251 0
M  V30 648 H 65.0643 2.92727 -0.558127 0
M  V30 649 H 62.6013 1.44272 -0.287056 0
M  V30 650 H 64.5593 3.77711 1.77172 0
M  V30 651 H 63.1893 2.63916 1.85872 0
M  V30 652 H 62.2413 3.79458 -0.267594 0
M  V30 653 H 63.5533 4.98626 -0.131686 0
M  V30 654 H 62.7073 5.68533 2.11791 0
M  V30 655 H 61.4463 4.42158 2.05786 0
M  V30 656 H 60.4513 5.49796 0.0197725 0
M  V30 657 H 61.6763 6.79028 0.09912 0
M  V30 658 H 59.6223 6.16094 2.25308 0
M  V30 659 H 59.5393 7.47556 1.12673 0
M  V30 660 H 60.8073 7.44316 2.31546 0
M  V30 661 N 65.0364 0.313813 1.54444 0
M  V30 662 C 66.2854 -0.292519 1.99568 0
M  V30 663 C 66.5984 -1.54011 1.20582 0
M  V30 664 O 67.8044 -2.22183 1.56035 0
M  V30 665 C 66.2604 -0.571752 3.55329 0
M  V30 666 C 65.8684 0.658229 4.43138 0
M  V30 667 C 67.6124 -1.13857 4.08946 0
M  V30 668 C 65.5194 0.351439 5.90355 0
M  V30 669 H 64.4494 -0.113079 0.745472 0
M  V30 670 H 67.1004 0.424518 1.78522 0
M  V30 671 H 65.4824 -1.34872 3.72325 0
M  V30 672 H 66.6564 1.43403 4.37918 0
M  V30 673 H 64.9714 1.14458 4.0036 0
M  V30 674 H 67.5684 -1.38257 5.16516 0
M  V30 675 H 67.9114 -2.08489 3.6033 0
M  V30 676 H 68.4444 -0.423015 3.95544 0
M  V30 677 H 65.1834 1.26667 6.43145 0
M  V30 678 H 64.7034 -0.386842 5.98551 0
M  V30 679 H 66.3824 -0.0423134 6.46986 0
M  V30 680 N 66.5145 -1.57545 0.0417849 0
M  V30 681 C 67.7605 -1.92601 -0.635021 0
M  V30 682 C 68.0935 -0.919627 -1.71045 0
M  V30 683 O 67.3685 0.0557892 -1.9442 0
M  V30 684 C 67.6515 -3.38085 -1.23979 0
M  V30 685 C 67.5045 -4.49467 -0.173057 0
M  V30 686 C 68.8235 -3.83776 -2.15416 0
M  V30 687 H 65.9425 -0.700397 -0.229374 0
M  V30 688 H 68.5845 -1.89728 0.101633 0
M  V30 689 H 66.7345 -3.40664 -1.86762 0
M  V30 690 H 68.4065 -4.59018 0.458312 0
M  V30 691 H 66.6495 -4.30909 0.499996 0
M  V30 692 H 67.3205 -5.48323 -0.636054 0
M  V30 693 H 69.7965 -3.83013 -1.62605 0
M  V30 694 H 68.6725 -4.8624 -2.54679 0
M  V30 695 H 68.9335 -3.19998 -3.05047 0
M  V30 696 N 67.9926 0.231505 -1.5589 0
M  V30 697 C 69.4086 0.580748 -1.48659 0
M  V30 698 C 69.6086 1.87617 -0.73498 0
M  V30 699 O 68.6646 2.51046 -0.270586 0
M  V30 700 C 69.9776 0.669202 -2.93159 0
M  V30 701 C 71.5256 0.760499 -3.03621 0
M  V30 702 C 72.0006 0.880383 -4.49459 0
M  V30 703 N 73.4916 0.944861 -4.53461 0
M  V30 704 C 74.2266 1.05716 -5.63571 0
M  V30 705 N 73.7226 1.13403 -6.83456 0
M  V30 706 N 75.5156 1.09152 -5.514 0
M  V30 707 H 67.6666 -0.618695 -2.03189 0
M  V30 708 H 69.9296 -0.215728 -0.923128 0
M  V30 709 H 69.6356 -0.212904 -3.51055 0
M  V30 710 H 69.5096 1.5361 -3.44505 0
M  V30 711 H 71.8966 1.63305 -2.45796 0
M  V30 712 H 71.9776 -0.131864 -2.5546 0
M  V30 713 H 71.6216 0.0123284 -5.07899 0
M  V30 714 H 71.5516 1.78802 -4.95316 0
M  V30 715 H 74.0426 0.896176 -3.6712 0
M  V30 716 H 74.3556 1.21921 -7.63122 0
M  V30 717 H 72.7006 1.10333 -6.86186 0
M  V30 718 H 75.8916 1.02805 -4.56671 0
M  V30 719 H 76.0646 1.17558 -6.37247 0
M  V30 720 N 69.4707 1.49531 0.497807 0
M  V30 721 C 70.7187 1.58865 1.24926 0
M  V30 722 C 71.0397 0.278721 1.92998 0
M  V30 723 O 70.3097 -0.702144 1.82885 0
M  V30 724 H 68.8897 0.585343 0.464094 0
M  V30 725 H 71.5517 1.86174 0.57666 0
M  V30 726 H 70.6477 2.38633 2.01149 0
M  V30 727 N 70.9488 -0.749086 1.3866 0
M  V30 728 C 72.2258 -1.4992 1.25632 0
M  V30 729 C 72.6058 -2.10633 -0.140317 0
M  V30 730 O 71.9538 -1.97437 -1.15025 0
M  V30 731 C 72.1638 -2.56195 2.36992 0
M  V30 732 C 73.5118 -3.22972 2.75634 0
M  V30 733 O 74.5358 -2.66502 2.36337 0
M  V30 734 O 73.3948 -4.25122 3.43415 0
M  V30 735 H 70.4888 -0.665067 0.491544 0
M  V30 736 H 73.0348 -0.784113 1.50498 0
M  V30 737 H 71.8068 -2.09612 3.30422 0
M  V30 738 H 71.4298 -3.35279 2.13714 0
M  V30 739 N 72.4269 -1.23603 -0.977757 0
M  V30 740 C 73.3589 -0.977369 -2.07317 0
M  V30 741 C 74.3719 0.0495845 -1.62724 0
M  V30 742 O 75.5609 -0.186261 -1.77526 0
M  V30 743 C 72.6609 -0.451216 -3.35883 0
M  V30 744 C 71.8339 -1.53896 -4.09432 0
M  V30 745 C 70.8929 -1.01721 -5.16274 0
M  V30 746 O 69.9189 -1.70676 -5.43009 0
M  V30 747 N 71.1209 0.153594 -5.80297 0
M  V30 748 H 73.8859 -1.92047 -2.30082 0
M  V30 749 H 71.4469 -1.14497 -1.14465 0
M  V30 750 H 73.4389 -0.0871574 -4.04606 0
M  V30 751 H 72.0089 0.397368 -3.10064 0
M  V30 752 H 71.2289 -2.07566 -3.35127 0
M  V30 753 H 72.5169 -2.27037 -4.55337 0
M  V30 754 H 71.9149 0.730323 -5.60966 0
M  V30 755 H 70.4719 0.458892 -6.50183 0
M  V30 756 N 73.905 1.17692 -1.04816 0
M  V30 757 C 75.316 1.69501 -0.782698 0
M  V30 758 C 75.667 1.83456 0.695577 0
M  V30 759 O 74.792 1.51942 1.54086 0
M  V30 760 C 75.387 3.07874 -1.41419 0
M  V30 761 C 73.946 3.56864 -1.19686 0
M  V30 762 C 73.093 2.3322 -1.50012 0
M  V30 763 H 76.044 1.02262 -1.2136 0
M  V30 764 H 76.065 3.71528 -0.821428 0
M  V30 765 H 75.577 2.97685 -2.49009 0
M  V30 766 H 73.678 3.72337 -0.140043 0
M  V30 767 H 73.791 4.39851 -1.89916 0
M  V30 768 H 72.155 2.37501 -0.920071 0
M  V30 769 H 72.938 2.25644 -2.58727 0
M  V30 770 N 75.3831 0.828654 1.34056 0
M  V30 771 C 76.3461 0.259927 2.27721 0
M  V30 772 C 77.3461 -0.565478 1.50529 0
M  V30 773 O 78.5361 -0.38075 1.69988 0
M  V30 774 C 75.6681 -0.634944 3.34935 0
M  V30 775 H 76.8611 1.0863 2.79534 0
M  V30 776 H 74.4141 0.600951 1.44285 0
M  V30 777 H 75.1491 -1.48416 2.88346 0
M  V30 778 H 74.9341 -0.0444999 3.92075 0
M  V30 779 H 76.4241 -1.02648 4.04788 0
M  V30 780 N 76.8612 -1.46375 0.584142 0
M  V30 781 C 77.8242 -2.28784 -0.138108 0
M  V30 782 C 78.8242 -1.38471 -0.817462 0
M  V30 783 O 80.0142 -1.60833 -0.669199 0
M  V30 784 C 77.1462 -3.18892 -1.20503 0
M  V30 785 H 78.3392 -2.94117 0.586127 0
M  V30 786 H 75.8922 -1.52509 0.342171 0
M  V30 787 H 76.6272 -2.58309 -1.96079 0
M  V30 788 H 76.4122 -3.85388 -0.722384 0
M  V30 789 H 77.9022 -3.80914 -1.71155 0
M  V30 790 N 78.3393 -0.321999 -1.54275 0
M  V30 791 C 79.5643 0.285791 -2.05422 0
M  V30 792 C 79.9893 1.45124 -1.19669 0
M  V30 793 O 79.3473 1.80132 -0.205441 0
M  V30 794 C 79.3953 0.69956 -3.53749 0
M  V30 795 O 78.4993 1.8021 -3.70942 0
M  V30 796 H 77.8403 0.0518962 -0.661969 0
M  V30 797 H 80.3703 -0.469954 -1.9913 0
M  V30 798 H 80.3803 0.982649 -3.9599 0
M  V30 799 H 79.0553 -0.152864 -4.15619 0
M  V30 800 H 77.6323 1.51794 -3.40607 0
M  V30 801 N 79.8174 1.5752 -0.0501392 0
M  V30 802 C 81.0654 1.9227 0.622642 0
M  V30 803 C 81.3864 0.929083 1.71444 0
M  V30 804 O 80.6564 -0.0262186 1.95882 0
M  V30 805 H 79.2364 0.709739 0.232981 0
M  V30 806 H 81.8984 1.94628 -0.102898 0
M  V30 807 H 80.9944 2.93479 1.06191 0
M  V30 808 N 81.2955 -0.223234 1.56011 0
M  V30 809 C 82.5725 -0.972108 1.69733 0
M  V30 810 C 82.9525 -2.02485 0.59691 0
M  V30 811 O 82.3005 -2.25037 -0.396324 0
M  V30 812 C 82.5105 -1.58407 3.10979 0
M  V30 813 C 83.8585 -2.07696 3.70334 0
M  V30 814 O 84.8825 -1.68304 3.1393 0
M  V30 815 O 83.7415 -2.80096 4.69264 0
M  V30 816 H 80.8355 -0.453993 0.691245 0
M  V30 817 H 83.3815 -0.215149 1.68331 0
M  V30 818 H 82.1535 -0.823831 3.82529 0
M  V30 819 H 81.7765 -2.40661 3.16493 0
M  V30 820 N 82.7736 -1.49793 -0.48987 0
M  V30 821 C 83.9986 -1.63836 -1.27172 0
M  V30 822 C 84.4236 -0.31402 -1.8546 0
M  V30 823 O 83.7816 0.719803 -1.66399 0
M  V30 824 C 83.8296 -2.71797 -2.36978 0
M  V30 825 O 82.9336 -2.31744 -3.41128 0
M  V30 826 H 82.2746 -0.547997 -0.37496 0
M  V30 827 H 84.8046 -1.96053 -0.585191 0
M  V30 828 H 84.8146 -2.94305 -2.82575 0
M  V30 829 H 83.4896 -3.67923 -1.93921 0
M  V30 830 H 82.0666 -2.1961 -3.01373 0
M  V30 831 N 84.2517 0.741722 -1.39055 0
M  V30 832 C 85.5287 1.49252 -1.26425 0
M  V30 833 C 85.9087 2.10705 0.129144 0
M  V30 834 O 85.2567 1.98045 1.13976 0
M  V30 835 C 85.4667 2.54934 -2.38347 0
M  V30 836 C 86.8147 3.21506 -2.77343 0
M  V30 837 O 87.8387 2.65245 -2.37747 0
M  V30 838 O 86.6977 4.23294 -3.45665 0
M  V30 839 H 83.7917 0.662451 -0.495064 0
M  V30 840 H 86.3377 0.776121 -1.50912 0
M  V30 841 H 85.1097 2.07857 -3.31529 0
M  V30 842 H 84.7327 3.34141 -2.15489 0
M  V30 843 N 85.7298 1.2412 0.971189 0
M  V30 844 C 87.0068 0.986867 1.6888 0
M  V30 845 C 87.3868 -0.491857 2.0529 0
M  V30 846 O 86.7348 -1.46531 1.75331 0
M  V30 847 C 86.9448 1.9063 2.92338 0
M  V30 848 C 88.2928 2.17515 3.64654 0
M  V30 849 O 89.3168 1.88254 3.02388 0
M  V30 850 O 88.1758 2.6719 4.7673 0
M  V30 851 H 85.2698 0.372944 0.738134 0
M  V30 852 H 87.8158 1.35203 1.02559 0
M  V30 853 H 86.5878 2.90552 2.62097 0
M  V30 854 H 86.2108 1.54408 3.66393 0
M  V30 855 N 87.2079 -1.17134 1.05439 0
M  V30 856 C 88.4849 -1.83411 0.679699 0
M  V30 857 C 88.8649 -1.9368 -0.839726 0
M  V30 858 O 88.2129 -1.47325 -1.74664 0
M  V30 859 C 88.4229 -3.20918 1.37159 0
M  V30 860 C 89.7709 -3.96796 1.51123 0
M  V30 861 O 90.7949 -3.30406 1.3308 0
M  V30 862 O 89.6539 -5.15778 1.80651 0
M  V30 863 H 86.7479 -0.79154 0.239569 0
M  V30 864 H 89.2939 -1.24411 1.15413 0
M  V30 865 H 88.0659 -3.08428 2.40807 0
M  V30 866 H 87.6889 -3.87587 0.886674 0
M  V30 867 N 88.686 -0.835752 -1.33615 0
M  V30 868 C 89.596 -0.269088 -2.33052 0
M  V30 869 C 90.612 0.603251 -1.63208 0
M  V30 870 O 91.788 0.508112 -1.94885 0
M  V30 871 C 88.853 0.549091 -3.42324 0
M  V30 872 C 87.914 -0.347156 -4.27894 0
M  V30 873 C 87.147 0.43207 -5.31948 0
M  V30 874 O 87.37 1.66409 -5.45586 0
M  V30 875 O 86.304 -0.192298 -6.01593 0
M  V30 876 H 90.13 -1.09243 -2.83372 0
M  V30 877 H 87.715 -0.598198 -1.36901 0
M  V30 878 H 89.597 1.01414 -4.09015 0
M  V30 879 H 88.272 1.34955 -2.94226 0
M  V30 880 H 87.179 -0.859979 -3.64081 0
M  V30 881 H 88.512 -1.1123 -4.79467 0
M  V30 882 N 90.1641 1.46063 -0.591896 0
M  V30 883 C 91.5751 1.85944 -0.167822 0
M  V30 884 C 91.9261 1.49429 1.27143 0
M  V30 885 O 91.0511 0.913515 1.96173 0
M  V30 886 C 91.6461 3.37489 -0.297794 0
M  V30 887 C 90.2051 3.76332 0.0714732 0
M  V30 888 C 89.3521 2.7006 -0.629509 0
M  V30 889 H 92.3031 1.37087 -0.799555 0
M  V30 890 H 92.3241 3.77532 0.474349 0
M  V30 891 H 91.8361 3.64034 -1.3454 0
M  V30 892 H 89.9371 3.55405 1.11886 0
M  V30 893 H 90.0501 4.78088 -0.311245 0
M  V30 894 H 88.4141 2.54607 -0.0687867 0
M  V30 895 H 89.1971 2.99444 -1.67894 0
M  V30 896 N 91.6422 0.330177 1.54103 0
M  V30 897 C 93.0532 -0.15652 1.86043 0
M  V30 898 C 93.4042 -1.51086 1.2517 0
M  V30 899 O 92.5292 -2.09023 0.560217 0
M  V30 900 C 93.1242 -0.290784 3.3755 0
M  V30 901 C 91.6832 -0.721705 3.69416 0
M  V30 902 C 90.8302 0.152622 2.7688 0
M  V30 903 H 93.7812 0.550237 1.48856 0
M  V30 904 H 93.8022 -1.12058 3.63625 0
M  V30 905 H 93.3142 0.695068 3.81825 0
M  V30 906 H 91.4152 -1.71706 3.30678 0
M  V30 907 H 91.5282 -0.520869 4.7626 0
M  V30 908 H 89.8922 -0.372894 2.51956 0
M  V30 909 H 90.6752 1.13536 3.23982 0
M  V30 910 N 93.1203 -1.57491 0.0584922 0
M  V30 911 C 94.5313 -1.80526 -0.476138 0
M  V30 912 C 94.8823 -0.971334 -1.70469 0
M  V30 913 O 94.0073 -0.190012 -2.15564 0
M  V30 914 C 94.6023 -3.27424 -0.870587 0
M  V30 915 C 93.1613 -3.51351 -1.35015 0
M  V30 916 C 92.3083 -2.75343 -0.32887 0
M  V30 917 H 95.2593 -1.56133 0.284312 0
M  V30 918 H 95.2803 -3.38745 -1.73299 0
M  V30 919 H 94.7923 -3.88093 0.0237627 0
M  V30 920 H 92.8933 -2.95971 -2.26345 0
M  V30 921 H 93.0063 -4.60059 -1.33726 0
M  V30 922 H 91.3703 -2.417 -0.803321 0
M  V30 923 H 92.1533 -3.38743 0.557521 0
M  V30 924 N 94.5984 0.214957 -1.56127 0
M  V30 925 C 95.5284 1.2695 -1.95974 0
M  V30 926 C 96.5094 1.48539 -0.828868 0
M  V30 927 O 97.6944 1.60611 -1.09168 0
M  V30 928 C 94.8244 2.61794 -2.28214 0
M  V30 929 C 93.7784 2.54851 -3.43853 0
M  V30 930 C 93.1044 3.93785 -3.61715 0
M  V30 931 C 94.4044 2.09065 -4.78632 0
M  V30 932 H 96.0984 0.93846 -2.84312 0
M  V30 933 H 93.6444 0.449996 -1.36788 0
M  V30 934 H 95.5974 3.35731 -2.54682 0
M  V30 935 H 94.3214 2.96599 -1.36736 0
M  V30 936 H 92.9804 1.8337 -3.17444 0
M  V30 937 H 92.6284 4.25908 -2.67602 0
M  V30 938 H 92.3284 3.90019 -4.39498 0
M  V30 939 H 93.8524 4.69374 -3.90539 0
M  V30 940 H 95.2664 2.7275 -5.04262 0
M  V30 941 H 93.6634 2.16346 -5.59745 0
M  V30 942 H 94.7334 1.04315 -4.73547 0
M  V30 943 N 96.0765 1.50051 0.48192 0
M  V30 944 C 97.4875 1.5348 1.06305 0
M  V30 945 C 97.8385 0.331997 1.93371 0
M  V30 946 O 96.9635 -0.556256 2.09129 0
M  V30 947 C 97.5585 2.7813 1.93466 0
M  V30 948 C 96.1175 2.84275 2.46707 0
M  V30 949 C 95.2645 2.47637 1.24785 0
M  V30 950 H 98.2155 1.56472 0.264995 0
M  V30 951 H 98.2365 2.59372 2.78399 0
M  V30 952 H 97.7485 3.65654 1.30072 0
M  V30 953 H 95.8495 2.01077 3.13686 0
M  V30 954 H 95.9625 3.8691 2.82555 0
M  V30 955 H 94.3265 1.99835 1.57918 0
M  V30 956 H 95.1095 3.37457 0.630694 0
M  V30 957 N 97.5546 -0.734337 1.39446 0
M  V30 958 C 98.9706 -1.03997 1.21065 0
M  V30 959 C 99.1706 -2.01369 0.0727019 0
M  V30 960 O 98.2266 -2.45856 -0.575426 0
M  V30 961 C 99.5396 -1.60163 2.54496 0
M  V30 962 C 101.088 -1.7224 2.61347 0
M  V30 963 C 101.563 -2.31814 3.95002 0
M  V30 964 N 103.054 -2.39223 3.96644 0
M  V30 965 C 103.789 -2.86258 4.96834 0
M  V30 966 N 103.285 -3.33184 6.07421 0
M  V30 967 N 105.078 -2.85473 4.84213 0
M  V30 968 H 97.2286 -0.0885624 2.12215 0
M  V30 969 H 99.4916 -0.10191 0.942506 0
M  V30 970 H 99.1976 -0.960811 3.38321 0
M  V30 971 H 99.0716 -2.5896 2.74262 0
M  V30 972 H 101.459 -2.35443 1.77906 0
M  V30 973 H 101.54 -0.720939 2.4543 0
M  V30 974 H 101.184 -1.69238 4.78875 0
M  V30 975 H 101.114 -3.32638 4.08239 0
M  V30 976 H 103.605 -2.06057 3.16779 0
M  V30 977 H 103.918 -3.67586 6.7978 0
M  V30 978 H 102.263 -3.31191 6.11013 0
M  V30 979 H 105.454 -2.48136 3.96921 0
M  V30 980 H 105.627 -3.21814 5.62441 0
M  V30 981 N 99.0327 -1.24633 -0.964593 0
M  V30 982 C 99.9627 -1.06611 -2.07741 0
M  V30 983 C 100.944 0.0218666 -1.70086 0
M  V30 984 O 102.129 -0.145793 -1.93652 0
M  V30 985 C 99.2587 -0.673444 -3.40708 0
M  V30 986 C 98.2127 -1.71054 -3.92332 0
M  V30 987 C 97.5387 -1.17285 -5.21678 0
M  V30 988 C 98.8387 -3.10718 -4.19824 0
M  V30 989 H 100.533 -1.99693 -2.23076 0
M  V30 990 H 98.0787 -0.96152 -1.07195 0
M  V30 991 H 100.032 -0.534345 -4.17998 0
M  V30 992 H 98.7557 0.293073 -3.25282 0
M  V30 993 H 97.4147 -1.83791 -3.17201 0
M  V30 994 H 97.0627 -0.196847 -5.02615 0
M  V30 995 H 96.7627 -1.86592 -5.57187 0
M  V30 996 H 98.2867 -1.04593 -6.01575 0
M  V30 997 H 99.7007 -3.01192 -4.87808 0
M  V30 998 H 98.0977 -3.77406 -4.66567 0
M  V30 999 H 99.1677 -3.58524 -3.26479 0
M  V30 1000 N 100.511 1.16574 -1.06058 0
M  V30 1001 C 101.458 2.20883 -0.669263 0
M  V30 1002 C 102.428 1.62729 0.332918 0
M  V30 1003 O 103.613 1.895 0.222346 0
M  V30 1004 C 100.753 3.45049 -0.0593572 0
M  V30 1005 C 99.8658 4.17458 -1.11143 0
M  V30 1006 C 99.0008 5.29135 -0.467916 0
M  V30 1007 C 98.0398 5.93343 -1.50369 0
M  V30 1008 N 97.1768 6.96516 -0.883706 0
M  V30 1009 H 102.017 2.53709 -1.5632 0
M  V30 1010 H 99.5538 1.24616 -0.781625 0
M  V30 1011 H 101.512 4.16033 0.311771 0
M  V30 1012 H 100.142 3.12781 0.797992 0
M  V30 1013 H 99.1938 3.45101 -1.60029 0
M  V30 1014 H 100.506 4.61307 -1.89731 0
M  V30 1015 H 99.6598 6.06684 -0.0436871 0
M  V30 1016 H 98.3988 4.86443 0.349864 0
M  V30 1017 H 97.4038 5.14517 -1.93784 0
M  V30 1018 H 98.6288 6.38114 -2.32352 0
M  V30 1019 H 96.5748 6.55943 -0.086595 0
M  V30 1020 H 96.4918 7.38723 -1.607 0
M  V30 1021 H 97.7598 7.77993 -0.484543 0
M  V30 1022 N 101.989 0.842826 1.3317 0
M  V30 1023 C 103.405 0.531128 1.50503 0
M  V30 1024 C 103.605 -0.940734 1.78192 0
M  V30 1025 O 102.661 -1.72436 1.84451 0
M  V30 1026 C 103.974 1.40789 2.65705 0
M  V30 1027 C 105.522 1.40708 2.79589 0
M  V30 1028 C 105.997 2.26878 3.97857 0
M  V30 1029 N 107.488 2.24609 4.05099 0
M  V30 1030 C 108.223 2.88019 4.95815 0
M  V30 1031 N 107.719 3.60496 5.9162 0
M  V30 1032 N 109.512 2.77469 4.88843 0
M  V30 1033 H 101.663 1.79557 1.1346 0
M  V30 1034 H 103.926 0.766267 0.558156 0
M  V30 1035 H 103.632 2.454 2.51936 0
M  V30 1036 H 103.506 1.08677 3.61205 0
M  V30 1037 H 105.893 0.368668 2.92788 0
M  V30 1038 H 105.974 1.76829 1.84838 0
M  V30 1039 H 105.618 3.3078 3.85418 0
M  V30 1040 H 105.548 1.88096 4.91861 0
M  V30 1041 H 108.039 1.71906 3.36536 0
M  V30 1042 H 108.352 4.06076 6.57512 0
M  V30 1043 H 106.697 3.64604 5.91683 0
M  V30 1044 H 109.888 2.20406 4.12963 0
M  V30 1045 H 110.061 3.2717 5.59342 0
M  V30 1046 N 103.467 -1.45747 0.599634 0
M  V30 1047 C 104.883 -1.57424 0.26264 0
M  V30 1048 C 105.083 -1.59222 -1.23493 0
M  V30 1049 O 104.139 -1.51825 -2.01756 0
M  V30 1050 C 105.452 -2.86061 0.926795 0
M  V30 1051 C 107 -2.99722 0.901967 0
M  V30 1052 C 107.475 -4.31119 1.54598 0
M  V30 1053 N 108.966 -4.37858 1.5111 0
M  V30 1054 C 109.701 -5.3818 1.97863 0
M  V30 1055 N 109.197 -6.45083 2.52666 0
M  V30 1056 N 110.99 -5.29487 1.88679 0
M  V30 1057 H 103.141 -1.42823 1.57211 0
M  V30 1058 H 105.404 -0.68235 0.658105 0
M  V30 1059 H 105.11 -2.90605 1.98095 0
M  V30 1060 H 104.984 -3.74563 0.445238 0
M  V30 1061 H 107.371 -2.9475 -0.143617 0
M  V30 1062 H 107.452 -2.12652 1.42171 0
M  V30 1063 H 107.096 -4.36849 2.59085 0
M  V30 1064 H 107.026 -5.16992 1.00132 0
M  V30 1065 H 109.517 -3.61209 1.11068 0
M  V30 1066 H 109.83 -7.17869 2.86155 0
M  V30 1067 H 108.175 -6.45856 2.56701 0
M  V30 1068 H 111.366 -4.44877 1.4561 0
M  V30 1069 H 111.539 -6.07524 2.25429 0
M  V30 1070 N 104.945 -0.338344 -1.53925 0
M  V30 1071 C 106.222 0.314774 -1.93051 0
M  V30 1072 C 106.602 1.68669 -1.26941 0
M  V30 1073 O 105.95 2.24636 -0.418445 0
M  V30 1074 C 106.16 0.392249 -3.46789 0
M  V30 1075 C 107.508 0.645554 -4.19664 0
M  V30 1076 O 108.532 0.474575 -3.53024 0
M  V30 1077 O 107.391 0.976408 -5.37707 0
M  V30 1078 H 104.485 0.182598 -0.80659 0
M  V30 1079 H 107.031 -0.389141 -1.65178 0
M  V30 1080 H 105.803 -0.570702 -3.87116 0
M  V30 1081 H 105.426 1.14316 -3.80812 0
M  V30 1082 N 106.423 1.57458 -0.0668435 0
M  V30 1083 C 107.67 1.93301 0.603406 0
M  V30 1084 C 107.998 0.946486 1.69917 0
M  V30 1085 O 107.253 -0.0387021 1.95662 0
M  V30 1086 C 107.552 3.35784 1.22409 0
M  V30 1087 C 107.218 4.50179 0.254955 0
M  V30 1088 C 105.88 4.81199 -0.0116746 0
M  V30 1089 C 108.232 5.19598 -0.408338 0
M  V30 1090 C 105.56 5.78978 -0.94877 0
M  V30 1091 C 107.912 6.18381 -1.33372 0
M  V30 1092 C 106.576 6.47821 -1.60887 0
M  V30 1093 H 105.846 0.707338 0.220802 0
M  V30 1094 H 108.493 1.91012 -0.136665 0
M  V30 1095 H 106.798 3.34515 2.03978 0
M  V30 1096 H 108.495 3.60804 1.74989 0
M  V30 1097 H 105.085 4.25983 0.472954 0
M  V30 1098 H 109.269 4.95832 -0.215456 0
M  V30 1099 H 104.525 6.00115 -1.16925 0
M  V30 1100 H 108.699 6.71277 -1.85367 0
M  V30 1101 H 106.326 7.23399 -2.33661 0
M  V30 1102 N 107.901 -0.206675 1.56239 0
M  V30 1103 C 109.129 -0.945345 1.8404 0
M  V30 1104 C 109.544 -1.77336 0.647885 0
M  V30 1105 O 108.901 -1.78425 -0.383511 0
M  V30 1106 C 108.952 -1.8509 3.10522 0
M  V30 1107 O 108.673 -1.05634 4.25174 0
M  V30 1108 C 110.174 -2.70222 3.51418 0
M  V30 1109 H 107.394 -0.276372 0.61144 0
M  V30 1110 H 109.938 -0.217417 2.03341 0
M  V30 1111 H 108.093 -2.53259 2.93153 0
M  V30 1112 H 108.507 -1.67238 4.97124 0
M  V30 1113 H 109.981 -3.29438 4.42916 0
M  V30 1114 H 110.458 -3.43358 2.73864 0
M  V30 1115 H 111.064 -2.07443 3.71278 0
M  V30 1116 N 109.379 -1.50304 -0.473955 0
M  V30 1117 C 110.79 -1.54042 -1.0549 0
M  V30 1118 C 111.141 -0.342248 -1.93192 0
M  V30 1119 O 110.266 0.545157 -2.09421 0
M  V30 1120 C 110.861 -2.79152 -1.91989 0
M  V30 1121 C 109.42 -2.8558 -2.45196 0
M  V30 1122 C 108.567 -2.48295 -1.2347 0
M  V30 1123 H 111.518 -1.5661 -0.256693 0
M  V30 1124 H 111.539 -2.60845 -2.7702 0
M  V30 1125 H 111.051 -3.66339 -1.28131 0
M  V30 1126 H 109.152 -2.02738 -3.12615 0
M  V30 1127 H 109.265 -3.88403 -2.80499 0
M  V30 1128 H 107.629 -2.00669 -1.56856 0
M  V30 1129 H 108.412 -3.37787 -0.612789 0
M  V30 1130 N 110.857 0.726932 -1.39834 0
M  V30 1131 C 111.82 1.82269 -1.38962 0
M  V30 1132 C 112.82 1.58248 -0.285334 0
M  V30 1133 O 114.01 1.65499 -0.54366 0
M  V30 1134 C 111.142 3.20186 -1.17019 0
M  V30 1135 H 112.335 1.84443 -2.36476 0
M  V30 1136 H 109.888 0.931416 -1.25516 0
M  V30 1137 H 110.623 3.23669 -0.202204 0
M  V30 1138 H 110.408 3.3902 -1.96998 0
M  V30 1139 H 111.898 4.00235 -1.1917 0
M  V30 1140 N 112.336 1.25143 0.95797 0
M  V30 1141 C 113.246 1.06968 2.08794 0
M  V30 1142 C 114.262 0.00773911 1.73998 0
M  V30 1143 O 115.438 0.207972 2.00323 0
M  V30 1144 C 112.503 0.68691 3.39827 0
M  V30 1145 C 111.564 1.82641 3.88511 0
M  V30 1146 C 110.797 1.46181 5.1329 0
M  V30 1147 O 111.02 0.355971 5.69288 0
M  V30 1148 O 109.954 2.29085 5.566 0
M  V30 1149 H 113.78 2.01723 2.27027 0
M  V30 1150 H 111.365 1.04051 1.07209 0
M  V30 1151 H 113.247 0.485417 4.18595 0
M  V30 1152 H 111.922 -0.231417 3.22872 0
M  V30 1153 H 110.829 2.08274 3.10762 0
M  V30 1154 H 112.162 2.72386 4.09959 0
M  V30 1155 N 113.814 -1.1601 1.06675 0
M  V30 1156 C 114.744 -2.22688 0.702307 0
M  V30 1157 C 115.725 -1.67306 -0.307032 0
M  V30 1158 O 116.91 -1.93352 -0.181305 0
M  V30 1159 C 114.04 -3.47178 0.092038 0
M  V30 1160 C 112.994 -4.15477 1.02777 0
M  V30 1161 C 112.32 -5.33963 0.28061 0
M  V30 1162 C 113.62 -4.66019 2.35846 0
M  V30 1163 H 115.314 -2.53429 1.59419 0
M  V30 1164 H 112.86 -1.21813 0.767961 0
M  V30 1165 H 114.813 -4.21037 -0.174814 0
M  V30 1166 H 113.537 -3.15749 -0.834877 0
M  V30 1167 H 112.196 -3.43549 1.27944 0
M  V30 1168 H 111.844 -4.98788 -0.649545 0
M  V30 1169 H 111.544 -5.806 0.904258 0
M  V30 1170 H 113.068 -6.10596 0.021396 0
M  V30 1171 H 114.482 -5.3144 2.15045 0
M  V30 1172 H 112.879 -5.23293 2.93743 0
M  V30 1173 H 113.949 -3.82023 2.98641 0
M  V30 1174 N 115.292 -0.849877 -1.32721 0
M  V30 1175 C 116.708 -0.539102 -1.50219 0
M  V30 1176 C 116.908 0.931271 -1.78689 0
M  V30 1177 O 115.964 1.71455 -1.85363 0
M  V30 1178 C 117.277 -1.42196 -2.64954 0
M  V30 1179 C 118.825 -1.42189 -2.78839 0
M  V30 1180 C 119.3 -2.28985 -3.96648 0
M  V30 1181 N 120.791 -2.26754 -4.03902 0
M  V30 1182 C 121.526 -2.90644 -4.94281 0
M  V30 1183 N 121.022 -3.63629 -5.897 0
M  V30 1184 N 122.815 -2.80057 -4.87365 0
M  V30 1185 H 114.966 -1.80156 -1.12506 0
M  V30 1186 H 117.229 -0.769217 -0.554085 0
M  V30 1187 H 116.935 -2.46733 -2.50631 0
M  V30 1188 H 116.809 -1.10591 -3.60624 0
M  V30 1189 H 119.196 -0.38419 -2.92588 0
M  V30 1190 H 119.277 -1.77807 -1.83898 0
M  V30 1191 H 118.921 -3.32819 -3.83658 0
M  V30 1192 H 118.851 -1.90702 -4.90857 0
M  V30 1193 H 121.342 -1.73688 -3.3562 0
M  V30 1194 H 121.655 -4.09558 -6.55349 0
M  V30 1195 H 120 -3.67737 -5.89741 0
M  V30 1196 H 123.191 -2.22593 -4.11789 0
M  V30 1197 H 123.364 -3.30132 -5.57599 0
M  V30 1198 N 116.77 1.45427 -0.607355 0
M  V30 1199 C 118.186 1.57283 -0.270985 0
M  V30 1200 C 118.386 1.59875 1.22647 0
M  V30 1201 O 117.442 1.52893 2.00948 0
M  V30 1202 C 118.755 2.85566 -0.941952 0
M  V30 1203 C 120.303 2.9924 -0.917849 0
M  V30 1204 C 120.778 4.30293 -1.56882 0
M  V30 1205 N 122.269 4.37051 -1.5343 0
M  V30 1206 C 123.004 5.37123 -2.00715 0
M  V30 1207 N 122.5 6.43734 -2.56084 0
M  V30 1208 N 124.293 5.28479 -1.91484 0
M  V30 1209 H 116.444 1.41988 -1.57966 0
M  V30 1210 H 118.707 0.67885 -0.661715 0
M  V30 1211 H 118.413 2.8955 -1.99633 0
M  V30 1212 H 118.287 3.74322 -0.465096 0
M  V30 1213 H 120.674 2.94822 0.127984 0
M  V30 1214 H 120.755 2.11895 -1.43297 0
M  V30 1215 H 120.399 4.35469 -2.61398 0
M  V30 1216 H 120.329 5.16454 -1.02873 0
M  V30 1217 H 122.82 3.60615 -1.12982 0
M  V30 1218 H 123.133 7.16341 -2.89958 0
M  V30 1219 H 121.478 6.44485 -2.60122 0
M  V30 1220 H 124.669 4.44098 -1.47967 0
M  V30 1221 H 124.842 6.0632 -2.28648 0
M  V30 1222 N 118.248 0.346503 1.53744 0
M  V30 1223 C 119.495 -0.249104 2.00962 0
M  V30 1224 C 119.823 -1.5032 1.23426 0
M  V30 1225 O 119.078 -1.93217 0.310761 0
M  V30 1226 C 119.377 -0.605809 3.52228 0
M  V30 1227 C 119.043 0.551747 4.47512 0
M  V30 1228 C 117.705 0.86941 4.73281 0
M  V30 1229 C 120.057 1.32818 5.03993 0
M  V30 1230 C 117.385 1.96582 5.52786 0
M  V30 1231 C 119.737 2.41486 5.84694 0
M  V30 1232 C 118.401 2.73808 6.08757 0
M  V30 1233 H 117.671 -0.0911538 0.735372 0
M  V30 1234 H 120.318 0.475027 1.85515 0
M  V30 1235 H 118.623 -1.4107 3.65522 0
M  V30 1236 H 120.32 -1.07858 3.86222 0
M  V30 1237 H 116.91 0.294102 4.2759 0
M  V30 1238 H 121.094 1.09602 4.84047 0
M  V30 1239 H 116.35 2.22045 5.69654 0
M  V30 1240 H 120.524 3.02078 6.27473 0
M  V30 1241 H 118.151 3.58892 6.7015 0
M  V30 1242 N 119.726 -1.57421 0.075193 0
M  V30 1243 C 121.003 -1.85029 -0.634329 0
M  V30 1244 C 121.383 -0.968305 -1.87582 0
M  V30 1245 O 120.731 -0.0354749 -2.28472 0
M  V30 1246 C 120.941 -3.35286 -0.968742 0
M  V30 1247 C 122.289 -4.02875 -1.34077 0
M  V30 1248 O 123.313 -3.40051 -1.06037 0
M  V30 1249 O 122.172 -5.13691 -1.86506 0
M  V30 1250 H 119.266 -0.7645 -0.315387 0
M  V30 1251 H 121.812 -1.69366 0.106382 0
M  V30 1252 H 120.584 -3.91203 -0.0871376 0
M  V30 1253 H 120.207 -3.56223 -1.7661 0
M  V30 1254 N 121.204 0.198386 -1.56346 0
M  V30 1255 C 122.452 0.91747 -1.80075 0
M  V30 1256 C 122.773 1.83929 -0.647692 0
M  V30 1257 O 122.043 1.93029 0.334166 0
M  V30 1258 H 120.623 0.341774 -0.664228 0
M  V30 1259 H 123.285 0.204684 -1.93822 0
M  V30 1260 H 122.381 1.51055 -2.7311 0
M  V30 1261 N 122.682 1.50554 0.465978 0
M  V30 1262 C 123.928 1.62038 1.21949 0
M  V30 1263 C 124.261 0.322116 1.9151 0
M  V30 1264 O 123.536 -0.676723 1.82348 0
M  V30 1265 C 123.819 2.80421 2.25912 0
M  V30 1266 C 123.672 4.20144 1.60622 0
M  V30 1267 C 124.991 2.94354 3.27176 0
M  V30 1268 H 122.11 0.589752 0.441998 0
M  V30 1269 H 124.752 1.82956 0.51257 0
M  V30 1270 H 122.902 2.62717 2.86203 0
M  V30 1271 H 124.574 4.49449 1.03889 0
M  V30 1272 H 122.817 4.24165 0.909211 0
M  V30 1273 H 123.488 4.98914 2.36196 0
M  V30 1274 H 125.964 3.10578 2.76913 0
M  V30 1275 H 124.84 3.788 3.97242 0
M  V30 1276 H 125.101 2.05186 3.916 0
M  V30 1277 N 124.16 -0.719506 1.40217 0
M  V30 1278 C 125.092 -1.84428 1.36084 0
M  V30 1279 C 126.105 -1.60597 0.266913 0
M  V30 1280 O 127.294 -1.70544 0.526983 0
M  V30 1281 C 124.394 -3.20757 1.094 0
M  V30 1282 C 123.567 -3.71817 2.30372 0
M  V30 1283 C 122.626 -4.86748 1.99907 0
M  V30 1284 O 121.652 -4.99603 2.72737 0
M  V30 1285 N 122.854 -5.7226 0.974635 0
M  V30 1286 H 125.619 -1.88473 2.33019 0
M  V30 1287 H 123.18 -0.900885 1.3452 0
M  V30 1288 H 125.172 -3.95235 0.870116 0
M  V30 1289 H 123.742 -3.11884 0.211452 0
M  V30 1290 H 122.962 -2.88514 2.68614 0
M  V30 1291 H 124.25 -4.02666 3.11026 0
M  V30 1292 H 123.648 -5.6448 0.371368 0
M  V30 1293 H 122.205 -6.46739 0.810656 0
M  V30 1294 N 125.638 -1.25649 -0.95132 0
M  V30 1295 C 126.915 -1.01361 -1.67288 0
M  V30 1296 C 127.295 0.459135 -2.06046 0
M  V30 1297 O 126.643 1.43723 -1.7764 0
M  V30 1298 C 126.853 -1.95256 -2.89268 0
M  V30 1299 C 128.201 -2.23289 -3.61147 0
M  V30 1300 O 129.225 -1.93041 -2.99355 0
M  V30 1301 O 128.084 -2.74741 -4.72419 0
M  V30 1302 H 125.178 -0.38464 -0.732107 0
M  V30 1303 H 127.724 -1.36817 -1.00395 0
M  V30 1304 H 126.496 -2.94685 -2.57442 0
M  V30 1305 H 126.119 -1.60218 -3.6389 0
M  V30 1306 N 127.117 1.15442 -1.07289 0
M  V30 1307 C 128.528 1.67803 -0.818475 0
M  V30 1308 C 128.879 1.8489 0.656507 0
M  V30 1309 O 128.004 1.55176 1.50829 0
M  V30 1310 C 128.599 3.04805 -1.47917 0
M  V30 1311 C 127.158 3.54245 -1.27229 0
M  V30 1312 C 126.305 2.29986 -1.54925 0
M  V30 1313 H 129.256 0.996646 -1.23502 0
M  V30 1314 H 129.277 3.69702 -0.90005 0
M  V30 1315 H 128.789 2.92336 -2.55267 0
M  V30 1316 H 126.89 3.71956 -0.21899 0
M  V30 1317 H 127.003 4.35723 -1.99203 0
M  V30 1318 H 125.367 2.35496 -0.970242 0
M  V30 1319 H 126.15 2.20105 -2.63455 0
M  V30 1320 N 128.595 0.856903 1.32268 0
M  V30 1321 C 130.011 0.547061 1.49931 0
M  V30 1322 C 130.211 -0.921781 1.7918 0
M  V30 1323 O 129.267 -1.70469 1.8627 0
M  V30 1324 C 130.58 1.43599 2.64196 0
M  V30 1325 C 132.128 1.43665 2.78081 0
M  V30 1326 C 132.603 2.31085 3.95428 0
M  V30 1327 N 134.094 2.28893 4.02694 0
M  V30 1328 C 134.829 2.93262 4.92732 0
M  V30 1329 N 134.325 3.66751 5.87763 0
M  V30 1330 N 136.118 2.82638 4.85873 0
M  V30 1331 H 128.269 1.8075 1.11549 0
M  V30 1332 H 130.532 0.772144 0.549997 0
M  V30 1333 H 130.238 2.48058 2.49319 0
M  V30 1334 H 130.112 1.12502 3.60032 0
M  V30 1335 H 132.499 0.399701 2.92381 0
M  V30 1336 H 132.58 1.7878 1.82952 0
M  V30 1337 H 132.224 3.34849 3.81888 0
M  V30 1338 H 132.154 1.93302 4.89839 0
M  V30 1339 H 134.645 1.75466 3.34694 0
M  V30 1340 H 134.958 4.13027 6.53168 0
M  V30 1341 H 133.303 3.70859 5.87783 0
M  V30 1342 H 136.494 2.24774 4.10602 0
M  V30 1343 H 136.667 3.33084 5.55841 0
M  V30 1344 N 130.073 -1.45103 0.615059 0
M  V30 1345 C 131.322 -2.01396 0.110718 0
M  V30 1346 C 131.635 -1.48834 -1.26916 0
M  V30 1347 O 132.841 -1.97152 -1.86664 0
M  V30 1348 C 131.297 -3.59599 0.14723 0
M  V30 1349 C 130.905 -4.21158 1.52743 0
M  V30 1350 C 132.649 -4.23428 -0.30148 0
M  V30 1351 C 130.556 -5.71535 1.51992 0
M  V30 1352 H 129.486 -0.753061 0.0376241 0
M  V30 1353 H 132.137 -1.66494 0.77149 0
M  V30 1354 H 130.519 -3.91724 -0.580339 0
M  V30 1355 H 131.693 -4.00594 2.2773 0
M  V30 1356 H 130.008 -3.69552 1.91886 0
M  V30 1357 H 132.605 -5.33703 -0.326392 0
M  V30 1358 H 132.948 -3.94629 -1.32565 0
M  V30 1359 H 133.481 -3.96047 0.373065 0
M  V30 1360 H 130.22 -6.05044 2.52193 0
M  V30 1361 H 129.74 -5.94268 0.81274 0
M  V30 1362 H 131.419 -6.34873 1.24681 0
M  V30 1363 N 131.551 -0.354651 -1.53558 0
M  V30 1364 C 132.481 0.489091 -2.2832 0
M  V30 1365 C 133.462 1.09324 -1.30316 0
M  V30 1366 O 134.647 1.11255 -1.59173 0
M  V30 1367 C 131.777 1.63456 -3.0643 0
M  V30 1368 C 130.731 1.1582 -4.12031 0
M  V30 1369 C 130.057 2.39305 -4.7816 0
M  V30 1370 C 131.357 0.250731 -5.21698 0
M  V30 1371 H 133.051 -0.134614 -2.99097 0
M  V30 1372 H 130.597 -0.0661826 -1.43848 0
M  V30 1373 H 132.55 2.23136 -3.57475 0
M  V30 1374 H 131.274 2.28533 -2.33325 0
M  V30 1375 H 129.933 0.584146 -3.61916 0
M  V30 1376 H 129.581 3.02814 -4.01637 0
M  V30 1377 H 129.281 2.08109 -5.49513 0
M  V30 1378 H 130.805 2.99691 -5.31994 0
M  V30 1379 H 132.219 0.754695 -5.68311 0
M  V30 1380 H 130.616 0.0301468 -6.00092 0
M  V30 1381 H 131.686 -0.710125 -4.79672 0
M  V30 1382 N 133.029 1.57378 -0.0835403 0
M  V30 1383 C 133.962 2.09016 0.915833 0
M  V30 1384 C 134.94 0.997993 1.2837 0
M  V30 1385 O 136.124 1.27219 1.39096 0
M  V30 1386 C 133.251 2.55757 2.22049 0
M  V30 1387 C 132.297 3.76522 2.00333 0
M  V30 1388 S 133.13 5.20661 1.25191 0
M  V30 1389 C 134.286 5.70743 2.56912 0
M  V30 1390 H 134.519 2.93457 0.476492 0
M  V30 1391 H 132.052 1.53856 0.129493 0
M  V30 1392 H 134.01 2.83346 2.97027 0
M  V30 1393 H 132.671 1.71564 2.63106 0
M  V30 1394 H 131.864 4.07256 2.96916 0
M  V30 1395 H 131.466 3.49367 1.33488 0
M  V30 1396 H 133.758 5.78304 3.52946 0
M  V30 1397 H 134.701 6.6944 2.30772 0
M  V30 1398 H 135.109 4.98616 2.64655 0
M  V30 1399 N 134.507 -0.190092 1.56449 0
M  V30 1400 C 135.47 -1.21925 1.9408 0
M  V30 1401 C 136.47 -1.38176 0.822431 0
M  V30 1402 O 137.66 -1.35903 1.08977 0
M  V30 1403 C 134.792 -2.58773 2.21922 0
M  V30 1404 H 135.985 -0.897464 2.86157 0
M  V30 1405 H 133.538 -0.43181 1.50217 0
M  V30 1406 H 134.273 -2.95998 1.32499 0
M  V30 1407 H 134.058 -2.48348 3.03424 0
M  V30 1408 H 135.548 -3.32978 2.52022 0
M  V30 1409 N 135.985 -1.50799 -0.457987 0
M  V30 1410 C 137.234 -1.6168 -1.20593 0
M  V30 1411 C 137.547 -0.32888 -1.92815 0
M  V30 1412 O 138.753 -0.316773 -2.69646 0
M  V30 1413 C 137.209 -2.8545 -2.19195 0
M  V30 1414 C 136.817 -4.21168 -1.52715 0
M  V30 1415 C 138.561 -3.05681 -2.94549 0
M  V30 1416 C 136.468 -5.3611 -2.4968 0
M  V30 1417 H 135.398 -0.602134 -0.453818 0
M  V30 1418 H 138.049 -1.77245 -0.475031 0
M  V30 1419 H 136.431 -2.63472 -2.95632 0
M  V30 1420 H 137.605 -4.53449 -0.819775 0
M  V30 1421 H 135.92 -4.06648 -0.895922 0
M  V30 1422 H 138.517 -3.88727 -3.67145 0
M  V30 1423 H 138.86 -2.17929 -3.54701 0
M  V30 1424 H 139.393 -3.27901 -2.25223 0
M  V30 1425 H 136.132 -6.26057 -1.94249 0
M  V30 1426 H 135.652 -5.0823 -3.18532 0
M  V30 1427 H 137.331 -5.6722 -3.11241 0
M  V30 1428 N 137.463 0.71206 -1.40597 0
M  V30 1429 C 138.411 1.84746 -1.41321 0
M  V30 1430 C 139.405 1.66842 -0.293268 0
M  V30 1431 O 140.611 1.73904 -0.464481 0
M  V30 1432 H 136.986 0.608522 -0.441819 0
M  V30 1433 H 138.957 1.81252 -2.37045 0
M  V30 1434 C 137.706 3.22638 -1.29614 0
M  V30 1435 H 137.029 3.37023 -2.15071 0
M  V30 1436 H 138.469 4.02209 -1.3418 0
M  V30 1437 C 136.928 3.36899 -0.00673121 0
M  V30 1438 O 137.458 3.90186 0.954859 0
M  V30 1439 N 135.664 2.9053 0.0639327 0
M  V30 1440 H 135.211 2.47353 -0.719311 0
M  V30 1441 H 135.169 3.0045 0.926118 0
M  V30 1442 N 138.941 1.26152 0.944643 0
M  V30 1443 C 140.189 1.11271 1.6871 0
M  V30 1444 C 140.51 -0.345166 1.91921 0
M  V30 1445 O 139.78 -1.24387 1.51343 0
M  V30 1446 H 138.36 0.408783 0.625224 0
M  V30 1447 H 141.022 1.58427 1.1352 0
M  V30 1448 H 140.118 1.62879 2.66227 0
M  V30 1449 N 140.419 -1.14872 1.07899 0
M  V30 1450 C 141.366 -2.19791 0.704319 0
M  V30 1451 C 142.336 -1.63238 -0.306987 0
M  V30 1452 O 143.521 -1.8983 -0.192171 0
M  V30 1453 C 140.661 -3.44911 0.114244 0
M  V30 1454 C 139.774 -4.15637 1.1777 0
M  V30 1455 C 138.909 -5.28324 0.552037 0
M  V30 1456 C 137.948 -5.90875 1.59789 0
M  V30 1457 N 137.085 -6.95022 0.994404 0
M  V30 1458 H 141.925 -2.5119 1.60336 0
M  V30 1459 H 139.462 -1.23356 0.801352 0
M  V30 1460 H 141.42 -4.16477 -0.245544 0
M  V30 1461 H 140.05 -3.14011 -0.74813 0
M  V30 1462 H 139.102 -3.42512 1.65499 0
M  V30 1463 H 140.414 -4.5823 1.97046 0
M  V30 1464 H 139.568 -6.06538 0.1402 0
M  V30 1465 H 138.307 -4.86939 -0.272431 0
M  V30 1466 H 137.312 -5.11369 2.01945 0
M  V30 1467 H 138.537 -6.34337 2.42474 0
M  V30 1468 H 136.483 -6.55722 0.190939 0
M  V30 1469 H 136.4 -7.36073 1.72432 0
M  V30 1470 H 137.668 -7.77123 0.608253 0
M  V30 1471 N 141.898 -0.863906 -1.31812 0
M  V30 1472 C 143.144 -0.472535 -1.97218 0
M  V30 1473 C 143.477 0.971394 -1.68159 0
M  V30 1474 O 142.752 1.68309 -0.974798 0
M  V30 1475 C 143.035 -0.723054 -3.52766 0
M  V30 1476 C 142.888 -2.21608 -3.91421 0
M  V30 1477 C 144.207 -0.185522 -4.39709 0
M  V30 1478 H 141.326 -0.173158 -0.71637 0
M  V30 1479 H 143.968 -1.08403 -1.56041 0
M  V30 1480 H 142.118 -0.202577 -3.87971 0
M  V30 1481 H 143.79 -2.80334 -3.66347 0
M  V30 1482 H 142.033 -2.691 -3.40246 0
M  V30 1483 H 142.704 -2.34203 -4.99853 0
M  V30 1484 H 145.18 -0.630726 -4.11292 0
M  V30 1485 H 144.056 -0.390306 -5.47511 0
M  V30 1486 H 144.317 0.912229 -4.32586 0
M  V30 1487 N 143.376 1.44774 -0.622745 0
M  V30 1488 C 144.623 2.02121 -0.1239 0
M  V30 1489 C 144.951 1.48915 1.25118 0
M  V30 1490 O 144.206 0.660045 1.84233 0
M  V30 1491 C 144.505 3.57364 -0.0508323 0
M  V30 1492 C 144.171 4.29787 -1.36358 0
M  V30 1493 C 142.833 4.4929 -1.72314 0
M  V30 1494 C 145.185 4.71062 -2.23048 0
M  V30 1495 C 142.513 5.07325 -2.94682 0
M  V30 1496 C 144.865 5.30452 -3.44679 0
M  V30 1497 C 143.529 5.48175 -3.80868 0
M  V30 1498 H 142.799 0.739612 -0.0453381 0
M  V30 1499 H 145.446 1.73648 -0.807389 0
M  V30 1500 H 143.751 3.85202 0.715991 0
M  V30 1501 H 145.448 3.99456 0.351533 0
M  V30 1502 H 142.038 4.14932 -1.07375 0
M  V30 1503 H 146.222 4.55715 -1.96565 0
M  V30 1504 H 141.478 5.19235 -3.22809 0
M  V30 1505 H 145.652 5.61385 -4.12092 0
M  V30 1506 H 143.279 5.92912 -4.75773 0
M  V30 1507 N 144.854 0.36279 1.53368 0
M  V30 1508 C 146.131 -0.284021 1.93527 0
M  V30 1509 C 146.511 -1.66628 1.29608 0
M  V30 1510 O 145.859 -2.23942 0.45413 0
M  V30 1511 C 146.069 -0.337028 3.47369 0
M  V30 1512 C 147.417 -0.578708 4.20638 0
M  V30 1513 O 148.441 -0.418352 3.53735 0
M  V30 1514 O 147.3 -0.89074 5.39192 0
M  V30 1515 H 144.394 -0.169743 0.809393 0
M  V30 1516 H 146.94 0.41537 1.64538 0
M  V30 1517 H 145.712 0.632217 3.86159 0
M  V30 1518 H 145.335 -1.08243 3.82582 0
M  V30 1519 N 146.332 -1.57332 0.0918853 0
M  V30 1520 C 147.578 -1.94524 -0.573425 0
M  V30 1521 C 147.911 -0.973578 -1.68033 0
M  V30 1522 O 147.186 -0.00609226 -1.94499 0
M  V30 1523 C 147.469 -3.41858 -1.13161 0
M  V30 1524 C 147.322 -4.4979 -0.0299747 0
M  V30 1525 C 148.641 -3.90435 -2.03098 0
M  V30 1526 H 145.76 -0.70734 -0.206975 0
M  V30 1527 H 148.402 -1.89309 0.161942 0
M  V30 1528 H 146.552 -3.46433 -1.7583 0
M  V30 1529 H 148.224 -4.57327 0.604112 0
M  V30 1530 H 146.467 -4.291 0.636833 0
M  V30 1531 H 147.138 -5.50069 -0.461287 0
M  V30 1532 H 149.614 -3.87992 -1.50338 0
M  V30 1533 H 148.49 -4.94097 -2.39081 0
M  V30 1534 H 148.751 -3.29541 -2.94712 0
M  V30 1535 N 147.81 0.181792 -1.56548 0
M  V30 1536 C 149.038 0.915947 -1.85521 0
M  V30 1537 C 149.453 1.76282 -0.676016 0
M  V30 1538 O 148.81 1.79012 0.355077 0
M  V30 1539 C 148.861 1.80126 -3.13427 0
M  V30 1540 O 148.582 0.988562 -4.26801 0
M  V30 1541 C 150.083 2.64597 -3.55673 0
M  V30 1542 H 147.303 0.26661 -0.61576 0
M  V30 1543 H 149.847 0.185039 -2.03661 0
M  V30 1544 H 148.002 2.48563 -2.97145 0
M  V30 1545 H 148.416 1.59308 -4.99721 0
M  V30 1546 H 149.89 3.2235 -4.48101 0
M  V30 1547 H 150.367 3.38958 -2.79292 0
M  V30 1548 H 150.973 2.0151 -3.74532 0
M  V30 1549 N 149.288 1.51039 0.449983 0
M  V30 1550 C 150.235 1.71439 1.54523 0
M  V30 1551 C 151.205 0.555871 1.56522 0
M  V30 1552 O 152.39 0.788871 1.73728 0
M  V30 1553 C 149.53 1.83384 2.92343 0
M  V30 1554 C 148.643 3.10873 2.9997 0
M  V30 1555 C 147.778 3.13488 4.28834 0
M  V30 1556 C 146.817 4.35343 4.30282 0
M  V30 1557 N 145.954 4.35579 5.5065 0
M  V30 1558 H 150.794 2.64934 1.36433 0
M  V30 1559 H 148.331 1.31312 0.662982 0
M  V30 1560 H 150.289 1.88291 3.72293 0
M  V30 1561 H 148.919 0.933086 3.0902 0
M  V30 1562 H 147.971 3.15336 2.12761 0
M  V30 1563 H 149.283 4.00814 2.96901 0
M  V30 1564 H 148.437 3.17241 5.17149 0
M  V30 1565 H 147.176 2.21414 4.34543 0
M  V30 1566 H 146.181 4.3178 3.40362 0
M  V30 1567 H 147.406 5.28668 4.26248 0
M  V30 1568 H 145.352 3.46369 5.57104 0
M  V30 1569 H 145.269 5.19313 5.49409 0
M  V30 1570 H 146.537 4.43507 6.41032 0
M  V30 1571 N 150.766 -0.704594 1.40972 0
M  V30 1572 C 152.014 -1.46169 1.39568 0
M  V30 1573 C 152.335 -1.95 0.00253745 0
M  V30 1574 O 151.605 -1.71095 -0.954114 0
M  V30 1575 H 150.185 -0.542326 0.513704 0
M  V30 1576 H 152.847 -0.834553 1.76128 0
M  V30 1577 H 151.943 -2.32922 2.07735 0
M  V30 1578 N 152.244 -1.26651 -0.937939 0
M  V30 1579 C 153.66 -1.03834 -1.21205 0
M  V30 1580 C 153.86 0.234502 -2.00131 0
M  V30 1581 O 152.916 0.942767 -2.3424 0
M  V30 1582 C 154.229 -2.27167 -1.97017 0
M  V30 1583 C 155.777 -2.32101 -2.09996 0
M  V30 1584 C 156.252 -3.55136 -2.8921 0
M  V30 1585 N 157.743 -3.55632 -2.96783 0
M  V30 1586 C 158.478 -4.475 -3.58512 0
M  V30 1587 N 157.974 -5.4966 -4.21717 0
M  V30 1588 N 159.767 -4.35145 -3.55816 0
M  V30 1589 H 151.918 -2.08398 -0.410391 0
M  V30 1590 H 154.181 -0.916031 -0.244114 0
M  V30 1591 H 153.887 -3.19765 -1.46434 0
M  V30 1592 H 153.761 -2.31672 -2.97671 0
M  V30 1593 H 156.148 -1.40015 -2.59769 0
M  V30 1594 H 156.229 -2.31605 -1.08594 0
M  V30 1595 H 155.873 -4.47553 -2.40123 0
M  V30 1596 H 155.803 -3.5288 -3.90875 0
M  V30 1597 H 158.294 -2.81743 -2.51852 0
M  V30 1598 H 158.607 -6.15943 -4.66727 0
M  V30 1599 H 156.952 -5.53514 -4.20294 0
M  V30 1600 H 160.143 -3.5455 -3.05634 0
M  V30 1601 H 160.316 -5.06934 -4.03636 0
M  V30 1602 N 153.722 1.14298 -1.08507 0
M  V30 1603 C 154.669 2.19414 -0.715965 0
M  V30 1604 C 155.639 1.63399 0.298326 0
M  V30 1605 O 156.824 1.89929 0.182101 0
M  V30 1606 C 153.964 3.44845 -0.132534 0
M  V30 1607 C 153.077 4.15007 -1.19973 0
M  V30 1608 C 152.212 5.28024 -0.580048 0
M  V30 1609 C 151.251 5.9002 -1.62921 0
M  V30 1610 N 150.388 6.94485 -1.03125 0
M  V30 1611 H 155.228 2.50336 -1.61666 0
M  V30 1612 H 152.765 1.2293 -0.807882 0
M  V30 1613 H 154.723 4.16601 0.223454 0
M  V30 1614 H 153.353 3.14403 0.731467 0
M  V30 1615 H 152.405 3.41629 -1.67313 0
M  V30 1616 H 153.717 4.57178 -1.99473 0
M  V30 1617 H 152.871 6.06455 -0.172364 0
M  V30 1618 H 151.61 4.87076 0.246603 0
M  V30 1619 H 150.615 5.10291 -2.04654 0
M  V30 1620 H 151.84 6.33042 -2.45835 0
M  V30 1621 H 149.786 6.55612 -0.225711 0
M  V30 1622 H 149.703 7.35148 -1.76334 0
M  V30 1623 H 150.971 7.7679 -0.649458 0
M  V30 1624 N 155.201 0.870884 1.31352 0
M  V30 1625 C 156.448 0.482273 1.96673 0
M  V30 1626 C 156.776 -0.965638 1.68836 0
M  V30 1627 O 156.031 -1.69514 0.977937 0
M  V30 1628 C 156.33 0.687157 3.50732 0
M  V30 1629 C 155.996 2.108 3.9859 0
M  V30 1630 C 154.658 2.49656 4.1137 0
M  V30 1631 C 157.01 3.03459 4.23748 0
M  V30 1632 C 154.338 3.80412 4.46659 0
M  V30 1633 C 156.69 4.3373 4.60501 0
M  V30 1634 C 155.354 4.725 4.71487 0
M  V30 1635 H 154.624 0.176476 0.719679 0
M  V30 1636 H 157.271 1.10405 1.56471 0
M  V30 1637 H 155.576 -0.0177476 3.91796 0
M  V30 1638 H 157.273 0.366284 3.99324 0
M  V30 1639 H 153.863 1.79633 3.8914 0
M  V30 1640 H 158.047 2.74665 4.13368 0
M  V30 1641 H 153.303 4.1021 4.53362 0
M  V30 1642 H 157.477 5.05578 4.78919 0
M  V30 1643 H 155.104 5.73859 4.98588 0
M  V30 1644 N 156.679 -1.44442 0.630414 0
M  V30 1645 C 157.909 -2.06115 0.141465 0
M  V30 1646 C 158.317 -1.47179 -1.1889 0
M  V30 1647 O 157.66 -0.588873 -1.74006 0
M  V30 1648 C 157.722 -3.59467 -0.0484355 0
M  V30 1649 C 157.386 -4.40864 1.20366 0
M  V30 1650 C 158.383 -4.74391 2.12719 0
M  V30 1651 C 156.068 -4.8125 1.43887 0
M  V30 1652 C 158.062 -5.47186 3.26904 0
M  V30 1653 C 155.749 -5.53795 2.5837 0
M  V30 1654 C 156.747 -5.86682 3.49705 0
M  V30 1655 O 156.435 -6.57749 4.62191 0
M  V30 1656 H 156.167 -0.671648 0.0765792 0
M  V30 1657 H 158.721 -1.86312 0.864695 0
M  V30 1658 H 156.951 -3.77758 -0.826803 0
M  V30 1659 H 158.64 -4.02909 -0.491849 0
M  V30 1660 H 159.406 -4.43728 1.95781 0
M  V30 1661 H 155.285 -4.55073 0.736853 0
M  V30 1662 H 158.829 -5.72773 3.98217 0
M  V30 1663 H 154.726 -5.83872 2.75251 0
M  V30 1664 H 155.494 -6.76217 4.61164 0
M  V30 1665 N 158.157 -0.370918 -1.53173 0
M  V30 1666 C 159.405 0.216673 -2.00935 0
M  V30 1667 C 159.726 1.48845 -1.25977 0
M  V30 1668 O 158.996 1.92286 -0.374551 0
M  V30 1669 H 157.576 0.0830565 -0.742368 0
M  V30 1670 H 160.238 -0.49838 -1.8842 0
M  V30 1671 H 159.334 0.439893 -3.08984 0
M  V30 1672 N 159.635 1.57281 -0.100228 0
M  V30 1673 C 161.046 1.81725 0.428107 0
M  V30 1674 C 161.397 1.01619 1.67833 0
M  V30 1675 O 160.522 0.247098 2.14985 0
M  V30 1676 C 161.117 3.29617 0.78347 0
M  V30 1677 C 159.676 3.54808 1.25653 0
M  V30 1678 C 158.823 2.76118 0.255752 0
M  V30 1679 H 161.774 1.55324 -0.325608 0
M  V30 1680 H 161.795 3.4322 1.64256 0
M  V30 1681 H 161.307 3.87893 -0.12665 0
M  V30 1682 H 159.408 3.01868 2.18418 0
M  V30 1683 H 159.521 4.63443 1.21482 0
M  V30 1684 H 157.885 2.43745 0.738956 0
M  V30 1685 H 158.668 3.37145 -0.647136 0
M  V30 1686 N 161.113 -0.173488 1.56642 0
M  V30 1687 C 162.023 -1.23482 1.99473 0
M  V30 1688 C 163.039 -1.48567 0.905752 0
M  V30 1689 O 164.215 -1.60758 1.21321 0
M  V30 1690 C 161.28 -2.55444 2.34413 0
M  V30 1691 C 160.341 -2.38241 3.57127 0
M  V30 1692 C 159.574 -3.63909 3.90392 0
M  V30 1693 O 159.797 -4.68996 3.24653 0
M  V30 1694 O 158.731 -3.58149 4.83749 0
M  V30 1695 H 162.557 -0.901279 2.90018 0
M  V30 1696 H 160.142 -0.380185 1.44482 0
M  V30 1697 H 162.024 -3.33292 2.57865 0
M  V30 1698 H 160.699 -2.88382 1.4703 0
M  V30 1699 H 159.606 -1.58431 3.38896 0
M  V30 1700 H 160.939 -2.10228 4.45045 0
M  V30 1701 N 162.591 -1.51276 -0.441967 0
M  V30 1702 C 163.839 -1.63392 -1.18943 0
M  V30 1703 C 164.16 -0.350159 -1.9183 0
M  V30 1704 O 163.43 0.633784 -1.85364 0
M  V30 1705 H 162.01 -0.602164 -0.442049 0
M  V30 1706 H 164.672 -1.88186 -0.507165 0
M  V30 1707 H 163.768 -2.45934 -1.92154 0
M  V30 1708 N 164.069 0.697108 -1.41344 0
M  V30 1709 C 165.48 1.27697 -1.36199 0
M  V30 1710 C 165.831 1.9615 -0.0443463 0
M  V30 1711 O 164.956 1.98689 0.857419 0
M  V30 1712 C 165.551 2.32223 -2.46694 0
M  V30 1713 C 164.11 2.8579 -2.44952 0
M  V30 1714 C 163.257 1.59807 -2.26621 0
M  V30 1715 H 166.208 0.491968 -1.50882 0
M  V30 1716 H 166.229 3.1348 -2.15664 0
M  V30 1717 H 165.741 1.82373 -3.42581 0
M  V30 1718 H 163.842 3.3982 -1.52817 0
M  V30 1719 H 163.955 3.36325 -3.41207 0
M  V30 1720 H 162.319 1.8556 -1.7447 0
M  V30 1721 H 163.102 1.11956 -3.24532 0
M  V30 1722 N 165.547 1.27147 0.931209 0
M  V30 1723 C 166.777 1.15914 1.71019 0
M  V30 1724 C 167.185 -0.287112 1.87009 0
M  V30 1725 O 166.528 -1.20761 1.38429 0
M  V30 1726 C 166.59 1.76647 3.13107 0
M  V30 1727 C 166.254 3.25807 3.20467 0
M  V30 1728 C 167.251 4.22489 3.02983 0
M  V30 1729 C 164.936 3.66452 3.43538 0
M  V30 1730 C 166.93 5.57794 3.08454 0
M  V30 1731 C 164.617 5.01888 3.48643 0
M  V30 1732 C 165.615 5.97369 3.31119 0
M  V30 1733 O 165.303 7.30337 3.35952 0
M  V30 1734 H 165.035 0.404062 0.54195 0
M  V30 1735 H 167.589 1.68457 1.17521 0
M  V30 1736 H 165.819 1.18578 3.68071 0
M  V30 1737 H 167.508 1.60179 3.72958 0
M  V30 1738 H 168.274 3.92425 2.85004 0
M  V30 1739 H 164.153 2.92611 3.5623 0
M  V30 1740 H 167.697 6.32298 2.94694 0
M  V30 1741 H 163.594 5.31609 3.66145 0
M  V30 1742 H 164.362 7.38739 3.5243 0
M  V30 1743 N 167.025 -1.13721 1.09112 0
M  V30 1744 C 168.273 -1.84559 0.823562 0
M  V30 1745 C 168.594 -1.83754 -0.652658 0
M  V30 1746 O 167.864 -1.29102 -1.47342 0
M  V30 1747 H 166.444 -0.683376 0.301673 0
M  V30 1748 H 169.106 -1.37771 1.37859 0
M  V30 1749 H 168.202 -2.8917 1.17419 0
M  V30 1750 N 168.503 -0.877838 -1.30888 0
M  V30 1751 C 169.749 -0.493426 -1.96706 0
M  V30 1752 C 170.082 0.953504 -1.6918 0
M  V30 1753 O 169.357 1.67266 -0.992594 0
M  V30 1754 C 169.64 -0.760429 -3.51979 0
M  V30 1755 C 169.493 -2.25747 -3.89048 0
M  V30 1756 C 170.812 -0.232148 -4.39487 0
M  V30 1757 H 167.931 -0.180746 -0.714493 0
M  V30 1758 H 170.573 -1.10052 -1.54882 0
M  V30 1759 H 168.723 -0.243715 -3.87735 0
M  V30 1760 H 170.395 -2.84204 -3.63354 0
M  V30 1761 H 168.638 -2.72694 -3.37373 0
M  V30 1762 H 169.309 -2.39491 -4.97341 0
M  V30 1763 H 171.785 -0.674314 -4.106 0
M  V30 1764 H 170.661 -0.448355 -5.47066 0
M  V30 1765 H 170.922 0.866297 -4.33529 0
M  V30 1766 N 169.982 1.44106 -0.638065 0
M  V30 1767 C 171.229 2.01978 -0.14533 0
M  V30 1768 C 171.557 1.50234 1.23532 0
M  V30 1769 O 170.812 0.679548 1.83523 0
M  V30 1770 C 171.111 3.5729 -0.0887327 0
M  V30 1771 C 170.777 4.28317 -1.40909 0
M  V30 1772 C 169.439 4.47437 -1.77069 0
M  V30 1773 C 171.791 4.6867 -2.28031 0
M  V30 1774 C 169.119 5.04171 -3.00047 0
M  V30 1775 C 171.471 5.26766 -3.50286 0
M  V30 1776 C 170.135 5.44104 -3.86661 0
M  V30 1777 H 169.405 0.739089 -0.0531801 0
M  V30 1778 H 172.052 1.72781 -0.825761 0
M  V30 1779 H 170.357 3.8594 0.675095 0
M  V30 1780 H 172.054 3.99807 0.309145 0
M  V30 1781 H 168.644 4.1377 -1.1177 0
M  V30 1782 H 172.828 4.53604 -2.01388 0
M  V30 1783 H 168.084 5.15782 -3.28298 0
M  V30 1784 H 172.258 5.56983 -4.18023 0
M  V30 1785 H 169.885 5.87832 -4.82034 0
M  V30 1786 N 171.46 0.379036 1.52974 0
M  V30 1787 C 172.423 -0.448865 2.24762 0
M  V30 1788 C 173.423 -0.998689 1.26027 0
M  V30 1789 O 174.613 -0.882313 1.50203 0
M  V30 1790 C 171.745 -1.62872 2.99476 0
M  V30 1791 H 172.938 0.179491 2.99362 0
M  V30 1792 H 170.491 0.13096 1.5575 0
M  V30 1793 H 171.226 -2.29479 2.29151 0
M  V30 1794 H 171.011 -1.24128 3.71934 0
M  V30 1795 H 172.501 -2.2151 3.5401 0
M  V30 1796 N 172.938 -1.57226 0.108567 0
M  V30 1797 C 174.186 -1.94448 -0.550853 0
M  V30 1798 C 174.507 -0.992074 -1.67878 0
M  V30 1799 O 173.777 -0.0465 -1.95845 0
M  V30 1800 H 172.357 -0.717897 -0.206479 0
M  V30 1801 H 175.019 -1.94112 0.175062 0
M  V30 1802 H 174.115 -2.97218 -0.952259 0
M  V30 1803 N 174.416 0.165178 -1.56732 0
M  V30 1804 C 175.832 0.517174 -1.50988 0
M  V30 1805 C 176.032 1.84331 -0.813894 0
M  V30 1806 O 175.088 2.49672 -0.37682 0
M  V30 1807 C 176.401 0.544261 -2.95733 0
M  V30 1808 C 177.949 0.631039 -3.06573 0
M  V30 1809 C 178.424 0.68896 -4.52788 0
M  V30 1810 N 179.915 0.751683 -4.5706 0
M  V30 1811 C 180.65 0.817177 -5.67547 0
M  V30 1812 N 180.146 0.843129 -6.8765 0
M  V30 1813 N 181.939 0.856668 -5.55534 0
M  V30 1814 H 174.09 -0.704318 -2.00382 0
M  V30 1815 H 176.353 -0.254687 -0.913148 0
M  V30 1816 H 176.059 -0.361607 -3.49836 0
M  V30 1817 H 175.933 1.3886 -3.5071 0
M  V30 1818 H 178.32 1.52733 -2.52501 0
M  V30 1819 H 178.401 -0.240095 -2.54671 0
M  V30 1820 H 178.045 -0.2031 -5.07494 0
M  V30 1821 H 177.975 1.57633 -5.02454 0
M  V30 1822 H 180.466 0.739661 -3.70591 0
M  V30 1823 H 180.779 0.894448 -7.67606 0
M  V30 1824 H 179.124 0.811304 -6.90248 0
M  V30 1825 H 182.315 0.833437 -4.60621 0
M  V30 1826 H 182.488 0.904247 -6.4166 0
M  V30 1827 N 175.894 1.51508 0.433938 0
M  V30 1828 C 177.171 1.54888 1.19453 0
M  V30 1829 C 177.551 0.315154 2.08734 0
M  V30 1830 O 176.899 -0.699558 2.17528 0
M  V30 1831 C 177.109 2.86467 1.99342 0
M  V30 1832 C 178.457 3.38545 2.56267 0
M  V30 1833 O 179.481 2.88041 2.0955 0
M  V30 1834 O 178.34 4.26675 3.41483 0
M  V30 1835 H 175.434 0.622863 0.544032 0
M  V30 1836 H 177.98 1.63823 0.442732 0
M  V30 1837 H 176.752 3.67718 1.33788 0
M  V30 1838 H 176.375 2.8071 2.8158 0
M  V30 1839 N 177.372 -0.689602 1.41712 0
M  V30 1840 C 178.335 -1.78521 1.43746 0
M  V30 1841 C 179.335 -1.57436 0.327191 0
M  V30 1842 O 180.525 -1.64 0.587348 0
M  V30 1843 C 177.657 -3.16971 1.25467 0
M  V30 1844 H 178.85 -1.78108 2.41283 0
M  V30 1845 H 176.403 -0.89781 1.27942 0
M  V30 1846 H 177.138 -3.23019 0.287948 0
M  V30 1847 H 176.923 -3.33678 2.05917 0
M  V30 1848 H 178.413 -3.96935 1.2974 0
M  V30 1849 N 178.85 -1.27639 -0.924453 0
M  V30 1850 C 180.075 -1.17101 -1.71179 0
M  V30 1851 C 180.5 0.268134 -1.86179 0
M  V30 1852 O 179.858 1.19415 -1.36418 0
M  V30 1853 C 179.906 -1.86313 -3.08739 0
M  V30 1854 O 179.01 -1.16331 -3.95652 0
M  V30 1855 H 178.351 -0.407091 -0.524569 0
M  V30 1856 H 180.881 -1.68767 -1.15666 0
M  V30 1857 H 180.891 -1.938 -3.59034 0
M  V30 1858 H 179.566 -2.91001 -2.97138 0
M  V30 1859 H 178.143 -1.16935 -3.54091 0
M  V30 1860 N 180.328 1.1314 -1.09713 0
M  V30 1861 C 181.744 1.36477 -0.827423 0
M  V30 1862 C 181.944 1.93654 0.556817 0
M  V30 1863 O 181 2.15791 1.31112 0
M  V30 1864 C 182.313 2.31334 -1.92106 0
M  V30 1865 C 183.861 2.44943 -1.94864 0
M  V30 1866 C 184.336 3.4311 -3.0338 0
M  V30 1867 N 185.827 3.50662 -3.02639 0
M  V30 1868 C 186.562 4.2651 -3.83246 0
M  V30 1869 N 186.058 5.05485 -4.73768 0
M  V30 1870 N 187.851 4.2184 -3.71493 0
M  V30 1871 H 180.002 0.743807 -1.9895 0
M  V30 1872 H 182.265 0.389823 -0.864143 0
M  V30 1873 H 181.971 1.96483 -2.91698 0
M  V30 1874 H 181.845 3.31381 -1.80184 0
M  V30 1875 H 184.232 2.79079 -0.959099 0
M  V30 1876 H 184.313 1.4481 -2.10864 0
M  V30 1877 H 183.957 3.09704 -4.02549 0
M  V30 1878 H 183.887 4.43055 -2.84622 0
M  V30 1879 H 186.378 2.94315 -2.37039 0
M  V30 1880 H 186.691 5.60675 -5.3185 0
M  V30 1881 H 185.036 5.04708 -4.77802 0
M  V30 1882 H 188.227 3.5922 -3.00131 0
M  V30 1883 H 188.4 4.80697 -4.3455 0
M  V30 1884 N 181.806 0.884767 1.30421 0
M  V30 1885 C 183.054 0.502112 1.95763 0
M  V30 1886 C 183.375 -0.951815 1.70192 0
M  V30 1887 O 182.645 -1.6692 1.0254 0
M  V30 1888 H 181.225 0.182694 0.724315 0
M  V30 1889 H 183.887 1.1278 1.58955 0
M  V30 1890 H 182.983 0.672188 3.04775 0
M  V30 1891 N 183.284 -1.43765 0.645699 0
M  V30 1892 C 184.214 -2.33471 -0.0370477 0
M  V30 1893 C 185.195 -1.49042 -0.819779 0
M  V30 1894 O 186.38 -1.77726 -0.782758 0
M  V30 1895 C 183.51 -3.32311 -1.0093 0
M  V30 1896 C 182.464 -4.2667 -0.337201 0
M  V30 1897 C 181.79 -5.1549 -1.42037 0
M  V30 1898 C 183.09 -5.16657 0.765706 0
M  V30 1899 H 184.784 -2.90809 0.712069 0
M  V30 1900 H 182.33 -1.39834 0.343876 0
M  V30 1901 H 184.283 -3.9396 -1.49578 0
M  V30 1902 H 183.007 -2.73213 -1.78948 0
M  V30 1903 H 181.666 -3.66374 0.128771 0
M  V30 1904 H 181.314 -4.52735 -2.1918 0
M  V30 1905 H 181.014 -5.79438 -0.975966 0
M  V30 1906 H 182.538 -5.80012 -1.90838 0
M  V30 1907 H 183.952 -5.72158 0.361702 0
M  V30 1908 H 182.349 -5.89286 1.13413 0
M  V30 1909 H 183.419 -4.56796 1.62683 0
M  V30 1910 N 184.763 -0.387143 -1.52771 0
M  V30 1911 C 185.726 0.436939 -2.24997 0
M  V30 1912 C 186.726 0.991991 -1.26555 0
M  V30 1913 O 187.916 0.874335 -1.50669 0
M  V30 1914 C 185.048 1.61281 -3.00335 0
M  V30 1915 H 186.241 -0.195365 -2.99263 0
M  V30 1916 H 183.794 -0.139218 -1.55679 0
M  V30 1917 H 184.529 2.2826 -2.30364 0
M  V30 1918 H 184.314 1.22154 -3.72587 0
M  V30 1919 H 185.804 2.19629 -3.5518 0
M  V30 1920 N 186.241 1.57166 -0.116904 0
M  V30 1921 C 187.469 1.99473 0.549383 0
M  V30 1922 C 187.884 0.996541 1.60357 0
M  V30 1923 O 187.241 -0.0108731 1.82497 0
M  V30 1924 C 187.292 3.41788 1.17741 0
M  V30 1925 O 187.013 4.37788 0.165362 0
M  V30 1926 C 188.514 3.99216 1.92722 0
M  V30 1927 H 185.734 0.655009 0.145616 0
M  V30 1928 H 188.278 2.03494 -0.202625 0
M  V30 1929 H 186.433 3.38713 1.88021 0
M  V30 1930 H 186.847 5.20806 0.621403 0
M  V30 1931 H 188.321 5.00882 2.31995 0
M  V30 1932 H 188.798 3.3824 2.80161 0
M  V30 1933 H 189.404 4.0583 1.27209 0
M  V30 1934 N 187.719 -0.156864 1.56817 0
M  V30 1935 C 188.966 -0.871125 1.82805 0
M  V30 1936 C 189.294 -1.81611 0.696262 0
M  V30 1937 O 188.549 -1.93141 -0.315459 0
M  V30 1938 C 188.848 -1.68737 3.1506 0
M  V30 1939 C 188.514 -0.890045 4.42028 0
M  V30 1940 C 187.176 -0.670042 4.76512 0
M  V30 1941 C 189.528 -0.331769 5.20143 0
M  V30 1942 C 186.856 0.119104 5.86579 0
M  V30 1943 C 189.208 0.444365 6.31037 0
M  V30 1944 C 187.872 0.675035 6.64078 0
M  V30 1945 H 187.142 -0.318767 0.668931 0
M  V30 1946 H 189.789 -0.135274 1.91022 0
M  V30 1947 H 188.094 -2.49304 3.0225 0
M  V30 1948 H 189.791 -2.24331 3.3238 0
M  V30 1949 H 186.381 -1.07157 4.14988 0
M  V30 1950 H 190.565 -0.489043 4.93885 0
M  V30 1951 H 185.821 0.307417 6.10627 0
M  V30 1952 H 189.995 0.884139 6.90765 0
M  V30 1953 H 187.622 1.28839 7.49203 0
M  V30 1954 N 189.197 -1.51736 -0.425897 0
M  V30 1955 C 190.437 -1.66636 -1.18371 0
M  V30 1956 C 190.801 -0.379854 -1.88205 0
M  V30 1957 O 192.002 -0.404758 -2.65735 0
M  V30 1958 C 190.273 -2.84382 -2.16476 0
M  V30 1959 S 191.832 -3.19673 -3.0059 0
M  V30 1960 H 188.65 -0.586957 -0.40125 0
M  V30 1961 H 191.252 -1.89679 -0.473518 0
M  V30 1962 H 189.956 -3.76281 -1.63831 0
M  V30 1963 H 189.487 -2.63562 -2.92059 0
M  V30 1964 H 191.502 -2.66994 -4.18245 0
M  V30 1965 N 190.675 0.682077 -1.42076 0
M  V30 1966 C 191.605 1.80796 -1.47767 0
M  V30 1967 C 192.586 1.6677 -0.334954 0
M  V30 1968 O 193.771 1.863 -0.548264 0
M  V30 1969 C 190.901 3.19038 -1.37229 0
M  V30 1970 C 189.855 3.47789 -2.49453 0
M  V30 1971 C 189.181 4.8553 -2.23975 0
M  V30 1972 C 190.481 3.45411 -3.91776 0
M  V30 1973 H 192.175 1.7629 -2.41997 0
M  V30 1974 H 189.721 0.846721 -1.16476 0
M  V30 1975 H 191.674 3.97528 -1.39821 0
M  V30 1976 H 190.398 3.24204 -0.394907 0
M  V30 1977 H 189.057 2.71657 -2.46166 0
M  V30 1978 H 188.705 4.87337 -1.24547 0
M  V30 1979 H 188.405 5.0573 -2.99184 0
M  V30 1980 H 189.929 5.66312 -2.28304 0
M  V30 1981 H 191.343 4.13882 -3.96705 0
M  V30 1982 H 189.74 3.77145 -4.66778 0
M  V30 1983 H 190.81 2.44122 -4.18966 0
M  V30 1984 N 192.153 1.28127 0.917671 0
M  V30 1985 C 193.43 1.05761 1.64542 0
M  V30 1986 C 193.81 -0.404344 2.07191 0
M  V30 1987 O 193.158 -1.38963 1.81388 0
M  V30 1988 C 193.368 2.02857 2.83989 0
M  V30 1989 C 194.716 2.32786 3.551 0
M  V30 1990 O 195.74 2.0091 2.94132 0
M  V30 1991 O 194.599 2.87169 4.64969 0
M  V30 1992 H 191.693 0.403916 0.721652 0
M  V30 1993 H 194.239 1.39431 0.967322 0
M  V30 1994 H 193.011 3.01407 2.49538 0
M  V30 1995 H 192.634 1.69809 3.59514 0
M  V30 1996 N 193.631 -1.12557 1.10312 0
M  V30 1997 C 194.578 -2.18247 0.750781 0
M  V30 1998 C 195.548 -1.63853 -0.272293 0
M  V30 1999 O 196.733 -1.90195 -0.151862 0
M  V30 2000 C 193.873 -3.44591 0.187379 0
M  V30 2001 C 192.986 -4.13046 1.2656 0
M  V30 2002 C 192.121 -5.27034 0.663978 0
M  V30 2003 C 191.16 -5.87353 1.72287 0
M  V30 2004 N 190.297 -6.92757 1.1416 0
M  V30 2005 H 195.137 -2.47732 1.65628 0
M  V30 2006 H 192.674 -1.21629 0.827337 0
M  V30 2007 H 194.632 -4.16904 -0.157148 0
M  V30 2008 H 193.262 -3.15527 -0.681355 0
M  V30 2009 H 192.314 -3.38924 1.72727 0
M  V30 2010 H 193.626 -4.53947 2.06721 0
M  V30 2011 H 192.78 -6.06104 0.268824 0
M  V30 2012 H 191.519 -4.87407 -0.169082 0
M  V30 2013 H 190.524 -5.06971 2.12746 0
M  V30 2014 H 191.749 -6.29051 2.55875 0
M  V30 2015 H 189.695 -6.5517 0.329984 0
M  V30 2016 H 189.612 -7.3225 1.88007 0
M  V30 2017 H 190.88 -7.75658 0.772956 0
M  V30 2018 N 195.109 -0.891671 -1.2995 0
M  V30 2019 C 196.019 -0.367691 -2.31701 0
M  V30 2020 C 197.035 0.533486 -1.6562 0
M  V30 2021 O 198.211 0.424997 -1.96865 0
M  V30 2022 C 195.276 0.403406 -3.44345 0
M  V30 2023 C 194.337 -0.528328 -4.26037 0
M  V30 2024 C 193.57 0.206063 -5.33302 0
M  V30 2025 O 193.793 1.43119 -5.52153 0
M  V30 2026 O 192.727 -0.447281 -6.00236 0
M  V30 2027 H 196.553 -1.21163 -2.78484 0
M  V30 2028 H 194.138 -0.655725 -1.34241 0
M  V30 2029 H 196.02 0.839753 -4.12948 0
M  V30 2030 H 194.695 1.22354 -2.99685 0
M  V30 2031 H 193.602 -1.01362 -3.60106 0
M  V30 2032 H 194.935 -1.31465 -4.74318 0
M  V30 2033 N 196.587 1.43421 -0.653314 0
M  V30 2034 C 197.55 2.29182 0.0287951 0
M  V30 2035 C 198.55 1.42213 0.750465 0
M  V30 2036 O 199.74 1.63843 0.591701 0
M  V30 2037 C 196.872 3.24278 1.05151 0
M  V30 2038 H 198.065 2.90985 -0.725786 0
M  V30 2039 H 195.618 1.50702 -0.414545 0
M  V30 2040 H 196.353 2.6737 1.83532 0
M  V30 2041 H 196.138 3.88396 0.537687 0
M  V30 2042 H 197.628 3.88647 1.52786 0
M  V30 2043 N 198.065 0.39524 1.52563 0
M  V30 2044 C 198.995 -0.428384 2.29537 0
M  V30 2045 C 199.976 -1.05831 1.33169 0
M  V30 2046 O 201.161 -1.06995 1.62067 0
M  V30 2047 C 198.291 -1.55274 3.10656 0
M  V30 2048 C 197.245 -1.04855 4.14957 0
M  V30 2049 C 196.571 -2.26543 4.84337 0
M  V30 2050 C 197.871 -0.112324 5.22179 0
M  V30 2051 H 199.565 0.213867 2.98635 0
M  V30 2052 H 197.111 0.104298 1.43622 0
M  V30 2053 H 199.064 -2.1358 3.63265 0
M  V30 2054 H 197.788 -2.22266 2.39302 0
M  V30 2055 H 196.447 -0.487985 3.63338 0
M  V30 2056 H 196.095 -2.92059 4.09525 0
M  V30 2057 H 195.795 -1.93466 5.54837 0
M  V30 2058 H 197.319 -2.85481 5.39753 0
M  V30 2059 H 198.733 -0.603752 5.70112 0
M  V30 2060 H 197.13 0.128968 5.99961 0
M  V30 2061 H 198.2 0.837052 4.77621 0
M  V30 2062 N 199.544 -1.57102 0.125237 0
M  V30 2063 C 200.491 -2.15641 -0.822655 0
M  V30 2064 C 201.461 -1.08313 -1.25927 0
M  V30 2065 O 202.646 -1.36251 -1.33567 0
M  V30 2066 C 199.786 -2.76504 -2.06494 0
M  V30 2067 C 198.899 -3.98158 -1.67612 0
M  V30 2068 C 198.034 -4.47088 -2.86854 0
M  V30 2069 C 197.073 -5.6126 -2.44242 0
M  V30 2070 N 196.21 -6.04905 -3.56419 0
M  V30 2071 H 201.05 -2.96313 -0.316625 0
M  V30 2072 H 198.587 -1.46388 -0.144588 0
M  V30 2073 H 200.545 -3.09925 -2.79289 0
M  V30 2074 H 199.175 -1.98512 -2.54545 0
M  V30 2075 H 198.227 -3.70858 -0.846661 0
M  V30 2076 H 199.539 -4.80934 -1.32301 0
M  V30 2077 H 198.693 -4.82451 -3.67867 0
M  V30 2078 H 197.432 -3.63275 -3.25396 0
M  V30 2079 H 196.437 -5.25495 -1.61663 0
M  V30 2080 H 197.662 -6.46843 -2.0681 0
M  V30 2081 H 195.608 -5.24032 -3.94623 0
M  V30 2082 H 195.525 -6.82552 -3.25051 0
M  V30 2083 H 196.793 -6.44907 -4.37853 0
M  V30 2084 N 201.022 0.148545 -1.56898 0
M  V30 2085 C 202.299 0.890019 -1.74178 0
M  V30 2086 C 202.679 1.99407 -0.692839 0
M  V30 2087 O 202.027 2.26671 0.288505 0
M  V30 2088 C 202.237 1.43389 -3.18183 0
M  V30 2089 C 203.585 1.89791 -3.79822 0
M  V30 2090 O 204.609 1.53134 -3.21603 0
M  V30 2091 O 203.468 2.57387 -4.82093 0
M  V30 2092 H 200.562 0.420496 -0.712118 0
M  V30 2093 H 203.108 0.134591 -1.69165 0
M  V30 2094 H 201.88 0.640383 -3.86024 0
M  V30 2095 H 201.503 2.25287 -3.27615 0
M  V30 2096 N 202.5 1.5196 0.417844 0
M  V30 2097 C 203.41 1.77554 1.53336 0
M  V30 2098 C 204.426 0.660655 1.6097 0
M  V30 2099 O 205.602 0.945099 1.77848 0
M  V30 2100 C 202.667 1.91291 2.89152 0
M  V30 2101 C 201.728 3.15183 2.91475 0
M  V30 2102 C 200.961 3.28256 4.20813 0
M  V30 2103 O 201.184 2.46798 5.14244 0
M  V30 2104 O 200.118 4.21356 4.29817 0
M  V30 2105 H 203.944 2.7222 1.34647 0
M  V30 2106 H 201.529 1.36698 0.602828 0
M  V30 2107 H 203.411 2.02199 3.69721 0
M  V30 2108 H 202.086 0.998129 3.07927 0
M  V30 2109 H 200.993 3.09739 2.09791 0
M  V30 2110 H 202.326 4.06414 2.77648 0
M  V30 2111 N 203.978 -0.674533 1.42435 0
M  V30 2112 C 205.208 -1.46071 1.46105 0
M  V30 2113 C 205.616 -1.89067 0.0709605 0
M  V30 2114 O 204.959 -1.58731 -0.924677 0
M  V30 2115 C 205.021 -2.74145 2.32561 0
M  V30 2116 C 204.685 -2.53224 3.8043 0
M  V30 2117 C 205.682 -2.17809 4.72075 0
M  V30 2118 C 203.367 -2.6821 4.24698 0
M  V30 2119 C 205.361 -1.97648 6.05982 0
M  V30 2120 C 203.048 -2.47665 5.58664 0
M  V30 2121 C 204.046 -2.12437 6.49122 0
M  V30 2122 O 203.734 -1.9209 7.80613 0
M  V30 2123 H 203.466 -0.455959 0.499076 0
M  V30 2124 H 206.02 -0.836193 1.87609 0
M  V30 2125 H 204.25 -3.3908 1.85908 0
M  V30 2126 H 205.939 -3.36028 2.27683 0
M  V30 2127 H 206.705 -2.05826 4.39159 0
M  V30 2128 H 202.584 -2.94609 3.54579 0
M  V30 2129 H 206.128 -1.70075 6.7655 0
M  V30 2130 H 202.025 -2.59244 5.91154 0
M  V30 2131 H 202.793 -2.06686 7.91974 0
M  V30 2132 N 205.456 -1.28612 -0.910864 0
M  V30 2133 C 206.733 -1.06632 -1.63979 0
M  V30 2134 C 207.113 0.393351 -2.07403 0
M  V30 2135 O 206.461 1.37999 -1.82122 0
M  V30 2136 C 206.671 -2.0436 -2.8291 0
M  V30 2137 C 208.019 -2.34666 -3.5386 0
M  V30 2138 O 209.043 -2.02467 -2.93062 0
M  V30 2139 O 207.902 -2.89631 -4.63439 0
M  V30 2140 H 204.996 -0.407737 -0.7195 0
M  V30 2141 H 207.542 -1.39942 -0.959914 0
M  V30 2142 H 206.314 -3.02727 -2.47936 0
M  V30 2143 H 205.937 -1.71714 -3.58609 0
M  V30 2144 N 206.934 1.1197 -1.10907 0
M  V30 2145 C 208.211 1.79959 -0.766432 0
M  V30 2146 C 208.591 1.97466 0.746363 0
M  V30 2147 O 207.939 1.55491 1.67436 0
M  V30 2148 C 208.149 3.14009 -1.52314 0
M  V30 2149 C 209.497 3.89134 -1.69883 0
M  V30 2150 O 210.521 3.2368 -1.48692 0
M  V30 2151 O 209.38 5.06572 -2.05054 0
M  V30 2152 H 206.474 0.779208 -0.277062 0
M  V30 2153 H 209.02 1.18762 -1.21217 0
M  V30 2154 H 207.792 2.96587 -2.55249 0
M  V30 2155 H 207.415 3.82915 -1.07059 0
M  V30 2156 N 208.412 0.89855 1.29475 0
M  V30 2157 C 209.342 0.39201 2.30186 0
M  V30 2158 C 210.323 -0.532359 1.61555 0
M  V30 2159 O 211.508 -0.443331 1.89072 0
M  V30 2160 C 208.638 -0.382353 3.45189 0
M  V30 2161 C 207.592 0.451483 4.25612 0
M  V30 2162 C 206.918 -0.450307 5.328 0
M  V30 2163 C 208.218 1.70079 4.93832 0
M  V30 2164 H 209.912 1.23362 2.72804 0
M  V30 2165 H 207.458 0.594638 1.31149 0
M  V30 2166 H 209.411 -0.747451 4.14718 0
M  V30 2167 H 208.135 -1.25774 3.01411 0
M  V30 2168 H 206.794 0.798897 3.57789 0
M  V30 2169 H 206.442 -1.32379 4.85268 0
M  V30 2170 H 206.142 0.103902 5.87508 0
M  V30 2171 H 207.666 -0.811623 6.05182 0
M  V30 2172 H 209.08 1.40549 5.55805 0
M  V30 2173 H 207.477 2.19623 5.58467 0
M  V30 2174 H 208.547 2.43744 4.19186 0
M  V30 2175 N 209.89 -1.43072 0.660911 0
M  V30 2176 C 211.115 -2.06584 0.183805 0
M  V30 2177 C 211.54 -1.49257 -1.14472 0
M  V30 2178 O 210.898 -0.605528 -1.70889 0
M  V30 2179 C 210.946 -3.60418 0.114434 0
M  V30 2180 O 210.05 -4.01981 -0.921137 0
M  V30 2181 H 209.391 -0.656669 0.0983994 0
M  V30 2182 H 211.921 -1.83447 0.906006 0
M  V30 2183 H 211.931 -4.07946 -0.0663394 0
M  V30 2184 H 210.606 -4.01519 1.08422 0
M  V30 2185 H 209.183 -3.66029 -0.71253 0
M  V30 2186 N 211.368 -0.403325 -1.52352 0
M  V30 2187 C 212.645 0.232611 -1.94212 0
M  V30 2188 C 213.025 1.63133 -1.33981 0
M  V30 2189 O 212.373 2.22659 -0.513344 0
M  V30 2190 C 212.583 0.244811 -3.4814 0
M  V30 2191 C 213.931 0.46698 -4.22024 0
M  V30 2192 O 214.955 0.324419 -3.5472 0
M  V30 2193 O 213.814 0.74747 -5.41364 0
M  V30 2194 H 210.908 0.148223 -0.813609 0
M  V30 2195 H 213.454 -0.458848 -1.63379 0
M  V30 2196 H 212.226 -0.734378 -3.84347 0
M  V30 2197 H 211.849 0.980611 -3.85318 0
M  V30 2198 N 212.846 1.57033 -0.133567 0
M  V30 2199 C 213.776 2.1909 0.807567 0
M  V30 2200 C 214.757 1.13517 1.26681 0
M  V30 2201 O 215.942 1.41809 1.32679 0
M  V30 2202 C 213.072 2.80188 2.05212 0
M  V30 2203 C 212.026 3.91471 1.73015 0
M  V30 2204 C 211.352 4.39443 3.04622 0
M  V30 2205 C 212.652 5.12886 0.987168 0
M  V30 2206 H 214.346 2.97988 0.290403 0
M  V30 2207 H 211.892 1.43335 0.138239 0
M  V30 2208 H 213.845 3.22264 2.71521 0
M  V30 2209 H 212.569 1.98601 2.59278 0
M  V30 2210 H 211.228 3.49993 1.0909 0
M  V30 2211 H 210.876 3.54695 3.56651 0
M  V30 2212 H 210.576 5.14495 2.83847 0
M  V30 2213 H 212.1 4.8418 3.72024 0
M  V30 2214 H 213.514 5.51891 1.55208 0
M  V30 2215 H 211.911 5.93615 0.87985 0
M  V30 2216 H 212.981 4.84894 -0.0235286 0
M  V30 2217 N 214.325 -0.140222 1.56975 0
M  V30 2218 C 215.553 -0.866437 1.87884 0
M  V30 2219 C 215.968 -1.74428 0.722517 0
M  V30 2220 O 215.325 -1.79891 -0.30749 0
M  V30 2221 C 215.376 -1.71753 3.18093 0
M  V30 2222 O 215.097 -0.875056 4.29272 0
M  V30 2223 C 216.598 -2.55074 3.62563 0
M  V30 2224 H 213.818 -0.25019 0.622612 0
M  V30 2225 H 216.362 -0.130977 2.0408 0
M  V30 2226 H 214.517 -2.40598 3.03631 0
M  V30 2227 H 214.931 -1.46002 5.03769 0
M  V30 2228 H 216.405 -3.10356 4.5649 0
M  V30 2229 H 216.882 -3.31434 2.88181 0
M  V30 2230 H 217.488 -1.91509 3.79743 0
M  V30 2231 N 215.803 -1.52179 -0.40978 0
M  V30 2232 C 216.766 -1.74853 -1.48186 0
M  V30 2233 C 217.766 -0.618417 -1.48433 0
M  V30 2234 O 218.956 -0.886286 -1.49969 0
M  V30 2235 C 216.088 -1.8303 -2.87598 0
M  V30 2236 H 217.281 -2.70559 -1.29374 0
M  V30 2237 H 214.834 -1.42586 -0.640233 0
M  V30 2238 H 215.569 -0.89236 -3.11781 0
M  V30 2239 H 215.354 -2.65187 -2.88822 0
M  V30 2240 H 216.844 -2.02316 -3.65319 0
M  V30 2241 N 217.281 0.66697 -1.42791 0
M  V30 2242 C 218.244 1.76211 -1.46568 0
M  V30 2243 C 219.244 1.56896 -0.352196 0
M  V30 2244 O 220.434 1.63044 -0.613364 0
M  V30 2245 C 217.566 3.14935 -1.30494 0
M  V30 2246 H 218.759 1.74247 -2.44086 0
M  V30 2247 H 216.312 0.877342 -1.29354 0
M  V30 2248 H 217.047 3.2252 -0.339301 0
M  V30 2249 H 216.832 3.30359 -2.11199 0
M  V30 2250 H 218.322 3.94821 -1.36038 0
M  V30 2251 N 218.759 1.29093 0.90403 0
M  V30 2252 C 219.691 1.09658 2.01266 0
M  V30 2253 C 220.704 0.0453729 1.62737 0
M  V30 2254 O 221.893 0.289446 1.76138 0
M  V30 2255 C 218.993 0.646278 3.32681 0
M  V30 2256 C 218.166 1.77505 3.99763 0
M  V30 2257 C 217.225 1.31649 5.09465 0
M  V30 2258 O 216.251 2.02045 5.32134 0
M  V30 2259 N 217.453 0.184997 5.80205 0
M  V30 2260 H 220.218 2.05135 2.18494 0
M  V30 2261 H 217.779 1.20975 1.07594 0
M  V30 2262 H 219.771 0.322906 4.0341 0
M  V30 2263 H 218.341 -0.215916 3.11853 0
M  V30 2264 H 217.561 2.26752 3.22455 0
M  V30 2265 H 218.849 2.53198 4.41325 0
M  V30 2266 H 218.247 -0.402021 5.6427 0
M  V30 2267 H 216.804 -0.0790358 6.51752 0
M  V30 2268 N 220.237 -1.11381 1.11499 0
M  V30 2269 C 221.169 -2.17207 0.731704 0
M  V30 2270 C 222.182 -1.61066 -0.236957 0
M  V30 2271 O 223.371 -1.78489 -0.0197591 0
M  V30 2272 C 220.471 -3.38846 0.0607624 0
M  V30 2273 C 219.644 -4.24451 1.0564 0
M  V30 2274 C 218.703 -5.24562 0.4149 0
M  V30 2275 O 217.729 -5.59071 1.069 0
M  V30 2276 N 218.931 -5.74651 -0.821943 0
M  V30 2277 H 221.696 -2.50699 1.64225 0
M  V30 2278 H 219.257 -1.26908 1.00529 0
M  V30 2279 H 221.249 -4.02911 -0.380139 0
M  V30 2280 H 219.819 -3.03411 -0.752376 0
M  V30 2281 H 219.039 -3.56833 1.67524 0
M  V30 2282 H 220.327 -4.78486 1.72998 0
M  V30 2283 H 219.725 -5.48797 -1.37252 0
M  V30 2284 H 218.282 -6.40549 -1.20582 0
M  V30 2285 N 221.715 -0.905404 -1.28997 0
M  V30 2286 C 222.625 -0.392246 -2.31298 0
M  V30 2287 C 223.641 0.515889 -1.66176 0
M  V30 2288 O 224.817 0.404093 -1.97304 0
M  V30 2289 C 221.882 0.36686 -3.44754 0
M  V30 2290 C 220.943 -0.573485 -4.25452 0
M  V30 2291 C 220.176 0.149488 -5.33491 0
M  V30 2292 O 220.399 1.37255 -5.5364 0
M  V30 2293 O 219.333 -0.510919 -5.99728 0
M  V30 2294 H 223.159 -1.2411 -2.77183 0
M  V30 2295 H 220.744 -0.669926 -1.33538 0
M  V30 2296 H 222.626 0.795907 -4.13816 0
M  V30 2297 H 221.301 1.19169 -3.00966 0
M  V30 2298 H 220.208 -1.05176 -3.59011 0
M  V30 2299 H 221.541 -1.36489 -4.72897 0
M  V30 2300 N 223.193 1.4272 -0.668489 0
M  V30 2301 C 224.421 2.05966 -0.196348 0
M  V30 2302 C 224.836 1.50191 1.14403 0
M  V30 2303 O 224.193 0.639208 1.7094 0
M  V30 2304 C 224.244 3.61314 -0.115815 0
M  V30 2305 O 223.965 4.1502 -1.40322 0
M  V30 2306 C 225.466 4.41663 0.380579 0
M  V30 2307 H 222.686 0.663954 -0.0969829 0
M  V30 2308 H 225.23 1.82966 -0.913446 0
M  V30 2309 H 223.385 3.83448 0.551931 0
M  V30 2310 H 223.799 5.08832 -1.27243 0
M  V30 2311 H 225.273 5.5065 0.385848 0
M  V30 2312 H 225.75 4.15792 1.41471 0
M  V30 2313 H 226.356 4.24534 -0.255209 0
M  V30 2314 N 224.671 0.411399 1.52136 0
M  V30 2315 C 225.601 -0.404015 2.29978 0
M  V30 2316 C 226.582 -1.04412 1.34284 0
M  V30 2317 O 227.767 -1.0527 1.63192 0
M  V30 2318 C 224.897 -1.5197 3.12286 0
M  V30 2319 C 223.851 -1.00448 4.16046 0
M  V30 2320 C 223.177 -2.21393 4.86712 0
M  V30 2321 C 224.477 -0.0569336 5.22269 0
M  V30 2322 H 226.171 0.245529 2.98392 0
M  V30 2323 H 223.717 0.119525 1.43503 0
M  V30 2324 H 225.67 -2.09715 3.6551 0
M  V30 2325 H 224.394 -2.19716 2.41646 0
M  V30 2326 H 223.053 -0.449421 3.63835 0
M  V30 2327 H 222.701 -2.87699 4.12599 0
M  V30 2328 H 222.401 -1.87571 5.56858 0
M  V30 2329 H 223.925 -2.7974 5.4275 0
M  V30 2330 H 225.339 -0.54325 5.7072 0
M  V30 2331 H 223.736 0.192594 5.99791 0
M  V30 2332 H 224.806 0.887663 4.76706 0
M  V30 2333 N 226.149 -1.5696 0.141893 0
M  V30 2334 C 227.374 -2.00754 -0.520838 0
M  V30 2335 C 227.799 -1.0213 -1.57959 0
M  V30 2336 O 227.157 0.00371324 -1.813 0
M  V30 2337 C 227.205 -3.43318 -1.10294 0
M  V30 2338 O 226.309 -3.47679 -2.21795 0
M  V30 2339 H 225.65 -0.651564 -0.127908 0
M  V30 2340 H 228.18 -2.03221 0.23712 0
M  V30 2341 H 228.19 -3.82012 -1.43287 0
M  V30 2342 H 226.865 -4.14608 -0.327574 0
M  V30 2343 H 225.442 -3.20824 -1.9007 0
M  V30 2344 N 227.627 0.131896 -1.57047 0
M  V30 2345 C 228.904 0.871495 -1.75112 0
M  V30 2346 C 229.284 1.9866 -0.713949 0
M  V30 2347 O 228.632 2.26965 0.264447 0
M  V30 2348 C 228.842 1.40007 -3.19686 0
M  V30 2349 C 230.19 1.85752 -3.81813 0
M  V30 2350 O 231.214 1.49715 -3.23209 0
M  V30 2351 O 230.073 2.5226 -4.84796 0
M  V30 2352 H 227.167 0.412919 -0.716538 0
M  V30 2353 H 229.713 0.116641 -1.69299 0
M  V30 2354 H 228.485 0.599404 -3.86682 0
M  V30 2355 H 228.108 2.218 -3.29986 0
M  V30 2356 N 229.106 1.52395 0.401703 0
M  V30 2357 C 230.352 1.68019 1.14635 0
M  V30 2358 C 230.707 0.408722 1.88009 0
M  V30 2359 O 230 -0.597133 1.82057 0
M  V30 2360 C 230.194 2.84578 2.16217 0
M  V30 2361 C 230.023 4.22938 1.5282 0
M  V30 2362 C 228.793 4.88352 1.29772 0
M  V30 2363 C 230.991 5.04778 0.985094 0
M  V30 2364 N 228.973 6.10726 0.623455 0
M  V30 2365 C 230.344 6.1845 0.438172 0
M  V30 2366 C 232.399 4.90057 0.880275 0
M  V30 2367 C 231.102 7.19013 -0.203306 0
M  V30 2368 C 233.128 5.9086 0.252639 0
M  V30 2369 C 232.49 7.03829 -0.283573 0
M  V30 2370 H 228.589 0.668413 0.405892 0
M  V30 2371 H 231.173 1.89717 0.437674 0
M  V30 2372 H 229.344 2.64483 2.84435 0
M  V30 2373 H 231.076 2.89202 2.83098 0
M  V30 2374 H 227.831 4.46846 1.56926 0
M  V30 2375 H 228.255 6.76323 0.302733 0
M  V30 2376 H 232.897 4.02938 1.28065 0
M  V30 2377 H 230.615 8.05751 -0.615726 0
M  V30 2378 H 234.201 5.81543 0.172954 0
M  V30 2379 H 233.081 7.80493 -0.761575 0
M  V30 2380 N 230.584 -0.659388 1.43143 0
M  V30 2381 C 231.494 -1.80167 1.50256 0
M  V30 2382 C 232.51 -1.69571 0.390106 0
M  V30 2383 O 233.686 -1.90849 0.643319 0
M  V30 2384 C 230.751 -3.16409 1.41725 0
M  V30 2385 C 229.812 -3.38848 2.63591 0
M  V30 2386 C 229.045 -4.68591 2.55458 0
M  V30 2387 O 229.268 -5.47532 1.59891 0
M  V30 2388 O 228.202 -4.92614 3.45854 0
M  V30 2389 H 232.028 -1.77121 2.46702 0
M  V30 2390 H 229.613 -0.817092 1.25076 0
M  V30 2391 H 231.495 -3.9768 1.39387 0
M  V30 2392 H 230.17 -3.20059 0.484118 0
M  V30 2393 H 229.077 -2.57366 2.71502 0
M  V30 2394 H 230.41 -3.4004 3.55856 0
M  V30 2395 N 232.062 -1.29571 -0.897171 0
M  V30 2396 C 233.287 -1.20705 -1.68656 0
M  V30 2397 C 233.712 0.228582 -1.86706 0
M  V30 2398 O 233.07 1.16494 -1.3892 0
M  V30 2399 C 233.118 -1.9282 -3.04717 0
M  V30 2400 O 232.222 -1.24697 -3.93096 0
M  V30 2401 H 231.563 -0.418126 -0.515816 0
M  V30 2402 H 234.093 -1.71183 -1.12061 0
M  V30 2403 H 234.103 -2.01372 -3.54843 0
M  V30 2404 H 232.778 -2.97239 -2.90899 0
M  V30 2405 H 231.355 -1.2442 -3.51531 0
M  V30 2406 N 233.54 1.10788 -1.12088 0
M  V30 2407 C 234.472 2.16816 -0.743213 0
M  V30 2408 C 235.485 1.6119 0.228412 0
M  V30 2409 O 236.674 1.78497 0.0102931 0
M  V30 2410 C 233.774 3.38809 -0.0787313 0
M  V30 2411 C 232.947 4.23885 -1.0789 0
M  V30 2412 C 232.006 5.24334 -0.442713 0
M  V30 2413 O 231.032 5.58497 -1.09864 0
M  V30 2414 N 232.234 5.75079 0.791457 0
M  V30 2415 H 234.999 2.49825 -1.65552 0
M  V30 2416 H 232.56 1.26373 -1.012 0
M  V30 2417 H 234.552 4.03107 0.358766 0
M  V30 2418 H 233.122 3.03805 0.736275 0
M  V30 2419 H 232.342 3.55939 -1.69414 0
M  V30 2420 H 233.63 4.77562 -1.75533 0
M  V30 2421 H 233.028 5.49517 1.3434 0
M  V30 2422 H 231.585 6.4118 1.17183 0
M  V30 2423 N 235.018 0.912232 1.28515 0
M  V30 2424 C 236.265 0.544599 1.95039 0
M  V30 2425 C 236.593 -0.911435 1.71823 0
M  V30 2426 O 235.848 -1.66317 1.03137 0
M  V30 2427 C 236.147 0.798392 3.48368 0
M  V30 2428 C 235.813 2.23374 3.91682 0
M  V30 2429 C 234.475 2.62617 4.03219 0
M  V30 2430 C 236.827 3.16786 4.13879 0
M  V30 2431 C 234.155 3.94429 4.3433 0
M  V30 2432 C 236.507 4.48161 4.46469 0
M  V30 2433 C 235.171 4.8726 4.56217 0
M  V30 2434 H 234.441 0.199283 0.7137 0
M  V30 2435 H 237.088 1.15327 1.52879 0
M  V30 2436 H 235.393 0.106908 3.91654 0
M  V30 2437 H 237.09 0.493141 3.97956 0
M  V30 2438 H 233.68 1.91922 3.83228 0
M  V30 2439 H 237.864 2.87677 4.0442 0
M  V30 2440 H 233.12 4.24426 4.40082 0
M  V30 2441 H 237.294 5.20559 4.62592 0
M  V30 2442 H 234.921 5.89431 4.80078 0
M  V30 2443 N 236.496 -1.42363 0.676048 0
M  V30 2444 C 237.724 -2.05859 0.207268 0
M  V30 2445 C 238.139 -1.50796 -1.13605 0
M  V30 2446 O 237.496 -0.648265 -1.70598 0
M  V30 2447 C 237.547 -3.61248 0.134975 0
M  V30 2448 O 237.268 -4.1427 1.42521 0
M  V30 2449 C 238.769 -4.41859 -0.357151 0
M  V30 2450 H 235.989 -0.663431 0.100503 0
M  V30 2451 H 238.533 -1.82479 0.923136 0
M  V30 2452 H 236.688 -3.83735 -0.531588 0
M  V30 2453 H 237.102 -5.0815 1.29939 0
M  V30 2454 H 238.576 -5.50847 -0.356641 0
M  V30 2455 H 239.053 -4.16536 -1.39264 0
M  V30 2456 H 239.659 -4.24392 0.27772 0
M  V30 2457 N 237.974 -0.419461 -1.51915 0
M  V30 2458 C 239.221 0.152939 -2.01922 0
M  V30 2459 C 239.549 1.4426 -1.30458 0
M  V30 2460 O 238.804 1.91514 -0.402593 0
M  V30 2461 C 239.103 0.437067 -3.54717 0
M  V30 2462 C 238.769 -0.764632 -4.44369 0
M  V30 2463 C 237.431 -1.09423 -4.68594 0
M  V30 2464 C 239.783 -1.56713 -4.97082 0
M  V30 2465 C 237.111 -2.22732 -5.42777 0
M  V30 2466 C 239.463 -2.69107 -5.72507 0
M  V30 2467 C 238.127 -3.02541 -5.95 0
M  V30 2468 H 237.397 0.0559644 -0.738884 0
M  V30 2469 H 240.044 -0.562998 -1.83037 0
M  V30 2470 H 238.349 1.23469 -3.71837 0
M  V30 2471 H 240.046 0.893083 -3.90928 0
M  V30 2472 H 236.636 -0.497775 -4.257 0
M  V30 2473 H 240.82 -1.32571 -4.78266 0
M  V30 2474 H 236.076 -2.48971 -5.58411 0
M  V30 2475 H 240.25 -3.31671 -6.12346 0
M  V30 2476 H 237.877 -3.90457 -6.52264 0
M  V30 2477 N 239.452 1.56882 -0.150215 0
M  V30 2478 C 240.399 2.16922 0.788244 0
M  V30 2479 C 241.369 1.10303 1.24187 0
M  V30 2480 O 242.554 1.38359 1.31383 0
M  V30 2481 C 239.694 2.79754 2.02068 0
M  V30 2482 C 238.807 4.00775 1.61257 0
M  V30 2483 C 237.942 4.51595 2.79705 0
M  V30 2484 C 236.981 5.65074 2.35282 0
M  V30 2485 N 236.118 6.10499 3.4675 0
M  V30 2486 H 240.958 2.96779 0.269444 0
M  V30 2487 H 238.495 1.46599 0.12128 0
M  V30 2488 H 240.453 3.14329 2.74323 0
M  V30 2489 H 239.083 2.02536 2.51354 0
M  V30 2490 H 238.135 3.72158 0.787553 0
M  V30 2491 H 239.447 4.82978 1.24633 0
M  V30 2492 H 238.601 4.88242 3.60145 0
M  V30 2493 H 237.34 3.68406 3.19576 0
M  V30 2494 H 236.345 5.28 1.53283 0
M  V30 2495 H 237.57 6.50052 1.96493 0
M  V30 2496 H 235.516 5.30243 3.86236 0
M  V30 2497 H 235.433 6.87637 3.14152 0
M  V30 2498 H 236.701 6.51791 4.27537 0
M  V30 2499 N 240.93 -0.123565 1.57115 0
M  V30 2500 C 242.16 -0.845233 1.88519 0
M  V30 2501 C 242.568 -1.74168 0.739064 0
M  V30 2502 O 241.911 -1.81244 -0.299355 0
M  V30 2503 C 241.973 -1.73452 3.14888 0
M  V30 2504 C 241.637 -1.01285 4.45635 0
M  V30 2505 C 242.634 -0.355774 5.18681 0
M  V30 2506 C 240.319 -0.99538 4.92339 0
M  V30 2507 C 242.313 0.309114 6.3665 0
M  V30 2508 C 240 -0.32669 6.10226 0
M  V30 2509 C 240.998 0.324406 6.82229 0
M  V30 2510 O 240.686 0.982437 7.97874 0
M  V30 2511 H 240.418 -0.248534 0.628655 0
M  V30 2512 H 242.972 -0.113907 2.05084 0
M  V30 2513 H 241.202 -2.50737 2.94394 0
M  V30 2514 H 242.891 -2.33021 3.32349 0
M  V30 2515 H 243.657 -0.360918 4.83655 0
M  V30 2516 H 239.536 -1.49159 4.36202 0
M  V30 2517 H 243.08 0.8179 6.92789 0
M  V30 2518 H 238.977 -0.319294 6.4471 0
M  V30 2519 H 239.745 0.886454 8.13686 0
M  V30 2520 N 242.408 -1.52605 -0.393616 0
M  V30 2521 C 243.358 -1.73436 -1.48 0
M  V30 2522 C 244.342 -0.588386 -1.49756 0
M  V30 2523 O 245.534 -0.846047 -1.5547 0
M  V30 2524 C 242.663 -1.90247 -2.85764 0
M  V30 2525 C 241.749 -3.10763 -2.88595 0
M  V30 2526 N 242.14 -4.33196 -2.61103 0
M  V30 2527 C 240.438 -3.10914 -3.19763 0
M  V30 2528 C 241.139 -5.1477 -2.70899 0
M  V30 2529 N 240.115 -4.50356 -3.04435 0
M  V30 2530 H 243.917 -2.65727 -1.25563 0
M  V30 2531 H 241.431 -1.5085 -0.601513 0
M  V30 2532 H 243.428 -2.03291 -3.63976 0
M  V30 2533 H 242.088 -0.991663 -3.09186 0
M  V30 2534 H 243.099 -4.61408 -2.35209 0
M  V30 2535 H 239.776 -2.29626 -3.4868 0
M  V30 2536 H 241.166 -6.22355 -2.53227 0
M  V30 2537 N 243.887 0.651787 -1.4349 0
M  V30 2538 C 244.837 1.75783 -1.45205 0
M  V30 2539 C 245.821 1.57679 -0.320328 0
M  V30 2540 O 247.013 1.67767 -0.564211 0
M  V30 2541 C 244.142 3.14377 -1.3792 0
M  V30 2542 C 243.228 3.38023 -2.56127 0
M  V30 2543 N 243.619 3.32135 -3.81471 0
M  V30 2544 C 241.917 3.68747 -2.50882 0
M  V30 2545 C 242.618 3.55902 -4.60118 0
M  V30 2546 N 241.594 3.77783 -3.90872 0
M  V30 2547 H 245.396 1.69657 -2.39987 0
M  V30 2548 H 242.91 0.853508 -1.38163 0
M  V30 2549 H 244.907 3.93666 -1.37231 0
M  V30 2550 H 243.567 3.21683 -0.441596 0
M  V30 2551 H 244.578 3.11515 -4.13738 0
M  V30 2552 H 241.255 3.8316 -1.65816 0
M  V30 2553 H 242.645 3.57116 -5.69138 0
M  V30 2554 N 245.365 1.30045 0.890287 0
M  V30 2555 C 246.611 1.18737 1.64406 0
M  V30 2556 C 246.944 -0.258525 1.92472 0
M  V30 2557 O 246.219 -1.18562 1.54186 0
M  V30 2558 C 246.502 2.01087 2.98724 0
M  V30 2559 C 246.355 3.53867 2.77665 0
M  V30 2560 C 247.674 1.84457 3.9958 0
M  V30 2561 H 244.793 0.432698 0.596608 0
M  V30 2562 H 247.435 1.5962 1.0306 0
M  V30 2563 H 245.585 1.66349 3.51084 0
M  V30 2564 H 247.257 3.98637 2.32133 0
M  V30 2565 H 245.5 3.78318 2.12269 0
M  V30 2566 H 246.171 4.06772 3.7315 0
M  V30 2567 H 248.647 2.14817 3.56361 0
M  V30 2568 H 247.523 2.44411 4.91482 0
M  V30 2569 H 247.784 0.802276 4.3476 0
M  V30 2570 N 246.843 -1.10192 1.12674 0
M  V30 2571 C 248.091 -1.81845 0.881861 0
M  V30 2572 C 248.412 -1.85737 -0.593867 0
M  V30 2573 O 247.682 -1.33724 -1.4316 0
M  V30 2574 H 246.262 -0.673432 0.323261 0
M  V30 2575 H 248.924 -1.33316 1.42172 0
M  V30 2576 H 248.02 -2.85288 1.2656 0
M  V30 2577 N 248.321 -0.919034 -1.28029 0
M  V30 2578 C 249.268 -0.410005 -2.27129 0
M  V30 2579 C 250.238 0.518405 -1.57803 0
M  V30 2580 O 251.423 0.439451 -1.8567 0
M  V30 2581 C 248.563 0.339054 -3.4343 0
M  V30 2582 C 247.676 -0.622468 -4.27492 0
M  V30 2583 C 246.811 0.145567 -5.31001 0
M  V30 2584 C 245.85 -0.809226 -6.06727 0
M  V30 2585 N 244.987 -0.0743728 -7.02061 0
M  V30 2586 H 249.827 -1.26011 -2.70047 0
M  V30 2587 H 247.364 -0.632663 -1.328 0
M  V30 2588 H 249.322 0.789586 -4.0966 0
M  V30 2589 H 247.952 1.15346 -3.01488 0
M  V30 2590 H 247.004 -1.19153 -3.61257 0
M  V30 2591 H 248.316 -1.35252 -4.80113 0
M  V30 2592 H 247.47 0.656417 -6.03139 0
M  V30 2593 H 246.209 0.908643 -4.79161 0
M  V30 2594 H 245.214 -1.3314 -5.33436 0
M  V30 2595 H 246.439 -1.57194 -6.60656 0
M  V30 2596 H 244.385 0.670616 -6.52563 0
M  V30 2597 H 244.302 -0.744157 -7.52329 0
M  V30 2598 H 245.57 0.416109 -7.78389 0
M  V30 2599 N 249.799 1.42003 -0.683588 0
M  V30 2600 C 250.729 2.33487 -0.024866 0
M  V30 2601 C 251.71 1.51163 0.779975 0
M  V30 2602 O 252.895 1.79739 0.735362 0
M  V30 2603 C 250.025 3.3487 0.920836 0
M  V30 2604 C 248.979 4.27414 0.223958 0
M  V30 2605 C 248.305 5.19074 1.2832 0
M  V30 2606 C 249.605 5.14445 -0.90242 0
M  V30 2607 H 251.299 2.88819 -0.788921 0
M  V30 2608 H 248.845 1.38873 -0.38083 0
M  V30 2609 H 250.798 3.97787 1.39081 0
M  V30 2610 H 249.522 2.77861 1.71642 0
M  V30 2611 H 248.181 3.65904 -0.225864 0
M  V30 2612 H 247.829 4.58387 2.071 0
M  V30 2613 H 247.529 5.81822 0.821995 0
M  V30 2614 H 249.053 5.84867 1.75392 0
M  V30 2615 H 250.467 5.70998 -0.513272 0
M  V30 2616 H 248.864 5.86072 -1.28997 0
M  V30 2617 H 249.934 4.52322 -1.74737 0
M  V30 2618 N 251.277 0.427512 1.51691 0
M  V30 2619 C 252.207 -0.3796 2.30394 0
M  V30 2620 C 253.188 -1.02982 1.35384 0
M  V30 2621 O 254.373 -1.03534 1.643 0
M  V30 2622 C 251.503 -1.48649 3.1388 0
M  V30 2623 C 250.457 -0.960294 4.17088 0
M  V30 2624 C 249.783 -2.16219 4.89033 0
M  V30 2625 C 251.083 -0.00153679 5.223 0
M  V30 2626 H 252.777 0.277164 2.98114 0
M  V30 2627 H 250.323 0.134739 1.43368 0
M  V30 2628 H 252.276 -2.05826 3.67714 0
M  V30 2629 H 251 -2.1714 2.43962 0
M  V30 2630 H 249.659 -0.410806 3.64291 0
M  V30 2631 H 249.307 -2.83307 4.15628 0
M  V30 2632 H 249.007 -1.81654 5.58816 0
M  V30 2633 H 250.531 -2.73968 5.45687 0
M  V30 2634 H 251.945 -0.482687 5.71264 0
M  V30 2635 H 250.342 0.256199 5.99553 0
M  V30 2636 H 251.412 0.938174 4.75738 0
M  V30 2637 N 252.755 -1.56801 0.158532 0
M  V30 2638 C 253.702 -2.17337 -0.776729 0
M  V30 2639 C 254.672 -1.1096 -1.23601 0
M  V30 2640 O 255.857 -1.39054 -1.30647 0
M  V30 2641 C 252.997 -2.80822 -2.00582 0
M  V30 2642 C 252.11 -4.01624 -1.59129 0
M  V30 2643 C 251.245 -4.53072 -2.77306 0
M  V30 2644 C 250.284 -5.66314 -2.32282 0
M  V30 2645 N 249.421 -6.12329 -3.43508 0
M  V30 2646 H 254.261 -2.96918 -0.253701 0
M  V30 2647 H 251.798 -1.46661 -0.113504 0
M  V30 2648 H 253.756 -3.15779 -2.72652 0
M  V30 2649 H 252.386 -2.03866 -2.50277 0
M  V30 2650 H 251.438 -3.72571 -0.767806 0
M  V30 2651 H 252.75 -4.83633 -1.2207 0
M  V30 2652 H 251.904 -4.90145 -3.57551 0
M  V30 2653 H 250.643 -3.70095 -3.17617 0
M  V30 2654 H 249.648 -5.28806 -1.5048 0
M  V30 2655 H 250.873 -6.51085 -1.93043 0
M  V30 2656 H 248.819 -5.32284 -3.83418 0
M  V30 2657 H 248.736 -6.89293 -3.105 0
M  V30 2658 H 250.004 -6.5405 -4.24075 0
M  V30 2659 N 254.233 0.115231 -1.57178 0
M  V30 2660 C 255.143 1.15994 -2.03918 0
M  V30 2661 C 256.159 1.45103 -0.960268 0
M  V30 2662 O 257.335 1.56144 -1.27204 0
M  V30 2663 C 254.4 2.46568 -2.43732 0
M  V30 2664 C 253.461 2.24822 -3.65723 0
M  V30 2665 C 252.694 3.4917 -4.03629 0
M  V30 2666 O 252.917 4.56623 -3.41835 0
M  V30 2667 O 251.851 3.39949 -4.96708 0
M  V30 2668 H 255.677 0.793019 -2.93164 0
M  V30 2669 H 253.262 0.3263 -1.45793 0
M  V30 2670 H 255.144 3.23492 -2.70057 0
M  V30 2671 H 253.819 2.82726 -1.57631 0
M  V30 2672 H 252.726 1.45744 -3.44542 0
M  V30 2673 H 254.059 1.93566 -4.52541 0
M  V30 2674 N 255.711 1.52812 0.385517 0
M  V30 2675 C 256.959 1.67694 1.12797 0
M  V30 2676 C 257.28 0.421115 1.90399 0
M  V30 2677 O 256.55 -0.564551 1.87589 0
M  V30 2678 H 255.13 0.618155 0.419396 0
M  V30 2679 H 257.792 1.89938 0.436972 0
M  V30 2680 H 256.888 2.52896 1.82894 0
M  V30 2681 N 257.189 -0.644168 1.43834 0
M  V30 2682 C 258.099 -1.78563 1.52159 0
M  V30 2683 C 259.115 -1.69147 0.408069 0
M  V30 2684 O 260.291 -1.90156 0.663524 0
M  V30 2685 C 257.356 -3.14888 1.45073 0
M  V30 2686 C 256.417 -3.36034 2.6717 0
M  V30 2687 C 255.65 -4.65855 2.60413 0
M  V30 2688 O 255.873 -5.45805 1.65689 0
M  V30 2689 O 254.807 -4.88918 3.5106 0
M  V30 2690 H 258.633 -1.74494 2.48567 0
M  V30 2691 H 256.218 -0.80378 1.25935 0
M  V30 2692 H 258.1 -3.96179 1.43597 0
M  V30 2693 H 256.775 -3.19528 0.518037 0
M  V30 2694 H 255.682 -2.54472 2.74217 0
M  V30 2695 H 257.015 -3.36247 3.59442 0
M  V30 2696 N 258.668 -1.30515 -0.883378 0
M  V30 2697 C 259.578 -1.18959 -2.02203 0
M  V30 2698 C 260.594 -0.109172 -1.73657 0
M  V30 2699 O 261.77 -0.324413 -1.9877 0
M  V30 2700 C 258.835 -0.883871 -3.35244 0
M  V30 2701 C 257.896 -2.04982 -3.77201 0
M  V30 2702 C 257.129 -1.75859 -5.03894 0
M  V30 2703 O 257.352 -0.687276 -5.66244 0
M  V30 2704 O 256.286 -2.61146 -5.42297 0
M  V30 2705 H 260.112 -2.14616 -2.1488 0
M  V30 2706 H 257.697 -1.10124 -1.0096 0
M  V30 2707 H 259.579 -0.728644 -4.15053 0
M  V30 2708 H 258.254 0.0427798 -3.23672 0
M  V30 2709 H 257.161 -2.26038 -2.9809 0
M  V30 2710 H 258.494 -2.95825 -3.93381 0
M  V30 2711 N 260.146 1.09593 -1.13257 0
M  V30 2712 C 261.557 1.63229 -0.906274 0
M  V30 2713 C 261.908 1.8811 0.557578 0
M  V30 2714 O 261.033 1.62953 1.42391 0
M  V30 2715 C 261.628 2.96535 -1.63867 0
M  V30 2716 C 260.187 3.47003 -1.45828 0
M  V30 2717 C 259.334 2.2145 -1.66898 0
M  V30 2718 H 262.285 0.92978 -1.28611 0
M  V30 2719 H 262.306 3.64411 -1.09476 0
M  V30 2720 H 261.818 2.78394 -2.70404 0
M  V30 2721 H 259.919 3.70272 -0.415848 0
M  V30 2722 H 260.032 4.24551 -2.2202 0
M  V30 2723 H 258.396 2.30022 -1.09371 0
M  V30 2724 H 259.179 2.0583 -2.74752 0
M  V30 2725 N 261.624 0.925811 1.2754 0
M  V30 2726 C 262.852 0.581509 1.9856 0
M  V30 2727 C 263.267 -0.840041 1.69082 0
M  V30 2728 O 262.624 -1.55805 0.950312 0
M  V30 2729 C 262.675 0.795589 3.52637 0
M  V30 2730 O 262.396 2.16121 3.81082 0
M  V30 2731 C 263.897 0.459744 4.4091 0
M  V30 2732 H 261.117 0.220538 0.633722 0
M  V30 2733 H 263.661 1.24232 1.6244 0
M  V30 2734 H 261.816 0.18161 3.86974 0
M  V30 2735 H 262.23 2.2098 4.75676 0
M  V30 2736 H 263.704 0.660244 5.48037 0
M  V30 2737 H 264.181 -0.604625 4.35018 0
M  V30 2738 H 264.787 1.05178 4.12089 0
M  V30 2739 N 263.102 -1.41638 0.69111 0
M  V30 2740 C 264.348 -2.01598 0.220519 0
M  V30 2741 C 264.681 -1.54594 -1.17535 0
M  V30 2742 O 263.956 -0.755177 -1.79241 0
M  V30 2743 C 264.239 -3.59062 0.273243 0
M  V30 2744 C 264.092 -4.16203 1.70573 0
M  V30 2745 C 265.411 -4.38546 -0.369457 0
M  V30 2746 H 262.53 -0.732468 0.0816045 0
M  V30 2747 H 265.172 -1.68445 0.878986 0
M  V30 2748 H 263.322 -3.87435 -0.287411 0
M  V30 2749 H 264.994 -3.98722 2.31989 0
M  V30 2750 H 263.237 -3.71414 2.2413 0
M  V30 2751 H 263.908 -5.25358 1.69419 0
M  V30 2752 H 266.384 -4.1596 0.107977 0
M  V30 2753 H 265.26 -5.48069 -0.302002 0
M  V30 2754 H 265.521 -4.17662 -1.44951 0
M  V30 2755 N 264.58 -0.43555 -1.51462 0
M  V30 2756 C 265.81 0.130053 -2.0619 0
M  V30 2757 C 266.218 1.37164 -1.30317 0
M  V30 2758 O 265.561 1.80225 -0.355598 0
M  V30 2759 C 265.623 0.519418 -3.55728 0
M  V30 2760 C 265.287 -0.615119 -4.52841 0
M  V30 2761 C 266.284 -1.48671 -4.9819 0
M  V30 2762 C 263.969 -0.795341 -4.95963 0
M  V30 2763 C 265.963 -2.52324 -5.8533 0
M  V30 2764 C 263.65 -1.83514 -5.82894 0
M  V30 2765 C 264.648 -2.69748 -6.27475 0
M  V30 2766 O 264.336 -3.71944 -7.1268 0
M  V30 2767 H 264.068 0.0121612 -0.675891 0
M  V30 2768 H 266.622 -0.6129 -1.96043 0
M  V30 2769 H 264.852 1.31505 -3.63653 0
M  V30 2770 H 266.541 1.01597 -3.92979 0
M  V30 2771 H 267.307 -1.359 -4.65571 0
M  V30 2772 H 263.186 -0.133713 -4.60806 0
M  V30 2773 H 266.73 -3.19665 -6.20048 0
M  V30 2774 H 262.627 -1.96306 -6.14926 0
M  V30 2775 H 263.395 -3.68503 -7.30854 0
M  V30 2776 N 266.058 1.56714 -0.166846 0
M  V30 2777 C 267.283 2.01557 0.488833 0
M  V30 2778 C 267.708 1.0463 1.56314 0
M  V30 2779 O 267.066 0.0251304 1.81283 0
M  V30 2780 C 267.114 3.4503 1.04818 0
M  V30 2781 O 266.218 3.51163 2.16236 0
M  V30 2782 H 265.559 0.653516 0.117526 0
M  V30 2783 H 268.089 2.02818 -0.269421 0
M  V30 2784 H 268.099 3.84243 1.37191 0
M  V30 2785 H 266.774 4.15077 0.261572 0
M  V30 2786 H 265.351 3.23807 1.84942 0
M  V30 2787 N 267.536 -0.106894 1.57237 0
M  V30 2788 C 268.813 -0.843526 1.76477 0
M  V30 2789 C 269.193 -1.97499 0.745464 0
M  V30 2790 O 268.541 -2.27357 -0.228306 0
M  V30 2791 C 268.751 -1.34903 3.21873 0
M  V30 2792 C 270.099 -1.79654 3.8472 0
M  V30 2793 O 271.123 -1.44554 3.2555 0
M  V30 2794 O 269.982 -2.44515 4.88748 0
M  V30 2795 H 267.076 -0.401468 0.723016 0
M  V30 2796 H 269.622 -0.0896927 1.69463 0
M  V30 2797 H 268.394 -0.53781 3.87586 0
M  V30 2798 H 268.017 -2.16522 3.33473 0
M  V30 2799 N 269.014 -1.53014 -0.377408 0
M  V30 2800 C 269.924 -1.81557 -1.48574 0
M  V30 2801 C 270.94 -0.703102 -1.59162 0
M  V30 2802 O 272.116 -0.99192 -1.75279 0
M  V30 2803 C 269.181 -1.9889 -2.83978 0
M  V30 2804 C 268.242 -3.22801 -2.83016 0
M  V30 2805 C 267.475 -3.39298 -4.11962 0
M  V30 2806 O 267.698 -2.60345 -5.0752 0
M  V30 2807 O 266.632 -4.32604 -4.18494 0
M  V30 2808 H 270.458 -2.75695 -1.27382 0
M  V30 2809 H 268.043 -1.38248 -0.566373 0
M  V30 2810 H 269.925 -2.11931 -3.6423 0
M  V30 2811 H 268.6 -1.07942 -3.05172 0
M  V30 2812 H 267.507 -3.15193 -2.01505 0
M  V30 2813 H 268.84 -4.13632 -2.66775 0
M  V30 2814 N 270.492 0.636531 -1.44174 0
M  V30 2815 C 271.402 1.77754 -1.53103 0
M  V30 2816 C 272.418 1.68928 -0.417034 0
M  V30 2817 O 273.594 1.89801 -0.6736 0
M  V30 2818 C 270.659 3.14115 -1.46741 0
M  V30 2819 C 269.72 3.34612 -2.68948 0
M  V30 2820 C 268.953 4.64467 -2.6288 0
M  V30 2821 O 269.176 5.44919 -1.68581 0
M  V30 2822 O 268.11 4.87049 -3.53648 0
M  V30 2823 H 271.936 1.73174 -2.49489 0
M  V30 2824 H 269.521 0.79709 -1.2636 0
M  V30 2825 H 271.403 3.95412 -1.45696 0
M  V30 2826 H 270.078 3.19249 -0.534975 0
M  V30 2827 H 268.985 2.53014 -2.75562 0
M  V30 2828 H 270.318 3.34336 -3.61221 0
M  V30 2829 N 271.97 1.30982 0.876444 0
M  V30 2830 C 272.88 1.2003 2.01569 0
M  V30 2831 C 273.896 0.11838 1.73597 0
M  V30 2832 O 275.072 0.33495 1.98595 0
M  V30 2833 C 272.137 0.901637 3.34771 0
M  V30 2834 C 271.198 2.06979 3.76109 0
M  V30 2835 C 270.431 1.78529 5.02954 0
M  V30 2836 O 270.654 0.717296 5.65872 0
M  V30 2837 O 269.588 2.64019 5.40905 0
M  V30 2838 H 273.414 2.15753 2.13739 0
M  V30 2839 H 270.999 1.10658 1.00375 0
M  V30 2840 H 272.881 0.750645 4.1466 0
M  V30 2841 H 271.556 -0.0256141 3.2369 0
M  V30 2842 H 270.463 2.27616 2.96887 0
M  V30 2843 H 271.796 2.97907 3.91807 0
M  V30 2844 N 273.449 -1.08991 1.13837 0
M  V30 2845 C 274.86 -1.62746 0.914917 0
M  V30 2846 C 275.211 -1.88403 -0.547594 0
M  V30 2847 O 274.336 -1.63706 -1.41525 0
M  V30 2848 C 274.931 -2.95662 1.65437 0
M  V30 2849 C 273.49 -3.46225 1.47666 0
M  V30 2850 C 272.637 -2.20562 1.6807 0
M  V30 2851 H 275.588 -0.922946 1.29102 0
M  V30 2852 H 275.609 -3.63825 1.11407 0
M  V30 2853 H 275.121 -2.76956 2.71877 0
M  V30 2854 H 273.222 -3.70046 0.435478 0
M  V30 2855 H 273.335 -4.23368 2.24268 0
M  V30 2856 H 271.699 -2.29439 1.10589 0
M  V30 2857 H 272.482 -2.0437 2.7584 0
M  V30 2858 N 274.927 -0.932562 -1.27047 0
M  V30 2859 C 275.874 -0.434072 -2.26681 0
M  V30 2860 C 276.844 0.501639 -1.58344 0
M  V30 2861 O 278.029 0.419734 -1.86126 0
M  V30 2862 C 275.169 0.30261 -3.43771 0
M  V30 2863 C 274.282 -0.667774 -4.26808 0
M  V30 2864 C 273.417 0.0892393 -5.31125 0
M  V30 2865 C 272.456 -0.873532 -6.05835 0
M  V30 2866 N 271.593 -0.148832 -7.01942 0
M  V30 2867 H 276.433 -1.28868 -2.68695 0
M  V30 2868 H 273.97 -0.646713 -1.32121 0
M  V30 2869 H 275.928 0.746092 -4.10474 0
M  V30 2870 H 274.558 1.12142 -3.02695 0
M  V30 2871 H 273.61 -1.22978 -3.59973 0
M  V30 2872 H 274.922 -1.40337 -4.78651 0
M  V30 2873 H 274.076 0.592409 -6.03801 0
M  V30 2874 H 272.815 0.85777 -4.80097 0
M  V30 2875 H 271.82 -1.38791 -5.31994 0
M  V30 2876 H 273.045 -1.64193 -6.58952 0
M  V30 2877 H 270.991 0.601365 -6.53238 0
M  V30 2878 H 270.908 -0.82391 -7.51497 0
M  V30 2879 H 272.176 0.333527 -7.78786 0
M  V30 2880 N 276.405 1.4127 -0.698611 0
M  V30 2881 C 277.682 1.94955 -0.158762 0
M  V30 2882 C 278.062 1.63781 1.33188 0
M  V30 2883 O 277.41 0.946423 2.07979 0
M  V30 2884 C 277.62 3.46044 -0.453309 0
M  V30 2885 C 278.968 4.22872 -0.382707 0
M  V30 2886 O 279.992 3.54076 -0.388396 0
M  V30 2887 O 278.851 5.45407 -0.345463 0
M  V30 2888 H 275.945 0.82683 -0.0167505 0
M  V30 2889 H 278.491 1.50971 -0.77498 0
M  V30 2890 H 277.263 3.62028 -1.48498 0
M  V30 2891 H 276.886 3.97128 0.19373 0
M  V30 2892 N 277.883 0.443576 1.51229 0
M  V30 2893 C 278.793 -0.370721 2.31652 0
M  V30 2894 C 279.809 -1.02186 1.40833 0
M  V30 2895 O 280.985 -1.01586 1.73903 0
M  V30 2896 C 278.05 -1.45376 3.14749 0
M  V30 2897 C 277.111 -0.822099 4.21355 0
M  V30 2898 C 276.344 -1.85353 5.0048 0
M  V30 2899 O 276.567 -3.07656 4.80316 0
M  V30 2900 O 275.501 -1.4406 5.84406 0
M  V30 2901 H 279.327 0.286002 3.0235 0
M  V30 2902 H 276.912 0.20598 1.47973 0
M  V30 2903 H 278.794 -2.08173 3.66391 0
M  V30 2904 H 277.469 -2.09445 2.46809 0
M  V30 2905 H 276.376 -0.155909 3.73775 0
M  V30 2906 H 277.709 -0.224797 4.91686 0
M  V30 2907 N 279.361 -1.56624 0.175154 0
M  V30 2908 C 280.586 -2.01813 -0.478137 0
M  V30 2909 C 281.011 -1.05457 -1.55757 0
M  V30 2910 O 280.369 -0.0347439 -1.81267 0
M  V30 2911 C 280.417 -3.45581 -1.02987 0
M  V30 2912 O 279.521 -3.52305 -2.14371 0
M  V30 2913 H 278.862 -0.65413 -0.114059 0
M  V30 2914 H 281.392 -2.02673 0.280173 0
M  V30 2915 H 281.402 -3.84965 -1.35151 0
M  V30 2916 H 280.077 -4.1521 -0.239556 0
M  V30 2917 H 278.654 -3.24783 -1.83222 0
M  V30 2918 N 280.839 0.0985539 -1.57292 0
M  V30 2919 C 281.802 1.10402 -2.00858 0
M  V30 2920 C 282.802 1.33146 -0.901593 0
M  V30 2921 O 283.992 1.29318 -1.16716 0
M  V30 2922 C 281.124 2.45394 -2.36632 0
M  V30 2923 H 282.317 0.729099 -2.90902 0
M  V30 2924 H 279.87 0.343495 -1.52479 0
M  V30 2925 H 280.605 2.87769 -1.49531 0
M  V30 2926 H 280.39 2.30235 -3.17387 0
M  V30 2927 H 281.88 3.17718 -2.71007 0
M  V30 2928 N 282.317 1.53212 0.369288 0
M  V30 2929 C 283.733 1.42902 0.710712 0
M  V30 2930 C 283.933 0.565135 1.93413 0
M  V30 2931 O 282.989 0.0461484 2.52458 0
M  V30 2932 C 284.302 2.86042 0.927382 0
M  V30 2933 C 285.85 2.9565 1.02762 0
M  V30 2934 C 286.325 4.39843 1.27679 0
M  V30 2935 N 287.816 4.43256 1.34457 0
M  V30 2936 C 288.551 5.51929 1.55439 0
M  V30 2937 N 288.047 6.70655 1.73762 0
M  V30 2938 N 289.84 5.39502 1.57779 0
M  V30 2939 H 281.991 2.07888 -0.435457 0
M  V30 2940 H 284.254 0.938661 -0.132739 0
M  V30 2941 H 283.96 3.51557 0.100287 0
M  V30 2942 H 283.834 3.29472 1.83653 0
M  V30 2943 H 286.221 2.30291 1.84527 0
M  V30 2944 H 286.302 2.5562 0.0959504 0
M  V30 2945 H 285.946 5.05774 0.464175 0
M  V30 2946 H 285.876 4.77443 2.22162 0
M  V30 2947 H 288.367 3.5769 1.21926 0
M  V30 2948 H 288.68 7.49248 1.89335 0
M  V30 2949 H 287.025 6.73648 1.70948 0
M  V30 2950 H 290.216 4.45713 1.43029 0
M  V30 2951 H 290.389 6.2426 1.7379 0
M  V30 2952 N 283.795 -0.628877 1.44509 0
M  V30 2953 C 284.742 -1.74074 1.51549 0
M  V30 2954 C 285.712 -1.62084 0.363021 0
M  V30 2955 O 286.897 -1.81975 0.573567 0
M  V30 2956 C 284.037 -3.12328 1.46784 0
M  V30 2957 C 283.15 -3.35277 2.72422 0
M  V30 2958 C 282.285 -4.63515 2.59475 0
M  V30 2959 C 281.324 -4.7965 3.80266 0
M  V30 2960 N 280.461 -5.99168 3.65981 0
M  V30 2961 H 285.301 -1.67392 2.46544 0
M  V30 2962 H 282.838 -0.816527 1.22357 0
M  V30 2963 H 284.796 -3.92286 1.42012 0
M  V30 2964 H 283.426 -3.18018 0.553544 0
M  V30 2965 H 282.478 -2.49242 2.87372 0
M  V30 2966 H 283.79 -3.43078 3.62076 0
M  V30 2967 H 282.944 -5.51638 2.52548 0
M  V30 2968 H 281.683 -4.58076 1.67384 0
M  V30 2969 H 280.688 -3.89957 3.87574 0
M  V30 2970 H 281.913 -4.86902 4.73395 0
M  V30 2971 H 279.859 -5.94814 2.76644 0
M  V30 2972 H 279.776 -6.08035 4.49254 0
M  V30 2973 H 281.044 -6.89846 3.6295 0
M  V30 2974 N 285.273 -1.31445 -0.869486 0
M  V30 2975 C 286.221 -1.19067 -1.99814 0
M  V30 2976 C 287.215 -0.0988569 -1.69111 0
M  V30 2977 O 288.421 -0.260781 -1.78101 0
M  V30 2978 H 284.796 -0.368677 -0.655425 0
M  V30 2979 H 286.767 -2.14555 -2.07385 0
M  V30 2980 C 285.516 -0.915323 -3.35436 0
M  V30 2981 H 284.839 -1.74759 -3.59582 0
M  V30 2982 H 286.279 -0.868895 -4.15001 0
M  V30 2983 C 284.738 0.381928 -3.34728 0
M  V30 2984 O 285.268 1.39857 -3.76567 0
M  V30 2985 N 283.474 0.398633 -2.87853 0
M  V30 2986 H 283.021 -0.429186 -2.54 0
M  V30 2987 H 282.979 1.26651 -2.87762 0
M  V30 2988 N 286.751 1.08385 -1.14413 0
M  V30 2989 C 288.028 1.77429 -0.823297 0
M  V30 2990 C 288.408 1.9974 0.683163 0
M  V30 2991 O 287.756 1.60739 1.62405 0
M  V30 2992 C 287.966 3.09004 -1.62227 0
M  V30 2993 C 289.314 3.83532 -1.82177 0
M  V30 2994 O 290.338 3.18786 -1.58915 0
M  V30 2995 O 289.197 4.99792 -2.21067 0
M  V30 2996 H 286.291 0.769999 -0.301712 0
M  V30 2997 H 288.837 1.14846 -1.24934 0
M  V30 2998 H 287.609 2.88316 -2.64555 0
M  V30 2999 H 287.232 3.79316 -1.19187 0
M  V30 3000 O 288.268 1.07005 1.20964 0
M  V30 3001 H 288.959 0.754737 1.78391 0
M  V30 END ATOM
M  V30 BEGIN BOND
M  V30 END BOND
M  V30 END CTAB
M  END
$$$$
