drugbank_target|Q9WZW1 Riboflavin biosynthesis protein (DB03247; DB04272; DB04345)
 OpenBabel12092120223D

  0  0  0     0  0            999 V3000
M  V30 BEGIN CTAB
M  V30 COUNTS 4785 4829 0 0 0
M  V30 BEGIN ATOM
M  V30 1 H -0.908 1.98254 -0.117106 0
M  V30 2 N 0 1.576 0 0
M  V30 3 C 0.933 2.03868 1.02534 0
M  V30 4 C 1.911 0.928543 1.3348 0
M  V30 5 O 3.095 1.19667 1.45644 0
M  V30 6 C 0.222 2.43627 2.35294 0
M  V30 7 C -0.732 3.65373 2.2001 0
M  V30 8 S 0.101 5.13292 1.52614 0
M  V30 9 C 1.257 5.56322 2.86805 0
M  V30 10 H 1.49 2.90518 0.631377 0
M  V30 11 H -0.977 1.52953 0.210867 0
M  V30 12 H 0.981 2.67203 3.11629 0
M  V30 13 H -0.358 1.57376 2.7183 0
M  V30 14 H -1.165 3.90944 3.18086 0
M  V30 15 H -1.563 3.418 1.51819 0
M  V30 16 H 0.729 5.58782 3.83104 0
M  V30 17 H 1.672 6.56266 2.65933 0
M  V30 18 H 2.08 4.83886 2.90714 0
M  V30 19 N 1.4781 -0.272755 1.55222 0
M  V30 20 C 2.7241 -1.00581 1.761 0
M  V30 21 C 3.0571 -1.85932 0.560625 0
M  V30 22 O 2.3321 -1.89416 -0.441801 0
M  V30 23 C 2.6151 -1.88816 3.06628 0
M  V30 24 C 2.4681 -1.06457 4.37021 0
M  V30 25 C 3.7871 -2.8752 3.33197 0
M  V30 26 H 0.9061 -0.364244 0.640699 0
M  V30 27 H 3.5481 -0.278189 1.87952 0
M  V30 28 H 1.6981 -2.50856 2.96654 0
M  V30 29 H 3.3701 -0.464863 4.58952 0
M  V30 30 H 1.6131 -0.368043 4.32236 0
M  V30 31 H 2.2841 -1.71514 5.24678 0
M  V30 32 H 4.7601 -2.35615 3.42965 0
M  V30 33 H 3.6361 -3.46399 4.25792 0
M  V30 34 H 3.8971 -3.62657 2.52849 0
M  V30 35 N 2.9562 -1.48159 -0.537278 0
M  V30 36 C 4.2022 -1.56035 -1.29541 0
M  V30 37 C 4.5352 -0.230377 -1.92829 0
M  V30 38 O 3.8102 0.762952 -1.78911 0
M  V30 39 C 4.0932 -2.69323 -2.39034 0
M  V30 40 C 3.9462 -4.12002 -1.80485 0
M  V30 41 C 5.2652 -2.78408 -3.40847 0
M  V30 42 H 2.3842 -0.567992 -0.469632 0
M  V30 43 H 5.0262 -1.80302 -0.599277 0
M  V30 44 H 3.1762 -2.48763 -2.98412 0
M  V30 45 H 4.8482 -4.43981 -1.25215 0
M  V30 46 H 3.0912 -4.19344 -1.11055 0
M  V30 47 H 3.7622 -4.87077 -2.59731 0
M  V30 48 H 6.2382 -2.97012 -2.91416 0
M  V30 49 H 5.1142 -3.59416 -4.14863 0
M  V30 50 H 5.3752 -1.86269 -4.00944 0
M  V30 51 N 4.4343 0.785586 -1.36625 0
M  V30 52 C 5.6593 1.57963 -1.34397 0
M  V30 53 C 6.0843 1.87964 0.071526 0
M  V30 54 O 5.4423 1.48182 1.0446 0
M  V30 55 C 5.4903 2.87511 -2.17646 0
M  V30 56 O 4.5943 3.81281 -1.57158 0
M  V30 57 H 3.9353 0.479014 -0.459828 0
M  V30 58 H 6.4653 0.973411 -1.79961 0
M  V30 59 H 6.4753 3.36745 -2.30362 0
M  V30 60 H 5.1503 2.65002 -3.20541 0
M  V30 61 H 3.7273 3.39885 -1.53403 0
M  V30 62 N 5.9124 1.20967 1.01018 0
M  V30 63 C 7.1614 1.01796 1.74128 0
M  V30 64 C 7.4744 -0.449691 1.90361 0
M  V30 65 O 8.6804 -0.76068 2.60626 0
M  V30 66 C 7.1364 1.7727 3.13215 0
M  V30 67 C 6.7444 3.28171 3.04972 0
M  V30 68 C 8.4884 1.66489 3.90489 0
M  V30 69 C 6.3954 3.96156 4.39107 0
M  V30 70 H 5.3254 0.377276 0.652824 0
M  V30 71 H 7.9764 1.44651 1.12909 0
M  V30 72 H 6.3584 1.27205 3.75013 0
M  V30 73 H 7.5324 3.85499 2.52443 0
M  V30 74 H 5.8474 3.39437 2.41188 0
M  V30 75 H 8.4444 2.14617 4.89738 0
M  V30 76 H 8.7874 0.6222 4.11624 0
M  V30 77 H 9.3204 2.14003 3.35332 0
M  V30 78 H 6.0594 5.00604 4.23174 0
M  V30 79 H 5.5794 3.43617 4.91617 0
M  V30 80 H 7.2584 4.00774 5.07926 0
M  V30 81 N 7.3905 -1.2043 1.01659 0
M  V30 82 C 8.6385 -1.89423 0.704522 0
M  V30 83 C 8.9595 -1.79231 -0.768197 0
M  V30 84 O 8.2295 -1.1947 -1.55254 0
M  V30 85 H 6.8095 -0.701178 0.257602 0
M  V30 86 H 9.4715 -1.4626 1.28818 0
M  V30 87 H 8.5675 -2.96052 0.987916 0
M  V30 88 N 8.8686 -0.792821 -1.36206 0
M  V30 89 C 10.1146 -0.36733 -1.99446 0
M  V30 90 C 10.4476 1.05917 -1.62774 0
M  V30 91 O 9.7226 1.7324 -0.88421 0
M  V30 92 C 10.0056 -0.535044 -3.56103 0
M  V30 93 C 9.8586 -2.00548 -4.02617 0
M  V30 94 C 11.1776 0.0478191 -4.40074 0
M  V30 95 H 8.2966 -0.134941 -0.724541 0
M  V30 96 H 10.9386 -0.999794 -1.61568 0
M  V30 97 H 9.0886 0.00336329 -3.885 0
M  V30 98 H 10.7606 -2.60521 -3.80692 0
M  V30 99 H 9.0036 -2.50686 -3.54032 0
M  V30 100 H 9.6746 -2.07377 -5.11565 0
M  V30 101 H 12.1506 -0.411822 -4.14057 0
M  V30 102 H 11.0266 -0.0995336 -5.4881 0
M  V30 103 H 11.2876 1.14025 -4.27142 0
M  V30 104 N 10.3467 1.47872 -0.545128 0
M  V30 105 C 11.5937 2.02493 -0.0165858 0
M  V30 106 C 11.9217 1.42073 1.32836 0
M  V30 107 O 11.1767 0.561459 1.87473 0
M  V30 108 C 11.4757 3.57131 0.13867 0
M  V30 109 C 11.1417 4.36411 -1.13384 0
M  V30 110 C 9.8037 4.57792 -1.48256 0
M  V30 111 C 12.1557 4.82223 -1.97764 0
M  V30 112 C 9.4837 5.22233 -2.67376 0
M  V30 113 C 11.8357 5.47977 -3.16076 0
M  V30 114 C 10.4997 5.67593 -3.51275 0
M  V30 115 H 9.7697 0.740975 -0.00606918 0
M  V30 116 H 12.4167 1.77683 -0.714207 0
M  V30 117 H 10.7217 3.80865 0.919172 0
M  V30 118 H 12.4187 3.97031 0.562782 0
M  V30 119 H 9.0087 4.2004 -0.852297 0
M  V30 120 H 13.1927 4.65493 -1.72132 0
M  V30 121 H 8.4487 5.35616 -2.94831 0
M  V30 122 H 12.6227 5.8244 -3.81755 0
M  V30 123 H 10.2497 6.17298 -4.43675 0
M  V30 124 N 11.8248 0.280983 1.55075 0
M  V30 125 C 13.1018 -0.386207 1.91749 0
M  V30 126 C 13.4818 -1.73264 1.20594 0
M  V30 127 O 12.8298 -2.26034 0.334784 0
M  V30 128 C 13.0398 -0.520687 3.45094 0
M  V30 129 C 14.3878 -0.800865 4.16979 0
M  V30 130 O 15.4118 -0.605271 3.5102 0
M  V30 131 O 14.2708 -1.1753 5.33712 0
M  V30 132 H 11.3648 -0.212408 0.799257 0
M  V30 133 H 13.9108 0.327568 1.66509 0
M  V30 134 H 12.6828 0.426633 3.88967 0
M  V30 135 H 12.3058 -1.2837 3.76307 0
M  V30 136 N 13.3029 -1.57598 0.00835791 0
M  V30 137 C 14.5509 -1.90551 -0.6734 0
M  V30 138 C 14.8719 -0.883301 -1.73847 0
M  V30 139 O 14.1419 0.0781442 -1.95744 0
M  V30 140 H 12.7219 -0.703312 -0.251717 0
M  V30 141 H 15.3839 -1.94833 0.0512592 0
M  V30 142 H 14.4799 -2.9056 -1.13935 0
M  V30 143 N 14.781 0.264519 -1.55364 0
M  V30 144 C 16.027 0.99646 -1.76631 0
M  V30 145 C 16.36 1.85632 -0.570478 0
M  V30 146 O 15.635 1.89647 0.43175 0
M  V30 147 C 15.918 1.87187 -3.07625 0
M  V30 148 C 15.771 1.04138 -4.37579 0
M  V30 149 C 17.09 2.85749 -3.34717 0
M  V30 150 H 14.209 0.360841 -0.642622 0
M  V30 151 H 16.851 0.268218 -1.88097 0
M  V30 152 H 15.001 2.49279 -2.9798 0
M  V30 153 H 16.673 0.440517 -4.59192 0
M  V30 154 H 14.916 0.345115 -4.32425 0
M  V30 155 H 15.587 1.68729 -5.2558 0
M  V30 156 H 18.063 2.33793 -3.4421 0
M  V30 157 H 16.939 3.44136 -4.27623 0
M  V30 158 H 17.2 3.61311 -2.54768 0
M  V30 159 N 16.2591 1.48442 0.529413 0
M  V30 160 C 17.2091 1.59407 1.63014 0
M  V30 161 C 18.1931 0.451166 1.54445 0
M  V30 162 O 19.3851 0.702635 1.62456 0
M  V30 163 C 16.5141 1.63746 3.01732 0
M  V30 164 C 15.6001 2.83518 3.15402 0
M  V30 165 N 15.9911 4.07929 2.99045 0
M  V30 166 C 14.2891 2.80862 3.46457 0
M  V30 167 C 14.9901 4.8829 3.16146 0
M  V30 168 N 13.9661 4.21117 3.43746 0
M  V30 169 H 17.7681 2.53343 1.48978 0
M  V30 170 H 15.2821 1.44821 0.734885 0
M  V30 171 H 17.2791 1.69695 3.80801 0
M  V30 172 H 15.9391 0.709264 3.16859 0
M  V30 173 H 16.9501 4.38357 2.75796 0
M  V30 174 H 13.6271 1.97301 3.67938 0
M  V30 175 H 15.0171 5.97028 3.08232 0
M  V30 176 N 17.7372 -0.778329 1.37039 0
M  V30 177 C 18.9862 -1.53189 1.3121 0
M  V30 178 C 19.2992 -1.95328 -0.103095 0
M  V30 179 O 20.5052 -2.70012 -0.283826 0
M  V30 180 C 18.9612 -2.76591 2.30272 0
M  V30 181 C 18.5692 -2.41577 3.77286 0
M  V30 182 C 20.3132 -3.5455 2.33441 0
M  V30 183 C 18.2202 -3.61441 4.68096 0
M  V30 184 H 17.1502 -0.5751 0.487622 0
M  V30 185 H 19.8012 -0.853101 1.62464 0
M  V30 186 H 18.1832 -3.46326 1.92027 0
M  V30 187 H 19.3572 -1.79668 4.2433 0
M  V30 188 H 17.6722 -1.76806 3.76999 0
M  V30 189 H 20.2692 -4.43628 2.98493 0
M  V30 190 H 20.6122 -3.93936 1.34611 0
M  V30 191 H 21.1452 -2.91805 2.7036 0
M  V30 192 H 17.8842 -3.27142 5.6803 0
M  V30 193 H 17.4042 -4.22478 4.25761 0
M  V30 194 H 19.0832 -4.28335 4.8491 0
M  V30 195 N 19.2153 -1.21501 -1.00376 0
M  V30 196 C 20.4633 -1.03095 -1.73827 0
M  V30 197 C 20.7843 0.436341 -1.90055 0
M  V30 198 O 20.0543 1.31466 -1.45236 0
M  V30 199 H 18.6343 -0.378487 -0.644016 0
M  V30 200 H 21.2963 -1.52831 -1.20949 0
M  V30 201 H 20.3923 -1.49991 -2.73695 0
M  V30 202 N 20.6934 1.19889 -1.02296 0
M  V30 203 C 21.6434 2.20777 -0.56934 0
M  V30 204 C 22.6274 1.56379 0.378741 0
M  V30 205 O 23.8194 1.75859 0.200673 0
M  V30 206 C 20.9484 3.43196 0.0845077 0
M  V30 207 C 20.0344 4.14749 -0.88566 0
M  V30 208 N 20.4254 4.62584 -2.04573 0
M  V30 209 C 18.7234 4.40347 -0.707835 0
M  V30 210 C 19.4244 5.17466 -2.65714 0
M  V30 211 N 18.4004 5.0791 -1.93723 0
M  V30 212 H 22.2024 2.55434 -1.45365 0
M  V30 213 H 19.7164 1.35897 -0.88915 0
M  V30 214 H 21.7134 4.14707 0.427067 0
M  V30 215 H 20.3734 3.10042 0.964574 0
M  V30 216 H 21.3844 4.57597 -2.4254 0
M  V30 217 H 18.0614 4.17317 0.12364 0
M  V30 218 H 19.4514 5.64808 -3.63925 0
M  V30 219 N 22.1715 0.800033 1.35784 0
M  V30 220 C 23.1035 0.163596 2.28615 0
M  V30 221 C 24.1165 -0.633317 1.49976 0
M  V30 222 O 25.3055 -0.466754 1.72289 0
M  V30 223 C 22.4055 -0.790958 3.29541 0
M  V30 224 C 21.5785 -0.0418255 4.3738 0
M  V30 225 C 20.6375 -0.91389 5.18203 0
M  V30 226 O 19.6635 -0.367234 5.68014 0
M  V30 227 N 20.8655 -2.23682 5.35674 0
M  V30 228 H 23.6305 0.96105 2.83873 0
M  V30 229 H 21.1915 0.654894 1.48063 0
M  V30 230 H 23.1835 -1.37844 3.80501 0
M  V30 231 H 21.7535 -1.48925 2.74846 0
M  V30 232 H 20.9735 0.726813 3.87442 0
M  V30 233 H 22.2615 0.474719 5.06581 0
M  V30 234 H 21.6595 -2.70497 4.96838 0
M  V30 235 H 20.2165 -2.77369 5.89839 0
M  V30 236 N 23.6496 -1.47581 0.552962 0
M  V30 237 C 24.5966 -2.29957 -0.197108 0
M  V30 238 C 25.5666 -1.38799 -0.912359 0
M  V30 239 O 26.7516 -1.67761 -0.908888 0
M  V30 240 C 23.8916 -3.22672 -1.22379 0
M  V30 241 C 23.0046 -4.28919 -0.515038 0
M  V30 242 C 22.1396 -5.0879 -1.52664 0
M  V30 243 C 21.1786 -6.06815 -0.802631 0
M  V30 244 N 20.3156 -6.7966 -1.76086 0
M  V30 245 H 25.1556 -2.93578 0.511486 0
M  V30 246 H 22.6926 -1.4471 0.264067 0
M  V30 247 H 24.6506 -3.74845 -1.83159 0
M  V30 248 H 23.2806 -2.60925 -1.90047 0
M  V30 249 H 22.3326 -3.79835 0.207192 0
M  V30 250 H 23.6446 -4.98773 0.0523425 0
M  V30 251 H 22.7986 -5.65091 -2.20809 0
M  V30 252 H 21.5376 -4.38828 -2.12794 0
M  V30 253 H 20.5426 -5.49695 -0.107238 0
M  V30 254 H 21.7676 -6.78784 -0.207135 0
M  V30 255 H 19.7136 -6.12432 -2.35081 0
M  V30 256 H 19.6306 -7.45669 -1.24552 0
M  V30 257 H 20.8986 -7.40538 -2.43359 0
M  V30 258 N 25.1277 -0.289203 -1.54924 0
M  V30 259 C 26.3737 0.323998 -2.00195 0
M  V30 260 C 26.7067 1.54441 -1.17735 0
M  V30 261 O 25.9817 1.92875 -0.250878 0
M  V30 262 C 26.2647 0.692276 -3.53383 0
M  V30 263 C 26.1177 -0.536457 -4.46589 0
M  V30 264 C 27.4367 1.52335 -4.12895 0
M  V30 265 H 24.5557 0.116289 -0.727768 0
M  V30 266 H 27.1977 -0.398954 -1.85764 0
M  V30 267 H 25.3477 1.30822 -3.65811 0
M  V30 268 H 27.0197 -1.17499 -4.46085 0
M  V30 269 H 25.2627 -1.17192 -4.1767 0
M  V30 270 H 25.9337 -0.234806 -5.515 0
M  V30 271 H 28.4097 1.00302 -4.0383 0
M  V30 272 H 27.2857 1.74982 -5.20262 0
M  V30 273 H 27.5467 2.50886 -3.64018 0
M  V30 274 N 26.6058 1.57591 -0.0167156 0
M  V30 275 C 27.5358 2.12496 0.967858 0
M  V30 276 C 28.5168 1.03807 1.34752 0
M  V30 277 O 29.7018 1.31577 1.42833 0
M  V30 278 C 26.8318 2.64194 2.25431 0
M  V30 279 C 25.7858 3.77559 2.01576 0
M  V30 280 C 25.1118 4.15636 3.36379 0
M  V30 281 C 26.4118 5.04151 1.36489 0
M  V30 282 H 28.1058 2.95013 0.510643 0
M  V30 283 H 25.6518 1.41915 0.244181 0
M  V30 284 H 27.6048 3.01236 2.94678 0
M  V30 285 H 26.3288 1.78821 2.73296 0
M  V30 286 H 24.9878 3.40937 1.34751 0
M  V30 287 H 24.6358 3.27263 3.81979 0
M  V30 288 H 24.3358 4.92022 3.21229 0
M  V30 289 H 25.8598 4.5525 4.06915 0
M  V30 290 H 27.2738 5.38857 1.95718 0
M  V30 291 H 25.6708 5.85453 1.31776 0
M  V30 292 H 26.7408 4.83733 0.336219 0
M  V30 293 N 28.0839 -0.256276 1.55502 0
M  V30 294 C 29.4999 -0.604325 1.47716 0
M  V30 295 C 29.6999 -1.88763 0.705039 0
M  V30 296 O 28.7559 -2.51445 0.230613 0
M  V30 297 C 30.0689 -0.715756 2.92057 0
M  V30 298 C 31.6169 -0.808706 3.02372 0
M  V30 299 C 32.0919 -0.951777 4.48001 0
M  V30 300 N 33.5829 -1.01688 4.519 0
M  V30 301 C 34.3179 -1.14668 5.61817 0
M  V30 302 N 33.8139 -1.24261 6.81565 0
M  V30 303 N 35.6069 -1.1791 5.49594 0
M  V30 304 H 27.7579 0.586291 2.04148 0
M  V30 305 H 30.0209 0.201015 0.926443 0
M  V30 306 H 29.7269 0.157027 3.51349 0
M  V30 307 H 29.6009 -1.59071 3.42018 0
M  V30 308 H 31.9879 -1.67195 2.43166 0
M  V30 309 H 32.0689 0.0912063 2.55637 0
M  V30 310 H 31.7129 -0.0931291 5.07815 0
M  V30 311 H 31.6429 -1.86659 4.92408 0
M  V30 312 H 34.1339 -0.954468 3.65648 0
M  V30 313 H 34.4469 -1.34046 7.61086 0
M  V30 314 H 32.7919 -1.21236 6.84344 0
M  V30 315 H 35.9829 -1.10057 4.54978 0
M  V30 316 H 36.1559 -1.27681 6.35296 0
M  V30 317 N 29.562 -1.4872 -0.521534 0
M  V30 318 C 30.79 -1.60843 -1.30142 0
M  V30 319 C 31.205 -0.271897 -1.86832 0
M  V30 320 O 30.562 0.739969 -1.66825 0
M  V30 321 C 30.613 -2.66155 -2.4463 0
M  V30 322 O 30.334 -3.94623 -1.90275 0
M  V30 323 C 31.835 -2.88795 -3.36322 0
M  V30 324 H 29.055 -0.542075 -0.395468 0
M  V30 325 H 31.599 -1.94609 -0.628285 0
M  V30 326 H 29.754 -2.35224 -3.07812 0
M  V30 327 H 30.168 -4.52468 -2.65279 0
M  V30 328 H 31.642 -3.66264 -4.12983 0
M  V30 329 H 32.119 -1.97934 -3.9207 0
M  V30 330 H 32.725 -3.21063 -2.78924 0
M  V30 331 N 31.0401 0.771051 -1.3745 0
M  V30 332 C 31.9731 1.89166 -1.27638 0
M  V30 333 C 32.9511 1.61842 -0.156782 0
M  V30 334 O 34.1351 1.85569 -0.331111 0
M  V30 335 C 31.2621 3.24405 -0.973621 0
M  V30 336 C 30.3081 3.70638 -2.1102 0
M  V30 337 S 31.1411 3.84228 -3.73 0
M  V30 338 C 32.2971 5.22313 -3.44876 0
M  V30 339 H 32.5301 1.972 -2.22485 0
M  V30 340 H 30.0631 0.932224 -1.23081 0
M  V30 341 H 32.0211 4.02514 -0.805766 0
M  V30 342 H 30.6821 3.14071 -0.0426279 0
M  V30 343 H 29.8751 4.68685 -1.85338 0
M  V30 344 H 29.4771 2.99632 -2.23822 0
M  V30 345 H 31.7691 6.07505 -2.99908 0
M  V30 346 H 32.7121 5.53008 -4.42253 0
M  V30 347 H 33.1201 4.90284 -2.79789 0
M  V30 348 N 32.5182 1.22032 0.997298 0
M  V30 349 C 33.4652 0.986467 2.08656 0
M  V30 350 C 34.4352 -0.0902671 1.65855 0
M  V30 351 O 35.6202 0.0584294 1.90711 0
M  V30 352 C 32.7602 0.565569 3.40434 0
M  V30 353 C 31.8732 1.71259 3.96604 0
M  V30 354 C 31.0082 1.24011 5.16522 0
M  V30 355 C 30.0472 2.35896 5.64818 0
M  V30 356 N 29.1842 1.89726 6.7598 0
M  V30 357 H 34.0242 1.91892 2.27994 0
M  V30 358 H 31.5612 0.956199 1.11782 0
M  V30 359 H 33.5192 0.302738 4.161 0
M  V30 360 H 32.1492 -0.329879 3.2111 0
M  V30 361 H 31.2012 2.08986 3.17851 0
M  V30 362 H 32.5132 2.55436 4.28432 0
M  V30 363 H 31.6672 0.934395 5.99461 0
M  V30 364 H 30.4062 0.368487 4.86306 0
M  V30 365 H 29.4112 2.67261 4.8047 0
M  V30 366 H 30.6362 3.23567 5.97061 0
M  V30 367 H 28.5822 1.0492 6.47555 0
M  V30 368 H 28.4992 2.67471 7.07103 0
M  V30 369 H 29.7672 1.62211 7.62435 0
M  V30 370 N 33.9963 -1.19345 1.0293 0
M  V30 371 C 34.9063 -2.26245 0.620515 0
M  V30 372 C 35.9223 -1.70486 -0.347928 0
M  V30 373 O 37.0983 -2.00347 -0.205704 0
M  V30 374 C 34.1633 -3.46693 -0.0218957 0
M  V30 375 C 33.2243 -4.17632 0.994102 0
M  V30 376 C 32.4573 -5.32329 0.382253 0
M  V30 377 O 32.6803 -5.64552 -0.814676 0
M  V30 378 O 31.6143 -5.91664 1.10531 0
M  V30 379 H 35.4403 -2.63453 1.51083 0
M  V30 380 H 33.0253 -1.26207 0.799513 0
M  V30 381 H 34.9073 -4.19683 -0.380072 0
M  V30 382 H 33.5823 -3.11333 -0.886209 0
M  V30 383 H 32.4893 -3.4676 1.40387 0
M  V30 384 H 33.8223 -4.56964 1.8288 0
M  V30 385 N 35.4744 -0.807222 -1.35358 0
M  V30 386 C 36.7234 -0.384376 -1.98004 0
M  V30 387 C 37.0364 1.0543 -1.64754 0
M  V30 388 O 38.2424 1.58029 -2.20769 0
M  V30 389 C 36.6984 -0.636326 -3.5423 0
M  V30 390 C 36.3064 -2.08759 -3.96388 0
M  V30 391 C 38.0504 -0.278869 -4.23583 0
M  V30 392 C 35.9574 -2.28525 -5.45463 0
M  V30 393 H 34.8874 -0.139986 -0.740891 0
M  V30 394 H 37.5384 -0.991369 -1.54415 0
M  V30 395 H 35.9204 0.0406256 -3.95979 0
M  V30 396 H 37.0944 -2.8024 -3.6579 0
M  V30 397 H 35.4094 -2.40497 -3.39926 0
M  V30 398 H 38.0064 -0.404599 -5.33167 0
M  V30 399 H 38.3494 0.775012 -4.09022 0
M  V30 400 H 38.8824 -0.909764 -3.87257 0
M  V30 401 H 35.6214 -3.32361 -5.64992 0
M  V30 402 H 35.1414 -1.61569 -5.77629 0
M  V30 403 H 36.8204 -2.10109 -6.11934 0
M  V30 404 N 36.9525 1.47285 -0.560781 0
M  V30 405 C 37.9155 2.28535 0.174488 0
M  V30 406 C 38.9155 1.37153 0.839388 0
M  V30 407 O 40.1055 1.59748 0.694702 0
M  V30 408 C 37.2375 3.16934 1.25561 0
M  V30 409 H 38.4305 2.95012 -0.539262 0
M  V30 410 H 35.9835 1.53034 -0.317865 0
M  V30 411 H 36.7185 2.55157 2.00164 0
M  V30 412 H 36.5035 3.8419 0.783604 0
M  V30 413 H 37.9935 3.78143 1.77193 0
M  V30 414 N 38.4306 0.297415 1.54768 0
M  V30 415 C 39.6776 -0.312913 2.00068 0
M  V30 416 C 40.0056 -1.54171 1.18582 0
M  V30 417 O 39.2606 -1.94108 0.249133 0
M  V30 418 C 39.5596 -0.717561 3.50123 0
M  V30 419 C 39.2256 0.409095 4.4904 0
M  V30 420 C 37.8876 0.718399 4.75807 0
M  V30 421 C 40.2396 1.16717 5.07963 0
M  V30 422 C 37.5676 1.78896 5.5876 0
M  V30 423 C 39.9196 2.22762 5.92081 0
M  V30 424 C 38.5836 2.54303 6.1716 0
M  V30 425 H 37.8536 -0.114503 0.7321 0
M  V30 426 H 40.5006 0.415767 1.86932 0
M  V30 427 H 38.8056 -1.52627 3.60849 0
M  V30 428 H 40.5026 -1.20091 3.82595 0
M  V30 429 H 37.0926 0.157918 4.28309 0
M  V30 430 H 41.2766 0.941466 4.87289 0
M  V30 431 H 36.5326 2.0381 5.7643 0
M  V30 432 H 40.7066 2.81962 6.36765 0
M  V30 433 H 38.3336 3.3739 6.81229 0
M  V30 434 N 39.9087 -1.5758 0.0250728 0
M  V30 435 C 41.1557 -1.91633 -0.654444 0
M  V30 436 C 41.4837 -0.901103 -1.72367 0
M  V30 437 O 40.7387 0.0905647 -1.9549 0
M  V30 438 C 41.0377 -3.32421 -1.31268 0
M  V30 439 C 40.7037 -4.49344 -0.374223 0
M  V30 440 C 39.3657 -4.8106 -0.115911 0
M  V30 441 C 41.7177 -5.20498 0.270432 0
M  V30 442 C 39.0457 -5.8129 0.79493 0
M  V30 443 C 41.3977 -6.21699 1.1693 0
M  V30 444 C 40.0617 -6.51859 1.43655 0
M  V30 445 H 39.3317 -0.701236 -0.239478 0
M  V30 446 H 41.9787 -1.91307 0.0859734 0
M  V30 447 H 40.2837 -3.28989 -2.12775 0
M  V30 448 H 41.9807 -3.56038 -1.84494 0
M  V30 449 H 38.5707 -4.24579 -0.58573 0
M  V30 450 H 42.7547 -4.96229 0.0839194 0
M  V30 451 H 38.0107 -6.03005 1.00973 0
M  V30 452 H 42.1847 -6.75955 1.67504 0
M  V30 453 H 39.8117 -7.2934 2.144 0
M  V30 454 N 41.3868 0.248026 -1.55636 0
M  V30 455 C 42.8028 0.596483 -1.48035 0
M  V30 456 C 43.0028 1.88386 -0.715039 0
M  V30 457 O 42.0588 2.51319 -0.243944 0
M  V30 458 C 43.3718 0.700258 -2.92433 0
M  V30 459 C 44.9198 0.792659 -3.02797 0
M  V30 460 C 45.3948 0.928005 -4.485 0
M  V30 461 N 46.8858 0.992903 -4.52433 0
M  V30 462 C 47.6208 1.11687 -5.62418 0
M  V30 463 N 47.1168 1.20645 -6.82214 0
M  V30 464 N 48.9098 1.14994 -5.50212 0
M  V30 465 H 41.0608 -0.597109 -2.03834 0
M  V30 466 H 43.3238 -0.205925 -0.925364 0
M  V30 467 H 43.0298 -0.175658 -3.51261 0
M  V30 468 H 42.9038 1.57255 -3.42857 0
M  V30 469 H 45.2908 1.65903 -2.4405 0
M  V30 470 H 45.3718 -0.104762 -2.55585 0
M  V30 471 H 45.0158 0.0661971 -5.07857 0
M  V30 472 H 44.9458 1.84045 -4.93391 0
M  V30 473 H 47.4368 0.935064 -3.66149 0
M  V30 474 H 47.7498 1.30008 -7.61786 0
M  V30 475 H 46.0948 1.17605 -6.84977 0
M  V30 476 H 49.2858 1.07643 -4.55555 0
M  V30 477 H 49.4588 1.24311 -6.35965 0
M  V30 478 N 42.8649 1.48995 0.513639 0
M  V30 479 C 43.8119 1.6473 1.61656 0
M  V30 480 C 44.7819 0.488984 1.58739 0
M  V30 481 O 45.9669 0.714478 1.76918 0
M  V30 482 C 43.1069 1.7082 2.99858 0
M  V30 483 C 42.2199 2.9787 3.12885 0
M  V30 484 C 41.3549 2.95017 4.41744 0
M  V30 485 C 40.3939 4.16702 4.48359 0
M  V30 486 N 39.5309 4.11832 5.68629 0
M  V30 487 H 44.3709 2.58909 1.47547 0
M  V30 488 H 41.9079 1.28382 0.71808 0
M  V30 489 H 43.8659 1.72331 3.79944 0
M  V30 490 H 42.4959 0.801181 3.12699 0
M  V30 491 H 41.5479 3.06029 2.25944 0
M  V30 492 H 42.8599 3.8786 3.13633 0
M  V30 493 H 42.0139 2.95021 5.30139 0
M  V30 494 H 40.7529 2.02784 4.43542 0
M  V30 495 H 39.7579 4.16955 3.58369 0
M  V30 496 H 40.9829 5.10113 4.48287 0
M  V30 497 H 38.9289 3.22428 5.71293 0
M  V30 498 H 38.8459 4.95543 5.7094 0
M  V30 499 H 40.1139 4.1592 6.59266 0
M  V30 500 N 44.343 -0.763751 1.37857 0
M  V30 501 C 45.62 -1.51244 1.24035 0
M  V30 502 C 46 -2.10472 -0.162649 0
M  V30 503 O 45.348 -1.96206 -1.17112 0
M  V30 504 C 45.558 -2.58694 2.34261 0
M  V30 505 C 46.906 -3.25878 2.72193 0
M  V30 506 O 47.93 -2.68993 2.33497 0
M  V30 507 O 46.789 -4.2874 3.38887 0
M  V30 508 H 43.883 -0.670243 0.484462 0
M  V30 509 H 46.429 -0.800031 1.49658 0
M  V30 510 H 45.201 -2.13105 3.2818 0
M  V30 511 H 44.824 -3.37527 2.10146 0
M  V30 512 N 45.8211 -1.22559 -0.990812 0
M  V30 513 C 47.0981 -0.959875 -1.70428 0
M  V30 514 C 47.4781 0.524455 -2.04481 0
M  V30 515 O 46.8261 1.49302 -1.72977 0
M  V30 516 C 47.0361 -1.85955 -2.95333 0
M  V30 517 C 48.3841 -2.11687 -3.68068 0
M  V30 518 O 49.4081 -1.8342 -3.05345 0
M  V30 519 O 48.2671 -2.59572 -4.80921 0
M  V30 520 H 45.3611 -0.361154 -0.743974 0
M  V30 521 H 47.9071 -1.33554 -1.04697 0
M  V30 522 H 46.6791 -2.86346 -2.66687 0
M  V30 523 H 46.3021 -1.4856 -3.68803 0
M  V30 524 N 47.2992 1.18797 -1.03562 0
M  V30 525 C 48.5242 1.9314 -0.755764 0
M  V30 526 C 48.9492 1.7537 0.68022 0
M  V30 527 O 48.3072 1.06046 1.47051 0
M  V30 528 C 48.3552 3.42747 -1.12058 0
M  V30 529 O 47.4592 4.11683 -0.243124 0
M  V30 530 H 46.8002 0.602724 -0.278604 0
M  V30 531 H 49.3302 1.50678 -1.3841 0
M  V30 532 H 49.3402 3.93437 -1.08035 0
M  V30 533 H 48.0152 3.55002 -2.16672 0
M  V30 534 H 46.5922 3.71323 -0.342539 0
M  V30 535 N 48.7773 0.814389 1.34928 0
M  V30 536 C 49.7073 0.244827 2.32213 0
M  V30 537 C 50.6883 -0.634024 1.57842 0
M  V30 538 O 51.8733 -0.562676 1.8587 0
M  V30 539 C 49.0033 -0.601106 3.42058 0
M  V30 540 C 47.9573 0.179896 4.27622 0
M  V30 541 C 47.2833 -0.788237 5.28858 0
M  V30 542 C 48.5833 1.38329 5.03649 0
M  V30 543 H 50.2773 1.05763 2.80097 0
M  V30 544 H 47.8233 0.510029 1.34665 0
M  V30 545 H 49.7763 -1.00968 4.09125 0
M  V30 546 H 48.5003 -1.44688 2.92802 0
M  V30 547 H 47.1593 0.569739 3.62146 0
M  V30 548 H 46.8073 -1.62973 4.75866 0
M  V30 549 H 46.5073 -0.269942 5.8698 0
M  V30 550 H 48.0313 -1.19485 5.98795 0
M  V30 551 H 49.4453 1.04918 5.63618 0
M  V30 552 H 47.8423 1.83662 5.71304 0
M  V30 553 H 48.9123 2.16592 4.33839 0
M  V30 554 N 50.2554 -1.46986 0.568584 0
M  V30 555 C 51.5044 -2.01646 0.0465894 0
M  V30 556 C 51.8174 -1.44721 -1.31587 0
M  V30 557 O 53.0234 -1.91113 -1.92842 0
M  V30 558 C 51.4794 -3.59885 0.032752 0
M  V30 559 C 51.0874 -4.25804 1.39266 0
M  V30 560 C 52.8314 -4.22255 -0.436038 0
M  V30 561 C 50.7384 -5.76081 1.33732 0
M  V30 562 H 49.6684 -0.753876 0.013647 0
M  V30 563 H 52.3194 -1.68864 0.718131 0
M  V30 564 H 50.7014 -3.8968 -0.704669 0
M  V30 565 H 51.8754 -4.07637 2.1487 0
M  V30 566 H 50.1904 -3.7547 1.80032 0
M  V30 567 H 52.7874 -5.32394 -0.49602 0
M  V30 568 H 53.1304 -3.90212 -1.45053 0
M  V30 569 H 53.6634 -3.97033 0.246877 0
M  V30 570 H 50.4024 -6.12761 2.32817 0
M  V30 571 H 49.9224 -5.96553 0.623267 0
M  V30 572 H 51.6014 -6.38518 1.0442 0
M  V30 573 N 51.7335 -0.305618 -1.54608 0
M  V30 574 C 52.9635 0.304333 -2.04346 0
M  V30 575 C 53.3715 1.47715 -1.18224 0
M  V30 576 O 52.7145 1.82591 -0.201577 0
M  V30 577 C 52.7765 0.819031 -3.50046 0
M  V30 578 C 52.4405 -0.22912 -4.56425 0
M  V30 579 C 53.4375 -1.05914 -5.08997 0
M  V30 580 C 51.1225 -0.372148 -5.0092 0
M  V30 581 C 53.1165 -2.01809 -6.04609 0
M  V30 582 C 50.8035 -1.33454 -5.9635 0
M  V30 583 C 51.8015 -2.15599 -6.48079 0
M  V30 584 O 51.4895 -3.10205 -7.41639 0
M  V30 585 H 51.2215 0.0693996 -0.672428 0
M  V30 586 H 53.7755 -0.444548 -2.00532 0
M  V30 587 H 52.0055 1.61852 -3.51199 0
M  V30 588 H 53.6945 1.34537 -3.82955 0
M  V30 589 H 54.4605 -0.959538 -4.75413 0
M  V30 590 H 50.3395 0.257304 -4.60281 0
M  V30 591 H 53.8835 -2.65966 -6.44909 0
M  V30 592 H 49.7805 -1.43485 -6.29351 0
M  V30 593 H 50.5485 -3.05237 -7.59455 0
M  V30 594 N 53.2116 1.57565 -0.0334293 0
M  V30 595 C 54.4396 1.9628 0.654347 0
M  V30 596 C 54.8546 0.910138 1.65414 0
M  V30 597 O 54.2116 -0.107595 1.82183 0
M  V30 598 C 54.2626 3.35067 1.35693 0
M  V30 599 O 53.9836 4.36296 0.397191 0
M  V30 600 C 55.4846 3.88439 2.13613 0
M  V30 601 H 52.7046 0.646369 0.180132 0
M  V30 602 H 55.2486 2.04282 -0.0944721 0
M  V30 603 H 53.4036 3.2827 2.05712 0
M  V30 604 H 53.8176 5.1678 0.896597 0
M  V30 605 H 55.2916 4.8788 2.58219 0
M  V30 606 H 55.7686 3.22914 2.97696 0
M  V30 607 H 56.3746 3.98516 1.48543 0
M  V30 608 N 54.6897 -0.239769 1.55765 0
M  V30 609 C 55.9387 -0.964754 1.77131 0
M  V30 610 C 56.2517 -1.86213 0.59868 0
M  V30 611 O 57.4577 -2.6244 0.695522 0
M  V30 612 C 55.9137 -1.76552 3.1362 0
M  V30 613 C 55.5217 -0.915185 4.38553 0
M  V30 614 C 57.2657 -2.48281 3.44321 0
M  V30 615 C 55.1727 -1.71225 5.66071 0
M  V30 616 H 54.1027 -0.363953 0.660344 0
M  V30 617 H 56.7537 -0.219181 1.82186 0
M  V30 618 H 55.1357 -2.55331 3.02691 0
M  V30 619 H 56.3097 -0.169217 4.60489 0
M  V30 620 H 54.6247 -0.310889 4.15238 0
M  V30 621 H 57.2217 -3.08382 4.36812 0
M  V30 622 H 57.5647 -3.20256 2.65973 0
M  V30 623 H 58.0977 -1.76507 3.56497 0
M  V30 624 H 54.8367 -1.03612 6.4726 0
M  V30 625 H 54.3567 -2.43331 5.48224 0
M  V30 626 H 56.0357 -2.27758 6.05587 0
M  V30 627 N 56.1678 -1.49265 -0.50573 0
M  V30 628 C 57.3928 -1.62478 -1.28902 0
M  V30 629 C 57.8178 -0.294332 -1.85783 0
M  V30 630 O 57.1758 0.737412 -1.65626 0
M  V30 631 C 57.2238 -2.69268 -2.39848 0
M  V30 632 O 56.3278 -2.28113 -3.43567 0
M  V30 633 H 55.6688 -0.54399 -0.380751 0
M  V30 634 H 58.1988 -1.95421 -0.605952 0
M  V30 635 H 58.2088 -2.91291 -2.85681 0
M  V30 636 H 56.8838 -3.65846 -1.97812 0
M  V30 637 H 55.4608 -2.16401 -3.03685 0
M  V30 638 N 57.6459 0.756429 -1.3826 0
M  V30 639 C 58.8759 1.54341 -1.3734 0
M  V30 640 C 59.2839 1.89159 0.0393917 0
M  V30 641 O 58.6269 1.5307 1.01565 0
M  V30 642 C 58.6889 2.87238 -2.16182 0
M  V30 643 C 58.3529 2.74973 -3.65019 0
M  V30 644 C 59.3499 2.44962 -4.58574 0
M  V30 645 C 57.0349 2.92515 -4.08338 0
M  V30 646 C 59.0289 2.32642 -5.93428 0
M  V30 647 C 56.7159 2.79815 -5.43274 0
M  V30 648 C 57.7139 2.49921 -6.35632 0
M  V30 649 O 57.4019 2.37275 -7.68086 0
M  V30 650 H 57.1339 0.484281 -0.471643 0
M  V30 651 H 59.6879 0.944152 -1.82414 0
M  V30 652 H 57.9179 3.49342 -1.65822 0
M  V30 653 H 59.6069 3.48731 -2.07705 0
M  V30 654 H 60.3729 2.31081 -4.26412 0
M  V30 655 H 56.2519 3.14781 -3.368 0
M  V30 656 H 59.7959 2.0923 -6.65484 0
M  V30 657 H 55.6929 2.93269 -5.75034 0
M  V30 658 H 56.4609 2.52509 -7.78577 0
M  V30 659 N 59.124 1.23083 0.984299 0
M  V30 660 C 60.535 1.05609 1.5396 0
M  V30 661 C 60.886 -0.377793 1.92528 0
M  V30 662 O 60.011 -1.26398 1.75649 0
M  V30 663 C 60.606 1.91087 2.7977 0
M  V30 664 C 59.165 1.77885 3.31713 0
M  V30 665 C 58.312 1.87028 2.04733 0
M  V30 666 H 61.263 1.36802 0.804419 0
M  V30 667 H 61.284 1.43336 3.5247 0
M  V30 668 H 60.796 2.9544 2.51668 0
M  V30 669 H 58.897 0.762995 3.64704 0
M  V30 670 H 59.01 2.61047 4.01735 0
M  V30 671 H 57.374 1.30565 2.18689 0
M  V30 672 H 58.157 2.92929 1.79017 0
M  V30 673 N 60.6021 -1.18246 1.0419 0
M  V30 674 C 62.0131 -1.69914 0.773698 0
M  V30 675 C 62.3641 -1.83085 -0.705297 0
M  V30 676 O 61.4891 -1.51123 -1.5489 0
M  V30 677 C 62.0841 -3.08619 1.39784 0
M  V30 678 C 60.6431 -3.57494 1.17792 0
M  V30 679 C 59.7901 -2.34013 1.48773 0
M  V30 680 H 62.7411 -1.02904 1.20816 0
M  V30 681 H 62.7621 -3.71958 0.801714 0
M  V30 682 H 62.2741 -2.99001 2.47426 0
M  V30 683 H 60.3751 -3.72406 0.120295 0
M  V30 684 H 60.4881 -4.40852 1.87581 0
M  V30 685 H 58.8521 -2.37986 0.907463 0
M  V30 686 H 59.6351 -2.27013 2.57527 0
M  V30 687 N 62.0802 -0.821533 -1.34494 0
M  V30 688 C 62.9902 -0.244355 -2.33324 0
M  V30 689 C 64.0062 0.620527 -1.62559 0
M  V30 690 O 65.1822 0.528754 -1.94335 0
M  V30 691 C 62.2472 0.585368 -3.41723 0
M  V30 692 C 61.3082 -0.301752 -4.28238 0
M  V30 693 C 60.5412 0.488466 -5.3146 0
M  V30 694 O 60.7642 1.72186 -5.4379 0
M  V30 695 O 59.6982 -0.12848 -6.01763 0
M  V30 696 H 63.5242 -1.06231 -2.84515 0
M  V30 697 H 61.1092 -0.583645 -1.37528 0
M  V30 698 H 62.9912 1.05747 -4.07916 0
M  V30 699 H 61.6662 1.38068 -2.92778 0
M  V30 700 H 60.5732 -0.821315 -3.64973 0
M  V30 701 H 61.9062 -1.06138 -4.8062 0
M  V30 702 N 63.5583 1.46682 -0.576371 0
M  V30 703 C 64.7883 2.06498 -0.0648694 0
M  V30 704 C 65.1963 1.42665 1.24271 0
M  V30 705 O 64.5393 0.523886 1.76071 0
M  V30 706 C 64.6013 3.5904 0.181816 0
M  V30 707 C 64.2653 4.45028 -1.0392 0
M  V30 708 C 65.2623 4.81959 -1.94966 0
M  V30 709 C 62.9473 4.86259 -1.25927 0
M  V30 710 C 64.9413 5.58942 -3.06371 0
M  V30 711 C 62.6283 5.63002 -2.37638 0
M  V30 712 C 63.6263 5.99257 -3.2769 0
M  V30 713 O 63.3143 6.7445 -4.37461 0
M  V30 714 H 63.0463 0.674028 -0.0515987 0
M  V30 715 H 65.6003 1.89393 -0.794951 0
M  V30 716 H 63.8303 3.74429 0.966436 0
M  V30 717 H 65.5193 4.00806 0.641047 0
M  V30 718 H 66.2853 4.50689 -1.79177 0
M  V30 719 H 62.1643 4.57494 -0.567448 0
M  V30 720 H 65.7083 5.87158 -3.76684 0
M  V30 721 H 61.6053 5.93686 -2.53392 0
M  V30 722 H 62.3733 6.92867 -4.35749 0
M  V30 723 N 65.0364 0.313813 1.54444 0
M  V30 724 C 66.2834 -0.291675 2.00388 0
M  V30 725 C 66.6114 -1.52904 1.2021 0
M  V30 726 O 65.8664 -1.93833 0.269707 0
M  V30 727 C 66.1654 -0.680386 3.50864 0
M  V30 728 C 65.8314 0.456699 4.48581 0
M  V30 729 C 64.4934 0.768824 4.75018 0
M  V30 730 C 66.8454 1.22098 5.06697 0
M  V30 731 C 64.1734 1.84812 5.56831 0
M  V30 732 C 66.5254 2.29029 5.89685 0
M  V30 733 C 65.1894 2.60834 6.14428 0
M  V30 734 H 64.4594 -0.106732 0.733273 0
M  V30 735 H 67.1064 0.43557 1.86481 0
M  V30 736 H 65.4114 -1.48791 3.62448 0
M  V30 737 H 67.1084 -1.16026 3.83847 0
M  V30 738 H 63.6984 0.203337 4.28117 0
M  V30 739 H 67.8824 0.993096 4.86263 0
M  V30 740 H 63.1384 2.09912 5.74236 0
M  V30 741 H 67.3124 2.887 6.33739 0
M  V30 742 H 64.9394 3.44596 6.77612 0
M  V30 743 N 66.5145 -1.57545 0.0417849 0
M  V30 744 C 67.4445 -2.14009 -0.933929 0
M  V30 745 C 68.4255 -1.05938 -1.33083 0
M  V30 746 O 69.6105 -1.33833 -1.40721 0
M  V30 747 C 66.7405 -2.67747 -2.21199 0
M  V30 748 C 65.6945 -3.80718 -1.95544 0
M  V30 749 C 65.0205 -4.20935 -3.29724 0
M  V30 750 C 66.3205 -5.06258 -1.28452 0
M  V30 751 H 68.0145 -2.95788 -0.463645 0
M  V30 752 H 65.5605 -1.42285 -0.221573 0
M  V30 753 H 67.5135 -3.05886 -2.89848 0
M  V30 754 H 66.2375 -1.83147 -2.70416 0
M  V30 755 H 64.8965 -3.43037 -1.2931 0
M  V30 756 H 64.5445 -3.33298 -3.76724 0
M  V30 757 H 64.2445 -4.9707 -3.13361 0
M  V30 758 H 65.7685 -4.61666 -3.9962 0
M  V30 759 H 67.1825 -5.41903 -1.8712 0
M  V30 760 H 65.5795 -5.87475 -1.22445 0
M  V30 761 H 66.6495 -4.84207 -0.259219 0
M  V30 762 N 67.9926 0.231505 -1.5589 0
M  V30 763 C 69.4036 0.799327 -1.68724 0
M  V30 764 C 69.7546 1.85398 -0.642022 0
M  V30 765 O 68.8796 2.1539 0.208784 0
M  V30 766 C 69.4746 1.45664 -3.05888 0
M  V30 767 C 68.0336 1.97197 -3.20609 0
M  V30 768 C 67.1806 0.828552 -2.64632 0
M  V30 769 H 70.1316 0.00702616 -1.58698 0
M  V30 770 H 70.1526 2.32517 -3.01191 0
M  V30 771 H 69.6646 0.688808 -3.81939 0
M  V30 772 H 67.7656 2.76813 -2.4941 0
M  V30 773 H 67.8786 2.15878 -4.27707 0
M  V30 774 H 66.2426 1.23321 -2.22854 0
M  V30 775 H 67.0256 0.0735544 -3.43221 0
M  V30 776 N 69.4707 1.49531 0.497807 0
M  V30 777 C 70.7477 1.49682 1.25915 0
M  V30 778 C 71.1277 0.226339 2.09883 0
M  V30 779 O 70.4757 -0.791189 2.14365 0
M  V30 780 C 70.6857 2.77755 2.11313 0
M  V30 781 C 72.0337 3.27371 2.70395 0
M  V30 782 O 73.0577 2.78894 2.21578 0
M  V30 783 O 71.9167 4.11808 3.59272 0
M  V30 784 H 69.0107 0.599228 0.56996 0
M  V30 785 H 71.5567 1.61798 0.511816 0
M  V30 786 H 70.3287 3.61713 1.49264 0
M  V30 787 H 69.9517 2.68515 2.93233 0
M  V30 788 N 70.9488 -0.749086 1.3866 0
M  V30 789 C 72.1958 -1.50833 1.35114 0
M  V30 790 C 72.5238 -1.94415 -0.0574049 0
M  V30 791 O 71.7788 -1.66065 -1.03541 0
M  V30 792 C 72.0778 -2.7712 2.25697 0
M  V30 793 C 71.7438 -2.52477 3.73585 0
M  V30 794 C 70.4058 -2.45466 4.13884 0
M  V30 795 C 72.7578 -2.31066 4.67181 0
M  V30 796 C 70.0858 -2.15064 5.45861 0
M  V30 797 C 72.4378 -2.02183 5.9942 0
M  V30 798 C 71.1018 -1.93631 6.38798 0
M  V30 799 H 70.3718 -0.551936 0.494416 0
M  V30 800 H 73.0188 -0.860979 1.71054 0
M  V30 801 H 71.3238 -3.46528 1.82827 0
M  V30 802 H 73.0208 -3.35096 2.20254 0
M  V30 803 H 69.6108 -2.58807 3.41638 0
M  V30 804 H 73.7948 -2.35459 4.3689 0
M  V30 805 H 69.0508 -2.06954 5.75308 0
M  V30 806 H 73.2248 -1.8462 6.71482 0
M  V30 807 H 70.8518 -1.69839 7.40985 0
M  V30 808 N 72.4269 -1.23603 -0.977757 0
M  V30 809 C 73.8379 -1.06424 -1.53398 0
M  V30 810 C 74.1889 0.367578 -1.92726 0
M  V30 811 O 73.3139 1.25465 -1.76316 0
M  V30 812 C 73.9089 -1.92568 -2.78753 0
M  V30 813 C 72.4679 -1.79642 -3.30765 0
M  V30 814 C 71.6149 -1.88111 -2.03739 0
M  V30 815 H 74.5659 -1.37227 -0.797152 0
M  V30 816 H 74.5869 -1.45203 -3.51705 0
M  V30 817 H 74.0989 -2.96771 -2.50098 0
M  V30 818 H 72.1999 -0.782325 -3.64294 0
M  V30 819 H 72.3129 -2.63174 -4.00345 0
M  V30 820 H 70.6769 -1.31723 -2.17994 0
M  V30 821 H 71.4599 -2.93875 -1.77461 0
M  V30 822 N 73.905 1.17692 -1.04816 0
M  V30 823 C 75.153 1.87488 -0.754497 0
M  V30 824 C 75.474 1.81205 0.720407 0
M  V30 825 O 74.744 1.23544 1.52032 0
M  V30 826 H 73.324 0.694101 -0.276102 0
M  V30 827 H 75.986 1.42793 -1.32651 0
M  V30 828 H 75.082 2.93328 -1.06606 0
M  V30 829 N 75.3831 0.828654 1.34056 0
M  V30 830 C 76.3131 0.269443 2.3194 0
M  V30 831 C 77.2941 -0.617247 1.58506 0
M  V30 832 O 78.4791 -0.542931 1.86456 0
M  V30 833 C 75.6091 -0.564793 3.42677 0
M  V30 834 C 74.5631 0.225241 4.27407 0
M  V30 835 C 73.8891 -0.7321 5.29664 0
M  V30 836 C 75.1891 1.43663 5.02154 0
M  V30 837 H 76.8831 1.08728 2.7896 0
M  V30 838 H 74.4291 0.524283 1.34117 0
M  V30 839 H 76.3821 -0.966233 4.10173 0
M  V30 840 H 75.1061 -1.41574 2.9432 0
M  V30 841 H 73.7651 0.608117 3.61521 0
M  V30 842 H 73.4131 -1.57916 4.77568 0
M  V30 843 H 73.1131 -0.20767 5.87233 0
M  V30 844 H 74.6371 -1.13128 6.00029 0
M  V30 845 H 76.0511 1.1089 5.62473 0
M  V30 846 H 74.4481 1.89711 5.69324 0
M  V30 847 H 75.5181 2.21181 4.31517 0
M  V30 848 N 76.8612 -1.46375 0.584142 0
M  V30 849 C 77.7912 -2.33103 -0.136037 0
M  V30 850 C 78.7722 -1.45431 -0.882255 0
M  V30 851 O 79.9572 -1.74246 -0.857434 0
M  V30 852 C 77.0872 -3.27731 -1.14933 0
M  V30 853 C 76.0412 -4.24855 -0.517862 0
M  V30 854 C 75.3672 -5.09001 -1.63773 0
M  V30 855 C 76.6672 -5.19439 0.545886 0
M  V30 856 H 78.3612 -2.93568 0.588086 0
M  V30 857 H 75.9072 -1.41166 0.284259 0
M  V30 858 H 77.8602 -3.87261 -1.66153 0
M  V30 859 H 76.5842 -2.65377 -1.90375 0
M  V30 860 H 75.2432 -3.6659 -0.0267361 0
M  V30 861 H 74.8912 -4.43031 -2.38185 0
M  V30 862 H 74.5912 -5.74777 -1.22085 0
M  V30 863 H 76.1152 -5.71396 -2.15266 0
M  V30 864 H 77.5292 -5.73177 0.118704 0
M  V30 865 H 75.9262 -5.93566 0.88317 0
M  V30 866 H 76.9962 -4.63285 1.43162 0
M  V30 867 N 78.3393 -0.321999 -1.54275 0
M  V30 868 C 79.2723 0.58718 -2.20516 0
M  V30 869 C 80.2503 1.11693 -1.18167 0
M  V30 870 O 81.4343 1.18122 -1.46899 0
M  V30 871 C 78.5613 1.80554 -2.86562 0
M  V30 872 C 77.6073 1.40718 -4.02617 0
M  V30 873 S 78.4403 0.445218 -5.33646 0
M  V30 874 C 79.5963 1.6709 -6.03185 0
M  V30 875 H 79.8293 0.0244875 -2.9729 0
M  V30 876 H 77.3623 -0.106087 -1.54035 0
M  V30 877 H 79.3203 2.50462 -3.25237 0
M  V30 878 H 77.9813 2.33942 -2.09595 0
M  V30 879 H 77.1743 2.31501 -4.47687 0
M  V30 880 H 76.7763 0.78782 -3.65608 0
M  V30 881 H 79.0683 2.60856 -6.25268 0
M  V30 882 H 80.0113 1.26239 -6.96756 0
M  V30 883 H 80.4193 1.85716 -5.33076 0
M  V30 884 N 79.8174 1.5752 -0.0501392 0
M  V30 885 C 81.0454 1.96963 0.633492 0
M  V30 886 C 81.4604 0.927631 1.6444 0
M  V30 887 O 80.8174 -0.0882665 1.82286 0
M  V30 888 C 80.8684 3.36487 1.32132 0
M  V30 889 O 80.5894 4.36693 0.350894 0
M  V30 890 C 82.0904 3.90682 2.09481 0
M  V30 891 H 79.3104 0.648244 0.173266 0
M  V30 892 H 81.8544 2.0417 -0.116134 0
M  V30 893 H 80.0094 3.30434 2.02218 0
M  V30 894 H 80.4234 5.17702 0.841735 0
M  V30 895 H 81.8974 4.90591 2.5303 0
M  V30 896 H 82.3744 3.26053 2.94255 0
M  V30 897 H 82.9804 4.00069 1.44307 0
M  V30 898 N 81.2955 -0.223234 1.56011 0
M  V30 899 C 82.5415 -0.949279 1.79211 0
M  V30 900 C 82.8745 -1.84054 0.619494 0
M  V30 901 O 82.1495 -1.90726 -0.381317 0
M  V30 902 C 82.4325 -1.78965 3.12479 0
M  V30 903 C 82.2855 -0.924997 4.40186 0
M  V30 904 C 83.6045 -2.76774 3.42175 0
M  V30 905 H 80.7235 -0.343676 0.651963 0
M  V30 906 H 83.3655 -0.218253 1.88742 0
M  V30 907 H 81.5155 -2.41291 3.04485 0
M  V30 908 H 83.1875 -0.318615 4.60198 0
M  V30 909 H 81.4305 -0.230344 4.33188 0
M  V30 910 H 82.1015 -1.54735 5.29869 0
M  V30 911 H 84.5775 -2.24584 3.50287 0
M  V30 912 H 83.4535 -3.32678 4.36597 0
M  V30 913 H 83.7145 -3.54429 2.64258 0
M  V30 914 N 82.7736 -1.49793 -0.48987 0
M  V30 915 C 83.6836 -1.70036 -1.61632 0
M  V30 916 C 84.6996 -0.583102 -1.63939 0
M  V30 917 O 85.8756 -0.859169 -1.82154 0
M  V30 918 C 82.9406 -1.77277 -2.97949 0
M  V30 919 C 82.0016 -3.00918 -3.06181 0
M  V30 920 C 81.2346 -3.07804 -4.35996 0
M  V30 921 O 81.4576 -2.21982 -5.25433 0
M  V30 922 O 80.3916 -4.00369 -4.49431 0
M  V30 923 H 84.2176 -2.65486 -1.47482 0
M  V30 924 H 81.8026 -1.33666 -0.667362 0
M  V30 925 H 83.6846 -1.84329 -3.78947 0
M  V30 926 H 82.3596 -0.850076 -3.12339 0
M  V30 927 H 81.2666 -2.99377 -2.2433 0
M  V30 928 H 82.5996 -3.92704 -2.96723 0
M  V30 929 N 84.2517 0.741722 -1.39055 0
M  V30 930 C 85.4767 1.53607 -1.39354 0
M  V30 931 C 85.9017 1.88096 0.0116905 0
M  V30 932 O 85.2597 1.5143 0.996924 0
M  V30 933 C 85.3077 2.80441 -2.26682 0
M  V30 934 O 84.4117 3.76088 -1.69208 0
M  V30 935 H 83.7527 0.464142 -0.474835 0
M  V30 936 H 86.2827 0.915665 -1.82967 0
M  V30 937 H 86.2927 3.29246 -2.40959 0
M  V30 938 H 84.9677 2.5467 -3.2881 0
M  V30 939 H 83.5447 3.34833 -1.64138 0
M  V30 940 N 85.7298 1.2412 0.971189 0
M  V30 941 C 87.1458 1.00584 1.23916 0
M  V30 942 C 87.3458 -0.287481 1.99439 0
M  V30 943 O 86.4018 -1.00454 2.31658 0
M  V30 944 C 87.7148 2.21864 2.0297 0
M  V30 945 C 89.2628 2.26452 2.16076 0
M  V30 946 C 89.7378 3.47343 2.98524 0
M  V30 947 N 91.2288 3.47639 3.06107 0
M  V30 948 C 91.9638 4.37837 3.70251 0
M  V30 949 N 91.4598 5.38286 4.36142 0
M  V30 950 N 93.2528 4.25558 3.67228 0
M  V30 951 H 85.4038 2.07236 0.465499 0
M  V30 952 H 87.6668 0.909236 0.268315 0
M  V30 953 H 87.3728 3.15771 1.54861 0
M  V30 954 H 87.2468 2.23698 3.03709 0
M  V30 955 H 89.6338 1.33078 2.6339 0
M  V30 956 H 89.7148 2.28645 1.14696 0
M  V30 957 H 89.3588 4.41029 2.51905 0
M  V30 958 H 89.2888 3.42393 4.00093 0
M  V30 959 H 91.7798 2.74966 2.59233 0
M  V30 960 H 92.0928 6.03352 4.82894 0
M  V30 961 H 90.4378 5.42176 4.34822 0
M  V30 962 H 93.6288 3.46322 3.14927 0
M  V30 963 H 93.8018 4.96054 4.16935 0
M  V30 964 N 87.2079 -1.17134 1.05439 0
M  V30 965 C 88.4539 -1.87733 0.767077 0
M  V30 966 C 88.7869 -1.8098 -0.704253 0
M  V30 967 O 88.0619 -1.21951 -1.5152 0
M  V30 968 C 88.3449 -3.37659 1.25133 0
M  V30 969 C 88.1979 -3.53149 2.78578 0
M  V30 970 C 89.5169 -4.31768 0.852324 0
M  V30 971 H 86.6359 -0.681687 0.280129 0
M  V30 972 H 89.2779 -1.37732 1.30881 0
M  V30 973 H 87.4279 -3.80373 0.790469 0
M  V30 974 H 89.0999 -3.19434 3.32806 0
M  V30 975 H 87.3429 -2.95345 3.17732 0
M  V30 976 H 88.0139 -4.58403 3.07523 0
M  V30 977 H 90.4899 -3.96909 1.24911 0
M  V30 978 H 89.3659 -5.35199 1.21873 0
M  V30 979 H 89.6269 -4.41429 -0.243485 0
M  V30 980 N 88.686 -0.835752 -1.33615 0
M  V30 981 C 89.596 -0.269088 -2.33052 0
M  V30 982 C 90.612 0.603251 -1.63208 0
M  V30 983 O 91.788 0.508112 -1.94885 0
M  V30 984 C 88.853 0.549091 -3.42324 0
M  V30 985 C 87.914 -0.347156 -4.27894 0
M  V30 986 C 87.147 0.43207 -5.31948 0
M  V30 987 O 87.37 1.66409 -5.45586 0
M  V30 988 O 86.304 -0.192298 -6.01593 0
M  V30 989 H 90.13 -1.09243 -2.83372 0
M  V30 990 H 87.715 -0.598198 -1.36901 0
M  V30 991 H 89.597 1.01414 -4.09015 0
M  V30 992 H 88.272 1.34955 -2.94226 0
M  V30 993 H 87.179 -0.859979 -3.64081 0
M  V30 994 H 88.512 -1.1123 -4.79467 0
M  V30 995 N 90.1641 1.46063 -0.591896 0
M  V30 996 C 91.0971 2.27452 0.184617 0
M  V30 997 C 92.0751 1.36188 0.888351 0
M  V30 998 O 93.2591 1.65606 0.90039 0
M  V30 999 C 90.3861 3.14162 1.26571 0
M  V30 1000 C 89.4321 4.21255 0.666814 0
M  V30 1001 S 90.2651 5.33034 -0.513345 0
M  V30 1002 C 91.4211 6.23311 0.56872 0
M  V30 1003 H 91.6541 2.92963 -0.505939 0
M  V30 1004 H 89.1871 1.49676 -0.379014 0
M  V30 1005 H 91.1451 3.6468 1.88463 0
M  V30 1006 H 89.8061 2.47946 1.92826 0
M  V30 1007 H 88.9991 4.81788 1.47974 0
M  V30 1008 H 88.6011 3.73797 0.123359 0
M  V30 1009 H 90.8931 6.61758 1.45198 0
M  V30 1010 H 91.8361 7.081 -7.23824e-05 0
M  V30 1011 H 92.2441 5.57646 0.876996 0
M  V30 1012 N 91.6422 0.330177 1.54103 0
M  V30 1013 C 92.5722 -0.525353 2.27513 0
M  V30 1014 C 93.5532 -1.11383 1.2856 0
M  V30 1015 O 94.7382 -1.13773 1.57383 0
M  V30 1016 C 91.8682 -1.6831 3.03791 0
M  V30 1017 C 90.8222 -1.2236 4.10137 0
M  V30 1018 C 90.1482 -2.46882 4.74293 0
M  V30 1019 C 91.4482 -0.333697 5.21233 0
M  V30 1020 H 93.1422 0.087013 2.99274 0
M  V30 1021 H 90.6882 0.0432893 1.43935 0
M  V30 1022 H 92.6412 -2.28795 3.5388 0
M  V30 1023 H 91.3652 -2.32216 2.29659 0
M  V30 1024 H 90.0242 -0.64165 3.60941 0
M  V30 1025 H 89.6722 -3.09165 3.96769 0
M  V30 1026 H 89.3722 -2.16825 5.46133 0
M  V30 1027 H 90.8962 -3.08117 5.27159 0
M  V30 1028 H 92.3102 -0.845013 5.67038 0
M  V30 1029 H 90.7072 -0.125612 5.99969 0
M  V30 1030 H 91.7772 0.633724 4.80741 0
M  V30 1031 N 93.1203 -1.57491 0.0584922 0
M  V30 1032 C 94.3453 -1.97711 -0.62652 0
M  V30 1033 C 94.7703 -0.936132 -1.63151 0
M  V30 1034 O 94.1283 0.099811 -1.81025 0
M  V30 1035 C 94.1763 -3.36989 -1.28338 0
M  V30 1036 O 93.2803 -3.35433 -2.39913 0
M  V30 1037 H 92.6213 -0.643868 -0.162266 0
M  V30 1038 H 95.1513 -2.04193 0.129064 0
M  V30 1039 H 95.1613 -3.73879 -1.63335 0
M  V30 1040 H 93.8363 -4.12289 -0.546889 0
M  V30 1041 H 92.4133 -3.10298 -2.06809 0
M  V30 1042 N 94.5984 0.214957 -1.56127 0
M  V30 1043 C 96.0144 0.564948 -1.49267 0
M  V30 1044 C 96.2144 1.86827 -0.754838 0
M  V30 1045 O 95.2704 2.50745 -0.297198 0
M  V30 1046 C 96.5834 0.638071 -2.93852 0
M  V30 1047 C 98.1314 0.728253 -3.0441 0
M  V30 1048 C 98.6064 0.832663 -4.50367 0
M  V30 1049 N 100.097 0.896712 -4.54437 0
M  V30 1050 C 100.832 0.997324 -5.6466 0
M  V30 1051 N 100.328 1.06147 -6.8462 0
M  V30 1052 N 102.121 1.03297 -5.52527 0
M  V30 1053 H 94.2724 -0.640211 -2.02522 0
M  V30 1054 H 96.5354 -0.225507 -0.920788 0
M  V30 1055 H 96.2414 -0.250126 -3.50809 0
M  V30 1056 H 96.1154 1.49947 -3.46115 0
M  V30 1057 H 98.5024 1.60689 -2.47514 0
M  V30 1058 H 98.5834 -0.158952 -2.55306 0
M  V30 1059 H 98.2274 -0.0415417 -5.07883 0
M  V30 1060 H 98.1574 1.73538 -4.97184 0
M  V30 1061 H 100.648 0.857188 -3.6805 0
M  V30 1062 H 100.961 1.1382 -7.64372 0
M  V30 1063 H 99.3064 1.03049 -6.87318 0
M  V30 1064 H 102.497 0.979558 -4.57736 0
M  V30 1065 H 102.67 1.10793 -6.38458 0
M  V30 1066 N 96.0765 1.50051 0.48192 0
M  V30 1067 C 97.3065 1.63999 1.2565 0
M  V30 1068 C 97.7145 0.318288 1.86504 0
M  V30 1069 O 97.0575 -0.708534 1.69486 0
M  V30 1070 C 97.1195 2.66504 2.4128 0
M  V30 1071 C 96.7835 4.10352 2.01148 0
M  V30 1072 C 97.7805 4.96562 1.54021 0
M  V30 1073 C 95.4655 4.56203 2.10199 0
M  V30 1074 C 97.4595 6.26668 1.16473 0
M  V30 1075 C 95.1465 5.86318 1.72264 0
M  V30 1076 C 96.1445 6.71375 1.25477 0
M  V30 1077 O 95.8325 7.99062 0.880626 0
M  V30 1078 H 95.5645 0.55456 0.386574 0
M  V30 1079 H 98.1185 1.96954 0.582944 0
M  V30 1080 H 96.3485 2.28769 3.11772 0
M  V30 1081 H 98.0375 2.69783 3.03268 0
M  V30 1082 H 98.8035 4.62358 1.46458 0
M  V30 1083 H 94.6825 3.90152 2.45566 0
M  V30 1084 H 98.2265 6.93011 0.798841 0
M  V30 1085 H 94.1235 6.20046 1.79482 0
M  V30 1086 H 94.8915 8.12239 1.01043 0
M  V30 1087 N 97.5546 -0.734337 1.39446 0
M  V30 1088 C 98.5176 -1.83004 1.37994 0
M  V30 1089 C 99.5176 -1.58397 0.276938 0
M  V30 1090 O 100.708 -1.65785 0.534875 0
M  V30 1091 C 97.8396 -3.20802 1.1532 0
M  V30 1092 H 99.0326 -1.85694 2.35494 0
M  V30 1093 H 96.5856 -0.938059 1.25021 0
M  V30 1094 H 97.3206 -3.23772 0.185036 0
M  V30 1095 H 97.1056 -3.4006 1.95197 0
M  V30 1096 H 98.5956 -4.00862 1.17046 0
M  V30 1097 N 99.0327 -1.24633 -0.964593 0
M  V30 1098 C 100.449 -1.01239 -1.2338 0
M  V30 1099 C 100.649 0.2769 -1.99588 0
M  V30 1100 O 99.7047 0.992241 -2.32187 0
M  V30 1101 C 101.018 -2.22937 -2.01791 0
M  V30 1102 C 102.566 -2.27594 -2.14872 0
M  V30 1103 C 103.041 -3.48921 -2.96678 0
M  V30 1104 N 104.532 -3.49257 -3.04259 0
M  V30 1105 C 105.267 -4.39795 -3.67924 0
M  V30 1106 N 104.763 -5.40591 -4.33281 0
M  V30 1107 N 106.556 -4.275 -3.64966 0
M  V30 1108 H 98.7067 -2.0748 -0.454502 0
M  V30 1109 H 100.97 -0.910647 -0.26349 0
M  V30 1110 H 100.676 -3.16587 -1.53184 0
M  V30 1111 H 100.55 -2.25306 -3.02518 0
M  V30 1112 H 102.937 -1.34473 -2.6268 0
M  V30 1113 H 103.018 -2.2925 -1.13482 0
M  V30 1114 H 102.662 -4.42359 -2.49562 0
M  V30 1115 H 102.592 -3.4451 -3.98272 0
M  V30 1116 H 105.083 -2.76337 -2.57771 0
M  V30 1117 H 105.396 -6.05904 -4.79687 0
M  V30 1118 H 103.741 -5.44475 -4.3194 0
M  V30 1119 H 106.932 -3.47987 -3.13086 0
M  V30 1120 H 107.105 -4.98258 -4.14298 0
M  V30 1121 N 100.511 1.16574 -1.06058 0
M  V30 1122 C 101.739 1.90952 -0.796552 0
M  V30 1123 C 102.154 1.77302 0.648808 0
M  V30 1124 O 101.511 1.11605 1.44397 0
M  V30 1125 C 101.562 3.41736 -1.17894 0
M  V30 1126 O 101.283 3.54975 -2.56758 0
M  V30 1127 C 102.784 4.33169 -0.942308 0
M  V30 1128 H 100.004 0.605594 -0.288959 0
M  V30 1129 H 102.548 1.47777 -1.41358 0
M  V30 1130 H 100.703 3.82623 -0.606491 0
M  V30 1131 H 101.117 4.4846 -2.72 0
M  V30 1132 H 102.591 5.37439 -1.25952 0
M  V30 1133 H 103.068 4.3903 0.122078 0
M  V30 1134 H 103.674 3.98007 -1.49902 0
M  V30 1135 N 101.989 0.842826 1.3317 0
M  V30 1136 C 103.235 0.441099 1.97945 0
M  V30 1137 C 103.568 -0.998024 1.66593 0
M  V30 1138 O 102.843 -1.69839 0.947898 0
M  V30 1139 C 103.126 0.666841 3.53872 0
M  V30 1140 C 102.979 2.15352 3.94897 0
M  V30 1141 C 104.298 0.115544 4.39948 0
M  V30 1142 H 101.417 0.161739 0.719034 0
M  V30 1143 H 104.059 1.05907 1.57746 0
M  V30 1144 H 102.209 0.140828 3.88245 0
M  V30 1145 H 103.881 2.7447 3.70761 0
M  V30 1146 H 102.124 2.63653 3.44484 0
M  V30 1147 H 102.795 2.26221 5.03516 0
M  V30 1148 H 105.271 0.565213 4.12243 0
M  V30 1149 H 104.147 0.303152 5.48062 0
M  V30 1150 H 104.408 -0.980935 4.3108 0
M  V30 1151 N 103.467 -1.45747 0.599634 0
M  V30 1152 C 104.713 -2.02592 0.0918643 0
M  V30 1153 C 105.046 -1.46806 -1.27128 0
M  V30 1154 O 104.321 -0.639658 -1.83681 0
M  V30 1155 C 104.604 -3.60073 0.0443398 0
M  V30 1156 C 104.457 -4.26208 1.43759 0
M  V30 1157 C 105.776 -4.35309 -0.647608 0
M  V30 1158 H 102.895 -0.736175 0.034857 0
M  V30 1159 H 105.537 -1.73694 0.770081 0
M  V30 1160 H 103.687 -3.84823 -0.533224 0
M  V30 1161 H 105.359 -4.12668 2.06162 0
M  V30 1162 H 103.602 -3.84916 2.00056 0
M  V30 1163 H 104.273 -5.35069 1.35665 0
M  V30 1164 H 106.749 -4.15805 -0.156776 0
M  V30 1165 H 105.625 -5.45038 -0.649942 0
M  V30 1166 H 105.886 -4.07598 -1.71219 0
M  V30 1167 N 104.945 -0.338344 -1.53925 0
M  V30 1168 C 105.875 0.51328 -2.27789 0
M  V30 1169 C 106.856 1.107 -1.29149 0
M  V30 1170 O 108.041 1.12937 -1.57984 0
M  V30 1171 C 105.171 1.66697 -3.04679 0
M  V30 1172 C 104.125 1.20183 -4.1078 0
M  V30 1173 C 103.451 2.44363 -4.75595 0
M  V30 1174 C 104.751 0.30605 -5.21403 0
M  V30 1175 H 106.445 -0.102883 -2.99223 0
M  V30 1176 H 103.991 -0.0509219 -1.4391 0
M  V30 1177 H 105.944 2.26915 -3.55088 0
M  V30 1178 H 104.668 2.30995 -2.30887 0
M  V30 1179 H 103.327 0.622499 -3.61276 0
M  V30 1180 H 102.975 3.07057 -3.98403 0
M  V30 1181 H 102.675 2.13925 -5.47275 0
M  V30 1182 H 104.199 3.05317 -5.28786 0
M  V30 1183 H 105.613 0.814929 -5.67478 0
M  V30 1184 H 104.01 0.0937929 -6.00027 0
M  V30 1185 H 105.08 -0.65921 -4.80398 0
M  V30 1186 N 106.423 1.57458 -0.0668435 0
M  V30 1187 C 107.7 1.8469 0.644132 0
M  V30 1188 C 108.08 0.958343 1.88093 0
M  V30 1189 O 107.428 0.0233579 2.28488 0
M  V30 1190 C 107.638 3.34767 0.986509 0
M  V30 1191 C 108.986 4.02159 1.36212 0
M  V30 1192 O 110.01 3.39484 1.07839 0
M  V30 1193 O 108.869 5.12694 1.89227 0
M  V30 1194 H 105.963 0.762816 0.319437 0
M  V30 1195 H 108.509 1.6942 -0.0973986 0
M  V30 1196 H 107.281 3.91151 0.107883 0
M  V30 1197 H 106.904 3.55281 1.78497 0
M  V30 1198 N 107.901 -0.206675 1.56239 0
M  V30 1199 C 109.148 -0.928842 1.79941 0
M  V30 1200 C 109.476 -1.83734 0.638131 0
M  V30 1201 O 108.731 -1.92039 -0.376746 0
M  V30 1202 C 109.03 -1.78675 3.09532 0
M  V30 1203 C 108.696 -1.03022 4.38973 0
M  V30 1204 C 107.358 -0.821302 4.74139 0
M  V30 1205 C 109.71 -0.497081 5.18824 0
M  V30 1206 C 107.038 -0.0675719 5.86661 0
M  V30 1207 C 109.39 0.24338 6.32132 0
M  V30 1208 C 108.054 0.463422 6.65889 0
M  V30 1209 H 107.324 -0.339887 0.658451 0
M  V30 1210 H 109.971 -0.195977 1.90495 0
M  V30 1211 H 108.276 -2.58794 2.94165 0
M  V30 1212 H 109.973 -2.34792 3.25075 0
M  V30 1213 H 106.563 -1.20306 4.11369 0
M  V30 1214 H 110.747 -0.645921 4.92079 0
M  V30 1215 H 106.003 0.112995 6.11296 0
M  V30 1216 H 110.177 0.66393 6.93228 0
M  V30 1217 H 107.804 1.04938 7.52922 0
M  V30 1218 N 109.379 -1.50304 -0.473955 0
M  V30 1219 C 110.626 -1.6115 -1.22625 0
M  V30 1220 C 110.954 -0.310517 -1.92005 0
M  V30 1221 O 110.209 0.703419 -1.82621 0
M  V30 1222 C 110.508 -2.73938 -2.29549 0
M  V30 1223 C 110.174 -4.14519 -1.7744 0
M  V30 1224 C 108.836 -4.5277 -1.62949 0
M  V30 1225 C 111.188 -5.02392 -1.3875 0
M  V30 1226 C 108.516 -5.76639 -1.08187 0
M  V30 1227 C 110.868 -6.26805 -0.854309 0
M  V30 1228 C 109.532 -6.63861 -0.696011 0
M  V30 1229 H 108.802 -0.589691 -0.448715 0
M  V30 1230 H 111.449 -1.84228 -0.522705 0
M  V30 1231 H 109.754 -2.44937 -3.05799 0
M  V30 1232 H 111.451 -2.79534 -2.87509 0
M  V30 1233 H 108.041 -3.8434 -1.89685 0
M  V30 1234 H 112.225 -4.73474 -1.4878 0
M  V30 1235 H 107.481 -6.04027 -0.946666 0
M  V30 1236 H 111.655 -6.94258 -0.545843 0
M  V30 1237 H 109.282 -7.59722 -0.26952 0
M  V30 1238 N 110.857 0.726932 -1.39834 0
M  V30 1239 C 112.273 1.03354 -1.21615 0
M  V30 1240 C 112.473 2.01327 -0.08338 0
M  V30 1241 O 111.529 2.46158 0.56238 0
M  V30 1242 C 112.842 1.58811 -2.55342 0
M  V30 1243 C 114.39 1.70851 -2.62257 0
M  V30 1244 C 114.865 2.29716 -3.96225 0
M  V30 1245 N 116.356 2.37116 -3.97907 0
M  V30 1246 C 117.091 2.83619 -4.98345 0
M  V30 1247 N 116.587 3.29958 -6.09179 0
M  V30 1248 N 118.38 2.82901 -4.8572 0
M  V30 1249 H 110.531 0.0773069 -2.12259 0
M  V30 1250 H 112.794 0.0969102 -0.943034 0
M  V30 1251 H 112.5 0.942855 -3.38826 0
M  V30 1252 H 112.374 2.57502 -2.75632 0
M  V30 1253 H 114.761 2.34497 -1.79152 0
M  V30 1254 H 114.842 0.707913 -2.45809 0
M  V30 1255 H 114.486 1.66696 -4.79765 0
M  V30 1256 H 114.416 3.30469 -4.09997 0
M  V30 1257 H 116.907 2.04374 -3.17868 0
M  V30 1258 H 117.22 3.63976 -6.8172 0
M  V30 1259 H 115.565 3.27946 -6.12761 0
M  V30 1260 H 118.756 2.46027 -3.98231 0
M  V30 1261 H 118.929 3.18827 -5.6414 0
M  V30 1262 N 112.336 1.25143 0.95797 0
M  V30 1263 C 113.585 1.0909 1.69654 0
M  V30 1264 C 113.898 -0.368548 1.92097 0
M  V30 1265 O 115.104 -0.649455 2.63618 0
M  V30 1266 C 113.56 1.90395 3.05414 0
M  V30 1267 C 113.168 3.4081 2.90779 0
M  V30 1268 C 114.912 1.82901 3.83076 0
M  V30 1269 C 112.819 4.14423 4.21909 0
M  V30 1270 H 111.749 0.404625 0.636235 0
M  V30 1271 H 114.4 1.4931 1.06672 0
M  V30 1272 H 112.782 1.42996 3.69281 0
M  V30 1273 H 113.956 3.95859 2.35865 0
M  V30 1274 H 112.271 3.49361 2.26575 0
M  V30 1275 H 114.868 2.35196 4.80195 0
M  V30 1276 H 115.211 0.796224 4.08615 0
M  V30 1277 H 115.744 2.28033 3.25954 0
M  V30 1278 H 112.483 5.18102 4.01561 0
M  V30 1279 H 112.003 3.64159 4.76601 0
M  V30 1280 H 113.682 4.21956 4.90471 0
M  V30 1281 N 113.814 -1.1601 1.06675 0
M  V30 1282 C 114.761 -2.20525 0.680967 0
M  V30 1283 C 115.731 -1.62904 -0.324283 0
M  V30 1284 O 116.916 -1.89615 -0.212294 0
M  V30 1285 C 114.056 -3.45013 0.0776551 0
M  V30 1286 C 113.169 -4.16863 1.13355 0
M  V30 1287 C 112.304 -5.2888 0.49597 0
M  V30 1288 C 111.343 -5.92537 1.53513 0
M  V30 1289 N 110.48 -6.96038 0.920631 0
M  V30 1290 H 115.32 -2.52876 1.57663 0
M  V30 1291 H 112.857 -1.24199 0.788223 0
M  V30 1292 H 114.815 -4.16193 -0.289704 0
M  V30 1293 H 113.445 -3.132 -0.781393 0
M  V30 1294 H 112.497 -3.44248 1.61857 0
M  V30 1295 H 113.809 -4.60294 1.92174 0
M  V30 1296 H 112.963 -6.06653 0.0758604 0
M  V30 1297 H 111.702 -4.86622 -0.324062 0
M  V30 1298 H 110.707 -5.13482 1.9651 0
M  V30 1299 H 111.932 -6.36873 2.35733 0
M  V30 1300 H 109.878 -6.55888 0.12138 0
M  V30 1301 H 109.795 -7.3786 1.64616 0
M  V30 1302 H 111.063 -7.77725 0.525795 0
M  V30 1303 N 115.292 -0.849877 -1.32721 0
M  V30 1304 C 116.569 -0.372405 -1.92022 0
M  V30 1305 C 116.949 1.1435 -1.77447 0
M  V30 1306 O 116.297 1.96296 -1.16962 0
M  V30 1307 C 116.507 -0.831482 -3.3895 0
M  V30 1308 C 117.855 -0.845882 -4.16089 0
M  V30 1309 O 118.879 -0.775806 -3.47649 0
M  V30 1310 O 117.738 -0.943753 -5.38289 0
M  V30 1311 H 114.832 -0.107667 -0.819961 0
M  V30 1312 H 117.378 -0.93646 -1.41522 0
M  V30 1313 H 116.15 -1.87448 -3.4348 0
M  V30 1314 H 115.773 -0.24461 -3.96847 0
M  V30 1315 N 116.77 1.45427 -0.607355 0
M  V30 1316 C 117.7 2.3329 0.0989352 0
M  V30 1317 C 118.681 1.46816 0.859007 0
M  V30 1318 O 119.866 1.75588 0.829604 0
M  V30 1319 C 116.996 3.29518 1.09705 0
M  V30 1320 C 115.95 4.25626 0.450206 0
M  V30 1321 C 115.276 5.11542 1.55655 0
M  V30 1322 C 116.576 5.18505 -0.628455 0
M  V30 1323 H 118.27 2.92595 -0.634716 0
M  V30 1324 H 115.816 1.40696 -0.306681 0
M  V30 1325 H 117.769 3.89855 1.59971 0
M  V30 1326 H 116.493 2.68372 1.86129 0
M  V30 1327 H 115.152 3.66586 -0.0315886 0
M  V30 1328 H 114.8 4.46765 2.31107 0
M  V30 1329 H 114.5 5.76647 1.12925 0
M  V30 1330 H 116.024 5.74748 2.06148 0
M  V30 1331 H 117.438 5.72916 -0.209877 0
M  V30 1332 H 115.835 5.92085 -0.977489 0
M  V30 1333 H 116.905 4.60948 -1.50514 0
M  V30 1334 N 118.248 0.346503 1.53744 0
M  V30 1335 C 119.476 -0.25041 2.05379 0
M  V30 1336 C 119.891 -1.43979 1.22129 0
M  V30 1337 O 119.248 -1.80677 0.257321 0
M  V30 1338 C 119.299 -0.662575 3.55376 0
M  V30 1339 O 119.02 0.479515 4.35468 0
M  V30 1340 C 120.521 -1.31989 4.23195 0
M  V30 1341 H 117.741 -0.0478198 0.669294 0
M  V30 1342 H 120.285 0.499346 1.9831 0
M  V30 1343 H 118.44 -1.36227 3.62658 0
M  V30 1344 H 118.854 0.15037 5.24284 0
M  V30 1345 H 120.328 -1.55902 5.29527 0
M  V30 1346 H 120.805 -2.27436 3.75725 0
M  V30 1347 H 121.411 -0.662154 4.20114 0
M  V30 1348 N 119.726 -1.57421 0.075193 0
M  V30 1349 C 121.137 -1.81021 -0.456964 0
M  V30 1350 C 121.488 -0.98936 -1.69429 0
M  V30 1351 O 120.613 -0.212865 -2.15351 0
M  V30 1352 C 121.208 -3.28329 -0.83581 0
M  V30 1353 C 119.767 -3.52764 -1.31281 0
M  V30 1354 C 118.914 -2.75676 -0.299648 0
M  V30 1355 H 121.865 -1.55822 0.300856 0
M  V30 1356 H 121.886 -3.40564 -1.69696 0
M  V30 1357 H 121.398 -3.88046 0.0649238 0
M  V30 1358 H 119.499 -2.98355 -2.23193 0
M  V30 1359 H 119.612 -4.61451 -1.28839 0
M  V30 1360 H 117.976 -2.42538 -0.777641 0
M  V30 1361 H 118.759 -3.38132 0.593417 0
M  V30 1362 N 121.204 0.198386 -1.56346 0
M  V30 1363 C 122.114 1.2664 -1.97483 0
M  V30 1364 C 123.13 1.49989 -0.882002 0
M  V30 1365 O 124.306 1.62668 -1.18748 0
M  V30 1366 C 121.371 2.59141 -2.30319 0
M  V30 1367 C 120.432 2.43892 -3.53292 0
M  V30 1368 C 119.665 3.70074 -3.84553 0
M  V30 1369 O 119.888 4.74101 -3.1715 0
M  V30 1370 O 118.822 3.658 -4.7799 0
M  V30 1371 H 122.648 0.947304 -2.88548 0
M  V30 1372 H 120.233 0.403123 -1.43859 0
M  V30 1373 H 122.115 3.37352 -2.5253 0
M  V30 1374 H 120.79 2.90684 -1.42423 0
M  V30 1375 H 119.697 1.63803 -3.36332 0
M  V30 1376 H 121.03 2.17282 -4.41644 0
M  V30 1377 N 122.682 1.50554 0.465978 0
M  V30 1378 C 123.93 1.61479 1.21528 0
M  V30 1379 C 124.251 0.319596 1.92363 0
M  V30 1380 O 123.521 -0.663194 1.84333 0
M  V30 1381 H 122.101 0.595055 0.451573 0
M  V30 1382 H 124.763 1.87355 0.53704 0
M  V30 1383 H 123.859 2.42846 1.96042 0
M  V30 1384 N 124.16 -0.719506 1.40217 0
M  V30 1385 C 125.407 -1.47933 1.38283 0
M  V30 1386 C 125.735 -1.94493 -0.0161536 0
M  V30 1387 O 124.99 -1.68224 -0.999956 0
M  V30 1388 C 125.289 -2.72271 2.31524 0
M  V30 1389 C 124.955 -2.44496 3.78857 0
M  V30 1390 C 123.617 -2.36631 4.18998 0
M  V30 1391 C 125.969 -2.21104 4.71977 0
M  V30 1392 C 123.297 -2.03437 5.503 0
M  V30 1393 C 125.649 -1.89423 6.03574 0
M  V30 1394 C 124.313 -1.80038 6.42762 0
M  V30 1395 H 123.583 -0.541325 0.506012 0
M  V30 1396 H 126.23 -0.824502 1.72842 0
M  V30 1397 H 124.535 -3.42572 1.90137 0
M  V30 1398 H 126.232 -3.30348 2.27313 0
M  V30 1399 H 122.822 -2.51503 3.47051 0
M  V30 1400 H 127.006 -2.26139 4.41786 0
M  V30 1401 H 122.262 -1.94705 5.79569 0
M  V30 1402 H 126.436 -1.70336 6.75247 0
M  V30 1403 H 124.063 -1.54083 7.44421 0
M  V30 1404 N 125.638 -1.25649 -0.95132 0
M  V30 1405 C 126.884 -1.10757 -1.69884 0
M  V30 1406 C 127.217 0.350061 -1.91019 0
M  V30 1407 O 126.492 1.25783 -1.48354 0
M  V30 1408 C 126.775 -1.86606 -3.07978 0
M  V30 1409 C 126.628 -3.40217 -2.94232 0
M  V30 1410 C 127.947 -1.65182 -4.07925 0
M  V30 1411 H 125.066 -0.40374 -0.616574 0
M  V30 1412 H 127.708 -1.54521 -1.10558 0
M  V30 1413 H 125.858 -1.49409 -3.58621 0
M  V30 1414 H 127.53 -3.87108 -2.50889 0
M  V30 1415 H 125.773 -3.67759 -2.30078 0
M  V30 1416 H 126.444 -3.88505 -3.92133 0
M  V30 1417 H 128.92 -1.9757 -3.66204 0
M  V30 1418 H 127.796 -2.20683 -5.02583 0
M  V30 1419 H 128.057 -0.593933 -4.38092 0
M  V30 1420 N 127.117 1.15442 -1.07289 0
M  V30 1421 C 128.027 2.23786 -0.704057 0
M  V30 1422 C 129.043 1.7166 0.284413 0
M  V30 1423 O 130.219 2.00972 0.131205 0
M  V30 1424 C 127.284 3.46535 -0.106792 0
M  V30 1425 C 126.345 4.13654 -1.14842 0
M  V30 1426 C 125.578 5.30544 -0.57956 0
M  V30 1427 O 125.801 5.67187 0.604585 0
M  V30 1428 O 124.735 5.87154 -1.32414 0
M  V30 1429 H 128.561 2.57664 -1.60757 0
M  V30 1430 H 126.146 1.23152 -0.845803 0
M  V30 1431 H 128.028 4.20804 0.224048 0
M  V30 1432 H 126.703 3.14407 0.770049 0
M  V30 1433 H 125.61 3.4131 -1.5316 0
M  V30 1434 H 126.943 4.49861 -1.99714 0
M  V30 1435 N 128.595 0.856903 1.32268 0
M  V30 1436 C 130.011 0.547061 1.49931 0
M  V30 1437 C 130.211 -0.921781 1.7918 0
M  V30 1438 O 129.267 -1.70469 1.8627 0
M  V30 1439 C 130.58 1.43599 2.64196 0
M  V30 1440 C 132.128 1.43665 2.78081 0
M  V30 1441 C 132.603 2.31085 3.95428 0
M  V30 1442 N 134.094 2.28893 4.02694 0
M  V30 1443 C 134.829 2.93262 4.92732 0
M  V30 1444 N 134.325 3.66751 5.87763 0
M  V30 1445 N 136.118 2.82638 4.85873 0
M  V30 1446 H 128.269 1.8075 1.11549 0
M  V30 1447 H 130.532 0.772144 0.549997 0
M  V30 1448 H 130.238 2.48058 2.49319 0
M  V30 1449 H 130.112 1.12502 3.60032 0
M  V30 1450 H 132.499 0.399701 2.92381 0
M  V30 1451 H 132.58 1.7878 1.82952 0
M  V30 1452 H 132.224 3.34849 3.81888 0
M  V30 1453 H 132.154 1.93302 4.89839 0
M  V30 1454 H 134.645 1.75466 3.34694 0
M  V30 1455 H 134.958 4.13027 6.53168 0
M  V30 1456 H 133.303 3.70859 5.87783 0
M  V30 1457 H 136.494 2.24774 4.10602 0
M  V30 1458 H 136.667 3.33084 5.55841 0
M  V30 1459 N 130.073 -1.45103 0.615059 0
M  V30 1460 C 131.303 -2.06254 0.119596 0
M  V30 1461 C 131.711 -1.4591 -1.20445 0
M  V30 1462 O 131.054 -0.570384 -1.7462 0
M  V30 1463 C 131.116 -3.59396 -0.0865591 0
M  V30 1464 C 130.78 -4.42116 1.15683 0
M  V30 1465 C 131.777 -4.7662 2.07676 0
M  V30 1466 C 129.462 -4.82749 1.38775 0
M  V30 1467 C 131.456 -5.50622 3.21082 0
M  V30 1468 C 129.143 -5.56504 2.52481 0
M  V30 1469 C 130.141 -5.90358 3.43463 0
M  V30 1470 O 129.829 -6.62615 4.55189 0
M  V30 1471 H 129.561 -0.672423 0.0694512 0
M  V30 1472 H 132.115 -1.87219 0.844885 0
M  V30 1473 H 130.345 -3.76859 -0.866823 0
M  V30 1474 H 132.034 -4.02365 -0.534555 0
M  V30 1475 H 132.8 -4.4578 1.91063 0
M  V30 1476 H 128.679 -4.55829 0.688545 0
M  V30 1477 H 132.223 -5.76965 3.92119 0
M  V30 1478 H 128.12 -5.86759 2.69043 0
M  V30 1479 H 128.888 -6.81071 4.53966 0
M  V30 1480 N 131.551 -0.354651 -1.53558 0
M  V30 1481 C 132.481 0.489091 -2.2832 0
M  V30 1482 C 133.462 1.09324 -1.30316 0
M  V30 1483 O 134.647 1.11255 -1.59173 0
M  V30 1484 C 131.777 1.63456 -3.0643 0
M  V30 1485 C 130.731 1.1582 -4.12031 0
M  V30 1486 C 130.057 2.39305 -4.7816 0
M  V30 1487 C 131.357 0.250731 -5.21698 0
M  V30 1488 H 133.051 -0.134614 -2.99097 0
M  V30 1489 H 130.597 -0.0661826 -1.43848 0
M  V30 1490 H 132.55 2.23136 -3.57475 0
M  V30 1491 H 131.274 2.28533 -2.33325 0
M  V30 1492 H 129.933 0.584146 -3.61916 0
M  V30 1493 H 129.581 3.02814 -4.01637 0
M  V30 1494 H 129.281 2.08109 -5.49513 0
M  V30 1495 H 130.805 2.99691 -5.31994 0
M  V30 1496 H 132.219 0.754695 -5.68311 0
M  V30 1497 H 130.616 0.0301468 -6.00092 0
M  V30 1498 H 131.686 -0.710125 -4.79672 0
M  V30 1499 N 133.029 1.57378 -0.0835403 0
M  V30 1500 C 134.254 1.98682 0.594987 0
M  V30 1501 C 134.679 0.961969 1.61641 0
M  V30 1502 O 134.037 -0.0709989 1.81161 0
M  V30 1503 C 134.085 3.38988 1.2296 0
M  V30 1504 O 133.189 3.39208 2.34546 0
M  V30 1505 H 132.53 0.646368 0.152002 0
M  V30 1506 H 135.06 2.03961 -0.161533 0
M  V30 1507 H 135.07 3.76431 1.57366 0
M  V30 1508 H 133.745 4.13107 0.481228 0
M  V30 1509 H 132.322 3.13548 2.01846 0
M  V30 1510 N 134.507 -0.190092 1.56449 0
M  V30 1511 C 135.755 -0.907908 1.80559 0
M  V30 1512 C 136.076 -1.83583 0.657438 0
M  V30 1513 O 135.346 -1.93203 -0.323924 0
M  V30 1514 H 133.926 -0.338247 0.666032 0
M  V30 1515 H 136.588 -0.194403 1.93928 0
M  V30 1516 H 135.684 -1.49604 2.73907 0
M  V30 1517 N 135.985 -1.50799 -0.457987 0
M  V30 1518 C 137.231 -1.62683 -1.21088 0
M  V30 1519 C 137.564 -0.332268 -1.91336 0
M  V30 1520 O 136.839 0.667043 -1.82704 0
M  V30 1521 C 137.122 -2.81615 -2.24422 0
M  V30 1522 C 136.975 -4.20989 -1.58392 0
M  V30 1523 C 138.294 -2.96085 -3.2561 0
M  V30 1524 H 135.413 -0.592087 -0.438864 0
M  V30 1525 H 138.055 -1.83225 -0.50286 0
M  V30 1526 H 136.205 -2.64231 -2.84806 0
M  V30 1527 H 137.877 -4.49994 -1.01504 0
M  V30 1528 H 136.12 -4.24641 -0.886704 0
M  V30 1529 H 136.791 -5.0016 -2.33547 0
M  V30 1530 H 139.267 -3.12042 -2.75262 0
M  V30 1531 H 138.143 -3.80902 -3.95228 0
M  V30 1532 H 138.404 -2.0726 -3.90507 0
M  V30 1533 N 137.463 0.71206 -1.40597 0
M  V30 1534 C 138.688 1.50617 -1.42581 0
M  V30 1535 C 139.113 1.88079 -0.0282102 0
M  V30 1536 O 138.471 1.53511 0.964579 0
M  V30 1537 C 138.519 2.7557 -2.3258 0
M  V30 1538 O 137.623 3.72414 -1.77148 0
M  V30 1539 H 136.964 0.453966 -0.484573 0
M  V30 1540 H 139.494 0.876649 -1.84868 0
M  V30 1541 H 139.504 3.2406 -2.47889 0
M  V30 1542 H 138.179 2.47639 -3.34138 0
M  V30 1543 H 136.756 3.31276 -1.71204 0
M  V30 1544 N 138.941 1.26152 0.944643 0
M  V30 1545 C 139.904 1.07474 2.0244 0
M  V30 1546 C 140.904 0.0242064 1.60782 0
M  V30 1547 O 142.094 0.267302 1.72137 0
M  V30 1548 C 139.226 0.633956 3.34953 0
M  V30 1549 H 140.419 2.03336 2.20442 0
M  V30 1550 H 137.972 1.087 1.12312 0
M  V30 1551 H 138.707 -0.326811 3.22649 0
M  V30 1552 H 138.492 1.39247 3.66542 0
M  V30 1553 H 139.982 0.52501 4.14287 0
M  V30 1554 N 140.419 -1.14872 1.07899 0
M  V30 1555 C 141.665 -1.86064 0.806725 0
M  V30 1556 C 141.998 -1.82434 -0.665706 0
M  V30 1557 O 141.273 -1.25138 -1.48899 0
M  V30 1558 C 141.556 -3.34929 1.32267 0
M  V30 1559 C 141.409 -3.47161 2.86006 0
M  V30 1560 C 142.728 -4.29863 0.943717 0
M  V30 1561 H 139.847 -0.675591 0.294526 0
M  V30 1562 H 142.489 -1.34925 1.33773 0
M  V30 1563 H 140.639 -3.78611 0.870974 0
M  V30 1564 H 142.311 -3.12302 3.39507 0
M  V30 1565 H 140.554 -2.88539 3.23925 0
M  V30 1566 H 141.225 -4.51777 3.17177 0
M  V30 1567 H 143.701 -3.9417 1.33302 0
M  V30 1568 H 142.577 -5.32494 1.33198 0
M  V30 1569 H 142.838 -4.41846 -0.149796 0
M  V30 1570 N 141.898 -0.863906 -1.31812 0
M  V30 1571 C 143.144 -0.472535 -1.97218 0
M  V30 1572 C 143.477 0.971394 -1.68159 0
M  V30 1573 O 142.752 1.68309 -0.974798 0
M  V30 1574 C 143.035 -0.723054 -3.52766 0
M  V30 1575 C 142.888 -2.21608 -3.91421 0
M  V30 1576 C 144.207 -0.185522 -4.39709 0
M  V30 1577 H 141.326 -0.173158 -0.71637 0
M  V30 1578 H 143.968 -1.08403 -1.56041 0
M  V30 1579 H 142.118 -0.202577 -3.87971 0
M  V30 1580 H 143.79 -2.80334 -3.66347 0
M  V30 1581 H 142.033 -2.691 -3.40246 0
M  V30 1582 H 142.704 -2.34203 -4.99853 0
M  V30 1583 H 145.18 -0.630726 -4.11292 0
M  V30 1584 H 144.056 -0.390306 -5.47511 0
M  V30 1585 H 144.317 0.912229 -4.32586 0
M  V30 1586 N 143.376 1.44774 -0.622745 0
M  V30 1587 C 144.622 2.0242 -0.124083 0
M  V30 1588 C 144.955 1.4881 1.24777 0
M  V30 1589 O 144.23 0.668799 1.8264 0
M  V30 1590 C 144.513 3.59957 -0.101619 0
M  V30 1591 C 144.366 4.23867 -1.50521 0
M  V30 1592 C 145.685 4.36284 0.578272 0
M  V30 1593 H 142.804 0.735528 -0.0465645 0
M  V30 1594 H 145.446 1.72447 -0.797617 0
M  V30 1595 H 143.596 3.85623 0.471934 0
M  V30 1596 H 145.268 4.09336 -2.12701 0
M  V30 1597 H 143.511 3.81684 -2.06154 0
M  V30 1598 H 144.182 5.32843 -1.4416 0
M  V30 1599 H 146.658 4.16001 0.0906057 0
M  V30 1600 H 145.534 5.46004 0.563149 0
M  V30 1601 H 145.795 4.10271 1.64713 0
M  V30 1602 N 144.854 0.36279 1.53368 0
M  V30 1603 C 146.102 -0.227326 2.00817 0
M  V30 1604 C 146.423 -1.49511 1.25186 0
M  V30 1605 O 145.693 -1.92482 0.364348 0
M  V30 1606 H 144.273 -0.0869923 0.741917 0
M  V30 1607 H 146.935 0.488381 1.88682 0
M  V30 1608 H 146.031 -0.456273 3.08747 0
M  V30 1609 N 146.332 -1.57332 0.0918853 0
M  V30 1610 C 147.748 -1.57389 -0.264766 0
M  V30 1611 C 147.948 -1.10281 -1.68643 0
M  V30 1612 O 147.004 -0.777801 -2.40222 0
M  V30 1613 C 148.317 -3.00648 -0.0561195 0
M  V30 1614 C 149.865 -3.12754 -0.124116 0
M  V30 1615 C 150.34 -4.57965 0.0564972 0
M  V30 1616 N 151.831 -4.632 0.00155611 0
M  V30 1617 C 152.566 -5.73281 0.116598 0
M  V30 1618 N 152.062 -6.92208 0.286294 0
M  V30 1619 N 153.855 -5.6207 0.0580973 0
M  V30 1620 H 146.006 -1.86262 1.02079 0
M  V30 1621 H 148.269 -0.859579 0.399786 0
M  V30 1622 H 147.975 -3.393 0.925669 0
M  V30 1623 H 147.849 -3.68623 -0.799823 0
M  V30 1624 H 150.236 -2.73976 -1.09641 0
M  V30 1625 H 150.317 -2.47377 0.651024 0
M  V30 1626 H 149.961 -4.97436 1.02564 0
M  V30 1627 H 149.891 -5.21399 -0.738297 0
M  V30 1628 H 152.382 -3.77686 -0.127192 0
M  V30 1629 H 152.695 -7.71934 0.365676 0
M  V30 1630 H 151.04 -6.94254 0.32192 0
M  V30 1631 H 154.231 -4.68043 -0.0733204 0
M  V30 1632 H 154.404 -6.47824 0.151203 0
M  V30 1633 N 147.81 0.181792 -1.56548 0
M  V30 1634 C 149.087 0.926765 -1.72251 0
M  V30 1635 C 149.467 2.00831 -0.650386 0
M  V30 1636 O 148.815 2.26008 0.336521 0
M  V30 1637 C 149.025 1.50106 -3.1507 0
M  V30 1638 C 150.373 1.97805 -3.75711 0
M  V30 1639 O 151.397 1.59922 -3.18282 0
M  V30 1640 O 150.256 2.67555 -4.76525 0
M  V30 1641 H 147.35 0.435506 -0.703039 0
M  V30 1642 H 149.896 0.170443 -1.68842 0
M  V30 1643 H 148.668 0.72212 -3.84579 0
M  V30 1644 H 148.291 2.32186 -3.22763 0
M  V30 1645 N 149.288 1.51039 0.449983 0
M  V30 1646 C 150.535 1.63081 1.20045 0
M  V30 1647 C 150.863 0.341024 1.91487 0
M  V30 1648 O 150.118 -0.674276 1.83717 0
M  V30 1649 C 150.417 2.77556 2.25161 0
M  V30 1650 C 150.083 4.17289 1.70823 0
M  V30 1651 C 148.745 4.55305 1.55725 0
M  V30 1652 C 151.097 5.04536 1.3074 0
M  V30 1653 C 148.425 5.78287 0.989999 0
M  V30 1654 C 150.777 6.28085 0.754482 0
M  V30 1655 C 149.441 6.64885 0.590308 0
M  V30 1656 H 148.711 0.596755 0.439277 0
M  V30 1657 H 151.358 1.85037 0.49333 0
M  V30 1658 H 149.663 2.49771 3.01863 0
M  V30 1659 H 151.36 2.84073 2.83026 0
M  V30 1660 H 147.95 3.8731 1.83546 0
M  V30 1661 H 152.134 4.75782 1.41229 0
M  V30 1662 H 147.39 6.05456 0.850451 0
M  V30 1663 H 151.564 6.95038 0.435324 0
M  V30 1664 H 149.191 7.60055 0.14862 0
M  V30 1665 N 150.766 -0.704594 1.40972 0
M  V30 1666 C 152.182 -1.01406 1.23244 0
M  V30 1667 C 152.382 -2.01169 0.115399 0
M  V30 1668 O 151.438 -2.47021 -0.523147 0
M  V30 1669 C 152.751 -1.54728 2.57836 0
M  V30 1670 C 154.299 -1.66658 2.64942 0
M  V30 1671 C 154.774 -2.23383 3.9983 0
M  V30 1672 N 156.265 -2.30756 4.01629 0
M  V30 1673 C 157 -2.75655 5.02794 0
M  V30 1674 N 156.496 -3.20225 6.14352 0
M  V30 1675 N 158.289 -2.75138 4.90159 0
M  V30 1676 H 150.44 -0.0435285 2.12355 0
M  V30 1677 H 152.703 -0.0818951 0.944456 0
M  V30 1678 H 152.409 -0.888832 3.40283 0
M  V30 1679 H 152.283 -2.53084 2.79693 0
M  V30 1680 H 154.67 -2.31617 1.8286 0
M  V30 1681 H 154.751 -0.668717 2.46904 0
M  V30 1682 H 154.395 -1.59043 4.82357 0
M  V30 1683 H 154.325 -3.23904 4.15203 0
M  V30 1684 H 156.816 -1.99291 3.21079 0
M  V30 1685 H 157.129 -3.53084 6.87424 0
M  V30 1686 H 155.474 -3.18156 6.17901 0
M  V30 1687 H 158.665 -2.39661 4.02095 0
M  V30 1688 H 158.838 -3.09812 5.6914 0
M  V30 1689 N 152.244 -1.26651 -0.937939 0
M  V30 1690 C 153.491 -1.12387 -1.6845 0
M  V30 1691 C 153.819 0.332208 -1.91642 0
M  V30 1692 O 153.074 1.2602 -1.49725 0
M  V30 1693 C 153.373 -1.84168 -3.06295 0
M  V30 1694 C 153.039 -3.34056 -3.02849 0
M  V30 1695 C 151.701 -3.74942 -3.01616 0
M  V30 1696 C 154.053 -4.29741 -2.9491 0
M  V30 1697 C 151.381 -5.09894 -2.90215 0
M  V30 1698 C 153.733 -5.64738 -2.8505 0
M  V30 1699 C 152.397 -6.0493 -2.82162 0
M  V30 1700 H 151.667 -0.411252 -0.616403 0
M  V30 1701 H 154.314 -1.57134 -1.09459 0
M  V30 1702 H 152.619 -1.319 -3.6893 0
M  V30 1703 H 154.316 -1.70569 -3.62915 0
M  V30 1704 H 150.906 -3.01534 -3.0459 0
M  V30 1705 H 155.09 -3.99133 -2.94969 0
M  V30 1706 H 150.346 -5.40194 -2.86358 0
M  V30 1707 H 154.52 -6.38561 -2.77872 0
M  V30 1708 H 152.147 -7.09457 -2.73084 0
M  V30 1709 N 153.722 1.14298 -1.08507 0
M  V30 1710 C 154.97 1.84993 -0.813763 0
M  V30 1711 C 155.291 1.83405 0.662393 0
M  V30 1712 O 154.561 1.28319 1.48024 0
M  V30 1713 H 153.141 0.684966 -0.298045 0
M  V30 1714 H 155.803 1.385 -1.37126 0
M  V30 1715 H 154.899 2.89788 -1.15884 0
M  V30 1716 N 155.201 0.870884 1.31352 0
M  V30 1717 C 156.148 0.325425 2.28494 0
M  V30 1718 C 157.118 -0.576615 1.5577 0
M  V30 1719 O 158.303 -0.508059 1.83911 0
M  V30 1720 C 155.443 -0.466283 3.41935 0
M  V30 1721 C 154.556 0.463378 4.29508 0
M  V30 1722 C 153.691 -0.342544 5.30094 0
M  V30 1723 C 152.73 0.583486 6.09313 0
M  V30 1724 N 151.867 -0.186244 7.01853 0
M  V30 1725 H 156.707 1.15901 2.74538 0
M  V30 1726 H 154.244 0.58294 1.35056 0
M  V30 1727 H 156.202 -0.941085 4.06447 0
M  V30 1728 H 154.832 -1.26456 2.97 0
M  V30 1729 H 153.884 1.05663 3.65431 0
M  V30 1730 H 155.196 1.1734 4.84802 0
M  V30 1731 H 154.35 -0.879816 6.00287 0
M  V30 1732 H 153.089 -1.08585 4.75458 0
M  V30 1733 H 152.094 1.13251 5.3801 0
M  V30 1734 H 153.319 1.32566 6.66035 0
M  V30 1735 H 151.265 -0.912348 6.49625 0
M  V30 1736 H 151.182 0.464422 7.54572 0
M  V30 1737 H 152.45 -0.704716 7.76308 0
M  V30 1738 N 156.679 -1.44442 0.630414 0
M  V30 1739 C 157.627 -2.32437 -0.0871428 0
M  V30 1740 C 158.621 -1.47304 -0.836525 0
M  V30 1741 O 159.827 -1.63653 -0.749506 0
M  V30 1742 H 156.202 -0.750533 -0.0469495 0
M  V30 1743 H 158.173 -2.90709 0.673096 0
M  V30 1744 C 156.922 -3.31288 -1.05563 0
M  V30 1745 H 156.245 -3.96805 -0.488426 0
M  V30 1746 H 157.685 -3.9554 -1.52721 0
M  V30 1747 C 156.144 -2.6016 -2.14052 0
M  V30 1748 O 156.674 -2.39997 -3.22124 0
M  V30 1749 N 154.88 -2.19911 -1.89967 0
M  V30 1750 H 154.427 -2.36509 -1.02085 0
M  V30 1751 H 154.385 -1.72646 -2.62756 0
M  V30 1752 N 158.157 -0.370918 -1.53173 0
M  V30 1753 C 159.12 0.460778 -2.24521 0
M  V30 1754 C 160.12 1.00536 -1.25496 0
M  V30 1755 O 161.31 0.890266 -1.49733 0
M  V30 1756 C 158.442 1.64457 -2.98608 0
M  V30 1757 H 159.635 -0.163613 -2.99453 0
M  V30 1758 H 157.188 -0.122699 -1.55818 0
M  V30 1759 H 157.923 2.30691 -2.2793 0
M  V30 1760 H 157.708 1.26099 -3.7127 0
M  V30 1761 H 159.198 2.23384 -3.5283 0
M  V30 1762 N 159.635 1.57281 -0.100228 0
M  V30 1763 C 160.86 1.99302 0.573881 0
M  V30 1764 C 161.285 0.979059 1.60611 0
M  V30 1765 O 160.643 -0.0517803 1.81226 0
M  V30 1766 C 160.691 3.40274 1.19358 0
M  V30 1767 O 159.795 3.41676 2.30935 0
M  V30 1768 H 159.136 0.647944 0.145138 0
M  V30 1769 H 161.666 2.03779 -0.183156 0
M  V30 1770 H 161.676 3.78078 1.53365 0
M  V30 1771 H 160.351 4.13594 0.437385 0
M  V30 1772 H 158.928 3.15672 1.98509 0
M  V30 1773 N 161.113 -0.173488 1.56642 0
M  V30 1774 C 162.361 -0.888706 1.81512 0
M  V30 1775 C 162.682 -1.82875 0.676872 0
M  V30 1776 O 161.952 -1.93536 -0.303414 0
M  V30 1777 H 160.532 -0.331164 0.669582 0
M  V30 1778 H 163.194 -0.173823 1.94123 0
M  V30 1779 H 162.29 -1.46691 2.75478 0
M  V30 1780 N 162.591 -1.51276 -0.441967 0
M  V30 1781 C 163.539 -1.72823 -1.55676 0
M  V30 1782 C 164.533 -0.59445 -1.58627 0
M  V30 1783 O 165.739 -0.775715 -1.62427 0
M  V30 1784 H 162.114 -0.545983 -0.517113 0
M  V30 1785 H 164.085 -2.6628 -1.34675 0
M  V30 1786 C 162.834 -1.86619 -2.93375 0
M  V30 1787 H 162.157 -2.73264 -2.91834 0
M  V30 1788 H 163.597 -2.05709 -3.70756 0
M  V30 1789 C 162.056 -0.624842 -3.31055 0
M  V30 1790 O 162.586 0.222636 -4.01083 0
M  V30 1791 N 160.792 -0.470288 -2.86769 0
M  V30 1792 H 160.339 -1.161 -2.29953 0
M  V30 1793 H 160.297 0.359051 -3.12343 0
M  V30 1794 N 164.069 0.697108 -1.41344 0
M  V30 1795 C 165.032 1.79281 -1.42797 0
M  V30 1796 C 166.032 1.57607 -0.318837 0
M  V30 1797 O 167.222 1.64309 -0.578642 0
M  V30 1798 C 164.354 3.17632 -1.23785 0
M  V30 1799 H 165.547 1.79385 -2.40335 0
M  V30 1800 H 163.1 0.904582 -1.27464 0
M  V30 1801 H 163.835 3.23167 -0.270814 0
M  V30 1802 H 163.62 3.34765 -2.04144 0
M  V30 1803 H 165.11 3.97617 -1.27633 0
M  V30 1804 N 165.547 1.27147 0.931209 0
M  V30 1805 C 166.772 1.16191 1.71797 0
M  V30 1806 C 167.197 -0.278004 1.86034 0
M  V30 1807 O 166.555 -1.20137 1.35782 0
M  V30 1808 C 166.603 1.84673 3.09723 0
M  V30 1809 O 165.707 1.14231 3.96264 0
M  V30 1810 H 165.048 0.404303 0.526721 0
M  V30 1811 H 167.578 1.68152 1.1656 0
M  V30 1812 H 167.588 1.91893 3.60057 0
M  V30 1813 H 166.263 2.89421 2.98677 0
M  V30 1814 H 164.84 1.15056 3.54706 0
M  V30 1815 N 167.025 -1.13721 1.09112 0
M  V30 1816 C 168.272 -1.84924 0.825192 0
M  V30 1817 C 168.6 -1.83347 -0.649151 0
M  V30 1818 O 167.855 -1.26449 -1.49362 0
M  V30 1819 C 168.154 -3.32861 1.30146 0
M  V30 1820 C 167.82 -3.54621 2.78486 0
M  V30 1821 C 166.482 -3.60268 3.18999 0
M  V30 1822 C 168.834 -3.62855 3.74146 0
M  V30 1823 C 166.162 -3.71679 4.53951 0
M  V30 1824 C 168.514 -3.75793 5.08883 0
M  V30 1825 C 167.178 -3.79692 5.4899 0
M  V30 1826 H 166.448 -0.676684 0.301959 0
M  V30 1827 H 169.095 -1.3428 1.36533 0
M  V30 1828 H 167.4 -3.85835 0.681064 0
M  V30 1829 H 169.097 -3.86395 1.07236 0
M  V30 1830 H 165.687 -3.50879 2.46134 0
M  V30 1831 H 169.871 -3.57775 3.43963 0
M  V30 1832 H 165.127 -3.72963 4.84467 0
M  V30 1833 H 169.301 -3.81107 5.82864 0
M  V30 1834 H 166.928 -3.88287 6.53558 0
M  V30 1835 N 168.503 -0.877838 -1.30888 0
M  V30 1836 C 169.433 -0.35534 -2.3078 0
M  V30 1837 C 170.414 0.557994 -1.60687 0
M  V30 1838 O 171.599 0.473355 -1.88343 0
M  V30 1839 C 168.729 0.437221 -3.44537 0
M  V30 1840 C 167.683 -0.383715 -4.26276 0
M  V30 1841 C 167.009 0.535014 -5.32017 0
M  V30 1842 C 168.309 -1.62201 -4.96476 0
M  V30 1843 H 170.003 -1.19007 -2.74732 0
M  V30 1844 H 167.549 -0.573698 -1.32078 0
M  V30 1845 H 169.502 0.813334 -4.13477 0
M  V30 1846 H 168.226 1.30553 -2.99372 0
M  V30 1847 H 166.885 -0.741874 -3.59015 0
M  V30 1848 H 166.533 1.40083 -4.831 0
M  V30 1849 H 166.233 -0.0104211 -5.87599 0
M  V30 1850 H 167.757 0.907799 -6.03814 0
M  V30 1851 H 169.171 -1.31689 -5.5797 0
M  V30 1852 H 167.568 -2.10711 -5.61891 0
M  V30 1853 H 168.638 -2.37044 -4.23011 0
M  V30 1854 N 169.982 1.44106 -0.638065 0
M  V30 1855 C 171.398 1.56672 -0.304286 0
M  V30 1856 C 171.598 1.6244 1.19228 0
M  V30 1857 O 170.654 1.57121 1.9766 0
M  V30 1858 C 171.967 2.83503 -1.00231 0
M  V30 1859 C 173.515 2.97226 -0.981116 0
M  V30 1860 C 173.99 4.26868 -1.65974 0
M  V30 1861 N 175.481 4.33698 -1.62666 0
M  V30 1862 C 176.216 5.32745 -2.12063 0
M  V30 1863 N 175.712 6.38157 -2.6968 0
M  V30 1864 N 177.505 5.24299 -2.02651 0
M  V30 1865 H 169.656 1.38605 -1.60942 0
M  V30 1866 H 171.919 0.664661 -0.675965 0
M  V30 1867 H 171.625 2.85251 -2.0573 0
M  V30 1868 H 171.499 3.73251 -0.54439 0
M  V30 1869 H 173.886 2.95027 0.0654188 0
M  V30 1870 H 173.967 2.08808 -1.47759 0
M  V30 1871 H 173.611 4.29826 -2.70576 0
M  V30 1872 H 173.541 5.14156 -1.13804 0
M  V30 1873 H 176.032 3.58138 -1.20606 0
M  V30 1874 H 176.345 7.10029 -3.05087 0
M  V30 1875 H 174.69 6.38823 -2.73734 0
M  V30 1876 H 177.881 4.4086 -1.57353 0
M  V30 1877 H 178.054 6.01334 -2.41457 0
M  V30 1878 N 171.46 0.379036 1.52974 0
M  V30 1879 C 172.407 -0.461048 2.26148 0
M  V30 1880 C 173.377 -1.06637 1.27349 0
M  V30 1881 O 174.562 -1.09633 1.56157 0
M  V30 1882 C 171.702 -1.58782 3.06402 0
M  V30 1883 C 170.815 -1.00636 4.20115 0
M  V30 1884 C 169.95 -2.10334 4.87784 0
M  V30 1885 C 168.989 -1.49724 5.93506 0
M  V30 1886 N 168.126 -2.5331 6.54812 0
M  V30 1887 H 172.966 0.169429 2.97518 0
M  V30 1888 H 170.503 0.0953806 1.4679 0
M  V30 1889 H 172.461 -2.25174 3.51215 0
M  V30 1890 H 171.091 -2.18876 2.37261 0
M  V30 1891 H 170.143 -0.232332 3.7969 0
M  V30 1892 H 171.455 -0.523343 4.96047 0
M  V30 1893 H 170.609 -2.84519 5.35849 0
M  V30 1894 H 169.348 -2.61992 4.11353 0
M  V30 1895 H 168.353 -0.740598 5.44789 0
M  V30 1896 H 169.578 -0.988732 6.71864 0
M  V30 1897 H 167.524 -3.04156 5.81227 0
M  V30 1898 H 167.441 -2.09734 7.26325 0
M  V30 1899 H 168.709 -3.27155 7.07524 0
M  V30 1900 N 172.938 -1.57226 0.108567 0
M  V30 1901 C 173.885 -2.14756 -0.845481 0
M  V30 1902 C 174.855 -1.06971 -1.27068 0
M  V30 1903 O 176.04 -1.34827 -1.35005 0
M  V30 1904 C 173.18 -2.74298 -2.09415 0
M  V30 1905 C 172.293 -3.96358 -1.71826 0
M  V30 1906 C 171.428 -4.44021 -2.9158 0
M  V30 1907 C 170.467 -5.58637 -2.50181 0
M  V30 1908 N 169.604 -6.01091 -3.62814 0
M  V30 1909 H 174.444 -2.95961 -0.348035 0
M  V30 1910 H 171.981 -1.46226 -0.160106 0
M  V30 1911 H 173.939 -3.06945 -2.82561 0
M  V30 1912 H 172.569 -1.95801 -2.56636 0
M  V30 1913 H 171.621 -3.69939 -0.885947 0
M  V30 1914 H 172.933 -4.79504 -1.37394 0
M  V30 1915 H 172.087 -4.78522 -3.72963 0
M  V30 1916 H 170.826 -3.59803 -3.29231 0
M  V30 1917 H 169.831 -5.23751 -1.67228 0
M  V30 1918 H 171.056 -6.44613 -2.13659 0
M  V30 1919 H 169.002 -5.19817 -4.00158 0
M  V30 1920 H 168.919 -6.79066 -3.32273 0
M  V30 1921 H 170.187 -6.40227 -4.44668 0
M  V30 1922 N 174.416 0.165178 -1.56732 0
M  V30 1923 C 175.664 0.879068 -1.8198 0
M  V30 1924 C 175.985 1.82514 -0.686561 0
M  V30 1925 O 175.255 1.93694 0.293146 0
M  V30 1926 H 173.835 0.327608 -0.671329 0
M  V30 1927 H 176.497 0.163526 -1.94213 0
M  V30 1928 H 175.593 1.45228 -2.76252 0
M  V30 1929 N 175.894 1.51508 0.433938 0
M  V30 1930 C 177.14 1.64588 1.18484 0
M  V30 1931 C 177.473 0.362666 1.90784 0
M  V30 1932 O 176.748 -0.637892 1.83742 0
M  V30 1933 C 177.031 2.85149 2.19913 0
M  V30 1934 C 176.884 4.23456 1.51674 0
M  V30 1935 C 178.203 3.01227 3.20858 0
M  V30 1936 H 175.322 0.598994 0.429389 0
M  V30 1937 H 177.964 1.84002 0.473647 0
M  V30 1938 H 176.114 2.68729 2.80566 0
M  V30 1939 H 177.786 4.51552 0.943322 0
M  V30 1940 H 176.029 4.25998 0.819035 0
M  V30 1941 H 176.7 5.03812 2.2556 0
M  V30 1942 H 179.176 3.16382 2.70263 0
M  V30 1943 H 178.052 3.87141 3.89118 0
M  V30 1944 H 178.313 2.13447 3.8716 0
M  V30 1945 N 177.372 -0.689602 1.41712 0
M  V30 1946 C 178.282 -1.83314 1.46401 0
M  V30 1947 C 179.298 -1.7036 0.35405 0
M  V30 1948 O 180.474 -1.92171 0.602692 0
M  V30 1949 C 177.539 -3.19344 1.34982 0
M  V30 1950 C 176.6 -3.44363 2.56344 0
M  V30 1951 C 175.833 -4.73904 2.45461 0
M  V30 1952 O 176.056 -5.508 1.48241 0
M  V30 1953 O 174.99 -4.99839 3.35328 0
M  V30 1954 H 178.816 -1.82314 2.42889 0
M  V30 1955 H 176.401 -0.843438 1.23315 0
M  V30 1956 H 178.283 -4.00547 1.3092 0
M  V30 1957 H 176.958 -3.21014 0.41612 0
M  V30 1958 H 175.865 -2.63067 2.65982 0
M  V30 1959 H 177.198 -3.47512 3.48563 0
M  V30 1960 N 178.85 -1.27639 -0.924453 0
M  V30 1961 C 180.096 -1.14336 -1.67497 0
M  V30 1962 C 180.429 0.309465 -1.91718 0
M  V30 1963 O 179.704 1.22608 -1.50989 0
M  V30 1964 C 179.987 -1.93096 -3.0395 0
M  V30 1965 C 179.84 -3.46381 -2.8695 0
M  V30 1966 C 181.159 -1.73798 -4.0433 0
M  V30 1967 H 178.278 -0.416728 -0.607871 0
M  V30 1968 H 180.92 -1.56832 -1.07256 0
M  V30 1969 H 179.07 -1.56982 -3.55372 0
M  V30 1970 H 180.742 -3.92343 -2.42621 0
M  V30 1971 H 178.985 -3.72557 -2.22225 0
M  V30 1972 H 179.656 -3.96735 -3.83804 0
M  V30 1973 H 182.132 -2.05293 -3.61931 0
M  V30 1974 H 181.008 -2.31294 -4.97789 0
M  V30 1975 H 181.269 -0.686725 -4.36734 0
M  V30 1976 N 180.328 1.1314 -1.09713 0
M  V30 1977 C 181.558 1.88048 -0.855656 0
M  V30 1978 C 181.966 1.79537 0.596919 0
M  V30 1979 O 181.309 1.16196 1.42282 0
M  V30 1980 C 181.371 3.38314 -1.21589 0
M  V30 1981 C 181.035 3.70605 -2.67397 0
M  V30 1982 C 182.032 3.69596 -3.65643 0
M  V30 1983 C 179.717 4.0017 -3.03593 0
M  V30 1984 C 181.711 3.977 -4.9811 0
M  V30 1985 C 179.398 4.27935 -4.36251 0
M  V30 1986 C 180.396 4.26685 -5.33318 0
M  V30 1987 O 180.084 4.53767 -6.63589 0
M  V30 1988 H 179.816 0.60208 -0.307368 0
M  V30 1989 H 182.37 1.44128 -1.46343 0
M  V30 1990 H 180.6 3.82752 -0.551177 0
M  V30 1991 H 182.289 3.94552 -0.953083 0
M  V30 1992 H 183.055 3.46826 -3.39023 0
M  V30 1993 H 178.934 4.00289 -2.2867 0
M  V30 1994 H 182.478 3.9664 -5.73866 0
M  V30 1995 H 178.375 4.50178 -4.62613 0
M  V30 1996 H 179.143 4.71422 -6.69107 0
M  V30 1997 N 181.806 0.884767 1.30421 0
M  V30 1998 C 182.716 0.355398 2.31892 0
M  V30 1999 C 183.732 -0.542261 1.65335 0
M  V30 2000 O 184.908 -0.435432 1.96637 0
M  V30 2001 C 181.973 -0.421661 3.44126 0
M  V30 2002 C 181.034 0.505727 4.26311 0
M  V30 2003 C 180.267 -0.234343 5.33185 0
M  V30 2004 O 180.49 -1.46045 5.51386 0
M  V30 2005 O 179.424 0.415443 6.00465 0
M  V30 2006 H 183.25 1.19685 2.79122 0
M  V30 2007 H 180.835 0.648596 1.34587 0
M  V30 2008 H 182.717 -0.861641 4.12497 0
M  V30 2009 H 181.392 -1.23942 2.99032 0
M  V30 2010 H 180.299 0.994513 3.60639 0
M  V30 2011 H 181.632 1.28948 4.75009 0
M  V30 2012 N 183.284 -1.43765 0.645699 0
M  V30 2013 C 184.533 -2.01116 0.153412 0
M  V30 2014 C 184.846 -1.51493 -1.23731 0
M  V30 2015 O 186.052 -2.01067 -1.8244 0
M  V30 2016 C 184.508 -3.59206 0.223473 0
M  V30 2017 C 184.116 -4.17823 1.61642 0
M  V30 2018 C 185.86 -4.23972 -0.211597 0
M  V30 2019 C 183.767 -5.68183 1.64081 0
M  V30 2020 H 182.697 -0.752093 0.0535891 0
M  V30 2021 H 185.348 -1.6482 0.806633 0
M  V30 2022 H 183.73 -3.92867 -0.497118 0
M  V30 2023 H 184.904 -3.95674 2.36176 0
M  V30 2024 H 183.219 -3.65399 1.99681 0
M  V30 2025 H 185.816 -5.34275 -0.213112 0
M  V30 2026 H 186.159 -3.97352 -1.24165 0
M  V30 2027 H 186.692 -3.95166 0.456988 0
M  V30 2028 H 183.431 -5.99559 2.64971 0
M  V30 2029 H 182.951 -5.9241 0.938611 0
M  V30 2030 H 184.63 -6.32085 1.3812 0
M  V30 2031 N 184.763 -0.387143 -1.52771 0
M  V30 2032 C 185.673 0.456442 -2.30117 0
M  V30 2033 C 186.689 1.07342 -1.36944 0
M  V30 2034 O 187.865 1.07971 -1.70013 0
M  V30 2035 C 184.93 1.56957 -3.09136 0
M  V30 2036 C 183.991 0.977916 -4.18014 0
M  V30 2037 C 183.224 2.038 -4.93256 0
M  V30 2038 O 183.447 3.25271 -4.68567 0
M  V30 2039 O 182.381 1.6565 -5.78657 0
M  V30 2040 H 186.207 -0.17359 -3.03203 0
M  V30 2041 H 183.792 -0.150919 -1.48636 0
M  V30 2042 H 185.674 2.21628 -3.58412 0
M  V30 2043 H 184.349 2.18461 -2.38865 0
M  V30 2044 H 183.256 0.294525 -3.72939 0
M  V30 2045 H 184.589 0.407128 -4.90513 0
M  V30 2046 N 186.241 1.57166 -0.116904 0
M  V30 2047 C 187.518 1.86645 0.585049 0
M  V30 2048 C 187.898 1.0177 1.84949 0
M  V30 2049 O 187.246 0.0960379 2.28298 0
M  V30 2050 C 187.456 3.37736 0.879507 0
M  V30 2051 C 188.804 4.06289 1.23348 0
M  V30 2052 O 189.828 3.42743 0.969836 0
M  V30 2053 O 188.687 5.18455 1.7282 0
M  V30 2054 H 185.781 0.772593 0.295007 0
M  V30 2055 H 188.327 1.69025 -0.151249 0
M  V30 2056 H 187.099 3.91296 -0.0166136 0
M  V30 2057 H 186.722 3.6078 1.67103 0
M  V30 2058 N 187.719 -0.156864 1.56817 0
M  V30 2059 C 188.965 -0.872416 1.83076 0
M  V30 2060 C 189.298 -1.81261 0.697001 0
M  V30 2061 O 188.573 -1.92171 -0.30008 0
M  V30 2062 C 188.856 -1.65551 3.19789 0
M  V30 2063 C 188.709 -0.737467 4.43713 0
M  V30 2064 C 190.028 -2.62012 3.53606 0
M  V30 2065 H 187.147 -0.315715 0.665953 0
M  V30 2066 H 189.789 -0.138004 1.89498 0
M  V30 2067 H 187.939 -2.28159 3.14445 0
M  V30 2068 H 189.611 -0.123143 4.61136 0
M  V30 2069 H 187.854 -0.0464067 4.33775 0
M  V30 2070 H 188.525 -1.32122 5.35955 0
M  V30 2071 H 191.001 -2.09525 3.59497 0
M  V30 2072 H 189.877 -3.13861 4.50314 0
M  V30 2073 H 190.138 -3.42902 2.79053 0
M  V30 2074 N 189.197 -1.51736 -0.425897 0
M  V30 2075 C 190.443 -1.65214 -1.1761 0
M  V30 2076 C 190.776 -0.372778 -1.90589 0
M  V30 2077 O 190.051 0.628139 -1.84078 0
M  V30 2078 C 190.334 -2.86312 -2.18398 0
M  V30 2079 C 190.187 -4.24254 -1.49426 0
M  V30 2080 C 191.506 -3.02925 -3.19256 0
M  V30 2081 H 188.625 -0.601263 -0.426206 0
M  V30 2082 H 191.267 -1.8425 -0.463882 0
M  V30 2083 H 189.417 -2.70213 -2.79137 0
M  V30 2084 H 191.089 -4.52046 -0.919362 0
M  V30 2085 H 189.332 -4.26426 -0.796432 0
M  V30 2086 H 190.003 -5.05001 -2.22885 0
M  V30 2087 H 192.479 -3.1781 -2.68581 0
M  V30 2088 H 191.355 -3.89199 -3.8706 0
M  V30 2089 H 191.616 -2.15497 -3.86023 0
M  V30 2090 N 190.675 0.682077 -1.42076 0
M  V30 2091 C 191.921 1.44428 -1.42367 0
M  V30 2092 C 192.254 1.94164 -0.0373056 0
M  V30 2093 O 191.529 1.70429 0.937239 0
M  V30 2094 C 191.812 2.64654 -2.44194 0
M  V30 2095 C 191.665 2.20596 -3.91991 0
M  V30 2096 C 192.984 3.66865 -2.431 0
M  V30 2097 H 190.103 0.523834 -0.518428 0
M  V30 2098 H 192.745 0.77576 -1.73442 0
M  V30 2099 H 190.895 3.2169 -2.17826 0
M  V30 2100 H 192.567 1.68783 -4.29313 0
M  V30 2101 H 190.81 1.52242 -4.06208 0
M  V30 2102 H 191.481 3.06921 -4.58807 0
M  V30 2103 H 193.957 3.19531 -2.66532 0
M  V30 2104 H 192.833 4.48577 -3.16339 0
M  V30 2105 H 193.094 4.17493 -1.45437 0
M  V30 2106 N 192.153 1.28127 0.917671 0
M  V30 2107 C 193.085 1.07517 2.02417 0
M  V30 2108 C 194.098 0.0281099 1.62776 0
M  V30 2109 O 195.287 0.270748 1.76435 0
M  V30 2110 C 192.387 0.610957 3.33347 0
M  V30 2111 C 191.56 1.73255 4.01624 0
M  V30 2112 C 190.619 1.26238 5.10833 0
M  V30 2113 O 189.645 1.96389 5.34247 0
M  V30 2114 N 190.847 0.123448 5.80369 0
M  V30 2115 H 193.612 2.02806 2.20658 0
M  V30 2116 H 191.173 1.19827 1.08871 0
M  V30 2117 H 193.165 0.280101 4.0373 0
M  V30 2118 H 191.735 -0.24898 3.11607 0
M  V30 2119 H 190.955 2.23319 3.24842 0
M  V30 2120 H 192.243 2.48503 4.43986 0
M  V30 2121 H 191.641 -0.461847 5.63812 0
M  V30 2122 H 190.198 -0.148158 6.51632 0
M  V30 2123 N 193.631 -1.12557 1.10312 0
M  V30 2124 C 194.879 -1.83675 0.843091 0
M  V30 2125 C 195.2 -1.84435 -0.633131 0
M  V30 2126 O 194.47 -1.30657 -1.45964 0
M  V30 2127 H 193.05 -0.680138 0.308904 0
M  V30 2128 H 195.712 -1.36301 1.39313 0
M  V30 2129 H 194.808 -2.87908 1.2048 0
M  V30 2130 N 195.109 -0.891671 -1.2995 0
M  V30 2131 C 196.056 -0.361736 -2.27948 0
M  V30 2132 C 197.026 0.551761 -1.56668 0
M  V30 2133 O 198.211 0.478736 -1.84696 0
M  V30 2134 C 195.351 0.411825 -3.42634 0
M  V30 2135 C 194.464 -0.531651 -4.28716 0
M  V30 2136 C 193.599 0.258167 -5.30572 0
M  V30 2137 C 192.638 -0.680349 -6.08307 0
M  V30 2138 N 191.775 0.0745613 -7.0206 0
M  V30 2139 H 196.615 -1.20254 -2.72659 0
M  V30 2140 H 194.152 -0.604352 -1.34112 0
M  V30 2141 H 196.11 0.876304 -4.07893 0
M  V30 2142 H 194.74 1.21715 -2.98974 0
M  V30 2143 H 193.792 -1.11463 -3.63703 0
M  V30 2144 H 195.104 -1.25038 -4.82874 0
M  V30 2145 H 194.258 0.784204 -6.0161 0
M  V30 2146 H 192.997 1.01008 -4.77126 0
M  V30 2147 H 192.002 -1.21796 -5.3614 0
M  V30 2148 H 193.227 -1.43145 -6.63842 0
M  V30 2149 H 191.173 0.808883 -6.50994 0
M  V30 2150 H 191.09 -0.584409 -7.53738 0
M  V30 2151 H 192.358 0.581123 -7.77331 0
M  V30 2152 N 196.587 1.43421 -0.653314 0
M  V30 2153 C 198.003 1.56341 -0.320886 0
M  V30 2154 C 198.203 1.63696 1.17499 0
M  V30 2155 O 197.259 1.59208 1.95982 0
M  V30 2156 C 198.572 2.82424 -1.03233 0
M  V30 2157 C 200.12 2.96168 -1.01259 0
M  V30 2158 C 200.595 4.25084 -1.70492 0
M  V30 2159 N 202.086 4.31948 -1.67257 0
M  V30 2160 C 202.821 5.30466 -2.17701 0
M  V30 2161 N 202.317 6.35261 -2.76434 0
M  V30 2162 N 204.11 5.2212 -2.082 0
M  V30 2163 H 196.261 1.3689 -1.62403 0
M  V30 2164 H 198.524 0.657455 -0.682977 0
M  V30 2165 H 198.23 2.83053 -2.08744 0
M  V30 2166 H 198.104 3.72653 -0.583948 0
M  V30 2167 H 200.491 2.9508 0.0341235 0
M  V30 2168 H 200.572 2.07229 -1.49966 0
M  V30 2169 H 200.216 4.26932 -2.7512 0
M  V30 2170 H 200.146 5.1292 -1.19251 0
M  V30 2171 H 202.637 3.56838 -1.24398 0
M  V30 2172 H 202.95 7.06754 -3.12601 0
M  V30 2173 H 201.295 6.35884 -2.80495 0
M  V30 2174 H 204.486 4.39166 -1.62021 0
M  V30 2175 H 204.659 5.98739 -2.47822 0
M  V30 2176 N 198.065 0.39524 1.52563 0
M  V30 2177 C 199.311 -0.185318 2.01952 0
M  V30 2178 C 199.644 -1.45964 1.28095 0
M  V30 2179 O 198.919 -1.90689 0.38315 0
M  V30 2180 C 199.202 -0.447193 3.57312 0
M  V30 2181 C 199.055 0.842828 4.41833 0
M  V30 2182 C 200.374 -1.23529 4.22408 0
M  V30 2183 H 197.493 -0.0658788 0.73405 0
M  V30 2184 H 200.135 0.525975 1.82575 0
M  V30 2185 H 198.285 -1.05312 3.73954 0
M  V30 2186 H 199.957 1.4795 4.36931 0
M  V30 2187 H 198.2 1.45686 4.08605 0
M  V30 2188 H 198.871 0.614165 5.48573 0
M  V30 2189 H 201.347 -0.722445 4.0978 0
M  V30 2190 H 200.223 -1.38727 5.3108 0
M  V30 2191 H 200.484 -2.25213 3.80436 0
M  V30 2192 N 199.544 -1.57102 0.125237 0
M  V30 2193 C 200.769 -2.0019 -0.542101 0
M  V30 2194 C 201.194 -1.00449 -1.59034 0
M  V30 2195 O 200.552 0.0229423 -1.81285 0
M  V30 2196 C 200.6 -3.42129 -1.13929 0
M  V30 2197 O 199.704 -3.45307 -2.2547 0
M  V30 2198 H 199.045 -0.650171 -0.134812 0
M  V30 2199 H 201.575 -2.03461 0.215553 0
M  V30 2200 H 201.585 -3.80471 -1.4733 0
M  V30 2201 H 200.26 -4.14237 -0.371531 0
M  V30 2202 H 198.837 -3.1879 -1.93462 0
M  V30 2203 N 201.022 0.148545 -1.56898 0
M  V30 2204 C 202.247 0.880385 -1.87787 0
M  V30 2205 C 202.672 1.74018 -0.714093 0
M  V30 2206 O 202.03 1.78153 0.336343 0
M  V30 2207 C 202.078 1.71422 -3.17249 0
M  V30 2208 O 201.182 2.8183 -3.01074 0
M  V30 2209 H 200.523 0.245301 -0.617028 0
M  V30 2210 H 203.053 0.139826 -2.04122 0
M  V30 2211 H 203.063 2.10954 -3.49231 0
M  V30 2212 H 201.738 1.08284 -4.01556 0
M  V30 2213 H 200.315 2.45715 -2.80497 0
M  V30 2214 N 202.5 1.5196 0.417844 0
M  V30 2215 C 203.725 1.69717 1.1921 0
M  V30 2216 C 204.15 0.402148 1.83751 0
M  V30 2217 O 203.508 -0.639593 1.69643 0
M  V30 2218 C 203.556 2.82794 2.2374 0
M  V30 2219 O 202.66 2.47756 3.29683 0
M  V30 2220 H 202.001 0.565263 0.348387 0
M  V30 2221 H 204.531 1.98621 0.490985 0
M  V30 2222 H 204.541 3.07452 2.68212 0
M  V30 2223 H 203.216 3.76756 1.76146 0
M  V30 2224 H 201.793 2.33739 2.90552 0
M  V30 2225 N 203.978 -0.674533 1.42435 0
M  V30 2226 C 204.908 -1.80009 1.48724 0
M  V30 2227 C 205.889 -1.6659 0.343793 0
M  V30 2228 O 207.074 -1.86007 0.558137 0
M  V30 2229 C 204.204 -3.18306 1.38919 0
M  V30 2230 C 203.158 -3.46461 2.51294 0
M  V30 2231 C 202.484 -4.84335 2.26547 0
M  V30 2232 C 203.784 -3.43328 3.93603 0
M  V30 2233 H 205.478 -1.75004 2.42928 0
M  V30 2234 H 203.024 -0.840533 1.16923 0
M  V30 2235 H 204.977 -3.9678 1.41927 0
M  V30 2236 H 203.701 -3.2399 0.412094 0
M  V30 2237 H 202.36 -2.70348 2.47604 0
M  V30 2238 H 202.008 -4.86669 1.2713 0
M  V30 2239 H 201.708 -5.04136 3.01861 0
M  V30 2240 H 203.232 -5.65094 2.31304 0
M  V30 2241 H 204.646 -4.11772 3.98894 0
M  V30 2242 H 203.043 -3.74664 4.68771 0
M  V30 2243 H 204.113 -2.41897 4.20255 0
M  V30 2244 N 205.456 -1.28612 -0.910864 0
M  V30 2245 C 206.705 -1.15311 -1.65488 0
M  V30 2246 C 207.018 0.296999 -1.93332 0
M  V30 2247 O 208.224 0.551168 -2.65847 0
M  V30 2248 C 206.68 -2.01599 -2.98137 0
M  V30 2249 C 206.288 -3.51367 -2.7793 0
M  V30 2250 C 208.032 -1.96993 -3.76024 0
M  V30 2251 C 205.939 -4.29797 -4.06237 0
M  V30 2252 H 204.869 -0.42796 -0.620779 0
M  V30 2253 H 207.52 -1.53166 -1.01057 0
M  V30 2254 H 205.902 -1.56603 -3.63719 0
M  V30 2255 H 207.076 -4.0434 -2.21011 0
M  V30 2256 H 205.391 -3.57529 -2.13452 0
M  V30 2257 H 207.988 -2.52856 -4.71135 0
M  V30 2258 H 208.331 -0.94733 -4.05378 0
M  V30 2259 H 208.864 -2.39973 -3.17266 0
M  V30 2260 H 205.603 -5.32648 -3.82055 0
M  V30 2261 H 205.123 -3.81596 -4.62757 0
M  V30 2262 H 206.802 -4.39869 -4.74473 0
M  V30 2263 N 206.934 1.1197 -1.10907 0
M  V30 2264 C 208.35 1.35591 -0.841852 0
M  V30 2265 C 208.55 1.94233 0.536246 0
M  V30 2266 O 207.606 2.1717 1.28816 0
M  V30 2267 C 208.919 2.29284 -1.94549 0
M  V30 2268 C 210.467 2.42862 -1.97451 0
M  V30 2269 C 210.942 3.39873 -3.07002 0
M  V30 2270 N 212.433 3.47433 -3.06341 0
M  V30 2271 C 213.168 4.22421 -3.87748 0
M  V30 2272 N 212.664 5.00432 -4.79103 0
M  V30 2273 N 214.457 4.17876 -3.75946 0
M  V30 2274 H 206.608 0.722664 -1.99728 0
M  V30 2275 H 208.871 0.380635 -0.868229 0
M  V30 2276 H 208.577 1.93378 -2.93765 0
M  V30 2277 H 208.451 3.29452 -1.83688 0
M  V30 2278 H 210.838 2.78046 -0.988645 0
M  V30 2279 H 210.919 1.42566 -2.12388 0
M  V30 2280 H 210.563 3.05417 -4.05811 0
M  V30 2281 H 210.493 4.40011 -2.89306 0
M  V30 2282 H 212.984 2.91784 -2.40147 0
M  V30 2283 H 213.297 5.55002 -5.37766 0
M  V30 2284 H 211.642 4.99612 -4.83128 0
M  V30 2285 H 214.833 3.56016 -3.03924 0
M  V30 2286 H 215.006 4.76061 -4.39624 0
M  V30 2287 N 208.412 0.89855 1.29475 0
M  V30 2288 C 209.36 0.365253 2.29714 0
M  V30 2289 C 210.354 -0.534993 1.6073 0
M  V30 2290 O 211.56 -0.417921 1.75081 0
M  V30 2291 H 207.935 0.0994853 0.74539 0
M  V30 2292 H 209.906 1.22406 2.72138 0
M  V30 2293 C 208.655 -0.393159 3.4547 0
M  V30 2294 H 207.978 0.290332 3.98744 0
M  V30 2295 H 209.418 -0.731189 4.17648 0
M  V30 2296 C 207.877 -1.59539 2.9673 0
M  V30 2297 O 208.407 -2.69469 2.97908 0
M  V30 2298 N 206.613 -1.43716 2.52575 0
M  V30 2299 H 206.16 -0.542828 2.51816 0
M  V30 2300 H 206.118 -2.24288 2.20323 0
M  V30 2301 N 209.89 -1.43072 0.660911 0
M  V30 2302 C 210.82 -2.33497 -0.0122829 0
M  V30 2303 C 211.801 -1.49903 -0.803925 0
M  V30 2304 O 212.986 -1.78546 -0.763864 0
M  V30 2305 C 210.116 -3.33363 -0.973994 0
M  V30 2306 C 209.07 -4.27003 -0.291928 0
M  V30 2307 C 208.396 -5.16967 -1.36562 0
M  V30 2308 C 209.696 -5.15816 0.820462 0
M  V30 2309 H 211.39 -2.90038 0.742873 0
M  V30 2310 H 208.936 -1.39461 0.358688 0
M  V30 2311 H 210.889 -3.95524 -1.45392 0
M  V30 2312 H 209.613 -2.75095 -1.7604 0
M  V30 2313 H 208.272 -3.66217 0.167623 0
M  V30 2314 H 207.92 -4.55034 -2.14366 0
M  V30 2315 H 207.62 -5.80441 -0.914454 0
M  V30 2316 H 209.144 -5.82003 -1.84675 0
M  V30 2317 H 210.558 -5.71742 0.422366 0
M  V30 2318 H 208.955 -5.8805 1.19656 0
M  V30 2319 H 210.025 -4.55045 1.67518 0
M  V30 2320 N 211.368 -0.403325 -1.52352 0
M  V30 2321 C 212.614 0.174605 -2.02047 0
M  V30 2322 C 212.947 1.45282 -1.28867 0
M  V30 2323 O 212.222 1.90483 -0.393257 0
M  V30 2324 C 212.505 0.428238 -3.57545 0
M  V30 2325 C 212.358 -0.866248 -4.4138 0
M  V30 2326 C 213.677 1.21287 -4.23057 0
M  V30 2327 H 210.796 0.0619851 -0.734389 0
M  V30 2328 H 213.438 -0.53565 -1.82293 0
M  V30 2329 H 211.588 1.03327 -3.74507 0
M  V30 2330 H 213.26 -1.50265 -4.3614 0
M  V30 2331 H 211.503 -1.47851 -4.07827 0
M  V30 2332 H 212.174 -0.643249 -5.48239 0
M  V30 2333 H 214.65 0.700703 -4.10158 0
M  V30 2334 H 213.526 1.35909 -5.31808 0
M  V30 2335 H 213.787 2.23193 -3.81625 0
M  V30 2336 N 212.846 1.57033 -0.133567 0
M  V30 2337 C 213.778 2.13176 0.841944 0
M  V30 2338 C 214.791 1.07794 1.22001 0
M  V30 2339 O 215.98 1.35117 1.16643 0
M  V30 2340 C 213.08 2.62847 2.13926 0
M  V30 2341 C 212.253 3.92486 1.93064 0
M  V30 2342 C 211.312 4.27605 3.0666 0
M  V30 2343 O 210.338 4.96168 2.78937 0
M  V30 2344 N 211.54 3.861 4.33483 0
M  V30 2345 H 214.305 2.97503 0.362192 0
M  V30 2346 H 211.866 1.61821 0.05042 0
M  V30 2347 H 213.858 2.83363 2.88942 0
M  V30 2348 H 212.428 1.83319 2.53205 0
M  V30 2349 H 211.648 3.80732 1.02159 0
M  V30 2350 H 212.936 4.77225 1.76447 0
M  V30 2351 H 212.334 3.30828 4.58878 0
M  V30 2352 H 210.891 4.11694 5.05323 0
M  V30 2353 N 214.325 -0.140222 1.56975 0
M  V30 2354 C 215.235 -1.19223 2.02047 0
M  V30 2355 C 216.251 -1.46612 0.937062 0
M  V30 2356 O 217.427 -1.58148 1.24704 0
M  V30 2357 C 214.492 -2.50414 2.39778 0
M  V30 2358 C 213.553 -2.30612 3.621 0
M  V30 2359 C 212.786 -3.55547 3.98023 0
M  V30 2360 O 213.009 -4.62004 3.34528 0
M  V30 2361 O 211.943 -3.47808 4.91237 0
M  V30 2362 H 215.769 -0.839559 2.91865 0
M  V30 2363 H 213.354 -0.349453 1.45256 0
M  V30 2364 H 215.236 -3.27747 2.64877 0
M  V30 2365 H 213.911 -2.85198 1.53114 0
M  V30 2366 H 212.818 -1.51207 3.4218 0
M  V30 2367 H 214.151 -2.00741 4.49404 0
M  V30 2368 N 215.803 -1.52179 -0.40978 0
M  V30 2369 C 217.051 -1.65878 -1.15451 0
M  V30 2370 C 217.372 -0.390771 -1.91044 0
M  V30 2371 O 216.642 0.594323 -1.86667 0
M  V30 2372 H 215.222 -0.611405 -0.429177 0
M  V30 2373 H 217.884 -1.89219 -0.467134 0
M  V30 2374 H 216.98 -2.49954 -1.86894 0
M  V30 2375 N 217.281 0.66697 -1.42791 0
M  V30 2376 C 218.697 0.981027 -1.25889 0
M  V30 2377 C 218.897 2.00793 -0.168695 0
M  V30 2378 O 217.953 2.48321 0.45747 0
M  V30 2379 C 219.266 1.47838 -2.61848 0
M  V30 2380 C 220.814 1.59575 -2.69267 0
M  V30 2381 C 221.289 2.12704 -4.05612 0
M  V30 2382 N 222.78 2.20026 -4.07606 0
M  V30 2383 C 223.515 2.62227 -5.09926 0
M  V30 2384 N 223.011 3.03824 -6.22626 0
M  V30 2385 N 224.804 2.62045 -4.97281 0
M  V30 2386 H 216.955 -0.0127891 -2.12396 0
M  V30 2387 H 219.218 0.0568258 -0.946295 0
M  V30 2388 H 218.924 0.798299 -3.4252 0
M  V30 2389 H 218.798 2.45579 -2.86305 0
M  V30 2390 H 221.185 2.26687 -1.88936 0
M  V30 2391 H 221.266 0.60302 -2.48591 0
M  V30 2392 H 220.91 1.46198 -4.86404 0
M  V30 2393 H 220.84 3.12782 -4.23645 0
M  V30 2394 H 223.331 1.90708 -3.2625 0
M  V30 2395 H 223.644 3.34734 -6.96544 0
M  V30 2396 H 221.989 3.01662 -6.26119 0
M  V30 2397 H 225.18 2.28916 -4.08308 0
M  V30 2398 H 225.353 2.94613 -5.77154 0
M  V30 2399 N 218.759 1.29093 0.90403 0
M  V30 2400 C 220.005 1.16986 1.65656 0
M  V30 2401 C 220.338 -0.278925 1.92186 0
M  V30 2402 O 219.613 -1.2019 1.5292 0
M  V30 2403 C 219.896 1.97908 3.0084 0
M  V30 2404 C 219.749 3.50903 2.81403 0
M  V30 2405 C 221.068 1.80208 4.01513 0
M  V30 2406 H 218.187 0.426346 0.601164 0
M  V30 2407 H 220.829 1.58518 1.04747 0
M  V30 2408 H 218.979 1.62616 3.52829 0
M  V30 2409 H 220.651 3.96153 2.36348 0
M  V30 2410 H 218.894 3.76045 2.1627 0
M  V30 2411 H 219.565 4.02791 3.77443 0
M  V30 2412 H 222.041 2.11025 3.58619 0
M  V30 2413 H 220.917 2.39184 4.94047 0
M  V30 2414 H 221.178 0.756119 4.35586 0
M  V30 2415 N 220.237 -1.11381 1.11499 0
M  V30 2416 C 221.147 -2.21019 0.786628 0
M  V30 2417 C 222.163 -1.72597 -0.220507 0
M  V30 2418 O 223.339 -2.01321 -0.0565251 0
M  V30 2419 C 220.404 -3.459 0.235333 0
M  V30 2420 C 219.465 -4.09107 1.30115 0
M  V30 2421 C 218.698 -5.28027 0.776068 0
M  V30 2422 O 218.921 -5.6904 -0.393661 0
M  V30 2423 O 217.855 -5.81835 1.54114 0
M  V30 2424 H 221.681 -2.51521 1.70209 0
M  V30 2425 H 219.266 -1.19928 0.890928 0
M  V30 2426 H 221.148 -4.21346 -0.067715 0
M  V30 2427 H 219.823 -3.17049 -0.652828 0
M  V30 2428 H 218.73 -3.35391 1.65722 0
M  V30 2429 H 220.063 -4.42139 2.16273 0
M  V30 2430 N 221.715 -0.905404 -1.28997 0
M  V30 2431 C 222.625 -0.392246 -2.31298 0
M  V30 2432 C 223.641 0.515889 -1.66176 0
M  V30 2433 O 224.817 0.404093 -1.97304 0
M  V30 2434 C 221.882 0.36686 -3.44754 0
M  V30 2435 C 220.943 -0.573485 -4.25452 0
M  V30 2436 C 220.176 0.149488 -5.33491 0
M  V30 2437 O 220.399 1.37255 -5.5364 0
M  V30 2438 O 219.333 -0.510919 -5.99728 0
M  V30 2439 H 223.159 -1.2411 -2.77183 0
M  V30 2440 H 220.744 -0.669926 -1.33538 0
M  V30 2441 H 222.626 0.795907 -4.13816 0
M  V30 2442 H 221.301 1.19169 -3.00966 0
M  V30 2443 H 220.208 -1.05176 -3.59011 0
M  V30 2444 H 221.541 -1.36489 -4.72897 0
M  V30 2445 N 223.193 1.4272 -0.668489 0
M  V30 2446 C 224.442 2.00846 -0.185389 0
M  V30 2447 C 224.755 1.53442 1.21305 0
M  V30 2448 O 225.961 2.03944 1.79218 0
M  V30 2449 C 224.417 3.58805 -0.280591 0
M  V30 2450 C 224.025 4.15198 -1.68268 0
M  V30 2451 C 225.769 4.24255 0.14412 0
M  V30 2452 C 223.676 5.655 -1.73099 0
M  V30 2453 H 222.606 0.751145 -0.0655475 0
M  V30 2454 H 225.257 1.63516 -0.832752 0
M  V30 2455 H 223.639 3.93608 0.434553 0
M  V30 2456 H 224.813 3.91866 -2.42441 0
M  V30 2457 H 223.128 3.62176 -2.05469 0
M  V30 2458 H 225.725 5.34547 0.128086 0
M  V30 2459 H 226.068 3.99277 1.17827 0
M  V30 2460 H 226.601 3.94389 -0.519798 0
M  V30 2461 H 223.34 5.95268 -2.74475 0
M  V30 2462 H 222.86 5.90842 -1.03274 0
M  V30 2463 H 224.539 6.29808 -1.48158 0
M  V30 2464 N 224.671 0.411399 1.52136 0
M  V30 2465 C 226.082 -0.0576826 1.86611 0
M  V30 2466 C 226.433 -1.44238 1.33003 0
M  V30 2467 O 225.558 -2.05759 0.670228 0
M  V30 2468 C 226.153 -0.111448 3.38617 0
M  V30 2469 C 224.712 -0.52487 3.72723 0
M  V30 2470 C 223.859 0.299176 2.75681 0
M  V30 2471 H 226.81 0.628368 1.4573 0
M  V30 2472 H 226.831 -0.926252 3.69054 0
M  V30 2473 H 226.343 0.896488 3.77604 0
M  V30 2474 H 224.444 -1.53936 3.39315 0
M  V30 2475 H 224.557 -0.267681 4.78352 0
M  V30 2476 H 222.921 -0.238814 2.53578 0
M  V30 2477 H 223.704 1.3055 3.17508 0
M  V30 2478 N 226.149 -1.5696 0.141893 0
M  V30 2479 C 227.112 -2.15316 -0.785587 0
M  V30 2480 C 228.112 -1.09366 -1.1788 0
M  V30 2481 O 229.302 -1.35031 -1.10056 0
M  V30 2482 C 226.434 -2.71211 -2.06537 0
M  V30 2483 H 227.627 -2.98608 -0.278041 0
M  V30 2484 H 225.18 -1.5593 -0.107519 0
M  V30 2485 H 225.915 -1.91571 -2.6167 0
M  V30 2486 H 225.7 -3.4872 -1.79268 0
M  V30 2487 H 227.19 -3.16189 -2.72789 0
M  V30 2488 N 227.627 0.131896 -1.57047 0
M  V30 2489 C 228.857 0.855219 -1.88068 0
M  V30 2490 C 229.265 1.74557 -0.729817 0
M  V30 2491 O 228.608 1.81083 0.308962 0
M  V30 2492 C 228.67 1.75119 -3.13964 0
M  V30 2493 C 228.334 1.03646 -4.45091 0
M  V30 2494 C 229.331 0.383276 -5.18485 0
M  V30 2495 C 227.016 1.02148 -4.91804 0
M  V30 2496 C 229.01 -0.275347 -6.36805 0
M  V30 2497 C 226.697 0.359047 -6.10044 0
M  V30 2498 C 227.695 -0.288222 -6.82392 0
M  V30 2499 O 227.383 -0.94011 -7.98384 0
M  V30 2500 H 227.115 0.251864 -0.627328 0
M  V30 2501 H 229.669 0.124782 -2.05021 0
M  V30 2502 H 227.899 2.52295 -2.9306 0
M  V30 2503 H 229.588 2.3478 -3.31109 0
M  V30 2504 H 230.354 0.386562 -4.83457 0
M  V30 2505 H 226.233 1.5147 -4.35405 0
M  V30 2506 H 229.777 -0.781148 -6.93213 0
M  V30 2507 H 225.674 0.35348 -6.44531 0
M  V30 2508 H 226.442 -0.84329 -8.14144 0
M  V30 2509 N 229.106 1.52395 0.401703 0
M  V30 2510 C 230.036 1.79231 1.49661 0
M  V30 2511 C 231.017 0.643654 1.57452 0
M  V30 2512 O 232.202 0.889989 1.72606 0
M  V30 2513 C 229.332 1.94971 2.87409 0
M  V30 2514 C 228.286 3.10604 2.94465 0
M  V30 2515 C 227.612 3.11577 4.34538 0
M  V30 2516 C 228.912 4.49921 2.6527 0
M  V30 2517 H 230.606 2.70917 1.27454 0
M  V30 2518 H 228.152 1.30362 0.6117 0
M  V30 2519 H 230.105 2.12328 3.63999 0
M  V30 2520 H 228.829 0.999632 3.10926 0
M  V30 2521 H 227.488 2.93009 2.20321 0
M  V30 2522 H 227.136 2.14277 4.55076 0
M  V30 2523 H 226.836 3.89247 4.40183 0
M  V30 2524 H 228.36 3.31073 5.13053 0
M  V30 2525 H 229.774 4.67683 3.31581 0
M  V30 2526 H 228.171 5.29564 2.82281 0
M  V30 2527 H 229.241 4.57507 1.60671 0
M  V30 2528 N 230.584 -0.659388 1.43143 0
M  V30 2529 C 231.832 -1.41654 1.44147 0
M  V30 2530 C 232.153 -1.94893 0.0645739 0
M  V30 2531 O 231.423 -1.74044 -0.899198 0
M  V30 2532 H 230.003 -0.525708 0.530697 0
M  V30 2533 H 232.665 -0.778097 1.78694 0
M  V30 2534 H 231.761 -2.26195 2.1504 0
M  V30 2535 N 232.062 -1.29571 -0.897171 0
M  V30 2536 C 233.478 -1.07637 -1.17841 0
M  V30 2537 C 233.678 0.170713 -2.00776 0
M  V30 2538 O 232.734 0.867768 -2.3712 0
M  V30 2539 C 234.047 -2.3332 -1.8969 0
M  V30 2540 C 235.595 -2.38664 -2.02505 0
M  V30 2541 C 236.07 -3.64157 -2.77765 0
M  V30 2542 N 237.561 -3.64894 -2.85318 0
M  V30 2543 C 238.296 -4.58679 -3.44094 0
M  V30 2544 N 237.792 -5.62799 -4.04017 0
M  V30 2545 N 239.585 -4.46245 -3.41793 0
M  V30 2546 H 231.736 -2.09598 -0.343883 0
M  V30 2547 H 233.999 -0.923333 -0.214848 0
M  V30 2548 H 233.705 -3.24262 -1.36187 0
M  V30 2549 H 233.579 -2.41025 -2.9015 0
M  V30 2550 H 235.966 -1.48208 -2.55183 0
M  V30 2551 H 236.047 -2.34943 -1.01171 0
M  V30 2552 H 235.691 -4.54965 -2.25763 0
M  V30 2553 H 235.621 -3.65137 -3.7945 0
M  V30 2554 H 238.112 -2.89613 -2.42761 0
M  V30 2555 H 238.425 -6.3048 -4.46895 0
M  V30 2556 H 236.77 -5.66605 -4.02472 0
M  V30 2557 H 239.961 -3.64094 -2.94199 0
M  V30 2558 H 240.134 -5.19518 -3.87304 0
M  V30 2559 N 233.54 1.10788 -1.12088 0
M  V30 2560 C 234.77 1.86191 -0.895351 0
M  V30 2561 C 235.178 1.80763 0.558702 0
M  V30 2562 O 234.521 1.19188 1.39785 0
M  V30 2563 C 234.583 3.35659 -1.28737 0
M  V30 2564 C 234.247 3.64849 -2.75198 0
M  V30 2565 C 235.244 3.61757 -3.734 0
M  V30 2566 C 232.929 3.93641 -3.12013 0
M  V30 2567 C 234.923 3.87045 -5.06434 0
M  V30 2568 C 232.61 4.18585 -4.4523 0
M  V30 2569 C 233.608 4.15277 -5.42249 0
M  V30 2570 O 233.296 4.3959 -6.73065 0
M  V30 2571 H 233.028 0.595425 -0.32007 0
M  V30 2572 H 235.582 1.40992 -1.49367 0
M  V30 2573 H 233.812 3.81497 -0.63224 0
M  V30 2574 H 235.501 3.92441 -1.03656 0
M  V30 2575 H 236.267 3.39557 -3.46303 0
M  V30 2576 H 232.146 3.95348 -2.37109 0
M  V30 2577 H 235.69 3.84378 -5.82151 0
M  V30 2578 H 231.587 4.40264 -4.72057 0
M  V30 2579 H 232.355 4.57123 -6.78956 0
M  V30 2580 N 235.018 0.912232 1.28515 0
M  V30 2581 C 236.265 0.544599 1.95039 0
M  V30 2582 C 236.593 -0.911435 1.71823 0
M  V30 2583 O 235.848 -1.66317 1.03137 0
M  V30 2584 C 236.147 0.798392 3.48368 0
M  V30 2585 C 235.813 2.23374 3.91682 0
M  V30 2586 C 234.475 2.62617 4.03219 0
M  V30 2587 C 236.827 3.16786 4.13879 0
M  V30 2588 C 234.155 3.94429 4.3433 0
M  V30 2589 C 236.507 4.48161 4.46469 0
M  V30 2590 C 235.171 4.8726 4.56217 0
M  V30 2591 H 234.441 0.199283 0.7137 0
M  V30 2592 H 237.088 1.15327 1.52879 0
M  V30 2593 H 235.393 0.106908 3.91654 0
M  V30 2594 H 237.09 0.493141 3.97956 0
M  V30 2595 H 233.68 1.91922 3.83228 0
M  V30 2596 H 237.864 2.87677 4.0442 0
M  V30 2597 H 233.12 4.24426 4.40082 0
M  V30 2598 H 237.294 5.20559 4.62592 0
M  V30 2599 H 234.921 5.89431 4.80078 0
M  V30 2600 N 236.496 -1.42363 0.676048 0
M  V30 2601 C 237.406 -2.346 -0.00153389 0
M  V30 2602 C 238.422 -1.5516 -0.787485 0
M  V30 2603 O 239.598 -1.87723 -0.729521 0
M  V30 2604 C 236.663 -3.33705 -0.940298 0
M  V30 2605 C 235.724 -4.29042 -0.148739 0
M  V30 2606 C 234.957 -5.23413 -1.04279 0
M  V30 2607 O 235.18 -5.22749 -2.28232 0
M  V30 2608 O 234.114 -5.99795 -0.502925 0
M  V30 2609 H 237.94 -2.94082 0.758268 0
M  V30 2610 H 235.525 -1.42888 0.436289 0
M  V30 2611 H 237.407 -3.94586 -1.47917 0
M  V30 2612 H 236.082 -2.76695 -1.67993 0
M  V30 2613 H 234.989 -3.71571 0.43427 0
M  V30 2614 H 236.322 -4.89097 0.551805 0
M  V30 2615 N 237.974 -0.419461 -1.51915 0
M  V30 2616 C 239.223 0.154346 -2.01109 0
M  V30 2617 C 239.536 1.45338 -1.30905 0
M  V30 2618 O 240.742 2.10906 -1.7097 0
M  V30 2619 C 239.198 0.325615 -3.58424 0
M  V30 2620 C 238.806 -0.961934 -4.37551 0
M  V30 2621 C 240.55 0.854155 -4.15818 0
M  V30 2622 C 238.457 -0.757287 -5.86531 0
M  V30 2623 H 237.387 0.0614563 -0.751491 0
M  V30 2624 H 240.038 -0.54649 -1.75173 0
M  V30 2625 H 238.42 1.08903 -3.80731 0
M  V30 2626 H 239.594 -1.7323 -4.26999 0
M  V30 2627 H 237.909 -1.41766 -3.91524 0
M  V30 2628 H 240.506 1.02346 -5.24814 0
M  V30 2629 H 240.849 1.83172 -3.73837 0
M  V30 2630 H 241.382 0.149528 -3.97519 0
M  V30 2631 H 238.121 -1.70671 -6.32892 0
M  V30 2632 H 237.641 -0.0264061 -5.99794 0
M  V30 2633 H 239.32 -0.403482 -6.45741 0
M  V30 2634 N 239.452 1.56882 -0.150215 0
M  V30 2635 C 240.362 2.20494 0.801222 0
M  V30 2636 C 241.378 1.19019 1.26927 0
M  V30 2637 O 242.554 1.51607 1.32579 0
M  V30 2638 C 239.619 2.81659 2.02161 0
M  V30 2639 C 238.68 3.9827 1.60249 0
M  V30 2640 C 237.913 4.56508 2.7647 0
M  V30 2641 O 238.136 4.13627 3.92771 0
M  V30 2642 O 237.07 5.46719 2.51757 0
M  V30 2643 H 240.896 3.02315 0.289717 0
M  V30 2644 H 238.481 1.49202 0.0769684 0
M  V30 2645 H 240.363 3.20522 2.73576 0
M  V30 2646 H 239.038 2.02849 2.52258 0
M  V30 2647 H 237.945 3.64117 0.858477 0
M  V30 2648 H 239.278 4.78609 1.14864 0
M  V30 2649 N 240.93 -0.123565 1.57115 0
M  V30 2650 C 242.178 -0.83051 1.84247 0
M  V30 2651 C 242.499 -1.80629 0.73471 0
M  V30 2652 O 241.769 -1.94403 -0.241688 0
M  V30 2653 H 240.349 -0.309694 0.679778 0
M  V30 2654 H 243.011 -0.111976 1.94578 0
M  V30 2655 H 242.107 -1.37852 2.80006 0
M  V30 2656 N 242.408 -1.52605 -0.393616 0
M  V30 2657 C 243.657 -1.66649 -1.13627 0
M  V30 2658 C 243.97 -0.410364 -1.91247 0
M  V30 2659 O 245.176 -0.430854 -2.68059 0
M  V30 2660 C 243.632 -2.9449 -2.06891 0
M  V30 2661 C 243.24 -4.27266 -1.34714 0
M  V30 2662 C 244.984 -3.17899 -2.81319 0
M  V30 2663 C 242.891 -5.46217 -2.26717 0
M  V30 2664 H 241.821 -0.62084 -0.427871 0
M  V30 2665 H 244.472 -1.791 -0.399428 0
M  V30 2666 H 242.854 -2.75774 -2.84191 0
M  V30 2667 H 244.028 -4.56518 -0.626714 0
M  V30 2668 H 242.343 -4.10081 -0.722643 0
M  V30 2669 H 244.94 -4.03949 -3.50328 0
M  V30 2670 H 245.283 -2.32777 -3.45139 0
M  V30 2671 H 245.816 -3.37159 -2.11113 0
M  V30 2672 H 242.555 -6.33733 -1.67521 0
M  V30 2673 H 242.075 -5.21283 -2.96689 0
M  V30 2674 H 243.754 -5.7991 -2.86903 0
M  V30 2675 N 243.887 0.651787 -1.4349 0
M  V30 2676 C 245.133 1.41376 -1.45398 0
M  V30 2677 C 245.466 1.94041 -0.0784823 0
M  V30 2678 O 244.741 1.72379 0.900878 0
M  V30 2679 C 245.024 2.59414 -2.49752 0
M  V30 2680 C 244.877 2.12232 -3.96582 0
M  V30 2681 C 246.196 3.61626 -2.50827 0
M  V30 2682 H 243.315 0.512719 -0.529422 0
M  V30 2683 H 245.957 0.738796 -1.75048 0
M  V30 2684 H 244.107 3.16997 -2.246 0
M  V30 2685 H 245.779 1.59639 -4.32797 0
M  V30 2686 H 244.022 1.43592 -4.09346 0
M  V30 2687 H 244.693 2.9712 -4.65214 0
M  V30 2688 H 247.169 3.13805 -2.7325 0
M  V30 2689 H 246.045 4.41766 -3.25783 0
M  V30 2690 H 246.306 4.14314 -1.5426 0
M  V30 2691 N 245.365 1.30045 0.890287 0
M  V30 2692 C 246.315 1.12592 1.9826 0
M  V30 2693 C 247.299 0.0426021 1.60844 0
M  V30 2694 O 248.491 0.265346 1.75 0
M  V30 2695 C 245.62 0.814301 3.33503 0
M  V30 2696 C 244.706 1.93761 3.7725 0
M  V30 2697 N 245.097 3.18232 3.93143 0
M  V30 2698 C 243.395 1.83277 4.06602 0
M  V30 2699 C 244.096 3.9158 4.30163 0
M  V30 2700 N 243.072 3.19591 4.3973 0
M  V30 2701 H 246.874 2.07003 2.08631 0
M  V30 2702 H 244.388 1.21307 1.07974 0
M  V30 2703 H 246.385 0.67029 4.11476 0
M  V30 2704 H 245.045 -0.121797 3.24471 0
M  V30 2705 H 246.056 3.53581 3.78419 0
M  V30 2706 H 242.733 0.97001 4.06075 0
M  V30 2707 H 244.123 4.98744 4.50226 0
M  V30 2708 N 246.843 -1.10192 1.12674 0
M  V30 2709 C 247.79 -2.16606 0.796906 0
M  V30 2710 C 248.76 -1.64394 -0.237476 0
M  V30 2711 O 249.945 -1.90474 -0.111484 0
M  V30 2712 C 247.085 -3.44116 0.26043 0
M  V30 2713 C 246.198 -4.10268 1.35293 0
M  V30 2714 C 245.333 -5.25507 0.775621 0
M  V30 2715 C 244.372 -5.83567 1.84706 0
M  V30 2716 N 243.509 -6.90179 1.28829 0
M  V30 2717 H 248.349 -2.44163 1.70846 0
M  V30 2718 H 245.886 -1.19846 0.85295 0
M  V30 2719 H 247.844 -4.17143 -0.0686814 0
M  V30 2720 H 246.474 -3.16901 -0.614274 0
M  V30 2721 H 245.526 -3.35184 1.79877 0
M  V30 2722 H 246.838 -4.4946 2.16303 0
M  V30 2723 H 245.992 -6.05398 0.397327 0
M  V30 2724 H 244.731 -4.87656 -0.0656581 0
M  V30 2725 H 243.736 -5.02344 2.23452 0
M  V30 2726 H 244.961 -6.23482 2.69161 0
M  V30 2727 H 242.907 -6.54322 0.468881 0
M  V30 2728 H 242.824 -7.28097 2.03497 0
M  V30 2729 H 244.092 -7.73844 0.937311 0
M  V30 2730 N 248.321 -0.919034 -1.28029 0
M  V30 2731 C 249.598 -0.473668 -1.89778 0
M  V30 2732 C 249.978 1.04783 -1.83259 0
M  V30 2733 O 249.326 1.8982 -1.27202 0
M  V30 2734 C 249.536 -1.00998 -3.34066 0
M  V30 2735 C 250.884 -1.06525 -4.1102 0
M  V30 2736 O 251.908 -0.958996 -3.43048 0
M  V30 2737 O 250.767 -1.22776 -5.3253 0
M  V30 2738 H 247.861 -0.15098 -0.813101 0
M  V30 2739 H 250.407 -1.01016 -1.36359 0
M  V30 2740 H 249.179 -2.05392 -3.33061 0
M  V30 2741 H 248.802 -0.454626 -3.94992 0
M  V30 2742 N 249.799 1.42003 -0.683588 0
M  V30 2743 C 251.215 1.55625 -0.353976 0
M  V30 2744 C 251.415 1.66151 1.14 0
M  V30 2745 O 250.471 1.63329 1.92561 0
M  V30 2746 C 251.784 2.80171 -1.092 0
M  V30 2747 C 253.332 2.93954 -1.07518 0
M  V30 2748 C 253.807 4.21372 -1.79471 0
M  V30 2749 N 255.298 4.28303 -1.76381 0
M  V30 2750 C 256.033 5.25729 -2.28904 0
M  V30 2751 N 255.529 6.29254 -2.89846 0
M  V30 2752 N 257.322 5.17586 -2.19228 0
M  V30 2753 H 249.473 1.33415 -1.6527 0
M  V30 2754 H 251.736 0.64282 -0.696769 0
M  V30 2755 H 251.442 2.78561 -2.14701 0
M  V30 2756 H 251.316 3.7133 -0.662862 0
M  V30 2757 H 253.703 2.95086 -0.028475 0
M  V30 2758 H 253.784 2.04002 -1.54328 0
M  V30 2759 H 253.428 4.21001 -2.84114 0
M  V30 2760 H 253.358 5.10275 -1.30104 0
M  V30 2761 H 255.849 3.54119 -1.31939 0
M  V30 2762 H 256.162 6.99964 -3.27522 0
M  V30 2763 H 254.507 6.29791 -2.93919 0
M  V30 2764 H 257.698 4.35631 -1.71299 0
M  V30 2765 H 257.871 5.93348 -2.60466 0
M  V30 2766 N 251.277 0.427512 1.51691 0
M  V30 2767 C 252.187 -0.39527 2.31246 0
M  V30 2768 C 253.203 -1.03674 1.39742 0
M  V30 2769 O 254.379 -1.03425 1.72816 0
M  V30 2770 C 251.444 -1.48706 3.13189 0
M  V30 2771 C 250.505 -0.866743 4.20459 0
M  V30 2772 C 249.738 -1.90651 4.98486 0
M  V30 2773 O 249.961 -3.12733 4.77026 0
M  V30 2774 O 248.895 -1.5025 5.82845 0
M  V30 2775 H 252.721 0.253918 3.02637 0
M  V30 2776 H 250.306 0.190274 1.48183 0
M  V30 2777 H 252.188 -2.12047 3.64162 0
M  V30 2778 H 250.863 -2.12051 2.44573 0
M  V30 2779 H 249.77 -0.195544 3.73589 0
M  V30 2780 H 251.103 -0.276934 4.9142 0
M  V30 2781 N 252.755 -1.56801 0.158532 0
M  V30 2782 C 254.002 -1.9649 -0.489679 0
M  V30 2783 C 254.33 -1.04394 -1.6411 0
M  V30 2784 O 253.585 -0.0754401 -1.95555 0
M  V30 2785 C 253.884 -3.4235 -1.02623 0
M  V30 2786 C 253.55 -4.50899 0.00794526 0
M  V30 2787 C 252.212 -4.80312 0.292207 0
M  V30 2788 C 254.564 -5.16333 0.710584 0
M  V30 2789 C 251.892 -5.72461 1.28472 0
M  V30 2790 C 254.244 -6.09553 1.69199 0
M  V30 2791 C 252.908 -6.37339 1.98383 0
M  V30 2792 H 252.178 -0.719009 -0.179186 0
M  V30 2793 H 254.825 -1.8989 0.247798 0
M  V30 2794 H 253.13 -3.45838 -1.84128 0
M  V30 2795 H 254.827 -3.70393 -1.53656 0
M  V30 2796 H 251.417 -4.28015 -0.22379 0
M  V30 2797 H 255.601 -4.93732 0.504174 0
M  V30 2798 H 250.857 -5.92278 1.51714 0
M  V30 2799 H 255.031 -6.59327 2.24189 0
M  V30 2800 H 252.658 -7.08546 2.7544 0
M  V30 2801 N 254.233 0.115231 -1.57178 0
M  V30 2802 C 255.481 0.820727 -1.84685 0
M  V30 2803 C 255.802 1.80237 -0.744279 0
M  V30 2804 O 255.072 1.94529 0.231375 0
M  V30 2805 H 253.652 0.306084 -0.681411 0
M  V30 2806 H 256.314 0.101656 -1.94635 0
M  V30 2807 H 255.41 1.36366 -2.80733 0
M  V30 2808 N 255.711 1.52812 0.385517 0
M  V30 2809 C 257.127 1.4214 0.725829 0
M  V30 2810 C 257.327 0.544589 1.94001 0
M  V30 2811 O 256.383 0.0193693 2.52493 0
M  V30 2812 C 257.696 2.85042 0.957668 0
M  V30 2813 C 259.244 2.94543 1.05892 0
M  V30 2814 C 259.719 4.38464 1.32337 0
M  V30 2815 N 261.21 4.41804 1.39151 0
M  V30 2816 C 261.945 5.5025 1.61285 0
M  V30 2817 N 261.441 6.68775 1.80866 0
M  V30 2818 N 263.234 5.37798 1.63492 0
M  V30 2819 H 255.385 2.08338 -0.413383 0
M  V30 2820 H 257.648 0.940016 -0.122775 0
M  V30 2821 H 257.354 3.51431 0.137568 0
M  V30 2822 H 257.228 3.27505 1.87137 0
M  V30 2823 H 259.615 2.28321 1.86959 0
M  V30 2824 H 259.696 2.55504 0.123057 0
M  V30 2825 H 259.34 5.05254 0.517793 0
M  V30 2826 H 259.27 4.75059 2.27214 0
M  V30 2827 H 261.761 3.56377 1.25713 0
M  V30 2828 H 262.074 7.47197 1.97271 0
M  V30 2829 H 260.419 6.71797 1.78083 0
M  V30 2830 H 263.61 4.44171 1.47749 0
M  V30 2831 H 263.783 6.22382 1.80402 0
M  V30 2832 N 257.189 -0.644168 1.43834 0
M  V30 2833 C 258.136 -1.75671 1.49694 0
M  V30 2834 C 259.106 -1.6246 0.345809 0
M  V30 2835 O 260.291 -1.82573 0.554234 0
M  V30 2836 C 257.431 -3.13867 1.43463 0
M  V30 2837 C 256.544 -3.38147 2.6885 0
M  V30 2838 C 255.679 -4.66241 2.54544 0
M  V30 2839 C 254.718 -4.83657 3.75157 0
M  V30 2840 N 253.855 -6.03016 3.59605 0
M  V30 2841 H 258.695 -1.69998 2.44754 0
M  V30 2842 H 256.232 -0.829458 1.21484 0
M  V30 2843 H 258.19 -3.9377 1.37843 0
M  V30 2844 H 256.82 -3.18588 0.519783 0
M  V30 2845 H 255.872 -2.52276 2.84712 0
M  V30 2846 H 257.184 -3.46899 3.58417 0
M  V30 2847 H 256.338 -5.54285 2.46683 0
M  V30 2848 H 255.077 -4.59826 1.62516 0
M  V30 2849 H 254.082 -3.94046 3.83416 0
M  V30 2850 H 255.307 -4.91896 4.68204 0
M  V30 2851 H 253.253 -5.97715 2.7032 0
M  V30 2852 H 253.17 -6.12766 4.42779 0
M  V30 2853 H 254.438 -6.93657 3.55613 0
M  V30 2854 N 258.668 -1.30515 -0.883378 0
M  V30 2855 C 259.598 -1.19607 -2.00541 0
M  V30 2856 C 260.579 -0.086346 -1.69881 0
M  V30 2857 O 261.764 -0.268654 -1.92333 0
M  V30 2858 C 258.894 -0.888758 -3.35736 0
M  V30 2859 C 257.848 -1.95659 -3.8066 0
M  V30 2860 C 257.174 -1.50224 -5.13164 0
M  V30 2861 C 258.474 -3.36788 -3.99213 0
M  V30 2862 H 260.168 -2.13476 -2.09925 0
M  V30 2863 H 257.714 -1.02775 -1.00863 0
M  V30 2864 H 259.667 -0.799094 -4.13754 0
M  V30 2865 H 258.391 0.0856125 -3.26488 0
M  V30 2866 H 257.05 -2.03591 -3.04871 0
M  V30 2867 H 256.698 -0.516092 -5.00345 0
M  V30 2868 H 256.398 -2.2165 -5.44192 0
M  V30 2869 H 257.922 -1.42639 -5.93706 0
M  V30 2870 H 259.336 -3.31605 -4.67665 0
M  V30 2871 H 257.733 -4.06314 -4.41621 0
M  V30 2872 H 258.803 -3.78561 -3.03017 0
M  V30 2873 N 260.146 1.09593 -1.13257 0
M  V30 2874 C 261.394 1.81375 -0.891492 0
M  V30 2875 C 261.715 1.86049 0.584009 0
M  V30 2876 O 260.985 1.34481 1.42449 0
M  V30 2877 H 259.565 0.671708 -0.326828 0
M  V30 2878 H 262.227 1.3256 -1.42877 0
M  V30 2879 H 261.323 2.84612 -1.28071 0
M  V30 2880 N 261.624 0.925811 1.2754 0
M  V30 2881 C 262.871 0.565255 1.94451 0
M  V30 2882 C 263.199 -0.89316 1.7278 0
M  V30 2883 O 262.454 -1.65213 1.04895 0
M  V30 2884 C 262.753 0.835296 3.47502 0
M  V30 2885 C 262.419 2.27515 3.89291 0
M  V30 2886 C 261.081 2.66879 4.00411 0
M  V30 2887 C 263.433 3.21158 4.10496 0
M  V30 2888 C 260.761 3.99014 4.30122 0
M  V30 2889 C 263.113 4.52871 4.4169 0
M  V30 2890 C 261.777 4.92072 4.51023 0
M  V30 2891 H 261.047 0.206841 0.711546 0
M  V30 2892 H 263.694 1.16942 1.51647 0
M  V30 2893 H 261.999 0.148442 3.91519 0
M  V30 2894 H 263.696 0.535322 3.97411 0
M  V30 2895 H 260.286 1.95976 3.81171 0
M  V30 2896 H 264.47 2.9195 4.01346 0
M  V30 2897 H 259.726 4.2907 4.35556 0
M  V30 2898 H 263.9 5.25436 4.57045 0
M  V30 2899 H 261.527 5.9449 4.738 0
M  V30 2900 N 263.102 -1.41638 0.69111 0
M  V30 2901 C 264.513 -1.84346 0.295517 0
M  V30 2902 C 264.864 -1.57833 -1.16547 0
M  V30 2903 O 263.989 -1.04648 -1.89414 0
M  V30 2904 C 264.584 -3.34636 0.529575 0
M  V30 2905 C 263.143 -3.7593 0.187944 0
M  V30 2906 C 262.29 -2.65082 0.814052 0
M  V30 2907 H 265.241 -1.31253 0.892092 0
M  V30 2908 H 265.262 -3.79903 -0.213148 0
M  V30 2909 H 264.774 -3.53901 1.59297 0
M  V30 2910 H 262.875 -3.62268 -0.871367 0
M  V30 2911 H 262.988 -4.74808 0.63985 0
M  V30 2912 H 261.352 -2.53528 0.244017 0
M  V30 2913 H 262.135 -2.87167 1.88123 0
M  V30 2914 N 264.58 -0.43555 -1.51462 0
M  V30 2915 C 265.808 0.130242 -2.0649 0
M  V30 2916 C 266.223 1.36614 -1.30315 0
M  V30 2917 O 265.58 1.78869 -0.362223 0
M  V30 2918 C 265.631 0.454253 -3.58635 0
M  V30 2919 O 265.352 -0.73259 -4.31931 0
M  V30 2920 C 266.853 1.07091 -4.3017 0
M  V30 2921 H 264.073 0.00871669 -0.670943 0
M  V30 2922 H 266.617 -0.614117 -1.95061 0
M  V30 2923 H 264.772 1.14851 -3.69984 0
M  V30 2924 H 265.186 -0.455787 -5.22516 0
M  V30 2925 H 266.66 1.24764 -5.37716 0
M  V30 2926 H 267.137 2.05144 -3.88346 0
M  V30 2927 H 267.743 0.416089 -4.2326 0
M  V30 2928 N 266.058 1.56714 -0.166846 0
M  V30 2929 C 267.021 2.16539 0.751232 0
M  V30 2930 C 268.021 1.11228 1.16125 0
M  V30 2931 O 269.211 1.36765 1.07894 0
M  V30 2932 C 266.343 2.74462 2.02196 0
M  V30 2933 H 267.536 2.99013 0.230499 0
M  V30 2934 H 265.089 1.56081 0.0826982 0
M  V30 2935 H 265.824 1.95709 2.58589 0
M  V30 2936 H 265.609 3.51527 1.73698 0
M  V30 2937 H 267.099 3.20489 2.67725 0
M  V30 2938 N 267.536 -0.106894 1.57237 0
M  V30 2939 C 268.484 -1.14944 2.02215 0
M  V30 2940 C 269.478 -1.42167 0.92114 0
M  V30 2941 O 270.684 -1.41987 1.10634 0
M  V30 2942 H 267.059 -0.387841 0.64427 0
M  V30 2943 H 269.03 -0.743683 2.88984 0
M  V30 2944 C 267.779 -2.4647 2.4525 0
M  V30 2945 H 267.102 -2.26363 3.29545 0
M  V30 2946 H 268.542 -3.17948 2.80508 0
M  V30 2947 C 267.001 -3.09921 1.321 0
M  V30 2948 O 267.531 -3.9651 0.643622 0
M  V30 2949 N 265.737 -2.69986 1.07497 0
M  V30 2950 H 265.284 -1.99667 1.62761 0
M  V30 2951 H 265.242 -3.12769 0.319876 0
M  V30 2952 N 269.014 -1.53014 -0.377408 0
M  V30 2953 C 270.263 -1.67845 -1.11853 0
M  V30 2954 C 270.576 -0.430625 -1.90801 0
M  V30 2955 O 271.782 -0.459261 -2.67587 0
M  V30 2956 C 270.238 -2.96668 -2.03756 0
M  V30 2957 C 269.846 -4.28671 -1.30175 0
M  V30 2958 C 271.59 -3.20865 -2.77932 0
M  V30 2959 C 269.497 -5.48591 -2.20911 0
M  V30 2960 H 268.427 -0.625343 -0.421263 0
M  V30 2961 H 271.078 -1.79514 -0.380409 0
M  V30 2962 H 269.46 -2.78773 -2.8125 0
M  V30 2963 H 270.634 -4.57157 -0.578259 0
M  V30 2964 H 268.949 -4.10825 -0.679108 0
M  V30 2965 H 271.546 -4.07642 -3.46024 0
M  V30 2966 H 271.889 -2.36424 -3.4265 0
M  V30 2967 H 272.422 -3.39379 -2.07525 0
M  V30 2968 H 269.161 -6.35474 -1.6079 0
M  V30 2969 H 268.681 -5.244 -2.91144 0
M  V30 2970 H 270.36 -5.8292 -2.80736 0
M  V30 2971 N 270.492 0.636531 -1.44174 0
M  V30 2972 C 271.769 1.39463 -1.37148 0
M  V30 2973 C 272.149 2.11082 -0.027507 0
M  V30 2974 O 271.497 2.05954 0.989716 0
M  V30 2975 C 271.707 2.36552 -2.56601 0
M  V30 2976 C 273.055 3.00048 -3.00427 0
M  V30 2977 O 274.079 2.46878 -2.56767 0
M  V30 2978 O 272.938 3.96488 -3.76111 0
M  V30 2979 H 270.032 0.623903 -0.542839 0
M  V30 2980 H 272.578 0.662039 -1.56253 0
M  V30 2981 H 271.35 1.82692 -3.46034 0
M  V30 2982 H 270.973 3.17236 -2.39681 0
M  V30 2983 N 271.97 1.30982 0.876444 0
M  V30 2984 C 273.386 1.09498 1.16113 0
M  V30 2985 C 273.586 -0.13875 2.01022 0
M  V30 2986 O 272.642 -0.829935 2.38471 0
M  V30 2987 C 273.955 2.36308 1.85954 0
M  V30 2988 C 275.503 2.41856 1.98683 0
M  V30 2989 C 275.978 3.6853 2.71937 0
M  V30 2990 N 277.469 3.69387 2.79477 0
M  V30 2991 C 278.204 4.64096 3.36753 0
M  V30 2992 N 277.7 5.69155 3.95012 0
M  V30 2993 N 279.493 4.51626 3.3465 0
M  V30 2994 H 271.644 2.10118 0.310494 0
M  V30 2995 H 273.907 0.926634 0.200131 0
M  V30 2996 H 273.613 3.26388 1.31011 0
M  V30 2997 H 273.487 2.4561 2.86278 0
M  V30 2998 H 275.874 1.52249 2.52793 0
M  V30 2999 H 275.955 2.36523 0.9742 0
M  V30 3000 H 275.599 4.58499 2.18496 0
M  V30 3001 H 275.529 3.71127 3.73593 0
M  V30 3002 H 278.02 2.93438 2.38123 0
M  V30 3003 H 278.333 6.3751 4.36808 0
M  V30 3004 H 276.678 5.72937 3.93406 0
M  V30 3005 H 279.869 3.68728 2.8837 0
M  V30 3006 H 280.042 5.25614 3.7899 0
M  V30 3007 N 273.449 -1.08991 1.13837 0
M  V30 3008 C 274.697 -1.80899 0.901098 0
M  V30 3009 C 275.018 -1.86356 -0.574134 0
M  V30 3010 O 274.288 -1.35235 -1.41733 0
M  V30 3011 H 272.868 -0.669966 0.330386 0
M  V30 3012 H 275.53 -1.318 1.43578 0
M  V30 3013 H 274.626 -2.83929 1.29578 0
M  V30 3014 N 274.927 -0.932562 -1.27047 0
M  V30 3015 C 275.875 -0.42603 -2.28665 0
M  V30 3016 C 276.869 0.49219 -1.62092 0
M  V30 3017 O 278.075 0.371355 -1.76128 0
M  V30 3018 H 274.45 -0.119213 -0.742491 0
M  V30 3019 H 276.421 -1.29579 -2.68797 0
M  V30 3020 C 275.17 0.301426 -3.46391 0
M  V30 3021 H 274.493 -0.39595 -3.97834 0
M  V30 3022 H 275.933 0.6202 -4.1944 0
M  V30 3023 C 274.392 1.51616 -3.00856 0
M  V30 3024 O 274.922 2.61476 -3.04948 0
M  V30 3025 N 273.128 1.36969 -2.56296 0
M  V30 3026 H 272.675 0.475873 -2.53166 0
M  V30 3027 H 272.633 2.18368 -2.26192 0
M  V30 3028 N 276.405 1.4127 -0.698611 0
M  V30 3029 C 277.315 2.34573 -0.0357891 0
M  V30 3030 C 278.331 1.56393 0.762701 0
M  V30 3031 O 279.507 1.8886 0.699564 0
M  V30 3032 C 276.572 3.35159 0.887089 0
M  V30 3033 C 275.633 4.29225 0.0804634 0
M  V30 3034 C 274.866 5.25006 0.959387 0
M  V30 3035 O 275.089 5.26314 2.19886 0
M  V30 3036 O 274.023 6.00519 0.407439 0
M  V30 3037 H 277.849 2.92838 -0.804957 0
M  V30 3038 H 275.434 1.42175 -0.458966 0
M  V30 3039 H 277.316 3.9689 1.41621 0
M  V30 3040 H 275.991 2.79333 1.6357 0
M  V30 3041 H 274.898 3.70833 -0.493328 0
M  V30 3042 H 276.231 4.88157 -0.629547 0
M  V30 3043 N 277.883 0.443576 1.51229 0
M  V30 3044 C 278.83 -0.364716 2.279 0
M  V30 3045 C 279.8 -1.0114 1.31757 0
M  V30 3046 O 280.985 -1.02912 1.60667 0
M  V30 3047 C 278.125 -1.45644 3.12861 0
M  V30 3048 C 277.238 -0.827269 4.24005 0
M  V30 3049 C 276.373 -1.89456 4.96266 0
M  V30 3050 C 275.412 -1.24416 5.99322 0
M  V30 3051 N 274.549 -2.25309 6.64966 0
M  V30 3052 H 279.389 0.295464 2.96532 0
M  V30 3053 H 276.926 0.157554 1.46254 0
M  V30 3054 H 278.884 -2.10076 3.6045 0
M  V30 3055 H 277.514 -2.08616 2.46331 0
M  V30 3056 H 276.566 -0.0710839 3.80334 0
M  V30 3057 H 277.878 -0.312481 4.9782 0
M  V30 3058 H 277.032 -2.61535 5.47434 0
M  V30 3059 H 275.771 -2.4431 4.22095 0
M  V30 3060 H 274.776 -0.508868 5.4744 0
M  V30 3061 H 276.001 -0.702882 6.75453 0
M  V30 3062 H 273.947 -2.79231 5.93604 0
M  V30 3063 H 273.864 -1.78739 7.34567 0
M  V30 3064 H 275.132 -2.96853 7.20763 0
M  V30 3065 N 279.361 -1.56624 0.175154 0
M  V30 3066 C 280.291 -2.21155 -0.749195 0
M  V30 3067 C 281.272 -1.16836 -1.23626 0
M  V30 3068 O 282.457 -1.45277 -1.28873 0
M  V30 3069 C 279.587 -2.8553 -1.97711 0
M  V30 3070 C 278.541 -3.95921 -1.62575 0
M  V30 3071 C 277.867 -4.47365 -2.92864 0
M  V30 3072 C 279.167 -5.15323 -0.850838 0
M  V30 3073 H 280.861 -2.98653 -0.211295 0
M  V30 3074 H 278.407 -1.43651 -0.100188 0
M  V30 3075 H 280.36 -3.2935 -2.62881 0
M  V30 3076 H 279.084 -2.05406 -2.53921 0
M  V30 3077 H 277.743 -3.52762 -0.997719 0
M  V30 3078 H 277.391 -3.64027 -3.47122 0
M  V30 3079 H 277.091 -5.21839 -2.70106 0
M  V30 3080 H 278.615 -4.93873 -3.59056 0
M  V30 3081 H 280.029 -5.55812 -1.40521 0
M  V30 3082 H 278.426 -5.95739 -0.722154 0
M  V30 3083 H 279.496 -4.84661 0.152082 0
M  V30 3084 N 280.839 0.0985539 -1.57292 0
M  V30 3085 C 282.085 0.803867 -1.86188 0
M  V30 3086 C 282.418 1.78549 -0.763794 0
M  V30 3087 O 281.693 1.93153 0.22855 0
M  V30 3088 C 281.976 1.53568 -3.25713 0
M  V30 3089 C 281.829 0.572277 -4.46145 0
M  V30 3090 C 283.148 2.48708 -3.63087 0
M  V30 3091 H 280.267 0.290781 -0.677211 0
M  V30 3092 H 282.909 0.0675783 -1.8988 0
M  V30 3093 H 281.059 2.16332 -3.22696 0
M  V30 3094 H 282.731 -0.0480894 -4.61275 0
M  V30 3095 H 280.974 -0.114618 -4.33649 0
M  V30 3096 H 281.645 1.12139 -5.40489 0
M  V30 3097 H 284.121 1.96039 -3.67026 0
M  V30 3098 H 282.997 2.96932 -4.61652 0
M  V30 3099 H 283.258 3.32309 -2.91588 0
M  V30 3100 N 282.317 1.53212 0.369288 0
M  V30 3101 C 283.594 1.59815 1.12776 0
M  V30 3102 C 283.974 0.403402 2.0721 0
M  V30 3103 O 283.322 -0.606667 2.20299 0
M  V30 3104 C 283.532 2.94664 1.87013 0
M  V30 3105 C 284.88 3.49109 2.41677 0
M  V30 3106 O 285.904 2.96669 1.97144 0
M  V30 3107 O 284.763 4.40775 3.23079 0
M  V30 3108 H 281.857 0.645376 0.517125 0
M  V30 3109 H 284.403 1.65553 0.37285 0
M  V30 3110 H 283.175 3.73061 1.18071 0
M  V30 3111 H 282.798 2.92401 2.69421 0
M  V30 3112 N 283.795 -0.628877 1.44509 0
M  V30 3113 C 284.725 -1.75187 1.54376 0
M  V30 3114 C 285.706 -1.65411 0.396618 0
M  V30 3115 O 286.891 -1.84137 0.617031 0
M  V30 3116 C 284.021 -3.13725 1.48976 0
M  V30 3117 C 282.975 -3.38291 2.62189 0
M  V30 3118 C 282.301 -4.76883 2.41841 0
M  V30 3119 C 283.601 -3.30632 4.04326 0
M  V30 3120 H 285.295 -1.67187 2.48373 0
M  V30 3121 H 282.841 -0.802909 1.19538 0
M  V30 3122 H 284.794 -3.92064 1.54478 0
M  V30 3123 H 283.518 -3.22515 0.514961 0
M  V30 3124 H 282.177 -2.62334 2.56079 0
M  V30 3125 H 281.825 -4.82378 1.42548 0
M  V30 3126 H 281.525 -4.94278 3.17747 0
M  V30 3127 H 283.049 -5.57449 2.49165 0
M  V30 3128 H 284.463 -3.98873 4.11793 0
M  V30 3129 H 282.86 -3.59561 4.80454 0
M  V30 3130 H 283.93 -2.28404 4.27738 0
M  V30 3131 N 285.273 -1.31445 -0.869486 0
M  V30 3132 C 286.22 -1.19135 -1.97675 0
M  V30 3133 C 287.19 -0.0770266 -1.65921 0
M  V30 3134 O 288.375 -0.249972 -1.89155 0
M  V30 3135 C 285.515 -0.905149 -3.33018 0
M  V30 3136 C 284.628 -2.10285 -3.77365 0
M  V30 3137 C 283.763 -1.75339 -5.01427 0
M  V30 3138 C 282.802 -2.91515 -5.38224 0
M  V30 3139 N 281.939 -2.56762 -6.53466 0
M  V30 3140 H 286.779 -2.13853 -2.07535 0
M  V30 3141 H 284.316 -1.06379 -1.01597 0
M  V30 3142 H 286.274 -0.719765 -4.10944 0
M  V30 3143 H 284.904 0.00519624 -3.228 0
M  V30 3144 H 283.956 -2.39899 -2.95216 0
M  V30 3145 H 285.268 -2.97237 -4.00564 0
M  V30 3146 H 284.422 -1.53266 -5.87022 0
M  V30 3147 H 283.161 -0.855801 -4.80133 0
M  V30 3148 H 282.166 -3.14237 -4.51149 0
M  V30 3149 H 283.391 -3.81985 -5.61484 0
M  V30 3150 H 281.337 -1.69526 -6.33717 0
M  V30 3151 H 281.254 -3.37243 -6.76612 0
M  V30 3152 H 282.522 -2.38083 -7.42251 0
M  V30 3153 N 286.751 1.08385 -1.14413 0
M  V30 3154 C 288.167 1.32844 -0.884563 0
M  V30 3155 C 288.367 1.95841 0.474181 0
M  V30 3156 O 287.423 2.21158 1.21842 0
M  V30 3157 C 288.736 2.22978 -2.01745 0
M  V30 3158 C 290.284 2.36458 -2.05077 0
M  V30 3159 C 290.759 3.29934 -3.1766 0
M  V30 3160 N 292.25 3.37511 -3.17239 0
M  V30 3161 C 292.985 4.09871 -4.0099 0
M  V30 3162 N 292.481 4.84936 -4.94781 0
M  V30 3163 N 294.274 4.05704 -3.89051 0
M  V30 3164 H 286.425 0.658756 -2.01926 0
M  V30 3165 H 288.688 0.352821 -0.879899 0
M  V30 3166 H 288.394 1.83934 -2.99769 0
M  V30 3167 H 288.268 3.23441 -1.94077 0
M  V30 3168 H 290.655 2.7476 -1.0766 0
M  V30 3169 H 290.736 1.35736 -2.16816 0
M  V30 3170 H 290.38 2.92352 -4.15322 0
M  V30 3171 H 290.31 4.30584 -3.03158 0
M  V30 3172 H 292.801 2.83996 -2.49308 0
M  V30 3173 H 293.114 5.37612 -5.55151 0
M  V30 3174 H 291.459 4.83988 -4.98779 0
M  V30 3175 H 294.65 3.46167 -3.15097 0
M  V30 3176 H 294.823 4.61834 -4.54547 0
M  V30 3177 N 288.23 0.939286 1.26551 0
M  V30 3178 C 289.478 0.58469 1.93457 0
M  V30 3179 C 289.799 -0.878774 1.74076 0
M  V30 3180 O 289.069 -1.62421 1.09528 0
M  V30 3181 H 287.649 0.21325 0.715914 0
M  V30 3182 H 290.311 1.1942 1.54029 0
M  V30 3183 H 289.407 0.800849 3.0165 0
M  V30 3184 N 289.708 -1.40897 0.706093 0
M  V30 3185 C 290.954 -2.01352 0.241889 0
M  V30 3186 C 291.287 -1.55832 -1.15888 0
M  V30 3187 O 290.562 -0.774145 -1.7843 0
M  V30 3188 C 290.845 -3.58752 0.311311 0
M  V30 3189 C 290.698 -4.1437 1.74978 0
M  V30 3190 C 292.017 -4.38914 -0.322922 0
M  V30 3191 H 289.136 -0.731562 0.0893687 0
M  V30 3192 H 291.778 -1.67504 0.896802 0
M  V30 3193 H 289.928 -3.87718 -0.246302 0
M  V30 3194 H 291.6 -3.96239 2.36205 0
M  V30 3195 H 289.843 -3.69016 2.28057 0
M  V30 3196 H 290.514 -5.23532 1.74981 0
M  V30 3197 H 292.99 -4.15822 0.152089 0
M  V30 3198 H 291.866 -5.48358 -0.243855 0
M  V30 3199 H 292.127 -4.19176 -1.40513 0
M  V30 3200 N 291.186 -0.45159 -1.50991 0
M  V30 3201 C 292.416 0.108177 -2.06317 0
M  V30 3202 C 292.824 1.35774 -1.31765 0
M  V30 3203 O 292.167 1.79838 -0.374694 0
M  V30 3204 C 292.229 0.481659 -3.56259 0
M  V30 3205 C 291.893 -0.663114 -4.52163 0
M  V30 3206 C 292.89 -1.53947 -4.96585 0
M  V30 3207 C 290.575 -0.8479 -4.95092 0
M  V30 3208 C 292.569 -2.58518 -5.82621 0
M  V30 3209 C 290.256 -1.89686 -5.80915 0
M  V30 3210 C 291.254 -2.76388 -6.24579 0
M  V30 3211 O 290.942 -3.79482 -7.08695 0
M  V30 3212 H 290.674 0.00499183 -0.675982 0
M  V30 3213 H 293.228 -0.633659 -1.95381 0
M  V30 3214 H 291.458 1.27641 -3.65027 0
M  V30 3215 H 293.147 0.974233 -3.94035 0
M  V30 3216 H 293.913 -1.4083 -4.64103 0
M  V30 3217 H 289.792 -0.18258 -4.60638 0
M  V30 3218 H 293.336 -3.26224 -6.16623 0
M  V30 3219 H 289.233 -2.02817 -6.12809 0
M  V30 3220 H 290.001 -3.76234 -7.26905 0
M  V30 3221 N 292.664 1.56529 -0.183458 0
M  V30 3222 C 293.594 2.21549 0.737456 0
M  V30 3223 C 294.575 1.17489 1.23005 0
M  V30 3224 O 295.76 1.45959 1.281 0
M  V30 3225 C 292.89 2.86575 1.96194 0
M  V30 3226 C 291.844 3.96778 1.60473 0
M  V30 3227 C 291.17 4.48911 2.90487 0
M  V30 3228 C 292.47 5.15767 0.823497 0
M  V30 3229 H 294.164 2.98761 0.195453 0
M  V30 3230 H 291.71 1.43702 0.0925686 0
M  V30 3231 H 293.663 3.30739 2.61131 0
M  V30 3232 H 292.387 2.06749 2.52828 0
M  V30 3233 H 291.046 3.53286 0.978997 0
M  V30 3234 H 290.694 3.65862 3.45186 0
M  V30 3235 H 290.394 5.23265 2.67335 0
M  V30 3236 H 291.918 4.95771 3.56432 0
M  V30 3237 H 293.332 5.56549 1.37571 0
M  V30 3238 H 291.729 5.96114 0.690551 0
M  V30 3239 H 292.799 4.84574 -0.177782 0
M  V30 3240 N 294.142 -0.090211 1.57342 0
M  V30 3241 C 295.388 -0.793982 1.86611 0
M  V30 3242 C 295.721 -1.78142 0.773252 0
M  V30 3243 O 294.996 -1.93271 -0.218304 0
M  V30 3244 C 295.279 -1.51839 3.26523 0
M  V30 3245 C 295.132 -0.548609 4.46442 0
M  V30 3246 C 296.451 -2.46779 3.64401 0
M  V30 3247 H 293.57 -0.287186 0.678744 0
M  V30 3248 H 296.212 -0.0575076 1.89913 0
M  V30 3249 H 294.362 -2.14617 3.23839 0
M  V30 3250 H 296.034 0.0725513 4.61243 0
M  V30 3251 H 294.277 0.137614 4.33582 0
M  V30 3252 H 294.948 -1.09271 5.41076 0
M  V30 3253 H 297.424 -1.94089 3.68061 0
M  V30 3254 H 296.3 -2.94479 4.63221 0
M  V30 3255 H 296.561 -3.30758 2.93346 0
M  V30 3256 N 295.62 -1.53406 -0.361157 0
M  V30 3257 C 297.036 -1.43277 -0.703124 0
M  V30 3258 C 297.236 -0.575384 -1.9311 0
M  V30 3259 O 296.292 -0.0595362 -2.5243 0
M  V30 3260 C 297.605 -2.8653 -0.9122 0
M  V30 3261 C 299.153 -2.96191 -1.01193 0
M  V30 3262 C 299.628 -4.40514 -1.25345 0
M  V30 3263 N 301.119 -4.43962 -1.32105 0
M  V30 3264 C 301.854 -5.52746 -1.5251 0
M  V30 3265 N 301.35 -6.71567 -1.70203 0
M  V30 3266 N 303.143 -5.40331 -1.54916 0
M  V30 3267 H 295.294 -2.07654 0.446475 0
M  V30 3268 H 297.557 -0.937944 0.137715 0
M  V30 3269 H 297.263 -3.51605 -0.0816414 0
M  V30 3270 H 297.137 -3.30441 -1.81903 0
M  V30 3271 H 299.524 -2.31266 -1.83303 0
M  V30 3272 H 299.605 -2.55667 -0.0823929 0
M  V30 3273 H 299.249 -5.06014 -0.437346 0
M  V30 3274 H 299.179 -4.78614 -2.19627 0
M  V30 3275 H 301.67 -3.58332 -1.20028 0
M  V30 3276 H 301.983 -7.50241 -1.85359 0
M  V30 3277 H 300.328 -6.74545 -1.67373 0
M  V30 3278 H 303.519 -4.46465 -1.40663 0
M  V30 3279 H 303.692 -6.25173 -1.70477 0
M  V30 3280 N 297.098 0.621204 -1.44841 0
M  V30 3281 C 298.344 1.3826 -1.48365 0
M  V30 3282 C 298.677 1.93831 -0.119624 0
M  V30 3283 O 297.952 1.74251 0.864111 0
M  V30 3284 C 298.235 2.54058 -2.55199 0
M  V30 3285 C 298.088 2.03772 -4.00995 0
M  V30 3286 C 299.407 3.56225 -2.58442 0
M  V30 3287 H 296.526 0.501374 -0.540179 0
M  V30 3288 H 299.168 0.7015 -1.76576 0
M  V30 3289 H 297.318 3.12162 -2.31274 0
M  V30 3290 H 298.99 1.50423 -4.36086 0
M  V30 3291 H 297.233 1.34876 -4.12299 0
M  V30 3292 H 297.904 2.87185 -4.71411 0
M  V30 3293 H 300.38 3.07939 -2.79844 0
M  V30 3294 H 299.256 4.34756 -3.3508 0
M  V30 3295 H 299.517 4.10949 -1.63013 0
M  V30 3296 N 298.576 1.31904 0.862503 0
M  V30 3297 C 299.526 1.16772 1.95827 0
M  V30 3298 C 300.51 0.0767098 1.60717 0
M  V30 3299 O 301.702 0.302407 1.74398 0
M  V30 3300 C 298.831 0.884858 3.317 0
M  V30 3301 C 297.917 2.0172 3.73055 0
M  V30 3302 N 298.308 3.265 3.86305 0
M  V30 3303 C 296.606 1.91861 4.02623 0
M  V30 3304 C 297.307 4.00616 4.2176 0
M  V30 3305 N 296.283 3.28847 4.32852 0
M  V30 3306 H 300.085 2.11382 2.04193 0
M  V30 3307 H 297.599 1.2357 1.05377 0
M  V30 3308 H 299.596 0.757419 4.09962 0
M  V30 3309 H 298.256 -0.0529448 3.24657 0
M  V30 3310 H 299.267 3.61529 3.70833 0
M  V30 3311 H 295.944 1.05593 4.03926 0
M  V30 3312 H 297.334 5.08182 4.39546 0
M  V30 3313 N 300.054 -1.07777 1.14986 0
M  V30 3314 C 300.984 -2.16865 0.865557 0
M  V30 3315 C 301.965 -1.69123 -0.182083 0
M  V30 3316 O 303.15 -1.94164 -0.0373815 0
M  V30 3317 C 300.28 -3.45539 0.349313 0
M  V30 3318 C 299.234 -4.06708 1.33313 0
M  V30 3319 C 298.56 -5.30411 0.675918 0
M  V30 3320 C 299.86 -4.47241 2.69764 0
M  V30 3321 H 301.554 -2.40905 1.77778 0
M  V30 3322 H 299.1 -1.15781 0.856203 0
M  V30 3323 H 301.053 -4.21174 0.137983 0
M  V30 3324 H 299.777 -3.21072 -0.598362 0
M  V30 3325 H 298.436 -3.33112 1.53075 0
M  V30 3326 H 298.084 -5.02232 -0.277767 0
M  V30 3327 H 297.784 -5.72293 1.33244 0
M  V30 3328 H 299.308 -6.08755 0.474262 0
M  V30 3329 H 300.722 -5.14025 2.53873 0
M  V30 3330 H 299.119 -5.00062 3.3175 0
M  V30 3331 H 300.189 -3.58818 3.26156 0
M  V30 3332 N 301.532 -0.945985 -1.26051 0
M  V30 3333 C 302.943 -0.638096 -1.75457 0
M  V30 3334 C 303.294 0.846672 -1.76991 0
M  V30 3335 O 302.419 1.66262 -1.38513 0
M  V30 3336 C 303.014 -1.15157 -3.18629 0
M  V30 3337 C 301.573 -0.894004 -3.65629 0
M  V30 3338 C 300.72 -1.29967 -2.44957 0
M  V30 3339 H 303.671 -1.12376 -1.1206 0
M  V30 3340 H 303.692 -0.507615 -3.77099 0
M  V30 3341 H 303.204 -2.23222 -3.1748 0
M  V30 3342 H 301.305 0.172057 -3.72203 0
M  V30 3343 H 301.418 -1.52439 -4.54202 0
M  V30 3344 H 299.782 -0.718078 -2.44368 0
M  V30 3345 H 300.565 -2.38935 -2.46505 0
M  V30 3346 N 303.011 1.40521 -0.713556 0
M  V30 3347 C 304.288 1.94775 -0.17943 0
M  V30 3348 C 304.668 1.65184 1.31444 0
M  V30 3349 O 304.016 0.968429 2.06963 0
M  V30 3350 C 304.226 3.45543 -0.489986 0
M  V30 3351 C 305.574 4.22442 -0.427536 0
M  V30 3352 O 306.598 3.53644 -0.425929 0
M  V30 3353 O 305.457 5.4501 -0.403292 0
M  V30 3354 H 302.551 0.826606 -0.0255192 0
M  V30 3355 H 305.097 1.5014 -0.790949 0
M  V30 3356 H 303.869 3.60432 -1.5233 0
M  V30 3357 H 303.492 3.97311 0.151598 0
M  V30 3358 N 304.489 0.459591 1.5075 0
M  V30 3359 C 305.737 -0.0991532 2.01857 0
M  V30 3360 C 306.058 -1.41247 1.34441 0
M  V30 3361 O 305.328 -1.89775 0.486022 0
M  V30 3362 H 303.908 -0.039633 0.745948 0
M  V30 3363 H 306.57 0.607387 1.85194 0
M  V30 3364 H 305.666 -0.258998 3.11023 0
M  V30 3365 N 305.967 -1.56429 0.191757 0
M  V30 3366 C 306.914 -2.18936 -0.730454 0
M  V30 3367 C 307.884 -1.13557 -1.21219 0
M  V30 3368 O 309.069 -1.41794 -1.27668 0
M  V30 3369 C 306.209 -2.85013 -1.9458 0
M  V30 3370 C 305.322 -4.04909 -1.50574 0
M  V30 3371 C 304.457 -4.58853 -2.67634 0
M  V30 3372 C 303.496 -5.71114 -2.20217 0
M  V30 3373 N 302.633 -6.19478 -3.30442 0
M  V30 3374 H 307.473 -2.97389 -0.190664 0
M  V30 3375 H 305.01 -1.46869 -0.0823694 0
M  V30 3376 H 306.968 -3.21492 -2.65893 0
M  V30 3377 H 305.598 -2.09129 -2.45896 0
M  V30 3378 H 304.65 -3.74115 -0.688605 0
M  V30 3379 H 305.962 -4.86113 -1.11784 0
M  V30 3380 H 305.116 -4.97619 -3.47074 0
M  V30 3381 H 303.855 -3.76749 -3.09696 0
M  V30 3382 H 302.86 -5.31879 -1.3923 0
M  V30 3383 H 304.085 -6.55033 -1.79189 0
M  V30 3384 H 302.031 -5.40297 -3.72041 0
M  V30 3385 H 301.948 -6.95725 -2.9581 0
M  V30 3386 H 303.216 -6.62898 -4.10106 0
M  V30 3387 N 307.445 0.0818655 -1.57387 0
M  V30 3388 C 308.392 1.09834 -2.0299 0
M  V30 3389 C 309.362 1.39043 -0.908639 0
M  V30 3390 O 310.547 1.50282 -1.17559 0
M  V30 3391 C 307.687 2.40971 -2.47037 0
M  V30 3392 C 306.8 2.18379 -3.7274 0
M  V30 3393 C 305.935 3.43008 -4.0561 0
M  V30 3394 C 304.974 3.15736 -5.24383 0
M  V30 3395 N 304.111 4.32667 -5.52941 0
M  V30 3396 H 308.951 0.702472 -2.89602 0
M  V30 3397 H 306.488 0.33531 -1.43227 0
M  V30 3398 H 308.446 3.1752 -2.70623 0
M  V30 3399 H 307.076 2.78379 -1.63417 0
M  V30 3400 H 306.128 1.32569 -3.56552 0
M  V30 3401 H 307.44 1.94227 -4.59431 0
M  V30 3402 H 306.594 4.27958 -4.30043 0
M  V30 3403 H 305.333 3.70225 -3.17466 0
M  V30 3404 H 304.338 2.2918 -4.99757 0
M  V30 3405 H 305.563 2.8985 -6.14136 0
M  V30 3406 H 303.509 4.59935 -4.67756 0
M  V30 3407 H 303.426 4.11753 -6.34031 0
M  V30 3408 H 304.694 5.18644 -5.81918 0
M  V30 3409 N 308.923 1.53595 0.353017 0
M  V30 3410 C 309.87 1.80919 1.43308 0
M  V30 3411 C 310.84 0.654288 1.5267 0
M  V30 3412 O 312.025 0.897759 1.6836 0
M  V30 3413 C 309.165 2.01605 2.80089 0
M  V30 3414 C 308.278 3.29321 2.79593 0
M  V30 3415 C 307.413 3.40125 4.0803 0
M  V30 3416 C 306.452 4.61826 4.01725 0
M  V30 3417 N 305.589 4.69716 5.21834 0
M  V30 3418 H 310.429 2.73074 1.19308 0
M  V30 3419 H 307.966 1.35263 0.578131 0
M  V30 3420 H 309.924 2.11586 3.59565 0
M  V30 3421 H 308.554 1.12772 3.0246 0
M  V30 3422 H 307.606 3.28229 1.92276 0
M  V30 3423 H 308.918 4.18884 2.70809 0
M  V30 3424 H 308.072 3.49488 4.95927 0
M  V30 3425 H 306.811 2.48601 4.19582 0
M  V30 3426 H 305.816 4.52552 3.12213 0
M  V30 3427 H 307.041 5.54705 3.91764 0
M  V30 3428 H 304.987 3.81097 5.33948 0
M  V30 3429 H 304.904 5.53202 5.1527 0
M  V30 3430 H 306.172 4.83376 6.11529 0
M  V30 3431 N 310.401 -0.613514 1.45168 0
M  V30 3432 C 311.648 -1.37268 1.48875 0
M  V30 3433 C 311.976 -1.94077 0.128161 0
M  V30 3434 O 311.231 -1.75178 -0.872416 0
M  V30 3435 C 311.53 -2.54347 2.51083 0
M  V30 3436 C 311.196 -2.1572 3.95949 0
M  V30 3437 C 309.858 -2.04899 4.35396 0
M  V30 3438 C 312.21 -1.85485 4.87078 0
M  V30 3439 C 309.538 -1.62057 5.63875 0
M  V30 3440 C 311.89 -1.4413 6.15962 0
M  V30 3441 C 310.554 -1.31863 6.54346 0
M  V30 3442 H 309.824 -0.502299 0.544773 0
M  V30 3443 H 312.471 -0.694021 1.78481 0
M  V30 3444 H 310.776 -3.27524 2.15024 0
M  V30 3445 H 312.473 -3.12577 2.51191 0
M  V30 3446 H 309.063 -2.25066 3.64751 0
M  V30 3447 H 313.247 -1.92745 4.57343 0
M  V30 3448 H 308.503 -1.51177 5.92415 0
M  V30 3449 H 312.677 -1.19778 6.86022 0
M  V30 3450 H 310.304 -0.984392 7.538 0
M  V30 3451 N 311.879 -1.3236 -0.855495 0
M  V30 3452 C 313.127 -1.22629 -1.60644 0
M  V30 3453 C 313.448 0.212136 -1.93843 0
M  V30 3454 O 312.718 1.13666 -1.59552 0
M  V30 3455 H 311.298 -0.450882 -0.595579 0
M  V30 3456 H 313.96 -1.65871 -1.02337 0
M  V30 3457 H 313.056 -1.80832 -2.54374 0
M  V30 3458 N 313.357 1.07166 -1.15556 0
M  V30 3459 C 314.603 1.80065 -0.932984 0
M  V30 3460 C 314.936 1.86586 0.53845 0
M  V30 3461 O 314.211 1.35098 1.39924 0
M  V30 3462 C 314.494 3.25022 -1.55025 0
M  V30 3463 C 314.347 3.26634 -3.09242 0
M  V30 3464 C 315.666 4.22341 -1.2376 0
M  V30 3465 H 312.785 0.653697 -0.340366 0
M  V30 3466 H 315.427 1.25389 -1.4275 0
M  V30 3467 H 313.577 3.71712 -1.12972 0
M  V30 3468 H 315.249 2.88173 -3.60214 0
M  V30 3469 H 313.492 2.65539 -3.43033 0
M  V30 3470 H 314.163 4.28854 -3.47546 0
M  V30 3471 H 316.639 3.8405 -1.60139 0
M  V30 3472 H 315.515 5.22053 -1.69564 0
M  V30 3473 H 315.776 4.41828 -0.154938 0
M  V30 3474 N 314.835 0.952656 1.25548 0
M  V30 3475 C 315.768 0.415525 2.24385 0
M  V30 3476 C 316.746 -0.502046 1.54655 0
M  V30 3477 O 317.93 -0.436875 1.83368 0
M  V30 3478 C 315.057 -0.401734 3.36309 0
M  V30 3479 C 314.103 0.455949 4.24056 0
M  V30 3480 S 314.936 1.88698 5.01152 0
M  V30 3481 C 316.092 1.07809 6.16545 0
M  V30 3482 H 316.325 1.25315 2.69599 0
M  V30 3483 H 313.858 0.756587 1.34592 0
M  V30 3484 H 315.816 -0.867329 4.01233 0
M  V30 3485 H 314.477 -1.21416 2.89684 0
M  V30 3486 H 313.67 -0.170776 5.03711 0
M  V30 3487 H 313.272 0.856675 3.64056 0
M  V30 3488 H 315.564 0.325816 6.76716 0
M  V30 3489 H 316.507 1.84849 6.83547 0
M  V30 3490 H 316.915 0.60909 5.61204 0
M  V30 3491 N 316.313 -1.40141 0.720998 0
M  V30 3492 C 317.261 -2.3252 0.0608547 0
M  V30 3493 C 318.255 -1.52326 -0.741152 0
M  V30 3494 O 319.461 -1.68089 -0.643911 0
M  V30 3495 H 315.836 -0.751999 0.000876664 0
M  V30 3496 H 317.807 -2.8584 0.856614 0
M  V30 3497 C 316.556 -3.37331 -0.842809 0
M  V30 3498 H 315.879 -3.99108 -0.235084 0
M  V30 3499 H 317.319 -4.04452 -1.27257 0
M  V30 3500 C 315.778 -2.73246 -1.97074 0
M  V30 3501 O 316.308 -2.59998 -3.06209 0
M  V30 3502 N 314.514 -2.31547 -1.75597 0
M  V30 3503 H 314.061 -2.42522 -0.868368 0
M  V30 3504 H 314.019 -1.89007 -2.51244 0
M  V30 3505 N 317.792 -0.46758 -1.50504 0
M  V30 3506 C 319.038 0.0887532 -2.02606 0
M  V30 3507 C 319.371 1.39686 -1.34913 0
M  V30 3508 O 318.646 1.88644 -0.473694 0
M  V30 3509 C 318.929 0.276206 -3.59039 0
M  V30 3510 C 318.782 -1.05267 -4.37309 0
M  V30 3511 C 320.101 1.03235 -4.27821 0
M  V30 3512 H 317.22 0.0307814 -0.736357 0
M  V30 3513 H 319.862 -0.612485 -1.79857 0
M  V30 3514 H 318.012 0.8735 -3.78553 0
M  V30 3515 H 319.684 -1.68628 -4.29374 0
M  V30 3516 H 317.927 -1.65015 -4.01189 0
M  V30 3517 H 318.598 -0.875197 -5.45018 0
M  V30 3518 H 321.074 0.526111 -4.12761 0
M  V30 3519 H 319.95 1.1323 -5.37094 0
M  V30 3520 H 320.211 2.06806 -3.90748 0
M  V30 3521 N 319.27 1.56325 -0.20005 0
M  V30 3522 C 320.518 1.97329 0.436547 0
M  V30 3523 C 320.839 1.08826 1.61808 0
M  V30 3524 O 320.109 0.160604 1.95241 0
M  V30 3525 H 318.689 0.728714 0.164272 0
M  V30 3526 H 321.351 1.92761 -0.287937 0
M  V30 3527 H 320.447 3.02264 0.777353 0
M  V30 3528 N 320.748 -0.0735177 1.57428 0
M  V30 3529 C 321.995 -0.772999 1.87166 0
M  V30 3530 C 322.323 -1.77665 0.791551 0
M  V30 3531 O 321.578 -1.94541 -0.212636 0
M  V30 3532 C 321.877 -1.51799 3.23561 0
M  V30 3533 C 321.543 -0.654484 4.46125 0
M  V30 3534 C 320.205 -0.416511 4.79394 0
M  V30 3535 C 322.557 -0.0555862 5.2117 0
M  V30 3536 C 319.885 0.429869 5.85123 0
M  V30 3537 C 322.237 0.778239 6.27795 0
M  V30 3538 C 320.901 1.0261 6.59566 0
M  V30 3539 H 320.171 -0.282861 0.684888 0
M  V30 3540 H 322.818 -0.0338272 1.9147 0
M  V30 3541 H 321.123 -2.32932 3.1504 0
M  V30 3542 H 322.82 -2.06397 3.43804 0
M  V30 3543 H 319.41 -0.850091 4.20085 0
M  V30 3544 H 323.594 -0.226558 4.95783 0
M  V30 3545 H 318.85 0.630665 6.08139 0
M  V30 3546 H 323.024 1.24906 6.85107 0
M  V30 3547 H 320.651 1.68371 7.4132 0
M  V30 3548 N 322.226 -1.5378 -0.344866 0
M  V30 3549 C 323.642 -1.44015 -0.687888 0
M  V30 3550 C 323.842 -0.595834 -1.92489 0
M  V30 3551 O 322.898 -0.0863064 -2.52352 0
M  V30 3552 C 324.211 -2.87481 -0.881758 0
M  V30 3553 C 325.759 -2.97247 -0.980459 0
M  V30 3554 C 326.234 -4.41819 -1.20665 0
M  V30 3555 N 327.725 -4.45339 -1.27389 0
M  V30 3556 C 328.46 -5.54333 -1.46639 0
M  V30 3557 N 327.956 -6.73335 -1.63071 0
M  V30 3558 N 329.749 -5.41944 -1.49176 0
M  V30 3559 H 321.9 -2.07169 0.468475 0
M  V30 3560 H 324.163 -0.93643 0.147655 0
M  V30 3561 H 323.869 -3.51672 -0.0443444 0
M  V30 3562 H 323.743 -3.32352 -1.78388 0
M  V30 3563 H 326.13 -2.33197 -1.8084 0
M  V30 3564 H 326.211 -2.5574 -0.0552713 0
M  V30 3565 H 325.855 -5.06449 -0.383652 0
M  V30 3566 H 325.785 -4.80917 -2.14539 0
M  V30 3567 H 328.276 -3.59585 -1.1622 0
M  V30 3568 H 328.589 -7.52165 -1.77391 0
M  V30 3569 H 326.934 -6.76282 -1.60209 0
M  V30 3570 H 330.125 -4.47932 -1.3592 0
M  V30 3571 H 330.298 -6.26946 -1.63837 0
M  V30 3572 N 323.704 0.605807 -1.45491 0
M  V30 3573 C 325.115 1.18777 -1.44045 0
M  V30 3574 C 325.466 1.95471 -0.169001 0
M  V30 3575 O 324.591 2.0374 0.729324 0
M  V30 3576 C 325.186 2.16064 -2.60963 0
M  V30 3577 C 323.745 2.69633 -2.62631 0
M  V30 3578 C 322.892 1.45072 -2.36325 0
M  V30 3579 H 325.843 0.395017 -1.53705 0
M  V30 3580 H 325.864 2.9913 -2.35163 0
M  V30 3581 H 325.376 1.60217 -3.53486 0
M  V30 3582 H 323.477 3.29414 -1.74119 0
M  V30 3583 H 323.59 3.13944 -3.61906 0
M  V30 3584 H 321.954 1.74089 -1.85917 0
M  V30 3585 H 322.737 0.910899 -3.30995 0
M  V30 3586 N 325.182 1.32811 0.848464 0
M  V30 3587 C 326.41 1.26739 1.63538 0
M  V30 3588 C 326.825 -0.163484 1.88091 0
M  V30 3589 O 326.182 -1.10258 1.45429 0
M  V30 3590 C 326.233 2.03013 2.99112 0
M  V30 3591 O 325.954 3.40518 2.75643 0
M  V30 3592 C 327.455 2.04038 3.93552 0
M  V30 3593 H 324.675 0.437024 0.509167 0
M  V30 3594 H 327.219 1.75033 1.05753 0
M  V30 3595 H 325.374 1.58426 3.53525 0
M  V30 3596 H 325.788 3.79635 3.61908 0
M  V30 3597 H 327.262 2.61877 4.85926 0
M  V30 3598 H 327.739 1.0282 4.26995 0
M  V30 3599 H 328.345 2.486 3.45077 0
M  V30 3600 N 326.66 -1.06551 1.16123 0
M  V30 3601 C 327.906 -1.79567 0.94252 0
M  V30 3602 C 328.239 -1.86869 -0.528547 0
M  V30 3603 O 327.514 -1.35838 -1.39206 0
M  V30 3604 C 327.797 -3.24195 1.56747 0
M  V30 3605 C 327.65 -3.24989 3.10969 0
M  V30 3606 C 328.969 -4.21678 1.25998 0
M  V30 3607 H 326.088 -0.651883 0.343828 0
M  V30 3608 H 328.73 -1.2463 1.43413 0
M  V30 3609 H 326.88 -3.71107 1.14942 0
M  V30 3610 H 328.552 -2.86258 3.61737 0
M  V30 3611 H 326.795 -2.63716 3.44436 0
M  V30 3612 H 327.466 -4.27005 3.49815 0
M  V30 3613 H 329.942 -3.83196 1.62174 0
M  V30 3614 H 328.818 -5.21146 1.7233 0
M  V30 3615 H 329.079 -4.4174 0.178367 0
M  V30 3616 N 328.138 -0.959301 -1.25041 0
M  V30 3617 C 329.386 -0.615393 -1.92503 0
M  V30 3618 C 329.707 0.850969 -1.75452 0
M  V30 3619 O 328.977 1.60658 -1.12098 0
M  V30 3620 H 327.557 -0.224613 -0.712431 0
M  V30 3621 H 330.219 -1.21855 -1.5211 0
M  V30 3622 H 329.315 -0.848738 -3.00338 0
M  V30 3623 N 329.616 1.39756 -0.72842 0
M  V30 3624 C 330.893 1.94574 -0.200079 0
M  V30 3625 C 331.273 1.66569 1.29684 0
M  V30 3626 O 330.621 0.990326 2.05924 0
M  V30 3627 C 330.831 3.45004 -0.526608 0
M  V30 3628 C 332.179 4.21965 -0.472318 0
M  V30 3629 O 333.203 3.53173 -0.463413 0
M  V30 3630 O 332.062 5.44552 -0.461075 0
M  V30 3631 H 329.156 0.826289 -0.0342851 0
M  V30 3632 H 331.702 1.49293 -0.806829 0
M  V30 3633 H 330.474 3.58796 -1.56144 0
M  V30 3634 H 330.097 3.97449 0.109449 0
M  V30 3635 N 331.094 0.475555 1.50254 0
M  V30 3636 C 332.057 -0.305016 2.27161 0
M  V30 3637 C 333.057 -0.916519 1.32123 0
M  V30 3638 O 334.247 -0.785003 1.5551 0
M  V30 3639 C 331.379 -1.43496 3.09227 0
M  V30 3640 H 332.572 0.369511 2.97615 0
M  V30 3641 H 330.125 0.229747 1.54602 0
M  V30 3642 H 330.86 -2.14441 2.43281 0
M  V30 3643 H 330.645 -1.00223 3.79075 0
M  V30 3644 H 332.135 -1.98548 3.67381 0
M  V30 3645 N 332.573 -1.56217 0.208337 0
M  V30 3646 C 333.989 -1.58919 -0.14729 0
M  V30 3647 C 334.189 -1.22486 -1.59998 0
M  V30 3648 O 333.245 -0.953849 -2.3379 0
M  V30 3649 C 334.558 -3.00236 0.167048 0
M  V30 3650 C 336.106 -3.12813 0.108219 0
M  V30 3651 C 336.581 -4.56284 0.396049 0
M  V30 3652 N 338.072 -4.61912 0.345142 0
M  V30 3653 C 338.807 -5.70837 0.541523 0
M  V30 3654 N 338.303 -6.88178 0.798968 0
M  V30 3655 N 340.096 -5.60091 0.474867 0
M  V30 3656 H 332.247 -1.78177 1.15614 0
M  V30 3657 H 334.51 -0.827555 0.462446 0
M  V30 3658 H 334.216 -3.31499 1.1748 0
M  V30 3659 H 334.09 -3.7354 -0.524184 0
M  V30 3660 H 336.477 -2.81354 -0.890157 0
M  V30 3661 H 336.558 -2.41866 0.832729 0
M  V30 3662 H 336.202 -4.88458 1.3918 0
M  V30 3663 H 336.132 -5.25439 -0.349502 0
M  V30 3664 H 338.623 -3.77589 0.153316 0
M  V30 3665 H 338.936 -7.67095 0.93727 0
M  V30 3666 H 337.281 -6.89953 0.836013 0
M  V30 3667 H 340.472 -4.67297 0.274064 0
M  V30 3668 H 340.645 -6.44917 0.631326 0
M  V30 3669 N 334.051 0.0651679 -1.57465 0
M  V30 3670 C 334.999 1.09542 -2.05191 0
M  V30 3671 C 335.993 1.39675 -0.958509 0
M  V30 3672 O 337.199 1.39003 -1.14359 0
M  V30 3673 H 333.574 0.370623 -0.654326 0
M  V30 3674 H 335.545 0.666802 -2.90854 0
M  V30 3675 C 334.294 2.39881 -2.51699 0
M  V30 3676 H 333.617 2.17547 -3.3543 0
M  V30 3677 H 335.057 3.104 -2.88839 0
M  V30 3678 C 333.516 3.0631 -1.40271 0
M  V30 3679 O 334.046 3.94664 -0.748523 0
M  V30 3680 N 332.252 2.67041 -1.14618 0
M  V30 3681 H 331.799 1.95281 -1.67997 0
M  V30 3682 H 331.757 3.1181 -0.402688 0
M  V30 3683 N 335.529 1.53961 0.336706 0
M  V30 3684 C 336.775 1.7179 1.07777 0
M  V30 3685 C 337.108 0.483263 1.88091 0
M  V30 3686 O 336.383 -0.519747 1.87427 0
M  V30 3687 C 336.666 2.98558 2.01334 0
M  V30 3688 C 336.519 4.32245 1.24437 0
M  V30 3689 C 337.838 3.21023 3.01052 0
M  V30 3690 H 334.957 0.625089 0.390426 0
M  V30 3691 H 337.599 1.86641 0.35567 0
M  V30 3692 H 335.749 2.86028 2.62908 0
M  V30 3693 H 337.421 4.56637 0.654243 0
M  V30 3694 H 335.664 4.30344 0.546458 0
M  V30 3695 H 336.335 5.17137 1.93063 0
M  V30 3696 H 338.811 3.32929 2.49595 0
M  V30 3697 H 337.687 4.11104 3.6371 0
M  V30 3698 H 337.948 2.37637 3.72802 0
M  V30 3699 N 337.007 -0.598083 1.45811 0
M  V30 3700 C 337.954 -1.7082 1.55207 0
M  V30 3701 C 338.924 -1.61278 0.39732 0
M  V30 3702 O 340.109 -1.80717 0.612038 0
M  V30 3703 C 337.249 -3.09144 1.53376 0
M  V30 3704 C 336.362 -3.29423 2.79472 0
M  V30 3705 C 335.497 -4.57907 2.69248 0
M  V30 3706 C 334.536 -4.71476 3.90354 0
M  V30 3707 N 333.673 -5.9127 3.78608 0
M  V30 3708 H 338.513 -1.62125 2.50039 0
M  V30 3709 H 336.05 -0.790389 1.24062 0
M  V30 3710 H 338.008 -3.89186 1.50301 0
M  V30 3711 H 336.638 -3.16773 0.620876 0
M  V30 3712 H 335.69 -2.43091 2.92594 0
M  V30 3713 H 337.002 -3.3532 3.69272 0
M  V30 3714 H 336.156 -5.46157 2.64192 0
M  V30 3715 H 334.895 -4.54423 1.77063 0
M  V30 3716 H 333.9 -3.81648 3.95759 0
M  V30 3717 H 335.125 -4.76751 4.83617 0
M  V30 3718 H 333.071 -5.88813 2.89199 0
M  V30 3719 H 332.988 -5.98369 4.6205 0
M  V30 3720 H 334.256 -6.81992 3.77501 0
M  V30 3721 N 338.485 -1.33259 -0.841409 0
M  V30 3722 C 339.715 -1.2742 -1.62628 0
M  V30 3723 C 340.123 0.157604 -1.88542 0
M  V30 3724 O 339.466 1.10938 -1.46419 0
M  V30 3725 C 339.528 -1.97797 -3.00194 0
M  V30 3726 C 339.192 -3.47109 -2.97261 0
M  V30 3727 C 340.189 -4.42358 -2.73159 0
M  V30 3728 C 337.874 -3.89247 -3.17478 0
M  V30 3729 C 339.868 -5.77718 -2.69296 0
M  V30 3730 C 337.555 -5.24713 -3.13241 0
M  V30 3731 C 338.553 -6.1876 -2.89181 0
M  V30 3732 O 338.241 -7.51745 -2.84843 0
M  V30 3733 H 337.973 -0.440436 -0.512827 0
M  V30 3734 H 340.527 -1.76153 -1.05638 0
M  V30 3735 H 338.757 -1.43652 -3.59028 0
M  V30 3736 H 340.446 -1.8549 -3.61038 0
M  V30 3737 H 341.212 -4.11127 -2.57294 0
M  V30 3738 H 337.091 -3.16456 -3.35226 0
M  V30 3739 H 340.635 -6.51097 -2.50436 0
M  V30 3740 H 336.532 -5.55569 -3.28654 0
M  V30 3741 H 337.3 -7.61262 -3.00702 0
M  V30 3742 N 339.963 1.05934 -1.16686 0
M  V30 3743 C 340.873 2.17014 -0.891183 0
M  V30 3744 C 341.889 1.73453 0.137907 0
M  V30 3745 O 343.065 2.01361 -0.039592 0
M  V30 3746 C 340.13 3.44384 -0.400099 0
M  V30 3747 C 339.191 4.02433 -1.49486 0
M  V30 3748 C 338.424 5.23723 -1.02711 0
M  V30 3749 O 338.647 5.7027 0.121716 0
M  V30 3750 O 337.581 5.7382 -1.81699 0
M  V30 3751 H 341.407 2.43113 -1.82015 0
M  V30 3752 H 338.992 1.15541 -0.947132 0
M  V30 3753 H 340.874 4.21189 -0.133392 0
M  V30 3754 H 339.549 3.19802 0.500817 0
M  V30 3755 H 338.456 3.27102 -1.81535 0
M  V30 3756 H 339.789 4.31317 -2.37121 0
M  V30 3757 N 341.441 0.965919 1.2453 0
M  V30 3758 C 342.687 0.62776 1.92839 0
M  V30 3759 C 343.02 -0.834694 1.75347 0
M  V30 3760 O 342.295 -1.60031 1.10546 0
M  V30 3761 C 342.578 1.00109 3.45905 0
M  V30 3762 C 342.431 2.52011 3.72573 0
M  V30 3763 C 343.75 0.53435 4.36844 0
M  V30 3764 H 340.869 0.229537 0.700344 0
M  V30 3765 H 343.511 1.2046 1.46933 0
M  V30 3766 H 341.661 0.510238 3.85135 0
M  V30 3767 H 343.333 3.08559 3.42912 0
M  V30 3768 H 341.576 2.95287 3.17786 0
M  V30 3769 H 342.247 2.73183 4.79661 0
M  V30 3770 H 344.723 0.955565 4.04979 0
M  V30 3771 H 343.599 0.824152 5.42678 0
M  V30 3772 H 343.86 -0.565589 4.38467 0
M  V30 3773 N 342.919 -1.39368 0.735821 0
M  V30 3774 C 344.149 -2.04498 0.293967 0
M  V30 3775 C 344.557 -1.55593 -1.07645 0
M  V30 3776 O 343.9 -0.716324 -1.69158 0
M  V30 3777 C 343.962 -3.58836 0.218342 0
M  V30 3778 C 343.626 -4.30721 1.52736 0
M  V30 3779 C 344.623 -4.57305 2.47322 0
M  V30 3780 C 342.308 -4.69251 1.79189 0
M  V30 3781 C 344.302 -5.21429 3.66593 0
M  V30 3782 C 341.989 -5.33104 2.98737 0
M  V30 3783 C 342.987 -5.59125 3.9226 0
M  V30 3784 O 342.675 -6.21653 5.09708 0
M  V30 3785 H 342.407 -0.664118 0.126189 0
M  V30 3786 H 344.961 -1.79385 1.00051 0
M  V30 3787 H 343.191 -3.8285 -0.544314 0
M  V30 3788 H 344.88 -4.05447 -0.191626 0
M  V30 3789 H 345.646 -4.27983 2.28156 0
M  V30 3790 H 341.525 -4.48354 1.07239 0
M  V30 3791 H 345.069 -5.41656 4.39607 0
M  V30 3792 H 340.966 -5.61846 3.17803 0
M  V30 3793 H 341.734 -6.40146 5.10054 0
M  V30 3794 N 344.397 -0.483516 -1.5 0
M  V30 3795 C 345.646 0.0689102 -2.01582 0
M  V30 3796 C 345.959 1.39655 -1.36952 0
M  V30 3797 O 347.165 2.03465 -1.79762 0
M  V30 3798 C 345.621 0.173302 -3.59483 0
M  V30 3799 C 345.229 -1.14665 -4.33077 0
M  V30 3800 C 346.973 0.677024 -4.19066 0
M  V30 3801 C 344.88 -1.00537 -5.82792 0
M  V30 3802 H 343.81 0.0295277 -0.753422 0
M  V30 3803 H 346.461 -0.620295 -1.72698 0
M  V30 3804 H 344.843 0.926569 -3.85007 0
M  V30 3805 H 346.017 -1.91184 -4.19268 0
M  V30 3806 H 344.332 -1.58244 -3.85159 0
M  V30 3807 H 346.929 0.799952 -5.28682 0
M  V30 3808 H 347.272 1.67151 -3.81269 0
M  V30 3809 H 347.805 -0.0192083 -3.97795 0
M  V30 3810 H 344.544 -1.9736 -6.25083 0
M  V30 3811 H 344.064 -0.280776 -5.99142 0
M  V30 3812 H 345.743 -0.677 -6.43448 0
M  V30 3813 N 345.875 1.56104 -0.216619 0
M  V30 3814 C 346.805 2.23063 0.690296 0
M  V30 3815 C 347.786 1.20072 1.20485 0
M  V30 3816 O 348.971 1.48643 1.24976 0
M  V30 3817 C 346.101 2.90672 1.90072 0
M  V30 3818 C 345.055 4.00092 1.5202 0
M  V30 3819 C 344.381 4.54972 2.80899 0
M  V30 3820 C 345.681 5.17398 0.71391 0
M  V30 3821 H 347.375 2.99109 0.132038 0
M  V30 3822 H 344.921 1.43866 0.0620664 0
M  V30 3823 H 346.874 3.36204 2.54057 0
M  V30 3824 H 345.598 2.12066 2.48386 0
M  V30 3825 H 344.257 3.55283 0.903839 0
M  V30 3826 H 343.905 3.73102 3.37348 0
M  V30 3827 H 343.605 5.28817 2.56176 0
M  V30 3828 H 345.129 5.0322 3.45836 0
M  V30 3829 H 346.543 5.59342 1.25735 0
M  V30 3830 H 344.94 5.97444 0.563951 0
M  V30 3831 H 346.01 4.84088 -0.280527 0
M  V30 3832 N 347.353 -0.0568162 1.57498 0
M  V30 3833 C 348.63 -0.786954 1.79071 0
M  V30 3834 C 349.01 -1.95028 0.80792 0
M  V30 3835 O 348.358 -2.27968 -0.155858 0
M  V30 3836 C 348.568 -1.24594 3.26002 0
M  V30 3837 C 349.916 -1.67323 3.90241 0
M  V30 3838 O 350.94 -1.34124 3.29984 0
M  V30 3839 O 349.799 -2.28842 4.9628 0
M  V30 3840 H 346.893 -0.378262 0.735423 0
M  V30 3841 H 349.439 -0.035734 1.69662 0
M  V30 3842 H 348.211 -0.41423 3.89101 0
M  V30 3843 H 347.834 -2.05803 3.40192 0
M  V30 3844 N 348.832 -1.54138 -0.328536 0
M  V30 3845 C 350.079 -1.72105 -1.06706 0
M  V30 3846 C 350.407 -0.492111 -1.88171 0
M  V30 3847 O 349.662 0.526153 -1.88494 0
M  V30 3848 C 349.961 -2.9457 -2.02393 0
M  V30 3849 C 349.627 -4.29544 -1.37122 0
M  V30 3850 C 348.289 -4.6624 -1.19052 0
M  V30 3851 C 350.641 -5.1333 -0.902331 0
M  V30 3852 C 347.969 -5.84325 -0.527331 0
M  V30 3853 C 350.321 -6.32094 -0.252988 0
M  V30 3854 C 348.985 -6.67473 -0.0600901 0
M  V30 3855 H 348.255 -0.629775 -0.390466 0
M  V30 3856 H 350.902 -1.88372 -0.34473 0
M  V30 3857 H 349.207 -2.72969 -2.81061 0
M  V30 3858 H 350.904 -3.05665 -2.59557 0
M  V30 3859 H 347.494 -4.0067 -1.52188 0
M  V30 3860 H 351.678 -4.855 -1.02974 0
M  V30 3861 H 346.934 -6.103 -0.366634 0
M  V30 3862 H 351.108 -6.96299 0.118366 0
M  V30 3863 H 348.735 -7.58832 0.455828 0
M  V30 3864 N 350.31 0.590341 -1.46126 0
M  V30 3865 C 351.22 1.72793 -1.58681 0
M  V30 3866 C 352.236 1.67516 -0.470566 0
M  V30 3867 O 353.412 1.87562 -0.733642 0
M  V30 3868 C 350.477 3.09287 -1.5666 0
M  V30 3869 C 349.538 3.25886 -2.79458 0
M  V30 3870 C 348.771 4.55869 -2.77524 0
M  V30 3871 O 348.994 5.3928 -1.85832 0
M  V30 3872 O 347.928 4.75552 -3.68964 0
M  V30 3873 H 351.754 1.65149 -2.54872 0
M  V30 3874 H 349.339 0.756486 -1.28832 0
M  V30 3875 H 351.221 3.90577 -1.58202 0
M  V30 3876 H 349.896 3.17385 -0.636271 0
M  V30 3877 H 348.803 2.44119 -2.83472 0
M  V30 3878 H 350.136 3.22675 -3.71674 0
M  V30 3879 N 351.788 1.33704 0.83433 0
M  V30 3880 C 353.036 1.25169 1.58673 0
M  V30 3881 C 353.357 -0.18127 1.94156 0
M  V30 3882 O 352.627 -1.11113 1.6134 0
M  V30 3883 H 351.207 0.4603 0.58833 0
M  V30 3884 H 353.869 1.67478 0.996847 0
M  V30 3885 H 352.965 1.84856 2.51465 0
M  V30 3886 N 353.266 -1.05314 1.17247 0
M  V30 3887 C 354.543 -1.75184 0.87005 0
M  V30 3888 C 354.923 -2.01481 -0.629965 0
M  V30 3889 O 354.271 -1.64988 -1.58086 0
M  V30 3890 C 354.481 -3.04594 1.70363 0
M  V30 3891 C 355.829 -3.78567 1.92281 0
M  V30 3892 O 356.853 -3.14461 1.67311 0
M  V30 3893 O 355.712 -4.93755 2.3424 0
M  V30 3894 H 352.806 -0.761729 0.322021 0
M  V30 3895 H 355.352 -1.11493 1.27935 0
M  V30 3896 H 354.124 -2.81201 2.72106 0
M  V30 3897 H 353.747 -3.76022 1.29202 0
M  V30 3898 N 354.744 -0.972509 -1.24016 0
M  V30 3899 C 355.674 -0.525548 -2.27509 0
M  V30 3900 C 356.655 0.437262 -1.64384 0
M  V30 3901 O 357.84 0.332343 -1.91335 0
M  V30 3902 C 354.97 0.180448 -3.46831 0
M  V30 3903 C 353.924 -0.698859 -4.22256 0
M  V30 3904 C 353.25 0.138903 -5.3452 0
M  V30 3905 C 354.55 -1.98582 -4.83076 0
M  V30 3906 H 356.244 -1.39058 -2.65148 0
M  V30 3907 H 353.79 -0.67009 -1.27459 0
M  V30 3908 H 355.743 0.504387 -4.18371 0
M  V30 3909 H 354.467 1.07987 -3.08231 0
M  V30 3910 H 353.126 -1.00614 -3.52523 0
M  V30 3911 H 352.774 1.03862 -4.9216 0
M  V30 3912 H 352.474 -0.446259 -5.85903 0
M  V30 3913 H 353.998 0.457404 -6.08884 0
M  V30 3914 H 355.412 -1.72715 -5.46665 0
M  V30 3915 H 353.809 -2.5181 -5.44713 0
M  V30 3916 H 354.879 -2.67769 -4.04262 0
M  V30 3917 N 356.222 1.38976 -0.743202 0
M  V30 3918 C 357.452 2.04339 -0.304807 0
M  V30 3919 C 357.86 1.56162 1.06819 0
M  V30 3920 O 357.203 0.725284 1.68776 0
M  V30 3921 C 357.265 3.58716 -0.237369 0
M  V30 3922 C 356.929 4.29905 -1.55018 0
M  V30 3923 C 357.926 4.55987 -2.49744 0
M  V30 3924 C 355.611 4.68294 -1.81675 0
M  V30 3925 C 357.605 5.19478 -3.69353 0
M  V30 3926 C 355.292 5.31512 -3.0156 0
M  V30 3927 C 356.29 5.57037 -3.9522 0
M  V30 3928 O 355.978 6.18941 -5.12998 0
M  V30 3929 H 355.71 0.663439 -0.12971 0
M  V30 3930 H 358.264 1.78852 -1.01001 0
M  V30 3931 H 356.494 3.83133 0.524003 0
M  V30 3932 H 358.183 4.05543 0.170121 0
M  V30 3933 H 358.949 4.26767 -2.30423 0
M  V30 3934 H 354.828 4.47779 -1.09615 0
M  V30 3935 H 358.372 5.39318 -4.42473 0
M  V30 3936 H 354.269 5.60153 -3.20778 0
M  V30 3937 H 355.037 6.37433 -5.13441 0
M  V30 3938 N 357.7 0.491464 1.49741 0
M  V30 3939 C 358.948 -0.0563141 2.02022 0
M  V30 3940 C 359.269 -1.38363 1.37407 0
M  V30 3941 O 358.539 -1.88702 0.526166 0
M  V30 3942 H 357.119 -0.0238014 0.746621 0
M  V30 3943 H 359.781 0.646533 1.83864 0
M  V30 3944 H 358.877 -0.192967 3.11503 0
M  V30 3945 N 359.178 -1.55987 0.224894 0
M  V30 3946 C 360.11 -2.17722 -0.716224 0
M  V30 3947 C 361.123 -1.14723 -1.15509 0
M  V30 3948 O 362.312 -1.41688 -1.08567 0
M  V30 3949 C 359.412 -2.74873 -1.98238 0
M  V30 3950 C 358.585 -4.03074 -1.69853 0
M  V30 3951 C 357.644 -4.44757 -2.81208 0
M  V30 3952 O 356.67 -5.11587 -2.49534 0
M  V30 3953 N 357.872 -4.10716 -4.10235 0
M  V30 3954 H 360.637 -2.99109 -0.188123 0
M  V30 3955 H 358.198 -1.6184 0.0440123 0
M  V30 3956 H 360.19 -2.99727 -2.7193 0
M  V30 3957 H 358.76 -1.9777 -2.42086 0
M  V30 3958 H 357.98 -3.86041 -0.797875 0
M  V30 3959 H 359.268 -4.86701 -1.48324 0
M  V30 3960 H 358.666 -3.57019 -4.38809 0
M  V30 3961 H 357.223 -4.40455 -4.80461 0
M  V30 3962 N 360.656 0.0484629 -1.57525 0
M  V30 3963 C 362.072 0.40375 -1.54409 0
M  V30 3964 C 362.272 1.77786 -0.948384 0
M  V30 3965 O 361.328 2.46189 -0.560983 0
M  V30 3966 C 362.641 0.323394 -2.98956 0
M  V30 3967 C 364.189 0.401892 -3.10409 0
M  V30 3968 C 364.664 0.351195 -4.56652 0
M  V30 3969 N 366.155 0.410576 -4.61377 0
M  V30 3970 C 366.89 0.393933 -5.72045 0
M  V30 3971 N 366.386 0.330724 -6.9201 0
M  V30 3972 N 368.179 0.442227 -5.60358 0
M  V30 3973 H 360.33 -0.851016 -1.94606 0
M  V30 3974 H 362.593 -0.321721 -0.89174 0
M  V30 3975 H 362.299 -0.62011 -3.4619 0
M  V30 3976 H 362.173 1.12463 -3.60044 0
M  V30 3977 H 364.56 1.33582 -2.63134 0
M  V30 3978 H 364.641 -0.428342 -2.52188 0
M  V30 3979 H 364.285 -0.578987 -5.04589 0
M  V30 3980 H 364.215 1.19928 -5.12762 0
M  V30 3981 H 366.706 0.462729 -3.75056 0
M  V30 3982 H 367.019 0.322592 -7.72126 0
M  V30 3983 H 365.364 0.29706 -6.94365 0
M  V30 3984 H 368.555 0.489464 -4.65534 0
M  V30 3985 H 368.728 0.425788 -6.466 0
M  V30 3986 N 362.134 1.5431 0.320358 0
M  V30 3987 C 363.064 1.86912 1.3995 0
M  V30 3988 C 364.045 0.726211 1.53819 0
M  V30 3989 O 365.23 0.980233 1.67646 0
M  V30 3990 C 362.36 2.09932 2.7667 0
M  V30 3991 C 361.314 3.25776 2.77586 0
M  V30 3992 C 360.64 3.34173 4.17412 0
M  V30 3993 C 361.94 4.6335 2.41048 0
M  V30 3994 H 363.634 2.77292 1.12914 0
M  V30 3995 H 361.18 1.33421 0.541738 0
M  V30 3996 H 363.133 2.31324 3.52232 0
M  V30 3997 H 361.857 1.16304 3.0519 0
M  V30 3998 H 360.516 3.04276 2.04479 0
M  V30 3999 H 360.164 2.38098 4.43078 0
M  V30 4000 H 359.864 4.12033 4.18931 0
M  V30 4001 H 361.388 3.57803 4.94782 0
M  V30 4002 H 362.802 4.84602 3.06324 0
M  V30 4003 H 361.199 5.43782 2.53813 0
M  V30 4004 H 362.269 4.65381 1.36193 0
M  V30 4005 N 363.613 -0.582584 1.46437 0
M  V30 4006 C 364.56 -1.69164 1.5701 0
M  V30 4007 C 365.53 -1.60847 0.414403 0
M  V30 4008 O 366.715 -1.80058 0.631171 0
M  V30 4009 C 363.855 -3.075 1.56646 0
M  V30 4010 C 362.968 -3.2644 2.82951 0
M  V30 4011 C 362.103 -4.55026 2.7409 0
M  V30 4012 C 361.142 -4.6731 3.95333 0
M  V30 4013 N 360.279 -5.87221 3.84858 0
M  V30 4014 H 365.119 -1.59464 2.51744 0
M  V30 4015 H 362.656 -0.777186 1.24893 0
M  V30 4016 H 364.614 -3.8757 1.5442 0
M  V30 4017 H 363.244 -3.16096 0.654439 0
M  V30 4018 H 362.296 -2.39974 2.95155 0
M  V30 4019 H 363.608 -3.31385 3.72808 0
M  V30 4020 H 362.762 -5.43324 2.6997 0
M  V30 4021 H 361.501 -4.52519 1.81873 0
M  V30 4022 H 360.506 -3.77429 3.99784 0
M  V30 4023 H 361.731 -4.71595 4.88646 0
M  V30 4024 H 359.677 -5.85712 2.95427 0
M  V30 4025 H 359.594 -5.93435 4.6837 0
M  V30 4026 H 360.862 -6.7795 3.84713 0
M  V30 4027 N 365.091 -1.34144 -0.827227 0
M  V30 4028 C 366.021 -1.28005 -1.95287 0
M  V30 4029 C 367.002 -0.158321 -1.69362 0
M  V30 4030 O 368.187 -0.349987 -1.9102 0
M  V30 4031 C 365.317 -1.03036 -3.31664 0
M  V30 4032 C 364.271 -2.11628 -3.72019 0
M  V30 4033 C 363.597 -1.71854 -5.0633 0
M  V30 4034 C 364.897 -3.53417 -3.8457 0
M  V30 4035 H 366.591 -2.22187 -2.00682 0
M  V30 4036 H 364.137 -1.0696 -0.964135 0
M  V30 4037 H 366.09 -0.973863 -4.09993 0
M  V30 4038 H 364.814 -0.0529391 -3.26557 0
M  V30 4039 H 363.473 -2.16339 -2.95961 0
M  V30 4040 H 363.121 -0.727841 -4.97706 0
M  V30 4041 H 362.821 -2.44531 -5.34302 0
M  V30 4042 H 364.345 -1.67692 -5.87122 0
M  V30 4043 H 365.759 -3.51142 -4.5318 0
M  V30 4044 H 364.156 -4.24679 -4.2399 0
M  V30 4045 H 365.226 -3.91072 -2.86689 0
M  V30 4046 N 366.569 1.04691 -1.17803 0
M  V30 4047 C 367.479 2.16057 -0.914151 0
M  V30 4048 C 368.495 1.73589 0.119503 0
M  V30 4049 O 369.671 2.01308 -0.0609468 0
M  V30 4050 C 366.736 3.4394 -0.436603 0
M  V30 4051 C 365.797 4.00825 -1.53746 0
M  V30 4052 C 365.03 5.22604 -1.0826 0
M  V30 4053 O 365.253 5.70367 0.0612244 0
M  V30 4054 O 364.187 5.7186 -1.87775 0
M  V30 4055 H 368.013 2.41169 -1.84584 0
M  V30 4056 H 365.598 1.1453 -0.959334 0
M  V30 4057 H 367.48 4.21024 -0.178057 0
M  V30 4058 H 366.155 3.20316 0.466869 0
M  V30 4059 H 365.062 3.25158 -1.84995 0
M  V30 4060 H 366.395 4.28778 -2.41683 0
M  V30 4061 N 368.047 0.979072 1.23499 0
M  V30 4062 C 369.293 0.648178 1.92163 0
M  V30 4063 C 369.626 -0.816049 1.76222 0
M  V30 4064 O 368.901 -1.58849 1.12237 0
M  V30 4065 C 369.184 1.03773 3.44824 0
M  V30 4066 C 369.037 2.55948 3.69879 0
M  V30 4067 C 370.356 0.580653 4.36253 0
M  V30 4068 H 367.475 0.236952 0.69787 0
M  V30 4069 H 370.117 1.22012 1.45647 0
M  V30 4070 H 368.267 0.551058 3.84572 0
M  V30 4071 H 369.939 3.12179 3.3962 0
M  V30 4072 H 368.182 2.98641 3.14636 0
M  V30 4073 H 368.853 2.78255 4.76737 0
M  V30 4074 H 371.329 0.998465 4.03943 0
M  V30 4075 H 370.205 0.881663 5.41773 0
M  V30 4076 H 370.466 -0.519052 4.39042 0
M  V30 4077 N 369.525 -1.3858 0.750561 0
M  V30 4078 C 370.455 -2.33102 0.136237 0
M  V30 4079 C 371.436 -1.54713 -0.706965 0
M  V30 4080 O 372.621 -1.83043 -0.648769 0
M  V30 4081 C 369.751 -3.38882 -0.760017 0
M  V30 4082 C 368.705 -4.27995 -0.0197785 0
M  V30 4083 C 368.031 -5.24605 -1.03408 0
M  V30 4084 C 369.331 -5.09554 1.14684 0
M  V30 4085 H 371.025 -2.84726 0.925822 0
M  V30 4086 H 368.571 -1.36898 0.446654 0
M  V30 4087 H 370.524 -4.0397 -1.19943 0
M  V30 4088 H 369.248 -2.85734 -1.58189 0
M  V30 4089 H 367.907 -3.64409 0.400184 0
M  V30 4090 H 367.555 -4.67746 -1.84994 0
M  V30 4091 H 367.255 -5.85081 -0.543464 0
M  V30 4092 H 368.779 -5.9257 -1.47288 0
M  V30 4093 H 370.193 -5.67899 0.785118 0
M  V30 4094 H 368.59 -5.7925 1.56812 0
M  V30 4095 H 369.66 -4.4347 1.96118 0
M  V30 4096 N 371.003 -0.499398 -1.49478 0
M  V30 4097 C 371.95 0.279881 -2.29097 0
M  V30 4098 C 372.92 0.961805 -1.3542 0
M  V30 4099 O 374.105 0.968777 -1.64376 0
M  V30 4100 C 371.245 1.33932 -3.18051 0
M  V30 4101 C 370.358 0.669333 -4.26783 0
M  V30 4102 C 369.493 1.70907 -5.02955 0
M  V30 4103 C 368.532 1.02087 -6.03527 0
M  V30 4104 N 367.669 2.00474 -6.7287 0
M  V30 4105 H 372.509 -0.405317 -2.95231 0
M  V30 4106 H 370.046 -0.211726 -1.45568 0
M  V30 4107 H 372.004 1.96553 -3.67998 0
M  V30 4108 H 370.634 1.9933 -2.53904 0
M  V30 4109 H 369.686 -0.0701234 -3.80335 0
M  V30 4110 H 370.998 0.127503 -4.98637 0
M  V30 4111 H 370.152 2.41037 -5.56764 0
M  V30 4112 H 368.891 2.28476 -4.30871 0
M  V30 4113 H 367.896 0.305338 -5.48951 0
M  V30 4114 H 369.121 0.451708 -6.77596 0
M  V30 4115 H 367.067 2.57007 -6.03559 0
M  V30 4116 H 366.984 1.51353 -7.40694 0
M  V30 4117 H 368.252 2.69897 -7.31284 0
M  V30 4118 N 372.481 1.55866 -0.233164 0
M  V30 4119 C 373.728 1.98603 0.395374 0
M  V30 4120 C 374.056 1.12105 1.58942 0
M  V30 4121 O 373.311 0.168656 1.94972 0
M  V30 4122 C 373.61 3.46856 0.861724 0
M  V30 4123 C 373.276 4.50348 -0.223066 0
M  V30 4124 C 371.938 4.78371 -0.521038 0
M  V30 4125 C 374.29 5.12355 -0.956124 0
M  V30 4126 C 371.618 5.6568 -1.55638 0
M  V30 4127 C 373.97 6.00786 -1.98089 0
M  V30 4128 C 372.634 6.27148 -2.28565 0
M  V30 4129 H 371.904 0.726739 0.144677 0
M  V30 4130 H 374.551 1.88491 -0.338114 0
M  V30 4131 H 372.856 3.5423 1.67418 0
M  V30 4132 H 374.553 3.77302 1.35809 0
M  V30 4133 H 371.143 4.28596 0.0193234 0
M  V30 4134 H 375.327 4.90765 -0.739166 0
M  V30 4135 H 370.583 5.84365 -1.798 0
M  V30 4136 H 374.757 6.4788 -2.55391 0
M  V30 4137 H 372.384 6.94597 -3.08932 0
M  V30 4138 N 373.959 -0.0401083 1.57549 0
M  V30 4139 C 374.892 -1.07689 2.01192 0
M  V30 4140 C 375.87 -1.358 0.894273 0
M  V30 4141 O 377.054 -1.48642 1.15921 0
M  V30 4142 C 374.181 -2.41418 2.3756 0
M  V30 4143 C 373.227 -2.29237 3.59656 0
M  V30 4144 S 374.06 -1.65628 5.09242 0
M  V30 4145 C 375.216 -3.0087 5.48843 0
M  V30 4146 H 375.449 -0.705108 2.88817 0
M  V30 4147 H 372.982 -0.249724 1.52367 0
M  V30 4148 H 374.94 -3.18329 2.59186 0
M  V30 4149 H 373.601 -2.75747 1.50407 0
M  V30 4150 H 372.794 -3.27932 3.82722 0
M  V30 4151 H 372.396 -1.60469 3.37825 0
M  V30 4152 H 374.688 -3.97201 5.48851 0
M  V30 4153 H 375.631 -2.82549 6.49286 0
M  V30 4154 H 376.039 -3.02934 4.76331 0
M  V30 4155 N 375.437 -1.54477 -0.31217 0
M  V30 4156 C 376.853 -1.45442 -0.657185 0
M  V30 4157 C 377.053 -0.63653 -1.91182 0
M  V30 4158 O 376.109 -0.139815 -2.52113 0
M  V30 4159 C 377.422 -2.89287 -0.82058 0
M  V30 4160 C 378.97 -2.9926 -0.917188 0
M  V30 4161 C 379.445 -4.44279 -1.11267 0
M  V30 4162 N 380.936 -4.4794 -1.17914 0
M  V30 4163 C 381.671 -5.57318 -1.34848 0
M  V30 4164 N 381.167 -6.76642 -1.48752 0
M  V30 4165 N 382.96 -5.44986 -1.37647 0
M  V30 4166 H 375.111 -2.06129 0.512313 0
M  V30 4167 H 377.374 -0.933088 0.167485 0
M  V30 4168 H 377.08 -3.51687 0.0302604 0
M  V30 4169 H 376.954 -3.36061 -1.71298 0
M  V30 4170 H 379.341 -2.36981 -1.75852 0
M  V30 4171 H 379.422 -2.558 -0.00101257 0
M  V30 4172 H 379.066 -5.07149 -0.27614 0
M  V30 4173 H 378.996 -4.85359 -2.04289 0
M  V30 4174 H 381.487 -3.61969 -1.08567 0
M  V30 4175 H 381.8 -7.55758 -1.61397 0
M  V30 4176 H 380.145 -6.79529 -1.45828 0
M  V30 4177 H 383.336 -4.50715 -1.26388 0
M  V30 4178 H 383.509 -6.3028 -1.50501 0
M  V30 4179 N 376.915 0.57481 -1.46744 0
M  V30 4180 C 378.192 1.3352 -1.4294 0
M  V30 4181 C 378.572 2.10775 -0.117009 0
M  V30 4182 O 377.92 2.09966 0.901474 0
M  V30 4183 C 378.13 2.25456 -2.66403 0
M  V30 4184 C 379.478 2.87035 -3.12883 0
M  V30 4185 O 380.502 2.35766 -2.67007 0
M  V30 4186 O 379.361 3.80179 -3.92589 0
M  V30 4187 H 376.455 0.600318 -0.568812 0
M  V30 4188 H 379.001 0.595171 -1.58921 0
M  V30 4189 H 377.773 1.67851 -3.53471 0
M  V30 4190 H 377.396 3.06785 -2.52921 0
M  V30 4191 N 378.394 1.34581 0.820102 0
M  V30 4192 C 379.304 1.28471 1.96297 0
M  V30 4193 C 380.32 0.191902 1.72939 0
M  V30 4194 O 381.496 0.418879 1.96996 0
M  V30 4195 C 378.561 1.04281 3.30645 0
M  V30 4196 C 377.622 2.22745 3.66992 0
M  V30 4197 C 376.855 1.997 4.9493 0
M  V30 4198 O 377.078 0.956656 5.6232 0
M  V30 4199 O 376.012 2.86723 5.2922 0
M  V30 4200 H 379.838 2.24624 2.04396 0
M  V30 4201 H 377.423 1.14816 0.955913 0
M  V30 4202 H 379.305 0.925841 4.11104 0
M  V30 4203 H 377.98 0.111697 3.23507 0
M  V30 4204 H 376.887 2.40003 2.86966 0
M  V30 4205 H 378.22 3.14257 3.78819 0
M  V30 4206 N 379.872 -1.04064 1.18357 0
M  V30 4207 C 380.819 -2.12077 0.910603 0
M  V30 4208 C 381.789 -1.65421 -0.15 0
M  V30 4209 O 382.974 -1.90797 -0.0103614 0
M  V30 4210 C 380.114 -3.42252 0.442472 0
M  V30 4211 C 379.227 -4.0252 1.5685 0
M  V30 4212 C 378.362 -5.20657 1.05309 0
M  V30 4213 C 377.401 -5.72955 2.1538 0
M  V30 4214 N 376.538 -6.8238 1.65233 0
M  V30 4215 H 381.378 -2.34764 1.83548 0
M  V30 4216 H 378.915 -1.15157 0.915279 0
M  V30 4217 H 380.873 -4.16921 0.152534 0
M  V30 4218 H 379.503 -3.19712 -0.445428 0
M  V30 4219 H 378.555 -3.25178 1.97391 0
M  V30 4220 H 379.867 -4.37362 2.39824 0
M  V30 4221 H 379.021 -6.0244 0.717677 0
M  V30 4222 H 377.76 -4.87318 0.19293 0
M  V30 4223 H 376.765 -4.89793 2.49766 0
M  V30 4224 H 377.99 -6.08337 3.01832 0
M  V30 4225 H 375.936 -6.50917 0.815064 0
M  V30 4226 H 375.853 -7.16286 2.41805 0
M  V30 4227 H 377.121 -7.67788 1.34619 0
M  V30 4228 N 381.35 -0.985608 -1.22978 0
M  V30 4229 C 382.297 -0.529825 -2.24636 0
M  V30 4230 C 383.267 0.434028 -1.60329 0
M  V30 4231 O 384.452 0.340414 -1.87739 0
M  V30 4232 C 381.592 0.156533 -3.44745 0
M  V30 4233 C 380.705 -0.848197 -4.23591 0
M  V30 4234 C 379.84 -0.136109 -5.31026 0
M  V30 4235 C 378.879 -1.1297 -6.01585 0
M  V30 4236 N 378.016 -0.446415 -7.00679 0
M  V30 4237 H 382.856 -1.40148 -2.62988 0
M  V30 4238 H 380.393 -0.702168 -1.29259 0
M  V30 4239 H 382.351 0.571324 -4.1327 0
M  V30 4240 H 380.981 0.992025 -3.07179 0
M  V30 4241 H 380.033 -1.38135 -3.54433 0
M  V30 4242 H 381.345 -1.60512 -4.72268 0
M  V30 4243 H 380.499 0.335784 -6.0577 0
M  V30 4244 H 379.238 0.653373 -4.83304 0
M  V30 4245 H 378.243 -1.6123 -5.25628 0
M  V30 4246 H 379.468 -1.91993 -6.51395 0
M  V30 4247 H 377.414 0.323763 -6.55201 0
M  V30 4248 H 377.331 -1.1419 -7.47326 0
M  V30 4249 H 378.599 0.00291697 -7.795 0
M  V30 4250 N 382.828 1.3818 -0.7579 0
M  V30 4251 C 384.075 2.00019 -0.315985 0
M  V30 4252 C 384.403 1.60163 1.10355 0
M  V30 4253 O 383.658 0.83264 1.77103 0
M  V30 4254 C 383.957 3.55252 -0.391218 0
M  V30 4255 C 383.623 4.14834 -1.76702 0
M  V30 4256 C 382.285 4.30821 -2.14353 0
M  V30 4257 C 384.637 4.47658 -2.66931 0
M  V30 4258 C 381.965 4.76928 -3.41696 0
M  V30 4259 C 384.317 4.95184 -3.93669 0
M  V30 4260 C 382.981 5.09377 -4.31383 0
M  V30 4261 H 382.251 0.731923 -0.115627 0
M  V30 4262 H 384.898 1.65161 -0.969223 0
M  V30 4263 H 383.203 3.90273 0.34558 0
M  V30 4264 H 384.9 4.00988 -0.030805 0
M  V30 4265 H 381.49 4.02808 -1.46435 0
M  V30 4266 H 385.674 4.34904 -2.39106 0
M  V30 4267 H 380.93 4.86103 -3.70829 0
M  V30 4268 H 385.104 5.19551 -4.63724 0
M  V30 4269 H 382.731 5.44865 -5.30119 0
M  V30 4270 N 384.306 0.507319 1.49211 0
M  V30 4271 C 385.583 -0.0982702 1.95353 0
M  V30 4272 C 385.963 -1.53516 1.449 0
M  V30 4273 O 385.311 -2.18594 0.66551 0
M  V30 4274 C 385.521 -0.00440283 3.49 0
M  V30 4275 C 386.869 -0.175147 4.24239 0
M  V30 4276 O 387.893 -0.0792891 3.56112 0
M  V30 4277 O 386.752 -0.37276 5.45227 0
M  V30 4278 H 383.846 -0.0918236 0.821887 0
M  V30 4279 H 386.392 0.570307 1.5983 0
M  V30 4280 H 385.164 0.997402 3.78375 0
M  V30 4281 H 384.787 -0.712845 3.91158 0
M  V30 4282 N 385.784 -1.5574 0.241426 0
M  V30 4283 C 387.009 -2.0366 -0.392111 0
M  V30 4284 C 387.434 -1.11969 -1.51144 0
M  V30 4285 O 386.792 -0.111594 -1.80956 0
M  V30 4286 C 386.84 -3.49638 -0.882371 0
M  V30 4287 O 385.944 -3.6108 -1.99235 0
M  V30 4288 H 385.285 -0.658379 -0.0862122 0
M  V30 4289 H 387.815 -2.01302 0.365881 0
M  V30 4290 H 387.825 -3.90351 -1.18702 0
M  V30 4291 H 386.5 -4.15852 -0.0632361 0
M  V30 4292 H 385.077 -3.32262 -1.69282 0
M  V30 4293 N 387.262 0.0317525 -1.57568 0
M  V30 4294 C 388.511 0.722131 -1.8833 0
M  V30 4295 C 388.824 1.76664 -0.839587 0
M  V30 4296 O 390.03 2.50942 -1.03635 0
M  V30 4297 C 388.486 1.33544 -3.34207 0
M  V30 4298 C 388.094 0.327415 -4.46802 0
M  V30 4299 C 389.838 2.00585 -3.7412 0
M  V30 4300 C 387.745 0.948915 -5.83738 0
M  V30 4301 H 386.675 0.273466 -0.702661 0
M  V30 4302 H 389.326 -0.0235811 -1.83485 0
M  V30 4303 H 387.708 2.13077 -3.33788 0
M  V30 4304 H 388.882 -0.441006 -4.58685 0
M  V30 4305 H 387.197 -0.240758 -4.15703 0
M  V30 4306 H 389.794 2.47932 -4.73744 0
M  V30 4307 H 390.137 2.82285 -3.05975 0
M  V30 4308 H 390.67 1.27831 -3.76702 0
M  V30 4309 H 387.409 0.171387 -6.55276 0
M  V30 4310 H 386.929 1.68724 -5.7558 0
M  V30 4311 H 388.608 1.45705 -6.3038 0
M  V30 4312 N 388.74 1.54641 0.303973 0
M  V30 4313 C 389.65 1.88439 1.39743 0
M  V30 4314 C 390.666 0.778239 1.55626 0
M  V30 4315 O 391.842 1.07442 1.70347 0
M  V30 4316 C 388.907 2.12212 2.74166 0
M  V30 4317 C 387.968 3.35936 2.67293 0
M  V30 4318 C 387.201 3.58566 3.95305 0
M  V30 4319 O 387.424 2.84263 4.9452 0
M  V30 4320 O 386.358 4.52078 3.97378 0
M  V30 4321 H 390.184 2.81458 1.14083 0
M  V30 4322 H 387.769 1.40793 0.499768 0
M  V30 4323 H 389.651 2.29067 3.53704 0
M  V30 4324 H 388.326 1.22379 2.99675 0
M  V30 4325 H 387.233 3.24448 1.86237 0
M  V30 4326 H 388.566 4.2589 2.46736 0
M  V30 4327 N 390.218 -0.567019 1.47046 0
M  V30 4328 C 391.128 -1.70247 1.6141 0
M  V30 4329 C 392.144 -1.66746 0.497157 0
M  V30 4330 O 393.32 -1.86371 0.763389 0
M  V30 4331 C 390.385 -3.06756 1.61561 0
M  V30 4332 C 389.446 -3.21399 2.84607 0
M  V30 4333 C 388.679 -4.51396 2.84741 0
M  V30 4334 O 388.902 -5.36255 1.94388 0
M  V30 4335 O 387.836 -4.69621 3.76483 0
M  V30 4336 H 391.662 -1.61073 2.57467 0
M  V30 4337 H 389.247 -0.735894 1.30019 0
M  V30 4338 H 391.129 -3.8801 1.64396 0
M  V30 4339 H 389.804 -3.16333 0.686684 0
M  V30 4340 H 388.711 -2.39579 2.8732 0
M  V30 4341 H 390.044 -3.16721 3.76761 0
M  V30 4342 N 391.696 -1.35014 -0.812953 0
M  V30 4343 C 392.626 -1.30069 -1.93919 0
M  V30 4344 C 393.607 -0.176275 -1.69184 0
M  V30 4345 O 394.792 -0.370227 -1.90638 0
M  V30 4346 C 391.922 -1.06547 -3.30552 0
M  V30 4347 C 390.876 -2.15561 -3.69753 0
M  V30 4348 C 390.202 -1.77214 -5.04479 0
M  V30 4349 C 391.502 -3.57476 -3.808 0
M  V30 4350 H 393.196 -2.24303 -1.98314 0
M  V30 4351 H 390.742 -1.07977 -0.952736 0
M  V30 4352 H 392.695 -1.01729 -4.08937 0
M  V30 4353 H 391.419 -0.0875719 -3.26483 0
M  V30 4354 H 390.078 -2.19466 -2.9365 0
M  V30 4355 H 389.726 -0.780589 -4.96906 0
M  V30 4356 H 389.426 -2.50184 -5.31678 0
M  V30 4357 H 390.95 -1.7391 -5.8531 0
M  V30 4358 H 392.364 -3.55929 -4.4943 0
M  V30 4359 H 390.761 -4.29152 -4.19462 0
M  V30 4360 H 391.831 -3.94091 -2.82525 0
M  V30 4361 N 393.175 1.03435 -1.18907 0
M  V30 4362 C 394.122 2.11591 -0.921837 0
M  V30 4363 C 395.092 1.65499 0.141226 0
M  V30 4364 O 396.277 1.908 0.000242829 0
M  V30 4365 C 393.417 3.42012 -0.460616 0
M  V30 4366 C 392.53 4.01682 -1.58982 0
M  V30 4367 C 391.665 5.20091 -1.08069 0
M  V30 4368 C 390.704 5.71805 -2.18416 0
M  V30 4369 N 389.841 6.81494 -1.68849 0
M  V30 4370 H 394.681 2.33787 -1.8479 0
M  V30 4371 H 392.218 1.1467 -0.921373 0
M  V30 4372 H 394.176 4.16834 -0.174642 0
M  V30 4373 H 392.806 3.19944 0.428467 0
M  V30 4374 H 391.858 3.24127 -1.99113 0
M  V30 4375 H 393.17 4.36084 -2.4214 0
M  V30 4376 H 392.324 6.02051 -0.749615 0
M  V30 4377 H 391.063 4.87209 -0.218771 0
M  V30 4378 H 390.068 4.88461 -2.5236 0
M  V30 4379 H 391.293 6.06728 -3.05054 0
M  V30 4380 H 389.239 6.50475 -0.849572 0
M  V30 4381 H 389.156 7.14994 -2.45601 0
M  V30 4382 H 390.424 7.67063 -1.38689 0
M  V30 4383 N 394.653 0.992116 1.22453 0
M  V30 4384 C 395.616 0.546883 2.2258 0
M  V30 4385 C 396.616 -0.369829 1.56489 0
M  V30 4386 O 397.806 -0.161896 1.73446 0
M  V30 4387 C 394.938 -0.204659 3.40285 0
M  V30 4388 H 396.131 1.43234 2.63484 0
M  V30 4389 H 393.684 0.779239 1.3549 0
M  V30 4390 H 394.419 -1.10614 3.04853 0
M  V30 4391 H 394.204 0.45354 3.89468 0
M  V30 4392 H 395.694 -0.504358 4.14543 0
M  V30 4393 N 396.131 -1.37776 0.765217 0
M  V30 4394 C 397.094 -2.28686 0.153416 0
M  V30 4395 C 398.094 -1.47727 -0.635081 0
M  V30 4396 O 399.284 -1.68027 -0.459632 0
M  V30 4397 C 396.416 -3.31608 -0.790495 0
M  V30 4398 H 397.609 -2.84297 0.954723 0
M  V30 4399 H 395.162 -1.46932 0.53299 0
M  V30 4400 H 395.897 -2.81109 -1.61705 0
M  V30 4401 H 395.682 -3.9144 -0.227348 0
M  V30 4402 H 397.172 -3.99559 -1.21419 0
M  V30 4403 N 397.609 -0.515225 -1.4894 0
M  V30 4404 C 398.858 0.0261361 -2.01683 0
M  V30 4405 C 399.171 1.36719 -1.39883 0
M  V30 4406 O 400.377 1.99606 -1.84037 0
M  V30 4407 C 398.833 0.0970111 -3.59769 0
M  V30 4408 C 398.441 -1.23825 -4.30548 0
M  V30 4409 C 400.185 0.587981 -4.20408 0
M  V30 4410 C 398.092 -1.12877 -5.80528 0
M  V30 4411 H 397.022 0.0135398 -0.753878 0
M  V30 4412 H 399.673 -0.656787 -1.71343 0
M  V30 4413 H 398.055 0.844694 -3.86886 0
M  V30 4414 H 399.229 -2.00034 -4.15118 0
M  V30 4415 H 397.544 -1.66379 -3.81716 0
M  V30 4416 H 400.141 0.68763 -5.3026 0
M  V30 4417 H 400.484 1.59026 -3.84729 0
M  V30 4418 H 401.017 -0.103582 -3.97665 0
M  V30 4419 H 397.756 -2.10575 -6.20756 0
M  V30 4420 H 397.276 -0.407799 -5.98412 0
M  V30 4421 H 398.955 -0.813332 -6.41868 0
M  V30 4422 N 399.087 1.5561 -0.249682 0
M  V30 4423 C 400.364 1.90932 0.424761 0
M  V30 4424 C 400.744 1.17078 1.75658 0
M  V30 4425 O 400.092 0.289176 2.26663 0
M  V30 4426 C 400.302 3.43975 0.590109 0
M  V30 4427 C 401.65 4.15281 0.884714 0
M  V30 4428 O 402.674 3.49729 0.67587 0
M  V30 4429 O 401.533 5.31236 1.28259 0
M  V30 4430 H 398.627 0.794815 0.228468 0
M  V30 4431 H 401.173 1.67135 -0.293954 0
M  V30 4432 H 399.945 3.89748 -0.34818 0
M  V30 4433 H 399.568 3.73644 1.35926 0
M  V30 4434 N 400.565 -0.0233959 1.57583 0
M  V30 4435 C 401.497 -1.04994 2.03737 0
M  V30 4436 C 402.51 -1.32125 0.951152 0
M  V30 4437 O 403.699 -1.29512 1.22837 0
M  V30 4438 C 400.799 -2.39026 2.40249 0
M  V30 4439 C 399.972 -2.31171 3.7132 0
M  V30 4440 C 399.031 -3.47698 3.94959 0
M  V30 4441 O 398.057 -3.26937 4.65941 0
M  V30 4442 N 399.259 -4.6976 3.41037 0
M  V30 4443 H 402.024 -0.656507 2.92421 0
M  V30 4444 H 399.585 -0.211235 1.60516 0
M  V30 4445 H 401.577 -3.15712 2.53196 0
M  V30 4446 H 400.147 -2.70194 1.57207 0
M  V30 4447 H 399.367 -1.39547 3.68674 0
M  V30 4448 H 400.655 -2.23071 4.57293 0
M  V30 4449 H 400.053 -4.89528 2.83512 0
M  V30 4450 H 398.61 -5.43791 3.59353 0
M  V30 4451 N 402.043 -1.548 -0.295768 0
M  V30 4452 C 403.32 -1.65014 -1.05023 0
M  V30 4453 C 403.7 -0.501805 -2.05049 0
M  V30 4454 O 403.048 0.500869 -2.22943 0
M  V30 4455 C 403.258 -3.03252 -1.72741 0
M  V30 4456 C 404.606 -3.60242 -2.24746 0
M  V30 4457 O 405.63 -3.05737 -1.82765 0
M  V30 4458 O 404.489 -4.55687 -3.01681 0
M  V30 4459 H 401.583 -0.669314 -0.485744 0
M  V30 4460 H 404.129 -1.67144 -0.293438 0
M  V30 4461 H 402.901 -3.7827 -1.00138 0
M  V30 4462 H 402.524 -3.04922 -2.55163 0
M  V30 4463 N 403.521 0.559213 -1.47345 0
M  V30 4464 C 404.767 1.31843 -1.54095 0
M  V30 4465 C 405.1 1.93149 -0.201726 0
M  V30 4466 O 404.375 1.77759 0.789428 0
M  V30 4467 C 404.658 2.43006 -2.65744 0
M  V30 4468 C 404.511 1.86581 -4.09277 0
M  V30 4469 C 405.83 3.44943 -2.73318 0
M  V30 4470 H 402.949 0.478012 -0.560957 0
M  V30 4471 H 405.591 0.625977 -1.79392 0
M  V30 4472 H 403.741 3.02072 -2.44305 0
M  V30 4473 H 405.413 1.31792 -4.42073 0
M  V30 4474 H 403.656 1.17268 -4.17649 0
M  V30 4475 H 404.327 2.66933 -4.83168 0
M  V30 4476 H 406.803 2.95793 -2.92653 0
M  V30 4477 H 405.679 4.20153 -3.53218 0
M  V30 4478 H 405.94 4.03665 -1.80296 0
M  V30 4479 N 404.999 1.35443 0.805782 0
M  V30 4480 C 405.946 1.28431 1.91766 0
M  V30 4481 C 406.916 0.156102 1.65365 0
M  V30 4482 O 408.101 0.339936 1.87747 0
M  V30 4483 C 405.241 1.06301 3.2832 0
M  V30 4484 C 404.354 2.2805 3.66902 0
M  V30 4485 C 403.489 1.99064 4.92491 0
M  V30 4486 C 402.528 3.16863 5.23703 0
M  V30 4487 N 401.665 2.87647 6.40471 0
M  V30 4488 H 406.505 2.23511 1.97096 0
M  V30 4489 H 404.042 1.11105 0.964054 0
M  V30 4490 H 406 0.915012 4.07042 0
M  V30 4491 H 404.63 0.148822 3.22457 0
M  V30 4492 H 403.682 2.53711 2.83434 0
M  V30 4493 H 404.994 3.1601 3.85927 0
M  V30 4494 H 404.148 1.81099 5.7904 0
M  V30 4495 H 402.887 1.0839 4.75503 0
M  V30 4496 H 401.892 3.35404 4.35642 0
M  V30 4497 H 403.117 4.08339 5.4262 0
M  V30 4498 H 401.063 1.99568 6.24907 0
M  V30 4499 H 400.98 3.69141 6.59751 0
M  V30 4500 H 402.248 2.73226 7.30047 0
M  V30 4501 N 406.477 -1.02803 1.19454 0
M  V30 4502 C 407.702 -1.80378 1.02364 0
M  V30 4503 C 408.127 -1.83282 -0.423007 0
M  V30 4504 O 407.485 -1.25945 -1.30413 0
M  V30 4505 C 407.533 -3.23248 1.59821 0
M  V30 4506 O 406.637 -4.04 0.828105 0
M  V30 4507 H 405.978 -0.556799 0.361761 0
M  V30 4508 H 408.508 -1.29385 1.58495 0
M  V30 4509 H 408.518 -3.73994 1.63073 0
M  V30 4510 H 407.193 -3.2045 2.65113 0
M  V30 4511 H 405.77 -3.62635 0.86891 0
M  V30 4512 N 407.956 -0.998596 -1.21925 0
M  V30 4513 C 408.919 -0.558679 -2.22287 0
M  V30 4514 C 409.919 0.361525 -1.56683 0
M  V30 4515 O 411.109 0.152695 -1.73529 0
M  V30 4516 C 408.241 0.18661 -3.40389 0
M  V30 4517 H 409.434 -1.4463 -2.62721 0
M  V30 4518 H 406.987 -0.786413 -1.35075 0
M  V30 4519 H 407.722 1.08996 -3.05435 0
M  V30 4520 H 407.507 -0.474188 -3.89222 0
M  V30 4521 H 408.997 0.482367 -4.14805 0
M  V30 4522 N 409.434 1.37368 -0.772513 0
M  V30 4523 C 410.85 1.53059 -0.452231 0
M  V30 4524 C 411.05 1.73065 1.03203 0
M  V30 4525 O 410.106 1.75245 1.81784 0
M  V30 4526 C 411.419 2.72659 -1.26797 0
M  V30 4527 C 412.967 2.86521 -1.25995 0
M  V30 4528 C 413.442 4.09105 -2.05905 0
M  V30 4529 N 414.933 4.16219 -2.03263 0
M  V30 4530 C 415.668 5.10107 -2.61875 0
M  V30 4531 N 415.164 6.09547 -3.29278 0
M  V30 4532 N 416.957 5.02596 -2.51701 0
M  V30 4533 H 409.108 1.22634 -1.7342 0
M  V30 4534 H 411.371 0.597206 -0.736239 0
M  V30 4535 H 411.077 2.64343 -2.31982 0
M  V30 4536 H 410.951 3.66363 -0.897672 0
M  V30 4537 H 413.338 2.94308 -0.216081 0
M  V30 4538 H 413.419 1.93774 -1.66989 0
M  V30 4539 H 413.063 4.0208 -3.10313 0
M  V30 4540 H 412.993 5.00968 -1.62292 0
M  V30 4541 H 415.484 3.45012 -1.54192 0
M  V30 4542 H 415.797 6.77718 -3.71374 0
M  V30 4543 H 414.142 6.09824 -3.33377 0
M  V30 4544 H 417.333 4.23855 -1.98657 0
M  V30 4545 H 417.506 5.75582 -2.97673 0
M  V30 4546 N 410.912 0.523116 1.48665 0
M  V30 4547 C 411.86 -0.256859 2.31177 0
M  V30 4548 C 412.854 -0.94199 1.40794 0
M  V30 4549 O 414.06 -0.867157 1.57735 0
M  V30 4550 H 410.435 -0.1017 0.745091 0
M  V30 4551 H 412.406 0.458739 2.94853 0
M  V30 4552 C 411.155 -1.29503 3.22683 0
M  V30 4553 H 410.478 -0.777248 3.92172 0
M  V30 4554 H 411.918 -1.81233 3.83315 0
M  V30 4555 C 410.377 -2.32501 2.43813 0
M  V30 4556 O 410.907 -3.3881 2.15803 0
M  V30 4557 N 409.113 -2.05538 2.05432 0
M  V30 4558 H 408.66 -1.19104 2.28412 0
M  V30 4559 H 408.618 -2.74676 1.52973 0
M  V30 4560 N 412.39 -1.55475 0.257931 0
M  V30 4561 C 413.323 -2.179 -0.677862 0
M  V30 4562 C 414.301 -1.13448 -1.16483 0
M  V30 4563 O 415.485 -1.41889 -1.24095 0
M  V30 4564 C 412.612 -2.78851 -1.92249 0
M  V30 4565 C 411.658 -3.96454 -1.57246 0
M  V30 4566 S 412.491 -5.31349 -0.665501 0
M  V30 4567 C 413.647 -5.9576 -1.91889 0
M  V30 4568 H 413.88 -2.96934 -0.147396 0
M  V30 4569 H 411.413 -1.54342 0.0423023 0
M  V30 4570 H 413.371 -3.14602 -2.63697 0
M  V30 4571 H 412.032 -1.99742 -2.42409 0
M  V30 4572 H 411.225 -4.37731 -2.49814 0
M  V30 4573 H 410.827 -3.62038 -0.938325 0
M  V30 4574 H 413.119 -6.13947 -2.86487 0
M  V30 4575 H 414.062 -6.9094 -1.54942 0
M  V30 4576 H 414.47 -5.2494 -2.076 0
M  V30 4577 N 413.868 0.0150385 -1.57593 0
M  V30 4578 C 415.117 0.702115 -1.89085 0
M  V30 4579 C 415.43 1.75764 -0.858277 0
M  V30 4580 O 416.636 2.49829 -1.0629 0
M  V30 4581 C 415.092 1.29992 -3.35604 0
M  V30 4582 C 414.7 0.280007 -4.47124 0
M  V30 4583 C 416.444 1.96606 -3.76227 0
M  V30 4584 C 414.351 0.886949 -5.84711 0
M  V30 4585 H 413.281 0.265997 -0.705522 0
M  V30 4586 H 415.932 -0.0430408 -1.8345 0
M  V30 4587 H 414.314 2.09525 -3.36029 0
M  V30 4588 H 415.488 -0.489631 -4.58191 0
M  V30 4589 H 413.803 -0.284835 -4.15425 0
M  V30 4590 H 416.4 2.42893 -4.76347 0
M  V30 4591 H 416.743 2.79024 -3.08952 0
M  V30 4592 H 417.276 1.23828 -3.78036 0
M  V30 4593 H 414.015 0.101876 -6.55421 0
M  V30 4594 H 413.535 1.6261 -5.77337 0
M  V30 4595 H 415.214 1.39011 -6.3189 0
M  V30 4596 N 415.346 1.54954 0.287554 0
M  V30 4597 C 416.623 1.65569 1.04146 0
M  V30 4598 C 417.003 0.512672 2.0478 0
M  V30 4599 O 416.351 -0.489038 2.23205 0
M  V30 4600 C 416.561 3.04163 1.71131 0
M  V30 4601 C 417.909 3.61429 2.22832 0
M  V30 4602 O 418.933 3.06702 1.81141 0
M  V30 4603 O 417.792 4.57281 2.9926 0
M  V30 4604 H 414.886 0.671881 0.482188 0
M  V30 4605 H 417.432 1.67297 0.28457 0
M  V30 4606 H 416.204 3.78796 0.981303 0
M  V30 4607 H 415.827 3.06271 2.53543 0
M  V30 4608 N 416.824 -0.551391 1.4764 0
M  V30 4609 C 418.101 -1.31229 1.45046 0
M  V30 4610 C 418.481 -2.10563 0.150527 0
M  V30 4611 O 417.829 -2.11374 -0.867956 0
M  V30 4612 C 418.039 -2.21189 2.69956 0
M  V30 4613 C 419.387 -2.82021 3.1741 0
M  V30 4614 O 420.411 -2.31488 2.70724 0
M  V30 4615 O 419.27 -3.73885 3.98588 0
M  V30 4616 H 416.364 -0.591193 0.578291 0
M  V30 4617 H 418.91 -0.569813 1.59847 0
M  V30 4618 H 417.682 -1.62207 3.56096 0
M  V30 4619 H 417.305 -3.02722 2.57769 0
M  V30 4620 N 418.302 -1.35869 -0.798587 0
M  V30 4621 C 419.551 -1.28921 -1.5512 0
M  V30 4622 C 419.864 0.13208 -1.95154 0
M  V30 4623 O 421.07 0.323879 -2.69561 0
M  V30 4624 C 419.526 -2.26141 -2.79979 0
M  V30 4625 C 419.134 -3.73658 -2.47151 0
M  V30 4626 C 420.878 -2.28152 -3.57976 0
M  V30 4627 C 418.785 -4.62679 -3.6835 0
M  V30 4628 H 417.715 -0.479031 -0.582276 0
M  V30 4629 H 420.366 -1.61179 -0.877125 0
M  V30 4630 H 418.748 -1.86865 -3.49138 0
M  V30 4631 H 419.922 -4.21616 -1.85947 0
M  V30 4632 H 418.237 -3.74333 -1.82383 0
M  V30 4633 H 420.834 -2.91875 -4.4801 0
M  V30 4634 H 421.177 -1.28748 -3.95891 0
M  V30 4635 H 421.71 -2.65998 -2.95787 0
M  V30 4636 H 418.449 -5.63111 -3.35538 0
M  V30 4637 H 417.969 -4.19442 -4.28752 0
M  V30 4638 H 419.648 -4.78498 -4.35487 0
M  V30 4639 N 419.78 1.02168 -1.19998 0
M  V30 4640 C 421.029 1.75091 -1.0013 0
M  V30 4641 C 421.342 1.89923 0.467835 0
M  V30 4642 O 422.548 2.59888 0.785515 0
M  V30 4643 C 421.004 3.14892 -1.74273 0
M  V30 4644 C 420.612 3.0809 -3.25245 0
M  V30 4645 C 422.356 3.9206 -1.62755 0
M  V30 4646 C 420.263 4.42867 -3.91948 0
M  V30 4647 H 419.193 0.656394 -0.37103 0
M  V30 4648 H 421.844 1.14284 -1.43567 0
M  V30 4649 H 420.226 3.7621 -1.2362 0
M  V30 4650 H 421.4 2.5611 -3.83072 0
M  V30 4651 H 419.715 2.44416 -3.3712 0
M  V30 4652 H 422.312 4.91764 -2.09934 0
M  V30 4653 H 422.655 4.12199 -0.582894 0
M  V30 4654 H 423.188 3.37359 -2.10793 0
M  V30 4655 H 419.927 4.27931 -4.96543 0
M  V30 4656 H 419.447 4.94874 -3.3891 0
M  V30 4657 H 421.126 5.11728 -3.95909 0
M  V30 4658 N 421.258 1.00505 1.21394 0
M  V30 4659 C 422.206 0.558623 2.25792 0
M  V30 4660 C 423.2 -0.396848 1.64686 0
M  V30 4661 O 424.406 -0.268035 1.77993 0
M  V30 4662 H 420.781 0.1623 0.734277 0
M  V30 4663 H 422.752 1.4503 2.60785 0
M  V30 4664 C 421.501 -0.0989574 3.47559 0
M  V30 4665 H 420.824 0.627225 3.94849 0
M  V30 4666 H 422.264 -0.3746 4.22342 0
M  V30 4667 C 420.723 -1.33817 3.09184 0
M  V30 4668 O 421.253 -2.43252 3.19674 0
M  V30 4669 N 419.459 -1.21793 2.63846 0
M  V30 4670 H 419.006 -0.32746 2.5551 0
M  V30 4671 H 418.964 -2.04809 2.38539 0
M  V30 4672 N 422.737 -1.36956 0.779787 0
M  V30 4673 C 423.962 -2.04283 0.358224 0
M  V30 4674 C 424.387 -1.58422 -1.01411 0
M  V30 4675 O 423.745 -0.748179 -1.65142 0
M  V30 4676 C 423.793 -3.58152 0.419479 0
M  V30 4677 O 422.897 -4.08342 -0.577142 0
M  V30 4678 H 422.238 -0.645967 0.153698 0
M  V30 4679 H 424.768 -1.75108 1.05822 0
M  V30 4680 H 424.778 -4.07041 0.279636 0
M  V30 4681 H 423.453 -3.90886 1.42061 0
M  V30 4682 H 422.03 -3.70751 -0.399755 0
M  V30 4683 N 424.215 -0.530993 -1.48385 0
M  V30 4684 C 425.162 0.231223 -2.29639 0
M  V30 4685 C 426.132 0.932864 -1.37429 0
M  V30 4686 O 427.317 0.933692 -1.66394 0
M  V30 4687 C 424.457 1.27155 -3.2082 0
M  V30 4688 C 423.57 0.578655 -4.28107 0
M  V30 4689 C 422.705 1.602 -5.06467 0
M  V30 4690 C 421.744 0.892625 -6.05556 0
M  V30 4691 N 420.881 1.86157 -6.76971 0
M  V30 4692 H 425.721 -0.467848 -2.94305 0
M  V30 4693 H 423.258 -0.242556 -1.45086 0
M  V30 4694 H 425.216 1.88703 -3.72085 0
M  V30 4695 H 423.846 1.939 -2.58075 0
M  V30 4696 H 422.898 -0.150782 -3.80101 0
M  V30 4697 H 424.21 0.0217065 -4.98795 0
M  V30 4698 H 423.364 2.29173 -5.61751 0
M  V30 4699 H 422.103 2.19285 -4.35621 0
M  V30 4700 H 421.108 0.188829 -5.49476 0
M  V30 4701 H 422.333 0.307878 -6.78402 0
M  V30 4702 H 420.279 2.44147 -6.08875 0
M  V30 4703 H 420.196 1.35608 -7.43738 0
M  V30 4704 H 421.464 2.54325 -7.36844 0
M  V30 4705 N 425.693 1.55336 -0.266172 0
M  V30 4706 C 426.94 1.99397 0.353158 0
M  V30 4707 C 427.268 1.15451 1.56529 0
M  V30 4708 O 426.523 0.209974 1.9457 0
M  V30 4709 C 426.822 3.48606 0.787957 0
M  V30 4710 C 426.488 4.49773 -0.318541 0
M  V30 4711 C 425.15 4.77158 -0.62239 0
M  V30 4712 C 427.502 5.10212 -1.06459 0
M  V30 4713 C 424.83 5.62251 -1.67602 0
M  V30 4714 C 427.182 5.96449 -2.10788 0
M  V30 4715 C 425.846 6.22158 -2.41817 0
M  V30 4716 H 425.116 0.729644 0.12923 0
M  V30 4717 H 427.763 1.87732 -0.37802 0
M  V30 4718 H 426.068 3.57701 1.59866 0
M  V30 4719 H 427.765 3.80098 1.27775 0
M  V30 4720 H 424.355 4.2854 -0.0715925 0
M  V30 4721 H 428.539 4.89086 -0.843098 0
M  V30 4722 H 423.795 5.80419 -1.92155 0
M  V30 4723 H 427.969 6.42317 -2.69076 0
M  V30 4724 H 425.596 6.87888 -3.23596 0
M  V30 4725 N 427.171 -0.0066808 1.57599 0
M  V30 4726 C 428.081 -1.01671 2.11424 0
M  V30 4727 C 429.097 -1.38143 1.05795 0
M  V30 4728 O 430.273 -1.47011 1.37658 0
M  V30 4729 C 427.338 -2.29192 2.60139 0
M  V30 4730 C 426.399 -1.99094 3.80342 0
M  V30 4731 C 425.632 -3.20535 4.26724 0
M  V30 4732 O 425.855 -4.3199 3.72479 0
M  V30 4733 O 424.789 -3.04924 5.18946 0
M  V30 4734 H 428.615 -0.589181 2.9793 0
M  V30 4735 H 426.2 -0.225091 1.47695 0
M  V30 4736 H 428.082 -3.0412 2.917 0
M  V30 4737 H 426.757 -2.71195 1.76733 0
M  V30 4738 H 425.664 -1.21663 3.53764 0
M  V30 4739 H 426.997 -1.61931 4.648 0
M  V30 4740 N 428.649 -1.55105 -0.279332 0
M  V30 4741 C 429.596 -1.8755 -1.34513 0
M  V30 4742 C 430.566 -0.726384 -1.49375 0
M  V30 4743 O 431.751 -0.977063 -1.63884 0
M  V30 4744 C 428.891 -2.14738 -2.70151 0
M  V30 4745 C 428.004 -3.42285 -2.63562 0
M  V30 4746 C 427.139 -3.59206 -3.91337 0
M  V30 4747 C 426.178 -4.80467 -3.79233 0
M  V30 4748 N 425.315 -4.94079 -4.98829 0
M  V30 4749 H 430.155 -2.78456 -1.06143 0
M  V30 4750 H 427.692 -1.37867 -0.512936 0
M  V30 4751 H 429.65 -2.28501 -3.49061 0
M  V30 4752 H 428.28 -1.27075 -2.96735 0
M  V30 4753 H 427.332 -3.37029 -1.76397 0
M  V30 4754 H 428.644 -4.31328 -2.50515 0
M  V30 4755 H 427.798 -3.72751 -4.78687 0
M  V30 4756 H 426.537 -2.68337 -4.07243 0
M  V30 4757 H 425.542 -4.66932 -2.90266 0
M  V30 4758 H 426.767 -5.72765 -3.64852 0
M  V30 4759 H 424.713 -4.06139 -5.15158 0
M  V30 4760 H 424.63 -5.77156 -4.8829 0
M  V30 4761 H 425.898 -5.12003 -5.8777 0
M  V30 4762 N 430.127 0.543554 -1.4793 0
M  V30 4763 C 431.037 1.67657 -1.64098 0
M  V30 4764 C 432.053 1.65934 -0.523622 0
M  V30 4765 O 433.229 1.85133 -0.792943 0
M  V30 4766 C 430.294 3.04146 -1.66421 0
M  V30 4767 C 429.355 3.16831 -2.89684 0
M  V30 4768 C 428.588 4.46809 -2.91886 0
M  V30 4769 O 428.811 5.33095 -2.02895 0
M  V30 4770 O 427.745 4.63573 -3.83906 0
M  V30 4771 H 431.571 1.56957 -2.59997 0
M  V30 4772 H 429.156 0.715116 -1.31173 0
M  V30 4773 H 431.038 3.85346 -1.70548 0
M  V30 4774 H 429.713 3.152 -0.736923 0
M  V30 4775 H 428.62 2.34977 -2.91095 0
M  V30 4776 H 429.953 3.10687 -3.81752 0
M  V30 4777 N 431.605 1.3629 0.791371 0
M  V30 4778 C 432.853 1.30154 1.5461 0
M  V30 4779 C 433.174 -0.119409 1.94634 0
M  V30 4780 O 432.444 -1.05924 1.64794 0
M  V30 4781 H 431.024 0.478784 0.573389 0
M  V30 4782 H 433.686 1.70565 0.94306 0
M  V30 4783 H 432.782 1.92762 2.45457 0
M  V30 4784 O 433.122 -0.93083 1.31977 0
M  V30 4785 H 433.813 -1.56227 1.14512 0
M  V30 END ATOM
M  V30 BEGIN BOND
M  V30 END BOND
M  V30 END CTAB
M  END
$$$$
