drugbank_target|Q8IKW5 Elongation factor 2 (DB11638)
 OpenBabel12092121093D

  0  0  0     0  0            999 V3000
M  V30 BEGIN CTAB
M  V30 COUNTS 13147 13273 0 0 0
M  V30 BEGIN ATOM
M  V30 1 H -0.908 1.98254 -0.117106 0
M  V30 2 N 0 1.576 0 0
M  V30 3 C 0.933 2.03868 1.02534 0
M  V30 4 C 1.911 0.928543 1.3348 0
M  V30 5 O 3.095 1.19667 1.45644 0
M  V30 6 C 0.222 2.43627 2.35294 0
M  V30 7 C -0.732 3.65373 2.2001 0
M  V30 8 S 0.101 5.13292 1.52614 0
M  V30 9 C 1.257 5.56322 2.86805 0
M  V30 10 H 1.49 2.90518 0.631377 0
M  V30 11 H -0.977 1.52953 0.210867 0
M  V30 12 H 0.981 2.67203 3.11629 0
M  V30 13 H -0.358 1.57376 2.7183 0
M  V30 14 H -1.165 3.90944 3.18086 0
M  V30 15 H -1.563 3.418 1.51819 0
M  V30 16 H 0.729 5.58782 3.83104 0
M  V30 17 H 1.672 6.56266 2.65933 0
M  V30 18 H 2.08 4.83886 2.90714 0
M  V30 19 N 1.4781 -0.272755 1.55222 0
M  V30 20 C 2.7241 -1.00581 1.761 0
M  V30 21 C 3.0571 -1.85932 0.560625 0
M  V30 22 O 2.3321 -1.89416 -0.441801 0
M  V30 23 C 2.6151 -1.88816 3.06628 0
M  V30 24 C 2.4681 -1.06457 4.37021 0
M  V30 25 C 3.7871 -2.8752 3.33197 0
M  V30 26 H 0.9061 -0.364244 0.640699 0
M  V30 27 H 3.5481 -0.278189 1.87952 0
M  V30 28 H 1.6981 -2.50856 2.96654 0
M  V30 29 H 3.3701 -0.464863 4.58952 0
M  V30 30 H 1.6131 -0.368043 4.32236 0
M  V30 31 H 2.2841 -1.71514 5.24678 0
M  V30 32 H 4.7601 -2.35615 3.42965 0
M  V30 33 H 3.6361 -3.46399 4.25792 0
M  V30 34 H 3.8971 -3.62657 2.52849 0
M  V30 35 N 2.9562 -1.48159 -0.537278 0
M  V30 36 C 3.9042 -1.62573 -1.66352 0
M  V30 37 C 4.8982 -0.492366 -1.62087 0
M  V30 38 O 6.1042 -0.670847 -1.67032 0
M  V30 39 H 2.4792 -0.511992 -0.550789 0
M  V30 40 H 4.4502 -2.57176 -1.51337 0
M  V30 41 C 3.1992 -1.67583 -3.04649 0
M  V30 42 H 2.5222 -2.54151 -3.08622 0
M  V30 43 H 3.9622 -1.81713 -3.83088 0
M  V30 44 C 2.4212 -0.413039 -3.34358 0
M  V30 45 O 2.9512 0.477259 -3.98855 0
M  V30 46 N 1.1572 -0.286961 -2.8918 0
M  V30 47 H 0.7042 -1.01241 -2.36871 0
M  V30 48 H 0.6622 0.556963 -3.09427 0
M  V30 49 N 4.4343 0.785586 -1.36625 0
M  V30 50 C 5.6813 1.54362 -1.31067 0
M  V30 51 C 6.0093 1.94195 0.10893 0
M  V30 52 O 5.2643 1.63262 1.07908 0
M  V30 53 C 5.5633 2.83007 -2.1827 0
M  V30 54 C 5.2293 2.62294 -3.6676 0
M  V30 55 C 3.8913 2.56353 -4.0723 0
M  V30 56 C 6.2433 2.43371 -4.6089 0
M  V30 57 C 3.5713 2.29461 -5.39967 0
M  V30 58 C 5.9233 2.18005 -5.93849 0
M  V30 59 C 4.5873 2.105 -6.3344 0
M  V30 60 H 3.8573 0.564851 -0.479609 0
M  V30 61 H 6.5043 0.906028 -1.68711 0
M  V30 62 H 4.8093 3.51253 -1.73576 0
M  V30 63 H 6.5063 3.40817 -2.11292 0
M  V30 64 H 3.0963 2.67774 -3.34656 0
M  V30 65 H 7.2803 2.46959 -4.30494 0
M  V30 66 H 2.5363 2.22135 -5.69619 0
M  V30 67 H 6.7103 2.02359 -6.66351 0
M  V30 68 H 4.3373 1.89425 -7.36222 0
M  V30 69 N 5.9124 1.20967 1.01018 0
M  V30 70 C 7.1404 1.04956 1.78303 0
M  V30 71 C 7.5554 -0.400915 1.84494 0
M  V30 72 O 6.9124 -1.27826 1.30257 0
M  V30 73 C 6.9634 1.63403 3.22462 0
M  V30 74 O 6.6844 3.02775 3.16637 0
M  V30 75 C 8.1854 1.52432 4.16268 0
M  V30 76 H 5.4054 0.368858 0.560522 0
M  V30 77 H 7.9494 1.60193 1.27116 0
M  V30 78 H 6.1044 1.1227 3.70775 0
M  V30 79 H 6.5184 3.30626 4.07169 0
M  V30 80 H 7.9924 1.98078 5.15237 0
M  V30 81 H 8.4694 0.477875 4.36592 0
M  V30 82 H 9.0754 2.02787 3.73841 0
M  V30 83 N 7.3905 -1.2043 1.01659 0
M  V30 84 C 8.6365 -1.90079 0.706963 0
M  V30 85 C 8.9695 -1.78648 -0.761474 0
M  V30 86 O 8.2445 -1.17069 -1.55323 0
M  V30 87 C 8.5275 -3.41469 1.14327 0
M  V30 88 C 8.3805 -3.61833 2.67201 0
M  V30 89 C 9.6995 -4.34261 0.714529 0
M  V30 90 H 6.8185 -0.690254 0.2583 0
M  V30 91 H 9.4605 -1.41826 1.26433 0
M  V30 92 H 7.6105 -3.82696 0.669056 0
M  V30 93 H 9.2825 -3.2986 3.22475 0
M  V30 94 H 7.5255 -3.05304 3.08175 0
M  V30 95 H 8.1965 -4.67955 2.92783 0
M  V30 96 H 10.6725 -4.00682 1.12221 0
M  V30 97 H 9.5485 -5.38806 1.04784 0
M  V30 98 H 9.8095 -4.40431 -0.383799 0
M  V30 99 N 8.8686 -0.792821 -1.36206 0
M  V30 100 C 10.1456 -0.290627 -1.93429 0
M  V30 101 C 10.5256 1.21773 -1.72437 0
M  V30 102 O 9.8736 2.0108 -1.08531 0
M  V30 103 C 10.0836 -0.686973 -3.42172 0
M  V30 104 C 11.4316 -0.668643 -4.19302 0
M  V30 105 O 12.4556 -0.627658 -3.50626 0
M  V30 106 O 11.3146 -0.714597 -5.41808 0
M  V30 107 H 8.4086 -0.0727927 -0.82379 0
M  V30 108 H 10.9546 -0.875593 -1.45367 0
M  V30 109 H 9.7266 -1.72711 -3.51122 0
M  V30 110 H 9.3496 -0.0760733 -3.97527 0
M  V30 111 N 10.3467 1.47872 -0.545128 0
M  V30 112 C 11.2787 2.27869 0.246621 0
M  V30 113 C 12.2917 1.36282 0.890561 0
M  V30 114 O 13.4807 1.61207 0.766449 0
M  V30 115 C 10.5807 3.10159 1.36582 0
M  V30 116 C 9.7537 4.29627 0.820954 0
M  V30 117 C 8.8127 4.93607 1.82314 0
M  V30 118 O 7.8387 5.52366 1.37406 0
M  V30 119 N 9.0407 4.87211 3.15603 0
M  V30 120 H 11.8057 2.96459 -0.439539 0
M  V30 121 H 9.3667 1.57367 -0.380421 0
M  V30 122 H 11.3587 3.49829 2.03474 0
M  V30 123 H 9.9287 2.43891 1.9554 0
M  V30 124 H 9.1487 3.94192 -0.0244032 0
M  V30 125 H 10.4367 5.06928 0.436063 0
M  V30 126 H 9.8347 4.40651 3.54744 0
M  V30 127 H 8.3917 5.30937 3.78087 0
M  V30 128 N 11.8248 0.280983 1.55075 0
M  V30 129 C 13.0708 -0.33461 2.00021 0
M  V30 130 C 13.4038 -1.55063 1.16915 0
M  V30 131 O 12.6788 -1.93006 0.240646 0
M  V30 132 C 12.9618 -0.711007 3.53011 0
M  V30 133 C 12.8148 0.512766 4.46868 0
M  V30 134 C 14.1338 -1.54522 4.12081 0
M  V30 135 H 11.2528 -0.120147 0.727141 0
M  V30 136 H 13.8948 0.389097 1.85973 0
M  V30 137 H 12.0448 -1.32761 3.65112 0
M  V30 138 H 13.7168 1.15131 4.46702 0
M  V30 139 H 11.9598 1.14975 4.18286 0
M  V30 140 H 12.6308 0.205556 5.51617 0
M  V30 141 H 15.1068 -1.02442 4.03293 0
M  V30 142 H 13.9828 -1.77739 5.19327 0
M  V30 143 H 14.2438 -2.52813 3.62682 0
M  V30 144 N 13.3029 -1.57598 0.00835791 0
M  V30 145 C 14.7189 -1.55764 -0.347822 0
M  V30 146 C 14.9189 -1.01186 -1.74252 0
M  V30 147 O 13.9749 -0.649371 -2.44007 0
M  V30 148 C 15.2879 -2.99927 -0.215407 0
M  V30 149 C 16.8359 -3.11656 -0.289725 0
M  V30 150 C 17.3109 -4.57621 -0.18634 0
M  V30 151 N 18.8019 -4.62557 -0.243978 0
M  V30 152 C 19.5369 -5.73094 -0.18745 0
M  V30 153 N 19.0329 -6.92753 -0.0810331 0
M  V30 154 N 20.8259 -5.61588 -0.239925 0
M  V30 155 H 12.9769 -1.91411 0.92062 0
M  V30 156 H 15.2399 -0.879562 0.353659 0
M  V30 157 H 14.9459 -3.43729 0.744512 0
M  V30 158 H 14.8199 -3.63865 -0.994097 0
M  V30 159 H 17.2069 -2.67779 -1.24009 0
M  V30 160 H 17.2879 -2.5048 0.51898 0
M  V30 161 H 16.9319 -5.02174 0.760519 0
M  V30 162 H 16.8619 -5.16752 -1.01364 0
M  V30 163 H 19.3529 -3.76481 -0.327217 0
M  V30 164 H 19.6659 -7.72787 -0.0440241 0
M  V30 165 H 18.0109 -6.94984 -0.0465419 0
M  V30 166 H 21.2019 -4.66996 -0.321317 0
M  V30 167 H 21.3749 -6.47714 -0.192407 0
M  V30 168 N 14.781 0.264519 -1.55364 0
M  V30 169 C 15.691 1.34902 -1.91934 0
M  V30 170 C 16.707 1.53595 -0.817593 0
M  V30 171 O 17.883 1.67558 -1.11742 0
M  V30 172 C 14.948 2.68676 -2.19121 0
M  V30 173 C 14.009 2.58657 -3.4263 0
M  V30 174 C 13.242 3.86051 -3.68511 0
M  V30 175 O 13.465 4.87126 -2.96757 0
M  V30 176 O 12.399 3.85744 -4.62045 0
M  V30 177 H 16.225 1.06883 -2.8427 0
M  V30 178 H 13.81 0.463775 -1.42019 0
M  V30 179 H 15.692 3.47759 -2.37995 0
M  V30 180 H 14.367 2.96463 -1.29966 0
M  V30 181 H 13.274 1.7792 -3.29082 0
M  V30 182 H 14.607 2.35818 -4.32031 0
M  V30 183 N 16.2591 1.48442 0.529413 0
M  V30 184 C 17.5081 1.55742 1.28169 0
M  V30 185 C 17.8211 0.236511 1.94165 0
M  V30 186 O 19.0271 0.187761 2.7085 0
M  V30 187 C 17.4831 2.74667 2.32564 0
M  V30 188 C 17.0911 4.13402 1.72636 0
M  V30 189 C 18.8351 2.9128 3.08798 0
M  V30 190 C 16.7421 5.23587 2.74975 0
M  V30 191 H 15.6721 0.579796 0.48203 0
M  V30 192 H 18.3231 1.74776 0.559056 0
M  V30 193 H 16.7051 2.49067 3.07866 0
M  V30 194 H 17.8791 4.49022 1.03519 0
M  V30 195 H 16.1941 4.0191 1.08892 0
M  V30 196 H 18.7911 3.70767 3.85274 0
M  V30 197 H 19.1341 2.00757 3.64695 0
M  V30 198 H 19.6671 3.16782 2.40611 0
M  V30 199 H 16.4061 6.16076 2.23897 0
M  V30 200 H 15.9261 4.92454 3.42417 0
M  V30 201 H 17.6051 5.51724 3.37949 0
M  V30 202 N 17.7372 -0.778329 1.37039 0
M  V30 203 C 18.6702 -1.8984 1.26633 0
M  V30 204 C 19.6482 -1.61923 0.148197 0
M  V30 205 O 20.8322 -1.85742 0.321265 0
M  V30 206 C 17.9592 -3.24916 0.956403 0
M  V30 207 C 17.0052 -3.71752 2.09051 0
M  V30 208 S 17.8382 -3.86201 3.70957 0
M  V30 209 C 18.9942 -5.24135 3.42101 0
M  V30 210 H 19.2272 -1.98377 2.21436 0
M  V30 211 H 16.7602 -0.938738 1.22585 0
M  V30 212 H 18.7182 -4.02936 0.784409 0
M  V30 213 H 17.3792 -3.14089 0.0259713 0
M  V30 214 H 16.5722 -4.69661 1.8285 0
M  V30 215 H 16.1742 -3.00815 2.2223 0
M  V30 216 H 18.4662 -6.09086 2.96682 0
M  V30 217 H 19.4092 -5.55346 4.39314 0
M  V30 218 H 19.8172 -4.91761 2.77185 0
M  V30 219 N 19.2153 -1.21501 -1.00376 0
M  V30 220 C 20.1633 -0.972442 -2.11297 0
M  V30 221 C 21.1573 0.080731 -1.69208 0
M  V30 222 O 22.3633 -0.0707666 -1.79861 0
M  V30 223 H 18.7383 -0.297218 -0.690772 0
M  V30 224 H 20.7093 -1.91394 -2.28934 0
M  V30 225 C 19.4583 -0.555065 -3.43241 0
M  V30 226 H 18.7813 -1.35709 -3.76062 0
M  V30 227 H 20.2213 -0.424664 -4.21868 0
M  V30 228 C 18.6803 0.734147 -3.28804 0
M  V30 229 O 19.2103 1.78937 -3.59645 0
M  V30 230 N 17.4163 0.701133 -2.82015 0
M  V30 231 H 16.9633 -0.157874 -2.57116 0
M  V30 232 H 16.9213 1.56403 -2.72737 0
M  V30 233 N 20.6934 1.19889 -1.02296 0
M  V30 234 C 21.6404 2.22901 -0.598651 0
M  V30 235 C 22.6104 1.61588 0.384521 0
M  V30 236 O 23.7954 1.88697 0.282522 0
M  V30 237 C 20.9354 3.45063 0.0504476 0
M  V30 238 C 20.0484 4.20783 -0.978053 0
M  V30 239 C 19.1834 5.30356 -0.299338 0
M  V30 240 C 18.2224 5.97826 -1.31416 0
M  V30 241 N 17.3594 6.98975 -0.661667 0
M  V30 242 H 22.1994 2.58554 -1.48169 0
M  V30 243 H 19.7364 1.27039 -0.741584 0
M  V30 244 H 21.6944 4.14831 0.443971 0
M  V30 245 H 20.3244 3.10084 0.897097 0
M  V30 246 H 19.3764 3.50018 -1.48969 0
M  V30 247 H 20.6884 4.67109 -1.74958 0
M  V30 248 H 19.8424 6.06516 0.149347 0
M  V30 249 H 18.5814 4.85084 0.504445 0
M  V30 250 H 17.5864 5.20422 -1.77317 0
M  V30 251 H 18.8114 6.45183 -2.11933 0
M  V30 252 H 16.7574 6.55886 0.122132 0
M  V30 253 H 16.6744 7.43461 -1.37117 0
M  V30 254 H 17.9424 7.7914 -0.236785 0
M  V30 255 N 22.1715 0.800033 1.35784 0
M  V30 256 C 23.3995 0.389606 2.03199 0
M  V30 257 C 23.8145 -0.997375 1.60306 0
M  V30 258 O 23.1715 -1.64154 0.797481 0
M  V30 259 C 23.2225 0.455855 3.58614 0
M  V30 260 O 22.9435 1.78815 3.99946 0
M  V30 261 C 24.4445 0.0374032 4.43284 0
M  V30 262 H 21.6645 0.159132 0.651857 0
M  V30 263 H 24.2085 1.08183 1.73541 0
M  V30 264 H 22.3635 -0.188057 3.86943 0
M  V30 265 H 22.7775 1.74636 4.94573 0
M  V30 266 H 24.2515 0.134882 5.51835 0
M  V30 267 H 24.7285 -1.01651 4.27275 0
M  V30 268 H 25.3345 0.654215 4.20238 0
M  V30 269 N 23.6496 -1.47581 0.552962 0
M  V30 270 C 24.5966 -2.29957 -0.197108 0
M  V30 271 C 25.5666 -1.38799 -0.912359 0
M  V30 272 O 26.7516 -1.67761 -0.908888 0
M  V30 273 C 23.8916 -3.22672 -1.22379 0
M  V30 274 C 23.0046 -4.28919 -0.515038 0
M  V30 275 C 22.1396 -5.0879 -1.52664 0
M  V30 276 C 21.1786 -6.06815 -0.802631 0
M  V30 277 N 20.3156 -6.7966 -1.76086 0
M  V30 278 H 25.1556 -2.93578 0.511486 0
M  V30 279 H 22.6926 -1.4471 0.264067 0
M  V30 280 H 24.6506 -3.74845 -1.83159 0
M  V30 281 H 23.2806 -2.60925 -1.90047 0
M  V30 282 H 22.3326 -3.79835 0.207192 0
M  V30 283 H 23.6446 -4.98773 0.0523425 0
M  V30 284 H 22.7986 -5.65091 -2.20809 0
M  V30 285 H 21.5376 -4.38828 -2.12794 0
M  V30 286 H 20.5426 -5.49695 -0.107238 0
M  V30 287 H 21.7676 -6.78784 -0.207135 0
M  V30 288 H 19.7136 -6.12432 -2.35081 0
M  V30 289 H 19.6306 -7.45669 -1.24552 0
M  V30 290 H 20.8986 -7.40538 -2.43359 0
M  V30 291 N 25.1277 -0.289203 -1.54924 0
M  V30 292 C 26.0597 0.625583 -2.20497 0
M  V30 293 C 27.0727 1.10667 -1.19402 0
M  V30 294 O 28.2617 1.02615 -1.46056 0
M  V30 295 C 25.3617 1.86702 -2.82835 0
M  V30 296 C 24.5347 1.5304 -4.09753 0
M  V30 297 C 23.5937 2.62576 -4.56005 0
M  V30 298 O 22.6197 2.28167 -5.21468 0
M  V30 299 N 23.8217 3.92901 -4.27328 0
M  V30 300 H 26.5867 0.0642801 -2.99631 0
M  V30 301 H 24.1477 -0.110896 -1.6152 0
M  V30 302 H 26.1397 2.59304 -3.10715 0
M  V30 303 H 24.7097 2.33702 -2.07611 0
M  V30 304 H 23.9297 0.637564 -3.8901 0
M  V30 305 H 25.2177 1.28072 -4.92418 0
M  V30 306 H 24.6157 4.23671 -3.74859 0
M  V30 307 H 23.1727 4.61837 -4.59946 0
M  V30 308 N 26.6058 1.57591 -0.0167156 0
M  V30 309 C 27.8548 1.90461 0.663877 0
M  V30 310 C 28.1678 0.893515 1.73999 0
M  V30 311 O 29.3738 1.11302 2.47637 0
M  V30 312 C 27.8298 3.38155 1.23204 0
M  V30 313 C 27.4378 4.47597 0.189866 0
M  V30 314 C 29.1818 3.80111 1.88986 0
M  V30 315 C 27.0888 5.86379 0.768964 0
M  V30 316 H 26.0188 0.710738 0.251729 0
M  V30 317 H 28.6698 1.83326 -0.0799926 0
M  V30 318 H 27.0518 3.40182 2.02712 0
M  V30 319 H 28.2258 4.57112 -0.581846 0
M  V30 320 H 26.5408 4.14766 -0.368475 0
M  V30 321 H 29.1378 4.81145 2.33247 0
M  V30 322 H 29.4808 3.14511 2.72743 0
M  V30 323 H 30.0138 3.80454 1.16187 0
M  V30 324 H 26.7528 6.55493 -0.0301957 0
M  V30 325 H 26.2728 5.80496 1.50945 0
M  V30 326 H 27.9518 6.34563 1.26251 0
M  V30 327 N 28.0839 -0.256276 1.55502 0
M  V30 328 C 29.4999 -0.604325 1.47716 0
M  V30 329 C 29.6999 -1.88763 0.705039 0
M  V30 330 O 28.7559 -2.51445 0.230613 0
M  V30 331 C 30.0689 -0.715756 2.92057 0
M  V30 332 C 31.6169 -0.808706 3.02372 0
M  V30 333 C 32.0919 -0.951777 4.48001 0
M  V30 334 N 33.5829 -1.01688 4.519 0
M  V30 335 C 34.3179 -1.14668 5.61817 0
M  V30 336 N 33.8139 -1.24261 6.81565 0
M  V30 337 N 35.6069 -1.1791 5.49594 0
M  V30 338 H 27.7579 0.586291 2.04148 0
M  V30 339 H 30.0209 0.201015 0.926443 0
M  V30 340 H 29.7269 0.157027 3.51349 0
M  V30 341 H 29.6009 -1.59071 3.42018 0
M  V30 342 H 31.9879 -1.67195 2.43166 0
M  V30 343 H 32.0689 0.0912063 2.55637 0
M  V30 344 H 31.7129 -0.0931291 5.07815 0
M  V30 345 H 31.6429 -1.86659 4.92408 0
M  V30 346 H 34.1339 -0.954468 3.65648 0
M  V30 347 H 34.4469 -1.34046 7.61086 0
M  V30 348 H 32.7919 -1.21236 6.84344 0
M  V30 349 H 35.9829 -1.10057 4.54978 0
M  V30 350 H 36.1559 -1.27681 6.35296 0
M  V30 351 N 29.562 -1.4872 -0.521534 0
M  V30 352 C 30.51 -1.64328 -1.64618 0
M  V30 353 C 31.504 -0.50953 -1.61555 0
M  V30 354 O 32.71 -0.688525 -1.66311 0
M  V30 355 H 29.085 -0.517805 -0.545328 0
M  V30 356 H 31.056 -2.58767 -1.48601 0
M  V30 357 C 29.805 -1.70805 -3.02855 0
M  V30 358 H 29.128 -2.5741 -3.05909 0
M  V30 359 H 30.568 -1.85766 -3.81139 0
M  V30 360 C 29.027 -0.448479 -3.33902 0
M  V30 361 O 29.557 0.434928 -3.99339 0
M  V30 362 N 27.763 -0.317616 -2.88859 0
M  V30 363 H 27.31 -1.03748 -2.35784 0
M  V30 364 H 27.268 0.524113 -3.10001 0
M  V30 365 N 31.0401 0.771051 -1.3745 0
M  V30 366 C 31.9731 1.89166 -1.27638 0
M  V30 367 C 32.9511 1.61842 -0.156782 0
M  V30 368 O 34.1351 1.85569 -0.331111 0
M  V30 369 C 31.2621 3.24405 -0.973621 0
M  V30 370 C 30.3081 3.70638 -2.1102 0
M  V30 371 S 31.1411 3.84228 -3.73 0
M  V30 372 C 32.2971 5.22313 -3.44876 0
M  V30 373 H 32.5301 1.972 -2.22485 0
M  V30 374 H 30.0631 0.932224 -1.23081 0
M  V30 375 H 32.0211 4.02514 -0.805766 0
M  V30 376 H 30.6821 3.14071 -0.0426279 0
M  V30 377 H 29.8751 4.68685 -1.85338 0
M  V30 378 H 29.4771 2.99632 -2.23822 0
M  V30 379 H 31.7691 6.07505 -2.99908 0
M  V30 380 H 32.7121 5.53008 -4.42253 0
M  V30 381 H 33.1201 4.90284 -2.79789 0
M  V30 382 N 32.5182 1.22032 0.997298 0
M  V30 383 C 33.7432 1.06921 1.77715 0
M  V30 384 C 34.1682 -0.376226 1.84299 0
M  V30 385 O 33.5262 -1.27165 1.29223 0
M  V30 386 C 33.5742 1.67996 3.19076 0
M  V30 387 O 32.6782 0.930653 4.01762 0
M  V30 388 H 32.0192 0.375814 0.547412 0
M  V30 389 H 34.5492 1.61737 1.25309 0
M  V30 390 H 34.5592 1.72538 3.69723 0
M  V30 391 H 33.2342 2.73182 3.13599 0
M  V30 392 H 31.8112 0.960917 3.60307 0
M  V30 393 N 33.9963 -1.19345 1.0293 0
M  V30 394 C 35.2423 -1.89318 0.727083 0
M  V30 395 C 35.5753 -1.79446 -0.742483 0
M  V30 396 O 34.8503 -1.1871 -1.54072 0
M  V30 397 C 35.1333 -3.40238 1.17942 0
M  V30 398 C 34.9863 -3.58979 2.71024 0
M  V30 399 C 36.3053 -4.33479 0.760548 0
M  V30 400 H 33.4243 -0.687475 0.265606 0
M  V30 401 H 36.0663 -1.40477 1.2793 0
M  V30 402 H 34.2163 -3.81964 0.709608 0
M  V30 403 H 35.8883 -3.26421 3.25955 0
M  V30 404 H 34.1313 -3.02018 3.11396 0
M  V30 405 H 34.8023 -4.64823 2.9773 0
M  V30 406 H 37.2783 -3.99469 1.16464 0
M  V30 407 H 36.1543 -5.37664 1.10493 0
M  V30 408 H 36.4153 -4.40813 -0.337063 0
M  V30 409 N 35.4744 -0.807222 -1.35358 0
M  V30 410 C 36.7234 -0.384376 -1.98004 0
M  V30 411 C 37.0364 1.0543 -1.64754 0
M  V30 412 O 38.2424 1.58029 -2.20769 0
M  V30 413 C 36.6984 -0.636326 -3.5423 0
M  V30 414 C 36.3064 -2.08759 -3.96388 0
M  V30 415 C 38.0504 -0.278869 -4.23583 0
M  V30 416 C 35.9574 -2.28525 -5.45463 0
M  V30 417 H 34.8874 -0.139986 -0.740891 0
M  V30 418 H 37.5384 -0.991369 -1.54415 0
M  V30 419 H 35.9204 0.0406256 -3.95979 0
M  V30 420 H 37.0944 -2.8024 -3.6579 0
M  V30 421 H 35.4094 -2.40497 -3.39926 0
M  V30 422 H 38.0064 -0.404599 -5.33167 0
M  V30 423 H 38.3494 0.775012 -4.09022 0
M  V30 424 H 38.8824 -0.909764 -3.87257 0
M  V30 425 H 35.6214 -3.32361 -5.64992 0
M  V30 426 H 35.1414 -1.61569 -5.77629 0
M  V30 427 H 36.8204 -2.10109 -6.11934 0
M  V30 428 N 36.9525 1.47285 -0.560781 0
M  V30 429 C 37.9155 2.28535 0.174488 0
M  V30 430 C 38.9155 1.37153 0.839388 0
M  V30 431 O 40.1055 1.59748 0.694702 0
M  V30 432 C 37.2375 3.16934 1.25561 0
M  V30 433 H 38.4305 2.95012 -0.539262 0
M  V30 434 H 35.9835 1.53034 -0.317865 0
M  V30 435 H 36.7185 2.55157 2.00164 0
M  V30 436 H 36.5035 3.8419 0.783604 0
M  V30 437 H 37.9935 3.78143 1.77193 0
M  V30 438 N 38.4306 0.297415 1.54768 0
M  V30 439 C 39.3806 -0.595275 2.20092 0
M  V30 440 C 40.3646 -1.10163 1.17273 0
M  V30 441 O 41.5566 -1.043 1.43006 0
M  V30 442 C 38.6856 -1.7684 2.94249 0
M  V30 443 C 37.7716 -1.27818 4.0438 0
M  V30 444 N 38.1626 -0.505695 5.03266 0
M  V30 445 C 36.4606 -1.55923 4.17857 0
M  V30 446 C 37.1616 -0.245094 5.81183 0
M  V30 447 N 36.1376 -0.823881 5.3732 0
M  V30 448 H 39.9396 0.00250837 2.939 0
M  V30 449 H 37.4536 0.102007 1.62079 0
M  V30 450 H 39.4506 -2.41944 3.39513 0
M  V30 451 H 38.1106 -2.36992 2.21957 0
M  V30 452 H 39.1216 -0.150928 5.1768 0
M  V30 453 H 35.7986 -2.16849 3.56767 0
M  V30 454 H 37.1886 0.375084 6.70852 0
M  V30 455 N 39.9087 -1.5758 0.0250728 0
M  V30 456 C 41.1547 -1.91917 -0.655413 0
M  V30 457 C 41.4877 -0.901433 -1.72011 0
M  V30 458 O 40.7627 0.0764069 -1.9435 0
M  V30 459 C 41.0457 -3.36751 -1.27558 0
M  V30 460 C 40.8987 -4.49258 -0.220719 0
M  V30 461 C 42.2177 -3.81469 -2.19475 0
M  V30 462 H 39.3367 -0.697925 -0.23679 0
M  V30 463 H 41.9787 -1.89825 0.0815036 0
M  V30 464 H 40.1287 -3.38664 -1.90365 0
M  V30 465 H 41.8007 -4.59478 0.409601 0
M  V30 466 H 40.0437 -4.31415 0.454264 0
M  V30 467 H 40.7147 -5.47618 -0.694175 0
M  V30 468 H 43.1907 -3.81266 -1.66659 0
M  V30 469 H 42.0667 -4.83512 -2.59822 0
M  V30 470 H 42.3277 -3.16744 -3.08424 0
M  V30 471 N 41.3868 0.248026 -1.55636 0
M  V30 472 C 42.6638 0.998988 -1.68165 0
M  V30 473 C 43.0438 2.03409 -0.564621 0
M  V30 474 O 42.3918 2.24378 0.432076 0
M  V30 475 C 42.6018 1.63334 -3.0842 0
M  V30 476 C 43.9498 2.13562 -3.66983 0
M  V30 477 O 44.9738 1.73277 -3.11213 0
M  V30 478 O 43.8328 2.87526 -4.64749 0
M  V30 479 H 40.9268 0.464933 -0.683935 0
M  V30 480 H 43.4728 0.241902 -1.67967 0
M  V30 481 H 42.2448 0.884583 -3.8117 0
M  V30 482 H 41.8678 2.45666 -3.12624 0
M  V30 483 N 42.8649 1.48995 0.513639 0
M  V30 484 C 43.8149 1.61127 1.61314 0
M  V30 485 C 44.7989 0.467521 1.53958 0
M  V30 486 O 45.9909 0.719826 1.61702 0
M  V30 487 C 43.1199 1.66937 2.99978 0
M  V30 488 C 42.2059 2.86847 3.12377 0
M  V30 489 N 42.5969 4.11078 2.94701 0
M  V30 490 C 40.8949 2.84521 3.43459 0
M  V30 491 C 41.5959 4.91615 3.10949 0
M  V30 492 N 40.5719 4.24739 3.3926 0
M  V30 493 H 44.3739 2.54909 1.46282 0
M  V30 494 H 41.8879 1.45593 0.719483 0
M  V30 495 H 43.8849 1.73725 3.78979 0
M  V30 496 H 42.5449 0.742831 3.16089 0
M  V30 497 H 43.5559 4.41258 2.71131 0
M  V30 498 H 40.2329 2.01192 3.65825 0
M  V30 499 H 41.6229 6.00264 3.01882 0
M  V30 500 N 44.343 -0.763751 1.37857 0
M  V30 501 C 45.591 -1.51957 1.33243 0
M  V30 502 C 45.912 -1.94835 -0.0801709 0
M  V30 503 O 45.182 -1.66894 -1.02582 0
M  V30 504 H 43.762 -0.563626 0.49024 0
M  V30 505 H 46.424 -0.908504 1.7243 0
M  V30 506 H 45.52 -2.41523 1.97669 0
M  V30 507 N 45.8211 -1.22559 -0.990812 0
M  V30 508 C 46.7681 -0.997519 -2.0813 0
M  V30 509 C 47.7381 0.0814702 -1.659 0
M  V30 510 O 48.9231 -0.0685424 -1.90677 0
M  V30 511 C 46.0631 -0.583615 -3.40129 0
M  V30 512 C 45.1761 -1.7336 -3.9569 0
M  V30 513 C 44.3111 -1.26748 -5.15857 0
M  V30 514 C 43.3501 -2.38888 -5.63559 0
M  V30 515 N 42.4871 -1.93308 -6.74964 0
M  V30 516 H 47.3271 -1.93099 -2.26973 0
M  V30 517 H 44.8641 -0.962114 -1.11273 0
M  V30 518 H 46.8221 -0.324801 -4.15934 0
M  V30 519 H 45.4521 0.312845 -3.2128 0
M  V30 520 H 44.5041 -2.10669 -3.16738 0
M  V30 521 H 45.8161 -2.57704 -4.27071 0
M  V30 522 H 44.9701 -0.966173 -5.98957 0
M  V30 523 H 43.7091 -0.394272 -4.86104 0
M  V30 524 H 42.7141 -2.69805 -4.79046 0
M  V30 525 H 43.9391 -3.26728 -5.95336 0
M  V30 526 H 41.8851 -1.08352 -6.4699 0
M  V30 527 H 41.8021 -2.71217 -7.05675 0
M  V30 528 H 43.0701 -1.66252 -7.61564 0
M  V30 529 N 47.2992 1.18797 -1.03562 0
M  V30 530 C 48.5242 1.9314 -0.755764 0
M  V30 531 C 48.9492 1.7537 0.68022 0
M  V30 532 O 48.3072 1.06046 1.47051 0
M  V30 533 C 48.3552 3.42747 -1.12058 0
M  V30 534 O 47.4592 4.11683 -0.243124 0
M  V30 535 H 46.8002 0.602724 -0.278604 0
M  V30 536 H 49.3302 1.50678 -1.3841 0
M  V30 537 H 49.3402 3.93437 -1.08035 0
M  V30 538 H 48.0152 3.55002 -2.16672 0
M  V30 539 H 46.5922 3.71323 -0.342539 0
M  V30 540 N 48.7773 0.814389 1.34928 0
M  V30 541 C 50.0053 0.411136 2.02774 0
M  V30 542 C 50.4203 -0.980316 1.61354 0
M  V30 543 O 49.7773 -1.63299 0.814847 0
M  V30 544 C 49.8283 0.493865 3.58111 0
M  V30 545 O 49.5493 1.83047 3.98027 0
M  V30 546 C 51.0503 0.0844174 4.4322 0
M  V30 547 H 48.2703 0.166037 0.650133 0
M  V30 548 H 50.8143 1.10018 1.72384 0
M  V30 549 H 48.9693 -0.147006 3.87121 0
M  V30 550 H 49.3833 1.79872 4.92693 0
M  V30 551 H 50.8573 0.193404 5.51661 0
M  V30 552 H 51.3343 -0.97113 4.28329 0
M  V30 553 H 51.9403 0.69875 4.19521 0
M  V30 554 N 50.2554 -1.46986 0.568584 0
M  V30 555 C 51.1854 -2.32946 -0.160753 0
M  V30 556 C 52.1664 -1.44487 -0.897631 0
M  V30 557 O 53.3514 -1.73327 -0.875867 0
M  V30 558 C 50.4814 -3.26494 -1.18403 0
M  V30 559 C 49.4354 -4.24282 -0.562895 0
M  V30 560 C 48.7614 -5.07236 -1.69163 0
M  V30 561 C 50.0614 -5.19989 0.490761 0
M  V30 562 H 51.7554 -2.94175 0.556916 0
M  V30 563 H 49.3014 -1.4146 0.26927 0
M  V30 564 H 51.2544 -3.85477 -1.70251 0
M  V30 565 H 49.9784 -2.63343 -1.93179 0
M  V30 566 H 48.6374 -3.66541 -0.0656164 0
M  V30 567 H 48.2854 -4.4048 -2.42871 0
M  V30 568 H 47.9854 -5.7345 -1.28174 0
M  V30 569 H 49.5094 -5.6908 -2.21314 0
M  V30 570 H 50.9234 -5.73271 0.0579047 0
M  V30 571 H 49.3204 -5.94469 0.820165 0
M  V30 572 H 50.3904 -4.64777 1.3824 0
M  V30 573 N 51.7335 -0.305618 -1.54608 0
M  V30 574 C 52.9615 0.304775 -2.04643 0
M  V30 575 C 53.3765 1.47167 -1.18268 0
M  V30 576 O 52.7335 1.81296 -0.209328 0
M  V30 577 C 52.7845 0.756564 -3.53495 0
M  V30 578 O 52.5055 -0.36389 -4.36586 0
M  V30 579 C 54.0065 1.43163 -4.19546 0
M  V30 580 H 51.2265 0.0655481 -0.667791 0
M  V30 581 H 53.7705 -0.446592 -1.99564 0
M  V30 582 H 51.9255 1.45794 -3.58919 0
M  V30 583 H 52.3395 -0.0113121 -5.24499 0
M  V30 584 H 53.8135 1.69886 -5.25207 0
M  V30 585 H 54.2905 2.37318 -3.69563 0
M  V30 586 H 54.8965 0.773307 -4.18211 0
M  V30 587 N 53.2116 1.57565 -0.0334293 0
M  V30 588 C 54.4886 1.83282 0.683163 0
M  V30 589 C 54.8686 0.91823 1.90084 0
M  V30 590 O 54.2166 -0.025113 2.28486 0
M  V30 591 C 54.4266 3.32599 1.0573 0
M  V30 592 C 55.7746 3.99179 1.44711 0
M  V30 593 O 56.7986 3.3712 1.15015 0
M  V30 594 O 55.6576 5.08565 2.0006 0
M  V30 595 H 52.7516 0.755869 0.335546 0
M  V30 596 H 55.2976 1.69589 -0.0614402 0
M  V30 597 H 54.0696 3.90834 0.190828 0
M  V30 598 H 53.6926 3.51415 1.85993 0
M  V30 599 N 54.6897 -0.239769 1.55765 0
M  V30 600 C 55.9147 -0.988373 1.82335 0
M  V30 601 C 56.3397 -1.77886 0.611421 0
M  V30 602 O 55.6977 -1.75889 -0.439639 0
M  V30 603 C 55.7457 -1.89627 3.06715 0
M  V30 604 O 54.8497 -2.98904 2.84131 0
M  V30 605 H 54.1907 -0.280858 0.601677 0
M  V30 606 H 56.7207 -0.258597 2.02959 0
M  V30 607 H 56.7307 -2.30957 3.36338 0
M  V30 608 H 55.4057 -1.31511 3.9456 0
M  V30 609 H 53.9827 -2.61651 2.65694 0
M  V30 610 N 56.1678 -1.49265 -0.50573 0
M  V30 611 C 57.0978 -1.68495 -1.61653 0
M  V30 612 C 58.0788 -0.53366 -1.61512 0
M  V30 613 O 59.2638 -0.76897 -1.78327 0
M  V30 614 C 56.3938 -1.74709 -3.00157 0
M  V30 615 C 55.3478 -2.89581 -3.15162 0
M  V30 616 C 54.6738 -2.80903 -4.5497 0
M  V30 617 C 55.9738 -4.30578 -2.95634 0
M  V30 618 H 57.6678 -2.61493 -1.45814 0
M  V30 619 H 55.2138 -1.25838 -0.70005 0
M  V30 620 H 57.1668 -1.86748 -3.77761 0
M  V30 621 H 55.8908 -0.783067 -3.17074 0
M  V30 622 H 54.5498 -2.77136 -2.39982 0
M  V30 623 H 54.1978 -1.82419 -4.68756 0
M  V30 624 H 53.8978 -3.57999 -4.65951 0
M  V30 625 H 55.4218 -2.94944 -5.34641 0
M  V30 626 H 56.8358 -4.4373 -3.63011 0
M  V30 627 H 55.2328 -5.0886 -3.18091 0
M  V30 628 H 56.3028 -4.45352 -1.91806 0
M  V30 629 N 57.6459 0.756429 -1.3826 0
M  V30 630 C 58.8919 1.51772 -1.34511 0
M  V30 631 C 59.2249 1.94089 0.0656691 0
M  V30 632 O 58.4999 1.65221 1.02626 0
M  V30 633 C 58.7829 2.77226 -2.29821 0
M  V30 634 C 58.6359 2.41065 -3.79747 0
M  V30 635 C 59.9549 3.79236 -2.23312 0
M  V30 636 H 57.0739 0.550578 -0.489931 0
M  V30 637 H 59.7159 0.866607 -1.69086 0
M  V30 638 H 57.8659 3.32784 -2.00467 0
M  V30 639 H 59.5379 1.91303 -4.19763 0
M  V30 640 H 57.7809 1.7356 -3.97567 0
M  V30 641 H 58.4519 3.3081 -4.41892 0
M  V30 642 H 60.9279 3.3321 -2.49219 0
M  V30 643 H 59.8039 4.64714 -2.92116 0
M  V30 644 H 60.0649 4.24615 -1.23102 0
M  V30 645 N 59.124 1.23083 0.984299 0
M  V30 646 C 60.349 1.088 1.76571 0
M  V30 647 C 60.774 -0.356657 1.84688 0
M  V30 648 O 60.132 -1.25788 1.30565 0
M  V30 649 C 60.18 1.71371 3.17277 0
M  V30 650 O 59.284 0.973213 4.00752 0
M  V30 651 H 58.625 0.381599 0.543395 0
M  V30 652 H 61.155 1.63057 1.23587 0
M  V30 653 H 61.165 1.76449 3.67872 0
M  V30 654 H 59.84 2.76493 3.10684 0
M  V30 655 H 58.417 0.999078 3.59267 0
M  V30 656 N 60.6021 -1.18246 1.0419 0
M  V30 657 C 61.5491 -2.2192 0.634037 0
M  V30 658 C 62.5191 -1.62179 -0.358765 0
M  V30 659 O 63.7041 -1.89122 -0.252466 0
M  V30 660 C 60.8441 -3.451 0.00445535 0
M  V30 661 C 59.9571 -4.19174 1.04487 0
M  V30 662 C 59.0921 -5.29813 0.383676 0
M  V30 663 C 58.1311 -5.9566 1.4091 0
M  V30 664 N 57.2681 -6.97834 0.772784 0
M  V30 665 H 62.1081 -2.56164 1.52263 0
M  V30 666 H 59.6451 -1.25843 0.761701 0
M  V30 667 H 61.6031 -4.15485 -0.377919 0
M  V30 668 H 60.2331 -3.11472 -0.847652 0
M  V30 669 H 59.2851 -3.47604 1.54518 0
M  V30 670 H 60.5971 -4.64267 1.82368 0
M  V30 671 H 59.7511 -6.06677 -0.0528366 0
M  V30 672 H 58.4901 -4.85825 -0.427208 0
M  V30 673 H 57.4951 -5.17535 1.85574 0
M  V30 674 H 58.7201 -6.4173 2.22171 0
M  V30 675 H 56.6661 -6.55998 -0.0177708 0
M  V30 676 H 56.5831 -7.41186 1.48928 0
M  V30 677 H 57.8511 -7.78665 0.36071 0
M  V30 678 N 62.0802 -0.821533 -1.34494 0
M  V30 679 C 63.0432 -0.247847 -2.27856 0
M  V30 680 C 64.0432 0.573453 -1.50227 0
M  V30 681 O 65.2332 0.389759 -1.69784 0
M  V30 682 C 62.3652 0.652698 -3.34593 0
M  V30 683 H 63.5582 -1.07146 -2.80107 0
M  V30 684 H 61.1112 -0.593291 -1.44602 0
M  V30 685 H 61.8462 1.49943 -2.87555 0
M  V30 686 H 61.6312 0.065292 -3.92046 0
M  V30 687 H 63.1212 1.04793 -4.04238 0
M  V30 688 N 63.5583 1.46682 -0.576371 0
M  V30 689 C 64.8063 2.02013 -0.0594163 0
M  V30 690 C 65.1273 1.45101 1.30271 0
M  V30 691 O 64.3973 0.633317 1.8538 0
M  V30 692 H 62.9773 0.746759 -0.0189745 0
M  V30 693 H 65.6393 1.79862 -0.750717 0
M  V30 694 H 64.7353 3.12097 0.014345 0
M  V30 695 N 65.0364 0.313813 1.54444 0
M  V30 696 C 66.2854 -0.292519 1.99568 0
M  V30 697 C 66.5984 -1.54011 1.20582 0
M  V30 698 O 67.8044 -2.22183 1.56035 0
M  V30 699 C 66.2604 -0.571752 3.55329 0
M  V30 700 C 65.8684 0.658229 4.43138 0
M  V30 701 C 67.6124 -1.13857 4.08946 0
M  V30 702 C 65.5194 0.351439 5.90355 0
M  V30 703 H 64.4494 -0.113079 0.745472 0
M  V30 704 H 67.1004 0.424518 1.78522 0
M  V30 705 H 65.4824 -1.34872 3.72325 0
M  V30 706 H 66.6564 1.43403 4.37918 0
M  V30 707 H 64.9714 1.14458 4.0036 0
M  V30 708 H 67.5684 -1.38257 5.16516 0
M  V30 709 H 67.9114 -2.08489 3.6033 0
M  V30 710 H 68.4444 -0.423015 3.95544 0
M  V30 711 H 65.1834 1.26667 6.43145 0
M  V30 712 H 64.7034 -0.386842 5.98551 0
M  V30 713 H 66.3824 -0.0423134 6.46986 0
M  V30 714 N 66.5145 -1.57545 0.0417849 0
M  V30 715 C 67.7635 -1.91494 -0.633492 0
M  V30 716 C 68.0765 -0.921084 -1.72556 0
M  V30 717 O 69.2825 -1.15228 -2.45835 0
M  V30 718 C 67.7385 -3.40072 -1.17808 0
M  V30 719 C 67.3465 -4.47843 -0.118633 0
M  V30 720 C 69.0905 -3.8307 -1.82915 0
M  V30 721 C 66.9975 -5.87529 -0.675578 0
M  V30 722 H 65.9275 -0.714653 -0.24039 0
M  V30 723 H 68.5785 -1.83175 0.109148 0
M  V30 724 H 66.9605 -3.43364 -1.97274 0
M  V30 725 H 68.1345 -4.56128 0.654494 0
M  V30 726 H 66.4495 -4.14128 0.434414 0
M  V30 727 H 69.0465 -4.84794 -2.25563 0
M  V30 728 H 69.3895 -3.1881 -2.67705 0
M  V30 729 H 69.9225 -3.82255 -1.10119 0
M  V30 730 H 66.6615 -6.55362 0.134475 0
M  V30 731 H 66.1815 -5.82824 -1.4169 0
M  V30 732 H 67.8605 -6.36491 -1.1614 0
M  V30 733 N 67.9926 0.231505 -1.5589 0
M  V30 734 C 69.2176 0.978689 -1.82856 0
M  V30 735 C 69.6426 1.77559 -0.620846 0
M  V30 736 O 69.0006 1.76119 0.430305 0
M  V30 737 C 69.0486 1.87997 -3.07716 0
M  V30 738 O 68.1526 2.97393 -2.85712 0
M  V30 739 H 67.4936 0.277663 -0.603158 0
M  V30 740 H 70.0236 0.24783 -2.03093 0
M  V30 741 H 70.0336 2.2917 -3.37558 0
M  V30 742 H 68.7086 1.29417 -3.95252 0
M  V30 743 H 67.2856 2.60238 -2.67078 0
M  V30 744 N 69.4707 1.49531 0.497807 0
M  V30 745 C 70.6957 1.63159 1.28039 0
M  V30 746 C 71.1207 0.30418 1.85624 0
M  V30 747 O 70.4787 -0.728618 1.66015 0
M  V30 748 C 70.5267 2.70537 2.38416 0
M  V30 749 O 69.6307 2.29931 3.42353 0
M  V30 750 H 68.9717 0.546001 0.377861 0
M  V30 751 H 71.5017 1.9574 0.59558 0
M  V30 752 H 71.5117 2.92802 2.84132 0
M  V30 753 H 70.1867 3.6689 1.95869 0
M  V30 754 H 68.7637 2.18009 3.02533 0
M  V30 755 N 70.9488 -0.749086 1.3866 0
M  V30 756 C 71.8958 -1.86291 1.36251 0
M  V30 757 C 72.8658 -1.64578 0.224347 0
M  V30 758 O 74.0508 -1.86181 0.417279 0
M  V30 759 C 71.1908 -3.23644 1.19786 0
M  V30 760 C 70.3038 -3.57158 2.43027 0
M  V30 761 C 69.4388 -4.83838 2.19258 0
M  V30 762 C 68.4778 -5.10152 3.38247 0
M  V30 763 N 67.6148 -6.28029 3.13884 0
M  V30 764 H 72.4548 -1.87685 2.3147 0
M  V30 765 H 69.9918 -0.917287 1.14997 0
M  V30 766 H 71.9498 -4.0291 1.08254 0
M  V30 767 H 70.5798 -3.21566 0.282031 0
M  V30 768 H 69.6318 -2.72701 2.65214 0
M  V30 769 H 70.9438 -3.7253 3.31697 0
M  V30 770 H 70.0978 -5.71057 2.04888 0
M  V30 771 H 68.8368 -4.70614 1.2796 0
M  V30 772 H 67.8418 -4.21401 3.53131 0
M  V30 773 H 69.0668 -5.25271 4.30427 0
M  V30 774 H 67.0128 -6.1612 2.25238 0
M  V30 775 H 66.9298 -6.43922 3.96106 0
M  V30 776 H 68.1978 -7.18124 3.03179 0
M  V30 777 N 72.4269 -1.23603 -0.977757 0
M  V30 778 C 73.3749 -1.01704 -2.09187 0
M  V30 779 C 74.3689 0.0448214 -1.69341 0
M  V30 780 O 75.5749 -0.108902 -1.7967 0
M  V30 781 H 71.9499 -0.311803 -0.684312 0
M  V30 782 H 73.9209 -1.96207 -2.24823 0
M  V30 783 C 72.6699 -0.627746 -3.41986 0
M  V30 784 H 71.9929 -1.43656 -3.73099 0
M  V30 785 H 73.4329 -0.514053 -4.20872 0
M  V30 786 C 71.8919 0.664238 -3.30287 0
M  V30 787 O 72.4219 1.71268 -3.6336 0
M  V30 788 N 70.6279 0.641156 -2.83439 0
M  V30 789 H 70.1749 -0.212376 -2.56723 0
M  V30 790 H 70.1329 1.50583 -2.75993 0
M  V30 791 N 73.905 1.17692 -1.04816 0
M  V30 792 C 74.868 2.19787 -0.650117 0
M  V30 793 C 75.868 1.58044 0.296427 0
M  V30 794 O 77.058 1.74012 0.0808097 0
M  V30 795 C 74.19 3.40869 0.0456987 0
M  V30 796 H 75.383 2.56516 -1.5537 0
M  V30 797 H 72.936 1.31708 -0.841594 0
M  V30 798 H 73.671 3.09681 0.962726 0
M  V30 799 H 73.456 3.86928 -0.634727 0
M  V30 800 H 74.946 4.16445 0.310432 0
M  V30 801 N 75.3831 0.828654 1.34056 0
M  V30 802 C 76.6311 0.41863 1.97717 0
M  V30 803 C 76.9521 -1.02314 1.66002 0
M  V30 804 O 76.2221 -1.71119 0.953683 0
M  V30 805 H 74.8021 0.151809 0.731412 0
M  V30 806 H 77.4641 1.05936 1.63596 0
M  V30 807 H 76.5601 0.542318 3.07352 0
M  V30 808 N 76.8612 -1.46375 0.584142 0
M  V30 809 C 78.1382 -1.956 0.0033388 0
M  V30 810 C 78.5182 -1.52679 -1.45782 0
M  V30 811 O 77.8662 -0.77816 -2.14842 0
M  V30 812 C 78.0762 -3.48551 0.176891 0
M  V30 813 C 79.4242 -4.24576 0.0454609 0
M  V30 814 O 80.4482 -3.56043 0.105801 0
M  V30 815 O 79.3072 -5.46427 -0.0890376 0
M  V30 816 H 76.4012 -0.825547 -0.0490066 0
M  V30 817 H 78.9472 -1.56652 0.65256 0
M  V30 818 H 77.7192 -3.72683 1.1926 0
M  V30 819 H 77.3422 -3.94332 -0.508695 0
M  V30 820 N 78.3393 -0.321999 -1.54275 0
M  V30 821 C 79.3023 0.531975 -2.22941 0
M  V30 822 C 80.3023 1.04478 -1.22234 0
M  V30 823 O 81.4923 0.937452 -1.46825 0
M  V30 824 C 78.6243 1.73874 -2.93224 0
M  V30 825 H 79.8173 -0.0682612 -2.99822 0
M  V30 826 H 77.3703 -0.0730644 -1.56129 0
M  V30 827 H 78.1053 2.37825 -2.20476 0
M  V30 828 H 77.8903 1.37847 -3.6707 0
M  V30 829 H 79.3803 2.34496 -3.45545 0
M  V30 830 N 79.8174 1.5752 -0.0501392 0
M  V30 831 C 81.2334 1.56631 0.306402 0
M  V30 832 C 81.4334 1.0577 1.71508 0
M  V30 833 O 80.4894 0.713837 2.422 0
M  V30 834 C 81.8024 3.00393 0.135811 0
M  V30 835 C 83.3504 3.12315 0.206993 0
M  V30 836 C 83.8254 4.57954 0.064944 0
M  V30 837 N 85.3164 4.63041 0.121254 0
M  V30 838 C 86.0514 5.73389 0.0354381 0
M  V30 839 N 85.5474 6.92724 -0.102666 0
M  V30 840 N 87.3404 5.62026 0.090946 0
M  V30 841 H 79.4914 1.88903 -0.971046 0
M  V30 842 H 81.7544 0.869876 -0.376855 0
M  V30 843 H 81.4604 3.41635 -0.835384 0
M  V30 844 H 81.3344 3.66373 0.897275 0
M  V30 845 H 83.7214 2.70973 1.16866 0
M  V30 846 H 83.8024 2.49016 -0.585208 0
M  V30 847 H 83.4464 4.99981 -0.893394 0
M  V30 848 H 83.3764 5.19258 0.876277 0
M  V30 849 H 85.8674 3.77216 0.227284 0
M  V30 850 H 86.1804 7.72633 -0.160882 0
M  V30 851 H 84.5254 6.94864 -0.137737 0
M  V30 852 H 87.7164 4.67684 0.197388 0
M  V30 853 H 87.8894 6.47997 0.0206089 0
M  V30 854 N 81.2955 -0.223234 1.56011 0
M  V30 855 C 82.5425 -0.947875 1.78946 0
M  V30 856 C 82.8705 -1.844 0.618608 0
M  V30 857 O 82.1255 -1.91629 -0.397093 0
M  V30 858 C 82.4245 -1.81948 3.0762 0
M  V30 859 C 82.0905 -1.07672 4.37856 0
M  V30 860 C 80.7525 -0.871544 4.73242 0
M  V30 861 C 83.1045 -0.552081 5.18268 0
M  V30 862 C 80.4325 -0.129791 5.86556 0
M  V30 863 C 82.7845 0.17632 6.32354 0
M  V30 864 C 81.4485 0.39277 6.66343 0
M  V30 865 H 80.7185 -0.346852 0.654809 0
M  V30 866 H 83.3655 -0.216171 1.90276 0
M  V30 867 H 81.6705 -2.61899 2.91404 0
M  V30 868 H 83.3675 -2.38227 3.22566 0
M  V30 869 H 79.9575 -1.24662 4.1007 0
M  V30 870 H 84.1415 -0.698076 4.91366 0
M  V30 871 H 79.3975 0.048153 6.11381 0
M  V30 872 H 83.5715 0.590367 6.93893 0
M  V30 873 H 81.1985 0.969466 7.53993 0
M  V30 874 N 82.7736 -1.49793 -0.48987 0
M  V30 875 C 84.0016 -1.63568 -1.26701 0
M  V30 876 C 84.4166 -0.311465 -1.86213 0
M  V30 877 O 83.7736 0.704416 -1.68357 0
M  V30 878 C 83.8246 -2.71284 -2.38929 0
M  V30 879 O 83.5456 -3.9857 -1.81861 0
M  V30 880 C 85.0466 -2.95864 -3.3012 0
M  V30 881 H 82.2666 -0.550342 -0.383881 0
M  V30 882 H 84.8106 -1.95898 -0.586864 0
M  V30 883 H 82.9656 -2.417 -3.02753 0
M  V30 884 H 83.3796 -4.57993 -2.55622 0
M  V30 885 H 84.8536 -3.74941 -4.05121 0
M  V30 886 H 85.3306 -2.06206 -3.87783 0
M  V30 887 H 85.9366 -3.26907 -2.72051 0
M  V30 888 N 84.2517 0.741722 -1.39055 0
M  V30 889 C 85.5287 1.49252 -1.26425 0
M  V30 890 C 85.9087 2.10705 0.129144 0
M  V30 891 O 85.2567 1.98045 1.13976 0
M  V30 892 C 85.4667 2.54934 -2.38347 0
M  V30 893 C 86.8147 3.21506 -2.77343 0
M  V30 894 O 87.8387 2.65245 -2.37747 0
M  V30 895 O 86.6977 4.23294 -3.45665 0
M  V30 896 H 83.7917 0.662451 -0.495064 0
M  V30 897 H 86.3377 0.776121 -1.50912 0
M  V30 898 H 85.1097 2.07857 -3.31529 0
M  V30 899 H 84.7327 3.34141 -2.15489 0
M  V30 900 N 85.7298 1.2412 0.971189 0
M  V30 901 C 86.9578 1.10575 1.74874 0
M  V30 902 C 87.3728 -0.342017 1.85676 0
M  V30 903 O 86.7298 -1.23617 1.34258 0
M  V30 904 C 86.7808 1.73579 3.171 0
M  V30 905 O 86.5018 3.12695 3.06844 0
M  V30 906 C 88.0028 1.65598 4.11208 0
M  V30 907 H 85.2228 0.386504 0.548503 0
M  V30 908 H 87.7668 1.64156 1.21955 0
M  V30 909 H 85.9218 1.24009 3.67016 0
M  V30 910 H 86.3358 3.43412 3.96445 0
M  V30 911 H 87.8098 2.1437 5.08674 0
M  V30 912 H 88.2868 0.616532 4.34851 0
M  V30 913 H 88.8928 2.14578 3.67201 0
M  V30 914 N 87.2079 -1.17134 1.05439 0
M  V30 915 C 88.6239 -1.39454 0.776201 0
M  V30 916 C 88.8239 -1.91454 -0.628307 0
M  V30 917 O 87.8799 -2.10777 -1.39031 0
M  V30 918 C 89.1929 -2.38305 1.83388 0
M  V30 919 C 90.7409 -2.52006 1.85639 0
M  V30 920 C 91.2159 -3.54133 2.90437 0
M  V30 921 N 92.7069 -3.61653 2.89415 0
M  V30 922 C 93.4419 -4.4044 3.67152 0
M  V30 923 N 92.9379 -5.22721 4.54681 0
M  V30 924 N 94.7309 -4.35337 3.55581 0
M  V30 925 H 86.8819 -0.817134 1.96053 0
M  V30 926 H 89.1449 -0.421626 0.849079 0
M  V30 927 H 88.8509 -2.07173 2.84204 0
M  V30 928 H 88.7249 -3.37841 1.67761 0
M  V30 929 H 91.1119 -2.82447 0.85486 0
M  V30 930 H 91.1929 -1.52537 2.05344 0
M  V30 931 H 90.8369 -3.24431 3.90777 0
M  V30 932 H 90.7669 -4.53313 2.67983 0
M  V30 933 H 93.2579 -3.02909 2.25952 0
M  V30 934 H 93.5709 -5.80027 5.10674 0
M  V30 935 H 91.9159 -5.22093 4.58741 0
M  V30 936 H 95.1069 -3.70112 2.86592 0
M  V30 937 H 95.2799 -4.96494 4.1641 0
M  V30 938 N 88.686 -0.835752 -1.33615 0
M  V30 939 C 89.618 -0.224151 -2.28101 0
M  V30 940 C 90.631 0.593331 -1.51603 0
M  V30 941 O 91.82 0.420911 -1.73466 0
M  V30 942 C 88.92 0.703309 -3.31522 0
M  V30 943 C 88.093 -0.0741528 -4.37337 0
M  V30 944 C 87.152 0.776176 -5.20444 0
M  V30 945 O 86.178 0.216506 -5.68788 0
M  V30 946 N 87.38 2.09401 -5.41416 0
M  V30 947 H 90.145 -1.03598 -2.81225 0
M  V30 948 H 87.706 -0.69392 -1.46275 0
M  V30 949 H 89.698 1.27707 -3.84022 0
M  V30 950 H 88.268 1.41585 -2.78698 0
M  V30 951 H 87.488 -0.82928 -3.85378 0
M  V30 952 H 88.776 -0.608863 -5.05144 0
M  V30 953 H 88.174 2.57229 -5.03835 0
M  V30 954 H 86.731 2.61633 -5.96985 0
M  V30 955 N 90.1641 1.46063 -0.591896 0
M  V30 956 C 91.4411 1.95595 -0.0137119 0
M  V30 957 C 91.8211 1.5345 1.4497 0
M  V30 958 O 91.1691 0.789543 2.14426 0
M  V30 959 C 91.3791 3.48453 -0.195373 0
M  V30 960 C 92.7271 4.24546 -0.0679765 0
M  V30 961 O 93.7511 3.55982 -0.124681 0
M  V30 962 O 92.6101 5.46467 0.0600579 0
M  V30 963 H 89.7041 0.825795 0.0446279 0
M  V30 964 H 92.2501 1.56303 -0.660859 0
M  V30 965 H 91.0221 3.72045 -1.21235 0
M  V30 966 H 90.6451 3.94597 0.487775 0
M  V30 967 N 91.6422 0.330177 1.54103 0
M  V30 968 C 92.5522 -0.541534 2.28264 0
M  V30 969 C 93.5682 -1.12351 1.32866 0
M  V30 970 O 94.7442 -1.14206 1.65888 0
M  V30 971 C 91.8092 -1.68322 3.03098 0
M  V30 972 C 90.8702 -1.13238 4.14096 0
M  V30 973 C 90.1032 -2.21966 4.85352 0
M  V30 974 O 90.3262 -3.42437 4.56172 0
M  V30 975 O 89.2602 -1.87013 5.7211 0
M  V30 976 H 93.0862 0.060938 3.03639 0
M  V30 977 H 90.6712 0.09565 1.49093 0
M  V30 978 H 92.5532 -2.34777 3.49939 0
M  V30 979 H 91.2282 -2.27176 2.30593 0
M  V30 980 H 90.1352 -0.432736 3.71589 0
M  V30 981 H 91.4682 -0.588898 4.88664 0
M  V30 982 N 93.1203 -1.57491 0.0584922 0
M  V30 983 C 94.0523 -2.08916 -0.942694 0
M  V30 984 C 95.0653 -1.0185 -1.27006 0
M  V30 985 O 96.2543 -1.29398 -1.22957 0
M  V30 986 C 93.3543 -2.52341 -2.26224 0
M  V30 987 C 92.5273 -3.82827 -2.1157 0
M  V30 988 C 91.5863 -4.12487 -3.26712 0
M  V30 989 O 90.6123 -4.82295 -3.02292 0
M  V30 990 N 91.8143 -3.64978 -4.5141 0
M  V30 991 H 94.5793 -2.95437 -0.503722 0
M  V30 992 H 92.1403 -1.61397 -0.12757 0
M  V30 993 H 94.1323 -2.69254 -3.02133 0
M  V30 994 H 92.7023 -1.7103 -2.61663 0
M  V30 995 H 91.9223 -3.75425 -1.20208 0
M  V30 996 H 93.2103 -4.68263 -1.99015 0
M  V30 997 H 92.6083 -3.08558 -4.7414 0
M  V30 998 H 91.1653 -3.87115 -5.2439 0
M  V30 999 N 94.5984 0.214957 -1.56127 0
M  V30 1000 C 95.5084 1.28727 -1.96129 0
M  V30 1001 C 96.5244 1.50916 -0.866044 0
M  V30 1002 O 97.7004 1.63918 -1.17016 0
M  V30 1003 C 94.7654 2.61569 -2.27558 0
M  V30 1004 C 93.8264 2.47625 -3.50685 0
M  V30 1005 C 93.0594 3.74132 -3.80606 0
M  V30 1006 O 93.2824 4.77438 -3.12104 0
M  V30 1007 O 92.2164 3.70849 -4.74083 0
M  V30 1008 H 96.0424 0.977855 -2.87527 0
M  V30 1009 H 93.6274 0.418358 -1.43423 0
M  V30 1010 H 95.5094 3.40012 -2.48938 0
M  V30 1011 H 94.1844 2.92178 -1.39332 0
M  V30 1012 H 93.0914 1.67361 -3.34576 0
M  V30 1013 H 94.4244 2.21954 -4.39315 0
M  V30 1014 N 96.0765 1.50051 0.48192 0
M  V30 1015 C 97.4925 1.37237 0.814756 0
M  V30 1016 C 97.6925 0.420109 1.97072 0
M  V30 1017 O 96.7485 -0.141246 2.52105 0
M  V30 1018 C 98.0615 2.78375 1.13701 0
M  V30 1019 C 99.6095 2.87213 1.2441 0
M  V30 1020 C 100.084 4.29161 1.59954 0
M  V30 1021 N 101.575 4.32061 1.66967 0
M  V30 1022 C 102.31 5.38879 1.95952 0
M  V30 1023 N 101.806 6.55918 2.23031 0
M  V30 1024 N 103.599 5.26312 1.97363 0
M  V30 1025 H 95.7505 2.10546 -0.28005 0
M  V30 1026 H 98.0135 0.945921 -0.0627454 0
M  V30 1027 H 97.7195 3.49845 0.360787 0
M  V30 1028 H 97.5935 3.14941 2.07586 0
M  V30 1029 H 99.9805 2.15969 2.01101 0
M  V30 1030 H 100.061 2.54204 0.285299 0
M  V30 1031 H 99.7055 5.00938 0.838067 0
M  V30 1032 H 99.6355 4.59648 2.56966 0
M  V30 1033 H 102.126 3.47661 1.48123 0
M  V30 1034 H 102.439 7.33139 2.44391 0
M  V30 1035 H 100.784 6.59112 2.20447 0
M  V30 1036 H 103.975 4.33876 1.75697 0
M  V30 1037 H 104.148 6.09649 2.19618 0
M  V30 1038 N 97.5546 -0.734337 1.39446 0
M  V30 1039 C 98.7946 -1.50655 1.38139 0
M  V30 1040 C 99.1586 -1.91986 -0.0228701 0
M  V30 1041 O 100.36 -2.68318 -0.160947 0
M  V30 1042 C 98.6306 -2.71251 2.32718 0
M  V30 1043 S 100.19 -3.60892 2.49605 0
M  V30 1044 H 97.0076 -0.515315 0.489869 0
M  V30 1045 H 99.6096 -0.860392 1.75549 0
M  V30 1046 H 98.3136 -2.39027 3.33608 0
M  V30 1047 H 97.8446 -3.40795 1.96526 0
M  V30 1048 H 99.8596 -4.64899 1.73446 0
M  V30 1049 N 99.0327 -1.24633 -0.964593 0
M  V30 1050 C 100.282 -1.08188 -1.7023 0
M  V30 1051 C 100.595 0.37873 -1.91898 0
M  V30 1052 O 101.801 0.663427 -2.6327 0
M  V30 1053 C 100.257 -1.88773 -3.06419 0
M  V30 1054 C 99.8647 -3.39263 -2.92582 0
M  V30 1055 C 101.609 -1.80867 -3.84041 0
M  V30 1056 C 99.5157 -4.1218 -4.24101 0
M  V30 1057 H 98.4457 -0.401245 -0.638372 0
M  V30 1058 H 101.097 -1.48742 -1.07462 0
M  V30 1059 H 99.4787 -1.41035 -3.70034 0
M  V30 1060 H 100.653 -3.94603 -2.37961 0
M  V30 1061 H 98.9677 -3.48154 -2.28424 0
M  V30 1062 H 101.565 -2.32646 -4.81435 0
M  V30 1063 H 101.908 -0.774543 -4.09031 0
M  V30 1064 H 102.441 -2.26301 -3.27159 0
M  V30 1065 H 99.1797 -5.15965 -4.04303 0
M  V30 1066 H 98.6997 -3.61626 -4.78526 0
M  V30 1067 H 100.379 -4.19349 -4.92702 0
M  V30 1068 N 100.511 1.16574 -1.06058 0
M  V30 1069 C 101.739 1.90952 -0.796552 0
M  V30 1070 C 102.154 1.77302 0.648808 0
M  V30 1071 O 101.511 1.11605 1.44397 0
M  V30 1072 C 101.562 3.41736 -1.17894 0
M  V30 1073 O 101.283 3.54975 -2.56758 0
M  V30 1074 C 102.784 4.33169 -0.942308 0
M  V30 1075 H 100.004 0.605594 -0.288959 0
M  V30 1076 H 102.548 1.47777 -1.41358 0
M  V30 1077 H 100.703 3.82623 -0.606491 0
M  V30 1078 H 101.117 4.4846 -2.72 0
M  V30 1079 H 102.591 5.37439 -1.25952 0
M  V30 1080 H 103.068 4.3903 0.122078 0
M  V30 1081 H 103.674 3.98007 -1.49902 0
M  V30 1082 N 101.989 0.842826 1.3317 0
M  V30 1083 C 103.238 0.436738 1.96915 0
M  V30 1084 C 103.551 -1.01025 1.67491 0
M  V30 1085 O 104.757 -1.5212 2.24881 0
M  V30 1086 C 103.213 0.730021 3.52418 0
M  V30 1087 C 102.821 2.19195 3.90714 0
M  V30 1088 C 104.565 0.391076 4.22695 0
M  V30 1089 C 102.472 2.42907 5.39212 0
M  V30 1090 H 101.402 0.15958 0.736919 0
M  V30 1091 H 104.053 1.03196 1.51733 0
M  V30 1092 H 102.435 0.0643755 3.95948 0
M  V30 1093 H 103.609 2.8984 3.58231 0
M  V30 1094 H 101.924 2.49425 3.33431 0
M  V30 1095 H 104.521 0.545817 5.31907 0
M  V30 1096 H 104.864 -0.666294 4.10933 0
M  V30 1097 H 105.397 1.01212 3.84709 0
M  V30 1098 H 102.136 3.47224 5.55982 0
M  V30 1099 H 101.656 1.76827 5.73142 0
M  V30 1100 H 103.335 2.2626 6.06148 0
M  V30 1101 N 103.467 -1.45747 0.599634 0
M  V30 1102 C 104.414 -2.30467 -0.123849 0
M  V30 1103 C 105.384 -1.41632 -0.86774 0
M  V30 1104 O 106.569 -1.70568 -0.855056 0
M  V30 1105 C 103.709 -3.26402 -1.12051 0
M  V30 1106 C 102.822 -4.3034 -0.37832 0
M  V30 1107 C 101.957 -5.13389 -1.364 0
M  V30 1108 C 100.996 -6.09061 -0.609171 0
M  V30 1109 N 100.133 -6.84918 -1.54374 0
M  V30 1110 H 104.973 -2.91802 0.604627 0
M  V30 1111 H 102.51 -1.43797 0.309972 0
M  V30 1112 H 104.468 -3.80482 -1.7114 0
M  V30 1113 H 103.098 -2.66839 -1.8165 0
M  V30 1114 H 102.15 -3.78984 0.327929 0
M  V30 1115 H 103.462 -4.98354 0.210997 0
M  V30 1116 H 102.616 -5.7183 -2.02719 0
M  V30 1117 H 101.355 -4.45376 -1.98725 0
M  V30 1118 H 100.36 -5.49758 0.0676979 0
M  V30 1119 H 101.585 -6.79099 0.00891991 0
M  V30 1120 H 99.531 -6.19601 -2.15478 0
M  V30 1121 H 99.448 -7.49254 -1.00766 0
M  V30 1122 H 100.716 -7.47906 -2.19676 0
M  V30 1123 N 104.945 -0.338344 -1.53925 0
M  V30 1124 C 106.17 0.263987 -2.05713 0
M  V30 1125 C 106.595 1.43847 -1.21201 0
M  V30 1126 O 105.953 1.79904 -0.224535 0
M  V30 1127 C 106.001 0.662 -3.54471 0
M  V30 1128 O 105.105 1.76265 -3.72833 0
M  V30 1129 H 104.446 0.0448722 -0.662482 0
M  V30 1130 H 106.976 -0.491048 -1.9862 0
M  V30 1131 H 106.986 0.940594 -3.9701 0
M  V30 1132 H 105.661 -0.196937 -4.15433 0
M  V30 1133 H 104.238 1.48173 -3.42198 0
M  V30 1134 N 106.423 1.57458 -0.0668435 0
M  V30 1135 C 107.651 1.97624 0.612565 0
M  V30 1136 C 108.066 0.94502 1.63447 0
M  V30 1137 O 107.423 -0.0689276 1.8237 0
M  V30 1138 C 107.474 3.37869 1.28555 0
M  V30 1139 O 107.195 4.3704 0.304557 0
M  V30 1140 C 108.696 3.92882 2.05325 0
M  V30 1141 H 105.916 0.650045 0.166381 0
M  V30 1142 H 108.46 2.04035 -0.137782 0
M  V30 1143 H 106.615 3.3256 1.98702 0
M  V30 1144 H 107.029 5.18565 0.786779 0
M  V30 1145 H 108.503 4.93247 2.47812 0
M  V30 1146 H 108.98 3.29156 2.9078 0
M  V30 1147 H 109.586 4.01577 1.40056 0
M  V30 1148 N 107.901 -0.206675 1.56239 0
M  V30 1149 C 109.149 -0.927007 1.79586 0
M  V30 1150 C 109.47 -1.8427 0.637929 0
M  V30 1151 O 108.74 -1.92849 -0.344398 0
M  V30 1152 H 107.32 -0.345292 0.662407 0
M  V30 1153 H 109.982 -0.21496 1.93711 0
M  V30 1154 H 109.078 -1.52501 2.72305 0
M  V30 1155 N 109.379 -1.50304 -0.473955 0
M  V30 1156 C 110.628 -1.60392 -1.22301 0
M  V30 1157 C 110.941 -0.308411 -1.93153 0
M  V30 1158 O 112.147 -0.288156 -2.69966 0
M  V30 1159 C 110.603 -2.83109 -2.2221 0
M  V30 1160 C 110.211 -4.19524 -1.57173 0
M  V30 1161 C 111.955 -3.0254 -2.97775 0
M  V30 1162 C 109.862 -5.33431 -2.55353 0
M  V30 1163 H 108.792 -0.597286 -0.460179 0
M  V30 1164 H 111.443 -1.76731 -0.493803 0
M  V30 1165 H 109.825 -2.60322 -2.9841 0
M  V30 1166 H 110.999 -4.52554 -0.867824 0
M  V30 1167 H 109.314 -4.05674 -0.939002 0
M  V30 1168 H 111.911 -3.84811 -3.71248 0
M  V30 1169 H 112.254 -2.14154 -3.56992 0
M  V30 1170 H 112.787 -3.25494 -2.28688 0
M  V30 1171 H 109.526 -6.23962 -2.00878 0
M  V30 1172 H 109.046 -5.04823 -3.23904 0
M  V30 1173 H 110.725 -5.63887 -3.17239 0
M  V30 1174 N 110.857 0.726932 -1.39834 0
M  V30 1175 C 112.082 1.52121 -1.40976 0
M  V30 1176 C 112.507 1.88098 -0.00826029 0
M  V30 1177 O 111.865 1.52479 0.980807 0
M  V30 1178 C 111.913 2.78021 -2.29644 0
M  V30 1179 O 111.017 3.74272 -1.73188 0
M  V30 1180 H 110.358 0.45908 -0.479731 0
M  V30 1181 H 112.888 0.896207 -1.83927 0
M  V30 1182 H 112.898 3.26671 -2.44438 0
M  V30 1183 H 111.573 2.51169 -3.31492 0
M  V30 1184 H 110.15 3.33073 -1.6768 0
M  V30 1185 N 112.336 1.25143 0.95797 0
M  V30 1186 C 113.269 0.995565 2.05338 0
M  V30 1187 C 114.247 -0.0740423 1.62431 0
M  V30 1188 O 115.431 0.0649212 1.88388 0
M  V30 1189 C 112.558 0.504298 3.34925 0
M  V30 1190 C 111.604 1.56393 3.96792 0
M  V30 1191 S 112.437 3.14815 4.33188 0
M  V30 1192 C 113.593 2.67415 5.65898 0
M  V30 1193 H 113.826 1.92309 2.26726 0
M  V30 1194 H 111.359 1.08635 1.09716 0
M  V30 1195 H 113.317 0.227497 4.09869 0
M  V30 1196 H 111.978 -0.402671 3.11508 0
M  V30 1197 H 111.171 1.17082 4.90212 0
M  V30 1198 H 110.773 1.79124 3.28315 0
M  V30 1199 H 113.065 2.10833 6.4386 0
M  V30 1200 H 114.008 3.59463 6.10076 0
M  V30 1201 H 114.416 2.07521 5.24972 0
M  V30 1202 N 113.814 -1.1601 1.06675 0
M  V30 1203 C 115.044 -1.90251 0.805497 0
M  V30 1204 C 115.452 -1.77891 -0.64431 0
M  V30 1205 O 114.795 -1.12383 -1.45313 0
M  V30 1206 C 114.857 -3.41419 1.12576 0
M  V30 1207 C 114.521 -3.77564 2.57477 0
M  V30 1208 C 115.518 -3.79161 3.55715 0
M  V30 1209 C 113.203 -4.08079 2.92877 0
M  V30 1210 C 115.197 -4.10767 4.8739 0
M  V30 1211 C 112.884 -4.39351 4.24751 0
M  V30 1212 C 113.882 -4.40675 5.21818 0
M  V30 1213 O 113.57 -4.71202 6.51325 0
M  V30 1214 H 113.302 -0.610018 0.291297 0
M  V30 1215 H 115.856 -1.47958 1.4247 0
M  V30 1216 H 114.086 -3.84079 0.449503 0
M  V30 1217 H 115.775 -3.9694 0.84814 0
M  V30 1218 H 116.541 -3.55693 3.29708 0
M  V30 1219 H 112.42 -4.06211 2.17976 0
M  V30 1220 H 115.964 -4.11715 5.63148 0
M  V30 1221 H 111.861 -4.62285 4.50514 0
M  V30 1222 H 112.629 -4.88996 6.56373 0
M  V30 1223 N 115.292 -0.849877 -1.32721 0
M  V30 1224 C 116.539 -0.450923 -1.97416 0
M  V30 1225 C 116.867 0.992376 -1.67279 0
M  V30 1226 O 116.122 1.71048 -0.950845 0
M  V30 1227 C 116.421 -0.631272 -3.51781 0
M  V30 1228 C 116.087 -2.04432 -4.01894 0
M  V30 1229 C 114.749 -2.4308 -4.1529 0
M  V30 1230 C 117.101 -2.96679 -4.28522 0
M  V30 1231 C 114.429 -3.73257 -4.52654 0
M  V30 1232 C 116.781 -4.26349 -4.67343 0
M  V30 1233 C 115.445 -4.64939 -4.78945 0
M  V30 1234 H 114.715 -0.165004 -0.722395 0
M  V30 1235 H 117.362 -1.07901 -1.58207 0
M  V30 1236 H 115.667 0.0800767 -3.91718 0
M  V30 1237 H 117.364 -0.302709 -3.99856 0
M  V30 1238 H 113.954 -1.73419 -3.91949 0
M  V30 1239 H 118.138 -2.68054 -4.17685 0
M  V30 1240 H 113.394 -4.02946 -4.59831 0
M  V30 1241 H 117.568 -4.97895 -4.86902 0
M  V30 1242 H 115.195 -5.65855 -5.07654 0
M  V30 1243 N 116.77 1.45427 -0.607355 0
M  V30 1244 C 117.68 2.34325 0.113463 0
M  V30 1245 C 118.696 1.51226 0.860617 0
M  V30 1246 O 119.872 1.84029 0.818255 0
M  V30 1247 C 116.937 3.28839 1.09844 0
M  V30 1248 C 115.998 4.27844 0.353271 0
M  V30 1249 C 115.231 5.17842 1.29133 0
M  V30 1250 O 115.454 5.11264 2.52913 0
M  V30 1251 O 114.388 5.96713 0.788523 0
M  V30 1252 H 118.214 2.97364 -0.617094 0
M  V30 1253 H 115.799 1.44807 -0.367619 0
M  V30 1254 H 117.681 3.8708 1.66575 0
M  V30 1255 H 116.356 2.68365 1.81003 0
M  V30 1256 H 115.263 3.7322 -0.256494 0
M  V30 1257 H 116.596 4.91173 -0.317822 0
M  V30 1258 N 118.248 0.346503 1.53744 0
M  V30 1259 C 119.198 -0.524953 2.21874 0
M  V30 1260 C 120.182 -1.06376 1.20718 0
M  V30 1261 O 121.374 -0.996972 1.46251 0
M  V30 1262 C 118.503 -1.6739 2.99726 0
M  V30 1263 C 117.589 -1.14888 4.08242 0
M  V30 1264 N 117.98 -0.345329 5.0462 0
M  V30 1265 C 116.278 -1.4255 4.22606 0
M  V30 1266 C 116.979 -0.0600706 5.81669 0
M  V30 1267 N 115.955 -0.65252 5.39669 0
M  V30 1268 H 119.757 0.0960091 2.93743 0
M  V30 1269 H 117.271 0.15352 1.61673 0
M  V30 1270 H 119.268 -2.3102 3.47038 0
M  V30 1271 H 117.928 -2.29811 2.29384 0
M  V30 1272 H 118.939 0.0138439 5.17898 0
M  V30 1273 H 115.616 -2.05389 3.63486 0
M  V30 1274 H 117.006 0.588321 6.69319 0
M  V30 1275 N 119.726 -1.57421 0.075193 0
M  V30 1276 C 121.003 -1.85029 -0.634329 0
M  V30 1277 C 121.383 -0.968305 -1.87582 0
M  V30 1278 O 120.731 -0.0354749 -2.28472 0
M  V30 1279 C 120.941 -3.35286 -0.968742 0
M  V30 1280 C 122.289 -4.02875 -1.34077 0
M  V30 1281 O 123.313 -3.40051 -1.06037 0
M  V30 1282 O 122.172 -5.13691 -1.86506 0
M  V30 1283 H 119.266 -0.7645 -0.315387 0
M  V30 1284 H 121.812 -1.69366 0.106382 0
M  V30 1285 H 120.584 -3.91203 -0.0871376 0
M  V30 1286 H 120.207 -3.56223 -1.7661 0
M  V30 1287 N 121.204 0.198386 -1.56346 0
M  V30 1288 C 122.134 1.24865 -1.9731 0
M  V30 1289 C 123.115 1.47651 -0.844576 0
M  V30 1290 O 124.3 1.59444 -1.10866 0
M  V30 1291 C 121.43 2.59358 -2.30977 0
M  V30 1292 C 120.384 2.5119 -3.46537 0
M  V30 1293 C 119.71 3.89926 -3.65871 0
M  V30 1294 C 121.01 2.03977 -4.80823 0
M  V30 1295 H 122.704 0.908252 -2.85291 0
M  V30 1296 H 120.25 0.435462 -1.37258 0
M  V30 1297 H 122.203 3.33011 -2.58228 0
M  V30 1298 H 120.927 2.95132 -1.39874 0
M  V30 1299 H 119.586 1.79993 -3.19371 0
M  V30 1300 H 119.234 4.23046 -2.72105 0
M  V30 1301 H 118.934 3.85336 -4.4361 0
M  V30 1302 H 120.458 4.65205 -3.95495 0
M  V30 1303 H 121.872 2.67386 -5.07127 0
M  V30 1304 H 120.269 2.10397 -5.62008 0
M  V30 1305 H 121.339 0.992861 -4.74626 0
M  V30 1306 N 122.682 1.50554 0.465978 0
M  V30 1307 C 123.592 1.72585 1.58907 0
M  V30 1308 C 124.608 0.60911 1.6299 0
M  V30 1309 O 125.784 0.88804 1.80765 0
M  V30 1310 C 122.849 1.81995 2.95091 0
M  V30 1311 C 121.91 3.05751 3.01355 0
M  V30 1312 C 121.143 3.14702 4.31043 0
M  V30 1313 O 121.366 2.30313 5.21835 0
M  V30 1314 O 120.3 4.07468 4.43005 0
M  V30 1315 H 124.126 2.67799 1.43239 0
M  V30 1316 H 121.711 1.34711 0.646013 0
M  V30 1317 H 123.593 1.90335 3.75966 0
M  V30 1318 H 122.268 0.899659 3.10947 0
M  V30 1319 H 121.175 3.02908 2.19539 0
M  V30 1320 H 122.508 3.97375 2.90437 0
M  V30 1321 N 124.16 -0.719506 1.40217 0
M  V30 1322 C 125.437 -1.47221 1.28784 0
M  V30 1323 C 125.817 -2.10883 -0.0956067 0
M  V30 1324 O 125.165 -1.99833 -1.10811 0
M  V30 1325 C 125.375 -2.5111 2.42373 0
M  V30 1326 C 126.723 -3.17053 2.82423 0
M  V30 1327 O 127.747 -2.61429 2.41937 0
M  V30 1328 O 126.606 -4.17742 3.52355 0
M  V30 1329 H 123.7 -0.654491 0.50554 0
M  V30 1330 H 126.246 -0.752014 1.52128 0
M  V30 1331 H 125.018 -2.02556 3.34793 0
M  V30 1332 H 124.641 -3.3067 2.20778 0
M  V30 1333 N 125.638 -1.25649 -0.95132 0
M  V30 1334 C 126.886 -1.10375 -1.69298 0
M  V30 1335 C 127.207 0.355339 -1.91735 0
M  V30 1336 O 126.477 1.25188 -1.50681 0
M  V30 1337 H 125.057 -0.405461 -0.627384 0
M  V30 1338 H 127.719 -1.57823 -1.14358 0
M  V30 1339 H 126.815 -1.61465 -2.67087 0
M  V30 1340 N 127.117 1.15442 -1.07289 0
M  V30 1341 C 128.027 2.23786 -0.704057 0
M  V30 1342 C 129.043 1.7166 0.284413 0
M  V30 1343 O 130.219 2.00972 0.131205 0
M  V30 1344 C 127.284 3.46535 -0.106792 0
M  V30 1345 C 126.345 4.13654 -1.14842 0
M  V30 1346 C 125.578 5.30544 -0.57956 0
M  V30 1347 O 125.801 5.67187 0.604585 0
M  V30 1348 O 124.735 5.87154 -1.32414 0
M  V30 1349 H 128.561 2.57664 -1.60757 0
M  V30 1350 H 126.146 1.23152 -0.845803 0
M  V30 1351 H 128.028 4.20804 0.224048 0
M  V30 1352 H 126.703 3.14407 0.770049 0
M  V30 1353 H 125.61 3.4131 -1.5316 0
M  V30 1354 H 126.943 4.49861 -1.99714 0
M  V30 1355 N 128.595 0.856903 1.32268 0
M  V30 1356 C 129.843 0.460474 1.96784 0
M  V30 1357 C 130.164 -0.987701 1.68135 0
M  V30 1358 O 129.434 -1.69058 0.989765 0
M  V30 1359 H 128.014 0.167289 0.728027 0
M  V30 1360 H 130.676 1.09383 1.61312 0
M  V30 1361 H 129.772 0.60739 3.06133 0
M  V30 1362 N 130.073 -1.45103 0.615059 0
M  V30 1363 C 131.02 -2.30586 -0.0993978 0
M  V30 1364 C 131.99 -1.42544 -0.852669 0
M  V30 1365 O 133.175 -1.71465 -0.836917 0
M  V30 1366 C 130.315 -3.27572 -1.08583 0
M  V30 1367 C 129.428 -4.30717 -0.332656 0
M  V30 1368 C 128.563 -5.14807 -1.30947 0
M  V30 1369 C 127.602 -6.09673 -0.544538 0
M  V30 1370 N 126.739 -6.86517 -1.47101 0
M  V30 1371 H 131.579 -2.91144 0.635542 0
M  V30 1372 H 129.116 -1.4346 0.325206 0
M  V30 1373 H 131.074 -3.82276 -1.67095 0
M  V30 1374 H 129.704 -2.68751 -1.78809 0
M  V30 1375 H 128.756 -3.78615 0.368107 0
M  V30 1376 H 130.068 -4.98102 0.263842 0
M  V30 1377 H 129.222 -5.73948 -1.96643 0
M  V30 1378 H 127.961 -4.47458 -1.9399 0
M  V30 1379 H 126.966 -5.49656 0.126003 0
M  V30 1380 H 128.191 -6.79052 0.080947 0
M  V30 1381 H 126.137 -6.21851 -2.08895 0
M  V30 1382 H 126.054 -7.50281 -0.928137 0
M  V30 1383 H 127.322 -7.50194 -2.11731 0
M  V30 1384 N 131.551 -0.354651 -1.53558 0
M  V30 1385 C 132.498 0.496968 -2.25386 0
M  V30 1386 C 133.468 1.0865 -1.25636 0
M  V30 1387 O 134.653 1.12104 -1.54394 0
M  V30 1388 C 131.793 1.63637 -3.03837 0
M  V30 1389 C 130.906 1.07307 -4.18461 0
M  V30 1390 C 130.041 2.18068 -4.84376 0
M  V30 1391 C 129.08 1.59147 -5.91049 0
M  V30 1392 N 128.217 2.63695 -6.50699 0
M  V30 1393 H 133.057 -0.122075 -2.9775 0
M  V30 1394 H 130.594 -0.0720154 -1.46924 0
M  V30 1395 H 132.552 2.30734 -3.47589 0
M  V30 1396 H 131.182 2.22623 -2.33749 0
M  V30 1397 H 130.234 0.292708 -3.79272 0
M  V30 1398 H 131.546 0.602193 -4.95152 0
M  V30 1399 H 130.7 2.93007 -5.31255 0
M  V30 1400 H 129.439 2.68504 -4.07133 0
M  V30 1401 H 128.444 0.827175 -5.43542 0
M  V30 1402 H 129.669 1.09549 -6.70206 0
M  V30 1403 H 127.615 3.13365 -5.76315 0
M  V30 1404 H 127.532 2.21263 -7.22896 0
M  V30 1405 H 128.8 3.3837 -7.02229 0
M  V30 1406 N 133.029 1.57378 -0.0835403 0
M  V30 1407 C 134.44 1.81261 0.447358 0
M  V30 1408 C 134.791 0.998331 1.68902 0
M  V30 1409 O 133.916 0.224282 2.15235 0
M  V30 1410 C 134.511 3.28767 0.818386 0
M  V30 1411 C 133.07 3.53455 1.29409 0
M  V30 1412 C 132.217 2.75831 0.285024 0
M  V30 1413 H 135.168 1.5566 -0.309115 0
M  V30 1414 H 135.189 3.41459 1.67887 0
M  V30 1415 H 134.701 3.88006 -0.0855019 0
M  V30 1416 H 132.802 2.99534 2.21608 0
M  V30 1417 H 132.915 4.62128 1.2639 0
M  V30 1418 H 131.279 2.42947 0.764767 0
M  V30 1419 H 132.062 3.37813 -0.611341 0
M  V30 1420 N 134.507 -0.190092 1.56449 0
M  V30 1421 C 135.754 -0.909705 1.80916 0
M  V30 1422 C 136.082 -1.83047 0.657583 0
M  V30 1423 O 135.337 -1.92428 -0.356356 0
M  V30 1424 C 135.636 -1.75382 3.1141 0
M  V30 1425 C 135.302 -0.983606 4.40041 0
M  V30 1426 C 133.964 -0.770967 4.74984 0
M  V30 1427 C 136.316 -0.442024 5.19322 0
M  V30 1428 C 133.644 -0.0053448 5.867 0
M  V30 1429 C 135.996 0.310412 6.31838 0
M  V30 1430 C 134.66 0.534023 6.6536 0
M  V30 1431 H 133.93 -0.332885 0.662019 0
M  V30 1432 H 136.577 -0.175762 1.90692 0
M  V30 1433 H 134.882 -2.55659 2.96893 0
M  V30 1434 H 136.579 -2.31331 3.27547 0
M  V30 1435 H 133.169 -1.15936 4.12622 0
M  V30 1436 H 137.353 -0.593693 4.92736 0
M  V30 1437 H 132.609 0.177825 6.11141 0
M  V30 1438 H 136.783 0.737419 6.92485 0
M  V30 1439 H 134.41 1.12918 7.51767 0
M  V30 1440 N 135.985 -1.50799 -0.457987 0
M  V30 1441 C 136.915 -1.73553 -1.5621 0
M  V30 1442 C 137.896 -0.584774 -1.59732 0
M  V30 1443 O 139.081 -0.825314 -1.7579 0
M  V30 1444 C 136.211 -1.84169 -2.94447 0
M  V30 1445 C 135.165 -2.99461 -3.0579 0
M  V30 1446 C 134.491 -2.95235 -4.45803 0
M  V30 1447 C 135.791 -4.39766 -2.81786 0
M  V30 1448 H 137.485 -2.66 -1.37421 0
M  V30 1449 H 135.031 -1.28002 -0.659662 0
M  V30 1450 H 136.984 -1.98672 -3.71628 0
M  V30 1451 H 135.708 -0.883545 -3.14422 0
M  V30 1452 H 134.367 -2.8463 -2.31044 0
M  V30 1453 H 134.015 -1.97239 -4.62715 0
M  V30 1454 H 133.715 -3.72642 -4.54326 0
M  V30 1455 H 135.239 -3.11803 -5.24987 0
M  V30 1456 H 136.653 -4.55054 -3.4871 0
M  V30 1457 H 135.05 -5.18722 -3.0174 0
M  V30 1458 H 136.12 -4.51229 -1.7754 0
M  V30 1459 N 137.463 0.71206 -1.40597 0
M  V30 1460 C 138.712 1.46754 -1.38369 0
M  V30 1461 C 139.025 1.95598 0.0097839 0
M  V30 1462 O 140.231 2.71059 0.154677 0
M  V30 1463 C 138.687 2.65289 -2.43207 0
M  V30 1464 C 138.295 2.23301 -3.88382 0
M  V30 1465 C 140.039 3.43008 -2.50091 0
M  V30 1466 C 137.946 3.38696 -4.84808 0
M  V30 1467 H 136.876 0.55118 -0.514506 0
M  V30 1468 H 139.527 0.774616 -1.66349 0
M  V30 1469 H 137.909 3.36769 -2.08332 0
M  V30 1470 H 139.083 1.59218 -4.32419 0
M  V30 1471 H 137.398 1.58618 -3.85006 0
M  V30 1472 H 139.995 4.28881 -3.1932 0
M  V30 1473 H 140.338 3.87065 -1.53253 0
M  V30 1474 H 140.871 2.78574 -2.83974 0
M  V30 1475 H 137.61 2.99668 -5.82992 0
M  V30 1476 H 137.13 4.01683 -4.45433 0
M  V30 1477 H 138.809 4.04712 -5.04794 0
M  V30 1478 N 138.941 1.26152 0.944643 0
M  V30 1479 C 139.889 1.07215 2.06417 0
M  V30 1480 C 140.883 9.2007e-05 1.694 0
M  V30 1481 O 142.089 0.1565 1.79318 0
M  V30 1482 H 138.464 0.329837 0.675805 0
M  V30 1483 H 140.435 2.02099 2.19541 0
M  V30 1484 C 139.184 0.718197 3.40202 0
M  V30 1485 H 138.507 1.53497 3.69159 0
M  V30 1486 H 139.947 0.625459 4.19361 0
M  V30 1487 C 138.406 -0.576435 3.31932 0
M  V30 1488 O 138.936 -1.61574 3.67773 0
M  V30 1489 N 137.142 -0.565781 2.85039 0
M  V30 1490 H 136.689 0.280367 2.5607 0
M  V30 1491 H 136.647 -1.43213 2.79888 0
M  V30 1492 N 140.419 -1.14872 1.07899 0
M  V30 1493 C 141.349 -2.2193 0.725887 0
M  V30 1494 C 142.33 -1.67622 -0.28927 0
M  V30 1495 O 143.515 -1.93533 -0.160787 0
M  V30 1496 C 140.645 -3.47061 0.128856 0
M  V30 1497 C 139.599 -4.14363 1.07178 0
M  V30 1498 C 138.925 -5.33636 0.337229 0
M  V30 1499 C 140.225 -4.63492 2.40775 0
M  V30 1500 H 141.919 -2.51724 1.62097 0
M  V30 1501 H 139.465 -1.20991 0.780838 0
M  V30 1502 H 141.418 -4.21199 -0.130147 0
M  V30 1503 H 140.142 -3.16617 -0.80134 0
M  V30 1504 H 138.801 -3.42173 1.3158 0
M  V30 1505 H 138.449 -4.99449 -0.596606 0
M  V30 1506 H 138.149 -5.79609 0.965788 0
M  V30 1507 H 139.673 -6.10539 0.0861567 0
M  V30 1508 H 141.087 -5.2913 2.20669 0
M  V30 1509 H 139.484 -5.20148 2.99276 0
M  V30 1510 H 140.554 -3.78834 3.02676 0
M  V30 1511 N 141.898 -0.863906 -1.31812 0
M  V30 1512 C 143.147 -0.46801 -1.96195 0
M  V30 1513 C 143.46 0.983474 -1.69077 0
M  V30 1514 O 144.666 1.48523 -2.27273 0
M  V30 1515 C 143.122 -0.785995 -3.51212 0
M  V30 1516 C 142.73 -2.25383 -3.87178 0
M  V30 1517 C 144.474 -0.458274 -4.22019 0
M  V30 1518 C 142.381 -2.51455 -5.3528 0
M  V30 1519 H 141.311 -0.171283 -0.734287 0
M  V30 1520 H 143.962 -1.05597 -1.50072 0
M  V30 1521 H 142.344 -0.127359 -3.95795 0
M  V30 1522 H 143.518 -2.95502 -3.53575 0
M  V30 1523 H 141.833 -2.54698 -3.2942 0
M  V30 1524 H 144.43 -0.630369 -5.30971 0
M  V30 1525 H 144.773 0.600834 -4.11941 0
M  V30 1526 H 145.306 -1.07319 -3.8305 0
M  V30 1527 H 142.045 -3.56025 -5.50387 0
M  V30 1528 H 141.565 -1.85923 -5.70257 0
M  V30 1529 H 143.244 -2.35874 -6.02472 0
M  V30 1530 N 143.376 1.44774 -0.622745 0
M  V30 1531 C 144.653 1.95522 -0.0551974 0
M  V30 1532 C 145.033 1.5649 1.41683 0
M  V30 1533 O 144.381 0.834848 2.12703 0
M  V30 1534 C 144.591 3.4796 -0.269242 0
M  V30 1535 C 145.939 4.24306 -0.158014 0
M  V30 1536 O 146.963 3.55637 -0.200162 0
M  V30 1537 O 145.822 5.46471 -0.0558693 0
M  V30 1538 H 142.916 0.826556 0.0271015 0
M  V30 1539 H 145.462 1.54866 -0.693864 0
M  V30 1540 H 144.234 3.6939 -1.29099 0
M  V30 1541 H 143.857 3.95543 0.403966 0
M  V30 1542 N 144.854 0.36279 1.53368 0
M  V30 1543 C 146.079 -0.231226 2.06107 0
M  V30 1544 C 146.504 -1.419 1.23474 0
M  V30 1545 O 145.862 -1.79524 0.253128 0
M  V30 1546 C 145.91 -0.605523 3.5548 0
M  V30 1547 O 145.014 -1.70312 3.7559 0
M  V30 1548 H 144.355 -0.034327 0.663112 0
M  V30 1549 H 146.885 0.522584 1.97814 0
M  V30 1550 H 146.895 -0.877314 3.98456 0
M  V30 1551 H 145.57 0.263004 4.15068 0
M  V30 1552 H 144.147 -1.4271 3.44512 0
M  V30 1553 N 146.332 -1.57332 0.0918853 0
M  V30 1554 C 147.743 -1.81496 -0.437739 0
M  V30 1555 C 148.094 -1.00727 -1.6837 0
M  V30 1556 O 147.219 -0.235694 -2.15113 0
M  V30 1557 C 147.814 -3.29197 -0.800939 0
M  V30 1558 C 146.373 -3.54136 -1.27532 0
M  V30 1559 C 145.52 -2.75979 -0.270392 0
M  V30 1560 H 148.471 -1.55494 0.317366 0
M  V30 1561 H 148.492 -3.42344 -1.66074 0
M  V30 1562 H 148.004 -3.87955 0.106078 0
M  V30 1563 H 146.105 -3.00705 -2.20016 0
M  V30 1564 H 146.218 -4.62792 -1.23938 0
M  V30 1565 H 144.582 -2.43349 -0.751872 0
M  V30 1566 H 145.365 -3.37484 0.629248 0
M  V30 1567 N 147.81 0.181792 -1.56548 0
M  V30 1568 C 149.058 0.89832 -1.81038 0
M  V30 1569 C 149.379 1.83232 -0.667164 0
M  V30 1570 O 148.649 1.93372 0.313673 0
M  V30 1571 H 147.229 0.33471 -0.667816 0
M  V30 1572 H 149.891 0.184116 -1.94028 0
M  V30 1573 H 148.987 1.4815 -2.74696 0
M  V30 1574 N 149.288 1.51039 0.449983 0
M  V30 1575 C 150.238 1.67824 1.54335 0
M  V30 1576 C 151.222 0.5324 1.51836 0
M  V30 1577 O 152.414 0.787762 1.58503 0
M  V30 1578 C 149.543 1.7951 2.92628 0
M  V30 1579 C 148.629 2.99838 2.9993 0
M  V30 1580 N 149.02 4.23207 2.77001 0
M  V30 1581 C 147.318 2.98832 3.31082 0
M  V30 1582 C 148.019 5.04361 2.89818 0
M  V30 1583 N 146.995 4.38746 3.2094 0
M  V30 1584 H 150.797 2.60884 1.35339 0
M  V30 1585 H 148.311 1.48513 0.657085 0
M  V30 1586 H 150.308 1.89642 3.7127 0
M  V30 1587 H 148.968 0.876227 3.12654 0
M  V30 1588 H 149.979 4.5236 2.52172 0
M  V30 1589 H 146.656 2.16527 3.56963 0
M  V30 1590 H 148.046 6.12528 2.76151 0
M  V30 1591 N 150.766 -0.704594 1.40972 0
M  V30 1592 C 152.012 -1.46675 1.40051 0
M  V30 1593 C 152.345 -1.94199 0.00641102 0
M  V30 1594 O 151.62 -1.68916 -0.964235 0
M  V30 1595 C 151.903 -2.68505 2.39952 0
M  V30 1596 C 151.756 -2.26805 3.88432 0
M  V30 1597 C 153.075 -3.70686 2.37233 0
M  V30 1598 H 150.194 -0.532015 0.510028 0
M  V30 1599 H 152.836 -0.803255 1.72185 0
M  V30 1600 H 150.986 -3.25114 2.1268 0
M  V30 1601 H 152.658 -1.75592 4.26574 0
M  V30 1602 H 150.901 -1.58685 4.03734 0
M  V30 1603 H 151.572 -3.14181 4.53866 0
M  V30 1604 H 154.048 -3.23731 2.61415 0
M  V30 1605 H 152.924 -4.53553 3.09162 0
M  V30 1606 H 153.185 -4.19754 1.38777 0
M  V30 1607 N 152.244 -1.26651 -0.937939 0
M  V30 1608 C 153.521 -1.0313 -1.66204 0
M  V30 1609 C 153.901 0.437256 -2.06522 0
M  V30 1610 O 153.249 1.41831 -1.79154 0
M  V30 1611 C 153.459 -1.98314 -2.87181 0
M  V30 1612 C 154.807 -2.27107 -3.58758 0
M  V30 1613 O 155.831 -1.96205 -2.97291 0
M  V30 1614 O 154.69 -2.79736 -4.69479 0
M  V30 1615 H 151.784 -0.392384 -0.727986 0
M  V30 1616 H 154.33 -1.37874 -0.989382 0
M  V30 1617 H 153.102 -2.97399 -2.54302 0
M  V30 1618 H 152.725 -1.64068 -3.6217 0
M  V30 1619 N 153.722 1.14298 -1.08507 0
M  V30 1620 C 154.969 1.85359 -0.815373 0
M  V30 1621 C 155.297 1.83001 0.658865 0
M  V30 1622 O 154.552 1.25655 1.50031 0
M  V30 1623 C 154.851 3.33547 -1.28379 0
M  V30 1624 C 154.517 3.56093 -2.76602 0
M  V30 1625 C 153.179 3.61955 -3.17084 0
M  V30 1626 C 155.531 3.64834 -3.72217 0
M  V30 1627 C 152.859 3.74082 -4.51973 0
M  V30 1628 C 155.211 3.78487 -5.06883 0
M  V30 1629 C 153.875 3.82598 -5.46969 0
M  V30 1630 H 153.145 0.678276 -0.298366 0
M  V30 1631 H 155.792 1.35002 -1.35819 0
M  V30 1632 H 154.097 3.86191 -0.660593 0
M  V30 1633 H 155.794 3.86959 -1.05186 0
M  V30 1634 H 152.384 3.52179 -2.4427 0
M  V30 1635 H 156.568 3.59595 -3.42061 0
M  V30 1636 H 151.824 3.75527 -4.82483 0
M  V30 1637 H 155.998 3.84193 -5.80834 0
M  V30 1638 H 153.625 3.91747 -6.51489 0
M  V30 1639 N 155.201 0.870884 1.31352 0
M  V30 1640 C 156.426 0.495957 2.01383 0
M  V30 1641 C 156.851 -0.904324 1.64935 0
M  V30 1642 O 156.209 -1.59687 0.858466 0
M  V30 1643 C 156.257 0.661433 3.54482 0
M  V30 1644 O 155.361 -0.298851 4.11316 0
M  V30 1645 H 154.702 0.197158 0.634054 0
M  V30 1646 H 157.232 1.17455 1.67527 0
M  V30 1647 H 157.242 0.555072 4.04207 0
M  V30 1648 H 155.917 1.68246 3.8035 0
M  V30 1649 H 154.494 -0.147368 3.72609 0
M  V30 1650 N 156.679 -1.44442 0.630414 0
M  V30 1651 C 157.904 -2.06927 0.139944 0
M  V30 1652 C 158.329 -1.46795 -1.17613 0
M  V30 1653 O 157.687 -0.569144 -1.72135 0
M  V30 1654 C 157.735 -3.6058 0.0379581 0
M  V30 1655 O 156.839 -3.99937 -1.0062 0
M  V30 1656 H 156.18 -0.658608 0.0844483 0
M  V30 1657 H 158.71 -1.85327 0.866891 0
M  V30 1658 H 158.72 -4.07714 -0.152856 0
M  V30 1659 H 157.395 -4.03728 0.998809 0
M  V30 1660 H 155.972 -3.64436 -0.79001 0
M  V30 1661 N 158.157 -0.370918 -1.53173 0
M  V30 1662 C 159.067 0.480823 -2.2962 0
M  V30 1663 C 160.083 1.08789 -1.35798 0
M  V30 1664 O 161.259 1.09768 -1.68858 0
M  V30 1665 C 158.324 1.60227 -3.07454 0
M  V30 1666 C 157.385 1.0222 -4.16953 0
M  V30 1667 C 156.618 2.0902 -4.91066 0
M  V30 1668 O 156.841 3.30222 -4.65091 0
M  V30 1669 O 155.775 1.71778 -5.76867 0
M  V30 1670 H 159.601 -0.141421 -3.03371 0
M  V30 1671 H 157.186 -0.135146 -1.48787 0
M  V30 1672 H 159.068 2.25417 -3.56041 0
M  V30 1673 H 157.743 2.20982 -2.36535 0
M  V30 1674 H 156.65 0.334064 -3.72605 0
M  V30 1675 H 157.983 0.459131 -4.90054 0
M  V30 1676 N 159.635 1.57281 -0.100228 0
M  V30 1677 C 160.881 1.94826 0.563101 0
M  V30 1678 C 161.214 0.982475 1.67514 0
M  V30 1679 O 160.489 0.0164069 1.94493 0
M  V30 1680 C 160.772 3.42453 1.11346 0
M  V30 1681 C 160.625 4.498 0.00612081 0
M  V30 1682 C 161.944 3.91506 2.01024 0
M  V30 1683 H 159.063 0.708428 0.203221 0
M  V30 1684 H 161.705 1.8922 -0.171979 0
M  V30 1685 H 159.855 3.47361 1.7399 0
M  V30 1686 H 161.527 4.57 -0.628357 0
M  V30 1687 H 159.77 4.28756 -0.659581 0
M  V30 1688 H 160.441 5.50306 0.432109 0
M  V30 1689 H 162.917 3.88784 1.48278 0
M  V30 1690 H 161.793 4.95358 2.36457 0
M  V30 1691 H 162.054 3.31099 2.92961 0
M  V30 1692 N 161.113 -0.173488 1.56642 0
M  V30 1693 C 162.341 -0.906095 1.86004 0
M  V30 1694 C 162.756 -1.75921 0.685355 0
M  V30 1695 O 162.113 -1.79198 -0.345578 0
M  V30 1696 C 162.164 -1.78462 3.14378 0
M  V30 1697 O 161.885 -0.965914 4.27319 0
M  V30 1698 C 163.386 -2.62707 3.57071 0
M  V30 1699 H 160.606 -0.263341 0.617165 0
M  V30 1700 H 163.15 -0.174236 2.03756 0
M  V30 1701 H 161.305 -2.46984 2.98459 0
M  V30 1702 H 161.719 -1.56655 5.00559 0
M  V30 1703 H 163.193 -3.19969 4.49804 0
M  V30 1704 H 163.67 -3.37472 2.81086 0
M  V30 1705 H 164.276 -1.99521 3.75595 0
M  V30 1706 N 162.591 -1.51276 -0.441967 0
M  V30 1707 C 163.554 -1.7167 -1.51862 0
M  V30 1708 C 164.554 -0.586793 -1.49711 0
M  V30 1709 O 165.744 -0.854276 -1.51815 0
M  V30 1710 C 162.876 -1.76889 -2.91416 0
M  V30 1711 H 164.069 -2.67754 -1.35084 0
M  V30 1712 H 161.622 -1.41196 -0.670333 0
M  V30 1713 H 162.357 -0.826026 -3.13604 0
M  V30 1714 H 162.142 -2.59001 -2.94382 0
M  V30 1715 H 163.632 -1.94522 -3.69528 0
M  V30 1716 N 164.069 0.697108 -1.41344 0
M  V30 1717 C 165.032 1.79281 -1.42797 0
M  V30 1718 C 166.032 1.57607 -0.318837 0
M  V30 1719 O 167.222 1.64309 -0.578642 0
M  V30 1720 C 164.354 3.17632 -1.23785 0
M  V30 1721 H 165.547 1.79385 -2.40335 0
M  V30 1722 H 163.1 0.904582 -1.27464 0
M  V30 1723 H 163.835 3.23167 -0.270814 0
M  V30 1724 H 163.62 3.34765 -2.04144 0
M  V30 1725 H 165.11 3.97617 -1.27633 0
M  V30 1726 N 165.547 1.27147 0.931209 0
M  V30 1727 C 166.477 1.12081 2.04842 0
M  V30 1728 C 167.458 0.0232364 1.70084 0
M  V30 1729 O 168.643 0.197085 1.93197 0
M  V30 1730 C 165.773 0.76354 3.38803 0
M  V30 1731 C 164.727 1.81396 3.87659 0
M  V30 1732 C 164.053 1.31075 5.18385 0
M  V30 1733 C 165.353 3.21739 4.11438 0
M  V30 1734 H 167.047 2.05537 2.17703 0
M  V30 1735 H 164.593 0.989603 1.04608 0
M  V30 1736 H 166.546 0.644982 4.16435 0
M  V30 1737 H 165.27 -0.206727 3.25945 0
M  V30 1738 H 163.929 1.92136 3.12217 0
M  V30 1739 H 163.577 0.330037 5.01916 0
M  V30 1740 H 163.277 2.013 5.52044 0
M  V30 1741 H 164.801 1.20506 5.98591 0
M  V30 1742 H 166.215 3.14019 4.79651 0
M  V30 1743 H 164.612 3.89644 4.56397 0
M  V30 1744 H 165.682 3.67054 3.16859 0
M  V30 1745 N 167.025 -1.13721 1.09112 0
M  V30 1746 C 168.441 -1.36914 0.820174 0
M  V30 1747 C 168.641 -1.93356 -0.567079 0
M  V30 1748 O 167.697 -2.15093 -1.32255 0
M  V30 1749 C 169.01 -2.3235 1.90877 0
M  V30 1750 C 170.558 -2.45973 1.93562 0
M  V30 1751 C 171.033 -3.44714 3.01556 0
M  V30 1752 N 172.524 -3.52263 3.00775 0
M  V30 1753 C 173.259 -4.28536 3.80978 0
M  V30 1754 N 172.755 -5.07991 4.71081 0
M  V30 1755 N 174.548 -4.23804 3.69251 0
M  V30 1756 H 166.699 -0.754348 1.98553 0
M  V30 1757 H 168.962 -0.3944 0.862063 0
M  V30 1758 H 168.668 -1.98027 2.90651 0
M  V30 1759 H 168.542 -3.32332 1.78424 0
M  V30 1760 H 170.929 -2.79584 0.944286 0
M  V30 1761 H 171.01 -1.45926 2.10093 0
M  V30 1762 H 170.654 -3.11835 4.00901 0
M  V30 1763 H 170.584 -4.44558 2.82269 0
M  V30 1764 H 173.075 -2.95567 2.35475 0
M  V30 1765 H 173.388 -5.63487 5.28869 0
M  V30 1766 H 171.733 -5.07235 4.75119 0
M  V30 1767 H 174.924 -3.60806 2.98222 0
M  V30 1768 H 175.097 -4.82995 4.31995 0
M  V30 1769 N 168.503 -0.877838 -1.30888 0
M  V30 1770 C 169.749 -0.493426 -1.96706 0
M  V30 1771 C 170.082 0.953504 -1.6918 0
M  V30 1772 O 169.357 1.67266 -0.992594 0
M  V30 1773 C 169.64 -0.760429 -3.51979 0
M  V30 1774 C 169.493 -2.25747 -3.89048 0
M  V30 1775 C 170.812 -0.232148 -4.39487 0
M  V30 1776 H 167.931 -0.180746 -0.714493 0
M  V30 1777 H 170.573 -1.10052 -1.54882 0
M  V30 1778 H 168.723 -0.243715 -3.87735 0
M  V30 1779 H 170.395 -2.84204 -3.63354 0
M  V30 1780 H 168.638 -2.72694 -3.37373 0
M  V30 1781 H 169.309 -2.39491 -4.97341 0
M  V30 1782 H 171.785 -0.674314 -4.106 0
M  V30 1783 H 170.661 -0.448355 -5.47066 0
M  V30 1784 H 170.922 0.866297 -4.33529 0
M  V30 1785 N 169.982 1.44106 -0.638065 0
M  V30 1786 C 171.21 2.06336 -0.152615 0
M  V30 1787 C 171.625 1.47731 1.17563 0
M  V30 1788 O 170.982 0.602806 1.72257 0
M  V30 1789 C 171.033 3.61479 -0.0391491 0
M  V30 1790 O 170.754 4.17903 -1.31487 0
M  V30 1791 C 172.255 4.40757 0.474176 0
M  V30 1792 H 169.475 0.665862 -0.0828776 0
M  V30 1793 H 172.019 1.84862 -0.87443 0
M  V30 1794 H 170.174 3.82191 0.633142 0
M  V30 1795 H 170.588 5.11416 -1.16421 0
M  V30 1796 H 172.062 5.49707 0.502562 0
M  V30 1797 H 172.539 4.12697 1.50258 0
M  V30 1798 H 173.145 4.24979 -0.165102 0
M  V30 1799 N 171.46 0.379036 1.52974 0
M  V30 1800 C 172.737 -0.263479 1.93817 0
M  V30 1801 C 173.117 -1.65244 1.31368 0
M  V30 1802 O 172.465 -2.23448 0.477856 0
M  V30 1803 C 172.675 -0.300166 3.47707 0
M  V30 1804 C 174.023 -0.534061 4.21228 0
M  V30 1805 O 175.047 -0.38081 3.54159 0
M  V30 1806 O 173.906 -0.833501 5.40106 0
M  V30 1807 H 171 -0.161149 0.811147 0
M  V30 1808 H 173.546 0.432798 1.64088 0
M  V30 1809 H 172.318 0.673138 3.85467 0
M  V30 1810 H 171.941 -1.04179 3.83709 0
M  V30 1811 N 172.938 -1.57226 0.108567 0
M  V30 1812 C 174.186 -1.94448 -0.550853 0
M  V30 1813 C 174.507 -0.992074 -1.67878 0
M  V30 1814 O 173.777 -0.0465 -1.95845 0
M  V30 1815 H 172.357 -0.717897 -0.206479 0
M  V30 1816 H 175.019 -1.94112 0.175062 0
M  V30 1817 H 174.115 -2.97218 -0.952259 0
M  V30 1818 N 174.416 0.165178 -1.56732 0
M  V30 1819 C 175.379 1.18822 -1.95995 0
M  V30 1820 C 176.379 1.3685 -0.84431 0
M  V30 1821 O 177.569 1.34152 -1.11126 0
M  V30 1822 C 174.701 2.5521 -2.26011 0
M  V30 1823 H 175.894 0.851825 -2.87548 0
M  V30 1824 H 173.447 0.407857 -1.50885 0
M  V30 1825 H 174.182 2.93852 -1.37191 0
M  V30 1826 H 173.967 2.43489 -3.07336 0
M  V30 1827 H 175.457 3.28927 -2.57288 0
M  V30 1828 N 175.894 1.51508 0.433938 0
M  V30 1829 C 176.824 1.76016 1.53429 0
M  V30 1830 C 177.805 0.610112 1.58782 0
M  V30 1831 O 178.99 0.853177 1.74455 0
M  V30 1832 C 176.12 1.88831 2.9148 0
M  V30 1833 C 175.074 3.04288 3.00987 0
M  V30 1834 C 174.4 3.0229 4.4105 0
M  V30 1835 C 175.7 4.44193 2.74754 0
M  V30 1836 H 177.394 2.68152 1.33171 0
M  V30 1837 H 174.94 1.29035 0.639214 0
M  V30 1838 H 176.893 2.04559 3.6842 0
M  V30 1839 H 175.617 0.933455 3.12976 0
M  V30 1840 H 174.276 2.8827 2.26486 0
M  V30 1841 H 173.924 2.04576 4.59519 0
M  V30 1842 H 173.624 3.79822 4.4834 0
M  V30 1843 H 175.148 3.20116 5.1996 0
M  V30 1844 H 176.562 4.60544 3.41426 0
M  V30 1845 H 174.959 5.23457 2.9345 0
M  V30 1846 H 176.029 4.53996 1.70339 0
M  V30 1847 N 177.372 -0.689602 1.41712 0
M  V30 1848 C 178.618 -1.45181 1.41599 0
M  V30 1849 C 178.951 -1.94181 0.0270081 0
M  V30 1850 O 178.226 -1.6993 -0.946265 0
M  V30 1851 C 178.509 -2.65945 2.42787 0
M  V30 1852 C 178.362 -2.22672 3.90816 0
M  V30 1853 C 179.681 -3.68149 2.41151 0
M  V30 1854 H 176.8 -0.526576 0.515642 0
M  V30 1855 H 179.442 -0.784947 1.73028 0
M  V30 1856 H 177.592 -3.2284 2.16116 0
M  V30 1857 H 179.264 -1.71058 4.28412 0
M  V30 1858 H 177.507 -1.54394 4.05395 0
M  V30 1859 H 178.178 -3.0935 4.57172 0
M  V30 1860 H 180.654 -3.2094 2.64834 0
M  V30 1861 H 179.53 -4.50248 3.13955 0
M  V30 1862 H 179.791 -4.18259 1.43221 0
M  V30 1863 N 178.85 -1.27639 -0.924453 0
M  V30 1864 C 180.096 -1.14336 -1.67497 0
M  V30 1865 C 180.429 0.309465 -1.91718 0
M  V30 1866 O 179.704 1.22608 -1.50989 0
M  V30 1867 C 179.987 -1.93096 -3.0395 0
M  V30 1868 C 179.84 -3.46381 -2.8695 0
M  V30 1869 C 181.159 -1.73798 -4.0433 0
M  V30 1870 H 178.278 -0.416728 -0.607871 0
M  V30 1871 H 180.92 -1.56832 -1.07256 0
M  V30 1872 H 179.07 -1.56982 -3.55372 0
M  V30 1873 H 180.742 -3.92343 -2.42621 0
M  V30 1874 H 178.985 -3.72557 -2.22225 0
M  V30 1875 H 179.656 -3.96735 -3.83804 0
M  V30 1876 H 182.132 -2.05293 -3.61931 0
M  V30 1877 H 181.008 -2.31294 -4.97789 0
M  V30 1878 H 181.269 -0.686725 -4.36734 0
M  V30 1879 N 180.328 1.1314 -1.09713 0
M  V30 1880 C 181.574 1.84757 -0.836224 0
M  V30 1881 C 181.907 1.8347 0.636598 0
M  V30 1882 O 181.182 1.27491 1.46889 0
M  V30 1883 C 181.465 3.32782 -1.37578 0
M  V30 1884 C 181.318 3.42567 -2.91493 0
M  V30 1885 C 182.637 4.28307 -1.01198 0
M  V30 1886 H 179.756 0.67082 -0.305236 0
M  V30 1887 H 182.398 1.3278 -1.35903 0
M  V30 1888 H 180.548 3.77177 -0.931097 0
M  V30 1889 H 182.22 3.06862 -3.44432 0
M  V30 1890 H 180.463 2.83349 -3.28475 0
M  V30 1891 H 181.134 4.46674 -3.24324 0
M  V30 1892 H 183.61 3.91999 -1.39556 0
M  V30 1893 H 182.486 5.30307 -1.41653 0
M  V30 1894 H 182.747 4.42029 0.0794833 0
M  V30 1895 N 181.806 0.884767 1.30421 0
M  V30 1896 C 183.083 0.423185 1.90967 0
M  V30 1897 C 183.463 -1.09605 1.80416 0
M  V30 1898 O 182.811 -1.93126 1.22125 0
M  V30 1899 C 183.021 0.921056 3.36627 0
M  V30 1900 C 184.369 0.955903 4.137 0
M  V30 1901 O 185.393 0.867706 3.4547 0
M  V30 1902 O 184.252 1.08614 5.35598 0
M  V30 1903 H 181.346 0.129369 0.816819 0
M  V30 1904 H 183.892 0.973653 1.3899 0
M  V30 1905 H 182.664 1.96489 3.3839 0
M  V30 1906 H 182.287 0.349741 3.96059 0
M  V30 1907 N 183.284 -1.43765 0.645699 0
M  V30 1908 C 184.512 -2.06253 0.163556 0
M  V30 1909 C 184.927 -1.48352 -1.16778 0
M  V30 1910 O 184.284 -0.611932 -1.71935 0
M  V30 1911 C 184.335 -3.61453 0.0583186 0
M  V30 1912 O 184.056 -4.172 1.33702 0
M  V30 1913 C 185.557 -4.41002 -0.450795 0
M  V30 1914 H 182.777 -0.665413 0.0864077 0
M  V30 1915 H 185.321 -1.84396 0.884222 0
M  V30 1916 H 183.476 -3.82522 -0.612865 0
M  V30 1917 H 183.89 -5.10791 1.19131 0
M  V30 1918 H 185.364 -5.49966 -0.473403 0
M  V30 1919 H 185.841 -4.13488 -1.48068 0
M  V30 1920 H 186.447 -4.24886 0.187637 0
M  V30 1921 N 184.763 -0.387143 -1.52771 0
M  V30 1922 C 186.012 0.19697 -2.00736 0
M  V30 1923 C 186.325 1.48082 -1.27793 0
M  V30 1924 O 187.531 2.14485 -1.66458 0
M  V30 1925 C 185.987 0.401568 -3.57653 0
M  V30 1926 C 185.595 -0.868907 -4.39493 0
M  V30 1927 C 187.339 0.942164 -4.13912 0
M  V30 1928 C 185.246 -0.632705 -5.88006 0
M  V30 1929 H 184.176 0.0773827 -0.750019 0
M  V30 1930 H 186.827 -0.50921 -1.76293 0
M  V30 1931 H 185.209 1.16954 -3.78335 0
M  V30 1932 H 186.383 -1.64133 -4.30577 0
M  V30 1933 H 184.698 -1.33429 -3.94443 0
M  V30 1934 H 187.295 1.13455 -5.22525 0
M  V30 1935 H 187.638 1.9106 -3.69867 0
M  V30 1936 H 188.171 0.233814 -3.97112 0
M  V30 1937 H 184.91 -1.57208 -6.36369 0
M  V30 1938 H 184.43 0.100825 -5.99715 0
M  V30 1939 H 186.109 -0.26642 -6.46451 0
M  V30 1940 N 186.241 1.57166 -0.116904 0
M  V30 1941 C 187.151 2.18745 0.847812 0
M  V30 1942 C 188.167 1.163 1.29423 0
M  V30 1943 O 189.343 1.48761 1.35765 0
M  V30 1944 C 186.408 2.77307 2.0809 0
M  V30 1945 C 185.469 3.94781 1.68661 0
M  V30 1946 C 184.702 4.50541 2.86091 0
M  V30 1947 O 184.925 4.05202 4.01456 0
M  V30 1948 O 183.859 5.41256 2.63298 0
M  V30 1949 H 187.685 3.01632 0.353778 0
M  V30 1950 H 185.27 1.49005 0.108599 0
M  V30 1951 H 187.152 3.14647 2.80313 0
M  V30 1952 H 185.827 1.97452 2.56504 0
M  V30 1953 H 184.734 3.62214 0.935518 0
M  V30 1954 H 186.067 4.76065 1.24991 0
M  V30 1955 N 187.719 -0.156864 1.56817 0
M  V30 1956 C 188.967 -0.869404 1.82444 0
M  V30 1957 C 189.288 -1.82147 0.69623 0
M  V30 1958 O 188.558 -1.93847 -0.28287 0
M  V30 1959 H 187.138 -0.324043 0.673056 0
M  V30 1960 H 189.8 -0.153224 1.94297 0
M  V30 1961 H 188.896 -1.43761 2.77019 0
M  V30 1962 N 189.197 -1.51736 -0.425897 0
M  V30 1963 C 190.443 -1.65214 -1.1761 0
M  V30 1964 C 190.776 -0.372778 -1.90589 0
M  V30 1965 O 190.051 0.628139 -1.84078 0
M  V30 1966 C 190.334 -2.86312 -2.18398 0
M  V30 1967 C 190.187 -4.24254 -1.49426 0
M  V30 1968 C 191.506 -3.02925 -3.19256 0
M  V30 1969 H 188.625 -0.601263 -0.426206 0
M  V30 1970 H 191.267 -1.8425 -0.463882 0
M  V30 1971 H 189.417 -2.70213 -2.79137 0
M  V30 1972 H 191.089 -4.52046 -0.919362 0
M  V30 1973 H 189.332 -4.26426 -0.796432 0
M  V30 1974 H 190.003 -5.05001 -2.22885 0
M  V30 1975 H 192.479 -3.1781 -2.68581 0
M  V30 1976 H 191.355 -3.89199 -3.8706 0
M  V30 1977 H 191.616 -2.15497 -3.86023 0
M  V30 1978 N 190.675 0.682077 -1.42076 0
M  V30 1979 C 191.915 1.45424 -1.43636 0
M  V30 1980 C 192.279 1.91939 -0.0484001 0
M  V30 1981 O 193.48 2.6873 0.0612514 0
M  V30 1982 C 191.751 2.62427 -2.42625 0
M  V30 1983 S 193.31 3.51379 -2.62827 0
M  V30 1984 H 190.128 0.496779 -0.508657 0
M  V30 1985 H 192.73 0.794645 -1.78621 0
M  V30 1986 H 191.434 2.26481 -3.42249 0
M  V30 1987 H 190.965 3.33266 -2.09039 0
M  V30 1988 H 192.98 4.58141 -1.9058 0
M  V30 1989 N 192.153 1.28127 0.917671 0
M  V30 1990 C 193.399 1.15223 1.66888 0
M  V30 1991 C 193.732 -0.299293 1.9188 0
M  V30 1992 O 193.007 -1.21805 1.51637 0
M  V30 1993 C 193.29 1.94706 3.02922 0
M  V30 1994 C 193.143 3.47898 2.85109 0
M  V30 1995 C 194.462 1.75939 4.03402 0
M  V30 1996 H 191.581 0.419946 0.605652 0
M  V30 1997 H 194.223 1.57398 1.06423 0
M  V30 1998 H 192.373 1.58864 3.54534 0
M  V30 1999 H 194.045 3.93624 2.40537 0
M  V30 2000 H 192.288 3.7373 2.20246 0
M  V30 2001 H 192.959 3.98765 3.81694 0
M  V30 2002 H 195.435 2.07209 3.60837 0
M  V30 2003 H 194.311 2.33931 4.96556 0
M  V30 2004 H 194.572 0.709877 4.36364 0
M  V30 2005 N 193.631 -1.12557 1.10312 0
M  V30 2006 C 194.563 -2.17971 0.708625 0
M  V30 2007 C 195.576 -1.60806 -0.254027 0
M  V30 2008 O 196.765 -1.78458 -0.0386891 0
M  V30 2009 C 193.865 -3.38891 0.0248198 0
M  V30 2010 C 193.038 -4.25548 1.01132 0
M  V30 2011 C 192.097 -5.24972 0.35924 0
M  V30 2012 O 191.123 -5.60174 1.00965 0
M  V30 2013 N 192.325 -5.73747 -0.882847 0
M  V30 2014 H 195.09 -2.52427 1.61557 0
M  V30 2015 H 192.651 -1.27967 0.991771 0
M  V30 2016 H 194.643 -4.02485 -0.422852 0
M  V30 2017 H 193.213 -3.02596 -0.784514 0
M  V30 2018 H 192.433 -3.58589 1.6373 0
M  V30 2019 H 193.721 -4.80294 1.67914 0
M  V30 2020 H 193.119 -5.4731 -1.43065 0
M  V30 2021 H 191.676 -6.39234 -1.27369 0
M  V30 2022 N 195.109 -0.891671 -1.2995 0
M  V30 2023 C 196.337 -0.52866 -2.00032 0
M  V30 2024 C 196.752 0.884574 -1.66795 0
M  V30 2025 O 196.109 1.5827 -0.908669 0
M  V30 2026 C 196.16 -0.701814 -3.54622 0
M  V30 2027 O 195.881 -2.05942 -3.86678 0
M  V30 2028 C 197.382 -0.342683 -4.41973 0
M  V30 2029 H 194.602 -0.203659 -0.639347 0
M  V30 2030 H 197.146 -1.19881 -1.65677 0
M  V30 2031 H 195.301 -0.0789468 -3.8732 0
M  V30 2032 H 195.715 -2.08291 -4.81368 0
M  V30 2033 H 197.189 -0.514709 -5.49595 0
M  V30 2034 H 197.666 0.71975 -4.33262 0
M  V30 2035 H 198.272 -0.942154 -4.14733 0
M  V30 2036 N 196.587 1.43421 -0.653314 0
M  V30 2037 C 197.497 2.34568 0.0388565 0
M  V30 2038 C 198.513 1.53888 0.81207 0
M  V30 2039 O 199.689 1.86539 0.759294 0
M  V30 2040 C 196.754 3.32167 0.993269 0
M  V30 2041 C 195.815 4.28751 0.216977 0
M  V30 2042 C 195.048 5.21688 1.12593 0
M  V30 2043 O 195.271 5.19052 2.36519 0
M  V30 2044 O 194.205 5.98919 0.598284 0
M  V30 2045 H 198.031 2.95251 -0.711386 0
M  V30 2046 H 195.616 1.43564 -0.413502 0
M  V30 2047 H 197.498 3.92183 1.54176 0
M  V30 2048 H 196.173 2.73987 1.72374 0
M  V30 2049 H 195.08 3.72215 -0.375101 0
M  V30 2050 H 196.413 4.89913 -0.473924 0
M  V30 2051 N 198.065 0.39524 1.52563 0
M  V30 2052 C 199.293 -0.184943 2.06072 0
M  V30 2053 C 199.708 -1.40021 1.26647 0
M  V30 2054 O 199.065 -1.79767 0.314672 0
M  V30 2055 C 199.116 -0.549179 3.57304 0
M  V30 2056 O 198.837 0.617813 4.33722 0
M  V30 2057 C 200.338 -1.18459 4.2718 0
M  V30 2058 H 197.558 -0.0265025 0.670476 0
M  V30 2059 H 200.102 0.562184 1.96621 0
M  V30 2060 H 198.257 -1.2462 3.66809 0
M  V30 2061 H 198.671 0.317091 5.23541 0
M  V30 2062 H 200.145 -1.38976 5.34219 0
M  V30 2063 H 200.622 -2.15368 3.82771 0
M  V30 2064 H 201.228 -0.528163 4.22008 0
M  V30 2065 N 199.544 -1.57102 0.125237 0
M  V30 2066 C 200.79 -1.95697 -0.532035 0
M  V30 2067 C 201.123 -1.009 -1.6593 0
M  V30 2068 O 200.398 -0.047347 -1.94442 0
M  V30 2069 C 200.681 -3.44181 -1.05884 0
M  V30 2070 C 200.534 -4.49752 0.0654392 0
M  V30 2071 C 201.853 -3.94655 -1.9477 0
M  V30 2072 H 198.972 -0.711571 -0.191925 0
M  V30 2073 H 201.614 -1.88923 0.20206 0
M  V30 2074 H 199.764 -3.50085 -1.68442 0
M  V30 2075 H 201.436 -4.55943 0.700982 0
M  V30 2076 H 199.679 -4.27653 0.727709 0
M  V30 2077 H 200.35 -5.50924 -0.344505 0
M  V30 2078 H 202.826 -3.91094 -1.42074 0
M  V30 2079 H 201.702 -4.99057 -2.28546 0
M  V30 2080 H 201.963 -3.35718 -2.87656 0
M  V30 2081 N 201.022 0.148545 -1.56898 0
M  V30 2082 C 201.952 1.18524 -2.01182 0
M  V30 2083 C 202.933 1.4489 -0.891123 0
M  V30 2084 O 204.118 1.55836 -1.15882 0
M  V30 2085 C 201.248 2.51879 -2.39112 0
M  V30 2086 C 200.202 2.40038 -3.54353 0
M  V30 2087 C 199.528 3.78089 -3.78091 0
M  V30 2088 C 200.828 1.88577 -4.87069 0
M  V30 2089 H 202.522 0.817029 -2.88036 0
M  V30 2090 H 200.068 0.391575 -1.38574 0
M  V30 2091 H 202.021 3.24627 -2.68692 0
M  V30 2092 H 200.745 2.90532 -1.49193 0
M  V30 2093 H 199.404 1.69742 -3.24936 0
M  V30 2094 H 199.052 4.14175 -2.85426 0
M  V30 2095 H 198.752 3.71028 -4.55645 0
M  V30 2096 H 200.276 4.52387 -4.10095 0
M  V30 2097 H 201.69 2.51117 -5.15377 0
M  V30 2098 H 200.087 1.9241 -5.68417 0
M  V30 2099 H 201.157 0.84136 -4.77545 0
M  V30 2100 N 202.5 1.5196 0.417844 0
M  V30 2101 C 203.73 1.69181 1.18581 0
M  V30 2102 C 204.138 0.397104 1.84986 0
M  V30 2103 O 203.481 -0.636011 1.72339 0
M  V30 2104 C 203.543 2.76497 2.29759 0
M  V30 2105 C 203.207 4.18514 1.83563 0
M  V30 2106 C 204.204 5.02648 1.32821 0
M  V30 2107 C 201.889 4.64708 1.90661 0
M  V30 2108 C 203.883 6.31044 0.897894 0
M  V30 2109 C 201.57 5.93096 1.47241 0
M  V30 2110 C 202.568 6.76093 0.968891 0
M  V30 2111 O 202.256 8.02078 0.540924 0
M  V30 2112 H 201.988 0.570457 0.362705 0
M  V30 2113 H 204.542 1.99249 0.498885 0
M  V30 2114 H 202.772 2.41786 3.01789 0
M  V30 2115 H 204.461 2.82403 2.91553 0
M  V30 2116 H 205.227 4.68154 1.26716 0
M  V30 2117 H 201.106 4.00216 2.28797 0
M  V30 2118 H 204.65 6.95776 0.504192 0
M  V30 2119 H 200.547 6.271 1.53022 0
M  V30 2120 H 201.315 8.15794 0.66502 0
M  V30 2121 N 203.978 -0.674533 1.42435 0
M  V30 2122 C 204.91 -1.80005 1.41883 0
M  V30 2123 C 205.923 -1.59667 0.31787 0
M  V30 2124 O 207.112 -1.68781 0.580973 0
M  V30 2125 C 204.212 -3.17114 1.19549 0
M  V30 2126 C 203.385 -3.64299 2.42084 0
M  V30 2127 C 202.444 -4.80142 2.15291 0
M  V30 2128 O 201.47 -4.90673 2.88493 0
M  V30 2129 N 202.672 -5.68869 1.1562 0
M  V30 2130 H 205.437 -1.80964 2.38898 0
M  V30 2131 H 202.998 -0.857633 1.37318 0
M  V30 2132 H 204.99 -3.92267 0.995417 0
M  V30 2133 H 203.56 -3.11053 0.310569 0
M  V30 2134 H 202.78 -2.79822 2.77657 0
M  V30 2135 H 204.068 -3.92567 3.23679 0
M  V30 2136 H 203.466 -5.63012 0.550765 0
M  V30 2137 H 202.023 -6.43833 1.016 0
M  V30 2138 N 205.456 -1.28612 -0.910864 0
M  V30 2139 C 206.419 -1.12803 -1.9952 0
M  V30 2140 C 207.419 -0.0668264 -1.60661 0
M  V30 2141 O 208.609 -0.312847 -1.71368 0
M  V30 2142 C 205.741 -0.72254 -3.33155 0
M  V30 2143 H 206.934 -2.09109 -2.14973 0
M  V30 2144 H 204.487 -1.11639 -1.09391 0
M  V30 2145 H 205.222 0.241152 -3.23402 0
M  V30 2146 H 205.007 -1.48916 -3.62721 0
M  V30 2147 H 206.497 -0.634666 -4.12749 0
M  V30 2148 N 206.934 1.1197 -1.10907 0
M  V30 2149 C 207.864 2.19928 -0.784473 0
M  V30 2150 C 208.845 1.6833 0.244726 0
M  V30 2151 O 210.03 1.93892 0.109418 0
M  V30 2152 C 207.16 3.46597 -0.220827 0
M  V30 2153 C 206.114 4.11376 -1.18127 0
M  V30 2154 C 205.44 5.32554 -0.478594 0
M  V30 2155 C 206.74 4.56945 -2.52979 0
M  V30 2156 H 208.434 2.47337 -1.68715 0
M  V30 2157 H 205.98 1.18879 -0.812642 0
M  V30 2158 H 207.933 4.21396 0.0184278 0
M  V30 2159 H 206.657 3.1863 0.717113 0
M  V30 2160 H 205.316 3.38564 -1.40606 0
M  V30 2161 H 204.964 5.00856 0.463976 0
M  V30 2162 H 204.664 5.76844 -1.11912 0
M  V30 2163 H 206.188 6.10096 -0.248 0
M  V30 2164 H 207.602 5.23093 -2.3462 0
M  V30 2165 H 205.999 5.1203 -3.12962 0
M  V30 2166 H 207.069 3.70676 -3.12614 0
M  V30 2167 N 208.412 0.89855 1.29475 0
M  V30 2168 C 209.66 0.522847 1.9522 0
M  V30 2169 C 209.981 -0.93371 1.71192 0
M  V30 2170 O 209.251 -1.65823 1.04305 0
M  V30 2171 H 207.831 0.190366 0.722336 0
M  V30 2172 H 210.493 1.14459 1.5775 0
M  V30 2173 H 209.589 0.704476 3.04045 0
M  V30 2174 N 209.89 -1.43072 0.660911 0
M  V30 2175 C 210.8 -2.34585 -0.0264163 0
M  V30 2176 C 211.816 -1.54316 -0.803898 0
M  V30 2177 O 212.992 -1.86939 -0.749391 0
M  V30 2178 C 210.057 -3.32689 -0.975639 0
M  V30 2179 C 209.118 -4.2886 -0.194236 0
M  V30 2180 C 208.351 -5.22278 -1.09825 0
M  V30 2181 O 208.574 -5.20299 -2.33763 0
M  V30 2182 O 207.508 -5.99228 -0.566513 0
M  V30 2183 H 211.334 -2.94869 0.727034 0
M  V30 2184 H 208.919 -1.43342 0.42111 0
M  V30 2185 H 210.801 -3.92995 -1.52094 0
M  V30 2186 H 209.476 -2.74898 -1.70918 0
M  V30 2187 H 208.383 -3.72011 0.394835 0
M  V30 2188 H 209.716 -4.89655 0.499899 0
M  V30 2189 N 211.368 -0.403325 -1.52352 0
M  V30 2190 C 212.784 -0.0539281 -1.59509 0
M  V30 2191 C 212.984 1.43307 -1.41652 0
M  V30 2192 O 212.04 2.19924 -1.24056 0
M  V30 2193 C 213.353 -0.543654 -2.95745 0
M  V30 2194 C 214.901 -0.501125 -3.08962 0
M  V30 2195 C 215.376 -0.967267 -4.47669 0
M  V30 2196 N 216.867 -0.923849 -4.53893 0
M  V30 2197 C 217.602 -1.25578 -5.5948 0
M  V30 2198 N 217.098 -1.65889 -6.72646 0
M  V30 2199 N 218.891 -1.17613 -5.49658 0
M  V30 2200 H 211.042 -1.37123 -1.62206 0
M  V30 2201 H 213.305 -0.56294 -0.76276 0
M  V30 2202 H 213.011 -1.58275 -3.14073 0
M  V30 2203 H 212.885 0.0498042 -3.77167 0
M  V30 2204 H 215.272 0.528909 -2.90321 0
M  V30 2205 H 215.353 -1.13056 -2.2946 0
M  V30 2206 H 214.997 -1.9956 -4.67053 0
M  V30 2207 H 214.927 -0.314698 -5.25659 0
M  V30 2208 H 217.418 -0.627403 -3.72655 0
M  V30 2209 H 217.731 -1.89543 -7.49195 0
M  V30 2210 H 216.076 -1.69787 -6.73942 0
M  V30 2211 H 219.267 -0.860115 -4.6013 0
M  V30 2212 H 219.44 -1.43812 -6.3184 0
M  V30 2213 N 212.846 1.57033 -0.133567 0
M  V30 2214 C 214.095 1.94861 0.520768 0
M  V30 2215 C 214.408 1.02012 1.66892 0
M  V30 2216 O 215.614 1.29365 2.38699 0
M  V30 2217 C 214.07 3.46362 0.977809 0
M  V30 2218 C 213.678 4.47773 -0.142674 0
M  V30 2219 C 215.422 3.93083 1.60269 0
M  V30 2220 C 213.329 5.90468 0.331883 0
M  V30 2221 H 212.259 0.727453 0.198315 0
M  V30 2222 H 214.91 1.82227 -0.215759 0
M  V30 2223 H 213.292 3.54282 1.7692 0
M  V30 2224 H 214.466 4.51536 -0.919317 0
M  V30 2225 H 212.781 4.10891 -0.675124 0
M  V30 2226 H 215.378 4.97121 1.96914 0
M  V30 2227 H 215.721 3.33876 2.48662 0
M  V30 2228 H 216.254 3.88025 0.876453 0
M  V30 2229 H 212.993 6.53463 -0.516341 0
M  V30 2230 H 212.513 5.90094 1.07469 0
M  V30 2231 H 214.192 6.42179 0.788332 0
M  V30 2232 N 214.325 -0.140222 1.56975 0
M  V30 2233 C 215.272 -1.17292 1.98774 0
M  V30 2234 C 216.242 -1.4232 0.856408 0
M  V30 2235 O 217.427 -1.54541 1.119 0
M  V30 2236 C 214.567 -2.49973 2.37923 0
M  V30 2237 C 213.68 -2.32062 3.64378 0
M  V30 2238 C 212.815 -3.57825 3.926 0
M  V30 2239 C 211.854 -3.3498 5.12303 0
M  V30 2240 N 210.991 -4.52891 5.36502 0
M  V30 2241 H 215.831 -0.809472 2.86795 0
M  V30 2242 H 213.368 -0.388237 1.41884 0
M  V30 2243 H 215.326 -3.27346 2.58652 0
M  V30 2244 H 213.956 -2.84252 1.52972 0
M  V30 2245 H 213.008 -1.45711 3.51387 0
M  V30 2246 H 214.32 -2.11145 4.51906 0
M  V30 2247 H 213.474 -4.43624 4.13863 0
M  V30 2248 H 212.213 -3.81753 3.03506 0
M  V30 2249 H 211.218 -2.4757 4.90906 0
M  V30 2250 H 212.443 -3.12444 6.02956 0
M  V30 2251 H 210.389 -4.76979 4.50363 0
M  V30 2252 H 210.306 -4.35001 6.18312 0
M  V30 2253 H 211.574 -5.39884 5.62268 0
M  V30 2254 N 215.803 -1.52179 -0.40978 0
M  V30 2255 C 217.214 -1.58377 -0.988615 0
M  V30 2256 C 217.565 -0.423879 -1.91566 0
M  V30 2257 O 216.69 0.455844 -2.11544 0
M  V30 2258 C 217.285 -2.87044 -1.79976 0
M  V30 2259 C 215.844 -2.95722 -2.32863 0
M  V30 2260 C 214.991 -2.53309 -1.12828 0
M  V30 2261 H 217.942 -1.57558 -0.190039 0
M  V30 2262 H 217.963 -2.7236 -2.65707 0
M  V30 2263 H 217.475 -3.71444 -1.12478 0
M  V30 2264 H 215.576 -2.15814 -3.03735 0
M  V30 2265 H 215.689 -3.99951 -2.63773 0
M  V30 2266 H 214.053 -2.07142 -1.48204 0
M  V30 2267 H 214.836 -3.40082 -0.46897 0
M  V30 2268 N 217.281 0.66697 -1.42791 0
M  V30 2269 C 218.527 1.4291 -1.43891 0
M  V30 2270 C 218.86 1.94114 -0.0578972 0
M  V30 2271 O 218.135 1.71414 0.91911 0
M  V30 2272 C 218.418 2.62049 -2.46987 0
M  V30 2273 C 218.271 2.16426 -3.94309 0
M  V30 2274 C 219.59 3.64266 -2.46978 0
M  V30 2275 H 216.709 0.518306 -0.523954 0
M  V30 2276 H 219.351 0.757321 -1.74255 0
M  V30 2277 H 217.501 3.19361 -2.21225 0
M  V30 2278 H 219.173 1.64221 -4.31079 0
M  V30 2279 H 217.416 1.47925 -4.078 0
M  V30 2280 H 218.087 3.02038 -4.62036 0
M  V30 2281 H 220.563 3.16686 -2.69906 0
M  V30 2282 H 219.439 4.45196 -3.21079 0
M  V30 2283 H 219.7 4.15927 -1.49857 0
M  V30 2284 N 218.759 1.29093 0.90403 0
M  V30 2285 C 219.689 1.16401 2.02418 0
M  V30 2286 C 220.67 0.0593085 1.69997 0
M  V30 2287 O 221.855 0.238021 1.92736 0
M  V30 2288 C 218.985 0.835233 3.37107 0
M  V30 2289 C 217.939 1.89578 3.83724 0
M  V30 2290 C 217.265 1.42041 5.15489 0
M  V30 2291 C 218.565 3.30394 4.04521 0
M  V30 2292 H 220.259 2.10109 2.13295 0
M  V30 2293 H 217.805 1.01157 1.02486 0
M  V30 2294 H 219.758 0.733169 4.14973 0
M  V30 2295 H 218.482 -0.137543 3.2631 0
M  V30 2296 H 217.141 1.98715 3.08071 0
M  V30 2297 H 216.789 0.436426 5.01103 0
M  V30 2298 H 216.489 2.12964 5.4765 0
M  V30 2299 H 218.013 1.33176 5.959 0
M  V30 2300 H 219.427 3.24123 4.72882 0
M  V30 2301 H 217.824 3.99237 4.48029 0
M  V30 2302 H 218.894 3.73692 3.09002 0
M  V30 2303 N 220.237 -1.11381 1.11499 0
M  V30 2304 C 221.187 -2.15555 0.74298 0
M  V30 2305 C 222.171 -1.58894 -0.253276 0
M  V30 2306 O 223.363 -1.76897 -0.0602918 0
M  V30 2307 C 220.492 -3.42782 0.188481 0
M  V30 2308 C 219.578 -4.064 1.21244 0
M  V30 2309 N 219.969 -4.44864 2.40685 0
M  V30 2310 C 218.267 -4.3333 1.05552 0
M  V30 2311 C 218.968 -4.94715 3.05994 0
M  V30 2312 N 217.944 -4.90909 2.33472 0
M  V30 2313 H 221.746 -2.43074 1.65203 0
M  V30 2314 H 219.26 -1.28401 0.994329 0
M  V30 2315 H 221.257 -4.16789 -0.0961693 0
M  V30 2316 H 219.917 -3.16727 -0.715149 0
M  V30 2317 H 220.928 -4.36876 2.78136 0
M  V30 2318 H 217.605 -4.1698 0.208372 0
M  V30 2319 H 218.995 -5.34103 4.07656 0
M  V30 2320 N 221.715 -0.905404 -1.28997 0
M  V30 2321 C 222.961 -0.535039 -1.95615 0
M  V30 2322 C 223.294 0.917404 -1.71165 0
M  V30 2323 O 222.569 1.65123 -1.02785 0
M  V30 2324 C 222.852 -0.834918 -3.50287 0
M  V30 2325 C 222.705 -2.33948 -3.84172 0
M  V30 2326 C 224.024 -0.325318 -4.38896 0
M  V30 2327 H 221.143 -0.195861 -0.710498 0
M  V30 2328 H 223.785 -1.13313 -1.52513 0
M  V30 2329 H 221.935 -0.325904 -3.87131 0
M  V30 2330 H 223.607 -2.91847 -3.57243 0
M  V30 2331 H 221.85 -2.79789 -3.31513 0
M  V30 2332 H 222.521 -2.49987 -4.92149 0
M  V30 2333 H 224.997 -0.761256 -4.09077 0
M  V30 2334 H 223.873 -0.564295 -5.45992 0
M  V30 2335 H 224.134 0.774144 -4.35269 0
M  V30 2336 N 223.193 1.4272 -0.668489 0
M  V30 2337 C 224.141 2.32586 0.0254857 0
M  V30 2338 C 225.135 1.49471 0.797176 0
M  V30 2339 O 226.341 1.65583 0.705853 0
M  V30 2340 H 222.716 0.751514 0.0270339 0
M  V30 2341 H 224.687 2.88823 -0.749936 0
M  V30 2342 C 223.436 3.3397 0.967427 0
M  V30 2343 H 222.759 3.97961 0.383048 0
M  V30 2344 H 224.199 3.9945 1.42181 0
M  V30 2345 C 222.658 2.65744 2.0708 0
M  V30 2346 O 223.188 2.48454 3.15648 0
M  V30 2347 N 221.394 2.2487 1.8407 0
M  V30 2348 H 220.941 2.39132 0.95778 0
M  V30 2349 H 220.899 1.79552 2.58086 0
M  V30 2350 N 224.671 0.411399 1.52136 0
M  V30 2351 C 225.618 -0.412975 2.27075 0
M  V30 2352 C 226.588 -1.03912 1.29582 0
M  V30 2353 O 227.773 -1.06296 1.58448 0
M  V30 2354 C 224.913 -1.52247 3.09701 0
M  V30 2355 C 224.026 -0.917021 4.22155 0
M  V30 2356 C 223.161 -1.9994 4.92135 0
M  V30 2357 C 222.2 -1.37101 5.96548 0
M  V30 2358 N 221.337 -2.39364 6.60038 0
M  V30 2359 H 226.177 0.232499 2.97092 0
M  V30 2360 H 223.714 0.126496 1.46555 0
M  V30 2361 H 225.672 -2.17674 3.55913 0
M  V30 2362 H 224.302 -2.13794 2.41851 0
M  V30 2363 H 223.354 -0.151742 3.80097 0
M  V30 2364 H 224.666 -0.418006 4.97045 0
M  V30 2365 H 223.82 -2.73088 5.41763 0
M  V30 2366 H 222.559 -2.53208 4.16818 0
M  V30 2367 H 221.564 -0.624873 5.46237 0
M  V30 2368 H 222.789 -0.845998 6.7381 0
M  V30 2369 H 220.735 -2.91759 5.87548 0
M  V30 2370 H 220.652 -1.9428 7.3061 0
M  V30 2371 H 221.92 -3.12074 7.14304 0
M  V30 2372 N 226.149 -1.5696 0.141893 0
M  V30 2373 C 227.395 -1.9625 -0.511248 0
M  V30 2374 C 227.728 -1.02654 -1.64851 0
M  V30 2375 O 227.003 -0.0679676 -1.94381 0
M  V30 2376 C 227.286 -3.45285 -1.02227 0
M  V30 2377 C 227.139 -4.49658 0.113138 0
M  V30 2378 C 228.458 -3.96698 -1.90574 0
M  V30 2379 H 225.577 -0.713567 -0.184367 0
M  V30 2380 H 228.219 -1.88698 0.222087 0
M  V30 2381 H 226.369 -3.51852 -1.64719 0
M  V30 2382 H 228.041 -4.55174 0.749302 0
M  V30 2383 H 226.284 -4.26857 0.773026 0
M  V30 2384 H 226.955 -5.51258 -0.286053 0
M  V30 2385 H 229.431 -3.92578 -1.37918 0
M  V30 2386 H 228.307 -5.01453 -2.2324 0
M  V30 2387 H 228.568 -3.3875 -2.84079 0
M  V30 2388 N 227.627 0.131896 -1.57047 0
M  V30 2389 C 228.904 0.871495 -1.75112 0
M  V30 2390 C 229.284 1.9866 -0.713949 0
M  V30 2391 O 228.632 2.26965 0.264447 0
M  V30 2392 C 228.842 1.40007 -3.19686 0
M  V30 2393 C 230.19 1.85752 -3.81813 0
M  V30 2394 O 231.214 1.49715 -3.23209 0
M  V30 2395 O 230.073 2.5226 -4.84796 0
M  V30 2396 H 227.167 0.412919 -0.716538 0
M  V30 2397 H 229.713 0.116641 -1.69299 0
M  V30 2398 H 228.485 0.599404 -3.86682 0
M  V30 2399 H 228.108 2.218 -3.29986 0
M  V30 2400 N 229.106 1.52395 0.401703 0
M  V30 2401 C 230.522 1.41363 0.740864 0
M  V30 2402 C 230.722 0.523982 1.94568 0
M  V30 2403 O 229.778 -0.00741204 2.52499 0
M  V30 2404 C 231.091 2.84011 0.987847 0
M  V30 2405 C 232.639 2.93404 1.09011 0
M  V30 2406 C 233.114 4.37036 1.3698 0
M  V30 2407 N 234.605 4.40304 1.43829 0
M  V30 2408 C 235.34 5.48508 1.67112 0
M  V30 2409 N 234.836 6.66819 1.87949 0
M  V30 2410 N 236.629 5.36034 1.69187 0
M  V30 2411 H 228.78 2.08765 -0.391262 0
M  V30 2412 H 231.043 0.941265 -0.112798 0
M  V30 2413 H 230.749 3.51265 0.174835 0
M  V30 2414 H 230.623 3.25502 1.906 0
M  V30 2415 H 233.01 2.26325 1.8937 0
M  V30 2416 H 233.091 2.55359 0.15015 0
M  V30 2417 H 232.735 5.04676 0.571353 0
M  V30 2418 H 232.665 4.72623 2.3224 0
M  V30 2419 H 235.156 3.55024 1.29486 0
M  V30 2420 H 235.469 7.45063 2.05185 0
M  V30 2421 H 233.814 6.6987 1.85199 0
M  V30 2422 H 237.005 4.42579 1.52451 0
M  V30 2423 H 237.178 6.20434 1.86993 0
M  V30 2424 N 230.584 -0.659388 1.43143 0
M  V30 2425 C 231.547 -1.75432 1.47501 0
M  V30 2426 C 232.547 -1.56707 0.360512 0
M  V30 2427 O 233.737 -1.62717 0.622002 0
M  V30 2428 C 230.869 -3.14239 1.32162 0
M  V30 2429 H 232.062 -1.7295 2.45006 0
M  V30 2430 H 229.615 -0.870469 1.29817 0
M  V30 2431 H 230.35 -3.22336 0.356401 0
M  V30 2432 H 230.135 -3.29235 2.12948 0
M  V30 2433 H 231.625 -3.94094 1.3813 0
M  V30 2434 N 232.062 -1.29571 -0.897171 0
M  V30 2435 C 232.992 -1.17473 -2.01798 0
M  V30 2436 C 233.973 -0.068323 -1.69963 0
M  V30 2437 O 235.158 -0.248239 -1.92607 0
M  V30 2438 C 232.288 -0.853099 -3.36659 0
M  V30 2439 C 231.242 -1.9161 -3.82713 0
M  V30 2440 C 230.568 -1.44773 -5.14728 0
M  V30 2441 C 231.868 -3.32535 -4.02763 0
M  V30 2442 H 233.562 -2.11237 -2.12177 0
M  V30 2443 H 231.108 -1.01699 -1.01948 0
M  V30 2444 H 233.061 -0.755165 -4.14578 0
M  V30 2445 H 231.785 0.120236 -3.26379 0
M  V30 2446 H 230.444 -2.00346 -3.07013 0
M  V30 2447 H 230.092 -0.462995 -5.00865 0
M  V30 2448 H 229.792 -2.15865 -5.46513 0
M  V30 2449 H 231.316 -1.36334 -5.95185 0
M  V30 2450 H 232.73 -3.26626 -4.71156 0
M  V30 2451 H 231.127 -4.01607 -4.45905 0
M  V30 2452 H 232.197 -3.75326 -3.07016 0
M  V30 2453 N 233.54 1.10788 -1.12088 0
M  V30 2454 C 234.47 2.19083 -0.807755 0
M  V30 2455 C 235.451 1.6858 0.226859 0
M  V30 2456 O 236.636 1.93997 0.0888475 0
M  V30 2457 C 233.766 3.46344 -0.257576 0
M  V30 2458 C 232.72 4.101 -1.22483 0
M  V30 2459 C 232.046 5.32016 -0.535052 0
M  V30 2460 C 233.346 4.54236 -2.57811 0
M  V30 2461 H 235.04 2.45534 -1.71328 0
M  V30 2462 H 232.586 1.1801 -0.825205 0
M  V30 2463 H 234.539 4.21392 -0.0262679 0
M  V30 2464 H 233.263 3.19373 0.683278 0
M  V30 2465 H 231.922 3.37054 -1.44189 0
M  V30 2466 H 231.57 5.01319 0.410827 0
M  V30 2467 H 231.27 5.75625 -1.18024 0
M  V30 2468 H 232.794 6.09799 -0.312695 0
M  V30 2469 H 234.208 5.20575 -2.40155 0
M  V30 2470 H 232.605 5.08682 -3.18375 0
M  V30 2471 H 233.675 3.6734 -3.16528 0
M  V30 2472 N 235.018 0.912232 1.28515 0
M  V30 2473 C 235.928 0.404506 2.31086 0
M  V30 2474 C 236.944 -0.50707 1.66448 0
M  V30 2475 O 238.12 -0.393624 1.97516 0
M  V30 2476 C 235.185 -0.348572 3.44943 0
M  V30 2477 C 234.246 0.59604 4.25142 0
M  V30 2478 C 233.479 -0.121194 5.33562 0
M  V30 2479 O 233.702 -1.34317 5.5436 0
M  V30 2480 O 232.636 0.542716 5.99448 0
M  V30 2481 H 236.462 1.25579 2.76521 0
M  V30 2482 H 234.047 0.676998 1.33181 0
M  V30 2483 H 235.929 -0.77395 4.14232 0
M  V30 2484 H 234.604 -1.17571 3.01594 0
M  V30 2485 H 233.511 1.07079 3.58448 0
M  V30 2486 H 234.844 1.38995 4.72167 0
M  V30 2487 N 236.496 -1.42363 0.676048 0
M  V30 2488 C 237.426 -2.33497 0.0124832 0
M  V30 2489 C 238.407 -1.50748 -0.787981 0
M  V30 2490 O 239.592 -1.79346 -0.744884 0
M  V30 2491 C 236.722 -3.34377 -0.938582 0
M  V30 2492 C 235.676 -4.27289 -0.246622 0
M  V30 2493 C 235.002 -5.18386 -1.31071 0
M  V30 2494 C 236.302 -5.14916 0.875125 0
M  V30 2495 H 237.996 -2.89233 0.773593 0
M  V30 2496 H 235.542 -1.39073 0.37346 0
M  V30 2497 H 237.495 -3.97044 -1.41188 0
M  V30 2498 H 236.219 -2.76947 -1.73113 0
M  V30 2499 H 234.878 -3.66018 0.206456 0
M  V30 2500 H 234.526 -4.57282 -2.09528 0
M  V30 2501 H 234.226 -5.81378 -0.852839 0
M  V30 2502 H 235.75 -5.83929 -1.78492 0
M  V30 2503 H 237.164 -5.71262 0.482983 0
M  V30 2504 H 235.561 -5.86747 1.25887 0
M  V30 2505 H 236.631 -4.53242 1.72335 0
M  V30 2506 N 237.974 -0.419461 -1.51915 0
M  V30 2507 C 238.906 0.43646 -2.25006 0
M  V30 2508 C 239.919 1.00149 -1.28351 0
M  V30 2509 O 241.108 0.898674 -1.54227 0
M  V30 2510 C 238.208 1.6206 -2.9764 0
M  V30 2511 C 237.381 1.17763 -4.21249 0
M  V30 2512 C 236.44 2.22985 -4.76617 0
M  V30 2513 O 235.466 1.83151 -5.38929 0
M  V30 2514 N 236.668 3.55271 -4.59089 0
M  V30 2515 H 239.433 -0.18989 -2.99098 0
M  V30 2516 H 236.994 -0.247386 -1.59999 0
M  V30 2517 H 238.986 2.32038 -3.31573 0
M  V30 2518 H 237.556 2.15266 -2.2667 0
M  V30 2519 H 236.776 0.305582 -3.93014 0
M  V30 2520 H 238.064 0.858781 -5.015 0
M  V30 2521 H 237.462 3.90377 -4.09417 0
M  V30 2522 H 236.019 4.21195 -4.97432 0
M  V30 2523 N 239.452 1.56882 -0.150215 0
M  V30 2524 C 240.385 2.12712 0.826358 0
M  V30 2525 C 241.363 1.05154 1.24022 0
M  V30 2526 O 242.547 1.33004 1.33575 0
M  V30 2527 C 239.674 2.64945 2.11002 0
M  V30 2528 C 238.72 3.8468 1.84183 0
M  V30 2529 S 239.553 5.25502 1.02995 0
M  V30 2530 C 240.709 5.81125 2.32474 0
M  V30 2531 H 240.942 2.95214 0.351598 0
M  V30 2532 H 238.475 1.54267 0.0641211 0
M  V30 2533 H 240.433 2.95689 2.84742 0
M  V30 2534 H 239.094 1.82568 2.55593 0
M  V30 2535 H 238.287 4.19482 2.79375 0
M  V30 2536 H 237.889 3.54714 1.1855 0
M  V30 2537 H 240.181 5.92753 3.281 0
M  V30 2538 H 241.124 6.78625 2.02171 0
M  V30 2539 H 241.532 5.09392 2.43269 0
M  V30 2540 N 240.93 -0.123565 1.57115 0
M  V30 2541 C 241.84 -1.17074 2.033 0
M  V30 2542 C 242.856 -1.4561 0.952559 0
M  V30 2543 O 244.032 -1.56817 1.26374 0
M  V30 2544 C 241.097 -2.47857 2.42421 0
M  V30 2545 C 240.158 -2.26758 3.64526 0
M  V30 2546 C 239.391 -3.51305 4.01771 0
M  V30 2547 O 239.614 -4.5843 3.39409 0
M  V30 2548 O 238.548 -3.42578 4.94898 0
M  V30 2549 H 242.374 -0.808555 2.92739 0
M  V30 2550 H 239.959 -0.334027 1.45618 0
M  V30 2551 H 241.841 -3.2492 2.68338 0
M  V30 2552 H 240.516 -2.83558 1.5613 0
M  V30 2553 H 239.423 -1.47569 3.43765 0
M  V30 2554 H 240.756 -1.95963 4.51508 0
M  V30 2555 N 242.408 -1.52605 -0.393616 0
M  V30 2556 C 243.654 -1.67672 -1.14079 0
M  V30 2557 C 243.987 -0.413121 -1.89755 0
M  V30 2558 O 243.262 0.588952 -1.85369 0
M  V30 2559 C 243.545 -2.9088 -2.12276 0
M  V30 2560 C 243.398 -4.27329 -1.40394 0
M  V30 2561 C 244.717 -3.09628 -3.12759 0
M  V30 2562 H 241.836 -0.610168 -0.413356 0
M  V30 2563 H 244.478 -1.85193 -0.424696 0
M  V30 2564 H 242.628 -2.76073 -2.73342 0
M  V30 2565 H 244.3 -4.53894 -0.82327 0
M  V30 2566 H 242.543 -4.2802 -0.705801 0
M  V30 2567 H 243.214 -5.09615 -2.12123 0
M  V30 2568 H 245.69 -3.23436 -2.61779 0
M  V30 2569 H 244.566 -3.97322 -3.78717 0
M  V30 2570 H 244.827 -2.23637 -3.81365 0
M  V30 2571 N 243.887 0.651787 -1.4349 0
M  V30 2572 C 244.797 1.79368 -1.5121 0
M  V30 2573 C 245.813 1.69361 -0.399093 0
M  V30 2574 O 246.989 1.90505 -0.653431 0
M  V30 2575 C 244.054 3.15653 -1.43401 0
M  V30 2576 C 243.115 3.37446 -2.65384 0
M  V30 2577 C 242.348 4.67229 -2.57939 0
M  V30 2578 O 242.571 5.46676 -1.62792 0
M  V30 2579 O 241.505 4.90773 -3.48462 0
M  V30 2580 H 245.331 1.7581 -2.47638 0
M  V30 2581 H 242.916 0.810447 -1.25507 0
M  V30 2582 H 244.798 3.96935 -1.41494 0
M  V30 2583 H 243.473 3.19798 -0.501085 0
M  V30 2584 H 242.38 2.55923 -2.72863 0
M  V30 2585 H 243.713 3.38148 -3.57654 0
M  V30 2586 N 245.365 1.30045 0.890287 0
M  V30 2587 C 246.642 1.09227 1.62262 0
M  V30 2588 C 247.022 -0.360305 2.08002 0
M  V30 2589 O 246.37 -1.35084 1.84295 0
M  V30 2590 C 246.58 2.08835 2.79623 0
M  V30 2591 C 247.928 2.40266 3.50082 0
M  V30 2592 O 248.952 2.07104 2.89804 0
M  V30 2593 O 247.811 2.96967 4.58773 0
M  V30 2594 H 244.905 0.419132 0.712922 0
M  V30 2595 H 247.451 1.41451 0.937529 0
M  V30 2596 H 246.223 3.06633 2.43089 0
M  V30 2597 H 245.846 1.77397 3.55832 0
M  V30 2598 N 246.843 -1.10192 1.12674 0
M  V30 2599 C 248.092 -1.81573 0.8783 0
M  V30 2600 C 248.405 -1.86249 -0.597557 0
M  V30 2601 O 249.611 -2.5386 -0.962681 0
M  V30 2602 C 248.067 -3.26149 1.52167 0
M  V30 2603 C 247.675 -3.29763 3.03249 0
M  V30 2604 C 249.419 -4.0234 1.3536 0
M  V30 2605 C 247.326 -4.68815 3.60508 0
M  V30 2606 H 246.256 -0.680394 0.324931 0
M  V30 2607 H 248.907 -1.23902 1.35353 0
M  V30 2608 H 247.289 -3.83832 0.974104 0
M  V30 2609 H 248.463 -2.8189 3.6452 0
M  V30 2610 H 246.778 -2.67059 3.19481 0
M  V30 2611 H 249.375 -5.05058 1.75559 0
M  V30 2612 H 249.718 -4.15235 0.297554 0
M  V30 2613 H 250.251 -3.51079 1.87052 0
M  V30 2614 H 246.99 -4.61121 4.65884 0
M  V30 2615 H 246.51 -5.17045 3.04014 0
M  V30 2616 H 248.189 -5.37785 3.59717 0
M  V30 2617 N 248.321 -0.919034 -1.28029 0
M  V30 2618 C 249.551 -0.570143 -1.98577 0
M  V30 2619 C 249.959 0.854172 -1.68821 0
M  V30 2620 O 249.302 1.57807 -0.940351 0
M  V30 2621 C 249.364 -0.705734 -3.52505 0
M  V30 2622 C 249.028 -2.10057 -4.05863 0
M  V30 2623 C 250.025 -3.07385 -4.19298 0
M  V30 2624 C 247.71 -2.41517 -4.40426 0
M  V30 2625 C 249.704 -4.34287 -4.66555 0
M  V30 2626 C 247.391 -3.68657 -4.87376 0
M  V30 2627 C 248.389 -4.64856 -5.00398 0
M  V30 2628 O 248.077 -5.89735 -5.46322 0
M  V30 2629 H 247.809 -0.215592 -0.6407 0
M  V30 2630 H 250.363 -1.23583 -1.64062 0
M  V30 2631 H 248.593 0.0170414 -3.86696 0
M  V30 2632 H 250.282 -0.363172 -4.04272 0
M  V30 2633 H 251.048 -2.84398 -3.92865 0
M  V30 2634 H 246.927 -1.67389 -4.29537 0
M  V30 2635 H 250.471 -5.09377 -4.76635 0
M  V30 2636 H 246.368 -3.91466 -5.13249 0
M  V30 2637 H 247.136 -5.92599 -5.64596 0
M  V30 2638 N 249.799 1.42003 -0.683588 0
M  V30 2639 C 250.731 2.29183 0.0283068 0
M  V30 2640 C 251.744 1.4415 0.756611 0
M  V30 2641 O 252.933 1.67779 0.609306 0
M  V30 2642 C 250.033 3.21765 1.06398 0
M  V30 2643 C 249.206 4.35496 0.407723 0
M  V30 2644 C 248.265 5.08737 1.34437 0
M  V30 2645 O 247.291 5.62948 0.841318 0
M  V30 2646 N 248.493 5.15075 2.67728 0
M  V30 2647 H 251.258 2.9092 -0.720105 0
M  V30 2648 H 248.819 1.53025 -0.528682 0
M  V30 2649 H 250.811 3.6763 1.69204 0
M  V30 2650 H 249.381 2.61418 1.71404 0
M  V30 2651 H 248.601 3.92165 -0.400012 0
M  V30 2652 H 249.889 5.08776 -0.0490956 0
M  V30 2653 H 249.287 4.72457 3.11129 0
M  V30 2654 H 247.844 5.64556 3.2576 0
M  V30 2655 N 251.277 0.427512 1.51691 0
M  V30 2656 C 252.505 -0.141191 2.06418 0
M  V30 2657 C 252.92 -1.37303 1.29589 0
M  V30 2658 O 252.277 -1.79059 0.352732 0
M  V30 2659 C 252.328 -0.473266 3.58389 0
M  V30 2660 O 252.049 0.709673 4.32314 0
M  V30 2661 C 253.55 -1.09371 4.29596 0
M  V30 2662 H 250.77 -0.0122747 0.670888 0
M  V30 2663 H 253.314 0.603764 1.95384 0
M  V30 2664 H 251.469 -1.16812 3.69369 0
M  V30 2665 H 251.883 0.42807 5.2275 0
M  V30 2666 H 253.357 -1.27613 5.37046 0
M  V30 2667 H 253.834 -2.072 3.87253 0
M  V30 2668 H 254.44 -0.43853 4.23033 0
M  V30 2669 N 252.755 -1.56801 0.158532 0
M  V30 2670 C 254.002 -1.9649 -0.489679 0
M  V30 2671 C 254.33 -1.04394 -1.6411 0
M  V30 2672 O 253.585 -0.0754401 -1.95555 0
M  V30 2673 C 253.884 -3.4235 -1.02623 0
M  V30 2674 C 253.55 -4.50899 0.00794526 0
M  V30 2675 C 252.212 -4.80312 0.292207 0
M  V30 2676 C 254.564 -5.16333 0.710584 0
M  V30 2677 C 251.892 -5.72461 1.28472 0
M  V30 2678 C 254.244 -6.09553 1.69199 0
M  V30 2679 C 252.908 -6.37339 1.98383 0
M  V30 2680 H 252.178 -0.719009 -0.179186 0
M  V30 2681 H 254.825 -1.8989 0.247798 0
M  V30 2682 H 253.13 -3.45838 -1.84128 0
M  V30 2683 H 254.827 -3.70393 -1.53656 0
M  V30 2684 H 251.417 -4.28015 -0.22379 0
M  V30 2685 H 255.601 -4.93732 0.504174 0
M  V30 2686 H 250.857 -5.92278 1.51714 0
M  V30 2687 H 255.031 -6.59327 2.24189 0
M  V30 2688 H 252.658 -7.08546 2.7544 0
M  V30 2689 N 254.233 0.115231 -1.57178 0
M  V30 2690 C 255.196 1.12526 -1.99676 0
M  V30 2691 C 256.196 1.34095 -0.88742 0
M  V30 2692 O 257.386 1.30548 -1.15337 0
M  V30 2693 C 254.518 2.4789 -2.34015 0
M  V30 2694 H 255.711 0.759912 -2.90113 0
M  V30 2695 H 253.264 0.359648 -1.52106 0
M  V30 2696 H 253.999 2.89339 -1.4647 0
M  V30 2697 H 253.784 2.33588 -3.14927 0
M  V30 2698 H 255.274 3.20575 -2.67622 0
M  V30 2699 N 255.711 1.52812 0.385517 0
M  V30 2700 C 257.127 1.4214 0.725829 0
M  V30 2701 C 257.327 0.544589 1.94001 0
M  V30 2702 O 256.383 0.0193693 2.52493 0
M  V30 2703 C 257.696 2.85042 0.957668 0
M  V30 2704 C 259.244 2.94543 1.05892 0
M  V30 2705 C 259.719 4.38464 1.32337 0
M  V30 2706 N 261.21 4.41804 1.39151 0
M  V30 2707 C 261.945 5.5025 1.61285 0
M  V30 2708 N 261.441 6.68775 1.80866 0
M  V30 2709 N 263.234 5.37798 1.63492 0
M  V30 2710 H 255.385 2.08338 -0.413383 0
M  V30 2711 H 257.648 0.940016 -0.122775 0
M  V30 2712 H 257.354 3.51431 0.137568 0
M  V30 2713 H 257.228 3.27505 1.87137 0
M  V30 2714 H 259.615 2.28321 1.86959 0
M  V30 2715 H 259.696 2.55504 0.123057 0
M  V30 2716 H 259.34 5.05254 0.517793 0
M  V30 2717 H 259.27 4.75059 2.27214 0
M  V30 2718 H 261.761 3.56377 1.25713 0
M  V30 2719 H 262.074 7.47197 1.97271 0
M  V30 2720 H 260.419 6.71797 1.78083 0
M  V30 2721 H 263.61 4.44171 1.47749 0
M  V30 2722 H 263.783 6.22382 1.80402 0
M  V30 2723 N 257.189 -0.644168 1.43834 0
M  V30 2724 C 258.417 -1.43147 1.49387 0
M  V30 2725 C 258.832 -1.88452 0.114583 0
M  V30 2726 O 258.189 -1.60047 -0.876989 0
M  V30 2727 C 258.24 -2.66046 2.44748 0
M  V30 2728 O 257.961 -2.22633 3.77314 0
M  V30 2729 C 259.462 -3.59311 2.59635 0
M  V30 2730 H 256.682 -0.439447 0.507077 0
M  V30 2731 H 259.226 -0.78895 1.88669 0
M  V30 2732 H 257.381 -3.26418 2.08638 0
M  V30 2733 H 257.795 -3.02216 4.28679 0
M  V30 2734 H 259.269 -4.42187 3.30416 0
M  V30 2735 H 259.746 -4.07259 1.64427 0
M  V30 2736 H 260.352 -3.04816 2.96593 0
M  V30 2737 N 258.668 -1.30515 -0.883378 0
M  V30 2738 C 259.917 -1.18795 -1.63005 0
M  V30 2739 C 260.23 0.255923 -1.93919 0
M  V30 2740 O 261.436 0.494654 -2.66956 0
M  V30 2741 C 259.892 -2.07878 -2.93794 0
M  V30 2742 C 259.5 -3.57184 -2.70414 0
M  V30 2743 C 261.244 -2.04924 -3.71761 0
M  V30 2744 C 259.151 -4.38317 -3.97029 0
M  V30 2745 H 258.081 -0.441031 -0.611562 0
M  V30 2746 H 260.732 -1.55275 -0.977854 0
M  V30 2747 H 259.114 -1.64283 -3.60315 0
M  V30 2748 H 260.288 -4.08937 -2.12384 0
M  V30 2749 H 258.603 -3.61976 -2.0582 0
M  V30 2750 H 261.2 -2.62792 -4.65665 0
M  V30 2751 H 261.543 -1.0331 -4.03277 0
M  V30 2752 H 262.076 -2.46649 -3.12104 0
M  V30 2753 H 258.815 -5.40632 -3.70671 0
M  V30 2754 H 258.335 -3.91326 -4.54559 0
M  V30 2755 H 260.014 -4.49834 -4.65036 0
M  V30 2756 N 260.146 1.09593 -1.13257 0
M  V30 2757 C 261.056 2.19739 -0.821691 0
M  V30 2758 C 262.072 1.72926 0.19302 0
M  V30 2759 O 263.248 2.01385 0.0244895 0
M  V30 2760 C 260.313 3.45482 -0.290333 0
M  V30 2761 C 259.374 4.06985 -1.36607 0
M  V30 2762 C 258.607 5.26726 -0.859975 0
M  V30 2763 O 258.83 5.69594 0.303082 0
M  V30 2764 O 257.764 5.7931 -1.63351 0
M  V30 2765 H 261.59 2.48781 -1.74189 0
M  V30 2766 H 259.175 1.18496 -0.909894 0
M  V30 2767 H 261.057 4.214 0.000674022 0
M  V30 2768 H 259.732 3.18047 0.602306 0
M  V30 2769 H 258.639 3.32712 -1.71037 0
M  V30 2770 H 259.972 4.38643 -2.23279 0
M  V30 2771 N 261.624 0.925811 1.2754 0
M  V30 2772 C 262.849 0.580924 1.99098 0
M  V30 2773 C 263.274 -0.833555 1.68622 0
M  V30 2774 O 262.632 -1.55903 0.925422 0
M  V30 2775 C 262.68 0.811186 3.51358 0
M  V30 2776 O 261.784 -0.124129 4.12213 0
M  V30 2777 H 261.125 0.223873 0.625122 0
M  V30 2778 H 263.655 1.24455 1.62395 0
M  V30 2779 H 263.665 0.72601 4.01489 0
M  V30 2780 H 262.34 1.84227 3.72872 0
M  V30 2781 H 260.917 0.0108006 3.72898 0
M  V30 2782 N 263.102 -1.41638 0.69111 0
M  V30 2783 C 264.348 -2.01598 0.220519 0
M  V30 2784 C 264.681 -1.54594 -1.17535 0
M  V30 2785 O 263.956 -0.755177 -1.79241 0
M  V30 2786 C 264.239 -3.59062 0.273243 0
M  V30 2787 C 264.092 -4.16203 1.70573 0
M  V30 2788 C 265.411 -4.38546 -0.369457 0
M  V30 2789 H 262.53 -0.732468 0.0816045 0
M  V30 2790 H 265.172 -1.68445 0.878986 0
M  V30 2791 H 263.322 -3.87435 -0.287411 0
M  V30 2792 H 264.994 -3.98722 2.31989 0
M  V30 2793 H 263.237 -3.71414 2.2413 0
M  V30 2794 H 263.908 -5.25358 1.69419 0
M  V30 2795 H 266.384 -4.1596 0.107977 0
M  V30 2796 H 265.26 -5.48069 -0.302002 0
M  V30 2797 H 265.521 -4.17662 -1.44951 0
M  V30 2798 N 264.58 -0.43555 -1.51462 0
M  V30 2799 C 265.528 0.391205 -2.29287 0
M  V30 2800 C 266.522 1.02247 -1.35062 0
M  V30 2801 O 267.728 0.957646 -1.52411 0
M  V30 2802 H 264.103 0.144968 -0.737895 0
M  V30 2803 H 266.074 -0.286051 -2.97026 0
M  V30 2804 C 264.823 1.48096 -3.14583 0
M  V30 2805 H 264.146 1.00457 -3.86973 0
M  V30 2806 H 265.586 2.03273 -3.72097 0
M  V30 2807 C 264.045 2.46321 -2.29843 0
M  V30 2808 O 264.575 3.50815 -1.95682 0
M  V30 2809 N 262.781 2.17166 -1.931 0
M  V30 2810 H 262.328 1.32218 -2.21079 0
M  V30 2811 H 262.286 2.83127 -1.36698 0
M  V30 2812 N 266.058 1.56714 -0.166846 0
M  V30 2813 C 267.304 1.97039 0.479962 0
M  V30 2814 C 267.637 1.05264 1.63197 0
M  V30 2815 O 266.912 0.0988833 1.94248 0
M  V30 2816 C 267.195 3.46867 0.967212 0
M  V30 2817 C 267.048 4.49421 -0.18466 0
M  V30 2818 C 268.367 3.9968 1.84238 0
M  V30 2819 H 265.486 0.71641 0.172992 0
M  V30 2820 H 268.128 1.8832 -0.252079 0
M  V30 2821 H 266.278 3.54428 1.59101 0
M  V30 2822 H 267.95 4.53924 -0.821621 0
M  V30 2823 H 266.193 4.25573 -0.840837 0
M  V30 2824 H 266.864 5.51644 0.198317 0
M  V30 2825 H 269.34 3.94723 1.31655 0
M  V30 2826 H 268.216 5.04941 2.15234 0
M  V30 2827 H 268.477 3.43226 2.78654 0
M  V30 2828 N 267.536 -0.106894 1.57237 0
M  V30 2829 C 268.785 -0.811163 1.8467 0
M  V30 2830 C 269.098 -1.80469 0.754342 0
M  V30 2831 O 270.304 -2.55601 0.915439 0
M  V30 2832 C 268.76 -1.49337 3.27454 0
M  V30 2833 C 268.368 -0.540217 4.44731 0
M  V30 2834 C 270.112 -2.18206 3.64124 0
M  V30 2835 C 268.019 -1.22634 5.78545 0
M  V30 2836 H 266.949 -0.306679 0.688813 0
M  V30 2837 H 269.6 -0.0639887 1.83388 0
M  V30 2838 H 267.982 -2.2876 3.23241 0
M  V30 2839 H 269.156 0.221659 4.60267 0
M  V30 2840 H 267.471 0.042146 4.16379 0
M  V30 2841 H 270.068 -2.70253 4.61376 0
M  V30 2842 H 270.411 -2.96562 2.92158 0
M  V30 2843 H 270.944 -1.45658 3.70174 0
M  V30 2844 H 267.683 -0.483832 6.53712 0
M  V30 2845 H 267.203 -1.95993 5.66874 0
M  V30 2846 H 268.882 -1.75615 6.2271 0
M  V30 2847 N 269.014 -1.53014 -0.377408 0
M  V30 2848 C 270.263 -1.67845 -1.11853 0
M  V30 2849 C 270.576 -0.430625 -1.90801 0
M  V30 2850 O 271.782 -0.459261 -2.67587 0
M  V30 2851 C 270.238 -2.96668 -2.03756 0
M  V30 2852 C 269.846 -4.28671 -1.30175 0
M  V30 2853 C 271.59 -3.20865 -2.77932 0
M  V30 2854 C 269.497 -5.48591 -2.20911 0
M  V30 2855 H 268.427 -0.625343 -0.421263 0
M  V30 2856 H 271.078 -1.79514 -0.380409 0
M  V30 2857 H 269.46 -2.78773 -2.8125 0
M  V30 2858 H 270.634 -4.57157 -0.578259 0
M  V30 2859 H 268.949 -4.10825 -0.679108 0
M  V30 2860 H 271.546 -4.07642 -3.46024 0
M  V30 2861 H 271.889 -2.36424 -3.4265 0
M  V30 2862 H 272.422 -3.39379 -2.07525 0
M  V30 2863 H 269.161 -6.35474 -1.6079 0
M  V30 2864 H 268.681 -5.244 -2.91144 0
M  V30 2865 H 270.36 -5.8292 -2.80736 0
M  V30 2866 N 270.492 0.636531 -1.44174 0
M  V30 2867 C 271.717 1.42847 -1.50364 0
M  V30 2868 C 272.142 1.87665 -0.127867 0
M  V30 2869 O 271.5 1.58408 0.88185 0
M  V30 2870 C 271.548 2.62854 -2.4686 0
M  V30 2871 O 270.652 3.62501 -1.9664 0
M  V30 2872 H 269.993 0.427642 -0.507955 0
M  V30 2873 H 272.523 0.777422 -1.89255 0
M  V30 2874 H 272.533 3.10465 -2.64718 0
M  V30 2875 H 271.208 2.29578 -3.46795 0
M  V30 2876 H 269.785 3.21735 -1.88523 0
M  V30 2877 N 271.97 1.30982 0.876444 0
M  V30 2878 C 273.198 1.23242 1.6619 0
M  V30 2879 C 273.613 -0.203345 1.87702 0
M  V30 2880 O 272.97 -1.13317 1.43057 0
M  V30 2881 C 273.021 1.96623 3.03351 0
M  V30 2882 O 272.742 3.34594 2.82804 0
M  V30 2883 C 274.243 1.95644 3.97792 0
M  V30 2884 H 271.463 0.426126 0.518322 0
M  V30 2885 H 274.007 1.7275 1.09442 0
M  V30 2886 H 272.162 1.50892 3.56806 0
M  V30 2887 H 272.576 3.71873 3.69879 0
M  V30 2888 H 274.05 2.51511 4.91372 0
M  V30 2889 H 274.527 0.937395 4.2908 0
M  V30 2890 H 275.133 2.41225 3.50272 0
M  V30 2891 N 273.449 -1.08991 1.13837 0
M  V30 2892 C 274.679 -1.84743 0.924859 0
M  V30 2893 C 275.087 -1.81629 -0.529874 0
M  V30 2894 O 274.43 -1.21397 -1.37872 0
M  V30 2895 C 274.492 -3.33568 1.34061 0
M  V30 2896 C 274.156 -3.60425 2.80968 0
M  V30 2897 C 275.153 -3.55771 3.79108 0
M  V30 2898 C 272.838 -3.88627 3.18236 0
M  V30 2899 C 274.832 -3.78939 5.12527 0
M  V30 2900 C 272.519 -4.11449 4.51833 0
M  V30 2901 C 273.517 -4.06598 5.48787 0
M  V30 2902 O 273.205 -4.28826 6.79973 0
M  V30 2903 H 272.937 -0.590258 0.329502 0
M  V30 2904 H 275.491 -1.38598 1.51591 0
M  V30 2905 H 273.721 -3.80442 0.692853 0
M  V30 2906 H 275.41 -3.90743 1.09886 0
M  V30 2907 H 276.176 -3.34005 3.51661 0
M  V30 2908 H 272.055 -3.91526 2.43369 0
M  V30 2909 H 275.599 -3.75068 5.88192 0
M  V30 2910 H 271.496 -4.32698 4.79002 0
M  V30 2911 H 272.264 -4.46264 6.86142 0
M  V30 2912 N 274.927 -0.932562 -1.27047 0
M  V30 2913 C 276.155 -0.592031 -1.98249 0
M  V30 2914 C 276.57 0.831062 -1.69525 0
M  V30 2915 O 275.927 1.55299 -0.958561 0
M  V30 2916 C 275.978 -0.814279 -3.5221 0
M  V30 2917 O 275.699 -2.18139 -3.7993 0
M  V30 2918 C 277.2 -0.483121 -4.4066 0
M  V30 2919 H 274.42 -0.223896 -0.632544 0
M  V30 2920 H 276.964 -1.25091 -1.61779 0
M  V30 2921 H 275.119 -0.20213 -3.86872 0
M  V30 2922 H 275.533 -2.235 -4.74498 0
M  V30 2923 H 277.007 -0.689298 -5.47679 0
M  V30 2924 H 277.484 0.581546 -4.35333 0
M  V30 2925 H 278.09 -1.07362 -4.11526 0
M  V30 2926 N 276.405 1.4127 -0.698611 0
M  V30 2927 C 277.682 1.94955 -0.158762 0
M  V30 2928 C 278.062 1.63781 1.33188 0
M  V30 2929 O 277.41 0.946423 2.07979 0
M  V30 2930 C 277.62 3.46044 -0.453309 0
M  V30 2931 C 278.968 4.22872 -0.382707 0
M  V30 2932 O 279.992 3.54076 -0.388396 0
M  V30 2933 O 278.851 5.45407 -0.345463 0
M  V30 2934 H 275.945 0.82683 -0.0167505 0
M  V30 2935 H 278.491 1.50971 -0.77498 0
M  V30 2936 H 277.263 3.62028 -1.48498 0
M  V30 2937 H 276.886 3.97128 0.19373 0
M  V30 2938 N 277.883 0.443576 1.51229 0
M  V30 2939 C 278.83 -0.364716 2.279 0
M  V30 2940 C 279.8 -1.0114 1.31757 0
M  V30 2941 O 280.985 -1.02912 1.60667 0
M  V30 2942 C 278.125 -1.45644 3.12861 0
M  V30 2943 C 277.238 -0.827269 4.24005 0
M  V30 2944 C 276.373 -1.89456 4.96266 0
M  V30 2945 C 275.412 -1.24416 5.99322 0
M  V30 2946 N 274.549 -2.25309 6.64966 0
M  V30 2947 H 279.389 0.295464 2.96532 0
M  V30 2948 H 276.926 0.157554 1.46254 0
M  V30 2949 H 278.884 -2.10076 3.6045 0
M  V30 2950 H 277.514 -2.08616 2.46331 0
M  V30 2951 H 276.566 -0.0710839 3.80334 0
M  V30 2952 H 277.878 -0.312481 4.9782 0
M  V30 2953 H 277.032 -2.61535 5.47434 0
M  V30 2954 H 275.771 -2.4431 4.22095 0
M  V30 2955 H 274.776 -0.508868 5.4744 0
M  V30 2956 H 276.001 -0.702882 6.75453 0
M  V30 2957 H 273.947 -2.79231 5.93604 0
M  V30 2958 H 273.864 -1.78739 7.34567 0
M  V30 2959 H 275.132 -2.96853 7.20763 0
M  V30 2960 N 279.361 -1.56624 0.175154 0
M  V30 2961 C 280.291 -2.21155 -0.749195 0
M  V30 2962 C 281.272 -1.16836 -1.23626 0
M  V30 2963 O 282.457 -1.45277 -1.28873 0
M  V30 2964 C 279.587 -2.8553 -1.97711 0
M  V30 2965 C 278.541 -3.95921 -1.62575 0
M  V30 2966 C 277.867 -4.47365 -2.92864 0
M  V30 2967 C 279.167 -5.15323 -0.850838 0
M  V30 2968 H 280.861 -2.98653 -0.211295 0
M  V30 2969 H 278.407 -1.43651 -0.100188 0
M  V30 2970 H 280.36 -3.2935 -2.62881 0
M  V30 2971 H 279.084 -2.05406 -2.53921 0
M  V30 2972 H 277.743 -3.52762 -0.997719 0
M  V30 2973 H 277.391 -3.64027 -3.47122 0
M  V30 2974 H 277.091 -5.21839 -2.70106 0
M  V30 2975 H 278.615 -4.93873 -3.59056 0
M  V30 2976 H 280.029 -5.55812 -1.40521 0
M  V30 2977 H 278.426 -5.95739 -0.722154 0
M  V30 2978 H 279.496 -4.84661 0.152082 0
M  V30 2979 N 280.839 0.0985539 -1.57292 0
M  V30 2980 C 281.772 1.15082 -1.97057 0
M  V30 2981 C 282.75 1.39025 -0.843255 0
M  V30 2982 O 283.934 1.52842 -1.10325 0
M  V30 2983 C 281.061 2.50069 -2.28437 0
M  V30 2984 C 280.107 2.42428 -3.509 0
M  V30 2985 S 280.94 1.84414 -5.02744 0
M  V30 2986 C 282.096 3.21032 -5.37298 0
M  V30 2987 H 282.329 0.811815 -2.86002 0
M  V30 2988 H 279.862 0.306102 -1.51335 0
M  V30 2989 H 281.82 3.27729 -2.47192 0
M  V30 2990 H 280.481 2.8114 -1.40069 0
M  V30 2991 H 279.674 3.41911 -3.70288 0
M  V30 2992 H 279.276 1.72896 -3.31637 0
M  V30 2993 H 281.568 4.17297 -5.33731 0
M  V30 2994 H 282.511 3.06452 -6.38352 0
M  V30 2995 H 282.919 3.20404 -4.64759 0
M  V30 2996 N 282.317 1.53212 0.369288 0
M  V30 2997 C 283.565 1.68881 1.11012 0
M  V30 2998 C 283.886 0.441285 1.89941 0
M  V30 2999 O 283.156 -0.544623 1.88177 0
M  V30 3000 H 281.736 0.622569 0.412816 0
M  V30 3001 H 284.398 1.90391 0.416802 0
M  V30 3002 H 283.494 2.54822 1.80201 0
M  V30 3003 N 283.795 -0.628877 1.44509 0
M  V30 3004 C 285.072 -1.38733 1.37886 0
M  V30 3005 C 285.452 -2.11065 0.0387008 0
M  V30 3006 O 284.8 -2.06476 -0.97878 0
M  V30 3007 C 285.01 -2.35188 2.57852 0
M  V30 3008 C 286.358 -2.9845 3.02014 0
M  V30 3009 O 287.382 -2.45513 2.58073 0
M  V30 3010 O 286.241 -3.94487 3.78209 0
M  V30 3011 H 283.335 -0.621015 0.54614 0
M  V30 3012 H 285.881 -0.653744 1.56602 0
M  V30 3013 H 284.653 -1.80855 3.46998 0
M  V30 3014 H 284.276 -3.1596 2.4136 0
M  V30 3015 N 285.273 -1.31445 -0.869486 0
M  V30 3016 C 286.522 -1.20517 -1.61736 0
M  V30 3017 C 286.835 0.235341 -1.94179 0
M  V30 3018 O 288.041 0.466312 -2.67465 0
M  V30 3019 C 286.497 -2.10982 -2.91573 0
M  V30 3020 C 286.105 -3.60032 -2.66611 0
M  V30 3021 C 287.849 -2.08856 -3.69567 0
M  V30 3022 C 285.756 -4.42503 -3.92358 0
M  V30 3023 H 284.686 -0.447493 -0.606849 0
M  V30 3024 H 287.337 -1.56303 -0.96133 0
M  V30 3025 H 285.719 -1.68095 -3.58553 0
M  V30 3026 H 286.893 -4.11167 -2.08035 0
M  V30 3027 H 285.208 -3.64139 -2.0197 0
M  V30 3028 H 287.805 -2.67716 -4.62852 0
M  V30 3029 H 288.148 -1.07582 -4.02159 0
M  V30 3030 H 288.681 -2.49945 -3.09471 0
M  V30 3031 H 285.42 -5.44533 -3.64916 0
M  V30 3032 H 284.94 -3.96125 -4.50383 0
M  V30 3033 H 286.619 -4.54741 -4.60238 0
M  V30 3034 N 286.751 1.08385 -1.14413 0
M  V30 3035 C 287.683 2.1519 -0.789036 0
M  V30 3036 C 288.696 1.61638 0.19417 0
M  V30 3037 O 289.885 1.78479 -0.0275711 0
M  V30 3038 C 286.985 3.38565 -0.15058 0
M  V30 3039 C 286.158 4.21501 -1.16857 0
M  V30 3040 C 285.217 5.23277 -0.553832 0
M  V30 3041 O 284.243 5.56041 -1.21686 0
M  V30 3042 N 285.445 5.76629 0.669296 0
M  V30 3043 H 288.21 2.46257 -1.70814 0
M  V30 3044 H 285.771 1.24198 -1.03858 0
M  V30 3045 H 287.763 4.03777 0.273181 0
M  V30 3046 H 286.333 3.05299 0.671667 0
M  V30 3047 H 285.553 3.52265 -1.76926 0
M  V30 3048 H 286.841 4.73731 -1.85624 0
M  V30 3049 H 286.239 5.52243 1.22654 0
M  V30 3050 H 284.796 6.43521 1.03556 0
M  V30 3051 N 288.23 0.939286 1.26551 0
M  V30 3052 C 289.476 0.586715 1.94128 0
M  V30 3053 C 289.809 -0.8717 1.73537 0
M  V30 3054 O 289.084 -1.62339 1.07127 0
M  V30 3055 C 289.367 0.927497 3.4795 0
M  V30 3056 C 289.22 2.44052 3.77834 0
M  V30 3057 C 290.539 0.441569 4.37879 0
M  V30 3058 H 287.658 0.21463 0.705055 0
M  V30 3059 H 290.3 1.17316 1.49455 0
M  V30 3060 H 288.45 0.428431 3.8613 0
M  V30 3061 H 290.122 3.01216 3.4938 0
M  V30 3062 H 288.365 2.8848 3.23978 0
M  V30 3063 H 289.036 2.62947 4.85348 0
M  V30 3064 H 291.512 0.869448 4.06915 0
M  V30 3065 H 290.388 0.708856 5.44304 0
M  V30 3066 H 290.649 -0.658467 4.37169 0
M  V30 3067 N 289.708 -1.40897 0.706093 0
M  V30 3068 C 290.938 -2.05075 0.250523 0
M  V30 3069 C 291.346 -1.53275 -1.10921 0
M  V30 3070 O 290.689 -0.680281 -1.7064 0
M  V30 3071 C 290.751 -3.59219 0.142178 0
M  V30 3072 C 290.415 -4.33864 1.43566 0
M  V30 3073 C 291.412 -4.62448 2.37566 0
M  V30 3074 C 289.097 -4.72946 1.69195 0
M  V30 3075 C 291.091 -5.29088 3.5545 0
M  V30 3076 C 288.778 -5.3932 2.87362 0
M  V30 3077 C 289.776 -5.6732 3.80312 0
M  V30 3078 O 289.464 -6.32325 4.96408 0
M  V30 3079 H 289.196 -0.666645 0.112074 0
M  V30 3080 H 291.75 -1.81467 0.962239 0
M  V30 3081 H 289.98 -3.81609 -0.6254 0
M  V30 3082 H 291.669 -4.0495 -0.277584 0
M  V30 3083 H 292.435 -4.32727 2.19027 0
M  V30 3084 H 288.314 -4.50527 0.977042 0
M  V30 3085 H 291.858 -5.50859 4.28018 0
M  V30 3086 H 287.755 -5.68461 3.05814 0
M  V30 3087 H 288.523 -6.50821 4.9636 0
M  V30 3088 N 291.186 -0.45159 -1.50991 0
M  V30 3089 C 292.597 0.00818571 -1.86698 0
M  V30 3090 C 292.948 1.40661 -1.3678 0
M  V30 3091 O 292.073 2.0391 -0.724546 0
M  V30 3092 C 292.668 0.0216303 -3.38793 0
M  V30 3093 C 291.227 0.425865 -3.73983 0
M  V30 3094 C 290.374 -0.372163 -2.74791 0
M  V30 3095 H 293.325 -0.666785 -1.44013 0
M  V30 3096 H 293.346 0.828078 -3.7138 0
M  V30 3097 H 292.858 -0.996288 -3.75094 0
M  V30 3098 H 290.959 1.44886 -3.43277 0
M  V30 3099 H 291.072 0.140761 -4.78893 0
M  V30 3100 H 289.436 0.171498 -2.54122 0
M  V30 3101 H 290.219 -1.38922 -3.13935 0
M  V30 3102 N 292.664 1.56529 -0.183458 0
M  V30 3103 C 293.574 2.22144 0.754272 0
M  V30 3104 C 294.59 1.21684 1.24374 0
M  V30 3105 O 295.766 1.54385 1.29333 0
M  V30 3106 C 292.831 2.85884 1.96141 0
M  V30 3107 C 291.892 4.01579 1.51765 0
M  V30 3108 C 291.125 4.6227 2.66725 0
M  V30 3109 O 291.348 4.21865 3.83909 0
M  V30 3110 O 290.282 5.51936 2.40104 0
M  V30 3111 H 294.108 3.02861 0.225527 0
M  V30 3112 H 291.693 1.49331 0.0453032 0
M  V30 3113 H 293.575 3.26253 2.66715 0
M  V30 3114 H 292.25 2.08154 2.47899 0
M  V30 3115 H 291.157 3.65856 0.781049 0
M  V30 3116 H 292.49 4.80938 1.04686 0
M  V30 3117 N 294.142 -0.090211 1.57342 0
M  V30 3118 C 295.089 -1.10909 2.02405 0
M  V30 3119 C 296.059 -1.39523 0.901252 0
M  V30 3120 O 297.244 -1.50903 1.1676 0
M  V30 3121 C 294.384 -2.42277 2.45755 0
M  V30 3122 C 293.497 -2.20352 3.71576 0
M  V30 3123 C 292.632 -3.45154 4.03785 0
M  V30 3124 C 291.671 -3.18512 5.22701 0
M  V30 3125 N 290.808 -4.35593 5.50639 0
M  V30 3126 H 295.648 -0.71782 2.89225 0
M  V30 3127 H 293.185 -0.342901 1.43048 0
M  V30 3128 H 295.143 -3.18951 2.68935 0
M  V30 3129 H 293.773 -2.79242 1.61938 0
M  V30 3130 H 292.825 -1.34458 3.55844 0
M  V30 3131 H 294.137 -1.96661 4.58395 0
M  V30 3132 H 293.291 -4.30233 4.27767 0
M  V30 3133 H 292.03 -3.71904 3.15498 0
M  V30 3134 H 291.035 -2.31827 4.98534 0
M  V30 3135 H 292.26 -2.93103 6.12591 0
M  V30 3136 H 290.206 -4.6241 4.6531 0
M  V30 3137 H 290.123 -4.1511 6.31838 0
M  V30 3138 H 291.391 -5.21723 5.7916 0
M  V30 3139 N 295.62 -1.53406 -0.361157 0
M  V30 3140 C 296.868 -1.69467 -1.10115 0
M  V30 3141 C 297.189 -0.451352 -1.89705 0
M  V30 3142 O 296.459 0.534636 -1.88463 0
M  V30 3143 H 295.039 -0.624749 -0.409508 0
M  V30 3144 H 297.701 -1.90609 -0.406699 0
M  V30 3145 H 296.797 -2.55774 -1.78847 0
M  V30 3146 N 297.098 0.621204 -1.44841 0
M  V30 3147 C 298.326 1.40752 -1.51646 0
M  V30 3148 C 298.741 1.88246 -0.144549 0
M  V30 3149 O 298.098 1.61422 0.851416 0
M  V30 3150 C 298.149 2.62119 -2.4895 0
M  V30 3151 O 297.87 2.16602 -3.80808 0
M  V30 3152 C 299.371 3.55135 -2.65319 0
M  V30 3153 H 296.591 0.431325 -0.514004 0
M  V30 3154 H 299.135 0.758835 -1.899 0
M  V30 3155 H 297.29 3.23058 -2.13805 0
M  V30 3156 H 297.704 2.95358 -4.33433 0
M  V30 3157 H 299.178 4.36874 -3.37409 0
M  V30 3158 H 299.655 4.04592 -1.70886 0
M  V30 3159 H 300.261 3.00058 -3.01405 0
M  V30 3160 N 298.576 1.31904 0.862503 0
M  V30 3161 C 299.822 1.22197 1.61851 0
M  V30 3162 C 300.155 -0.217641 1.92977 0
M  V30 3163 O 299.43 -1.15264 1.56666 0
M  V30 3164 C 299.713 2.07378 2.94391 0
M  V30 3165 C 299.566 3.59678 2.70096 0
M  V30 3166 C 300.885 1.92891 3.95577 0
M  V30 3167 H 298.004 0.445255 0.587296 0
M  V30 3168 H 300.646 1.6177 0.99651 0
M  V30 3169 H 298.796 1.73758 3.47477 0
M  V30 3170 H 300.468 4.03472 2.23625 0
M  V30 3171 H 298.711 3.82735 2.04197 0
M  V30 3172 H 299.382 4.14595 3.64438 0
M  V30 3173 H 301.858 2.22327 3.51724 0
M  V30 3174 H 300.734 2.54781 4.86187 0
M  V30 3175 H 300.995 0.894315 4.3296 0
M  V30 3176 N 300.054 -1.07777 1.14986 0
M  V30 3177 C 301.279 -1.84558 0.946213 0
M  V30 3178 C 301.704 -1.81323 -0.500362 0
M  V30 3179 O 301.062 -1.20301 -1.35637 0
M  V30 3180 C 301.11 -3.29736 1.45968 0
M  V30 3181 O 300.214 -4.07149 0.65601 0
M  V30 3182 H 299.555 -0.571641 0.33782 0
M  V30 3183 H 302.085 -1.35991 1.52865 0
M  V30 3184 H 302.095 -3.80574 1.47063 0
M  V30 3185 H 300.77 -3.31406 2.51283 0
M  V30 3186 H 299.347 -3.65994 0.714322 0
M  V30 3187 N 301.532 -0.945985 -1.26051 0
M  V30 3188 C 302.779 -0.596118 -1.93527 0
M  V30 3189 C 303.107 0.865559 -1.74179 0
M  V30 3190 O 302.362 1.63524 -1.0751 0
M  V30 3191 C 302.661 -0.890475 -3.46129 0
M  V30 3192 C 302.327 -2.3368 -3.85622 0
M  V30 3193 C 300.989 -2.73216 -3.96114 0
M  V30 3194 C 303.341 -3.27648 -4.05334 0
M  V30 3195 C 300.669 -4.05806 -4.2372 0
M  V30 3196 C 303.021 -4.59841 -4.3443 0
M  V30 3197 C 301.685 -4.99185 -4.43137 0
M  V30 3198 H 300.955 -0.218135 -0.708165 0
M  V30 3199 H 303.602 -1.1934 -1.49768 0
M  V30 3200 H 301.907 -0.210711 -3.91233 0
M  V30 3201 H 303.604 -0.598478 -3.96509 0
M  V30 3202 H 300.194 -2.02015 -3.78005 0
M  V30 3203 H 304.378 -2.98298 -3.96651 0
M  V30 3204 H 299.634 -4.35945 -4.28675 0
M  V30 3205 H 303.808 -5.32641 -4.48628 0
M  V30 3206 H 301.435 -6.01952 -4.64282 0
M  V30 3207 N 303.011 1.40521 -0.713556 0
M  V30 3208 C 304.259 2.00527 -0.251692 0
M  V30 3209 C 304.58 1.56857 1.15848 0
M  V30 3210 O 303.85 0.807127 1.785 0
M  V30 3211 H 302.43 0.741551 -0.0900646 0
M  V30 3212 H 305.092 1.71887 -0.918733 0
M  V30 3213 H 304.188 3.10813 -0.283192 0
M  V30 3214 N 304.489 0.459591 1.5075 0
M  V30 3215 C 305.714 -0.0996819 2.0716 0
M  V30 3216 C 306.139 -1.33761 1.32249 0
M  V30 3217 O 305.497 -1.77551 0.366786 0
M  V30 3218 C 305.545 -0.378226 3.58611 0
M  V30 3219 O 304.649 -1.46081 3.85661 0
M  V30 3220 H 303.99 0.00791392 0.663953 0
M  V30 3221 H 306.52 0.647329 1.9409 0
M  V30 3222 H 306.53 -0.622135 4.03229 0
M  V30 3223 H 305.205 0.526439 4.12555 0
M  V30 3224 H 303.782 -1.20511 3.5289 0
M  V30 3225 N 305.967 -1.56429 0.191757 0
M  V30 3226 C 307.215 -1.97095 -0.447006 0
M  V30 3227 C 307.536 -1.07967 -1.62383 0
M  V30 3228 O 306.806 -0.150248 -1.95323 0
M  V30 3229 H 305.386 -0.727832 -0.168135 0
M  V30 3230 H 308.048 -1.92911 0.27771 0
M  V30 3231 H 307.144 -3.01848 -0.793371 0
M  V30 3232 N 307.445 0.0818655 -1.57387 0
M  V30 3233 C 308.375 1.09885 -2.06028 0
M  V30 3234 C 309.356 1.4098 -0.951774 0
M  V30 3235 O 310.541 1.50781 -1.22387 0
M  V30 3236 C 307.671 2.4151 -2.4958 0
M  V30 3237 C 306.625 2.24792 -3.64215 0
M  V30 3238 C 305.951 3.61712 -3.93787 0
M  V30 3239 C 307.251 1.67749 -4.94629 0
M  V30 3240 H 308.945 0.694128 -2.91243 0
M  V30 3241 H 306.491 0.332448 -1.4011 0
M  V30 3242 H 308.444 3.12939 -2.82219 0
M  V30 3243 H 307.168 2.83943 -1.61381 0
M  V30 3244 H 305.827 1.55807 -3.31843 0
M  V30 3245 H 305.475 4.01697 -3.02735 0
M  V30 3246 H 305.175 3.51368 -4.70971 0
M  V30 3247 H 306.699 4.34587 -4.28913 0
M  V30 3248 H 308.113 2.29032 -5.25564 0
M  V30 3249 H 306.51 1.68128 -5.76067 0
M  V30 3250 H 307.58 0.638059 -4.80684 0
M  V30 3251 N 308.923 1.53595 0.353017 0
M  V30 3252 C 309.855 1.77219 1.45348 0
M  V30 3253 C 310.868 0.65324 1.49119 0
M  V30 3254 O 312.057 0.929775 1.52373 0
M  V30 3255 C 309.157 1.84841 2.84055 0
M  V30 3256 C 308.33 3.14649 3.03833 0
M  V30 3257 C 307.389 3.13351 4.22727 0
M  V30 3258 O 306.415 3.87107 4.17297 0
M  V30 3259 N 307.617 2.35052 5.30783 0
M  V30 3260 H 310.382 2.72178 1.25457 0
M  V30 3261 H 307.943 1.52528 0.542833 0
M  V30 3262 H 309.935 1.81435 3.61751 0
M  V30 3263 H 308.505 0.971114 2.97133 0
M  V30 3264 H 307.725 3.31256 2.13689 0
M  V30 3265 H 309.013 4.00411 3.13925 0
M  V30 3266 H 308.411 1.74663 5.38061 0
M  V30 3267 H 306.968 2.37453 6.07009 0
M  V30 3268 N 310.401 -0.613514 1.45168 0
M  V30 3269 C 311.649 -1.36997 1.48581 0
M  V30 3270 C 311.97 -1.94589 0.126545 0
M  V30 3271 O 311.24 -1.76816 -0.843372 0
M  V30 3272 H 309.82 -0.508558 0.547154 0
M  V30 3273 H 312.482 -0.720853 1.81079 0
M  V30 3274 H 311.578 -2.1924 2.22127 0
M  V30 3275 N 311.879 -1.3236 -0.855495 0
M  V30 3276 C 313.125 -1.24064 -1.61182 0
M  V30 3277 C 313.48 0.195914 -1.914 0
M  V30 3278 O 312.773 1.13345 -1.54478 0
M  V30 3279 C 312.967 -2.03275 -2.93963 0
M  V30 3280 C 312.796 -3.54486 -2.76712 0
M  V30 3281 C 311.566 -4.23824 -2.75139 0
M  V30 3282 C 313.764 -4.49154 -2.50531 0
M  V30 3283 N 311.746 -5.61095 -2.4909 0
M  V30 3284 C 313.117 -5.74195 -2.3388 0
M  V30 3285 C 315.172 -4.3842 -2.35992 0
M  V30 3286 C 313.875 -6.89716 -2.04168 0
M  V30 3287 C 315.901 -5.53739 -2.0767 0
M  V30 3288 C 315.263 -6.77779 -1.9182 0
M  V30 3289 H 311.362 -0.509139 -0.59355 0
M  V30 3290 H 313.946 -1.66715 -1.00569 0
M  V30 3291 H 312.117 -1.6297 -3.52555 0
M  V30 3292 H 313.849 -1.86881 -3.58967 0
M  V30 3293 H 310.604 -3.75934 -2.88047 0
M  V30 3294 H 311.028 -6.33411 -2.38996 0
M  V30 3295 H 315.67 -3.43172 -2.46967 0
M  V30 3296 H 313.388 -7.84977 -1.9193 0
M  V30 3297 H 316.974 -5.4736 -1.97201 0
M  V30 3298 H 315.854 -7.65504 -1.70217 0
M  V30 3299 N 313.357 1.07166 -1.15556 0
M  V30 3300 C 314.32 2.12589 -0.856644 0
M  V30 3301 C 315.32 1.6015 0.14444 0
M  V30 3302 O 316.51 1.7399 -0.0854163 0
M  V30 3303 C 313.642 3.39753 -0.279405 0
M  V30 3304 H 314.835 2.40539 -1.79112 0
M  V30 3305 H 312.388 1.23086 -0.963298 0
M  V30 3306 H 313.123 3.17447 0.663174 0
M  V30 3307 H 312.908 3.79117 -1.00063 0
M  V30 3308 H 314.398 4.17507 -0.0879113 0
M  V30 3309 N 314.835 0.952656 1.25548 0
M  V30 3310 C 316.082 0.606373 1.93208 0
M  V30 3311 C 316.41 -0.85631 1.74636 0
M  V30 3312 O 315.665 -1.62951 1.08376 0
M  V30 3313 C 315.964 0.908818 3.45652 0
M  V30 3314 C 315.63 2.35722 3.84378 0
M  V30 3315 C 314.292 2.75312 3.9466 0
M  V30 3316 C 316.644 3.29793 4.03591 0
M  V30 3317 C 313.972 4.08047 4.21562 0
M  V30 3318 C 316.324 4.62138 4.31985 0
M  V30 3319 C 314.988 5.01528 4.40484 0
M  V30 3320 H 314.258 0.221888 0.706998 0
M  V30 3321 H 316.905 1.20132 1.49133 0
M  V30 3322 H 315.21 0.231456 3.91116 0
M  V30 3323 H 316.907 0.619498 3.96186 0
M  V30 3324 H 313.497 2.04017 3.76928 0
M  V30 3325 H 317.681 3.00397 3.95064 0
M  V30 3326 H 312.937 4.38212 4.26357 0
M  V30 3327 H 317.111 5.35012 4.45797 0
M  V30 3328 H 314.738 6.04406 4.61083 0
M  V30 3329 N 316.313 -1.40141 0.720998 0
M  V30 3330 C 317.541 -2.05096 0.272656 0
M  V30 3331 C 317.956 -1.54334 -1.0875 0
M  V30 3332 O 317.313 -0.702211 -1.6845 0
M  V30 3333 C 317.364 -3.60636 0.249835 0
M  V30 3334 O 317.085 -4.09526 1.55629 0
M  V30 3335 C 318.586 -4.42772 -0.216396 0
M  V30 3336 H 315.806 -0.659897 0.121558 0
M  V30 3337 H 318.35 -1.79449 0.980723 0
M  V30 3338 H 316.505 -3.85232 -0.409237 0
M  V30 3339 H 316.919 -5.03758 1.4604 0
M  V30 3340 H 318.393 -5.51702 -0.181212 0
M  V30 3341 H 318.87 -4.20756 -1.25941 0
M  V30 3342 H 319.476 -4.23294 0.412596 0
M  V30 3343 N 317.792 -0.46758 -1.50504 0
M  V30 3344 C 318.722 0.318381 -2.31319 0
M  V30 3345 C 319.703 0.993564 -1.38066 0
M  V30 3346 O 320.888 0.991411 -1.66987 0
M  V30 3347 C 318.018 1.40275 -3.17711 0
M  V30 3348 C 316.972 0.849373 -4.19487 0
M  V30 3349 C 316.298 2.03177 -4.94594 0
M  V30 3350 C 317.598 -0.136942 -5.2212 0
M  V30 3351 H 319.292 -0.356106 -2.97275 0
M  V30 3352 H 316.838 -0.172703 -1.42961 0
M  V30 3353 H 318.791 1.96004 -3.73042 0
M  V30 3354 H 317.515 2.10596 -2.49634 0
M  V30 3355 H 316.174 0.314076 -3.65252 0
M  V30 3356 H 315.822 2.72187 -4.22993 0
M  V30 3357 H 315.522 1.66774 -5.63436 0
M  V30 3358 H 317.046 2.59403 -5.52759 0
M  V30 3359 H 318.46 0.331056 -5.72343 0
M  V30 3360 H 316.857 -0.41507 -5.98663 0
M  V30 3361 H 317.927 -1.06398 -4.73083 0
M  V30 3362 N 319.27 1.56325 -0.20005 0
M  V30 3363 C 320.18 2.22931 0.730668 0
M  V30 3364 C 321.196 1.22997 1.23076 0
M  V30 3365 O 322.372 1.55748 1.27689 0
M  V30 3366 C 319.437 2.87948 1.93098 0
M  V30 3367 C 318.498 4.03166 1.47497 0
M  V30 3368 C 317.731 4.65073 2.61807 0
M  V30 3369 O 317.954 4.25913 3.79413 0
M  V30 3370 O 316.888 5.54452 2.34237 0
M  V30 3371 H 320.714 3.03084 0.193391 0
M  V30 3372 H 318.299 1.49371 0.0294621 0
M  V30 3373 H 320.181 3.29063 2.6324 0
M  V30 3374 H 318.856 2.10771 2.45677 0
M  V30 3375 H 317.763 3.66664 0.742201 0
M  V30 3376 H 319.096 4.82022 0.995796 0
M  V30 3377 N 320.748 -0.0735177 1.57428 0
M  V30 3378 C 321.976 -0.785969 1.9139 0
M  V30 3379 C 322.391 -1.71207 0.795847 0
M  V30 3380 O 321.748 -1.81033 -0.230915 0
M  V30 3381 C 321.799 -1.58107 3.25091 0
M  V30 3382 O 321.52 -0.6922 4.32597 0
M  V30 3383 C 323.021 -2.39467 3.73055 0
M  V30 3384 H 320.241 -0.223558 0.632663 0
M  V30 3385 H 322.785 -0.044302 2.04452 0
M  V30 3386 H 320.94 -2.27503 3.13562 0
M  V30 3387 H 321.354 -1.24504 5.09508 0
M  V30 3388 H 322.828 -2.90716 4.69242 0
M  V30 3389 H 323.305 -3.18913 3.01979 0
M  V30 3390 H 323.911 -1.7523 3.87523 0
M  V30 3391 N 322.226 -1.5378 -0.344866 0
M  V30 3392 C 323.473 -1.70963 -1.08526 0
M  V30 3393 C 323.801 -0.472126 -1.88683 0
M  V30 3394 O 323.056 0.546116 -1.87926 0
M  V30 3395 C 323.355 -2.92407 -2.05506 0
M  V30 3396 C 323.021 -4.28066 -1.41671 0
M  V30 3397 C 321.683 -4.64951 -1.2399 0
M  V30 3398 C 324.035 -5.12344 -0.956726 0
M  V30 3399 C 321.363 -5.83733 -0.589277 0
M  V30 3400 C 323.715 -6.3179 -0.320015 0
M  V30 3401 C 322.379 -6.67372 -0.130881 0
M  V30 3402 H 321.649 -0.625598 -0.397124 0
M  V30 3403 H 324.296 -1.87995 -0.36469 0
M  V30 3404 H 322.601 -2.69973 -2.8394 0
M  V30 3405 H 324.298 -3.02895 -2.62784 0
M  V30 3406 H 320.888 -3.99034 -1.56429 0
M  V30 3407 H 325.072 -4.8438 -1.08118 0
M  V30 3408 H 320.328 -6.09877 -0.431344 0
M  V30 3409 H 324.502 -6.96386 0.0445072 0
M  V30 3410 H 322.129 -7.59273 0.375318 0
M  V30 3411 N 323.704 0.605807 -1.45491 0
M  V30 3412 C 324.929 1.39625 -1.53361 0
M  V30 3413 C 325.354 1.87351 -0.167645 0
M  V30 3414 O 324.712 1.60243 0.848051 0
M  V30 3415 C 324.76 2.57559 -2.5238 0
M  V30 3416 O 323.864 3.58248 -2.04285 0
M  V30 3417 H 323.205 0.416771 -0.516912 0
M  V30 3418 H 325.735 0.737103 -1.90861 0
M  V30 3419 H 325.745 3.0478 -2.71244 0
M  V30 3420 H 324.42 2.22171 -3.51586 0
M  V30 3421 H 322.997 3.17664 -1.95305 0
M  V30 3422 N 325.182 1.32811 0.848464 0
M  V30 3423 C 326.598 1.11937 1.13764 0
M  V30 3424 C 326.798 -0.0960789 2.01271 0
M  V30 3425 O 325.854 -0.779165 2.40178 0
M  V30 3426 C 327.167 2.402 1.809 0
M  V30 3427 C 328.715 2.46016 1.93508 0
M  V30 3428 C 329.19 3.74215 2.64059 0
M  V30 3429 N 330.681 3.75232 2.71579 0
M  V30 3430 C 331.416 4.71134 3.26833 0
M  V30 3431 N 330.912 5.77406 3.8285 0
M  V30 3432 N 332.705 4.58623 3.24995 0
M  V30 3433 H 324.856 2.1073 0.265855 0
M  V30 3434 H 327.119 0.930671 0.180431 0
M  V30 3435 H 326.825 3.29093 1.24058 0
M  V30 3436 H 326.699 2.51628 2.81004 0
M  V30 3437 H 329.086 1.57577 2.49506 0
M  V30 3438 H 329.167 2.38536 0.923811 0
M  V30 3439 H 328.811 4.63031 2.08722 0
M  V30 3440 H 328.741 3.78968 3.65637 0
M  V30 3441 H 331.232 2.98423 2.31845 0
M  V30 3442 H 331.545 6.46632 4.23187 0
M  V30 3443 H 329.89 5.81152 3.81165 0
M  V30 3444 H 333.081 3.74762 2.80484 0
M  V30 3445 H 333.254 5.33535 3.67756 0
M  V30 3446 N 326.66 -1.06551 1.16123 0
M  V30 3447 C 327.909 -1.78687 0.935622 0
M  V30 3448 C 328.222 -1.88056 -0.538001 0
M  V30 3449 O 329.428 -2.56794 -0.88143 0
M  V30 3450 C 327.884 -3.21143 1.62466 0
M  V30 3451 C 327.492 -3.19949 3.13587 0
M  V30 3452 C 329.236 -3.9783 1.48092 0
M  V30 3453 C 327.143 -4.57108 3.75241 0
M  V30 3454 H 326.073 -0.669712 0.346412 0
M  V30 3455 H 328.724 -1.19534 1.39226 0
M  V30 3456 H 327.106 -3.80539 1.09572 0
M  V30 3457 H 328.28 -2.70151 3.73303 0
M  V30 3458 H 326.595 -2.5676 3.27816 0
M  V30 3459 H 329.192 -4.99217 1.91538 0
M  V30 3460 H 329.535 -4.14078 0.429507 0
M  V30 3461 H 330.068 -3.4495 1.98127 0
M  V30 3462 H 326.807 -4.46065 4.80319 0
M  V30 3463 H 326.327 -5.07111 3.20309 0
M  V30 3464 H 328.006 -5.26069 3.76644 0
M  V30 3465 N 328.138 -0.959301 -1.25041 0
M  V30 3466 C 329.368 -0.63303 -1.96663 0
M  V30 3467 C 329.776 0.800031 -1.71453 0
M  V30 3468 O 329.119 1.54736 -0.99008 0
M  V30 3469 C 329.181 -0.817523 -3.50081 0
M  V30 3470 C 328.845 -2.22863 -3.98975 0
M  V30 3471 C 329.842 -3.20569 -4.09306 0
M  V30 3472 C 327.527 -2.55407 -4.32519 0
M  V30 3473 C 329.521 -4.4891 -4.52503 0
M  V30 3474 C 327.208 -3.83976 -4.754 0
M  V30 3475 C 328.206 -4.8054 -4.85356 0
M  V30 3476 O 327.894 -6.06817 -5.27284 0
M  V30 3477 H 327.626 -0.235866 -0.633516 0
M  V30 3478 H 330.18 -1.2874 -1.60047 0
M  V30 3479 H 328.41 -0.105992 -3.86555 0
M  V30 3480 H 330.099 -0.491604 -4.02912 0
M  V30 3481 H 330.865 -2.96753 -3.83618 0
M  V30 3482 H 326.744 -1.8097 -4.23994 0
M  V30 3483 H 330.288 -5.24283 -4.60188 0
M  V30 3484 H 326.185 -4.07596 -5.00535 0
M  V30 3485 H 326.953 -6.10262 -5.45457 0
M  V30 3486 N 329.616 1.39756 -0.72842 0
M  V30 3487 C 330.841 2.05472 -0.282159 0
M  V30 3488 C 331.266 1.54549 1.07221 0
M  V30 3489 O 330.624 0.686372 1.67805 0
M  V30 3490 C 330.672 3.59462 -0.286264 0
M  V30 3491 O 329.776 4.05918 0.728298 0
M  V30 3492 H 329.117 0.651226 -0.129618 0
M  V30 3493 H 331.647 1.78915 -0.992499 0
M  V30 3494 H 331.657 4.07798 -0.128373 0
M  V30 3495 H 330.332 3.95889 -1.27456 0
M  V30 3496 H 328.909 3.69012 0.537081 0
M  V30 3497 N 331.094 0.475555 1.50254 0
M  V30 3498 C 332.041 -0.316293 2.28622 0
M  V30 3499 C 333.011 -0.983227 1.33873 0
M  V30 3500 O 334.196 -0.994805 1.62814 0
M  V30 3501 C 331.336 -1.38975 3.1588 0
M  V30 3502 C 330.449 -0.737146 4.25664 0
M  V30 3503 C 329.584 -1.78887 5.00173 0
M  V30 3504 C 328.623 -1.11676 6.01826 0
M  V30 3505 N 327.76 -2.11154 6.69596 0
M  V30 3506 H 332.6 0.358297 2.95838 0
M  V30 3507 H 330.137 0.188541 1.45887 0
M  V30 3508 H 332.095 -2.02383 3.64825 0
M  V30 3509 H 330.725 -2.03344 2.50701 0
M  V30 3510 H 329.777 0.0096065 3.80399 0
M  V30 3511 H 331.089 -0.206816 4.98371 0
M  V30 3512 H 330.243 -2.49865 5.52859 0
M  V30 3513 H 328.982 -2.35302 4.27182 0
M  V30 3514 H 327.987 -0.392633 5.48396 0
M  V30 3515 H 329.212 -0.55945 6.76792 0
M  V30 3516 H 327.158 -2.66577 5.99394 0
M  V30 3517 H 327.075 -1.63118 7.38193 0
M  V30 3518 H 328.343 -2.81497 7.26897 0
M  V30 3519 N 332.573 -1.56217 0.208337 0
M  V30 3520 C 333.52 -2.19699 -0.707192 0
M  V30 3521 C 334.49 -1.14836 -1.20008 0
M  V30 3522 O 335.675 -1.4314 -1.26157 0
M  V30 3523 C 332.815 -2.87061 -1.91546 0
M  V30 3524 C 331.928 -4.06483 -1.46271 0
M  V30 3525 C 331.063 -4.61665 -2.62752 0
M  V30 3526 C 330.102 -5.73417 -2.14147 0
M  V30 3527 N 329.239 -6.22948 -3.23853 0
M  V30 3528 H 334.079 -2.97575 -0.159111 0
M  V30 3529 H 331.616 -1.46948 -0.0667874 0
M  V30 3530 H 333.574 -3.24294 -2.62468 0
M  V30 3531 H 332.204 -2.11725 -2.43664 0
M  V30 3532 H 331.256 -3.74825 -0.648886 0
M  V30 3533 H 332.568 -4.87271 -1.06622 0
M  V30 3534 H 331.722 -5.01272 -3.41776 0
M  V30 3535 H 330.461 -3.80013 -3.05682 0
M  V30 3536 H 329.466 -5.33326 -1.33581 0
M  V30 3537 H 330.691 -6.56897 -1.72232 0
M  V30 3538 H 328.637 -5.44213 -3.6629 0
M  V30 3539 H 328.554 -6.98823 -2.88414 0
M  V30 3540 H 329.822 -6.6721 -4.03052 0
M  V30 3541 N 334.051 0.0651679 -1.57465 0
M  V30 3542 C 335.298 0.763063 -1.87573 0
M  V30 3543 C 335.626 1.77242 -0.800961 0
M  V30 3544 O 334.881 1.94651 0.202316 0
M  V30 3545 C 335.18 1.50081 -3.24362 0
M  V30 3546 C 334.846 0.630816 -4.46466 0
M  V30 3547 C 333.508 0.391082 -4.79608 0
M  V30 3548 C 335.86 0.0279465 -5.21193 0
M  V30 3549 C 333.188 -0.460894 -5.84887 0
M  V30 3550 C 335.54 -0.811522 -6.27373 0
M  V30 3551 C 334.204 -1.06106 -6.59013 0
M  V30 3552 H 333.474 0.279224 -0.686378 0
M  V30 3553 H 336.121 0.0236726 -1.91485 0
M  V30 3554 H 334.426 2.31258 -3.16271 0
M  V30 3555 H 336.123 2.04571 -3.44894 0
M  V30 3556 H 332.713 0.8278 -4.2053 0
M  V30 3557 H 336.897 0.200262 -4.95896 0
M  V30 3558 H 332.153 -0.662907 -6.07796 0
M  V30 3559 H 336.327 -1.28537 -6.84435 0
M  V30 3560 H 333.954 -1.723 -7.40417 0
M  V30 3561 N 335.529 1.53961 0.336706 0
M  V30 3562 C 336.777 1.71197 1.07405 0
M  V30 3563 C 337.098 0.481475 1.88962 0
M  V30 3564 O 336.368 -0.504585 1.8929 0
M  V30 3565 H 334.948 0.631185 0.399517 0
M  V30 3566 H 337.61 1.91232 0.376323 0
M  V30 3567 H 336.706 2.58587 1.74755 0
M  V30 3568 N 337.007 -0.598083 1.45811 0
M  V30 3569 C 338.256 -1.35295 1.49594 0
M  V30 3570 C 338.569 -1.95057 0.145679 0
M  V30 3571 O 339.775 -2.71431 0.0612099 0
M  V30 3572 C 338.231 -2.45124 2.63519 0
M  V30 3573 C 337.839 -1.91732 4.04899 0
M  V30 3574 C 339.583 -3.2205 2.76558 0
M  V30 3575 C 337.49 -2.991 5.1019 0
M  V30 3576 H 336.42 -0.508552 0.556679 0
M  V30 3577 H 339.071 -0.639977 1.71978 0
M  V30 3578 H 337.453 -3.19149 2.34435 0
M  V30 3579 H 338.627 -1.24352 4.43704 0
M  V30 3580 H 336.942 -1.27522 3.96393 0
M  V30 3581 H 339.539 -4.0215 3.52391 0
M  V30 3582 H 339.882 -3.73663 1.83526 0
M  V30 3583 H 340.415 -2.55127 3.05213 0
M  V30 3584 H 337.154 -2.52393 6.04961 0
M  V30 3585 H 336.674 -3.65017 4.75944 0
M  V30 3586 H 338.353 -3.63318 5.35359 0
M  V30 3587 N 338.485 -1.33259 -0.841409 0
M  V30 3588 C 339.395 -1.25332 -1.98316 0
M  V30 3589 C 340.411 -0.164364 -1.73222 0
M  V30 3590 O 341.587 -0.387486 -1.97637 0
M  V30 3591 C 338.652 -0.990078 -3.32262 0
M  V30 3592 C 337.713 -2.16879 -3.70489 0
M  V30 3593 C 336.946 -1.91801 -4.98044 0
M  V30 3594 O 337.169 -0.867075 -5.63771 0
M  V30 3595 O 336.103 -2.78267 -5.33714 0
M  V30 3596 H 339.929 -2.21344 -2.07944 0
M  V30 3597 H 337.514 -1.1328 -0.974058 0
M  V30 3598 H 339.396 -0.860321 -4.12524 0
M  V30 3599 H 338.071 -0.0602155 -3.23644 0
M  V30 3600 H 336.978 -2.35407 -2.90748 0
M  V30 3601 H 338.311 -3.0819 -3.8377 0
M  V30 3602 N 339.963 1.05934 -1.16686 0
M  V30 3603 C 340.91 2.13499 -0.876748 0
M  V30 3604 C 341.88 1.65162 0.176299 0
M  V30 3605 O 343.065 1.90757 0.0407143 0
M  V30 3606 C 340.205 3.42912 -0.387967 0
M  V30 3607 C 339.318 4.04964 -1.50426 0
M  V30 3608 C 338.453 5.22266 -0.970125 0
M  V30 3609 C 337.492 5.76309 -2.06238 0
M  V30 3610 N 336.629 6.84922 -1.54356 0
M  V30 3611 H 341.469 2.37654 -1.7979 0
M  V30 3612 H 339.006 1.16598 -0.896843 0
M  V30 3613 H 340.964 4.17111 -0.086186 0
M  V30 3614 H 339.594 3.18963 0.496235 0
M  V30 3615 H 338.646 3.28277 -1.92193 0
M  V30 3616 H 339.958 4.41122 -2.32836 0
M  V30 3617 H 339.112 6.03506 -0.621743 0
M  V30 3618 H 337.851 4.87564 -0.115377 0
M  V30 3619 H 336.856 4.93704 -2.41942 0
M  V30 3620 H 338.081 6.13062 -2.92115 0
M  V30 3621 H 336.027 6.52131 -0.711406 0
M  V30 3622 H 335.944 7.20043 -2.30379 0
M  V30 3623 H 337.212 7.69832 -1.22387 0
M  V30 3624 N 341.441 0.965919 1.2453 0
M  V30 3625 C 342.388 0.49402 2.25451 0
M  V30 3626 C 343.358 -0.45948 1.59618 0
M  V30 3627 O 344.543 -0.370238 1.87173 0
M  V30 3628 C 341.683 -0.211359 3.44452 0
M  V30 3629 C 340.796 0.7807 4.24887 0
M  V30 3630 C 339.931 0.0516105 5.31175 0
M  V30 3631 C 338.97 1.03385 6.03306 0
M  V30 3632 N 338.107 0.334887 7.01301 0
M  V30 3633 H 342.947 1.35946 2.65184 0
M  V30 3634 H 340.484 0.681515 1.3036 0
M  V30 3635 H 342.442 -0.637 4.12308 0
M  V30 3636 H 341.072 -1.04077 3.05562 0
M  V30 3637 H 340.124 1.32479 3.56586 0
M  V30 3638 H 341.436 1.52978 4.74762 0
M  V30 3639 H 340.59 -0.432114 6.05159 0
M  V30 3640 H 339.329 -0.730179 4.82203 0
M  V30 3641 H 338.334 1.52847 5.28127 0
M  V30 3642 H 339.559 1.81606 6.54367 0
M  V30 3643 H 337.505 -0.427959 6.54603 0
M  V30 3644 H 337.422 1.02287 7.49048 0
M  V30 3645 H 338.69 -0.126928 7.79397 0
M  V30 3646 N 342.919 -1.39368 0.735821 0
M  V30 3647 C 343.866 -2.30599 0.0963825 0
M  V30 3648 C 344.836 -1.49257 -0.728794 0
M  V30 3649 O 346.021 -1.77941 -0.688588 0
M  V30 3650 C 343.161 -3.35596 -0.804305 0
M  V30 3651 C 342.274 -4.31987 0.0335761 0
M  V30 3652 C 341.409 -5.24053 -0.868461 0
M  V30 3653 C 340.448 -6.12095 -0.0258776 0
M  V30 3654 N 339.585 -6.96514 -0.883893 0
M  V30 3655 H 344.425 -2.8471 0.880002 0
M  V30 3656 H 341.962 -1.40188 0.445619 0
M  V30 3657 H 343.92 -3.95062 -1.34096 0
M  V30 3658 H 342.55 -2.82938 -1.55389 0
M  V30 3659 H 341.602 -3.74133 0.68766 0
M  V30 3660 H 342.914 -4.94074 0.685036 0
M  V30 3661 H 342.068 -5.88549 -1.47293 0
M  V30 3662 H 340.807 -4.62289 -1.5537 0
M  V30 3663 H 339.812 -5.4661 0.591386 0
M  V30 3664 H 341.037 -6.75923 0.656156 0
M  V30 3665 H 338.983 -6.37318 -1.55441 0
M  V30 3666 H 338.9 -7.55448 -0.288931 0
M  V30 3667 H 340.168 -7.65439 -1.4739 0
M  V30 3668 N 344.397 -0.483516 -1.5 0
M  V30 3669 C 345.33 0.350427 -2.25493 0
M  V30 3670 C 346.308 0.985549 -1.29328 0
M  V30 3671 O 347.492 1.01906 -1.58579 0
M  V30 3672 C 344.619 1.49202 -3.04066 0
M  V30 3673 C 343.665 0.973036 -4.15252 0
M  V30 3674 S 344.498 -0.122237 -5.3536 0
M  V30 3675 C 345.654 1.02294 -6.17484 0
M  V30 3676 H 345.887 -0.290381 -2.95878 0
M  V30 3677 H 343.42 -0.268562 -1.52046 0
M  V30 3678 H 345.378 2.14623 -3.49925 0
M  V30 3679 H 344.039 2.10438 -2.33183 0
M  V30 3680 H 343.232 1.82804 -4.69679 0
M  V30 3681 H 342.834 0.396335 -3.71894 0
M  V30 3682 H 345.126 1.93195 -6.49371 0
M  V30 3683 H 346.069 0.517664 -7.06205 0
M  V30 3684 H 346.477 1.28238 -5.49741 0
M  V30 3685 N 345.875 1.56104 -0.216619 0
M  V30 3686 C 346.808 2.16026 0.735395 0
M  V30 3687 C 347.786 1.1032 1.1945 0
M  V30 3688 O 348.97 1.38549 1.27814 0
M  V30 3689 C 346.097 2.73656 1.99575 0
M  V30 3690 C 345.143 3.92146 1.67702 0
M  V30 3691 S 345.976 5.29397 0.806145 0
M  V30 3692 C 347.132 5.90463 2.07617 0
M  V30 3693 H 347.365 2.96439 0.226072 0
M  V30 3694 H 344.898 1.544 -0.00136639 0
M  V30 3695 H 346.856 3.075 2.71945 0
M  V30 3696 H 345.517 1.93245 2.47619 0
M  V30 3697 H 344.71 4.30954 2.61332 0
M  V30 3698 H 344.312 3.59423 1.03398 0
M  V30 3699 H 346.604 6.06136 3.02664 0
M  V30 3700 H 347.547 6.86589 1.73207 0
M  V30 3701 H 347.955 5.19252 2.21445 0
M  V30 3702 N 347.353 -0.0568162 1.57498 0
M  V30 3703 C 348.285 -1.09292 2.01464 0
M  V30 3704 C 349.298 -1.34112 0.922913 0
M  V30 3705 O 350.487 -1.32089 1.20062 0
M  V30 3706 C 347.587 -2.44068 2.35125 0
M  V30 3707 C 346.76 -2.38995 3.66333 0
M  V30 3708 C 345.819 -3.55997 3.87495 0
M  V30 3709 O 344.845 -3.36746 4.58901 0
M  V30 3710 N 346.047 -4.76888 3.30996 0
M  V30 3711 H 348.812 -0.718386 2.90963 0
M  V30 3712 H 346.373 -0.245235 1.60032 0
M  V30 3713 H 348.365 -3.21011 2.46443 0
M  V30 3714 H 346.935 -2.73468 1.5144 0
M  V30 3715 H 346.155 -1.47336 3.65631 0
M  V30 3716 H 347.443 -2.3272 4.52458 0
M  V30 3717 H 346.841 -4.95431 2.73065 0
M  V30 3718 H 345.398 -5.51291 3.47738 0
M  V30 3719 N 348.832 -1.54138 -0.328536 0
M  V30 3720 C 350.248 -1.44736 -0.672574 0
M  V30 3721 C 350.448 -0.616217 -1.91846 0
M  V30 3722 O 349.504 -0.113067 -2.52247 0
M  V30 3723 C 350.817 -2.884 -0.851217 0
M  V30 3724 C 352.365 -2.98271 -0.948877 0
M  V30 3725 C 352.84 -4.43074 -1.15973 0
M  V30 3726 N 354.331 -4.46665 -1.22658 0
M  V30 3727 C 355.066 -5.55857 -1.40751 0
M  V30 3728 N 354.562 -6.75026 -1.5592 0
M  V30 3729 N 356.355 -5.43495 -1.4342 0
M  V30 3730 H 348.506 -2.06661 0.490421 0
M  V30 3731 H 350.769 -0.934812 0.157579 0
M  V30 3732 H 350.475 -3.51699 -0.00704236 0
M  V30 3733 H 350.349 -3.34225 -1.74853 0
M  V30 3734 H 352.736 -2.35102 -1.78356 0
M  V30 3735 H 352.817 -2.55785 -0.0281435 0
M  V30 3736 H 352.461 -5.06827 -0.329915 0
M  V30 3737 H 352.391 -4.83165 -2.09426 0
M  V30 3738 H 354.882 -3.60797 -1.124 0
M  V30 3739 H 355.195 -7.54004 -1.69404 0
M  V30 3740 H 353.54 -6.77944 -1.53027 0
M  V30 3741 H 356.731 -4.49349 -1.31162 0
M  V30 3742 H 356.904 -6.28649 -1.57178 0
M  V30 3743 N 350.31 0.590341 -1.46126 0
M  V30 3744 C 351.24 1.71032 -1.58966 0
M  V30 3745 C 352.221 1.64302 -0.440335 0
M  V30 3746 O 353.406 1.82436 -0.665634 0
M  V30 3747 C 350.536 3.09665 -1.57241 0
M  V30 3748 C 349.49 3.31221 -2.71066 0
M  V30 3749 C 348.816 4.70303 -2.54399 0
M  V30 3750 C 350.116 3.19796 -4.1295 0
M  V30 3751 H 351.81 1.60543 -2.52718 0
M  V30 3752 H 349.356 0.770933 -1.21625 0
M  V30 3753 H 351.309 3.87831 -1.64819 0
M  V30 3754 H 350.033 3.21036 -0.600289 0
M  V30 3755 H 348.692 2.55452 -2.62944 0
M  V30 3756 H 348.34 4.78429 -1.55288 0
M  V30 3757 H 348.04 4.85679 -3.30741 0
M  V30 3758 H 349.564 5.50647 -2.63857 0
M  V30 3759 H 350.978 3.87815 -4.22223 0
M  V30 3760 H 349.375 3.46696 -4.89818 0
M  V30 3761 H 350.445 2.16983 -4.33643 0
M  V30 3762 N 351.788 1.33704 0.83433 0
M  V30 3763 C 353.034 1.26612 1.59188 0
M  V30 3764 C 353.389 -0.165439 1.91687 0
M  V30 3765 O 352.682 -1.10873 1.56262 0
M  V30 3766 C 352.876 2.07926 2.90692 0
M  V30 3767 C 352.705 3.58844 2.71038 0
M  V30 3768 C 351.475 4.28148 2.68361 0
M  V30 3769 C 353.673 4.53082 2.43353 0
M  V30 3770 N 351.655 5.64987 2.40132 0
M  V30 3771 C 353.026 5.77843 2.24716 0
M  V30 3772 C 355.081 4.42119 2.28987 0
M  V30 3773 C 353.784 6.92877 1.9317 0
M  V30 3774 C 355.81 5.56973 1.98835 0
M  V30 3775 C 355.172 6.80745 1.81012 0
M  V30 3776 H 351.271 0.518517 0.585375 0
M  V30 3777 H 353.855 1.68294 0.979044 0
M  V30 3778 H 352.026 1.68558 3.49918 0
M  V30 3779 H 353.758 1.92568 3.55949 0
M  V30 3780 H 350.513 3.80469 2.82029 0
M  V30 3781 H 350.937 6.37133 2.28889 0
M  V30 3782 H 355.579 3.47058 2.41477 0
M  V30 3783 H 353.297 7.87931 1.79418 0
M  V30 3784 H 356.883 5.50428 1.88468 0
M  V30 3785 H 355.763 7.68115 1.58017 0
M  V30 3786 N 353.266 -1.05314 1.17247 0
M  V30 3787 C 354.514 -1.77941 0.958194 0
M  V30 3788 C 354.835 -1.88089 -0.514556 0
M  V30 3789 O 354.105 -1.39676 -1.37359 0
M  V30 3790 H 352.685 -0.659116 0.351533 0
M  V30 3791 H 355.347 -1.27166 1.47699 0
M  V30 3792 H 354.443 -2.79663 1.38546 0
M  V30 3793 N 354.744 -0.972509 -1.24016 0
M  V30 3794 C 355.692 -0.498562 -2.27194 0
M  V30 3795 C 356.686 0.440372 -1.63576 0
M  V30 3796 O 357.892 0.315133 -1.7722 0
M  V30 3797 H 354.267 -0.142775 -0.738322 0
M  V30 3798 H 356.238 -1.38065 -2.64539 0
M  V30 3799 C 354.987 0.191072 -3.47175 0
M  V30 3800 H 354.31 -0.522318 -3.96373 0
M  V30 3801 H 355.75 0.486445 -4.212 0
M  V30 3802 C 354.209 1.41967 -3.05527 0
M  V30 3803 O 354.739 2.51642 -3.13112 0
M  V30 3804 N 352.945 1.28746 -2.60524 0
M  V30 3805 H 352.492 0.395089 -2.54552 0
M  V30 3806 H 352.45 2.11061 -2.33025 0
M  V30 3807 N 356.222 1.38976 -0.743202 0
M  V30 3808 C 357.447 2.05161 -0.303936 0
M  V30 3809 C 357.872 1.55677 1.05576 0
M  V30 3810 O 357.23 0.704131 1.67068 0
M  V30 3811 C 357.278 3.59138 -0.324373 0
M  V30 3812 O 356.382 4.06668 0.685204 0
M  V30 3813 H 355.723 0.649815 -0.136518 0
M  V30 3814 H 358.253 1.77852 -1.01142 0
M  V30 3815 H 358.263 4.07639 -0.171618 0
M  V30 3816 H 356.938 3.94515 -1.31647 0
M  V30 3817 H 355.515 3.69561 0.497913 0
M  V30 3818 N 357.7 0.491464 1.49741 0
M  V30 3819 C 358.947 -0.0564256 2.02421 0
M  V30 3820 C 359.275 -1.37872 1.37192 0
M  V30 3821 O 358.53 -1.89375 0.493508 0
M  V30 3822 C 358.829 -0.267329 3.56399 0
M  V30 3823 C 358.495 0.975775 4.40215 0
M  V30 3824 C 357.157 1.31655 4.62839 0
M  V30 3825 C 359.509 1.80251 4.89039 0
M  V30 3826 C 356.837 2.48375 5.31532 0
M  V30 3827 C 359.189 2.96116 5.59015 0
M  V30 3828 C 357.853 3.30585 5.79888 0
M  V30 3829 H 357.123 -0.0206476 0.740712 0
M  V30 3830 H 359.77 0.649686 1.80143 0
M  V30 3831 H 358.075 -1.05588 3.77304 0
M  V30 3832 H 359.772 -0.705549 3.94744 0
M  V30 3833 H 356.362 0.700315 4.2284 0
M  V30 3834 H 360.546 1.55239 4.71396 0
M  V30 3835 H 355.802 2.7533 5.45897 0
M  V30 3836 H 359.976 3.60509 5.95824 0
M  V30 3837 H 357.603 4.21132 6.32892 0
M  V30 3838 N 359.178 -1.55987 0.224894 0
M  V30 3839 C 360.408 -2.02489 -0.41007 0
M  V30 3840 C 360.816 -1.10391 -1.53657 0
M  V30 3841 O 360.159 -0.106458 -1.83391 0
M  V30 3842 C 360.221 -3.45319 -0.999757 0
M  V30 3843 C 359.885 -4.56999 -0.00827976 0
M  V30 3844 C 360.882 -5.13812 0.793314 0
M  V30 3845 C 358.567 -5.02176 0.111442 0
M  V30 3846 C 360.561 -6.14276 1.7013 0
M  V30 3847 C 358.248 -6.02477 1.02296 0
M  V30 3848 C 359.246 -6.58403 1.81643 0
M  V30 3849 O 358.934 -7.56751 2.71262 0
M  V30 3850 H 358.666 -0.667915 -0.104235 0
M  V30 3851 H 361.22 -2.0257 0.339782 0
M  V30 3852 H 359.45 -3.42318 -1.79876 0
M  V30 3853 H 361.139 -3.7545 -1.54248 0
M  V30 3854 H 361.905 -4.79756 0.711288 0
M  V30 3855 H 357.784 -4.58323 -0.49605 0
M  V30 3856 H 361.328 -6.57854 2.32107 0
M  V30 3857 H 357.225 -6.35954 1.10599 0
M  V30 3858 H 357.993 -7.74286 2.65375 0
M  V30 3859 N 360.656 0.0484629 -1.57525 0
M  V30 3860 C 361.933 0.777447 -1.79486 0
M  V30 3861 C 362.313 1.94597 -0.818251 0
M  V30 3862 O 361.661 2.28047 0.143767 0
M  V30 3863 C 361.871 1.22864 -3.26658 0
M  V30 3864 C 363.219 1.65251 -3.91123 0
M  V30 3865 O 364.243 1.32372 -3.3069 0
M  V30 3866 O 363.102 2.26207 -4.97486 0
M  V30 3867 H 360.196 0.374357 -0.737419 0
M  V30 3868 H 362.742 0.0267359 -1.69679 0
M  V30 3869 H 361.514 0.393589 -3.89316 0
M  V30 3870 H 361.137 2.03996 -3.41279 0
M  V30 3871 N 362.134 1.5431 0.320358 0
M  V30 3872 C 363.097 1.83195 1.3774 0
M  V30 3873 C 364.097 0.703906 1.44575 0
M  V30 3874 O 365.287 0.972214 1.44546 0
M  V30 3875 C 362.419 1.99487 2.76438 0
M  V30 3876 H 363.612 2.77642 1.1338 0
M  V30 3877 H 361.165 1.46076 0.556012 0
M  V30 3878 H 361.9 1.07262 3.06048 0
M  V30 3879 H 361.685 2.81575 2.7287 0
M  V30 3880 H 363.175 2.23271 3.52902 0
M  V30 3881 N 363.613 -0.582584 1.46437 0
M  V30 3882 C 364.56 -1.69164 1.5701 0
M  V30 3883 C 365.53 -1.60847 0.414403 0
M  V30 3884 O 366.715 -1.80058 0.631171 0
M  V30 3885 C 363.855 -3.075 1.56646 0
M  V30 3886 C 362.968 -3.2644 2.82951 0
M  V30 3887 C 362.103 -4.55026 2.7409 0
M  V30 3888 C 361.142 -4.6731 3.95333 0
M  V30 3889 N 360.279 -5.87221 3.84858 0
M  V30 3890 H 365.119 -1.59464 2.51744 0
M  V30 3891 H 362.656 -0.777186 1.24893 0
M  V30 3892 H 364.614 -3.8757 1.5442 0
M  V30 3893 H 363.244 -3.16096 0.654439 0
M  V30 3894 H 362.296 -2.39974 2.95155 0
M  V30 3895 H 363.608 -3.31385 3.72808 0
M  V30 3896 H 362.762 -5.43324 2.6997 0
M  V30 3897 H 361.501 -4.52519 1.81873 0
M  V30 3898 H 360.506 -3.77429 3.99784 0
M  V30 3899 H 361.731 -4.71595 4.88646 0
M  V30 3900 H 359.677 -5.85712 2.95427 0
M  V30 3901 H 359.594 -5.93435 4.6837 0
M  V30 3902 H 360.862 -6.7795 3.84713 0
M  V30 3903 N 365.091 -1.34144 -0.827227 0
M  V30 3904 C 366.319 -1.29325 -1.61501 0
M  V30 3905 C 366.734 0.13354 -1.88327 0
M  V30 3906 O 366.091 1.0793 -1.47164 0
M  V30 3907 C 366.142 -2.07746 -2.95844 0
M  V30 3908 O 365.863 -3.4486 -2.70191 0
M  V30 3909 C 367.364 -2.10273 -3.90256 0
M  V30 3910 H 364.584 -0.445069 -0.50215 0
M  V30 3911 H 367.128 -1.76693 -1.02955 0
M  V30 3912 H 365.283 -1.6403 -3.5096 0
M  V30 3913 H 365.697 -3.85345 -3.55822 0
M  V30 3914 H 367.171 -2.69575 -4.81698 0
M  V30 3915 H 367.648 -1.096 -4.25305 0
M  V30 3916 H 368.254 -2.54059 -3.41078 0
M  V30 3917 N 366.569 1.04691 -1.17803 0
M  V30 3918 C 367.516 2.12557 -0.899343 0
M  V30 3919 C 368.486 1.65339 0.158771 0
M  V30 3920 O 369.671 1.90789 0.0204797 0
M  V30 3921 C 366.811 3.42481 -0.424315 0
M  V30 3922 C 365.924 4.03346 -1.54713 0
M  V30 3923 C 365.059 5.21208 -1.02546 0
M  V30 3924 C 364.098 5.74089 -2.12339 0
M  V30 3925 N 363.235 6.83247 -1.61612 0
M  V30 3926 H 368.075 2.35734 -1.823 0
M  V30 3927 H 365.612 1.1564 -0.909159 0
M  V30 3928 H 367.57 4.16996 -0.130421 0
M  V30 3929 H 366.2 3.19471 0.462377 0
M  V30 3930 H 365.252 3.2622 -1.95664 0
M  V30 3931 H 366.564 4.38628 -2.37501 0
M  V30 3932 H 365.718 6.02812 -0.685718 0
M  V30 3933 H 364.457 4.87414 -0.167084 0
M  V30 3934 H 363.462 4.91111 -2.47165 0
M  V30 3935 H 364.687 6.0993 -2.98601 0
M  V30 3936 H 362.633 6.5134 -0.780533 0
M  V30 3937 H 362.55 7.17559 -2.38003 0
M  V30 3938 H 363.818 7.68491 -1.30545 0
M  V30 3939 N 368.047 0.979072 1.23499 0
M  V30 3940 C 368.994 0.517904 2.24914 0
M  V30 3941 C 369.964 -0.442525 1.60097 0
M  V30 3942 O 371.149 -0.350365 1.87556 0
M  V30 3943 C 368.289 -0.174813 3.44657 0
M  V30 3944 C 367.402 0.825721 4.24035 0
M  V30 3945 C 366.537 0.107946 5.3109 0
M  V30 3946 C 365.576 1.09778 6.02175 0
M  V30 3947 N 364.713 0.40925 7.00906 0
M  V30 3948 H 369.553 1.38751 2.63727 0
M  V30 3949 H 367.09 0.695303 1.2963 0
M  V30 3950 H 369.048 -0.593233 4.12961 0
M  V30 3951 H 367.678 -1.0083 3.06648 0
M  V30 3952 H 366.73 1.36253 3.55161 0
M  V30 3953 H 368.042 1.58005 4.73113 0
M  V30 3954 H 367.196 -0.367904 6.05583 0
M  V30 3955 H 365.935 -0.678994 4.8295 0
M  V30 3956 H 364.94 1.5844 5.26476 0
M  V30 3957 H 366.165 1.88536 6.52404 0
M  V30 3958 H 364.111 -0.358506 6.5502 0
M  V30 3959 H 364.028 1.10226 7.47921 0
M  V30 3960 H 365.296 -0.0442557 7.79487 0
M  V30 3961 N 369.525 -1.3858 0.750561 0
M  V30 3962 C 370.771 -2.0095 0.31477 0
M  V30 3963 C 371.126 -1.58509 -1.09053 0
M  V30 3964 O 370.419 -0.8112 -1.7358 0
M  V30 3965 C 370.613 -3.55455 0.372373 0
M  V30 3966 C 370.442 -4.12898 1.78173 0
M  V30 3967 C 369.212 -4.44797 2.39757 0
M  V30 3968 C 371.41 -4.35366 2.7379 0
M  V30 3969 N 369.392 -4.87831 3.72685 0
M  V30 3970 C 370.763 -4.80775 3.91478 0
M  V30 3971 C 372.818 -4.1746 2.71351 0
M  V30 3972 C 371.521 -5.10155 5.07084 0
M  V30 3973 C 373.547 -4.47963 3.86113 0
M  V30 3974 C 372.909 -4.93593 5.02539 0
M  V30 3975 H 369.008 -0.765083 0.161776 0
M  V30 3976 H 371.592 -1.68246 0.979867 0
M  V30 3977 H 369.763 -3.87512 -0.26244 0
M  V30 3978 H 371.495 -4.04614 -0.0834479 0
M  V30 3979 H 368.25 -4.33135 1.91548 0
M  V30 3980 H 368.674 -5.13685 4.40972 0
M  V30 3981 H 373.316 -3.81372 1.82524 0
M  V30 3982 H 371.034 -5.45141 5.96529 0
M  V30 3983 H 374.62 -4.35717 3.85542 0
M  V30 3984 H 373.5 -5.16746 5.89867 0
M  V30 3985 N 371.003 -0.499398 -1.49478 0
M  V30 3986 C 372.228 0.044722 -2.07352 0
M  V30 3987 C 372.653 1.30207 -1.35749 0
M  V30 3988 O 372.011 1.76516 -0.413732 0
M  V30 3989 C 372.059 0.283013 -3.59488 0
M  V30 3990 O 371.163 1.35804 -3.89398 0
M  V30 3991 H 370.504 -0.0255147 -0.66351 0
M  V30 3992 H 373.034 -0.698561 -1.92305 0
M  V30 3993 H 373.044 0.515007 -4.04737 0
M  V30 3994 H 371.719 -0.635636 -4.11014 0
M  V30 3995 H 370.296 1.11113 -3.55961 0
M  V30 3996 N 372.481 1.55866 -0.233164 0
M  V30 3997 C 373.428 2.20796 0.67215 0
M  V30 3998 C 374.398 1.16731 1.18166 0
M  V30 3999 O 375.583 1.45129 1.23864 0
M  V30 4000 C 372.723 2.90072 1.86955 0
M  V30 4001 C 371.836 4.08759 1.39786 0
M  V30 4002 C 370.971 4.65787 2.55374 0
M  V30 4003 C 370.01 5.76752 2.04998 0
M  V30 4004 N 369.147 6.28021 3.13901 0
M  V30 4005 H 373.987 2.9779 0.111749 0
M  V30 4006 H 371.524 1.47036 0.0434007 0
M  V30 4007 H 373.482 3.28428 2.57276 0
M  V30 4008 H 372.112 2.15575 2.40265 0
M  V30 4009 H 371.164 3.7581 0.589173 0
M  V30 4010 H 372.476 4.88906 0.98856 0
M  V30 4011 H 371.63 5.06646 3.33758 0
M  V30 4012 H 370.369 3.84828 2.99598 0
M  V30 4013 H 369.374 5.35383 1.25079 0
M  V30 4014 H 370.599 6.59553 1.61759 0
M  V30 4015 H 368.545 5.49971 3.57586 0
M  V30 4016 H 368.462 7.03323 2.7726 0
M  V30 4017 H 369.73 6.73538 3.92386 0
M  V30 4018 N 373.959 -0.0401083 1.57549 0
M  V30 4019 C 374.907 -1.06264 2.06908 0
M  V30 4020 C 375.901 -1.38132 0.980608 0
M  V30 4021 O 377.107 -1.37167 1.16556 0
M  V30 4022 H 373.482 -0.360166 0.660139 0
M  V30 4023 H 375.453 -0.620445 2.91878 0
M  V30 4024 C 374.202 -2.35846 2.55483 0
M  V30 4025 H 373.525 -2.12183 3.38849 0
M  V30 4026 H 374.965 -3.05765 2.93741 0
M  V30 4027 C 373.424 -3.0404 1.45126 0
M  V30 4028 O 373.954 -3.93424 0.811216 0
M  V30 4029 N 372.16 -2.65184 1.18852 0
M  V30 4030 H 371.707 -1.92584 1.71083 0
M  V30 4031 H 371.665 -3.1113 0.452244 0
M  V30 4032 N 375.437 -1.54477 -0.31217 0
M  V30 4033 C 376.369 -1.81011 -1.40598 0
M  V30 4034 C 377.382 -0.692546 -1.47335 0
M  V30 4035 O 378.571 -0.969847 -1.49854 0
M  V30 4036 C 375.671 -1.92307 -2.79054 0
M  V30 4037 C 374.844 -3.22594 -2.95384 0
M  V30 4038 C 373.903 -3.24448 -4.1427 0
M  V30 4039 O 372.929 -3.98035 -4.06887 0
M  V30 4040 N 374.131 -2.49042 -5.24365 0
M  V30 4041 H 376.896 -2.75408 -1.18196 0
M  V30 4042 H 374.457 -1.53914 -0.502202 0
M  V30 4043 H 376.449 -1.90962 -3.56813 0
M  V30 4044 H 375.019 -1.04955 -2.94454 0
M  V30 4045 H 374.239 -3.36806 -2.04831 0
M  V30 4046 H 375.527 -4.08593 -3.03198 0
M  V30 4047 H 374.925 -1.88867 -5.33241 0
M  V30 4048 H 373.482 -2.53463 -6.005 0
M  V30 4049 N 376.915 0.57481 -1.46744 0
M  V30 4050 C 377.847 1.69804 -1.53946 0
M  V30 4051 C 378.86 1.57098 -0.427106 0
M  V30 4052 O 380.049 1.64378 -0.695863 0
M  V30 4053 C 377.149 3.08125 -1.4111 0
M  V30 4054 C 376.322 3.46757 -2.66605 0
M  V30 4055 C 375.381 4.6417 -2.47855 0
M  V30 4056 O 374.407 4.69634 -3.21609 0
M  V30 4057 N 375.609 5.59553 -1.54534 0
M  V30 4058 H 378.374 1.64077 -2.50796 0
M  V30 4059 H 375.935 0.761 -1.429 0
M  V30 4060 H 377.927 3.84478 -1.26328 0
M  V30 4061 H 376.497 3.08175 -0.524109 0
M  V30 4062 H 375.717 2.6003 -2.96274 0
M  V30 4063 H 377.005 3.69337 -3.49954 0
M  V30 4064 H 376.403 5.57881 -0.937304 0
M  V30 4065 H 374.96 6.35304 -1.45711 0
M  V30 4066 N 378.394 1.34581 0.820102 0
M  V30 4067 C 379.304 1.28471 1.96297 0
M  V30 4068 C 380.32 0.191902 1.72939 0
M  V30 4069 O 381.496 0.418879 1.96996 0
M  V30 4070 C 378.561 1.04281 3.30645 0
M  V30 4071 C 377.622 2.22745 3.66992 0
M  V30 4072 C 376.855 1.997 4.9493 0
M  V30 4073 O 377.078 0.956656 5.6232 0
M  V30 4074 O 376.012 2.86723 5.2922 0
M  V30 4075 H 379.838 2.24624 2.04396 0
M  V30 4076 H 377.423 1.14816 0.955913 0
M  V30 4077 H 379.305 0.925841 4.11104 0
M  V30 4078 H 377.98 0.111697 3.23507 0
M  V30 4079 H 376.887 2.40003 2.86966 0
M  V30 4080 H 378.22 3.14257 3.78819 0
M  V30 4081 N 379.872 -1.04064 1.18357 0
M  V30 4082 C 381.12 -1.76915 0.977013 0
M  V30 4083 C 381.441 -1.88624 -0.494577 0
M  V30 4084 O 380.711 -1.41125 -1.3587 0
M  V30 4085 H 379.291 -0.65535 0.358504 0
M  V30 4086 H 381.953 -1.25592 1.49039 0
M  V30 4087 H 381.049 -2.78178 1.41504 0
M  V30 4088 N 381.35 -0.985608 -1.22978 0
M  V30 4089 C 382.58 -0.674603 -1.95276 0
M  V30 4090 C 382.988 0.763483 -1.73111 0
M  V30 4091 O 382.331 1.52601 -1.02268 0
M  V30 4092 C 382.393 -0.891597 -3.48268 0
M  V30 4093 C 382.057 -2.31275 -3.94158 0
M  V30 4094 C 383.054 -3.29179 -4.02415 0
M  V30 4095 C 380.739 -2.64524 -4.27004 0
M  V30 4096 C 382.733 -4.58407 -4.42879 0
M  V30 4097 C 380.42 -3.93974 -4.67149 0
M  V30 4098 C 381.418 -4.90727 -4.75053 0
M  V30 4099 O 381.106 -6.17865 -5.14294 0
M  V30 4100 H 380.838 -0.249251 -0.628371 0
M  V30 4101 H 383.392 -1.32106 -1.5728 0
M  V30 4102 H 381.622 -0.187962 -3.86243 0
M  V30 4103 H 383.311 -0.576957 -4.01779 0
M  V30 4104 H 384.077 -3.04823 -3.77237 0
M  V30 4105 H 379.956 -1.89923 -4.2006 0
M  V30 4106 H 383.5 -5.33926 -4.48964 0
M  V30 4107 H 379.397 -4.18122 -4.91777 0
M  V30 4108 H 380.165 -6.21694 -5.32389 0
M  V30 4109 N 382.828 1.3818 -0.7579 0
M  V30 4110 C 383.775 2.30416 -0.133057 0
M  V30 4111 C 384.745 1.50398 0.704957 0
M  V30 4112 O 385.93 1.79014 0.660192 0
M  V30 4113 C 383.07 3.36834 0.750813 0
M  V30 4114 C 382.183 4.31879 -0.102297 0
M  V30 4115 C 381.318 5.25368 0.784979 0
M  V30 4116 C 380.357 6.12058 -0.0715046 0
M  V30 4117 N 379.494 6.97832 0.772972 0
M  V30 4118 H 384.334 2.83274 -0.925186 0
M  V30 4119 H 381.871 1.39461 -0.467866 0
M  V30 4120 H 383.829 3.97145 1.27794 0
M  V30 4121 H 382.459 2.85374 1.50868 0
M  V30 4122 H 381.511 3.72991 -0.747095 0
M  V30 4123 H 382.823 4.92921 -0.763552 0
M  V30 4124 H 381.977 5.90818 1.37911 0
M  V30 4125 H 380.716 4.64703 1.47996 0
M  V30 4126 H 379.721 5.456 -0.678272 0
M  V30 4127 H 380.946 6.74793 -0.763606 0
M  V30 4128 H 378.892 6.3971 1.45282 0
M  V30 4129 H 378.809 7.55812 0.168709 0
M  V30 4130 H 380.077 7.67687 1.35194 0
M  V30 4131 N 384.306 0.507319 1.49211 0
M  V30 4132 C 385.722 0.163682 1.58758 0
M  V30 4133 C 385.922 -1.33208 1.51188 0
M  V30 4134 O 384.978 -2.10855 1.38911 0
M  V30 4135 C 386.291 0.746095 2.91297 0
M  V30 4136 C 387.839 0.712773 3.04776 0
M  V30 4137 C 388.314 1.27336 4.39943 0
M  V30 4138 N 389.805 1.23433 4.46451 0
M  V30 4139 C 390.54 1.63821 5.495 0
M  V30 4140 N 390.036 2.11832 6.5962 0
M  V30 4141 N 391.829 1.55198 5.4025 0
M  V30 4142 H 383.98 1.47972 1.52375 0
M  V30 4143 H 386.243 0.614147 0.722168 0
M  V30 4144 H 385.949 1.79534 3.02424 0
M  V30 4145 H 385.823 0.210137 3.76614 0
M  V30 4146 H 388.21 -0.327656 2.93275 0
M  V30 4147 H 388.291 1.28595 2.21127 0
M  V30 4148 H 387.935 2.3126 4.52196 0
M  V30 4149 H 387.865 0.676066 5.22242 0
M  V30 4150 H 390.356 0.882627 3.67448 0
M  V30 4151 H 390.669 2.40703 7.34358 0
M  V30 4152 H 389.014 2.1581 6.60644 0
M  V30 4153 H 392.205 1.17505 4.53112 0
M  V30 4154 H 392.378 1.86997 6.20432 0
M  V30 4155 N 385.784 -1.5574 0.241426 0
M  V30 4156 C 387.032 -1.98417 -0.384075 0
M  V30 4157 C 387.353 -1.13078 -1.58866 0
M  V30 4158 O 386.623 -0.212312 -1.94746 0
M  V30 4159 H 385.203 -0.732813 -0.144894 0
M  V30 4160 H 387.865 -1.9193 0.338943 0
M  V30 4161 H 386.961 -3.04219 -0.696939 0
M  V30 4162 N 387.262 0.0317525 -1.57568 0
M  V30 4163 C 388.509 0.723104 -1.89149 0
M  V30 4164 C 388.837 1.75504 -0.838377 0
M  V30 4165 O 388.092 1.95037 0.160982 0
M  V30 4166 C 388.391 1.43167 -3.27472 0
M  V30 4167 C 388.057 0.535972 -4.47703 0
M  V30 4168 C 386.719 0.289262 -4.8033 0
M  V30 4169 C 389.071 -0.0826125 -5.21135 0
M  V30 4170 C 386.399 -0.584853 -5.83778 0
M  V30 4171 C 388.751 -0.944414 -6.25511 0
M  V30 4172 C 387.415 -1.20061 -6.56614 0
M  V30 4173 H 386.685 0.264602 -0.692146 0
M  V30 4174 H 389.332 -0.0169496 -1.91492 0
M  V30 4175 H 387.637 2.24497 -3.21105 0
M  V30 4176 H 389.334 1.97209 -3.49155 0
M  V30 4177 H 385.924 0.738414 -4.22191 0
M  V30 4178 H 390.108 0.0950302 -4.96209 0
M  V30 4179 H 385.364 -0.79168 -6.06253 0
M  V30 4180 H 389.538 -1.43026 -6.81554 0
M  V30 4181 H 387.165 -1.87967 -7.36595 0
M  V30 4182 N 388.74 1.54641 0.303973 0
M  V30 4183 C 389.98 1.75516 1.04755 0
M  V30 4184 C 390.344 0.528211 1.84591 0
M  V30 4185 O 391.545 0.614645 2.61678 0
M  V30 4186 C 389.816 3.00685 1.93193 0
M  V30 4187 S 391.375 3.42549 2.74237 0
M  V30 4188 H 388.193 0.616987 0.353339 0
M  V30 4189 H 390.795 1.92842 0.321292 0
M  V30 4190 H 389.499 3.8811 1.33411 0
M  V30 4191 H 389.03 2.85937 2.70191 0
M  V30 4192 H 391.045 2.99386 3.95705 0
M  V30 4193 N 390.218 -0.567019 1.47046 0
M  V30 4194 C 391.15 -1.68985 1.54844 0
M  V30 4195 C 392.163 -1.56869 0.435431 0
M  V30 4196 O 393.352 -1.64006 0.70457 0
M  V30 4197 C 390.452 -3.07373 1.42742 0
M  V30 4198 C 389.625 -3.45339 2.6844 0
M  V30 4199 C 388.684 -4.62849 2.50314 0
M  V30 4200 O 387.71 -4.67922 3.24095 0
M  V30 4201 N 388.912 -5.58726 1.57499 0
M  V30 4202 H 391.677 -1.62745 2.51663 0
M  V30 4203 H 389.238 -0.753411 1.43302 0
M  V30 4204 H 391.23 -3.83803 1.28365 0
M  V30 4205 H 389.8 -3.07893 0.540445 0
M  V30 4206 H 389.02 -2.58455 2.97648 0
M  V30 4207 H 390.308 -3.67476 3.51907 0
M  V30 4208 H 389.706 -5.57376 0.966876 0
M  V30 4209 H 388.263 -6.34523 1.49078 0
M  V30 4210 N 391.696 -1.35014 -0.812953 0
M  V30 4211 C 392.943 -1.27931 -1.56971 0
M  V30 4212 C 393.271 0.148034 -1.93936 0
M  V30 4213 O 392.526 1.11175 -1.61054 0
M  V30 4214 C 392.825 -2.12524 -2.87347 0
M  V30 4215 C 392.491 -3.61401 -2.6963 0
M  V30 4216 C 391.153 -4.01983 -2.64506 0
M  V30 4217 C 393.505 -4.55894 -2.52607 0
M  V30 4218 C 390.833 -5.35235 -2.40293 0
M  V30 4219 C 393.185 -5.89336 -2.29925 0
M  V30 4220 C 391.849 -6.2907 -2.23219 0
M  V30 4221 H 391.119 -0.468131 -0.574399 0
M  V30 4222 H 393.766 -1.66851 -0.939836 0
M  V30 4223 H 392.071 -1.66463 -3.54679 0
M  V30 4224 H 393.768 -2.04383 -3.45005 0
M  V30 4225 H 390.358 -3.29193 -2.74463 0
M  V30 4226 H 394.542 -4.25431 -2.55583 0
M  V30 4227 H 389.798 -5.65028 -2.33566 0
M  V30 4228 H 393.972 -6.62139 -2.15743 0
M  V30 4229 H 391.599 -7.32256 -2.04219 0
M  V30 4230 N 393.175 1.03435 -1.18907 0
M  V30 4231 C 394.424 1.76143 -0.982669 0
M  V30 4232 C 394.737 1.89416 0.487953 0
M  V30 4233 O 395.943 2.59041 0.813036 0
M  V30 4234 C 394.399 3.16722 -1.70924 0
M  V30 4235 C 394.007 3.11522 -3.21959 0
M  V30 4236 C 395.751 3.93764 -1.58588 0
M  V30 4237 C 393.658 4.46999 -3.87228 0
M  V30 4238 H 392.588 0.660292 -0.364047 0
M  V30 4239 H 395.239 1.158 -1.42347 0
M  V30 4240 H 393.621 3.775 -1.19623 0
M  V30 4241 H 394.795 2.60158 -3.80335 0
M  V30 4242 H 393.11 2.47978 -3.34508 0
M  V30 4243 H 395.707 4.93963 -2.04707 0
M  V30 4244 H 396.05 4.12794 -0.539142 0
M  V30 4245 H 396.583 3.39576 -2.07203 0
M  V30 4246 H 393.322 4.33174 -4.91976 0
M  V30 4247 H 392.842 4.98441 -3.33642 0
M  V30 4248 H 394.521 5.15898 -3.90459 0
M  V30 4249 N 394.653 0.992116 1.22453 0
M  V30 4250 C 395.586 0.486701 2.22949 0
M  V30 4251 C 396.564 -0.45259 1.56174 0
M  V30 4252 O 397.748 -0.378317 1.84665 0
M  V30 4253 C 394.875 -0.294537 3.37417 0
M  V30 4254 C 393.921 0.590628 4.22391 0
M  V30 4255 S 394.754 2.04546 4.94895 0
M  V30 4256 C 395.91 1.27369 6.12803 0
M  V30 4257 H 396.143 1.33828 2.65475 0
M  V30 4258 H 393.676 0.799023 1.32117 0
M  V30 4259 H 395.634 -0.739241 4.03789 0
M  V30 4260 H 394.295 -1.12139 2.934 0
M  V30 4261 H 393.488 -0.0104375 5.03999 0
M  V30 4262 H 393.09 0.972064 3.61147 0
M  V30 4263 H 395.382 0.540943 6.75337 0
M  V30 4264 H 396.325 2.06502 6.7732 0
M  V30 4265 H 396.733 0.787324 5.58983 0
M  V30 4266 N 396.131 -1.37776 0.765217 0
M  V30 4267 C 397.041 -2.34135 0.147666 0
M  V30 4268 C 398.057 -1.59854 -0.687215 0
M  V30 4269 O 399.233 -1.91983 -0.608659 0
M  V30 4270 C 396.298 -3.3901 -0.72617 0
M  V30 4271 C 395.359 -4.2912 0.124417 0
M  V30 4272 C 394.592 -5.28986 -0.707807 0
M  V30 4273 O 394.815 -5.36205 -1.94525 0
M  V30 4274 O 393.749 -6.01779 -0.12046 0
M  V30 4275 H 397.575 -2.88664 0.943758 0
M  V30 4276 H 395.16 -1.39824 0.526277 0
M  V30 4277 H 397.042 -4.03195 -1.22524 0
M  V30 4278 H 395.717 -2.86819 -1.50056 0
M  V30 4279 H 394.624 -3.68057 0.669696 0
M  V30 4280 H 395.957 -4.84598 0.861736 0
M  V30 4281 N 397.609 -0.515225 -1.4894 0
M  V30 4282 C 399.02 -0.0710067 -1.86565 0
M  V30 4283 C 399.371 1.34733 -1.42623 0
M  V30 4284 O 398.496 2.00653 -0.810379 0
M  V30 4285 C 399.091 -0.122083 -3.3858 0
M  V30 4286 C 397.65 0.266863 -3.75453 0
M  V30 4287 C 396.797 -0.488376 -2.72966 0
M  V30 4288 H 399.748 -0.727266 -1.41055 0
M  V30 4289 H 399.769 0.669818 -3.74558 0
M  V30 4290 H 399.281 -1.15448 -3.70531 0
M  V30 4291 H 397.382 1.30196 -3.49113 0
M  V30 4292 H 397.495 -0.0624811 -4.79059 0
M  V30 4293 H 395.859 0.0635622 -2.54621 0
M  V30 4294 H 396.642 -1.52113 -3.07761 0
M  V30 4295 N 399.087 1.5561 -0.249682 0
M  V30 4296 C 400.336 1.98187 0.37479 0
M  V30 4297 C 400.649 1.14111 1.58865 0
M  V30 4298 O 401.855 1.46714 2.28445 0
M  V30 4299 C 400.311 3.52661 0.718192 0
M  V30 4300 C 399.919 4.45481 -0.474428 0
M  V30 4301 C 401.663 4.03888 1.3067 0
M  V30 4302 C 399.57 5.91303 -0.107026 0
M  V30 4303 H 398.5 0.740159 0.143808 0
M  V30 4304 H 401.151 1.80125 -0.350336 0
M  V30 4305 H 399.533 3.66429 1.50152 0
M  V30 4306 H 400.707 4.43473 -1.25172 0
M  V30 4307 H 399.022 4.04751 -0.978052 0
M  V30 4308 H 401.619 5.10358 1.59496 0
M  V30 4309 H 401.962 3.51401 2.23211 0
M  V30 4310 H 402.495 3.93457 0.586211 0
M  V30 4311 H 399.234 6.47833 -0.999642 0
M  V30 4312 H 398.754 5.9644 0.634013 0
M  V30 4313 H 400.433 6.46258 0.309807 0
M  V30 4314 N 400.565 -0.0233959 1.57583 0
M  V30 4315 C 401.495 -1.02162 2.09965 0
M  V30 4316 C 402.476 -1.3735 1.00344 0
M  V30 4317 O 403.661 -1.46135 1.27899 0
M  V30 4318 C 400.791 -2.32081 2.58371 0
M  V30 4319 C 399.745 -2.1112 3.72307 0
M  V30 4320 C 399.071 -3.46848 4.06941 0
M  V30 4321 C 400.371 -1.49276 5.00514 0
M  V30 4322 H 402.065 -0.585557 2.93618 0
M  V30 4323 H 399.611 -0.280218 1.41247 0
M  V30 4324 H 401.564 -3.02249 2.93639 0
M  V30 4325 H 400.288 -2.77758 1.71808 0
M  V30 4326 H 398.947 -1.43384 3.37397 0
M  V30 4327 H 398.595 -3.90184 3.17436 0
M  V30 4328 H 398.295 -3.33646 4.83688 0
M  V30 4329 H 399.819 -4.18369 4.44747 0
M  V30 4330 H 401.233 -2.09368 5.33702 0
M  V30 4331 H 399.63 -1.46632 5.8191 0
M  V30 4332 H 400.7 -0.459217 4.82721 0
M  V30 4333 N 402.043 -1.548 -0.295768 0
M  V30 4334 C 402.991 -1.86874 -1.38495 0
M  V30 4335 C 403.985 -0.742938 -1.52239 0
M  V30 4336 O 405.191 -0.926999 -1.54294 0
M  V30 4337 H 401.566 -0.592786 -0.462719 0
M  V30 4338 H 403.537 -2.77904 -1.08682 0
M  V30 4339 C 402.286 -2.13732 -2.74252 0
M  V30 4340 H 401.609 -2.99835 -2.64459 0
M  V30 4341 H 403.049 -2.4011 -3.49461 0
M  V30 4342 C 401.508 -0.937539 -3.23592 0
M  V30 4343 O 402.038 -0.160665 -4.01379 0
M  V30 4344 N 400.244 -0.741478 -2.80981 0
M  V30 4345 H 399.791 -1.37489 -2.1784 0
M  V30 4346 H 399.749 0.0597103 -3.14343 0
M  V30 4347 N 403.521 0.559213 -1.47345 0
M  V30 4348 C 404.451 1.67622 -1.62558 0
M  V30 4349 C 405.432 1.63331 -0.475087 0
M  V30 4350 O 406.617 1.80983 -0.704182 0
M  V30 4351 C 403.747 3.0626 -1.63774 0
M  V30 4352 C 402.701 3.25397 -2.7803 0
M  V30 4353 C 402.027 4.64801 -2.64318 0
M  V30 4354 C 403.327 3.10965 -4.19641 0
M  V30 4355 H 405.021 1.55146 -2.56067 0
M  V30 4356 H 402.567 0.744961 -1.23233 0
M  V30 4357 H 404.52 3.84247 -1.73008 0
M  V30 4358 H 403.244 3.1969 -0.66825 0
M  V30 4359 H 401.903 2.49817 -2.68304 0
M  V30 4360 H 401.551 4.75028 -1.65401 0
M  V30 4361 H 401.251 4.78555 -3.40968 0
M  V30 4362 H 402.775 5.44926 -2.75478 0
M  V30 4363 H 404.189 3.78772 -4.30354 0
M  V30 4364 H 402.586 3.36229 -4.97062 0
M  V30 4365 H 403.656 2.07736 -4.38148 0
M  V30 4366 N 404.999 1.35443 0.805782 0
M  V30 4367 C 406.239 1.30127 1.57627 0
M  V30 4368 C 406.603 -0.122567 1.91608 0
M  V30 4369 O 407.804 -0.300107 2.67119 0
M  V30 4370 C 406.075 2.18314 2.82973 0
M  V30 4371 S 407.634 2.30521 3.7337 0
M  V30 4372 H 404.452 0.462439 0.540066 0
M  V30 4373 H 407.054 1.70843 0.95042 0
M  V30 4374 H 405.758 3.20741 2.56034 0
M  V30 4375 H 405.289 1.78558 3.50543 0
M  V30 4376 H 407.304 1.49062 4.73281 0
M  V30 4377 N 406.477 -1.02803 1.19454 0
M  V30 4378 C 407.409 -2.11181 0.890807 0
M  V30 4379 C 408.422 -1.6238 -0.116829 0
M  V30 4380 O 409.611 -1.78144 0.112694 0
M  V30 4381 C 406.711 -3.37461 0.311942 0
M  V30 4382 C 405.884 -4.15446 1.36834 0
M  V30 4383 C 404.943 -5.20039 0.802864 0
M  V30 4384 O 403.969 -5.49602 1.48077 0
M  V30 4385 N 405.171 -5.79165 -0.393417 0
M  V30 4386 H 407.936 -2.37827 1.82369 0
M  V30 4387 H 405.497 -1.19101 1.09666 0
M  V30 4388 H 407.489 -4.0462 -0.0802225 0
M  V30 4389 H 406.059 -3.08156 -0.52524 0
M  V30 4390 H 405.279 -3.43423 1.93531 0
M  V30 4391 H 406.567 -4.64335 2.08015 0
M  V30 4392 H 405.965 -5.57466 -0.961658 0
M  V30 4393 H 404.522 -6.47729 -0.727351 0
M  V30 4394 N 407.956 -0.998596 -1.21925 0
M  V30 4395 C 409.181 -0.696015 -1.95372 0
M  V30 4396 C 409.606 0.733826 -1.73195 0
M  V30 4397 O 408.964 1.50242 -1.01474 0
M  V30 4398 C 409.012 -1.01466 -3.4603 0
M  V30 4399 O 408.116 -0.116415 -4.12236 0
M  V30 4400 H 407.457 -0.259938 -0.611006 0
M  V30 4401 H 409.987 -1.33711 -1.54863 0
M  V30 4402 H 409.997 -0.958855 -3.96573 0
M  V30 4403 H 408.672 -2.05653 -3.61497 0
M  V30 4404 H 407.249 -0.228193 -3.72201 0
M  V30 4405 N 409.434 1.37368 -0.772513 0
M  V30 4406 C 410.683 1.98918 -0.333861 0
M  V30 4407 C 410.996 1.62017 1.09589 0
M  V30 4408 O 412.202 2.16676 1.63596 0
M  V30 4409 C 410.658 3.55735 -0.545971 0
M  V30 4410 C 410.266 4.01573 -1.98603 0
M  V30 4411 C 412.01 4.24156 -0.170979 0
M  V30 4412 C 409.917 5.51102 -2.1457 0
M  V30 4413 H 408.847 0.744214 -0.121085 0
M  V30 4414 H 411.498 1.56888 -0.95175 0
M  V30 4415 H 409.88 3.95748 0.141387 0
M  V30 4416 H 411.054 3.72803 -2.7084 0
M  V30 4417 H 409.369 3.45937 -2.31769 0
M  V30 4418 H 411.966 5.34024 -0.26878 0
M  V30 4419 H 412.309 4.06917 0.878855 0
M  V30 4420 H 412.842 3.89447 -0.810914 0
M  V30 4421 H 409.581 5.73268 -3.17875 0
M  V30 4422 H 409.101 5.81554 -1.46817 0
M  V30 4423 H 410.78 6.17083 -1.94468 0
M  V30 4424 N 410.912 0.523116 1.48665 0
M  V30 4425 C 411.845 -0.290518 2.26343 0
M  V30 4426 C 412.823 -0.950913 1.31895 0
M  V30 4427 O 414.007 -0.976662 1.61225 0
M  V30 4428 C 411.134 -1.41088 3.07915 0
M  V30 4429 C 410.18 -0.862597 4.17686 0
M  V30 4430 S 411.013 0.264135 5.34848 0
M  V30 4431 C 412.169 -0.858864 6.19979 0
M  V30 4432 H 412.402 0.368726 2.95005 0
M  V30 4433 H 409.935 0.30878 1.51281 0
M  V30 4434 H 411.893 -2.0527 3.55492 0
M  V30 4435 H 410.554 -2.04182 2.38681 0
M  V30 4436 H 409.747 -1.70287 4.74361 0
M  V30 4437 H 409.349 -0.297595 3.72814 0
M  V30 4438 H 411.641 -1.7591 6.54264 0
M  V30 4439 H 412.584 -0.330244 7.07329 0
M  V30 4440 H 412.992 -1.13617 5.52948 0
M  V30 4441 N 412.39 -1.55475 0.257931 0
M  V30 4442 C 413.338 -2.23244 -0.653076 0
M  V30 4443 C 414.332 -1.22366 -1.17144 0
M  V30 4444 O 415.538 -1.40347 -1.12706 0
M  V30 4445 H 411.913 -0.716247 -0.229117 0
M  V30 4446 H 413.884 -2.98343 -0.0584788 0
M  V30 4447 C 412.633 -2.95401 -1.83395 0
M  V30 4448 H 411.956 -3.72802 -1.44424 0
M  V30 4449 H 413.396 -3.46165 -2.44838 0
M  V30 4450 C 411.855 -1.99895 -2.71189 0
M  V30 4451 O 412.385 -1.53909 -3.71046 0
M  V30 4452 N 410.591 -1.6676 -2.3799 0
M  V30 4453 H 410.138 -2.04352 -1.56837 0
M  V30 4454 H 410.096 -1.03127 -2.97005 0
M  V30 4455 N 413.868 0.0150385 -1.57593 0
M  V30 4456 C 415.145 0.7392 -1.81094 0
M  V30 4457 C 415.525 1.92817 -0.859344 0
M  V30 4458 O 414.873 2.28301 0.095362 0
M  V30 4459 C 415.083 1.15907 -3.29191 0
M  V30 4460 C 416.431 1.56918 -3.9454 0
M  V30 4461 O 417.455 1.25328 -3.33424 0
M  V30 4462 O 416.314 2.15604 -5.02173 0
M  V30 4463 H 413.408 0.358631 -0.745193 0
M  V30 4464 H 415.954 -0.00926156 -1.69697 0
M  V30 4465 H 414.726 0.310921 -3.90063 0
M  V30 4466 H 414.349 1.96711 -3.45529 0
M  V30 4467 N 415.346 1.54954 0.287554 0
M  V30 4468 C 416.623 1.65569 1.04146 0
M  V30 4469 C 417.003 0.512672 2.0478 0
M  V30 4470 O 416.351 -0.489038 2.23205 0
M  V30 4471 C 416.561 3.04163 1.71131 0
M  V30 4472 C 417.909 3.61429 2.22832 0
M  V30 4473 O 418.933 3.06702 1.81141 0
M  V30 4474 O 417.792 4.57281 2.9926 0
M  V30 4475 H 414.886 0.671881 0.482188 0
M  V30 4476 H 417.432 1.67297 0.28457 0
M  V30 4477 H 416.204 3.78796 0.981303 0
M  V30 4478 H 415.827 3.06271 2.53543 0
M  V30 4479 N 416.824 -0.551391 1.4764 0
M  V30 4480 C 417.771 -1.65796 1.60563 0
M  V30 4481 C 418.741 -1.59932 0.448428 0
M  V30 4482 O 419.926 -1.78679 0.669222 0
M  V30 4483 C 417.066 -3.04108 1.63133 0
M  V30 4484 C 416.179 -3.20365 2.89811 0
M  V30 4485 C 415.314 -4.49109 2.8368 0
M  V30 4486 C 414.353 -4.58819 4.05156 0
M  V30 4487 N 413.49 -5.78926 3.97227 0
M  V30 4488 H 418.33 -1.54088 2.5507 0
M  V30 4489 H 415.867 -0.75052 1.26513 0
M  V30 4490 H 417.825 -3.84207 1.62606 0
M  V30 4491 H 416.455 -3.14637 0.721341 0
M  V30 4492 H 415.507 -2.33659 3.00179 0
M  V30 4493 H 416.819 -3.23402 3.79753 0
M  V30 4494 H 415.973 -5.37475 2.81434 0
M  V30 4495 H 414.712 -4.4856 1.91431 0
M  V30 4496 H 413.717 -3.68864 4.077 0
M  V30 4497 H 414.942 -4.61124 4.98539 0
M  V30 4498 H 412.888 -5.79314 3.07785 0
M  V30 4499 H 412.805 -5.83367 4.80853 0
M  V30 4500 H 414.073 -6.69637 3.99007 0
M  V30 4501 N 418.302 -1.35869 -0.798587 0
M  V30 4502 C 419.212 -1.31578 -1.94228 0
M  V30 4503 C 420.228 -0.21939 -1.72611 0
M  V30 4504 O 421.404 -0.450167 -1.96305 0
M  V30 4505 C 418.469 -1.09528 -3.28944 0
M  V30 4506 C 417.53 -2.28556 -3.63402 0
M  V30 4507 C 416.763 -2.07549 -4.9169 0
M  V30 4508 O 416.986 -1.046 -5.60727 0
M  V30 4509 O 415.92 -2.95106 -5.24591 0
M  V30 4510 H 419.746 -2.27847 -2.00796 0
M  V30 4511 H 417.331 -1.16322 -0.937526 0
M  V30 4512 H 419.213 -0.991127 -4.09579 0
M  V30 4513 H 417.888 -0.16315 -3.23289 0
M  V30 4514 H 416.795 -2.44538 -2.83112 0
M  V30 4515 H 418.128 -3.20244 -3.73771 0
M  V30 4516 N 419.78 1.02168 -1.19998 0
M  V30 4517 C 420.727 2.10601 -0.944228 0
M  V30 4518 C 421.697 1.65639 0.123664 0
M  V30 4519 O 422.882 1.9079 -0.0199941 0
M  V30 4520 C 420.022 3.41504 -0.496865 0
M  V30 4521 C 419.135 3.99973 -1.63234 0
M  V30 4522 C 418.27 5.18915 -1.13579 0
M  V30 4523 C 417.309 5.69456 -2.24468 0
M  V30 4524 N 416.446 6.79665 -1.76068 0
M  V30 4525 H 421.286 2.31814 -1.8726 0
M  V30 4526 H 418.823 1.13686 -0.933483 0
M  V30 4527 H 420.781 4.16626 -0.218843 0
M  V30 4528 H 419.411 3.2038 0.394508 0
M  V30 4529 H 418.463 3.21997 -2.0254 0
M  V30 4530 H 419.775 4.33492 -2.46752 0
M  V30 4531 H 418.929 6.01222 -0.813429 0
M  V30 4532 H 417.668 4.8695 -0.270434 0
M  V30 4533 H 416.673 4.85757 -2.57526 0
M  V30 4534 H 417.898 6.03459 -3.11472 0
M  V30 4535 H 415.844 6.49538 -0.918516 0
M  V30 4536 H 415.761 7.12349 -2.5317 0
M  V30 4537 H 417.029 7.65549 -1.46817 0
M  V30 4538 N 421.258 1.00505 1.21394 0
M  V30 4539 C 422.488 0.705584 1.94178 0
M  V30 4540 C 422.896 -0.735846 1.74304 0
M  V30 4541 O 422.239 -1.50954 1.04683 0
M  V30 4542 C 422.301 0.94689 3.46806 0
M  V30 4543 C 421.965 2.37517 3.90429 0
M  V30 4544 C 422.962 3.35539 3.97127 0
M  V30 4545 C 420.647 2.71284 4.22742 0
M  V30 4546 C 422.641 4.65395 4.3553 0
M  V30 4547 C 420.328 4.01356 4.60822 0
M  V30 4548 C 421.326 4.98223 4.67186 0
M  V30 4549 O 421.014 6.25969 5.04399 0
M  V30 4550 H 420.746 0.259216 0.624326 0
M  V30 4551 H 423.3 1.34592 1.55159 0
M  V30 4552 H 421.53 0.249386 3.85895 0
M  V30 4553 H 423.219 0.640804 4.0081 0
M  V30 4554 H 423.985 3.10786 3.7234 0
M  V30 4555 H 419.864 1.96581 4.16985 0
M  V30 4556 H 423.408 5.41002 4.40412 0
M  V30 4557 H 419.305 4.25893 4.85063 0
M  V30 4558 H 420.073 6.30085 5.22431 0
M  V30 4559 N 422.737 -1.36956 0.779787 0
M  V30 4560 C 423.965 -2.03755 0.359398 0
M  V30 4561 C 424.38 -1.58807 -1.02106 0
M  V30 4562 O 423.737 -0.773024 -1.6532 0
M  V30 4563 C 423.788 -3.59251 0.402568 0
M  V30 4564 O 423.509 -4.02557 1.72858 0
M  V30 4565 C 425.01 -4.43291 -0.0284068 0
M  V30 4566 H 422.23 -0.654148 0.149437 0
M  V30 4567 H 424.774 -1.75128 1.05595 0
M  V30 4568 H 422.929 -3.86621 -0.245478 0
M  V30 4569 H 423.343 -4.97111 1.67275 0
M  V30 4570 H 424.817 -5.51975 0.0529466 0
M  V30 4571 H 425.294 -4.25719 -1.07982 0
M  V30 4572 H 425.9 -4.21163 0.591758 0
M  V30 4573 N 424.215 -0.530993 -1.48385 0
M  V30 4574 C 425.162 0.231223 -2.29639 0
M  V30 4575 C 426.132 0.932864 -1.37429 0
M  V30 4576 O 427.317 0.933692 -1.66394 0
M  V30 4577 C 424.457 1.27155 -3.2082 0
M  V30 4578 C 423.57 0.578655 -4.28107 0
M  V30 4579 C 422.705 1.602 -5.06467 0
M  V30 4580 C 421.744 0.892625 -6.05556 0
M  V30 4581 N 420.881 1.86157 -6.76971 0
M  V30 4582 H 425.721 -0.467848 -2.94305 0
M  V30 4583 H 423.258 -0.242556 -1.45086 0
M  V30 4584 H 425.216 1.88703 -3.72085 0
M  V30 4585 H 423.846 1.939 -2.58075 0
M  V30 4586 H 422.898 -0.150782 -3.80101 0
M  V30 4587 H 424.21 0.0217065 -4.98795 0
M  V30 4588 H 423.364 2.29173 -5.61751 0
M  V30 4589 H 422.103 2.19285 -4.35621 0
M  V30 4590 H 421.108 0.188829 -5.49476 0
M  V30 4591 H 422.333 0.307878 -6.78402 0
M  V30 4592 H 420.279 2.44147 -6.08875 0
M  V30 4593 H 420.196 1.35608 -7.43738 0
M  V30 4594 H 421.464 2.54325 -7.36844 0
M  V30 4595 N 425.693 1.55336 -0.266172 0
M  V30 4596 C 426.626 2.18256 0.666296 0
M  V30 4597 C 427.604 1.14064 1.1588 0
M  V30 4598 O 428.788 1.42546 1.23341 0
M  V30 4599 C 425.915 2.79867 1.90768 0
M  V30 4600 C 424.961 3.97283 1.55141 0
M  V30 4601 S 425.794 5.31694 0.637313 0
M  V30 4602 C 426.95 5.96769 1.88727 0
M  V30 4603 H 427.183 2.97008 0.131647 0
M  V30 4604 H 424.716 1.54317 -0.0504869 0
M  V30 4605 H 426.674 3.15996 2.62025 0
M  V30 4606 H 425.335 2.01025 2.41346 0
M  V30 4607 H 424.528 4.3905 2.4749 0
M  V30 4608 H 424.13 3.6253 0.919113 0
M  V30 4609 H 426.422 6.15458 2.83227 0
M  V30 4610 H 427.365 6.91752 1.51276 0
M  V30 4611 H 427.773 5.26034 2.04814 0
M  V30 4612 N 427.171 -0.0066808 1.57599 0
M  V30 4613 C 428.101 -0.999296 2.11036 0
M  V30 4614 C 429.082 -1.36278 1.01795 0
M  V30 4615 O 430.267 -1.4477 1.29442 0
M  V30 4616 C 427.397 -2.29328 2.60818 0
M  V30 4617 C 426.351 -2.07159 3.74525 0
M  V30 4618 C 425.677 -3.42512 4.10596 0
M  V30 4619 C 426.977 -1.43959 5.02069 0
M  V30 4620 H 428.671 -0.554382 2.94223 0
M  V30 4621 H 426.217 -0.265221 1.41536 0
M  V30 4622 H 428.17 -2.99117 2.96828 0
M  V30 4623 H 426.894 -2.7592 1.74745 0
M  V30 4624 H 425.553 -1.39797 3.38899 0
M  V30 4625 H 425.201 -3.86795 3.21556 0
M  V30 4626 H 424.901 -3.28498 4.87199 0
M  V30 4627 H 426.425 -4.13628 4.4916 0
M  V30 4628 H 427.839 -2.03696 5.35893 0
M  V30 4629 H 426.236 -1.40452 5.83432 0
M  V30 4630 H 427.306 -0.407992 4.83181 0
M  V30 4631 N 428.649 -1.55105 -0.279332 0
M  V30 4632 C 429.877 -1.7943 -1.03017 0
M  V30 4633 C 430.292 -0.564456 -1.80165 0
M  V30 4634 O 429.649 0.466326 -1.76442 0
M  V30 4635 C 429.7 -3.0155 -1.99374 0
M  V30 4636 O 429.421 -4.19784 -1.25352 0
M  V30 4637 C 430.922 -3.3843 -2.86321 0
M  V30 4638 H 428.142 -0.597882 -0.304594 0
M  V30 4639 H 430.686 -2.02105 -0.312035 0
M  V30 4640 H 428.841 -2.81019 -2.66659 0
M  V30 4641 H 429.255 -4.88781 -1.90246 0
M  V30 4642 H 430.729 -4.27066 -3.49741 0
M  V30 4643 H 431.206 -2.57549 -3.5576 0
M  V30 4644 H 431.812 -3.61197 -2.24536 0
M  V30 4645 N 430.127 0.543554 -1.4793 0
M  V30 4646 C 431.075 1.67039 -1.61866 0
M  V30 4647 C 432.069 1.62294 -0.48549 0
M  V30 4648 O 433.275 1.67315 -0.66376 0
M  V30 4649 H 429.65 0.552954 -0.509652 0
M  V30 4650 H 431.621 1.52426 -2.56533 0
M  V30 4651 C 430.37 3.05357 -1.6629 0
M  V30 4652 H 429.693 3.09696 -2.5284 0
M  V30 4653 H 431.133 3.83855 -1.80088 0
M  V30 4654 C 429.592 3.34531 -0.398861 0
M  V30 4655 O 430.122 3.98649 0.494162 0
M  V30 4656 N 428.328 2.89299 -0.2747 0
M  V30 4657 H 427.875 2.37298 -1.00236 0
M  V30 4658 H 427.833 3.09188 0.570075 0
M  V30 4659 N 431.605 1.3629 0.791371 0
M  V30 4660 C 432.854 1.29742 1.54434 0
M  V30 4661 C 433.167 -0.121729 1.95221 0
M  V30 4662 O 434.373 -0.309579 2.69729 0
M  V30 4663 C 432.829 2.27623 2.78776 0
M  V30 4664 C 432.437 3.74963 2.45166 0
M  V30 4665 C 434.181 2.30047 3.56761 0
M  V30 4666 C 432.088 4.64626 3.65891 0
M  V30 4667 H 431.018 0.482113 0.579727 0
M  V30 4668 H 433.669 1.61642 0.868565 0
M  V30 4669 H 432.051 1.88714 3.48142 0
M  V30 4670 H 433.225 4.22596 1.83709 0
M  V30 4671 H 431.54 3.75295 1.80396 0
M  V30 4672 H 434.137 2.94247 4.46456 0
M  V30 4673 H 434.48 1.30846 3.95203 0
M  V30 4674 H 435.013 2.67563 2.94372 0
M  V30 4675 H 431.752 5.64883 3.32547 0
M  V30 4676 H 431.272 4.2171 4.26521 0
M  V30 4677 H 432.951 4.80801 4.32943 0
M  V30 4678 N 433.083 -1.0153 1.20538 0
M  V30 4679 C 434.331 -1.74803 1.01432 0
M  V30 4680 C 434.652 -1.8963 -0.454456 0
M  V30 4681 O 433.922 -1.43975 -1.32846 0
M  V30 4682 H 432.502 -0.647598 0.372324 0
M  V30 4683 H 435.164 -1.22402 1.5167 0
M  V30 4684 H 434.26 -2.75114 1.47373 0
M  V30 4685 N 434.561 -1.01147 -1.20859 0
M  V30 4686 C 435.807 -0.698899 -1.90377 0
M  V30 4687 C 436.14 0.76904 -1.78324 0
M  V30 4688 O 435.415 1.55817 -1.16409 0
M  V30 4689 C 435.698 -1.12878 -3.41951 0
M  V30 4690 C 435.551 -2.65665 -3.62963 0
M  V30 4691 C 436.87 -0.696114 -4.3456 0
M  V30 4692 H 433.989 -0.255372 -0.691342 0
M  V30 4693 H 436.631 -1.25831 -1.42361 0
M  V30 4694 H 434.781 -0.652827 -3.82976 0
M  V30 4695 H 436.453 -3.21074 -3.31224 0
M  V30 4696 H 434.696 -3.06878 -3.06608 0
M  V30 4697 H 435.367 -2.90797 -4.69192 0
M  V30 4698 H 437.843 -1.10521 -4.01154 0
M  V30 4699 H 436.719 -1.025 -5.39245 0
M  V30 4700 H 436.98 0.402465 -4.40264 0
M  V30 4701 N 436.039 1.36541 -0.78704 0
M  V30 4702 C 436.949 2.3387 -0.184896 0
M  V30 4703 C 437.965 1.60927 0.661697 0
M  V30 4704 O 439.141 1.92927 0.57804 0
M  V30 4705 C 436.206 3.40122 0.672145 0
M  V30 4706 C 435.267 4.28867 -0.19267 0
M  V30 4707 C 434.5 5.30045 0.623561 0
M  V30 4708 O 434.723 5.39232 1.8597 0
M  V30 4709 O 433.657 6.01895 0.0247068 0
M  V30 4710 H 437.483 2.87126 -0.989562 0
M  V30 4711 H 435.068 1.38969 -0.548455 0
M  V30 4712 H 436.95 4.05093 1.16094 0
M  V30 4713 H 435.625 2.89169 1.45474 0
M  V30 4714 H 434.532 3.66945 -0.728166 0
M  V30 4715 H 435.865 4.83165 -0.938722 0
M  V30 4716 N 437.518 0.538854 1.48102 0
M  V30 4717 C 438.448 -0.207654 2.32575 0
M  V30 4718 C 439.429 -0.926559 1.4265 0
M  V30 4719 O 440.614 -0.91061 1.71527 0
M  V30 4720 C 437.744 -1.24957 3.24042 0
M  V30 4721 C 436.698 -0.648263 4.23062 0
M  V30 4722 C 436.024 -1.79348 5.03725 0
M  V30 4723 C 437.324 0.385897 5.20872 0
M  V30 4724 H 439.018 0.497534 2.95237 0
M  V30 4725 H 436.564 0.240715 1.41974 0
M  V30 4726 H 438.517 -1.77983 3.81969 0
M  V30 4727 H 437.241 -1.98446 2.59397 0
M  V30 4728 H 435.9 -0.139452 3.66335 0
M  V30 4729 H 435.548 -2.51696 4.35498 0
M  V30 4730 H 435.248 -1.39702 5.70751 0
M  V30 4731 H 436.772 -2.32735 5.64506 0
M  V30 4732 H 438.186 -0.057607 5.73271 0
M  V30 4733 H 436.583 0.700227 5.96001 0
M  V30 4734 H 437.653 1.28848 4.67468 0
M  V30 4735 N 438.996 -1.55193 0.274407 0
M  V30 4736 C 439.943 -2.225 -0.613374 0
M  V30 4737 C 440.913 -1.19823 -1.15029 0
M  V30 4738 O 442.098 -1.48362 -1.19973 0
M  V30 4739 C 439.238 -2.94927 -1.79199 0
M  V30 4740 C 438.351 -4.12322 -1.28899 0
M  V30 4741 C 437.486 -4.72394 -2.42934 0
M  V30 4742 C 436.525 -5.81984 -1.89634 0
M  V30 4743 N 435.662 -6.36123 -2.9714 0
M  V30 4744 H 440.502 -2.97982 -0.032756 0
M  V30 4745 H 438.039 -1.47099 -0.00440146 0
M  V30 4746 H 439.997 -3.35134 -2.48478 0
M  V30 4747 H 438.627 -2.2187 -2.34465 0
M  V30 4748 H 437.679 -3.7724 -0.489327 0
M  V30 4749 H 438.991 -4.91355 -0.858587 0
M  V30 4750 H 438.145 -5.15317 -3.20208 0
M  V30 4751 H 436.884 -3.92636 -2.8929 0
M  V30 4752 H 435.889 -5.38511 -1.1084 0
M  V30 4753 H 437.114 -6.6361 -1.44215 0
M  V30 4754 H 435.06 -5.59259 -3.42878 0
M  V30 4755 H 434.977 -7.10427 -2.58515 0
M  V30 4756 H 436.245 -6.83704 -3.74391 0
M  V30 4757 N 440.474 -0.00167713 -1.576 0
M  V30 4758 C 441.722 0.681471 -1.90264 0
M  V30 4759 C 442.043 1.7422 -0.875924 0
M  V30 4760 O 441.313 1.95709 0.0864412 0
M  V30 4761 H 439.893 0.254696 -0.702239 0
M  V30 4762 H 442.555 -0.0429996 -1.94853 0
M  V30 4763 H 441.651 1.15166 -2.90075 0
M  V30 4764 N 441.952 1.55251 0.271103 0
M  V30 4765 C 443.229 1.66664 1.02384 0
M  V30 4766 C 443.609 0.534363 2.04225 0
M  V30 4767 O 442.957 -0.465337 2.23712 0
M  V30 4768 C 443.167 3.05961 1.67895 0
M  V30 4769 C 444.515 3.63772 2.18986 0
M  V30 4770 O 445.539 3.08606 1.77878 0
M  V30 4771 O 444.398 4.60429 2.94393 0
M  V30 4772 H 441.492 0.676957 0.475035 0
M  V30 4773 H 444.038 1.67589 0.26681 0
M  V30 4774 H 442.81 3.79815 0.941071 0
M  V30 4775 H 442.433 3.08943 2.5028 0
M  V30 4776 N 443.43 -0.535701 1.48216 0
M  V30 4777 C 444.707 -1.29683 1.46429 0
M  V30 4778 C 445.087 -2.10391 0.172852 0
M  V30 4779 O 444.435 -2.12282 -0.845488 0
M  V30 4780 C 444.645 -2.18313 2.72287 0
M  V30 4781 C 445.993 -2.78639 3.20383 0
M  V30 4782 O 447.017 -2.28604 2.73164 0
M  V30 4783 O 445.876 -3.69636 4.02531 0
M  V30 4784 H 442.97 -0.585026 0.584529 0
M  V30 4785 H 445.516 -0.552827 1.60443 0
M  V30 4786 H 444.288 -1.58421 3.57797 0
M  V30 4787 H 443.911 -2.99971 2.60966 0
M  V30 4788 N 444.908 -1.36708 -0.784132 0
M  V30 4789 C 445.855 -1.31466 -1.89698 0
M  V30 4790 C 446.825 -0.18239 -1.65096 0
M  V30 4791 O 448.01 -0.369762 -1.87183 0
M  V30 4792 C 445.15 -1.1151 -3.26588 0
M  V30 4793 C 444.263 -2.33859 -3.63227 0
M  V30 4794 C 443.398 -2.06873 -4.89262 0
M  V30 4795 C 442.437 -3.25154 -5.18595 0
M  V30 4796 N 441.574 -2.978 -6.35814 0
M  V30 4797 H 446.414 -2.26619 -1.93515 0
M  V30 4798 H 443.951 -1.12625 -0.946256 0
M  V30 4799 H 445.909 -0.979653 -4.05535 0
M  V30 4800 H 444.539 -0.200103 -3.22179 0
M  V30 4801 H 443.591 -2.58188 -2.79362 0
M  V30 4802 H 444.903 -3.22109 -3.8085 0
M  V30 4803 H 444.057 -1.90289 -5.76086 0
M  V30 4804 H 442.796 -1.15942 -4.73718 0
M  V30 4805 H 441.801 -3.42292 -4.30251 0
M  V30 4806 H 443.026 -4.1692 -5.36055 0
M  V30 4807 H 440.972 -2.09485 -6.21653 0
M  V30 4808 H 440.889 -3.7959 -6.53794 0
M  V30 4809 H 442.157 -2.84805 -7.25607 0
M  V30 4810 N 446.386 1.0089 -1.21074 0
M  V30 4811 C 447.316 2.1145 -0.990523 0
M  V30 4812 C 448.297 1.69897 0.0831699 0
M  V30 4813 O 449.482 1.94052 -0.0758853 0
M  V30 4814 C 446.612 3.42914 -0.550177 0
M  V30 4815 C 445.566 3.98244 -1.56799 0
M  V30 4816 C 444.892 5.25568 -0.984013 0
M  V30 4817 C 446.192 4.30752 -2.95381 0
M  V30 4818 H 447.886 2.3013 -1.91521 0
M  V30 4819 H 445.432 1.10592 -0.92225 0
M  V30 4820 H 447.385 4.19653 -0.383305 0
M  V30 4821 H 446.109 3.24014 0.41015 0
M  V30 4822 H 444.768 3.23621 -1.72236 0
M  V30 4823 H 444.416 5.02998 -0.0155216 0
M  V30 4824 H 444.116 5.63551 -1.66384 0
M  V30 4825 H 445.64 6.04955 -0.828378 0
M  V30 4826 H 447.054 4.98349 -2.8341 0
M  V30 4827 H 445.451 4.79869 -3.60341 0
M  V30 4828 H 446.521 3.39192 -3.46521 0
M  V30 4829 N 447.864 1.01787 1.20321 0
M  V30 4830 C 448.794 0.609625 2.25401 0
M  V30 4831 C 449.775 -0.375951 1.65893 0
M  V30 4832 O 450.96 -0.261101 1.92437 0
M  V30 4833 C 448.09 -0.0515995 3.47262 0
M  V30 4834 C 447.044 0.855095 4.19371 0
M  V30 4835 C 446.37 0.0595757 5.34667 0
M  V30 4836 C 447.67 2.16374 4.75373 0
M  V30 4837 H 449.364 1.48803 2.59804 0
M  V30 4838 H 446.91 0.716934 1.24884 0
M  V30 4839 H 448.863 -0.348764 4.19954 0
M  V30 4840 H 447.587 -0.964726 3.12027 0
M  V30 4841 H 446.246 1.13628 3.48546 0
M  V30 4842 H 445.894 -0.85524 4.95676 0
M  V30 4843 H 445.594 0.663406 5.83843 0
M  V30 4844 H 447.118 -0.231105 6.10162 0
M  V30 4845 H 448.532 1.92885 5.39878 0
M  V30 4846 H 446.929 2.71853 5.34991 0
M  V30 4847 H 447.999 2.82589 3.94045 0
M  V30 4848 N 449.342 -1.36122 0.79427 0
M  V30 4849 C 450.57 -2.03362 0.380989 0
M  V30 4850 C 450.985 -1.59881 -1.00416 0
M  V30 4851 O 450.342 -0.790515 -1.6449 0
M  V30 4852 C 450.393 -3.58804 0.440649 0
M  V30 4853 O 450.114 -4.007 1.77118 0
M  V30 4854 C 451.615 -4.43296 0.0186117 0
M  V30 4855 H 448.835 -0.652526 0.156367 0
M  V30 4856 H 451.379 -1.73998 1.07447 0
M  V30 4857 H 449.534 -3.8686 -0.204458 0
M  V30 4858 H 449.948 -4.95309 1.72538 0
M  V30 4859 H 451.422 -5.51887 0.111488 0
M  V30 4860 H 451.899 -4.2684 -1.03461 0
M  V30 4861 H 452.505 -4.20512 0.636395 0
M  V30 4862 N 450.82 -0.546701 -1.47814 0
M  V30 4863 C 452.068 -0.0187037 -2.02091 0
M  V30 4864 C 452.389 1.33168 -1.42447 0
M  V30 4865 O 451.659 1.86619 -0.595839 0
M  V30 4866 H 450.239 -0.00392531 -0.74699 0
M  V30 4867 H 452.901 -0.714327 -1.81338 0
M  V30 4868 H 451.997 0.0772219 -3.12004 0
M  V30 4869 N 452.299 1.55045 -0.282633 0
M  V30 4870 C 453.246 2.22822 0.601566 0
M  V30 4871 C 454.216 1.20431 1.14392 0
M  V30 4872 O 455.401 1.48996 1.19184 0
M  V30 4873 C 452.541 2.95873 1.77632 0
M  V30 4874 C 451.654 4.12999 1.26711 0
M  V30 4875 C 450.789 4.73676 2.40426 0
M  V30 4876 C 449.828 5.82981 1.86545 0
M  V30 4877 N 448.965 6.3769 2.93762 0
M  V30 4878 H 453.805 2.97995 0.0169528 0
M  V30 4879 H 451.342 1.471 -0.00339964 0
M  V30 4880 H 453.3 3.36447 2.46697 0
M  V30 4881 H 451.93 2.2311 2.33285 0
M  V30 4882 H 450.982 3.77494 0.469314 0
M  V30 4883 H 452.294 4.91803 0.832518 0
M  V30 4884 H 451.448 5.17008 3.17471 0
M  V30 4885 H 450.187 3.94164 2.87203 0
M  V30 4886 H 449.192 5.39092 1.07983 0
M  V30 4887 H 450.417 6.64366 1.40694 0
M  V30 4888 H 448.363 5.61069 3.39908 0
M  V30 4889 H 448.28 7.11788 2.54744 0
M  V30 4890 H 449.548 6.8568 3.7076 0
M  V30 4891 N 453.777 0.010035 1.57597 0
M  V30 4892 C 454.709 -1.00649 2.05918 0
M  V30 4893 C 455.722 -1.30077 0.978964 0
M  V30 4894 O 456.911 -1.26878 1.25556 0
M  V30 4895 C 454.011 -2.33876 2.45265 0
M  V30 4896 C 453.184 -2.23242 3.7614 0
M  V30 4897 C 452.243 -3.39242 4.02245 0
M  V30 4898 O 451.269 -3.1698 4.72771 0
M  V30 4899 N 452.471 -4.6242 3.50924 0
M  V30 4900 H 455.236 -0.594333 2.93748 0
M  V30 4901 H 452.797 -0.17714 1.60928 0
M  V30 4902 H 454.789 -3.1027 2.59836 0
M  V30 4903 H 453.359 -2.66799 1.62902 0
M  V30 4904 H 452.579 -1.31696 3.71551 0
M  V30 4905 H 453.867 -2.13321 4.61922 0
M  V30 4906 H 453.265 -4.83404 2.93832 0
M  V30 4907 H 451.822 -5.36046 3.70807 0
M  V30 4908 N 455.255 -1.55392 -0.262866 0
M  V30 4909 C 456.185 -1.91978 -1.32917 0
M  V30 4910 C 457.166 -0.7828 -1.51017 0
M  V30 4911 O 458.351 -1.04178 -1.63892 0
M  V30 4912 C 455.481 -2.20055 -2.68687 0
M  V30 4913 C 454.435 -3.35854 -2.65304 0
M  V30 4914 C 453.761 -3.49435 -4.04721 0
M  V30 4915 C 455.061 -4.71977 -2.23685 0
M  V30 4916 H 456.755 -2.81292 -1.02544 0
M  V30 4917 H 454.301 -1.3534 -0.491846 0
M  V30 4918 H 456.254 -2.44237 -3.43404 0
M  V30 4919 H 454.978 -1.27551 -3.00663 0
M  V30 4920 H 453.637 -3.11655 -1.93045 0
M  V30 4921 H 453.285 -2.54379 -4.33936 0
M  V30 4922 H 452.985 -4.27297 -4.0335 0
M  V30 4923 H 454.509 -3.7592 -4.81161 0
M  V30 4924 H 455.923 -4.95637 -2.88127 0
M  V30 4925 H 454.32 -5.52828 -2.33456 0
M  V30 4926 H 455.39 -4.70115 -1.18827 0
M  V30 4927 N 456.733 0.527833 -1.48498 0
M  V30 4928 C 457.663 1.64136 -1.66077 0
M  V30 4929 C 458.644 1.62286 -0.509625 0
M  V30 4930 O 459.829 1.79449 -0.742413 0
M  V30 4931 C 456.959 3.02717 -1.70234 0
M  V30 4932 C 455.913 3.19426 -2.8487 0
M  V30 4933 C 455.239 4.5909 -2.74118 0
M  V30 4934 C 456.539 3.01993 -4.26142 0
M  V30 4935 H 458.233 1.4968 -2.593 0
M  V30 4936 H 455.779 0.718654 -1.24785 0
M  V30 4937 H 457.732 3.80491 -1.8112 0
M  V30 4938 H 456.456 3.18201 -0.735911 0
M  V30 4939 H 455.115 2.4407 -2.73542 0
M  V30 4940 H 454.763 4.71413 -1.7544 0
M  V30 4941 H 454.463 4.71214 -3.51042 0
M  V30 4942 H 455.987 5.3896 -2.86974 0
M  V30 4943 H 457.401 3.69558 -4.38292 0
M  V30 4944 H 455.798 3.2561 -5.04082 0
M  V30 4945 H 456.868 1.98396 -4.42456 0
M  V30 4946 N 458.211 1.37122 0.776871 0
M  V30 4947 C 459.158 1.3247 1.88998 0
M  V30 4948 C 460.128 0.191143 1.64997 0
M  V30 4949 O 461.313 0.379683 1.86984 0
M  V30 4950 C 458.453 1.13241 3.25992 0
M  V30 4951 C 457.566 2.35782 3.61982 0
M  V30 4952 C 456.701 2.09465 4.88158 0
M  V30 4953 C 455.74 3.279 5.16864 0
M  V30 4954 N 454.877 3.01167 6.34226 0
M  V30 4955 H 459.717 2.27642 1.9231 0
M  V30 4956 H 457.254 1.13125 0.94027 0
M  V30 4957 H 459.212 1.00115 4.0501 0
M  V30 4958 H 457.842 0.217186 3.22069 0
M  V30 4959 H 456.894 2.59666 2.77989 0
M  V30 4960 H 458.206 3.24125 3.79137 0
M  V30 4961 H 457.36 1.93341 5.75069 0
M  V30 4962 H 456.099 1.18452 4.73097 0
M  V30 4963 H 455.104 3.44569 4.2843 0
M  V30 4964 H 456.329 4.19757 5.33836 0
M  V30 4965 H 454.275 2.12779 6.20533 0
M  V30 4966 H 454.192 3.83052 6.51772 0
M  V30 4967 H 455.46 2.88649 7.24087 0
M  V30 4968 N 459.689 -1.00246 1.21608 0
M  V30 4969 C 460.636 -2.09073 0.977613 0
M  V30 4970 C 461.606 -1.65815 -0.097297 0
M  V30 4971 O 462.791 -1.90734 0.0503445 0
M  V30 4972 C 459.931 -3.40671 0.551133 0
M  V30 4973 C 459.044 -3.97326 1.69576 0
M  V30 4974 C 458.179 -5.17043 1.2182 0
M  V30 4975 C 457.218 -5.65813 2.335 0
M  V30 4976 N 456.355 -6.76778 1.86859 0
M  V30 4977 H 461.195 -2.28806 1.90924 0
M  V30 4978 H 458.732 -1.12186 0.951452 0
M  V30 4979 H 460.69 -4.16225 0.285097 0
M  V30 4980 H 459.32 -3.20967 -0.343489 0
M  V30 4981 H 458.372 -3.18734 2.07637 0
M  V30 4982 H 459.684 -4.29511 2.53617 0
M  V30 4983 H 458.838 -5.99852 0.908975 0
M  V30 4984 H 457.577 -4.86458 0.347869 0
M  V30 4985 H 456.582 -4.81599 2.65222 0
M  V30 4986 H 457.807 -5.98427 3.21033 0
M  V30 4987 H 455.753 -6.47994 1.02174 0
M  V30 4988 H 455.67 -7.08231 2.64471 0
M  V30 4989 H 456.938 -7.63116 1.58978 0
M  V30 4990 N 461.167 -1.02423 -1.1978 0
M  V30 4991 C 462.13 -0.605703 -2.21052 0
M  V30 4992 C 463.13 0.328209 -1.57415 0
M  V30 4993 O 464.32 0.115853 -1.73814 0
M  V30 4994 C 461.452 0.114366 -3.40708 0
M  V30 4995 H 462.645 -1.5017 -2.59594 0
M  V30 4996 H 460.198 -0.814888 -1.33376 0
M  V30 4997 H 460.933 1.02492 -3.07678 0
M  V30 4998 H 460.718 -0.556641 -3.88129 0
M  V30 4999 H 462.208 0.394272 -4.15735 0
M  V30 5000 N 462.645 1.35699 -0.801477 0
M  V30 5001 C 463.578 2.2768 -0.153922 0
M  V30 5002 C 464.556 1.47832 0.67709 0
M  V30 5003 O 465.74 1.77104 0.645474 0
M  V30 5004 C 462.867 3.2943 0.786986 0
M  V30 5005 C 461.913 4.26485 0.0362447 0
M  V30 5006 S 462.746 5.19573 -1.2963 0
M  V30 5007 C 463.902 6.24866 -0.359705 0
M  V30 5008 H 464.135 2.82254 -0.9338 0
M  V30 5009 H 461.668 1.42421 -0.596283 0
M  V30 5010 H 463.626 3.8855 1.32436 0
M  V30 5011 H 462.287 2.73745 1.54021 0
M  V30 5012 H 461.48 4.98378 0.750668 0
M  V30 5013 H 461.082 3.71508 -0.431017 0
M  V30 5014 H 463.374 6.75957 0.456954 0
M  V30 5015 H 464.317 7.00307 -1.04768 0
M  V30 5016 H 464.725 5.64484 0.0423274 0
M  V30 5017 N 464.123 0.554532 1.47522 0
M  V30 5018 C 465.055 -0.232106 2.28022 0
M  V30 5019 C 466.068 -0.881865 1.36847 0
M  V30 5020 O 467.257 -0.756168 1.61692 0
M  V30 5021 C 464.357 -1.34604 3.11022 0
M  V30 5022 C 463.53 -0.793582 4.30141 0
M  V30 5023 C 462.589 -1.79168 4.94758 0
M  V30 5024 O 461.615 -1.33886 5.5323 0
M  V30 5025 N 462.817 -3.12495 4.89211 0
M  V30 5026 H 465.582 0.458407 2.96173 0
M  V30 5027 H 463.143 0.390433 1.57122 0
M  V30 5028 H 465.135 -2.01243 3.51118 0
M  V30 5029 H 463.705 -1.93983 2.45131 0
M  V30 5030 H 462.925 0.0495025 3.94169 0
M  V30 5031 H 464.213 -0.403776 5.07195 0
M  V30 5032 H 463.611 -3.51931 4.42901 0
M  V30 5033 H 462.168 -3.74698 5.33333 0
M  V30 5034 N 465.601 -1.54893 0.290851 0
M  V30 5035 C 466.531 -2.26103 -0.583084 0
M  V30 5036 C 467.512 -1.25684 -1.14619 0
M  V30 5037 O 468.697 -1.54436 -1.17741 0
M  V30 5038 C 465.827 -2.99409 -1.75987 0
M  V30 5039 C 464.781 -4.0689 -1.32758 0
M  V30 5040 C 464.107 -4.67856 -2.58872 0
M  V30 5041 C 465.407 -5.20215 -0.46624 0
M  V30 5042 H 467.101 -2.99398 0.0108214 0
M  V30 5043 H 464.647 -1.43998 0.00664468 0
M  V30 5044 H 466.6 -3.47943 -2.37727 0
M  V30 5045 H 465.324 -2.23675 -2.37985 0
M  V30 5046 H 463.983 -3.59191 -0.733299 0
M  V30 5047 H 463.631 -3.88772 -3.19163 0
M  V30 5048 H 463.331 -5.40438 -2.30653 0
M  V30 5049 H 464.855 -5.19147 -3.21433 0
M  V30 5050 H 466.269 -5.64704 -0.989047 0
M  V30 5051 H 464.666 -5.99455 -0.27826 0
M  V30 5052 H 465.736 -4.82198 0.511173 0
M  V30 5053 N 467.08 -0.0183926 -1.57589 0
M  V30 5054 C 468.326 0.657813 -1.92469 0
M  V30 5055 C 468.681 1.70349 -0.894375 0
M  V30 5056 O 467.974 1.91384 0.0910389 0
M  V30 5057 C 468.168 1.32676 -3.31861 0
M  V30 5058 C 467.997 0.347403 -4.48356 0
M  V30 5059 C 466.767 -0.0488653 -5.05276 0
M  V30 5060 C 468.965 -0.393931 -5.12789 0
M  V30 5061 N 466.947 -1.02451 -6.05291 0
M  V30 5062 C 468.318 -1.22367 -6.07804 0
M  V30 5063 C 470.373 -0.455789 -4.95809 0
M  V30 5064 C 469.076 -2.10966 -6.87667 0
M  V30 5065 C 471.102 -1.32908 -5.76272 0
M  V30 5066 C 470.464 -2.14662 -6.70894 0
M  V30 5067 H 466.563 0.21335 -0.752334 0
M  V30 5068 H 469.147 -0.0830547 -1.94523 0
M  V30 5069 H 467.318 2.03782 -3.30647 0
M  V30 5070 H 469.05 1.95913 -3.54119 0
M  V30 5071 H 465.805 0.323356 -4.72495 0
M  V30 5072 H 466.229 -1.50826 -6.59985 0
M  V30 5073 H 470.871 0.162017 -4.22489 0
M  V30 5074 H 468.589 -2.73807 -7.603 0
M  V30 5075 H 472.175 -1.38109 -5.6517 0
M  V30 5076 H 471.055 -2.81143 -7.32071 0
M  V30 5077 N 468.558 1.5553 0.254621 0
M  V30 5078 C 469.488 1.9268 1.31897 0
M  V30 5079 C 470.469 0.790797 1.506 0
M  V30 5080 O 471.654 1.05045 1.63337 0
M  V30 5081 C 468.784 2.21477 2.67517 0
M  V30 5082 C 467.738 3.37256 2.63519 0
M  V30 5083 C 467.064 3.51576 4.02862 0
M  V30 5084 C 468.364 4.73157 2.21179 0
M  V30 5085 H 470.058 2.81832 1.01051 0
M  V30 5086 H 467.604 1.35599 0.484662 0
M  V30 5087 H 469.557 2.46055 3.42104 0
M  V30 5088 H 468.281 1.29144 2.99982 0
M  V30 5089 H 466.94 3.12675 1.9139 0
M  V30 5090 H 466.588 2.56676 4.32581 0
M  V30 5091 H 466.288 4.2943 4.01078 0
M  V30 5092 H 467.812 3.78467 4.79161 0
M  V30 5093 H 469.226 4.97158 2.85494 0
M  V30 5094 H 467.623 5.54058 2.30521 0
M  V30 5095 H 468.693 4.70739 1.16332 0
M  V30 5096 N 470.036 -0.519951 1.48776 0
M  V30 5097 C 471.447 -1.10177 1.50725 0
M  V30 5098 C 471.798 -1.94153 0.282678 0
M  V30 5099 O 470.923 -2.07645 -0.609298 0
M  V30 5100 C 471.518 -2.00482 2.73116 0
M  V30 5101 C 470.077 -2.53862 2.77905 0
M  V30 5102 C 469.224 -1.31047 2.44381 0
M  V30 5103 H 472.175 -0.30473 1.55747 0
M  V30 5104 H 472.196 -2.8491 2.52203 0
M  V30 5105 H 471.708 -1.39335 3.62225 0
M  V30 5106 H 469.809 -3.18702 1.93029 0
M  V30 5107 H 469.922 -2.9231 3.79594 0
M  V30 5108 H 468.286 -1.62953 1.95751 0
M  V30 5109 H 469.069 -0.71637 3.35743 0
M  V30 5110 N 471.514 -1.37532 -0.769588 0
M  V30 5111 C 472.477 -1.33292 -1.86456 0
M  V30 5112 C 473.477 -0.236537 -1.59051 0
M  V30 5113 O 474.667 -0.492511 -1.67093 0
M  V30 5114 C 471.799 -1.07118 -3.23633 0
M  V30 5115 H 472.992 -2.30692 -1.91628 0
M  V30 5116 H 470.545 -1.22593 -0.969572 0
M  V30 5117 H 471.28 -0.102578 -3.24138 0
M  V30 5118 H 471.065 -1.86479 -3.44917 0
M  V30 5119 H 472.555 -1.06806 -4.03711 0
M  V30 5120 N 472.992 0.995999 -1.22138 0
M  V30 5121 C 474.24 1.73167 -1.042 0
M  V30 5122 C 474.561 1.90329 0.42423 0
M  V30 5123 O 473.831 1.4607 1.30539 0
M  V30 5124 H 472.411 0.641593 -0.38258 0
M  V30 5125 H 475.073 1.19974 -1.53598 0
M  V30 5126 H 474.169 2.72734 -1.51731 0
M  V30 5127 N 474.47 1.03057 1.19235 0
M  V30 5128 C 475.747 0.642608 1.84743 0
M  V30 5129 C 476.127 -0.878577 1.91948 0
M  V30 5130 O 475.475 -1.77597 1.43776 0
M  V30 5131 C 475.685 1.30665 3.23616 0
M  V30 5132 C 477.033 1.43098 3.9976 0
M  V30 5133 O 478.057 1.26396 3.3302 0
M  V30 5134 O 476.916 1.70223 5.19313 0
M  V30 5135 H 474.01 0.223573 0.796206 0
M  V30 5136 H 476.556 1.12883 1.26711 0
M  V30 5137 H 475.328 2.34544 3.13217 0
M  V30 5138 H 474.951 0.808405 3.89295 0
M  V30 5139 N 475.948 -1.35272 0.808662 0
M  V30 5140 C 477.176 -2.02946 0.402537 0
M  V30 5141 C 477.591 -1.60937 -0.987147 0
M  V30 5142 O 476.948 -0.807917 -1.63643 0
M  V30 5143 C 476.999 -3.58317 0.47868 0
M  V30 5144 O 476.72 -3.98799 1.81358 0
M  V30 5145 C 478.221 -4.43251 0.0656281 0
M  V30 5146 H 475.441 -0.650831 0.163279 0
M  V30 5147 H 477.985 -1.72849 1.09286 0
M  V30 5148 H 476.14 -3.87055 -0.163415 0
M  V30 5149 H 476.554 -4.93451 1.77781 0
M  V30 5150 H 478.028 -5.51738 0.170017 0
M  V30 5151 H 478.505 -4.27913 -0.989278 0
M  V30 5152 H 479.111 -4.19813 0.68096 0
M  V30 5153 N 477.426 -0.562348 -1.47226 0
M  V30 5154 C 478.356 0.170627 -2.32876 0
M  V30 5155 C 479.337 0.903748 -1.44106 0
M  V30 5156 O 480.522 0.883206 -1.72954 0
M  V30 5157 C 477.652 1.19786 -3.25989 0
M  V30 5158 C 476.606 0.580875 -4.2404 0
M  V30 5159 C 475.932 1.71311 -5.06514 0
M  V30 5160 C 477.232 -0.468714 -5.20193 0
M  V30 5161 H 478.926 -0.544441 -2.94408 0
M  V30 5162 H 476.472 -0.263271 -1.41573 0
M  V30 5163 H 478.425 1.71884 -3.84752 0
M  V30 5164 H 477.149 1.94294 -2.62521 0
M  V30 5165 H 475.808 0.0811538 -3.6651 0
M  V30 5166 H 475.456 2.44736 -4.39447 0
M  V30 5167 H 475.156 1.30604 -5.72902 0
M  V30 5168 H 476.68 2.23725 -5.68137 0
M  V30 5169 H 478.094 -0.0336028 -5.7329 0
M  V30 5170 H 476.491 -0.794957 -5.94811 0
M  V30 5171 H 477.561 -1.36269 -4.65359 0
M  V30 5172 N 478.904 1.54736 -0.299062 0
M  V30 5173 C 479.834 2.26409 0.571085 0
M  V30 5174 C 480.815 1.2629 1.13951 0
M  V30 5175 O 482 1.55059 1.16921 0
M  V30 5176 C 479.13 3.00338 1.74396 0
M  V30 5177 C 478.084 4.07588 1.30599 0
M  V30 5178 C 477.41 4.69222 2.56387 0
M  V30 5179 C 478.71 5.20455 0.438645 0
M  V30 5180 H 480.404 2.99388 -0.0266991 0
M  V30 5181 H 477.95 1.43993 -0.0142812 0
M  V30 5182 H 479.903 3.49198 2.35878 0
M  V30 5183 H 478.627 2.24934 2.36796 0
M  V30 5184 H 477.286 3.59575 0.71424 0
M  V30 5185 H 476.934 3.9046 3.17097 0
M  V30 5186 H 476.634 5.41653 2.27784 0
M  V30 5187 H 478.158 5.20844 3.18675 0
M  V30 5188 H 479.572 5.65221 0.959085 0
M  V30 5189 H 477.969 5.99594 0.246466 0
M  V30 5190 H 479.039 4.8192 -0.536738 0
M  V30 5191 N 480.382 0.0267497 1.57577 0
M  V30 5192 C 481.292 -0.971633 2.13533 0
M  V30 5193 C 482.308 -1.35868 1.08701 0
M  V30 5194 O 483.484 -1.44058 1.40746 0
M  V30 5195 C 480.549 -2.23622 2.64941 0
M  V30 5196 C 479.61 -1.90982 3.8448 0
M  V30 5197 C 478.843 -3.11411 4.33427 0
M  V30 5198 O 479.066 -4.23992 3.81558 0
M  V30 5199 O 478 -2.93848 5.25297 0
M  V30 5200 H 481.826 -0.525853 2.99113 0
M  V30 5201 H 479.411 -0.193712 1.48139 0
M  V30 5202 H 481.293 -2.97864 2.98086 0
M  V30 5203 H 479.968 -2.67386 1.82446 0
M  V30 5204 H 478.875 -1.14132 3.56265 0
M  V30 5205 H 480.208 -1.52036 4.6813 0
M  V30 5206 N 481.861 -1.55662 -0.24637 0
M  V30 5207 C 482.794 -1.85332 -1.33143 0
M  V30 5208 C 483.772 -0.708464 -1.46354 0
M  V30 5209 O 484.956 -0.954274 -1.6256 0
M  V30 5210 C 482.083 -2.0385 -2.70487 0
M  V30 5211 C 481.129 -3.26488 -2.74423 0
M  V30 5212 S 481.962 -4.83124 -2.30979 0
M  V30 5213 C 483.118 -5.04647 -3.70246 0
M  V30 5214 H 483.351 -2.77077 -1.07777 0
M  V30 5215 H 480.884 -1.47776 -0.44738 0
M  V30 5216 H 482.842 -2.15202 -3.49569 0
M  V30 5217 H 481.503 -1.12947 -2.9309 0
M  V30 5218 H 480.696 -3.36413 -3.7529 0
M  V30 5219 H 480.298 -3.13864 -2.03385 0
M  V30 5220 H 482.59 -4.92023 -4.65746 0
M  V30 5221 H 483.533 -6.06625 -3.65255 0
M  V30 5222 H 483.941 -4.32491 -3.62784 0
M  V30 5223 N 483.339 0.512053 -1.4905 0
M  V30 5224 C 484.588 1.26343 -1.57227 0
M  V30 5225 C 484.901 1.93876 -0.259155 0
M  V30 5226 O 486.107 2.70612 -0.219358 0
M  V30 5227 C 484.563 2.29343 -2.77362 0
M  V30 5228 C 484.171 1.67799 -4.15388 0
M  V30 5229 C 485.915 3.05378 -2.94864 0
M  V30 5230 C 483.822 2.68845 -5.2676 0
M  V30 5231 H 482.752 0.475231 -0.585382 0
M  V30 5232 H 485.403 0.53862 -1.75417 0
M  V30 5233 H 483.785 3.04938 -2.52643 0
M  V30 5234 H 484.959 0.982715 -4.50199 0
M  V30 5235 H 483.274 1.04194 -4.03153 0
M  V30 5236 H 485.871 3.80921 -3.75238 0
M  V30 5237 H 486.214 3.62327 -2.05 0
M  V30 5238 H 486.747 2.36898 -3.19569 0
M  V30 5239 H 483.486 2.16692 -6.18647 0
M  V30 5240 H 483.006 3.36647 -4.96416 0
M  V30 5241 H 484.685 3.31487 -5.5563 0
M  V30 5242 N 484.817 1.37938 0.762283 0
M  V30 5243 C 486.063 1.33866 1.52341 0
M  V30 5244 C 486.396 -0.0738961 1.94059 0
M  V30 5245 O 485.671 -1.03326 1.64785 0
M  V30 5246 C 485.954 2.28644 2.78197 0
M  V30 5247 C 485.807 3.78722 2.42672 0
M  V30 5248 C 487.126 2.21702 3.80179 0
M  V30 5249 H 484.245 0.487593 0.55265 0
M  V30 5250 H 486.887 1.68717 0.873767 0
M  V30 5251 H 485.037 1.99055 3.33631 0
M  V30 5252 H 486.709 4.18948 1.93081 0
M  V30 5253 H 484.952 3.96827 1.75244 0
M  V30 5254 H 485.623 4.40486 3.3268 0
M  V30 5255 H 488.099 2.47805 3.34263 0
M  V30 5256 H 486.975 2.90143 4.65949 0
M  V30 5257 H 487.236 1.21301 4.25133 0
M  V30 5258 N 486.295 -0.989507 1.22664 0
M  V30 5259 C 487.523 -1.76496 1.07967 0
M  V30 5260 C 487.938 -1.85148 -0.369543 0
M  V30 5261 O 487.295 -1.32408 -1.25596 0
M  V30 5262 C 487.346 -3.19642 1.68853 0
M  V30 5263 O 487.067 -3.11453 3.08105 0
M  V30 5264 C 488.568 -4.13621 1.59475 0
M  V30 5265 H 485.788 -0.55418 0.378319 0
M  V30 5266 H 488.332 -1.24378 1.62328 0
M  V30 5267 H 486.487 -3.68816 1.18547 0
M  V30 5268 H 486.901 -4.01499 3.37489 0
M  V30 5269 H 488.375 -5.11801 2.06795 0
M  V30 5270 H 488.852 -4.35718 0.55191 0
M  V30 5271 H 489.458 -3.70346 2.09103 0
M  V30 5272 N 487.773 -1.03688 -1.18687 0
M  V30 5273 C 488.723 -0.595067 -2.20098 0
M  V30 5274 C 489.707 0.360465 -1.5681 0
M  V30 5275 O 490.899 0.180136 -1.76081 0
M  V30 5276 C 488.028 0.0444495 -3.43271 0
M  V30 5277 C 487.114 -0.934002 -4.13687 0
M  V30 5278 N 487.505 -2.09957 -4.60165 0
M  V30 5279 C 485.803 -0.759177 -4.39491 0
M  V30 5280 C 486.504 -2.71735 -5.1433 0
M  V30 5281 N 485.48 -1.99638 -5.05614 0
M  V30 5282 H 489.282 -1.48336 -2.5372 0
M  V30 5283 H 486.796 -0.904949 -1.3485 0
M  V30 5284 H 488.793 0.37864 -4.15177 0
M  V30 5285 H 487.453 0.928325 -3.11147 0
M  V30 5286 H 488.464 -2.47863 -4.54735 0
M  V30 5287 H 485.141 0.0749292 -4.17433 0
M  V30 5288 H 486.531 -3.70492 -5.60523 0
M  V30 5289 N 489.251 1.34841 -0.815825 0
M  V30 5290 C 490.181 2.32187 -0.247298 0
M  V30 5291 C 491.162 1.5791 0.632344 0
M  V30 5292 O 492.347 1.8593 0.560698 0
M  V30 5293 C 489.477 3.42122 0.597466 0
M  V30 5294 C 488.431 4.27602 -0.184446 0
M  V30 5295 C 487.757 5.28942 0.782609 0
M  V30 5296 C 489.057 5.03502 -1.38865 0
M  V30 5297 H 490.751 2.79985 -1.06061 0
M  V30 5298 H 488.297 1.34611 -0.511461 0
M  V30 5299 H 490.25 4.09232 1.00533 0
M  V30 5300 H 488.974 2.92956 1.44376 0
M  V30 5301 H 487.633 3.62085 -0.573592 0
M  V30 5302 H 487.281 4.7604 1.62466 0
M  V30 5303 H 486.981 5.87008 0.263695 0
M  V30 5304 H 488.505 5.98922 1.18848 0
M  V30 5305 H 489.919 5.63506 -1.05518 0
M  V30 5306 H 488.316 5.71108 -1.8427 0
M  V30 5307 H 489.386 4.33608 -2.17054 0
M  V30 5308 N 490.729 0.570148 1.46925 0
M  V30 5309 C 492.14 0.1402 1.86173 0
M  V30 5310 C 492.491 -1.29347 1.47526 0
M  V30 5311 O 491.616 -1.97508 0.884292 0
M  V30 5312 C 492.211 0.247661 3.37894 0
M  V30 5313 C 490.77 -0.127332 3.76185 0
M  V30 5314 C 489.917 0.589349 2.70965 0
M  V30 5315 H 492.868 0.779117 1.38259 0
M  V30 5316 H 492.889 -0.530341 3.76786 0
M  V30 5317 H 492.401 1.29121 3.65991 0
M  V30 5318 H 490.502 -1.17149 3.53704 0
M  V30 5319 H 490.615 0.240238 4.78497 0
M  V30 5320 H 488.979 0.0309824 2.54681 0
M  V30 5321 H 489.762 1.6343 3.01903 0
M  V30 5322 N 492.207 -1.54576 0.307264 0
M  V30 5323 C 493.432 -2.05139 -0.305379 0
M  V30 5324 C 493.857 -1.18278 -1.46259 0
M  V30 5325 O 493.215 -0.188243 -1.8032 0
M  V30 5326 C 493.263 -3.53066 -0.733283 0
M  V30 5327 O 492.367 -3.69206 -1.83741 0
M  V30 5328 H 491.708 -0.661444 -0.0582105 0
M  V30 5329 H 494.238 -1.99569 0.450931 0
M  V30 5330 H 494.248 -3.95034 -1.02039 0
M  V30 5331 H 492.923 -4.15746 0.113198 0
M  V30 5332 H 491.5 -3.39143 -1.55037 0
M  V30 5333 N 493.685 -0.035106 -1.57561 0
M  V30 5334 C 495.096 0.502885 -1.798 0
M  V30 5335 C 495.447 1.71892 -0.945921 0
M  V30 5336 O 494.572 2.15822 -0.157991 0
M  V30 5337 C 495.167 0.919097 -3.26095 0
M  V30 5338 C 493.726 1.40216 -3.49308 0
M  V30 5339 C 492.873 0.369709 -2.74824 0
M  V30 5340 H 495.824 -0.261102 -1.56537 0
M  V30 5341 H 495.845 1.78308 -3.36135 0
M  V30 5342 H 495.357 0.0338526 -3.88085 0
M  V30 5343 H 493.458 2.30714 -2.92578 0
M  V30 5344 H 493.571 1.40541 -4.58023 0
M  V30 5345 H 491.935 0.839113 -2.40481 0
M  V30 5346 H 492.718 -0.507173 -3.39533 0
M  V30 5347 N 495.163 1.55791 0.238111 0
M  V30 5348 C 496.126 1.90239 1.27835 0
M  V30 5349 C 497.126 0.779552 1.4064 0
M  V30 5350 O 498.316 1.04747 1.3919 0
M  V30 5351 C 495.448 2.13859 2.65475 0
M  V30 5352 H 496.641 2.83262 0.985034 0
M  V30 5353 H 494.194 1.48818 0.477799 0
M  V30 5354 H 494.929 1.23334 2.99932 0
M  V30 5355 H 494.714 2.95643 2.57561 0
M  V30 5356 H 496.204 2.41664 3.40571 0
M  V30 5357 N 496.642 -0.504142 1.49319 0
M  V30 5358 C 497.919 -1.26548 1.49147 0
M  V30 5359 C 498.299 -2.09977 0.21744 0
M  V30 5360 O 497.647 -2.14028 -0.800269 0
M  V30 5361 C 497.857 -2.12489 2.76857 0
M  V30 5362 C 499.205 -2.7178 3.26222 0
M  V30 5363 O 500.229 -2.22758 2.77952 0
M  V30 5364 O 499.088 -3.61015 4.10281 0
M  V30 5365 H 496.182 -0.572495 0.596806 0
M  V30 5366 H 498.728 -0.51867 1.61579 0
M  V30 5367 H 497.5 -1.50796 3.61077 0
M  V30 5368 H 497.123 -2.94368 2.6727 0
M  V30 5369 N 498.12 -1.38341 -0.754957 0
M  V30 5370 C 499.083 -1.35262 -1.85032 0
M  V30 5371 C 500.083 -0.253393 -1.58791 0
M  V30 5372 O 501.273 -0.510205 -1.66561 0
M  V30 5373 C 498.405 -1.10544 -3.22479 0
M  V30 5374 H 499.598 -2.32712 -1.8917 0
M  V30 5375 H 497.151 -1.23614 -0.956515 0
M  V30 5376 H 497.886 -0.136952 -3.24011 0
M  V30 5377 H 497.671 -1.90127 -3.4292 0
M  V30 5378 H 499.161 -1.11082 -4.02555 0
M  V30 5379 N 499.598 0.982988 -1.23187 0
M  V30 5380 C 500.53 2.07729 -0.968572 0
M  V30 5381 C 501.543 1.62702 0.0564821 0
M  V30 5382 O 502.732 1.77603 -0.178733 0
M  V30 5383 C 499.832 3.36071 -0.436974 0
M  V30 5384 C 499.005 4.10081 -1.52159 0
M  V30 5385 C 498.064 5.16701 -0.99532 0
M  V30 5386 O 497.09 5.43727 -1.68373 0
M  V30 5387 N 498.292 5.80226 0.178192 0
M  V30 5388 H 501.057 2.30894 -1.9107 0
M  V30 5389 H 498.618 1.14949 -1.1401 0
M  V30 5390 H 500.61 4.04639 -0.0700051 0
M  V30 5391 H 499.18 3.09893 0.410509 0
M  V30 5392 H 498.4 3.36004 -2.06144 0
M  V30 5393 H 499.688 4.56295 -2.25105 0
M  V30 5394 H 499.086 5.60651 0.754096 0
M  V30 5395 H 497.643 6.49982 0.486449 0
M  V30 5396 N 501.076 1.04316 1.18135 0
M  V30 5397 C 502.023 0.636398 2.21853 0
M  V30 5398 C 502.993 -0.357039 1.62217 0
M  V30 5399 O 504.178 -0.250453 1.89149 0
M  V30 5400 C 501.318 0.00812779 3.45099 0
M  V30 5401 C 500.431 1.04933 4.19062 0
M  V30 5402 C 499.566 0.389313 5.29771 0
M  V30 5403 C 498.605 1.41544 5.9551 0
M  V30 5404 N 497.742 0.78021 6.97751 0
M  V30 5405 H 502.582 1.52536 2.56002 0
M  V30 5406 H 500.119 0.76304 1.25762 0
M  V30 5407 H 502.077 -0.373497 4.15525 0
M  V30 5408 H 500.707 -0.844336 3.11562 0
M  V30 5409 H 499.759 1.54888 3.47439 0
M  V30 5410 H 501.071 1.82862 4.64072 0
M  V30 5411 H 500.225 -0.0463805 6.06682 0
M  V30 5412 H 498.964 -0.422038 4.8587 0
M  V30 5413 H 497.969 1.86124 5.17337 0
M  V30 5414 H 499.194 2.22854 6.41493 0
M  V30 5415 H 497.14 -0.0107899 6.55999 0
M  V30 5416 H 497.057 1.49716 7.41027 0
M  V30 5417 H 498.325 0.368996 7.78626 0
M  V30 5418 N 502.554 -1.34406 0.822964 0
M  V30 5419 C 503.784 -2.02214 0.423424 0
M  V30 5420 C 504.192 -1.62124 -0.975322 0
M  V30 5421 O 503.535 -0.822452 -1.6426 0
M  V30 5422 C 503.597 -3.56721 0.446107 0
M  V30 5423 C 503.261 -4.20136 1.79819 0
M  V30 5424 C 504.258 -4.4065 2.75904 0
M  V30 5425 C 501.943 -4.56906 2.08669 0
M  V30 5426 C 503.937 -4.9706 3.99012 0
M  V30 5427 C 501.624 -5.13026 3.32036 0
M  V30 5428 C 502.622 -5.33047 4.27024 0
M  V30 5429 O 502.31 -5.87979 5.48211 0
M  V30 5430 H 502.042 -0.654748 0.168169 0
M  V30 5431 H 504.596 -1.72659 1.11257 0
M  V30 5432 H 502.826 -3.85537 -0.299734 0
M  V30 5433 H 504.515 -4.05845 0.0666114 0
M  V30 5434 H 505.281 -4.12607 2.54912 0
M  V30 5435 H 501.16 -4.40626 1.35535 0
M  V30 5436 H 504.704 -5.12603 4.73164 0
M  V30 5437 H 500.601 -5.40498 3.52891 0
M  V30 5438 H 501.369 -6.06413 5.49732 0
M  V30 5439 N 504.032 -0.577932 -1.46621 0
M  V30 5440 C 505.448 -0.239242 -1.57797 0
M  V30 5441 C 505.648 1.25843 -1.57371 0
M  V30 5442 O 504.704 2.03988 -1.48813 0
M  V30 5443 C 506.017 -0.884227 -2.87405 0
M  V30 5444 C 507.565 -0.857373 -3.01028 0
M  V30 5445 C 508.04 -1.48181 -4.33366 0
M  V30 5446 N 509.531 -1.44593 -4.40053 0
M  V30 5447 C 510.266 -1.89852 -5.41058 0
M  V30 5448 N 509.762 -2.43062 -6.48762 0
M  V30 5449 N 511.555 -1.80797 -5.3223 0
M  V30 5450 H 503.706 -1.55073 -1.45142 0
M  V30 5451 H 505.969 -0.647903 -0.692044 0
M  V30 5452 H 505.675 -1.93759 -2.93514 0
M  V30 5453 H 505.549 -0.389585 -3.75183 0
M  V30 5454 H 507.936 0.187357 -2.94505 0
M  V30 5455 H 508.017 -1.38999 -2.14739 0
M  V30 5456 H 507.661 -2.52572 -4.40647 0
M  V30 5457 H 507.591 -0.924464 -5.18422 0
M  V30 5458 H 510.082 -1.05694 -3.62819 0
M  V30 5459 H 510.395 -2.75466 -7.22038 0
M  V30 5460 H 508.74 -2.47085 -6.49595 0
M  V30 5461 H 511.931 -1.38989 -4.46989 0
M  V30 5462 H 512.104 -2.16385 -6.10804 0
M  V30 5463 N 505.51 1.54411 -0.315457 0
M  V30 5464 C 506.756 2.00716 0.289972 0
M  V30 5465 C 507.089 1.2034 1.5242 0
M  V30 5466 O 506.364 0.283579 1.92422 0
M  V30 5467 C 506.647 3.54507 0.632196 0
M  V30 5468 C 506.5 4.45615 -0.61218 0
M  V30 5469 C 507.819 4.15421 1.45305 0
M  V30 5470 H 504.938 0.729637 0.10392 0
M  V30 5471 H 507.58 1.8506 -0.430427 0
M  V30 5472 H 505.73 3.67979 1.24595 0
M  V30 5473 H 507.402 4.44026 -1.25053 0
M  V30 5474 H 505.645 4.15621 -1.24264 0
M  V30 5475 H 506.316 5.51022 -0.328379 0
M  V30 5476 H 508.792 4.05474 0.934331 0
M  V30 5477 H 507.668 5.23157 1.66127 0
M  V30 5478 H 507.929 3.68223 2.44671 0
M  V30 5479 N 506.988 0.0434614 1.5754 0
M  V30 5480 C 507.898 -0.94893 2.14552 0
M  V30 5481 C 508.914 -1.34707 1.10136 0
M  V30 5482 O 510.09 -1.42557 1.42266 0
M  V30 5483 C 507.155 -2.208 2.67298 0
M  V30 5484 C 506.216 -1.86893 3.86484 0
M  V30 5485 C 505.449 -3.06797 4.36705 0
M  V30 5486 O 505.672 -4.19921 3.86034 0
M  V30 5487 O 504.606 -2.8826 5.28384 0
M  V30 5488 H 508.432 -0.494099 2.99654 0
M  V30 5489 H 506.017 -0.177989 1.48336 0
M  V30 5490 H 507.899 -2.94686 3.01228 0
M  V30 5491 H 506.574 -2.65436 1.85272 0
M  V30 5492 H 505.481 -1.10347 3.57455 0
M  V30 5493 H 506.814 -1.47062 4.69716 0
M  V30 5494 N 508.466 -1.55915 -0.229846 0
M  V30 5495 C 509.414 -1.9258 -1.30444 0
M  V30 5496 C 510.408 -0.806839 -1.48951 0
M  V30 5497 O 511.614 -0.991606 -1.50224 0
M  V30 5498 H 507.989 -0.611878 -0.437161 0
M  V30 5499 H 509.96 -2.82264 -0.96797 0
M  V30 5500 C 508.709 -2.25171 -2.6494 0
M  V30 5501 H 508.032 -3.10782 -2.51504 0
M  V30 5502 H 509.472 -2.54716 -3.38963 0
M  V30 5503 C 507.931 -1.07394 -3.19324 0
M  V30 5504 O 508.461 -0.330759 -4.00336 0
M  V30 5505 N 506.667 -0.859984 -2.77584 0
M  V30 5506 H 506.214 -1.46605 -2.11813 0
M  V30 5507 H 506.172 -0.0736671 -3.14314 0
M  V30 5508 N 509.944 0.496216 -1.49584 0
M  V30 5509 C 510.874 1.60576 -1.69521 0
M  V30 5510 C 511.855 1.61169 -0.543933 0
M  V30 5511 O 513.04 1.77834 -0.78031 0
M  V30 5512 C 510.17 2.99038 -1.76616 0
M  V30 5513 C 509.124 3.13312 -2.91581 0
M  V30 5514 C 508.45 4.53172 -2.83794 0
M  V30 5515 C 509.75 2.92886 -4.32452 0
M  V30 5516 H 511.444 1.44146 -2.62416 0
M  V30 5517 H 508.99 0.692024 -1.26282 0
M  V30 5518 H 510.943 3.76564 -1.8915 0
M  V30 5519 H 509.667 3.16568 -0.80324 0
M  V30 5520 H 508.326 2.38213 -2.78658 0
M  V30 5521 H 507.974 4.67585 -1.854 0
M  V30 5522 H 507.674 4.63662 -3.60958 0
M  V30 5523 H 509.198 5.32752 -2.98342 0
M  V30 5524 H 510.612 3.60178 -4.46032 0
M  V30 5525 H 509.009 3.14844 -5.10875 0
M  V30 5526 H 510.079 1.88966 -4.46565 0
M  V30 5527 N 511.423 1.38739 0.74761 0
M  V30 5528 C 512.653 1.3832 1.53464 0
M  V30 5529 C 513.061 -0.0273464 1.8918 0
M  V30 5530 O 512.404 -1.00588 1.53713 0
M  V30 5531 C 512.466 2.18007 2.85855 0
M  V30 5532 C 512.13 3.66762 2.72644 0
M  V30 5533 C 513.127 4.60124 2.42037 0
M  V30 5534 C 510.812 4.10193 2.89909 0
M  V30 5535 C 512.806 5.94897 2.28859 0
M  V30 5536 C 510.493 5.45045 2.7635 0
M  V30 5537 C 511.491 6.37211 2.45869 0
M  V30 5538 O 511.179 7.69581 2.3238 0
M  V30 5539 H 510.911 0.474718 0.481268 0
M  V30 5540 H 513.465 1.83012 0.932518 0
M  V30 5541 H 511.695 1.68043 3.48279 0
M  V30 5542 H 513.384 2.09921 3.47402 0
M  V30 5543 H 514.15 4.27874 2.28361 0
M  V30 5544 H 510.029 3.38797 3.1263 0
M  V30 5545 H 513.573 6.66802 2.04989 0
M  V30 5546 H 509.47 5.76889 2.89601 0
M  V30 5547 H 510.238 7.80169 2.47546 0
M  V30 5548 N 512.901 -0.976442 1.23707 0
M  V30 5549 C 513.811 -2.10359 1.03856 0
M  V30 5550 C 514.827 -1.73991 -0.0180919 0
M  V30 5551 O 516.003 -2.0061 0.178211 0
M  V30 5552 C 513.068 -3.40809 0.636387 0
M  V30 5553 C 512.129 -3.91179 1.76854 0
M  V30 5554 C 511.362 -5.15404 1.38546 0
M  V30 5555 O 511.585 -5.69754 0.27142 0
M  V30 5556 O 510.519 -5.5994 2.20797 0
M  V30 5557 H 514.345 -2.29997 1.98331 0
M  V30 5558 H 511.93 -1.08742 1.02448 0
M  V30 5559 H 513.812 -4.19269 0.423223 0
M  V30 5560 H 512.487 -3.22493 -0.279322 0
M  V30 5561 H 511.394 -3.13819 2.03638 0
M  V30 5562 H 512.727 -4.13958 2.6627 0
M  V30 5563 N 514.379 -1.04941 -1.1758 0
M  V30 5564 C 515.627 -0.756492 -1.87408 0
M  V30 5565 C 515.948 0.718478 -1.81281 0
M  V30 5566 O 515.218 1.519 -1.23706 0
M  V30 5567 H 513.798 -0.276841 -0.693807 0
M  V30 5568 H 516.46 -1.32803 -1.42652 0
M  V30 5569 H 515.556 -1.06918 -2.93215 0
M  V30 5570 N 515.857 1.33968 -0.830081 0
M  V30 5571 C 517.268 1.80439 -0.479455 0
M  V30 5572 C 517.619 1.68756 1.00079 0
M  V30 5573 O 516.744 1.23171 1.77927 0
M  V30 5574 C 517.339 3.27611 -0.863505 0
M  V30 5575 C 515.898 3.72133 -0.565145 0
M  V30 5576 C 515.045 2.55549 -1.07657 0
M  V30 5577 H 517.996 1.21614 -1.0196 0
M  V30 5578 H 518.017 3.8012 -0.170083 0
M  V30 5579 H 517.529 3.36082 -1.94089 0
M  V30 5580 H 515.63 3.69196 0.502536 0
M  V30 5581 H 515.743 4.65963 -1.11422 0
M  V30 5582 H 514.107 2.49788 -0.497807 0
M  V30 5583 H 514.89 2.66786 -2.16055 0
M  V30 5584 N 517.335 0.585699 1.46312 0
M  V30 5585 C 518.268 -0.194257 2.27372 0
M  V30 5586 C 519.246 -0.894116 1.3581 0
M  V30 5587 O 520.43 -0.907402 1.65222 0
M  V30 5588 C 517.557 -1.27901 3.13622 0
M  V30 5589 C 516.603 -0.684666 4.20969 0
M  V30 5590 S 517.436 0.490745 5.33247 0
M  V30 5591 C 518.592 -0.595137 6.23064 0
M  V30 5592 H 518.825 0.493515 2.93175 0
M  V30 5593 H 516.358 0.372666 1.49835 0
M  V30 5594 H 518.316 -1.90008 3.63878 0
M  V30 5595 H 516.977 -1.93875 2.47126 0
M  V30 5596 H 516.17 -1.50015 4.81156 0
M  V30 5597 H 515.772 -0.139204 3.73741 0
M  V30 5598 H 518.064 -1.48002 6.61137 0
M  V30 5599 H 519.007 -0.0299446 7.08094 0
M  V30 5600 H 519.415 -0.900627 5.57269 0
M  V30 5601 N 518.813 -1.54241 0.323641 0
M  V30 5602 C 520.09 -1.92741 -0.333181 0
M  V30 5603 C 520.47 -1.25326 -1.69872 0
M  V30 5604 O 519.818 -0.396991 -2.25025 0
M  V30 5605 C 520.028 -3.46399 -0.425322 0
M  V30 5606 C 521.376 -4.19029 -0.68557 0
M  V30 5607 O 522.4 -3.52555 -0.50824 0
M  V30 5608 O 521.259 -5.36751 -1.02767 0
M  V30 5609 H 518.353 -0.804811 -0.190286 0
M  V30 5610 H 520.899 -1.65542 0.373361 0
M  V30 5611 H 519.671 -3.87643 0.533737 0
M  V30 5612 H 519.294 -3.79704 -1.17944 0
M  V30 5613 N 520.291 -0.0518155 -1.57515 0
M  V30 5614 C 521.568 0.661727 -1.84067 0
M  V30 5615 C 521.948 1.88999 -0.940351 0
M  V30 5616 O 521.296 2.285 -0.00155404 0
M  V30 5617 C 521.506 1.01841 -3.3381 0
M  V30 5618 C 522.854 1.40043 -4.00841 0
M  V30 5619 O 523.878 1.11073 -3.38439 0
M  V30 5620 O 522.737 1.94111 -5.10865 0
M  V30 5621 H 519.831 0.326702 -0.759733 0
M  V30 5622 H 522.377 -0.0812277 -1.69505 0
M  V30 5623 H 521.149 0.145202 -3.91031 0
M  V30 5624 H 520.772 1.81879 -3.53562 0
M  V30 5625 N 521.769 1.56035 0.221574 0
M  V30 5626 C 522.679 1.95581 1.29558 0
M  V30 5627 C 523.695 0.859639 1.51282 0
M  V30 5628 O 524.871 1.16321 1.64413 0
M  V30 5629 C 521.936 2.26447 2.62531 0
M  V30 5630 C 520.997 3.49632 2.4911 0
M  V30 5631 C 520.23 3.79017 3.75742 0
M  V30 5632 O 520.453 3.10077 4.78757 0
M  V30 5633 O 519.387 4.72507 3.72855 0
M  V30 5634 H 523.213 2.8711 0.990035 0
M  V30 5635 H 520.798 1.43244 0.424434 0
M  V30 5636 H 522.68 2.47494 3.41064 0
M  V30 5637 H 521.355 1.38092 2.92766 0
M  V30 5638 H 520.262 3.33864 1.68777 0
M  V30 5639 H 521.595 4.3837 2.23814 0
M  V30 5640 N 523.247 -0.488276 1.49845 0
M  V30 5641 C 524.21 -1.57069 1.66919 0
M  V30 5642 C 525.21 -1.51445 0.540479 0
M  V30 5643 O 526.4 -1.5437 0.807188 0
M  V30 5644 C 523.532 -2.96718 1.67844 0
M  V30 5645 H 524.725 -1.43254 2.63474 0
M  V30 5646 H 522.278 -0.713435 1.39068 0
M  V30 5647 H 523.013 -3.15996 0.7292 0
M  V30 5648 H 522.798 -3.02208 2.49826 0
M  V30 5649 H 524.288 -3.75335 1.83066 0
M  V30 5650 N 524.725 -1.39134 -0.740242 0
M  V30 5651 C 525.688 -1.37217 -1.83587 0
M  V30 5652 C 526.688 -0.270221 -1.58513 0
M  V30 5653 O 527.878 -0.527843 -1.6601 0
M  V30 5654 C 525.01 -1.13959 -3.21288 0
M  V30 5655 H 526.203 -2.34705 -1.86691 0
M  V30 5656 H 523.756 -1.24622 -0.94335 0
M  V30 5657 H 524.491 -0.17131 -3.23847 0
M  V30 5658 H 524.276 -1.93754 -3.40884 0
M  V30 5659 H 525.766 -1.15346 -4.01354 0
M  V30 5660 N 526.204 0.969867 -1.24223 0
M  V30 5661 C 527.152 2.08535 -1.03034 0
M  V30 5662 C 528.146 1.69366 0.0340379 0
M  V30 5663 O 529.352 1.79597 -0.12034 0
M  V30 5664 H 525.727 0.682313 -0.316154 0
M  V30 5665 H 527.698 2.23569 -1.97635 0
M  V30 5666 C 526.447 3.4158 -0.649509 0
M  V30 5667 H 525.77 3.72177 -1.46028 0
M  V30 5668 H 527.21 4.20536 -0.540841 0
M  V30 5669 C 525.669 3.30703 0.643194 0
M  V30 5670 O 526.199 3.64443 1.68951 0
M  V30 5671 N 524.405 2.83841 0.623095 0
M  V30 5672 H 523.952 2.56583 -0.228719 0
M  V30 5673 H 523.91 2.76946 1.48823 0
M  V30 5674 N 527.682 1.05563 1.17022 0
M  V30 5675 C 528.645 0.664098 2.19368 0
M  V30 5676 C 529.645 -0.286358 1.5823 0
M  V30 5677 O 530.835 -0.069728 1.7406 0
M  V30 5678 C 527.967 -0.0239932 3.40892 0
M  V30 5679 H 529.16 1.57 2.55521 0
M  V30 5680 H 526.713 0.849964 1.31169 0
M  V30 5681 H 527.448 -0.942988 3.10287 0
M  V30 5682 H 527.233 0.659351 3.86516 0
M  V30 5683 H 528.723 -0.283909 4.16634 0
M  V30 5684 N 529.16 -1.33526 0.837174 0
M  V30 5685 C 530.409 -1.97098 0.428387 0
M  V30 5686 C 530.722 -1.67062 -1.01734 0
M  V30 5687 O 531.928 -2.24235 -1.53072 0
M  V30 5688 C 530.384 -3.52725 0.715075 0
M  V30 5689 C 529.992 -3.9164 2.17537 0
M  V30 5690 C 531.736 -4.22857 0.373154 0
M  V30 5691 C 529.643 -5.40237 2.40619 0
M  V30 5692 H 528.573 -0.737589 0.156455 0
M  V30 5693 H 531.224 -1.52169 1.02552 0
M  V30 5694 H 529.606 -3.95971 0.0475904 0
M  V30 5695 H 530.78 -3.59456 2.88319 0
M  V30 5696 H 529.095 -3.34485 2.4801 0
M  V30 5697 H 531.692 -5.32133 0.523264 0
M  V30 5698 H 532.035 -4.10647 -0.683708 0
M  V30 5699 H 532.568 -3.85135 0.995801 0
M  V30 5700 H 529.307 -5.57449 3.44864 0
M  V30 5701 H 528.827 -5.73887 1.74396 0
M  V30 5702 H 530.506 -6.07102 2.23688 0
M  V30 5703 N 530.638 -0.59345 -1.46 0
M  V30 5704 C 532.054 -0.255965 -1.57534 0
M  V30 5705 C 532.254 1.24167 -1.58697 0
M  V30 5706 O 531.31 2.02398 -1.50968 0
M  V30 5707 C 532.623 -0.91466 -2.86451 0
M  V30 5708 C 534.171 -0.889253 -3.00102 0
M  V30 5709 C 534.646 -1.52769 -4.3177 0
M  V30 5710 N 536.137 -1.49253 -4.38495 0
M  V30 5711 C 536.872 -1.9558 -5.39014 0
M  V30 5712 N 536.368 -2.49929 -6.46148 0
M  V30 5713 N 538.161 -1.86432 -5.30282 0
M  V30 5714 H 530.312 -1.56604 -1.43489 0
M  V30 5715 H 532.575 -0.655207 -0.685133 0
M  V30 5716 H 532.281 -1.96861 -2.91442 0
M  V30 5717 H 532.155 -0.429356 -3.74748 0
M  V30 5718 H 534.542 0.156111 -2.94687 0
M  V30 5719 H 534.623 -1.41268 -2.13253 0
M  V30 5720 H 534.267 -2.57231 -4.37944 0
M  V30 5721 H 534.197 -0.979398 -5.17412 0
M  V30 5722 H 536.688 -1.09536 -3.61677 0
M  V30 5723 H 537.001 -2.83109 -7.19075 0
M  V30 5724 H 535.346 -2.53961 -6.46938 0
M  V30 5725 H 538.537 -1.43722 -4.4549 0
M  V30 5726 H 538.71 -2.22852 -6.08474 0
M  V30 5727 N 532.116 1.54067 -0.331816 0
M  V30 5728 C 533.064 2.26105 0.54582 0
M  V30 5729 C 534.058 1.27816 1.11173 0
M  V30 5730 O 535.264 1.45565 1.05882 0
M  V30 5731 H 531.639 0.726363 0.194683 0
M  V30 5732 H 533.61 2.98282 -0.083931 0
M  V30 5733 C 532.359 3.03814 1.69092 0
M  V30 5734 H 531.682 3.79269 1.26473 0
M  V30 5735 H 533.122 3.57453 2.28043 0
M  V30 5736 C 531.581 2.12606 2.61343 0
M  V30 5737 O 532.111 1.71437 3.6328 0
M  V30 5738 N 530.317 1.77925 2.29763 0
M  V30 5739 H 529.864 2.11602 1.46909 0
M  V30 5740 H 529.822 1.1718 2.91747 0
M  V30 5741 N 533.594 0.0601682 1.57485 0
M  V30 5742 C 534.834 -0.615384 1.94916 0
M  V30 5743 C 535.198 -1.67475 0.938948 0
M  V30 5744 O 536.399 -2.40502 1.20051 0
M  V30 5745 C 534.67 -1.18788 3.37082 0
M  V30 5746 S 536.229 -1.88018 3.96478 0
M  V30 5747 H 533.047 -0.201821 0.681754 0
M  V30 5748 H 535.649 0.131252 1.95059 0
M  V30 5749 H 534.353 -0.404869 4.08398 0
M  V30 5750 H 533.884 -1.97114 3.40455 0
M  V30 5751 H 535.899 -3.16161 3.82435 0
M  V30 5752 N 535.072 -1.5615 -0.213296 0
M  V30 5753 C 536.349 -1.70349 -0.961281 0
M  V30 5754 C 536.729 -0.609791 -2.02101 0
M  V30 5755 O 536.077 0.381987 -2.25285 0
M  V30 5756 C 536.287 -3.11982 -1.56424 0
M  V30 5757 C 537.635 -3.71649 -2.05334 0
M  V30 5758 O 538.659 -3.14995 -1.66302 0
M  V30 5759 O 537.518 -4.71038 -2.77102 0
M  V30 5760 H 534.612 -0.694121 -0.449582 0
M  V30 5761 H 537.158 -1.68464 -0.204426 0
M  V30 5762 H 535.93 -3.83046 -0.799457 0
M  V30 5763 H 535.553 -3.18019 -2.38641 0
M  V30 5764 N 536.55 0.480323 -1.50102 0
M  V30 5765 C 537.961 1.06142 -1.53593 0
M  V30 5766 C 538.312 1.93335 -0.334055 0
M  V30 5767 O 537.437 2.09188 0.55403 0
M  V30 5768 C 538.032 1.9317 -2.78336 0
M  V30 5769 C 536.591 2.46405 -2.84538 0
M  V30 5770 C 535.738 1.24521 -2.4777 0
M  V30 5771 H 538.689 0.26333 -1.565 0
M  V30 5772 H 538.71 2.78123 -2.59669 0
M  V30 5773 H 538.222 1.29683 -3.65792 0
M  V30 5774 H 536.323 3.13472 -2.01411 0
M  V30 5775 H 536.436 2.82143 -3.87211 0
M  V30 5776 H 534.8 1.57706 -2.00003 0
M  V30 5777 H 535.583 0.627102 -3.37524 0
M  V30 5778 N 538.028 1.39524 0.732853 0
M  V30 5779 C 538.976 1.38563 1.86824 0
M  V30 5780 C 539.97 0.268467 1.67259 0
M  V30 5781 O 541.176 0.438613 1.74574 0
M  V30 5782 H 537.551 0.432737 0.615014 0
M  V30 5783 H 539.522 2.34328 1.84751 0
M  V30 5784 C 538.271 1.2481 3.24527 0
M  V30 5785 H 537.594 2.10044 3.40179 0
M  V30 5786 H 539.034 1.28194 4.04156 0
M  V30 5787 C 537.493 -0.0432825 3.36872 0
M  V30 5788 O 538.023 -1.01268 3.88726 0
M  V30 5789 N 536.229 -0.107055 2.90403 0
M  V30 5790 H 535.776 0.682512 2.48394 0
M  V30 5791 H 535.734 -0.970618 2.99042 0
M  V30 5792 N 539.506 -0.963266 1.24736 0
M  V30 5793 C 540.754 -1.70343 1.08755 0
M  V30 5794 C 541.075 -1.91387 -0.373619 0
M  V30 5795 O 540.345 -1.4948 -1.2662 0
M  V30 5796 H 538.925 -0.631224 0.399456 0
M  V30 5797 H 541.587 -1.15859 1.56725 0
M  V30 5798 H 540.683 -2.68616 1.58909 0
M  V30 5799 N 540.985 -1.06182 -1.16461 0
M  V30 5800 C 542.396 -0.802426 -1.68576 0
M  V30 5801 C 542.747 0.67412 -1.84255 0
M  V30 5802 O 541.872 1.52303 -1.5373 0
M  V30 5803 C 542.467 -1.45002 -3.06202 0
M  V30 5804 C 541.026 -1.23843 -3.55443 0
M  V30 5805 C 540.173 -1.52724 -2.31454 0
M  V30 5806 H 543.124 -1.22545 -1.00839 0
M  V30 5807 H 543.145 -0.864731 -3.70544 0
M  V30 5808 H 542.657 -2.52466 -2.94759 0
M  V30 5809 H 540.758 -0.183487 -3.72148 0
M  V30 5810 H 540.871 -1.95036 -4.37604 0
M  V30 5811 H 539.235 -0.947726 -2.36411 0
M  V30 5812 H 540.018 -2.61343 -2.22609 0
M  V30 5813 N 542.463 1.3308 -0.844243 0
M  V30 5814 C 543.393 2.3161 -0.296493 0
M  V30 5815 C 544.374 1.59215 0.598707 0
M  V30 5816 O 545.559 1.87077 0.521134 0
M  V30 5817 C 542.689 3.43313 0.524762 0
M  V30 5818 C 541.643 4.27115 -0.275106 0
M  V30 5819 C 540.969 5.30483 0.670236 0
M  V30 5820 C 542.269 5.00443 -1.49514 0
M  V30 5821 H 543.963 2.77672 -1.11976 0
M  V30 5822 H 541.509 1.33496 -0.539899 0
M  V30 5823 H 543.462 4.11273 0.918298 0
M  V30 5824 H 542.186 2.95952 1.3813 0
M  V30 5825 H 540.845 3.60787 -0.650267 0
M  V30 5826 H 540.493 4.79379 1.52332 0
M  V30 5827 H 540.193 5.87435 0.139123 0
M  V30 5828 H 541.717 6.01308 1.06117 0
M  V30 5829 H 543.131 5.61141 -1.17447 0
M  V30 5830 H 541.528 5.67071 -1.96343 0
M  V30 5831 H 542.598 4.28906 -2.26202 0
M  V30 5832 N 543.941 0.601185 1.45683 0
M  V30 5833 C 544.874 -0.17013 2.27565 0
M  V30 5834 C 545.852 -0.879661 1.36751 0
M  V30 5835 O 547.036 -0.889827 1.66176 0
M  V30 5836 C 544.163 -1.24568 3.14961 0
M  V30 5837 C 543.209 -0.639978 4.21671 0
M  V30 5838 S 544.042 0.547275 5.32696 0
M  V30 5839 C 545.198 -0.529019 6.2366 0
M  V30 5840 H 545.431 0.524583 2.92635 0
M  V30 5841 H 542.964 0.388537 1.49431 0
M  V30 5842 H 544.922 -1.86138 3.65873 0
M  V30 5843 H 543.583 -1.91243 2.49169 0
M  V30 5844 H 542.776 -1.44903 4.8272 0
M  V30 5845 H 542.378 -0.0995558 3.73867 0
M  V30 5846 H 544.67 -1.40981 6.62669 0
M  V30 5847 H 545.613 0.0451599 7.08086 0
M  V30 5848 H 546.021 -0.84147 5.58193 0
M  V30 5849 N 545.419 -1.53889 0.339982 0
M  V30 5850 C 546.352 -2.21187 -0.561405 0
M  V30 5851 C 547.33 -1.19463 -1.10306 0
M  V30 5852 O 548.514 -1.48268 -1.164 0
M  V30 5853 C 545.641 -2.8865 -1.77198 0
M  V30 5854 C 544.687 -4.04232 -1.3601 0
M  V30 5855 S 545.52 -5.34129 -0.382909 0
M  V30 5856 C 546.676 -6.05094 -1.60039 0
M  V30 5857 H 546.909 -2.97298 0.0102092 0
M  V30 5858 H 544.442 -1.53901 0.124056 0
M  V30 5859 H 546.4 -3.28138 -2.4665 0
M  V30 5860 H 545.061 -2.12311 -2.3148 0
M  V30 5861 H 544.254 -4.50358 -2.2626 0
M  V30 5862 H 543.856 -3.66503 -0.745098 0
M  V30 5863 H 546.148 -6.2827 -2.53541 0
M  V30 5864 H 547.091 -6.98182 -1.18099 0
M  V30 5865 H 547.499 -5.35207 -1.79483 0
M  V30 5866 N 546.897 -0.0685191 -1.57451 0
M  V30 5867 C 548.127 0.609577 -1.97402 0
M  V30 5868 C 548.535 1.63882 -0.945489 0
M  V30 5869 O 547.878 1.8354 0.0766052 0
M  V30 5870 C 547.94 1.3385 -3.33653 0
M  V30 5871 C 547.604 0.463103 -4.54648 0
M  V30 5872 C 548.601 -0.277964 -5.19156 0
M  V30 5873 C 546.286 0.388941 -5.00792 0
M  V30 5874 C 548.28 -1.08145 -6.28159 0
M  V30 5875 C 545.967 -0.418217 -6.09667 0
M  V30 5876 C 546.965 -1.15208 -6.73213 0
M  V30 5877 O 546.653 -1.94594 -7.79993 0
M  V30 5878 H 546.385 0.170197 -0.654224 0
M  V30 5879 H 548.939 -0.13647 -2.04946 0
M  V30 5880 H 547.169 2.13055 -3.22714 0
M  V30 5881 H 548.858 1.90851 -3.58233 0
M  V30 5882 H 549.624 -0.230241 -4.84453 0
M  V30 5883 H 545.503 0.949769 -4.5111 0
M  V30 5884 H 549.047 -1.65476 -6.7769 0
M  V30 5885 H 544.944 -0.467515 -6.43805 0
M  V30 5886 H 545.712 -1.8699 -7.96854 0
M  V30 5887 N 548.375 1.56261 0.205012 0
M  V30 5888 C 549.624 1.79236 0.925058 0
M  V30 5889 C 549.937 0.640011 1.84833 0
M  V30 5890 O 551.143 0.753809 2.60826 0
M  V30 5891 C 549.599 3.17475 1.69522 0
M  V30 5892 C 549.207 4.40482 0.817269 0
M  V30 5893 C 550.951 3.49766 2.4055 0
M  V30 5894 C 548.858 5.69744 1.58573 0
M  V30 5895 H 547.788 0.668287 0.349153 0
M  V30 5896 H 550.439 1.82629 0.178544 0
M  V30 5897 H 548.821 3.08304 2.48526 0
M  V30 5898 H 549.995 4.60752 0.0665988 0
M  V30 5899 H 548.31 4.15827 0.218316 0
M  V30 5900 H 550.907 4.43573 2.98575 0
M  V30 5901 H 551.25 2.73041 3.14252 0
M  V30 5902 H 551.783 3.60341 1.68522 0
M  V30 5903 H 548.522 6.49407 0.891679 0
M  V30 5904 H 548.042 5.53509 2.31059 0
M  V30 5905 H 549.721 6.1051 2.14212 0
M  V30 5906 N 549.853 -0.472356 1.50355 0
M  V30 5907 C 551.078 -1.25251 1.65309 0
M  V30 5908 C 551.503 -1.85081 0.335643 0
M  V30 5909 O 550.861 -1.67227 -0.700335 0
M  V30 5910 C 550.909 -2.3379 2.74544 0
M  V30 5911 O 550.013 -3.38401 2.35709 0
M  V30 5912 H 549.354 -0.368539 0.552336 0
M  V30 5913 H 551.884 -0.562271 1.96722 0
M  V30 5914 H 551.894 -2.79121 2.97583 0
M  V30 5915 H 550.569 -1.89614 3.70161 0
M  V30 5916 H 549.146 -2.9879 2.23112 0
M  V30 5917 N 551.331 -1.39911 -0.725443 0
M  V30 5918 C 552.278 -1.39393 -1.83952 0
M  V30 5919 C 553.248 -0.252249 -1.64173 0
M  V30 5920 O 554.433 -0.44882 -1.85446 0
M  V30 5921 C 551.573 -1.25262 -3.21564 0
M  V30 5922 C 550.686 -2.49054 -3.52982 0
M  V30 5923 C 549.821 -2.27439 -4.80047 0
M  V30 5924 C 548.86 -3.46857 -5.04338 0
M  V30 5925 N 547.997 -3.24499 -6.22611 0
M  V30 5926 H 552.837 -2.34622 -1.83729 0
M  V30 5927 H 550.374 -1.16537 -0.897636 0
M  V30 5928 H 552.332 -1.15077 -4.01015 0
M  V30 5929 H 550.962 -0.33657 -3.21041 0
M  V30 5930 H 550.014 -2.69805 -2.6816 0
M  V30 5931 H 551.326 -3.37973 -3.66846 0
M  V30 5932 H 550.48 -2.14551 -5.67497 0
M  V30 5933 H 549.219 -1.35929 -4.68374 0
M  V30 5934 H 548.224 -3.60232 -4.15346 0
M  V30 5935 H 549.449 -4.3928 -5.17889 0
M  V30 5936 H 547.395 -2.35663 -6.12208 0
M  V30 5937 H 547.312 -4.06978 -6.37106 0
M  V30 5938 H 548.58 -3.15325 -7.12875 0
M  V30 5939 N 552.809 0.956637 -1.25245 0
M  V30 5940 C 553.742 2.05232 -0.99775 0
M  V30 5941 C 554.72 1.62439 0.0723137 0
M  V30 5942 O 555.904 1.88381 -0.066926 0
M  V30 5943 C 553.031 3.34871 -0.507861 0
M  V30 5944 C 552.077 3.96625 -1.56815 0
M  V30 5945 S 552.91 4.32853 -3.15276 0
M  V30 5946 C 554.066 5.65613 -2.68017 0
M  V30 5947 H 554.299 2.26521 -1.9255 0
M  V30 5948 H 551.832 1.09601 -1.08752 0
M  V30 5949 H 553.79 4.09845 -0.231858 0
M  V30 5950 H 552.451 3.11551 0.399356 0
M  V30 5951 H 551.644 4.90087 -1.17604 0
M  V30 5952 H 551.246 3.28124 -1.79473 0
M  V30 5953 H 553.538 6.43635 -2.11518 0
M  V30 5954 H 554.481 6.09693 -3.60112 0
M  V30 5955 H 554.889 5.24751 -2.0808 0
M  V30 5956 N 554.287 1.06798 1.15896 0
M  V30 5957 C 555.533 0.788934 1.86825 0
M  V30 5958 C 555.866 -0.683084 1.8179 0
M  V30 5959 O 555.141 -1.50086 1.23711 0
M  V30 5960 C 555.424 1.29065 3.36176 0
M  V30 5961 C 555.277 2.8268 3.49874 0
M  V30 5962 C 556.596 0.902655 4.30744 0
M  V30 5963 H 553.715 0.288066 0.678371 0
M  V30 5964 H 556.357 1.32479 1.36195 0
M  V30 5965 H 554.507 0.834806 3.79425 0
M  V30 5966 H 556.179 3.36511 3.15528 0
M  V30 5967 H 554.422 3.21157 2.91617 0
M  V30 5968 H 555.093 3.12852 4.54783 0
M  V30 5969 H 557.569 1.29535 3.95424 0
M  V30 5970 H 556.445 1.28111 5.3374 0
M  V30 5971 H 556.706 -0.191951 4.41683 0
M  V30 5972 N 555.766 -1.3263 0.851289 0
M  V30 5973 C 557.177 -1.79653 0.5081 0
M  V30 5974 C 557.528 -1.70327 -0.973815 0
M  V30 5975 O 556.653 -1.25986 -1.75944 0
M  V30 5976 C 557.248 -3.26196 0.915515 0
M  V30 5977 C 555.807 -3.71187 0.624277 0
M  V30 5978 C 554.954 -2.53804 1.11709 0
M  V30 5979 H 557.905 -1.19976 1.03882 0
M  V30 5980 H 557.926 -3.79801 0.230535 0
M  V30 5981 H 557.438 -3.32952 1.99411 0
M  V30 5982 H 555.539 -3.69948 -0.443737 0
M  V30 5983 H 555.652 -4.64132 1.18821 0
M  V30 5984 H 554.016 -2.48964 0.537484 0
M  V30 5985 H 554.799 -2.63315 2.20272 0
M  V30 5986 N 557.244 -0.608902 -1.45362 0
M  V30 5987 C 558.472 -0.111013 -2.06602 0
M  V30 5988 C 558.887 1.20516 -1.45332 0
M  V30 5989 O 558.244 1.73437 -0.567978 0
M  V30 5990 C 558.295 0.033688 -3.61484 0
M  V30 5991 O 558.016 -1.23041 -4.20467 0
M  V30 5992 C 559.517 0.562882 -4.39712 0
M  V30 5993 H 556.737 -0.0694453 -0.667397 0
M  V30 5994 H 559.281 -0.837008 -1.86586 0
M  V30 5995 H 557.436 0.710016 -3.80838 0
M  V30 5996 H 557.85 -1.06094 -5.13658 0
M  V30 5997 H 559.324 0.613213 -5.48583 0
M  V30 5998 H 559.801 1.58543 -4.09586 0
M  V30 5999 H 560.407 -0.0794454 -4.25226 0
M  V30 6000 N 558.722 1.53707 -0.348139 0
M  V30 6001 C 559.947 2.05877 0.250883 0
M  V30 6002 C 560.372 1.22115 1.43072 0
M  V30 6003 O 559.73 0.235986 1.79758 0
M  V30 6004 C 559.778 3.54886 0.639416 0
M  V30 6005 O 558.882 3.73948 1.73888 0
M  V30 6006 H 558.223 0.662754 0.040653 0
M  V30 6007 H 560.753 1.98303 -0.503685 0
M  V30 6008 H 560.763 3.97601 0.915295 0
M  V30 6009 H 559.438 4.153 -0.223386 0
M  V30 6010 H 558.015 3.43134 1.45991 0
M  V30 6011 N 560.2 0.0768682 1.57412 0
M  V30 6012 C 561.477 -0.632359 1.85096 0
M  V30 6013 C 561.857 -1.87479 0.9703 0
M  V30 6014 O 561.205 -2.28469 0.0379062 0
M  V30 6015 C 561.415 -0.965174 3.35388 0
M  V30 6016 C 562.763 -1.33648 4.03018 0
M  V30 6017 O 563.787 -1.05675 3.40164 0
M  V30 6018 O 562.646 -1.85959 5.13889 0
M  V30 6019 H 559.74 -0.314574 0.764835 0
M  V30 6020 H 562.286 0.108184 1.69355 0
M  V30 6021 H 561.058 -0.0829745 3.91212 0
M  V30 6022 H 560.681 -1.76231 3.5641 0
M  V30 6023 N 561.678 -1.56367 -0.196722 0
M  V30 6024 C 562.625 -1.94417 -1.24382 0
M  V30 6025 C 563.595 -0.804543 -1.45315 0
M  V30 6026 O 564.78 -1.06256 -1.58475 0
M  V30 6027 C 561.92 -2.28757 -2.58388 0
M  V30 6028 C 561.033 -3.55775 -2.45047 0
M  V30 6029 C 560.168 -3.79445 -3.71746 0
M  V30 6030 C 559.207 -4.99894 -3.53231 0
M  V30 6031 N 558.344 -5.19826 -4.71938 0
M  V30 6032 H 563.184 -2.83691 -0.912338 0
M  V30 6033 H 560.721 -1.40392 -0.439135 0
M  V30 6034 H 562.679 -2.46682 -3.36457 0
M  V30 6035 H 561.309 -1.42625 -2.89582 0
M  V30 6036 H 560.361 -3.45905 -1.58284 0
M  V30 6037 H 561.673 -4.44 -2.27299 0
M  V30 6038 H 560.827 -3.97601 -4.58256 0
M  V30 6039 H 559.566 -2.89546 -3.92446 0
M  V30 6040 H 558.571 -4.81662 -2.65107 0
M  V30 6041 H 559.796 -5.913 -3.33978 0
M  V30 6042 H 557.742 -4.32875 -4.92905 0
M  V30 6043 H 557.659 -6.02228 -4.57009 0
M  V30 6044 H 558.927 -5.42439 -5.59803 0
M  V30 6045 N 563.156 0.464375 -1.50603 0
M  V30 6046 C 564.404 1.21356 -1.61608 0
M  V30 6047 C 564.725 1.92329 -0.321643 0
M  V30 6048 O 563.995 1.84403 0.661232 0
M  V30 6049 H 562.575 0.45094 -0.595535 0
M  V30 6050 H 565.237 0.535046 -1.87412 0
M  V30 6051 H 564.333 1.95783 -2.43054 0
M  V30 6052 N 564.634 1.40294 0.718013 0
M  V30 6053 C 566.05 1.2227 1.02577 0
M  V30 6054 C 566.25 0.0961976 2.0127 0
M  V30 6055 O 565.306 -0.546695 2.46511 0
M  V30 6056 C 566.619 2.56348 1.57182 0
M  V30 6057 C 568.167 2.6334 1.69178 0
M  V30 6058 C 568.642 3.9768 2.27188 0
M  V30 6059 N 570.133 3.99409 2.34578 0
M  V30 6060 C 570.868 5.00141 2.8044 0
M  V30 6061 N 570.364 6.11268 3.26073 0
M  V30 6062 N 572.157 4.87511 2.79802 0
M  V30 6063 H 564.308 2.12304 0.0637899 0
M  V30 6064 H 566.571 0.943632 0.0909036 0
M  V30 6065 H 566.277 3.3942 0.921262 0
M  V30 6066 H 566.151 2.77266 2.55741 0
M  V30 6067 H 568.538 1.80641 2.33351 0
M  V30 6068 H 568.619 2.46255 0.692247 0
M  V30 6069 H 568.263 4.80817 1.63638 0
M  V30 6070 H 568.193 4.12093 3.27852 0
M  V30 6071 H 570.684 3.19162 2.02346 0
M  V30 6072 H 570.997 6.84023 3.59628 0
M  V30 6073 H 569.342 6.14837 3.24038 0
M  V30 6074 H 572.533 3.9979 2.43487 0
M  V30 6075 H 572.706 5.66158 3.15228 0
M  V30 6076 N 566.112 -0.949982 1.2575 0
M  V30 6077 C 567.359 -1.69515 1.10774 0
M  V30 6078 C 567.687 -1.91316 -0.350479 0
M  V30 6079 O 566.942 -1.48515 -1.27443 0
M  V30 6080 C 567.241 -3.08039 1.81237 0
M  V30 6081 C 566.907 -3.06023 3.31151 0
M  V30 6082 C 565.569 -3.0518 3.72047 0
M  V30 6083 C 567.921 -2.98998 4.26907 0
M  V30 6084 C 565.249 -2.95067 5.07102 0
M  V30 6085 C 567.601 -2.90426 5.61992 0
M  V30 6086 C 566.265 -2.87922 6.0221 0
M  V30 6087 H 565.535 -0.6203 0.405351 0
M  V30 6088 H 568.182 -1.10953 1.56082 0
M  V30 6089 H 566.487 -3.70172 1.28373 0
M  V30 6090 H 568.184 -3.64526 1.67098 0
M  V30 6091 H 564.774 -3.07453 2.98614 0
M  V30 6092 H 568.958 -2.98764 3.963 0
M  V30 6093 H 564.214 -2.915 5.37436 0
M  V30 6094 H 568.388 -2.83952 6.35881 0
M  V30 6095 H 566.015 -2.79841 7.06819 0
M  V30 6096 N 567.59 -1.07411 -1.15328 0
M  V30 6097 C 568.82 -0.817595 -1.89734 0
M  V30 6098 C 569.228 0.63297 -1.78298 0
M  V30 6099 O 568.571 1.44594 -1.13306 0
M  V30 6100 C 568.633 -1.14748 -3.40695 0
M  V30 6101 C 568.297 -2.59876 -3.75917 0
M  V30 6102 C 569.294 -3.58122 -3.76888 0
M  V30 6103 C 566.979 -2.95469 -4.06206 0
M  V30 6104 C 568.973 -4.89996 -4.07655 0
M  V30 6105 C 566.66 -4.2754 -4.36638 0
M  V30 6106 C 567.658 -5.24614 -4.37344 0
M  V30 6107 O 567.346 -6.54312 -4.67045 0
M  V30 6108 H 567.078 -0.295175 -0.608151 0
M  V30 6109 H 569.632 -1.43409 -1.47048 0
M  V30 6110 H 567.862 -0.47395 -3.83785 0
M  V30 6111 H 569.551 -0.873397 -3.96392 0
M  V30 6112 H 570.317 -3.31966 -3.53587 0
M  V30 6113 H 566.196 -2.20558 -4.04815 0
M  V30 6114 H 569.74 -5.65759 -4.08121 0
M  V30 6115 H 565.637 -4.53449 -4.59407 0
M  V30 6116 H 566.405 -6.59473 -4.84807 0
M  V30 6117 N 569.068 1.32177 -0.85831 0
M  V30 6118 C 570.031 2.27086 -0.310588 0
M  V30 6119 C 571.031 1.51751 0.531806 0
M  V30 6120 O 572.221 1.70794 0.34279 0
M  V30 6121 C 569.353 3.36266 0.560179 0
M  V30 6122 H 570.546 2.77045 -1.1483 0
M  V30 6123 H 568.099 1.42911 -0.632942 0
M  V30 6124 H 568.834 2.9158 1.41956 0
M  V30 6125 H 568.619 3.92077 -0.0428473 0
M  V30 6126 H 570.109 4.06974 0.936056 0
M  V30 6127 N 570.547 0.616602 1.45037 0
M  V30 6128 C 571.794 0.115331 2.02171 0
M  V30 6129 C 572.122 -1.25748 1.48383 0
M  V30 6130 O 571.377 -1.84511 0.652229 0
M  V30 6131 C 571.676 0.0356829 3.57382 0
M  V30 6132 C 571.342 1.34535 4.30362 0
M  V30 6133 C 570.004 1.70408 4.50016 0
M  V30 6134 C 572.356 2.21049 4.72003 0
M  V30 6135 C 569.684 2.92529 5.0857 0
M  V30 6136 C 572.036 3.42427 5.31908 0
M  V30 6137 C 570.7 3.78541 5.49784 0
M  V30 6138 H 569.97 0.0422024 0.739797 0
M  V30 6139 H 572.617 0.80002 1.73988 0
M  V30 6140 H 570.922 -0.732314 3.84895 0
M  V30 6141 H 572.619 -0.368463 3.99304 0
M  V30 6142 H 569.209 1.05615 4.15383 0
M  V30 6143 H 573.393 1.94632 4.56544 0
M  V30 6144 H 568.649 3.20605 5.20598 0
M  V30 6145 H 572.823 4.09709 5.63127 0
M  V30 6146 H 570.45 4.73255 5.94923 0
M  V30 6147 N 572.025 -1.5352 0.356285 0
M  V30 6148 C 573.273 -2.00719 -0.235837 0
M  V30 6149 C 573.594 -1.24551 -1.5004 0
M  V30 6150 O 572.864 -0.356185 -1.92635 0
M  V30 6151 H 571.444 -0.741542 -0.0901366 0
M  V30 6152 H 574.106 -1.88887 0.480378 0
M  V30 6153 H 573.202 -3.08551 -0.469357 0
M  V30 6154 N 573.503 -0.0852151 -1.57369 0
M  V30 6155 C 574.919 0.271436 -1.57275 0
M  V30 6156 C 575.119 1.69109 -1.09565 0
M  V30 6157 O 574.175 2.40549 -0.767611 0
M  V30 6158 C 575.488 0.0688638 -3.00621 0
M  V30 6159 C 577.036 0.137373 -3.12698 0
M  V30 6160 C 577.511 -0.0370832 -4.57985 0
M  V30 6161 N 579.002 0.0180794 -4.63196 0
M  V30 6162 C 579.737 -0.0922953 -5.73326 0
M  V30 6163 N 579.233 -0.256948 -6.92323 0
M  V30 6164 N 581.026 -0.0342702 -5.6209 0
M  V30 6165 H 573.177 -1.01288 -1.86693 0
M  V30 6166 H 575.44 -0.396138 -0.861266 0
M  V30 6167 H 575.146 -0.911277 -3.39689 0
M  V30 6168 H 575.02 0.815442 -3.6828 0
M  V30 6169 H 577.407 1.10801 -2.73509 0
M  V30 6170 H 577.488 -0.640532 -2.47651 0
M  V30 6171 H 577.132 -1.00455 -4.97867 0
M  V30 6172 H 577.062 0.760392 -5.21081 0
M  V30 6173 H 579.553 0.143202 -3.77629 0
M  V30 6174 H 579.866 -0.332949 -7.72082 0
M  V30 6175 H 578.211 -0.292487 -6.94384 0
M  V30 6176 H 581.402 0.0931605 -4.68007 0
M  V30 6177 H 581.575 -0.12374 -6.47882 0
M  V30 6178 N 574.981 1.5647 0.188427 0
M  V30 6179 C 576.227 1.81281 0.909124 0
M  V30 6180 C 576.56 0.66034 1.82628 0
M  V30 6181 O 575.835 -0.338737 1.91528 0
M  V30 6182 C 576.118 3.16388 1.7196 0
M  V30 6183 C 575.971 4.42137 0.826714 0
M  V30 6184 C 577.29 3.48256 2.69083 0
M  V30 6185 H 574.409 0.659457 0.329068 0
M  V30 6186 H 577.051 1.89182 0.176156 0
M  V30 6187 H 575.201 3.09784 2.34448 0
M  V30 6188 H 576.873 4.60794 0.216025 0
M  V30 6189 H 575.116 4.33594 0.133792 0
M  V30 6190 H 575.787 5.33184 1.42893 0
M  V30 6191 H 578.263 3.55203 2.16726 0
M  V30 6192 H 577.139 4.43899 3.2287 0
M  V30 6193 H 577.4 2.72088 3.48455 0
M  V30 6194 N 576.459 -0.456382 1.50847 0
M  V30 6195 C 577.706 -1.20736 1.62571 0
M  V30 6196 C 578.034 -1.9163 0.332904 0
M  V30 6197 O 577.289 -1.8343 -0.682058 0
M  V30 6198 C 577.588 -2.26336 2.76599 0
M  V30 6199 C 577.254 -1.7259 4.16562 0
M  V30 6200 C 575.916 -1.57654 4.54641 0
M  V30 6201 C 578.268 -1.32877 5.03977 0
M  V30 6202 C 575.596 -1.0145 5.77862 0
M  V30 6203 C 577.948 -0.7811 6.27759 0
M  V30 6204 C 576.612 -0.618488 6.64628 0
M  V30 6205 H 575.882 -0.441803 0.594888 0
M  V30 6206 H 578.529 -0.501169 1.84826 0
M  V30 6207 H 576.834 -3.0292 2.48489 0
M  V30 6208 H 578.531 -2.84227 2.82871 0
M  V30 6209 H 575.121 -1.85187 3.86528 0
M  V30 6210 H 579.305 -1.43245 4.75179 0
M  V30 6211 H 574.561 -0.876109 6.0509 0
M  V30 6212 H 578.735 -0.464783 6.94847 0
M  V30 6213 H 576.362 -0.180838 7.59985 0
M  V30 6214 N 577.937 -1.40673 -0.710563 0
M  V30 6215 C 579.162 -1.42741 -1.50465 0
M  V30 6216 C 579.587 -0.0302116 -1.88076 0
M  V30 6217 O 578.945 0.962945 -1.53613 0
M  V30 6218 C 578.993 -2.32873 -2.75322 0
M  V30 6219 O 578.097 -1.77544 -3.72226 0
M  V30 6220 H 577.438 -0.485056 -0.45345 0
M  V30 6221 H 579.968 -1.84961 -0.874681 0
M  V30 6222 H 579.978 -2.48233 -3.23797 0
M  V30 6223 H 578.653 -3.34401 -2.47283 0
M  V30 6224 H 577.23 -1.71556 -3.31093 0
M  V30 6225 N 579.415 0.9433 -1.26252 0
M  V30 6226 C 580.663 1.68592 -1.11451 0
M  V30 6227 C 580.984 1.91957 0.343123 0
M  V30 6228 O 580.254 1.51475 1.24226 0
M  V30 6229 H 578.834 0.624789 -0.409448 0
M  V30 6230 H 581.496 1.13351 -1.58548 0
M  V30 6231 H 580.592 2.66054 -1.63162 0
M  V30 6232 N 580.893 1.08022 1.14757 0
M  V30 6233 C 582.121 0.828847 1.89572 0
M  V30 6234 C 582.536 -0.618621 1.78377 0
M  V30 6235 O 581.893 -1.42482 1.1404 0
M  V30 6236 C 581.944 1.23677 3.39685 0
M  V30 6237 O 581.665 2.62746 3.50566 0
M  V30 6238 C 583.166 1.01569 4.31507 0
M  V30 6239 H 580.386 0.299196 0.600602 0
M  V30 6240 H 582.93 1.43846 1.45357 0
M  V30 6241 H 581.085 0.671347 3.81539 0
M  V30 6242 H 581.499 2.79573 4.43778 0
M  V30 6243 H 582.973 1.35055 5.35223 0
M  V30 6244 H 583.45 -0.0475433 4.39174 0
M  V30 6245 H 584.056 1.56636 3.95405 0
M  V30 6246 N 582.371 -1.3172 0.865308 0
M  V30 6247 C 583.617 -1.97168 0.474633 0
M  V30 6248 C 583.95 -1.68263 -0.969604 0
M  V30 6249 O 583.225 -0.976588 -1.68205 0
M  V30 6250 C 583.508 -3.52689 0.726808 0
M  V30 6251 C 583.361 -3.91185 2.22024 0
M  V30 6252 C 584.68 -4.39689 0.190201 0
M  V30 6253 H 581.799 -0.716185 0.17392 0
M  V30 6254 H 584.441 -1.55925 1.08569 0
M  V30 6255 H 582.591 -3.8795 0.206705 0
M  V30 6256 H 584.263 -3.66049 2.80724 0
M  V30 6257 H 582.506 -3.3996 2.69462 0
M  V30 6258 H 583.177 -4.99604 2.34735 0
M  V30 6259 H 585.653 -4.11225 0.635103 0
M  V30 6260 H 584.529 -5.47469 0.396132 0
M  V30 6261 H 584.79 -4.32683 -0.907625 0
M  V30 6262 N 583.85 -0.624285 -1.44708 0
M  V30 6263 C 584.812 0.0749638 -2.29077 0
M  V30 6264 C 585.812 0.778965 -1.40673 0
M  V30 6265 O 587.003 0.624591 -1.62618 0
M  V30 6266 C 584.135 1.11663 -3.22094 0
M  V30 6267 H 585.327 -0.667013 -2.92388 0
M  V30 6268 H 582.88 -0.384098 -1.51507 0
M  V30 6269 H 583.615 1.88881 -2.63618 0
M  V30 6270 H 583.401 0.61583 -3.87234 0
M  V30 6271 H 584.891 1.60585 -3.8549 0
M  V30 6272 N 585.328 1.53329 -0.364422 0
M  V30 6273 C 586.556 2.05657 0.226424 0
M  V30 6274 C 586.971 1.23801 1.42544 0
M  V30 6275 O 586.328 0.27839 1.80364 0
M  V30 6276 C 586.379 3.56125 0.621056 0
M  V30 6277 O 586.1 4.34879 -0.530304 0
M  V30 6278 C 587.601 4.24706 1.27041 0
M  V30 6279 H 584.821 0.669806 0.0400056 0
M  V30 6280 H 587.365 1.97714 -0.522456 0
M  V30 6281 H 585.52 3.64223 1.31985 0
M  V30 6282 H 585.934 5.24073 -0.211546 0
M  V30 6283 H 587.408 5.3131 1.49711 0
M  V30 6284 H 587.885 3.78354 2.23036 0
M  V30 6285 H 588.491 4.20858 0.613079 0
M  V30 6286 N 586.806 0.0935595 1.57322 0
M  V30 6287 C 588.054 -0.569383 1.93913 0
M  V30 6288 C 588.375 -1.68817 0.976009 0
M  V30 6289 O 587.645 -1.9588 0.0278099 0
M  V30 6290 H 586.225 -0.21332 0.715894 0
M  V30 6291 H 588.887 0.156531 1.9427 0
M  V30 6292 H 587.983 -0.980577 2.96296 0
M  V30 6293 N 588.284 -1.56567 -0.180126 0
M  V30 6294 C 589.216 -1.92275 -1.24751 0
M  V30 6295 C 590.229 -0.814922 -1.40936 0
M  V30 6296 O 591.418 -1.09336 -1.41095 0
M  V30 6297 C 588.518 -2.15265 -2.61752 0
M  V30 6298 C 587.691 -3.46467 -2.66981 0
M  V30 6299 C 586.75 -3.58391 -3.85283 0
M  V30 6300 O 585.776 -4.31086 -3.7169 0
M  V30 6301 N 586.978 -2.92587 -5.01371 0
M  V30 6302 H 589.743 -2.84435 -0.944302 0
M  V30 6303 H 587.304 -1.57617 -0.369952 0
M  V30 6304 H 589.296 -2.20515 -3.39345 0
M  V30 6305 H 587.866 -1.29533 -2.845 0
M  V30 6306 H 587.086 -3.52953 -1.75549 0
M  V30 6307 H 588.374 -4.32819 -2.67479 0
M  V30 6308 H 587.772 -2.3338 -5.15316 0
M  V30 6309 H 586.329 -3.03444 -5.76858 0
M  V30 6310 N 589.762 0.448376 -1.51087 0
M  V30 6311 C 590.709 1.54341 -1.71603 0
M  V30 6312 C 591.679 1.56463 -0.557536 0
M  V30 6313 O 592.864 1.73644 -0.79072 0
M  V30 6314 C 590.004 2.92148 -1.83695 0
M  V30 6315 C 589.117 2.99639 -3.11192 0
M  V30 6316 C 588.252 4.285 -3.13944 0
M  V30 6317 C 587.291 4.29819 -4.35801 0
M  V30 6318 N 586.428 5.50186 -4.36164 0
M  V30 6319 H 591.268 1.36151 -2.65079 0
M  V30 6320 H 588.805 0.661585 -1.31383 0
M  V30 6321 H 590.763 3.72093 -1.88687 0
M  V30 6322 H 589.393 3.0892 -0.936374 0
M  V30 6323 H 588.445 2.12425 -3.15562 0
M  V30 6324 H 589.757 2.96474 -4.01129 0
M  V30 6325 H 588.911 5.16811 -3.17791 0
M  V30 6326 H 587.65 4.34307 -2.21876 0
M  V30 6327 H 586.655 3.39902 -4.32142 0
M  V30 6328 H 587.88 4.25685 -5.29121 0
M  V30 6329 H 585.826 5.56735 -3.46961 0
M  V30 6330 H 585.743 5.48856 -5.19897 0
M  V30 6331 H 587.011 6.40559 -4.44189 0
M  V30 6332 N 591.24 1.41047 0.703093 0
M  V30 6333 C 592.486 1.40207 1.46526 0
M  V30 6334 C 592.819 0.00847763 1.94198 0
M  V30 6335 O 592.094 -0.962437 1.69019 0
M  V30 6336 C 592.377 2.40238 2.6825 0
M  V30 6337 C 592.23 3.88674 2.26391 0
M  V30 6338 C 593.549 2.37627 3.70434 0
M  V30 6339 H 590.668 0.510594 0.531472 0
M  V30 6340 H 593.31 1.72271 0.801422 0
M  V30 6341 H 591.46 2.13026 3.24888 0
M  V30 6342 H 593.132 4.2676 1.75138 0
M  V30 6343 H 591.375 4.03903 1.58255 0
M  V30 6344 H 592.046 4.542 3.13698 0
M  V30 6345 H 594.522 2.61759 3.23452 0
M  V30 6346 H 593.398 3.09645 4.53223 0
M  V30 6347 H 593.659 1.39223 4.19606 0
M  V30 6348 N 592.718 -0.936591 1.26751 0
M  V30 6349 C 594.134 -1.21095 1.03963 0
M  V30 6350 C 594.334 -2.00156 -0.232372 0
M  V30 6351 O 593.39 -2.3434 -0.940274 0
M  V30 6352 C 594.703 -1.96775 2.27377 0
M  V30 6353 C 596.251 -2.09749 2.32324 0
M  V30 6354 C 596.726 -2.88832 3.55443 0
M  V30 6355 N 598.217 -2.96404 3.55948 0
M  V30 6356 C 598.952 -3.58036 4.47881 0
M  V30 6357 N 598.448 -4.21132 5.50109 0
M  V30 6358 N 600.241 -3.55353 4.35523 0
M  V30 6359 H 592.392 -0.408173 2.08441 0
M  V30 6360 H 594.655 -0.243139 0.91629 0
M  V30 6361 H 594.361 -1.46094 3.19921 0
M  V30 6362 H 594.235 -2.97424 2.31989 0
M  V30 6363 H 596.622 -2.5962 1.40291 0
M  V30 6364 H 596.703 -1.08347 2.31721 0
M  V30 6365 H 596.347 -2.39647 4.47808 0
M  V30 6366 H 596.277 -3.90499 3.53296 0
M  V30 6367 H 598.768 -2.51552 2.82011 0
M  V30 6368 H 599.081 -4.66071 6.16439 0
M  V30 6369 H 597.426 -4.19705 5.53961 0
M  V30 6370 H 600.617 -3.05256 3.54875 0
M  V30 6371 H 600.79 -4.03097 5.07363 0
M  V30 6372 N 594.196 -1.08629 -1.14182 0
M  V30 6373 C 595.445 -0.812271 -1.84621 0
M  V30 6374 C 595.758 0.664313 -1.83973 0
M  V30 6375 O 596.964 1.05357 -2.50224 0
M  V30 6376 C 595.42 -1.4031 -3.31423 0
M  V30 6377 C 595.028 -2.91164 -3.40481 0
M  V30 6378 C 596.772 -1.20767 -4.06959 0
M  V30 6379 C 594.679 -3.43373 -4.81507 0
M  V30 6380 H 593.609 -0.30019 -0.691666 0
M  V30 6381 H 596.26 -1.30798 -1.28701 0
M  V30 6382 H 594.642 -0.835096 -3.87094 0
M  V30 6383 H 595.816 -3.5412 -2.94848 0
M  V30 6384 H 594.131 -3.09646 -2.78403 0
M  V30 6385 H 596.728 -1.57237 -5.11058 0
M  V30 6386 H 597.071 -0.147664 -4.16038 0
M  V30 6387 H 597.604 -1.74274 -3.57594 0
M  V30 6388 H 594.343 -4.48958 -4.77616 0
M  V30 6389 H 593.863 -2.85176 -5.27669 0
M  V30 6390 H 595.542 -3.40095 -5.50404 0
M  V30 6391 N 595.674 1.31259 -0.872281 0
M  V30 6392 C 596.606 2.27396 -0.28697 0
M  V30 6393 C 597.619 1.53181 0.551297 0
M  V30 6394 O 598.808 1.74561 0.372914 0
M  V30 6395 C 595.908 3.33335 0.611617 0
M  V30 6396 C 595.081 4.36966 -0.194729 0
M  V30 6397 C 594.14 5.22387 0.632358 0
M  V30 6398 O 593.166 5.69169 0.0595691 0
M  V30 6399 N 594.368 5.46985 1.94391 0
M  V30 6400 H 597.133 2.78261 -1.11314 0
M  V30 6401 H 594.694 1.44306 -0.733994 0
M  V30 6402 H 596.686 3.87398 1.17068 0
M  V30 6403 H 595.256 2.82496 1.33846 0
M  V30 6404 H 594.476 3.82945 -0.935241 0
M  V30 6405 H 595.764 5.03273 -0.747935 0
M  V30 6406 H 595.162 5.10737 2.43237 0
M  V30 6407 H 593.719 6.03973 2.45071 0
M  V30 6408 N 597.152 0.631951 1.44375 0
M  V30 6409 C 598.4 0.136497 2.01639 0
M  V30 6410 C 598.721 -1.24637 1.49969 0
M  V30 6411 O 597.991 -1.82827 0.70363 0
M  V30 6412 H 596.571 0.0474703 0.74549 0
M  V30 6413 H 599.233 0.818837 1.76865 0
M  V30 6414 H 598.329 0.104817 3.11924 0
M  V30 6415 N 598.631 -1.53133 0.372548 0
M  V30 6416 C 600.042 -1.86404 -0.105155 0
M  V30 6417 C 600.393 -1.29289 -1.47576 0
M  V30 6418 O 599.518 -0.617646 -2.07398 0
M  V30 6419 C 600.113 -3.38223 -0.197588 0
M  V30 6420 C 598.672 -3.71266 -0.619556 0
M  V30 6421 C 597.819 -2.76353 0.228919 0
M  V30 6422 H 600.77 -1.47282 0.591077 0
M  V30 6423 H 600.791 -3.66577 -1.01987 0
M  V30 6424 H 600.303 -3.79763 0.800099 0
M  V30 6425 H 598.404 -3.35287 -1.62522 0
M  V30 6426 H 598.517 -4.77515 -0.389332 0
M  V30 6427 H 596.881 -2.52888 -0.303271 0
M  V30 6428 H 597.664 -3.20728 1.22428 0
M  V30 6429 N 600.109 -0.101901 -1.5727 0
M  V30 6430 C 601.059 0.865346 -2.1094 0
M  V30 6431 C 602.043 1.2394 -1.02605 0
M  V30 6432 O 603.235 1.21334 -1.28868 0
M  V30 6433 C 600.364 2.12187 -2.69874 0
M  V30 6434 C 599.45 1.77295 -3.85263 0
M  V30 6435 N 599.841 1.12993 -4.93017 0
M  V30 6436 C 598.139 2.06862 -3.95126 0
M  V30 6437 C 598.84 0.968631 -5.73579 0
M  V30 6438 N 597.816 1.48814 -5.22834 0
M  V30 6439 H 601.618 0.364368 -2.91633 0
M  V30 6440 H 599.132 0.101104 -1.62085 0
M  V30 6441 H 601.129 2.82431 -3.06657 0
M  V30 6442 H 599.789 2.62844 -1.90639 0
M  V30 6443 H 600.8 0.795935 -5.11747 0
M  V30 6444 H 597.477 2.59686 -3.26909 0
M  V30 6445 H 598.867 0.465231 -6.70287 0
M  V30 6446 N 601.587 1.56661 0.17182 0
M  V30 6447 C 602.817 1.85831 0.902804 0
M  V30 6448 C 603.225 0.685157 1.76358 0
M  V30 6449 O 602.568 -0.354947 1.80238 0
M  V30 6450 C 602.63 3.09406 1.83053 0
M  V30 6451 C 602.294 4.4231 1.1494 0
M  V30 6452 C 603.291 5.17342 0.515104 0
M  V30 6453 C 600.976 4.89045 1.14631 0
M  V30 6454 C 602.97 6.37299 -0.113194 0
M  V30 6455 C 600.657 6.08933 0.514184 0
M  V30 6456 C 601.655 6.82904 -0.114463 0
M  V30 6457 O 601.343 8.00518 -0.736622 0
M  V30 6458 H 601.075 0.620715 0.267748 0
M  V30 6459 H 603.629 2.04637 0.176918 0
M  V30 6460 H 601.859 2.86544 2.59672 0
M  V30 6461 H 603.548 3.25027 2.4313 0
M  V30 6462 H 604.314 4.82317 0.509474 0
M  V30 6463 H 600.193 4.31409 1.62502 0
M  V30 6464 H 603.737 6.94976 -0.604477 0
M  V30 6465 H 599.634 6.43423 0.517395 0
M  V30 6466 H 600.402 8.16027 -0.635822 0
M  V30 6467 N 603.065 -0.440357 1.51323 0
M  V30 6468 C 604.311 -1.19181 1.64085 0
M  V30 6469 C 604.644 -1.90936 0.354575 0
M  V30 6470 O 603.919 -1.8347 -0.645675 0
M  V30 6471 C 604.202 -2.2112 2.84215 0
M  V30 6472 C 604.055 -1.53468 4.22809 0
M  V30 6473 C 605.374 -3.22133 2.99864 0
M  V30 6474 H 602.493 -0.431924 0.597169 0
M  V30 6475 H 605.135 -0.481443 1.83799 0
M  V30 6476 H 603.285 -2.81703 2.67537 0
M  V30 6477 H 604.957 -0.962455 4.51148 0
M  V30 6478 H 603.2 -0.837086 4.25647 0
M  V30 6479 H 603.871 -2.27694 5.02852 0
M  V30 6480 H 606.347 -2.71601 3.15233 0
M  V30 6481 H 605.223 -3.90756 3.85488 0
M  V30 6482 H 605.484 -3.88061 2.11804 0
M  V30 6483 N 604.543 -1.41418 -0.695603 0
M  V30 6484 C 605.954 -1.36335 -1.27552 0
M  V30 6485 C 606.305 -0.0464336 -1.96145 0
M  V30 6486 O 605.43 0.855304 -1.9878 0
M  V30 6487 C 606.025 -2.46941 -2.3196 0
M  V30 6488 C 604.584 -2.45256 -2.85529 0
M  V30 6489 C 603.731 -2.2679 -1.59566 0
M  V30 6490 H 606.682 -1.50934 -0.490362 0
M  V30 6491 H 606.703 -2.15997 -3.1325 0
M  V30 6492 H 606.215 -3.42775 -1.82008 0
M  V30 6493 H 604.316 -1.53179 -3.39657 0
M  V30 6494 H 604.429 -3.41565 -3.35961 0
M  V30 6495 H 602.793 -1.74667 -1.85374 0
M  V30 6496 H 603.576 -3.24651 -1.1161 0
M  V30 6497 N 606.021 0.929856 -1.27246 0
M  V30 6498 C 607.269 1.674 -1.13233 0
M  V30 6499 C 607.59 1.92311 0.322744 0
M  V30 6500 O 606.86 1.52784 1.22612 0
M  V30 6501 H 605.44 0.620411 -0.416052 0
M  V30 6502 H 608.102 1.11663 -1.59741 0
M  V30 6503 H 607.198 2.64308 -1.65975 0
M  V30 6504 N 607.499 1.09233 1.13605 0
M  V30 6505 C 608.409 0.741939 2.22559 0
M  V30 6506 C 609.425 -0.255236 1.72118 0
M  V30 6507 O 610.601 -0.0970747 2.01166 0
M  V30 6508 C 607.666 0.165595 3.46304 0
M  V30 6509 C 606.727 1.21846 4.11645 0
M  V30 6510 C 605.96 0.669526 5.29484 0
M  V30 6511 O 606.183 -0.508228 5.68131 0
M  V30 6512 O 605.117 1.42361 5.84822 0
M  V30 6513 H 608.943 1.65107 2.54899 0
M  V30 6514 H 606.528 0.866584 1.21699 0
M  V30 6515 H 608.41 -0.152592 4.21124 0
M  V30 6516 H 607.085 -0.716573 3.15669 0
M  V30 6517 H 605.992 1.58931 3.38662 0
M  V30 6518 H 607.325 2.07321 4.46407 0
M  V30 6519 N 608.977 -1.30795 0.87923 0
M  V30 6520 C 609.924 -2.28282 0.339968 0
M  V30 6521 C 610.894 -1.56134 -0.566685 0
M  V30 6522 O 612.079 -1.84231 -0.496338 0
M  V30 6523 C 609.219 -3.42225 -0.444501 0
M  V30 6524 C 608.332 -4.29204 0.490717 0
M  V30 6525 C 607.467 -5.30302 -0.308784 0
M  V30 6526 C 606.506 -6.08929 0.622272 0
M  V30 6527 N 605.643 -7.01957 -0.14155 0
M  V30 6528 H 610.483 -2.73794 1.17647 0
M  V30 6529 H 608.02 -1.34682 0.591527 0
M  V30 6530 H 609.978 -4.07038 -0.915186 0
M  V30 6531 H 608.608 -2.97799 -1.24562 0
M  V30 6532 H 607.66 -3.6475 1.07988 0
M  V30 6533 H 608.972 -4.84045 1.20425 0
M  V30 6534 H 608.126 -6.00835 -0.841575 0
M  V30 6535 H 606.865 -4.7614 -1.05556 0
M  V30 6536 H 605.87 -5.37278 1.16674 0
M  V30 6537 H 607.095 -6.65178 1.36804 0
M  V30 6538 H 605.041 -6.50192 -0.870966 0
M  V30 6539 H 604.958 -7.54261 0.51246 0
M  V30 6540 H 606.226 -7.76741 -0.655271 0
M  V30 6541 N 610.455 -0.639598 -1.44038 0
M  V30 6542 C 611.683 -0.154811 -2.0632 0
M  V30 6543 C 612.098 1.17406 -1.47856 0
M  V30 6544 O 611.455 1.72193 -0.604638 0
M  V30 6545 C 611.506 -0.0429958 -3.61474 0
M  V30 6546 O 611.227 -1.31932 -4.17763 0
M  V30 6547 C 612.728 0.469486 -4.40807 0
M  V30 6548 H 609.948 -0.0835862 -0.665773 0
M  V30 6549 H 612.492 -0.876397 -1.84769 0
M  V30 6550 H 610.647 0.629075 -3.82258 0
M  V30 6551 H 611.061 -1.16965 -5.11292 0
M  V30 6552 H 612.535 0.496712 -5.49761 0
M  V30 6553 H 613.012 1.49819 -4.12857 0
M  V30 6554 H 613.618 -0.169624 -4.24962 0
M  V30 6555 N 611.933 1.52934 -0.380664 0
M  V30 6556 C 613.21 1.93845 0.261417 0
M  V30 6557 C 613.59 1.31544 1.65104 0
M  V30 6558 O 612.938 0.480234 2.23397 0
M  V30 6559 C 613.148 3.47739 0.296466 0
M  V30 6560 C 614.496 4.21284 0.529578 0
M  V30 6561 O 615.52 3.54199 0.377041 0
M  V30 6562 O 614.379 5.40195 0.827753 0
M  V30 6563 H 611.473 0.811318 0.160285 0
M  V30 6564 H 614.019 1.64042 -0.434544 0
M  V30 6565 H 612.791 3.85395 -0.67724 0
M  V30 6566 H 612.414 3.8382 1.0377 0
M  V30 6567 N 613.412 0.11024 1.57214 0
M  V30 6568 C 614.342 -0.840002 2.17867 0
M  V30 6569 C 615.323 -1.28352 1.11624 0
M  V30 6570 O 616.508 -1.3477 1.39824 0
M  V30 6571 C 613.638 -2.09349 2.77111 0
M  V30 6572 C 612.592 -1.78807 3.8886 0
M  V30 6573 C 611.918 -3.11112 4.34872 0
M  V30 6574 C 613.218 -1.0632 5.11364 0
M  V30 6575 H 614.912 -0.334608 2.97524 0
M  V30 6576 H 612.458 -0.159502 1.43114 0
M  V30 6577 H 614.411 -2.76275 3.18198 0
M  V30 6578 H 613.135 -2.62198 1.9473 0
M  V30 6579 H 611.794 -1.14273 3.48335 0
M  V30 6580 H 611.442 -3.61877 3.49362 0
M  V30 6581 H 611.142 -2.91453 5.10224 0
M  V30 6582 H 612.666 -3.79171 4.78604 0
M  V30 6583 H 614.08 -1.63383 5.49526 0
M  V30 6584 H 612.477 -0.967876 5.92243 0
M  V30 6585 H 613.547 -0.0484569 4.84876 0
M  V30 6586 N 614.89 -1.56749 -0.16351 0
M  V30 6587 C 616.12 -1.86307 -0.892936 0
M  V30 6588 C 616.528 -0.6945 -1.75992 0
M  V30 6589 O 615.871 0.345384 -1.80424 0
M  V30 6590 C 615.933 -3.10372 -1.81409 0
M  V30 6591 C 615.597 -4.42913 -1.12593 0
M  V30 6592 C 616.594 -5.17608 -0.487661 0
M  V30 6593 C 614.279 -4.89646 -1.12035 0
M  V30 6594 C 616.273 -6.3723 0.14699 0
M  V30 6595 C 613.96 -6.09197 -0.481883 0
M  V30 6596 C 614.958 -6.82834 0.150678 0
M  V30 6597 O 614.646 -8.00116 0.779065 0
M  V30 6598 H 614.378 -0.622126 -0.264452 0
M  V30 6599 H 616.932 -2.04728 -0.166063 0
M  V30 6600 H 615.162 -2.87917 -2.58148 0
M  V30 6601 H 616.851 -3.26312 -2.41403 0
M  V30 6602 H 617.617 -4.8258 -0.483888 0
M  V30 6603 H 613.496 -4.32265 -1.60212 0
M  V30 6604 H 617.04 -6.94646 0.641325 0
M  V30 6605 H 612.937 -6.43688 -0.483266 0
M  V30 6606 H 613.705 -8.15678 0.679089 0
M  V30 6607 N 616.368 0.432326 -1.51554 0
M  V30 6608 C 617.278 1.55023 -1.76082 0
M  V30 6609 C 618.294 1.61593 -0.645265 0
M  V30 6610 O 619.47 1.78742 -0.928086 0
M  V30 6611 C 616.535 2.90964 -1.88523 0
M  V30 6612 C 615.596 2.9447 -3.12388 0
M  V30 6613 C 614.829 4.23926 -3.24225 0
M  V30 6614 O 615.052 5.16576 -2.4188 0
M  V30 6615 O 613.986 4.33818 -4.17235 0
M  V30 6616 H 617.812 1.37238 -2.70923 0
M  V30 6617 H 615.397 0.615845 -1.36117 0
M  V30 6618 H 617.279 3.71633 -1.98662 0
M  V30 6619 H 615.954 3.08865 -0.9687 0
M  V30 6620 H 614.861 2.12737 -3.07723 0
M  V30 6621 H 616.194 2.81514 -4.03746 0
M  V30 6622 N 617.846 1.41785 0.688094 0
M  V30 6623 C 618.793 1.44221 1.80191 0
M  V30 6624 C 619.763 0.295688 1.63447 0
M  V30 6625 O 620.948 0.49783 1.84191 0
M  V30 6626 C 618.088 1.33743 3.1813 0
M  V30 6627 C 617.201 2.58325 3.46254 0
M  V30 6628 C 616.336 2.40086 4.73848 0
M  V30 6629 C 615.375 3.60107 4.94964 0
M  V30 6630 N 614.512 3.40892 6.13789 0
M  V30 6631 H 619.352 2.39411 1.77444 0
M  V30 6632 H 616.889 1.18876 0.866423 0
M  V30 6633 H 618.847 1.25669 3.97823 0
M  V30 6634 H 617.477 0.42157 3.20035 0
M  V30 6635 H 616.529 2.7682 2.60912 0
M  V30 6636 H 617.841 3.4758 3.57756 0
M  V30 6637 H 616.995 2.29522 5.61609 0
M  V30 6638 H 615.734 1.483 4.64606 0
M  V30 6639 H 614.739 3.71118 4.05649 0
M  V30 6640 H 615.964 4.52857 5.06061 0
M  V30 6641 H 613.91 2.51812 6.05745 0
M  V30 6642 H 613.827 4.23727 6.26092 0
M  V30 6643 H 615.095 3.34114 7.04264 0
M  V30 6644 N 619.324 -0.923095 1.27737 0
M  V30 6645 C 620.272 -2.04567 1.10703 0
M  V30 6646 C 621.266 -1.69375 0.0288445 0
M  V30 6647 O 622.472 -1.79027 0.186913 0
M  V30 6648 H 618.847 -0.670109 0.34126 0
M  V30 6649 H 620.818 -2.1608 2.05796 0
M  V30 6650 C 619.567 -3.38934 0.775837 0
M  V30 6651 H 618.89 -3.66501 1.59741 0
M  V30 6652 H 620.33 -4.18239 0.696548 0
M  V30 6653 C 618.789 -3.32863 -0.520012 0
M  V30 6654 O 619.319 -3.70462 -1.55308 0
M  V30 6655 N 617.525 -2.85958 -0.51732 0
M  V30 6656 H 617.072 -2.55557 0.32379 0
M  V30 6657 H 617.03 -2.82279 -1.38441 0
M  V30 6658 N 620.802 -1.09834 -1.13024 0
M  V30 6659 C 622.051 -0.831806 -1.83749 0
M  V30 6660 C 622.364 0.644763 -1.84668 0
M  V30 6661 O 623.57 1.02697 -2.51327 0
M  V30 6662 C 622.026 -1.43817 -3.29916 0
M  V30 6663 C 621.634 -2.94759 -3.37374 0
M  V30 6664 C 623.378 -1.25077 -4.05655 0
M  V30 6665 C 621.285 -3.48461 -4.77838 0
M  V30 6666 H 620.215 -0.30751 -0.688443 0
M  V30 6667 H 622.866 -1.32156 -1.27307 0
M  V30 6668 H 621.248 -0.876106 -3.86187 0
M  V30 6669 H 622.422 -3.57228 -2.91076 0
M  V30 6670 H 620.737 -3.12581 -2.75103 0
M  V30 6671 H 623.334 -1.62649 -5.09362 0
M  V30 6672 H 623.677 -0.191782 -4.15858 0
M  V30 6673 H 624.21 -1.78057 -3.55725 0
M  V30 6674 H 620.949 -4.53998 -4.72828 0
M  V30 6675 H 620.469 -2.90757 -5.24615 0
M  V30 6676 H 622.148 -3.45914 -5.46766 0
M  V30 6677 N 622.28 1.30327 -0.886154 0
M  V30 6678 C 623.212 2.27079 -0.311072 0
M  V30 6679 C 624.225 1.53758 0.53502 0
M  V30 6680 O 625.414 1.74947 0.354378 0
M  V30 6681 C 622.514 3.33965 0.576228 0
M  V30 6682 C 621.687 4.36735 -0.241064 0
M  V30 6683 C 620.746 5.23028 0.576916 0
M  V30 6684 O 619.772 5.692 -0.000802231 0
M  V30 6685 N 620.974 5.49016 1.88579 0
M  V30 6686 H 623.739 2.77065 -1.14259 0
M  V30 6687 H 621.3 1.43519 -0.749258 0
M  V30 6688 H 623.292 3.88618 1.12953 0
M  V30 6689 H 621.862 2.839 1.30842 0
M  V30 6690 H 621.082 3.81932 -0.975805 0
M  V30 6691 H 622.37 5.02451 -0.801272 0
M  V30 6692 H 621.768 5.13288 2.37806 0
M  V30 6693 H 620.325 6.06539 2.38651 0
M  V30 6694 N 623.758 0.647228 1.43697 0
M  V30 6695 C 625.174 0.314256 1.56476 0
M  V30 6696 C 625.374 -1.18191 1.63196 0
M  V30 6697 O 624.43 -1.96655 1.58376 0
M  V30 6698 C 625.743 1.02034 2.82859 0
M  V30 6699 C 627.291 1.00002 2.96595 0
M  V30 6700 C 627.766 1.68689 4.25803 0
M  V30 6701 N 629.257 1.65424 4.32654 0
M  V30 6702 C 629.992 2.1545 5.31384 0
M  V30 6703 N 629.488 2.73738 6.36427 0
M  V30 6704 N 631.281 2.05985 5.22998 0
M  V30 6705 H 623.432 1.61821 1.37578 0
M  V30 6706 H 625.695 0.680184 0.660344 0
M  V30 6707 H 625.401 2.07542 2.83935 0
M  V30 6708 H 625.275 0.568146 3.72897 0
M  V30 6709 H 627.662 -0.0466319 2.95063 0
M  V30 6710 H 627.743 1.49086 2.07863 0
M  V30 6711 H 627.387 2.73308 4.28095 0
M  V30 6712 H 627.317 1.17076 5.13421 0
M  V30 6713 H 629.808 1.22884 3.57363 0
M  V30 6714 H 630.121 3.09602 7.08072 0
M  V30 6715 H 628.466 2.77796 6.37067 0
M  V30 6716 H 631.657 1.60157 4.39849 0
M  V30 6717 H 631.83 2.45281 5.99784 0
M  V30 6718 N 625.236 -1.5273 0.388769 0
M  V30 6719 C 626.464 -2.05992 -0.193677 0
M  V30 6720 C 626.879 -1.26053 -1.40557 0
M  V30 6721 O 626.236 -0.307049 -1.79898 0
M  V30 6722 C 626.287 -3.57068 -0.564321 0
M  V30 6723 O 626.008 -4.3398 0.599422 0
M  V30 6724 C 627.509 -4.26674 -1.20269 0
M  V30 6725 H 624.729 -0.670358 -0.0293445 0
M  V30 6726 H 627.273 -1.96857 0.553844 0
M  V30 6727 H 625.428 -3.66277 -1.26174 0
M  V30 6728 H 625.842 -5.2367 0.294895 0
M  V30 6729 H 627.316 -5.33625 -1.4124 0
M  V30 6730 H 627.793 -3.81854 -2.16989 0
M  V30 6731 H 628.399 -4.2178 -0.546047 0
M  V30 6732 N 626.714 -0.118576 -1.57153 0
M  V30 6733 C 627.96 0.540326 -1.95469 0
M  V30 6734 C 628.293 1.66356 -1.00196 0
M  V30 6735 O 627.568 1.94461 -0.039104 0
M  V30 6736 C 627.851 1.07342 -3.43729 0
M  V30 6737 C 627.704 -0.0463732 -4.49776 0
M  V30 6738 C 629.023 1.96442 -3.93826 0
M  V30 6739 H 626.142 0.19494 -0.710751 0
M  V30 6740 H 628.784 -0.19405 -1.89006 0
M  V30 6741 H 626.934 1.69925 -3.49368 0
M  V30 6742 H 628.606 -0.681648 -4.56236 0
M  V30 6743 H 626.849 -0.709574 -4.27957 0
M  V30 6744 H 627.52 0.367856 -5.50773 0
M  V30 6745 H 629.996 1.43731 -3.90488 0
M  V30 6746 H 628.872 2.3066 -4.98084 0
M  V30 6747 H 629.133 2.89077 -3.34495 0
M  V30 6748 N 628.193 1.56834 0.155195 0
M  V30 6749 C 629.123 2.00678 1.19376 0
M  V30 6750 C 630.104 0.884973 1.45266 0
M  V30 6751 O 631.289 1.1522 1.56326 0
M  V30 6752 C 628.419 2.38042 2.5289 0
M  V30 6753 C 627.373 3.53332 2.41538 0
M  V30 6754 C 626.699 3.76485 3.79688 0
M  V30 6755 C 627.999 4.86265 1.9064 0
M  V30 6756 H 629.693 2.87688 0.829232 0
M  V30 6757 H 627.239 1.38407 0.397445 0
M  V30 6758 H 629.192 2.67314 3.25763 0
M  V30 6759 H 627.916 1.4796 2.91162 0
M  V30 6760 H 626.575 3.24213 1.71117 0
M  V30 6761 H 626.223 2.83667 4.15382 0
M  V30 6762 H 625.923 4.54068 3.72956 0
M  V30 6763 H 627.447 4.08174 4.54122 0
M  V30 6764 H 628.861 5.14308 2.53299 0
M  V30 6765 H 627.258 5.67597 1.94818 0
M  V30 6766 H 628.328 4.77184 0.861596 0
M  V30 6767 N 629.671 -0.424282 1.51781 0
M  V30 6768 C 630.604 -1.53633 1.68737 0
M  V30 6769 C 631.582 -1.53549 0.534915 0
M  V30 6770 O 632.766 -1.72483 0.760391 0
M  V30 6771 C 629.893 -2.92195 1.71288 0
M  V30 6772 C 628.939 -3.10251 2.92654 0
M  V30 6773 S 629.772 -2.85166 4.53256 0
M  V30 6774 C 630.928 -4.25986 4.58571 0
M  V30 6775 H 631.161 -1.39018 2.62795 0
M  V30 6776 H 628.694 -0.614854 1.41629 0
M  V30 6777 H 630.652 -3.72059 1.73443 0
M  V30 6778 H 629.313 -3.04162 0.783847 0
M  V30 6779 H 628.506 -4.1159 2.90877 0
M  V30 6780 H 628.108 -2.38231 2.88308 0
M  V30 6781 H 630.4 -5.19392 4.35015 0
M  V30 6782 H 631.343 -4.32792 5.60444 0
M  V30 6783 H 631.751 -4.1025 3.87757 0
M  V30 6784 N 631.149 -1.42148 -0.680565 0
M  V30 6785 C 632.082 -1.39602 -1.80517 0
M  V30 6786 C 633.06 -0.261098 -1.6049 0
M  V30 6787 O 634.244 -0.450404 -1.8304 0
M  V30 6788 C 631.371 -1.18134 -3.1743 0
M  V30 6789 C 630.417 -2.34543 -3.56219 0
M  V30 6790 S 631.25 -3.97063 -3.59306 0
M  V30 6791 C 632.406 -3.77926 -4.98921 0
M  V30 6792 H 632.639 -2.3477 -1.82402 0
M  V30 6793 H 630.172 -1.28851 -0.850691 0
M  V30 6794 H 632.13 -1.06434 -3.96462 0
M  V30 6795 H 630.791 -0.245611 -3.13138 0
M  V30 6796 H 629.984 -2.15255 -4.55721 0
M  V30 6797 H 629.586 -2.42728 -2.84533 0
M  V30 6798 H 631.878 -3.3856 -5.86842 0
M  V30 6799 H 632.821 -4.77084 -5.23256 0
M  V30 6800 H 633.229 -3.10904 -4.71167 0
M  V30 6801 N 632.627 0.916307 -1.28225 0
M  V30 6802 C 633.875 1.6619 -1.15002 0
M  V30 6803 C 634.196 1.92642 0.302329 0
M  V30 6804 O 633.466 1.54076 1.20985 0
M  V30 6805 H 632.046 0.615964 -0.422608 0
M  V30 6806 H 634.708 1.09963 -1.60917 0
M  V30 6807 H 633.804 2.62533 -1.68769 0
M  V30 6808 N 634.105 1.10431 1.1244 0
M  V30 6809 C 635.521 0.836096 1.35947 0
M  V30 6810 C 635.721 -0.544475 1.94004 0
M  V30 6811 O 634.777 -1.29735 2.16622 0
M  V30 6812 C 636.09 1.93575 2.30107 0
M  V30 6813 C 637.638 1.9642 2.43697 0
M  V30 6814 C 638.113 3.05559 3.41171 0
M  V30 6815 N 639.604 3.04865 3.48728 0
M  V30 6816 C 640.339 3.85954 4.24061 0
M  V30 6817 N 639.835 4.76977 5.02458 0
M  V30 6818 N 641.628 3.74172 4.19466 0
M  V30 6819 H 633.779 1.9942 0.731124 0
M  V30 6820 H 636.042 0.866607 0.384312 0
M  V30 6821 H 635.748 2.92943 1.94621 0
M  V30 6822 H 635.622 1.8229 3.30227 0
M  V30 6823 H 638.009 0.97685 2.78463 0
M  V30 6824 H 638.09 2.11782 1.43465 0
M  V30 6825 H 637.734 4.04513 3.07135 0
M  V30 6826 H 637.664 2.87438 4.41234 0
M  V30 6827 H 640.155 2.38908 2.92799 0
M  V30 6828 H 640.468 5.35409 5.57277 0
M  V30 6829 H 638.813 4.81006 5.01655 0
M  V30 6830 H 642.004 3.02412 3.57302 0
M  V30 6831 H 642.177 4.37602 4.77921 0
M  V30 6832 N 635.583 -1.29855 0.893053 0
M  V30 6833 C 636.813 -1.99686 0.530019 0
M  V30 6834 C 637.221 -1.67066 -0.888012 0
M  V30 6835 O 636.564 -0.908366 -1.5967 0
M  V30 6836 C 636.626 -3.53855 0.63457 0
M  V30 6837 C 636.29 -4.10013 2.01837 0
M  V30 6838 C 637.287 -4.25406 2.98874 0
M  V30 6839 C 634.972 -4.45202 2.32595 0
M  V30 6840 C 636.966 -4.7521 4.24799 0
M  V30 6841 C 634.653 -4.94704 3.58763 0
M  V30 6842 C 635.651 -5.09662 4.5468 0
M  V30 6843 O 635.339 -5.58093 5.78608 0
M  V30 6844 H 635.071 -0.644913 0.20264 0
M  V30 6845 H 637.625 -1.66518 1.20253 0
M  V30 6846 H 635.855 -3.86583 -0.0949477 0
M  V30 6847 H 637.544 -4.04922 0.281648 0
M  V30 6848 H 638.31 -3.98515 2.76425 0
M  V30 6849 H 634.189 -4.32822 1.58701 0
M  V30 6850 H 637.733 -4.86801 4.99671 0
M  V30 6851 H 633.63 -5.21032 3.81046 0
M  V30 6852 H 634.398 -5.7642 5.81104 0
M  V30 6853 N 637.061 -0.65484 -1.43351 0
M  V30 6854 C 638.289 -0.176685 -2.06144 0
M  V30 6855 C 638.704 1.15831 -1.49093 0
M  V30 6856 O 638.061 1.71542 -0.622868 0
M  V30 6857 C 638.112 -0.0813326 -3.61408 0
M  V30 6858 O 637.833 -1.36355 -4.1634 0
M  V30 6859 C 639.334 0.422706 -4.4128 0
M  V30 6860 H 636.554 -0.0906429 -0.66485 0
M  V30 6861 H 639.098 -0.895945 -1.83829 0
M  V30 6862 H 637.253 0.588496 -3.82904 0
M  V30 6863 H 637.667 -1.22381 -5.10023 0
M  V30 6864 H 639.141 0.438375 -5.50257 0
M  V30 6865 H 639.618 1.45432 -4.14423 0
M  V30 6866 H 640.224 -0.214687 -4.24758 0
M  V30 6867 N 638.539 1.52521 -0.396863 0
M  V30 6868 C 639.449 2.30403 0.44178 0
M  V30 6869 C 640.465 1.37625 1.06468 0
M  V30 6870 O 641.641 1.70697 1.06886 0
M  V30 6871 C 638.706 3.1013 1.54986 0
M  V30 6872 C 637.767 4.18628 0.951279 0
M  V30 6873 C 637 4.94543 2.00655 0
M  V30 6874 O 637.223 4.70629 3.22281 0
M  V30 6875 O 636.157 5.797 1.61962 0
M  V30 6876 H 639.983 3.03087 -0.192892 0
M  V30 6877 H 637.568 1.48537 -0.16038 0
M  V30 6878 H 639.45 3.59816 2.19341 0
M  V30 6879 H 638.125 2.40251 2.16935 0
M  V30 6880 H 637.032 3.73119 0.270773 0
M  V30 6881 H 638.365 4.90763 0.375887 0
M  V30 6882 N 640.017 0.126909 1.57088 0
M  V30 6883 C 640.949 -0.850973 2.12817 0
M  V30 6884 C 641.962 -1.22457 1.07276 0
M  V30 6885 O 643.151 -1.17215 1.34622 0
M  V30 6886 C 640.251 -2.15039 2.61938 0
M  V30 6887 C 639.424 -1.94726 3.91664 0
M  V30 6888 C 638.483 -3.0847 4.26301 0
M  V30 6889 O 637.509 -2.81038 4.94981 0
M  V30 6890 N 638.711 -4.35116 3.84259 0
M  V30 6891 H 641.476 -0.3748 2.97347 0
M  V30 6892 H 639.037 -0.0572793 1.61799 0
M  V30 6893 H 641.029 -2.90141 2.82135 0
M  V30 6894 H 639.599 -2.5398 1.82244 0
M  V30 6895 H 638.819 -1.03772 3.80296 0
M  V30 6896 H 640.107 -1.78469 4.76473 0
M  V30 6897 H 639.505 -4.60276 3.2888 0
M  V30 6898 H 638.062 -5.07064 4.09548 0
M  V30 6899 N 641.495 -1.56914 -0.146875 0
M  V30 6900 C 642.741 -1.83628 -0.860741 0
M  V30 6901 C 643.074 -0.708528 -1.80813 0
M  V30 6902 O 642.349 0.287838 -1.92358 0
M  V30 6903 C 642.632 -3.20836 -1.63511 0
M  V30 6904 C 642.485 -4.44174 -0.709199 0
M  V30 6905 C 643.804 -3.55268 -2.59756 0
M  V30 6906 H 640.923 -0.667949 -0.311468 0
M  V30 6907 H 643.565 -1.89582 -0.125936 0
M  V30 6908 H 641.715 -3.15891 -2.26153 0
M  V30 6909 H 643.387 -4.61205 -0.0937781 0
M  V30 6910 H 641.63 -4.33796 -0.0187856 0
M  V30 6911 H 642.301 -5.36785 -1.28707 0
M  V30 6912 H 644.777 -3.60824 -2.07232 0
M  V30 6913 H 643.653 -4.52303 -3.10987 0
M  V30 6914 H 643.914 -2.81231 -3.41118 0
M  V30 6915 N 642.974 0.416227 -1.52004 0
M  V30 6916 C 643.906 1.52552 -1.71058 0
M  V30 6917 C 644.919 1.51693 -0.59102 0
M  V30 6918 O 646.108 1.56087 -0.865973 0
M  V30 6919 C 643.208 2.91455 -1.72937 0
M  V30 6920 C 642.381 3.16584 -3.01816 0
M  V30 6921 C 641.44 4.35322 -2.95603 0
M  V30 6922 O 640.466 4.32947 -3.6952 0
M  V30 6923 N 641.668 5.40049 -2.12903 0
M  V30 6924 H 644.433 1.36604 -2.66757 0
M  V30 6925 H 641.994 0.60544 -1.50153 0
M  V30 6926 H 643.986 3.68944 -1.66321 0
M  V30 6927 H 642.556 3.00895 -0.847418 0
M  V30 6928 H 641.776 2.27203 -3.22137 0
M  V30 6929 H 643.064 3.30213 -3.87088 0
M  V30 6930 H 642.462 5.44823 -1.52265 0
M  V30 6931 H 641.019 6.16308 -2.1215 0
M  V30 6932 N 644.452 1.42507 0.673017 0
M  V30 6933 C 645.729 1.33554 1.42908 0
M  V30 6934 C 646.109 -0.0262211 2.11084 0
M  V30 6935 O 645.457 -1.04181 2.03368 0
M  V30 6936 C 645.667 2.50498 2.43006 0
M  V30 6937 C 647.015 2.92694 3.07596 0
M  V30 6938 O 648.039 2.50401 2.53333 0
M  V30 6939 O 646.898 3.65899 4.05931 0
M  V30 6940 H 643.992 0.526785 0.637516 0
M  V30 6941 H 646.538 1.54518 0.701591 0
M  V30 6942 H 645.31 3.41272 1.9144 0
M  V30 6943 H 644.933 2.3153 3.23233 0
M  V30 6944 N 645.93 -0.909495 1.28709 0
M  V30 6945 C 647.176 -1.66151 1.16283 0
M  V30 6946 C 647.509 -1.92067 -0.287069 0
M  V30 6947 O 646.784 -1.52409 -1.20837 0
M  V30 6948 C 647.067 -3.01676 1.9663 0
M  V30 6949 C 646.92 -2.82888 3.49707 0
M  V30 6950 C 648.239 -4.02274 1.78504 0
M  V30 6951 H 645.358 -0.602966 0.423793 0
M  V30 6952 H 648 -1.05418 1.58073 0
M  V30 6953 H 646.15 -3.53515 1.61119 0
M  V30 6954 H 647.822 -2.38026 3.95147 0
M  V30 6955 H 646.065 -2.17862 3.75125 0
M  V30 6956 H 646.736 -3.79147 4.01187 0
M  V30 6957 H 649.212 -3.59511 2.09503 0
M  V30 6958 H 648.088 -4.95056 2.37088 0
M  V30 6959 H 648.349 -4.35903 0.737647 0
M  V30 6960 N 647.408 -1.11026 -1.11852 0
M  V30 6961 C 648.819 -0.873203 -1.65021 0
M  V30 6962 C 649.17 0.595364 -1.86949 0
M  V30 6963 O 648.295 1.45645 -1.60051 0
M  V30 6964 C 648.89 -1.57859 -2.99777 0
M  V30 6965 C 647.449 -1.38807 -3.49871 0
M  V30 6966 C 646.596 -1.62403 -2.24768 0
M  V30 6967 H 649.547 -1.26712 -0.955503 0
M  V30 6968 H 649.568 -1.02111 -3.66543 0
M  V30 6969 H 649.08 -2.6474 -2.83786 0
M  V30 6970 H 647.181 -0.341163 -3.71035 0
M  V30 6971 H 647.294 -2.13421 -4.28938 0
M  V30 6972 H 645.658 -1.04714 -2.32179 0
M  V30 6973 H 646.441 -2.70549 -2.11324 0
M  V30 6974 N 648.886 1.2938 -0.899927 0
M  V30 6975 C 650.126 1.97332 -0.532871 0
M  V30 6976 C 650.49 1.69385 0.904029 0
M  V30 6977 O 651.691 2.30793 1.37797 0
M  V30 6978 C 649.962 3.47927 -0.817393 0
M  V30 6979 S 651.521 4.3528 -0.55468 0
M  V30 6980 H 648.339 0.682966 -0.197683 0
M  V30 6981 H 650.941 1.57189 -1.16241 0
M  V30 6982 H 649.645 3.65761 -1.86138 0
M  V30 6983 H 649.176 3.93006 -0.175978 0
M  V30 6984 H 651.191 4.92557 0.600182 0
M  V30 6985 N 650.364 0.662433 1.43002 0
M  V30 6986 C 651.612 0.179237 2.01304 0
M  V30 6987 C 651.933 -1.21428 1.52579 0
M  V30 6988 O 651.203 -1.81294 0.742252 0
M  V30 6989 H 649.783 0.0632725 0.744316 0
M  V30 6990 H 652.445 0.856169 1.75088 0
M  V30 6991 H 651.541 0.170957 3.11631 0
M  V30 6992 N 651.842 -1.52309 0.404946 0
M  V30 6993 C 652.79 -2.28452 -0.437321 0
M  V30 6994 C 653.784 -1.32975 -1.04948 0
M  V30 6995 O 654.99 -1.50451 -0.988159 0
M  V30 6996 H 651.365 -0.734824 -0.159805 0
M  V30 6997 H 653.336 -2.97542 0.22615 0
M  V30 6998 C 652.085 -3.11536 -1.54404 0
M  V30 6999 H 651.408 -3.84871 -1.08233 0
M  V30 7000 H 652.848 -3.67926 -2.10729 0
M  V30 7001 C 651.307 -2.24833 -2.50902 0
M  V30 7002 O 651.837 -1.88574 -3.54687 0
M  V30 7003 N 650.043 -1.88685 -2.21012 0
M  V30 7004 H 649.59 -2.18371 -1.36646 0
M  V30 7005 H 649.548 -1.30966 -2.85824 0
M  V30 7006 N 653.32 -0.135238 -1.57019 0
M  V30 7007 C 654.548 0.526066 -2.001 0
M  V30 7008 C 654.963 1.59184 -1.01519 0
M  V30 7009 O 654.32 1.82497 -0.0104258 0
M  V30 7010 C 654.371 1.13744 -3.43139 0
M  V30 7011 O 654.092 0.114259 -4.37951 0
M  V30 7012 C 655.593 1.8805 -4.01438 0
M  V30 7013 H 652.813 0.137962 -0.656664 0
M  V30 7014 H 655.357 -0.226359 -2.03243 0
M  V30 7015 H 653.512 1.84056 -3.40885 0
M  V30 7016 H 653.926 0.56058 -5.21496 0
M  V30 7017 H 655.4 2.26133 -5.03555 0
M  V30 7018 H 655.877 2.76194 -3.41487 0
M  V30 7019 H 656.483 1.22464 -4.07287 0
M  V30 7020 N 654.798 1.5699 0.138552 0
M  V30 7021 C 656.038 1.85619 0.855849 0
M  V30 7022 C 656.402 0.720663 1.77962 0
M  V30 7023 O 657.603 0.888221 2.53701 0
M  V30 7024 C 655.874 3.19447 1.60275 0
M  V30 7025 S 657.433 3.69656 2.36431 0
M  V30 7026 H 654.251 0.650926 0.286035 0
M  V30 7027 H 656.853 1.9516 0.115331 0
M  V30 7028 H 655.557 4.00053 0.915737 0
M  V30 7029 H 655.088 3.12935 2.38402 0
M  V30 7030 H 657.103 3.39595 3.61787 0
M  V30 7031 N 656.276 -0.40816 1.52223 0
M  V30 7032 C 657.516 -1.16418 1.68006 0
M  V30 7033 C 657.88 -1.87749 0.401793 0
M  V30 7034 O 659.081 -2.65245 0.435743 0
M  V30 7035 C 657.352 -2.13143 2.86889 0
M  V30 7036 S 658.911 -2.96839 3.2316 0
M  V30 7037 H 655.729 -0.394373 0.5916 0
M  V30 7038 H 658.331 -0.451349 1.90219 0
M  V30 7039 H 657.035 -1.59428 3.78168 0
M  V30 7040 H 656.566 -2.88963 2.66953 0
M  V30 7041 H 658.581 -4.151 2.71857 0
M  V30 7042 N 657.755 -1.42862 -0.66545 0
M  V30 7043 C 658.685 -1.49867 -1.79059 0
M  V30 7044 C 659.666 -0.354394 -1.66367 0
M  V30 7045 O 660.851 -0.569969 -1.85647 0
M  V30 7046 C 657.981 -1.40943 -3.17415 0
M  V30 7047 C 656.935 -2.53495 -3.44854 0
M  V30 7048 C 656.261 -2.29626 -4.82883 0
M  V30 7049 C 657.561 -3.95781 -3.40815 0
M  V30 7050 H 659.255 -2.44037 -1.73453 0
M  V30 7051 H 656.801 -1.17456 -0.833071 0
M  V30 7052 H 658.754 -1.4445 -3.95869 0
M  V30 7053 H 657.478 -0.432716 -3.23721 0
M  V30 7054 H 656.137 -2.4932 -2.68766 0
M  V30 7055 H 655.785 -1.30226 -4.8585 0
M  V30 7056 H 655.485 -3.05065 -5.02204 0
M  V30 7057 H 657.009 -2.34897 -5.63609 0
M  V30 7058 H 658.423 -4.01508 -4.09224 0
M  V30 7059 H 656.82 -4.71148 -3.71672 0
M  V30 7060 H 657.89 -4.21786 -2.39216 0
M  V30 7061 N 659.233 0.902656 -1.29189 0
M  V30 7062 C 660.479 1.65532 -1.17163 0
M  V30 7063 C 660.812 1.92216 0.276879 0
M  V30 7064 O 660.087 1.53048 1.20027 0
M  V30 7065 C 660.37 3.00629 -1.98228 0
M  V30 7066 C 660.223 2.81029 -3.51202 0
M  V30 7067 C 661.542 4.01321 -1.80635 0
M  V30 7068 H 658.661 0.60071 -0.426985 0
M  V30 7069 H 661.303 1.04578 -1.5863 0
M  V30 7070 H 659.453 3.52656 -1.62991 0
M  V30 7071 H 661.125 2.35927 -3.96404 0
M  V30 7072 H 659.368 2.1587 -3.76275 0
M  V30 7073 H 660.039 3.77014 -4.03192 0
M  V30 7074 H 662.515 3.58394 -2.11406 0
M  V30 7075 H 661.391 4.93792 -2.3971 0
M  V30 7076 H 661.652 4.35505 -0.760754 0
M  V30 7077 N 660.711 1.11618 1.11262 0
M  V30 7078 C 661.959 0.864469 1.82678 0
M  V30 7079 C 662.28 -0.611564 1.85162 0
M  V30 7080 O 661.55 -1.44429 1.32352 0
M  V30 7081 H 660.13 0.316821 0.676486 0
M  V30 7082 H 662.792 1.40894 1.34666 0
M  V30 7083 H 661.888 1.23832 2.86482 0
M  V30 7084 N 662.189 -1.289 0.906776 0
M  V30 7085 C 663.435 -1.95558 0.53712 0
M  V30 7086 C 663.768 -1.71262 -0.915582 0
M  V30 7087 O 663.043 -1.02961 -1.65013 0
M  V30 7088 C 663.326 -3.50198 0.838645 0
M  V30 7089 C 663.179 -3.83923 2.34357 0
M  V30 7090 C 664.498 -4.38861 0.329988 0
M  V30 7091 H 661.617 -0.710289 0.196617 0
M  V30 7092 H 664.259 -1.52392 1.13475 0
M  V30 7093 H 662.409 -3.87096 0.330024 0
M  V30 7094 H 664.081 -3.56933 2.92227 0
M  V30 7095 H 662.324 -3.31215 2.80141 0
M  V30 7096 H 662.995 -4.91883 2.5051 0
M  V30 7097 H 665.471 -4.08996 0.765609 0
M  V30 7098 H 664.347 -5.45931 0.570105 0
M  V30 7099 H 664.608 -4.35352 -0.769511 0
M  V30 7100 N 663.667 -0.670007 -1.42649 0
M  V30 7101 C 664.944 -0.119451 -1.95235 0
M  V30 7102 C 665.324 1.36461 -1.61064 0
M  V30 7103 O 664.672 2.09843 -0.904329 0
M  V30 7104 C 664.882 -0.383498 -3.46887 0
M  V30 7105 C 666.23 -0.297431 -4.23557 0
M  V30 7106 O 667.254 -0.31698 -3.54787 0
M  V30 7107 O 666.113 -0.235507 -5.45992 0
M  V30 7108 H 663.207 -8.85474e-05 -0.827 0
M  V30 7109 H 665.753 -0.744406 -1.52501 0
M  V30 7110 H 664.525 -1.41174 -3.64946 0
M  V30 7111 H 664.148 0.273702 -3.96657 0
M  V30 7112 N 665.145 1.52092 -0.413018 0
M  V30 7113 C 666.077 2.24819 0.445994 0
M  V30 7114 C 667.09 1.27925 1.00692 0
M  V30 7115 O 668.279 1.53845 0.905204 0
M  V30 7116 C 665.379 2.96951 1.6332 0
M  V30 7117 C 664.552 4.20746 1.19548 0
M  V30 7118 C 663.611 4.75668 2.25003 0
M  V30 7119 O 662.637 5.38148 1.85434 0
M  V30 7120 N 663.839 4.57579 3.57214 0
M  V30 7121 H 666.604 2.99176 -0.177209 0
M  V30 7122 H 664.165 1.60102 -0.240601 0
M  V30 7123 H 666.157 3.30586 2.33441 0
M  V30 7124 H 664.727 2.25756 2.16225 0
M  V30 7125 H 663.947 3.92881 0.32224 0
M  V30 7126 H 665.235 5.01132 0.880033 0
M  V30 7127 H 664.633 4.07758 3.92109 0
M  V30 7128 H 663.19 4.95642 4.23299 0
M  V30 7129 N 666.623 0.143563 1.56945 0
M  V30 7130 C 667.853 -0.514699 2.00086 0
M  V30 7131 C 668.261 -1.59184 1.0226 0
M  V30 7132 O 667.604 -1.83697 0.0110514 0
M  V30 7133 C 667.666 -1.17778 3.39659 0
M  V30 7134 C 667.33 -0.245657 4.56339 0
M  V30 7135 C 668.327 0.525343 5.17239 0
M  V30 7136 C 666.012 -0.149564 5.02077 0
M  V30 7137 C 668.006 1.37992 6.22284 0
M  V30 7138 C 665.693 0.708621 6.06978 0
M  V30 7139 C 666.691 1.47197 6.6695 0
M  V30 7140 O 666.379 2.31586 7.6982 0
M  V30 7141 H 666.111 -0.138789 0.661599 0
M  V30 7142 H 668.665 0.234098 2.04062 0
M  V30 7143 H 666.895 -1.97415 3.32512 0
M  V30 7144 H 668.584 -1.73542 3.6693 0
M  V30 7145 H 669.35 0.461118 4.82803 0
M  V30 7146 H 665.229 -0.733457 4.55128 0
M  V30 7147 H 668.773 1.97621 6.69023 0
M  V30 7148 H 664.67 0.77415 6.40841 0
M  V30 7149 H 665.438 2.24796 7.87025 0
M  V30 7150 N 668.101 -1.57061 -0.130224 0
M  V30 7151 C 669.35 -1.83446 -0.838488 0
M  V30 7152 C 669.663 -0.727468 -1.81569 0
M  V30 7153 O 670.869 -0.877394 -2.56932 0
M  V30 7154 C 669.325 -3.25201 -1.54182 0
M  V30 7155 C 668.933 -4.4388 -0.606178 0
M  V30 7156 C 670.677 -3.60844 -2.23588 0
M  V30 7157 C 668.584 -5.76661 -1.31209 0
M  V30 7158 H 667.514 -0.684185 -0.316871 0
M  V30 7159 H 670.165 -1.83273 -0.0912059 0
M  V30 7160 H 668.547 -3.1981 -2.33533 0
M  V30 7161 H 669.721 -4.60545 0.153308 0
M  V30 7162 H 668.036 -4.16395 -0.0196705 0
M  V30 7163 H 670.633 -4.57313 -2.77072 0
M  V30 7164 H 670.976 -2.87724 -3.00867 0
M  V30 7165 H 671.509 -3.67971 -1.51137 0
M  V30 7166 H 668.248 -6.52922 -0.580823 0
M  V30 7167 H 667.768 -5.63902 -2.04387 0
M  V30 7168 H 669.447 -6.20035 -1.8484 0
M  V30 7169 N 669.579 0.400081 -1.52437 0
M  V30 7170 C 670.825 1.14788 -1.67187 0
M  V30 7171 C 671.158 1.89928 -0.405074 0
M  V30 7172 O 670.433 1.85118 0.596804 0
M  V30 7173 C 670.716 2.13507 -2.89977 0
M  V30 7174 C 670.569 1.42204 -4.2673 0
M  V30 7175 C 671.888 3.14069 -3.083 0
M  V30 7176 H 669.007 0.415939 -0.608411 0
M  V30 7177 H 671.649 0.432542 -1.85011 0
M  V30 7178 H 669.799 2.7451 -2.74912 0
M  V30 7179 H 671.471 0.842503 -4.53541 0
M  V30 7180 H 669.714 0.723939 -4.27717 0
M  V30 7181 H 670.385 2.14281 -5.08712 0
M  V30 7182 H 672.861 2.63148 -3.22323 0
M  V30 7183 H 671.737 3.80398 -3.95713 0
M  V30 7184 H 671.998 3.82309 -2.22018 0
M  V30 7185 N 671.057 1.43213 0.657864 0
M  V30 7186 C 672.004 1.48011 1.77092 0
M  V30 7187 C 672.974 0.330291 1.62783 0
M  V30 7188 O 674.159 0.536787 1.83094 0
M  V30 7189 C 671.299 1.40461 3.15222 0
M  V30 7190 C 670.412 2.65612 3.40697 0
M  V30 7191 C 669.547 2.50083 4.68649 0
M  V30 7192 C 668.586 3.70525 4.87214 0
M  V30 7193 N 667.723 3.53835 6.0642 0
M  V30 7194 H 672.563 2.43121 1.72326 0
M  V30 7195 H 670.1 1.20687 0.841013 0
M  V30 7196 H 672.058 1.34079 3.95068 0
M  V30 7197 H 670.688 0.489359 3.19069 0
M  V30 7198 H 669.74 2.82292 2.54982 0
M  V30 7199 H 671.052 3.5509 3.50303 0
M  V30 7200 H 670.206 2.41383 5.56614 0
M  V30 7201 H 668.945 1.58121 4.61356 0
M  V30 7202 H 667.95 3.79639 3.97686 0
M  V30 7203 H 669.175 4.63489 4.96341 0
M  V30 7204 H 667.121 2.64604 6.00267 0
M  V30 7205 H 667.038 4.36912 6.16963 0
M  V30 7206 H 668.306 3.48978 6.97019 0
M  V30 7207 N 672.536 -0.895792 1.29666 0
M  V30 7208 C 673.761 -1.68528 1.20885 0
M  V30 7209 C 674.186 -1.8673 -0.226595 0
M  V30 7210 O 673.544 -1.39044 -1.16347 0
M  V30 7211 C 673.592 -3.04512 1.93144 0
M  V30 7212 O 672.696 -3.92963 1.25115 0
M  V30 7213 H 672.037 -0.515371 0.418675 0
M  V30 7214 H 674.567 -1.11878 1.71302 0
M  V30 7215 H 674.577 -3.54628 2.0175 0
M  V30 7216 H 673.252 -2.90582 2.97548 0
M  V30 7217 H 671.829 -3.51399 1.24794 0
M  V30 7218 N 674.014 -1.12206 -1.10668 0
M  V30 7219 C 675.262 -0.874144 -1.82217 0
M  V30 7220 C 675.583 0.601736 -1.85484 0
M  V30 7221 O 674.853 1.43725 -1.33116 0
M  V30 7222 H 673.433 -0.320404 -0.674797 0
M  V30 7223 H 676.095 -1.41606 -1.33917 0
M  V30 7224 H 675.191 -1.25349 -2.85822 0
M  V30 7225 N 675.492 1.28418 -0.913599 0
M  V30 7226 C 676.72 1.99106 -0.562536 0
M  V30 7227 C 677.135 1.68273 0.856137 0
M  V30 7228 O 676.492 0.935401 1.56705 0
M  V30 7229 C 676.543 3.5338 -0.761903 0
M  V30 7230 O 676.264 3.83127 -2.12475 0
M  V30 7231 C 677.765 4.41328 -0.417651 0
M  V30 7232 H 674.985 0.635798 -0.214481 0
M  V30 7233 H 677.529 1.63618 -1.22676 0
M  V30 7234 H 675.684 3.8713 -0.144676 0
M  V30 7235 H 676.098 4.77763 -2.16431 0
M  V30 7236 H 677.572 5.48642 -0.607919 0
M  V30 7237 H 678.049 4.34422 0.646108 0
M  V30 7238 H 678.655 4.13074 -1.01241 0
M  V30 7239 N 676.97 0.677563 1.42291 0
M  V30 7240 C 678.219 0.198173 2.00724 0
M  V30 7241 C 678.532 -1.20325 1.54211 0
M  V30 7242 O 679.738 -1.77916 2.05081 0
M  V30 7243 C 678.194 0.303432 3.58619 0
M  V30 7244 C 677.802 1.70909 4.14119 0
M  V30 7245 C 679.546 -0.117103 4.24338 0
M  V30 7246 C 677.453 1.76696 5.64387 0
M  V30 7247 H 676.383 0.070329 0.750713 0
M  V30 7248 H 679.034 0.843147 1.62982 0
M  V30 7249 H 677.416 -0.409482 3.93877 0
M  V30 7250 H 678.59 2.44931 3.90315 0
M  V30 7251 H 676.905 2.07771 3.6086 0
M  V30 7252 H 679.502 -0.0940471 5.34617 0
M  V30 7253 H 679.845 -1.15283 4.00019 0
M  V30 7254 H 680.378 0.5449 3.9405 0
M  V30 7255 H 677.117 2.7826 5.93508 0
M  V30 7256 H 676.637 1.07034 5.90173 0
M  V30 7257 H 678.316 1.52166 6.28852 0
M  V30 7258 N 678.448 -1.51871 0.421078 0
M  V30 7259 C 679.676 -2.06356 -0.14994 0
M  V30 7260 C 680.091 -1.29006 -1.37851 0
M  V30 7261 O 679.448 -0.345139 -1.79207 0
M  V30 7262 C 679.499 -3.58185 -0.488454 0
M  V30 7263 O 679.22 -4.32611 0.691341 0
M  V30 7264 C 680.721 -4.29129 -1.11191 0
M  V30 7265 H 677.941 -0.67083 -0.0151186 0
M  V30 7266 H 680.485 -1.95638 0.595476 0
M  V30 7267 H 678.64 -3.68871 -1.18376 0
M  V30 7268 H 679.054 -5.22927 0.405906 0
M  V30 7269 H 680.528 -5.36501 -1.29889 0
M  V30 7270 H 681.005 -3.86371 -2.0884 0
M  V30 7271 H 681.611 -4.22843 -0.456458 0
M  V30 7272 N 679.926 -0.151884 -1.56866 0
M  V30 7273 C 681.154 0.504813 -2.00647 0
M  V30 7274 C 681.569 1.58098 -1.03201 0
M  V30 7275 O 680.926 1.82476 -0.0297814 0
M  V30 7276 C 680.977 1.10099 -3.44326 0
M  V30 7277 O 680.698 0.0678021 -4.38048 0
M  V30 7278 C 682.199 1.83782 -4.03409 0
M  V30 7279 H 679.419 0.130989 -0.65809 0
M  V30 7280 H 681.963 -0.247903 -2.02992 0
M  V30 7281 H 680.118 1.8043 -3.42817 0
M  V30 7282 H 680.532 0.505237 -5.22061 0
M  V30 7283 H 682.006 2.2078 -5.05925 0
M  V30 7284 H 682.483 2.72557 -3.44397 0
M  V30 7285 H 683.089 1.18138 -4.08563 0
M  V30 7286 N 681.404 1.57128 0.121893 0
M  V30 7287 C 682.651 1.847 0.830188 0
M  V30 7288 C 682.979 0.736543 1.80015 0
M  V30 7289 O 682.234 -0.272358 1.93796 0
M  V30 7290 C 682.533 3.1874 1.61677 0
M  V30 7291 C 682.199 4.43901 0.791361 0
M  V30 7292 C 680.861 4.77887 0.563731 0
M  V30 7293 C 683.213 5.20753 0.215823 0
M  V30 7294 C 680.541 5.86168 -0.249737 0
M  V30 7295 C 682.893 6.29891 -0.584821 0
M  V30 7296 C 681.557 6.6241 -0.822794 0
M  V30 7297 H 680.827 0.675866 0.303787 0
M  V30 7298 H 683.474 1.91276 0.0926894 0
M  V30 7299 H 681.779 3.07728 2.42509 0
M  V30 7300 H 683.476 3.37295 2.16872 0
M  V30 7301 H 680.066 4.17272 0.978867 0
M  V30 7302 H 684.25 4.94851 0.378907 0
M  V30 7303 H 679.506 6.0979 -0.44336 0
M  V30 7304 H 683.68 6.88624 -1.03779 0
M  V30 7305 H 681.307 7.46147 -1.45496 0
M  V30 7306 N 682.882 -0.391992 1.52647 0
M  V30 7307 C 683.829 -1.47866 1.77213 0
M  V30 7308 C 684.799 -1.54286 0.615223 0
M  V30 7309 O 685.984 -1.7059 0.854622 0
M  V30 7310 C 683.124 -2.85129 1.94411 0
M  V30 7311 C 682.237 -2.87883 3.22098 0
M  V30 7312 C 681.372 -4.16553 3.29631 0
M  V30 7313 C 680.411 -4.13348 4.51453 0
M  V30 7314 N 679.548 -5.33619 4.56284 0
M  V30 7315 H 684.388 -1.26219 2.6995 0
M  V30 7316 H 681.925 -0.612367 1.33748 0
M  V30 7317 H 683.883 -3.64833 2.02367 0
M  V30 7318 H 682.513 -3.05232 1.05038 0
M  V30 7319 H 681.565 -2.00567 3.23229 0
M  V30 7320 H 682.877 -2.81382 4.11856 0
M  V30 7321 H 682.031 -5.0466 3.36753 0
M  V30 7322 H 680.77 -4.25773 2.37842 0
M  V30 7323 H 679.775 -3.23629 4.44459 0
M  V30 7324 H 681 -4.05754 5.44555 0
M  V30 7325 H 678.946 -5.43474 3.67385 0
M  V30 7326 H 678.863 -5.29182 5.3991 0
M  V30 7327 H 680.131 -6.23632 4.67657 0
M  V30 7328 N 684.36 -1.4356 -0.65026 0
M  V30 7329 C 685.27 -1.514 -1.79207 0
M  V30 7330 C 686.286 -0.400895 -1.69319 0
M  V30 7331 O 687.462 -0.655458 -1.90436 0
M  V30 7332 C 684.527 -1.43737 -3.155 0
M  V30 7333 C 683.588 -2.65743 -3.37163 0
M  V30 7334 C 682.821 -2.58436 -4.66954 0
M  V30 7335 O 683.044 -1.63374 -5.46503 0
M  V30 7336 O 681.978 -3.48984 -4.90402 0
M  V30 7337 H 685.804 -2.47825 -1.75547 0
M  V30 7338 H 683.389 -1.25594 -0.809111 0
M  V30 7339 H 685.271 -1.41916 -3.96784 0
M  V30 7340 H 683.946 -0.504488 -3.19745 0
M  V30 7341 H 682.853 -2.73136 -2.55632 0
M  V30 7342 H 684.186 -3.58014 -3.37768 0
M  V30 7343 N 685.838 0.888903 -1.30139 0
M  V30 7344 C 686.801 1.97576 -1.16174 0
M  V30 7345 C 687.801 1.60525 -0.094086 0
M  V30 7346 O 688.991 1.70812 -0.341889 0
M  V30 7347 C 686.123 3.3188 -0.778983 0
M  V30 7348 H 687.316 2.11393 -2.12728 0
M  V30 7349 H 684.869 1.0748 -1.1348 0
M  V30 7350 H 685.604 3.23765 0.186225 0
M  V30 7351 H 685.389 3.60141 -1.55051 0
M  V30 7352 H 686.879 4.11612 -0.704631 0
M  V30 7353 N 687.317 1.12792 1.10072 0
M  V30 7354 C 688.267 0.768086 2.14673 0
M  V30 7355 C 689.251 -0.234716 1.59179 0
M  V30 7356 O 690.443 -0.039643 1.76956 0
M  V30 7357 C 687.572 0.228472 3.42539 0
M  V30 7358 C 686.658 1.25979 4.04957 0
M  V30 7359 N 687.049 2.4586 4.42025 0
M  V30 7360 C 685.347 1.10602 4.32069 0
M  V30 7361 C 686.048 3.11747 4.9111 0
M  V30 7362 N 685.024 2.39185 4.88151 0
M  V30 7363 H 688.826 1.68029 2.4113 0
M  V30 7364 H 686.34 1.00925 1.27232 0
M  V30 7365 H 688.337 -0.0475216 4.16873 0
M  V30 7366 H 686.997 -0.678136 3.1754 0
M  V30 7367 H 688.008 2.83215 4.33601 0
M  V30 7368 H 684.685 0.257021 4.16708 0
M  V30 7369 H 686.075 4.13862 5.29309 0
M  V30 7370 N 688.795 -1.27931 0.920396 0
M  V30 7371 C 689.743 -2.29061 0.404191 0
M  V30 7372 C 690.737 -1.61615 -0.507634 0
M  V30 7373 O 691.943 -1.75765 -0.388144 0
M  V30 7374 H 688.318 -0.743594 0.112123 0
M  V30 7375 H 690.289 -2.70021 1.27008 0
M  V30 7376 C 689.038 -3.46088 -0.334466 0
M  V30 7377 H 688.361 -3.98194 0.35797 0
M  V30 7378 H 689.801 -4.18829 -0.660196 0
M  V30 7379 C 688.26 -2.99396 -1.54479 0
M  V30 7380 O 688.79 -3.02439 -2.64374 0
M  V30 7381 N 686.996 -2.54978 -1.39408 0
M  V30 7382 H 686.543 -2.52701 -0.500009 0
M  V30 7383 H 686.501 -2.24098 -2.20516 0
M  V30 7384 N 690.273 -0.685099 -1.4193 0
M  V30 7385 C 691.522 -0.208816 -2.00616 0
M  V30 7386 C 691.835 1.19506 -1.54847 0
M  V30 7387 O 693.041 1.76826 -2.06021 0
M  V30 7388 C 691.497 -0.322446 -3.58453 0
M  V30 7389 C 691.105 -1.73102 -4.13206 0
M  V30 7390 C 692.849 0.0945979 -4.24395 0
M  V30 7391 C 690.756 -1.79687 -5.63442 0
M  V30 7392 H 689.686 -0.0743092 -0.750329 0
M  V30 7393 H 692.337 -0.851778 -1.62533 0
M  V30 7394 H 690.719 0.388588 -3.94089 0
M  V30 7395 H 691.893 -2.46997 -3.8901 0
M  V30 7396 H 690.208 -2.09682 -3.59753 0
M  V30 7397 H 692.805 0.0656937 -5.3466 0
M  V30 7398 H 693.148 1.1316 -4.00625 0
M  V30 7399 H 693.681 -0.56579 -3.93756 0
M  V30 7400 H 690.42 -2.81404 -5.92024 0
M  V30 7401 H 689.94 -1.10162 -5.89597 0
M  V30 7402 H 691.619 -1.55498 -6.28036 0
M  V30 7403 N 691.751 1.51645 -0.429126 0
M  V30 7404 C 692.714 2.26116 0.374726 0
M  V30 7405 C 693.714 1.29242 0.956714 0
M  V30 7406 O 694.904 1.53022 0.832452 0
M  V30 7407 C 692.036 3.04669 1.52937 0
M  V30 7408 H 693.229 2.9861 -0.277818 0
M  V30 7409 H 690.782 1.55236 -0.182097 0
M  V30 7410 H 691.517 2.36571 2.21821 0
M  V30 7411 H 691.302 3.75814 1.11833 0
M  V30 7412 H 692.792 3.61102 2.09751 0
M  V30 7413 N 693.229 0.160201 1.56784 0
M  V30 7414 C 694.506 -0.533355 1.88188 0
M  V30 7415 C 694.886 -1.82072 1.06831 0
M  V30 7416 O 694.234 -2.27946 0.158959 0
M  V30 7417 C 694.444 -0.786034 3.40033 0
M  V30 7418 C 695.792 -1.12097 4.09536 0
M  V30 7419 O 696.816 -0.874949 3.45287 0
M  V30 7420 O 695.675 -1.58457 5.23023 0
M  V30 7421 H 692.769 -0.273589 0.780434 0
M  V30 7422 H 695.315 0.197803 1.68543 0
M  V30 7423 H 694.087 0.124515 3.91102 0
M  V30 7424 H 693.71 -1.57091 3.65251 0
M  V30 7425 N 694.707 -1.5719 -0.113559 0
M  V30 7426 C 695.64 -1.9595 -1.16957 0
M  V30 7427 C 696.618 -0.829951 -1.39823 0
M  V30 7428 O 697.802 -1.08861 -1.53888 0
M  V30 7429 C 694.929 -2.2604 -2.52237 0
M  V30 7430 C 693.975 -3.48571 -2.45765 0
M  V30 7431 S 694.808 -5.00962 -1.89203 0
M  V30 7432 C 695.964 -5.3421 -3.26145 0
M  V30 7433 H 696.197 -2.85214 -0.839069 0
M  V30 7434 H 693.73 -1.51036 -0.320529 0
M  V30 7435 H 695.688 -2.44054 -3.30073 0
M  V30 7436 H 694.349 -1.3738 -2.82463 0
M  V30 7437 H 693.542 -3.67008 -3.45429 0
M  V30 7438 H 693.144 -3.29972 -1.76053 0
M  V30 7439 H 695.436 -5.29725 -4.22371 0
M  V30 7440 H 696.379 -6.35398 -3.12529 0
M  V30 7441 H 696.787 -4.61681 -3.24825 0
M  V30 7442 N 696.185 0.383891 -1.52853 0
M  V30 7443 C 697.132 1.46924 -1.77995 0
M  V30 7444 C 698.102 1.53958 -0.623396 0
M  V30 7445 O 699.287 1.70134 -0.863657 0
M  V30 7446 C 696.427 2.84093 -1.95921 0
M  V30 7447 C 695.54 2.86171 -3.23621 0
M  V30 7448 C 694.675 4.14799 -3.31836 0
M  V30 7449 C 693.714 4.10948 -4.53639 0
M  V30 7450 N 692.851 5.31192 -4.59107 0
M  V30 7451 H 697.691 1.24786 -2.70615 0
M  V30 7452 H 695.228 0.605265 -1.34071 0
M  V30 7453 H 697.186 3.63755 -2.04299 0
M  V30 7454 H 695.816 3.04671 -1.06656 0
M  V30 7455 H 694.868 1.9885 -3.24288 0
M  V30 7456 H 696.18 2.79194 -4.13343 0
M  V30 7457 H 695.334 5.02867 -3.39425 0
M  V30 7458 H 694.073 4.24505 -2.40097 0
M  V30 7459 H 693.078 3.21268 -4.46169 0
M  V30 7460 H 694.303 4.0286 -5.467 0
M  V30 7461 H 692.249 5.41518 -3.70262 0
M  V30 7462 H 692.166 5.26311 -5.42708 0
M  V30 7463 H 693.434 6.21143 -4.70958 0
M  V30 7464 N 697.663 1.43903 0.642637 0
M  V30 7465 C 698.893 1.49323 1.4278 0
M  V30 7466 C 699.301 0.113058 1.88862 0
M  V30 7467 O 698.644 -0.889089 1.60751 0
M  V30 7468 C 698.706 2.3861 2.68897 0
M  V30 7469 C 698.37 3.85976 2.44687 0
M  V30 7470 C 699.367 4.7681 2.07239 0
M  V30 7471 C 697.052 4.30567 2.58683 0
M  V30 7472 C 699.046 6.10234 1.841 0
M  V30 7473 C 696.733 5.64042 2.35159 0
M  V30 7474 C 697.731 6.53693 1.97925 0
M  V30 7475 O 697.419 7.84698 1.74654 0
M  V30 7476 H 697.151 0.509109 0.444729 0
M  V30 7477 H 699.705 1.89425 0.794195 0
M  V30 7478 H 697.935 1.93415 3.34855 0
M  V30 7479 H 699.624 2.35112 3.30873 0
M  V30 7480 H 700.39 4.43635 1.95993 0
M  V30 7481 H 696.269 3.61054 2.86637 0
M  V30 7482 H 699.813 6.80171 1.54962 0
M  V30 7483 H 695.71 5.96782 2.46011 0
M  V30 7484 H 696.478 7.96382 1.88993 0
M  V30 7485 N 699.141 -0.881989 1.30609 0
M  V30 7486 C 700.366 -1.67236 1.22665 0
M  V30 7487 C 700.791 -1.8696 -0.206777 0
M  V30 7488 O 700.149 -1.4027 -1.14865 0
M  V30 7489 C 700.197 -3.02446 1.96363 0
M  V30 7490 O 699.301 -3.91614 1.29276 0
M  V30 7491 H 698.642 -0.510902 0.424117 0
M  V30 7492 H 701.172 -1.10055 1.72479 0
M  V30 7493 H 701.182 -3.52468 2.055 0
M  V30 7494 H 699.857 -2.8741 3.00613 0
M  V30 7495 H 698.434 -3.50055 1.28514 0
M  V30 7496 N 700.619 -1.13374 -1.09472 0
M  V30 7497 C 701.865 -0.896516 -1.81908 0
M  V30 7498 C 702.198 0.575933 -1.85463 0
M  V30 7499 O 701.473 1.42618 -1.32251 0
M  V30 7500 C 701.756 -1.48445 -3.28079 0
M  V30 7501 C 701.609 -3.02598 -3.32798 0
M  V30 7502 C 702.928 -1.15226 -4.24748 0
M  V30 7503 H 700.047 -0.327127 -0.660422 0
M  V30 7504 H 702.689 -1.40195 -1.2824 0
M  V30 7505 H 700.839 -1.0546 -3.73912 0
M  V30 7506 H 702.511 -3.54335 -2.95372 0
M  V30 7507 H 700.754 -3.37613 -2.72397 0
M  V30 7508 H 701.425 -3.38835 -4.3577 0
M  V30 7509 H 703.901 -1.52369 -3.87199 0
M  V30 7510 H 702.777 -1.59012 -5.25363 0
M  V30 7511 H 703.038 -0.0658891 -4.42051 0
M  V30 7512 N 702.098 1.27442 -0.927168 0
M  V30 7513 C 703.323 1.99036 -0.583042 0
M  V30 7514 C 703.748 1.68711 0.83176 0
M  V30 7515 O 703.106 0.927081 1.55804 0
M  V30 7516 C 703.154 3.51271 -0.814925 0
M  V30 7517 O 702.258 4.12226 0.119742 0
M  V30 7518 H 701.599 0.624883 -0.224538 0
M  V30 7519 H 704.129 1.62263 -1.24628 0
M  V30 7520 H 704.139 4.01411 -0.730282 0
M  V30 7521 H 702.814 3.72676 -1.84623 0
M  V30 7522 H 701.391 3.72897 -0.0147688 0
M  V30 7523 N 703.576 0.692616 1.41565 0
M  V30 7524 C 704.987 0.297478 1.84315 0
M  V30 7525 C 705.338 -1.16379 1.57957 0
M  V30 7526 O 704.463 -1.89303 1.0485 0
M  V30 7527 C 705.058 0.533136 3.34579 0
M  V30 7528 C 703.617 0.191944 3.7591 0
M  V30 7529 C 702.764 0.816873 2.64995 0
M  V30 7530 H 705.715 0.893488 1.31158 0
M  V30 7531 H 705.736 -0.209105 3.79925 0
M  V30 7532 H 705.248 1.59674 3.53731 0
M  V30 7533 H 703.349 -0.867512 3.6236 0
M  V30 7534 H 703.462 0.644902 4.7474 0
M  V30 7535 H 701.826 0.246715 2.53502 0
M  V30 7536 H 702.609 1.88429 2.86966 0
M  V30 7537 N 705.054 -1.51416 0.437162 0
M  V30 7538 C 706.3 -2.02386 -0.129555 0
M  V30 7539 C 706.633 -1.32071 -1.42376 0
M  V30 7540 O 705.908 -0.43559 -1.8956 0
M  V30 7541 C 706.191 -3.5841 -0.348487 0
M  V30 7542 C 706.044 -4.39341 0.964352 0
M  V30 7543 C 707.363 -4.25654 -1.11834 0
M  V30 7544 H 704.482 -0.735587 -0.0456109 0
M  V30 7545 H 707.124 -1.81055 0.576124 0
M  V30 7546 H 705.274 -3.76716 -0.949592 0
M  V30 7547 H 706.946 -4.32685 1.59942 0
M  V30 7548 H 705.189 -4.04432 1.56898 0
M  V30 7549 H 705.86 -5.4667 0.765212 0
M  V30 7550 H 708.336 -4.11617 -0.609165 0
M  V30 7551 H 707.212 -5.34704 -1.24029 0
M  V30 7552 H 707.473 -3.86502 -2.14636 0
M  V30 7553 N 706.532 -0.168513 -1.56696 0
M  V30 7554 C 707.778 0.477865 -1.9709 0
M  V30 7555 C 708.111 1.63084 -1.05438 0
M  V30 7556 O 707.386 1.94238 -0.10095 0
M  V30 7557 C 707.669 0.963521 -3.4697 0
M  V30 7558 C 707.522 -0.189443 -4.49401 0
M  V30 7559 C 708.841 1.83813 -3.99876 0
M  V30 7560 H 705.96 0.172229 -0.716593 0
M  V30 7561 H 708.602 -0.254083 -1.88293 0
M  V30 7562 H 706.752 1.58724 -3.54597 0
M  V30 7563 H 708.424 -0.826451 -4.53836 0
M  V30 7564 H 706.667 -0.845366 -4.25483 0
M  V30 7565 H 707.338 0.192446 -5.51664 0
M  V30 7566 H 709.814 1.31235 -3.94863 0
M  V30 7567 H 708.69 2.14697 -5.0517 0
M  V30 7568 H 708.951 2.78289 -3.43523 0
M  V30 7569 N 708.01 1.57248 0.105221 0
M  V30 7570 C 709.426 1.52853 0.459153 0
M  V30 7571 C 709.626 0.883674 1.8109 0
M  V30 7572 O 708.682 0.471864 2.48052 0
M  V30 7573 C 709.995 2.97596 0.43096 0
M  V30 7574 C 711.543 3.08758 0.513536 0
M  V30 7575 C 712.018 4.55089 0.515593 0
M  V30 7576 N 713.509 4.59597 0.576639 0
M  V30 7577 C 714.244 5.70253 0.599904 0
M  V30 7578 N 713.74 6.90368 0.579985 0
M  V30 7579 N 715.533 5.58399 0.643953 0
M  V30 7580 H 707.684 1.97547 -0.780306 0
M  V30 7581 H 709.947 0.902758 -0.289363 0
M  V30 7582 H 709.653 3.48201 -0.494903 0
M  V30 7583 H 709.527 3.55756 1.2537 0
M  V30 7584 H 711.914 2.58148 1.42982 0
M  V30 7585 H 711.995 2.53568 -0.337148 0
M  V30 7586 H 711.639 5.06348 -0.396701 0
M  V30 7587 H 711.569 5.08105 1.38335 0
M  V30 7588 H 714.06 3.73144 0.597639 0
M  V30 7589 H 714.373 7.70462 0.600741 0
M  V30 7590 H 712.718 6.92843 0.547191 0
M  V30 7591 H 715.909 4.63467 0.656975 0
M  V30 7592 H 716.082 6.44644 0.658616 0
M  V30 7593 N 709.488 -0.375779 1.53054 0
M  V30 7594 C 710.734 -1.12114 1.68992 0
M  V30 7595 C 711.067 -1.8926 0.435238 0
M  V30 7596 O 710.342 -1.86044 -0.567278 0
M  V30 7597 C 710.625 -2.08867 2.93337 0
M  V30 7598 C 710.478 -1.35397 4.28938 0
M  V30 7599 C 711.797 -3.09124 3.13257 0
M  V30 7600 H 708.916 -0.406207 0.614951 0
M  V30 7601 H 711.558 -0.403054 1.85676 0
M  V30 7602 H 709.708 -2.70102 2.79244 0
M  V30 7603 H 711.38 -0.770242 4.54824 0
M  V30 7604 H 709.623 -0.655801 4.28814 0
M  V30 7605 H 710.294 -2.06161 5.12056 0
M  V30 7606 H 712.77 -2.57987 3.26469 0
M  V30 7607 H 711.646 -3.74054 4.01715 0
M  V30 7608 H 711.907 -3.78729 2.28072 0
M  V30 7609 N 710.966 -1.44241 -0.634997 0
M  V30 7610 C 711.929 -1.50457 -1.72903 0
M  V30 7611 C 712.929 -0.387058 -1.56072 0
M  V30 7612 O 714.119 -0.649531 -1.61638 0
M  V30 7613 C 711.251 -1.37477 -3.1195 0
M  V30 7614 H 712.444 -2.47907 -1.68767 0
M  V30 7615 H 709.997 -1.31276 -0.84831 0
M  V30 7616 H 710.732 -0.41106 -3.21684 0
M  V30 7617 H 710.517 -2.18506 -3.25573 0
M  V30 7618 H 712.007 -1.44799 -3.91692 0
M  V30 7619 N 712.444 0.87505 -1.31075 0
M  V30 7620 C 713.69 1.63009 -1.20647 0
M  V30 7621 C 714.023 1.9276 0.236045 0
M  V30 7622 O 713.298 1.55559 1.16754 0
M  V30 7623 C 713.581 2.96357 -2.0456 0
M  V30 7624 C 713.434 2.73516 -3.57084 0
M  V30 7625 C 714.753 3.974 -1.89107 0
M  V30 7626 H 711.872 0.591518 -0.439631 0
M  V30 7627 H 714.514 1.0119 -1.60812 0
M  V30 7628 H 712.664 3.49119 -1.70435 0
M  V30 7629 H 714.336 2.27465 -4.01319 0
M  V30 7630 H 712.579 2.0784 -3.80769 0
M  V30 7631 H 713.25 3.68377 -4.11099 0
M  V30 7632 H 715.726 3.5383 -2.18961 0
M  V30 7633 H 714.602 4.88596 -2.5013 0
M  V30 7634 H 714.863 4.33794 -0.85296 0
M  V30 7635 N 713.922 1.13953 1.08869 0
M  V30 7636 C 714.869 0.82213 2.15661 0
M  V30 7637 C 715.839 -0.218274 1.6466 0
M  V30 7638 O 717.024 -0.0892475 1.90591 0
M  V30 7639 C 714.164 0.300572 3.43789 0
M  V30 7640 C 713.277 1.40071 4.08661 0
M  V30 7641 C 712.412 0.836897 5.24566 0
M  V30 7642 C 711.451 1.91504 5.81371 0
M  V30 7643 N 710.588 1.36875 6.88629 0
M  V30 7644 H 715.428 1.73683 2.42153 0
M  V30 7645 H 712.965 0.866879 1.18843 0
M  V30 7646 H 714.923 -0.0199943 4.17195 0
M  V30 7647 H 713.553 -0.577248 3.17597 0
M  V30 7648 H 712.605 1.83776 3.33062 0
M  V30 7649 H 713.917 2.21534 4.46905 0
M  V30 7650 H 713.071 0.467953 6.04893 0
M  V30 7651 H 711.81 -0.00874207 4.87699 0
M  V30 7652 H 710.815 2.29299 4.99702 0
M  V30 7653 H 712.04 2.76419 6.20298 0
M  V30 7654 H 709.986 0.545211 6.5373 0
M  V30 7655 H 709.903 2.1198 7.25672 0
M  V30 7656 H 711.171 1.02756 7.72698 0
M  V30 7657 N 715.4 -1.26948 0.933913 0
M  V30 7658 C 716.811 -1.76058 0.621324 0
M  V30 7659 C 717.162 -1.76175 -0.863522 0
M  V30 7660 O 716.287 -1.36921 -1.67576 0
M  V30 7661 C 716.882 -3.19713 1.12111 0
M  V30 7662 C 715.441 -3.66465 0.859074 0
M  V30 7663 C 714.588 -2.46186 1.27624 0
M  V30 7664 H 717.539 -1.13127 1.11301 0
M  V30 7665 H 717.56 -3.77566 0.471608 0
M  V30 7666 H 717.072 -3.19596 2.20182 0
M  V30 7667 H 715.173 -3.72021 -0.207566 0
M  V30 7668 H 715.286 -4.55636 1.48098 0
M  V30 7669 H 713.65 -2.45042 0.694727 0
M  V30 7670 H 714.433 -2.48774 2.36572 0
M  V30 7671 N 716.879 -0.700114 -1.41195 0
M  V30 7672 C 717.826 -0.0376652 -2.30769 0
M  V30 7673 C 718.796 0.766544 -1.47354 0
M  V30 7674 O 719.981 0.73365 -1.76131 0
M  V30 7675 C 717.121 0.889452 -3.33441 0
M  V30 7676 C 716.234 0.076373 -4.31932 0
M  V30 7677 C 715.369 1.00155 -5.21673 0
M  V30 7678 C 714.408 0.181644 -6.1183 0
M  V30 7679 N 713.545 1.06087 -6.94039 0
M  V30 7680 H 718.385 -0.80726 -2.86858 0
M  V30 7681 H 715.922 -0.409798 -1.41277 0
M  V30 7682 H 717.88 1.44107 -3.91522 0
M  V30 7683 H 716.51 1.6254 -2.78892 0
M  V30 7684 H 715.562 -0.592223 -3.75762 0
M  V30 7685 H 716.874 -0.559076 -4.95657 0
M  V30 7686 H 716.028 1.62223 -5.8461 0
M  V30 7687 H 714.767 1.67085 -4.58186 0
M  V30 7688 H 713.772 -0.452085 -5.47938 0
M  V30 7689 H 714.997 -0.483925 -6.77374 0
M  V30 7690 H 712.943 1.7161 -6.33156 0
M  V30 7691 H 712.86 0.481094 -7.54468 0
M  V30 7692 H 714.128 1.66822 -7.6144 0
M  V30 7693 N 718.357 1.51182 -0.445186 0
M  V30 7694 C 719.634 1.9478 0.178965 0
M  V30 7695 C 720.014 1.38428 1.59376 0
M  V30 7696 O 719.362 0.574552 2.21159 0
M  V30 7697 C 719.572 3.48683 0.148711 0
M  V30 7698 C 720.92 4.23152 0.35042 0
M  V30 7699 O 721.944 3.55479 0.226474 0
M  V30 7700 O 720.803 5.4322 0.597893 0
M  V30 7701 H 717.897 0.817387 0.12573 0
M  V30 7702 H 720.443 1.62051 -0.503729 0
M  V30 7703 H 719.215 3.82176 -0.84009 0
M  V30 7704 H 718.838 3.87875 0.873979 0
M  V30 7705 N 719.835 0.176821 1.56605 0
M  V30 7706 C 721.06 -0.47599 2.01864 0
M  V30 7707 C 721.485 -1.55645 1.05623 0
M  V30 7708 O 720.843 -1.81263 0.0366729 0
M  V30 7709 C 720.891 -1.02619 3.4569 0
M  V30 7710 O 719.995 -2.13996 3.52533 0
M  V30 7711 H 719.336 -0.113363 0.654251 0
M  V30 7712 H 721.866 0.28233 2.02643 0
M  V30 7713 H 721.876 -1.34742 3.85109 0
M  V30 7714 H 720.551 -0.235138 4.15235 0
M  V30 7715 H 719.128 -1.82876 3.24978 0
M  V30 7716 N 721.313 -1.57302 -0.09688 0
M  V30 7717 C 722.26 -2.01933 -1.11766 0
M  V30 7718 C 723.23 -0.895329 -1.39904 0
M  V30 7719 O 724.415 -1.16119 -1.51397 0
M  V30 7720 C 721.555 -2.44726 -2.43317 0
M  V30 7721 C 720.668 -3.70639 -2.21925 0
M  V30 7722 C 719.803 -4.02318 -3.46862 0
M  V30 7723 C 718.842 -5.21346 -3.20725 0
M  V30 7724 N 717.979 -5.48787 -4.37924 0
M  V30 7725 H 722.819 -2.88919 -0.730075 0
M  V30 7726 H 720.356 -1.42901 -0.348962 0
M  V30 7727 H 722.314 -2.6758 -3.20088 0
M  V30 7728 H 720.944 -1.60753 -2.79926 0
M  V30 7729 H 719.996 -3.55271 -1.35965 0
M  V30 7730 H 721.308 -4.57557 -1.98603 0
M  V30 7731 H 720.462 -4.25939 -4.32042 0
M  V30 7732 H 719.201 -3.13918 -3.73238 0
M  V30 7733 H 718.206 -4.97547 -2.33938 0
M  V30 7734 H 719.431 -6.11343 -2.95697 0
M  V30 7735 H 717.377 -4.63346 -4.64378 0
M  V30 7736 H 717.294 -6.30073 -4.17785 0
M  V30 7737 H 718.562 -5.76943 -5.24173 0
M  V30 7738 N 722.791 0.367657 -1.53252 0
M  V30 7739 C 723.723 1.47032 -1.75824 0
M  V30 7740 C 724.736 1.49736 -0.63898 0
M  V30 7741 O 725.925 1.53253 -0.915193 0
M  V30 7742 C 723.025 2.85805 -1.82122 0
M  V30 7743 C 722.198 3.06822 -3.11736 0
M  V30 7744 C 721.257 4.25698 -3.09302 0
M  V30 7745 O 720.283 4.20972 -3.83107 0
M  V30 7746 N 721.485 5.33002 -2.29977 0
M  V30 7747 H 724.25 1.28048 -2.70968 0
M  V30 7748 H 721.811 0.557363 -1.52004 0
M  V30 7749 H 723.803 3.63465 -1.77975 0
M  V30 7750 H 722.373 2.98046 -0.942716 0
M  V30 7751 H 721.593 2.1684 -3.29202 0
M  V30 7752 H 722.881 3.17731 -3.97397 0
M  V30 7753 H 722.279 5.39703 -1.69521 0
M  V30 7754 H 720.836 6.09247 -2.3165 0
M  V30 7755 N 724.269 1.44576 0.627338 0
M  V30 7756 C 725.199 1.54562 1.75022 0
M  V30 7757 C 726.18 0.398378 1.65369 0
M  V30 7758 O 727.365 0.61899 1.84071 0
M  V30 7759 C 724.495 1.49309 3.13567 0
M  V30 7760 C 723.449 2.62549 3.38012 0
M  V30 7761 C 722.775 2.42348 4.76625 0
M  V30 7762 C 724.075 4.04678 3.30202 0
M  V30 7763 H 725.769 2.4855 1.66922 0
M  V30 7764 H 723.315 1.19624 0.801636 0
M  V30 7765 H 725.268 1.54895 3.919 0
M  V30 7766 H 723.992 0.518392 3.2246 0
M  V30 7767 H 722.651 2.56358 2.62061 0
M  V30 7768 H 722.299 1.43062 4.82226 0
M  V30 7769 H 721.999 3.18273 4.93939 0
M  V30 7770 H 723.523 2.49758 5.57183 0
M  V30 7771 H 724.937 4.12217 3.98435 0
M  V30 7772 H 723.334 4.80836 3.5905 0
M  V30 7773 H 724.404 4.2798 2.27949 0
M  V30 7774 N 725.747 -0.868086 1.31537 0
M  V30 7775 C 727.158 -1.437 1.19195 0
M  V30 7776 C 727.509 -1.95169 -0.200842 0
M  V30 7777 O 726.634 -1.86432 -1.09872 0
M  V30 7778 C 727.229 -2.612 2.15778 0
M  V30 7779 C 725.788 -3.1413 2.07363 0
M  V30 7780 C 724.935 -1.86845 2.049 0
M  V30 7781 H 727.886 -0.676457 1.43561 0
M  V30 7782 H 727.907 -3.37948 1.74847 0
M  V30 7783 H 727.419 -2.23709 3.17137 0
M  V30 7784 H 725.52 -3.56238 1.09204 0
M  V30 7785 H 725.633 -3.76285 2.96557 0
M  V30 7786 H 723.997 -2.05886 1.49943 0
M  V30 7787 H 724.78 -1.51589 3.08019 0
M  V30 7788 N 727.225 -1.14528 -1.08264 0
M  V30 7789 C 728.172 -0.833556 -2.15222 0
M  V30 7790 C 729.142 0.209539 -1.64773 0
M  V30 7791 O 730.327 0.0791388 -1.90636 0
M  V30 7792 C 727.467 -0.318799 -3.43624 0
M  V30 7793 C 726.58 -1.42237 -4.07913 0
M  V30 7794 C 725.715 -0.864704 -5.24115 0
M  V30 7795 C 724.754 -1.94585 -5.80347 0
M  V30 7796 N 723.891 -1.40525 -6.87893 0
M  V30 7797 H 728.731 -1.74965 -2.41228 0
M  V30 7798 H 726.268 -0.873169 -1.18381 0
M  V30 7799 H 728.226 -0.00213088 -4.172 0
M  V30 7800 H 726.856 0.560397 -3.17898 0
M  V30 7801 H 725.908 -1.8554 -3.32083 0
M  V30 7802 H 727.22 -2.23901 -4.45724 0
M  V30 7803 H 726.374 -0.500025 -6.04636 0
M  V30 7804 H 725.113 -0.0171219 -4.87697 0
M  V30 7805 H 724.118 -2.31946 -4.98479 0
M  V30 7806 H 725.343 -2.79704 -6.18823 0
M  V30 7807 H 723.289 -0.579873 -6.53432 0
M  V30 7808 H 723.206 -2.15825 -7.24538 0
M  V30 7809 H 724.474 -1.06852 -7.72142 0
M  V30 7810 N 728.703 1.26451 -0.940633 0
M  V30 7811 C 729.633 2.28773 -0.467479 0
M  V30 7812 C 730.614 1.63218 0.478955 0
M  V30 7813 O 731.799 1.90427 0.380929 0
M  V30 7814 C 728.929 3.46259 0.268656 0
M  V30 7815 C 727.883 4.23898 -0.591171 0
M  V30 7816 C 727.209 5.33993 0.274891 0
M  V30 7817 C 728.509 4.87974 -1.86223 0
M  V30 7818 H 730.203 2.68601 -1.32265 0
M  V30 7819 H 727.749 1.29123 -0.637436 0
M  V30 7820 H 729.702 4.16951 0.610696 0
M  V30 7821 H 728.426 3.05383 1.15796 0
M  V30 7822 H 727.085 3.54969 -0.916098 0
M  V30 7823 H 726.733 4.89358 1.16353 0
M  V30 7824 H 726.433 5.86849 -0.297006 0
M  V30 7825 H 727.957 6.07523 0.612213 0
M  V30 7826 H 729.371 5.50883 -1.58747 0
M  V30 7827 H 727.768 5.50945 -2.37866 0
M  V30 7828 H 728.838 4.10945 -2.57394 0
M  V30 7829 N 730.181 0.707592 1.40822 0
M  V30 7830 C 731.427 0.244031 2.01326 0
M  V30 7831 C 731.76 -1.15722 1.55955 0
M  V30 7832 O 731.035 -1.78347 0.776044 0
M  V30 7833 C 731.318 0.315128 3.58718 0
M  V30 7834 C 731.171 1.75419 4.14184 0
M  V30 7835 C 732.49 -0.318251 4.38948 0
M  V30 7836 H 729.609 0.0901471 0.731466 0
M  V30 7837 H 732.251 0.898584 1.67408 0
M  V30 7838 H 730.401 -0.242176 3.87744 0
M  V30 7839 H 732.073 2.36626 3.95987 0
M  V30 7840 H 730.316 2.28449 3.68773 0
M  V30 7841 H 730.987 1.75538 5.23345 0
M  V30 7842 H 733.463 0.156514 4.15806 0
M  V30 7843 H 732.339 -0.238019 5.48384 0
M  V30 7844 H 732.6 -1.40067 4.19325 0
M  V30 7845 N 731.66 -1.50943 0.453197 0
M  V30 7846 C 732.937 -1.94872 -0.168633 0
M  V30 7847 C 733.317 -1.39272 -1.5864 0
M  V30 7848 O 732.665 -0.586272 -2.20851 0
M  V30 7849 C 732.875 -3.48757 -0.130217 0
M  V30 7850 C 734.223 -4.23331 -0.327975 0
M  V30 7851 O 735.247 -3.55594 -0.207619 0
M  V30 7852 O 734.106 -5.43529 -0.569077 0
M  V30 7853 H 731.2 -0.818042 -0.121394 0
M  V30 7854 H 733.746 -1.61782 0.512316 0
M  V30 7855 H 732.518 -3.81725 0.860346 0
M  V30 7856 H 732.141 -3.88333 -0.853397 0
M  V30 7857 N 733.138 -0.185124 -1.56509 0
M  V30 7858 C 734.386 0.455357 -1.96903 0
M  V30 7859 C 734.707 1.62839 -1.07277 0
M  V30 7860 O 733.977 1.95385 -0.141966 0
M  V30 7861 H 732.557 0.171218 -0.727113 0
M  V30 7862 H 735.219 -0.26953 -1.93027 0
M  V30 7863 H 734.315 0.80616 -3.01509 0
M  V30 7864 N 734.616 1.57351 0.0885366 0
M  V30 7865 C 735.546 2.05561 1.10757 0
M  V30 7866 C 736.527 0.945789 1.41382 0
M  V30 7867 O 737.712 1.21747 1.51299 0
M  V30 7868 C 734.842 2.48554 2.42566 0
M  V30 7869 C 733.796 3.63259 2.26334 0
M  V30 7870 C 733.122 3.9225 3.63378 0
M  V30 7871 C 734.422 4.93913 1.69844 0
M  V30 7872 H 736.116 2.90946 0.706468 0
M  V30 7873 H 733.662 1.39968 0.338385 0
M  V30 7874 H 735.615 2.8089 3.14132 0
M  V30 7875 H 734.339 1.60176 2.84625 0
M  V30 7876 H 732.998 3.31179 1.57213 0
M  V30 7877 H 732.646 3.0103 4.02976 0
M  V30 7878 H 732.346 4.69478 3.53362 0
M  V30 7879 H 733.87 4.27067 4.36401 0
M  V30 7880 H 735.284 5.24588 2.31258 0
M  V30 7881 H 733.681 5.75349 1.70569 0
M  V30 7882 H 734.751 4.80409 0.65843 0
M  V30 7883 N 736.094 -0.359525 1.53444 0
M  V30 7884 C 737.041 -1.44073 1.8031 0
M  V30 7885 C 738.011 -1.52946 0.647811 0
M  V30 7886 O 739.196 -1.68739 0.890614 0
M  V30 7887 C 736.336 -2.80941 2.00416 0
M  V30 7888 C 735.449 -2.80986 3.28132 0
M  V30 7889 C 734.584 -4.09468 3.38393 0
M  V30 7890 C 733.623 -4.03679 4.60119 0
M  V30 7891 N 732.76 -5.23821 4.675 0
M  V30 7892 H 737.6 -1.20464 2.72566 0
M  V30 7893 H 735.137 -0.583859 1.35017 0
M  V30 7894 H 737.095 -3.60459 2.1006 0
M  V30 7895 H 735.725 -3.02936 1.11489 0
M  V30 7896 H 734.777 -1.93666 3.27411 0
M  V30 7897 H 736.089 -2.72583 4.17732 0
M  V30 7898 H 735.243 -4.97404 3.47382 0
M  V30 7899 H 733.982 -4.20632 2.4682 0
M  V30 7900 H 732.987 -3.14129 4.51224 0
M  V30 7901 H 734.212 -3.94112 5.5304 0
M  V30 7902 H 732.158 -5.35559 3.7883 0
M  V30 7903 H 732.075 -5.17611 5.51013 0
M  V30 7904 H 733.343 -6.13572 4.8078 0
M  V30 7905 N 737.572 -1.44907 -0.619662 0
M  V30 7906 C 738.519 -1.52654 -1.73105 0
M  V30 7907 C 739.489 -0.373334 -1.6185 0
M  V30 7908 O 740.674 -0.585143 -1.81606 0
M  V30 7909 C 737.814 -1.48769 -3.11387 0
M  V30 7910 C 736.927 -2.74551 -3.33535 0
M  V30 7911 C 736.062 -2.62421 -4.61854 0
M  V30 7912 C 735.101 -3.83312 -4.77219 0
M  V30 7913 N 734.238 -3.69789 -5.96826 0
M  V30 7914 H 739.078 -2.47605 -1.65819 0
M  V30 7915 H 736.615 -1.22875 -0.808719 0
M  V30 7916 H 738.573 -1.44507 -3.91374 0
M  V30 7917 H 737.203 -0.573783 -3.1766 0
M  V30 7918 H 736.255 -2.88953 -2.47408 0
M  V30 7919 H 737.567 -3.64253 -3.40765 0
M  V30 7920 H 736.721 -2.56056 -5.50019 0
M  V30 7921 H 735.46 -1.70298 -4.57001 0
M  V30 7922 H 734.465 -3.90049 -3.87481 0
M  V30 7923 H 735.69 -4.76486 -4.83878 0
M  V30 7924 H 733.636 -2.80426 -5.93041 0
M  V30 7925 H 733.553 -4.53116 -6.05163 0
M  V30 7926 H 734.821 -3.67335 -6.87521 0
M  V30 7927 N 739.05 0.861098 -1.31996 0
M  V30 7928 C 739.98 1.98482 -1.22993 0
M  V30 7929 C 740.961 1.6971 -0.115168 0
M  V30 7930 O 742.146 1.91849 -0.30126 0
M  V30 7931 C 739.276 3.34179 -0.945615 0
M  V30 7932 C 738.23 3.77284 -2.02091 0
M  V30 7933 C 737.556 5.1054 -1.58912 0
M  V30 7934 C 738.856 3.93439 -3.43515 0
M  V30 7935 H 740.55 2.06271 -2.17008 0
M  V30 7936 H 738.096 0.991043 -1.04472 0
M  V30 7937 H 740.049 4.12338 -0.869206 0
M  V30 7938 H 738.773 3.26586 0.0301849 0
M  V30 7939 H 737.432 3.01371 -2.08737 0
M  V30 7940 H 737.08 4.99397 -0.600942 0
M  V30 7941 H 736.78 5.40352 -2.30854 0
M  V30 7942 H 738.304 5.91199 -1.52696 0
M  V30 7943 H 739.718 4.6197 -3.39495 0
M  V30 7944 H 738.115 4.34661 -4.13751 0
M  V30 7945 H 739.185 2.96548 -3.8365 0
M  V30 7946 N 740.528 1.15101 1.07655 0
M  V30 7947 C 741.491 0.847625 2.12951 0
M  V30 7948 C 742.491 -0.151227 1.60087 0
M  V30 7949 O 743.681 0.0780399 1.74025 0
M  V30 7950 C 740.813 0.265 3.39868 0
M  V30 7951 H 742.006 1.7809 2.41296 0
M  V30 7952 H 739.559 0.958072 1.23494 0
M  V30 7953 H 740.294 -0.676625 3.17163 0
M  V30 7954 H 740.079 0.984554 3.79538 0
M  V30 7955 H 741.569 0.0702121 4.17541 0
M  V30 7956 N 742.006 -1.2595 0.947325 0
M  V30 7957 C 742.953 -2.26159 0.460497 0
M  V30 7958 C 743.923 -1.58919 -0.483125 0
M  V30 7959 O 745.108 -1.86603 -0.397983 0
M  V30 7960 C 742.248 -3.441 -0.26247 0
M  V30 7961 C 741.361 -4.25999 0.717539 0
M  V30 7962 C 740.496 -5.31193 -0.0272486 0
M  V30 7963 C 739.535 -6.04774 0.944177 0
M  V30 7964 N 738.672 -7.01721 0.230741 0
M  V30 7965 H 743.512 -2.67173 1.31995 0
M  V30 7966 H 741.049 -1.31358 0.662088 0
M  V30 7967 H 743.007 -4.11317 -0.698137 0
M  V30 7968 H 741.637 -3.03983 -1.08602 0
M  V30 7969 H 740.689 -3.58513 1.27171 0
M  V30 7970 H 742.001 -4.76981 1.45913 0
M  V30 7971 H 741.155 -6.04451 -0.521903 0
M  V30 7972 H 739.894 -4.81066 -0.801682 0
M  V30 7973 H 738.899 -5.30338 1.4499 0
M  V30 7974 H 740.124 -6.56991 1.71872 0
M  V30 7975 H 738.07 -6.53895 -0.525088 0
M  V30 7976 H 737.987 -7.50484 0.911556 0
M  V30 7977 H 739.255 -7.79122 -0.242616 0
M  V30 7978 N 743.484 -0.715051 -1.40445 0
M  V30 7979 C 744.709 -0.26254 -2.05732 0
M  V30 7980 C 745.134 1.08691 -1.53519 0
M  V30 7981 O 744.492 1.68453 -0.670328 0
M  V30 7982 C 744.54 -0.25195 -3.59719 0
M  V30 7983 O 743.644 0.766998 -4.05205 0
M  V30 7984 H 742.985 -0.123398 -0.652433 0
M  V30 7985 H 745.515 -0.975382 -1.79854 0
M  V30 7986 H 745.525 -0.0894537 -4.07902 0
M  V30 7987 H 744.2 -1.23672 -3.97087 0
M  V30 7988 H 742.777 0.572269 -3.68483 0
M  V30 7989 N 744.962 1.50701 -0.461195 0
M  V30 7990 C 746.239 1.94958 0.158296 0
M  V30 7991 C 746.619 1.40111 1.57899 0
M  V30 7992 O 745.967 0.597976 2.20537 0
M  V30 7993 C 746.177 3.48821 0.11172 0
M  V30 7994 C 747.525 4.23499 0.30552 0
M  V30 7995 O 748.549 3.557 0.188758 0
M  V30 7996 O 747.408 5.43823 0.540244 0
M  V30 7997 H 744.502 0.818674 0.117054 0
M  V30 7998 H 747.048 1.61508 -0.520888 0
M  V30 7999 H 745.82 3.81263 -0.880577 0
M  V30 8000 H 745.443 3.88781 0.832791 0
M  V30 8001 N 746.441 0.193421 1.56409 0
M  V30 8002 C 747.852 -0.319471 1.83946 0
M  V30 8003 C 748.203 -1.61505 1.11403 0
M  V30 8004 O 747.328 -2.13139 0.374289 0
M  V30 8005 C 747.923 -0.586411 3.33686 0
M  V30 8006 C 746.482 -1.04368 3.61641 0
M  V30 8007 C 745.629 -0.0913834 2.77149 0
M  V30 8008 H 748.58 0.417242 1.53117 0
M  V30 8009 H 748.601 -1.43591 3.52366 0
M  V30 8010 H 748.113 0.356701 3.86457 0
M  V30 8011 H 746.214 -2.00113 3.14302 0
M  V30 8012 H 746.327 -0.937549 4.69837 0
M  V30 8013 H 744.691 -0.592954 2.47702 0
M  V30 8014 H 745.474 0.846142 3.32709 0
M  V30 8015 N 747.919 -1.57396 -0.0801906 0
M  V30 8016 C 748.849 -2.06145 -1.09665 0
M  V30 8017 C 749.83 -0.953273 -1.40878 0
M  V30 8018 O 751.015 -1.22548 -1.50651 0
M  V30 8019 C 748.145 -2.49836 -2.41245 0
M  V30 8020 C 747.099 -3.64454 -2.24405 0
M  V30 8021 C 746.425 -3.94172 -3.61293 0
M  V30 8022 C 747.725 -4.94807 -1.67223 0
M  V30 8023 H 749.419 -2.91316 -0.691028 0
M  V30 8024 H 746.965 -1.40145 -0.330957 0
M  V30 8025 H 748.918 -2.82552 -3.12638 0
M  V30 8026 H 747.642 -1.61683 -2.83771 0
M  V30 8027 H 746.301 -3.32008 -1.55454 0
M  V30 8028 H 745.949 -3.03163 -4.01374 0
M  V30 8029 H 745.649 -4.71345 -3.50867 0
M  V30 8030 H 747.173 -4.29376 -4.3413 0
M  V30 8031 H 748.587 -5.25807 -2.28472 0
M  V30 8032 H 746.984 -5.76245 -1.67515 0
M  V30 8033 H 748.054 -4.80751 -0.632944 0
M  V30 8034 N 749.397 0.351382 -1.53633 0
M  V30 8035 C 750.643 1.09411 -1.70754 0
M  V30 8036 C 750.976 1.88544 -0.465293 0
M  V30 8037 O 750.251 1.86923 0.537608 0
M  V30 8038 C 750.534 2.04173 -2.96623 0
M  V30 8039 C 750.387 1.28556 -4.31038 0
M  V30 8040 C 751.706 3.04102 -3.18136 0
M  V30 8041 H 748.825 0.396373 -0.621335 0
M  V30 8042 H 751.467 0.373464 -1.86293 0
M  V30 8043 H 749.617 2.65625 -2.83506 0
M  V30 8044 H 751.289 0.697786 -4.55992 0
M  V30 8045 H 749.532 0.587498 -4.29803 0
M  V30 8046 H 750.203 1.97989 -5.15271 0
M  V30 8047 H 752.679 2.5276 -3.30532 0
M  V30 8048 H 751.555 3.67616 -4.07615 0
M  V30 8049 H 751.816 3.75053 -2.34068 0
M  V30 8050 N 750.875 1.45233 0.611969 0
M  V30 8051 C 751.805 1.5641 1.73373 0
M  V30 8052 C 752.786 0.415896 1.64937 0
M  V30 8053 O 753.971 0.638478 1.83404 0
M  V30 8054 C 751.101 1.52627 3.11965 0
M  V30 8055 C 750.055 2.66119 3.35208 0
M  V30 8056 C 749.381 2.4739 4.74028 0
M  V30 8057 C 750.681 4.08157 3.25891 0
M  V30 8058 H 752.375 2.50307 1.64277 0
M  V30 8059 H 749.921 1.20467 0.788904 0
M  V30 8060 H 751.874 1.59043 3.90235 0
M  V30 8061 H 750.598 0.552564 3.21892 0
M  V30 8062 H 749.257 2.59123 2.59327 0
M  V30 8063 H 748.905 1.48168 4.80682 0
M  V30 8064 H 748.605 3.23494 4.90536 0
M  V30 8065 H 750.129 2.55653 5.54503 0
M  V30 8066 H 751.543 4.1642 3.9404 0
M  V30 8067 H 749.94 4.84617 3.5393 0
M  V30 8068 H 751.01 4.30374 2.23397 0
M  V30 8069 N 752.353 -0.854086 1.3245 0
M  V30 8070 C 753.593 -1.62216 1.2436 0
M  V30 8071 C 753.957 -1.91042 -0.191564 0
M  V30 8072 O 755.158 -2.65864 -0.396211 0
M  V30 8073 C 753.429 -2.9066 2.0797 0
M  V30 8074 S 754.988 -3.81438 2.16911 0
M  V30 8075 H 751.806 -0.556386 0.442669 0
M  V30 8076 H 754.408 -1.01139 1.67305 0
M  V30 8077 H 753.112 -2.6743 3.11302 0
M  V30 8078 H 752.643 -3.56753 1.65805 0
M  V30 8079 H 754.658 -4.78347 1.31903 0
M  V30 8080 N 753.831 -1.1567 -1.07043 0
M  V30 8081 C 755.059 -0.957471 -1.83412 0
M  V30 8082 C 755.474 0.494271 -1.82215 0
M  V30 8083 O 754.831 1.34288 -1.23584 0
M  V30 8084 C 754.882 -1.46784 -3.30359 0
M  V30 8085 O 754.603 -2.86271 -3.31633 0
M  V30 8086 C 756.104 -1.31054 -4.23485 0
M  V30 8087 H 753.324 -0.33986 -0.578564 0
M  V30 8088 H 755.868 -1.53518 -1.35102 0
M  V30 8089 H 754.023 -0.932586 -3.76007 0
M  V30 8090 H 754.437 -3.0948 -4.23465 0
M  V30 8091 H 755.911 -1.71605 -5.24648 0
M  V30 8092 H 756.388 -0.255107 -4.38458 0
M  V30 8093 H 756.994 -1.83503 -3.83676 0
M  V30 8094 N 755.309 1.25446 -0.953992 0
M  V30 8095 C 756.537 1.97215 -0.625595 0
M  V30 8096 C 756.952 1.70911 0.802168 0
M  V30 8097 O 756.309 0.984782 1.5365 0
M  V30 8098 C 756.36 3.50777 -0.873943 0
M  V30 8099 O 756.081 3.76173 -2.24556 0
M  V30 8100 C 757.582 4.39776 -0.557845 0
M  V30 8101 H 754.802 0.628652 -0.2346 0
M  V30 8102 H 757.346 1.59632 -1.27819 0
M  V30 8103 H 755.501 3.86474 -0.267765 0
M  V30 8104 H 755.915 4.70636 -2.31522 0
M  V30 8105 H 757.389 5.46431 -0.782157 0
M  V30 8106 H 757.866 4.36257 0.507573 0
M  V30 8107 H 758.472 4.09644 -1.14332 0
M  V30 8108 N 756.787 0.722489 1.40064 0
M  V30 8109 C 758.064 0.191829 1.94657 0
M  V30 8110 C 758.444 -1.30389 1.66018 0
M  V30 8111 O 757.792 -2.06342 0.981588 0
M  V30 8112 C 758.002 0.511978 3.45224 0
M  V30 8113 C 759.35 0.454426 4.22161 0
M  V30 8114 O 760.374 0.448438 3.53366 0
M  V30 8115 O 759.233 0.437986 5.44742 0
M  V30 8116 H 756.327 0.0307821 0.826427 0
M  V30 8117 H 758.873 0.800493 1.49634 0
M  V30 8118 H 757.645 1.54622 3.59455 0
M  V30 8119 H 757.268 -0.126296 3.97399 0
M  V30 8120 N 758.265 -1.50454 0.469181 0
M  V30 8121 C 759.175 -2.32248 -0.331349 0
M  V30 8122 C 760.191 -1.42548 -0.997807 0
M  V30 8123 O 761.367 -1.75602 -0.9862 0
M  V30 8124 C 758.432 -3.17171 -1.40012 0
M  V30 8125 C 757.493 -4.2269 -0.750463 0
M  V30 8126 C 756.726 -5.03554 -1.76831 0
M  V30 8127 O 756.949 -4.85469 -2.99459 0
M  V30 8128 O 755.883 -5.86767 -1.3412 0
M  V30 8129 H 759.709 -3.01821 0.337279 0
M  V30 8130 H 757.294 -1.47602 0.231066 0
M  V30 8131 H 759.176 -3.69871 -2.01924 0
M  V30 8132 H 757.851 -2.50328 -2.05226 0
M  V30 8133 H 756.758 -3.73986 -0.0924446 0
M  V30 8134 H 758.091 -4.91997 -0.14131 0
M  V30 8135 N 759.743 -0.201713 -1.56304 0
M  V30 8136 C 760.968 0.443815 -2.02596 0
M  V30 8137 C 761.393 1.53945 -1.08086 0
M  V30 8138 O 760.751 1.81182 -0.0655056 0
M  V30 8139 C 760.799 0.971066 -3.47279 0
M  V30 8140 O 759.903 2.0836 -3.55893 0
M  V30 8141 H 759.244 0.10294 -0.655972 0
M  V30 8142 H 761.774 -0.314533 -2.02168 0
M  V30 8143 H 761.784 1.28598 -3.87204 0
M  V30 8144 H 760.459 0.169048 -4.15556 0
M  V30 8145 H 759.036 1.77683 -3.27846 0
M  V30 8146 N 761.222 1.57436 0.0718424 0
M  V30 8147 C 762.47 1.86878 0.769484 0
M  V30 8148 C 762.791 0.7937 1.78116 0
M  V30 8149 O 762.061 -0.177642 1.95093 0
M  V30 8150 H 760.641 0.689593 0.287177 0
M  V30 8151 H 763.303 1.94841 0.0479427 0
M  V30 8152 H 762.399 2.84387 1.28572 0
M  V30 8153 N 762.7 -0.34323 1.53817 0
M  V30 8154 C 763.61 -1.44493 1.84821 0
M  V30 8155 C 764.626 -1.57556 0.738381 0
M  V30 8156 O 765.802 -1.73026 1.03072 0
M  V30 8157 C 762.867 -2.79478 2.05166 0
M  V30 8158 C 761.928 -2.75756 3.29025 0
M  V30 8159 C 761.161 -4.04302 3.4839 0
M  V30 8160 O 761.384 -5.01595 2.71586 0
M  V30 8161 O 760.318 -4.08754 4.41819 0
M  V30 8162 H 764.144 -1.21209 2.78464 0
M  V30 8163 H 761.729 -0.535437 1.39476 0
M  V30 8164 H 763.611 -3.59419 2.19991 0
M  V30 8165 H 762.286 -3.02692 1.14713 0
M  V30 8166 H 761.193 -1.94434 3.19603 0
M  V30 8167 H 762.526 -2.57495 4.19472 0
M  V30 8168 N 764.178 -1.45556 -0.604258 0
M  V30 8169 C 765.128 -1.50906 -1.70913 0
M  V30 8170 C 766.112 -0.371996 -1.56541 0
M  V30 8171 O 767.304 -0.619064 -1.65821 0
M  V30 8172 C 764.433 -1.48181 -3.09673 0
M  V30 8173 C 763.519 -2.67102 -3.2942 0
M  V30 8174 N 763.91 -3.92184 -3.19414 0
M  V30 8175 C 762.208 -2.6287 -3.60299 0
M  V30 8176 C 762.909 -4.71571 -3.40581 0
M  V30 8177 N 761.885 -4.03081 -3.64728 0
M  V30 8178 H 765.687 -2.45435 -1.61675 0
M  V30 8179 H 763.201 -1.40894 -0.807622 0
M  V30 8180 H 765.198 -1.501 -3.88942 0
M  V30 8181 H 763.858 -0.54712 -3.20057 0
M  V30 8182 H 764.869 -4.23756 -2.97743 0
M  V30 8183 H 761.546 -1.78324 -3.77501 0
M  V30 8184 H 762.936 -5.80571 -3.38211 0
M  V30 8185 N 765.656 0.84705 -1.32902 0
M  V30 8186 C 766.905 1.59667 -1.23245 0
M  V30 8187 C 767.218 1.94551 0.202349 0
M  V30 8188 O 768.424 2.68218 0.420847 0
M  V30 8189 C 766.88 2.8795 -2.15901 0
M  V30 8190 C 766.488 2.60461 -3.64505 0
M  V30 8191 C 768.232 3.65968 -2.15098 0
M  V30 8192 C 766.139 3.84791 -4.49099 0
M  V30 8193 H 765.069 0.599167 -0.457728 0
M  V30 8194 H 767.72 0.934662 -1.57912 0
M  V30 8195 H 766.102 3.55648 -1.74157 0
M  V30 8196 H 767.276 2.01026 -4.14639 0
M  V30 8197 H 765.591 1.9576 -3.67515 0
M  V30 8198 H 768.188 4.58241 -2.75534 0
M  V30 8199 H 768.531 4.00275 -1.14392 0
M  V30 8200 H 769.064 3.05184 -2.55162 0
M  V30 8201 H 765.803 3.55621 -5.50649 0
M  V30 8202 H 765.323 4.43594 -4.03713 0
M  V30 8203 H 767.002 4.52454 -4.62487 0
M  V30 8204 N 767.134 1.16236 1.06428 0
M  V30 8205 C 768.383 0.937523 1.78587 0
M  V30 8206 C 768.696 -0.536 1.88113 0
M  V30 8207 O 769.902 -0.878697 2.56887 0
M  V30 8208 C 768.358 1.62808 3.2097 0
M  V30 8209 C 767.966 3.13927 3.19615 0
M  V30 8210 C 769.71 1.48515 3.97673 0
M  V30 8211 C 767.617 3.75727 4.56709 0
M  V30 8212 H 766.547 0.347125 0.669343 0
M  V30 8213 H 769.198 1.39353 1.19385 0
M  V30 8214 H 767.58 1.09977 3.80422 0
M  V30 8215 H 768.754 3.7359 2.69753 0
M  V30 8216 H 767.069 3.28089 2.56411 0
M  V30 8217 H 769.666 1.92069 4.99013 0
M  V30 8218 H 770.009 0.433913 4.14032 0
M  V30 8219 H 770.542 1.98494 3.44739 0
M  V30 8220 H 767.281 4.80793 4.45554 0
M  V30 8221 H 766.801 3.20849 5.0677 0
M  V30 8222 H 768.48 3.77203 5.25668 0
M  V30 8223 N 768.612 -1.24939 0.960631 0
M  V30 8224 C 769.837 -1.9742 0.635608 0
M  V30 8225 C 770.262 -1.70857 -0.786737 0
M  V30 8226 O 769.62 -0.968063 -1.53291 0
M  V30 8227 C 769.668 -3.48987 0.907771 0
M  V30 8228 O 768.772 -4.12399 -0.0104053 0
M  V30 8229 H 768.113 -0.61871 0.241027 0
M  V30 8230 H 770.643 -1.58901 1.28886 0
M  V30 8231 H 770.653 -3.99334 0.836453 0
M  V30 8232 H 769.328 -3.6765 1.94439 0
M  V30 8233 H 767.905 -3.72727 0.113631 0
M  V30 8234 N 770.09 -0.729906 -1.39679 0
M  V30 8235 C 771.338 -0.275077 -2.00219 0
M  V30 8236 C 771.659 1.1401 -1.58199 0
M  V30 8237 O 770.929 1.77546 -0.827904 0
M  V30 8238 H 769.509 -0.0987127 -0.740449 0
M  V30 8239 H 772.171 -0.93873 -1.70804 0
M  V30 8240 H 771.267 -0.319446 -3.10461 0
M  V30 8241 N 771.568 1.50203 -0.477153 0
M  V30 8242 C 772.808 2.04265 0.0744065 0
M  V30 8243 C 773.172 1.35082 1.36443 0
M  V30 8244 O 774.373 1.79732 1.99875 0
M  V30 8245 C 772.644 3.56539 0.247874 0
M  V30 8246 S 774.203 4.32219 0.757117 0
M  V30 8247 H 771.021 0.71088 0.0130891 0
M  V30 8248 H 773.623 1.8453 -0.645678 0
M  V30 8249 H 772.327 4.04443 -0.696709 0
M  V30 8250 H 771.858 3.80638 0.993896 0
M  V30 8251 H 773.873 4.52789 2.0297 0
M  V30 8252 N 773.046 0.209999 1.56195 0
M  V30 8253 C 774.294 -0.423974 1.97603 0
M  V30 8254 C 774.615 -1.61112 1.09854 0
M  V30 8255 O 773.885 -1.95134 0.173032 0
M  V30 8256 H 772.465 -0.159629 0.729745 0
M  V30 8257 H 775.127 0.300205 1.92574 0
M  V30 8258 H 774.223 -0.75809 3.02753 0
M  V30 8259 N 774.524 -1.57472 -0.0634922 0
M  V30 8260 C 775.434 -2.07621 -1.09227 0
M  V30 8261 C 776.45 -1.00746 -1.41867 0
M  V30 8262 O 777.626 -1.32269 -1.51878 0
M  V30 8263 C 774.691 -2.51707 -2.38421 0
M  V30 8264 C 773.752 -3.72917 -2.12676 0
M  V30 8265 C 772.985 -4.14891 -3.3571 0
M  V30 8266 O 773.208 -3.56663 -4.45137 0
M  V30 8267 O 772.142 -5.07616 -3.23434 0
M  V30 8268 H 775.968 -2.95612 -0.696205 0
M  V30 8269 H 773.553 -1.46787 -0.27819 0
M  V30 8270 H 775.435 -2.80547 -3.14438 0
M  V30 8271 H 774.11 -1.66842 -2.77391 0
M  V30 8272 H 773.017 -3.49148 -1.34337 0
M  V30 8273 H 774.35 -4.5866 -1.78583 0
M  V30 8274 N 776.003 0.335068 -1.53997 0
M  V30 8275 C 776.933 1.41727 -1.85568 0
M  V30 8276 C 777.914 1.54505 -0.7115 0
M  V30 8277 O 779.099 1.68573 -0.964191 0
M  V30 8278 C 776.229 2.7866 -2.07282 0
M  V30 8279 C 775.183 2.80682 -3.23112 0
M  V30 8280 C 774.509 4.20581 -3.30175 0
M  V30 8281 C 775.809 2.45458 -4.61029 0
M  V30 8282 H 777.503 1.15555 -2.76202 0
M  V30 8283 H 775.049 0.554445 -1.32898 0
M  V30 8284 H 777.002 3.54423 -2.27952 0
M  V30 8285 H 775.726 3.06286 -1.13387 0
M  V30 8286 H 774.385 2.07373 -3.02311 0
M  V30 8287 H 774.033 4.4533 -2.33859 0
M  V30 8288 H 773.733 4.22843 -4.08016 0
M  V30 8289 H 775.257 4.98174 -3.53066 0
M  V30 8290 H 776.671 3.10934 -4.81656 0
M  V30 8291 H 775.068 2.5899 -5.41336 0
M  V30 8292 H 776.138 1.40628 -4.6406 0
M  V30 8293 N 777.481 1.45874 0.596531 0
M  V30 8294 C 778.431 1.5181 1.70111 0
M  V30 8295 C 779.415 0.380293 1.56341 0
M  V30 8296 O 780.607 0.627849 1.6549 0
M  V30 8297 C 777.736 1.49822 3.08883 0
M  V30 8298 C 776.822 2.68845 3.27998 0
M  V30 8299 N 777.213 3.93873 3.17329 0
M  V30 8300 C 775.511 2.64777 3.589 0
M  V30 8301 C 776.212 4.73371 3.38076 0
M  V30 8302 N 775.188 4.0501 3.62585 0
M  V30 8303 H 778.99 2.46289 1.60372 0
M  V30 8304 H 776.504 1.41321 0.800138 0
M  V30 8305 H 778.501 1.5216 3.8814 0
M  V30 8306 H 777.161 0.564086 3.19763 0
M  V30 8307 H 778.172 4.25329 2.95492 0
M  V30 8308 H 774.849 1.80323 3.7655 0
M  V30 8309 H 776.239 5.82357 3.35127 0
M  V30 8310 N 778.959 -0.83999 1.33349 0
M  V30 8311 C 780.208 -1.59011 1.2409 0
M  V30 8312 C 780.521 -1.94655 -0.192029 0
M  V30 8313 O 781.727 -2.68438 -0.406617 0
M  V30 8314 C 780.183 -2.86801 2.17425 0
M  V30 8315 C 779.791 -2.58525 3.65881 0
M  V30 8316 C 781.535 -3.64823 2.17036 0
M  V30 8317 C 779.442 -3.82404 4.51133 0
M  V30 8318 H 778.372 -0.596731 0.460899 0
M  V30 8319 H 781.023 -0.926274 1.58406 0
M  V30 8320 H 779.405 -3.54719 1.7604 0
M  V30 8321 H 780.579 -1.98824 4.15699 0
M  V30 8322 H 778.894 -1.93808 3.68548 0
M  V30 8323 H 781.491 -4.56774 2.7796 0
M  V30 8324 H 781.834 -3.99663 1.16513 0
M  V30 8325 H 782.367 -3.03826 2.56777 0
M  V30 8326 H 779.106 -3.52696 5.52527 0
M  V30 8327 H 778.626 -4.41447 4.0606 0
M  V30 8328 H 780.305 -4.49995 4.6488 0
M  V30 8329 N 780.437 -1.16799 -1.0581 0
M  V30 8330 C 781.347 -0.893492 -2.16919 0
M  V30 8331 C 782.363 0.136061 -1.73467 0
M  V30 8332 O 783.539 -0.0417348 -2.01357 0
M  V30 8333 C 780.604 -0.403763 -3.44341 0
M  V30 8334 C 779.665 -1.49914 -4.02274 0
M  V30 8335 C 778.898 -1.03269 -5.23614 0
M  V30 8336 O 779.121 0.115647 -5.70283 0
M  V30 8337 O 778.055 -1.8231 -5.73626 0
M  V30 8338 H 781.881 -1.82274 -2.42919 0
M  V30 8339 H 779.466 -0.948361 -1.1544 0
M  V30 8340 H 781.348 -0.137874 -4.21174 0
M  V30 8341 H 780.023 0.497413 -3.19855 0
M  V30 8342 H 778.93 -1.81883 -3.26909 0
M  V30 8343 H 780.263 -2.3758 -4.31064 0
M  V30 8344 N 781.915 1.24427 -0.967243 0
M  V30 8345 C 783.164 1.91789 -0.624478 0
M  V30 8346 C 783.477 1.76448 0.844129 0
M  V30 8347 O 784.683 2.38495 1.2974 0
M  V30 8348 C 783.139 3.43743 -1.06626 0
M  V30 8349 C 782.747 3.67771 -2.55829 0
M  V30 8350 C 784.491 4.16958 -0.79662 0
M  V30 8351 C 782.398 5.13293 -2.93742 0
M  V30 8352 H 781.328 0.71811 -0.229856 0
M  V30 8353 H 783.979 1.41081 -1.17339 0
M  V30 8354 H 782.361 3.93484 -0.445663 0
M  V30 8355 H 783.535 3.28631 -3.23015 0
M  V30 8356 H 781.85 3.07841 -2.80398 0
M  V30 8357 H 784.447 5.24171 -1.05589 0
M  V30 8358 H 784.79 4.15442 0.267163 0
M  V30 8359 H 785.323 3.73164 -1.37816 0
M  V30 8360 H 782.062 5.19931 -3.9919 0
M  V30 8361 H 781.582 5.53433 -2.3124 0
M  V30 8362 H 783.261 5.81521 -2.83623 0
M  V30 8363 N 783.393 0.737304 1.3929 0
M  V30 8364 C 784.633 0.290966 2.02318 0
M  V30 8365 C 784.997 -1.10174 1.57244 0
M  V30 8366 O 786.198 -1.64628 2.12488 0
M  V30 8367 C 784.469 0.391767 3.55246 0
M  V30 8368 S 786.028 0.0256103 4.38793 0
M  V30 8369 H 782.846 0.113862 0.701824 0
M  V30 8370 H 785.448 0.964329 1.70062 0
M  V30 8371 H 784.152 1.40662 3.85542 0
M  V30 8372 H 783.683 -0.299338 3.9226 0
M  V30 8373 H 785.698 -1.18991 4.81722 0
M  V30 8374 N 784.871 -1.49948 0.485112 0
M  V30 8375 C 785.801 -2.31675 -0.291364 0
M  V30 8376 C 786.782 -1.39216 -0.977383 0
M  V30 8377 O 787.967 -1.68133 -0.971855 0
M  V30 8378 C 785.097 -3.19326 -1.36558 0
M  V30 8379 C 784.051 -4.2045 -0.800359 0
M  V30 8380 C 783.377 -4.96931 -1.97391 0
M  V30 8381 C 784.677 -5.21925 0.197867 0
M  V30 8382 H 786.371 -2.96839 0.390775 0
M  V30 8383 H 783.917 -1.42749 0.189375 0
M  V30 8384 H 785.87 -3.75304 -1.91638 0
M  V30 8385 H 784.594 -2.52074 -2.07668 0
M  V30 8386 H 783.253 -3.65594 -0.271428 0
M  V30 8387 H 782.901 -4.26141 -2.67232 0
M  V30 8388 H 782.601 -5.65344 -1.60187 0
M  V30 8389 H 784.125 -5.55749 -2.52935 0
M  V30 8390 H 785.539 -5.72691 -0.264239 0
M  V30 8391 H 783.936 -5.98138 0.484908 0
M  V30 8392 H 785.006 -4.71809 1.11912 0
M  V30 8393 N 786.349 -0.21828 -1.56081 0
M  V30 8394 C 787.296 0.693189 -2.20144 0
M  V30 8395 C 788.266 1.19274 -1.15598 0
M  V30 8396 O 789.451 1.25243 -1.4394 0
M  V30 8397 C 786.591 1.89715 -2.88275 0
M  V30 8398 C 785.704 1.4368 -4.07407 0
M  V30 8399 C 784.839 2.59807 -4.63329 0
M  V30 8400 C 783.878 2.10492 -5.74769 0
M  V30 8401 N 783.015 3.1988 -6.24997 0
M  V30 8402 H 787.855 0.14016 -2.9767 0
M  V30 8403 H 785.392 0.0574292 -1.46988 0
M  V30 8404 H 787.35 2.60398 -3.25958 0
M  V30 8405 H 785.98 2.42311 -2.13273 0
M  V30 8406 H 785.032 0.625007 -3.7523 0
M  V30 8407 H 786.344 1.03517 -4.8794 0
M  V30 8408 H 785.498 3.38577 -5.03438 0
M  V30 8409 H 784.237 3.03256 -3.81951 0
M  V30 8410 H 783.242 1.30182 -5.34165 0
M  V30 8411 H 784.467 1.68045 -6.5798 0
M  V30 8412 H 782.413 3.62817 -5.46534 0
M  V30 8413 H 782.33 2.83958 -7.00645 0
M  V30 8414 H 783.598 3.98796 -6.69763 0
M  V30 8415 N 787.827 1.57504 0.0551401 0
M  V30 8416 C 789.104 1.79155 0.785048 0
M  V30 8417 C 789.484 0.809995 1.94942 0
M  V30 8418 O 788.832 -0.153432 2.27984 0
M  V30 8419 C 789.042 3.26134 1.24247 0
M  V30 8420 C 790.39 3.90419 1.66908 0
M  V30 8421 O 791.414 3.30126 1.33772 0
M  V30 8422 O 790.273 4.96523 2.28314 0
M  V30 8423 H 787.367 0.735825 0.377479 0
M  V30 8424 H 789.913 1.69666 0.0339285 0
M  V30 8425 H 788.685 3.89145 0.410089 0
M  V30 8426 H 788.308 3.40411 2.05441 0
M  V30 8427 N 789.305 -0.326896 1.54172 0
M  V30 8428 C 790.235 -1.40741 1.86317 0
M  V30 8429 C 791.216 -1.54125 0.719684 0
M  V30 8430 O 792.401 -1.6806 0.973117 0
M  V30 8431 C 789.531 -2.77557 2.08757 0
M  V30 8432 C 788.485 -2.78965 3.24596 0
M  V30 8433 C 787.811 -4.18824 3.32401 0
M  V30 8434 C 789.111 -2.4301 4.62324 0
M  V30 8435 H 790.805 -1.14088 2.76811 0
M  V30 8436 H 788.351 -0.547389 1.3319 0
M  V30 8437 H 790.304 -3.53209 2.29829 0
M  V30 8438 H 789.028 -3.0568 1.15009 0
M  V30 8439 H 787.687 -2.05767 3.03406 0
M  V30 8440 H 787.335 -4.44083 2.36218 0
M  V30 8441 H 787.035 -4.20673 4.10253 0
M  V30 8442 H 788.559 -4.96294 3.55703 0
M  V30 8443 H 789.973 -3.08375 4.83299 0
M  V30 8444 H 788.37 -2.56116 5.42701 0
M  V30 8445 H 789.44 -1.38165 4.64799 0
M  V30 8446 N 790.784 -1.46188 -0.588786 0
M  V30 8447 C 791.731 -1.56292 -1.69828 0
M  V30 8448 C 792.701 -0.407581 -1.61022 0
M  V30 8449 O 793.886 -0.623532 -1.80324 0
M  V30 8450 C 791.026 -1.55341 -3.08161 0
M  V30 8451 C 790.139 -2.81564 -3.27636 0
M  V30 8452 C 789.274 -2.72158 -4.56183 0
M  V30 8453 C 788.313 -3.93348 -4.68981 0
M  V30 8454 N 787.45 -3.82365 -5.88848 0
M  V30 8455 H 792.29 -2.51066 -1.6053 0
M  V30 8456 H 789.827 -1.24562 -0.782474 0
M  V30 8457 H 791.785 -1.52776 -3.88221 0
M  V30 8458 H 790.415 -0.641034 -3.16371 0
M  V30 8459 H 789.467 -2.94136 -2.41223 0
M  V30 8460 H 790.779 -3.714 -3.32962 0
M  V30 8461 H 789.933 -2.67665 -5.44464 0
M  V30 8462 H 788.672 -1.79953 -4.53286 0
M  V30 8463 H 787.677 -3.98181 -3.7912 0
M  V30 8464 H 788.902 -4.86643 -4.73662 0
M  V30 8465 H 786.848 -2.92942 -5.86959 0
M  V30 8466 H 786.765 -4.65851 -5.95415 0
M  V30 8467 H 788.033 -3.81836 -6.79575 0
M  V30 8468 N 792.262 0.832906 -1.33792 0
M  V30 8469 C 793.539 1.57359 -1.16178 0
M  V30 8470 C 793.919 2.09372 0.269532 0
M  V30 8471 O 793.267 1.89993 1.26944 0
M  V30 8472 C 793.477 2.70279 -2.20795 0
M  V30 8473 C 794.825 3.39305 -2.55259 0
M  V30 8474 O 795.849 2.80526 -2.19508 0
M  V30 8475 O 794.708 4.45428 -3.16632 0
M  V30 8476 H 791.802 0.694025 -0.449731 0
M  V30 8477 H 794.348 0.875144 -1.45394 0
M  V30 8478 H 793.12 2.29527 -3.16911 0
M  V30 8479 H 792.743 3.47782 -1.927 0
M  V30 8480 N 793.74 1.17359 1.05189 0
M  V30 8481 C 794.65 0.904984 2.16442 0
M  V30 8482 C 795.666 -0.12686 1.73537 0
M  V30 8483 O 796.842 0.0524127 2.01332 0
M  V30 8484 C 793.907 0.422019 3.44122 0
M  V30 8485 C 792.968 1.52045 4.01473 0
M  V30 8486 C 792.201 1.06044 5.23059 0
M  V30 8487 O 792.424 -0.0854023 5.70336 0
M  V30 8488 O 791.358 1.85349 5.72651 0
M  V30 8489 H 795.184 1.8356 2.41949 0
M  V30 8490 H 792.769 0.95447 1.14936 0
M  V30 8491 H 794.651 0.160208 4.21095 0
M  V30 8492 H 793.326 -0.480444 3.20115 0
M  V30 8493 H 792.233 1.83615 3.25939 0
M  V30 8494 H 793.566 2.39863 4.29798 0
M  V30 8495 N 795.218 -1.23913 0.973828 0
M  V30 8496 C 796.448 -1.95911 0.655938 0
M  V30 8497 C 796.856 -1.72375 -0.779967 0
M  V30 8498 O 796.199 -1.00807 -1.5357 0
M  V30 8499 C 796.261 -3.49103 0.858324 0
M  V30 8500 C 795.925 -3.96347 2.27504 0
M  V30 8501 C 796.922 -4.05537 3.25324 0
M  V30 8502 C 794.607 -4.29509 2.60437 0
M  V30 8503 C 796.601 -4.47233 4.5416 0
M  V30 8504 C 794.288 -4.70887 3.89498 0
M  V30 8505 C 795.286 -4.79714 4.86172 0
M  V30 8506 O 794.974 -5.20166 6.1293 0
M  V30 8507 H 794.706 -0.630721 0.243244 0
M  V30 8508 H 797.26 -1.58534 1.30599 0
M  V30 8509 H 795.49 -3.86405 0.151097 0
M  V30 8510 H 797.179 -4.02311 0.538592 0
M  V30 8511 H 797.945 -3.80128 3.0121 0
M  V30 8512 H 793.824 -4.21853 1.85906 0
M  V30 8513 H 797.368 -4.54038 5.29618 0
M  V30 8514 H 793.265 -4.95744 4.1341 0
M  V30 8515 H 794.033 -5.38298 6.16586 0
M  V30 8516 N 796.696 -0.74468 -1.38897 0
M  V30 8517 C 797.659 -0.11945 -2.28889 0
M  V30 8518 C 798.659 0.656942 -1.46768 0
M  V30 8519 O 799.849 0.484525 -1.67326 0
M  V30 8520 C 796.981 0.839635 -3.30398 0
M  V30 8521 H 798.174 -0.912414 -2.85683 0
M  V30 8522 H 795.727 -0.511119 -1.47707 0
M  V30 8523 H 796.462 1.6586 -2.78677 0
M  V30 8524 H 796.247 0.285432 -3.9106 0
M  V30 8525 H 797.737 1.27337 -3.97712 0
M  V30 8526 N 798.174 1.49689 -0.493057 0
M  V30 8527 C 799.106 2.26867 0.326195 0
M  V30 8528 C 800.119 1.33083 0.937697 0
M  V30 8529 O 801.308 1.58427 0.822382 0
M  V30 8530 C 798.408 3.0519 1.4735 0
M  V30 8531 C 797.581 4.26491 0.970767 0
M  V30 8532 C 796.64 4.86926 1.99473 0
M  V30 8533 O 795.666 5.47221 1.56647 0
M  V30 8534 N 796.868 4.75871 3.32456 0
M  V30 8535 H 799.633 2.97816 -0.335547 0
M  V30 8536 H 797.194 1.58602 -0.325129 0
M  V30 8537 H 799.186 3.42496 2.15589 0
M  V30 8538 H 797.756 2.369 2.03954 0
M  V30 8539 H 796.976 3.94036 0.113529 0
M  V30 8540 H 798.264 5.05092 0.613156 0
M  V30 8541 H 797.662 4.2797 3.69944 0
M  V30 8542 H 796.219 5.17383 3.96431 0
M  V30 8543 N 799.652 0.226554 1.55963 0
M  V30 8544 C 800.901 -0.40417 1.97609 0
M  V30 8545 C 801.214 -1.60541 1.1174 0
M  V30 8546 O 802.42 -2.30598 1.43307 0
M  V30 8547 C 800.876 -0.770466 3.51556 0
M  V30 8548 C 800.484 0.408244 4.46136 0
M  V30 8549 C 802.228 -1.36651 4.01904 0
M  V30 8550 C 800.135 0.0192347 5.91397 0
M  V30 8551 H 799.065 -0.15478 0.737943 0
M  V30 8552 H 801.716 0.323558 1.80625 0
M  V30 8553 H 800.098 -1.55575 3.6416 0
M  V30 8554 H 801.272 1.18575 4.45283 0
M  V30 8555 H 799.587 0.917859 4.06158 0
M  V30 8556 H 802.184 -1.67055 5.07934 0
M  V30 8557 H 802.527 -2.28403 3.48049 0
M  V30 8558 H 803.06 -0.644556 3.92543 0
M  V30 8559 H 799.799 0.90336 6.49245 0
M  V30 8560 H 799.319 -0.722485 5.95433 0
M  V30 8561 H 800.998 -0.405711 6.45727 0
M  V30 8562 N 801.13 -1.57531 -0.0467866 0
M  V30 8563 C 802.407 -1.79568 -0.775536 0
M  V30 8564 C 802.787 -0.820322 -1.94509 0
M  V30 8565 O 802.135 0.14134 -2.28062 0
M  V30 8566 C 802.345 -3.26789 -1.22516 0
M  V30 8567 C 803.693 -3.91299 -1.64835 0
M  V30 8568 O 804.717 -3.30831 -1.3202 0
M  V30 8569 O 803.576 -4.97727 -2.25677 0
M  V30 8570 H 800.67 -0.737817 -0.373572 0
M  V30 8571 H 803.216 -1.69682 -0.0249302 0
M  V30 8572 H 801.988 -3.89357 -0.389446 0
M  V30 8573 H 801.611 -3.41496 -2.03633 0
M  V30 8574 N 802.608 0.318715 -1.54344 0
M  V30 8575 C 803.855 1.05608 -1.72781 0
M  V30 8576 C 804.183 1.87854 -0.504083 0
M  V30 8577 O 803.438 1.88826 0.51414 0
M  V30 8578 C 803.737 2.00514 -2.95853 0
M  V30 8579 C 803.403 1.34385 -4.30409 0
M  V30 8580 C 802.065 1.16081 -4.66989 0
M  V30 8581 C 804.417 0.869627 -5.13894 0
M  V30 8582 C 801.745 0.490114 -5.84649 0
M  V30 8583 C 804.097 0.212735 -6.32242 0
M  V30 8584 C 802.761 0.0175882 -6.67498 0
M  V30 8585 H 802.031 0.386449 -0.632249 0
M  V30 8586 H 804.678 0.332729 -1.88587 0
M  V30 8587 H 802.983 2.79317 -2.74753 0
M  V30 8588 H 804.68 2.57605 -3.07312 0
M  V30 8589 H 801.27 1.49634 -4.01631 0
M  V30 8590 H 805.454 0.998809 -4.86146 0
M  V30 8591 H 800.71 0.327767 -6.10521 0
M  V30 8592 H 804.884 -0.162699 -6.9621 0
M  V30 8593 H 802.511 -0.504137 -7.58527 0
M  V30 8594 N 804.086 1.46499 0.581025 0
M  V30 8595 C 805.335 1.51162 1.3354 0
M  V30 8596 C 805.648 0.168433 1.94873 0
M  V30 8597 O 806.854 0.092883 2.71341 0
M  V30 8598 C 805.31 2.66362 2.42032 0
M  V30 8599 C 804.918 4.07109 1.86994 0
M  V30 8600 C 806.662 2.80297 3.188 0
M  V30 8601 C 804.569 5.13645 2.93125 0
M  V30 8602 H 803.499 0.562576 0.502021 0
M  V30 8603 H 806.15 1.72713 0.619863 0
M  V30 8604 H 804.532 2.38143 3.16392 0
M  V30 8605 H 805.706 4.45125 1.19166 0
M  V30 8606 H 804.021 3.97854 1.22887 0
M  V30 8607 H 806.618 3.5706 3.9801 0
M  V30 8608 H 806.961 1.87875 3.71495 0
M  V30 8609 H 807.494 3.0817 2.51547 0
M  V30 8610 H 804.233 6.07866 2.45315 0
M  V30 8611 H 803.753 4.80172 3.59437 0
M  V30 8612 H 805.432 5.39562 3.57046 0
M  V30 8613 N 805.565 -0.825799 1.34232 0
M  V30 8614 C 806.811 -1.58419 1.26614 0
M  V30 8615 C 807.144 -1.93503 -0.164341 0
M  V30 8616 O 806.419 -1.59785 -1.109 0
M  V30 8617 C 806.702 -2.8856 2.15418 0
M  V30 8618 C 806.555 -2.60075 3.66989 0
M  V30 8619 C 807.874 -3.90107 2.03726 0
M  V30 8620 H 804.993 -0.574794 0.461282 0
M  V30 8621 H 807.635 -0.951519 1.64457 0
M  V30 8622 H 805.785 -3.42553 1.83275 0
M  V30 8623 H 807.457 -2.12414 4.09485 0
M  V30 8624 H 805.7 -1.93565 3.88221 0
M  V30 8625 H 806.371 -3.52866 4.24488 0
M  V30 8626 H 808.847 -3.45459 2.31942 0
M  V30 8627 H 807.723 -4.78976 2.68092 0
M  V30 8628 H 807.984 -4.30329 1.01337 0
M  V30 8629 N 807.043 -1.17915 -1.04565 0
M  V30 8630 C 808.268 -0.996749 -1.81878 0
M  V30 8631 C 808.693 0.450169 -1.82634 0
M  V30 8632 O 808.051 1.32268 -1.23995 0
M  V30 8633 C 808.099 -1.55005 -3.25585 0
M  V30 8634 O 807.203 -0.76804 -4.05185 0
M  V30 8635 H 806.544 -0.353456 -0.562108 0
M  V30 8636 H 809.074 -1.56557 -1.31723 0
M  V30 8637 H 809.084 -1.57503 -3.76373 0
M  V30 8638 H 807.759 -2.60327 -3.2435 0
M  V30 8639 H 806.336 -0.81498 -3.63885 0
M  V30 8640 N 808.521 1.23394 -0.980386 0
M  V30 8641 C 809.798 1.87242 -0.565667 0
M  V30 8642 C 810.178 1.88151 0.957197 0
M  V30 8643 O 809.526 1.36309 1.8339 0
M  V30 8644 C 809.736 3.28743 -1.17172 0
M  V30 8645 C 811.084 4.05335 -1.26446 0
M  V30 8646 O 812.108 3.37962 -1.12517 0
M  V30 8647 O 810.967 5.25908 -1.48604 0
M  V30 8648 H 808.061 0.80477 -0.190459 0
M  V30 8649 H 810.607 1.3127 -1.07547 0
M  V30 8650 H 809.379 3.22647 -2.21392 0
M  V30 8651 H 809.002 3.92305 -0.646739 0
M  V30 8652 N 809.999 0.752036 1.385 0
M  V30 8653 C 811.41 0.375385 1.82887 0
M  V30 8654 C 811.761 -1.09575 1.62751 0
M  V30 8655 O 810.886 -1.84685 1.12785 0
M  V30 8656 C 811.481 0.674563 3.32017 0
M  V30 8657 C 810.04 0.351208 3.74758 0
M  V30 8658 C 809.187 0.928531 2.61292 0
M  V30 8659 H 812.138 0.948313 1.27251 0
M  V30 8660 H 812.159 -0.0477781 3.8047 0
M  V30 8661 H 811.671 1.74533 3.46641 0
M  V30 8662 H 809.772 -0.713042 3.65714 0
M  V30 8663 H 809.885 0.845675 4.71577 0
M  V30 8664 H 808.249 0.354012 2.52228 0
M  V30 8665 H 809.032 2.0043 2.78716 0
M  V30 8666 N 811.477 -1.49425 0.500989 0
M  V30 8667 C 812.723 -2.02753 -0.0436 0
M  V30 8668 C 813.056 -1.37991 -1.36646 0
M  V30 8669 O 812.331 -0.515597 -1.87542 0
M  V30 8670 C 812.614 -3.59565 -0.19616 0
M  V30 8671 C 812.467 -4.34855 1.14982 0
M  V30 8672 C 813.786 -4.30014 -0.936795 0
M  V30 8673 H 810.905 -0.73686 -0.0143711 0
M  V30 8674 H 813.547 -1.78448 0.652397 0
M  V30 8675 H 811.697 -3.80405 -0.788959 0
M  V30 8676 H 813.369 -4.25512 1.7815 0
M  V30 8677 H 811.612 -3.97414 1.73911 0
M  V30 8678 H 812.283 -5.42933 0.996385 0
M  V30 8679 H 814.759 -4.1383 -0.434036 0
M  V30 8680 H 813.635 -5.39483 -1.01238 0
M  V30 8681 H 813.896 -3.95257 -1.9805 0
M  V30 8682 N 812.955 -0.234822 -1.55841 0
M  V30 8683 C 814.201 0.393843 -1.98939 0
M  V30 8684 C 814.534 1.58466 -1.1226 0
M  V30 8685 O 813.809 1.93635 -0.183242 0
M  V30 8686 C 814.092 0.815492 -3.50745 0
M  V30 8687 C 813.945 -0.379878 -4.48193 0
M  V30 8688 C 815.264 1.66687 -4.07312 0
M  V30 8689 H 812.383 0.141681 -0.723253 0
M  V30 8690 H 815.025 -0.333716 -1.87046 0
M  V30 8691 H 813.175 1.43541 -3.6101 0
M  V30 8692 H 814.847 -1.0182 -4.49923 0
M  V30 8693 H 813.09 -1.02507 -4.21515 0
M  V30 8694 H 813.761 -0.0417069 -5.51984 0
M  V30 8695 H 816.237 1.14369 -4.00074 0
M  V30 8696 H 815.113 1.93078 -5.13821 0
M  V30 8697 H 815.374 2.63468 -3.55017 0
M  V30 8698 N 814.433 1.57553 0.0384317 0
M  V30 8699 C 815.658 1.93485 0.746872 0
M  V30 8700 C 816.083 0.834069 1.68597 0
M  V30 8701 O 815.441 -0.210902 1.80069 0
M  V30 8702 C 815.489 3.28463 1.4881 0
M  V30 8703 O 814.593 3.20051 2.60079 0
M  V30 8704 H 813.934 0.632675 0.201539 0
M  V30 8705 H 816.464 2.046 -0.00329815 0
M  V30 8706 H 816.474 3.63132 1.86009 0
M  V30 8707 H 815.149 4.08147 0.799297 0
M  V30 8708 H 813.726 2.96998 2.25492 0
M  V30 8709 N 815.911 -0.310526 1.54511 0
M  V30 8710 C 817.141 -1.06456 1.77061 0
M  V30 8711 C 817.549 -1.81755 0.525528 0
M  V30 8712 O 816.892 -1.76365 -0.513904 0
M  V30 8713 C 816.954 -2.09856 2.91892 0
M  V30 8714 C 816.618 -1.53838 4.30329 0
M  V30 8715 C 817.615 -0.973358 5.10707 0
M  V30 8716 C 815.3 -1.57688 4.76906 0
M  V30 8717 C 817.294 -0.454283 6.35779 0
M  V30 8718 C 814.981 -1.05393 6.01943 0
M  V30 8719 C 815.979 -0.493595 6.81214 0
M  V30 8720 O 815.667 0.0214506 8.03897 0
M  V30 8721 H 815.399 -0.321913 0.594431 0
M  V30 8722 H 817.953 -0.358289 2.02251 0
M  V30 8723 H 816.183 -2.84137 2.62304 0
M  V30 8724 H 817.872 -2.71085 3.02106 0
M  V30 8725 H 818.638 -0.936588 4.75871 0
M  V30 8726 H 814.517 -2.00242 4.1524 0
M  V30 8727 H 818.061 -0.0162657 6.97598 0
M  V30 8728 H 813.958 -1.08782 6.36268 0
M  V30 8729 H 814.726 -0.0927478 8.18447 0
M  V30 8730 N 817.389 -1.46805 -0.573248 0
M  V30 8731 C 818.805 -1.31969 -0.897577 0
M  V30 8732 C 819.005 -0.298171 -1.99282 0
M  V30 8733 O 818.061 0.295953 -2.5076 0
M  V30 8734 C 819.374 -2.70859 -1.30598 0
M  V30 8735 C 820.922 -2.79022 -1.4183 0
M  V30 8736 C 821.397 -4.18516 -1.86033 0
M  V30 8737 N 822.888 -4.2098 -1.9321 0
M  V30 8738 C 823.623 -5.25814 -2.28707 0
M  V30 8739 N 823.119 -6.40968 -2.6293 0
M  V30 8740 N 824.912 -5.13184 -2.29343 0
M  V30 8741 H 817.063 -2.11869 0.150094 0
M  V30 8742 H 819.326 -0.947989 0.00447895 0
M  V30 8743 H 819.032 -3.46965 -0.575161 0
M  V30 8744 H 818.906 -3.01585 -2.26554 0
M  V30 8745 H 821.293 -2.03198 -2.13996 0
M  V30 8746 H 821.374 -2.51969 -0.441024 0
M  V30 8747 H 821.018 -4.94839 -1.14442 0
M  V30 8748 H 820.948 -4.42982 -2.84735 0
M  V30 8749 H 823.439 -3.37898 -1.69214 0
M  V30 8750 H 823.752 -7.16729 -2.88996 0
M  V30 8751 H 822.097 -6.44314 -2.60547 0
M  V30 8752 H 825.288 -4.22255 -2.02036 0
M  V30 8753 H 825.461 -5.94996 -2.56679 0
M  V30 8754 N 818.867 0.818669 -1.34668 0
M  V30 8755 C 819.777 1.9616 -1.2868 0
M  V30 8756 C 820.793 1.72918 -0.193742 0
M  V30 8757 O 821.969 1.96951 -0.420975 0
M  V30 8758 C 819.034 3.30534 -1.04633 0
M  V30 8759 C 818.095 3.66755 -2.23136 0
M  V30 8760 C 817.328 4.94717 -2.00227 0
M  V30 8761 O 817.551 5.62218 -0.96264 0
M  V30 8762 O 816.485 5.28915 -2.87286 0
M  V30 8763 H 820.311 2.04157 -2.24842 0
M  V30 8764 H 817.896 0.954691 -1.14917 0
M  V30 8765 H 819.778 4.11005 -0.930216 0
M  V30 8766 H 818.453 3.23495 -0.115139 0
M  V30 8767 H 817.36 2.8671 -2.40308 0
M  V30 8768 H 818.693 3.78484 -3.1466 0
M  V30 8769 N 820.346 1.18468 1.03938 0
M  V30 8770 C 821.574 1.00576 1.80809 0
M  V30 8771 C 821.989 -0.445786 1.83462 0
M  V30 8772 O 821.346 -1.30964 1.27101 0
M  V30 8773 C 821.397 1.55491 3.26351 0
M  V30 8774 O 821.118 2.94963 3.23926 0
M  V30 8775 C 822.619 1.42236 4.19862 0
M  V30 8776 H 819.839 0.35508 0.56935 0
M  V30 8777 H 822.383 1.57046 1.30984 0
M  V30 8778 H 820.538 1.03195 3.73403 0
M  V30 8779 H 820.952 3.20598 4.15111 0
M  V30 8780 H 822.426 1.85455 5.19914 0
M  V30 8781 H 822.903 0.371267 4.37628 0
M  V30 8782 H 823.509 1.9361 3.78675 0
M  V30 8783 N 821.824 -1.22873 0.986916 0
M  V30 8784 C 823.07 -1.91746 0.660401 0
M  V30 8785 C 823.403 -1.76738 -0.804812 0
M  V30 8786 O 822.678 -1.13246 -1.58131 0
M  V30 8787 C 822.961 -3.44156 1.05966 0
M  V30 8788 C 822.814 -3.68242 2.58298 0
M  V30 8789 C 824.133 -4.35874 0.60842 0
M  V30 8790 H 821.252 -0.696347 0.241391 0
M  V30 8791 H 823.894 -1.44867 1.22937 0
M  V30 8792 H 822.044 -3.84213 0.575534 0
M  V30 8793 H 823.716 -3.37626 3.14335 0
M  V30 8794 H 821.959 -3.12728 3.00638 0
M  V30 8795 H 822.63 -4.74956 2.81285 0
M  V30 8796 H 825.106 -4.03299 1.02417 0
M  V30 8797 H 823.982 -5.41201 0.916142 0
M  V30 8798 H 824.243 -4.39364 -0.491086 0
M  V30 8799 N 823.302 -0.75937 -1.38099 0
M  V30 8800 C 824.53 -0.329111 -2.04266 0
M  V30 8801 C 824.945 1.04453 -1.57274 0
M  V30 8802 O 824.302 1.66449 -0.748397 0
M  V30 8803 C 824.353 -0.349192 -3.5981 0
M  V30 8804 O 824.074 -1.66863 -4.05078 0
M  V30 8805 C 825.575 0.0942106 -4.432 0
M  V30 8806 H 822.795 -0.13971 -0.656294 0
M  V30 8807 H 825.339 -1.02984 -1.76677 0
M  V30 8808 H 823.494 0.302846 -3.86214 0
M  V30 8809 H 823.908 -1.59877 -4.9954 0
M  V30 8810 H 825.382 0.0290004 -5.51992 0
M  V30 8811 H 825.859 1.1429 -4.24069 0
M  V30 8812 H 826.465 -0.529171 -4.21995 0
M  V30 8813 N 824.78 1.49157 -0.508906 0
M  V30 8814 C 825.69 2.33045 0.269656 0
M  V30 8815 C 826.706 1.45143 0.959662 0
M  V30 8816 O 827.882 1.78155 0.939295 0
M  V30 8817 C 824.947 3.20772 1.31554 0
M  V30 8818 C 824.008 4.24531 0.638131 0
M  V30 8819 C 823.241 5.08065 1.63418 0
M  V30 8820 O 823.464 4.93238 2.86483 0
M  V30 8821 O 822.398 5.90117 1.18516 0
M  V30 8822 H 826.224 3.00821 -0.417183 0
M  V30 8823 H 823.809 1.46938 -0.270119 0
M  V30 8824 H 825.691 3.75095 1.92047 0
M  V30 8825 H 824.366 2.55681 1.98516 0
M  V30 8826 H 823.273 3.74099 -0.00674357 0
M  V30 8827 H 824.606 4.92199 0.0108155 0
M  V30 8828 N 826.258 0.243083 1.55714 0
M  V30 8829 C 827.168 -0.668913 2.24862 0
M  V30 8830 C 828.184 -1.19638 1.26344 0
M  V30 8831 O 829.36 -1.23345 1.5921 0
M  V30 8832 C 826.425 -1.85084 2.93163 0
M  V30 8833 C 825.486 -1.36323 4.07081 0
M  V30 8834 C 824.719 -2.48882 4.72116 0
M  V30 8835 O 824.942 -3.67523 4.36214 0
M  V30 8836 O 823.876 -2.18857 5.60701 0
M  V30 8837 H 827.702 -0.109737 3.03502 0
M  V30 8838 H 825.287 0.0117411 1.49395 0
M  V30 8839 H 827.169 -2.54065 3.36197 0
M  V30 8840 H 825.844 -2.39771 2.17466 0
M  V30 8841 H 824.751 -0.640804 3.68571 0
M  V30 8842 H 826.084 -0.86249 4.84584 0
M  V30 8843 N 827.736 -1.57571 -0.0300757 0
M  V30 8844 C 828.961 -1.93879 -0.736601 0
M  V30 8845 C 829.386 -0.842998 -1.68152 0
M  V30 8846 O 828.744 0.20135 -1.80178 0
M  V30 8847 C 828.792 -3.29247 -1.47066 0
M  V30 8848 O 827.896 -3.21426 -2.58378 0
M  V30 8849 H 827.237 -0.633735 -0.198181 0
M  V30 8850 H 829.767 -2.04595 0.0141485 0
M  V30 8851 H 829.777 -3.64113 -1.84081 0
M  V30 8852 H 828.452 -4.08565 -0.77764 0
M  V30 8853 H 827.029 -2.98189 -2.23914 0
M  V30 8854 N 829.214 0.302327 -1.54673 0
M  V30 8855 C 830.442 1.05669 -1.77881 0
M  V30 8856 C 830.857 1.80983 -0.537648 0
M  V30 8857 O 830.214 1.7573 0.492467 0
M  V30 8858 C 830.265 2.03828 -2.98557 0
M  V30 8859 O 829.986 1.3157 -4.17877 0
M  V30 8860 C 831.487 2.91314 -3.34143 0
M  V30 8861 H 828.707 0.313436 -0.593295 0
M  V30 8862 H 831.251 0.342003 -2.0162 0
M  V30 8863 H 829.406 2.70801 -2.7703 0
M  V30 8864 H 829.82 1.97481 -4.85903 0
M  V30 8865 H 831.294 3.56042 -4.21827 0
M  V30 8866 H 831.771 3.59544 -2.52239 0
M  V30 8867 H 832.377 2.29874 -3.57824 0
M  V30 8868 N 830.692 1.47107 0.565454 0
M  V30 8869 C 831.941 1.5257 1.31929 0
M  V30 8870 C 832.254 0.189092 1.94684 0
M  V30 8871 O 833.46 0.121657 2.71227 0
M  V30 8872 C 831.916 2.68914 2.39193 0
M  V30 8873 C 831.524 4.09069 1.82665 0
M  V30 8874 C 833.268 2.83663 3.1581 0
M  V30 8875 C 831.175 5.16726 2.87661 0
M  V30 8876 H 830.105 0.567869 0.496025 0
M  V30 8877 H 832.756 1.73361 0.60151 0
M  V30 8878 H 831.138 2.41486 3.13848 0
M  V30 8879 H 832.312 4.46364 1.14438 0
M  V30 8880 H 830.627 3.99135 1.1866 0
M  V30 8881 H 833.224 3.61261 3.94201 0
M  V30 8882 H 833.567 1.91804 3.69482 0
M  V30 8883 H 834.1 3.10821 2.48265 0
M  V30 8884 H 830.839 6.10433 2.38854 0
M  V30 8885 H 830.359 4.83957 3.54324 0
M  V30 8886 H 832.038 5.43319 3.51303 0
M  V30 8887 N 832.17 -0.811516 1.35101 0
M  V30 8888 C 833.398 -1.59981 1.31201 0
M  V30 8889 C 833.813 -1.8847 -0.111552 0
M  V30 8890 O 833.17 -1.48414 -1.06205 0
M  V30 8891 C 833.221 -2.934 2.11184 0
M  V30 8892 O 832.942 -2.66148 3.4799 0
M  V30 8893 C 834.443 -3.87776 2.14813 0
M  V30 8894 H 831.663 -0.496921 0.450899 0
M  V30 8895 H 834.207 -1.00886 1.77883 0
M  V30 8896 H 832.362 -3.49022 1.68115 0
M  V30 8897 H 832.776 -3.51301 3.89471 0
M  V30 8898 H 834.25 -4.7852 2.75178 0
M  V30 8899 H 834.727 -4.23997 1.14556 0
M  V30 8900 H 835.333 -3.3809 2.58022 0
M  V30 8901 N 833.648 -1.19017 -1.03309 0
M  V30 8902 C 834.888 -1.00129 -1.78195 0
M  V30 8903 C 835.252 0.460236 -1.86402 0
M  V30 8904 O 836.453 0.768802 -2.57571 0
M  V30 8905 C 834.724 -1.64703 -3.17187 0
M  V30 8906 S 836.283 -1.60695 -4.08317 0
M  V30 8907 H 833.101 -0.359395 -0.613479 0
M  V30 8908 H 835.703 -1.51293 -1.23818 0
M  V30 8909 H 834.407 -2.70283 -3.08829 0
M  V30 8910 H 833.938 -1.136 -3.76641 0
M  V30 8911 H 835.953 -0.628171 -4.92208 0
M  V30 8912 N 835.127 1.22348 -0.993418 0
M  V30 8913 C 836.057 2.26584 -0.564088 0
M  V30 8914 C 837.038 1.65102 0.409298 0
M  V30 8915 O 838.223 1.91872 0.299819 0
M  V30 8916 C 835.353 3.47087 0.121554 0
M  V30 8917 C 834.307 4.21009 -0.770429 0
M  V30 8918 C 833.633 5.34678 0.0481586 0
M  V30 8919 C 834.933 4.79636 -2.06752 0
M  V30 8920 H 836.627 2.62749 -1.43538 0
M  V30 8921 H 834.173 1.26303 -0.691628 0
M  V30 8922 H 836.126 4.19166 0.433303 0
M  V30 8923 H 834.85 3.1002 1.0274 0
M  V30 8924 H 833.509 3.50764 -1.06583 0
M  V30 8925 H 833.157 4.93852 0.954933 0
M  V30 8926 H 832.857 5.85061 -0.545641 0
M  V30 8927 H 834.381 6.09573 0.353991 0
M  V30 8928 H 835.795 5.43654 -1.81969 0
M  V30 8929 H 834.192 5.4036 -2.61019 0
M  V30 8930 H 835.262 3.99659 -2.74592 0
M  V30 8931 N 836.605 0.766683 1.37694 0
M  V30 8932 C 837.853 0.328065 1.9942 0
M  V30 8933 C 838.174 -1.09775 1.61166 0
M  V30 8934 O 837.444 -1.75288 0.874686 0
M  V30 8935 H 836.024 0.11831 0.737572 0
M  V30 8936 H 838.686 0.983686 1.68255 0
M  V30 8937 H 837.782 0.401647 3.09505 0
M  V30 8938 N 838.083 -1.48885 0.516809 0
M  V30 8939 C 839.03 -2.29408 -0.253125 0
M  V30 8940 C 840 -1.36533 -0.945935 0
M  V30 8941 O 841.185 -1.65495 -0.949527 0
M  V30 8942 C 838.325 -3.19592 -1.30211 0
M  V30 8943 C 837.438 -4.27535 -0.61948 0
M  V30 8944 C 836.573 -5.04916 -1.65026 0
M  V30 8945 C 835.612 -6.04677 -0.950368 0
M  V30 8946 N 834.749 -6.75164 -1.92608 0
M  V30 8947 H 839.589 -2.94738 0.439744 0
M  V30 8948 H 837.126 -1.45311 0.2287 0
M  V30 8949 H 839.084 -3.70267 -1.92245 0
M  V30 8950 H 837.714 -2.56213 -1.96353 0
M  V30 8951 H 836.766 -3.80228 0.114505 0
M  V30 8952 H 838.078 -4.98752 -0.0693016 0
M  V30 8953 H 837.232 -5.59539 -2.34523 0
M  V30 8954 H 835.971 -4.33508 -2.23432 0
M  V30 8955 H 834.976 -5.4927 -0.241252 0
M  V30 8956 H 836.201 -6.78077 -0.372599 0
M  V30 8957 H 834.147 -6.06517 -2.49946 0
M  V30 8958 H 834.064 -7.4241 -1.42699 0
M  V30 8959 H 835.332 -7.34384 -2.61345 0
M  V30 8960 N 839.561 -0.251338 -1.55583 0
M  V30 8961 C 840.786 0.379136 -2.03905 0
M  V30 8962 C 841.211 1.50428 -1.12929 0
M  V30 8963 O 840.569 1.80882 -0.123114 0
M  V30 8964 C 840.617 0.86009 -3.50193 0
M  V30 8965 O 839.721 1.96932 -3.62342 0
M  V30 8966 H 839.062 0.0820183 -0.658915 0
M  V30 8967 H 841.592 -0.378692 -2.01065 0
M  V30 8968 H 841.602 1.16214 -3.91099 0
M  V30 8969 H 840.277 0.0367559 -4.15884 0
M  V30 8970 H 838.854 1.67163 -3.33333 0
M  V30 8971 N 841.039 1.57585 0.0217189 0
M  V30 8972 C 842.45 1.7787 0.567377 0
M  V30 8973 C 842.801 0.883337 1.7519 0
M  V30 8974 O 841.926 0.0800819 2.16252 0
M  V30 8975 C 842.521 3.2257 1.03606 0
M  V30 8976 C 841.08 3.44026 1.52718 0
M  V30 8977 C 840.227 2.73313 0.468545 0
M  V30 8978 H 843.178 1.57377 -0.2045 0
M  V30 8979 H 843.199 3.29488 1.9031 0
M  V30 8980 H 842.711 3.87711 0.173739 0
M  V30 8981 H 840.812 2.8407 2.41111 0
M  V30 8982 H 840.925 4.52659 1.56962 0
M  V30 8983 H 839.289 2.37299 0.925263 0
M  V30 8984 H 840.072 3.41141 -0.384438 0
M  V30 8985 N 842.517 -0.29412 1.54831 0
M  V30 8986 C 843.465 -1.38296 1.87021 0
M  V30 8987 C 844.459 -1.5216 0.744557 0
M  V30 8988 O 845.665 -1.54196 0.92864 0
M  V30 8989 H 842.04 -0.462088 0.593278 0
M  V30 8990 H 844.011 -1.08386 2.7802 0
M  V30 8991 C 842.76 -2.74024 2.14023 0
M  V30 8992 H 842.083 -2.6414 3.00117 0
M  V30 8993 H 843.523 -3.49205 2.40482 0
M  V30 8994 C 841.982 -3.23492 0.940982 0
M  V30 8995 O 842.512 -4.01361 0.164937 0
M  V30 8996 N 840.718 -2.80902 0.744467 0
M  V30 8997 H 840.265 -2.17694 1.37721 0
M  V30 8998 H 840.223 -3.14349 -0.0563652 0
M  V30 8999 N 843.995 -1.47404 -0.557645 0
M  V30 9000 C 844.942 -1.59859 -1.66475 0
M  V30 9001 C 845.912 -0.441644 -1.60121 0
M  V30 9002 O 847.097 -0.661641 -1.78961 0
M  V30 9003 C 844.237 -1.61843 -3.04797 0
M  V30 9004 C 843.35 -2.8845 -3.2159 0
M  V30 9005 C 842.485 -2.81773 -4.50308 0
M  V30 9006 C 841.524 -4.03208 -4.60532 0
M  V30 9007 N 840.661 -3.94769 -5.80604 0
M  V30 9008 H 845.501 -2.54415 -1.55168 0
M  V30 9009 H 843.038 -1.26194 -0.755876 0
M  V30 9010 H 844.996 -1.60976 -3.84893 0
M  V30 9011 H 843.626 -0.707997 -3.1494 0
M  V30 9012 H 842.678 -2.99186 -2.34929 0
M  V30 9013 H 843.99 -3.78379 -3.25009 0
M  V30 9014 H 843.144 -2.79153 -5.38663 0
M  V30 9015 H 841.883 -1.89527 -4.49367 0
M  V30 9016 H 840.888 -4.06133 -3.70589 0
M  V30 9017 H 842.113 -4.9658 -4.63233 0
M  V30 9018 H 840.059 -3.05326 -5.80613 0
M  V30 9019 H 839.976 -4.78375 -5.854 0
M  V30 9020 H 841.244 -3.96165 -6.71322 0
M  V30 9021 N 845.473 0.80434 -1.35529 0
M  V30 9022 C 846.423 1.90565 -1.25175 0
M  V30 9023 C 847.407 1.60232 -0.146512 0
M  V30 9024 O 848.599 1.72918 -0.377943 0
M  V30 9025 C 845.728 3.2754 -1.02823 0
M  V30 9026 C 844.814 3.63932 -2.17748 0
M  V30 9027 N 845.205 3.71744 -3.42986 0
M  V30 9028 C 843.503 3.93901 -2.09184 0
M  V30 9029 C 844.204 4.03944 -4.18574 0
M  V30 9030 N 843.18 4.18146 -3.47355 0
M  V30 9031 H 846.982 1.9481 -2.20059 0
M  V30 9032 H 844.496 0.99905 -1.28034 0
M  V30 9033 H 846.493 4.06281 -0.934941 0
M  V30 9034 H 845.153 3.2458 -0.0882551 0
M  V30 9035 H 846.164 3.54765 -3.77309 0
M  V30 9036 H 842.841 3.98954 -1.23054 0
M  V30 9037 H 844.231 4.17036 -5.26811 0
M  V30 9038 N 846.951 1.19563 1.02676 0
M  V30 9039 C 847.899 0.931942 2.13114 0
M  V30 9040 C 848.893 -0.113007 1.69023 0
M  V30 9041 O 850.099 0.0364298 1.79963 0
M  V30 9042 H 846.474 0.283981 0.696318 0
M  V30 9043 H 848.445 1.86991 2.32545 0
M  V30 9044 C 847.194 0.489461 3.44238 0
M  V30 9045 H 846.517 1.28508 3.78584 0
M  V30 9046 H 847.957 0.34408 4.22602 0
M  V30 9047 C 846.416 -0.796761 3.27343 0
M  V30 9048 O 846.946 -1.85767 3.56165 0
M  V30 9049 N 845.152 -0.754824 2.80626 0
M  V30 9050 H 844.699 0.108778 2.5737 0
M  V30 9051 H 844.657 -1.6158 2.69702 0
M  V30 9052 N 848.429 -1.21819 0.999893 0
M  V30 9053 C 849.845 -1.42847 0.711824 0
M  V30 9054 C 850.045 -1.88391 -0.714928 0
M  V30 9055 O 849.101 -2.0422 -1.48494 0
M  V30 9056 C 850.414 -2.46417 1.72334 0
M  V30 9057 C 851.962 -2.60207 1.73958 0
M  V30 9058 C 852.437 -3.67005 2.73992 0
M  V30 9059 N 853.928 -3.7447 2.72628 0
M  V30 9060 C 854.663 -4.56718 3.46693 0
M  V30 9061 N 854.159 -5.42904 4.3038 0
M  V30 9062 N 855.952 -4.51094 3.35366 0
M  V30 9063 H 848.103 -0.905656 1.92124 0
M  V30 9064 H 850.366 -0.459893 0.828977 0
M  V30 9065 H 850.072 -2.19914 2.74465 0
M  V30 9066 H 849.946 -3.45137 1.52186 0
M  V30 9067 H 852.333 -2.8605 0.725217 0
M  V30 9068 H 852.414 -1.61739 1.98177 0
M  V30 9069 H 852.058 -3.41908 3.75582 0
M  V30 9070 H 851.988 -4.65058 2.4704 0
M  V30 9071 H 854.479 -3.12895 2.11909 0
M  V30 9072 H 854.792 -6.02704 4.83702 0
M  V30 9073 H 853.137 -5.42463 4.34464 0
M  V30 9074 H 856.328 -3.82791 2.69423 0
M  V30 9075 H 856.501 -5.1496 3.93344 0
M  V30 9076 N 849.908 -0.773975 -1.37286 0
M  V30 9077 C 850.838 -0.175782 -2.32837 0
M  V30 9078 C 851.819 0.680603 -1.5589 0
M  V30 9079 O 853.004 0.617607 -1.84117 0
M  V30 9080 C 850.134 0.702388 -3.40123 0
M  V30 9081 C 849.088 -0.0528687 -4.27967 0
M  V30 9082 C 848.414 0.944891 -5.26285 0
M  V30 9083 C 849.714 -1.23316 -5.07534 0
M  V30 9084 H 851.408 -0.974016 -2.83114 0
M  V30 9085 H 848.954 -0.469826 -1.3612 0
M  V30 9086 H 850.907 1.13069 -4.05947 0
M  V30 9087 H 849.631 1.53316 -2.88378 0
M  V30 9088 H 848.29 -0.461978 -3.63678 0
M  V30 9089 H 847.938 1.77028 -4.70819 0
M  V30 9090 H 847.638 0.444079 -5.8592 0
M  V30 9091 H 849.162 1.37209 -5.94984 0
M  V30 9092 H 850.576 -0.881395 -5.66484 0
M  V30 9093 H 848.973 -1.66621 -5.76504 0
M  V30 9094 H 850.043 -2.03617 -4.40077 0
M  V30 9095 N 851.386 1.48609 -0.524698 0
M  V30 9096 C 852.633 2.02497 0.0113214 0
M  V30 9097 C 852.961 1.40229 1.34781 0
M  V30 9098 O 852.216 0.53557 1.88229 0
M  V30 9099 C 852.515 3.56906 0.187873 0
M  V30 9100 C 852.181 4.37932 -1.07359 0
M  V30 9101 C 850.843 4.59792 -1.41933 0
M  V30 9102 C 853.195 4.84902 -1.911 0
M  V30 9103 C 850.523 5.25868 -2.60154 0
M  V30 9104 C 852.875 5.52281 -3.08495 0
M  V30 9105 C 851.539 5.7238 -3.4342 0
M  V30 9106 H 850.809 0.740988 0.0041428 0
M  V30 9107 H 853.456 1.78651 -0.689652 0
M  V30 9108 H 851.761 3.79563 0.971572 0
M  V30 9109 H 853.458 3.96218 0.617443 0
M  V30 9110 H 850.048 4.21175 -0.794331 0
M  V30 9111 H 854.232 4.67821 -1.65701 0
M  V30 9112 H 849.488 5.39628 -2.87422 0
M  V30 9113 H 853.662 5.87645 -3.73692 0
M  V30 9114 H 851.289 6.23354 -4.35126 0
M  V30 9115 N 852.864 0.259585 1.55447 0
M  V30 9116 C 853.797 -0.675542 2.17972 0
M  V30 9117 C 854.775 -1.16362 1.13572 0
M  V30 9118 O 855.959 -1.23944 1.42021 0
M  V30 9119 C 853.086 -1.91952 2.79056 0
M  V30 9120 C 852.132 -1.56824 3.96621 0
M  V30 9121 S 852.965 -0.659846 5.31419 0
M  V30 9122 C 854.121 -1.91255 5.95963 0
M  V30 9123 H 854.354 -0.144236 2.9695 0
M  V30 9124 H 851.887 0.0439448 1.54337 0
M  V30 9125 H 853.845 -2.63362 3.14882 0
M  V30 9126 H 852.506 -2.42196 2 0
M  V30 9127 H 851.699 -2.49348 4.37997 0
M  V30 9128 H 851.301 -0.934472 3.62138 0
M  V30 9129 H 853.593 -2.85834 6.14252 0
M  V30 9130 H 854.536 -1.54207 6.91105 0
M  V30 9131 H 854.944 -2.07042 5.25161 0
M  V30 9132 N 854.342 -1.57594 -0.0133615 0
M  V30 9133 C 855.289 -2.07574 -1.00905 0
M  V30 9134 C 856.259 -0.968231 -1.34961 0
M  V30 9135 O 857.444 -1.23981 -1.45028 0
M  V30 9136 C 854.584 -2.5728 -2.30002 0
M  V30 9137 C 853.697 -3.81881 -2.01967 0
M  V30 9138 C 852.832 -4.20139 -3.25049 0
M  V30 9139 C 851.871 -5.37614 -2.92639 0
M  V30 9140 N 851.008 -5.71229 -4.08218 0
M  V30 9141 H 855.848 -2.92382 -0.575899 0
M  V30 9142 H 853.385 -1.4455 -0.272722 0
M  V30 9143 H 855.343 -2.84171 -3.05454 0
M  V30 9144 H 853.973 -1.75365 -2.71011 0
M  V30 9145 H 853.025 -3.61979 -1.16942 0
M  V30 9146 H 854.337 -4.67441 -1.74069 0
M  V30 9147 H 853.491 -4.48242 -4.08857 0
M  V30 9148 H 852.23 -3.33262 -3.56073 0
M  V30 9149 H 851.235 -5.09248 -2.07235 0
M  V30 9150 H 852.46 -6.26157 -2.62876 0
M  V30 9151 H 850.406 -4.8731 -4.39164 0
M  V30 9152 H 850.323 -6.51333 -3.83799 0
M  V30 9153 H 851.591 -6.03917 -4.92854 0
M  V30 9154 N 855.82 0.285905 -1.54985 0
M  V30 9155 C 856.783 1.33625 -1.86218 0
M  V30 9156 C 857.783 1.42971 -0.735936 0
M  V30 9157 O 858.973 1.42345 -1.00417 0
M  V30 9158 C 856.105 2.71926 -2.05595 0
M  V30 9159 H 857.298 1.07167 -2.80099 0
M  V30 9160 H 854.851 0.523335 -1.47278 0
M  V30 9161 H 855.586 3.03583 -1.14053 0
M  V30 9162 H 855.371 2.6653 -2.87583 0
M  V30 9163 H 856.861 3.47841 -2.31077 0
M  V30 9164 N 857.298 1.47698 0.54982 0
M  V30 9165 C 858.528 1.58101 1.32995 0
M  V30 9166 C 858.936 0.232939 1.87761 0
M  V30 9167 O 858.279 -0.785058 1.6608 0
M  V30 9168 C 858.341 2.55228 2.53178 0
M  V30 9169 C 858.005 4.00756 2.19645 0
M  V30 9170 C 859.002 4.89025 1.76496 0
M  V30 9171 C 856.687 4.46147 2.30777 0
M  V30 9172 C 858.681 6.20707 1.44919 0
M  V30 9173 C 856.368 5.77856 1.98812 0
M  V30 9174 C 857.366 6.64957 1.55952 0
M  V30 9175 O 857.054 7.94217 1.24396 0
M  V30 9176 H 856.786 0.536362 0.411451 0
M  V30 9177 H 859.34 1.94092 0.67212 0
M  V30 9178 H 857.57 2.14319 3.21876 0
M  V30 9179 H 859.259 2.55678 3.15251 0
M  V30 9180 H 860.025 4.55201 1.67383 0
M  V30 9181 H 855.904 3.78552 2.63096 0
M  V30 9182 H 859.448 6.88649 1.11392 0
M  V30 9183 H 855.345 6.11219 2.0756 0
M  V30 9184 H 856.113 8.06789 1.37964 0
M  V30 9185 N 858.776 -0.797141 1.35954 0
M  V30 9186 C 860.187 -1.37179 1.26644 0
M  V30 9187 C 860.538 -1.9596 -0.0971046 0
M  V30 9188 O 859.663 -1.91994 -0.998355 0
M  V30 9189 C 860.258 -2.49395 2.2932 0
M  V30 9190 C 858.817 -3.02697 2.23722 0
M  V30 9191 C 857.964 -1.75721 2.14517 0
M  V30 9192 H 860.915 -0.599407 1.46945 0
M  V30 9193 H 860.936 -3.28204 1.92515 0
M  V30 9194 H 860.448 -2.06584 3.2855 0
M  V30 9195 H 858.549 -3.49948 1.27934 0
M  V30 9196 H 858.662 -3.60036 3.16087 0
M  V30 9197 H 857.026 -1.97649 1.60646 0
M  V30 9198 H 857.809 -1.35049 3.15621 0
M  V30 9199 N 860.254 -1.20106 -1.0204 0
M  V30 9200 C 861.184 -0.970301 -2.12385 0
M  V30 9201 C 862.165 0.099378 -1.69809 0
M  V30 9202 O 863.35 -0.057365 -1.94115 0
M  V30 9203 C 860.48 -0.517431 -3.43424 0
M  V30 9204 C 859.434 -1.52992 -3.99722 0
M  V30 9205 C 858.76 -0.933817 -5.26483 0
M  V30 9206 C 860.06 -2.91257 -4.33551 0
M  V30 9207 H 861.754 -1.89316 -2.31948 0
M  V30 9208 H 859.3 -0.911655 -1.11467 0
M  V30 9209 H 861.253 -0.343243 -4.2 0
M  V30 9210 H 859.977 0.441049 -3.23608 0
M  V30 9211 H 858.636 -1.6914 -3.2525 0
M  V30 9212 H 858.284 0.0324763 -5.0299 0
M  V30 9213 H 857.984 -1.60999 -5.65113 0
M  V30 9214 H 859.508 -0.770614 -6.05718 0
M  V30 9215 H 860.922 -2.78642 -5.0103 0
M  V30 9216 H 859.319 -3.55745 -4.83286 0
M  V30 9217 H 860.389 -3.43269 -3.42483 0
M  V30 9218 N 861.732 1.21287 -1.00634 0
M  V30 9219 C 862.695 2.21927 -0.572821 0
M  V30 9220 C 863.695 1.5691 0.351541 0
M  V30 9221 O 864.885 1.73623 0.141643 0
M  V30 9222 C 862.017 3.40501 0.164932 0
M  V30 9223 H 863.21 2.61795 -1.463 0
M  V30 9224 H 860.763 1.34571 -0.794998 0
M  V30 9225 H 861.498 3.06123 1.07049 0
M  V30 9226 H 861.283 3.88912 -0.498962 0
M  V30 9227 H 862.773 4.15103 0.455945 0
M  V30 9228 N 863.21 0.781244 1.36873 0
M  V30 9229 C 864.12 0.174981 2.33947 0
M  V30 9230 C 865.136 -0.668512 1.60645 0
M  V30 9231 O 866.312 -0.586213 1.9268 0
M  V30 9232 C 863.377 -0.686557 3.39834 0
M  V30 9233 C 862.438 0.174489 4.28945 0
M  V30 9234 C 861.671 -0.646024 5.29776 0
M  V30 9235 O 861.894 -1.88254 5.38439 0
M  V30 9236 O 860.828 -0.0502214 6.01879 0
M  V30 9237 H 864.654 0.977382 2.87543 0
M  V30 9238 H 862.239 0.542559 1.392 0
M  V30 9239 H 864.121 -1.1781 4.04597 0
M  V30 9240 H 862.796 -1.46699 2.8855 0
M  V30 9241 H 861.703 0.712604 3.6725 0
M  V30 9242 H 863.036 0.918232 4.83559 0
M  V30 9243 N 864.689 -1.48329 0.532571 0
M  V30 9244 C 865.937 -2.021 -0.000581206 0
M  V30 9245 C 866.258 -1.4117 -1.34522 0
M  V30 9246 O 865.528 -0.578005 -1.87179 0
M  V30 9247 H 864.108 -0.746993 -0.00320281 0
M  V30 9248 H 866.77 -1.82011 0.696991 0
M  V30 9249 H 865.866 -3.11917 -0.106991 0
M  V30 9250 N 866.167 -0.267825 -1.55308 0
M  V30 9251 C 867.097 0.616585 -2.25212 0
M  V30 9252 C 868.078 1.16472 -1.23969 0
M  V30 9253 O 869.263 1.20021 -1.52672 0
M  V30 9254 C 866.393 1.80412 -2.96764 0
M  V30 9255 C 865.347 1.38784 -4.04874 0
M  V30 9256 C 864.673 2.65789 -4.63961 0
M  V30 9257 C 865.973 0.543415 -5.19465 0
M  V30 9258 H 867.667 0.0336257 -2.99381 0
M  V30 9259 H 865.213 0.0147328 -1.43992 0
M  V30 9260 H 867.166 2.42866 -3.44375 0
M  V30 9261 H 865.89 2.4128 -2.20118 0
M  V30 9262 H 864.549 0.786541 -3.58063 0
M  V30 9263 H 864.197 3.24899 -3.83992 0
M  V30 9264 H 863.897 2.38651 -5.36954 0
M  V30 9265 H 865.421 3.29104 -5.14318 0
M  V30 9266 H 866.835 1.07277 -5.63174 0
M  V30 9267 H 865.232 0.367219 -5.98975 0
M  V30 9268 H 866.302 -0.439534 -4.82904 0
M  V30 9269 N 867.645 1.57599 0.00500368 0
M  V30 9270 C 869.056 1.78462 0.54848 0
M  V30 9271 C 869.407 0.901869 1.74243 0
M  V30 9272 O 868.532 0.103014 2.16155 0
M  V30 9273 C 869.127 3.2365 1.00179 0
M  V30 9274 C 867.686 3.45627 1.49061 0
M  V30 9275 C 866.833 2.73794 0.439531 0
M  V30 9276 H 869.784 1.57151 -0.22118 0
M  V30 9277 H 869.805 3.31488 1.86805 0
M  V30 9278 H 869.317 3.87873 0.132607 0
M  V30 9279 H 867.418 2.86612 2.38085 0
M  V30 9280 H 867.531 4.54298 1.52152 0
M  V30 9281 H 865.895 2.38267 0.900043 0
M  V30 9282 H 866.678 3.40714 -0.420599 0
M  V30 9283 N 869.123 -0.277682 1.55134 0
M  V30 9284 C 870.033 -1.36524 1.90783 0
M  V30 9285 C 871.049 -1.54283 0.804542 0
M  V30 9286 O 872.225 -1.68499 1.10318 0
M  V30 9287 C 869.29 -2.70524 2.16835 0
M  V30 9288 C 868.351 -2.61552 3.40424 0
M  V30 9289 C 867.584 -3.89162 3.65224 0
M  V30 9290 O 867.807 -4.89624 2.92616 0
M  V30 9291 O 866.741 -3.89647 4.58758 0
M  V30 9292 H 870.567 -1.0929 2.83354 0
M  V30 9293 H 868.152 -0.475799 1.41621 0
M  V30 9294 H 870.034 -3.49765 2.35038 0
M  V30 9295 H 868.709 -2.97555 1.27448 0
M  V30 9296 H 867.616 -1.80704 3.27562 0
M  V30 9297 H 868.949 -2.39472 4.30016 0
M  V30 9298 N 870.601 -1.47988 -0.541979 0
M  V30 9299 C 871.564 -1.61148 -1.62984 0
M  V30 9300 C 872.564 -0.48553 -1.53295 0
M  V30 9301 O 873.754 -0.751012 -1.5718 0
M  V30 9302 C 870.886 -1.57038 -3.02576 0
M  V30 9303 H 872.079 -2.58138 -1.52659 0
M  V30 9304 H 869.632 -1.36405 -0.763106 0
M  V30 9305 H 870.367 -0.614807 -3.18419 0
M  V30 9306 H 870.152 -2.38769 -3.11018 0
M  V30 9307 H 871.642 -1.69416 -3.81691 0
M  V30 9308 N 872.079 0.78992 -1.36375 0
M  V30 9309 C 873.328 1.54296 -1.29906 0
M  V30 9310 C 873.641 1.95234 0.119651 0
M  V30 9311 O 874.847 2.69762 0.306708 0
M  V30 9312 C 873.303 2.78533 -2.27919 0
M  V30 9313 C 872.911 2.44767 -3.75224 0
M  V30 9314 C 874.655 3.56516 -2.30427 0
M  V30 9315 C 872.562 3.65397 -4.65015 0
M  V30 9316 H 871.492 0.579214 -0.482729 0
M  V30 9317 H 874.143 0.866845 -1.61735 0
M  V30 9318 H 872.525 3.47941 -1.89084 0
M  V30 9319 H 873.699 1.83259 -4.22792 0
M  V30 9320 H 872.014 1.79996 -3.75487 0
M  V30 9321 H 874.611 4.46143 -2.94722 0
M  V30 9322 H 874.954 3.95063 -1.31266 0
M  V30 9323 H 875.487 2.94087 -2.67876 0
M  V30 9324 H 872.226 3.31946 -5.65236 0
M  V30 9325 H 871.746 4.26072 -4.22164 0
M  V30 9326 H 873.425 4.32431 -4.81261 0
M  V30 9327 N 873.557 1.20646 1.01402 0
M  V30 9328 C 874.834 0.927176 1.72229 0
M  V30 9329 C 875.214 -0.563382 2.03443 0
M  V30 9330 O 874.562 -1.52576 1.70096 0
M  V30 9331 C 874.772 1.80285 2.98828 0
M  V30 9332 C 876.12 2.04624 3.72041 0
M  V30 9333 O 877.144 1.77559 3.0879 0
M  V30 9334 O 876.003 2.50347 4.85787 0
M  V30 9335 H 873.097 0.346891 0.75073 0
M  V30 9336 H 875.643 1.31532 1.07227 0
M  V30 9337 H 874.415 2.81204 2.72102 0
M  V30 9338 H 874.038 1.41495 3.71571 0
M  V30 9339 N 875.035 -1.20752 1.01276 0
M  V30 9340 C 875.982 -2.234 0.579732 0
M  V30 9341 C 876.952 -1.61256 -0.398206 0
M  V30 9342 O 878.137 -1.8845 -0.29851 0
M  V30 9343 C 875.277 -3.45008 -0.0797006 0
M  V30 9344 C 874.39 -4.21597 0.942343 0
M  V30 9345 C 873.525 -5.30591 0.254364 0
M  V30 9346 C 872.564 -5.98919 1.26343 0
M  V30 9347 N 871.701 -6.99511 0.602384 0
M  V30 9348 H 876.541 -2.59801 1.45971 0
M  V30 9349 H 874.078 -1.27663 0.730787 0
M  V30 9350 H 876.036 -4.1444 -0.479125 0
M  V30 9351 H 874.666 -3.09312 -0.923354 0
M  V30 9352 H 873.718 -3.51268 1.45996 0
M  V30 9353 H 875.03 -4.68576 1.70992 0
M  V30 9354 H 874.184 -6.06368 -0.200763 0
M  V30 9355 H 872.923 -4.84639 -0.545553 0
M  V30 9356 H 871.928 -5.21906 1.72898 0
M  V30 9357 H 873.153 -6.46957 2.06456 0
M  V30 9358 H 871.099 -6.55759 -0.177734 0
M  V30 9359 H 871.016 -7.44597 1.30809 0
M  V30 9360 H 872.284 -7.79313 0.17072 0
M  V30 9361 N 876.513 -0.788492 -1.36457 0
M  V30 9362 C 877.461 -0.174192 -2.31947 0
M  V30 9363 C 878.455 0.665974 -1.5576 0
M  V30 9364 O 879.661 0.561161 -1.71029 0
M  V30 9365 H 876.036 -0.0375538 -0.751062 0
M  V30 9366 H 878.007 -0.995011 -2.81322 0
M  V30 9367 C 876.756 0.677276 -3.4104 0
M  V30 9368 H 876.079 0.0401418 -3.9978 0
M  V30 9369 H 877.519 1.07379 -4.10178 0
M  V30 9370 C 875.978 1.83512 -2.82533 0
M  V30 9371 O 876.508 2.93164 -2.74623 0
M  V30 9372 N 874.714 1.64095 -2.39836 0
M  V30 9373 H 874.261 0.749046 -2.46469 0
M  V30 9374 H 874.219 2.41726 -2.01037 0
M  V30 9375 N 877.991 1.48044 -0.54043 0
M  V30 9376 C 878.938 2.29781 0.216597 0
M  V30 9377 C 879.908 1.38021 0.924094 0
M  V30 9378 O 881.093 1.66985 0.923078 0
M  V30 9379 C 878.233 3.21623 1.2511 0
M  V30 9380 C 877.346 4.28467 0.551384 0
M  V30 9381 C 876.481 5.07477 1.56972 0
M  V30 9382 C 875.52 6.06113 0.854048 0
M  V30 9383 N 874.657 6.78143 1.81842 0
M  V30 9384 H 879.497 2.94001 -0.486578 0
M  V30 9385 H 877.034 1.44929 -0.251789 0
M  V30 9386 H 878.992 3.73279 1.8633 0
M  V30 9387 H 877.622 2.59305 1.92252 0
M  V30 9388 H 876.674 3.79997 -0.174982 0
M  V30 9389 H 877.986 4.98799 -0.0100542 0
M  V30 9390 H 877.14 5.63199 2.25592 0
M  V30 9391 H 875.879 4.37008 2.16507 0
M  V30 9392 H 874.884 5.49585 0.153838 0
M  V30 9393 H 876.109 6.78584 0.264675 0
M  V30 9394 H 874.055 6.10417 2.40265 0
M  V30 9395 H 873.972 7.44587 1.3087 0
M  V30 9396 H 875.24 7.38448 2.49628 0
M  V30 9397 N 879.47 0.276058 1.55163 0
M  V30 9398 C 880.716 -0.340959 1.99913 0
M  V30 9399 C 881.049 -1.55434 1.16422 0
M  V30 9400 O 880.324 -1.93081 0.234517 0
M  V30 9401 C 880.607 -0.722211 3.52783 0
M  V30 9402 C 880.46 0.498575 4.47028 0
M  V30 9403 C 881.779 -1.5583 4.11589 0
M  V30 9404 H 878.898 -0.122455 0.726756 0
M  V30 9405 H 881.54 0.38319 1.86096 0
M  V30 9406 H 879.69 -1.33919 3.64689 0
M  V30 9407 H 881.362 1.13713 4.47065 0
M  V30 9408 H 879.605 1.13646 4.18649 0
M  V30 9409 H 880.276 0.188041 5.5168 0
M  V30 9410 H 882.752 -1.03722 4.02965 0
M  V30 9411 H 881.628 -1.79387 5.1876 0
M  V30 9412 H 881.889 -2.53963 3.61877 0
M  V30 9413 N 880.948 -1.576 0.00335426 0
M  V30 9414 C 882.173 -1.95398 -0.695311 0
M  V30 9415 C 882.598 -0.878476 -1.66326 0
M  V30 9416 O 881.956 0.163086 -1.80565 0
M  V30 9417 C 882.004 -3.32293 -1.40049 0
M  V30 9418 O 881.108 -3.26834 -2.51502 0
M  V30 9419 H 880.449 -0.637796 -0.184694 0
M  V30 9420 H 882.979 -2.04519 0.057543 0
M  V30 9421 H 882.989 -3.67936 -1.76316 0
M  V30 9422 H 881.664 -4.10123 -0.690803 0
M  V30 9423 H 880.241 -3.02872 -2.17539 0
M  V30 9424 N 882.426 0.269451 -1.5528 0
M  V30 9425 C 883.703 1.02207 -1.66773 0
M  V30 9426 C 884.083 2.04168 -0.536536 0
M  V30 9427 O 883.431 2.23761 0.462956 0
M  V30 9428 C 883.641 1.67569 -3.0614 0
M  V30 9429 C 884.989 2.18599 -3.64005 0
M  V30 9430 O 886.013 1.7755 -3.08795 0
M  V30 9431 O 884.872 2.93903 -4.60742 0
M  V30 9432 H 881.966 0.474314 -0.677462 0
M  V30 9433 H 884.512 0.265026 -1.67618 0
M  V30 9434 H 883.284 0.937029 -3.79915 0
M  V30 9435 H 882.907 2.49951 -3.09209 0
M  V30 9436 N 883.904 1.48273 0.534124 0
M  V30 9437 C 884.851 1.62487 1.6391 0
M  V30 9438 C 885.821 0.467062 1.59398 0
M  V30 9439 O 887.006 0.690029 1.77885 0
M  V30 9440 C 884.146 1.66671 3.02183 0
M  V30 9441 C 883.259 2.9353 3.16961 0
M  V30 9442 C 882.394 2.88902 4.45768 0
M  V30 9443 C 881.433 4.10483 4.54059 0
M  V30 9444 N 880.57 4.03956 5.74251 0
M  V30 9445 H 885.41 2.56851 1.51101 0
M  V30 9446 H 882.947 1.27381 0.735704 0
M  V30 9447 H 884.905 1.67079 3.82283 0
M  V30 9448 H 883.535 0.758011 3.13774 0
M  V30 9449 H 882.587 3.02886 2.3014 0
M  V30 9450 H 883.899 3.83501 3.18949 0
M  V30 9451 H 883.053 2.87688 5.34154 0
M  V30 9452 H 881.792 1.96652 4.46295 0
M  V30 9453 H 880.797 4.11977 3.64081 0
M  V30 9454 H 882.022 5.03887 4.55274 0
M  V30 9455 H 879.968 3.14525 5.75682 0
M  V30 9456 H 879.885 4.87628 5.77715 0
M  V30 9457 H 881.153 4.06795 6.64935 0
M  V30 9458 N 885.382 -0.782676 1.36792 0
M  V30 9459 C 886.659 -1.52939 1.21939 0
M  V30 9460 C 887.039 -2.10228 -0.191639 0
M  V30 9461 O 886.387 -1.94574 -1.19805 0
M  V30 9462 C 886.597 -2.61898 2.30674 0
M  V30 9463 C 887.945 -3.29598 2.67676 0
M  V30 9464 O 888.969 -2.72186 2.29768 0
M  V30 9465 O 887.828 -4.3337 3.32946 0
M  V30 9466 H 884.922 -0.676856 0.47518 0
M  V30 9467 H 887.468 -0.82058 1.48542 0
M  V30 9468 H 886.24 -2.17607 3.25212 0
M  V30 9469 H 885.863 -3.40391 2.05475 0
M  V30 9470 N 886.86 -1.21182 -1.00761 0
M  V30 9471 C 888.137 -0.936297 -1.71735 0
M  V30 9472 C 888.517 0.552585 -2.03739 0
M  V30 9473 O 887.865 1.51672 -1.70903 0
M  V30 9474 C 888.075 -1.81867 -2.97868 0
M  V30 9475 C 889.423 -2.06594 -3.7095 0
M  V30 9476 O 890.447 -1.79194 -3.07844 0
M  V30 9477 O 889.306 -2.5292 -4.84452 0
M  V30 9478 H 886.4 -0.350867 -0.74888 0
M  V30 9479 H 888.946 -1.32098 -1.06527 0
M  V30 9480 H 887.718 -2.82643 -2.70607 0
M  V30 9481 H 887.341 -1.43463 -3.70815 0
M  V30 9482 N 888.338 1.20213 -1.01915 0
M  V30 9483 C 889.749 1.7136 -0.741131 0
M  V30 9484 C 890.1 1.81705 0.740107 0
M  V30 9485 O 889.225 1.48139 1.57746 0
M  V30 9486 C 889.82 3.11231 -1.33869 0
M  V30 9487 C 888.379 3.59677 -1.10948 0
M  V30 9488 C 887.526 2.36809 -1.4428 0
M  V30 9489 H 890.477 1.05191 -1.1883 0
M  V30 9490 H 890.498 3.7342 -0.730585 0
M  V30 9491 H 890.01 3.03669 -2.41675 0
M  V30 9492 H 888.111 3.72568 -0.0492052 0
M  V30 9493 H 888.224 4.44351 -1.79134 0
M  V30 9494 H 886.588 2.39674 -0.861881 0
M  V30 9495 H 887.371 2.31886 -2.53148 0
M  V30 9496 N 889.816 0.795718 1.36037 0
M  V30 9497 C 890.763 0.196548 2.29962 0
M  V30 9498 C 891.733 -0.663213 1.52285 0
M  V30 9499 O 892.918 -0.610574 1.80767 0
M  V30 9500 C 890.058 -0.657639 3.38776 0
M  V30 9501 C 889.171 0.221358 4.31433 0
M  V30 9502 C 888.306 -0.6398 5.27333 0
M  V30 9503 C 887.345 0.240265 6.11628 0
M  V30 9504 N 886.482 -0.580237 6.99698 0
M  V30 9505 H 891.322 1.00295 2.80615 0
M  V30 9506 H 888.859 0.506147 1.38118 0
M  V30 9507 H 890.817 -1.16793 4.00519 0
M  V30 9508 H 889.447 -1.42941 2.89426 0
M  V30 9509 H 888.499 0.84967 3.70789 0
M  V30 9510 H 889.811 0.899195 4.90628 0
M  V30 9511 H 888.965 -1.21566 5.94396 0
M  V30 9512 H 887.704 -1.35124 4.68607 0
M  V30 9513 H 886.709 0.828474 5.43522 0
M  V30 9514 H 887.934 0.949403 6.72431 0
M  V30 9515 H 885.88 -1.27585 6.43473 0
M  V30 9516 H 885.797 0.0397853 7.5599 0
M  V30 9517 H 887.065 -1.13972 7.71123 0
M  V30 9518 N 891.294 -1.47756 0.548274 0
M  V30 9519 C 892.522 -2.06884 0.0254873 0
M  V30 9520 C 892.937 -1.40225 -1.26422 0
M  V30 9521 O 892.294 -0.495776 -1.75637 0
M  V30 9522 C 892.345 -3.61036 -0.183134 0
M  V30 9523 O 892.066 -4.25195 1.05549 0
M  V30 9524 C 893.567 -4.37008 -0.744222 0
M  V30 9525 H 890.787 -0.669697 0.041789 0
M  V30 9526 H 893.331 -1.89888 0.759138 0
M  V30 9527 H 891.486 -3.77576 -0.866886 0
M  V30 9528 H 891.9 -5.17606 0.847629 0
M  V30 9529 H 893.374 -5.45579 -0.839529 0
M  V30 9530 H 893.851 -4.0268 -1.75344 0
M  V30 9531 H 894.457 -4.25191 -0.0964542 0
M  V30 9532 N 892.772 -0.284283 -1.55015 0
M  V30 9533 C 894.188 0.069603 -1.59448 0
M  V30 9534 C 894.388 1.53833 -1.30144 0
M  V30 9535 O 893.444 2.2886 -1.06674 0
M  V30 9536 C 894.757 -0.313287 -2.99064 0
M  V30 9537 C 896.305 -0.260662 -3.11913 0
M  V30 9538 C 896.78 -0.618127 -4.5381 0
M  V30 9539 N 898.271 -0.570026 -4.59679 0
M  V30 9540 C 899.006 -0.8193 -5.67517 0
M  V30 9541 N 898.502 -1.13367 -6.83462 0
M  V30 9542 N 900.295 -0.747482 -5.57108 0
M  V30 9543 H 892.446 -1.24167 -1.72326 0
M  V30 9544 H 894.709 -0.502259 -0.804015 0
M  V30 9545 H 894.415 -1.33509 -3.25374 0
M  V30 9546 H 894.289 0.341369 -3.75652 0
M  V30 9547 H 896.676 0.751869 -2.85361 0
M  V30 9548 H 896.757 -0.949706 -2.37517 0
M  V30 9549 H 896.401 -1.62839 -4.81088 0
M  V30 9550 H 896.331 0.092807 -5.26518 0
M  V30 9551 H 898.822 -0.3373 -3.76392 0
M  V30 9552 H 899.135 -1.3103 -7.61611 0
M  V30 9553 H 897.48 -1.17154 -6.85055 0
M  V30 9554 H 900.671 -0.501658 -4.65404 0
M  V30 9555 H 900.844 -0.945128 -6.4107 0
M  V30 9556 N 894.251 1.57596 -0.0117121 0
M  V30 9557 C 895.214 2.08089 0.960816 0
M  V30 9558 C 896.214 0.992519 1.26514 0
M  V30 9559 O 897.404 1.25475 1.20837 0
M  V30 9560 C 894.536 2.53217 2.28241 0
M  V30 9561 H 895.729 2.9529 0.523829 0
M  V30 9562 H 893.282 1.54508 0.235995 0
M  V30 9563 H 894.017 1.69294 2.76604 0
M  V30 9564 H 893.802 3.32714 2.0747 0
M  V30 9565 H 895.292 2.92568 2.97983 0
M  V30 9566 N 895.729 -0.261212 1.5542 0
M  V30 9567 C 896.677 -1.34298 1.89913 0
M  V30 9568 C 897.671 -1.50547 0.776665 0
M  V30 9569 O 898.877 -1.52191 0.961139 0
M  V30 9570 H 895.252 -0.4494 0.602946 0
M  V30 9571 H 897.223 -1.02464 2.80256 0
M  V30 9572 C 895.972 -2.69423 2.19788 0
M  V30 9573 H 895.295 -2.57715 3.05652 0
M  V30 9574 H 896.735 -3.44026 2.47835 0
M  V30 9575 C 895.194 -3.21423 1.00939 0
M  V30 9576 O 895.724 -4.00921 0.250034 0
M  V30 9577 N 893.93 -2.7926 0.803883 0
M  V30 9578 H 893.477 -2.14724 1.42308 0
M  V30 9579 H 893.435 -3.14398 0.0103257 0
M  V30 9580 N 897.207 -1.48554 -0.526253 0
M  V30 9581 C 898.437 -1.60197 -1.30463 0
M  V30 9582 C 898.845 -0.26278 -1.87366 0
M  V30 9583 O 898.188 0.758537 -1.67308 0
M  V30 9584 C 898.25 -2.59223 -2.49085 0
M  V30 9585 C 897.914 -4.04199 -2.13241 0
M  V30 9586 C 898.911 -4.91771 -1.68694 0
M  V30 9587 C 896.596 -4.49762 -2.2365 0
M  V30 9588 C 898.59 -6.22934 -1.35026 0
M  V30 9589 C 896.277 -5.80945 -1.89594 0
M  V30 9590 C 897.275 -6.67354 -1.45353 0
M  V30 9591 O 896.963 -7.96096 -1.11745 0
M  V30 9592 H 896.695 -0.54284 -0.402866 0
M  V30 9593 H 899.249 -1.95137 -0.641157 0
M  V30 9594 H 897.479 -2.19412 -3.18426 0
M  V30 9595 H 899.168 -2.60661 -3.11144 0
M  V30 9596 H 899.934 -4.57806 -1.6012 0
M  V30 9597 H 895.813 -3.8269 -2.5704 0
M  V30 9598 H 899.357 -6.90334 -1.00422 0
M  V30 9599 H 895.254 -6.14444 -1.9781 0
M  V30 9600 H 896.022 -8.08882 -1.25111 0
M  V30 9601 N 898.685 0.775411 -1.37205 0
M  V30 9602 C 899.615 1.90258 -1.35367 0
M  V30 9603 C 900.596 1.68634 -0.222864 0
M  V30 9604 O 901.781 1.89545 -0.422659 0
M  V30 9605 C 898.911 3.27488 -1.15623 0
M  V30 9606 C 897.865 3.63668 -2.25676 0
M  V30 9607 C 897.191 4.994 -1.91059 0
M  V30 9608 C 898.491 3.70797 -3.67841 0
M  V30 9609 H 900.185 1.92053 -2.29687 0
M  V30 9610 H 897.731 0.922597 -1.10563 0
M  V30 9611 H 899.684 4.05976 -1.12968 0
M  V30 9612 H 898.408 3.26117 -0.177573 0
M  V30 9613 H 897.067 2.87486 -2.2748 0
M  V30 9614 H 896.715 4.94565 -0.917324 0
M  V30 9615 H 896.415 5.24576 -2.64751 0
M  V30 9616 H 897.939 5.80291 -1.89985 0
M  V30 9617 H 899.353 4.39444 -3.68187 0
M  V30 9618 H 897.75 4.07468 -4.40556 0
M  V30 9619 H 898.82 2.71549 -4.01732 0
M  V30 9620 N 900.163 1.21714 1.00117 0
M  V30 9621 C 901.113 0.947259 2.07391 0
M  V30 9622 C 902.097 -0.0989662 1.60595 0
M  V30 9623 O 903.289 0.11047 1.76655 0
M  V30 9624 C 900.418 0.517954 3.3937 0
M  V30 9625 C 899.504 1.59846 3.92823 0
M  V30 9626 N 899.895 2.82438 4.19598 0
M  V30 9627 C 898.193 1.46822 4.2114 0
M  V30 9628 C 898.894 3.52247 4.62922 0
M  V30 9629 N 897.87 2.79696 4.66124 0
M  V30 9630 H 901.672 1.8786 2.26022 0
M  V30 9631 H 899.186 1.11344 1.18221 0
M  V30 9632 H 901.183 0.305951 4.15776 0
M  V30 9633 H 899.843 -0.40658 3.22144 0
M  V30 9634 H 900.854 3.18944 4.08038 0
M  V30 9635 H 897.531 0.609259 4.13031 0
M  V30 9636 H 898.921 4.57232 4.9233 0
M  V30 9637 N 901.641 -1.19671 1.02551 0
M  V30 9638 C 902.866 -1.93774 0.739363 0
M  V30 9639 C 903.291 -1.74787 -0.695064 0
M  V30 9640 O 902.649 -1.04796 -1.47944 0
M  V30 9641 C 902.697 -3.43684 1.09149 0
M  V30 9642 O 901.801 -4.11874 0.208213 0
M  V30 9643 H 901.142 -0.605064 0.273484 0
M  V30 9644 H 903.672 -1.51846 1.37128 0
M  V30 9645 H 903.682 -3.94339 1.04695 0
M  V30 9646 H 902.357 -3.56826 2.13654 0
M  V30 9647 H 900.934 -3.716 0.311045 0
M  V30 9648 N 903.119 -0.802921 -1.35613 0
M  V30 9649 C 904.067 -0.198783 -2.31749 0
M  V30 9650 C 905.061 0.649416 -1.56458 0
M  V30 9651 O 906.267 0.542989 -1.71615 0
M  V30 9652 H 902.642 -0.0455177 -0.750621 0
M  V30 9653 H 904.613 -1.02479 -2.80251 0
M  V30 9654 C 903.362 0.641066 -3.41739 0
M  V30 9655 H 902.685 -0.00226244 -3.998 0
M  V30 9656 H 904.125 1.03022 -4.11294 0
M  V30 9657 C 902.584 1.80505 -2.84464 0
M  V30 9658 O 903.114 2.90235 -2.77717 0
M  V30 9659 N 901.32 1.61542 -2.41563 0
M  V30 9660 H 900.867 0.722863 -2.4725 0
M  V30 9661 H 900.825 2.39581 -2.03589 0
M  V30 9662 N 904.597 1.47463 -0.556102 0
M  V30 9663 C 905.844 2.02475 -0.0316337 0
M  V30 9664 C 906.172 1.43057 1.31777 0
M  V30 9665 O 905.427 0.575376 1.87051 0
M  V30 9666 C 905.726 3.57224 0.112126 0
M  V30 9667 C 905.392 4.35557 -1.16624 0
M  V30 9668 C 904.054 4.56678 -1.51654 0
M  V30 9669 C 906.406 4.8074 -2.01342 0
M  V30 9670 C 903.734 5.20231 -2.7125 0
M  V30 9671 C 906.086 5.45613 -3.2014 0
M  V30 9672 C 904.75 5.64967 -3.55484 0
M  V30 9673 H 904.02 0.74091 -0.0115756 0
M  V30 9674 H 906.667 1.77148 -0.727392 0
M  V30 9675 H 904.972 3.81538 0.890842 0
M  V30 9676 H 906.669 3.97438 0.533261 0
M  V30 9677 H 903.259 4.19395 -0.883489 0
M  V30 9678 H 907.443 4.64201 -1.75587 0
M  V30 9679 H 902.699 5.3341 -2.98804 0
M  V30 9680 H 906.873 5.79587 -3.86073 0
M  V30 9681 H 904.5 6.13984 -4.4825 0
M  V30 9682 N 906.075 0.2925 1.54862 0
M  V30 9683 C 907.007 -0.620889 2.2063 0
M  V30 9684 C 908.02 -1.10412 1.19637 0
M  V30 9685 O 909.209 -1.02304 1.46274 0
M  V30 9686 C 906.309 -1.861 2.83232 0
M  V30 9687 C 905.482 -1.52168 4.10078 0
M  V30 9688 C 904.541 -2.61605 4.56562 0
M  V30 9689 O 903.567 -2.27056 5.21952 0
M  V30 9690 N 904.769 -3.9199 4.28163 0
M  V30 9691 H 907.534 -0.0579028 2.99644 0
M  V30 9692 H 905.095 0.114333 1.61496 0
M  V30 9693 H 907.087 -2.58642 3.11266 0
M  V30 9694 H 905.657 -2.33259 2.08108 0
M  V30 9695 H 904.877 -0.629283 3.89145 0
M  V30 9696 H 906.165 -1.27023 4.92689 0
M  V30 9697 H 905.563 -4.22872 3.7576 0
M  V30 9698 H 904.12 -4.60857 4.60928 0
M  V30 9699 N 907.553 -1.57587 0.0200696 0
M  V30 9700 C 908.799 -1.92539 -0.655764 0
M  V30 9701 C 909.154 -0.896187 -1.70253 0
M  V30 9702 O 908.447 0.0890022 -1.91393 0
M  V30 9703 C 908.641 -3.32002 -1.32323 0
M  V30 9704 C 908.47 -4.48393 -0.342632 0
M  V30 9705 C 907.24 -5.05271 0.0542423 0
M  V30 9706 C 909.438 -5.12747 0.399388 0
M  V30 9707 N 907.42 -6.05181 1.03095 0
M  V30 9708 C 908.791 -6.07674 1.23014 0
M  V30 9709 C 910.846 -4.95761 0.461065 0
M  V30 9710 C 909.549 -6.87442 2.11698 0
M  V30 9711 C 911.575 -5.7613 1.33521 0
M  V30 9712 C 910.937 -6.70666 2.15376 0
M  V30 9713 H 907.036 -0.75256 -0.212549 0
M  V30 9714 H 909.62 -1.94514 0.0851247 0
M  V30 9715 H 907.791 -3.30863 -2.0343 0
M  V30 9716 H 909.523 -3.54327 -1.95537 0
M  V30 9717 H 906.278 -4.72529 -0.318327 0
M  V30 9718 H 906.702 -6.59824 1.51528 0
M  V30 9719 H 911.344 -4.22506 -0.15752 0
M  V30 9720 H 909.062 -7.60008 2.74616 0
M  V30 9721 H 912.648 -5.65023 1.38711 0
M  V30 9722 H 911.528 -7.31772 2.81922 0
M  V30 9723 N 909.032 0.252966 -1.55557 0
M  V30 9724 C 910.309 1.00432 -1.67847 0
M  V30 9725 C 910.689 2.03587 -0.55816 0
M  V30 9726 O 910.037 2.24239 0.439197 0
M  V30 9727 C 910.247 1.64313 -3.079 0
M  V30 9728 C 911.595 2.14726 -3.66303 0
M  V30 9729 O 912.619 1.74264 -3.10661 0
M  V30 9730 O 911.478 2.89 -4.63833 0
M  V30 9731 H 908.572 0.467102 -0.682455 0
M  V30 9732 H 911.118 0.247233 -1.67889 0
M  V30 9733 H 909.89 0.896681 -3.80888 0
M  V30 9734 H 909.513 2.46657 -3.11843 0
M  V30 9735 N 910.51 1.48831 0.518367 0
M  V30 9736 C 911.457 1.64216 1.62178 0
M  V30 9737 C 912.427 0.483942 1.58894 0
M  V30 9738 O 913.612 0.708857 1.77144 0
M  V30 9739 C 910.752 1.69867 3.00399 0
M  V30 9740 C 909.865 2.96875 3.1383 0
M  V30 9741 C 909 2.93613 4.42679 0
M  V30 9742 C 908.039 4.15276 4.4968 0
M  V30 9743 N 907.176 4.10024 5.69934 0
M  V30 9744 H 912.016 2.58439 1.48368 0
M  V30 9745 H 909.553 1.28154 0.722152 0
M  V30 9746 H 911.511 1.71124 3.8049 0
M  V30 9747 H 910.141 0.791249 3.12952 0
M  V30 9748 H 909.193 3.0531 2.26914 0
M  V30 9749 H 910.505 3.86863 3.14863 0
M  V30 9750 H 909.659 2.93337 5.31073 0
M  V30 9751 H 908.398 2.01375 4.44184 0
M  V30 9752 H 907.403 4.15816 3.59691 0
M  V30 9753 H 908.628 5.08687 4.49904 0
M  V30 9754 H 906.574 3.20613 5.72314 0
M  V30 9755 H 906.491 4.93728 5.72511 0
M  V30 9756 H 907.759 4.13824 6.60583 0
M  V30 9757 N 911.988 -0.768124 1.37614 0
M  V30 9758 C 912.936 -1.9029 1.33763 0
M  V30 9759 C 913.93 -1.67888 0.225814 0
M  V30 9760 O 915.136 -1.75634 0.394043 0
M  V30 9761 H 911.511 -0.625828 0.416945 0
M  V30 9762 H 913.482 -1.90654 2.29551 0
M  V30 9763 C 912.231 -3.27598 1.16511 0
M  V30 9764 H 911.554 -3.45414 2.01318 0
M  V30 9765 H 912.994 -4.07288 1.17867 0
M  V30 9766 C 911.453 -3.36653 -0.129001 0
M  V30 9767 O 911.983 -3.86023 -1.11128 0
M  V30 9768 N 910.189 -2.90036 -0.180926 0
M  V30 9769 H 909.736 -2.5005 0.619076 0
M  V30 9770 H 909.694 -2.96475 -1.04641 0
M  V30 9771 N 913.466 -1.22244 -0.994698 0
M  V30 9772 C 914.396 -1.01513 -2.10279 0
M  V30 9773 C 915.377 0.0633365 -1.69982 0
M  V30 9774 O 916.562 -0.0985268 -1.9395 0
M  V30 9775 C 913.692 -0.59016 -3.42249 0
M  V30 9776 C 912.646 -1.61436 -3.96387 0
M  V30 9777 C 911.972 -1.04528 -5.24383 0
M  V30 9778 C 913.272 -3.00388 -4.27276 0
M  V30 9779 H 914.966 -1.94194 -2.2788 0
M  V30 9780 H 912.512 -0.935094 -1.09508 0
M  V30 9781 H 914.465 -0.432254 -4.19177 0
M  V30 9782 H 913.189 0.372308 -3.24471 0
M  V30 9783 H 911.848 -1.76001 -3.21589 0
M  V30 9784 H 911.496 -0.0742225 -5.02945 0
M  V30 9785 H 911.196 -1.72949 -5.61571 0
M  V30 9786 H 912.72 -0.898922 -6.03947 0
M  V30 9787 H 914.134 -2.89207 -4.95007 0
M  V30 9788 H 912.531 -3.65916 -4.75631 0
M  V30 9789 H 913.601 -3.50456 -3.35125 0
M  V30 9790 N 914.944 1.19125 -1.03184 0
M  V30 9791 C 915.907 2.20662 -0.619766 0
M  V30 9792 C 916.907 1.57621 0.318179 0
M  V30 9793 O 918.097 1.73885 0.104783 0
M  V30 9794 C 915.229 3.40774 0.0926696 0
M  V30 9795 H 916.422 2.58633 -1.5182 0
M  V30 9796 H 913.975 1.32855 -0.823364 0
M  V30 9797 H 914.71 3.08324 1.00531 0
M  V30 9798 H 914.495 3.87766 -0.581344 0
M  V30 9799 H 915.985 4.15977 0.367792 0
M  V30 9800 N 916.422 0.810101 1.35185 0
M  V30 9801 C 917.352 0.237453 2.32289 0
M  V30 9802 C 918.333 -0.639032 1.5764 0
M  V30 9803 O 919.518 -0.568575 1.8569 0
M  V30 9804 C 916.648 -0.611964 3.41866 0
M  V30 9805 C 915.602 0.166318 4.27677 0
M  V30 9806 C 914.928 -0.805024 5.28605 0
M  V30 9807 C 916.228 1.36729 5.04086 0
M  V30 9808 H 917.922 1.04874 2.80432 0
M  V30 9809 H 915.468 0.505751 1.34826 0
M  V30 9810 H 917.421 -1.02267 4.08802 0
M  V30 9811 H 916.145 -1.45617 2.92341 0
M  V30 9812 H 914.804 0.558238 3.62325 0
M  V30 9813 H 914.452 -1.64483 4.75347 0
M  V30 9814 H 914.152 -0.288577 5.86891 0
M  V30 9815 H 915.676 -1.21386 5.98413 0
M  V30 9816 H 917.09 1.03128 5.63948 0
M  V30 9817 H 915.487 1.81848 5.71884 0
M  V30 9818 H 916.557 2.15214 4.34524 0
M  V30 9819 N 917.9 -1.47166 0.563914 0
M  V30 9820 C 918.847 -2.30097 -0.180013 0
M  V30 9821 C 919.817 -1.39473 -0.902019 0
M  V30 9822 O 921.002 -1.68432 -0.896396 0
M  V30 9823 C 918.142 -3.23573 -1.19978 0
M  V30 9824 C 917.255 -4.2929 -0.483149 0
M  V30 9825 C 916.39 -5.0991 -1.48879 0
M  V30 9826 C 915.429 -6.07395 -0.757513 0
M  V30 9827 N 914.566 -6.8095 -1.71031 0
M  V30 9828 H 919.406 -2.93189 0.53329 0
M  V30 9829 H 916.943 -1.4451 0.274814 0
M  V30 9830 H 918.901 -3.76196 -1.80368 0
M  V30 9831 H 917.531 -2.6233 -1.88103 0
M  V30 9832 H 916.583 -3.79671 0.235414 0
M  V30 9833 H 917.895 -4.9872 0.0894075 0
M  V30 9834 H 917.049 -5.66717 -2.16603 0
M  V30 9835 H 915.788 -4.40397 -2.09527 0
M  V30 9836 H 914.793 -5.4976 -0.0663841 0
M  V30 9837 H 916.018 -6.78919 -0.156685 0
M  V30 9838 H 913.964 -6.14162 -2.30524 0
M  V30 9839 H 913.881 -7.46574 -1.19007 0
M  V30 9840 H 915.149 -7.42326 -2.37849 0
M  V30 9841 N 919.378 -0.300708 -1.54705 0
M  V30 9842 C 920.627 0.309428 -1.99312 0
M  V30 9843 C 920.94 1.55027 -1.19272 0
M  V30 9844 O 922.146 2.23498 -1.54146 0
M  V30 9845 C 920.602 0.601856 -3.54832 0
M  V30 9846 C 920.21 -0.620636 -4.4368 0
M  V30 9847 C 921.954 1.1732 -4.07966 0
M  V30 9848 C 919.861 -0.301376 -5.90632 0
M  V30 9849 H 918.791 0.119395 -0.744487 0
M  V30 9850 H 921.442 -0.409368 -1.78875 0
M  V30 9851 H 919.824 1.38024 -3.71168 0
M  V30 9852 H 920.998 -1.39685 -4.39118 0
M  V30 9853 H 919.313 -1.1106 -4.01316 0
M  V30 9854 H 921.91 1.42631 -5.15326 0
M  V30 9855 H 922.253 2.11537 -3.5855 0
M  V30 9856 H 922.786 0.456534 -3.95172 0
M  V30 9857 H 919.525 -1.21209 -6.44196 0
M  V30 9858 H 919.045 0.437574 -5.98202 0
M  V30 9859 H 920.724 0.097164 -6.46927 0
M  V30 9860 N 920.856 1.57574 -0.0284266 0
M  V30 9861 C 922.102 1.92884 0.645544 0
M  V30 9862 C 922.457 0.905203 1.69776 0
M  V30 9863 O 921.75 -0.0788509 1.91438 0
M  V30 9864 C 921.944 3.32699 1.3056 0
M  V30 9865 C 921.773 4.48568 0.318848 0
M  V30 9866 C 920.543 5.05235 -0.0810373 0
M  V30 9867 C 922.741 5.12528 -0.426575 0
M  V30 9868 N 920.723 6.04626 -1.06303 0
M  V30 9869 C 922.094 6.07013 -1.26235 0
M  V30 9870 C 924.149 4.95509 -0.48735 0
M  V30 9871 C 922.852 6.8631 -2.15341 0
M  V30 9872 C 924.878 5.75414 -1.36575 0
M  V30 9873 C 924.24 6.69514 -2.1893 0
M  V30 9874 H 920.339 0.753677 0.208555 0
M  V30 9875 H 922.923 1.94466 -0.095439 0
M  V30 9876 H 921.094 3.31938 2.01673 0
M  V30 9877 H 922.826 3.55359 1.93655 0
M  V30 9878 H 919.581 4.72691 0.293264 0
M  V30 9879 H 920.005 6.59012 -1.55025 0
M  V30 9880 H 924.647 4.22584 0.135112 0
M  V30 9881 H 922.365 7.58541 -2.78642 0
M  V30 9882 H 925.951 5.64279 -1.41705 0
M  V30 9883 H 924.831 7.30266 -2.85799 0
M  V30 9884 N 922.334 -0.244713 1.55689 0
M  V30 9885 C 923.297 -1.2864 1.89695 0
M  V30 9886 C 924.297 -1.40969 0.773583 0
M  V30 9887 O 925.487 -1.39632 1.04156 0
M  V30 9888 C 922.619 -2.66379 2.12732 0
M  V30 9889 H 923.812 -0.997033 2.82841 0
M  V30 9890 H 921.365 -0.484103 1.48614 0
M  V30 9891 H 922.1 -3.00452 1.22062 0
M  V30 9892 H 921.885 -2.58812 2.94549 0
M  V30 9893 H 923.375 -3.41592 2.40218 0
M  V30 9894 N 923.813 -1.49104 -0.510467 0
M  V30 9895 C 925.06 -1.58112 -1.26518 0
M  V30 9896 C 925.388 -0.263603 -1.92705 0
M  V30 9897 O 924.643 0.747743 -1.80852 0
M  V30 9898 C 924.942 -2.68259 -2.36161 0
M  V30 9899 C 924.608 -4.10069 -1.87495 0
M  V30 9900 C 923.27 -4.48662 -1.73942 0
M  V30 9901 C 925.622 -4.98859 -1.5096 0
M  V30 9902 C 922.95 -5.73829 -1.22217 0
M  V30 9903 C 925.302 -6.24535 -1.00691 0
M  V30 9904 C 923.966 -6.61967 -0.857691 0
M  V30 9905 H 923.236 -0.578574 -0.462962 0
M  V30 9906 H 925.883 -1.82899 -0.567475 0
M  V30 9907 H 924.188 -2.37407 -3.11681 0
M  V30 9908 H 925.885 -2.7244 -2.9424 0
M  V30 9909 H 922.475 -3.79601 -1.99001 0
M  V30 9910 H 926.659 -4.69706 -1.60282 0
M  V30 9911 H 921.915 -6.01539 -1.09368 0
M  V30 9912 H 926.089 -6.9272 -0.71498 0
M  V30 9913 H 923.716 -7.58839 -0.454702 0
M  V30 9914 N 925.291 0.760815 -1.38019 0
M  V30 9915 C 926.539 1.51673 -1.33566 0
M  V30 9916 C 926.86 1.94852 0.076024 0
M  V30 9917 O 926.13 1.67112 1.02227 0
M  V30 9918 H 924.71 0.562581 -0.491438 0
M  V30 9919 H 927.372 0.904832 -1.72623 0
M  V30 9920 H 926.468 2.41102 -1.98182 0
M  V30 9921 N 926.769 1.22769 0.988202 0
M  V30 9922 C 928.18 1.0512 1.54294 0
M  V30 9923 C 928.531 -0.383904 1.92407 0
M  V30 9924 O 927.656 -1.26955 1.75246 0
M  V30 9925 C 928.251 1.90198 2.80375 0
M  V30 9926 C 926.81 1.76831 3.32276 0
M  V30 9927 C 925.957 1.86377 2.05326 0
M  V30 9928 H 928.908 1.36546 0.808758 0
M  V30 9929 H 928.929 1.42216 3.52923 0
M  V30 9930 H 928.441 2.9464 2.52605 0
M  V30 9931 H 926.542 0.751412 3.64945 0
M  V30 9932 H 926.655 2.59771 4.02562 0
M  V30 9933 H 925.019 1.2987 2.19103 0
M  V30 9934 H 925.802 2.9236 1.79946 0
M  V30 9935 N 928.247 -1.18576 1.03814 0
M  V30 9936 C 929.157 -2.25778 0.637311 0
M  V30 9937 C 930.173 -1.7074 -0.335248 0
M  V30 9938 O 931.349 -2.00494 -0.19081 0
M  V30 9939 C 928.414 -3.467 0.00386953 0
M  V30 9940 C 927.475 -4.16881 1.02511 0
M  V30 9941 C 926.708 -5.32031 0.421802 0
M  V30 9942 O 926.931 -5.65142 -0.772699 0
M  V30 9943 O 925.865 -5.90826 1.14925 0
M  V30 9944 H 929.691 -2.62323 1.53037 0
M  V30 9945 H 927.276 -1.25609 0.80887 0
M  V30 9946 H 929.158 -4.19953 -0.348873 0
M  V30 9947 H 927.833 -3.11983 -0.863047 0
M  V30 9948 H 926.74 -3.45707 1.4296 0
M  V30 9949 H 928.073 -4.55592 1.86271 0
M  V30 9950 N 929.725 -0.817259 -1.34754 0
M  V30 9951 C 930.953 -0.415451 -2.02686 0
M  V30 9952 C 931.368 0.97688 -1.61563 0
M  V30 9953 O 930.725 1.63125 -0.818321 0
M  V30 9954 C 930.776 -0.501486 -3.58005 0
M  V30 9955 O 930.497 -1.83893 -3.97637 0
M  V30 9956 C 931.998 -0.0938504 -4.43201 0
M  V30 9957 H 929.218 -0.16742 -0.649778 0
M  V30 9958 H 931.762 -1.10384 -1.7215 0
M  V30 9959 H 929.917 0.138766 -3.87151 0
M  V30 9960 H 930.331 -1.8092 -4.92309 0
M  V30 9961 H 931.805 -0.205145 -5.51619 0
M  V30 9962 H 932.282 0.962011 -4.28535 0
M  V30 9963 H 932.888 -0.707677 -4.19371 0
M  V30 9964 N 931.203 1.46865 -0.571711 0
M  V30 9965 C 932.452 2.01636 -0.050881 0
M  V30 9966 C 932.765 1.45001 1.31279 0
M  V30 9967 O 933.971 1.91523 1.92435 0
M  V30 9968 C 932.427 3.59877 -0.0404114 0
M  V30 9969 C 932.035 4.25506 -1.40172 0
M  V30 9970 C 933.779 4.22346 0.42705 0
M  V30 9971 C 931.686 5.75795 -1.34958 0
M  V30 9972 H 930.616 0.753846 -0.0152514 0
M  V30 9973 H 933.267 1.68711 -0.721723 0
M  V30 9974 H 931.649 3.89829 0.696374 0
M  V30 9975 H 932.823 4.07178 -2.15737 0
M  V30 9976 H 931.138 3.75086 -1.8083 0
M  V30 9977 H 933.735 5.32499 0.484688 0
M  V30 9978 H 934.078 3.9052 1.44222 0
M  V30 9979 H 934.611 3.9698 -0.255326 0
M  V30 9980 H 931.35 6.12265 -2.3412 0
M  V30 9981 H 930.87 5.96419 -0.635962 0
M  V30 9982 H 932.549 6.38294 -1.05779 0
M  V30 9983 N 932.681 0.308908 1.54543 0
M  V30 9984 C 933.929 -0.297447 1.99899 0
M  V30 9985 C 934.25 -1.53799 1.19878 0
M  V30 9986 O 933.52 -1.93639 0.29678 0
M  V30 9987 H 932.1 -0.112897 0.738419 0
M  V30 9988 H 934.762 0.422067 1.90275 0
M  V30 9989 H 933.858 -0.564016 3.06961 0
M  V30 9990 N 934.159 -1.57557 0.0367827 0
M  V30 9991 C 935.57 -1.79853 -0.500971 0
M  V30 9992 C 935.921 -0.947749 -1.71791 0
M  V30 9993 O 935.046 -0.160287 -2.15806 0
M  V30 9994 C 935.641 -3.26193 -0.915626 0
M  V30 9995 C 934.2 -3.49457 -1.39845 0
M  V30 9996 C 933.347 -2.74864 -0.366784 0
M  V30 9997 H 936.298 -1.56509 0.262768 0
M  V30 9998 H 936.319 -3.36324 -1.7795 0
M  V30 9999 H 935.831 -3.88089 -0.0297227 0
M  V30 10000 H 933.932 -2.92823 -2.30402 0
M  V30 10001 H 934.045 -4.58172 -1.40054 0
M  V30 10002 H 932.409 -2.4057 -0.836554 0
M  V30 10003 H 933.192 -3.39479 0.510785 0
M  V30 10004 N 935.637 0.236453 -1.55816 0
M  V30 10005 C 936.585 1.31259 -1.92025 0
M  V30 10006 C 937.579 1.49292 -0.800518 0
M  V30 10007 O 938.785 1.50643 -0.985229 0
M  V30 10008 H 935.16 0.439751 -0.610019 0
M  V30 10009 H 937.131 0.979926 -2.81851 0
M  V30 10010 C 935.88 2.65892 -2.24046 0
M  V30 10011 H 935.203 2.5282 -3.09713 0
M  V30 10012 H 936.643 3.40039 -2.53277 0
M  V30 10013 C 935.102 3.19777 -1.0604 0
M  V30 10014 O 935.632 4.00473 -0.313786 0
M  V30 10015 N 933.838 2.77946 -0.848209 0
M  V30 10016 H 933.385 2.12433 -1.45706 0
M  V30 10017 H 933.343 3.14342 -0.0603424 0
M  V30 10018 N 937.115 1.49373 0.502552 0
M  V30 10019 C 938.045 1.68839 1.61294 0
M  V30 10020 C 939.026 0.537096 1.61398 0
M  V30 10021 O 940.211 0.772764 1.78163 0
M  V30 10022 C 937.341 1.75347 2.99784 0
M  V30 10023 C 936.295 2.90251 3.14545 0
M  V30 10024 C 935.621 2.8187 4.54371 0
M  V30 10025 C 936.921 4.31207 2.94717 0
M  V30 10026 H 938.615 2.61803 1.45257 0
M  V30 10027 H 936.161 1.25987 0.697371 0
M  V30 10028 H 938.114 1.87552 3.77362 0
M  V30 10029 H 936.838 0.789814 3.16906 0
M  V30 10030 H 935.497 2.77646 2.39392 0
M  V30 10031 H 935.145 1.83416 4.68367 0
M  V30 10032 H 934.845 3.5899 4.65188 0
M  V30 10033 H 936.369 2.96081 5.34012 0
M  V30 10034 H 937.783 4.44501 3.62065 0
M  V30 10035 H 936.18 5.09536 3.17007 0
M  V30 10036 H 937.25 4.45759 1.90857 0
M  V30 10037 N 938.594 -0.753485 1.38421 0
M  V30 10038 C 939.524 -1.8808 1.38377 0
M  V30 10039 C 940.505 -1.68258 0.249664 0
M  V30 10040 O 941.69 -1.88848 0.45276 0
M  V30 10041 C 938.82 -3.25608 1.20818 0
M  V30 10042 C 937.774 -3.60032 2.31433 0
M  V30 10043 C 937.1 -4.96297 1.9898 0
M  V30 10044 C 938.4 -3.64898 3.73694 0
M  V30 10045 H 940.094 -1.88375 2.32713 0
M  V30 10046 H 937.64 -0.90489 1.12017 0
M  V30 10047 H 939.593 -4.04127 1.19412 0
M  V30 10048 H 938.317 -3.25793 0.229433 0
M  V30 10049 H 936.976 -2.83831 2.32025 0
M  V30 10050 H 936.624 -4.93043 0.995889 0
M  V30 10051 H 936.324 -5.20298 2.73063 0
M  V30 10052 H 937.848 -5.77196 1.99193 0
M  V30 10053 H 939.262 -4.33531 3.75132 0
M  V30 10054 H 937.659 -4.00407 4.46983 0
M  V30 10055 H 938.729 -2.65124 4.06002 0
M  V30 10056 N 940.072 -1.23292 -0.981677 0
M  V30 10057 C 941.3 -1.09088 -1.75805 0
M  V30 10058 C 941.715 0.357746 -1.8538 0
M  V30 10059 O 941.072 1.24751 -1.33205 0
M  V30 10060 C 941.123 -1.70885 -3.1856 0
M  V30 10061 O 940.844 -3.10082 -3.09484 0
M  V30 10062 C 942.345 -1.62106 -4.12597 0
M  V30 10063 H 939.565 -0.38184 -0.55176 0
M  V30 10064 H 942.109 -1.63116 -1.23342 0
M  V30 10065 H 940.264 -1.20893 -3.68054 0
M  V30 10066 H 940.678 -3.40039 -3.99342 0
M  V30 10067 H 942.152 -2.10049 -5.10474 0
M  V30 10068 H 942.629 -0.579642 -4.35358 0
M  V30 10069 H 943.235 -2.11457 -3.69007 0
M  V30 10070 N 941.55 1.18024 -1.04442 0
M  V30 10071 C 942.827 1.8398 -0.664125 0
M  V30 10072 C 943.207 1.92961 0.856116 0
M  V30 10073 O 942.555 1.45839 1.75907 0
M  V30 10074 C 942.765 3.22069 -1.34433 0
M  V30 10075 C 944.113 3.98063 -1.47754 0
M  V30 10076 O 945.137 3.31523 -1.30274 0
M  V30 10077 O 943.996 5.17291 -1.76272 0
M  V30 10078 H 941.09 0.793543 -0.23285 0
M  V30 10079 H 943.636 1.25385 -1.14354 0
M  V30 10080 H 942.408 3.10458 -2.38184 0
M  V30 10081 H 942.031 3.88325 -0.853782 0
M  V30 10082 N 943.028 0.824394 1.34319 0
M  V30 10083 C 943.976 0.235628 2.31403 0
M  V30 10084 C 944.97 -0.624443 1.57471 0
M  V30 10085 O 946.176 -0.515618 1.72457 0
M  V30 10086 H 942.551 0.0574537 0.749802 0
M  V30 10087 H 944.522 1.06925 2.78585 0
M  V30 10088 C 943.271 -0.586617 3.42716 0
M  V30 10089 H 942.594 0.0658669 3.99746 0
M  V30 10090 H 944.034 -0.964661 4.1288 0
M  V30 10091 C 942.493 -1.75957 2.87299 0
M  V30 10092 O 943.023 -2.8578 2.82299 0
M  V30 10093 N 941.229 -1.57678 2.44102 0
M  V30 10094 H 940.776 -0.683436 2.48369 0
M  V30 10095 H 940.734 -2.36311 2.07375 0
M  V30 10096 N 944.506 -1.46559 0.579492 0
M  V30 10097 C 945.734 -2.06784 0.0693648 0
M  V30 10098 C 946.149 -1.42875 -1.23419 0
M  V30 10099 O 945.506 -0.532919 -1.74546 0
M  V30 10100 C 945.557 -3.61343 -0.106511 0
M  V30 10101 O 945.278 -4.22861 1.14545 0
M  V30 10102 C 946.779 -4.38489 -0.651359 0
M  V30 10103 H 943.999 -0.66866 0.0559848 0
M  V30 10104 H 946.543 -1.88235 0.799245 0
M  V30 10105 H 944.698 -3.7933 -0.786601 0
M  V30 10106 H 945.112 -5.15691 0.95723 0
M  V30 10107 H 946.586 -5.47237 -0.723615 0
M  V30 10108 H 947.063 -4.06309 -1.66763 0
M  V30 10109 H 947.669 -4.253 -0.0062433 0
M  V30 10110 N 945.984 -0.3171 -1.54377 0
M  V30 10111 C 947.209 0.292311 -2.0533 0
M  V30 10112 C 947.634 1.45503 -1.19207 0
M  V30 10113 O 946.992 1.80197 -0.199721 0
M  V30 10114 C 947.04 0.710787 -3.53525 0
M  V30 10115 O 946.144 1.81387 -3.70368 0
M  V30 10116 H 945.485 0.0539976 -0.661801 0
M  V30 10117 H 948.015 -0.463629 -1.99278 0
M  V30 10118 H 948.025 0.995216 -3.95676 0
M  V30 10119 H 946.7 -0.139668 -4.15665 0
M  V30 10120 H 945.277 1.52875 -3.40123 0
M  V30 10121 N 947.462 1.57535 -0.0451378 0
M  V30 10122 C 948.71 1.92071 0.628743 0
M  V30 10123 C 949.031 0.923635 1.71738 0
M  V30 10124 O 948.301 -0.0324376 1.95873 0
M  V30 10125 H 946.881 0.708995 0.235233 0
M  V30 10126 H 949.543 1.9466 -0.0967177 0
M  V30 10127 H 948.639 2.9314 1.07123 0
M  V30 10128 N 948.94 -0.228186 1.55939 0
M  V30 10129 C 950.189 -0.951563 1.77843 0
M  V30 10130 C 950.502 -1.85763 0.612501 0
M  V30 10131 O 951.708 -2.61916 0.715006 0
M  V30 10132 C 950.164 -1.74216 3.14923 0
M  V30 10133 C 949.772 -0.882569 4.39221 0
M  V30 10134 C 951.516 -2.45715 3.46156 0
M  V30 10135 C 949.423 -1.67014 5.67327 0
M  V30 10136 H 948.353 -0.359035 0.663031 0
M  V30 10137 H 951.004 -0.205636 1.82344 0
M  V30 10138 H 949.386 -2.53075 3.0458 0
M  V30 10139 H 950.56 -0.13499 4.60602 0
M  V30 10140 H 948.875 -0.280022 4.15457 0
M  V30 10141 H 951.472 -3.05127 4.39092 0
M  V30 10142 H 951.815 -3.1827 2.68346 0
M  V30 10143 H 952.348 -1.73852 3.57799 0
M  V30 10144 H 949.087 -0.987985 6.48012 0
M  V30 10145 H 948.607 -2.3925 5.50018 0
M  V30 10146 H 950.286 -2.23252 6.07262 0
M  V30 10147 N 950.418 -1.49637 -0.494624 0
M  V30 10148 C 951.35 -1.62902 -1.61231 0
M  V30 10149 C 952.363 -0.511425 -1.54558 0
M  V30 10150 O 953.552 -0.783724 -1.60375 0
M  V30 10151 C 950.652 -1.57564 -3.00045 0
M  V30 10152 C 949.825 -2.84964 -3.31835 0
M  V30 10153 C 948.884 -2.72591 -4.5009 0
M  V30 10154 O 947.91 -3.46532 -4.51558 0
M  V30 10155 N 949.112 -1.84563 -5.50379 0
M  V30 10156 H 951.877 -2.59301 -1.50276 0
M  V30 10157 H 949.438 -1.46806 -0.68262 0
M  V30 10158 H 951.43 -1.46932 -3.77085 0
M  V30 10159 H 950 -0.689974 -3.0489 0
M  V30 10160 H 949.22 -3.099 -2.4363 0
M  V30 10161 H 950.508 -3.69412 -3.49875 0
M  V30 10162 H 949.906 -1.23758 -5.51997 0
M  V30 10163 H 948.463 -1.79849 -6.26496 0
M  V30 10164 N 951.896 0.746133 -1.38819 0
M  V30 10165 C 953.126 1.53316 -1.38484 0
M  V30 10166 C 953.534 1.89183 0.0253332 0
M  V30 10167 O 952.877 1.5382 1.00424 0
M  V30 10168 C 952.939 2.85623 -2.18311 0
M  V30 10169 C 952.603 2.72253 -3.67052 0
M  V30 10170 C 953.6 2.41547 -4.60381 0
M  V30 10171 C 951.285 2.89472 -4.10501 0
M  V30 10172 C 953.279 2.28226 -5.9514 0
M  V30 10173 C 950.966 2.7577 -5.45338 0
M  V30 10174 C 951.964 2.45191 -6.37472 0
M  V30 10175 O 951.652 2.31561 -7.69828 0
M  V30 10176 H 951.384 0.480763 -0.475229 0
M  V30 10177 H 953.938 0.93057 -1.83111 0
M  V30 10178 H 952.168 3.481 -1.68414 0
M  V30 10179 H 953.857 3.47178 -2.10291 0
M  V30 10180 H 954.623 2.27905 -4.28117 0
M  V30 10181 H 950.502 3.12269 -3.3913 0
M  V30 10182 H 954.046 2.04279 -6.6702 0
M  V30 10183 H 949.943 2.88987 -5.77197 0
M  V30 10184 H 950.711 2.46716 -7.80432 0
M  V30 10185 N 953.375 1.23811 0.975125 0
M  V30 10186 C 954.308 0.967173 2.06691 0
M  V30 10187 C 955.286 -0.09642 1.62314 0
M  V30 10188 O 956.47 0.0389532 1.8846 0
M  V30 10189 C 953.597 0.458094 3.35588 0
M  V30 10190 C 952.643 1.5091 3.98909 0
M  V30 10191 S 953.476 3.08815 4.37485 0
M  V30 10192 C 954.632 2.59591 5.69529 0
M  V30 10193 H 954.865 1.89166 2.29355 0
M  V30 10194 H 952.398 1.07113 1.11203 0
M  V30 10195 H 954.356 0.170991 4.10144 0
M  V30 10196 H 953.017 -0.445562 3.10924 0
M  V30 10197 H 952.21 1.10315 4.91779 0
M  V30 10198 H 951.812 1.74582 3.30752 0
M  V30 10199 H 954.104 2.0194 6.46704 0
M  V30 10200 H 955.047 3.51021 6.14971 0
M  V30 10201 H 955.455 2.00267 5.27782 0
M  V30 10202 N 954.853 -1.17469 1.05066 0
M  V30 10203 C 955.801 -2.23495 0.644418 0
M  V30 10204 C 956.795 -1.66081 -0.333685 0
M  V30 10205 O 958.001 -1.78887 -0.199886 0
M  V30 10206 H 954.376 -0.727546 0.190214 0
M  V30 10207 H 956.347 -2.55058 1.5488 0
M  V30 10208 C 955.096 -3.47684 0.0338051 0
M  V30 10209 H 954.419 -3.92167 0.777513 0
M  V30 10210 H 955.859 -4.23464 -0.213086 0
M  V30 10211 C 954.318 -3.14067 -1.21915 0
M  V30 10212 O 954.848 -3.28728 -2.3087 0
M  V30 10213 N 953.054 -2.68304 -1.11631 0
M  V30 10214 H 952.601 -2.56574 -0.229673 0
M  V30 10215 H 952.559 -2.46184 -1.95553 0
M  V30 10216 N 956.331 -0.831506 -1.3388 0
M  V30 10217 C 957.241 -0.261688 -2.33136 0
M  V30 10218 C 958.257 0.608429 -1.63016 0
M  V30 10219 O 959.433 0.514297 -1.94723 0
M  V30 10220 C 956.498 0.559957 -3.42148 0
M  V30 10221 C 955.559 -0.333569 -4.28002 0
M  V30 10222 C 954.792 0.448956 -5.31808 0
M  V30 10223 O 955.015 1.6814 -5.45055 0
M  V30 10224 O 953.949 -0.173197 -6.01651 0
M  V30 10225 H 957.775 -1.08343 -2.83717 0
M  V30 10226 H 955.36 -0.593849 -1.3709 0
M  V30 10227 H 957.242 1.02712 -4.08691 0
M  V30 10228 H 955.917 1.35888 -2.93796 0
M  V30 10229 H 954.824 -0.848416 -3.64352 0
M  V30 10230 H 956.157 -1.09707 -4.79818 0
M  V30 10231 N 957.809 1.4625 -0.587256 0
M  V30 10232 C 959.058 2.01571 -0.0722643 0
M  V30 10233 C 959.371 1.46385 1.29733 0
M  V30 10234 O 960.577 1.93554 1.90392 0
M  V30 10235 C 959.033 3.59814 -0.078579 0
M  V30 10236 C 958.641 4.23996 -1.44678 0
M  V30 10237 C 960.385 4.22776 0.382231 0
M  V30 10238 C 958.292 5.74332 -1.41057 0
M  V30 10239 H 957.222 0.753642 -0.0232461 0
M  V30 10240 H 959.873 1.67936 -0.739577 0
M  V30 10241 H 958.255 3.90546 0.654988 0
M  V30 10242 H 959.429 4.04867 -2.20043 0
M  V30 10243 H 957.744 3.73147 -1.84799 0
M  V30 10244 H 960.341 5.32983 0.428182 0
M  V30 10245 H 960.684 3.92027 1.40072 0
M  V30 10246 H 961.217 3.96687 -0.297417 0
M  V30 10247 H 957.956 6.09747 -2.40601 0
M  V30 10248 H 957.476 5.95711 -0.699185 0
M  V30 10249 H 959.155 6.37137 -1.12543 0
M  V30 10250 N 959.287 0.325282 1.54207 0
M  V30 10251 C 960.234 -0.539889 2.24397 0
M  V30 10252 C 961.204 -1.11028 1.2354 0
M  V30 10253 O 962.389 -1.1503 1.52226 0
M  V30 10254 C 959.529 -1.69405 3.00659 0
M  V30 10255 C 958.642 -1.15273 4.16337 0
M  V30 10256 C 957.777 -2.27272 4.80126 0
M  V30 10257 C 956.816 -1.70397 5.87904 0
M  V30 10258 N 955.953 -2.76065 6.45548 0
M  V30 10259 H 960.793 0.0652318 2.97929 0
M  V30 10260 H 958.33 0.043964 1.47034 0
M  V30 10261 H 960.288 -2.37325 3.43122 0
M  V30 10262 H 958.918 -2.27043 2.29458 0
M  V30 10263 H 957.97 -0.365034 3.78645 0
M  V30 10264 H 959.282 -0.696576 4.93912 0
M  V30 10265 H 958.436 -3.03092 5.25566 0
M  V30 10266 H 957.175 -2.76224 4.01935 0
M  V30 10267 H 956.18 -0.930752 5.41864 0
M  V30 10268 H 957.405 -1.22319 6.67993 0
M  V30 10269 H 955.351 -3.24306 5.7023 0
M  V30 10270 H 955.268 -2.35018 7.18542 0
M  V30 10271 H 956.536 -3.5171 6.95644 0
M  V30 10272 N 960.765 -1.57509 0.0534917 0
M  V30 10273 C 962.011 -1.93068 -0.62069 0
M  V30 10274 C 962.344 -0.932313 -1.70357 0
M  V30 10275 O 961.619 0.0413393 -1.94456 0
M  V30 10276 C 961.902 -3.38997 -1.21463 0
M  V30 10277 C 961.755 -4.49583 -0.13965 0
M  V30 10278 C 963.074 -3.85366 -2.12558 0
M  V30 10279 H 960.193 -0.702083 -0.224163 0
M  V30 10280 H 962.835 -1.89647 0.115729 0
M  V30 10281 H 960.985 -3.42043 -1.84226 0
M  V30 10282 H 962.657 -4.58664 0.492411 0
M  V30 10283 H 960.9 -4.30525 0.532006 0
M  V30 10284 H 961.571 -5.48781 -0.595287 0
M  V30 10285 H 964.047 -3.8421 -1.59755 0
M  V30 10286 H 962.923 -4.8812 -2.51058 0
M  V30 10287 H 963.184 -3.22256 -3.02661 0
M  V30 10288 N 962.243 0.219913 -1.56058 0
M  V30 10289 C 963.193 1.27606 -1.88946 0
M  V30 10290 C 964.177 1.42209 -0.752691 0
M  V30 10291 O 965.369 1.44996 -1.01514 0
M  V30 10292 C 962.498 2.62614 -2.21108 0
M  V30 10293 C 961.584 2.51906 -3.4118 0
M  V30 10294 N 961.975 2.10851 -4.59756 0
M  V30 10295 C 960.273 2.82861 -3.44827 0
M  V30 10296 C 960.974 2.11434 -5.41914 0
M  V30 10297 N 959.95 2.51985 -4.81669 0
M  V30 10298 H 963.752 0.94957 -2.78137 0
M  V30 10299 H 961.266 0.428468 -1.56646 0
M  V30 10300 H 963.263 3.38869 -2.42844 0
M  V30 10301 H 961.923 2.96108 -1.3323 0
M  V30 10302 H 962.934 1.81956 -4.84884 0
M  V30 10303 H 959.611 3.20716 -2.67297 0
M  V30 10304 H 961.001 1.81803 -6.46836 0
M  V30 10305 N 963.721 1.49897 0.486681 0
M  V30 10306 C 964.961 1.61732 1.24988 0
M  V30 10307 C 965.325 0.303724 1.89582 0
M  V30 10308 O 966.526 0.297373 2.6715 0
M  V30 10309 C 964.797 2.75429 2.27757 0
M  V30 10310 S 966.356 3.07304 3.13225 0
M  V30 10311 H 963.174 0.570316 0.424571 0
M  V30 10312 H 965.776 1.87617 0.549549 0
M  V30 10313 H 964.48 3.69376 1.78857 0
M  V30 10314 H 964.011 2.51582 3.0244 0
M  V30 10315 H 966.026 2.49928 4.28661 0
M  V30 10316 N 965.199 -0.738761 1.39212 0
M  V30 10317 C 966.445 -1.50046 1.36433 0
M  V30 10318 C 966.778 -1.94157 -0.0409474 0
M  V30 10319 O 966.053 -1.66515 -1.00514 0
M  V30 10320 C 966.336 -2.74277 2.33333 0
M  V30 10321 C 966.189 -2.36209 3.82786 0
M  V30 10322 C 967.508 -3.76361 2.28123 0
M  V30 10323 H 964.627 -0.544294 0.496903 0
M  V30 10324 H 967.269 -0.845005 1.70175 0
M  V30 10325 H 965.419 -3.30204 2.04689 0
M  V30 10326 H 967.091 -1.85942 4.22165 0
M  V30 10327 H 965.334 -1.68483 3.99745 0
M  V30 10328 H 966.005 -3.25156 4.46069 0
M  V30 10329 H 968.481 -3.30009 2.53443 0
M  V30 10330 H 967.357 -4.60957 2.9801 0
M  V30 10331 H 967.618 -4.23013 1.28499 0
M  V30 10332 N 966.677 -1.24326 -0.968545 0
M  V30 10333 C 967.64 -1.03591 -2.04454 0
M  V30 10334 C 968.64 0.0064809 -1.60799 0
M  V30 10335 O 969.83 -0.234404 -1.72616 0
M  V30 10336 C 966.962 -0.56992 -3.36102 0
M  V30 10337 H 968.155 -1.99092 -2.24282 0
M  V30 10338 H 965.708 -1.06537 -1.14366 0
M  V30 10339 H 966.443 0.388325 -3.21967 0
M  V30 10340 H 966.228 -1.32227 -3.69132 0
M  V30 10341 H 967.718 -0.445854 -4.15213 0
M  V30 10342 N 968.156 1.1691 -1.05688 0
M  V30 10343 C 969.119 2.19297 -0.666433 0
M  V30 10344 C 970.119 1.5826 0.284674 0
M  V30 10345 O 971.309 1.74068 0.0678757 0
M  V30 10346 C 968.441 3.40894 0.0203656 0
M  V30 10347 H 969.634 2.55354 -1.57272 0
M  V30 10348 H 967.187 1.31078 -0.851359 0
M  V30 10349 H 967.922 3.10388 0.939686 0
M  V30 10350 H 967.707 3.86446 -0.663464 0
M  V30 10351 H 969.197 4.16664 0.279475 0
M  V30 10352 N 969.634 0.838594 1.33437 0
M  V30 10353 C 970.881 0.434169 1.97791 0
M  V30 10354 C 971.209 -1.00652 1.66431 0
M  V30 10355 O 970.464 -1.71848 0.936309 0
M  V30 10356 C 970.763 0.601425 3.52303 0
M  V30 10357 C 970.429 2.01017 4.03612 0
M  V30 10358 C 969.091 2.39551 4.17336 0
M  V30 10359 C 971.443 2.93035 4.31022 0
M  V30 10360 C 968.771 3.69406 4.55802 0
M  V30 10361 C 971.123 4.22372 4.7094 0
M  V30 10362 C 969.787 4.60862 4.82869 0
M  V30 10363 H 969.057 0.158874 0.723768 0
M  V30 10364 H 971.704 1.06556 1.59116 0
M  V30 10365 H 970.009 -0.113284 3.91636 0
M  V30 10366 H 971.706 0.268798 4.00098 0
M  V30 10367 H 968.296 1.7009 3.93405 0
M  V30 10368 H 972.48 2.64503 4.19943 0
M  V30 10369 H 967.736 3.99033 4.63231 0
M  V30 10370 H 971.91 4.93749 4.91106 0
M  V30 10371 H 969.537 5.6153 5.12433 0
M  V30 10372 N 971.112 -1.45937 0.595003 0
M  V30 10373 C 972.044 -2.28575 -0.169137 0
M  V30 10374 C 973.057 -1.39226 -0.843792 0
M  V30 10375 O 974.246 -1.63716 -0.711291 0
M  V30 10376 C 971.346 -3.14616 -1.25976 0
M  V30 10377 C 970.519 -4.32166 -0.67466 0
M  V30 10378 C 969.578 -4.99511 -1.65456 0
M  V30 10379 O 968.604 -5.56712 -1.18578 0
M  V30 10380 N 969.806 -4.97643 -2.98885 0
M  V30 10381 H 972.571 -2.94797 0.539908 0
M  V30 10382 H 970.132 -1.55985 0.433614 0
M  V30 10383 H 972.124 -3.56534 -1.91483 0
M  V30 10384 H 970.694 -2.50387 -1.8715 0
M  V30 10385 H 969.914 -3.93882 0.158184 0
M  V30 10386 H 971.202 -5.08116 -0.263753 0
M  V30 10387 H 970.6 -4.52438 -3.39583 0
M  V30 10388 H 969.157 -5.43463 -3.59848 0
M  V30 10389 N 972.59 -0.333456 -1.54032 0
M  V30 10390 C 973.836 0.259248 -2.01741 0
M  V30 10391 C 974.191 1.48999 -1.21725 0
M  V30 10392 O 973.484 1.89333 -0.293882 0
M  V30 10393 C 973.678 0.63565 -3.51702 0
M  V30 10394 C 973.507 -0.55707 -4.46236 0
M  V30 10395 C 972.277 -1.05925 -4.94073 0
M  V30 10396 C 974.475 -1.41237 -4.94527 0
M  V30 10397 N 972.457 -2.21535 -5.72534 0
M  V30 10398 C 973.828 -2.41551 -5.71011 0
M  V30 10399 C 975.883 -1.43899 -4.76652 0
M  V30 10400 C 974.586 -3.44342 -6.31523 0
M  V30 10401 C 976.612 -2.45567 -5.38006 0
M  V30 10402 C 975.974 -3.44606 -6.1435 0
M  V30 10403 H 972.073 0.0584431 -0.779813 0
M  V30 10404 H 974.657 -0.470736 -1.88924 0
M  V30 10405 H 972.828 1.33475 -3.64745 0
M  V30 10406 H 974.56 1.21067 -3.86167 0
M  V30 10407 H 971.315 -0.628947 -4.69405 0
M  V30 10408 H 971.739 -2.79878 -6.16439 0
M  V30 10409 H 976.381 -0.686929 -4.17182 0
M  V30 10410 H 974.099 -4.20449 -6.90107 0
M  V30 10411 H 977.685 -2.4844 -5.26088 0
M  V30 10412 H 976.565 -4.21987 -6.60982 0
M  V30 10413 N 974.068 1.57479 -0.061844 0
M  V30 10414 C 975.031 2.1104 0.894127 0
M  V30 10415 C 976.031 1.03227 1.23292 0
M  V30 10416 O 977.221 1.29256 1.16784 0
M  V30 10417 C 974.353 2.6035 2.20069 0
M  V30 10418 H 975.546 2.96807 0.429619 0
M  V30 10419 H 973.099 1.55181 0.18672 0
M  V30 10420 H 973.834 1.78008 2.71079 0
M  V30 10421 H 973.619 3.39146 1.9678 0
M  V30 10422 H 975.109 3.019 2.88525 0
M  V30 10423 N 975.546 -0.211634 1.56173 0
M  V30 10424 C 976.771 -0.955324 1.84088 0
M  V30 10425 C 977.196 -1.76754 0.643407 0
M  V30 10426 O 976.554 -1.76653 -0.407842 0
M  V30 10427 C 976.602 -1.84063 3.10085 0
M  V30 10428 O 975.706 -2.9373 2.89476 0
M  V30 10429 H 975.047 -0.26996 0.606645 0
M  V30 10430 H 977.577 -0.221947 2.03393 0
M  V30 10431 H 977.587 -2.24852 3.40449 0
M  V30 10432 H 976.262 -1.24373 3.96868 0
M  V30 10433 H 974.839 -2.56816 2.7037 0
M  V30 10434 N 977.024 -1.50153 -0.478725 0
M  V30 10435 C 977.971 -1.68458 -1.57767 0
M  V30 10436 C 978.941 -0.5259 -1.57555 0
M  V30 10437 O 980.126 -0.755574 -1.75202 0
M  V30 10438 C 977.266 -1.77772 -2.95789 0
M  V30 10439 C 976.379 -3.05092 -3.05848 0
M  V30 10440 C 975.514 -3.05247 -4.34739 0
M  V30 10441 C 974.553 -4.27053 -4.38512 0
M  V30 10442 N 973.69 -4.24991 -5.58862 0
M  V30 10443 H 978.53 -2.62282 -1.41464 0
M  V30 10444 H 976.067 -1.30023 -0.687921 0
M  V30 10445 H 978.025 -1.81152 -3.75819 0
M  V30 10446 H 976.655 -0.873944 -3.10744 0
M  V30 10447 H 975.707 -3.11219 -2.1874 0
M  V30 10448 H 977.019 -3.95075 -3.04495 0
M  V30 10449 H 976.173 -3.07314 -5.23109 0
M  V30 10450 H 974.912 -2.13081 -4.38689 0
M  V30 10451 H 973.917 -4.25206 -3.4854 0
M  V30 10452 H 975.142 -5.20437 -4.36259 0
M  V30 10453 H 973.088 -3.35674 -5.63612 0
M  V30 10454 H 973.005 -5.08734 -5.59219 0
M  V30 10455 H 974.273 -4.31193 -6.49379 0
M  V30 10456 N 978.502 0.731368 -1.39602 0
M  V30 10457 C 979.412 1.87579 -1.40894 0
M  V30 10458 C 980.428 1.71336 -0.303319 0
M  V30 10459 O 981.604 1.93875 -0.545377 0
M  V30 10460 C 978.669 3.23211 -1.25442 0
M  V30 10461 C 977.73 3.51822 -2.46008 0
M  V30 10462 C 976.963 4.80982 -2.31284 0
M  V30 10463 O 977.186 5.54958 -1.31824 0
M  V30 10464 O 976.12 5.09574 -3.20341 0
M  V30 10465 H 979.946 1.89444 -2.3737 0
M  V30 10466 H 977.531 0.879675 -1.20756 0
M  V30 10467 H 979.413 4.04257 -1.18972 0
M  V30 10468 H 978.088 3.22108 -0.320637 0
M  V30 10469 H 976.995 2.70847 -2.58055 0
M  V30 10470 H 978.328 3.57707 -3.38093 0
M  V30 10471 N 979.98 1.24838 0.961938 0
M  V30 10472 C 981.228 1.08936 1.70227 0
M  V30 10473 C 981.549 -0.371582 1.91427 0
M  V30 10474 O 980.819 -1.26461 1.49614 0
M  V30 10475 H 979.399 0.400128 0.630799 0
M  V30 10476 H 982.061 1.56848 1.15692 0
M  V30 10477 H 981.157 1.59195 2.68446 0
M  V30 10478 N 981.458 -1.16348 1.06306 0
M  V30 10479 C 982.704 -1.87158 0.781007 0
M  V30 10480 C 983.037 -1.81499 -0.690784 0
M  V30 10481 O 982.312 -1.23074 -1.50609 0
M  V30 10482 C 982.595 -3.3672 1.27639 0
M  V30 10483 C 982.448 -3.51069 2.81194 0
M  V30 10484 C 983.767 -4.31122 0.884388 0
M  V30 10485 H 980.886 -0.679586 0.285187 0
M  V30 10486 H 983.528 -1.36756 1.31901 0
M  V30 10487 H 981.678 -3.79775 0.818715 0
M  V30 10488 H 983.35 -3.16952 3.35171 0
M  V30 10489 H 981.593 -2.92976 3.19918 0
M  V30 10490 H 982.264 -4.56105 3.10921 0
M  V30 10491 H 984.74 -3.95969 1.27858 0
M  V30 10492 H 983.616 -5.34279 1.25847 0
M  V30 10493 H 983.877 -4.41598 -0.210673 0
M  V30 10494 N 982.937 -0.845659 -1.3299 0
M  V30 10495 C 983.867 -0.298957 -2.31578 0
M  V30 10496 C 984.848 0.597012 -1.59279 0
M  V30 10497 O 986.033 0.519142 -1.87132 0
M  V30 10498 C 983.163 0.521109 -3.43368 0
M  V30 10499 C 982.117 -0.279651 -4.27085 0
M  V30 10500 C 981.443 0.664591 -5.30554 0
M  V30 10501 C 982.743 -1.50046 -5.00283 0
M  V30 10502 H 984.437 -1.12272 -2.77552 0
M  V30 10503 H 981.983 -0.54132 -1.33438 0
M  V30 10504 H 983.936 0.913921 -4.1137 0
M  V30 10505 H 982.66 1.37815 -2.96099 0
M  V30 10506 H 981.319 -0.654106 -3.60717 0
M  V30 10507 H 980.967 1.51822 -4.79541 0
M  V30 10508 H 980.667 0.132871 -5.8745 0
M  V30 10509 H 982.191 1.05477 -6.01421 0
M  V30 10510 H 983.605 -1.18044 -5.61016 0
M  V30 10511 H 982.002 -1.96946 -5.66862 0
M  V30 10512 H 983.072 -2.26659 -4.28665 0
M  V30 10513 N 984.415 1.45619 -0.602734 0
M  V30 10514 C 985.655 2.0416 -0.0989764 0
M  V30 10515 C 986.019 1.4616 1.24504 0
M  V30 10516 O 987.22 1.96025 1.83923 0
M  V30 10517 C 985.491 3.57357 -0.0551869 0
M  V30 10518 S 987.05 4.3708 0.388086 0
M  V30 10519 H 983.868 0.709431 -0.0472054 0
M  V30 10520 H 986.47 1.78394 -0.799745 0
M  V30 10521 H 985.174 3.97083 -1.03697 0
M  V30 10522 H 984.705 3.87692 0.667727 0
M  V30 10523 H 986.72 4.68362 1.63865 0
M  V30 10524 N 985.893 0.34162 1.53853 0
M  V30 10525 C 986.803 -0.524555 2.2866 0
M  V30 10526 C 987.819 -1.1136 1.33697 0
M  V30 10527 O 988.995 -1.1297 1.66732 0
M  V30 10528 C 986.06 -1.66065 3.04341 0
M  V30 10529 C 985.121 -1.10158 4.14926 0
M  V30 10530 C 984.354 -2.18353 4.86988 0
M  V30 10531 O 984.577 -3.39038 4.58704 0
M  V30 10532 O 983.511 -1.82756 5.73484 0
M  V30 10533 H 987.337 0.0835014 3.03585 0
M  V30 10534 H 984.922 0.106727 1.49018 0
M  V30 10535 H 986.804 -2.3217 3.51674 0
M  V30 10536 H 985.479 -2.25456 2.32275 0
M  V30 10537 H 984.386 -0.405109 3.719 0
M  V30 10538 H 985.719 -0.552567 4.89088 0
M  V30 10539 N 987.371 -1.57444 0.0701946 0
M  V30 10540 C 988.281 -2.16132 -0.912377 0
M  V30 10541 C 989.297 -1.12406 -1.32819 0
M  V30 10542 O 990.473 -1.44665 -1.40121 0
M  V30 10543 C 987.538 -2.71008 -2.16231 0
M  V30 10544 C 986.599 -3.896 -1.80306 0
M  V30 10545 C 985.832 -4.4185 -2.9934 0
M  V30 10546 O 986.055 -3.93106 -4.13309 0
M  V30 10547 O 984.989 -5.33201 -2.7925 0
M  V30 10548 H 988.815 -3.00449 -0.443167 0
M  V30 10549 H 986.4 -1.48617 -0.152786 0
M  V30 10550 H 988.282 -3.06186 -2.8953 0
M  V30 10551 H 986.957 -1.8975 -2.62253 0
M  V30 10552 H 985.864 -3.59277 -1.04264 0
M  V30 10553 H 987.197 -4.72145 -1.39068 0
M  V30 10554 N 988.849 0.203349 -1.56283 0
M  V30 10555 C 989.797 1.27157 -1.94766 0
M  V30 10556 C 990.791 1.4756 -0.832005 0
M  V30 10557 O 991.997 1.48519 -1.01696 0
M  V30 10558 H 988.372 0.426712 -0.61921 0
M  V30 10559 H 990.343 0.919921 -2.83866 0
M  V30 10560 C 989.092 2.6108 -2.29636 0
M  V30 10561 H 988.415 2.46193 -3.15006 0
M  V30 10562 H 989.855 3.34591 -2.60433 0
M  V30 10563 C 988.314 3.17456 -1.12799 0
M  V30 10564 O 988.844 3.99717 -0.398661 0
M  V30 10565 N 987.05 2.76084 -0.906975 0
M  V30 10566 H 986.597 2.09294 -1.50179 0
M  V30 10567 H 986.555 3.14143 -0.127005 0
M  V30 10568 N 990.327 1.50405 0.470755 0
M  V30 10569 C 991.26 1.63933 1.58749 0
M  V30 10570 C 992.238 0.487444 1.55122 0
M  V30 10571 O 993.422 0.706992 1.74739 0
M  V30 10572 C 990.549 1.62222 2.97324 0
M  V30 10573 C 989.595 2.82975 3.19104 0
M  V30 10574 S 990.428 4.44272 2.98969 0
M  V30 10575 C 991.584 4.45254 4.39886 0
M  V30 10576 H 991.817 2.58396 1.47034 0
M  V30 10577 H 989.35 1.39672 0.658115 0
M  V30 10578 H 991.308 1.6192 3.77217 0
M  V30 10579 H 989.969 0.689944 3.06429 0
M  V30 10580 H 989.162 2.78083 4.2034 0
M  V30 10581 H 988.764 2.80846 2.46984 0
M  V30 10582 H 991.056 4.18837 5.32524 0
M  V30 10583 H 991.999 5.4687 4.49821 0
M  V30 10584 H 992.407 3.74958 4.2198 0
M  V30 10585 N 991.805 -0.723954 1.39988 0
M  V30 10586 C 993.221 -1.03095 1.21834 0
M  V30 10587 C 993.421 -2.01309 0.0876647 0
M  V30 10588 O 992.477 -2.46277 -0.55714 0
M  V30 10589 C 993.79 -1.58267 2.5568 0
M  V30 10590 C 995.338 -1.70293 2.6262 0
M  V30 10591 C 995.813 -2.28872 3.96713 0
M  V30 10592 N 997.304 -2.36269 3.98411 0
M  V30 10593 C 998.039 -2.82557 4.98948 0
M  V30 10594 N 997.535 -3.28661 6.0988 0
M  V30 10595 N 999.328 -2.81866 4.86321 0
M  V30 10596 H 991.479 -0.0727891 2.12275 0
M  V30 10597 H 993.742 -0.0949029 0.943238 0
M  V30 10598 H 993.448 -0.935642 3.39026 0
M  V30 10599 H 993.322 -2.56914 2.76179 0
M  V30 10600 H 995.709 -2.34115 1.7965 0
M  V30 10601 H 995.79 -0.70268 2.45959 0
M  V30 10602 H 995.434 -1.65675 4.80119 0
M  V30 10603 H 995.364 -3.29595 4.107 0
M  V30 10604 H 997.855 -2.03697 3.18302 0
M  V30 10605 H 998.168 -3.62524 6.82493 0
M  V30 10606 H 996.513 -3.26641 6.13458 0
M  V30 10607 H 999.704 -2.45179 3.98754 0
M  V30 10608 H 999.877 -3.17626 5.64817 0
M  V30 10609 N 993.283 -1.25346 -0.955304 0
M  V30 10610 C 994.531 -1.09837 -1.69647 0
M  V30 10611 C 994.852 0.361425 -1.91621 0
M  V30 10612 O 994.122 1.25666 -1.50283 0
M  V30 10613 H 992.702 -0.403467 -0.628668 0
M  V30 10614 H 995.364 -1.57459 -1.14859 0
M  V30 10615 H 994.46 -1.60616 -2.67598 0
M  V30 10616 N 994.761 1.15782 -1.06922 0
M  V30 10617 C 996.01 1.85807 -0.784774 0
M  V30 10618 C 996.323 1.82967 0.691551 0
M  V30 10619 O 997.529 2.48632 1.0906 0
M  V30 10620 C 995.985 3.33469 -1.35375 0
M  V30 10621 C 995.593 3.44766 -2.86077 0
M  V30 10622 C 997.337 4.08707 -1.14713 0
M  V30 10623 C 995.244 4.86551 -3.36187 0
M  V30 10624 H 994.174 0.696046 -0.28989 0
M  V30 10625 H 996.825 1.30629 -1.28873 0
M  V30 10626 H 995.207 3.88292 -0.77754 0
M  V30 10627 H 996.381 3.00073 -3.49704 0
M  V30 10628 H 994.696 2.82969 -3.05479 0
M  V30 10629 H 997.293 5.13336 -1.49633 0
M  V30 10630 H 997.636 4.16211 -0.0858868 0
M  V30 10631 H 998.169 3.60142 -1.68946 0
M  V30 10632 H 994.908 4.84229 -4.41818 0
M  V30 10633 H 994.428 5.31844 -2.77312 0
M  V30 10634 H 996.107 5.55392 -3.31887 0
M  V30 10635 N 996.239 0.8527 1.3254 0
M  V30 10636 C 997.149 0.298744 2.3269 0
M  V30 10637 C 998.165 -0.582418 1.63963 0
M  V30 10638 O 999.341 -0.483253 1.95516 0
M  V30 10639 C 996.406 -0.505453 3.42996 0
M  V30 10640 C 995.467 0.401618 4.27417 0
M  V30 10641 C 994.7 -0.364294 5.32455 0
M  V30 10642 O 994.923 -1.59448 5.47661 0
M  V30 10643 O 993.857 0.268892 6.01299 0
M  V30 10644 H 997.683 1.12843 2.81958 0
M  V30 10645 H 995.268 0.615584 1.36128 0
M  V30 10646 H 997.15 -0.961974 4.10273 0
M  V30 10647 H 995.825 -1.31197 2.95921 0
M  V30 10648 H 994.732 0.906274 3.62957 0
M  V30 10649 H 996.065 1.17327 4.78012 0
M  V30 10650 N 997.718 -1.45297 0.610449 0
M  V30 10651 C 998.965 -2.02218 0.106759 0
M  V30 10652 C 999.293 -1.47849 -1.26376 0
M  V30 10653 O 998.548 -0.644402 -1.84786 0
M  V30 10654 C 998.847 -3.57394 0.0205329 0
M  V30 10655 C 998.513 -4.30928 1.32709 0
M  V30 10656 C 997.175 -4.50735 1.68498 0
M  V30 10657 C 999.527 -4.72936 2.19046 0
M  V30 10658 C 996.855 -5.09806 2.90371 0
M  V30 10659 C 999.207 -5.33355 3.40169 0
M  V30 10660 C 997.871 -5.51384 3.76207 0
M  V30 10661 H 997.141 -0.739969 0.039066 0
M  V30 10662 H 999.788 -1.74326 0.792638 0
M  V30 10663 H 998.093 -3.84581 -0.748623 0
M  V30 10664 H 999.79 -3.99144 -0.385386 0
M  V30 10665 H 996.38 -4.15827 1.03854 0
M  V30 10666 H 1000.56 -4.57365 1.92695 0
M  V30 10667 H 995.82 -5.21953 3.18395 0
M  V30 10668 H 999.994 -5.64859 4.07318 0
M  V30 10669 H 997.621 -5.96924 4.70729 0
M  V30 10670 N 999.196 -0.349774 -1.5367 0
M  V30 10671 C 1000.61 0.00191293 -1.596 0
M  V30 10672 C 1000.81 1.48175 -1.36552 0
M  V30 10673 O 999.868 2.24129 -1.16285 0
M  V30 10674 C 1001.18 -0.439848 -2.97466 0
M  V30 10675 C 1002.73 -0.392721 -3.10526 0
M  V30 10676 C 1003.2 -0.810047 -4.5078 0
M  V30 10677 N 1004.69 -0.764478 -4.56848 0
M  V30 10678 C 1005.43 -1.05927 -5.63531 0
M  V30 10679 N 1004.93 -1.42253 -6.78038 0
M  V30 10680 N 1006.72 -0.983098 -5.53436 0
M  V30 10681 H 998.87 -1.31364 -1.66905 0
M  V30 10682 H 1001.13 -0.535908 -0.781989 0
M  V30 10683 H 1000.84 -1.47189 -3.19419 0
M  V30 10684 H 1000.71 0.181735 -3.76762 0
M  V30 10685 H 1003.1 0.630161 -2.88293 0
M  V30 10686 H 1003.18 -1.04959 -2.33275 0
M  V30 10687 H 1002.82 -1.83097 -4.73749 0
M  V30 10688 H 1002.75 -0.130591 -5.26438 0
M  V30 10689 H 1005.25 -0.496637 -3.74622 0
M  V30 10690 H 1005.56 -1.63215 -7.55368 0
M  V30 10691 H 1003.9 -1.46104 -6.79469 0
M  V30 10692 H 1007.09 -0.698601 -4.62858 0
M  V30 10693 H 1007.27 -1.21618 -6.36485 0
M  V30 10694 N 1000.67 1.57404 -0.0785433 0
M  V30 10695 C 1001.61 2.08724 0.922464 0
M  V30 10696 C 1002.58 0.993912 1.28686 0
M  V30 10697 O 1003.77 1.26776 1.39499 0
M  V30 10698 C 1000.9 2.55051 2.2286 0
M  V30 10699 C 999.942 3.75884 2.01528 0
M  V30 10700 S 1000.77 5.2026 1.26844 0
M  V30 10701 C 1001.93 5.69924 2.58723 0
M  V30 10702 H 1002.16 2.93304 0.485807 0
M  V30 10703 H 999.697 1.53814 0.134377 0
M  V30 10704 H 1001.65 2.82402 2.97926 0
M  V30 10705 H 1000.32 1.70727 2.63649 0
M  V30 10706 H 999.509 4.06311 2.98207 0
M  V30 10707 H 999.111 3.48941 1.34596 0
M  V30 10708 H 1001.4 5.7718 3.5478 0
M  V30 10709 H 1002.35 6.68704 2.32897 0
M  V30 10710 H 1002.75 4.97773 2.66237 0
M  V30 10711 N 1002.15 -0.195058 1.56388 0
M  V30 10712 C 1003.08 -1.24444 1.97575 0
M  V30 10713 C 1004.06 -1.47471 0.847717 0
M  V30 10714 O 1005.25 -1.59208 1.11205 0
M  V30 10715 C 1002.38 -2.58866 2.31529 0
M  V30 10716 C 1001.33 -2.50451 3.47071 0
M  V30 10717 C 1000.66 -3.89146 3.667 0
M  V30 10718 C 1001.96 -2.02953 4.81256 0
M  V30 10719 H 1003.65 -0.902178 2.85484 0
M  V30 10720 H 1001.2 -0.43254 1.3735 0
M  V30 10721 H 1003.15 -3.3246 2.58936 0
M  V30 10722 H 1001.87 -2.94833 1.40502 0
M  V30 10723 H 1000.53 -1.79313 3.19754 0
M  V30 10724 H 1000.18 -4.22466 2.73004 0
M  V30 10725 H 999.882 -3.84391 4.44429 0
M  V30 10726 H 1001.41 -4.64363 3.96484 0
M  V30 10727 H 1002.82 -2.66306 5.07695 0
M  V30 10728 H 1001.22 -2.092 5.62455 0
M  V30 10729 H 1002.29 -0.982757 4.74837 0
M  V30 10730 N 1003.63 -1.50653 -0.462772 0
M  V30 10731 C 1004.91 -1.5258 -1.22387 0
M  V30 10732 C 1005.29 -0.275263 -2.09298 0
M  V30 10733 O 1004.63 0.740943 -2.16153 0
M  V30 10734 C 1004.84 -2.82611 -2.04773 0
M  V30 10735 C 1006.19 -3.33592 -2.62681 0
M  V30 10736 O 1007.22 -2.83989 -2.15008 0
M  V30 10737 O 1006.08 -4.20081 -3.49563 0
M  V30 10738 H 1003.17 -0.612367 -0.55582 0
M  V30 10739 H 1005.72 -1.62948 -0.473914 0
M  V30 10740 H 1004.49 -3.65098 -1.40781 0
M  V30 10741 H 1004.11 -2.75286 -2.86886 0
M  V30 10742 N 1005.11 0.71652 -1.4037 0
M  V30 10743 C 1006.35 1.47857 -1.38803 0
M  V30 10744 C 1006.69 1.94197 0.0100536 0
M  V30 10745 O 1005.96 1.68093 0.978521 0
M  V30 10746 C 1006.25 2.7053 -2.37667 0
M  V30 10747 C 1006.1 2.3009 -3.86496 0
M  V30 10748 C 1007.42 3.72684 -2.34082 0
M  V30 10749 H 1004.54 0.53632 -0.505499 0
M  V30 10750 H 1007.18 0.817824 -1.71498 0
M  V30 10751 H 1005.33 3.26906 -2.09916 0
M  V30 10752 H 1007 1.79202 -4.2507 0
M  V30 10753 H 1005.24 1.62102 -4.02375 0
M  V30 10754 H 1005.91 3.18018 -4.51186 0
M  V30 10755 H 1008.39 3.25935 -2.58661 0
M  V30 10756 H 1007.27 4.56157 -3.05306 0
M  V30 10757 H 1007.53 4.20916 -1.35213 0
M  V30 10758 N 1006.59 1.25851 0.948643 0
M  V30 10759 C 1007.54 1.03437 2.03187 0
M  V30 10760 C 1008.52 -0.0307632 1.60871 0
M  V30 10761 O 1009.71 0.185296 1.76027 0
M  V30 10762 C 1006.84 0.661426 3.36868 0
M  V30 10763 C 1005.93 1.76363 3.8569 0
M  V30 10764 N 1006.32 2.9998 4.07241 0
M  V30 10765 C 1004.62 1.64552 4.14534 0
M  V30 10766 C 1005.32 3.71564 4.47566 0
M  V30 10767 N 1004.29 2.99214 4.53841 0
M  V30 10768 H 1008.1 1.97277 2.17851 0
M  V30 10769 H 1005.61 1.16258 1.13392 0
M  V30 10770 H 1007.61 0.482021 4.14104 0
M  V30 10771 H 1006.27 -0.269582 3.23579 0
M  V30 10772 H 1007.28 3.35963 3.94143 0
M  V30 10773 H 1003.95 0.783891 4.10075 0
M  V30 10774 H 1005.34 4.77702 4.72494 0
M  V30 10775 N 1008.06 -1.15214 1.07534 0
M  V30 10776 C 1009 -2.18999 0.641461 0
M  V30 10777 C 1009.98 -1.58958 -0.342238 0
M  V30 10778 O 1011.16 -1.86859 -0.248218 0
M  V30 10779 C 1008.29 -3.38651 -0.0577939 0
M  V30 10780 C 1007.33 -4.17225 0.884641 0
M  V30 10781 S 1008.17 -4.79375 2.38663 0
M  V30 10782 C 1009.32 -6.02393 1.69923 0
M  V30 10783 H 1009.55 -2.55464 1.52071 0
M  V30 10784 H 1007.09 -1.26205 0.889481 0
M  V30 10785 H 1009.05 -4.07971 -0.454982 0
M  V30 10786 H 1007.71 -3.00526 -0.913407 0
M  V30 10787 H 1006.9 -5.02837 0.342133 0
M  V30 10788 H 1006.5 -3.53463 1.2223 0
M  V30 10789 H 1008.79 -6.69899 1.01201 0
M  V30 10790 H 1009.74 -6.61216 2.53375 0
M  V30 10791 H 1010.14 -5.52106 1.1764 0
M  V30 10792 N 1009.54 -0.859717 -1.32086 0
M  V30 10793 C 1010.49 -0.279715 -2.26278 0
M  V30 10794 C 1011.48 0.577348 -1.50185 0
M  V30 10795 O 1012.67 0.425903 -1.71799 0
M  V30 10796 C 1009.8 0.526622 -3.39237 0
M  V30 10797 C 1008.88 -0.343112 -4.2271 0
M  V30 10798 N 1009.27 -1.43176 -4.85113 0
M  V30 10799 C 1007.57 -0.133744 -4.45799 0
M  V30 10800 C 1008.27 -1.96725 -5.47425 0
M  V30 10801 N 1007.25 -1.26569 -5.2866 0
M  V30 10802 H 1011.05 -1.11191 -2.72055 0
M  V30 10803 H 1008.57 -0.706372 -1.46233 0
M  V30 10804 H 1010.56 0.958587 -4.0573 0
M  V30 10805 H 1009.22 1.35655 -2.95005 0
M  V30 10806 H 1010.23 -1.81469 -4.85066 0
M  V30 10807 H 1006.91 0.661064 -4.12233 0
M  V30 10808 H 1008.3 -2.88006 -6.07044 0
M  V30 10809 N 1011.02 1.44971 -0.618145 0
M  V30 10810 C 1011.98 2.29044 0.0846739 0
M  V30 10811 C 1012.98 1.40341 0.784921 0
M  V30 10812 O 1014.17 1.62351 0.631479 0
M  V30 10813 C 1011.31 3.21617 1.13027 0
M  V30 10814 H 1012.5 2.92668 -0.654612 0
M  V30 10815 H 1010.05 1.51668 -0.377672 0
M  V30 10816 H 1010.79 2.62815 1.89997 0
M  V30 10817 H 1010.57 3.86969 0.63224 0
M  V30 10818 H 1012.06 3.84805 1.62218 0
M  V30 10819 N 1012.5 0.357919 1.53482 0
M  V30 10820 C 1013.78 -0.290164 1.93436 0
M  V30 10821 C 1014.16 -1.67039 1.29079 0
M  V30 10822 O 1013.5 -2.24085 0.447017 0
M  V30 10823 C 1013.71 -0.348055 3.4726 0
M  V30 10824 C 1015.06 -0.59206 4.20452 0
M  V30 10825 O 1016.09 -0.429581 3.536 0
M  V30 10826 O 1014.94 -0.907855 5.38907 0
M  V30 10827 H 1012.04 -0.172312 0.80885 0
M  V30 10828 H 1014.58 0.410144 1.64669 0
M  V30 10829 H 1013.36 0.619953 3.86358 0
M  V30 10830 H 1012.98 -1.09457 3.82237 0
M  V30 10831 N 1013.98 -1.5736 0.0868897 0
M  V30 10832 C 1014.94 -2.12436 -0.860439 0
M  V30 10833 C 1015.94 -1.05175 -1.21634 0
M  V30 10834 O 1017.13 -1.31098 -1.14713 0
M  V30 10835 C 1014.26 -2.63818 -2.159 0
M  V30 10836 H 1015.45 -2.97453 -0.382346 0
M  V30 10837 H 1013.01 -1.55458 -0.162009 0
M  V30 10838 H 1013.74 -1.82298 -2.68212 0
M  V30 10839 H 1013.53 -3.42234 -1.91359 0
M  V30 10840 H 1015.02 -3.06452 -2.83685 0
M  V30 10841 N 1015.45 0.186762 -1.56489 0
M  V30 10842 C 1016.7 0.904077 -1.80303 0
M  V30 10843 C 1017.02 1.84073 -0.661538 0
M  V30 10844 O 1018.22 2.59928 -0.784197 0
M  V30 10845 C 1016.68 1.65806 -3.19432 0
M  V30 10846 C 1016.29 0.765807 -4.41406 0
M  V30 10847 C 1018.03 2.36451 -3.52549 0
M  V30 10848 C 1015.94 1.51913 -5.71556 0
M  V30 10849 H 1014.87 0.34133 -0.672317 0
M  V30 10850 H 1017.52 0.157218 -1.82825 0
M  V30 10851 H 1015.9 2.44911 -3.11183 0
M  V30 10852 H 1017.07 0.0128225 -4.60798 0
M  V30 10853 H 1015.39 0.169772 -4.16054 0
M  V30 10854 H 1017.99 2.93378 -4.47027 0
M  V30 10855 H 1018.33 3.11044 -2.7669 0
M  V30 10856 H 1018.86 1.64305 -3.62283 0
M  V30 10857 H 1015.6 0.815829 -6.50403 0
M  V30 10858 H 1015.12 2.24583 -5.56168 0
M  V30 10859 H 1016.8 2.07073 -6.12968 0
M  V30 10860 N 1016.93 1.50896 0.454776 0
M  V30 10861 C 1017.88 1.67333 1.54867 0
M  V30 10862 C 1018.87 0.527576 1.52005 0
M  V30 10863 O 1020.06 0.782726 1.58753 0
M  V30 10864 C 1017.19 1.7858 2.93196 0
M  V30 10865 C 1016.27 2.98884 3.0088 0
M  V30 10866 N 1016.66 4.22326 2.78343 0
M  V30 10867 C 1014.96 2.97779 3.32029 0
M  V30 10868 C 1015.66 5.03439 2.91418 0
M  V30 10869 N 1014.64 4.37725 3.22332 0
M  V30 10870 H 1018.44 2.60453 1.36167 0
M  V30 10871 H 1015.96 1.48304 0.661797 0
M  V30 10872 H 1017.95 1.88463 3.7187 0
M  V30 10873 H 1016.61 0.866296 3.1293 0
M  V30 10874 H 1017.62 4.51557 2.53607 0
M  V30 10875 H 1014.3 2.15393 3.57648 0
M  V30 10876 H 1015.69 6.11648 2.78095 0
M  V30 10877 N 1018.41 -0.709066 1.40748 0
M  V30 10878 C 1019.83 -1.01797 1.22921 0
M  V30 10879 C 1020.03 -2.01205 0.109011 0
M  V30 10880 O 1019.08 -2.46854 -0.530987 0
M  V30 10881 C 1020.4 -1.55546 2.57344 0
M  V30 10882 C 1021.94 -1.67498 2.64412 0
M  V30 10883 C 1022.42 -2.24652 3.99119 0
M  V30 10884 N 1023.91 -2.3203 4.00895 0
M  V30 10885 C 1024.64 -2.7725 5.01917 0
M  V30 10886 N 1024.14 -3.22174 6.13332 0
M  V30 10887 N 1025.93 -2.76692 4.89283 0
M  V30 10888 H 1018.08 -0.0502704 2.12341 0
M  V30 10889 H 1020.35 -0.0848933 0.944191 0
M  V30 10890 H 1020.05 -0.899631 3.39999 0
M  V30 10891 H 1019.93 -2.53971 2.78888 0
M  V30 10892 H 1022.31 -2.32196 1.82123 0
M  V30 10893 H 1022.4 -0.676553 2.46691 0
M  V30 10894 H 1022.04 -1.60573 4.81849 0
M  V30 10895 H 1021.97 -3.25221 4.14173 0
M  V30 10896 H 1024.46 -2.00309 3.20444 0
M  V30 10897 H 1024.77 -3.55265 6.86299 0
M  V30 10898 H 1023.12 -3.20116 6.16888 0
M  V30 10899 H 1026.31 -2.40936 4.01332 0
M  V30 10900 H 1026.48 -3.11617 5.68154 0
M  V30 10901 N 1019.89 -1.26353 -0.941956 0
M  V30 10902 C 1021.14 -1.1163 -1.68473 0
M  V30 10903 C 1021.46 0.34108 -1.91994 0
M  V30 10904 O 1020.73 1.24065 -1.51607 0
M  V30 10905 H 1019.31 -0.410113 -0.624353 0
M  V30 10906 H 1021.97 -1.58669 -1.13182 0
M  V30 10907 H 1021.07 -1.63445 -2.6588 0
M  V30 10908 N 1021.37 1.14642 -1.08144 0
M  V30 10909 C 1022.33 2.17834 -0.712799 0
M  V30 10910 C 1023.33 1.58828 0.251041 0
M  V30 10911 O 1024.52 1.74173 0.0309381 0
M  V30 10912 C 1021.65 3.4086 -0.0519477 0
M  V30 10913 H 1022.85 2.51961 -1.62653 0
M  V30 10914 H 1020.4 1.29243 -0.878971 0
M  V30 10915 H 1021.13 3.12311 0.873636 0
M  V30 10916 H 1020.92 3.84952 -0.745286 0
M  V30 10917 H 1022.41 4.17163 0.191031 0
M  V30 10918 N 1022.85 0.866709 1.31628 0
M  V30 10919 C 1024.09 0.475086 1.96437 0
M  V30 10920 C 1024.41 -0.975179 1.68865 0
M  V30 10921 O 1023.68 -1.68317 1.0023 0
M  V30 10922 H 1022.26 0.172695 0.726764 0
M  V30 10923 H 1024.93 1.10578 1.60494 0
M  V30 10924 H 1024.02 0.630123 3.05673 0
M  V30 10925 N 1024.32 -1.44642 0.625825 0
M  V30 10926 C 1025.26 -2.28882 -0.120614 0
M  V30 10927 C 1026.27 -1.40985 -0.81407 0
M  V30 10928 O 1027.46 -1.65188 -0.676404 0
M  V30 10929 C 1024.56 -3.17217 -1.19274 0
M  V30 10930 C 1023.73 -4.33499 -0.582839 0
M  V30 10931 C 1022.79 -5.02908 -1.54823 0
M  V30 10932 O 1021.82 -5.59102 -1.06743 0
M  V30 10933 N 1023.02 -5.0387 -2.88262 0
M  V30 10934 H 1025.78 -2.93585 0.602318 0
M  V30 10935 H 1023.34 -1.5503 0.466604 0
M  V30 10936 H 1025.34 -3.60515 -1.83878 0
M  V30 10937 H 1023.91 -2.54301 -1.81797 0
M  V30 10938 H 1023.13 -3.93458 0.241696 0
M  V30 10939 H 1024.41 -5.08561 -0.155914 0
M  V30 10940 H 1023.81 -4.59539 -3.2991 0
M  V30 10941 H 1022.37 -5.50974 -3.4824 0
M  V30 10942 N 1025.8 -0.366053 -1.5329 0
M  V30 10943 C 1027.05 0.224614 -2.00445 0
M  V30 10944 C 1027.36 1.49829 -1.2574 0
M  V30 10945 O 1028.57 2.16759 -1.63487 0
M  V30 10946 C 1027.03 0.450818 -3.57065 0
M  V30 10947 C 1026.63 -0.808257 -4.40649 0
M  V30 10948 C 1028.38 0.999116 -4.12575 0
M  V30 10949 C 1026.28 -0.551612 -5.88822 0
M  V30 10950 H 1025.21 0.0877114 -0.748881 0
M  V30 10951 H 1027.87 -0.484866 -1.76978 0
M  V30 10952 H 1026.25 1.22157 -3.76688 0
M  V30 10953 H 1027.42 -1.58184 -4.32798 0
M  V30 10954 H 1025.74 -1.27981 -3.96245 0
M  V30 10955 H 1028.33 1.20646 -5.20911 0
M  V30 10956 H 1028.68 1.96139 -3.67199 0
M  V30 10957 H 1029.21 0.288518 -3.96752 0
M  V30 10958 H 1025.95 -1.48423 -6.38475 0
M  V30 10959 H 1025.47 0.183462 -5.99519 0
M  V30 10960 H 1027.15 -0.177307 -6.46757 0
M  V30 10961 N 1027.28 1.57312 -0.0952337 0
M  V30 10962 C 1028.21 2.09691 0.900274 0
M  V30 10963 C 1029.19 1.0075 1.27625 0
M  V30 10964 O 1030.37 1.28249 1.38147 0
M  V30 10965 C 1027.5 2.574 2.20142 0
M  V30 10966 C 1026.55 3.78 1.9753 0
M  V30 10967 S 1027.38 5.21577 1.21318 0
M  V30 10968 C 1028.54 5.72636 2.52663 0
M  V30 10969 H 1028.77 2.93803 0.45467 0
M  V30 10970 H 1026.3 1.53948 0.118056 0
M  V30 10971 H 1028.26 2.85546 2.94914 0
M  V30 10972 H 1026.92 1.73514 2.61824 0
M  V30 10973 H 1026.11 4.09451 2.93881 0
M  V30 10974 H 1025.72 3.50349 1.30888 0
M  V30 10975 H 1028.01 5.80911 3.48638 0
M  V30 10976 H 1028.95 6.71136 2.25791 0
M  V30 10977 H 1029.36 5.00569 2.60943 0
M  V30 10978 N 1028.76 -0.17846 1.56586 0
M  V30 10979 C 1030.17 -0.741599 1.71339 0
M  V30 10980 C 1030.52 -1.83112 0.704579 0
M  V30 10981 O 1029.64 -2.15975 -0.135557 0
M  V30 10982 C 1030.24 -1.35198 3.10656 0
M  V30 10983 C 1028.8 -1.86202 3.27118 0
M  V30 10984 C 1027.95 -0.738255 2.67292 0
M  V30 10985 H 1030.9 0.0468424 1.58631 0
M  V30 10986 H 1030.92 -2.2216 3.0891 0
M  V30 10987 H 1030.43 -0.558776 3.84056 0
M  V30 10988 H 1028.53 -2.68188 2.58661 0
M  V30 10989 H 1028.64 -2.01237 4.34788 0
M  V30 10990 H 1027.01 -1.15686 2.26912 0
M  V30 10991 H 1027.79 0.0429821 3.43273 0
M  V30 10992 N 1030.24 -1.51135 -0.446768 0
M  V30 10993 C 1031.2 -1.71187 -1.52406 0
M  V30 10994 C 1032.2 -0.582037 -1.49897 0
M  V30 10995 O 1033.39 -0.849452 -1.52085 0
M  V30 10996 C 1030.52 -1.75962 -2.91976 0
M  V30 10997 H 1031.71 -2.67324 -1.35934 0
M  V30 10998 H 1029.27 -1.40982 -0.674813 0
M  V30 10999 H 1030 -0.816065 -3.13864 0
M  V30 11000 H 1029.79 -2.58065 -2.95203 0
M  V30 11001 H 1031.28 -1.93347 -3.70144 0
M  V30 11002 N 1031.71 0.701592 -1.41122 0
M  V30 11003 C 1032.95 1.4739 -1.41618 0
M  V30 11004 C 1033.32 1.91987 -0.0219443 0
M  V30 11005 O 1034.52 2.6862 0.0982793 0
M  V30 11006 C 1032.79 2.65745 -2.38986 0
M  V30 11007 S 1034.35 3.54968 -2.5796 0
M  V30 11008 H 1031.17 0.503742 -0.501762 0
M  V30 11009 H 1033.77 0.819186 -1.77509 0
M  V30 11010 H 1032.47 2.31176 -3.39096 0
M  V30 11011 H 1032 3.36115 -2.04426 0
M  V30 11012 H 1034.02 4.60724 -1.84249 0
M  V30 11013 N 1033.19 1.2685 0.935242 0
M  V30 11014 C 1034.14 1.08923 2.03481 0
M  V30 11015 C 1035.11 -0.00749786 1.66098 0
M  V30 11016 O 1036.29 0.153401 1.90182 0
M  V30 11017 C 1033.43 0.734529 3.37192 0
M  V30 11018 C 1032.55 1.90812 3.87576 0
M  V30 11019 C 1031.68 1.49599 5.097 0
M  V30 11020 C 1030.72 2.63752 5.5236 0
M  V30 11021 N 1029.86 2.23179 6.65684 0
M  V30 11022 H 1034.7 2.03016 2.18148 0
M  V30 11023 H 1032.23 1.01072 1.06878 0
M  V30 11024 H 1034.19 0.509734 4.14074 0
M  V30 11025 H 1032.82 -0.169438 3.22355 0
M  V30 11026 H 1031.87 2.24567 3.0704 0
M  V30 11027 H 1033.19 2.7647 4.1517 0
M  V30 11028 H 1032.34 1.23199 5.9406 0
M  V30 11029 H 1031.08 0.61039 4.83865 0
M  V30 11030 H 1030.08 2.90874 4.66554 0
M  V30 11031 H 1031.31 3.5292 5.80193 0
M  V30 11032 H 1029.26 1.37061 6.41522 0
M  V30 11033 H 1029.17 3.02379 6.92895 0
M  V30 11034 H 1030.44 2.00007 7.53404 0
M  V30 11035 N 1034.67 -1.14067 1.0875 0
M  V30 11036 C 1035.62 -2.19261 0.720633 0
M  V30 11037 C 1036.59 -1.63462 -0.294847 0
M  V30 11038 O 1037.77 -1.89967 -0.178058 0
M  V30 11039 C 1034.91 -3.44816 0.139873 0
M  V30 11040 C 1034.03 -4.1475 1.20856 0
M  V30 11041 C 1033.16 -5.27899 0.591285 0
M  V30 11042 C 1032.2 -5.89672 1.64176 0
M  V30 11043 N 1031.34 -6.94264 1.04603 0
M  V30 11044 H 1036.18 -2.49991 1.62198 0
M  V30 11045 H 1033.71 -1.22757 0.810497 0
M  V30 11046 H 1035.67 -4.16648 -0.214587 0
M  V30 11047 H 1034.3 -3.14558 -0.724774 0
M  V30 11048 H 1033.35 -3.41272 1.6804 0
M  V30 11049 H 1034.67 -4.56753 2.00446 0
M  V30 11050 H 1033.82 -6.06417 0.185271 0
M  V30 11051 H 1032.56 -4.87128 -0.236236 0
M  V30 11052 H 1031.56 -5.09854 2.05739 0
M  V30 11053 H 1032.79 -6.32517 2.47182 0
M  V30 11054 H 1030.73 -6.55562 0.239664 0
M  V30 11055 H 1030.65 -7.34771 1.77898 0
M  V30 11056 H 1031.92 -7.7665 0.665989 0
M  V30 11057 N 1036.15 -0.873678 -1.31166 0
M  V30 11058 C 1037.39 -0.493006 -1.98365 0
M  V30 11059 C 1037.75 0.937973 -1.67529 0
M  V30 11060 O 1038.95 1.42419 -2.2797 0
M  V30 11061 C 1037.22 -0.747128 -3.49504 0
M  V30 11062 S 1038.78 -0.466869 -4.36309 0
M  V30 11063 H 1035.6 -0.183882 -0.68681 0
M  V30 11064 H 1038.2 -1.13051 -1.59499 0
M  V30 11065 H 1036.91 -1.78731 -3.69437 0
M  V30 11066 H 1036.44 -0.096761 -3.93281 0
M  V30 11067 H 1038.45 0.699298 -4.91248 0
M  V30 11068 N 1037.63 1.44308 -0.633487 0
M  V30 11069 C 1038.88 2.01239 -0.136356 0
M  V30 11070 C 1039.19 1.50438 1.25011 0
M  V30 11071 O 1040.39 1.99513 1.84138 0
M  V30 11072 C 1038.85 3.59382 -0.193011 0
M  V30 11073 C 1038.46 4.19178 -1.58093 0
M  V30 11074 C 1040.2 4.23778 0.247534 0
M  V30 11075 C 1038.11 5.69553 -1.59258 0
M  V30 11076 H 1037.04 0.752521 -0.0472109 0
M  V30 11077 H 1039.69 1.65498 -0.79263 0
M  V30 11078 H 1038.07 3.92432 0.530408 0
M  V30 11079 H 1039.25 3.97662 -2.32813 0
M  V30 11080 H 1037.56 3.67079 -1.96576 0
M  V30 11081 H 1040.16 5.34075 0.258401 0
M  V30 11082 H 1040.5 3.96285 1.27529 0
M  V30 11083 H 1041.03 3.9554 -0.423469 0
M  V30 11084 H 1037.77 6.01784 -2.59878 0
M  V30 11085 H 1037.29 5.93185 -0.888352 0
M  V30 11086 H 1038.97 6.33234 -1.32756 0
M  V30 11087 N 1039.1 0.374177 1.53094 0
M  V30 11088 C 1040.33 -0.213015 2.05499 0
M  V30 11089 C 1040.74 -1.42303 1.24686 0
M  V30 11090 O 1040.09 -1.81512 0.282702 0
M  V30 11091 C 1040.15 -0.662308 3.53346 0
M  V30 11092 C 1039.81 0.432183 4.54952 0
M  V30 11093 C 1040.81 1.2848 5.03775 0
M  V30 11094 C 1038.49 0.594887 4.98765 0
M  V30 11095 C 1040.49 2.28538 5.9502 0
M  V30 11096 C 1038.17 1.59882 5.89814 0
M  V30 11097 C 1039.17 2.4425 6.37833 0
M  V30 11098 O 1038.86 3.4293 7.27086 0
M  V30 11099 H 1038.59 -0.0393809 0.674852 0
M  V30 11100 H 1041.15 0.533423 1.98353 0
M  V30 11101 H 1039.38 -1.46049 3.5806 0
M  V30 11102 H 1041.07 -1.17347 3.88567 0
M  V30 11103 H 1041.83 1.17033 4.70668 0
M  V30 11104 H 1037.71 -0.0520401 4.60971 0
M  V30 11105 H 1041.25 2.94426 6.32423 0
M  V30 11106 H 1037.15 1.71373 6.22335 0
M  V30 11107 H 1037.92 3.3876 7.45107 0
M  V30 11108 N 1040.58 -1.57259 0.103575 0
M  V30 11109 C 1041.55 -2.13337 -0.837859 0
M  V30 11110 C 1042.55 -1.06459 -1.20512 0
M  V30 11111 O 1043.74 -1.32307 -1.13316 0
M  V30 11112 C 1040.87 -2.66093 -2.13089 0
M  V30 11113 H 1042.06 -2.97842 -0.350775 0
M  V30 11114 H 1039.61 -1.55621 -0.145511 0
M  V30 11115 H 1040.35 -1.85133 -2.66264 0
M  V30 11116 H 1040.13 -3.44244 -1.87719 0
M  V30 11117 H 1041.62 -3.09443 -2.80419 0
M  V30 11118 N 1042.06 0.170153 -1.56679 0
M  V30 11119 C 1043.3 0.893073 -1.83857 0
M  V30 11120 C 1043.66 1.79378 -0.684661 0
M  V30 11121 O 1044.87 2.55439 -0.836926 0
M  V30 11122 C 1043.14 1.66679 -3.16153 0
M  V30 11123 S 1044.7 2.43831 -3.64818 0
M  V30 11124 H 1041.51 0.299091 -0.645031 0
M  V30 11125 H 1044.12 0.154628 -1.94888 0
M  V30 11126 H 1042.82 0.996152 -3.98127 0
M  V30 11127 H 1042.35 2.44658 -3.08068 0
M  V30 11128 H 1044.37 3.68555 -3.32237 0
M  V30 11129 N 1043.54 1.5137 0.438746 0
M  V30 11130 C 1044.45 1.75424 1.55768 0
M  V30 11131 C 1045.46 0.638409 1.61865 0
M  V30 11132 O 1046.64 0.9205 1.79133 0
M  V30 11133 C 1043.71 1.87288 2.9176 0
M  V30 11134 C 1042.77 3.11137 2.95791 0
M  V30 11135 C 1042 3.22425 4.25297 0
M  V30 11136 O 1042.22 2.39688 5.17596 0
M  V30 11137 O 1041.16 4.15393 4.35583 0
M  V30 11138 H 1044.98 2.70339 1.38386 0
M  V30 11139 H 1042.57 1.35854 0.621609 0
M  V30 11140 H 1044.45 1.97085 3.72472 0
M  V30 11141 H 1043.12 0.955599 3.09273 0
M  V30 11142 H 1042.03 3.06819 2.1404 0
M  V30 11143 H 1043.36 4.02549 2.83223 0
M  V30 11144 N 1045.02 -0.694098 1.41492 0
M  V30 11145 C 1045.95 -1.82042 1.46229 0
M  V30 11146 C 1046.93 -1.67047 0.320803 0
M  V30 11147 O 1048.11 -1.86758 0.53245 0
M  V30 11148 C 1045.24 -3.2019 1.34519 0
M  V30 11149 C 1044.2 -3.49892 2.46495 0
M  V30 11150 C 1043.52 -4.87411 2.1985 0
M  V30 11151 C 1044.82 -3.4872 3.88834 0
M  V30 11152 H 1046.52 -1.78335 2.40493 0
M  V30 11153 H 1044.06 -0.856566 1.15754 0
M  V30 11154 H 1046.02 -3.98699 1.36445 0
M  V30 11155 H 1044.74 -3.24527 0.367406 0
M  V30 11156 H 1043.4 -2.73734 2.43854 0
M  V30 11157 H 1043.05 -4.88375 1.20411 0
M  V30 11158 H 1042.75 -5.08248 2.94885 0
M  V30 11159 H 1044.27 -5.68228 2.23494 0
M  V30 11160 H 1045.68 -4.1723 3.93182 0
M  V30 11161 H 1044.08 -3.81089 4.63564 0
M  V30 11162 H 1045.15 -2.47665 4.16881 0
M  V30 11163 N 1046.49 -1.27344 -0.928501 0
M  V30 11164 C 1047.72 -1.16447 -1.7102 0
M  V30 11165 C 1048.14 0.278799 -1.8673 0
M  V30 11166 O 1047.49 1.18989 -1.38376 0
M  V30 11167 C 1047.55 -1.84242 -3.11026 0
M  V30 11168 O 1047.27 -3.2293 -2.96054 0
M  V30 11169 C 1048.77 -1.7946 -4.05351 0
M  V30 11170 H 1045.99 -0.404898 -0.535069 0
M  V30 11171 H 1048.53 -1.68201 -1.16313 0
M  V30 11172 H 1046.69 -1.36395 -3.62595 0
M  V30 11173 H 1047.1 -3.5667 -3.8456 0
M  V30 11174 H 1048.57 -2.31511 -5.01105 0
M  V30 11175 H 1049.05 -0.763771 -4.32508 0
M  V30 11176 H 1049.66 -2.26918 -3.59706 0
M  V30 11177 N 1047.97 1.13488 -1.09353 0
M  V30 11178 C 1048.94 2.17066 -0.735863 0
M  V30 11179 C 1049.94 1.59086 0.234181 0
M  V30 11180 O 1051.13 1.74196 0.012463 0
M  V30 11181 C 1048.26 3.40786 -0.0880975 0
M  V30 11182 H 1049.45 2.50221 -1.65316 0
M  V30 11183 H 1047 1.28304 -0.89263 0
M  V30 11184 H 1047.74 3.1322 0.840462 0
M  V30 11185 H 1047.52 3.8414 -0.786073 0
M  V30 11186 H 1049.01 4.17342 0.146775 0
M  V30 11187 N 1049.45 0.880621 1.30701 0
M  V30 11188 C 1050.7 0.496875 1.96309 0
M  V30 11189 C 1051.03 -0.953064 1.69549 0
M  V30 11190 O 1050.28 -1.68782 0.990507 0
M  V30 11191 C 1050.58 0.713203 3.50212 0
M  V30 11192 C 1050.25 2.13756 3.97013 0
M  V30 11193 C 1048.91 2.52706 4.09503 0
M  V30 11194 C 1051.26 3.066 4.21481 0
M  V30 11195 C 1048.59 3.8372 4.43819 0
M  V30 11196 C 1050.94 4.3714 4.57265 0
M  V30 11197 C 1049.6 4.7599 4.67963 0
M  V30 11198 H 1048.87 0.18182 0.718347 0
M  V30 11199 H 1051.52 1.11564 1.55646 0
M  V30 11200 H 1049.83 0.0113694 3.91798 0
M  V30 11201 H 1051.52 0.39595 3.9904 0
M  V30 11202 H 1048.11 1.8252 3.87794 0
M  V30 11203 H 1052.3 2.77729 4.11315 0
M  V30 11204 H 1047.55 4.13568 4.50301 0
M  V30 11205 H 1051.73 5.09123 4.75149 0
M  V30 11206 H 1049.35 5.77549 4.94309 0
M  V30 11207 N 1050.93 -1.4397 0.641131 0
M  V30 11208 C 1052.34 -1.85267 0.230838 0
M  V30 11209 C 1052.69 -1.53659 -1.21998 0
M  V30 11210 O 1051.82 -0.979572 -1.92959 0
M  V30 11211 C 1052.41 -3.36284 0.412171 0
M  V30 11212 C 1050.97 -3.76358 0.0563004 0
M  V30 11213 C 1050.12 -2.67768 0.720809 0
M  V30 11214 H 1053.07 -1.34294 0.845624 0
M  V30 11215 H 1053.09 -3.78924 -0.345936 0
M  V30 11216 H 1052.6 -3.59258 1.46818 0
M  V30 11217 H 1050.7 -3.58997 -0.997582 0
M  V30 11218 H 1050.82 -4.76756 0.473335 0
M  V30 11219 H 1049.18 -2.54227 0.155164 0
M  V30 11220 H 1049.96 -2.93573 1.77961 0
M  V30 11221 N 1052.41 -0.382291 -1.52893 0
M  V30 11222 C 1053.82 -0.031941 -1.59568 0
M  V30 11223 C 1054.02 1.45245 -1.39664 0
M  V30 11224 O 1053.08 2.21612 -1.21013 0
M  V30 11225 C 1054.39 -0.502846 -2.96466 0
M  V30 11226 C 1055.94 -0.4585 -3.09624 0
M  V30 11227 C 1056.42 -0.905481 -4.4896 0
M  V30 11228 N 1057.91 -0.861211 -4.55124 0
M  V30 11229 C 1058.64 -1.17856 -5.61157 0
M  V30 11230 N 1058.14 -1.56603 -6.74868 0
M  V30 11231 N 1059.93 -1.10027 -5.51226 0
M  V30 11232 H 1052.08 -1.34875 -1.64081 0
M  V30 11233 H 1054.34 -0.552375 -0.770446 0
M  V30 11234 H 1054.05 -1.53931 -3.16225 0
M  V30 11235 H 1053.92 0.101777 -3.77063 0
M  V30 11236 H 1056.31 0.568868 -2.89565 0
M  V30 11237 H 1056.39 -1.09884 -2.30996 0
M  V30 11238 H 1056.04 -1.93105 -4.69759 0
M  V30 11239 H 1055.97 -0.242227 -5.26043 0
M  V30 11240 H 1058.46 -0.575988 -3.73485 0
M  V30 11241 H 1058.77 -1.792 -7.51736 0
M  V30 11242 H 1057.12 -1.60484 -6.76217 0
M  V30 11243 H 1060.31 -0.796623 -4.61272 0
M  V30 11244 H 1060.48 -1.35091 -6.33762 0
M  V30 11245 N 1053.89 1.57202 -0.111913 0
M  V30 11246 C 1054.82 2.17957 0.837683 0
M  V30 11247 C 1055.8 1.1176 1.28233 0
M  V30 11248 O 1056.98 1.39967 1.34621 0
M  V30 11249 C 1054.11 2.77333 2.09054 0
M  V30 11250 C 1053.07 3.8905 1.78393 0
M  V30 11251 C 1052.39 4.35203 3.10649 0
M  V30 11252 C 1053.69 5.11477 1.05775 0
M  V30 11253 H 1055.39 2.9756 0.331441 0
M  V30 11254 H 1052.93 1.43131 0.157979 0
M  V30 11255 H 1054.88 3.18492 2.75936 0
M  V30 11256 H 1053.61 1.95009 2.6199 0
M  V30 11257 H 1052.27 3.48456 1.13903 0
M  V30 11258 H 1051.92 3.49747 3.61506 0
M  V30 11259 H 1051.62 5.10534 2.9091 0
M  V30 11260 H 1053.14 4.79007 3.78661 0
M  V30 11261 H 1054.55 5.497 1.62798 0
M  V30 11262 H 1052.95 5.92346 0.961573 0
M  V30 11263 H 1054.02 4.84881 0.043297 0
M  V30 11264 N 1055.36 -0.161842 1.56767 0
M  V30 11265 C 1056.61 -0.878224 1.82798 0
M  V30 11266 C 1056.94 -1.81481 0.691242 0
M  V30 11267 O 1056.22 -1.92075 -0.30618 0
M  V30 11268 C 1056.5 -1.66565 3.19262 0
M  V30 11269 C 1056.35 -0.751551 4.43477 0
M  V30 11270 C 1057.67 -2.63134 3.52773 0
M  V30 11271 H 1054.79 -0.317828 0.664947 0
M  V30 11272 H 1057.43 -0.14402 1.89453 0
M  V30 11273 H 1055.58 -2.29157 3.13719 0
M  V30 11274 H 1057.26 -0.137783 4.61094 0
M  V30 11275 H 1055.5 -0.0601785 4.33758 0
M  V30 11276 H 1056.17 -1.33823 5.35533 0
M  V30 11277 H 1058.65 -2.10666 3.5883 0
M  V30 11278 H 1057.52 -3.15289 4.49315 0
M  V30 11279 H 1057.78 -3.43786 2.77963 0
M  V30 11280 N 1056.84 -1.516 -0.430713 0
M  V30 11281 C 1057.75 -1.76247 -1.54836 0
M  V30 11282 C 1058.77 -0.646985 -1.61524 0
M  V30 11283 O 1059.94 -0.929987 -1.78643 0
M  V30 11284 C 1057.01 -1.88833 -2.90763 0
M  V30 11285 C 1056.07 -3.12701 -2.94137 0
M  V30 11286 C 1055.3 -3.24676 -4.23581 0
M  V30 11287 O 1055.53 -2.42429 -5.16318 0
M  V30 11288 O 1054.46 -4.17697 -4.33374 0
M  V30 11289 H 1058.29 -2.71069 -1.3695 0
M  V30 11290 H 1055.87 -1.36182 -0.614396 0
M  V30 11291 H 1057.75 -1.99057 -3.71422 0
M  V30 11292 H 1056.43 -0.971987 -3.08762 0
M  V30 11293 H 1055.33 -3.0795 -2.1241 0
M  V30 11294 H 1056.67 -4.04045 -2.81084 0
M  V30 11295 N 1058.32 0.686584 -1.41858 0
M  V30 11296 C 1059.73 1.26682 -1.37145 0
M  V30 11297 C 1060.08 1.96112 -0.058922 0
M  V30 11298 O 1059.21 1.99321 0.842629 0
M  V30 11299 C 1059.8 2.30383 -2.48413 0
M  V30 11300 C 1058.36 2.83961 -2.47069 0
M  V30 11301 C 1057.51 1.58119 -2.27802 0
M  V30 11302 H 1060.46 0.480742 -1.51243 0
M  V30 11303 H 1060.48 3.11868 -2.17987 0
M  V30 11304 H 1059.99 1.79822 -3.43927 0
M  V30 11305 H 1058.09 3.38675 -1.55338 0
M  V30 11306 H 1058.21 3.3378 -3.43697 0
M  V30 11307 H 1056.57 1.84258 -1.75844 0
M  V30 11308 H 1057.35 1.09541 -3.25355 0
M  V30 11309 N 1059.8 1.27835 0.921735 0
M  V30 11310 C 1061.05 1.13904 1.6646 0
M  V30 11311 C 1061.36 -0.313379 1.93073 0
M  V30 11312 O 1062.57 -0.573687 2.6537 0
M  V30 11313 C 1061.02 1.99064 2.99836 0
M  V30 11314 C 1060.63 3.48998 2.80899 0
M  V30 11315 C 1062.37 1.93797 3.77681 0
M  V30 11316 C 1060.28 4.26337 4.09867 0
M  V30 11317 H 1059.21 0.422681 0.624385 0
M  V30 11318 H 1061.86 1.52303 1.02352 0
M  V30 11319 H 1060.24 1.53514 3.65034 0
M  V30 11320 H 1061.42 4.02452 2.24431 0
M  V30 11321 H 1059.73 3.55707 2.16476 0
M  V30 11322 H 1062.33 2.48852 4.73262 0
M  V30 11323 H 1062.67 0.912928 4.06167 0
M  V30 11324 H 1063.21 2.37275 3.19289 0
M  V30 11325 H 1059.94 5.2939 3.86557 0
M  V30 11326 H 1059.46 3.77659 4.65976 0
M  V30 11327 H 1061.14 4.3583 4.78185 0
M  V30 11328 N 1061.28 -1.12907 1.09954 0
M  V30 11329 C 1062.51 -1.87866 0.859656 0
M  V30 11330 C 1062.91 -1.79664 -0.593096 0
M  V30 11331 O 1062.26 -1.16499 -1.42034 0
M  V30 11332 C 1062.32 -3.38055 1.22308 0
M  V30 11333 C 1061.98 -3.70035 2.68185 0
M  V30 11334 C 1062.98 -3.68817 3.66428 0
M  V30 11335 C 1060.66 -3.99523 3.04444 0
M  V30 11336 C 1062.66 -3.96639 4.98955 0
M  V30 11337 C 1060.35 -4.27006 4.37161 0
M  V30 11338 C 1061.34 -4.25549 5.34225 0
M  V30 11339 O 1061.03 -4.52354 6.64553 0
M  V30 11340 H 1060.76 -0.601425 0.308649 0
M  V30 11341 H 1063.32 -1.43817 1.46649 0
M  V30 11342 H 1061.55 -3.82634 0.559322 0
M  V30 11343 H 1063.24 -3.94348 0.961479 0
M  V30 11344 H 1064 -3.46104 3.3976 0
M  V30 11345 H 1059.88 -3.99801 2.29521 0
M  V30 11346 H 1063.43 -3.95418 5.74709 0
M  V30 11347 H 1059.32 -4.49192 4.6357 0
M  V30 11348 H 1060.09 -4.69997 6.70108 0
M  V30 11349 N 1062.75 -0.88754 -1.30232 0
M  V30 11350 C 1063.68 -0.372481 -2.3051 0
M  V30 11351 C 1064.66 0.546037 -1.61098 0
M  V30 11352 O 1065.85 0.459345 -1.88689 0
M  V30 11353 C 1062.98 0.411605 -3.44852 0
M  V30 11354 C 1061.93 -0.415383 -4.2598 0
M  V30 11355 C 1061.26 0.495463 -5.324 0
M  V30 11356 C 1062.56 -1.65886 -4.95257 0
M  V30 11357 H 1064.25 -1.21045 -2.7384 0
M  V30 11358 H 1061.8 -0.583498 -1.31648 0
M  V30 11359 H 1063.75 0.782584 -4.1407 0
M  V30 11360 H 1062.48 1.28325 -3.00334 0
M  V30 11361 H 1061.14 -0.768534 -3.58454 0
M  V30 11362 H 1060.78 1.36489 -4.84128 0
M  V30 11363 H 1060.48 -0.0540885 -5.87575 0
M  V30 11364 H 1062.01 0.862901 -6.04472 0
M  V30 11365 H 1063.42 -1.35832 -5.56976 0
M  V30 11366 H 1061.82 -2.14881 -5.60309 0
M  V30 11367 H 1062.89 -2.40181 -4.21237 0
M  V30 11368 N 1064.23 1.43628 -0.648757 0
M  V30 11369 C 1065.48 2.02163 -0.160574 0
M  V30 11370 C 1065.81 1.51037 1.22072 0
M  V30 11371 O 1065.09 0.701633 1.81404 0
M  V30 11372 C 1065.37 3.59715 -0.166528 0
M  V30 11373 C 1065.22 4.21083 -1.58142 0
M  V30 11374 C 1066.54 4.37256 0.499485 0
M  V30 11375 H 1063.66 0.734568 -0.0598238 0
M  V30 11376 H 1066.3 1.70981 -0.828592 0
M  V30 11377 H 1064.45 3.86411 0.402302 0
M  V30 11378 H 1066.12 4.05433 -2.2005 0
M  V30 11379 H 1064.37 3.77904 -2.13005 0
M  V30 11380 H 1065.04 5.30156 -1.53748 0
M  V30 11381 H 1067.51 4.16097 0.0155561 0
M  V30 11382 H 1066.39 5.4693 0.464574 0
M  V30 11383 H 1066.65 4.13175 1.57286 0
M  V30 11384 N 1065.71 0.390394 1.52688 0
M  V30 11385 C 1066.99 -0.249068 1.94008 0
M  V30 11386 C 1067.37 -1.64263 1.32593 0
M  V30 11387 O 1066.72 -2.23086 0.494448 0
M  V30 11388 C 1066.93 -0.274318 3.4792 0
M  V30 11389 C 1068.27 -0.502743 4.21613 0
M  V30 11390 O 1069.3 -0.35448 3.54432 0
M  V30 11391 O 1068.16 -0.79334 5.40711 0
M  V30 11392 H 1065.25 -0.155116 0.812323 0
M  V30 11393 H 1067.8 0.44498 1.63762 0
M  V30 11394 H 1066.57 0.701766 3.84956 0
M  V30 11395 H 1066.19 -1.01324 3.84473 0
M  V30 11396 N 1067.19 -1.57141 0.120249 0
M  V30 11397 C 1068.44 -1.94413 -0.53727 0
M  V30 11398 C 1068.75 -1.00594 -1.67751 0
M  V30 11399 O 1069.96 -1.27336 -2.39787 0
M  V30 11400 C 1068.41 -3.45521 -1.00714 0
M  V30 11401 C 1068.02 -4.47878 0.104706 0
M  V30 11402 C 1069.76 -3.9171 -1.63596 0
M  V30 11403 C 1067.67 -5.90165 -0.381932 0
M  V30 11404 H 1066.6 -0.725745 -0.204475 0
M  V30 11405 H 1069.25 -1.82404 0.200302 0
M  V30 11406 H 1067.63 -3.52769 -1.79917 0
M  V30 11407 H 1068.81 -4.523 0.881002 0
M  V30 11408 H 1067.12 -4.11448 0.640264 0
M  V30 11409 H 1069.72 -4.95433 -2.01122 0
M  V30 11410 H 1070.06 -3.31756 -2.51483 0
M  V30 11411 H 1070.6 -3.87268 -0.909319 0
M  V30 11412 H 1067.34 -6.53877 0.460921 0
M  V30 11413 H 1066.86 -5.89161 -1.12468 0
M  V30 11414 H 1068.53 -6.41488 -0.842748 0
M  V30 11415 N 1068.67 0.153526 -1.5685 0
M  V30 11416 C 1069.89 0.886343 -1.87507 0
M  V30 11417 C 1070.32 1.74244 -0.708565 0
M  V30 11418 O 1069.67 1.78045 0.341997 0
M  V30 11419 C 1069.72 1.72428 -3.16703 0
M  V30 11420 O 1068.83 2.82784 -3.00178 0
M  V30 11421 H 1068.17 0.247259 -0.616246 0
M  V30 11422 H 1070.7 0.146306 -2.04076 0
M  V30 11423 H 1070.71 2.12062 -3.4856 0
M  V30 11424 H 1069.38 1.09558 -4.01211 0
M  V30 11425 H 1067.96 2.46604 -2.79716 0
M  V30 11426 N 1070.14 1.51827 0.422667 0
M  V30 11427 C 1071.38 1.66888 1.18016 0
M  V30 11428 C 1071.75 0.383859 1.88124 0
M  V30 11429 O 1072.95 0.410413 2.65648 0
M  V30 11430 C 1071.22 2.84842 2.1587 0
M  V30 11431 S 1072.78 3.20312 2.99909 0
M  V30 11432 H 1069.6 0.58781 0.4 0
M  V30 11433 H 1072.2 1.89779 0.46948 0
M  V30 11434 H 1070.9 3.76629 1.63029 0
M  V30 11435 H 1070.43 2.64183 2.91497 0
M  V30 11436 H 1072.45 2.67884 4.17675 0
M  V30 11437 N 1071.62 -0.679052 1.4222 0
M  V30 11438 C 1073.03 -1.25953 1.37815 0
M  V30 11439 C 1073.38 -1.96077 0.0693215 0
M  V30 11440 O 1072.51 -1.99765 -0.832047 0
M  V30 11441 C 1073.1 -2.29063 2.49631 0
M  V30 11442 C 1071.66 -2.82647 2.48571 0
M  V30 11443 C 1070.81 -1.56909 2.28637 0
M  V30 11444 H 1073.76 -0.472714 1.51496 0
M  V30 11445 H 1073.78 -3.10708 2.19638 0
M  V30 11446 H 1073.29 -1.77996 3.44876 0
M  V30 11447 H 1071.4 -3.37846 1.57132 0
M  V30 11448 H 1071.51 -3.31952 3.45463 0
M  V30 11449 H 1069.87 -1.83323 1.76819 0
M  V30 11450 H 1070.66 -1.07814 3.25931 0
M  V30 11451 N 1073.1 -1.28322 -0.914942 0
M  V30 11452 C 1074.03 -1.07947 -2.02188 0
M  V30 11453 C 1075.05 -0.0315743 -1.62769 0
M  V30 11454 O 1076.23 -0.274503 -1.76377 0
M  V30 11455 C 1073.33 -0.61805 -3.33217 0
M  V30 11456 C 1072.51 -1.74109 -4.01254 0
M  V30 11457 C 1071.57 -1.27325 -5.10563 0
M  V30 11458 O 1070.59 -1.97526 -5.33828 0
M  V30 11459 N 1071.79 -0.1358 -5.80341 0
M  V30 11460 H 1074.56 -2.03275 -2.20225 0
M  V30 11461 H 1072.12 -1.20059 -1.08616 0
M  V30 11462 H 1074.11 -0.288693 -4.03669 0
M  V30 11463 H 1072.68 0.242348 -3.11659 0
M  V30 11464 H 1071.9 -2.2401 -3.24366 0
M  V30 11465 H 1073.19 -2.49448 -4.43456 0
M  V30 11466 H 1072.59 0.449846 -5.63909 0
M  V30 11467 H 1071.15 0.134289 -6.51662 0
M  V30 11468 N 1074.58 1.12322 -1.10551 0
M  V30 11469 C 1075.86 1.80201 -0.760715 0
M  V30 11470 C 1076.24 1.97228 0.752628 0
M  V30 11471 O 1075.58 1.54958 1.67929 0
M  V30 11472 C 1075.79 3.14491 -1.51316 0
M  V30 11473 C 1077.14 3.89671 -1.68647 0
M  V30 11474 O 1078.17 3.24151 -1.47664 0
M  V30 11475 O 1077.02 5.0722 -2.03445 0
M  V30 11476 H 1074.12 0.780084 -0.274587 0
M  V30 11477 H 1076.66 1.19147 -1.20839 0
M  V30 11478 H 1075.44 2.97396 -2.54306 0
M  V30 11479 H 1075.06 3.83253 -1.05842 0
M  V30 11480 N 1076.06 0.894434 1.2976 0
M  V30 11481 C 1077.3 0.518435 1.96061 0
M  V30 11482 C 1077.64 -0.931882 1.70381 0
M  V30 11483 O 1076.91 -1.65988 1.01381 0
M  V30 11484 C 1077.19 0.80519 3.50982 0
M  V30 11485 C 1077.05 2.30683 3.86142 0
M  V30 11486 C 1078.37 0.288096 4.39156 0
M  V30 11487 H 1075.48 0.18983 0.712133 0
M  V30 11488 H 1078.13 1.12016 1.53468 0
M  V30 11489 H 1076.28 0.293071 3.87393 0
M  V30 11490 H 1077.95 2.88808 3.59705 0
M  V30 11491 H 1076.19 2.76968 3.33873 0
M  V30 11492 H 1076.86 2.45805 4.94251 0
M  V30 11493 H 1079.34 0.726547 4.09708 0
M  V30 11494 H 1078.21 0.517985 5.4645 0
M  V30 11495 H 1078.48 -0.811018 4.34597 0
M  V30 11496 N 1077.53 -1.43282 0.656365 0
M  V30 11497 C 1078.78 -2.02075 0.171293 0
M  V30 11498 C 1079.11 -1.51682 -1.21269 0
M  V30 11499 O 1078.39 -0.711243 -1.81029 0
M  V30 11500 C 1078.67 -3.59621 0.185602 0
M  V30 11501 C 1078.52 -4.20239 1.60373 0
M  V30 11502 C 1079.84 -4.37515 -0.476289 0
M  V30 11503 H 1076.96 -0.73424 0.0637185 0
M  V30 11504 H 1079.6 -1.70539 0.837648 0
M  V30 11505 H 1077.75 -3.86619 -0.381804 0
M  V30 11506 H 1079.43 -4.0426 2.22197 0
M  V30 11507 H 1077.67 -3.76769 2.15006 0
M  V30 11508 H 1078.34 -5.29333 1.56557 0
M  V30 11509 H 1080.82 -4.16099 0.00651073 0
M  V30 11510 H 1079.69 -5.47169 -0.435562 0
M  V30 11511 H 1079.95 -4.14003 -1.55093 0
M  V30 11512 N 1079.01 -0.398486 -1.52479 0
M  V30 11513 C 1080.24 0.183059 -2.06591 0
M  V30 11514 C 1080.66 1.3898 -1.26753 0
M  V30 11515 O 1080.02 1.78885 -0.294959 0
M  V30 11516 C 1080.07 0.522392 -3.56796 0
M  V30 11517 O 1079.17 1.61499 -3.79462 0
M  V30 11518 H 1078.51 0.0188411 -0.663733 0
M  V30 11519 H 1081.04 -0.56861 -1.9654 0
M  V30 11520 H 1081.05 0.784078 -4.00395 0
M  V30 11521 H 1079.73 -0.359807 -4.14341 0
M  V30 11522 H 1078.31 1.3463 -3.47749 0
M  V30 11523 N 1080.49 1.57075 -0.12858 0
M  V30 11524 C 1081.74 1.95134 0.526046 0
M  V30 11525 C 1082.06 1.01337 1.66601 0
M  V30 11526 O 1081.33 0.0714361 1.9577 0
M  V30 11527 H 1079.91 0.720468 0.19732 0
M  V30 11528 H 1082.57 1.93874 -0.199767 0
M  V30 11529 H 1081.67 2.98406 0.914332 0
M  V30 11530 N 1081.97 -0.145205 1.5693 0
M  V30 11531 C 1083.22 -0.858786 1.83719 0
M  V30 11532 C 1083.55 -1.80738 0.710452 0
M  V30 11533 O 1082.82 -1.92389 -0.285791 0
M  V30 11534 C 1083.11 -1.6317 3.2101 0
M  V30 11535 C 1082.96 -0.704472 4.44249 0
M  V30 11536 C 1084.28 -2.59377 3.55544 0
M  V30 11537 H 1081.4 -0.310757 0.66828 0
M  V30 11538 H 1084.04 -0.123918 1.89595 0
M  V30 11539 H 1082.19 -2.25816 3.16132 0
M  V30 11540 H 1083.86 -0.08887 4.61214 0
M  V30 11541 H 1082.1 -0.0141693 4.33798 0
M  V30 11542 H 1082.78 -1.28135 5.36922 0
M  V30 11543 H 1085.25 -2.06848 3.61044 0
M  V30 11544 H 1084.13 -3.10506 4.52634 0
M  V30 11545 H 1084.39 -3.40819 2.81594 0
M  V30 11546 N 1083.45 -1.52049 -0.414609 0
M  V30 11547 C 1084.68 -1.69433 -1.18221 0
M  V30 11548 C 1085.09 -0.40104 -1.84901 0
M  V30 11549 O 1084.43 0.632342 -1.72474 0
M  V30 11550 C 1084.49 -2.76986 -2.2917 0
M  V30 11551 C 1084.15 -4.18903 -1.82671 0
M  V30 11552 C 1085.15 -5.02929 -1.31751 0
M  V30 11553 C 1082.84 -4.65113 -1.89672 0
M  V30 11554 C 1084.83 -6.31234 -0.884461 0
M  V30 11555 C 1082.52 -5.93408 -1.45978 0
M  V30 11556 C 1083.52 -6.76297 -0.9545 0
M  V30 11557 O 1083.2 -8.02191 -0.523852 0
M  V30 11558 H 1082.94 -0.571228 -0.36149 0
M  V30 11559 H 1085.49 -1.99355 -0.494643 0
M  V30 11560 H 1083.72 -2.42428 -3.01273 0
M  V30 11561 H 1085.41 -2.83023 -2.90951 0
M  V30 11562 H 1086.17 -4.68422 -1.2572 0
M  V30 11563 H 1082.05 -4.00702 -2.27945 0
M  V30 11564 H 1085.6 -6.95881 -0.489383 0
M  V30 11565 H 1081.49 -6.27424 -1.51687 0
M  V30 11566 H 1082.26 -8.15934 -0.647656 0
M  V30 11567 N 1084.93 0.6715 -1.42579 0
M  V30 11568 C 1086.17 1.42871 -1.42941 0
M  V30 11569 C 1086.49 1.94941 -0.0480483 0
M  V30 11570 O 1085.76 1.73275 0.913921 0
M  V30 11571 H 1084.34 0.530189 -0.526221 0
M  V30 11572 H 1087.01 0.793219 -1.78028 0
M  V30 11573 H 1086.1 2.2801 -2.13114 0
M  V30 11574 N 1086.4 1.28806 0.908124 0
M  V30 11575 C 1087.65 1.1646 1.66027 0
M  V30 11576 C 1087.98 -0.285025 1.92097 0
M  V30 11577 O 1087.26 -1.20675 1.52538 0
M  V30 11578 C 1087.54 1.96951 3.01467 0
M  V30 11579 C 1087.39 3.50007 2.82515 0
M  V30 11580 C 1088.71 1.78932 4.02084 0
M  V30 11581 H 1085.83 0.424435 0.602515 0
M  V30 11582 H 1088.47 1.58185 1.0525 0
M  V30 11583 H 1086.62 1.61495 3.53344 0
M  V30 11584 H 1088.3 3.95401 2.37605 0
M  V30 11585 H 1086.54 3.75356 2.17463 0
M  V30 11586 H 1087.21 4.01591 3.7872 0
M  V30 11587 H 1089.69 2.09885 3.59287 0
M  V30 11588 H 1088.56 2.37615 4.94803 0
M  V30 11589 H 1088.82 0.742286 4.35824 0
M  V30 11590 N 1087.88 -1.11734 1.11145 0
M  V30 11591 C 1088.81 -2.1976 0.789152 0
M  V30 11592 C 1089.79 -1.68382 -0.241143 0
M  V30 11593 O 1090.98 -1.93914 -0.105292 0
M  V30 11594 C 1088.11 -3.46549 0.228204 0
M  V30 11595 C 1087.06 -4.11123 1.19002 0
M  V30 11596 C 1086.39 -5.32451 0.489928 0
M  V30 11597 C 1087.69 -4.56406 2.53951 0
M  V30 11598 H 1089.38 -2.46978 1.69241 0
M  V30 11599 H 1086.93 -1.18705 0.81517 0
M  V30 11600 H 1088.88 -4.21399 -0.00945908 0
M  V30 11601 H 1087.6 -3.18782 -0.71033 0
M  V30 11602 H 1086.26 -3.38264 1.41326 0
M  V30 11603 H 1085.91 -5.00953 -0.453315 0
M  V30 11604 H 1085.61 -5.76605 1.1314 0
M  V30 11605 H 1087.14 -6.10042 0.260984 0
M  V30 11606 H 1088.55 -5.22592 2.35733 0
M  V30 11607 H 1086.95 -5.11363 3.14051 0
M  V30 11608 H 1088.02 -3.7001 3.13402 0
M  V30 11609 N 1089.36 -0.901303 -1.29284 0
M  V30 11610 C 1090.31 -0.370142 -2.29636 0
M  V30 11611 C 1091.3 0.53157 -1.60844 0
M  V30 11612 O 1092.51 0.414194 -1.7517 0
M  V30 11613 H 1088.88 -0.101072 -0.745177 0
M  V30 11614 H 1090.85 -1.22985 -2.71877 0
M  V30 11615 C 1089.6 0.385806 -3.45553 0
M  V30 11616 H 1088.93 -0.298818 -3.98682 0
M  V30 11617 H 1090.37 0.722299 -4.17802 0
M  V30 11618 C 1088.82 1.58907 -2.97069 0
M  V30 11619 O 1089.35 2.68835 -2.98481 0
M  V30 11620 N 1087.56 1.43178 -2.5288 0
M  V30 11621 H 1087.11 0.537467 -2.51931 0
M  V30 11622 H 1087.07 2.23819 -2.208 0
M  V30 11623 N 1090.84 1.42931 -0.663954 0
M  V30 11624 C 1091.78 2.3079 0.0210764 0
M  V30 11625 C 1092.75 1.45356 0.803796 0
M  V30 11626 O 1093.94 1.74207 0.778237 0
M  V30 11627 C 1091.08 3.31069 0.974023 0
M  V30 11628 C 1090.19 4.31598 0.186273 0
M  V30 11629 C 1089.33 5.18955 1.13399 0
M  V30 11630 C 1088.37 6.1117 0.337292 0
M  V30 11631 N 1087.5 6.91114 1.23715 0
M  V30 11632 H 1092.34 2.88819 -0.733995 0
M  V30 11633 H 1089.88 1.42274 -0.373711 0
M  V30 11634 H 1091.84 3.87727 1.54024 0
M  V30 11635 H 1090.47 2.74665 1.69585 0
M  V30 11636 H 1089.52 3.77147 -0.496402 0
M  V30 11637 H 1090.83 4.96919 -0.432753 0
M  V30 11638 H 1089.99 5.80292 1.77049 0
M  V30 11639 H 1088.73 4.53785 1.78691 0
M  V30 11640 H 1087.73 5.48911 -0.312492 0
M  V30 11641 H 1088.96 6.78386 -0.31138 0
M  V30 11642 H 1086.9 6.28583 1.87668 0
M  V30 11643 H 1086.82 7.52999 0.672946 0
M  V30 11644 H 1088.09 7.56948 1.86146 0
M  V30 11645 N 1092.32 0.406567 1.52266 0
M  V30 11646 C 1093.73 0.0573228 1.59497 0
M  V30 11647 C 1093.93 -1.43005 1.41957 0
M  V30 11648 O 1092.99 -2.19659 1.24523 0
M  V30 11649 C 1094.3 0.549947 2.95628 0
M  V30 11650 C 1095.85 0.5077 3.08855 0
M  V30 11651 C 1096.32 0.976792 4.47463 0
M  V30 11652 N 1097.81 0.933508 4.53696 0
M  V30 11653 C 1098.55 1.26769 5.59211 0
M  V30 11654 N 1098.05 1.6732 6.72292 0
M  V30 11655 N 1099.84 1.18782 5.49406 0
M  V30 11656 H 1091.99 1.37468 1.61914 0
M  V30 11657 H 1094.25 0.564562 0.76156 0
M  V30 11658 H 1093.96 1.58943 3.13736 0
M  V30 11659 H 1093.83 -0.0417767 3.77177 0
M  V30 11660 H 1096.22 -0.522728 2.90433 0
M  V30 11661 H 1096.3 1.13545 2.29219 0
M  V30 11662 H 1095.94 2.00554 4.66627 0
M  V30 11663 H 1095.87 0.325885 5.25591 0
M  V30 11664 H 1098.37 0.635333 3.72521 0
M  V30 11665 H 1098.68 1.91137 7.4879 0
M  V30 11666 H 1097.02 1.71221 6.73579 0
M  V30 11667 H 1100.21 0.869906 4.59946 0
M  V30 11668 H 1100.39 1.45157 6.31533 0
M  V30 11669 N 1093.79 -1.57004 0.136909 0
M  V30 11670 C 1095.21 -1.58082 -0.21958 0
M  V30 11671 C 1095.41 -1.15065 -1.65415 0
M  V30 11672 O 1094.47 -0.846284 -2.37896 0
M  V30 11673 C 1095.78 -3.00685 0.0300112 0
M  V30 11674 C 1097.33 -3.12981 -0.0344899 0
M  V30 11675 C 1097.8 -4.57615 0.187639 0
M  V30 11676 N 1099.29 -4.63005 0.134219 0
M  V30 11677 C 1100.03 -5.72712 0.280743 0
M  V30 11678 N 1099.52 -6.91104 0.48443 0
M  V30 11679 N 1101.32 -5.61673 0.219055 0
M  V30 11680 H 1093.47 -1.83262 1.07372 0
M  V30 11681 H 1095.73 -0.847776 0.424241 0
M  V30 11682 H 1095.44 -3.36509 1.02247 0
M  V30 11683 H 1095.31 -3.70762 -0.693918 0
M  V30 11684 H 1097.7 -2.77004 -1.01749 0
M  V30 11685 H 1097.78 -2.45411 0.721608 0
M  V30 11686 H 1097.42 -4.94295 1.16769 0
M  V30 11687 H 1097.35 -5.23299 -0.588661 0
M  V30 11688 H 1099.84 -3.77895 -0.0189681 0
M  V30 11689 H 1100.16 -7.7057 0.586613 0
M  V30 11690 H 1098.5 -6.93047 0.520627 0
M  V30 11691 H 1101.69 -4.68061 0.0607606 0
M  V30 11692 H 1101.87 -6.47125 0.336683 0
M  V30 11693 N 1095.27 0.136881 -1.57004 0
M  V30 11694 C 1096.52 0.8461 -1.83536 0
M  V30 11695 C 1096.84 1.81246 -0.71937 0
M  V30 11696 O 1096.11 1.94191 0.258161 0
M  V30 11697 H 1094.69 0.315446 -0.677128 0
M  V30 11698 H 1097.35 0.128469 -1.94476 0
M  V30 11699 H 1096.45 1.40221 -2.78827 0
M  V30 11700 N 1096.75 1.52266 0.40654 0
M  V30 11701 C 1098 1.6568 1.15035 0
M  V30 11702 C 1098.31 0.394135 1.91588 0
M  V30 11703 O 1099.52 0.408113 2.68415 0
M  V30 11704 C 1097.97 2.92725 2.0938 0
M  V30 11705 C 1097.58 4.26108 1.38332 0
M  V30 11706 C 1099.33 3.15502 2.84004 0
M  V30 11707 C 1097.23 5.44275 2.3134 0
M  V30 11708 H 1096.16 0.61719 0.43312 0
M  V30 11709 H 1098.81 1.78755 0.414598 0
M  V30 11710 H 1097.2 2.73355 2.86519 0
M  V30 11711 H 1098.37 4.55971 0.665396 0
M  V30 11712 H 1096.69 4.09454 0.757384 0
M  V30 11713 H 1099.28 4.00964 3.5374 0
M  V30 11714 H 1099.63 2.29842 3.471 0
M  V30 11715 H 1100.16 3.35357 2.13964 0
M  V30 11716 H 1096.9 6.3229 1.72887 0
M  V30 11717 H 1096.42 5.18749 3.01098 0
M  V30 11718 H 1098.1 5.77457 2.91809 0
M  V30 11719 N 1098.23 -0.663929 1.42933 0
M  V30 11720 C 1099.47 -1.42603 1.44195 0
M  V30 11721 C 1099.81 -1.94101 0.0620284 0
M  V30 11722 O 1099.08 -1.71609 -0.91546 0
M  V30 11723 C 1099.37 -2.61522 2.47544 0
M  V30 11724 C 1099.22 -2.15587 3.94769 0
M  V30 11725 C 1100.54 -3.6374 2.47753 0
M  V30 11726 H 1097.66 -0.517189 0.525056 0
M  V30 11727 H 1100.3 -0.75361 1.74415 0
M  V30 11728 H 1098.45 -3.1889 2.21904 0
M  V30 11729 H 1100.12 -1.63303 4.31428 0
M  V30 11730 H 1098.36 -1.47057 4.08114 0
M  V30 11731 H 1099.03 -3.01053 4.62678 0
M  V30 11732 H 1101.51 -3.16111 2.70579 0
M  V30 11733 H 1100.39 -4.44512 3.22025 0
M  V30 11734 H 1100.65 -4.15607 1.50742 0
M  V30 11735 N 1099.71 -1.29285 -0.901281 0
M  V30 11736 C 1100.96 -1.16538 -1.64626 0
M  V30 11737 C 1101.27 0.282623 -1.93547 0
M  V30 11738 O 1102.47 0.531396 -2.66249 0
M  V30 11739 C 1100.93 -2.03809 -2.96631 0
M  V30 11740 C 1100.54 -3.53423 -2.75311 0
M  V30 11741 C 1102.28 -1.99782 -3.7455 0
M  V30 11742 C 1100.19 -4.32804 -4.03032 0
M  V30 11743 H 1099.12 -0.432561 -0.617581 0
M  V30 11744 H 1101.77 -1.53912 -0.999159 0
M  V30 11745 H 1100.15 -1.59302 -3.62545 0
M  V30 11746 H 1101.33 -4.05971 -2.18 0
M  V30 11747 H 1099.64 -3.59106 -2.10789 0
M  V30 11748 H 1102.24 -2.5635 -4.69243 0
M  V30 11749 H 1102.58 -0.97743 -4.04663 0
M  V30 11750 H 1103.11 -2.42324 -3.15474 0
M  V30 11751 H 1099.85 -5.35473 -3.78086 0
M  V30 11752 H 1099.37 -3.85025 -4.59909 0
M  V30 11753 H 1101.05 -4.43383 -4.71191 0
M  V30 11754 N 1101.18 1.11143 -1.11736 0
M  V30 11755 C 1102.41 1.87285 -0.891007 0
M  V30 11756 C 1102.83 1.79758 0.553971 0
M  V30 11757 O 1102.19 1.16221 1.39149 0
M  V30 11758 C 1102.24 3.33924 -1.36114 0
M  V30 11759 O 1101.34 4.08917 -0.534851 0
M  V30 11760 H 1100.69 0.581418 -0.320701 0
M  V30 11761 H 1103.22 1.40469 -1.4876 0
M  V30 11762 H 1103.23 3.84772 -1.35701 0
M  V30 11763 H 1101.9 3.38719 -2.41334 0
M  V30 11764 H 1100.48 3.67954 -0.605355 0
M  V30 11765 N 1102.66 0.908147 1.28804 0
M  V30 11766 C 1103.57 0.397167 2.31214 0
M  V30 11767 C 1104.59 -0.512352 1.66286 0
M  V30 11768 O 1105.76 -0.399893 1.9739 0
M  V30 11769 C 1102.83 -0.359522 3.44831 0
M  V30 11770 C 1101.89 0.582539 4.25329 0
M  V30 11771 C 1101.12 -0.138133 5.33521 0
M  V30 11772 O 1101.35 -1.36076 5.53931 0
M  V30 11773 O 1100.28 0.523682 5.99618 0
M  V30 11774 H 1104.11 1.247 2.76918 0
M  V30 11775 H 1101.69 0.672766 1.33395 0
M  V30 11776 H 1103.57 -0.787098 4.13984 0
M  V30 11777 H 1102.25 -1.18528 3.01219 0
M  V30 11778 H 1101.16 1.0594 3.58786 0
M  V30 11779 H 1102.49 1.37495 4.72605 0
M  V30 11780 N 1104.14 -1.42577 0.671525 0
M  V30 11781 C 1105.05 -2.34598 -0.00898225 0
M  V30 11782 C 1106.07 -1.54909 -0.792407 0
M  V30 11783 O 1107.24 -1.87491 -0.735477 0
M  V30 11784 C 1104.31 -3.33405 -0.950888 0
M  V30 11785 C 1103.37 -4.28993 -0.16236 0
M  V30 11786 C 1102.6 -5.2308 -1.0594 0
M  V30 11787 O 1102.82 -5.22022 -2.2989 0
M  V30 11788 O 1101.76 -5.99632 -0.521966 0
M  V30 11789 H 1105.58 -2.94321 0.748927 0
M  V30 11790 H 1103.17 -1.43025 0.43175 0
M  V30 11791 H 1105.05 -3.94115 -1.49169 0
M  V30 11792 H 1103.73 -2.7616 -1.68871 0
M  V30 11793 H 1102.63 -3.71707 0.42247 0
M  V30 11794 H 1103.97 -4.8927 0.536274 0
M  V30 11795 N 1105.62 -0.414636 -1.52048 0
M  V30 11796 C 1106.55 0.443601 -2.24866 0
M  V30 11797 C 1107.56 1.00556 -1.28032 0
M  V30 11798 O 1108.75 0.903566 -1.53941 0
M  V30 11799 C 1105.85 1.63004 -2.97124 0
M  V30 11800 C 1105.03 1.191 -4.20873 0
M  V30 11801 C 1104.08 2.24497 -4.75907 0
M  V30 11802 O 1103.11 1.84861 -5.38345 0
M  V30 11803 N 1104.31 3.56727 -4.57959 0
M  V30 11804 H 1107.08 -0.180393 -2.99157 0
M  V30 11805 H 1104.64 -0.242305 -1.60077 0
M  V30 11806 H 1106.63 2.33089 -3.30835 0
M  V30 11807 H 1105.2 2.15984 -2.25986 0
M  V30 11808 H 1104.42 0.318059 -3.92915 0
M  V30 11809 H 1105.71 0.874699 -5.01225 0
M  V30 11810 H 1105.11 3.91675 -4.08175 0
M  V30 11811 H 1103.66 4.22772 -4.96092 0
M  V30 11812 N 1107.1 1.56929 -0.145233 0
M  V30 11813 C 1108.04 2.16671 0.795128 0
M  V30 11814 C 1109.01 1.09908 1.24537 0
M  V30 11815 O 1110.2 1.37941 1.31821 0
M  V30 11816 C 1107.34 2.79111 2.02956 0
M  V30 11817 C 1106.45 4.00261 1.62528 0
M  V30 11818 C 1105.59 4.50705 2.81137 0
M  V30 11819 C 1104.63 5.64324 2.37075 0
M  V30 11820 N 1103.76 6.09395 3.48687 0
M  V30 11821 H 1108.6 2.96692 0.278865 0
M  V30 11822 H 1106.14 1.4656 0.125934 0
M  V30 11823 H 1108.1 3.13456 2.7532 0
M  V30 11824 H 1106.73 2.01737 2.51996 0
M  V30 11825 H 1105.78 3.71906 0.799365 0
M  V30 11826 H 1107.09 4.8258 1.26166 0
M  V30 11827 H 1106.25 4.87096 3.61693 0
M  V30 11828 H 1104.98 3.67389 3.20744 0
M  V30 11829 H 1103.99 5.27511 1.54958 0
M  V30 11830 H 1105.21 6.49425 1.98556 0
M  V30 11831 H 1103.16 5.29014 3.87917 0
M  V30 11832 H 1103.08 6.86636 3.16333 0
M  V30 11833 H 1104.35 6.50431 4.29605 0
M  V30 11834 N 1108.58 -0.128553 1.57075 0
M  V30 11835 C 1109.51 -1.15953 2.02675 0
M  V30 11836 C 1110.49 -1.43743 0.909501 0
M  V30 11837 O 1111.67 -1.54348 1.17857 0
M  V30 11838 C 1108.8 -2.48813 2.423 0
M  V30 11839 C 1107.76 -2.35506 3.57381 0
M  V30 11840 C 1107.08 -3.73243 3.82875 0
M  V30 11841 C 1108.38 -1.82359 4.89431 0
M  V30 11842 H 1110.08 -0.780283 2.89054 0
M  V30 11843 H 1107.62 -0.373896 1.39061 0
M  V30 11844 H 1109.57 -3.21179 2.72804 0
M  V30 11845 H 1108.3 -2.88609 1.52881 0
M  V30 11846 H 1106.96 -1.6559 3.27071 0
M  V30 11847 H 1106.61 -4.10507 2.90677 0
M  V30 11848 H 1106.31 -3.65195 4.60333 0
M  V30 11849 H 1107.83 -4.47128 4.15823 0
M  V30 11850 H 1109.24 -2.44533 5.18533 0
M  V30 11851 H 1107.64 -1.85156 5.70822 0
M  V30 11852 H 1108.71 -0.780478 4.78578 0
M  V30 11853 N 1110.05 -1.5248 -0.398459 0
M  V30 11854 C 1111.3 -1.66731 -1.14215 0
M  V30 11855 C 1111.62 -0.404957 -1.90749 0
M  V30 11856 O 1110.89 0.580434 -1.87104 0
M  V30 11857 H 1109.47 -0.614577 -0.424622 0
M  V30 11858 H 1112.13 -1.89561 -0.453059 0
M  V30 11859 H 1111.23 -2.51336 -1.85031 0
M  V30 11860 N 1111.53 0.65634 -1.43283 0
M  V30 11861 C 1112.76 1.44408 -1.48168 0
M  V30 11862 C 1113.17 1.88542 -0.0986016 0
M  V30 11863 O 1112.53 1.59298 0.890527 0
M  V30 11864 C 1112.58 2.68111 -2.42484 0
M  V30 11865 O 1112.3 2.25824 -3.75413 0
M  V30 11866 C 1113.8 3.61499 -2.56579 0
M  V30 11867 H 1111.02 0.443731 -0.503333 0
M  V30 11868 H 1113.57 0.804917 -1.87993 0
M  V30 11869 H 1111.72 3.28175 -2.05863 0
M  V30 11870 H 1112.14 3.05839 -4.26102 0
M  V30 11871 H 1113.61 4.44972 -3.26655 0
M  V30 11872 H 1114.09 4.08639 -1.60969 0
M  V30 11873 H 1114.69 3.07319 -2.93998 0
M  V30 11874 N 1113.01 1.29761 0.894412 0
M  V30 11875 C 1114.42 1.16275 1.46072 0
M  V30 11876 C 1114.77 -0.240123 1.94725 0
M  V30 11877 O 1113.9 -1.13606 1.84181 0
M  V30 11878 C 1114.49 2.10471 2.65494 0
M  V30 11879 C 1113.05 2.00992 3.18244 0
M  V30 11880 C 1112.2 2.01094 1.90936 0
M  V30 11881 H 1115.15 1.42169 0.705243 0
M  V30 11882 H 1115.17 1.68003 3.41402 0
M  V30 11883 H 1114.68 3.12566 2.30053 0
M  V30 11884 H 1112.78 1.02005 3.58365 0
M  V30 11885 H 1112.9 2.88916 3.82184 0
M  V30 11886 H 1111.26 1.45764 2.08866 0
M  V30 11887 H 1112.04 3.04902 1.57764 0
M  V30 11888 N 1114.49 -1.10549 1.12324 0
M  V30 11889 C 1115.42 -2.18911 0.812416 0
M  V30 11890 C 1116.4 -1.68628 -0.22327 0
M  V30 11891 O 1117.58 -1.94015 -0.0847184 0
M  V30 11892 C 1114.71 -3.46288 0.264947 0
M  V30 11893 C 1113.67 -4.09838 1.23356 0
M  V30 11894 C 1112.99 -5.31901 0.546374 0
M  V30 11895 C 1114.29 -4.53686 2.58778 0
M  V30 11896 H 1115.99 -2.45169 1.71851 0
M  V30 11897 H 1113.53 -1.17834 0.827715 0
M  V30 11898 H 1115.49 -4.21385 0.0352364 0
M  V30 11899 H 1114.21 -3.19517 -0.676479 0
M  V30 11900 H 1112.87 -3.36746 1.44906 0
M  V30 11901 H 1112.52 -5.01406 -0.400157 0
M  V30 11902 H 1112.22 -5.75372 1.19249 0
M  V30 11903 H 1113.74 -6.09731 0.325673 0
M  V30 11904 H 1115.16 -5.20063 2.41263 0
M  V30 11905 H 1113.55 -5.08003 3.19457 0
M  V30 11906 H 1114.62 -3.66665 3.17309 0
M  V30 11907 N 1115.97 -0.914965 -1.28321 0
M  V30 11908 C 1116.9 -0.421292 -2.29668 0
M  V30 11909 C 1117.88 0.511743 -1.6222 0
M  V30 11910 O 1119.06 0.419218 -1.89621 0
M  V30 11911 C 1116.19 0.338364 -3.45648 0
M  V30 11912 C 1115.15 -0.505646 -4.25003 0
M  V30 11913 C 1114.47 0.382421 -5.33331 0
M  V30 11914 C 1115.77 -1.76354 -4.91626 0
M  V30 11915 H 1117.47 -1.26826 -2.71211 0
M  V30 11916 H 1115.01 -0.611291 -1.30381 0
M  V30 11917 H 1116.96 0.694578 -4.15636 0
M  V30 11918 H 1115.69 1.21925 -3.02988 0
M  V30 11919 H 1114.35 -0.844395 -3.56743 0
M  V30 11920 H 1114 1.26189 -4.86914 0
M  V30 11921 H 1113.7 -0.17871 -5.87328 0
M  V30 11922 H 1115.22 0.73449 -6.06166 0
M  V30 11923 H 1116.63 -1.47616 -5.5397 0
M  V30 11924 H 1115.03 -2.26717 -5.55625 0
M  V30 11925 H 1116.1 -2.49063 -4.16048 0
M  V30 11926 N 1117.44 1.42219 -0.679077 0
M  V30 11927 C 1118.39 2.308 -0.00340316 0
M  V30 11928 C 1119.36 1.462 0.788334 0
M  V30 11929 O 1120.55 1.75023 0.759716 0
M  V30 11930 C 1117.69 3.32084 0.938854 0
M  V30 11931 C 1116.8 4.31772 0.140485 0
M  V30 11932 C 1115.93 5.20128 1.07888 0
M  V30 11933 C 1114.97 6.11493 0.27245 0
M  V30 11934 N 1114.11 6.92388 1.16378 0
M  V30 11935 H 1118.95 2.88024 -0.764587 0
M  V30 11936 H 1116.49 1.41869 -0.38878 0
M  V30 11937 H 1118.44 3.89339 1.49903 0
M  V30 11938 H 1117.07 2.76448 1.66662 0
M  V30 11939 H 1116.13 3.76599 -0.536376 0
M  V30 11940 H 1117.44 4.96432 -0.485433 0
M  V30 11941 H 1116.59 5.82137 1.70884 0
M  V30 11942 H 1115.33 4.55655 1.73868 0
M  V30 11943 H 1114.34 5.48549 -0.370693 0
M  V30 11944 H 1115.56 6.78017 -0.383315 0
M  V30 11945 H 1113.51 6.30538 1.8099 0
M  V30 11946 H 1113.42 7.5367 0.593043 0
M  V30 11947 H 1114.69 7.58879 1.78107 0
M  V30 11948 N 1118.92 0.422693 1.51826 0
M  V30 11949 C 1120.17 -0.150066 2.01141 0
M  V30 11950 C 1120.48 -1.45059 1.31214 0
M  V30 11951 O 1121.69 -2.10542 1.71419 0
M  V30 11952 C 1120.15 -0.317985 3.58492 0
M  V30 11953 C 1119.75 0.971244 4.37345 0
M  V30 11954 C 1121.5 -0.845303 4.15999 0
M  V30 11955 C 1119.4 0.769769 5.86369 0
M  V30 11956 H 1118.33 -0.0598567 0.75162 0
M  V30 11957 H 1120.99 0.550217 1.75057 0
M  V30 11958 H 1119.37 -1.08092 3.80962 0
M  V30 11959 H 1120.54 1.74138 4.26629 0
M  V30 11960 H 1118.86 1.42599 3.91222 0
M  V30 11961 H 1121.45 -1.01229 5.2503 0
M  V30 11962 H 1121.8 -1.82375 3.74226 0
M  V30 11963 H 1122.33 -0.141067 3.9755 0
M  V30 11964 H 1119.07 1.72017 6.32527 0
M  V30 11965 H 1118.59 0.0391717 5.99787 0
M  V30 11966 H 1120.27 0.417225 6.45653 0
M  V30 11967 N 1120.4 -1.5685 0.153553 0
M  V30 11968 C 1121.33 -2.14231 -0.814729 0
M  V30 11969 C 1122.34 -1.09339 -1.20619 0
M  V30 11970 O 1123.53 -1.36592 -1.14913 0
M  V30 11971 C 1120.63 -2.6555 -2.10562 0
M  V30 11972 C 1119.81 -3.94912 -1.8805 0
M  V30 11973 C 1118.87 -4.31476 -3.0119 0
M  V30 11974 O 1117.89 -4.9968 -2.72596 0
M  V30 11975 N 1119.09 -3.91588 -4.28531 0
M  V30 11976 H 1121.86 -2.9794 -0.324277 0
M  V30 11977 H 1119.42 -1.61873 -0.0298087 0
M  V30 11978 H 1121.41 -2.87019 -2.85311 0
M  V30 11979 H 1119.98 -1.86529 -2.5085 0
M  V30 11980 H 1119.2 -3.82002 -0.973024 0
M  V30 11981 H 1120.49 -4.79433 -1.70356 0
M  V30 11982 H 1119.89 -3.36645 -4.54628 0
M  V30 11983 H 1118.44 -4.18095 -5.00039 0
M  V30 11984 N 1121.88 0.120221 -1.57141 0
M  V30 11985 C 1123.1 0.84637 -1.89344 0
M  V30 11986 C 1123.53 1.72702 -0.745365 0
M  V30 11987 O 1122.89 1.7873 0.304155 0
M  V30 11988 C 1122.93 1.65671 -3.20289 0
M  V30 11989 O 1122.04 2.76353 -3.06109 0
M  V30 11990 H 1121.38 0.234132 -0.621352 0
M  V30 11991 H 1123.91 0.102986 -2.04341 0
M  V30 11992 H 1123.92 2.04621 -3.52979 0
M  V30 11993 H 1122.59 1.01023 -4.03444 0
M  V30 11994 H 1121.17 2.40615 -2.84884 0
M  V30 11995 N 1123.36 1.52689 0.390367 0
M  V30 11996 C 1124.31 1.73751 1.4763 0
M  V30 11997 C 1125.29 0.591572 1.4963 0
M  V30 11998 O 1126.48 0.849354 1.5529 0
M  V30 11999 C 1123.61 1.90855 2.85358 0
M  V30 12000 C 1122.7 3.11377 2.87933 0
M  V30 12001 N 1123.09 4.33751 2.6018 0
M  V30 12002 C 1121.39 3.11594 3.19101 0
M  V30 12003 C 1122.09 5.15346 2.69803 0
M  V30 12004 N 1121.06 4.51002 3.03476 0
M  V30 12005 H 1124.87 2.65994 1.24997 0
M  V30 12006 H 1122.38 1.50977 0.598301 0
M  V30 12007 H 1124.38 2.04065 3.63542 0
M  V30 12008 H 1123.04 0.998241 3.08974 0
M  V30 12009 H 1124.05 4.61907 2.34227 0
M  V30 12010 H 1120.72 2.30368 3.48191 0
M  V30 12011 H 1122.11 6.22892 2.51902 0
M  V30 12012 N 1124.83 -0.648732 1.43629 0
M  V30 12013 C 1125.76 -1.77298 1.51947 0
M  V30 12014 C 1126.75 -1.65942 0.373785 0
M  V30 12015 O 1127.93 -1.8497 0.591596 0
M  V30 12016 C 1125.06 -3.15749 1.44638 0
M  V30 12017 C 1124.01 -3.41872 2.57502 0
M  V30 12018 C 1123.34 -4.8017 2.35246 0
M  V30 12019 C 1124.64 -3.36173 3.99731 0
M  V30 12020 H 1126.33 -1.70594 2.46045 0
M  V30 12021 H 1123.88 -0.819306 1.1842 0
M  V30 12022 H 1125.83 -3.94156 1.4906 0
M  V30 12023 H 1124.56 -3.23194 0.470466 0
M  V30 12024 H 1123.22 -2.65838 2.5244 0
M  V30 12025 H 1122.86 -4.84297 1.35887 0
M  V30 12026 H 1122.56 -4.9861 3.10906 0
M  V30 12027 H 1124.09 -5.6083 2.41459 0
M  V30 12028 H 1125.5 -4.0451 4.06257 0
M  V30 12029 H 1123.9 -3.66148 4.75453 0
M  V30 12030 H 1124.97 -2.34277 4.24549 0
M  V30 12031 N 1126.31 -1.30234 -0.887518 0
M  V30 12032 C 1127.72 -1.17048 -1.45453 0
M  V30 12033 C 1128.07 0.229793 -1.9485 0
M  V30 12034 O 1127.2 1.12628 -1.84781 0
M  V30 12035 C 1127.79 -2.11876 -2.64375 0
M  V30 12036 C 1126.35 -2.02676 -3.17174 0
M  V30 12037 C 1125.5 -2.02104 -1.89866 0
M  V30 12038 H 1128.45 -1.42541 -0.697694 0
M  V30 12039 H 1128.47 -1.69811 -3.40506 0
M  V30 12040 H 1127.98 -3.13781 -2.28392 0
M  V30 12041 H 1126.09 -1.03904 -3.57819 0
M  V30 12042 H 1126.2 -2.90939 -3.80646 0
M  V30 12043 H 1124.56 -1.4687 -2.0809 0
M  V30 12044 H 1125.35 -3.05735 -1.56145 0
M  V30 12045 N 1127.79 1.09952 -1.12909 0
M  V30 12046 C 1129.04 1.82286 -0.888797 0
M  V30 12047 C 1129.37 1.85218 0.58379 0
M  V30 12048 O 1128.64 1.31645 1.43177 0
M  V30 12049 C 1128.93 3.28706 -1.47053 0
M  V30 12050 C 1128.78 3.34078 -3.01184 0
M  V30 12051 C 1130.1 4.25233 -1.13424 0
M  V30 12052 H 1127.22 0.661803 -0.324324 0
M  V30 12053 H 1129.86 1.28833 -1.3965 0
M  V30 12054 H 1128.01 3.74356 -1.03874 0
M  V30 12055 H 1129.68 2.96871 -3.5308 0
M  V30 12056 H 1127.93 2.73825 -3.36455 0
M  V30 12057 H 1128.6 4.37202 -3.36984 0
M  V30 12058 H 1131.07 3.87841 -1.50726 0
M  V30 12059 H 1129.95 5.26033 -1.56783 0
M  V30 12060 H 1130.21 4.42075 -0.0471496 0
M  V30 12061 N 1129.27 0.921757 1.27833 0
M  V30 12062 C 1130.49 0.574599 1.99281 0
M  V30 12063 C 1130.92 -0.838905 1.68357 0
M  V30 12064 O 1130.28 -1.56196 0.920468 0
M  V30 12065 C 1130.32 0.800027 3.51613 0
M  V30 12066 O 1129.43 -0.137215 4.12172 0
M  V30 12067 H 1128.77 0.221887 0.625829 0
M  V30 12068 H 1131.3 1.23939 1.62789 0
M  V30 12069 H 1131.31 0.71326 4.01717 0
M  V30 12070 H 1129.98 1.83042 3.73455 0
M  V30 12071 H 1128.56 -0.00103872 3.729 0
M  V30 12072 N 1130.75 -1.41857 0.686609 0
M  V30 12073 C 1131.66 -2.34595 0.0159005 0
M  V30 12074 C 1132.67 -1.55741 -0.775933 0
M  V30 12075 O 1133.85 -1.8826 -0.71555 0
M  V30 12076 C 1130.91 -3.34395 -0.915473 0
M  V30 12077 C 1129.97 -4.29141 -0.116851 0
M  V30 12078 C 1129.21 -5.24174 -1.00386 0
M  V30 12079 O 1129.43 -5.24431 -2.2434 0
M  V30 12080 O 1128.36 -6.00152 -0.458337 0
M  V30 12081 H 1132.19 -2.9351 0.780101 0
M  V30 12082 H 1129.78 -1.42559 0.446896 0
M  V30 12083 H 1131.66 -3.95675 -1.44981 0
M  V30 12084 H 1130.33 -2.77936 -1.65932 0
M  V30 12085 H 1129.24 -3.71238 0.461871 0
M  V30 12086 H 1130.57 -4.88673 0.588138 0
M  V30 12087 N 1132.22 -0.430739 -1.51599 0
M  V30 12088 C 1133.45 0.139197 -2.06932 0
M  V30 12089 C 1133.87 1.3626 -1.29672 0
M  V30 12090 O 1133.23 1.78219 -0.332836 0
M  V30 12091 C 1133.28 0.446593 -3.57824 0
M  V30 12092 O 1132.38 1.53414 -3.82803 0
M  V30 12093 H 1131.73 0.00475812 -0.663983 0
M  V30 12094 H 1134.26 -0.610171 -1.9529 0
M  V30 12095 H 1134.27 0.698972 -4.01968 0
M  V30 12096 H 1132.94 -0.447613 -4.13484 0
M  V30 12097 H 1131.52 1.27224 -3.50526 0
M  V30 12098 N 1133.7 1.56767 -0.161869 0
M  V30 12099 C 1134.95 1.96594 0.485496 0
M  V30 12100 C 1135.28 1.04743 1.63887 0
M  V30 12101 O 1134.53 0.079602 1.95538 0
M  V30 12102 C 1134.83 3.42567 1.01894 0
M  V30 12103 C 1134.5 4.50897 -0.0175419 0
M  V30 12104 C 1133.16 4.80249 -0.302429 0
M  V30 12105 C 1135.51 5.16181 -0.721572 0
M  V30 12106 C 1132.84 5.72187 -1.2969 0
M  V30 12107 C 1135.19 6.09191 -1.70496 0
M  V30 12108 C 1133.86 6.36915 -1.99739 0
M  V30 12109 H 1133.13 0.719388 0.177656 0
M  V30 12110 H 1135.77 1.89837 -0.251839 0
M  V30 12111 H 1134.08 3.4623 1.83391 0
M  V30 12112 H 1135.77 3.70719 1.52867 0
M  V30 12113 H 1132.36 4.28062 0.21468 0
M  V30 12114 H 1136.55 4.93624 -0.514681 0
M  V30 12115 H 1131.8 5.91953 -1.52974 0
M  V30 12116 H 1135.98 6.58849 -2.25591 0
M  V30 12117 H 1133.61 7.07958 -2.76948 0
M  V30 12118 N 1135.18 -0.111886 1.57202 0
M  V30 12119 C 1136.43 -0.816794 1.84859 0
M  V30 12120 C 1136.75 -1.80079 0.748113 0
M  V30 12121 O 1136.02 -1.94578 -0.227235 0
M  V30 12122 H 1134.6 -0.304633 0.682061 0
M  V30 12123 H 1137.26 -0.097513 1.94656 0
M  V30 12124 H 1136.36 -1.35768 2.81022 0
M  V30 12125 N 1136.66 -1.52894 -0.382264 0
M  V30 12126 C 1137.91 -1.68266 -1.12663 0
M  V30 12127 C 1138.23 -0.425974 -1.89778 0
M  V30 12128 O 1137.49 0.59178 -1.86538 0
M  V30 12129 C 1137.79 -2.87309 -2.12576 0
M  V30 12130 C 1137.45 -4.24484 -1.52067 0
M  V30 12131 C 1136.12 -4.6179 -1.35292 0
M  V30 12132 C 1138.47 -5.09858 -1.08138 0
M  V30 12133 C 1135.8 -5.82123 -0.731449 0
M  V30 12134 C 1138.15 -6.30822 -0.473986 0
M  V30 12135 C 1136.81 -6.66854 -0.293585 0
M  V30 12136 H 1136.08 -0.615728 -0.412262 0
M  V30 12137 H 1138.73 -1.8705 -0.410425 0
M  V30 12138 H 1137.03 -2.62968 -2.90439 0
M  V30 12139 H 1138.73 -2.96397 -2.70092 0
M  V30 12140 H 1135.32 -3.951 -1.66114 0
M  V30 12141 H 1139.5 -4.816 -1.19898 0
M  V30 12142 H 1134.76 -6.08643 -0.579938 0
M  V30 12143 H 1138.93 -6.96287 -0.125324 0
M  V30 12144 H 1136.56 -7.59962 0.190054 0
M  V30 12145 N 1138.14 0.641106 -1.43971 0
M  V30 12146 C 1139.37 1.42829 -1.49692 0
M  V30 12147 C 1139.78 1.88427 -0.118594 0
M  V30 12148 O 1139.14 1.60234 0.873581 0
M  V30 12149 C 1139.19 2.65524 -2.45314 0
M  V30 12150 O 1138.91 2.2183 -3.77787 0
M  V30 12151 C 1140.41 3.58758 -2.60399 0
M  V30 12152 H 1137.63 0.438367 -0.508011 0
M  V30 12153 H 1140.17 0.784933 -1.88836 0
M  V30 12154 H 1138.33 3.25973 -2.09332 0
M  V30 12155 H 1138.74 3.01303 -4.29321 0
M  V30 12156 H 1140.22 4.41483 -3.31357 0
M  V30 12157 H 1140.69 4.06909 -1.65294 0
M  V30 12158 H 1141.3 3.04184 -2.97241 0
M  V30 12159 N 1139.62 1.30703 0.880598 0
M  V30 12160 C 1140.84 1.22843 1.67106 0
M  V30 12161 C 1141.27 -0.204788 1.86982 0
M  V30 12162 O 1140.62 -1.14716 1.40392 0
M  V30 12163 C 1140.67 1.96685 3.02237 0
M  V30 12164 O 1139.78 1.29693 3.91476 0
M  V30 12165 H 1139.12 0.424661 0.51045 0
M  V30 12166 H 1141.65 1.72596 1.09871 0
M  V30 12167 H 1141.66 2.05874 3.52249 0
M  V30 12168 H 1140.33 3.00919 2.8709 0
M  V30 12169 H 1138.91 1.28886 3.49918 0
M  V30 12170 N 1141.09 -1.09351 1.1349 0
M  V30 12171 C 1142.06 -2.14185 0.815919 0
M  V30 12172 C 1143.06 -1.59845 -0.174976 0
M  V30 12173 O 1144.25 -1.74122 0.0521971 0
M  V30 12174 C 1141.38 -3.40224 0.214517 0
M  V30 12175 H 1142.57 -2.43913 1.74489 0
M  V30 12176 H 1140.12 -1.24902 0.939634 0
M  V30 12177 H 1140.86 -3.16123 -0.723634 0
M  V30 12178 H 1140.64 -3.80958 0.928102 0
M  V30 12179 H 1142.13 -4.17599 0.00821999 0
M  V30 12180 N 1142.57 -0.928524 -1.27343 0
M  V30 12181 C 1143.5 -0.445627 -2.29208 0
M  V30 12182 C 1144.48 0.494508 -1.62753 0
M  V30 12183 O 1145.67 0.399082 -1.90055 0
M  V30 12184 C 1142.8 0.301684 -3.45987 0
M  V30 12185 C 1141.75 -0.550695 -4.24442 0
M  V30 12186 C 1141.08 0.325833 -5.33706 0
M  V30 12187 C 1142.38 -1.81559 -4.89728 0
M  V30 12188 H 1144.07 -1.29696 -2.69851 0
M  V30 12189 H 1141.62 -0.625085 -1.29725 0
M  V30 12190 H 1143.57 0.650455 -4.1635 0
M  V30 12191 H 1142.29 1.18705 -3.04264 0
M  V30 12192 H 1140.95 -0.882185 -3.55827 0
M  V30 12193 H 1140.6 1.21018 -4.88225 0
M  V30 12194 H 1140.3 -0.240994 -5.87106 0
M  V30 12195 H 1141.83 0.670156 -6.06911 0
M  V30 12196 H 1143.24 -1.53483 -5.52373 0
M  V30 12197 H 1141.64 -2.32598 -5.53189 0
M  V30 12198 H 1142.71 -2.53461 -4.13383 0
M  V30 12199 N 1144.05 1.41491 -0.694123 0
M  V30 12200 C 1145.47 1.55358 -0.365532 0
M  V30 12201 C 1145.67 1.66994 1.12762 0
M  V30 12202 O 1144.72 1.64756 1.91342 0
M  V30 12203 C 1146.03 2.79352 -1.11279 0
M  V30 12204 C 1147.58 2.93147 -1.097 0
M  V30 12205 C 1148.06 4.20027 -1.82597 0
M  V30 12206 N 1149.55 4.26981 -1.7956 0
M  V30 12207 C 1150.28 5.24013 -2.32805 0
M  V30 12208 N 1149.78 6.27083 -2.94515 0
M  V30 12209 N 1151.57 5.15943 -2.23069 0
M  V30 12210 H 1143.72 1.32183 -1.66257 0
M  V30 12211 H 1145.99 0.637624 -0.701527 0
M  V30 12212 H 1145.69 2.76958 -2.16765 0
M  V30 12213 H 1145.57 3.70827 -0.690439 0
M  V30 12214 H 1147.95 2.95057 -0.0504037 0
M  V30 12215 H 1148.03 2.02849 -1.55839 0
M  V30 12216 H 1147.68 4.18878 -2.87235 0
M  V30 12217 H 1147.61 5.09294 -1.33893 0
M  V30 12218 H 1150.1 3.53129 -1.34567 0
M  V30 12219 H 1150.41 6.97511 -3.32714 0
M  V30 12220 H 1148.76 6.27589 -2.98592 0
M  V30 12221 H 1151.95 4.34346 -1.74532 0
M  V30 12222 H 1152.12 5.91396 -2.64868 0
M  V30 12223 N 1145.53 0.438773 1.51369 0
M  V30 12224 C 1146.49 -0.36032 2.2635 0
M  V30 12225 C 1147.49 -0.948465 1.29849 0
M  V30 12226 O 1148.68 -0.822692 1.53549 0
M  V30 12227 C 1145.81 -1.50994 3.05636 0
M  V30 12228 H 1147.01 0.296826 2.98427 0
M  V30 12229 H 1144.56 0.191978 1.55117 0
M  V30 12230 H 1145.29 -2.2031 2.37979 0
M  V30 12231 H 1145.08 -1.09437 3.76518 0
M  V30 12232 H 1146.57 -2.07447 3.6243 0
M  V30 12233 N 1147.01 -1.56678 0.170181 0
M  V30 12234 C 1147.97 -2.16698 -0.746622 0
M  V30 12235 C 1148.97 -1.11475 -1.15888 0
M  V30 12236 O 1150.16 -1.36994 -1.07602 0
M  V30 12237 C 1147.29 -2.74892 -2.01612 0
M  V30 12238 H 1148.48 -2.99061 -0.224135 0
M  V30 12239 H 1146.04 -1.56098 -0.0793761 0
M  V30 12240 H 1146.77 -1.96259 -2.58172 0
M  V30 12241 H 1146.56 -3.51896 -1.72949 0
M  V30 12242 H 1148.05 -3.21058 -2.67042 0
M  V30 12243 N 1148.48 0.103547 -1.57259 0
M  V30 12244 C 1149.71 0.82235 -1.89855 0
M  V30 12245 C 1150.13 1.72694 -0.76303 0
M  V30 12246 O 1149.48 1.8056 0.265421 0
M  V30 12247 C 1149.53 1.64282 -3.22015 0
M  V30 12248 O 1149.26 0.774628 -4.31197 0
M  V30 12249 C 1150.76 2.46543 -3.68418 0
M  V30 12250 H 1147.98 0.235591 -0.628282 0
M  V30 12251 H 1150.52 0.0833106 -2.0433 0
M  V30 12252 H 1148.68 2.33446 -3.09163 0
M  V30 12253 H 1149.09 1.34205 -5.0704 0
M  V30 12254 H 1150.56 2.99618 -4.63609 0
M  V30 12255 H 1151.04 3.24618 -2.95838 0
M  V30 12256 H 1151.65 1.82594 -3.84109 0
M  V30 12257 N 1149.96 1.53094 0.37415 0
M  V30 12258 C 1151.19 1.73061 1.143 0
M  V30 12259 C 1151.61 0.454611 1.82524 0
M  V30 12260 O 1150.97 -0.590743 1.71406 0
M  V30 12261 C 1151.02 2.89086 2.15549 0
M  V30 12262 O 1150.12 2.57096 3.22452 0
M  V30 12263 H 1149.46 0.575009 0.332055 0
M  V30 12264 H 1151.99 1.99946 0.433897 0
M  V30 12265 H 1152 3.15007 2.59296 0
M  V30 12266 H 1150.68 3.81647 1.65283 0
M  V30 12267 H 1149.25 2.41965 2.83738 0
M  V30 12268 N 1151.44 -0.633461 1.44309 0
M  V30 12269 C 1152.69 -1.39031 1.46679 0
M  V30 12270 C 1153.01 -1.94745 0.0997165 0
M  V30 12271 O 1152.28 -1.75637 -0.867659 0
M  V30 12272 H 1150.86 -0.516051 0.540093 0
M  V30 12273 H 1153.52 -0.745739 1.80069 0
M  V30 12274 H 1152.62 -2.2228 2.19085 0
M  V30 12275 N 1152.92 -1.31168 -0.873655 0
M  V30 12276 C 1153.85 -1.14325 -1.98651 0
M  V30 12277 C 1154.86 -0.0833421 -1.62587 0
M  V30 12278 O 1156.05 -0.330477 -1.75414 0
M  V30 12279 C 1153.15 -0.723747 -3.31082 0
M  V30 12280 C 1152.33 -1.86787 -3.95512 0
M  V30 12281 C 1151.38 -1.43503 -5.06254 0
M  V30 12282 O 1150.41 -2.14409 -5.27273 0
M  V30 12283 N 1151.61 -0.320362 -5.79615 0
M  V30 12284 H 1154.38 -2.10179 -2.13647 0
M  V30 12285 H 1151.94 -1.23454 -1.04742 0
M  V30 12286 H 1153.93 -0.416971 -4.02546 0
M  V30 12287 H 1152.5 0.143073 -3.12272 0
M  V30 12288 H 1151.72 -2.34216 -3.17075 0
M  V30 12289 H 1153.01 -2.6343 -4.35296 0
M  V30 12290 H 1152.41 0.270215 -5.65054 0
M  V30 12291 H 1150.96 -0.0731 -6.51759 0
M  V30 12292 N 1154.4 1.08748 -1.14068 0
M  V30 12293 C 1155.36 2.1375 -0.827266 0
M  V30 12294 C 1156.36 1.59936 0.166496 0
M  V30 12295 O 1157.55 1.74092 -0.0614305 0
M  V30 12296 C 1154.68 3.40106 -0.232557 0
M  V30 12297 H 1155.87 2.42985 -1.7578 0
M  V30 12298 H 1153.43 1.24402 -0.946244 0
M  V30 12299 H 1154.16 3.16503 0.706859 0
M  V30 12300 H 1153.95 3.8046 -0.948293 0
M  V30 12301 H 1155.44 4.17589 -0.0303662 0
M  V30 12302 N 1155.87 0.935264 1.26849 0
M  V30 12303 C 1157.12 0.57969 1.94025 0
M  V30 12304 C 1157.45 -0.880295 1.73439 0
M  V30 12305 O 1156.7 -1.64429 1.0612 0
M  V30 12306 C 1157 0.861098 3.46872 0
M  V30 12307 C 1156.67 2.30402 3.87589 0
M  V30 12308 C 1155.33 2.69848 3.98417 0
M  V30 12309 C 1157.68 3.242 4.08098 0
M  V30 12310 C 1155.01 4.02199 4.27145 0
M  V30 12311 C 1157.36 4.56141 4.38313 0
M  V30 12312 C 1156.03 4.9541 4.47354 0
M  V30 12313 H 1155.3 0.212123 0.709989 0
M  V30 12314 H 1157.94 1.18066 1.50774 0
M  V30 12315 H 1156.25 0.177534 3.91398 0
M  V30 12316 H 1157.95 0.564841 3.97002 0
M  V30 12317 H 1154.54 1.98803 3.79704 0
M  V30 12318 H 1158.72 2.94924 3.99166 0
M  V30 12319 H 1153.98 4.32295 4.32355 0
M  V30 12320 H 1158.15 5.28818 4.53128 0
M  V30 12321 H 1155.78 5.97994 4.69368 0
M  V30 12322 N 1157.35 -1.41121 0.701616 0
M  V30 12323 C 1158.76 -1.84122 0.309208 0
M  V30 12324 C 1159.11 -1.58695 -1.15371 0
M  V30 12325 O 1158.24 -1.06053 -1.88631 0
M  V30 12326 C 1158.83 -3.34233 0.554429 0
M  V30 12327 C 1157.39 -3.7578 0.215876 0
M  V30 12328 C 1156.54 -2.6447 0.833729 0
M  V30 12329 H 1159.49 -1.30587 0.901822 0
M  V30 12330 H 1159.51 -3.8005 -0.18491 0
M  V30 12331 H 1159.02 -3.52707 1.61923 0
M  V30 12332 H 1157.13 -3.62905 -0.844421 0
M  V30 12333 H 1157.24 -4.74319 0.675118 0
M  V30 12334 H 1155.6 -2.5334 0.262851 0
M  V30 12335 H 1156.39 -2.85761 1.90252 0
M  V30 12336 N 1158.83 -0.446794 -1.51134 0
M  V30 12337 C 1159.76 0.395804 -2.25757 0
M  V30 12338 C 1160.78 0.978178 -1.30137 0
M  V30 12339 O 1161.96 0.87071 -1.55823 0
M  V30 12340 C 1159.06 1.56665 -3.00515 0
M  V30 12341 C 1158.24 1.10146 -4.23305 0
M  V30 12342 C 1157.3 2.14352 -4.80562 0
M  V30 12343 O 1156.32 1.73401 -5.42145 0
M  V30 12344 N 1157.52 3.46932 -4.65423 0
M  V30 12345 H 1160.29 -0.243808 -2.98707 0
M  V30 12346 H 1157.85 -0.276205 -1.59527 0
M  V30 12347 H 1159.84 2.26019 -3.35704 0
M  V30 12348 H 1158.41 2.11142 -2.30516 0
M  V30 12349 H 1157.63 0.234644 -3.93501 0
M  V30 12350 H 1158.92 0.768185 -5.02968 0
M  V30 12351 H 1158.32 3.82929 -4.16391 0
M  V30 12352 H 1156.88 4.12154 -5.04948 0
M  V30 12353 N 1160.31 1.56586 -0.178487 0
M  V30 12354 C 1161.55 1.98994 0.466987 0
M  V30 12355 C 1161.91 1.06229 1.59935 0
M  V30 12356 O 1163.11 1.37806 2.30788 0
M  V30 12357 C 1161.38 3.45064 0.930899 0
M  V30 12358 S 1162.94 4.095 1.57655 0
M  V30 12359 H 1159.76 0.695007 0.149955 0
M  V30 12360 H 1162.36 1.93519 -0.27764 0
M  V30 12361 H 1161.07 4.10287 0.0964476 0
M  V30 12362 H 1160.6 3.54321 1.70939 0
M  V30 12363 H 1162.61 4.05139 2.86491 0
M  V30 12364 N 1161.79 -0.095206 1.57312 0
M  V30 12365 C 1163.03 -0.799903 1.86358 0
M  V30 12366 C 1163.37 -1.78386 0.767593 0
M  V30 12367 O 1162.64 -1.93201 -0.224439 0
M  V30 12368 C 1162.92 -1.52875 3.26039 0
M  V30 12369 C 1162.78 -0.562781 4.46265 0
M  V30 12370 C 1164.1 -2.47935 3.63616 0
M  V30 12371 H 1161.21 -0.289339 0.677829 0
M  V30 12372 H 1163.86 -0.0635369 1.89894 0
M  V30 12373 H 1162.01 -2.15645 3.23156 0
M  V30 12374 H 1163.68 0.0579068 4.61264 0
M  V30 12375 H 1161.92 0.123847 4.33623 0
M  V30 12376 H 1162.59 -1.10989 5.40727 0
M  V30 12377 H 1165.07 -1.95257 3.67442 0
M  V30 12378 H 1163.94 -2.95948 4.62283 0
M  V30 12379 H 1164.21 -3.31687 2.92294 0
M  V30 12380 N 1163.26 -1.53291 -0.366026 0
M  V30 12381 C 1164.51 -1.69451 -1.10872 0
M  V30 12382 C 1164.84 -0.446078 -1.89316 0
M  V30 12383 O 1164.09 0.571962 -1.87155 0
M  V30 12384 C 1164.39 -2.89547 -2.09517 0
M  V30 12385 C 1164.06 -4.26073 -1.47556 0
M  V30 12386 C 1162.72 -4.63199 -1.30386 0
M  V30 12387 C 1165.07 -5.10977 -1.02724 0
M  V30 12388 C 1162.4 -5.82866 -0.669666 0
M  V30 12389 C 1164.75 -6.31289 -0.407052 0
M  V30 12390 C 1163.42 -6.67128 -0.222839 0
M  V30 12391 H 1162.69 -0.620066 -0.405708 0
M  V30 12392 H 1165.33 -1.87475 -0.390563 0
M  V30 12393 H 1163.64 -2.66034 -2.87634 0
M  V30 12394 H 1165.34 -2.99245 -2.66933 0
M  V30 12395 H 1161.93 -3.9684 -1.61914 0
M  V30 12396 H 1166.11 -4.82844 -1.14783 0
M  V30 12397 H 1161.37 -6.09224 -0.515351 0
M  V30 12398 H 1165.54 -6.96381 -0.0514661 0
M  V30 12399 H 1163.17 -7.59718 0.270647 0
M  V30 12400 N 1164.74 0.6258 -1.44643 0
M  V30 12401 C 1166.02 1.38439 -1.38181 0
M  V30 12402 C 1166.4 2.11056 -0.0431928 0
M  V30 12403 O 1165.75 2.06683 0.974383 0
M  V30 12404 C 1165.96 2.34639 -2.58352 0
M  V30 12405 C 1167.31 2.97807 -3.02649 0
M  V30 12406 O 1168.33 2.44963 -2.58595 0
M  V30 12407 O 1167.19 3.93682 -3.79048 0
M  V30 12408 H 1164.28 0.619852 -0.54746 0
M  V30 12409 H 1166.83 0.650409 -1.56741 0
M  V30 12410 H 1165.6 1.80116 -3.47382 0
M  V30 12411 H 1165.22 3.15446 -2.42032 0
M  V30 12412 N 1166.22 1.31629 0.866686 0
M  V30 12413 C 1167.17 1.16149 1.96197 0
M  V30 12414 C 1168.15 0.0716068 1.60741 0
M  V30 12415 O 1169.35 0.296868 1.74493 0
M  V30 12416 C 1166.48 0.874322 3.3198 0
M  V30 12417 C 1165.56 2.00534 3.73693 0
M  V30 12418 N 1165.95 3.25272 3.87339 0
M  V30 12419 C 1164.25 1.90582 4.0323 0
M  V30 12420 C 1164.95 3.99275 4.2303 0
M  V30 12421 N 1163.93 3.27471 4.33894 0
M  V30 12422 H 1167.73 2.10732 2.04864 0
M  V30 12423 H 1165.24 1.23234 1.05769 0
M  V30 12424 H 1167.24 0.7444 4.102 0
M  V30 12425 H 1165.9 -0.0632521 3.24638 0
M  V30 12426 H 1166.91 3.60349 3.71979 0
M  V30 12427 H 1163.59 1.0431 4.0426 0
M  V30 12428 H 1164.98 5.06784 4.41157 0
M  V30 12429 N 1167.7 -1.08142 1.14644 0
M  V30 12430 C 1168.95 -1.81015 0.927648 0
M  V30 12431 C 1169.3 -1.8467 -0.539885 0
M  V30 12432 O 1168.59 -1.31353 -1.39488 0
M  V30 12433 C 1168.79 -3.25962 1.46573 0
M  V30 12434 C 1168.62 -3.36429 2.98405 0
M  V30 12435 C 1167.39 -3.4746 3.66878 0
M  V30 12436 C 1169.58 -3.27855 3.96252 0
M  V30 12437 N 1167.57 -3.46746 5.06597 0
M  V30 12438 C 1168.94 -3.34165 5.22239 0
M  V30 12439 C 1170.99 -3.11611 3.88334 0
M  V30 12440 C 1169.7 -3.25903 6.41233 0
M  V30 12441 C 1171.72 -3.04679 5.06877 0
M  V30 12442 C 1171.08 -3.11594 6.31735 0
M  V30 12443 H 1167.18 -0.676065 0.393014 0
M  V30 12444 H 1169.77 -1.29145 1.45704 0
M  V30 12445 H 1167.94 -3.7627 0.96308 0
M  V30 12446 H 1169.67 -3.86914 1.18659 0
M  V30 12447 H 1166.42 -3.51466 3.17441 0
M  V30 12448 H 1166.85 -3.49939 5.79544 0
M  V30 12449 H 1171.49 -3.05125 2.92675 0
M  V30 12450 H 1169.21 -3.3115 7.37133 0
M  V30 12451 H 1172.79 -2.93226 5.02503 0
M  V30 12452 H 1171.67 -3.06264 7.21922 0
M  V30 12453 N 1169.18 -0.941978 -1.26351 0
M  V30 12454 C 1170.4 -0.606231 -1.98342 0
M  V30 12455 C 1170.83 0.812014 -1.6967 0
M  V30 12456 O 1170.19 1.54712 -0.9452 0
M  V30 12457 C 1170.23 -0.855864 -3.50296 0
M  V30 12458 O 1169.34 0.0716251 -4.12338 0
M  V30 12459 H 1168.68 -0.231815 -0.62222 0
M  V30 12460 H 1171.21 -1.26513 -1.60797 0
M  V30 12461 H 1171.22 -0.777079 -4.00531 0
M  V30 12462 H 1169.89 -1.8896 -3.70496 0
M  V30 12463 H 1168.47 -0.0582866 -3.72854 0
M  V30 12464 N 1170.66 1.40747 -0.709091 0
M  V30 12465 C 1171.9 2.013 -0.246174 0
M  V30 12466 C 1172.23 1.56078 1.15556 0
M  V30 12467 O 1171.51 0.777941 1.78265 0
M  V30 12468 C 1171.79 3.58685 -0.318945 0
M  V30 12469 C 1171.65 4.13997 -1.75859 0
M  V30 12470 C 1172.96 4.38981 0.31358 0
M  V30 12471 H 1170.08 0.73137 -0.0909255 0
M  V30 12472 H 1172.73 1.67312 -0.900365 0
M  V30 12473 H 1170.88 3.8777 0.23805 0
M  V30 12474 H 1172.55 3.95735 -2.37047 0
M  V30 12475 H 1170.79 3.6853 -2.28841 0
M  V30 12476 H 1171.46 5.23158 -1.76095 0
M  V30 12477 H 1173.94 4.15789 -0.160939 0
M  V30 12478 H 1172.81 5.48409 0.232184 0
M  V30 12479 H 1173.07 4.19474 1.39621 0
M  V30 12480 N 1172.13 0.454803 1.50895 0
M  V30 12481 C 1173.06 -0.337982 2.31041 0
M  V30 12482 C 1174.04 -1.00523 1.37219 0
M  V30 12483 O 1175.23 -1.00553 1.66141 0
M  V30 12484 C 1172.36 -1.42964 3.1651 0
M  V30 12485 C 1171.31 -0.884907 4.18752 0
M  V30 12486 C 1170.64 -2.07363 4.92854 0
M  V30 12487 C 1171.94 0.0926716 5.22218 0
M  V30 12488 H 1173.63 0.33089 2.97566 0
M  V30 12489 H 1171.18 0.160577 1.43102 0
M  V30 12490 H 1173.13 -1.9916 3.71367 0
M  V30 12491 H 1171.86 -2.12705 2.47839 0
M  V30 12492 H 1170.52 -0.345031 3.64973 0
M  V30 12493 H 1170.16 -2.75764 4.2067 0
M  V30 12494 H 1169.86 -1.71545 5.62002 0
M  V30 12495 H 1171.39 -2.6408 5.5054 0
M  V30 12496 H 1172.8 -0.379568 5.72042 0
M  V30 12497 H 1171.2 0.3643 5.98993 0
M  V30 12498 H 1172.27 1.02383 4.73968 0
M  V30 12499 N 1173.61 -1.56489 0.186789 0
M  V30 12500 C 1174.84 -2.01429 -0.459326 0
M  V30 12501 C 1175.25 -1.06611 -1.56303 0
M  V30 12502 O 1174.59 -0.0617053 -1.83596 0
M  V30 12503 C 1174.65 -3.42778 -1.08367 0
M  V30 12504 C 1174.32 -4.56843 -0.119719 0
M  V30 12505 C 1175.32 -5.15594 0.667782 0
M  V30 12506 C 1173 -5.02299 -0.0110494 0
M  V30 12507 C 1174.99 -6.18242 1.551 0
M  V30 12508 C 1172.68 -6.04793 0.875738 0
M  V30 12509 C 1173.68 -6.62637 1.65534 0
M  V30 12510 O 1173.37 -7.63141 2.52728 0
M  V30 12511 H 1173.1 -0.665175 -0.120492 0
M  V30 12512 H 1175.65 -2.03338 0.290283 0
M  V30 12513 H 1173.88 -3.3783 -1.8817 0
M  V30 12514 H 1175.57 -3.71577 -1.63357 0
M  V30 12515 H 1176.34 -4.81348 0.594085 0
M  V30 12516 H 1172.22 -4.56977 -0.607667 0
M  V30 12517 H 1175.76 -6.63319 2.15995 0
M  V30 12518 H 1171.66 -6.38462 0.950581 0
M  V30 12519 H 1172.43 -7.80527 2.46415 0
M  V30 12520 N 1175.09 0.086862 -1.5736 0
M  V30 12521 C 1176.37 0.820984 -1.77537 0
M  V30 12522 C 1176.75 1.96534 -0.770554 0
M  V30 12523 O 1176.09 2.27629 0.199334 0
M  V30 12524 C 1176.3 1.30793 -3.23565 0
M  V30 12525 C 1177.65 1.7474 -3.86977 0
M  V30 12526 O 1178.68 1.40396 -3.27364 0
M  V30 12527 O 1177.54 2.38271 -4.91822 0
M  V30 12528 H 1174.63 0.392228 -0.72807 0
M  V30 12529 H 1177.18 0.0681051 -1.69563 0
M  V30 12530 H 1175.95 0.488409 -3.8824 0
M  V30 12531 H 1175.57 2.12258 -3.36203 0
M  V30 12532 N 1176.57 1.53483 0.357892 0
M  V30 12533 C 1177.84 1.60649 1.11585 0
M  V30 12534 C 1178.22 0.418789 2.06904 0
M  V30 12535 O 1177.57 -0.590279 2.20744 0
M  V30 12536 C 1177.78 2.96046 1.84818 0
M  V30 12537 C 1179.13 3.50895 2.39076 0
M  V30 12538 O 1180.15 2.98126 1.94934 0
M  V30 12539 O 1179.01 4.43163 3.19794 0
M  V30 12540 H 1176.11 0.649202 0.512315 0
M  V30 12541 H 1178.65 1.65826 0.360537 0
M  V30 12542 H 1177.43 3.73929 1.15296 0
M  V30 12543 H 1177.05 2.94395 2.6724 0
M  V30 12544 N 1178.05 -0.61812 1.44973 0
M  V30 12545 C 1179.46 -1.19994 1.43033 0
M  V30 12546 C 1179.81 -1.95607 0.152422 0
M  V30 12547 O 1178.93 -2.03114 -0.746571 0
M  V30 12548 C 1179.53 -2.18269 2.59122 0
M  V30 12549 C 1178.09 -2.7185 2.60336 0
M  V30 12550 C 1177.23 -1.4707 2.35086 0
M  V30 12551 H 1180.18 -0.408034 1.53365 0
M  V30 12552 H 1180.21 -3.01113 2.32619 0
M  V30 12553 H 1179.72 -1.63208 3.52115 0
M  V30 12554 H 1177.82 -3.30878 1.7132 0
M  V30 12555 H 1177.93 -3.17001 3.59231 0
M  V30 12556 H 1176.3 -1.75658 1.84435 0
M  V30 12557 H 1177.08 -0.938928 3.30211 0
M  V30 12558 N 1179.52 -1.32087 -0.859693 0
M  V30 12559 C 1180.77 -1.2236 -1.61351 0
M  V30 12560 C 1181.1 0.215796 -1.93299 0
M  V30 12561 O 1180.35 1.16742 -1.57066 0
M  V30 12562 C 1180.65 -2.0234 -2.94607 0
M  V30 12563 C 1180.32 -3.51746 -2.82109 0
M  V30 12564 C 1178.98 -3.92482 -2.78408 0
M  V30 12565 C 1181.33 -4.46776 -2.68403 0
M  V30 12566 C 1178.66 -5.265 -2.58873 0
M  V30 12567 C 1181.01 -5.80931 -2.50404 0
M  V30 12568 C 1179.68 -6.20875 -2.45092 0
M  V30 12569 H 1178.95 -0.447748 -0.590426 0
M  V30 12570 H 1181.59 -1.63461 -0.997637 0
M  V30 12571 H 1179.9 -1.53952 -3.60286 0
M  V30 12572 H 1181.6 -1.92187 -3.51945 0
M  V30 12573 H 1178.19 -3.19389 -2.85812 0
M  V30 12574 H 1182.37 -4.16228 -2.70311 0
M  V30 12575 H 1177.63 -5.5651 -2.53192 0
M  V30 12576 H 1181.8 -6.54185 -2.38777 0
M  V30 12577 H 1179.43 -7.24662 -2.29714 0
M  V30 12578 N 1181 1.07532 -1.15215 0
M  V30 12579 C 1182.28 1.76813 -0.83646 0
M  V30 12580 C 1182.66 2.00242 0.6683 0
M  V30 12581 O 1182.01 1.61941 1.61206 0
M  V30 12582 C 1182.22 3.0779 -1.64519 0
M  V30 12583 C 1183.56 3.82168 -1.85022 0
M  V30 12584 O 1184.59 3.17596 -1.61279 0
M  V30 12585 O 1183.45 4.98135 -2.24775 0
M  V30 12586 H 1180.54 0.767736 -0.307426 0
M  V30 12587 H 1183.09 1.13914 -1.25784 0
M  V30 12588 H 1181.86 2.86342 -2.6669 0
M  V30 12589 H 1181.48 3.78419 -1.22002 0
M  V30 12590 N 1182.48 0.948665 1.2585 0
M  V30 12591 C 1183.71 0.616741 1.98018 0
M  V30 12592 C 1184.13 -0.803005 1.70098 0
M  V30 12593 O 1183.49 -1.54208 0.953392 0
M  V30 12594 C 1183.54 0.874429 3.49837 0
M  V30 12595 O 1182.64 -0.0497568 4.1237 0
M  V30 12596 H 1181.98 0.235112 0.620982 0
M  V30 12597 H 1184.51 1.27364 1.60124 0
M  V30 12598 H 1184.52 0.798309 4.00114 0
M  V30 12599 H 1183.2 1.90922 3.69488 0
M  V30 12600 H 1181.77 0.0780591 3.72818 0
M  V30 12601 N 1183.96 -1.40369 0.716545 0
M  V30 12602 C 1184.91 -2.32539 0.053472 0
M  V30 12603 C 1185.9 -1.5209 -0.745984 0
M  V30 12604 O 1187.11 -1.67883 -0.649245 0
M  V30 12605 H 1183.48 -0.751998 -0.00151088 0
M  V30 12606 H 1185.45 -2.86111 0.847535 0
M  V30 12607 C 1184.2 -3.37061 -0.853515 0
M  V30 12608 H 1183.52 -3.99032 -0.247754 0
M  V30 12609 H 1184.96 -4.04046 -1.28541 0
M  V30 12610 C 1183.42 -2.72619 -1.97941 0
M  V30 12611 O 1183.95 -2.59024 -3.07033 0
M  V30 12612 N 1182.16 -2.30988 -1.76332 0
M  V30 12613 H 1181.71 -2.42246 -0.876063 0
M  V30 12614 H 1181.66 -1.88209 -2.51843 0
M  V30 12615 N 1185.44 -0.462799 -1.50652 0
M  V30 12616 C 1186.38 0.335664 -2.28346 0
M  V30 12617 C 1187.35 0.994541 -1.33034 0
M  V30 12618 O 1188.54 1.00857 -1.61964 0
M  V30 12619 C 1185.68 1.41648 -3.1469 0
M  V30 12620 C 1184.79 0.773207 -4.25024 0
M  V30 12621 C 1183.93 1.83121 -4.98638 0
M  V30 12622 C 1182.97 1.16774 -6.00858 0
M  V30 12623 N 1182.1 2.16823 -6.67782 0
M  V30 12624 H 1186.94 -0.333202 -2.96131 0
M  V30 12625 H 1184.48 -0.176166 -1.46041 0
M  V30 12626 H 1186.44 2.05468 -3.63096 0
M  V30 12627 H 1185.07 2.05462 -2.48968 0
M  V30 12628 H 1184.12 0.0226444 -3.80393 0
M  V30 12629 H 1185.43 0.249061 -4.98178 0
M  V30 12630 H 1184.59 2.54543 -5.5072 0
M  V30 12631 H 1183.32 2.38915 -4.25172 0
M  V30 12632 H 1182.33 0.439112 -5.48044 0
M  V30 12633 H 1183.55 0.616809 -6.76293 0
M  V30 12634 H 1181.5 2.71649 -5.97112 0
M  V30 12635 H 1181.42 1.69371 -7.36783 0
M  V30 12636 H 1182.69 2.8765 -7.24484 0
M  V30 12637 N 1186.91 1.56388 -0.195085 0
M  V30 12638 C 1187.86 2.20431 0.742484 0
M  V30 12639 C 1188.86 1.17548 1.21979 0
M  V30 12640 O 1190.06 1.35693 1.18269 0
M  V30 12641 H 1186.44 0.706435 0.257786 0
M  V30 12642 H 1188.41 2.97865 0.178624 0
M  V30 12643 C 1187.16 2.87772 1.95147 0
M  V30 12644 H 1186.48 3.66681 1.59326 0
M  V30 12645 H 1187.92 3.36021 2.58585 0
M  V30 12646 C 1186.38 1.88807 2.79022 0
M  V30 12647 O 1186.91 1.38836 3.76945 0
M  V30 12648 N 1185.12 1.57037 2.44515 0
M  V30 12649 H 1184.66 1.97868 1.64943 0
M  V30 12650 H 1184.62 0.910776 3.00919 0
M  V30 12651 N 1188.39 -0.0785156 1.57404 0
M  V30 12652 C 1189.62 -0.795871 1.91522 0
M  V30 12653 C 1190.04 -1.70665 0.790892 0
M  V30 12654 O 1189.4 -1.79474 -0.25666 0
M  V30 12655 C 1189.45 -1.57121 3.24569 0
M  V30 12656 O 1188.55 -2.6814 3.13328 0
M  V30 12657 H 1187.89 -0.217575 0.627341 0
M  V30 12658 H 1190.42 -0.0487724 2.04542 0
M  V30 12659 H 1190.43 -1.9519 3.5828 0
M  V30 12660 H 1189.11 -0.902909 4.05981 0
M  V30 12661 H 1187.69 -2.32978 2.91163 0
M  V30 12662 N 1189.87 -1.5367 -0.349747 0
M  V30 12663 C 1191.1 -1.74294 -1.10928 0
M  V30 12664 C 1191.51 -0.479102 -1.83033 0
M  V30 12665 O 1190.85 0.558621 -1.75 0
M  V30 12666 C 1190.91 -2.86457 -2.17216 0
M  V30 12667 C 1190.58 -4.26274 -1.6474 0
M  V30 12668 C 1191.57 -5.08065 -1.10302 0
M  V30 12669 C 1189.26 -4.72739 -1.69774 0
M  V30 12670 C 1191.25 -6.34417 -0.615938 0
M  V30 12671 C 1188.94 -5.99066 -1.20678 0
M  V30 12672 C 1189.94 -6.79737 -0.6668 0
M  V30 12673 O 1189.63 -8.03691 -0.183143 0
M  V30 12674 H 1189.36 -0.586046 -0.336937 0
M  V30 12675 H 1191.91 -2.01274 -0.409645 0
M  V30 12676 H 1190.14 -2.54988 -2.9072 0
M  V30 12677 H 1191.83 -2.95109 -2.78686 0
M  V30 12678 H 1192.6 -4.73333 -1.05739 0
M  V30 12679 H 1188.48 -4.1001 -2.10744 0
M  V30 12680 H 1192.02 -6.97331 -0.193795 0
M  V30 12681 H 1187.92 -6.33293 -1.24939 0
M  V30 12682 H 1188.69 -8.17946 -0.301008 0
M  V30 12683 N 1191.35 0.610423 -1.45298 0
M  V30 12684 C 1192.3 1.7213 -1.53753 0
M  V30 12685 C 1193.27 1.61609 -0.383632 0
M  V30 12686 O 1194.45 1.8123 -0.596694 0
M  V30 12687 C 1191.59 3.10433 -1.50749 0
M  V30 12688 C 1190.7 3.3178 -2.76669 0
M  V30 12689 C 1189.84 4.60173 -2.65356 0
M  V30 12690 C 1188.88 4.74769 -3.86343 0
M  V30 12691 N 1188.01 5.94459 -3.73581 0
M  V30 12692 H 1192.85 1.64239 -2.48655 0
M  V30 12693 H 1190.39 0.800879 -1.23387 0
M  V30 12694 H 1192.35 3.90446 -1.46996 0
M  V30 12695 H 1190.98 3.17288 -0.593998 0
M  V30 12696 H 1190.03 2.45563 -2.90522 0
M  V30 12697 H 1191.34 3.38439 -3.66416 0
M  V30 12698 H 1190.5 5.48377 -2.59553 0
M  V30 12699 H 1189.24 4.55907 -1.73204 0
M  V30 12700 H 1188.24 3.8499 -3.92509 0
M  V30 12701 H 1189.47 4.80834 -4.79557 0
M  V30 12702 H 1187.41 5.91243 -2.84196 0
M  V30 12703 H 1187.33 6.02265 -4.5696 0
M  V30 12704 H 1188.6 6.85168 -3.71705 0
M  V30 12705 N 1192.83 1.32541 0.852676 0
M  V30 12706 C 1194.08 1.22567 1.60188 0
M  V30 12707 C 1194.39 -0.210594 1.94463 0
M  V30 12708 O 1195.59 -0.432214 2.68038 0
M  V30 12709 C 1194.05 2.14678 2.88862 0
M  V30 12710 C 1193.66 3.63398 2.62004 0
M  V30 12711 C 1195.4 2.13545 3.66877 0
M  V30 12712 C 1193.31 4.47464 3.86691 0
M  V30 12713 H 1192.24 0.455184 0.601102 0
M  V30 12714 H 1194.89 1.57515 0.941347 0
M  V30 12715 H 1193.27 1.72647 3.56383 0
M  V30 12716 H 1194.45 4.13783 2.02782 0
M  V30 12717 H 1192.76 3.66681 1.97316 0
M  V30 12718 H 1195.36 2.73589 4.59405 0
M  V30 12719 H 1195.7 1.12694 4.00756 0
M  V30 12720 H 1196.23 2.53866 3.06263 0
M  V30 12721 H 1192.97 5.49136 3.57952 0
M  V30 12722 H 1192.49 4.01829 4.45302 0
M  V30 12723 H 1194.17 4.60565 4.5441 0
M  V30 12724 N 1194.3 -1.0692 1.15784 0
M  V30 12725 C 1195.55 -1.78983 0.929944 0
M  V30 12726 C 1195.87 -1.87884 -0.543969 0
M  V30 12727 O 1197.07 -2.56513 -0.889578 0
M  V30 12728 C 1195.53 -3.21657 1.61446 0
M  V30 12729 C 1195.14 -3.20943 3.12569 0
M  V30 12730 C 1196.88 -3.98299 1.46828 0
M  V30 12731 C 1194.79 -4.58298 3.73788 0
M  V30 12732 H 1193.72 -0.670809 0.344284 0
M  V30 12733 H 1196.37 -1.19975 1.38846 0
M  V30 12734 H 1194.75 -3.80885 1.08364 0
M  V30 12735 H 1195.92 -2.71334 3.72444 0
M  V30 12736 H 1194.24 -2.57799 3.26999 0
M  V30 12737 H 1196.84 -4.99822 1.89952 0
M  V30 12738 H 1197.18 -4.14213 0.416358 0
M  V30 12739 H 1197.71 -3.45577 1.97031 0
M  V30 12740 H 1194.45 -4.47588 4.789 0
M  V30 12741 H 1193.97 -5.08126 3.18698 0
M  V30 12742 H 1195.65 -5.27262 3.74972 0
M  V30 12743 N 1195.78 -0.955326 -1.25345 0
M  V30 12744 C 1196.72 -0.420299 -2.24296 0
M  V30 12745 C 1197.69 0.498753 -1.54762 0
M  V30 12746 O 1198.88 0.432971 -1.8346 0
M  V30 12747 C 1196 0.394576 -3.36394 0
M  V30 12748 C 1195.05 -0.464973 -4.23958 0
M  V30 12749 S 1195.88 -1.89764 -5.00749 0
M  V30 12750 C 1197.04 -1.09121 -6.16314 0
M  V30 12751 H 1197.27 -1.25888 -2.69331 0
M  V30 12752 H 1194.81 -0.759449 -1.34431 0
M  V30 12753 H 1196.76 0.858788 -4.01416 0
M  V30 12754 H 1195.42 1.20799 -2.89942 0
M  V30 12755 H 1194.62 0.160055 -5.03746 0
M  V30 12756 H 1194.22 -0.864422 -3.63873 0
M  V30 12757 H 1196.51 -0.340218 -6.76645 0
M  V30 12758 H 1197.45 -1.86304 -6.83152 0
M  V30 12759 H 1197.86 -0.621033 -5.61073 0
M  V30 12760 N 1197.26 1.39987 -0.723979 0
M  V30 12761 C 1198.21 2.32507 -0.0658033 0
M  V30 12762 C 1199.2 1.52484 0.737908 0
M  V30 12763 O 1200.41 1.68225 0.640332 0
M  V30 12764 H 1196.78 0.751996 -0.00247717 0
M  V30 12765 H 1198.76 2.85657 -0.862696 0
M  V30 12766 C 1197.5 3.37509 0.835628 0
M  V30 12767 H 1196.83 3.99157 0.226589 0
M  V30 12768 H 1198.27 4.04722 1.26396 0
M  V30 12769 C 1196.73 2.73665 1.96492 0
M  V30 12770 O 1197.26 2.60649 3.05655 0
M  V30 12771 N 1195.46 2.3192 1.75104 0
M  V30 12772 H 1195.01 2.42707 0.863204 0
M  V30 12773 H 1194.97 1.89542 2.50841 0
M  V30 12774 N 1198.74 0.470782 1.50404 0
M  V30 12775 C 1199.99 -0.0859981 2.01517 0
M  V30 12776 C 1200.3 -1.40811 1.35763 0
M  V30 12777 O 1201.51 -2.04982 1.7803 0
M  V30 12778 C 1199.96 -0.203773 3.59323 0
M  V30 12779 C 1199.57 1.10989 4.34034 0
M  V30 12780 C 1201.32 -0.712528 4.18477 0
M  V30 12781 C 1199.22 0.955928 5.83623 0
M  V30 12782 H 1198.15 -0.0359142 0.753144 0
M  V30 12783 H 1200.8 0.605631 1.73218 0
M  V30 12784 H 1199.19 -0.959177 3.84208 0
M  V30 12785 H 1200.36 1.87623 4.20873 0
M  V30 12786 H 1198.67 1.54973 3.86487 0
M  V30 12787 H 1201.27 -0.844745 5.27985 0
M  V30 12788 H 1201.61 -1.70377 3.79838 0
M  V30 12789 H 1202.15 -0.0145179 3.97797 0
M  V30 12790 H 1198.89 1.92054 6.26734 0
M  V30 12791 H 1198.41 0.22997 5.99359 0
M  V30 12792 H 1200.09 0.622423 6.43999 0
M  V30 12793 N 1200.22 -1.56282 0.203376 0
M  V30 12794 C 1201.63 -1.58871 -0.152335 0
M  V30 12795 C 1201.83 -1.21978 -1.60386 0
M  V30 12796 O 1200.89 -0.946422 -2.34092 0
M  V30 12797 C 1202.2 -3.00287 0.157515 0
M  V30 12798 C 1203.75 -3.12846 0.098287 0
M  V30 12799 C 1204.23 -4.56408 0.38156 0
M  V30 12800 N 1205.72 -4.6202 0.330475 0
M  V30 12801 C 1206.45 -5.71006 0.523397 0
M  V30 12802 N 1205.95 -6.88428 0.777115 0
M  V30 12803 N 1207.74 -5.60238 0.457082 0
M  V30 12804 H 1199.89 -1.78543 1.15048 0
M  V30 12805 H 1202.15 -0.829019 0.459816 0
M  V30 12806 H 1201.86 -3.3187 1.16427 0
M  V30 12807 H 1201.73 -3.73372 -0.536041 0
M  V30 12808 H 1204.12 -2.8107 -0.899085 0
M  V30 12809 H 1204.2 -2.42129 0.825045 0
M  V30 12810 H 1203.85 -4.88897 1.37629 0
M  V30 12811 H 1203.78 -5.25325 -0.366182 0
M  V30 12812 H 1206.27 -3.77636 0.141327 0
M  V30 12813 H 1206.58 -7.67389 0.912911 0
M  V30 12814 H 1204.93 -6.90215 0.814104 0
M  V30 12815 H 1208.12 -4.67382 0.259226 0
M  V30 12816 H 1208.29 -6.45114 0.610848 0
M  V30 12817 N 1201.7 0.070167 -1.57444 0
M  V30 12818 C 1202.61 1.10106 -2.07157 0
M  V30 12819 C 1203.62 1.42293 -1.00143 0
M  V30 12820 O 1204.8 1.52437 -1.31624 0
M  V30 12821 C 1201.86 2.39486 -2.50694 0
M  V30 12822 C 1200.92 2.14255 -3.72012 0
M  V30 12823 C 1200.16 3.37466 -4.13464 0
M  V30 12824 O 1200.38 4.46645 -3.54773 0
M  V30 12825 O 1199.31 3.25583 -5.0624 0
M  V30 12826 H 1203.14 0.70873 -2.95315 0
M  V30 12827 H 1200.72 0.28441 -1.46668 0
M  V30 12828 H 1202.61 3.15625 -2.79212 0
M  V30 12829 H 1201.28 2.78095 -1.65664 0
M  V30 12830 H 1200.19 1.35816 -3.48575 0
M  V30 12831 H 1201.52 1.80525 -4.57899 0
M  V30 12832 N 1203.17 1.53854 0.341593 0
M  V30 12833 C 1204.59 1.44161 0.684821 0
M  V30 12834 C 1204.79 0.599929 1.92362 0
M  V30 12835 O 1203.85 0.0916771 2.52334 0
M  V30 12836 C 1205.16 2.87668 0.875637 0
M  V30 12837 C 1206.71 2.97455 0.974131 0
M  V30 12838 C 1207.18 4.42075 1.19725 0
M  V30 12839 N 1208.67 4.45609 1.2644 0
M  V30 12840 C 1209.41 5.54643 1.45459 0
M  V30 12841 N 1208.9 6.7368 1.61637 0
M  V30 12842 N 1210.7 5.4226 1.48022 0
M  V30 12843 H 1202.85 2.07069 -0.472883 0
M  V30 12844 H 1205.11 0.936114 -0.149648 0
M  V30 12845 H 1204.82 3.51681 0.0368595 0
M  V30 12846 H 1204.69 3.32731 1.7768 0
M  V30 12847 H 1207.08 2.33582 1.80343 0
M  V30 12848 H 1207.16 2.55751 0.0498282 0
M  V30 12849 H 1206.8 5.06529 0.372872 0
M  V30 12850 H 1206.73 4.81372 2.13515 0
M  V30 12851 H 1209.22 3.59831 1.15455 0
M  V30 12852 H 1209.54 7.52541 1.7579 0
M  V30 12853 H 1207.88 6.76622 1.5877 0
M  V30 12854 H 1211.07 4.48221 1.34966 0
M  V30 12855 H 1211.25 6.27293 1.62502 0
M  V30 12856 N 1204.65 -0.602709 1.4562 0
M  V30 12857 C 1205.6 -1.71312 1.54664 0
M  V30 12858 C 1206.57 -1.61403 0.392197 0
M  V30 12859 O 1207.75 -1.80911 0.606297 0
M  V30 12860 C 1204.89 -3.09629 1.52393 0
M  V30 12861 C 1204.01 -3.30308 2.78425 0
M  V30 12862 C 1203.14 -4.5876 2.67793 0
M  V30 12863 C 1202.18 -4.72713 3.88855 0
M  V30 12864 N 1201.32 -5.92469 3.76729 0
M  V30 12865 H 1206.16 -1.62918 2.49523 0
M  V30 12866 H 1203.69 -0.794324 1.2381 0
M  V30 12867 H 1205.65 -3.89661 1.49064 0
M  V30 12868 H 1204.28 -3.16968 0.610816 0
M  V30 12869 H 1203.33 -2.44018 2.9182 0
M  V30 12870 H 1204.65 -3.36491 3.68205 0
M  V30 12871 H 1203.8 -5.46993 2.62457 0
M  V30 12872 H 1202.54 -4.54983 1.75619 0
M  V30 12873 H 1201.54 -3.82903 3.94545 0
M  V30 12874 H 1202.77 -4.78284 4.82101 0
M  V30 12875 H 1200.72 -5.89728 2.87328 0
M  V30 12876 H 1200.63 -5.99833 4.60148 0
M  V30 12877 H 1201.9 -6.83187 3.75334 0
M  V30 12878 N 1206.13 -1.32992 -0.845635 0
M  V30 12879 C 1207.38 -1.2382 -1.59728 0
M  V30 12880 C 1207.7 0.197724 -1.93995 0
M  V30 12881 O 1206.97 1.12477 -1.60392 0
M  V30 12882 H 1205.55 -0.455296 -0.592212 0
M  V30 12883 H 1208.21 -1.66627 -1.01101 0
M  V30 12884 H 1207.31 -1.82717 -2.53023 0
M  V30 12885 N 1207.61 1.06304 -1.1635 0
M  V30 12886 C 1208.86 1.78487 -0.939423 0
M  V30 12887 C 1209.17 1.8817 0.533998 0
M  V30 12888 O 1210.38 2.56981 0.875962 0
M  V30 12889 C 1208.83 3.20796 -1.63149 0
M  V30 12890 C 1208.44 3.19281 -3.14267 0
M  V30 12891 C 1210.18 3.97514 -1.48938 0
M  V30 12892 C 1208.09 4.56309 -3.76213 0
M  V30 12893 H 1207.02 0.668973 -0.347837 0
M  V30 12894 H 1209.67 1.19237 -1.3948 0
M  V30 12895 H 1208.05 3.80305 -1.10382 0
M  V30 12896 H 1209.23 2.69356 -3.73877 0
M  V30 12897 H 1207.54 2.56062 -3.28362 0
M  V30 12898 H 1210.14 4.98808 -1.926 0
M  V30 12899 H 1210.48 4.13986 -0.438319 0
M  V30 12900 H 1211.02 3.44528 -1.98861 0
M  V30 12901 H 1207.75 4.45042 -4.81267 0
M  V30 12902 H 1207.27 5.06429 -3.21388 0
M  V30 12903 H 1208.95 5.25266 -3.77762 0
M  V30 12904 N 1209.09 0.96196 1.24836 0
M  V30 12905 C 1210.03 0.48686 2.25607 0
M  V30 12906 C 1211 -0.464546 1.59472 0
M  V30 12907 O 1212.19 -0.376179 1.87055 0
M  V30 12908 C 1209.33 -0.222294 3.44383 0
M  V30 12909 C 1208.44 0.767206 4.25133 0
M  V30 12910 C 1207.58 0.0347458 5.31189 0
M  V30 12911 C 1206.61 1.01469 6.03631 0
M  V30 12912 N 1205.75 0.312619 7.01404 0
M  V30 12913 H 1210.59 1.35104 2.65614 0
M  V30 12914 H 1208.13 0.677373 1.30576 0
M  V30 12915 H 1210.09 -0.650087 4.12104 0
M  V30 12916 H 1208.72 -1.05047 3.0523 0
M  V30 12917 H 1207.77 1.31346 3.57005 0
M  V30 12918 H 1209.08 1.5147 4.75245 0
M  V30 12919 H 1208.23 -0.451325 6.05019 0
M  V30 12920 H 1206.97 -0.745485 4.81969 0
M  V30 12921 H 1205.98 1.51169 5.28609 0
M  V30 12922 H 1207.2 1.79527 6.5494 0
M  V30 12923 H 1205.15 -0.44874 6.54463 0
M  V30 12924 H 1205.07 0.999079 7.49369 0
M  V30 12925 H 1206.33 -0.151673 7.79352 0
M  V30 12926 N 1210.56 -1.39601 0.731392 0
M  V30 12927 C 1211.81 -2.00883 0.278168 0
M  V30 12928 C 1212.14 -1.57897 -1.13059 0
M  V30 12929 O 1211.42 -0.806203 -1.77005 0
M  V30 12930 C 1211.7 -3.58132 0.375969 0
M  V30 12931 C 1211.55 -4.11147 1.82423 0
M  V30 12932 C 1212.87 -4.39425 -0.243702 0
M  V30 12933 H 1209.99 -0.729831 0.102549 0
M  V30 12934 H 1212.63 -1.65859 0.926869 0
M  V30 12935 H 1210.78 -3.881 -0.176329 0
M  V30 12936 H 1212.46 -3.91914 2.43313 0
M  V30 12937 H 1210.7 -3.64842 2.34675 0
M  V30 12938 H 1211.37 -5.20291 1.84396 0
M  V30 12939 H 1213.85 -4.1548 0.227067 0
M  V30 12940 H 1212.72 -5.48709 -0.144907 0
M  V30 12941 H 1212.98 -4.21642 -1.32929 0
M  V30 12942 N 1212.04 -0.478751 -1.50152 0
M  V30 12943 C 1212.95 0.316554 -2.32455 0
M  V30 12944 C 1213.97 0.98871 -1.4318 0
M  V30 12945 O 1215.14 0.974998 -1.76226 0
M  V30 12946 C 1212.21 1.3799 -3.18056 0
M  V30 12947 C 1211.27 0.723534 -4.23159 0
M  V30 12948 C 1210.5 1.73621 -5.0467 0
M  V30 12949 O 1210.73 2.96362 -4.87366 0
M  V30 12950 O 1209.66 1.30381 -5.87609 0
M  V30 12951 H 1213.49 -0.356491 -3.016 0
M  V30 12952 H 1211.07 -0.24046 -1.47452 0
M  V30 12953 H 1212.95 1.99565 -3.71149 0
M  V30 12954 H 1211.63 2.03627 -2.5163 0
M  V30 12955 H 1210.54 0.0686296 -3.74037 0
M  V30 12956 H 1211.87 0.109979 -4.92077 0
M  V30 12957 N 1213.52 1.56172 -0.211661 0
M  V30 12958 C 1214.45 2.15791 0.74225 0
M  V30 12959 C 1215.43 1.0994 1.198 0
M  V30 12960 O 1216.62 1.38143 1.28253 0
M  V30 12961 C 1213.74 2.73021 2.00443 0
M  V30 12962 C 1212.79 3.91611 1.68946 0
M  V30 12963 S 1213.62 5.29139 0.822949 0
M  V30 12964 C 1214.78 5.898 2.09491 0
M  V30 12965 H 1215.01 2.96366 0.235482 0
M  V30 12966 H 1212.54 1.544 0.0035357 0
M  V30 12967 H 1214.5 3.06635 2.7292 0
M  V30 12968 H 1213.16 1.92457 2.48232 0
M  V30 12969 H 1212.36 4.30122 2.62699 0
M  V30 12970 H 1211.96 3.59093 1.04539 0
M  V30 12971 H 1214.25 6.05172 3.04587 0
M  V30 12972 H 1215.19 6.86036 1.75386 0
M  V30 12973 H 1215.6 5.18546 2.23093 0
M  V30 12974 N 1215 -0.0618163 1.57479 0
M  V30 12975 C 1216.41 -0.612461 1.76368 0
M  V30 12976 C 1216.76 -1.77381 0.838466 0
M  V30 12977 O 1215.89 -2.16386 0.0250211 0
M  V30 12978 C 1216.48 -1.11782 3.19829 0
M  V30 12979 C 1215.04 -1.61424 3.40028 0
M  V30 12980 C 1214.19 -0.53795 2.72032 0
M  V30 12981 H 1217.14 0.164382 1.57846 0
M  V30 12982 H 1217.16 -1.98634 3.24538 0
M  V30 12983 H 1216.67 -0.272353 3.87143 0
M  V30 12984 H 1214.77 -2.48263 2.77842 0
M  V30 12985 H 1214.88 -1.68431 4.48517 0
M  V30 12986 H 1213.25 -0.985355 2.34868 0
M  V30 12987 H 1214.03 0.297495 3.42009 0
M  V30 12988 N 1216.48 -1.54033 -0.333429 0
M  V30 12989 C 1217.41 -1.79056 -1.43079 0
M  V30 12990 C 1218.42 -0.672176 -1.48276 0
M  V30 12991 O 1219.61 -0.949103 -1.51176 0
M  V30 12992 C 1216.71 -1.88443 -2.81678 0
M  V30 12993 C 1215.88 -3.18493 -2.99802 0
M  V30 12994 C 1214.94 -3.18708 -4.18702 0
M  V30 12995 O 1213.97 -3.92389 -4.12334 0
M  V30 12996 N 1215.17 -2.41792 -5.27747 0
M  V30 12997 H 1217.94 -2.73753 -1.21981 0
M  V30 12998 H 1215.5 -1.53207 -0.523365 0
M  V30 12999 H 1217.49 -1.86027 -3.59411 0
M  V30 13000 H 1216.06 -1.00887 -2.95872 0
M  V30 13001 H 1215.28 -3.33951 -2.09453 0
M  V30 13002 H 1216.57 -4.04376 -3.088 0
M  V30 13003 H 1215.96 -1.81501 -5.35793 0
M  V30 13004 H 1214.52 -2.45163 -6.03936 0
M  V30 13005 N 1217.95 0.594978 -1.45938 0
M  V30 13006 C 1218.88 1.71536 -1.58422 0
M  V30 13007 C 1219.87 1.64441 -0.435116 0
M  V30 13008 O 1221.05 1.82647 -0.659839 0
M  V30 13009 C 1218.18 3.10163 -1.56257 0
M  V30 13010 C 1217.13 3.3208 -2.70013 0
M  V30 13011 C 1216.46 4.71108 -2.52905 0
M  V30 13012 C 1217.76 3.21105 -4.11933 0
M  V30 13013 H 1219.45 1.61344 -2.52207 0
M  V30 13014 H 1217 0.774791 -1.2138 0
M  V30 13015 H 1218.95 3.88352 -1.63587 0
M  V30 13016 H 1217.68 3.21225 -0.590093 0
M  V30 13017 H 1216.34 2.56286 -2.62132 0
M  V30 13018 H 1215.98 4.7892 -1.53768 0
M  V30 13019 H 1215.68 4.86727 -3.29197 0
M  V30 13020 H 1217.21 5.51482 -2.62107 0
M  V30 13021 H 1218.62 3.89153 -4.2099 0
M  V30 13022 H 1217.02 3.4825 -4.88715 0
M  V30 13023 H 1218.09 2.18359 -4.32952 0
M  V30 13024 N 1219.43 1.33438 0.838571 0
M  V30 13025 C 1220.71 1.1551 1.5785 0
M  V30 13026 C 1221.09 -0.278405 2.09256 0
M  V30 13027 O 1220.44 -1.27748 1.89453 0
M  V30 13028 C 1220.65 2.19647 2.71212 0
M  V30 13029 C 1222 2.53818 3.40384 0
M  V30 13030 O 1223.02 2.18317 2.81454 0
M  V30 13031 O 1221.88 3.14741 4.46766 0
M  V30 13032 H 1218.97 0.446785 0.695925 0
M  V30 13033 H 1221.52 1.45021 0.8813 0
M  V30 13034 H 1220.29 3.15936 2.30869 0
M  V30 13035 H 1219.91 1.91224 3.48596 0
M  V30 13036 N 1220.91 -1.05686 1.16912 0
M  V30 13037 C 1221.84 -2.1329 0.839044 0
M  V30 13038 C 1222.86 -1.62047 -0.156392 0
M  V30 13039 O 1224.04 -1.78366 0.0692192 0
M  V30 13040 C 1221.14 -3.38122 0.229558 0
M  V30 13041 C 1220.32 -4.18659 1.26662 0
M  V30 13042 C 1219.38 -5.21842 0.675811 0
M  V30 13043 O 1218.4 -5.53049 1.3463 0
M  V30 13044 N 1219.6 -5.78034 -0.534532 0
M  V30 13045 H 1222.37 -2.42203 1.76515 0
M  V30 13046 H 1219.93 -1.2174 1.06729 0
M  V30 13047 H 1221.92 -4.04305 -0.178868 0
M  V30 13048 H 1220.49 -3.06783 -0.60023 0
M  V30 13049 H 1219.71 -3.4804 1.85099 0
M  V30 13050 H 1221 -4.6927 1.9663 0
M  V30 13051 H 1220.4 -5.54955 -1.09731 0
M  V30 13052 H 1218.96 -6.45763 -0.885087 0
M  V30 13053 N 1222.39 -0.968567 -1.24324 0
M  V30 13054 C 1223.62 -0.647628 -1.96187 0
M  V30 13055 C 1224.03 0.787267 -1.72043 0
M  V30 13056 O 1223.37 1.53996 -1.00155 0
M  V30 13057 C 1223.43 -0.843517 -3.49464 0
M  V30 13058 C 1223.1 -2.25822 -3.97308 0
M  V30 13059 C 1224.09 -3.23602 -4.06913 0
M  V30 13060 C 1221.78 -2.58614 -4.30609 0
M  V30 13061 C 1223.77 -4.5226 -4.49154 0
M  V30 13062 C 1221.46 -3.87499 -4.72534 0
M  V30 13063 C 1222.46 -4.84134 -4.81771 0
M  V30 13064 O 1222.14 -6.10719 -5.2276 0
M  V30 13065 H 1221.88 -0.240568 -0.631746 0
M  V30 13066 H 1224.43 -1.29926 -1.59086 0
M  V30 13067 H 1222.66 -0.134716 -3.86465 0
M  V30 13068 H 1224.35 -0.521533 -4.02536 0
M  V30 13069 H 1225.12 -2.99596 -3.81402 0
M  V30 13070 H 1220.99 -1.84116 -4.22637 0
M  V30 13071 H 1224.54 -5.27689 -4.56279 0
M  V30 13072 H 1220.44 -4.11305 -4.97492 0
M  V30 13073 H 1221.2 -6.14298 -5.40906 0
M  V30 13074 N 1223.87 1.39211 -0.738786 0
M  V30 13075 C 1224.8 2.33209 -0.11647 0
M  V30 13076 C 1225.78 1.54108 0.720056 0
M  V30 13077 O 1226.96 1.82486 0.664264 0
M  V30 13078 C 1224.09 3.38226 0.78872 0
M  V30 13079 C 1223.05 4.27963 0.0560636 0
M  V30 13080 C 1222.37 5.2371 1.07852 0
M  V30 13081 C 1223.67 5.10508 -1.1036 0
M  V30 13082 H 1225.37 2.85501 -0.901649 0
M  V30 13083 H 1222.91 1.37272 -0.435032 0
M  V30 13084 H 1224.87 4.02938 1.23364 0
M  V30 13085 H 1223.59 2.84382 1.60606 0
M  V30 13086 H 1222.25 3.64735 -0.369274 0
M  V30 13087 H 1221.9 4.66161 1.88953 0
M  V30 13088 H 1221.6 5.846 0.593048 0
M  V30 13089 H 1223.12 5.91299 1.52307 0
M  V30 13090 H 1224.53 5.68544 -0.736943 0
M  V30 13091 H 1222.93 5.80558 -1.51895 0
M  V30 13092 H 1224 4.45117 -1.92352 0
M  V30 13093 N 1225.34 0.486708 1.49896 0
M  V30 13094 C 1226.62 -0.125183 1.95199 0
M  V30 13095 C 1227 -1.55498 1.42771 0
M  V30 13096 O 1226.35 -2.1949 0.635322 0
M  V30 13097 C 1226.56 -0.0524982 3.48961 0
M  V30 13098 C 1227.91 -0.233595 4.23957 0
M  V30 13099 O 1228.93 -0.128357 3.55969 0
M  V30 13100 O 1227.79 -0.447862 5.44662 0
M  V30 13101 H 1224.88 -0.103141 0.820543 0
M  V30 13102 H 1227.43 0.548226 1.60601 0
M  V30 13103 H 1226.2 0.945163 3.79714 0
M  V30 13104 H 1225.83 -0.766683 3.90138 0
M  V30 13105 N 1226.82 -1.56058 0.219941 0
M  V30 13106 C 1227.77 -2.20218 -0.690846 0
M  V30 13107 C 1228.74 -1.15725 -1.19151 0
M  V30 13108 O 1229.93 -1.44073 -1.2509 0
M  V30 13109 C 1227.07 -2.88477 -1.89408 0
M  V30 13110 C 1226.18 -4.07559 -1.43246 0
M  V30 13111 C 1225.31 -4.63605 -2.59314 0
M  V30 13112 C 1224.35 -5.74993 -2.0988 0
M  V30 13113 N 1223.49 -6.25337 -3.19214 0
M  V30 13114 H 1228.33 -2.97685 -0.136992 0
M  V30 13115 H 1225.87 -1.46994 -0.055865 0
M  V30 13116 H 1227.82 -3.26235 -2.60051 0
M  V30 13117 H 1226.45 -2.1353 -2.42084 0
M  V30 13118 H 1225.51 -3.75297 -0.621013 0
M  V30 13119 H 1226.82 -4.8805 -1.02997 0
M  V30 13120 H 1225.97 -5.03798 -3.38041 0
M  V30 13121 H 1224.71 -3.82274 -3.0285 0
M  V30 13122 H 1223.72 -5.34304 -1.29613 0
M  V30 13123 H 1224.94 -6.58158 -1.67345 0
M  V30 13124 H 1222.89 -5.4692 -3.62236 0
M  V30 13125 H 1222.8 -7.00947 -2.83213 0
M  V30 13126 H 1224.07 -6.70187 -3.98083 0
M  V30 13127 N 1228.3 0.053464 -1.57509 0
M  V30 13128 C 1229.23 1.06151 -2.07977 0
M  V30 13129 C 1230.21 1.3924 -0.977047 0
M  V30 13130 O 1231.4 1.48549 -1.25087 0
M  V30 13131 C 1228.53 2.36969 -2.53895 0
M  V30 13132 C 1227.48 2.18186 -3.6821 0
M  V30 13133 C 1226.81 3.54551 -4.00247 0
M  V30 13134 C 1228.11 1.588 -4.97574 0
M  V30 13135 H 1229.8 0.641483 -2.92447 0
M  V30 13136 H 1227.35 0.307122 -1.40687 0
M  V30 13137 H 1229.3 3.07797 -2.87817 0
M  V30 13138 H 1228.02 2.80986 -1.66476 0
M  V30 13139 H 1226.68 1.49796 -3.34599 0
M  V30 13140 H 1226.33 3.96171 -3.09932 0
M  V30 13141 H 1226.03 3.42816 -4.77232 0
M  V30 13142 H 1227.56 4.2678 -4.36682 0
M  V30 13143 H 1228.97 2.19515 -5.29609 0
M  V30 13144 H 1227.37 1.57711 -5.79006 0
M  V30 13145 H 1228.44 0.551254 -4.81756 0
M  V30 13146 O 1229.82 1.60297 0.196756 0
M  V30 13147 H 1230.51 1.74741 0.835779 0
M  V30 END ATOM
M  V30 BEGIN BOND
M  V30 END BOND
M  V30 END CTAB
M  END
$$$$
