drugbank_target|O14649 Potassium channel subfamily K member 3 (DB00561; DB01159)
 OpenBabel12092120343D

  0  0  0     0  0            999 V3000
M  V30 BEGIN CTAB
M  V30 COUNTS 6111 6176 0 0 0
M  V30 BEGIN ATOM
M  V30 1 H -0.908 1.98254 -0.117106 0
M  V30 2 N 0 1.576 0 0
M  V30 3 C 0.933 2.03868 1.02534 0
M  V30 4 C 1.911 0.928543 1.3348 0
M  V30 5 O 3.095 1.19667 1.45644 0
M  V30 6 C 0.222 2.43627 2.35294 0
M  V30 7 C -0.732 3.65373 2.2001 0
M  V30 8 S 0.101 5.13292 1.52614 0
M  V30 9 C 1.257 5.56322 2.86805 0
M  V30 10 H 1.49 2.90518 0.631377 0
M  V30 11 H -0.977 1.52953 0.210867 0
M  V30 12 H 0.981 2.67203 3.11629 0
M  V30 13 H -0.358 1.57376 2.7183 0
M  V30 14 H -1.165 3.90944 3.18086 0
M  V30 15 H -1.563 3.418 1.51819 0
M  V30 16 H 0.729 5.58782 3.83104 0
M  V30 17 H 1.672 6.56266 2.65933 0
M  V30 18 H 2.08 4.83886 2.90714 0
M  V30 19 N 1.4781 -0.272755 1.55222 0
M  V30 20 C 2.4251 -1.33716 1.88119 0
M  V30 21 C 3.3951 -1.49066 0.73271 0
M  V30 22 O 4.5801 -1.63469 0.984002 0
M  V30 23 C 1.7201 -2.69238 2.15882 0
M  V30 24 C 0.8331 -2.62108 3.43399 0
M  V30 25 C -0.0319 -3.89811 3.60861 0
M  V30 26 C -0.9929 -3.77193 4.8207 0
M  V30 27 N -1.8559 -4.9673 4.96189 0
M  V30 28 H 2.9841 -1.04962 2.78903 0
M  V30 29 H 0.5211 -0.507088 1.38083 0
M  V30 30 H 2.4791 -3.48089 2.29978 0
M  V30 31 H 1.1091 -2.96194 1.28331 0
M  V30 32 H 0.1611 -1.74967 3.37773 0
M  V30 33 H 1.4731 -2.48685 4.32386 0
M  V30 34 H 0.6271 -4.77103 3.74777 0
M  V30 35 H -0.6339 -4.06102 2.7006 0
M  V30 36 H -1.6289 -2.88284 4.68159 0
M  V30 37 H -0.4039 -3.62421 5.74307 0
M  V30 38 H -2.4579 -5.13431 4.08319 0
M  V30 39 H -2.5409 -4.85839 5.79221 0
M  V30 40 H -1.2729 -5.85594 5.1449 0
M  V30 41 N 2.9562 -1.48159 -0.537278 0
M  V30 42 C 4.3722 -1.34118 -0.865129 0
M  V30 43 C 4.5722 -0.346678 -1.98495 0
M  V30 44 O 3.6282 0.234715 -2.51407 0
M  V30 45 C 4.9412 -2.73963 -1.23954 0
M  V30 46 C 6.4892 -2.82397 -1.34984 0
M  V30 47 C 6.9642 -4.22928 -1.75772 0
M  V30 48 N 8.4552 -4.25566 -1.82887 0
M  V30 49 C 9.1902 -5.31235 -2.15817 0
M  V30 50 N 8.6862 -6.47189 -2.47222 0
M  V30 51 N 10.4792 -5.18624 -2.16761 0
M  V30 52 H 2.6302 -2.1144 0.201715 0
M  V30 53 H 4.8932 -0.947598 0.0275949 0
M  V30 54 H 4.5992 -3.48264 -0.490381 0
M  V30 55 H 4.4732 -3.0702 -2.19132 0
M  V30 56 H 6.8602 -2.08356 -2.08978 0
M  V30 57 H 6.9412 -2.5297 -0.379448 0
M  V30 58 H 6.5852 -4.97482 -1.02341 0
M  V30 59 H 6.5152 -4.49794 -2.73848 0
M  V30 60 H 9.0062 -3.41924 -1.60924 0
M  V30 61 H 9.3192 -7.23564 -2.71433 0
M  V30 62 H 7.6642 -6.50476 -2.44757 0
M  V30 63 H 10.8552 -4.27056 -1.91679 0
M  V30 64 H 11.0282 -6.01078 -2.42093 0
M  V30 65 N 4.4343 0.785586 -1.36625 0
M  V30 66 C 5.3663 1.90711 -1.2713 0
M  V30 67 C 6.3793 1.61688 -0.189986 0
M  V30 68 O 7.5683 1.72864 -0.445014 0
M  V30 69 C 4.6683 3.25611 -0.939713 0
M  V30 70 C 3.8413 3.82385 -2.12369 0
M  V30 71 C 2.9003 4.95732 -1.76456 0
M  V30 72 O 1.9263 5.12047 -2.48589 0
M  V30 73 N 3.1283 5.76258 -0.700492 0
M  V30 74 H 5.8933 1.99376 -2.23762 0
M  V30 75 H 3.4543 0.964041 -1.30069 0
M  V30 76 H 5.4463 3.98937 -0.680554 0
M  V30 77 H 4.0163 3.12538 -0.0624074 0
M  V30 78 H 3.2363 3.01001 -2.54543 0
M  V30 79 H 4.5243 4.17047 -2.9146 0
M  V30 80 H 3.9223 5.65609 -0.101624 0
M  V30 81 H 2.4793 6.4987 -0.501165 0
M  V30 82 N 5.9124 1.20967 1.01018 0
M  V30 83 C 6.8604 0.961223 2.1181 0
M  V30 84 C 7.8544 -0.0897034 1.69162 0
M  V30 85 O 9.0604 0.0612271 1.79896 0
M  V30 86 H 5.4354 0.29355 0.692338 0
M  V30 87 H 7.4064 1.90178 2.29946 0
M  V30 88 C 6.1554 0.536854 3.4353 0
M  V30 89 H 5.4784 1.33713 3.76777 0
M  V30 90 H 6.9184 0.402286 4.22087 0
M  V30 91 C 5.3774 -0.751574 3.2841 0
M  V30 92 O 5.9074 -1.80841 3.58691 0
M  V30 93 N 4.1134 -0.716079 2.81639 0
M  V30 94 H 3.6604 0.144236 2.57196 0
M  V30 95 H 3.6184 -1.57847 2.71904 0
M  V30 96 N 7.3905 -1.2043 1.01659 0
M  V30 97 C 8.6365 -1.90079 0.706963 0
M  V30 98 C 8.9695 -1.78648 -0.761474 0
M  V30 99 O 8.2445 -1.17069 -1.55323 0
M  V30 100 C 8.5275 -3.41469 1.14327 0
M  V30 101 C 8.3805 -3.61833 2.67201 0
M  V30 102 C 9.6995 -4.34261 0.714529 0
M  V30 103 H 6.8185 -0.690254 0.2583 0
M  V30 104 H 9.4605 -1.41826 1.26433 0
M  V30 105 H 7.6105 -3.82696 0.669056 0
M  V30 106 H 9.2825 -3.2986 3.22475 0
M  V30 107 H 7.5255 -3.05304 3.08175 0
M  V30 108 H 8.1965 -4.67955 2.92783 0
M  V30 109 H 10.6725 -4.00682 1.12221 0
M  V30 110 H 9.5485 -5.38806 1.04784 0
M  V30 111 H 9.8095 -4.40431 -0.383799 0
M  V30 112 N 8.8686 -0.792821 -1.36206 0
M  V30 113 C 10.2846 -0.474903 -1.52371 0
M  V30 114 C 10.4846 1.00622 -1.74578 0
M  V30 115 O 9.5406 1.79162 -1.77924 0
M  V30 116 C 10.8536 -1.3083 -2.70747 0
M  V30 117 C 12.4016 -1.30234 -2.84619 0
M  V30 118 C 12.8766 -2.11956 -4.06004 0
M  V30 119 N 14.3676 -2.09419 -4.13156 0
M  V30 120 C 15.1026 -2.69419 -5.06163 0
M  V30 121 N 14.5986 -3.3829 -6.04592 0
M  V30 122 N 16.3916 -2.59134 -4.98804 0
M  V30 123 H 8.5426 -1.75222 -1.20046 0
M  V30 124 H 10.8056 -0.745024 -0.586211 0
M  V30 125 H 10.5116 -2.35881 -2.6087 0
M  V30 126 H 10.3856 -0.95196 -3.6499 0
M  V30 127 H 12.7726 -0.259748 -2.93955 0
M  V30 128 H 12.8536 -1.69847 -1.91274 0
M  V30 129 H 12.4976 -3.16248 -3.97429 0
M  V30 130 H 12.4276 -1.69711 -4.98503 0
M  V30 131 H 14.9186 -1.59297 -3.42685 0
M  V30 132 H 15.2316 -3.81394 -6.7213 0
M  V30 133 H 13.5766 -3.42393 -6.04807 0
M  V30 134 H 16.7676 -2.04927 -4.20859 0
M  V30 135 H 16.9406 -3.06185 -5.711 0
M  V30 136 N 10.3467 1.47872 -0.545128 0
M  V30 137 C 11.5747 2.06889 -0.021084 0
M  V30 138 C 11.9897 1.39955 1.2672 0
M  V30 139 O 11.3467 0.492036 1.75742 0
M  V30 140 C 11.3977 3.60996 0.190817 0
M  V30 141 O 11.1187 4.25419 -1.04644 0
M  V30 142 C 12.6197 4.36849 0.753521 0
M  V30 143 H 9.8397 0.669785 -0.0403635 0
M  V30 144 H 12.3837 1.90049 -0.755095 0
M  V30 145 H 10.5387 3.77391 0.87492 0
M  V30 146 H 10.9527 5.17785 -0.836611 0
M  V30 147 H 12.4267 5.45399 0.851139 0
M  V30 148 H 12.9037 4.02306 1.762 0
M  V30 149 H 13.5097 4.25169 0.105503 0
M  V30 150 N 11.8248 0.280983 1.55075 0
M  V30 151 C 12.7548 -0.597469 2.25727 0
M  V30 152 C 13.7358 -1.15417 1.24952 0
M  V30 153 O 14.9208 -1.18722 1.53684 0
M  V30 154 C 12.0508 -1.7789 2.98283 0
M  V30 155 C 11.0048 -1.35347 4.06036 0
M  V30 156 C 10.3308 -2.61846 4.66198 0
M  V30 157 C 11.6308 -0.499354 5.19907 0
M  V30 158 H 13.3248 -0.00824265 2.99399 0
M  V30 159 H 10.8708 -0.0025244 1.44 0
M  V30 160 H 12.8238 -2.39937 3.46422 0
M  V30 161 H 11.5478 -2.39405 2.22155 0
M  V30 162 H 10.2068 -0.756156 3.58717 0
M  V30 163 H 9.8548 -3.21632 3.86732 0
M  V30 164 H 9.5548 -2.3409 5.38958 0
M  V30 165 H 11.0788 -3.24732 5.1709 0
M  V30 166 H 12.4928 -1.02498 5.64063 0
M  V30 167 H 10.8898 -0.316424 5.99265 0
M  V30 168 H 11.9598 0.480459 4.82514 0
M  V30 169 N 13.3029 -1.57598 0.00835791 0
M  V30 170 C 14.2659 -2.07884 -0.965242 0
M  V30 171 C 15.2659 -0.989825 -1.26725 0
M  V30 172 O 16.4559 -1.25218 -1.21104 0
M  V30 173 C 13.5879 -2.52731 -2.28779 0
M  V30 174 H 14.7809 -2.95178 -0.530112 0
M  V30 175 H 12.3339 -1.54458 -0.239283 0
M  V30 176 H 13.0689 -1.68705 -2.76964 0
M  V30 177 H 12.8539 -3.32272 -2.08177 0
M  V30 178 H 14.3439 -2.91933 -2.98605 0
M  V30 179 N 14.781 0.264519 -1.55364 0
M  V30 180 C 15.711 1.33121 -1.91836 0
M  V30 181 C 16.692 1.51101 -0.781192 0
M  V30 182 O 17.877 1.64003 -1.04003 0
M  V30 183 C 15.007 2.68921 -2.19769 0
M  V30 184 C 13.961 2.65661 -3.35571 0
M  V30 185 C 13.287 4.05093 -3.49004 0
M  V30 186 C 14.587 2.24187 -4.71739 0
M  V30 187 H 16.281 1.02844 -2.81182 0
M  V30 188 H 13.827 0.493286 -1.35287 0
M  V30 189 H 15.78 3.43663 -2.43872 0
M  V30 190 H 14.504 3.00799 -1.27231 0
M  V30 191 H 13.163 1.93377 -3.1145 0
M  V30 192 H 12.811 4.34206 -2.53917 0
M  V30 193 H 12.511 4.03804 -4.26868 0
M  V30 194 H 14.035 4.81561 -3.75408 0
M  V30 195 H 15.449 2.88654 -4.9533 0
M  V30 196 H 13.846 2.34044 -5.52579 0
M  V30 197 H 14.916 1.19327 -4.69988 0
M  V30 198 N 16.2591 1.48442 0.529413 0
M  V30 199 C 17.5081 1.55742 1.28169 0
M  V30 200 C 17.8211 0.236511 1.94165 0
M  V30 201 O 19.0271 0.187761 2.7085 0
M  V30 202 C 17.4831 2.74667 2.32564 0
M  V30 203 C 17.0911 4.13402 1.72636 0
M  V30 204 C 18.8351 2.9128 3.08798 0
M  V30 205 C 16.7421 5.23587 2.74975 0
M  V30 206 H 15.6721 0.579796 0.48203 0
M  V30 207 H 18.3231 1.74776 0.559056 0
M  V30 208 H 16.7051 2.49067 3.07866 0
M  V30 209 H 17.8791 4.49022 1.03519 0
M  V30 210 H 16.1941 4.0191 1.08892 0
M  V30 211 H 18.7911 3.70767 3.85274 0
M  V30 212 H 19.1341 2.00757 3.64695 0
M  V30 213 H 19.6671 3.16782 2.40611 0
M  V30 214 H 16.4061 6.16076 2.23897 0
M  V30 215 H 15.9261 4.92454 3.42417 0
M  V30 216 H 17.6051 5.51724 3.37949 0
M  V30 217 N 17.7372 -0.778329 1.37039 0
M  V30 218 C 18.9832 -1.53892 1.32079 0
M  V30 219 C 19.3162 -1.9396 -0.0965386 0
M  V30 220 O 18.5912 -1.63568 -1.05242 0
M  V30 221 C 18.8742 -2.80847 2.25382 0
M  V30 222 C 18.7272 -2.47076 3.75864 0
M  V30 223 C 20.0462 -3.82741 2.1725 0
M  V30 224 H 17.1652 -0.558303 0.48111 0
M  V30 225 H 19.8072 -0.893397 1.67685 0
M  V30 226 H 17.9572 -3.35931 1.95148 0
M  V30 227 H 19.6292 -1.97957 4.16666 0
M  V30 228 H 17.8722 -1.79863 3.94755 0
M  V30 229 H 18.5432 -3.37798 4.36574 0
M  V30 230 H 21.0192 -3.37133 2.43887 0
M  V30 231 H 19.8952 -4.69303 2.84686 0
M  V30 232 H 20.1562 -4.2652 1.16331 0
M  V30 233 N 19.2153 -1.21501 -1.00376 0
M  V30 234 C 20.4553 -1.04444 -1.75701 0
M  V30 235 C 20.8193 0.414644 -1.87469 0
M  V30 236 O 22.0203 0.705763 -2.59369 0
M  V30 237 C 20.2913 -1.72389 -3.13077 0
M  V30 238 S 21.8503 -1.70604 -4.04277 0
M  V30 239 H 18.6683 -0.374249 -0.604532 0
M  V30 240 H 21.2703 -1.54267 -1.20091 0
M  V30 241 H 19.9743 -2.77734 -3.02146 0
M  V30 242 H 19.5053 -1.22751 -3.73759 0
M  V30 243 H 21.5203 -0.748012 -4.9053 0
M  V30 244 N 20.6934 1.19889 -1.02296 0
M  V30 245 C 21.9214 1.9339 -0.735399 0
M  V30 246 C 22.3364 1.75148 0.704887 0
M  V30 247 O 21.6934 1.06954 1.47875 0
M  V30 248 C 21.7444 3.45313 -1.06962 0
M  V30 249 O 21.4654 3.62964 -2.45334 0
M  V30 250 C 22.9664 4.35948 -0.804021 0
M  V30 251 H 20.1864 0.61448 -0.269546 0
M  V30 252 H 22.7304 1.522 -1.36585 0
M  V30 253 H 20.8854 3.84359 -0.484455 0
M  V30 254 H 21.2994 4.56886 -2.57595 0
M  V30 255 H 22.7734 5.41174 -1.0879 0
M  V30 256 H 23.2504 4.3842 0.261691 0
M  V30 257 H 23.8564 4.02574 -1.37164 0
M  V30 258 N 22.1715 0.800033 1.35784 0
M  V30 259 C 23.4185 0.377342 1.98953 0
M  V30 260 C 23.7465 -1.05378 1.6348 0
M  V30 261 O 23.0015 -1.74459 0.886707 0
M  V30 262 C 23.3005 0.500276 3.53881 0
M  V30 263 C 22.9665 1.89375 4.09204 0
M  V30 264 C 21.6285 2.27499 4.24025 0
M  V30 265 C 23.9805 2.8057 4.39238 0
M  V30 266 C 21.3085 3.562 4.66195 0
M  V30 267 C 23.6605 4.0871 4.82844 0
M  V30 268 C 22.3245 4.46843 4.95871 0
M  V30 269 H 21.5945 0.138079 0.728021 0
M  V30 270 H 24.2415 1.01955 1.62103 0
M  V30 271 H 22.5465 -0.225405 3.91151 0
M  V30 272 H 24.2435 0.154097 4.00704 0
M  V30 273 H 20.8335 1.58753 3.98115 0
M  V30 274 H 25.0175 2.52367 4.27346 0
M  V30 275 H 20.2735 3.85602 4.74469 0
M  V30 276 H 24.4475 4.79481 5.05046 0
M  V30 277 H 22.0745 5.46623 5.28306 0
M  V30 278 N 23.6496 -1.47581 0.552962 0
M  V30 279 C 24.8776 -2.06875 0.0320556 0
M  V30 280 C 25.2926 -1.40625 -1.25976 0
M  V30 281 O 24.6496 -0.501349 -1.75479 0
M  V30 282 C 24.7006 -3.61092 -0.17167 0
M  V30 283 O 24.4216 -4.24858 1.06899 0
M  V30 284 C 25.9226 -4.37242 -0.730344 0
M  V30 285 H 23.1426 -0.669561 0.043915 0
M  V30 286 H 25.6866 -1.89646 0.765163 0
M  V30 287 H 23.8416 -3.7785 -0.854894 0
M  V30 288 H 24.2556 -5.17334 0.864059 0
M  V30 289 H 25.7296 -5.45842 -0.822203 0
M  V30 290 H 26.2066 -4.03235 -1.74064 0
M  V30 291 H 26.8126 -4.25219 -0.0829543 0
M  V30 292 N 25.1277 -0.289203 -1.54924 0
M  V30 293 C 26.3577 0.325989 -2.04012 0
M  V30 294 C 26.7657 1.48961 -1.1665 0
M  V30 295 O 26.1087 1.82794 -0.1822 0
M  V30 296 C 26.1707 0.856112 -3.49158 0
M  V30 297 C 25.8347 -0.180697 -4.56643 0
M  V30 298 C 26.8317 -1.0051 -5.10092 0
M  V30 299 C 24.5167 -0.318998 -5.01286 0
M  V30 300 C 26.5107 -1.95385 -6.06715 0
M  V30 301 C 24.1977 -1.27121 -5.97732 0
M  V30 302 C 25.1957 -2.08713 -6.50329 0
M  V30 303 O 24.8837 -3.02322 -7.44887 0
M  V30 304 H 24.6157 0.0765276 -0.671654 0
M  V30 305 H 27.1697 -0.423254 -2.00992 0
M  V30 306 H 25.3997 1.65567 -3.49463 0
M  V30 307 H 27.0887 1.38591 -3.81507 0
M  V30 308 H 27.8547 -0.90906 -4.76404 0
M  V30 309 H 23.7337 0.306108 -4.59983 0
M  V30 310 H 27.2777 -2.59111 -6.47694 0
M  V30 311 H 23.1747 -1.36801 -6.30837 0
M  V30 312 H 23.9427 -2.97165 -7.6265 0
M  V30 313 N 26.6058 1.57591 -0.0167156 0
M  V30 314 C 27.5358 2.12496 0.967858 0
M  V30 315 C 28.5168 1.03807 1.34752 0
M  V30 316 O 29.7018 1.31577 1.42833 0
M  V30 317 C 26.8318 2.64194 2.25431 0
M  V30 318 C 25.7858 3.77559 2.01576 0
M  V30 319 C 25.1118 4.15636 3.36379 0
M  V30 320 C 26.4118 5.04151 1.36489 0
M  V30 321 H 28.1058 2.95013 0.510643 0
M  V30 322 H 25.6518 1.41915 0.244181 0
M  V30 323 H 27.6048 3.01236 2.94678 0
M  V30 324 H 26.3288 1.78821 2.73296 0
M  V30 325 H 24.9878 3.40937 1.34751 0
M  V30 326 H 24.6358 3.27263 3.81979 0
M  V30 327 H 24.3358 4.92022 3.21229 0
M  V30 328 H 25.8598 4.5525 4.06915 0
M  V30 329 H 27.2738 5.38857 1.95718 0
M  V30 330 H 25.6708 5.85453 1.31776 0
M  V30 331 H 26.7408 4.83733 0.336219 0
M  V30 332 N 28.0839 -0.256276 1.55502 0
M  V30 333 C 29.0139 -1.32102 1.92539 0
M  V30 334 C 29.9949 -1.50684 0.789194 0
M  V30 335 O 31.1799 -1.63449 1.04872 0
M  V30 336 C 28.3099 -2.67752 2.21192 0
M  V30 337 C 27.2639 -2.63878 3.36975 0
M  V30 338 C 26.5899 -4.03236 3.51147 0
M  V30 339 C 27.8899 -2.21682 4.72921 0
M  V30 340 H 29.5839 -1.01351 2.81724 0
M  V30 341 H 27.1299 -0.486105 1.35547 0
M  V30 342 H 29.0829 -3.42365 2.45691 0
M  V30 343 H 27.8069 -3.0012 1.28824 0
M  V30 344 H 26.4659 -1.91722 3.12471 0
M  V30 345 H 26.1139 -4.32854 2.56216 0
M  V30 346 H 25.8139 -4.01535 4.29003 0
M  V30 347 H 27.3379 -4.79563 3.77957 0
M  V30 348 H 28.7519 -2.86023 4.96854 0
M  V30 349 H 27.1489 -2.3111 5.53812 0
M  V30 350 H 28.2189 -1.16833 4.70615 0
M  V30 351 N 29.562 -1.4872 -0.521534 0
M  V30 352 C 30.808 -1.574 -1.27879 0
M  V30 353 C 31.141 -0.250817 -1.92573 0
M  V30 354 O 30.416 0.743934 -1.79711 0
M  V30 355 C 30.699 -2.71843 -2.36164 0
M  V30 356 C 30.552 -4.13893 -1.76105 0
M  V30 357 C 31.871 -2.82008 -3.37875 0
M  V30 358 H 28.99 -0.572941 -0.463581 0
M  V30 359 H 31.632 -1.80927 -0.580119 0
M  V30 360 H 29.782 -2.51914 -2.95756 0
M  V30 361 H 31.454 -4.45284 -1.20499 0
M  V30 362 H 29.697 -4.20498 -1.06601 0
M  V30 363 H 30.368 -4.89804 -2.5455 0
M  V30 364 H 32.844 -3.00086 -2.88249 0
M  V30 365 H 31.72 -3.63796 -4.11028 0
M  V30 366 H 31.981 -1.90511 -3.98946 0
M  V30 367 N 31.0401 0.771051 -1.3745 0
M  V30 368 C 32.2881 1.52661 -1.32435 0
M  V30 369 C 32.6091 1.9479 0.0905024 0
M  V30 370 O 31.8791 1.66348 1.03466 0
M  V30 371 H 30.4591 0.566218 -0.487244 0
M  V30 372 H 33.1211 0.917636 -1.71946 0
M  V30 373 H 32.2171 2.42568 -1.96385 0
M  V30 374 N 32.5182 1.22032 0.997298 0
M  V30 375 C 33.4812 0.987909 2.06816 0
M  V30 376 C 34.4812 -0.0440084 1.6074 0
M  V30 377 O 35.6712 0.194053 1.73116 0
M  V30 378 C 32.8032 0.49132 3.37341 0
M  V30 379 H 33.9962 1.93803 2.28868 0
M  V30 380 H 31.5492 1.03838 1.16822 0
M  V30 381 H 32.2842 -0.463364 3.20973 0
M  V30 382 H 32.0692 1.23575 3.72118 0
M  V30 383 H 33.5592 0.348824 4.16141 0
M  V30 384 N 33.9963 -1.19345 1.0293 0
M  V30 385 C 34.9593 -2.20793 0.615069 0
M  V30 386 C 35.9593 -1.57553 -0.321533 0
M  V30 387 O 37.1493 -1.73862 -0.108483 0
M  V30 388 C 34.2813 -3.40754 -0.0999222 0
M  V30 389 H 35.4743 -2.58955 1.51269 0
M  V30 390 H 33.0273 -1.3303 0.820534 0
M  V30 391 H 33.7623 -3.0811 -1.01187 0
M  V30 392 H 33.5473 -3.87889 0.57309 0
M  V30 393 H 35.0373 -4.15898 -0.376645 0
M  V30 394 N 35.4744 -0.807222 -1.35358 0
M  V30 395 C 36.7204 -0.388463 -1.99045 0
M  V30 396 C 37.0534 1.04184 -1.63888 0
M  V30 397 O 36.3284 1.72292 -0.902535 0
M  V30 398 C 36.6114 -0.572783 -3.55515 0
M  V30 399 C 36.4644 -2.04807 -4.00468 0
M  V30 400 C 37.7834 0.00114064 -4.401 0
M  V30 401 H 34.9024 -0.142619 -0.723069 0
M  V30 402 H 37.5444 -1.01687 -1.60498 0
M  V30 403 H 35.6944 -0.0378425 -3.88482 0
M  V30 404 H 37.3664 -2.64544 -3.77908 0
M  V30 405 H 35.6094 -2.54427 -3.51353 0
M  V30 406 H 36.2804 -2.12792 -5.09337 0
M  V30 407 H 38.7564 -0.455716 -4.13597 0
M  V30 408 H 37.6324 -0.157737 -5.48673 0
M  V30 409 H 37.8934 1.09488 -4.28328 0
M  V30 410 N 36.9525 1.47285 -0.560781 0
M  V30 411 C 38.1995 2.02464 -0.038062 0
M  V30 412 C 38.5275 1.43474 1.31322 0
M  V30 413 O 37.7825 0.581311 1.86867 0
M  V30 414 C 38.0815 3.57258 0.100784 0
M  V30 415 C 37.7475 4.35184 -1.18007 0
M  V30 416 C 36.4095 4.56194 -1.53103 0
M  V30 417 C 38.7615 4.80098 -2.02867 0
M  V30 418 C 36.0895 5.19367 -2.729 0
M  V30 419 C 38.4415 5.44593 -3.21871 0
M  V30 420 C 37.1055 5.63835 -3.57276 0
M  V30 421 H 36.3755 0.740869 -0.0139279 0
M  V30 422 H 39.0225 1.76916 -0.733012 0
M  V30 423 H 37.3275 3.81819 0.878724 0
M  V30 424 H 39.0245 3.97606 0.520639 0
M  V30 425 H 35.6145 4.19113 -0.8968 0
M  V30 426 H 39.7985 4.63642 -1.7706 0
M  V30 427 H 35.0545 5.32459 -3.00496 0
M  V30 428 H 39.2285 5.78358 -3.87911 0
M  V30 429 H 36.8555 6.12557 -4.50197 0
M  V30 430 N 38.4306 0.297415 1.54768 0
M  V30 431 C 39.7076 -0.365847 1.92148 0
M  V30 432 C 40.0876 -1.71975 1.22424 0
M  V30 433 O 39.4356 -2.25666 0.358739 0
M  V30 434 C 39.6456 -0.484056 3.45627 0
M  V30 435 C 40.9936 -0.756594 4.17805 0
M  V30 436 O 42.0176 -0.568007 3.51642 0
M  V30 437 O 40.8766 -1.11863 5.34929 0
M  V30 438 H 37.9706 -0.203919 0.801465 0
M  V30 439 H 40.5166 0.34521 1.66152 0
M  V30 440 H 39.2886 0.467865 3.88493 0
M  V30 441 H 38.9116 -1.24372 3.77647 0
M  V30 442 N 39.9087 -1.5758 0.0250728 0
M  V30 443 C 40.8717 -2.08896 -0.943139 0
M  V30 444 C 41.8717 -1.00321 -1.25668 0
M  V30 445 O 43.0617 -1.26495 -1.19769 0
M  V30 446 C 40.1937 -2.55143 -2.26086 0
M  V30 447 H 41.3867 -2.95723 -0.498775 0
M  V30 448 H 38.9397 -1.54703 -0.222888 0
M  V30 449 H 39.6747 -1.71633 -2.75159 0
M  V30 450 H 39.4597 -3.34461 -2.04641 0
M  V30 451 H 40.9497 -2.95083 -2.95492 0
M  V30 452 N 41.3868 0.248026 -1.55636 0
M  V30 453 C 42.3168 1.31079 -1.93237 0
M  V30 454 C 43.2978 1.50264 -0.797174 0
M  V30 455 O 44.4828 1.62891 -1.05737 0
M  V30 456 C 41.6128 2.66575 -2.22609 0
M  V30 457 C 40.5668 2.62087 -3.3837 0
M  V30 458 C 39.8928 4.01369 -3.53281 0
M  V30 459 C 41.1928 2.19171 -4.7409 0
M  V30 460 H 42.8868 0.998556 -2.82257 0
M  V30 461 H 40.4328 0.47891 -1.35803 0
M  V30 462 H 42.3858 3.41057 -2.47503 0
M  V30 463 H 41.1098 2.99432 -1.30414 0
M  V30 464 H 39.7688 1.90063 -3.13483 0
M  V30 465 H 39.4168 4.31489 -2.58508 0
M  V30 466 H 39.1168 3.99254 -4.31127 0
M  V30 467 H 40.6408 4.77552 -3.80495 0
M  V30 468 H 42.0548 2.83384 -4.98363 0
M  V30 469 H 40.4518 2.2817 -5.5503 0
M  V30 470 H 41.5218 1.14336 -4.71227 0
M  V30 471 N 42.8649 1.48995 0.513639 0
M  V30 472 C 43.7749 1.67443 1.64317 0
M  V30 473 C 44.7909 0.556947 1.64846 0
M  V30 474 O 45.9669 0.830082 1.83498 0
M  V30 475 C 43.0319 1.72515 3.00732 0
M  V30 476 C 42.0929 2.96009 3.1093 0
M  V30 477 C 41.3259 3.00829 4.40837 0
M  V30 478 O 41.5489 2.13594 5.28898 0
M  V30 479 O 40.4829 3.93168 4.55744 0
M  V30 480 H 44.3089 2.63106 1.51687 0
M  V30 481 H 41.8939 1.32588 0.688543 0
M  V30 482 H 43.7759 1.78277 3.81831 0
M  V30 483 H 42.4509 0.800278 3.13651 0
M  V30 484 H 41.3579 2.9577 2.29065 0
M  V30 485 H 42.6909 3.87934 3.02933 0
M  V30 486 N 44.343 -0.763751 1.37857 0
M  V30 487 C 45.568 -1.55805 1.36893 0
M  V30 488 C 45.993 -1.88054 -0.0416135 0
M  V30 489 O 45.351 -1.49825 -1.02089 0
M  V30 490 C 45.399 -2.84012 2.22192 0
M  V30 491 O 44.503 -3.78732 1.63204 0
M  V30 492 H 43.844 -0.471638 0.46739 0
M  V30 493 H 46.374 -0.944657 1.81487 0
M  V30 494 H 46.384 -3.33037 2.35691 0
M  V30 495 H 45.059 -2.59869 3.24716 0
M  V30 496 H 43.636 -3.37402 1.58791 0
M  V30 497 N 45.8211 -1.22559 -0.990812 0
M  V30 498 C 46.7311 -1.01394 -2.11557 0
M  V30 499 C 47.7471 0.0383962 -1.73958 0
M  V30 500 O 48.9231 -0.154787 -2.00804 0
M  V30 501 C 45.9881 -0.596569 -3.41529 0
M  V30 502 C 45.0491 -1.72276 -3.93217 0
M  V30 503 C 44.2821 -1.32521 -5.16985 0
M  V30 504 O 44.5051 -0.204909 -5.70032 0
M  V30 505 O 43.4391 -2.14247 -5.62478 0
M  V30 506 H 47.2651 -1.95633 -2.32296 0
M  V30 507 H 44.8501 -1.01172 -1.0993 0
M  V30 508 H 46.7321 -0.374263 -4.19735 0
M  V30 509 H 45.4071 0.316939 -3.22145 0
M  V30 510 H 44.3141 -1.99961 -3.16174 0
M  V30 511 H 45.6471 -2.61421 -4.17037 0
M  V30 512 N 47.2992 1.18797 -1.03562 0
M  V30 513 C 48.7102 1.70322 -0.764676 0
M  V30 514 C 49.0612 1.82708 0.714996 0
M  V30 515 O 48.1862 1.50299 1.55689 0
M  V30 516 C 48.7812 3.09356 -1.38145 0
M  V30 517 C 47.3402 3.58114 -1.15895 0
M  V30 518 C 46.4872 2.34798 -1.4753 0
M  V30 519 H 49.4382 1.03543 -1.20268 0
M  V30 520 H 49.4592 3.72378 -0.781977 0
M  V30 521 H 48.9712 3.00309 -2.45837 0
M  V30 522 H 47.0722 3.72464 -0.100544 0
M  V30 523 H 47.1852 4.4184 -1.8524 0
M  V30 524 H 45.5492 2.38464 -0.894829 0
M  V30 525 H 46.3322 2.28375 -2.56319 0
M  V30 526 N 48.7773 0.814389 1.34928 0
M  V30 527 C 49.6873 0.231978 2.3345 0
M  V30 528 C 50.7033 -0.629139 1.62228 0
M  V30 529 O 51.8793 -0.539052 1.94052 0
M  V30 530 C 48.9443 -0.603482 3.41407 0
M  V30 531 C 48.0053 0.279037 4.28392 0
M  V30 532 C 47.2383 -0.516643 5.31193 0
M  V30 533 O 47.4613 -1.75068 5.4287 0
M  V30 534 O 46.3953 0.0965652 6.01823 0
M  V30 535 H 50.2213 1.04721 2.85074 0
M  V30 536 H 47.8063 0.576343 1.37836 0
M  V30 537 H 49.6883 -1.07908 4.0735 0
M  V30 538 H 48.3633 -1.39618 2.92042 0
M  V30 539 H 47.2703 0.801948 3.65403 0
M  V30 540 H 48.6033 1.03588 4.81176 0
M  V30 541 N 50.2554 -1.46986 0.568584 0
M  V30 542 C 51.1854 -2.32946 -0.160753 0
M  V30 543 C 52.1664 -1.44487 -0.897631 0
M  V30 544 O 53.3514 -1.73327 -0.875867 0
M  V30 545 C 50.4814 -3.26494 -1.18403 0
M  V30 546 C 49.4354 -4.24282 -0.562895 0
M  V30 547 C 48.7614 -5.07236 -1.69163 0
M  V30 548 C 50.0614 -5.19989 0.490761 0
M  V30 549 H 51.7554 -2.94175 0.556916 0
M  V30 550 H 49.3014 -1.4146 0.26927 0
M  V30 551 H 51.2544 -3.85477 -1.70251 0
M  V30 552 H 49.9784 -2.63343 -1.93179 0
M  V30 553 H 48.6374 -3.66541 -0.0656164 0
M  V30 554 H 48.2854 -4.4048 -2.42871 0
M  V30 555 H 47.9854 -5.7345 -1.28174 0
M  V30 556 H 49.5094 -5.6908 -2.21314 0
M  V30 557 H 50.9234 -5.73271 0.0579047 0
M  V30 558 H 49.3204 -5.94469 0.820165 0
M  V30 559 H 50.3904 -4.64777 1.3824 0
M  V30 560 N 51.7335 -0.305618 -1.54608 0
M  V30 561 C 52.9825 0.303098 -1.9941 0
M  V30 562 C 53.2955 1.54648 -1.19764 0
M  V30 563 O 54.5015 2.23007 -1.54855 0
M  V30 564 C 52.9575 0.590588 -3.55021 0
M  V30 565 C 52.5655 -0.634719 -4.43481 0
M  V30 566 C 54.3095 1.16025 -4.08336 0
M  V30 567 C 52.2165 -0.320126 -5.90533 0
M  V30 568 H 51.1465 0.117031 -0.744862 0
M  V30 569 H 53.7975 -0.415045 -1.78745 0
M  V30 570 H 52.1795 1.36845 -3.71604 0
M  V30 571 H 53.3535 -1.41079 -4.38672 0
M  V30 572 H 51.6685 -1.12333 -4.00962 0
M  V30 573 H 54.2655 1.40994 -5.15776 0
M  V30 574 H 54.6085 2.10397 -3.5922 0
M  V30 575 H 55.1415 0.443985 -3.95315 0
M  V30 576 H 51.8805 -1.23254 -6.43808 0
M  V30 577 H 51.4005 0.418579 -5.98338 0
M  V30 578 H 53.0795 0.0766241 -6.46955 0
M  V30 579 N 53.2116 1.57565 -0.0334293 0
M  V30 580 C 54.1216 2.13943 0.962572 0
M  V30 581 C 55.1376 1.09276 1.35406 0
M  V30 582 O 56.3136 1.41355 1.4346 0
M  V30 583 C 53.3786 2.65887 2.22497 0
M  V30 584 C 52.4396 3.85286 1.8935 0
M  V30 585 C 51.6726 4.34743 3.09571 0
M  V30 586 O 51.8956 3.83352 4.22371 0
M  V30 587 O 50.8296 5.26538 2.91618 0
M  V30 588 H 54.6556 2.99333 0.513169 0
M  V30 589 H 52.2406 1.4822 0.18743 0
M  V30 590 H 54.1226 2.99346 2.96598 0
M  V30 591 H 52.7976 1.83578 2.6661 0
M  V30 592 H 51.7046 3.56746 1.1262 0
M  V30 593 H 53.0376 4.68771 1.5005 0
M  V30 594 N 54.6897 -0.239769 1.55765 0
M  V30 595 C 56.1057 -0.588624 1.48349 0
M  V30 596 C 56.3057 -1.88005 0.72502 0
M  V30 597 O 55.3617 -2.51186 0.257269 0
M  V30 598 C 56.6747 -0.68474 2.928 0
M  V30 599 C 58.2227 -0.77659 3.03213 0
M  V30 600 C 58.6977 -0.904207 4.48986 0
M  V30 601 N 60.1887 -0.968896 4.52953 0
M  V30 602 C 60.9237 -1.08703 5.63002 0
M  V30 603 N 60.4197 -1.17026 6.82845 0
M  V30 604 N 62.2127 -1.12074 5.50814 0
M  V30 605 H 54.3637 0.607911 2.03515 0
M  V30 606 H 56.6267 0.21083 0.924259 0
M  V30 607 H 56.3327 0.194284 3.51163 0
M  V30 608 H 56.2067 -1.55435 3.43686 0
M  V30 609 H 58.5937 -1.64606 2.44926 0
M  V30 610 H 58.6747 0.118315 2.55526 0
M  V30 611 H 58.3187 -0.0392633 5.07885 0
M  V30 612 H 58.2487 -1.81426 4.9436 0
M  V30 613 H 60.7397 -0.915633 3.6664 0
M  V30 614 H 61.0527 -1.25966 7.62465 0
M  V30 615 H 59.3977 -1.13971 6.85591 0
M  V30 616 H 62.5887 -1.05226 4.5612 0
M  V30 617 H 62.7617 -1.20936 6.36615 0
M  V30 618 N 56.1678 -1.49265 -0.50573 0
M  V30 619 C 57.0998 -1.617 -1.62437 0
M  V30 620 C 58.1128 -0.499924 -1.54934 0
M  V30 621 O 59.3018 -0.771785 -1.60953 0
M  V30 622 C 56.4018 -1.5533 -3.01207 0
M  V30 623 C 55.5748 -2.8249 -3.33943 0
M  V30 624 C 54.6338 -2.69238 -4.52103 0
M  V30 625 O 53.6598 -3.43167 -4.5412 0
M  V30 626 N 54.8618 -1.80468 -5.51735 0
M  V30 627 H 57.6268 -2.58177 -1.52199 0
M  V30 628 H 55.1878 -1.46294 -0.693511 0
M  V30 629 H 57.1798 -1.44125 -3.78167 0
M  V30 630 H 55.7498 -0.667297 -3.05395 0
M  V30 631 H 54.9698 -3.08081 -2.45926 0
M  V30 632 H 56.2578 -3.66802 -3.5261 0
M  V30 633 H 55.6558 -1.19653 -5.52901 0
M  V30 634 H 54.2128 -1.75188 -6.27816 0
M  V30 635 N 57.6459 0.756429 -1.3826 0
M  V30 636 C 59.0619 1.0591 -1.19395 0
M  V30 637 C 59.2619 2.01459 -0.0406567 0
M  V30 638 O 58.3179 2.44909 0.614467 0
M  V30 639 C 59.6309 1.64191 -2.51916 0
M  V30 640 C 61.1789 1.76376 -2.58574 0
M  V30 641 C 61.6539 2.38069 -3.91264 0
M  V30 642 N 63.1449 2.45503 -3.92788 0
M  V30 643 C 63.8799 2.94126 -4.92217 0
M  V30 644 N 63.3759 3.42805 -6.02043 0
M  V30 645 N 65.1689 2.9314 -4.7961 0
M  V30 646 H 57.3199 0.122313 -2.12048 0
M  V30 647 H 59.5829 0.116892 -0.940766 0
M  V30 648 H 59.2889 1.01451 -3.3675 0
M  V30 649 H 59.1629 2.6329 -2.70108 0
M  V30 650 H 61.5499 2.38244 -1.74137 0
M  V30 651 H 61.6309 0.759894 -2.44252 0
M  V30 652 H 61.2749 1.76835 -4.76121 0
M  V30 653 H 61.2049 3.39091 -4.02895 0
M  V30 654 H 63.6959 2.1107 -3.13461 0
M  V30 655 H 64.0089 3.78354 -6.73846 0
M  V30 656 H 62.3539 3.4087 -6.05667 0
M  V30 657 H 65.5449 2.54419 -3.92923 0
M  V30 658 H 65.7179 3.30721 -5.5725 0
M  V30 659 N 59.124 1.23083 0.984299 0
M  V30 660 C 60.054 1.03292 2.09411 0
M  V30 661 C 61.035 -0.048923 1.7003 0
M  V30 662 O 62.22 0.114967 1.93859 0
M  V30 663 C 59.35 0.619155 3.41736 0
M  V30 664 C 58.304 1.64791 3.95004 0
M  V30 665 C 57.63 1.0897 5.23478 0
M  V30 666 C 58.93 3.03999 4.24714 0
M  V30 667 H 60.624 1.96119 2.26225 0
M  V30 668 H 58.17 0.944344 1.08711 0
M  V30 669 H 60.123 0.467777 4.18796 0
M  V30 670 H 58.847 -0.344786 3.24775 0
M  V30 671 H 57.506 1.78721 3.20085 0
M  V30 672 H 57.154 0.11686 5.02864 0
M  V30 673 H 56.854 1.77704 5.60085 0
M  V30 674 H 58.378 0.950093 6.03163 0
M  V30 675 H 59.792 2.93393 4.92538 0
M  V30 676 H 58.189 3.69936 4.72512 0
M  V30 677 H 59.259 3.53285 3.32142 0
M  V30 678 N 60.6021 -1.18246 1.0419 0
M  V30 679 C 61.5121 -2.25574 0.644476 0
M  V30 680 C 62.5281 -1.70845 -0.329826 0
M  V30 681 O 63.7041 -2.00554 -0.184443 0
M  V30 682 C 60.7691 -3.46697 0.014877 0
M  V30 683 C 59.8301 -4.16554 1.03834 0
M  V30 684 C 59.0631 -5.31894 0.438692 0
M  V30 685 O 59.2861 -5.65385 -0.754752 0
M  V30 686 O 58.2201 -5.90459 1.168 0
M  V30 687 H 62.0461 -2.61836 1.53869 0
M  V30 688 H 59.6311 -1.25352 0.812854 0
M  V30 689 H 61.5131 -4.20062 -0.335538 0
M  V30 690 H 60.1881 -3.12255 -0.853138 0
M  V30 691 H 59.0951 -3.45251 1.44057 0
M  V30 692 H 60.4281 -4.54998 1.87716 0
M  V30 693 N 62.0802 -0.821533 -1.34494 0
M  V30 694 C 63.0102 -0.257138 -2.3208 0
M  V30 695 C 63.9912 0.625645 -1.58176 0
M  V30 696 O 65.1762 0.552811 -1.86166 0
M  V30 697 C 62.3062 0.582958 -3.42372 0
M  V30 698 C 61.2602 -0.202571 -4.2752 0
M  V30 699 C 60.5862 0.760179 -5.29269 0
M  V30 700 C 61.8862 -1.40998 -5.02908 0
M  V30 701 H 63.5802 -1.07247 -2.79532 0
M  V30 702 H 61.1262 -0.517163 -1.34393 0
M  V30 703 H 63.0792 0.987972 -4.09655 0
M  V30 704 H 61.8032 1.43133 -2.93565 0
M  V30 705 H 60.4622 -0.588936 -3.61838 0
M  V30 706 H 60.1102 1.60447 -4.76724 0
M  V30 707 H 59.8102 0.238809 -5.87115 0
M  V30 708 H 61.3342 1.16308 -5.9942 0
M  V30 709 H 62.7482 -1.07905 -5.63054 0
M  V30 710 H 61.1452 -1.86689 -5.70322 0
M  V30 711 H 62.2152 -2.1889 -4.32684 0
M  V30 712 N 63.5583 1.46682 -0.576371 0
M  V30 713 C 64.9743 1.57822 -0.237562 0
M  V30 714 C 65.1743 1.57237 1.26011 0
M  V30 715 O 64.2303 1.48596 2.04146 0
M  V30 716 C 65.5433 2.87499 -0.881168 0
M  V30 717 C 67.0913 3.01119 -0.85417 0
M  V30 718 C 67.5663 4.33524 -1.4772 0
M  V30 719 N 69.0573 4.40207 -1.44125 0
M  V30 720 C 69.7923 5.4126 -1.89276 0
M  V30 721 N 69.2883 6.49021 -2.42371 0
M  V30 722 N 71.0813 5.32422 -1.80231 0
M  V30 723 H 63.2323 1.45306 -1.54919 0
M  V30 724 H 65.4953 0.692733 -0.647167 0
M  V30 725 H 65.2013 2.9372 -1.93447 0
M  V30 726 H 65.0753 3.75224 -0.385592 0
M  V30 727 H 67.4623 2.94485 0.190491 0
M  V30 728 H 67.5433 2.14887 -1.3877 0
M  V30 729 H 67.1873 4.40916 -2.52103 0
M  V30 730 H 67.1173 5.1852 -0.918947 0
M  V30 731 H 69.6083 3.62931 -1.05307 0
M  V30 732 H 69.9213 7.2233 -2.74698 0
M  V30 733 H 68.2663 6.49858 -2.46393 0
M  V30 734 H 71.4573 4.47137 -1.38514 0
M  V30 735 H 71.6303 6.11034 -2.15735 0
M  V30 736 N 65.0364 0.313813 1.54444 0
M  V30 737 C 65.9684 -0.590425 2.21465 0
M  V30 738 C 66.9814 -1.08753 1.21147 0
M  V30 739 O 68.1704 -1.00278 1.4767 0
M  V30 740 C 65.2704 -1.82179 2.85769 0
M  V30 741 C 64.4434 -1.46502 4.12136 0
M  V30 742 C 63.5024 -2.55288 4.60124 0
M  V30 743 O 62.5284 -2.19842 5.25032 0
M  V30 744 N 63.7304 -3.86053 4.33525 0
M  V30 745 H 66.4954 -0.0166033 2.99695 0
M  V30 746 H 64.0564 0.136578 1.61323 0
M  V30 747 H 66.0484 -2.54328 3.14801 0
M  V30 748 H 64.6184 -2.30369 2.11303 0
M  V30 749 H 63.8384 -0.575595 3.89975 0
M  V30 750 H 65.1264 -1.20221 4.94393 0
M  V30 751 H 64.5244 -4.17654 3.81552 0
M  V30 752 H 63.0814 -4.54461 4.67235 0
M  V30 753 N 66.5145 -1.57545 0.0417849 0
M  V30 754 C 67.4465 -2.07904 -0.964799 0
M  V30 755 C 68.4595 -1.00497 -1.28079 0
M  V30 756 O 69.6485 -1.28087 -1.24322 0
M  V30 757 C 66.7485 -2.49928 -2.28887 0
M  V30 758 C 65.9215 -3.80562 -2.15619 0
M  V30 759 C 64.9805 -4.08999 -3.31069 0
M  V30 760 O 64.0065 -4.79061 -3.0739 0
M  V30 761 N 65.2085 -3.6017 -4.55256 0
M  V30 762 H 67.9735 -2.94886 -0.535029 0
M  V30 763 H 65.5345 -1.61252 -0.144681 0
M  V30 764 H 67.5265 -2.66034 -3.04972 0
M  V30 765 H 66.0965 -1.68245 -2.63463 0
M  V30 766 H 65.3165 -3.74129 -1.24183 0
M  V30 767 H 66.6045 -4.66126 -2.03971 0
M  V30 768 H 66.0025 -3.03512 -4.77386 0
M  V30 769 H 64.5595 -3.81532 -5.28466 0
M  V30 770 N 67.9926 0.231505 -1.5589 0
M  V30 771 C 68.9026 1.308 -1.94752 0
M  V30 772 C 69.9186 1.51826 -0.849989 0
M  V30 773 O 71.0946 1.6515 -1.15271 0
M  V30 774 C 68.1596 2.63968 -2.24771 0
M  V30 775 C 67.2206 2.51331 -3.48039 0
M  V30 776 C 66.4536 3.78148 -3.76616 0
M  V30 777 O 66.6766 4.80722 -3.07022 0
M  V30 778 O 65.6106 3.75857 -4.70123 0
M  V30 779 H 69.4366 1.0083 -2.86474 0
M  V30 780 H 67.0216 0.433547 -1.42971 0
M  V30 781 H 68.9036 3.42633 -2.45318 0
M  V30 782 H 67.5786 2.9364 -1.36225 0
M  V30 783 H 66.4856 1.709 -3.32782 0
M  V30 784 H 67.8186 2.26601 -4.36936 0
M  V30 785 N 69.4707 1.49531 0.497807 0
M  V30 786 C 70.4007 1.6935 1.60757 0
M  V30 787 C 71.3817 0.542218 1.61227 0
M  V30 788 O 72.5667 0.778417 1.77917 0
M  V30 789 C 69.6967 1.76298 2.99226 0
M  V30 790 C 68.6507 2.91248 3.13622 0
M  V30 791 C 67.9767 2.83312 4.53474 0
M  V30 792 C 69.2767 4.3214 2.93346 0
M  V30 793 H 70.9707 2.62263 1.44425 0
M  V30 794 H 68.5167 1.26208 0.693367 0
M  V30 795 H 70.4697 1.88749 3.76765 0
M  V30 796 H 69.1937 0.799871 3.16654 0
M  V30 797 H 67.8527 2.78404 2.38509 0
M  V30 798 H 67.5007 1.84902 4.67782 0
M  V30 799 H 67.2007 3.60465 4.64046 0
M  V30 800 H 68.7247 2.97775 5.33069 0
M  V30 801 H 70.1387 4.45649 3.60652 0
M  V30 802 H 68.5357 5.1054 3.15387 0
M  V30 803 H 69.6057 4.46363 1.89441 0
M  V30 804 N 70.9488 -0.749086 1.3866 0
M  V30 805 C 72.3648 -1.05276 1.19955 0
M  V30 806 C 72.5648 -2.01435 0.05134 0
M  V30 807 O 71.6208 -2.45232 -0.60147 0
M  V30 808 C 72.9338 -1.62853 2.52783 0
M  V30 809 C 74.4818 -1.75002 2.59506 0
M  V30 810 C 74.9568 -2.35991 3.92521 0
M  V30 811 N 76.4478 -2.43416 3.94085 0
M  V30 812 C 77.1828 -2.91511 4.9377 0
M  V30 813 N 76.6788 -3.39608 6.03853 0
M  V30 814 N 78.4718 -2.90592 4.81157 0
M  V30 815 H 70.6228 -0.111066 2.12109 0
M  V30 816 H 72.8858 -0.111901 0.941373 0
M  V30 817 H 72.5918 -0.99664 3.37283 0
M  V30 818 H 72.4658 -2.61854 2.715 0
M  V30 819 H 74.8528 -2.37317 1.75398 0
M  V30 820 H 74.9338 -0.74693 2.44652 0
M  V30 821 H 74.5778 -1.74308 4.77053 0
M  V30 822 H 74.5078 -3.3695 4.04688 0
M  V30 823 H 76.9988 -2.09405 3.14576 0
M  V30 824 H 77.3118 -3.74775 6.75843 0
M  V30 825 H 75.6568 -3.37653 6.07466 0
M  V30 826 H 78.8478 -2.52332 3.94267 0
M  V30 827 H 79.0208 -3.27762 5.58996 0
M  V30 828 N 72.4269 -1.23603 -0.977757 0
M  V30 829 C 73.3899 -1.02069 -2.05218 0
M  V30 830 C 74.3899 0.0184305 -1.60789 0
M  V30 831 O 75.5799 -0.221569 -1.72785 0
M  V30 832 C 72.7119 -0.544926 -3.36517 0
M  V30 833 H 73.9049 -1.9742 -2.25755 0
M  V30 834 H 71.4579 -1.05684 -1.15155 0
M  V30 835 H 72.1929 0.412241 -3.21669 0
M  V30 836 H 71.9779 -1.2948 -3.70105 0
M  V30 837 H 73.4679 -0.414985 -4.15533 0
M  V30 838 N 73.905 1.17692 -1.04816 0
M  V30 839 C 75.321 1.39863 -0.768794 0
M  V30 840 C 75.521 1.91118 0.638451 0
M  V30 841 O 74.577 2.10036 1.40146 0
M  V30 842 C 75.89 2.39274 -1.82122 0
M  V30 843 C 77.438 2.52987 -1.843 0
M  V30 844 C 77.913 3.55669 -2.88555 0
M  V30 845 N 79.404 3.63183 -2.87493 0
M  V30 846 C 80.139 4.42381 -3.64811 0
M  V30 847 N 79.635 5.25125 -4.51903 0
M  V30 848 N 81.428 4.37217 -3.53267 0
M  V30 849 H 73.579 0.82752 -1.95617 0
M  V30 850 H 75.842 0.426123 -0.846831 0
M  V30 851 H 75.548 2.08678 -2.83102 0
M  V30 852 H 75.422 3.38725 -1.65967 0
M  V30 853 H 77.809 2.82896 -0.839869 0
M  V30 854 H 77.89 1.53623 -2.04532 0
M  V30 855 H 77.534 3.26499 -3.89051 0
M  V30 856 H 77.464 4.54728 -2.65575 0
M  V30 857 H 79.955 3.04103 -2.24343 0
M  V30 858 H 80.268 5.82728 -5.07591 0
M  V30 859 H 78.613 5.24519 -4.55966 0
M  V30 860 H 81.804 3.71626 -2.84625 0
M  V30 861 H 81.977 4.98696 -4.13771 0
M  V30 862 N 75.3831 0.828654 1.34056 0
M  V30 863 C 76.6131 0.431993 2.02033 0
M  V30 864 C 77.0211 -0.96844 1.62536 0
M  V30 865 O 76.3641 -1.6391 0.829408 0
M  V30 866 C 76.4261 0.461224 3.56529 0
M  V30 867 C 76.0901 1.81599 4.1937 0
M  V30 868 C 77.0871 2.7777 4.39477 0
M  V30 869 C 74.7721 2.10604 4.56017 0
M  V30 870 C 76.7661 4.01115 4.95364 0
M  V30 871 C 74.4531 3.34207 5.11614 0
M  V30 872 C 75.4511 4.2928 5.31232 0
M  V30 873 O 75.1391 5.50699 5.8565 0
M  V30 874 H 74.8711 0.170943 0.654029 0
M  V30 875 H 77.4251 1.11988 1.72185 0
M  V30 876 H 75.6551 -0.283388 3.8566 0
M  V30 877 H 77.3441 0.0838149 4.05813 0
M  V30 878 H 78.1101 2.56659 4.11523 0
M  V30 879 H 73.9891 1.37402 4.40047 0
M  V30 880 H 77.5331 4.75333 5.10592 0
M  V30 881 H 73.4301 3.55179 5.38997 0
M  V30 882 H 74.1981 5.52298 6.04077 0
M  V30 883 N 76.8612 -1.46375 0.584142 0
M  V30 884 C 77.8092 -2.32042 -0.161047 0
M  V30 885 C 78.8032 -1.44569 -0.882966 0
M  V30 886 O 80.0092 -1.61186 -0.801191 0
M  V30 887 H 76.3842 -0.748659 -0.0708033 0
M  V30 888 H 78.3552 -2.92704 0.580269 0
M  V30 889 C 77.1042 -3.27762 -1.1605 0
M  V30 890 H 76.4272 -3.95051 -0.614419 0
M  V30 891 H 77.8672 -3.90481 -1.65228 0
M  V30 892 C 76.3262 -2.53218 -2.22221 0
M  V30 893 O 76.8562 -2.29628 -3.29597 0
M  V30 894 N 75.0622 -2.13756 -1.96868 0
M  V30 895 H 74.6092 -2.33142 -1.09557 0
M  V30 896 H 74.5672 -1.642 -2.68115 0
M  V30 897 N 78.3393 -0.321999 -1.54275 0
M  V30 898 C 79.2693 0.537411 -2.27231 0
M  V30 899 C 80.2503 1.12064 -1.27968 0
M  V30 900 O 81.4353 1.14606 -1.56777 0
M  V30 901 C 78.5653 1.69919 -3.02894 0
M  V30 902 C 77.5193 1.24534 -4.09482 0
M  V30 903 C 76.8453 2.49394 -4.72977 0
M  V30 904 C 78.1453 0.361335 -5.21049 0
M  V30 905 H 79.8393 -0.0711406 -2.99315 0
M  V30 906 H 77.3853 -0.0356555 -1.43956 0
M  V30 907 H 79.3383 2.30668 -3.52662 0
M  V30 908 H 78.0623 2.33431 -2.28424 0
M  V30 909 H 76.7213 0.660782 -3.60596 0
M  V30 910 H 76.3693 3.11265 -3.95124 0
M  V30 911 H 76.0693 2.19718 -5.44975 0
M  V30 912 H 77.5933 3.10908 -5.25517 0
M  V30 913 H 79.0073 0.875072 -5.66582 0
M  V30 914 H 77.4043 0.157428 -5.99893 0
M  V30 915 H 78.4743 -0.60822 -4.8107 0
M  V30 916 N 79.8174 1.5752 -0.0501392 0
M  V30 917 C 81.0424 1.97376 0.636997 0
M  V30 918 C 81.4674 0.927466 1.63645 0
M  V30 919 O 80.8254 -0.10941 1.8097 0
M  V30 920 C 80.8734 3.36304 1.30123 0
M  V30 921 O 79.9774 3.34156 2.41689 0
M  V30 922 H 79.3184 0.642998 0.165679 0
M  V30 923 H 81.8484 2.04258 -0.118233 0
M  V30 924 H 81.8584 3.73008 1.65315 0
M  V30 925 H 80.5334 4.11993 0.568746 0
M  V30 926 H 79.1104 3.09196 2.08451 0
M  V30 927 N 81.2955 -0.223234 1.56011 0
M  V30 928 C 82.2275 -1.30006 1.88762 0
M  V30 929 C 83.2405 -1.43129 0.775746 0
M  V30 930 O 84.4295 -1.44057 1.05403 0
M  V30 931 C 81.5295 -2.67589 2.07965 0
M  V30 932 C 80.7025 -2.76434 3.38973 0
M  V30 933 C 79.7615 -3.95019 3.47629 0
M  V30 934 O 78.7875 -3.83436 4.20672 0
M  V30 935 N 79.9895 -5.09249 2.78649 0
M  V30 936 H 82.7545 -1.02238 2.81722 0
M  V30 937 H 80.3155 -0.413278 1.56536 0
M  V30 938 H 82.3075 -3.45297 2.11073 0
M  V30 939 H 80.8775 -2.87964 1.21638 0
M  V30 940 H 80.0975 -1.85216 3.47978 0
M  V30 941 H 81.3855 -2.79313 4.25278 0
M  V30 942 H 80.7835 -5.21556 2.19081 0
M  V30 943 H 79.3405 -5.85007 2.8742 0
M  V30 944 N 82.7736 -1.49793 -0.48987 0
M  V30 945 C 84.0216 -1.59525 -1.24081 0
M  V30 946 C 84.3426 -0.288953 -1.92847 0
M  V30 947 O 83.6126 0.692436 -1.83254 0
M  V30 948 H 82.1926 -0.587796 -0.460983 0
M  V30 949 H 84.8546 -1.86477 -0.566778 0
M  V30 950 H 83.9506 -2.39696 -1.99881 0
M  V30 951 N 84.2517 0.741722 -1.39055 0
M  V30 952 C 85.4997 1.49818 -1.35643 0
M  V30 953 C 85.8207 1.94938 0.0491642 0
M  V30 954 O 85.0907 1.68505 0.999141 0
M  V30 955 H 83.6707 0.555755 -0.499144 0
M  V30 956 H 86.3327 0.880957 -1.73854 0
M  V30 957 H 85.4287 2.38348 -2.01486 0
M  V30 958 N 85.7298 1.2412 0.971189 0
M  V30 959 C 86.9598 1.10415 1.7462 0
M  V30 960 C 87.3678 -0.346462 1.86001 0
M  V30 961 O 86.7108 -1.25104 1.34517 0
M  V30 962 C 86.7728 1.66596 3.18568 0
M  V30 963 C 86.4368 3.15446 3.3067 0
M  V30 964 C 87.4338 4.12636 3.16271 0
M  V30 965 C 85.1188 3.55337 3.55022 0
M  V30 966 C 87.1128 5.47699 3.26044 0
M  V30 967 C 84.7998 4.90542 3.64434 0
M  V30 968 C 85.7978 5.86532 3.49956 0
M  V30 969 O 85.4858 7.19279 3.59017 0
M  V30 970 H 85.2178 0.386616 0.55453 0
M  V30 971 H 87.7718 1.64633 1.22821 0
M  V30 972 H 86.0018 1.06808 3.71657 0
M  V30 973 H 87.6908 1.48232 3.77865 0
M  V30 974 H 88.4568 3.8316 2.97344 0
M  V30 975 H 84.3358 2.8113 3.65359 0
M  V30 976 H 87.8798 6.22603 3.14661 0
M  V30 977 H 83.7768 5.19691 3.82873 0
M  V30 978 H 84.5448 7.27153 3.75754 0
M  V30 979 N 87.2079 -1.17134 1.05439 0
M  V30 980 C 88.1179 -2.24878 0.668365 0
M  V30 981 C 89.1339 -1.71186 -0.311687 0
M  V30 982 O 90.3099 -2.00738 -0.163161 0
M  V30 983 C 87.3749 -3.46662 0.051648 0
M  V30 984 C 86.4359 -4.15429 1.08246 0
M  V30 985 C 85.6689 -5.31399 0.495082 0
M  V30 986 O 85.8919 -5.66153 -0.694743 0
M  V30 987 O 84.8259 -5.89187 1.23056 0
M  V30 988 H 88.6519 -2.60189 1.56637 0
M  V30 989 H 86.2369 -1.24482 0.826104 0
M  V30 990 H 88.1189 -4.20394 -0.290966 0
M  V30 991 H 86.7939 -3.13142 -0.819971 0
M  V30 992 H 85.7009 -3.43704 1.47711 0
M  V30 993 H 87.0339 -4.52982 1.92532 0
M  V30 994 N 88.686 -0.835752 -1.33615 0
M  V30 995 C 89.596 -0.269088 -2.33052 0
M  V30 996 C 90.612 0.603251 -1.63208 0
M  V30 997 O 91.788 0.508112 -1.94885 0
M  V30 998 C 88.853 0.549091 -3.42324 0
M  V30 999 C 87.914 -0.347156 -4.27894 0
M  V30 1000 C 87.147 0.43207 -5.31948 0
M  V30 1001 O 87.37 1.66409 -5.45586 0
M  V30 1002 O 86.304 -0.192298 -6.01593 0
M  V30 1003 H 90.13 -1.09243 -2.83372 0
M  V30 1004 H 87.715 -0.598198 -1.36901 0
M  V30 1005 H 89.597 1.01414 -4.09015 0
M  V30 1006 H 88.272 1.34955 -2.94226 0
M  V30 1007 H 87.179 -0.859979 -3.64081 0
M  V30 1008 H 88.512 -1.1123 -4.79467 0
M  V30 1009 N 90.1641 1.46063 -0.591896 0
M  V30 1010 C 91.0941 2.33172 0.123673 0
M  V30 1011 C 92.0751 1.45897 0.87453 0
M  V30 1012 O 93.2601 1.74698 0.848181 0
M  V30 1013 C 90.3901 3.28336 1.13194 0
M  V30 1014 C 89.3441 4.25124 0.495324 0
M  V30 1015 C 88.6701 5.09863 1.61071 0
M  V30 1016 C 89.9701 5.19143 -0.573425 0
M  V30 1017 H 91.6641 2.93252 -0.603646 0
M  V30 1018 H 89.2101 1.41014 -0.291741 0
M  V30 1019 H 91.1631 3.88137 1.64097 0
M  V30 1020 H 89.8871 2.66383 1.88965 0
M  V30 1021 H 88.5461 3.66599 0.00729452 0
M  V30 1022 H 88.1941 4.44288 2.35832 0
M  V30 1023 H 87.8941 5.75417 1.19035 0
M  V30 1024 H 89.4181 5.72529 2.12233 0
M  V30 1025 H 90.8321 5.73106 -0.1491 0
M  V30 1026 H 89.2291 5.93089 -0.914636 0
M  V30 1027 H 90.2991 4.62519 -1.45617 0
M  V30 1028 N 91.6422 0.330177 1.54103 0
M  V30 1029 C 92.5522 -0.541534 2.28264 0
M  V30 1030 C 93.5682 -1.12351 1.32866 0
M  V30 1031 O 94.7442 -1.14206 1.65888 0
M  V30 1032 C 91.8092 -1.68322 3.03098 0
M  V30 1033 C 90.8702 -1.13238 4.14096 0
M  V30 1034 C 90.1032 -2.21966 4.85352 0
M  V30 1035 O 90.3262 -3.42437 4.56172 0
M  V30 1036 O 89.2602 -1.87013 5.7211 0
M  V30 1037 H 93.0862 0.060938 3.03639 0
M  V30 1038 H 90.6712 0.09565 1.49093 0
M  V30 1039 H 92.5532 -2.34777 3.49939 0
M  V30 1040 H 91.2282 -2.27176 2.30593 0
M  V30 1041 H 90.1352 -0.432736 3.71589 0
M  V30 1042 H 91.4682 -0.588898 4.88664 0
M  V30 1043 N 93.1203 -1.57491 0.0584922 0
M  V30 1044 C 94.5363 -1.56792 -0.298091 0
M  V30 1045 C 94.7363 -1.06679 -1.70944 0
M  V30 1046 O 93.7923 -0.726672 -2.41818 0
M  V30 1047 C 95.1053 -3.00461 -0.119879 0
M  V30 1048 C 96.6533 -3.1242 -0.190428 0
M  V30 1049 C 97.1283 -4.57982 -0.0406567 0
M  V30 1050 N 98.6193 -4.63099 -0.0966958 0
M  V30 1051 C 99.3543 -5.734 -0.00502943 0
M  V30 1052 N 98.8503 -6.9266 0.139402 0
M  V30 1053 N 100.643 -5.62067 -0.0611391 0
M  V30 1054 H 92.7943 -1.88386 0.98105 0
M  V30 1055 H 95.0573 -0.867865 0.381463 0
M  V30 1056 H 94.7633 -3.41187 0.85349 0
M  V30 1057 H 94.6373 -3.66843 -0.877833 0
M  V30 1058 H 97.0243 -2.71589 -1.15427 0
M  V30 1059 H 97.1053 -2.48702 0.598405 0
M  V30 1060 H 96.7493 -4.995 0.919897 0
M  V30 1061 H 96.6793 -5.19715 -0.848727 0
M  V30 1062 H 99.1703 -3.77331 -0.207277 0
M  V30 1063 H 99.4833 -7.72536 0.201855 0
M  V30 1064 H 97.8283 -6.94781 0.174586 0
M  V30 1065 H 101.019 -4.67782 -0.172583 0
M  V30 1066 H 101.192 -6.47999 0.0137562 0
M  V30 1067 N 94.5984 0.214957 -1.56127 0
M  V30 1068 C 95.8444 0.939762 -1.79712 0
M  V30 1069 C 96.1774 1.83723 -0.629247 0
M  V30 1070 O 95.4524 1.90925 0.371197 0
M  V30 1071 C 95.7354 1.77306 -3.13424 0
M  V30 1072 C 95.5884 0.90164 -4.40671 0
M  V30 1073 C 96.9074 2.74956 -3.43638 0
M  V30 1074 H 94.0264 0.340214 -0.653776 0
M  V30 1075 H 96.6684 0.20824 -1.88855 0
M  V30 1076 H 94.8184 2.39673 -3.0576 0
M  V30 1077 H 96.4904 0.294206 -4.60361 0
M  V30 1078 H 94.7334 0.207368 -4.33304 0
M  V30 1079 H 95.4044 1.51923 -5.30682 0
M  V30 1080 H 97.8804 2.22724 -3.51473 0
M  V30 1081 H 96.7564 3.30358 -4.38355 0
M  V30 1082 H 97.0174 3.53023 -2.66134 0
M  V30 1083 N 96.0765 1.50051 0.48192 0
M  V30 1084 C 97.3225 1.60736 1.2366 0
M  V30 1085 C 97.6555 0.301786 1.91841 0
M  V30 1086 O 96.9305 -0.696025 1.8162 0
M  V30 1087 C 97.2135 2.78009 2.28874 0
M  V30 1088 C 97.0665 4.18416 1.65069 0
M  V30 1089 C 98.3855 2.90867 3.30279 0
M  V30 1090 H 95.5045 0.585031 0.448228 0
M  V30 1091 H 98.1465 1.82402 0.531946 0
M  V30 1092 H 96.2965 2.59667 2.88973 0
M  V30 1093 H 97.9685 4.48322 1.0865 0
M  V30 1094 H 96.2115 4.23177 0.954148 0
M  V30 1095 H 96.8825 4.96381 2.41474 0
M  V30 1096 H 99.3585 3.07623 2.80191 0
M  V30 1097 H 98.2345 3.74566 4.01238 0
M  V30 1098 H 98.4955 2.01021 3.93755 0
M  V30 1099 N 97.5546 -0.734337 1.39446 0
M  V30 1100 C 98.4846 -1.86155 1.40955 0
M  V30 1101 C 99.4656 -1.67898 0.272827 0
M  V30 1102 O 100.651 -1.88207 0.478743 0
M  V30 1103 C 97.7806 -3.23912 1.25294 0
M  V30 1104 C 96.7346 -3.56808 2.36373 0
M  V30 1105 C 96.0606 -4.93508 2.058 0
M  V30 1106 C 97.3606 -3.59713 3.78687 0
M  V30 1107 H 99.0546 -1.8515 2.35287 0
M  V30 1108 H 96.6006 -0.889367 1.13253 0
M  V30 1109 H 98.5536 -4.02443 1.2497 0
M  V30 1110 H 97.2776 -3.25446 0.274308 0
M  V30 1111 H 95.9366 -2.80606 2.35914 0
M  V30 1112 H 95.5846 -4.91623 1.06374 0
M  V30 1113 H 95.2846 -5.16486 2.80208 0
M  V30 1114 H 96.8086 -5.74396 2.07128 0
M  V30 1115 H 98.2226 -4.2832 3.81071 0
M  V30 1116 H 96.6196 -3.94209 4.52459 0
M  V30 1117 H 97.6896 -2.59504 4.09617 0
M  V30 1118 N 99.0327 -1.24633 -0.964593 0
M  V30 1119 C 100.449 -1.01239 -1.2338 0
M  V30 1120 C 100.649 0.2769 -1.99588 0
M  V30 1121 O 99.7047 0.992241 -2.32187 0
M  V30 1122 C 101.018 -2.22937 -2.01791 0
M  V30 1123 C 102.566 -2.27594 -2.14872 0
M  V30 1124 C 103.041 -3.48921 -2.96678 0
M  V30 1125 N 104.532 -3.49257 -3.04259 0
M  V30 1126 C 105.267 -4.39795 -3.67924 0
M  V30 1127 N 104.763 -5.40591 -4.33281 0
M  V30 1128 N 106.556 -4.275 -3.64966 0
M  V30 1129 H 98.7067 -2.0748 -0.454502 0
M  V30 1130 H 100.97 -0.910647 -0.26349 0
M  V30 1131 H 100.676 -3.16587 -1.53184 0
M  V30 1132 H 100.55 -2.25306 -3.02518 0
M  V30 1133 H 102.937 -1.34473 -2.6268 0
M  V30 1134 H 103.018 -2.2925 -1.13482 0
M  V30 1135 H 102.662 -4.42359 -2.49562 0
M  V30 1136 H 102.592 -3.4451 -3.98272 0
M  V30 1137 H 105.083 -2.76337 -2.57771 0
M  V30 1138 H 105.396 -6.05904 -4.79687 0
M  V30 1139 H 103.741 -5.44475 -4.3194 0
M  V30 1140 H 106.932 -3.47987 -3.13086 0
M  V30 1141 H 107.105 -4.98258 -4.14298 0
M  V30 1142 N 100.511 1.16574 -1.06058 0
M  V30 1143 C 101.441 2.23057 -0.690488 0
M  V30 1144 C 102.422 1.67141 0.315901 0
M  V30 1145 O 103.607 1.93253 0.191556 0
M  V30 1146 C 100.737 3.47222 -0.073625 0
M  V30 1147 C 99.6908 4.16016 -1.00573 0
M  V30 1148 C 99.0168 5.34104 -0.252289 0
M  V30 1149 C 100.317 4.67264 -2.33371 0
M  V30 1150 H 102.011 2.54271 -1.58072 0
M  V30 1151 H 99.5568 1.22218 -0.76149 0
M  V30 1152 H 101.51 4.20939 0.19714 0
M  V30 1153 H 100.234 3.15302 0.85161 0
M  V30 1154 H 98.8928 3.44223 -1.2612 0
M  V30 1155 H 98.5408 4.98437 0.675988 0
M  V30 1156 H 98.2408 5.81072 -0.873455 0
M  V30 1157 H 99.7648 6.10599 0.0109857 0
M  V30 1158 H 101.179 5.32573 -2.12223 0
M  V30 1159 H 99.5758 5.24843 -2.90963 0
M  V30 1160 H 100.646 3.83602 -2.96611 0
M  V30 1161 N 101.989 0.842826 1.3317 0
M  V30 1162 C 102.936 0.276885 2.29133 0
M  V30 1163 C 103.906 -0.609527 1.54512 0
M  V30 1164 O 105.091 -0.546955 1.82792 0
M  V30 1165 C 102.231 -0.538707 3.40869 0
M  V30 1166 C 101.344 0.372169 4.30394 0
M  V30 1167 C 100.479 -0.454908 5.29249 0
M  V30 1168 C 99.5179 0.45411 6.10413 0
M  V30 1169 N 98.6549 -0.335075 7.013 0
M  V30 1170 H 103.495 1.10052 2.76934 0
M  V30 1171 H 101.032 0.554161 1.36262 0
M  V30 1172 H 102.99 -1.02709 4.0436 0
M  V30 1173 H 101.62 -1.32727 2.9425 0
M  V30 1174 H 100.672 0.97888 3.6759 0
M  V30 1175 H 101.984 1.0703 4.87182 0
M  V30 1176 H 101.138 -1.00695 5.98285 0
M  V30 1177 H 99.8769 -1.18646 4.73048 0
M  V30 1178 H 98.8819 1.01813 5.40291 0
M  V30 1179 H 100.107 1.18409 6.68697 0
M  V30 1180 H 98.0529 -1.04994 6.47543 0
M  V30 1181 H 97.9699 0.304262 7.55387 0
M  V30 1182 H 99.2379 -0.869224 7.74638 0
M  V30 1183 N 103.467 -1.45747 0.599634 0
M  V30 1184 C 104.878 -1.85853 0.177681 0
M  V30 1185 C 105.229 -1.50102 -1.26348 0
M  V30 1186 O 104.354 -0.923905 -1.95686 0
M  V30 1187 C 104.949 -3.37326 0.315688 0
M  V30 1188 C 103.508 -3.76365 -0.0515144 0
M  V30 1189 C 102.655 -2.69722 0.643822 0
M  V30 1190 H 105.606 -1.36661 0.806814 0
M  V30 1191 H 105.627 -3.77778 -0.454321 0
M  V30 1192 H 105.139 -3.63315 1.36468 0
M  V30 1193 H 103.24 -3.55993 -1.09999 0
M  V30 1194 H 103.353 -4.77916 0.336594 0
M  V30 1195 H 101.717 -2.54567 0.0822881 0
M  V30 1196 H 102.5 -2.98549 1.6948 0
M  V30 1197 N 104.945 -0.338344 -1.53925 0
M  V30 1198 C 105.895 0.536712 -2.21593 0
M  V30 1199 C 106.879 1.07015 -1.20153 0
M  V30 1200 O 108.071 1.00471 -1.45721 0
M  V30 1201 C 105.2 1.68977 -2.98834 0
M  V30 1202 C 104.286 1.17052 -4.07627 0
M  V30 1203 N 104.677 0.372085 -5.0443 0
M  V30 1204 C 102.975 1.44789 -4.21844 0
M  V30 1205 C 103.676 0.0909171 -5.81629 0
M  V30 1206 N 102.652 0.681131 -5.39316 0
M  V30 1207 H 106.454 -0.0804298 -2.9379 0
M  V30 1208 H 103.968 -0.144943 -1.61752 0
M  V30 1209 H 105.965 2.32857 -3.45808 0
M  V30 1210 H 104.625 2.31024 -2.28162 0
M  V30 1211 H 105.636 0.0136217 -5.17898 0
M  V30 1212 H 102.313 2.07313 -3.62391 0
M  V30 1213 H 103.703 -0.552817 -6.69622 0
M  V30 1214 N 106.423 1.57458 -0.0668435 0
M  V30 1215 C 107.37 2.12439 0.902122 0
M  V30 1216 C 108.34 1.03565 1.2986 0
M  V30 1217 O 109.525 1.312 1.38532 0
M  V30 1218 C 106.665 2.6865 2.16614 0
M  V30 1219 C 105.778 3.91663 1.82274 0
M  V30 1220 C 104.913 4.36134 3.0325 0
M  V30 1221 C 103.952 5.51808 2.64904 0
M  V30 1222 N 103.089 5.9126 3.78624 0
M  V30 1223 H 107.929 2.94934 0.426382 0
M  V30 1224 H 105.466 1.4575 0.198819 0
M  V30 1225 H 107.424 2.99346 2.90599 0
M  V30 1226 H 106.054 1.88928 2.61737 0
M  V30 1227 H 105.106 3.6746 0.983719 0
M  V30 1228 H 106.418 4.75693 1.50059 0
M  V30 1229 H 105.572 4.68465 3.85519 0
M  V30 1230 H 104.311 3.50948 3.38655 0
M  V30 1231 H 103.316 5.19133 1.81055 0
M  V30 1232 H 104.541 6.38722 2.30675 0
M  V30 1233 H 102.487 5.09024 4.138 0
M  V30 1234 H 102.404 6.70018 3.5016 0
M  V30 1235 H 103.672 6.28212 4.61486 0
M  V30 1236 N 107.901 -0.206675 1.56239 0
M  V30 1237 C 108.864 -1.23976 1.92776 0
M  V30 1238 C 109.864 -1.39041 0.807729 0
M  V30 1239 O 111.054 -1.37051 1.0753 0
M  V30 1240 C 108.186 -2.61112 2.19165 0
M  V30 1241 H 109.379 -0.927764 2.85189 0
M  V30 1242 H 106.932 -0.447718 1.4975 0
M  V30 1243 H 107.667 -2.97386 1.29352 0
M  V30 1244 H 107.452 -2.51552 3.00772 0
M  V30 1245 H 108.942 -3.35633 2.48476 0
M  V30 1246 N 109.379 -1.50304 -0.473955 0
M  V30 1247 C 110.627 -1.60832 -1.22382 0
M  V30 1248 C 110.948 -0.30939 -1.9253 0
M  V30 1249 O 110.218 0.67296 -1.83978 0
M  V30 1250 H 108.798 -0.592652 -0.454723 0
M  V30 1251 H 111.46 -1.87068 -0.546968 0
M  V30 1252 H 110.556 -2.41803 -1.97327 0
M  V30 1253 N 110.857 0.726932 -1.39834 0
M  V30 1254 C 112.103 1.48884 -1.377 0
M  V30 1255 C 112.436 1.94185 0.0244852 0
M  V30 1256 O 111.711 1.67361 0.990986 0
M  V30 1257 C 111.994 2.72288 -2.3565 0
M  V30 1258 C 111.847 2.32956 -3.84775 0
M  V30 1259 C 113.166 3.74414 -2.31306 0
M  V30 1260 H 110.285 0.540062 -0.5015 0
M  V30 1261 H 112.927 0.830547 -1.70886 0
M  V30 1262 H 111.077 3.28457 -2.07481 0
M  V30 1263 H 112.749 1.82356 -4.23726 0
M  V30 1264 H 110.992 1.65088 -4.01159 0
M  V30 1265 H 111.663 3.21362 -4.4881 0
M  V30 1266 H 114.139 3.27849 -2.56231 0
M  V30 1267 H 113.015 4.58414 -3.01907 0
M  V30 1268 H 113.276 4.21909 -1.32081 0
M  V30 1269 N 112.336 1.25143 0.95797 0
M  V30 1270 C 113.268 1.01023 2.05735 0
M  V30 1271 C 114.281 -0.0236902 1.62783 0
M  V30 1272 O 115.47 0.21448 1.77207 0
M  V30 1273 C 112.57 0.504595 3.35122 0
M  V30 1274 C 111.743 1.6039 4.06932 0
M  V30 1275 C 110.802 1.09922 5.14591 0
M  V30 1276 O 109.828 1.79293 5.40225 0
M  V30 1277 N 111.03 -0.0612545 5.80468 0
M  V30 1278 H 113.795 1.95683 2.26998 0
M  V30 1279 H 111.356 1.16303 1.12629 0
M  V30 1280 H 113.348 0.151516 4.04416 0
M  V30 1281 H 111.918 -0.347989 3.10657 0
M  V30 1282 H 111.138 2.12872 3.31782 0
M  V30 1283 H 112.426 2.34252 4.51667 0
M  V30 1284 H 111.824 -0.640985 5.62057 0
M  V30 1285 H 110.381 -0.355395 6.5083 0
M  V30 1286 N 113.814 -1.1601 1.06675 0
M  V30 1287 C 115.06 -1.87145 0.796766 0
M  V30 1288 C 115.415 -1.8037 -0.669658 0
M  V30 1289 O 114.708 -1.21116 -1.48463 0
M  V30 1290 C 114.902 -3.35547 1.23057 0
M  V30 1291 C 114.731 -3.56769 2.73762 0
M  V30 1292 C 113.501 -3.72635 3.41279 0
M  V30 1293 C 115.699 -3.55166 3.7197 0
M  V30 1294 N 113.681 -3.81845 4.80695 0
M  V30 1295 C 115.052 -3.70406 4.97191 0
M  V30 1296 C 117.107 -3.384 3.65226 0
M  V30 1297 C 115.81 -3.70615 6.16471 0
M  V30 1298 C 117.836 -3.39904 4.83962 0
M  V30 1299 C 117.198 -3.55667 6.08013 0
M  V30 1300 H 113.297 -0.702267 0.344014 0
M  V30 1301 H 115.881 -1.39165 1.36166 0
M  V30 1302 H 114.052 -3.82159 0.693456 0
M  V30 1303 H 115.784 -3.94363 0.908844 0
M  V30 1304 H 112.539 -3.73121 2.91681 0
M  V30 1305 H 112.963 -3.90209 5.53232 0
M  V30 1306 H 117.605 -3.25138 2.70269 0
M  V30 1307 H 115.323 -3.82658 7.11757 0
M  V30 1308 H 118.909 -3.28169 4.80413 0
M  V30 1309 H 117.789 -3.56755 6.98352 0
M  V30 1310 N 115.292 -0.849877 -1.32721 0
M  V30 1311 C 116.708 -0.539102 -1.50219 0
M  V30 1312 C 116.908 0.931271 -1.78689 0
M  V30 1313 O 115.964 1.71455 -1.85363 0
M  V30 1314 C 117.277 -1.42196 -2.64954 0
M  V30 1315 C 118.825 -1.42189 -2.78839 0
M  V30 1316 C 119.3 -2.28985 -3.96648 0
M  V30 1317 N 120.791 -2.26754 -4.03902 0
M  V30 1318 C 121.526 -2.90644 -4.94281 0
M  V30 1319 N 121.022 -3.63629 -5.897 0
M  V30 1320 N 122.815 -2.80057 -4.87365 0
M  V30 1321 H 114.966 -1.80156 -1.12506 0
M  V30 1322 H 117.229 -0.769217 -0.554085 0
M  V30 1323 H 116.935 -2.46733 -2.50631 0
M  V30 1324 H 116.809 -1.10591 -3.60624 0
M  V30 1325 H 119.196 -0.38419 -2.92588 0
M  V30 1326 H 119.277 -1.77807 -1.83898 0
M  V30 1327 H 118.921 -3.32819 -3.83658 0
M  V30 1328 H 118.851 -1.90702 -4.90857 0
M  V30 1329 H 121.342 -1.73688 -3.3562 0
M  V30 1330 H 121.655 -4.09558 -6.55349 0
M  V30 1331 H 120 -3.67737 -5.89741 0
M  V30 1332 H 123.191 -2.22593 -4.11789 0
M  V30 1333 H 123.364 -3.30132 -5.57599 0
M  V30 1334 N 116.77 1.45427 -0.607355 0
M  V30 1335 C 118.017 2.02241 -0.102455 0
M  V30 1336 C 118.345 1.4758 1.26691 0
M  V30 1337 O 117.6 0.640468 1.84923 0
M  V30 1338 C 117.899 3.57398 -0.0129263 0
M  V30 1339 C 117.565 4.3121 -1.31792 0
M  V30 1340 C 116.227 4.51092 -1.67539 0
M  V30 1341 C 118.579 4.73401 -2.18039 0
M  V30 1342 C 115.907 5.10422 -2.89285 0
M  V30 1343 C 118.259 5.34078 -3.39034 0
M  V30 1344 C 116.923 5.52184 -3.75033 0
M  V30 1345 H 116.193 0.740051 -0.037491 0
M  V30 1346 H 118.84 1.74494 -0.788926 0
M  V30 1347 H 117.145 3.84421 0.756806 0
M  V30 1348 H 118.842 3.99061 0.393881 0
M  V30 1349 H 115.432 4.16047 -1.02968 0
M  V30 1350 H 119.616 4.57774 -1.91721 0
M  V30 1351 H 114.872 5.22629 -3.17283 0
M  V30 1352 H 119.046 5.65724 -4.06115 0
M  V30 1353 H 116.673 5.97925 -4.69457 0
M  V30 1354 N 118.248 0.346503 1.53744 0
M  V30 1355 C 119.211 -0.496439 2.23759 0
M  V30 1356 C 120.211 -1.0252 1.2388 0
M  V30 1357 O 121.401 -0.913974 1.48297 0
M  V30 1358 C 118.533 -1.69187 2.95954 0
M  V30 1359 H 119.726 0.115952 2.99676 0
M  V30 1360 H 117.279 0.0978939 1.55993 0
M  V30 1361 H 118.014 -2.34288 2.24231 0
M  V30 1362 H 117.799 -1.31989 3.69217 0
M  V30 1363 H 119.289 -2.28969 3.49232 0
M  V30 1364 N 119.726 -1.57421 0.075193 0
M  V30 1365 C 120.974 -1.93236 -0.591974 0
M  V30 1366 C 121.295 -0.956241 -1.69944 0
M  V30 1367 O 120.565 -0.00494792 -1.95899 0
M  V30 1368 H 119.145 -0.713355 -0.22166 0
M  V30 1369 H 121.807 -1.9444 0.133848 0
M  V30 1370 H 120.903 -2.95131 -1.01509 0
M  V30 1371 N 121.204 0.198386 -1.56346 0
M  V30 1372 C 122.429 0.939682 -1.84891 0
M  V30 1373 C 122.854 1.76202 -0.658369 0
M  V30 1374 O 122.212 1.76993 0.392851 0
M  V30 1375 C 122.26 1.81428 -3.11635 0
M  V30 1376 O 121.364 2.91265 -2.91956 0
M  V30 1377 H 120.705 0.264807 -0.608912 0
M  V30 1378 H 123.235 0.204695 -2.03573 0
M  V30 1379 H 123.245 2.21958 -3.42343 0
M  V30 1380 H 121.92 1.21004 -3.97908 0
M  V30 1381 H 120.497 2.54514 -2.72538 0
M  V30 1382 N 122.682 1.50554 0.465978 0
M  V30 1383 C 123.929 1.61798 1.21768 0
M  V30 1384 C 124.257 0.320696 1.91838 0
M  V30 1385 O 123.512 -0.693724 1.82992 0
M  V30 1386 C 123.811 2.75152 2.28093 0
M  V30 1387 C 123.477 4.15454 1.75239 0
M  V30 1388 C 122.139 4.53628 1.60546 0
M  V30 1389 C 124.491 5.03121 1.36083 0
M  V30 1390 C 121.819 5.77204 1.05128 0
M  V30 1391 C 124.171 6.27249 0.821056 0
M  V30 1392 C 122.835 6.64221 0.660795 0
M  V30 1393 H 122.105 0.592063 0.445582 0
M  V30 1394 H 124.752 1.84503 0.512927 0
M  V30 1395 H 123.057 2.46556 3.04496 0
M  V30 1396 H 124.754 2.81055 2.86023 0
M  V30 1397 H 121.344 3.85341 1.87644 0
M  V30 1398 H 125.528 4.74257 1.46267 0
M  V30 1399 H 120.784 6.0452 0.91462 0
M  V30 1400 H 124.958 6.94537 0.509018 0
M  V30 1401 H 122.585 7.59854 0.229226 0
M  V30 1402 N 124.16 -0.719506 1.40217 0
M  V30 1403 C 125.39 -1.50646 1.41384 0
M  V30 1404 C 125.798 -1.89197 0.0107743 0
M  V30 1405 O 125.141 -1.55709 -0.974708 0
M  V30 1406 C 125.203 -2.81405 2.23722 0
M  V30 1407 C 124.867 -2.65199 3.72181 0
M  V30 1408 C 125.864 -2.32717 4.64907 0
M  V30 1409 C 123.549 -2.81586 4.1595 0
M  V30 1410 C 125.543 -2.16827 5.99387 0
M  V30 1411 C 123.23 -2.65313 5.50502 0
M  V30 1412 C 124.228 -2.32981 6.42035 0
M  V30 1413 O 123.916 -2.16827 7.74107 0
M  V30 1414 H 123.648 -0.471606 0.484318 0
M  V30 1415 H 126.202 -0.895456 1.84853 0
M  V30 1416 H 124.432 -3.44823 1.75026 0
M  V30 1417 H 126.121 -3.43102 2.16878 0
M  V30 1418 H 126.887 -2.19694 4.32388 0
M  V30 1419 H 122.766 -3.0574 3.45027 0
M  V30 1420 H 126.31 -1.91513 6.70797 0
M  V30 1421 H 122.207 -2.7792 5.82607 0
M  V30 1422 H 122.975 -2.31778 7.84998 0
M  V30 1423 N 125.638 -1.25649 -0.95132 0
M  V30 1424 C 126.885 -1.10594 -1.69633 0
M  V30 1425 C 127.213 0.352515 -1.91279 0
M  V30 1426 O 126.468 1.27601 -1.4838 0
M  V30 1427 C 126.767 -1.80909 -3.08231 0
M  V30 1428 C 126.433 -3.30825 -3.06375 0
M  V30 1429 C 125.095 -3.71722 -3.05576 0
M  V30 1430 C 127.447 -4.26589 -2.99452 0
M  V30 1431 C 124.775 -5.06788 -2.95606 0
M  V30 1432 C 127.127 -5.61683 -2.91024 0
M  V30 1433 C 125.791 -6.01904 -2.88562 0
M  V30 1434 H 125.061 -0.404691 -0.620731 0
M  V30 1435 H 127.708 -1.55964 -1.11119 0
M  V30 1436 H 126.013 -1.27979 -3.70309 0
M  V30 1437 H 127.71 -1.6671 -3.64704 0
M  V30 1438 H 124.3 -2.98287 -3.07771 0
M  V30 1439 H 128.484 -3.95982 -2.99185 0
M  V30 1440 H 123.74 -5.37126 -2.92071 0
M  V30 1441 H 127.914 -6.35578 -2.84629 0
M  V30 1442 H 125.541 -7.06521 -2.80593 0
M  V30 1443 N 127.117 1.15442 -1.07289 0
M  V30 1444 C 128.08 2.18358 -0.696591 0
M  V30 1445 C 129.08 1.58637 0.262837 0
M  V30 1446 O 130.27 1.74145 0.0438809 0
M  V30 1447 C 127.402 3.4089 -0.0266151 0
M  V30 1448 H 128.595 2.53162 -1.60776 0
M  V30 1449 H 126.148 1.29893 -0.869342 0
M  V30 1450 H 126.883 3.11653 0.896822 0
M  V30 1451 H 126.668 3.85495 -0.716657 0
M  V30 1452 H 128.158 4.17009 0.222028 0
M  V30 1453 N 128.595 0.856903 1.32268 0
M  V30 1454 C 129.844 0.457599 1.96441 0
M  V30 1455 C 130.157 -0.992426 1.68553 0
M  V30 1456 O 131.363 -1.49727 2.26482 0
M  V30 1457 C 129.819 0.767358 3.51624 0
M  V30 1458 C 129.427 2.23326 3.88367 0
M  V30 1459 C 131.171 0.435887 4.22256 0
M  V30 1460 C 129.078 2.48613 5.36606 0
M  V30 1461 H 128.008 0.167387 0.735185 0
M  V30 1462 H 130.659 1.048 1.5063 0
M  V30 1463 H 129.041 0.106367 3.95857 0
M  V30 1464 H 130.215 2.93623 3.55137 0
M  V30 1465 H 128.53 2.52948 3.30766 0
M  V30 1466 H 131.127 0.602202 5.31298 0
M  V30 1467 H 131.47 -0.622672 4.11617 0
M  V30 1468 H 132.003 1.05286 3.83614 0
M  V30 1469 H 128.742 3.53101 5.52268 0
M  V30 1470 H 128.262 1.82896 5.71235 0
M  V30 1471 H 129.941 2.32676 6.03714 0
M  V30 1472 N 130.073 -1.45103 0.615059 0
M  V30 1473 C 131.301 -2.06553 0.11977 0
M  V30 1474 C 131.716 -1.45842 -1.19898 0
M  V30 1475 O 131.073 -0.575325 -1.73194 0
M  V30 1476 C 131.124 -3.61495 -0.018364 0
M  V30 1477 O 130.845 -4.19942 1.24822 0
M  V30 1478 C 132.346 -4.39947 -0.544237 0
M  V30 1479 H 129.566 -0.667096 0.0722739 0
M  V30 1480 H 132.11 -1.8623 0.84491 0
M  V30 1481 H 130.265 -3.81135 -0.693865 0
M  V30 1482 H 130.679 -5.13204 1.0827 0
M  V30 1483 H 132.153 -5.48838 -0.589953 0
M  V30 1484 H 132.63 -4.10255 -1.56805 0
M  V30 1485 H 133.236 -4.25188 0.0974703 0
M  V30 1486 N 131.551 -0.354651 -1.53558 0
M  V30 1487 C 132.797 0.238797 -2.01389 0
M  V30 1488 C 133.13 1.49309 -1.2418 0
M  V30 1489 O 132.405 1.91638 -0.332457 0
M  V30 1490 C 132.688 0.541771 -3.56001 0
M  V30 1491 C 132.541 -0.725388 -4.43912 0
M  V30 1492 C 133.86 1.34685 -4.18984 0
M  V30 1493 H 130.979 0.0853177 -0.732045 0
M  V30 1494 H 133.621 -0.477384 -1.83905 0
M  V30 1495 H 131.771 1.15189 -3.71031 0
M  V30 1496 H 133.443 -1.36313 -4.407 0
M  V30 1497 H 131.686 -1.34801 -4.12324 0
M  V30 1498 H 132.357 -0.468505 -5.50008 0
M  V30 1499 H 134.833 0.830837 -4.07721 0
M  V30 1500 H 133.709 1.52759 -5.27215 0
M  V30 1501 H 133.97 2.35221 -3.74331 0
M  V30 1502 N 133.029 1.57378 -0.0835403 0
M  V30 1503 C 134.278 1.93106 0.582498 0
M  V30 1504 C 134.591 0.96651 1.70053 0
M  V30 1505 O 135.797 1.21705 2.42693 0
M  V30 1506 C 134.253 3.43076 1.08751 0
M  V30 1507 C 133.861 4.48 -0.000146404 0
M  V30 1508 C 135.605 3.87785 1.72694 0
M  V30 1509 C 133.512 5.89113 0.519568 0
M  V30 1510 H 132.442 0.720775 0.221358 0
M  V30 1511 H 135.093 1.82821 -0.157675 0
M  V30 1512 H 133.475 3.48474 1.88101 0
M  V30 1513 H 134.649 4.54233 -0.775199 0
M  V30 1514 H 132.964 4.1283 -0.54406 0
M  V30 1515 H 135.561 4.90604 2.1263 0
M  V30 1516 H 135.904 3.25796 2.59158 0
M  V30 1517 H 136.437 3.8504 0.999457 0
M  V30 1518 H 133.176 6.54775 -0.308186 0
M  V30 1519 H 132.696 5.86376 1.26188 0
M  V30 1520 H 134.375 6.39346 0.992237 0
M  V30 1521 N 134.507 -0.190092 1.56449 0
M  V30 1522 C 135.735 -0.925772 1.85033 0
M  V30 1523 C 136.15 -1.76638 0.666658 0
M  V30 1524 O 135.507 -1.78822 -0.364565 0
M  V30 1525 C 135.558 -1.81786 3.12468 0
M  V30 1526 O 135.279 -1.01118 4.26271 0
M  V30 1527 C 136.78 -2.6648 3.54265 0
M  V30 1528 H 134 -0.269872 0.614337 0
M  V30 1529 H 136.544 -0.195837 2.0356 0
M  V30 1530 H 134.699 -2.50136 2.95822 0
M  V30 1531 H 135.113 -1.61956 4.98869 0
M  V30 1532 H 136.587 -3.24722 4.46385 0
M  V30 1533 H 137.064 -3.40434 2.77491 0
M  V30 1534 H 137.67 -2.03493 3.73458 0
M  V30 1535 N 135.985 -1.50799 -0.457987 0
M  V30 1536 C 137.213 -1.66218 -1.23203 0
M  V30 1537 C 137.628 -0.350894 -1.85511 0
M  V30 1538 O 136.985 0.668546 -1.69814 0
M  V30 1539 C 137.036 -2.76291 -2.33121 0
M  V30 1540 O 136.757 -4.02338 -1.73366 0
M  V30 1541 C 138.258 -3.028 -3.2377 0
M  V30 1542 H 135.478 -0.558361 -0.372121 0
M  V30 1543 H 138.022 -1.97099 -0.545179 0
M  V30 1544 H 136.177 -2.48068 -2.97558 0
M  V30 1545 H 136.591 -4.63312 -2.4585 0
M  V30 1546 H 138.065 -3.8345 -3.97077 0
M  V30 1547 H 138.542 -2.14385 -3.83322 0
M  V30 1548 H 139.148 -3.32604 -2.65056 0
M  V30 1549 N 137.463 0.71206 -1.40597 0
M  V30 1550 C 138.712 1.46754 -1.38369 0
M  V30 1551 C 139.025 1.95598 0.0097839 0
M  V30 1552 O 140.231 2.71059 0.154677 0
M  V30 1553 C 138.687 2.65289 -2.43207 0
M  V30 1554 C 138.295 2.23301 -3.88382 0
M  V30 1555 C 140.039 3.43008 -2.50091 0
M  V30 1556 C 137.946 3.38696 -4.84808 0
M  V30 1557 H 136.876 0.55118 -0.514506 0
M  V30 1558 H 139.527 0.774616 -1.66349 0
M  V30 1559 H 137.909 3.36769 -2.08332 0
M  V30 1560 H 139.083 1.59218 -4.32419 0
M  V30 1561 H 137.398 1.58618 -3.85006 0
M  V30 1562 H 139.995 4.28881 -3.1932 0
M  V30 1563 H 140.338 3.87065 -1.53253 0
M  V30 1564 H 140.871 2.78574 -2.83974 0
M  V30 1565 H 137.61 2.99668 -5.82992 0
M  V30 1566 H 137.13 4.01683 -4.45433 0
M  V30 1567 H 138.809 4.04712 -5.04794 0
M  V30 1568 N 138.941 1.26152 0.944643 0
M  V30 1569 C 140.189 1.11271 1.6871 0
M  V30 1570 C 140.51 -0.345166 1.91921 0
M  V30 1571 O 139.78 -1.24387 1.51343 0
M  V30 1572 H 138.36 0.408783 0.625224 0
M  V30 1573 H 141.022 1.58427 1.1352 0
M  V30 1574 H 140.118 1.62879 2.66227 0
M  V30 1575 N 140.419 -1.14872 1.07899 0
M  V30 1576 C 141.649 -1.89386 0.825631 0
M  V30 1577 C 142.057 -1.78565 -0.625406 0
M  V30 1578 O 141.4 -1.13918 -1.44113 0
M  V30 1579 C 141.462 -3.40206 1.16191 0
M  V30 1580 C 141.126 -3.74812 2.61467 0
M  V30 1581 C 142.123 -3.75367 3.59716 0
M  V30 1582 C 139.808 -4.0495 2.97189 0
M  V30 1583 C 141.802 -4.05574 4.9172 0
M  V30 1584 C 139.489 -4.34821 4.29388 0
M  V30 1585 C 140.487 -4.35116 5.26463 0
M  V30 1586 O 140.175 -4.64267 6.56286 0
M  V30 1587 H 139.907 -0.606894 0.297751 0
M  V30 1588 H 142.461 -1.46438 1.44031 0
M  V30 1589 H 140.691 -3.8358 0.490214 0
M  V30 1590 H 142.38 -3.96018 0.890193 0
M  V30 1591 H 143.146 -3.52176 3.33462 0
M  V30 1592 H 139.025 -4.03876 2.22273 0
M  V30 1593 H 142.569 -4.05719 5.67484 0
M  V30 1594 H 138.466 -4.5748 4.55392 0
M  V30 1595 H 139.234 -4.82007 6.61522 0
M  V30 1596 N 141.898 -0.863906 -1.31812 0
M  V30 1597 C 143.146 -0.470904 -1.96537 0
M  V30 1598 C 143.467 0.978771 -1.68657 0
M  V30 1599 O 142.737 1.6853 -0.998717 0
M  V30 1600 H 141.317 -0.171148 -0.72713 0
M  V30 1601 H 143.979 -1.10236 -1.60729 0
M  V30 1602 H 143.075 -0.623616 -3.05806 0
M  V30 1603 N 143.376 1.44774 -0.622745 0
M  V30 1604 C 144.326 2.2774 0.108889 0
M  V30 1605 C 145.31 1.38189 0.824175 0
M  V30 1606 O 146.502 1.62063 0.711664 0
M  V30 1607 C 143.631 3.25353 1.09546 0
M  V30 1608 C 142.717 4.22392 0.380232 0
M  V30 1609 N 143.108 5.02388 -0.586535 0
M  V30 1610 C 141.406 4.41588 0.625792 0
M  V30 1611 C 142.107 5.72894 -1.00834 0
M  V30 1612 N 141.083 5.42479 -0.348878 0
M  V30 1613 H 144.885 2.86993 -0.63341 0
M  V30 1614 H 142.399 1.5611 -0.447589 0
M  V30 1615 H 144.396 3.83538 1.63414 0
M  V30 1616 H 143.056 2.6766 1.83815 0
M  V30 1617 H 144.067 5.0885 -0.963975 0
M  V30 1618 H 140.744 3.95003 1.352 0
M  V30 1619 H 142.134 6.47158 -1.80656 0
M  V30 1620 N 144.854 0.36279 1.53368 0
M  V30 1621 C 145.817 -0.472679 2.24273 0
M  V30 1622 C 146.817 -1.012 1.24961 0
M  V30 1623 O 148.007 -0.898194 1.49259 0
M  V30 1624 C 145.139 -1.66039 2.97731 0
M  V30 1625 H 146.332 0.14773 2.99536 0
M  V30 1626 H 143.885 0.114434 1.55881 0
M  V30 1627 H 144.62 -2.31896 2.26704 0
M  V30 1628 H 144.405 -1.28066 3.70596 0
M  V30 1629 H 145.895 -2.25252 3.51641 0
M  V30 1630 N 146.332 -1.57332 0.0918853 0
M  V30 1631 C 147.295 -2.12708 -0.85369 0
M  V30 1632 C 148.295 -1.05561 -1.213 0
M  V30 1633 O 149.485 -1.31461 -1.14296 0
M  V30 1634 C 146.617 -2.64503 -2.15061 0
M  V30 1635 H 147.81 -2.97573 -0.3729 0
M  V30 1636 H 145.363 -1.55509 -0.157072 0
M  V30 1637 H 146.098 -1.83149 -2.67632 0
M  V30 1638 H 145.883 -3.4284 -1.90272 0
M  V30 1639 H 147.373 -3.07351 -2.82711 0
M  V30 1640 N 147.81 0.181792 -1.56548 0
M  V30 1641 C 149.221 0.745244 -1.71181 0
M  V30 1642 C 149.572 1.83262 -0.70068 0
M  V30 1643 O 148.697 2.15946 0.140154 0
M  V30 1644 C 149.292 1.35859 -3.10367 0
M  V30 1645 C 147.851 1.86898 -3.2672 0
M  V30 1646 C 146.998 0.743942 -2.67134 0
M  V30 1647 H 149.949 -0.0434661 -1.5864 0
M  V30 1648 H 149.97 2.22817 -3.08436 0
M  V30 1649 H 149.482 0.566948 -3.83937 0
M  V30 1650 H 147.583 2.68738 -2.5809 0
M  V30 1651 H 147.696 2.02162 -4.34359 0
M  V30 1652 H 146.06 1.16169 -2.26665 0
M  V30 1653 H 146.843 -0.035676 -3.43281 0
M  V30 1654 N 149.288 1.51039 0.449983 0
M  V30 1655 C 150.513 1.6715 1.22783 0
M  V30 1656 C 150.938 0.363081 1.84563 0
M  V30 1657 O 150.296 -0.675433 1.68249 0
M  V30 1658 C 150.344 2.77985 2.29689 0
M  V30 1659 O 149.448 2.40707 3.34864 0
M  V30 1660 H 148.789 0.557746 0.360299 0
M  V30 1661 H 151.319 1.97535 0.533005 0
M  V30 1662 H 151.329 3.01693 2.74673 0
M  V30 1663 H 150.004 3.72935 1.84098 0
M  V30 1664 H 148.581 2.27523 2.95445 0
M  V30 1665 N 150.766 -0.704594 1.40972 0
M  V30 1666 C 151.994 -1.49354 1.43182 0
M  V30 1667 C 152.409 -1.88768 0.0345508 0
M  V30 1668 O 151.766 -1.56184 -0.944081 0
M  V30 1669 C 151.817 -2.76187 2.33244 0
M  V30 1670 O 151.538 -2.38436 3.67532 0
M  V30 1671 C 153.039 -3.7 2.44162 0
M  V30 1672 H 150.259 -0.460559 0.487982 0
M  V30 1673 H 152.803 -0.868261 1.85153 0
M  V30 1674 H 150.958 -3.34974 1.94606 0
M  V30 1675 H 151.372 -3.20126 4.15475 0
M  V30 1676 H 152.846 -4.55803 3.11364 0
M  V30 1677 H 153.323 -4.13867 1.47006 0
M  V30 1678 H 153.929 -3.17121 2.83398 0
M  V30 1679 N 152.244 -1.26651 -0.937939 0
M  V30 1680 C 153.521 -1.0313 -1.66204 0
M  V30 1681 C 153.901 0.437256 -2.06522 0
M  V30 1682 O 153.249 1.41831 -1.79154 0
M  V30 1683 C 153.459 -1.98314 -2.87181 0
M  V30 1684 C 154.807 -2.27107 -3.58758 0
M  V30 1685 O 155.831 -1.96205 -2.97291 0
M  V30 1686 O 154.69 -2.79736 -4.69479 0
M  V30 1687 H 151.784 -0.392384 -0.727986 0
M  V30 1688 H 154.33 -1.37874 -0.989382 0
M  V30 1689 H 153.102 -2.97399 -2.54302 0
M  V30 1690 H 152.725 -1.64068 -3.6217 0
M  V30 1691 N 153.722 1.14298 -1.08507 0
M  V30 1692 C 154.97 1.84993 -0.813763 0
M  V30 1693 C 155.291 1.83405 0.662393 0
M  V30 1694 O 154.561 1.28319 1.48024 0
M  V30 1695 H 153.141 0.684966 -0.298045 0
M  V30 1696 H 155.803 1.385 -1.37126 0
M  V30 1697 H 154.899 2.89788 -1.15884 0
M  V30 1698 N 155.201 0.870884 1.31352 0
M  V30 1699 C 156.449 0.48132 1.96285 0
M  V30 1700 C 156.77 -0.969813 1.69173 0
M  V30 1701 O 156.04 -1.67998 1.00764 0
M  V30 1702 H 154.62 0.175002 0.726212 0
M  V30 1703 H 157.282 1.11087 1.60143 0
M  V30 1704 H 156.378 0.639825 3.05471 0
M  V30 1705 N 156.679 -1.44442 0.630414 0
M  V30 1706 C 157.626 -2.30678 -0.0749355 0
M  V30 1707 C 158.596 -1.4344 -0.837502 0
M  V30 1708 O 159.781 -1.72343 -0.818684 0
M  V30 1709 C 156.921 -3.28706 -1.05103 0
M  V30 1710 C 156.034 -4.31046 -0.286954 0
M  V30 1711 C 155.169 -5.16167 -1.2548 0
M  V30 1712 C 154.208 -6.10216 -0.479843 0
M  V30 1713 N 153.345 -6.88039 -1.39811 0
M  V30 1714 H 158.185 -2.90454 0.666386 0
M  V30 1715 H 155.722 -1.43107 0.340404 0
M  V30 1716 H 157.68 -3.84027 -1.63031 0
M  V30 1717 H 156.31 -2.70632 -1.75949 0
M  V30 1718 H 155.362 -3.78203 0.408243 0
M  V30 1719 H 156.674 -4.97794 0.316657 0
M  V30 1720 H 155.828 -5.76002 -1.90544 0
M  V30 1721 H 154.567 -4.49491 -1.89233 0
M  V30 1722 H 153.572 -5.49491 0.184295 0
M  V30 1723 H 154.797 -6.78928 0.152965 0
M  V30 1724 H 152.743 -6.24032 -2.02287 0
M  V30 1725 H 152.66 -7.51223 -0.848508 0
M  V30 1726 H 153.928 -7.52397 -2.03762 0
M  V30 1727 N 158.157 -0.370918 -1.53173 0
M  V30 1728 C 159.403 0.217423 -2.01631 0
M  V30 1729 C 159.736 1.47983 -1.25756 0
M  V30 1730 O 159.011 1.91274 -0.352764 0
M  V30 1731 C 159.294 0.503982 -3.56556 0
M  V30 1732 C 159.147 -0.77243 -4.43118 0
M  V30 1733 C 160.466 1.30234 -4.20389 0
M  V30 1734 H 157.585 0.0775486 -0.732909 0
M  V30 1735 H 160.227 -0.496863 -1.83388 0
M  V30 1736 H 158.377 1.11248 -3.72231 0
M  V30 1737 H 160.049 -1.4098 -4.39229 0
M  V30 1738 H 158.292 -1.39167 -4.10871 0
M  V30 1739 H 158.963 -0.526815 -5.4948 0
M  V30 1740 H 161.439 0.787546 -4.08579 0
M  V30 1741 H 160.315 1.47158 -5.28806 0
M  V30 1742 H 160.576 2.31237 -3.76805 0
M  V30 1743 N 159.635 1.57281 -0.100228 0
M  V30 1744 C 160.882 1.94537 0.562268 0
M  V30 1745 C 161.21 0.982315 1.67871 0
M  V30 1746 O 160.465 0.00280936 1.957 0
M  V30 1747 C 160.764 3.38305 1.15259 0
M  V30 1748 C 160.43 4.50618 0.159409 0
M  V30 1749 C 159.092 4.81066 -0.113741 0
M  V30 1750 C 161.444 5.18615 -0.518461 0
M  V30 1751 C 158.772 5.76835 -1.07137 0
M  V30 1752 C 161.124 6.15412 -1.46459 0
M  V30 1753 C 159.788 6.44262 -1.74592 0
M  V30 1754 H 159.058 0.711863 0.205748 0
M  V30 1755 H 161.705 1.90679 -0.17715 0
M  V30 1756 H 160.01 3.38766 1.96836 0
M  V30 1757 H 161.707 3.64435 1.67297 0
M  V30 1758 H 158.297 4.2689 0.382491 0
M  V30 1759 H 162.481 4.95264 -0.320581 0
M  V30 1760 H 157.737 5.975 -1.29628 0
M  V30 1761 H 161.911 6.67194 -1.99564 0
M  V30 1762 H 159.538 7.1828 -2.48953 0
M  V30 1763 N 161.113 -0.173488 1.56642 0
M  V30 1764 C 162.353 -0.896984 1.83667 0
M  V30 1765 C 162.717 -1.79523 0.680842 0
M  V30 1766 O 163.918 -2.55616 0.831488 0
M  V30 1767 C 162.189 -1.67351 3.15798 0
M  V30 1768 S 163.748 -2.44607 3.64298 0
M  V30 1769 H 160.566 -0.300464 0.644393 0
M  V30 1770 H 163.168 -0.158775 1.94854 0
M  V30 1771 H 161.872 -1.00462 3.97914 0
M  V30 1772 H 161.403 -2.45313 3.07546 0
M  V30 1773 H 163.418 -3.69261 3.31452 0
M  V30 1774 N 162.591 -1.51276 -0.441967 0
M  V30 1775 C 163.524 -1.66933 -1.55591 0
M  V30 1776 C 164.502 -0.516958 -1.54163 0
M  V30 1777 O 165.686 -0.740209 -1.73358 0
M  V30 1778 C 162.813 -1.67866 -2.94174 0
M  V30 1779 C 161.859 -2.89013 -3.13646 0
M  V30 1780 S 162.692 -4.49897 -2.90436 0
M  V30 1781 C 163.848 -4.53568 -4.31308 0
M  V30 1782 H 164.081 -2.61155 -1.42076 0
M  V30 1783 H 161.614 -1.40902 -0.631341 0
M  V30 1784 H 163.572 -1.69089 -3.74058 0
M  V30 1785 H 162.233 -0.748296 -3.05056 0
M  V30 1786 H 161.426 -2.86054 -4.14957 0
M  V30 1787 H 161.028 -2.85509 -2.4158 0
M  V30 1788 H 163.32 -4.28924 -5.24434 0
M  V30 1789 H 164.263 -5.55355 -4.39303 0
M  V30 1790 H 164.671 -3.82943 -4.14747 0
M  V30 1791 N 164.069 0.697108 -1.41344 0
M  V30 1792 C 165.316 1.45714 -1.40619 0
M  V30 1793 C 165.644 1.94494 -0.0147907 0
M  V30 1794 O 164.899 1.69794 0.973066 0
M  V30 1795 C 165.198 2.68553 -2.35826 0
M  V30 1796 C 164.864 2.38438 -3.82698 0
M  V30 1797 C 163.526 2.29936 -4.22709 0
M  V30 1798 C 165.878 2.13567 -4.75435 0
M  V30 1799 C 163.206 1.94656 -5.53467 0
M  V30 1800 C 165.558 1.79797 -6.06511 0
M  V30 1801 C 164.222 1.69789 -6.45545 0
M  V30 1802 H 163.492 0.533206 -0.51456 0
M  V30 1803 H 166.139 0.796901 -1.74131 0
M  V30 1804 H 164.444 3.39503 -1.95563 0
M  V30 1805 H 166.141 3.2669 -2.32539 0
M  V30 1806 H 162.731 2.4595 -3.51008 0
M  V30 1807 H 166.915 2.19082 -4.45328 0
M  V30 1808 H 162.171 1.8546 -5.82593 0
M  V30 1809 H 166.345 1.59572 -6.77872 0
M  V30 1810 H 163.972 1.4222 -7.46778 0
M  V30 1811 N 165.547 1.27147 0.931209 0
M  V30 1812 C 166.777 1.15914 1.71019 0
M  V30 1813 C 167.185 -0.287112 1.87009 0
M  V30 1814 O 166.528 -1.20761 1.38429 0
M  V30 1815 C 166.59 1.76647 3.13107 0
M  V30 1816 C 166.254 3.25807 3.20467 0
M  V30 1817 C 167.251 4.22489 3.02983 0
M  V30 1818 C 164.936 3.66452 3.43538 0
M  V30 1819 C 166.93 5.57794 3.08454 0
M  V30 1820 C 164.617 5.01888 3.48643 0
M  V30 1821 C 165.615 5.97369 3.31119 0
M  V30 1822 O 165.303 7.30337 3.35952 0
M  V30 1823 H 165.035 0.404062 0.54195 0
M  V30 1824 H 167.589 1.68457 1.17521 0
M  V30 1825 H 165.819 1.18578 3.68071 0
M  V30 1826 H 167.508 1.60179 3.72958 0
M  V30 1827 H 168.274 3.92425 2.85004 0
M  V30 1828 H 164.153 2.92611 3.5623 0
M  V30 1829 H 167.697 6.32298 2.94694 0
M  V30 1830 H 163.594 5.31609 3.66145 0
M  V30 1831 H 164.362 7.38739 3.5243 0
M  V30 1832 N 167.025 -1.13721 1.09112 0
M  V30 1833 C 167.988 -2.17222 0.731241 0
M  V30 1834 C 168.988 -1.59035 -0.237566 0
M  V30 1835 O 170.178 -1.74192 -0.0161704 0
M  V30 1836 C 167.31 -3.40804 0.0808443 0
M  V30 1837 H 168.503 -2.50573 1.64783 0
M  V30 1838 H 166.056 -1.28493 0.889897 0
M  V30 1839 H 166.791 -3.1304 -0.847127 0
M  V30 1840 H 166.576 -3.84306 0.777896 0
M  V30 1841 H 168.066 -4.1731 -0.155657 0
M  V30 1842 N 168.503 -0.877838 -1.30888 0
M  V30 1843 C 169.433 -0.35534 -2.3078 0
M  V30 1844 C 170.414 0.557994 -1.60687 0
M  V30 1845 O 171.599 0.473355 -1.88343 0
M  V30 1846 C 168.729 0.437221 -3.44537 0
M  V30 1847 C 167.683 -0.383715 -4.26276 0
M  V30 1848 C 167.009 0.535014 -5.32017 0
M  V30 1849 C 168.309 -1.62201 -4.96476 0
M  V30 1850 H 170.003 -1.19007 -2.74732 0
M  V30 1851 H 167.549 -0.573698 -1.32078 0
M  V30 1852 H 169.502 0.813334 -4.13477 0
M  V30 1853 H 168.226 1.30553 -2.99372 0
M  V30 1854 H 166.885 -0.741874 -3.59015 0
M  V30 1855 H 166.533 1.40083 -4.831 0
M  V30 1856 H 166.233 -0.0104211 -5.87599 0
M  V30 1857 H 167.757 0.907799 -6.03814 0
M  V30 1858 H 169.171 -1.31689 -5.5797 0
M  V30 1859 H 167.568 -2.10711 -5.61891 0
M  V30 1860 H 168.638 -2.37044 -4.23011 0
M  V30 1861 N 169.982 1.44106 -0.638065 0
M  V30 1862 C 170.912 2.33448 0.0494287 0
M  V30 1863 C 171.893 1.48606 0.827672 0
M  V30 1864 O 173.078 1.77308 0.792173 0
M  V30 1865 C 170.208 3.31771 1.02691 0
M  V30 1866 C 169.162 4.26485 0.359823 0
M  V30 1867 C 168.488 5.14729 1.44769 0
M  V30 1868 C 169.788 5.17056 -0.738296 0
M  V30 1869 H 171.482 2.91183 -0.696636 0
M  V30 1870 H 169.028 1.40014 -0.336456 0
M  V30 1871 H 170.981 3.93161 1.51666 0
M  V30 1872 H 169.705 2.7226 1.80395 0
M  V30 1873 H 168.364 3.66437 -0.10934 0
M  V30 1874 H 168.012 4.51566 2.21578 0
M  V30 1875 H 167.712 5.78913 1.00668 0
M  V30 1876 H 169.236 5.78991 1.93911 0
M  V30 1877 H 170.65 5.72342 -0.331354 0
M  V30 1878 H 169.047 5.89879 -1.10286 0
M  V30 1879 H 170.117 4.57652 -1.60258 0
M  V30 1880 N 171.46 0.379036 1.52974 0
M  V30 1881 C 172.708 -0.206014 2.01047 0
M  V30 1882 C 173.029 -1.48175 1.26765 0
M  V30 1883 O 172.299 -1.92085 0.384743 0
M  V30 1884 H 170.879 -0.0791184 0.742798 0
M  V30 1885 H 173.541 0.508366 1.88153 0
M  V30 1886 H 172.637 -0.423501 3.09213 0
M  V30 1887 N 172.938 -1.57226 0.108567 0
M  V30 1888 C 174.187 -1.94008 -0.551703 0
M  V30 1889 C 174.5 -0.993442 -1.68494 0
M  V30 1890 O 175.706 -1.25551 -2.40726 0
M  V30 1891 C 174.162 -3.44763 -1.03279 0
M  V30 1892 C 173.77 -4.47943 0.0714193 0
M  V30 1893 C 175.514 -3.90483 -1.66503 0
M  V30 1894 C 173.421 -5.89865 -0.425779 0
M  V30 1895 H 172.351 -0.724206 -0.209863 0
M  V30 1896 H 175.002 -1.82547 0.186741 0
M  V30 1897 H 173.384 -3.51422 -1.82533 0
M  V30 1898 H 174.558 -4.52942 0.847365 0
M  V30 1899 H 172.873 -4.11913 0.609669 0
M  V30 1900 H 175.47 -4.93925 -2.04798 0
M  V30 1901 H 175.813 -3.29877 -2.53942 0
M  V30 1902 H 176.346 -3.86581 -0.938074 0
M  V30 1903 H 173.085 -6.54202 0.412316 0
M  V30 1904 H 172.605 -5.88309 -1.16843 0
M  V30 1905 H 174.284 -6.40844 -0.890397 0
M  V30 1906 N 174.416 0.165178 -1.56732 0
M  V30 1907 C 175.827 0.727046 -1.71962 0
M  V30 1908 C 176.178 1.82508 -0.720078 0
M  V30 1909 O 175.303 2.16082 0.117242 0
M  V30 1910 C 175.898 1.32559 -3.11791 0
M  V30 1911 C 174.457 1.83422 -3.28684 0
M  V30 1912 C 173.604 0.715567 -2.67908 0
M  V30 1913 H 176.555 -0.0602896 -1.58585 0
M  V30 1914 H 176.576 2.19533 -3.10782 0
M  V30 1915 H 176.088 0.526195 -3.84516 0
M  V30 1916 H 174.189 2.65986 -2.60926 0
M  V30 1917 H 174.302 1.97543 -4.36478 0
M  V30 1918 H 172.666 1.13758 -2.27884 0
M  V30 1919 H 173.449 -0.0720836 -3.43224 0
M  V30 1920 N 175.894 1.51508 0.433938 0
M  V30 1921 C 176.824 1.76016 1.53429 0
M  V30 1922 C 177.805 0.610112 1.58782 0
M  V30 1923 O 178.99 0.853177 1.74455 0
M  V30 1924 C 176.12 1.88831 2.9148 0
M  V30 1925 C 175.074 3.04288 3.00987 0
M  V30 1926 C 174.4 3.0229 4.4105 0
M  V30 1927 C 175.7 4.44193 2.74754 0
M  V30 1928 H 177.394 2.68152 1.33171 0
M  V30 1929 H 174.94 1.29035 0.639214 0
M  V30 1930 H 176.893 2.04559 3.6842 0
M  V30 1931 H 175.617 0.933455 3.12976 0
M  V30 1932 H 174.276 2.8827 2.26486 0
M  V30 1933 H 173.924 2.04576 4.59519 0
M  V30 1934 H 173.624 3.79822 4.4834 0
M  V30 1935 H 175.148 3.20116 5.1996 0
M  V30 1936 H 176.562 4.60544 3.41426 0
M  V30 1937 H 174.959 5.23457 2.9345 0
M  V30 1938 H 176.029 4.53996 1.70339 0
M  V30 1939 N 177.372 -0.689602 1.41712 0
M  V30 1940 C 178.6 -1.47827 1.44758 0
M  V30 1941 C 179.015 -1.88721 0.0545703 0
M  V30 1942 O 178.372 -1.57176 -0.927463 0
M  V30 1943 C 178.423 -2.73698 2.3616 0
M  V30 1944 O 178.144 -2.34524 3.7004 0
M  V30 1945 C 179.645 -3.67389 2.48072 0
M  V30 1946 H 176.865 -0.455357 0.49284 0
M  V30 1947 H 179.409 -0.848574 1.86063 0
M  V30 1948 H 177.564 -3.32891 1.98148 0
M  V30 1949 H 177.978 -3.15701 4.18847 0
M  V30 1950 H 179.452 -4.52475 3.16181 0
M  V30 1951 H 179.929 -4.12284 1.51388 0
M  V30 1952 H 180.535 -3.14097 2.86746 0
M  V30 1953 N 178.85 -1.27639 -0.924453 0
M  V30 1954 C 179.78 -1.13166 -2.04244 0
M  V30 1955 C 180.761 -0.032256 -1.70069 0
M  V30 1956 O 181.946 -0.207328 -1.9309 0
M  V30 1957 C 179.076 -0.781496 -3.38393 0
M  V30 1958 C 178.03 -1.83449 -3.86692 0
M  V30 1959 C 177.356 -1.33822 -5.17683 0
M  V30 1960 C 178.656 -3.23917 -4.09726 0
M  V30 1961 H 180.35 -2.06689 -2.1661 0
M  V30 1962 H 177.896 -0.995136 -1.04082 0
M  V30 1963 H 179.849 -0.667057 -4.16087 0
M  V30 1964 H 178.573 0.189439 -3.2605 0
M  V30 1965 H 177.232 -1.93789 -3.11193 0
M  V30 1966 H 176.88 -0.35665 -5.01734 0
M  V30 1967 H 176.58 -2.04224 -5.50968 0
M  V30 1968 H 178.104 -1.23679 -5.97943 0
M  V30 1969 H 179.518 -3.16559 -4.77978 0
M  V30 1970 H 177.915 -3.92059 -4.54324 0
M  V30 1971 H 178.985 -3.68729 -3.14908 0
M  V30 1972 N 180.328 1.1314 -1.09713 0
M  V30 1973 C 181.574 1.84757 -0.836224 0
M  V30 1974 C 181.907 1.8347 0.636598 0
M  V30 1975 O 181.182 1.27491 1.46889 0
M  V30 1976 C 181.465 3.32782 -1.37578 0
M  V30 1977 C 181.318 3.42567 -2.91493 0
M  V30 1978 C 182.637 4.28307 -1.01198 0
M  V30 1979 H 179.756 0.67082 -0.305236 0
M  V30 1980 H 182.398 1.3278 -1.35903 0
M  V30 1981 H 180.548 3.77177 -0.931097 0
M  V30 1982 H 182.22 3.06862 -3.44432 0
M  V30 1983 H 180.463 2.83349 -3.28475 0
M  V30 1984 H 181.134 4.46674 -3.24324 0
M  V30 1985 H 183.61 3.91999 -1.39556 0
M  V30 1986 H 182.486 5.30307 -1.41653 0
M  V30 1987 H 182.747 4.42029 0.0794833 0
M  V30 1988 N 181.806 0.884767 1.30421 0
M  V30 1989 C 182.739 0.295999 2.26272 0
M  V30 1990 C 183.717 -0.58332 1.51777 0
M  V30 1991 O 184.901 -0.53346 1.80794 0
M  V30 1992 C 182.028 -0.57944 3.33707 0
M  V30 1993 C 181.074 0.230525 4.25877 0
M  V30 1994 S 181.907 1.61867 5.1045 0
M  V30 1995 C 183.063 0.749756 6.21393 0
M  V30 1996 H 183.296 1.10848 2.75862 0
M  V30 1997 H 180.829 0.684178 1.38414 0
M  V30 1998 H 182.787 -1.07879 3.96071 0
M  V30 1999 H 181.448 -1.36601 2.82841 0
M  V30 2000 H 180.641 -0.437542 5.02097 0
M  V30 2001 H 180.243 0.662493 3.68086 0
M  V30 2002 H 182.535 -0.0333547 6.77492 0
M  V30 2003 H 183.478 1.48356 6.92384 0
M  V30 2004 H 183.886 0.310751 5.63644 0
M  V30 2005 N 183.284 -1.43765 0.645699 0
M  V30 2006 C 184.531 -2.01898 0.15604 0
M  V30 2007 C 184.859 -1.50887 -1.22733 0
M  V30 2008 O 184.114 -0.689271 -1.8316 0
M  V30 2009 C 184.413 -3.57238 0.107679 0
M  V30 2010 C 184.079 -4.27564 1.43178 0
M  V30 2011 C 182.741 -4.46492 1.7944 0
M  V30 2012 C 185.093 -4.67454 2.30513 0
M  V30 2013 C 182.421 -5.02573 3.02716 0
M  V30 2014 C 184.773 -5.24901 3.53074 0
M  V30 2015 C 183.437 -5.42046 3.89541 0
M  V30 2016 H 182.707 -0.738797 0.057099 0
M  V30 2017 H 185.354 -1.72341 0.834912 0
M  V30 2018 H 183.659 -3.86293 -0.654618 0
M  V30 2019 H 185.356 -3.99965 -0.287938 0
M  V30 2020 H 181.946 -4.13171 1.13963 0
M  V30 2021 H 186.13 -4.5253 2.0379 0
M  V30 2022 H 181.386 -5.14033 3.31028 0
M  V30 2023 H 185.56 -5.54758 4.20971 0
M  V30 2024 H 183.187 -5.85268 4.85145 0
M  V30 2025 N 184.763 -0.387143 -1.52771 0
M  V30 2026 C 185.695 0.484089 -2.2403 0
M  V30 2027 C 186.708 1.02849 -1.26198 0
M  V30 2028 O 187.897 0.931186 -1.52286 0
M  V30 2029 C 184.997 1.68337 -2.94136 0
M  V30 2030 C 184.17 1.26672 -4.18656 0
M  V30 2031 C 183.229 2.33045 -4.7178 0
M  V30 2032 O 182.255 1.94541 -5.34923 0
M  V30 2033 N 183.457 3.64929 -4.5145 0
M  V30 2034 H 186.222 -0.126404 -2.99433 0
M  V30 2035 H 183.783 -0.213392 -1.60488 0
M  V30 2036 H 185.775 2.39019 -3.26577 0
M  V30 2037 H 184.345 2.20025 -2.22053 0
M  V30 2038 H 183.565 0.388878 -3.92277 0
M  V30 2039 H 184.853 0.964964 -4.99566 0
M  V30 2040 H 184.251 3.98974 -4.01044 0
M  V30 2041 H 182.808 4.31651 -4.88386 0
M  V30 2042 N 186.241 1.57166 -0.116904 0
M  V30 2043 C 187.466 1.999 0.55271 0
M  V30 2044 C 187.891 0.996039 1.59564 0
M  V30 2045 O 187.249 -0.032556 1.81271 0
M  V30 2046 C 187.297 3.4152 1.15742 0
M  V30 2047 O 186.401 3.44106 2.27299 0
M  V30 2048 H 185.742 0.649447 0.138258 0
M  V30 2049 H 188.272 2.03573 -0.204759 0
M  V30 2050 H 188.282 3.79684 1.49346 0
M  V30 2051 H 186.957 4.14034 0.393493 0
M  V30 2052 H 185.534 3.17759 1.9515 0
M  V30 2053 N 187.719 -0.156864 1.56817 0
M  V30 2054 C 188.649 -1.19589 2.00551 0
M  V30 2055 C 189.63 -1.4536 0.883426 0
M  V30 2056 O 190.815 -1.56449 1.15054 0
M  V30 2057 C 187.945 -2.53143 2.37773 0
M  V30 2058 C 186.899 -2.41913 3.53075 0
M  V30 2059 C 186.225 -3.80088 3.76081 0
M  V30 2060 C 187.525 -1.91157 4.86062 0
M  V30 2061 H 189.219 -0.832293 2.87599 0
M  V30 2062 H 186.765 -0.398918 1.38364 0
M  V30 2063 H 188.718 -3.26047 2.66967 0
M  V30 2064 H 187.442 -2.91319 1.4765 0
M  V30 2065 H 186.101 -1.71462 3.24031 0
M  V30 2066 H 185.749 -4.15683 2.83225 0
M  V30 2067 H 185.449 -3.73439 4.53671 0
M  V30 2068 H 186.973 -4.54556 4.0769 0
M  V30 2069 H 188.387 -2.53846 5.14038 0
M  V30 2070 H 186.784 -1.95422 5.67389 0
M  V30 2071 H 187.854 -0.866673 4.77092 0
M  V30 2072 N 189.197 -1.51736 -0.425897 0
M  V30 2073 C 190.445 -1.64644 -1.17204 0
M  V30 2074 C 190.766 -0.370486 -1.91448 0
M  V30 2075 O 190.036 0.614088 -1.86026 0
M  V30 2076 H 188.616 -0.606819 -0.435638 0
M  V30 2077 H 191.278 -1.88713 -0.487177 0
M  V30 2078 H 190.374 -2.47958 -1.89534 0
M  V30 2079 N 190.675 0.682077 -1.42076 0
M  V30 2080 C 191.585 1.82535 -1.47371 0
M  V30 2081 C 192.601 1.7017 -0.363079 0
M  V30 2082 O 193.777 1.91848 -0.612875 0
M  V30 2083 C 190.842 3.18624 -1.36674 0
M  V30 2084 C 189.903 3.42999 -2.58167 0
M  V30 2085 C 189.136 4.72595 -2.4797 0
M  V30 2086 O 189.359 5.50006 -1.5116 0
M  V30 2087 O 188.293 4.98054 -3.37974 0
M  V30 2088 H 192.119 1.81023 -2.43853 0
M  V30 2089 H 189.704 0.836887 -1.2376 0
M  V30 2090 H 191.586 3.99847 -1.33043 0
M  V30 2091 H 190.261 3.20789 -0.433138 0
M  V30 2092 H 189.168 2.61653 -2.67373 0
M  V30 2093 H 190.501 3.45659 -3.50401 0
M  V30 2094 N 192.153 1.28127 0.917671 0
M  V30 2095 C 193.569 1.05749 1.19538 0
M  V30 2096 C 193.769 -0.202633 2.00479 0
M  V30 2097 O 192.825 -0.905382 2.3571 0
M  V30 2098 C 194.138 2.30273 1.93378 0
M  V30 2099 C 195.686 2.35412 2.06277 0
M  V30 2100 C 196.161 3.59692 2.83524 0
M  V30 2101 N 197.652 3.60309 2.91087 0
M  V30 2102 C 198.387 4.53147 3.51348 0
M  V30 2103 N 197.883 5.563 4.12919 0
M  V30 2104 N 199.676 4.40751 3.48849 0
M  V30 2105 H 191.827 2.09024 0.377184 0
M  V30 2106 H 194.09 0.919798 0.22951 0
M  V30 2107 H 193.796 3.22055 1.41328 0
M  V30 2108 H 193.67 2.36378 2.93947 0
M  V30 2109 H 196.057 1.4413 2.57508 0
M  V30 2110 H 196.138 2.33304 1.04895 0
M  V30 2111 H 195.782 4.51316 2.32973 0
M  V30 2112 H 195.712 3.59054 3.85211 0
M  V30 2113 H 198.203 2.85714 2.47338 0
M  V30 2114 H 198.516 6.2329 4.56869 0
M  V30 2115 H 196.861 5.60131 4.11435 0
M  V30 2116 H 200.052 3.59367 2.99955 0
M  V30 2117 H 200.225 5.13291 3.9552 0
M  V30 2118 N 193.631 -1.12557 1.10312 0
M  V30 2119 C 194.88 -1.83395 0.839588 0
M  V30 2120 C 195.193 -1.84939 -0.636929 0
M  V30 2121 O 196.399 -2.51761 -1.01631 0
M  V30 2122 C 194.855 -3.29303 1.45215 0
M  V30 2123 C 194.463 -3.36122 2.96186 0
M  V30 2124 C 196.207 -4.05121 1.26796 0
M  V30 2125 C 194.114 -4.76357 3.50483 0
M  V30 2126 H 193.044 -0.687133 0.310425 0
M  V30 2127 H 195.695 -1.26746 1.32694 0
M  V30 2128 H 194.077 -3.85812 0.892469 0
M  V30 2129 H 195.251 -2.89559 3.58458 0
M  V30 2130 H 193.566 -2.73776 3.13745 0
M  V30 2131 H 196.163 -5.08668 1.64806 0
M  V30 2132 H 196.506 -4.15773 0.209409 0
M  V30 2133 H 197.039 -3.54967 1.79563 0
M  V30 2134 H 193.778 -4.70899 4.55998 0
M  V30 2135 H 193.298 -5.23377 2.92978 0
M  V30 2136 H 194.977 -5.45294 3.48228 0
M  V30 2137 N 195.109 -0.891671 -1.2995 0
M  V30 2138 C 196.057 -0.353066 -2.29905 0
M  V30 2139 C 197.051 0.543509 -1.60444 0
M  V30 2140 O 198.257 0.4272 -1.74857 0
M  V30 2141 H 194.632 -0.095531 -0.745907 0
M  V30 2142 H 196.603 -1.20961 -2.72784 0
M  V30 2143 C 195.352 0.411475 -3.45257 0
M  V30 2144 H 194.675 -0.269182 -3.98893 0
M  V30 2145 H 196.115 0.753328 -4.17254 0
M  V30 2146 C 194.574 1.6111 -2.9588 0
M  V30 2147 O 195.104 2.71045 -2.96475 0
M  V30 2148 N 193.31 1.45054 -2.51809 0
M  V30 2149 H 192.857 0.556175 -2.51524 0
M  V30 2150 H 192.815 2.25453 -2.1913 0
M  V30 2151 N 196.587 1.43421 -0.653314 0
M  V30 2152 C 197.815 2.06163 -0.174491 0
M  V30 2153 C 198.23 1.48969 1.1599 0
M  V30 2154 O 197.587 0.621042 1.71608 0
M  V30 2155 C 197.638 3.61417 -0.0774865 0
M  V30 2156 O 197.359 4.16485 -1.35912 0
M  V30 2157 C 198.86 4.41235 0.427402 0
M  V30 2158 H 196.08 0.664946 -0.0899353 0
M  V30 2159 H 198.624 1.83924 -0.893988 0
M  V30 2160 H 196.779 3.82841 0.59257 0
M  V30 2161 H 197.193 5.10153 -1.21839 0
M  V30 2162 H 198.667 5.5021 0.44423 0
M  V30 2163 H 199.144 4.14268 1.45873 0
M  V30 2164 H 199.75 4.2478 -0.210167 0
M  V30 2165 N 198.065 0.39524 1.52563 0
M  V30 2166 C 198.995 -0.428384 2.29537 0
M  V30 2167 C 199.976 -1.05831 1.33169 0
M  V30 2168 O 201.161 -1.06995 1.62067 0
M  V30 2169 C 198.291 -1.55274 3.10656 0
M  V30 2170 C 197.245 -1.04855 4.14957 0
M  V30 2171 C 196.571 -2.26543 4.84337 0
M  V30 2172 C 197.871 -0.112324 5.22179 0
M  V30 2173 H 199.565 0.213867 2.98635 0
M  V30 2174 H 197.111 0.104298 1.43622 0
M  V30 2175 H 199.064 -2.1358 3.63265 0
M  V30 2176 H 197.788 -2.22266 2.39302 0
M  V30 2177 H 196.447 -0.487985 3.63338 0
M  V30 2178 H 196.095 -2.92059 4.09525 0
M  V30 2179 H 195.795 -1.93466 5.54837 0
M  V30 2180 H 197.319 -2.85481 5.39753 0
M  V30 2181 H 198.733 -0.603752 5.70112 0
M  V30 2182 H 197.13 0.128968 5.99961 0
M  V30 2183 H 198.2 0.837052 4.77621 0
M  V30 2184 N 199.544 -1.57102 0.125237 0
M  V30 2185 C 200.79 -1.95697 -0.532035 0
M  V30 2186 C 201.123 -1.009 -1.6593 0
M  V30 2187 O 200.398 -0.047347 -1.94442 0
M  V30 2188 C 200.681 -3.44181 -1.05884 0
M  V30 2189 C 200.534 -4.49752 0.0654392 0
M  V30 2190 C 201.853 -3.94655 -1.9477 0
M  V30 2191 H 198.972 -0.711571 -0.191925 0
M  V30 2192 H 201.614 -1.88923 0.20206 0
M  V30 2193 H 199.764 -3.50085 -1.68442 0
M  V30 2194 H 201.436 -4.55943 0.700982 0
M  V30 2195 H 199.679 -4.27653 0.727709 0
M  V30 2196 H 200.35 -5.50924 -0.344505 0
M  V30 2197 H 202.826 -3.91094 -1.42074 0
M  V30 2198 H 201.702 -4.99057 -2.28546 0
M  V30 2199 H 201.963 -3.35718 -2.87656 0
M  V30 2200 N 201.022 0.148545 -1.56898 0
M  V30 2201 C 202.438 0.501131 -1.51528 0
M  V30 2202 C 202.638 1.83458 -0.833399 0
M  V30 2203 O 201.694 2.49259 -0.40328 0
M  V30 2204 C 203.007 0.512864 -2.96294 0
M  V30 2205 C 204.555 0.598487 -3.07225 0
M  V30 2206 C 205.03 0.640897 -4.53494 0
M  V30 2207 N 206.521 0.703163 -4.57832 0
M  V30 2208 C 207.256 0.756935 -5.68382 0
M  V30 2209 N 206.752 0.770147 -6.88506 0
M  V30 2210 N 208.545 0.797698 -5.56411 0
M  V30 2211 H 200.696 -0.725532 -1.99624 0
M  V30 2212 H 202.959 -0.264358 -0.910395 0
M  V30 2213 H 202.665 -0.398691 -3.49433 0
M  V30 2214 H 202.539 1.35133 -3.52163 0
M  V30 2215 H 204.926 1.50046 -2.54106 0
M  V30 2216 H 205.007 -0.267093 -2.54402 0
M  V30 2217 H 204.651 -0.256915 -5.0725 0
M  V30 2218 H 204.581 1.52295 -5.04097 0
M  V30 2219 H 207.072 0.700314 -3.71354 0
M  V30 2220 H 207.385 0.812983 -7.68512 0
M  V30 2221 H 205.73 0.738049 -6.9107 0
M  V30 2222 H 208.921 0.784535 -4.61479 0
M  V30 2223 H 209.094 0.83614 -6.42583 0
M  V30 2224 N 202.5 1.5196 0.417844 0
M  V30 2225 C 203.73 1.69181 1.18581 0
M  V30 2226 C 204.138 0.397104 1.84986 0
M  V30 2227 O 203.481 -0.636011 1.72339 0
M  V30 2228 C 203.543 2.76497 2.29759 0
M  V30 2229 C 203.207 4.18514 1.83563 0
M  V30 2230 C 204.204 5.02648 1.32821 0
M  V30 2231 C 201.889 4.64708 1.90661 0
M  V30 2232 C 203.883 6.31044 0.897894 0
M  V30 2233 C 201.57 5.93096 1.47241 0
M  V30 2234 C 202.568 6.76093 0.968891 0
M  V30 2235 O 202.256 8.02078 0.540924 0
M  V30 2236 H 201.988 0.570457 0.362705 0
M  V30 2237 H 204.542 1.99249 0.498885 0
M  V30 2238 H 202.772 2.41786 3.01789 0
M  V30 2239 H 204.461 2.82403 2.91553 0
M  V30 2240 H 205.227 4.68154 1.26716 0
M  V30 2241 H 201.106 4.00216 2.28797 0
M  V30 2242 H 204.65 6.95776 0.504192 0
M  V30 2243 H 200.547 6.271 1.53022 0
M  V30 2244 H 201.315 8.15794 0.66502 0
M  V30 2245 N 203.978 -0.674533 1.42435 0
M  V30 2246 C 204.908 -1.80009 1.48724 0
M  V30 2247 C 205.889 -1.6659 0.343793 0
M  V30 2248 O 207.074 -1.86007 0.558137 0
M  V30 2249 C 204.204 -3.18306 1.38919 0
M  V30 2250 C 203.158 -3.46461 2.51294 0
M  V30 2251 C 202.484 -4.84335 2.26547 0
M  V30 2252 C 203.784 -3.43328 3.93603 0
M  V30 2253 H 205.478 -1.75004 2.42928 0
M  V30 2254 H 203.024 -0.840533 1.16923 0
M  V30 2255 H 204.977 -3.9678 1.41927 0
M  V30 2256 H 203.701 -3.2399 0.412094 0
M  V30 2257 H 202.36 -2.70348 2.47604 0
M  V30 2258 H 202.008 -4.86669 1.2713 0
M  V30 2259 H 201.708 -5.04136 3.01861 0
M  V30 2260 H 203.232 -5.65094 2.31304 0
M  V30 2261 H 204.646 -4.11772 3.98894 0
M  V30 2262 H 203.043 -3.74664 4.68771 0
M  V30 2263 H 204.113 -2.41897 4.20255 0
M  V30 2264 N 205.456 -1.28612 -0.910864 0
M  V30 2265 C 206.386 -1.15326 -2.03032 0
M  V30 2266 C 207.367 -0.0502924 -1.70026 0
M  V30 2267 O 208.552 -0.227797 -1.92859 0
M  V30 2268 C 205.682 -0.817343 -3.37545 0
M  V30 2269 C 204.636 -1.8754 -3.84724 0
M  V30 2270 C 203.962 -1.39305 -5.16235 0
M  V30 2271 C 205.262 -3.28244 -4.06267 0
M  V30 2272 H 206.956 -2.08975 -2.14406 0
M  V30 2273 H 204.502 -1.00612 -1.03021 0
M  V30 2274 H 206.455 -0.711151 -4.15356 0
M  V30 2275 H 205.179 0.154846 -3.26233 0
M  V30 2276 H 203.838 -1.97079 -3.09121 0
M  V30 2277 H 203.486 -0.409846 -5.01328 0
M  V30 2278 H 203.186 -2.10057 -5.48771 0
M  V30 2279 H 204.71 -1.30014 -5.96598 0
M  V30 2280 H 206.124 -3.21611 -4.74594 0
M  V30 2281 H 204.521 -3.96855 -4.5014 0
M  V30 2282 H 205.591 -3.72048 -3.10979 0
M  V30 2283 N 206.934 1.1197 -1.10907 0
M  V30 2284 C 207.884 2.15946 -0.731538 0
M  V30 2285 C 208.868 1.58758 0.261699 0
M  V30 2286 O 210.06 1.76863 0.0696722 0
M  V30 2287 C 207.189 3.42877 -0.170299 0
M  V30 2288 C 206.275 4.07037 -1.19087 0
M  V30 2289 N 206.666 4.46135 -2.38322 0
M  V30 2290 C 204.964 4.33884 -1.03252 0
M  V30 2291 C 205.665 4.96331 -3.03366 0
M  V30 2292 N 204.641 4.9214 -2.30865 0
M  V30 2293 H 208.443 2.43947 -1.63912 0
M  V30 2294 H 205.957 1.28927 -0.987505 0
M  V30 2295 H 207.954 4.16732 0.118271 0
M  V30 2296 H 206.614 3.16343 0.731935 0
M  V30 2297 H 207.625 4.38345 -2.75815 0
M  V30 2298 H 204.302 4.17084 -0.186256 0
M  V30 2299 H 205.692 5.36257 -4.04818 0
M  V30 2300 N 208.412 0.89855 1.29475 0
M  V30 2301 C 209.828 0.594483 1.48115 0
M  V30 2302 C 210.028 -0.86431 1.82022 0
M  V30 2303 O 209.084 -1.64457 1.91599 0
M  V30 2304 C 210.397 1.51932 2.59494 0
M  V30 2305 C 211.945 1.5244 2.7337 0
M  V30 2306 C 212.42 2.43548 3.87877 0
M  V30 2307 N 213.911 2.41589 3.95208 0
M  V30 2308 C 214.646 3.08789 4.83153 0
M  V30 2309 N 214.142 3.85265 5.75798 0
M  V30 2310 N 215.935 2.97952 4.76635 0
M  V30 2311 H 208.086 1.84207 1.05742 0
M  V30 2312 H 210.349 0.789251 0.525154 0
M  V30 2313 H 210.055 2.55865 2.41301 0
M  V30 2314 H 209.929 1.23899 3.56271 0
M  V30 2315 H 212.316 0.492518 2.90961 0
M  V30 2316 H 212.397 1.8451 1.77172 0
M  V30 2317 H 212.041 3.46829 3.71041 0
M  V30 2318 H 211.971 2.08788 4.83441 0
M  V30 2319 H 214.462 1.86025 3.28943 0
M  V30 2320 H 214.775 4.33598 6.39697 0
M  V30 2321 H 213.12 3.89371 5.75687 0
M  V30 2322 H 216.311 2.37723 4.03244 0
M  V30 2323 H 216.484 3.50599 5.44962 0
M  V30 2324 N 209.89 -1.43072 0.660911 0
M  V30 2325 C 210.853 -2.29194 -0.0166406 0
M  V30 2326 C 211.853 -1.42609 -0.742912 0
M  V30 2327 O 213.043 -1.64155 -0.583004 0
M  V30 2328 C 210.175 -3.24831 -1.0343 0
M  V30 2329 H 211.368 -2.90596 0.741208 0
M  V30 2330 H 208.921 -1.5048 0.422532 0
M  V30 2331 H 209.656 -2.68339 -1.82111 0
M  V30 2332 H 209.441 -3.88676 -0.517082 0
M  V30 2333 H 210.931 -3.89451 -1.50723 0
M  V30 2334 N 211.368 -0.403325 -1.52352 0
M  V30 2335 C 212.315 0.425011 -2.26853 0
M  V30 2336 C 213.285 1.04598 -1.29029 0
M  V30 2337 O 214.47 1.07135 -1.57882 0
M  V30 2338 C 211.61 1.53888 -3.08889 0
M  V30 2339 C 210.723 0.939396 -4.21663 0
M  V30 2340 C 209.858 2.02547 -4.91068 0
M  V30 2341 C 208.897 1.40263 -5.95813 0
M  V30 2342 N 208.034 2.4286 -6.58759 0
M  V30 2343 H 212.874 -0.21674 -2.97211 0
M  V30 2344 H 210.411 -0.118722 -1.4662 0
M  V30 2345 H 212.369 2.19558 -3.54753 0
M  V30 2346 H 210.999 2.15074 -2.40714 0
M  V30 2347 H 210.051 0.171898 -3.80011 0
M  V30 2348 H 211.363 0.44436 -4.96817 0
M  V30 2349 H 210.517 2.75958 -5.40308 0
M  V30 2350 H 209.256 2.55415 -4.15469 0
M  V30 2351 H 208.261 0.653833 -5.45898 0
M  V30 2352 H 209.486 0.881719 -6.73352 0
M  V30 2353 H 207.432 2.94871 -5.85992 0
M  V30 2354 H 207.349 1.98152 -7.2957 0
M  V30 2355 H 208.617 3.15858 -7.12639 0
M  V30 2356 N 212.846 1.57033 -0.133567 0
M  V30 2357 C 213.793 2.16074 0.811208 0
M  V30 2358 C 214.763 1.08979 1.2535 0
M  V30 2359 O 215.948 1.36958 1.32843 0
M  V30 2360 C 213.088 2.77595 2.05024 0
M  V30 2361 C 212.201 3.99042 1.65498 0
M  V30 2362 C 211.336 4.48603 2.84479 0
M  V30 2363 C 210.375 5.62547 2.41262 0
M  V30 2364 N 209.512 6.06787 3.53206 0
M  V30 2365 H 214.352 2.96477 0.300906 0
M  V30 2366 H 211.889 1.46462 0.136822 0
M  V30 2367 H 213.847 3.11402 2.77642 0
M  V30 2368 H 212.477 1.99859 2.53488 0
M  V30 2369 H 211.529 3.71302 0.826981 0
M  V30 2370 H 212.841 4.81629 1.29748 0
M  V30 2371 H 211.995 4.84395 3.65303 0
M  V30 2372 H 210.734 3.64995 3.23465 0
M  V30 2373 H 209.739 5.26345 1.58874 0
M  V30 2374 H 210.964 6.47931 2.03377 0
M  V30 2375 H 208.91 5.26117 3.91838 0
M  V30 2376 H 208.827 6.84266 3.21427 0
M  V30 2377 H 210.095 6.4722 4.34427 0
M  V30 2378 N 214.325 -0.140222 1.56975 0
M  V30 2379 C 215.573 -0.850005 1.83356 0
M  V30 2380 C 215.894 -1.81399 0.71551 0
M  V30 2381 O 215.164 -1.94136 -0.262294 0
M  V30 2382 H 213.744 -0.316886 0.676456 0
M  V30 2383 H 216.406 -0.132608 1.94448 0
M  V30 2384 H 215.502 -1.40814 2.78528 0
M  V30 2385 N 215.803 -1.52179 -0.40978 0
M  V30 2386 C 216.733 -1.78435 -1.5061 0
M  V30 2387 C 217.714 -0.635295 -1.57791 0
M  V30 2388 O 218.899 -0.880823 -1.73076 0
M  V30 2389 C 216.029 -1.93444 -2.88439 0
M  V30 2390 C 214.983 -3.09038 -2.96108 0
M  V30 2391 C 214.309 -3.09268 -4.36185 0
M  V30 2392 C 215.609 -4.48508 -2.67652 0
M  V30 2393 H 217.303 -2.70237 -1.28889 0
M  V30 2394 H 214.849 -1.30036 -0.618605 0
M  V30 2395 H 216.802 -2.10394 -3.65119 0
M  V30 2396 H 215.526 -0.983129 -3.11452 0
M  V30 2397 H 214.185 -2.91837 -2.21872 0
M  V30 2398 H 213.833 -2.11861 -4.56206 0
M  V30 2399 H 213.533 -3.86907 -4.42241 0
M  V30 2400 H 215.057 -3.28348 -5.14801 0
M  V30 2401 H 216.471 -4.65918 -3.34056 0
M  V30 2402 H 214.868 -5.28059 -2.85085 0
M  V30 2403 H 215.938 -4.56649 -1.63095 0
M  V30 2404 N 217.281 0.66697 -1.42791 0
M  V30 2405 C 218.529 1.42417 -1.43394 0
M  V30 2406 C 218.85 1.94925 -0.0542373 0
M  V30 2407 O 218.12 1.73564 0.908415 0
M  V30 2408 H 216.7 0.528515 -0.527902 0
M  V30 2409 H 219.362 0.787562 -1.78279 0
M  V30 2410 H 218.458 2.27333 -2.13837 0
M  V30 2411 N 218.759 1.29093 0.90403 0
M  V30 2412 C 219.692 1.08176 2.00931 0
M  V30 2413 C 220.67 -0.005083 1.62599 0
M  V30 2414 O 221.854 0.144765 1.87943 0
M  V30 2415 C 218.981 0.645897 3.32484 0
M  V30 2416 C 218.027 1.73081 3.89801 0
M  V30 2417 S 218.86 3.32905 4.19446 0
M  V30 2418 C 220.016 2.91176 5.54046 0
M  V30 2419 H 220.249 2.01752 2.18365 0
M  V30 2420 H 217.782 1.13191 1.0501 0
M  V30 2421 H 219.74 0.401131 4.08535 0
M  V30 2422 H 218.401 -0.270188 3.12936 0
M  V30 2423 H 217.594 1.37768 4.84805 0
M  V30 2424 H 217.196 1.92888 3.20422 0
M  V30 2425 H 219.488 2.37952 6.34338 0
M  V30 2426 H 220.431 3.85014 5.94281 0
M  V30 2427 H 220.839 2.296 5.15698 0
M  V30 2428 N 220.237 -1.11381 1.11499 0
M  V30 2429 C 221.653 -1.35143 0.849031 0
M  V30 2430 C 221.853 -1.94515 -0.525938 0
M  V30 2431 O 220.909 -2.1785 -1.27662 0
M  V30 2432 C 222.222 -2.28249 1.95762 0
M  V30 2433 C 223.77 -2.41812 1.98736 0
M  V30 2434 C 224.245 -3.3824 3.088 0
M  V30 2435 N 225.736 -3.45803 3.08179 0
M  V30 2436 C 226.471 -4.20358 3.89982 0
M  V30 2437 N 225.967 -4.97884 4.8175 0
M  V30 2438 N 227.76 -4.15877 3.78157 0
M  V30 2439 H 219.911 -0.712062 2.00109 0
M  V30 2440 H 222.174 -0.376025 0.870235 0
M  V30 2441 H 221.88 -1.91817 2.94787 0
M  V30 2442 H 221.754 -3.28473 1.85433 0
M  V30 2443 H 224.141 -2.77518 1.00338 0
M  V30 2444 H 224.222 -1.41437 2.13141 0
M  V30 2445 H 223.866 -3.03261 4.07425 0
M  V30 2446 H 223.796 -4.38471 2.91635 0
M  V30 2447 H 226.287 -2.90506 2.41691 0
M  V30 2448 H 226.6 -5.52142 5.40702 0
M  V30 2449 H 224.945 -4.97043 4.85771 0
M  V30 2450 H 228.136 -3.544 3.05808 0
M  V30 2451 H 228.309 -4.73723 4.42143 0
M  V30 2452 N 221.715 -0.905404 -1.28997 0
M  V30 2453 C 223.131 -0.60233 -1.47798 0
M  V30 2454 C 223.331 0.854645 -1.82478 0
M  V30 2455 O 222.387 1.63439 -1.92468 0
M  V30 2456 C 223.7 -1.53306 -2.58685 0
M  V30 2457 C 225.248 -1.53887 -2.72558 0
M  V30 2458 C 225.723 -2.45602 -3.86579 0
M  V30 2459 N 227.214 -2.43681 -3.93921 0
M  V30 2460 C 227.949 -3.11347 -4.81509 0
M  V30 2461 N 227.445 -3.88313 -5.73746 0
M  V30 2462 N 229.238 -3.00476 -4.75048 0
M  V30 2463 H 221.389 -1.84765 -1.04764 0
M  V30 2464 H 223.652 -0.792025 -0.520961 0
M  V30 2465 H 223.358 -2.57141 -2.39941 0
M  V30 2466 H 223.232 -1.25787 -3.55609 0
M  V30 2467 H 225.619 -0.507941 -2.90696 0
M  V30 2468 H 225.7 -1.85447 -1.76191 0
M  V30 2469 H 225.344 -3.48792 -3.69197 0
M  V30 2470 H 225.274 -2.11349 -4.82327 0
M  V30 2471 H 227.765 -1.87767 -3.27951 0
M  V30 2472 H 228.078 -4.36985 -6.37389 0
M  V30 2473 H 226.423 -3.92419 -5.73614 0
M  V30 2474 H 229.614 -2.39858 -4.01977 0
M  V30 2475 H 229.787 -3.53485 -5.43095 0
M  V30 2476 N 223.193 1.4272 -0.668489 0
M  V30 2477 C 224.156 2.292 0.00448567 0
M  V30 2478 C 225.156 1.43001 0.735339 0
M  V30 2479 O 226.346 1.64461 0.57429 0
M  V30 2480 C 223.478 3.25375 1.01705 0
M  V30 2481 H 224.671 2.90199 -0.756608 0
M  V30 2482 H 222.224 1.50254 -0.430506 0
M  V30 2483 H 222.959 2.69301 1.80686 0
M  V30 2484 H 222.744 3.88944 0.496463 0
M  V30 2485 H 224.234 3.90245 1.48655 0
M  V30 2486 N 224.671 0.411399 1.52136 0
M  V30 2487 C 225.948 -0.222308 1.94333 0
M  V30 2488 C 226.328 -1.6242 1.34844 0
M  V30 2489 O 225.676 -2.22384 0.525145 0
M  V30 2490 C 225.886 -0.226345 3.48265 0
M  V30 2491 C 227.234 -0.444592 4.22266 0
M  V30 2492 O 228.258 -0.305602 3.54887 0
M  V30 2493 O 227.117 -0.718749 5.41753 0
M  V30 2494 H 224.211 -0.143907 0.814383 0
M  V30 2495 H 226.757 0.467506 1.63133 0
M  V30 2496 H 225.529 0.75475 3.83952 0
M  V30 2497 H 225.152 -0.960163 3.85832 0
M  V30 2498 N 226.149 -1.5696 0.141893 0
M  V30 2499 C 227.395 -1.9625 -0.511248 0
M  V30 2500 C 227.728 -1.02654 -1.64851 0
M  V30 2501 O 227.003 -0.0679676 -1.94381 0
M  V30 2502 C 227.286 -3.45285 -1.02227 0
M  V30 2503 C 227.139 -4.49658 0.113138 0
M  V30 2504 C 228.458 -3.96698 -1.90574 0
M  V30 2505 H 225.577 -0.713567 -0.184367 0
M  V30 2506 H 228.219 -1.88698 0.222087 0
M  V30 2507 H 226.369 -3.51852 -1.64719 0
M  V30 2508 H 228.041 -4.55174 0.749302 0
M  V30 2509 H 226.284 -4.26857 0.773026 0
M  V30 2510 H 226.955 -5.51258 -0.286053 0
M  V30 2511 H 229.431 -3.92578 -1.37918 0
M  V30 2512 H 228.307 -5.01453 -2.2324 0
M  V30 2513 H 228.568 -3.3875 -2.84079 0
M  V30 2514 N 227.627 0.131896 -1.57047 0
M  V30 2515 C 228.852 0.860418 -1.8871 0
M  V30 2516 C 229.277 1.73251 -0.73251 0
M  V30 2517 O 228.635 1.785 0.317429 0
M  V30 2518 C 228.683 1.68047 -3.19049 0
M  V30 2519 O 227.787 2.7862 -3.04047 0
M  V30 2520 H 227.128 0.238743 -0.619595 0
M  V30 2521 H 229.658 0.118169 -2.04258 0
M  V30 2522 H 229.668 2.07238 -3.51449 0
M  V30 2523 H 228.343 1.04018 -4.02682 0
M  V30 2524 H 226.92 2.42726 -2.83088 0
M  V30 2525 N 229.106 1.52395 0.401703 0
M  V30 2526 C 230.039 1.70999 1.51111 0
M  V30 2527 C 231.017 0.55765 1.52738 0
M  V30 2528 O 232.201 0.785912 1.71335 0
M  V30 2529 C 229.328 1.75607 2.8962 0
M  V30 2530 C 228.374 2.97227 3.05873 0
M  V30 2531 S 229.207 4.57439 2.78405 0
M  V30 2532 C 230.363 4.64844 4.19131 0
M  V30 2533 H 230.596 2.6483 1.35102 0
M  V30 2534 H 228.129 1.42527 0.593762 0
M  V30 2535 H 230.087 1.78947 3.69443 0
M  V30 2536 H 228.748 0.828914 3.02965 0
M  V30 2537 H 227.941 2.96955 4.07227 0
M  V30 2538 H 227.543 2.91813 2.33925 0
M  V30 2539 H 229.835 4.42677 5.12877 0
M  V30 2540 H 230.778 5.66807 4.24424 0
M  V30 2541 H 231.186 3.93804 4.04448 0
M  V30 2542 N 230.584 -0.659388 1.43143 0
M  V30 2543 C 231.547 -1.75432 1.47501 0
M  V30 2544 C 232.547 -1.56707 0.360512 0
M  V30 2545 O 233.737 -1.62717 0.622002 0
M  V30 2546 C 230.869 -3.14239 1.32162 0
M  V30 2547 H 232.062 -1.7295 2.45006 0
M  V30 2548 H 229.615 -0.870469 1.29817 0
M  V30 2549 H 230.35 -3.22336 0.356401 0
M  V30 2550 H 230.135 -3.29235 2.12948 0
M  V30 2551 H 231.625 -3.94094 1.3813 0
M  V30 2552 N 232.062 -1.29571 -0.897171 0
M  V30 2553 C 233.01 -1.14802 -2.02295 0
M  V30 2554 C 234.004 -0.0629637 -1.69283 0
M  V30 2555 O 235.21 -0.222945 -1.78614 0
M  V30 2556 H 231.585 -0.354692 -0.663097 0
M  V30 2557 H 233.556 -2.10108 -2.11889 0
M  V30 2558 C 232.305 -0.843966 -3.37302 0
M  V30 2559 H 231.628 -1.67093 -3.63208 0
M  V30 2560 H 233.068 -0.780672 -4.16751 0
M  V30 2561 C 231.527 0.452843 -3.33843 0
M  V30 2562 O 232.057 1.47813 -3.73516 0
M  V30 2563 N 230.263 0.459601 -2.86943 0
M  V30 2564 H 229.81 -0.375213 -2.54853 0
M  V30 2565 H 229.768 1.32726 -2.85011 0
M  V30 2566 N 233.54 1.10788 -1.12088 0
M  V30 2567 C 234.473 2.16237 -0.729168 0
M  V30 2568 C 235.451 1.60207 0.277921 0
M  V30 2569 O 236.635 1.87707 0.172737 0
M  V30 2570 C 233.762 3.38609 -0.0786848 0
M  V30 2571 C 232.808 4.13322 -1.05201 0
M  V30 2572 S 233.641 4.69371 -2.57781 0
M  V30 2573 C 234.797 5.95058 -1.94053 0
M  V30 2574 H 235.03 2.4913 -1.62239 0
M  V30 2575 H 232.563 1.22519 -0.939603 0
M  V30 2576 H 234.521 4.09473 0.290254 0
M  V30 2577 H 233.182 3.03962 0.791593 0
M  V30 2578 H 232.375 5.01051 -0.544433 0
M  V30 2579 H 231.977 3.48251 -1.36371 0
M  V30 2580 H 234.269 6.65278 -1.28107 0
M  V30 2581 H 235.212 6.50472 -2.79807 0
M  V30 2582 H 235.62 5.46918 -1.39787 0
M  V30 2583 N 235.018 0.912232 1.28515 0
M  V30 2584 C 236.264 0.545405 1.95328 0
M  V30 2585 C 236.597 -0.908313 1.71649 0
M  V30 2586 O 235.872 -1.64575 1.03659 0
M  V30 2587 C 236.155 0.853483 3.4984 0
M  V30 2588 C 236.008 2.35982 3.82926 0
M  V30 2589 C 237.327 0.348589 4.38717 0
M  V30 2590 H 234.446 0.199626 0.709449 0
M  V30 2591 H 237.088 1.1412 1.5191 0
M  V30 2592 H 235.238 0.34643 3.86952 0
M  V30 2593 H 236.91 2.93738 3.55691 0
M  V30 2594 H 235.153 2.81543 3.30024 0
M  V30 2595 H 235.824 2.52593 4.90816 0
M  V30 2596 H 238.3 0.78294 4.08668 0
M  V30 2597 H 237.176 0.593242 5.45685 0
M  V30 2598 H 237.437 -0.751049 4.35674 0
M  V30 2599 N 236.496 -1.42363 0.676048 0
M  V30 2600 C 237.426 -2.33497 0.0124832 0
M  V30 2601 C 238.407 -1.50748 -0.787981 0
M  V30 2602 O 239.592 -1.79346 -0.744884 0
M  V30 2603 C 236.722 -3.34377 -0.938582 0
M  V30 2604 C 235.676 -4.27289 -0.246622 0
M  V30 2605 C 235.002 -5.18386 -1.31071 0
M  V30 2606 C 236.302 -5.14916 0.875125 0
M  V30 2607 H 237.996 -2.89233 0.773593 0
M  V30 2608 H 235.542 -1.39073 0.37346 0
M  V30 2609 H 237.495 -3.97044 -1.41188 0
M  V30 2610 H 236.219 -2.76947 -1.73113 0
M  V30 2611 H 234.878 -3.66018 0.206456 0
M  V30 2612 H 234.526 -4.57282 -2.09528 0
M  V30 2613 H 234.226 -5.81378 -0.852839 0
M  V30 2614 H 235.75 -5.83929 -1.78492 0
M  V30 2615 H 237.164 -5.71262 0.482983 0
M  V30 2616 H 235.561 -5.86747 1.25887 0
M  V30 2617 H 236.631 -4.53242 1.72335 0
M  V30 2618 N 237.974 -0.419461 -1.51915 0
M  V30 2619 C 239.223 0.154346 -2.01109 0
M  V30 2620 C 239.536 1.45338 -1.30905 0
M  V30 2621 O 240.742 2.10906 -1.7097 0
M  V30 2622 C 239.198 0.325615 -3.58424 0
M  V30 2623 C 238.806 -0.961934 -4.37551 0
M  V30 2624 C 240.55 0.854155 -4.15818 0
M  V30 2625 C 238.457 -0.757287 -5.86531 0
M  V30 2626 H 237.387 0.0614563 -0.751491 0
M  V30 2627 H 240.038 -0.54649 -1.75173 0
M  V30 2628 H 238.42 1.08903 -3.80731 0
M  V30 2629 H 239.594 -1.7323 -4.26999 0
M  V30 2630 H 237.909 -1.41766 -3.91524 0
M  V30 2631 H 240.506 1.02346 -5.24814 0
M  V30 2632 H 240.849 1.83172 -3.73837 0
M  V30 2633 H 241.382 0.149528 -3.97519 0
M  V30 2634 H 238.121 -1.70671 -6.32892 0
M  V30 2635 H 237.641 -0.0264061 -5.99794 0
M  V30 2636 H 239.32 -0.403482 -6.45741 0
M  V30 2637 N 239.452 1.56882 -0.150215 0
M  V30 2638 C 240.7 1.9584 0.499105 0
M  V30 2639 C 241.021 1.03623 1.65188 0
M  V30 2640 O 240.291 0.0984084 1.95653 0
M  V30 2641 H 238.871 0.723119 0.187373 0
M  V30 2642 H 241.533 1.9358 -0.226466 0
M  V30 2643 H 240.629 2.99638 0.873122 0
M  V30 2644 N 240.93 -0.123565 1.57115 0
M  V30 2645 C 242.177 -0.832153 1.84612 0
M  V30 2646 C 242.505 -1.80093 0.734627 0
M  V30 2647 O 241.76 -1.93766 -0.27442 0
M  V30 2648 C 242.059 -1.62016 3.18568 0
M  V30 2649 C 241.725 -0.796084 4.43817 0
M  V30 2650 C 240.387 -0.568816 4.77826 0
M  V30 2651 C 242.739 -0.221364 5.2073 0
M  V30 2652 C 240.067 0.243499 5.86194 0
M  V30 2653 C 242.419 0.578117 6.29953 0
M  V30 2654 C 241.083 0.815744 6.62497 0
M  V30 2655 H 240.353 -0.304507 0.675542 0
M  V30 2656 H 243 -0.0947248 1.91266 0
M  V30 2657 H 241.305 -2.42837 3.0747 0
M  V30 2658 H 243.002 -2.17231 3.37064 0
M  V30 2659 H 239.592 -0.983307 4.17168 0
M  V30 2660 H 243.776 -0.384173 4.94811 0
M  V30 2661 H 239.032 0.436871 6.09837 0
M  V30 2662 H 243.206 1.03046 6.88734 0
M  V30 2663 H 240.833 1.44701 7.46301 0
M  V30 2664 N 242.408 -1.52605 -0.393616 0
M  V30 2665 C 243.655 -1.67424 -1.1391 0
M  V30 2666 C 243.983 -0.411859 -1.90089 0
M  V30 2667 O 243.238 0.605626 -1.86093 0
M  V30 2668 C 243.537 -2.85721 -2.14705 0
M  V30 2669 C 243.203 -4.23342 -1.55218 0
M  V30 2670 C 241.865 -4.60771 -1.3872 0
M  V30 2671 C 244.217 -5.09041 -1.11924 0
M  V30 2672 C 241.545 -5.81563 -0.774689 0
M  V30 2673 C 243.897 -6.30452 -0.520853 0
M  V30 2674 C 242.561 -6.66617 -0.343134 0
M  V30 2675 H 241.831 -0.612648 -0.416826 0
M  V30 2676 H 244.478 -1.8674 -0.424315 0
M  V30 2677 H 242.783 -2.60803 -2.92385 0
M  V30 2678 H 244.48 -2.94382 -2.72288 0
M  V30 2679 H 241.07 -3.93855 -1.69045 0
M  V30 2680 H 245.254 -4.80695 -1.23473 0
M  V30 2681 H 240.51 -6.08196 -0.625154 0
M  V30 2682 H 244.684 -6.96175 -0.177065 0
M  V30 2683 H 242.311 -7.60083 0.133571 0
M  V30 2684 N 243.887 0.651787 -1.4349 0
M  V30 2685 C 245.112 1.44434 -1.48841 0
M  V30 2686 C 245.537 1.8779 -0.107955 0
M  V30 2687 O 244.895 1.57464 0.898602 0
M  V30 2688 C 244.943 2.65458 -2.44059 0
M  V30 2689 O 244.047 3.64566 -1.92784 0
M  V30 2690 H 243.388 0.433005 -0.503391 0
M  V30 2691 H 245.918 0.797451 -1.88419 0
M  V30 2692 H 245.928 3.13255 -2.6141 0
M  V30 2693 H 244.603 2.33244 -3.4434 0
M  V30 2694 H 243.18 3.23716 -1.851 0
M  V30 2695 N 245.365 1.30045 0.890287 0
M  V30 2696 C 246.605 1.19839 1.65584 0
M  V30 2697 C 246.969 -0.244175 1.90441 0
M  V30 2698 O 248.17 -0.469378 2.6467 0
M  V30 2699 C 246.441 1.99876 2.96284 0
M  V30 2700 S 248 2.06309 3.87275 0
M  V30 2701 H 244.818 0.427157 0.568382 0
M  V30 2702 H 247.42 1.64453 1.05715 0
M  V30 2703 H 246.124 3.03809 2.75913 0
M  V30 2704 H 245.655 1.55903 3.61189 0
M  V30 2705 H 247.67 1.18661 4.81803 0
M  V30 2706 N 246.843 -1.10192 1.12674 0
M  V30 2707 C 248.092 -1.81573 0.8783 0
M  V30 2708 C 248.405 -1.86249 -0.597557 0
M  V30 2709 O 249.611 -2.5386 -0.962681 0
M  V30 2710 C 248.067 -3.26149 1.52167 0
M  V30 2711 C 247.675 -3.29763 3.03249 0
M  V30 2712 C 249.419 -4.0234 1.3536 0
M  V30 2713 C 247.326 -4.68815 3.60508 0
M  V30 2714 H 246.256 -0.680394 0.324931 0
M  V30 2715 H 248.907 -1.23902 1.35353 0
M  V30 2716 H 247.289 -3.83832 0.974104 0
M  V30 2717 H 248.463 -2.8189 3.6452 0
M  V30 2718 H 246.778 -2.67059 3.19481 0
M  V30 2719 H 249.375 -5.05058 1.75559 0
M  V30 2720 H 249.718 -4.15235 0.297554 0
M  V30 2721 H 250.251 -3.51079 1.87052 0
M  V30 2722 H 246.99 -4.61121 4.65884 0
M  V30 2723 H 246.51 -5.17045 3.04014 0
M  V30 2724 H 248.189 -5.37785 3.59717 0
M  V30 2725 N 248.321 -0.919034 -1.28029 0
M  V30 2726 C 249.546 -0.570357 -1.99403 0
M  V30 2727 C 249.971 0.842486 -1.68178 0
M  V30 2728 O 249.329 1.56391 -0.917141 0
M  V30 2729 C 249.377 -0.792541 -3.51783 0
M  V30 2730 O 248.481 0.145988 -4.12142 0
M  V30 2731 H 247.822 -0.220555 -0.6263 0
M  V30 2732 H 250.352 -1.23592 -1.63053 0
M  V30 2733 H 250.362 -0.704708 -4.01868 0
M  V30 2734 H 249.037 -1.82247 -3.73844 0
M  V30 2735 H 247.614 0.00897528 -3.72899 0
M  V30 2736 N 249.799 1.42003 -0.683588 0
M  V30 2737 C 251.027 2.05746 -0.218182 0
M  V30 2738 C 251.442 1.51396 1.12804 0
M  V30 2739 O 250.799 0.657303 1.70252 0
M  V30 2740 C 250.85 3.61171 -0.154131 0
M  V30 2741 O 250.571 4.13508 -1.44716 0
M  V30 2742 C 252.072 4.42042 0.333713 0
M  V30 2743 H 249.292 0.662888 -0.10402 0
M  V30 2744 H 251.836 1.81987 -0.9328 0
M  V30 2745 H 249.991 3.84012 0.511231 0
M  V30 2746 H 250.405 5.07453 -1.32632 0
M  V30 2747 H 251.879 5.51028 0.327423 0
M  V30 2748 H 252.356 4.17269 1.37053 0
M  V30 2749 H 252.962 4.24239 -0.300222 0
M  V30 2750 N 251.277 0.427512 1.51691 0
M  V30 2751 C 252.207 -0.3796 2.30394 0
M  V30 2752 C 253.188 -1.02982 1.35384 0
M  V30 2753 O 254.373 -1.03534 1.643 0
M  V30 2754 C 251.503 -1.48649 3.1388 0
M  V30 2755 C 250.457 -0.960294 4.17088 0
M  V30 2756 C 249.783 -2.16219 4.89033 0
M  V30 2757 C 251.083 -0.00153679 5.223 0
M  V30 2758 H 252.777 0.277164 2.98114 0
M  V30 2759 H 250.323 0.134739 1.43368 0
M  V30 2760 H 252.276 -2.05826 3.67714 0
M  V30 2761 H 251 -2.1714 2.43962 0
M  V30 2762 H 249.659 -0.410806 3.64291 0
M  V30 2763 H 249.307 -2.83307 4.15628 0
M  V30 2764 H 249.007 -1.81654 5.58816 0
M  V30 2765 H 250.531 -2.73968 5.45687 0
M  V30 2766 H 251.945 -0.482687 5.71264 0
M  V30 2767 H 250.342 0.256199 5.99553 0
M  V30 2768 H 251.412 0.938174 4.75738 0
M  V30 2769 N 252.755 -1.56801 0.158532 0
M  V30 2770 C 253.995 -1.98383 -0.49229 0
M  V30 2771 C 254.359 -1.04184 -1.61275 0
M  V30 2772 O 255.56 -1.34856 -2.32524 0
M  V30 2773 C 253.831 -3.4385 -0.974766 0
M  V30 2774 S 255.39 -4.07459 -1.62857 0
M  V30 2775 H 252.208 -0.693041 -0.158794 0
M  V30 2776 H 254.81 -1.93856 0.252974 0
M  V30 2777 H 253.514 -4.10131 -0.148688 0
M  V30 2778 H 253.045 -3.52115 -1.75438 0
M  V30 2779 H 255.06 -4.01458 -2.91627 0
M  V30 2780 N 254.233 0.115231 -1.57178 0
M  V30 2781 C 255.482 0.820945 -1.84237 0
M  V30 2782 C 255.795 1.80866 -0.744761 0
M  V30 2783 O 257.001 2.56083 -0.901871 0
M  V30 2784 C 255.457 1.51072 -3.26658 0
M  V30 2785 C 255.065 0.563795 -4.44438 0
M  V30 2786 C 256.809 2.20134 -3.62962 0
M  V30 2787 C 254.716 1.25701 -5.77887 0
M  V30 2788 H 253.646 0.310328 -0.687177 0
M  V30 2789 H 256.297 0.0737134 -1.83352 0
M  V30 2790 H 254.679 2.30471 -3.22024 0
M  V30 2791 H 255.853 -0.197247 -4.60378 0
M  V30 2792 H 254.168 -0.0200638 -4.16395 0
M  V30 2793 H 256.765 2.72696 -4.59936 0
M  V30 2794 H 257.108 2.98107 -2.90582 0
M  V30 2795 H 257.641 1.47619 -3.69396 0
M  V30 2796 H 254.38 0.518493 -6.53446 0
M  V30 2797 H 253.9 1.98997 -5.65827 0
M  V30 2798 H 255.579 1.78915 -6.2177 0
M  V30 2799 N 255.711 1.52812 0.385517 0
M  V30 2800 C 256.959 1.67694 1.12797 0
M  V30 2801 C 257.28 0.421115 1.90399 0
M  V30 2802 O 256.55 -0.564551 1.87589 0
M  V30 2803 H 255.13 0.618155 0.419396 0
M  V30 2804 H 257.792 1.89938 0.436972 0
M  V30 2805 H 256.888 2.52896 1.82894 0
M  V30 2806 N 257.189 -0.644168 1.43834 0
M  V30 2807 C 258.152 -1.73857 1.49353 0
M  V30 2808 C 259.152 -1.56315 0.377112 0
M  V30 2809 O 260.342 -1.62048 0.639226 0
M  V30 2810 C 257.474 -3.12819 1.35488 0
M  V30 2811 H 258.667 -1.70342 2.46827 0
M  V30 2812 H 256.22 -0.856652 1.30733 0
M  V30 2813 H 256.955 -3.2194 0.390569 0
M  V30 2814 H 256.74 -3.26958 2.16428 0
M  V30 2815 H 258.23 -3.92606 1.42302 0
M  V30 2816 N 258.668 -1.30515 -0.883378 0
M  V30 2817 C 259.631 -1.1701 -1.97082 0
M  V30 2818 C 260.631 -0.10089 -1.60483 0
M  V30 2819 O 261.821 -0.349127 -1.70666 0
M  V30 2820 C 258.953 -0.793045 -3.31547 0
M  V30 2821 H 260.146 -2.13622 -2.10489 0
M  V30 2822 H 257.699 -1.13935 -1.06998 0
M  V30 2823 H 258.434 0.172499 -3.23841 0
M  V30 2824 H 258.219 -1.56576 -3.5948 0
M  V30 2825 H 259.709 -0.722073 -4.1131 0
M  V30 2826 N 260.146 1.09593 -1.13257 0
M  V30 2827 C 261.109 2.14359 -0.811358 0
M  V30 2828 C 262.109 1.59808 0.178377 0
M  V30 2829 O 263.299 1.74132 -0.0484911 0
M  V30 2830 C 260.431 3.40269 -0.207276 0
M  V30 2831 H 261.624 2.44284 -1.73969 0
M  V30 2832 H 259.177 1.25102 -0.936973 0
M  V30 2833 H 259.912 3.15969 0.73036 0
M  V30 2834 H 259.697 3.81154 -0.919992 0
M  V30 2835 H 261.187 4.176 0.000667944 0
M  V30 2836 N 261.624 0.925811 1.2754 0
M  V30 2837 C 262.871 0.565255 1.94451 0
M  V30 2838 C 263.199 -0.89316 1.7278 0
M  V30 2839 O 262.454 -1.65213 1.04895 0
M  V30 2840 C 262.753 0.835296 3.47502 0
M  V30 2841 C 262.419 2.27515 3.89291 0
M  V30 2842 C 261.081 2.66879 4.00411 0
M  V30 2843 C 263.433 3.21158 4.10496 0
M  V30 2844 C 260.761 3.99014 4.30122 0
M  V30 2845 C 263.113 4.52871 4.4169 0
M  V30 2846 C 261.777 4.92072 4.51023 0
M  V30 2847 H 261.047 0.206841 0.711546 0
M  V30 2848 H 263.694 1.16942 1.51647 0
M  V30 2849 H 261.999 0.148442 3.91519 0
M  V30 2850 H 263.696 0.535322 3.97411 0
M  V30 2851 H 260.286 1.95976 3.81171 0
M  V30 2852 H 264.47 2.9195 4.01346 0
M  V30 2853 H 259.726 4.2907 4.35556 0
M  V30 2854 H 263.9 5.25436 4.57045 0
M  V30 2855 H 261.527 5.9449 4.738 0
M  V30 2856 N 263.102 -1.41638 0.69111 0
M  V30 2857 C 264.327 -2.06148 0.227583 0
M  V30 2858 C 264.752 -1.51652 -1.11281 0
M  V30 2859 O 264.11 -0.64164 -1.69566 0
M  V30 2860 C 264.158 -3.60095 0.190858 0
M  V30 2861 O 263.262 -4.03845 -0.835664 0
M  V30 2862 H 262.603 -0.654434 0.112306 0
M  V30 2863 H 265.133 -1.81484 0.944714 0
M  V30 2864 H 265.143 -4.07995 0.020207 0
M  V30 2865 H 263.818 -3.99129 1.16915 0
M  V30 2866 H 262.395 -3.67458 -0.63473 0
M  V30 2867 N 264.58 -0.43555 -1.51462 0
M  V30 2868 C 265.53 0.394701 -2.24558 0
M  V30 2869 C 266.514 0.99157 -1.26715 0
M  V30 2870 O 267.706 0.910007 -1.51815 0
M  V30 2871 C 264.835 1.4963 -3.08975 0
M  V30 2872 C 263.921 0.908912 -4.14246 0
M  V30 2873 N 264.312 0.0505335 -5.05775 0
M  V30 2874 C 262.61 1.17668 -4.30198 0
M  V30 2875 C 263.311 -0.279161 -5.8103 0
M  V30 2876 N 262.287 0.336767 -5.42556 0
M  V30 2877 H 266.089 -0.267106 -2.92684 0
M  V30 2878 H 263.603 -0.247518 -1.60503 0
M  V30 2879 H 265.6 2.10394 -3.59917 0
M  V30 2880 H 264.26 2.16046 -2.42393 0
M  V30 2881 H 265.271 -0.31577 -5.16936 0
M  V30 2882 H 261.948 1.83847 -3.74842 0
M  V30 2883 H 263.338 -0.977553 -6.64751 0
M  V30 2884 N 266.058 1.56714 -0.166846 0
M  V30 2885 C 267.288 2.00828 0.48494 0
M  V30 2886 C 267.696 1.04612 1.57648 0
M  V30 2887 O 267.039 0.0383201 1.8366 0
M  V30 2888 C 267.101 3.4137 1.12723 0
M  V30 2889 C 266.765 4.56654 0.177886 0
M  V30 2890 C 267.762 5.16402 -0.60207 0
M  V30 2891 C 265.447 5.02244 0.0750139 0
M  V30 2892 C 267.441 6.20167 -1.47215 0
M  V30 2893 C 265.128 6.05859 -0.798649 0
M  V30 2894 C 266.126 6.64691 -1.57082 0
M  V30 2895 O 265.814 7.66297 -2.42989 0
M  V30 2896 H 265.546 0.663587 0.128953 0
M  V30 2897 H 268.1 2.03692 -0.264365 0
M  V30 2898 H 266.33 3.35406 1.92457 0
M  V30 2899 H 268.019 3.69466 1.68076 0
M  V30 2900 H 268.785 4.82065 -0.53274 0
M  V30 2901 H 264.664 4.56167 0.665812 0
M  V30 2902 H 268.208 6.66016 -2.07531 0
M  V30 2903 H 264.105 6.39621 -0.869199 0
M  V30 2904 H 264.873 7.83601 -2.36455 0
M  V30 2905 N 267.536 -0.106894 1.57237 0
M  V30 2906 C 268.446 -1.14911 2.0453 0
M  V30 2907 C 269.462 -1.44592 0.96795 0
M  V30 2908 O 270.638 -1.55468 1.2803 0
M  V30 2909 C 267.703 -2.45272 2.45036 0
M  V30 2910 C 266.764 -2.22879 3.66911 0
M  V30 2911 C 265.997 -3.47024 4.05475 0
M  V30 2912 O 266.22 -4.54804 3.44252 0
M  V30 2913 O 265.154 -3.3731 4.98504 0
M  V30 2914 H 268.98 -0.777461 2.9358 0
M  V30 2915 H 266.565 -0.318563 1.45964 0
M  V30 2916 H 268.447 -3.22055 2.71769 0
M  V30 2917 H 267.122 -2.81886 1.59129 0
M  V30 2918 H 266.029 -1.43915 3.45311 0
M  V30 2919 H 267.362 -1.91163 4.53561 0
M  V30 2920 N 269.014 -1.53014 -0.377408 0
M  V30 2921 C 269.964 -1.74996 -1.46152 0
M  V30 2922 C 270.948 -0.604236 -1.49123 0
M  V30 2923 O 272.14 -0.862489 -1.54564 0
M  V30 2924 C 269.269 -1.93267 -2.8373 0
M  V30 2925 C 268.355 -3.13807 -2.85283 0
M  V30 2926 N 268.746 -4.35941 -2.56493 0
M  V30 2927 C 267.044 -3.14288 -3.16448 0
M  V30 2928 C 267.745 -5.17615 -2.65424 0
M  V30 2929 N 266.721 -4.53559 -2.99641 0
M  V30 2930 H 270.523 -2.67044 -1.22738 0
M  V30 2931 H 268.037 -1.51479 -0.585479 0
M  V30 2932 H 270.034 -2.0714 -3.61799 0
M  V30 2933 H 268.694 -1.0244 -3.08117 0
M  V30 2934 H 269.705 -4.63876 -2.30302 0
M  V30 2935 H 266.382 -2.33312 -3.46225 0
M  V30 2936 H 267.772 -6.25006 -2.46612 0
M  V30 2937 N 270.492 0.636531 -1.44174 0
M  V30 2938 C 271.738 1.39649 -1.47884 0
M  V30 2939 C 272.093 1.92098 -0.107747 0
M  V30 2940 O 271.386 1.70391 0.876208 0
M  V30 2941 C 271.58 2.58309 -2.47005 0
M  V30 2942 C 271.409 2.17476 -3.93617 0
M  V30 2943 C 270.179 2.0501 -4.61843 0
M  V30 2944 C 272.377 1.76722 -4.82984 0
M  V30 2945 N 270.359 1.57683 -5.93304 0
M  V30 2946 C 271.73 1.40601 -6.03847 0
M  V30 2947 C 273.785 1.64054 -4.70096 0
M  V30 2948 C 272.488 0.930787 -7.13252 0
M  V30 2949 C 274.514 1.17937 -5.79521 0
M  V30 2950 C 273.876 0.827625 -6.99521 0
M  V30 2951 H 269.975 0.506027 -0.596205 0
M  V30 2952 H 272.559 0.730791 -1.80465 0
M  V30 2953 H 270.73 3.22514 -2.16423 0
M  V30 2954 H 272.462 3.25083 -2.41045 0
M  V30 2955 H 269.217 2.25294 -4.16581 0
M  V30 2956 H 269.641 1.36334 -6.63131 0
M  V30 2957 H 274.283 1.89882 -3.77762 0
M  V30 2958 H 272.001 0.660012 -8.054 0
M  V30 2959 H 275.587 1.08601 -5.71574 0
M  V30 2960 H 274.467 0.476231 -7.82753 0
M  V30 2961 N 271.97 1.30982 0.876444 0
M  V30 2962 C 273.198 1.23242 1.6619 0
M  V30 2963 C 273.613 -0.203345 1.87702 0
M  V30 2964 O 272.97 -1.13317 1.43057 0
M  V30 2965 C 273.021 1.96623 3.03351 0
M  V30 2966 O 272.742 3.34594 2.82804 0
M  V30 2967 C 274.243 1.95644 3.97792 0
M  V30 2968 H 271.463 0.426126 0.518322 0
M  V30 2969 H 274.007 1.7275 1.09442 0
M  V30 2970 H 272.162 1.50892 3.56806 0
M  V30 2971 H 272.576 3.71873 3.69879 0
M  V30 2972 H 274.05 2.51511 4.91372 0
M  V30 2973 H 274.527 0.937395 4.2908 0
M  V30 2974 H 275.133 2.41225 3.50272 0
M  V30 2975 N 273.449 -1.08991 1.13837 0
M  V30 2976 C 274.696 -1.81258 0.902882 0
M  V30 2977 C 275.024 -1.85936 -0.570803 0
M  V30 2978 O 274.279 -1.3267 -1.43865 0
M  V30 2979 C 274.578 -3.27042 1.44147 0
M  V30 2980 C 274.244 -3.4249 2.93276 0
M  V30 2981 C 272.906 -3.46414 3.33992 0
M  V30 2982 C 275.258 -3.4666 3.892 0
M  V30 2983 C 272.586 -3.52091 4.69307 0
M  V30 2984 C 274.938 -3.53872 5.24364 0
M  V30 2985 C 273.602 -3.56066 5.646 0
M  V30 2986 H 272.872 -0.663268 0.330388 0
M  V30 2987 H 275.519 -1.28368 1.42105 0
M  V30 2988 H 273.824 -3.82599 0.844097 0
M  V30 2989 H 275.521 -3.81499 1.23528 0
M  V30 2990 H 272.111 -3.40124 2.60794 0
M  V30 2991 H 276.295 -3.42865 3.58828 0
M  V30 2992 H 271.551 -3.52079 4.9985 0
M  V30 2993 H 275.725 -3.56043 5.98503 0
M  V30 2994 H 273.352 -3.60218 6.69438 0
M  V30 2995 N 274.927 -0.932562 -1.27047 0
M  V30 2996 C 276.174 -0.575559 -1.94148 0
M  V30 2997 C 276.502 0.883984 -1.73251 0
M  V30 2998 O 275.757 1.64655 -1.0577 0
M  V30 2999 C 276.056 -0.853713 -3.47054 0
M  V30 3000 C 275.722 -2.29577 -3.88079 0
M  V30 3001 C 274.384 -2.68999 -3.9899 0
M  V30 3002 C 276.736 -3.23331 -4.08787 0
M  V30 3003 C 274.064 -4.01289 -4.28 0
M  V30 3004 C 276.416 -4.55207 -4.39282 0
M  V30 3005 C 275.08 -4.94457 -4.48407 0
M  V30 3006 H 274.35 -0.210612 -0.710439 0
M  V30 3007 H 276.997 -1.17744 -1.51025 0
M  V30 3008 H 275.302 -0.169204 -3.91434 0
M  V30 3009 H 276.999 -0.55639 -3.97121 0
M  V30 3010 H 273.589 -1.97994 -3.80127 0
M  V30 3011 H 277.773 -2.94074 -3.99793 0
M  V30 3012 H 273.029 -4.31374 -4.33275 0
M  V30 3013 H 277.203 -5.27852 -4.54252 0
M  V30 3014 H 274.83 -5.96994 -4.7064 0
M  V30 3015 N 276.405 1.4127 -0.698611 0
M  V30 3016 C 277.337 2.292 0.00399731 0
M  V30 3017 C 278.35 1.44944 0.741279 0
M  V30 3018 O 279.539 1.68416 0.591477 0
M  V30 3019 C 276.639 3.22875 1.02979 0
M  V30 3020 C 275.812 4.35904 0.36151 0
M  V30 3021 C 274.871 5.10134 1.29033 0
M  V30 3022 O 273.897 5.63809 0.781562 0
M  V30 3023 N 275.099 5.17885 2.6225 0
M  V30 3024 H 277.864 2.9014 -0.750921 0
M  V30 3025 H 275.425 1.52455 -0.544882 0
M  V30 3026 H 277.417 3.69404 1.65296 0
M  V30 3027 H 275.987 2.63221 1.68622 0
M  V30 3028 H 275.207 3.91719 -0.441584 0
M  V30 3029 H 276.495 5.08696 -0.103055 0
M  V30 3030 H 275.893 4.7573 3.061 0
M  V30 3031 H 274.45 5.6798 3.19754 0
M  V30 3032 N 277.883 0.443576 1.51229 0
M  V30 3033 C 278.846 -0.353132 2.26463 0
M  V30 3034 C 279.846 -0.944338 1.3015 0
M  V30 3035 O 281.036 -0.817813 1.5381 0
M  V30 3036 C 278.168 -1.50023 3.06114 0
M  V30 3037 H 279.361 0.3063 2.98332 0
M  V30 3038 H 276.914 0.196902 1.55055 0
M  V30 3039 H 277.649 -2.19553 2.38677 0
M  V30 3040 H 277.434 -1.08241 3.76864 0
M  V30 3041 H 278.924 -2.06296 3.63087 0
M  V30 3042 N 279.361 -1.56624 0.175154 0
M  V30 3043 C 280.591 -2.01082 -0.474283 0
M  V30 3044 C 280.999 -1.05447 -1.57091 0
M  V30 3045 O 280.342 -0.0480595 -1.83637 0
M  V30 3046 C 280.404 -3.41963 -1.10911 0
M  V30 3047 C 280.068 -4.56742 -0.153666 0
M  V30 3048 C 281.065 -5.16076 0.629448 0
M  V30 3049 C 278.75 -5.02277 -0.0483776 0
M  V30 3050 C 280.744 -6.19377 1.50501 0
M  V30 3051 C 278.431 -6.05427 0.830768 0
M  V30 3052 C 279.429 -6.63849 1.60605 0
M  V30 3053 O 279.117 -7.64998 2.47049 0
M  V30 3054 H 278.849 -0.664261 -0.125432 0
M  V30 3055 H 281.403 -2.03549 0.275163 0
M  V30 3056 H 279.633 -3.36422 -1.90676 0
M  V30 3057 H 281.322 -3.70352 -1.66114 0
M  V30 3058 H 282.088 -4.81776 0.558297 0
M  V30 3059 H 277.967 -4.56513 -0.641611 0
M  V30 3060 H 281.511 -6.64906 2.1106 0
M  V30 3061 H 277.408 -6.39151 0.903107 0
M  V30 3062 H 278.176 -7.82336 2.40607 0
M  V30 3063 N 280.839 0.0985539 -1.57292 0
M  V30 3064 C 282.069 0.815135 -1.8984 0
M  V30 3065 C 282.477 1.7297 -0.766679 0
M  V30 3066 O 281.82 1.81698 0.270483 0
M  V30 3067 C 281.882 1.6842 -3.17608 0
M  V30 3068 C 281.546 0.94182 -4.4719 0
M  V30 3069 C 282.543 0.273212 -5.19182 0
M  V30 3070 C 280.228 0.916927 -4.9386 0
M  V30 3071 C 282.222 -0.410361 -6.36078 0
M  V30 3072 C 279.909 0.229567 -6.10669 0
M  V30 3073 C 280.907 -0.432902 -6.81627 0
M  V30 3074 O 280.595 -1.10925 -7.9621 0
M  V30 3075 H 280.327 0.238501 -0.632529 0
M  V30 3076 H 282.881 0.0812659 -2.05239 0
M  V30 3077 H 281.111 2.46022 -2.98345 0
M  V30 3078 H 282.8 2.27704 -3.36015 0
M  V30 3079 H 283.566 0.283927 -4.84168 0
M  V30 3080 H 279.445 1.42201 -4.3852 0
M  V30 3081 H 282.989 -0.928013 -6.914 0
M  V30 3082 H 278.886 0.216686 -6.45136 0
M  V30 3083 H 279.654 -1.01579 -8.12172 0
M  V30 3084 N 282.317 1.53212 0.369288 0
M  V30 3085 C 283.547 1.72868 1.13139 0
M  V30 3086 C 283.955 0.455754 1.83629 0
M  V30 3087 O 283.298 -0.580861 1.74275 0
M  V30 3088 C 283.36 2.83667 2.20847 0
M  V30 3089 C 283.024 4.24142 1.70155 0
M  V30 3090 C 284.021 5.06619 1.16763 0
M  V30 3091 C 281.706 4.70539 1.7578 0
M  V30 3092 C 283.7 6.33581 0.696678 0
M  V30 3093 C 281.387 5.97481 1.28297 0
M  V30 3094 C 282.385 6.78833 0.753307 0
M  V30 3095 O 282.073 8.03393 0.285475 0
M  V30 3096 H 281.805 0.581707 0.344373 0
M  V30 3097 H 284.359 2.00736 0.435243 0
M  V30 3098 H 282.589 2.51265 2.93944 0
M  V30 3099 H 284.278 2.91536 2.82421 0
M  V30 3100 H 285.044 4.71948 1.11758 0
M  V30 3101 H 280.923 4.07293 2.15949 0
M  V30 3102 H 284.467 6.97027 0.282581 0
M  V30 3103 H 280.364 6.31651 1.32994 0
M  V30 3104 H 281.132 8.17497 0.405145 0
M  V30 3105 N 283.795 -0.628877 1.44509 0
M  V30 3106 C 285.035 -1.39993 1.48934 0
M  V30 3107 C 285.399 -1.91627 0.119604 0
M  V30 3108 O 286.6 -2.68772 0.0385283 0
M  V30 3109 C 284.871 -2.53241 2.52198 0
M  V30 3110 S 286.43 -3.41383 2.75687 0
M  V30 3111 H 283.248 -0.477558 0.526744 0
M  V30 3112 H 285.85 -0.727804 1.81448 0
M  V30 3113 H 284.554 -2.13622 3.50419 0
M  V30 3114 H 284.085 -3.25278 2.21264 0
M  V30 3115 H 286.1 -4.50752 2.07453 0
M  V30 3116 N 285.273 -1.31445 -0.869486 0
M  V30 3117 C 286.52 -1.21158 -1.62256 0
M  V30 3118 C 286.848 0.230155 -1.93133 0
M  V30 3119 O 286.103 1.17906 -1.56194 0
M  V30 3120 C 286.402 -2.00145 -2.96102 0
M  V30 3121 C 286.068 -3.4964 -2.84715 0
M  V30 3122 C 284.73 -3.90403 -2.81317 0
M  V30 3123 C 287.082 -4.44769 -2.71716 0
M  V30 3124 C 284.41 -5.24561 -2.62778 0
M  V30 3125 C 286.762 -5.79054 -2.54714 0
M  V30 3126 C 285.426 -6.19037 -2.49699 0
M  V30 3127 H 284.696 -0.443348 -0.593737 0
M  V30 3128 H 287.343 -1.62715 -1.00976 0
M  V30 3129 H 285.648 -1.5127 -3.6142 0
M  V30 3130 H 287.345 -1.89566 -3.53363 0
M  V30 3131 H 283.935 -3.17256 -2.88178 0
M  V30 3132 H 288.119 -4.14208 -2.73397 0
M  V30 3133 H 283.375 -5.54613 -2.57321 0
M  V30 3134 H 287.549 -6.52393 -2.43632 0
M  V30 3135 H 285.176 -7.22935 -2.35093 0
M  V30 3136 N 286.751 1.08385 -1.14413 0
M  V30 3137 C 288 1.80153 -0.907076 0
M  V30 3138 C 288.313 1.87176 0.567851 0
M  V30 3139 O 289.519 2.55359 0.922172 0
M  V30 3140 C 287.975 3.23687 -1.57336 0
M  V30 3141 C 287.583 3.24897 -3.08457 0
M  V30 3142 C 289.327 4.00136 -1.41744 0
M  V30 3143 C 287.234 4.6302 -3.67921 0
M  V30 3144 H 286.164 0.675139 -0.335714 0
M  V30 3145 H 288.815 1.21733 -1.37307 0
M  V30 3146 H 287.197 3.82234 -1.03505 0
M  V30 3147 H 288.371 2.76055 -3.68958 0
M  V30 3148 H 286.686 2.61943 -3.2369 0
M  V30 3149 H 289.283 5.02201 -1.83572 0
M  V30 3150 H 289.626 4.14709 -0.363576 0
M  V30 3151 H 290.159 3.48058 -1.92614 0
M  V30 3152 H 286.898 4.5365 -4.73161 0
M  V30 3153 H 286.418 5.12143 -3.12201 0
M  V30 3154 H 288.097 5.31994 -3.68227 0
M  V30 3155 N 288.23 0.939286 1.26551 0
M  V30 3156 C 289.458 0.602536 1.97932 0
M  V30 3157 C 289.873 -0.82206 1.69964 0
M  V30 3158 O 289.23 -1.54789 0.966784 0
M  V30 3159 C 289.281 0.832946 3.51773 0
M  V30 3160 O 289.002 2.20151 3.78768 0
M  V30 3161 C 290.503 0.506483 4.40397 0
M  V30 3162 H 287.723 0.227248 0.631347 0
M  V30 3163 H 290.267 1.25948 1.61113 0
M  V30 3164 H 288.422 0.222644 3.8676 0
M  V30 3165 H 288.836 2.26013 4.73306 0
M  V30 3166 H 290.31 0.718333 5.47306 0
M  V30 3167 H 290.787 -0.558451 4.35635 0
M  V30 3168 H 291.393 1.09543 4.10951 0
M  V30 3169 N 289.708 -1.40897 0.706093 0
M  V30 3170 C 290.638 -2.33418 0.0620085 0
M  V30 3171 C 291.619 -1.52385 -0.755827 0
M  V30 3172 O 292.804 -1.80886 -0.706674 0
M  V30 3173 C 289.934 -3.36293 -0.867445 0
M  V30 3174 C 288.888 -4.27716 -0.155932 0
M  V30 3175 C 288.214 -5.2105 -1.20046 0
M  V30 3176 C 289.514 -5.12944 0.984149 0
M  V30 3177 H 291.208 -2.87527 0.83477 0
M  V30 3178 H 288.754 -1.38249 0.402875 0
M  V30 3179 H 290.707 -3.99949 -1.32735 0
M  V30 3180 H 289.431 -2.80556 -1.67199 0
M  V30 3181 H 288.09 -3.65498 0.284047 0
M  V30 3182 H 287.738 -4.61624 -1.99781 0
M  V30 3183 H 287.438 -5.83056 -0.729328 0
M  V30 3184 H 288.962 -5.87584 -1.66066 0
M  V30 3185 H 290.376 -5.70109 0.604048 0
M  V30 3186 H 288.773 -5.83945 1.38304 0
M  V30 3187 H 289.843 -4.49485 1.81911 0
M  V30 3188 N 291.186 -0.45159 -1.50991 0
M  V30 3189 C 292.414 0.108334 -2.06616 0
M  V30 3190 C 292.829 1.35224 -1.31757 0
M  V30 3191 O 292.186 1.78475 -0.381174 0
M  V30 3192 C 292.237 0.41619 -3.59096 0
M  V30 3193 O 291.958 -0.778361 -4.3113 0
M  V30 3194 C 293.459 1.02523 -4.31282 0
M  V30 3195 H 290.679 0.00159995 -0.670998 0
M  V30 3196 H 293.223 -0.634771 -1.94399 0
M  V30 3197 H 291.378 1.10921 -3.71181 0
M  V30 3198 H 291.792 -0.511181 -5.22003 0
M  V30 3199 H 293.266 1.19053 -5.39009 0
M  V30 3200 H 293.743 2.01013 -3.905 0
M  V30 3201 H 294.349 0.371173 -4.23677 0
M  V30 3202 N 292.664 1.56529 -0.183458 0
M  V30 3203 C 293.892 2.01623 0.464285 0
M  V30 3204 C 294.307 1.06366 1.55986 0
M  V30 3205 O 293.664 0.0665398 1.82379 0
M  V30 3206 C 293.715 3.46475 1.03139 0
M  V30 3207 O 293.436 4.38095 -0.0204675 0
M  V30 3208 C 294.937 4.0703 1.75617 0
M  V30 3209 H 292.157 0.660596 0.117704 0
M  V30 3210 H 294.701 2.02451 -0.288751 0
M  V30 3211 H 292.856 3.46383 1.73486 0
M  V30 3212 H 293.27 5.22973 0.399952 0
M  V30 3213 H 294.744 5.10271 2.10542 0
M  V30 3214 H 295.221 3.49819 2.65563 0
M  V30 3215 H 295.827 4.1086 1.09882 0
M  V30 3216 N 294.142 -0.090211 1.57342 0
M  V30 3217 C 295.391 -0.791531 1.8552 0
M  V30 3218 C 295.704 -1.79659 0.773441 0
M  V30 3219 O 296.91 -2.54616 0.942497 0
M  V30 3220 C 295.366 -1.45856 3.2902 0
M  V30 3221 C 294.974 -0.493017 4.45279 0
M  V30 3222 C 296.718 -2.14332 3.66418 0
M  V30 3223 C 294.625 -1.16491 5.79814 0
M  V30 3224 H 293.555 -0.299356 0.692027 0
M  V30 3225 H 296.206 -0.0445343 1.83446 0
M  V30 3226 H 294.588 -2.25318 3.2565 0
M  V30 3227 H 295.762 0.270464 4.60006 0
M  V30 3228 H 294.077 0.0863061 4.16311 0
M  V30 3229 H 296.674 -2.65344 4.64216 0
M  V30 3230 H 297.017 -2.93447 2.95287 0
M  V30 3231 H 297.55 -1.41724 3.71698 0
M  V30 3232 H 294.289 -0.41447 6.54188 0
M  V30 3233 H 293.809 -1.8997 5.68921 0
M  V30 3234 H 295.488 -1.69001 6.24538 0
M  V30 3235 N 295.62 -1.53406 -0.361157 0
M  V30 3236 C 296.868 -1.69467 -1.10115 0
M  V30 3237 C 297.189 -0.451352 -1.89705 0
M  V30 3238 O 296.459 0.534636 -1.88463 0
M  V30 3239 H 295.039 -0.624749 -0.409508 0
M  V30 3240 H 297.701 -1.90609 -0.406699 0
M  V30 3241 H 296.797 -2.55774 -1.78847 0
M  V30 3242 N 297.098 0.621204 -1.44841 0
M  V30 3243 C 298.345 1.38055 -1.48145 0
M  V30 3244 C 298.673 1.94143 -0.117867 0
M  V30 3245 O 297.928 1.74713 0.881694 0
M  V30 3246 C 298.227 2.55675 -2.4973 0
M  V30 3247 C 297.893 2.17817 -3.94799 0
M  V30 3248 C 296.555 2.07205 -4.34303 0
M  V30 3249 C 298.907 1.88065 -4.86087 0
M  V30 3250 C 296.235 1.65045 -5.63007 0
M  V30 3251 C 298.587 1.47394 -6.15189 0
M  V30 3252 C 297.251 1.35331 -6.53637 0
M  V30 3253 H 296.521 0.505181 -0.542101 0
M  V30 3254 H 299.168 0.703477 -1.78111 0
M  V30 3255 H 297.473 3.2866 -2.13284 0
M  V30 3256 H 299.17 3.13904 -2.4953 0
M  V30 3257 H 295.76 2.26998 -3.63552 0
M  V30 3258 H 299.944 1.95168 -4.56315 0
M  V30 3259 H 295.2 1.54317 -5.91605 0
M  V30 3260 H 299.374 1.23415 -6.85377 0
M  V30 3261 H 297.001 1.02435 -7.53267 0
M  V30 3262 N 298.576 1.31904 0.862503 0
M  V30 3263 C 299.824 1.21776 1.61292 0
M  V30 3264 C 300.145 -0.222413 1.93727 0
M  V30 3265 O 299.415 -1.1451 1.58947 0
M  V30 3266 H 297.995 0.447717 0.597962 0
M  V30 3267 H 300.657 1.65326 1.03215 0
M  V30 3268 H 299.753 1.7948 2.5533 0
M  V30 3269 N 300.054 -1.07777 1.14986 0
M  V30 3270 C 301.331 -1.7699 0.832695 0
M  V30 3271 C 301.711 -2.001 -0.672561 0
M  V30 3272 O 301.059 -1.61598 -1.6155 0
M  V30 3273 C 301.269 -3.08139 1.63863 0
M  V30 3274 C 302.617 -3.8256 1.84208 0
M  V30 3275 O 303.641 -3.17939 1.60603 0
M  V30 3276 O 302.5 -4.98612 2.23714 0
M  V30 3277 H 299.594 -0.768389 0.305791 0
M  V30 3278 H 302.14 -1.14182 1.25541 0
M  V30 3279 H 300.912 -2.86909 2.6608 0
M  V30 3280 H 300.535 -3.78678 1.21197 0
M  V30 3281 N 301.532 -0.945985 -1.26051 0
M  V30 3282 C 302.762 -0.612136 -1.97323 0
M  V30 3283 C 303.17 0.818171 -1.70595 0
M  V30 3284 O 302.513 1.55777 -0.973613 0
M  V30 3285 C 302.575 -0.780347 -3.50929 0
M  V30 3286 C 302.239 -2.18619 -4.01317 0
M  V30 3287 C 303.236 -3.16209 -4.12683 0
M  V30 3288 C 300.921 -2.50805 -4.35203 0
M  V30 3289 C 302.915 -4.44085 -4.57238 0
M  V30 3290 C 300.602 -3.78912 -4.79446 0
M  V30 3291 C 301.6 -4.75365 -4.90425 0
M  V30 3292 O 301.288 -6.01191 -5.3369 0
M  V30 3293 H 301.02 -0.229134 -0.635982 0
M  V30 3294 H 303.574 -1.27036 -1.61404 0
M  V30 3295 H 301.804 -0.0649864 -3.86645 0
M  V30 3296 H 303.493 -0.448842 -4.03411 0
M  V30 3297 H 304.259 -2.92668 -3.86744 0
M  V30 3298 H 300.138 -1.76463 -4.2589 0
M  V30 3299 H 303.682 -5.19373 -4.65723 0
M  V30 3300 H 299.579 -4.02265 -5.0483 0
M  V30 3301 H 300.347 -6.04442 -5.51899 0
M  V30 3302 N 303.011 1.40521 -0.713556 0
M  V30 3303 C 304.257 2.01221 -0.252564 0
M  V30 3304 C 304.59 1.56444 1.1506 0
M  V30 3305 O 303.865 0.783597 1.78017 0
M  V30 3306 C 304.148 3.58582 -0.330332 0
M  V30 3307 C 304.001 4.13437 -1.77173 0
M  V30 3308 C 305.32 4.39079 0.299641 0
M  V30 3309 H 302.439 0.731077 -0.0932471 0
M  V30 3310 H 305.081 1.67026 -0.905673 0
M  V30 3311 H 303.231 3.87844 0.225737 0
M  V30 3312 H 304.903 3.9498 -2.38303 0
M  V30 3313 H 303.146 3.67801 -2.3001 0
M  V30 3314 H 303.817 5.22597 -1.77755 0
M  V30 3315 H 306.293 4.15735 -0.174139 0
M  V30 3316 H 305.169 5.4848 0.214771 0
M  V30 3317 H 305.43 4.19915 1.38288 0
M  V30 3318 N 304.489 0.459591 1.5075 0
M  V30 3319 C 305.452 -0.329093 2.26825 0
M  V30 3320 C 306.452 -0.930481 1.31144 0
M  V30 3321 O 307.642 -0.801453 1.54669 0
M  V30 3322 C 304.774 -1.46768 3.07688 0
M  V30 3323 H 305.967 0.337924 2.9799 0
M  V30 3324 H 303.52 0.213336 1.54837 0
M  V30 3325 H 304.255 -2.17009 2.40993 0
M  V30 3326 H 304.04 -1.04238 3.77991 0
M  V30 3327 H 305.53 -2.02433 3.65254 0
M  V30 3328 N 305.967 -1.56429 0.191757 0
M  V30 3329 C 306.897 -2.21937 -0.725696 0
M  V30 3330 C 307.878 -1.1814 -1.2238 0
M  V30 3331 O 309.063 -1.46636 -1.27325 0
M  V30 3332 C 306.193 -2.87611 -1.94672 0
M  V30 3333 C 305.147 -3.97623 -1.58366 0
M  V30 3334 C 304.473 -4.50446 -2.88102 0
M  V30 3335 C 305.773 -5.16197 -0.796133 0
M  V30 3336 H 307.467 -2.98861 -0.179606 0
M  V30 3337 H 305.013 -1.43749 -0.0849464 0
M  V30 3338 H 306.966 -3.3212 -2.59373 0
M  V30 3339 H 305.69 -2.08087 -2.51728 0
M  V30 3340 H 304.349 -3.53801 -0.960247 0
M  V30 3341 H 303.997 -3.67688 -3.43241 0
M  V30 3342 H 303.697 -5.24675 -2.64556 0
M  V30 3343 H 305.221 -4.97654 -3.53798 0
M  V30 3344 H 306.635 -5.57271 -1.34618 0
M  V30 3345 H 305.032 -5.96471 -0.658928 0
M  V30 3346 H 306.102 -4.84473 0.203478 0
M  V30 3347 N 307.445 0.0818655 -1.57387 0
M  V30 3348 C 308.377 1.12484 -1.997 0
M  V30 3349 C 309.39 1.35564 -0.90146 0
M  V30 3350 O 310.579 1.33982 -1.17945 0
M  V30 3351 C 307.679 2.47778 -2.31213 0
M  V30 3352 C 306.852 2.44793 -3.62485 0
M  V30 3353 C 305.911 3.62117 -3.81782 0
M  V30 3354 O 304.937 3.44005 -4.53486 0
M  V30 3355 N 306.139 4.82094 -3.23367 0
M  V30 3356 H 308.904 0.764585 -2.89783 0
M  V30 3357 H 306.465 0.270664 -1.59621 0
M  V30 3358 H 308.457 3.24891 -2.41304 0
M  V30 3359 H 307.027 2.75843 -1.4707 0
M  V30 3360 H 306.247 1.53134 -3.6324 0
M  V30 3361 H 307.535 2.39889 -4.48699 0
M  V30 3362 H 306.933 4.99713 -2.65148 0
M  V30 3363 H 305.49 5.56753 -3.38923 0
M  V30 3364 N 308.923 1.53595 0.353017 0
M  V30 3365 C 309.87 1.80919 1.43308 0
M  V30 3366 C 310.84 0.654288 1.5267 0
M  V30 3367 O 312.025 0.897759 1.6836 0
M  V30 3368 C 309.165 2.01605 2.80089 0
M  V30 3369 C 308.278 3.29321 2.79593 0
M  V30 3370 C 307.413 3.40125 4.0803 0
M  V30 3371 C 306.452 4.61826 4.01725 0
M  V30 3372 N 305.589 4.69716 5.21834 0
M  V30 3373 H 310.429 2.73074 1.19308 0
M  V30 3374 H 307.966 1.35263 0.578131 0
M  V30 3375 H 309.924 2.11586 3.59565 0
M  V30 3376 H 308.554 1.12772 3.0246 0
M  V30 3377 H 307.606 3.28229 1.92276 0
M  V30 3378 H 308.918 4.18884 2.70809 0
M  V30 3379 H 308.072 3.49488 4.95927 0
M  V30 3380 H 306.811 2.48601 4.19582 0
M  V30 3381 H 305.816 4.52552 3.12213 0
M  V30 3382 H 307.041 5.54705 3.91764 0
M  V30 3383 H 304.987 3.81097 5.33948 0
M  V30 3384 H 304.904 5.53202 5.1527 0
M  V30 3385 H 306.172 4.83376 6.11529 0
M  V30 3386 N 310.401 -0.613514 1.45168 0
M  V30 3387 C 311.678 -1.37263 1.39349 0
M  V30 3388 C 312.058 -2.11012 0.0610848 0
M  V30 3389 O 311.406 -2.07502 -0.956825 0
M  V30 3390 C 311.616 -2.3244 2.60332 0
M  V30 3391 C 312.964 -2.9523 3.05163 0
M  V30 3392 O 313.988 -2.42762 2.60663 0
M  V30 3393 O 312.847 -3.90454 3.82372 0
M  V30 3394 H 309.941 -0.615188 0.552696 0
M  V30 3395 H 312.487 -0.637097 1.57287 0
M  V30 3396 H 311.259 -1.77164 3.48896 0
M  V30 3397 H 310.882 -3.13383 2.44698 0
M  V30 3398 N 311.879 -1.3236 -0.855495 0
M  V30 3399 C 312.811 -1.17052 -1.97057 0
M  V30 3400 C 313.824 -0.10574 -1.62456 0
M  V30 3401 O 315.013 -0.354619 -1.74942 0
M  V30 3402 C 312.113 -0.769305 -3.30053 0
M  V30 3403 C 311.286 -1.9222 -3.929 0
M  V30 3404 C 310.345 -1.50466 -5.04228 0
M  V30 3405 O 309.371 -2.21655 -5.24269 0
M  V30 3406 N 310.573 -0.400209 -5.79119 0
M  V30 3407 H 313.338 -2.13103 -2.1073 0
M  V30 3408 H 310.899 -1.24885 -1.0303 0
M  V30 3409 H 312.891 -0.472407 -4.01933 0
M  V30 3410 H 311.461 0.100025 -3.1244 0
M  V30 3411 H 310.681 -2.38563 -3.13817 0
M  V30 3412 H 311.969 -2.69403 -4.31624 0
M  V30 3413 H 311.367 0.192319 -5.65373 0
M  V30 3414 H 309.924 -0.162912 -6.51596 0
M  V30 3415 N 313.357 1.07166 -1.15556 0
M  V30 3416 C 314.32 2.12589 -0.856644 0
M  V30 3417 C 315.32 1.6015 0.14444 0
M  V30 3418 O 316.51 1.7399 -0.0854163 0
M  V30 3419 C 313.642 3.39753 -0.279405 0
M  V30 3420 H 314.835 2.40539 -1.79112 0
M  V30 3421 H 312.388 1.23086 -0.963298 0
M  V30 3422 H 313.123 3.17447 0.663174 0
M  V30 3423 H 312.908 3.79117 -1.00063 0
M  V30 3424 H 314.398 4.17507 -0.0879113 0
M  V30 3425 N 314.835 0.952656 1.25548 0
M  V30 3426 C 315.765 0.489287 2.28316 0
M  V30 3427 C 316.746 -0.463359 1.63667 0
M  V30 3428 O 317.931 -0.36274 1.90782 0
M  V30 3429 C 315.061 -0.235603 3.465 0
M  V30 3430 C 314.015 0.631593 4.23314 0
M  V30 3431 C 313.341 -0.223923 5.34231 0
M  V30 3432 C 314.641 1.90871 4.86174 0
M  V30 3433 H 316.335 1.34822 2.67326 0
M  V30 3434 H 313.881 0.649728 1.28509 0
M  V30 3435 H 315.834 -0.570882 4.17515 0
M  V30 3436 H 314.558 -1.12877 3.06474 0
M  V30 3437 H 313.217 0.949929 3.54079 0
M  V30 3438 H 312.865 -1.11678 4.90446 0
M  V30 3439 H 312.565 0.35299 5.86539 0
M  V30 3440 H 314.089 -0.554214 6.0808 0
M  V30 3441 H 315.503 1.63997 5.49343 0
M  V30 3442 H 313.9 2.43112 5.4865 0
M  V30 3443 H 314.97 2.61304 4.08471 0
M  V30 3444 N 316.313 -1.40141 0.720998 0
M  V30 3445 C 317.245 -2.29177 0.0324669 0
M  V30 3446 C 318.258 -1.46105 -0.718126 0
M  V30 3447 O 319.447 -1.69335 -0.564608 0
M  V30 3448 C 316.547 -3.24473 -0.978292 0
M  V30 3449 C 315.72 -4.36423 -0.292115 0
M  V30 3450 C 314.779 -5.12122 -1.20901 0
M  V30 3451 O 313.805 -5.64981 -0.691766 0
M  V30 3452 N 315.007 -5.21992 -2.53978 0
M  V30 3453 H 317.772 -2.88909 0.796984 0
M  V30 3454 H 315.333 -1.51569 0.569068 0
M  V30 3455 H 317.325 -3.71987 -1.59398 0
M  V30 3456 H 315.895 -2.65871 -1.64413 0
M  V30 3457 H 315.115 -3.90967 0.503847 0
M  V30 3458 H 316.403 -5.08467 0.183971 0
M  V30 3459 H 315.801 -4.8054 -2.98493 0
M  V30 3460 H 314.358 -5.72995 -3.10677 0
M  V30 3461 N 317.792 -0.46758 -1.50504 0
M  V30 3462 C 319.02 0.0864133 -2.06719 0
M  V30 3463 C 319.435 1.33819 -1.33184 0
M  V30 3464 O 318.792 1.78061 -0.400083 0
M  V30 3465 C 318.843 0.378079 -3.59517 0
M  V30 3466 O 318.564 -0.824044 -4.3028 0
M  V30 3467 C 320.065 0.979426 -4.32345 0
M  V30 3468 H 317.285 -0.00551697 -0.670977 0
M  V30 3469 H 319.829 -0.655354 -1.93715 0
M  V30 3470 H 317.984 1.06977 -3.72337 0
M  V30 3471 H 318.398 -0.566518 -5.21432 0
M  V30 3472 H 319.872 1.1333 -5.40241 0
M  V30 3473 H 320.349 1.9686 -3.9261 0
M  V30 3474 H 320.955 0.326216 -4.24047 0
M  V30 3475 N 319.27 1.56325 -0.20005 0
M  V30 3476 C 320.202 2.16555 0.750771 0
M  V30 3477 C 321.215 1.12871 1.1732 0
M  V30 3478 O 322.404 1.39943 1.10807 0
M  V30 3479 C 319.504 2.71684 2.02586 0
M  V30 3480 C 318.677 4.00321 1.76244 0
M  V30 3481 C 317.736 4.40227 2.88248 0
M  V30 3482 O 316.762 5.07552 2.57642 0
M  V30 3483 N 317.964 4.04138 4.16717 0
M  V30 3484 H 320.729 2.98772 0.235685 0
M  V30 3485 H 318.29 1.6189 -0.0182594 0
M  V30 3486 H 320.282 2.95363 2.76664 0
M  V30 3487 H 318.852 1.93893 2.45202 0
M  V30 3488 H 318.072 3.84723 0.85919 0
M  V30 3489 H 319.36 4.84279 1.56048 0
M  V30 3490 H 318.758 3.49993 4.44434 0
M  V30 3491 H 317.315 4.32756 4.87407 0
M  V30 3492 N 320.748 -0.0735177 1.57428 0
M  V30 3493 C 322.159 -0.625551 1.75908 0
M  V30 3494 C 322.51 -1.78 0.825261 0
M  V30 3495 O 321.635 -2.16398 0.00893964 0
M  V30 3496 C 322.23 -1.14155 3.18989 0
M  V30 3497 C 320.789 -1.63946 3.38819 0
M  V30 3498 C 319.936 -0.558151 2.71625 0
M  V30 3499 H 322.887 0.152647 1.57964 0
M  V30 3500 H 322.908 -2.0104 3.23053 0
M  V30 3501 H 322.42 -0.301116 3.8693 0
M  V30 3502 H 320.521 -2.50321 2.7599 0
M  V30 3503 H 320.634 -1.71759 4.47253 0
M  V30 3504 H 318.998 -1.00278 2.34129 0
M  V30 3505 H 319.781 0.272071 3.4222 0
M  V30 3506 N 322.226 -1.5378 -0.344866 0
M  V30 3507 C 323.158 -1.77988 -1.44406 0
M  V30 3508 C 324.171 -0.661138 -1.48771 0
M  V30 3509 O 325.36 -0.937842 -1.51877 0
M  V30 3510 C 322.46 -1.86345 -2.8307 0
M  V30 3511 C 321.633 -3.16256 -3.0216 0
M  V30 3512 C 320.692 -3.15588 -4.21059 0
M  V30 3513 O 319.718 -3.89314 -4.15239 0
M  V30 3514 N 320.92 -2.37864 -5.29529 0
M  V30 3515 H 323.685 -2.72839 -1.24012 0
M  V30 3516 H 321.246 -1.52814 -0.534737 0
M  V30 3517 H 323.238 -1.83351 -3.60783 0
M  V30 3518 H 321.808 -0.986858 -2.96614 0
M  V30 3519 H 321.028 -3.32385 -2.11929 0
M  V30 3520 H 322.316 -4.0207 -3.11797 0
M  V30 3521 H 321.714 -1.77514 -5.37127 0
M  V30 3522 H 320.271 -2.40668 -6.05741 0
M  V30 3523 N 323.704 0.605807 -1.45491 0
M  V30 3524 C 324.934 1.38934 -1.52908 0
M  V30 3525 C 325.342 1.88513 -0.161086 0
M  V30 3526 O 324.685 1.62962 0.847891 0
M  V30 3527 C 324.747 2.62737 -2.45376 0
M  V30 3528 C 324.411 2.34785 -3.92078 0
M  V30 3529 C 325.408 1.95038 -4.8193 0
M  V30 3530 C 323.093 2.47642 -4.37011 0
M  V30 3531 C 325.087 1.68511 -6.14722 0
M  V30 3532 C 322.774 2.20728 -5.69844 0
M  V30 3533 C 323.772 1.81225 -6.58519 0
M  V30 3534 O 323.46 1.54627 -7.88889 0
M  V30 3535 H 323.192 0.431629 -0.520262 0
M  V30 3536 H 325.746 0.74573 -1.91384 0
M  V30 3537 H 323.976 3.29824 -2.01874 0
M  V30 3538 H 325.665 3.24783 -2.43456 0
M  V30 3539 H 326.431 1.84639 -4.48479 0
M  V30 3540 H 322.31 2.77356 -3.68232 0
M  V30 3541 H 325.854 1.37602 -6.83894 0
M  V30 3542 H 321.751 2.30744 -6.02849 0
M  V30 3543 H 322.519 1.68665 -8.00933 0
M  V30 3544 N 325.182 1.32811 0.848464 0
M  V30 3545 C 326.428 1.23907 1.60546 0
M  V30 3546 C 326.761 -0.197161 1.93197 0
M  V30 3547 O 326.036 -1.13596 1.5788 0
M  V30 3548 C 326.319 2.10489 2.92175 0
M  V30 3549 C 326.172 3.62522 2.66266 0
M  V30 3550 C 327.491 1.97075 3.93509 0
M  V30 3551 H 324.61 0.451459 0.58254 0
M  V30 3552 H 327.252 1.62818 0.979296 0
M  V30 3553 H 325.402 1.77434 3.45614 0
M  V30 3554 H 327.074 4.05821 2.19334 0
M  V30 3555 H 325.317 3.84879 2.00126 0
M  V30 3556 H 325.988 4.18437 3.6002 0
M  V30 3557 H 328.464 2.26045 3.49346 0
M  V30 3558 H 327.34 2.59923 4.83457 0
M  V30 3559 H 327.601 0.940186 4.31987 0
M  V30 3560 N 326.66 -1.06551 1.16123 0
M  V30 3561 C 327.623 -2.12132 0.867906 0
M  V30 3562 C 328.623 -1.60224 -0.135944 0
M  V30 3563 O 329.813 -1.73943 0.0946422 0
M  V30 3564 C 326.945 -3.396 0.297419 0
M  V30 3565 H 328.138 -2.39586 1.80385 0
M  V30 3566 H 325.691 -1.22574 0.969812 0
M  V30 3567 H 326.426 -3.17794 -0.64633 0
M  V30 3568 H 326.211 -3.78581 1.02073 0
M  V30 3569 H 327.701 -4.17455 0.110052 0
M  V30 3570 N 328.138 -0.959301 -1.25041 0
M  V30 3571 C 329.385 -0.616611 -1.92884 0
M  V30 3572 C 329.713 0.847036 -1.75087 0
M  V30 3573 O 328.968 1.62374 -1.09239 0
M  V30 3574 C 329.267 -0.927136 -3.45165 0
M  V30 3575 C 328.933 -2.37757 -3.83122 0
M  V30 3576 C 327.595 -2.77402 -3.93194 0
M  V30 3577 C 329.947 -3.31929 -4.01836 0
M  V30 3578 C 327.275 -4.10277 -4.19392 0
M  V30 3579 C 329.627 -4.64423 -4.29528 0
M  V30 3580 C 328.291 -5.03857 -4.37818 0
M  V30 3581 H 327.561 -0.225634 -0.705812 0
M  V30 3582 H 330.208 -1.20921 -1.48493 0
M  V30 3583 H 328.513 -0.252195 -3.90987 0
M  V30 3584 H 330.21 -0.6405 -3.95852 0
M  V30 3585 H 326.8 -2.06013 -3.75841 0
M  V30 3586 H 330.984 -3.02488 -3.93465 0
M  V30 3587 H 326.24 -4.40467 -4.24027 0
M  V30 3588 H 330.414 -5.37369 -4.42953 0
M  V30 3589 H 328.041 -6.06843 -4.57871 0
M  V30 3590 N 329.616 1.39756 -0.72842 0
M  V30 3591 C 330.841 2.05472 -0.282159 0
M  V30 3592 C 331.266 1.54549 1.07221 0
M  V30 3593 O 330.624 0.686372 1.67805 0
M  V30 3594 C 330.672 3.59462 -0.286264 0
M  V30 3595 O 329.776 4.05918 0.728298 0
M  V30 3596 H 329.117 0.651226 -0.129618 0
M  V30 3597 H 331.647 1.78915 -0.992499 0
M  V30 3598 H 331.657 4.07798 -0.128373 0
M  V30 3599 H 330.332 3.95889 -1.27456 0
M  V30 3600 H 328.909 3.69012 0.537081 0
M  V30 3601 N 331.094 0.475555 1.50254 0
M  V30 3602 C 332.341 -0.0778919 2.0235 0
M  V30 3603 C 332.669 -1.39319 1.35722 0
M  V30 3604 O 331.924 -1.89888 0.473395 0
M  V30 3605 C 332.223 -0.305114 3.56095 0
M  V30 3606 C 331.889 0.92903 4.41225 0
M  V30 3607 C 330.551 1.26739 4.6421 0
M  V30 3608 C 332.903 1.75054 4.90923 0
M  V30 3609 C 330.231 2.42724 5.34137 0
M  V30 3610 C 332.583 2.9017 5.62125 0
M  V30 3611 C 331.247 3.24416 5.83362 0
M  V30 3612 H 330.517 -0.0285027 0.740452 0
M  V30 3613 H 333.164 0.630543 1.80821 0
M  V30 3614 H 331.469 -1.09584 3.76163 0
M  V30 3615 H 333.166 -0.747377 3.93974 0
M  V30 3616 H 329.756 0.655428 4.23559 0
M  V30 3617 H 333.94 1.50231 4.73016 0
M  V30 3618 H 329.196 2.69525 5.48786 0
M  V30 3619 H 333.37 3.54169 5.99614 0
M  V30 3620 H 330.997 4.14396 6.37323 0
M  V30 3621 N 332.573 -1.56217 0.208337 0
M  V30 3622 C 333.819 -1.98242 -0.427552 0
M  V30 3623 C 334.152 -1.09554 -1.60348 0
M  V30 3624 O 333.427 -0.15035 -1.93918 0
M  V30 3625 C 333.71 -3.4931 -0.874907 0
M  V30 3626 C 333.563 -4.48773 0.303751 0
M  V30 3627 C 334.882 -4.04424 -1.73577 0
M  V30 3628 H 332.001 -0.720744 -0.153936 0
M  V30 3629 H 334.643 -1.87586 0.30192 0
M  V30 3630 H 332.793 -3.58522 -1.49648 0
M  V30 3631 H 334.465 -4.51586 0.941682 0
M  V30 3632 H 332.708 -4.23194 0.953375 0
M  V30 3633 H 333.379 -5.51976 -0.0519883 0
M  V30 3634 H 335.855 -3.98075 -1.21143 0
M  V30 3635 H 334.731 -5.1047 -2.01771 0
M  V30 3636 H 334.992 -3.50494 -2.69456 0
M  V30 3637 N 334.051 0.0651679 -1.57465 0
M  V30 3638 C 335.281 0.774683 -1.91526 0
M  V30 3639 C 335.689 1.71305 -0.803196 0
M  V30 3640 O 335.032 1.82231 0.231881 0
M  V30 3641 C 335.094 1.61645 -3.21109 0
M  V30 3642 C 334.758 0.846753 -4.49087 0
M  V30 3643 C 335.755 0.163024 -5.19644 0
M  V30 3644 C 333.44 0.811966 -4.95694 0
M  V30 3645 C 335.434 -0.54519 -6.35064 0
M  V30 3646 C 333.121 0.0999836 -6.11018 0
M  V30 3647 C 334.119 -0.577388 -6.80555 0
M  V30 3648 O 333.807 -1.27789 -7.93678 0
M  V30 3649 H 333.539 0.225031 -0.637446 0
M  V30 3650 H 336.093 0.0377134 -2.05365 0
M  V30 3651 H 334.323 2.39638 -3.03497 0
M  V30 3652 H 336.012 2.20525 -3.40769 0
M  V30 3653 H 336.778 0.181163 -4.84662 0
M  V30 3654 H 332.657 1.32867 -4.41438 0
M  V30 3655 H 336.201 -1.07446 -6.89276 0
M  V30 3656 H 332.098 0.0797945 -6.45451 0
M  V30 3657 H 332.866 -1.18784 -8.09835 0
M  V30 3658 N 335.529 1.53961 0.336706 0
M  V30 3659 C 336.778 1.70751 1.07363 0
M  V30 3660 C 337.091 0.481061 1.89592 0
M  V30 3661 O 338.297 0.530046 2.66276 0
M  V30 3662 C 336.753 3.01965 1.95818 0
M  V30 3663 C 336.361 4.31971 1.18764 0
M  V30 3664 C 338.105 3.28121 2.69327 0
M  V30 3665 C 336.012 5.54255 2.06289 0
M  V30 3666 H 334.942 0.636292 0.404535 0
M  V30 3667 H 337.593 1.80459 0.332681 0
M  V30 3668 H 335.975 2.86132 2.7376 0
M  V30 3669 H 337.149 4.5853 0.456849 0
M  V30 3670 H 335.464 4.12481 0.569946 0
M  V30 3671 H 338.061 4.16673 3.35094 0
M  V30 3672 H 338.404 2.45426 3.36261 0
M  V30 3673 H 338.937 3.44762 1.98454 0
M  V30 3674 H 335.676 6.39513 1.43885 0
M  V30 3675 H 335.196 5.31935 2.77138 0
M  V30 3676 H 336.875 5.90159 2.65182 0
M  V30 3677 N 337.007 -0.598083 1.45811 0
M  V30 3678 C 337.937 -1.71873 1.58057 0
M  V30 3679 C 338.918 -1.64533 0.431615 0
M  V30 3680 O 340.103 -1.82787 0.65595 0
M  V30 3681 C 337.233 -3.10495 1.55597 0
M  V30 3682 C 336.187 -3.32654 2.69305 0
M  V30 3683 C 335.513 -4.71646 2.51902 0
M  V30 3684 C 336.813 -3.21981 4.11248 0
M  V30 3685 H 338.507 -1.61881 2.51863 0
M  V30 3686 H 336.053 -0.777372 1.21214 0
M  V30 3687 H 338.006 -3.88699 1.6276 0
M  V30 3688 H 336.73 -3.2135 0.583255 0
M  V30 3689 H 335.389 -2.56843 2.61586 0
M  V30 3690 H 335.037 -4.79246 1.52748 0
M  V30 3691 H 334.737 -4.87426 3.2816 0
M  V30 3692 H 336.261 -5.52038 2.60933 0
M  V30 3693 H 337.675 -3.90049 4.20161 0
M  V30 3694 H 336.072 -3.49289 4.87972 0
M  V30 3695 H 337.142 -2.1928 4.32486 0
M  V30 3696 N 338.485 -1.33259 -0.841409 0
M  V30 3697 C 339.713 -1.27605 -1.62864 0
M  V30 3698 C 340.128 0.153507 -1.88175 0
M  V30 3699 O 339.485 1.09485 -1.46011 0
M  V30 3700 C 339.536 -2.04596 -2.98031 0
M  V30 3701 O 339.257 -3.41975 -2.73834 0
M  V30 3702 C 340.758 -2.06122 -3.92465 0
M  V30 3703 H 337.978 -0.439718 -0.506842 0
M  V30 3704 H 340.522 -1.75591 -1.04824 0
M  V30 3705 H 338.677 -1.60299 -3.5268 0
M  V30 3706 H 339.091 -3.81549 -3.59889 0
M  V30 3707 H 340.565 -2.64451 -4.84531 0
M  V30 3708 H 341.042 -1.05083 -4.26444 0
M  V30 3709 H 341.648 -2.50427 -3.43753 0
M  V30 3710 N 339.963 1.05934 -1.16686 0
M  V30 3711 C 341.211 1.78447 -0.948744 0
M  V30 3712 C 341.532 1.87813 0.524523 0
M  V30 3713 O 340.802 1.38945 1.38098 0
M  V30 3714 H 339.382 0.660971 -0.348033 0
M  V30 3715 H 342.044 1.27947 -1.47022 0
M  V30 3716 H 341.14 2.80394 -1.37061 0
M  V30 3717 N 341.441 0.965919 1.2453 0
M  V30 3718 C 342.371 0.513476 2.27784 0
M  V30 3719 C 343.352 -0.445974 1.6415 0
M  V30 3720 O 344.537 -0.342485 1.91156 0
M  V30 3721 C 341.667 -0.198839 3.4673 0
M  V30 3722 C 340.621 0.676456 4.2262 0
M  V30 3723 C 339.947 -0.167248 5.34438 0
M  V30 3724 C 341.247 1.96017 4.84123 0
M  V30 3725 H 342.941 1.3765 2.65881 0
M  V30 3726 H 340.487 0.663321 1.27813 0
M  V30 3727 H 342.44 -0.526567 4.18097 0
M  V30 3728 H 341.164 -1.0962 3.07654 0
M  V30 3729 H 339.823 0.98743 3.53052 0
M  V30 3730 H 339.471 -1.0647 4.91603 0
M  V30 3731 H 339.171 0.415181 5.86131 0
M  V30 3732 H 340.695 -0.489688 6.08633 0
M  V30 3733 H 342.109 1.69814 5.47573 0
M  V30 3734 H 340.506 2.48918 5.4604 0
M  V30 3735 H 341.576 2.65622 4.05676 0
M  V30 3736 N 342.919 -1.39368 0.735821 0
M  V30 3737 C 344.147 -2.04795 0.294393 0
M  V30 3738 C 344.562 -1.55478 -1.07107 0
M  V30 3739 O 343.919 -0.720038 -1.67695 0
M  V30 3740 C 343.97 -3.6035 0.288071 0
M  V30 3741 O 343.691 -4.07852 1.59963 0
M  V30 3742 C 345.192 -4.42976 -0.169422 0
M  V30 3743 H 342.412 -0.658571 0.128551 0
M  V30 3744 H 344.956 -1.78399 0.999701 0
M  V30 3745 H 343.111 -3.85645 -0.368355 0
M  V30 3746 H 343.525 -5.02181 1.51375 0
M  V30 3747 H 344.999 -5.51864 -0.122687 0
M  V30 3748 H 345.476 -4.22068 -1.21472 0
M  V30 3749 H 346.082 -4.22832 0.457469 0
M  V30 3750 N 344.397 -0.483516 -1.5 0
M  V30 3751 C 345.643 0.0672592 -2.02688 0
M  V30 3752 C 345.976 1.38247 -1.36387 0
M  V30 3753 O 345.251 1.88131 -0.493675 0
M  V30 3754 C 345.534 0.238109 -3.59312 0
M  V30 3755 C 345.387 -1.099 -4.36168 0
M  V30 3756 C 346.706 0.986916 -4.28892 0
M  V30 3757 H 343.825 0.0229696 -0.736642 0
M  V30 3758 H 346.467 -0.631527 -1.79197 0
M  V30 3759 H 344.617 0.8333 -3.79458 0
M  V30 3760 H 346.289 -1.73172 -4.27562 0
M  V30 3761 H 344.532 -1.69261 -3.99416 0
M  V30 3762 H 345.203 -0.932954 -5.44059 0
M  V30 3763 H 347.679 0.482302 -4.13295 0
M  V30 3764 H 346.555 1.07527 -5.38265 0
M  V30 3765 H 346.816 2.0265 -3.92919 0
M  V30 3766 N 345.875 1.56104 -0.216619 0
M  V30 3767 C 347.124 1.97348 0.416744 0
M  V30 3768 C 347.437 1.10715 1.6125 0
M  V30 3769 O 348.643 1.41836 2.31506 0
M  V30 3770 C 347.099 3.51059 0.792835 0
M  V30 3771 C 346.707 4.46387 -0.379828 0
M  V30 3772 C 348.451 4.01026 1.39208 0
M  V30 3773 C 346.358 5.91397 0.0184223 0
M  V30 3774 H 345.288 0.736942 0.159475 0
M  V30 3775 H 347.939 1.80827 -0.31205 0
M  V30 3776 H 346.321 3.63162 1.57891 0
M  V30 3777 H 347.495 4.46029 -1.15737 0
M  V30 3778 H 345.81 4.06734 -0.891979 0
M  V30 3779 H 348.407 5.0686 1.70286 0
M  V30 3780 H 348.75 3.46587 2.30614 0
M  V30 3781 H 349.283 3.92125 0.669537 0
M  V30 3782 H 346.022 6.49807 -0.862002 0
M  V30 3783 H 345.542 5.94961 0.760384 0
M  V30 3784 H 347.221 6.45455 0.446818 0
M  V30 3785 N 347.353 -0.0568162 1.57498 0
M  V30 3786 C 348.601 -0.751617 1.87604 0
M  V30 3787 C 348.922 -1.77351 0.81066 0
M  V30 3788 O 348.192 -1.95254 -0.159018 0
M  V30 3789 H 346.772 -0.280583 0.692302 0
M  V30 3790 H 349.434 -0.0293483 1.94878 0
M  V30 3791 H 348.53 -1.25852 2.856 0
M  V30 3792 N 348.832 -1.54138 -0.328536 0
M  V30 3793 C 349.795 -1.82462 -1.38709 0
M  V30 3794 C 350.795 -0.696229 -1.44946 0
M  V30 3795 O 351.985 -0.964535 -1.4506 0
M  V30 3796 C 349.117 -1.98018 -2.77492 0
M  V30 3797 H 350.31 -2.77037 -1.14851 0
M  V30 3798 H 347.863 -1.45779 -0.563751 0
M  V30 3799 H 348.598 -1.05637 -3.06613 0
M  V30 3800 H 348.383 -2.80124 -2.74359 0
M  V30 3801 H 349.873 -2.21396 -3.54081 0
M  V30 3802 N 350.31 0.590341 -1.46126 0
M  V30 3803 C 351.557 1.34882 -1.5104 0
M  V30 3804 C 351.885 1.93849 -0.159021 0
M  V30 3805 O 351.14 1.76544 0.844436 0
M  V30 3806 C 351.439 2.5032 -2.55097 0
M  V30 3807 C 351.105 2.09394 -3.99331 0
M  V30 3808 C 349.767 1.97947 -4.38601 0
M  V30 3809 C 352.119 1.77712 -4.89967 0
M  V30 3810 C 349.447 1.53065 -5.66381 0
M  V30 3811 C 351.799 1.34312 -6.18177 0
M  V30 3812 C 350.463 1.21436 -6.56361 0
M  V30 3813 H 349.733 0.493568 -0.552695 0
M  V30 3814 H 352.38 0.665539 -1.79563 0
M  V30 3815 H 350.685 3.24062 -2.20207 0
M  V30 3816 H 352.382 3.08541 -2.56132 0
M  V30 3817 H 348.972 2.19235 -3.68285 0
M  V30 3818 H 353.156 1.85445 -4.60352 0
M  V30 3819 H 348.412 1.41733 -5.94745 0
M  V30 3820 H 352.586 1.08849 -6.87841 0
M  V30 3821 H 350.213 0.864345 -7.5527 0
M  V30 3822 N 351.788 1.33704 0.83433 0
M  V30 3823 C 352.718 1.26967 1.95963 0
M  V30 3824 C 353.699 0.149337 1.69443 0
M  V30 3825 O 354.884 0.339852 1.91203 0
M  V30 3826 C 352.014 1.01275 3.32206 0
M  V30 3827 C 350.968 2.09652 3.73136 0
M  V30 3828 C 350.294 1.69166 5.07235 0
M  V30 3829 C 351.594 3.51372 3.86439 0
M  V30 3830 H 353.288 2.2112 2.01857 0
M  V30 3831 H 350.834 1.06447 0.969793 0
M  V30 3832 H 352.787 0.952106 4.10503 0
M  V30 3833 H 351.511 0.0356203 3.26581 0
M  V30 3834 H 350.17 2.14766 2.97104 0
M  V30 3835 H 349.818 0.701437 4.98085 0
M  V30 3836 H 349.518 2.41694 5.35591 0
M  V30 3837 H 351.042 1.64576 5.88003 0
M  V30 3838 H 352.456 3.48734 4.55036 0
M  V30 3839 H 350.853 4.22425 4.26236 0
M  V30 3840 H 351.923 3.89546 2.88759 0
M  V30 3841 N 353.266 -1.05314 1.17247 0
M  V30 3842 C 354.214 -2.15137 0.884238 0
M  V30 3843 C 355.208 -1.68729 -0.15063 0
M  V30 3844 O 356.414 -1.8 -0.00366673 0
M  V30 3845 H 352.789 -0.702471 0.2684 0
M  V30 3846 H 354.76 -2.36652 1.81764 0
M  V30 3847 C 353.509 -3.45243 0.412659 0
M  V30 3848 H 352.832 -3.81352 1.20043 0
M  V30 3849 H 354.272 -4.23263 0.249858 0
M  V30 3850 C 352.731 -3.25487 -0.86948 0
M  V30 3851 O 353.261 -3.51938 -1.93655 0
M  V30 3852 N 351.467 -2.78875 -0.817147 0
M  V30 3853 H 351.014 -2.57549 0.0514211 0
M  V30 3854 H 350.972 -2.66036 -1.67547 0
M  V30 3855 N 354.744 -0.972509 -1.24016 0
M  V30 3856 C 355.674 -0.525548 -2.27509 0
M  V30 3857 C 356.655 0.437262 -1.64384 0
M  V30 3858 O 357.84 0.332343 -1.91335 0
M  V30 3859 C 354.97 0.180448 -3.46831 0
M  V30 3860 C 353.924 -0.698859 -4.22256 0
M  V30 3861 C 353.25 0.138903 -5.3452 0
M  V30 3862 C 354.55 -1.98582 -4.83076 0
M  V30 3863 H 356.244 -1.39058 -2.65148 0
M  V30 3864 H 353.79 -0.67009 -1.27459 0
M  V30 3865 H 355.743 0.504387 -4.18371 0
M  V30 3866 H 354.467 1.07987 -3.08231 0
M  V30 3867 H 353.126 -1.00614 -3.52523 0
M  V30 3868 H 352.774 1.03862 -4.9216 0
M  V30 3869 H 352.474 -0.446259 -5.85903 0
M  V30 3870 H 353.998 0.457404 -6.08884 0
M  V30 3871 H 355.412 -1.72715 -5.46665 0
M  V30 3872 H 353.809 -2.5181 -5.44713 0
M  V30 3873 H 354.879 -2.67769 -4.04262 0
M  V30 3874 N 356.222 1.38976 -0.743202 0
M  V30 3875 C 357.468 2.0064 -0.295189 0
M  V30 3876 C 357.801 1.5885 1.11716 0
M  V30 3877 O 357.076 0.821181 1.76315 0
M  V30 3878 C 357.359 3.578 -0.406318 0
M  V30 3879 C 357.212 4.09586 -1.85903 0
M  V30 3880 C 358.531 4.39616 0.206439 0
M  V30 3881 H 355.65 0.728935 -0.108733 0
M  V30 3882 H 358.292 1.65067 -0.940897 0
M  V30 3883 H 356.442 3.88235 0.143419 0
M  V30 3884 H 358.114 3.89837 -2.46627 0
M  V30 3885 H 356.357 3.6284 -2.3776 0
M  V30 3886 H 357.028 5.18708 -1.888 0
M  V30 3887 H 359.504 4.15273 -0.262283 0
M  V30 3888 H 358.38 5.48812 0.0983819 0
M  V30 3889 H 358.641 4.22754 1.2935 0
M  V30 3890 N 357.7 0.491464 1.49741 0
M  V30 3891 C 358.946 -0.0565092 2.02721 0
M  V30 3892 C 359.279 -1.37522 1.37118 0
M  V30 3893 O 358.554 -1.87866 0.503645 0
M  V30 3894 C 358.837 -0.219051 3.59433 0
M  V30 3895 C 358.69 1.12211 4.35579 0
M  V30 3896 C 360.009 -0.964157 4.29409 0
M  V30 3897 H 357.128 -0.0190627 0.736753 0
M  V30 3898 H 359.77 0.641021 1.7886 0
M  V30 3899 H 357.92 -0.813165 3.79895 0
M  V30 3900 H 359.592 1.75437 4.26637 0
M  V30 3901 H 357.835 1.71377 3.98513 0
M  V30 3902 H 358.506 0.961794 5.43556 0
M  V30 3903 H 360.982 -0.460378 4.13545 0
M  V30 3904 H 359.858 -1.04671 5.38828 0
M  V30 3905 H 360.119 -2.00563 3.93988 0
M  V30 3906 N 359.178 -1.55987 0.224894 0
M  V30 3907 C 360.108 -2.23426 -0.678457 0
M  V30 3908 C 361.089 -1.20709 -1.19847 0
M  V30 3909 O 362.274 -1.49304 -1.24186 0
M  V30 3910 C 359.404 -2.91676 -1.88527 0
M  V30 3911 C 358.358 -4.00893 -1.49896 0
M  V30 3912 C 357.684 -4.56455 -2.78483 0
M  V30 3913 C 358.984 -5.17769 -0.686461 0
M  V30 3914 H 360.678 -2.99175 -0.116173 0
M  V30 3915 H 358.224 -1.43897 -0.054436 0
M  V30 3916 H 360.177 -3.37547 -2.5227 0
M  V30 3917 H 358.901 -2.1338 -2.47258 0
M  V30 3918 H 357.56 -3.55758 -0.884985 0
M  V30 3919 H 357.208 -3.74886 -3.35365 0
M  V30 3920 H 356.908 -5.30169 -2.53368 0
M  V30 3921 H 358.432 -5.05047 -3.43162 0
M  V30 3922 H 359.846 -5.60001 -1.22767 0
M  V30 3923 H 358.243 -5.97735 -0.532259 0
M  V30 3924 H 359.313 -4.83932 0.306196 0
M  V30 3925 N 360.656 0.0484629 -1.57525 0
M  V30 3926 C 362.072 0.40375 -1.54409 0
M  V30 3927 C 362.272 1.77786 -0.948384 0
M  V30 3928 O 361.328 2.46189 -0.560983 0
M  V30 3929 C 362.641 0.323394 -2.98956 0
M  V30 3930 C 364.189 0.401892 -3.10409 0
M  V30 3931 C 364.664 0.351195 -4.56652 0
M  V30 3932 N 366.155 0.410576 -4.61377 0
M  V30 3933 C 366.89 0.393933 -5.72045 0
M  V30 3934 N 366.386 0.330724 -6.9201 0
M  V30 3935 N 368.179 0.442227 -5.60358 0
M  V30 3936 H 360.33 -0.851016 -1.94606 0
M  V30 3937 H 362.593 -0.321721 -0.89174 0
M  V30 3938 H 362.299 -0.62011 -3.4619 0
M  V30 3939 H 362.173 1.12463 -3.60044 0
M  V30 3940 H 364.56 1.33582 -2.63134 0
M  V30 3941 H 364.641 -0.428342 -2.52188 0
M  V30 3942 H 364.285 -0.578987 -5.04589 0
M  V30 3943 H 364.215 1.19928 -5.12762 0
M  V30 3944 H 366.706 0.462729 -3.75056 0
M  V30 3945 H 367.019 0.322592 -7.72126 0
M  V30 3946 H 365.364 0.29706 -6.94365 0
M  V30 3947 H 368.555 0.489464 -4.65534 0
M  V30 3948 H 368.728 0.425788 -6.466 0
M  V30 3949 N 362.134 1.5431 0.320358 0
M  V30 3950 C 363.381 1.72668 1.05792 0
M  V30 3951 C 363.709 0.502084 1.87908 0
M  V30 3952 O 362.964 -0.516149 1.88771 0
M  V30 3953 C 363.263 2.95639 2.00828 0
M  V30 3954 C 362.929 4.30265 1.34843 0
M  V30 3955 C 361.591 4.66865 1.16578 0
M  V30 3956 C 363.943 5.13801 0.875095 0
M  V30 3957 C 361.271 5.84597 0.496336 0
M  V30 3958 C 363.623 6.32219 0.219463 0
M  V30 3959 C 362.287 6.67495 0.0246915 0
M  V30 3960 H 361.557 0.631837 0.387121 0
M  V30 3961 H 364.204 1.88552 0.334735 0
M  V30 3962 H 362.509 2.74456 2.79609 0
M  V30 3963 H 364.206 3.07038 2.57932 0
M  V30 3964 H 360.796 4.01472 1.50061 0
M  V30 3965 H 364.98 4.86039 1.00398 0
M  V30 3966 H 360.236 6.10486 0.334264 0
M  V30 3967 H 364.41 6.96227 -0.155291 0
M  V30 3968 H 362.037 7.5858 -0.496065 0
M  V30 3969 N 363.613 -0.582584 1.46437 0
M  V30 3970 C 364.546 -1.70633 1.51524 0
M  V30 3971 C 365.524 -1.58349 0.369351 0
M  V30 3972 O 366.708 -1.79563 0.573516 0
M  V30 3973 C 363.835 -3.08687 1.39392 0
M  V30 3974 C 362.881 -3.3949 2.58164 0
M  V30 3975 S 363.714 -3.31548 4.20519 0
M  V30 3976 C 364.87 -4.72139 4.10896 0
M  V30 3977 H 365.103 -1.66058 2.46601 0
M  V30 3978 H 362.636 -0.761337 1.34324 0
M  V30 3979 H 364.594 -3.8833 1.33079 0
M  V30 3980 H 363.255 -3.10751 0.457436 0
M  V30 3981 H 362.448 -4.40071 2.45669 0
M  V30 3982 H 362.05 -2.67415 2.61468 0
M  V30 3983 H 364.342 -5.62527 3.77584 0
M  V30 3984 H 365.285 -4.89692 5.11476 0
M  V30 3985 H 365.693 -4.48995 3.42146 0
M  V30 3986 N 365.091 -1.34144 -0.827227 0
M  V30 3987 C 366.319 -1.29325 -1.61501 0
M  V30 3988 C 366.734 0.13354 -1.88327 0
M  V30 3989 O 366.091 1.0793 -1.47164 0
M  V30 3990 C 366.142 -2.07746 -2.95844 0
M  V30 3991 O 365.863 -3.4486 -2.70191 0
M  V30 3992 C 367.364 -2.10273 -3.90256 0
M  V30 3993 H 364.584 -0.445069 -0.50215 0
M  V30 3994 H 367.128 -1.76693 -1.02955 0
M  V30 3995 H 365.283 -1.6403 -3.5096 0
M  V30 3996 H 365.697 -3.85345 -3.55822 0
M  V30 3997 H 367.171 -2.69575 -4.81698 0
M  V30 3998 H 367.648 -1.096 -4.25305 0
M  V30 3999 H 368.254 -2.54059 -3.41078 0
M  V30 4000 N 366.569 1.04691 -1.17803 0
M  V30 4001 C 367.502 2.12068 -0.842765 0
M  V30 4002 C 368.48 1.61455 0.192608 0
M  V30 4003 O 369.664 1.88359 0.072995 0
M  V30 4004 C 366.791 3.37715 -0.258063 0
M  V30 4005 C 365.837 4.07164 -1.26962 0
M  V30 4006 S 366.67 4.55047 -2.82299 0
M  V30 4007 C 367.826 5.83935 -2.25323 0
M  V30 4008 H 368.059 2.4018 -1.75217 0
M  V30 4009 H 365.592 1.17366 -1.00323 0
M  V30 4010 H 367.55 4.10435 0.0727935 0
M  V30 4011 H 366.211 3.0773 0.629357 0
M  V30 4012 H 365.404 4.9746 -0.809263 0
M  V30 4013 H 365.006 3.40533 -1.54639 0
M  V30 4014 H 367.298 6.57552 -1.63192 0
M  V30 4015 H 368.241 6.34725 -3.13894 0
M  V30 4016 H 368.649 5.3874 -1.68582 0
M  V30 4017 N 368.047 0.979072 1.23499 0
M  V30 4018 C 368.995 0.510604 2.26926 0
M  V30 4019 C 369.989 -0.431691 1.63807 0
M  V30 4020 O 371.195 -0.30573 1.77385 0
M  V30 4021 H 367.57 0.146688 0.737554 0
M  V30 4022 H 369.541 1.39466 2.63803 0
M  V30 4023 C 368.29 -0.172658 3.47271 0
M  V30 4024 H 367.613 0.543331 3.96091 0
M  V30 4025 H 369.053 -0.464101 4.21452 0
M  V30 4026 C 367.512 -1.40345 3.06276 0
M  V30 4027 O 368.042 -2.49978 3.14442 0
M  V30 4028 N 366.248 -1.27362 2.61203 0
M  V30 4029 H 365.795 -0.381584 2.54758 0
M  V30 4030 H 365.753 -2.09822 2.34141 0
M  V30 4031 N 369.525 -1.3858 0.750561 0
M  V30 4032 C 370.488 -2.28836 0.129152 0
M  V30 4033 C 371.488 -1.47045 -0.650714 0
M  V30 4034 O 372.678 -1.6753 -0.477428 0
M  V30 4035 C 369.81 -3.30751 -0.825622 0
M  V30 4036 H 371.003 -2.85294 0.924516 0
M  V30 4037 H 368.556 -1.47489 0.517376 0
M  V30 4038 H 369.291 -2.79378 -1.64677 0
M  V30 4039 H 369.076 -3.91177 -0.268852 0
M  V30 4040 H 370.566 -3.98249 -1.2565 0
M  V30 4041 N 371.003 -0.499398 -1.49478 0
M  V30 4042 C 371.913 0.284489 -2.32869 0
M  V30 4043 C 372.929 0.968885 -1.44529 0
M  V30 4044 O 374.105 0.95062 -1.77553 0
M  V30 4045 C 371.17 1.33594 -3.19928 0
M  V30 4046 C 370.231 0.665149 -4.24116 0
M  V30 4047 C 369.464 1.6665 -5.07014 0
M  V30 4048 O 369.687 2.89618 -4.91404 0
M  V30 4049 O 368.621 1.22271 -5.8935 0
M  V30 4050 H 372.447 -0.39802 -3.01081 0
M  V30 4051 H 370.032 -0.260758 -1.47107 0
M  V30 4052 H 371.914 1.94431 -3.73864 0
M  V30 4053 H 370.589 2.0014 -2.54412 0
M  V30 4054 H 369.496 0.0170769 -3.74096 0
M  V30 4055 H 370.829 0.0421555 -4.92182 0
M  V30 4056 N 372.481 1.55866 -0.233164 0
M  V30 4057 C 373.758 1.90471 0.444988 0
M  V30 4058 C 374.138 1.15209 1.7689 0
M  V30 4059 O 373.486 0.265119 2.26957 0
M  V30 4060 C 373.696 3.4333 0.626559 0
M  V30 4061 C 375.044 4.14319 0.92871 0
M  V30 4062 O 376.068 3.48993 0.712926 0
M  V30 4063 O 374.927 5.29846 1.33887 0
M  V30 4064 H 372.021 0.792347 0.236885 0
M  V30 4065 H 374.567 1.67437 -0.276211 0
M  V30 4066 H 373.339 3.90095 -0.306822 0
M  V30 4067 H 372.962 3.72181 1.39881 0
M  V30 4068 N 373.959 -0.0401083 1.57549 0
M  V30 4069 C 374.869 -1.06133 2.0922 0
M  V30 4070 C 375.885 -1.40356 1.0284 0
M  V30 4071 O 377.061 -1.49897 1.34509 0
M  V30 4072 C 374.126 -2.34658 2.55218 0
M  V30 4073 C 373.187 -2.07117 3.76033 0
M  V30 4074 C 372.42 -3.29514 4.19829 0
M  V30 4075 O 372.643 -4.39794 3.63232 0
M  V30 4076 O 371.577 -3.15863 5.12362 0
M  V30 4077 H 375.403 -0.652244 2.96613 0
M  V30 4078 H 372.988 -0.256368 1.47184 0
M  V30 4079 H 374.87 -3.10239 2.85184 0
M  V30 4080 H 373.545 -2.74883 1.70941 0
M  V30 4081 H 372.452 -1.29139 3.51104 0
M  V30 4082 H 373.785 -1.71754 4.61261 0
M  V30 4083 N 375.437 -1.54477 -0.31217 0
M  V30 4084 C 376.384 -1.84655 -1.38461 0
M  V30 4085 C 377.354 -0.694536 -1.50882 0
M  V30 4086 O 378.539 -0.942081 -1.6592 0
M  V30 4087 C 375.679 -2.0896 -2.74645 0
M  V30 4088 C 374.792 -3.36618 -2.70763 0
M  V30 4089 C 373.927 -3.50824 -3.98868 0
M  V30 4090 C 372.966 -4.72315 -3.89339 0
M  V30 4091 N 372.103 -4.83387 -5.09197 0
M  V30 4092 H 376.943 -2.76142 -1.12026 0
M  V30 4093 H 374.48 -1.36748 -0.542065 0
M  V30 4094 H 376.438 -2.21045 -3.53829 0
M  V30 4095 H 375.068 -1.20752 -2.99364 0
M  V30 4096 H 374.12 -3.33211 -1.83506 0
M  V30 4097 H 375.432 -4.25917 -2.59608 0
M  V30 4098 H 374.586 -3.62513 -4.86486 0
M  V30 4099 H 373.325 -2.59638 -4.12843 0
M  V30 4100 H 372.33 -4.6067 -3.00105 0
M  V30 4101 H 373.555 -5.64897 -3.76919 0
M  V30 4102 H 371.501 -3.9512 -5.23657 0
M  V30 4103 H 371.418 -5.66669 -5.00422 0
M  V30 4104 H 372.686 -4.9942 -5.98498 0
M  V30 4105 N 376.915 0.57481 -1.46744 0
M  V30 4106 C 378.331 0.898981 -1.31873 0
M  V30 4107 C 378.531 1.99313 -0.29605 0
M  V30 4108 O 377.587 2.50728 0.298621 0
M  V30 4109 C 378.9 1.30886 -2.7072 0
M  V30 4110 C 380.448 1.42127 -2.78871 0
M  V30 4111 C 380.923 1.86478 -4.18318 0
M  V30 4112 N 382.414 1.93658 -4.20774 0
M  V30 4113 C 383.149 2.29267 -5.2557 0
M  V30 4114 N 382.645 2.63612 -6.40688 0
M  V30 4115 N 384.438 2.29889 -5.1294 0
M  V30 4116 H 376.589 -0.147839 -2.11885 0
M  V30 4117 H 378.852 -0.00347013 -0.947994 0
M  V30 4118 H 378.558 0.578853 -3.46904 0
M  V30 4119 H 378.432 2.26874 -3.01343 0
M  V30 4120 H 380.819 2.14213 -2.0297 0
M  V30 4121 H 380.9 0.443705 -2.51922 0
M  V30 4122 H 380.544 1.14968 -4.94717 0
M  V30 4123 H 380.474 2.85207 -4.42679 0
M  V30 4124 H 382.965 1.69574 -3.37718 0
M  V30 4125 H 383.278 2.89759 -7.16421 0
M  V30 4126 H 381.623 2.61232 -6.44036 0
M  V30 4127 H 384.814 2.02485 -4.22039 0
M  V30 4128 H 384.987 2.57312 -5.94722 0
M  V30 4129 N 378.394 1.34581 0.820102 0
M  V30 4130 C 379.671 1.17675 1.56244 0
M  V30 4131 C 380.051 -0.249541 2.0962 0
M  V30 4132 O 379.399 -1.25125 1.91196 0
M  V30 4133 C 379.609 2.23364 2.6816 0
M  V30 4134 C 380.957 2.58485 3.36854 0
M  V30 4135 O 381.981 2.22175 2.78418 0
M  V30 4136 O 380.84 3.20868 4.42386 0
M  V30 4137 H 377.934 0.456333 0.689702 0
M  V30 4138 H 380.48 1.46222 0.861231 0
M  V30 4139 H 379.252 3.19087 2.26493 0
M  V30 4140 H 378.875 1.96009 3.45928 0
M  V30 4141 N 379.872 -1.04064 1.18357 0
M  V30 4142 C 380.835 -2.10243 0.912707 0
M  V30 4143 C 381.835 -1.60477 -0.101928 0
M  V30 4144 O 383.025 -1.73703 0.131517 0
M  V30 4145 C 380.157 -3.38893 0.369387 0
M  V30 4146 H 381.35 -2.35706 1.85426 0
M  V30 4147 H 378.903 -1.20489 0.995594 0
M  V30 4148 H 379.638 -3.19094 -0.578776 0
M  V30 4149 H 379.423 -3.76331 1.1008 0
M  V30 4150 H 380.913 -4.17128 0.198575 0
M  V30 4151 N 381.35 -0.985608 -1.22978 0
M  V30 4152 C 382.26 -0.538548 -2.28335 0
M  V30 4153 C 383.276 0.409163 -1.69121 0
M  V30 4154 O 384.452 0.277797 -1.99475 0
M  V30 4155 C 381.517 0.146867 -3.46389 0
M  V30 4156 C 380.578 -0.842896 -4.20944 0
M  V30 4157 C 379.811 -0.190095 -5.33361 0
M  V30 4158 O 380.034 1.01767 -5.61248 0
M  V30 4159 O 378.968 -0.891289 -5.95264 0
M  V30 4160 H 382.794 -1.41487 -2.68729 0
M  V30 4161 H 380.379 -0.753495 -1.29007 0
M  V30 4162 H 382.261 0.531125 -4.1804 0
M  V30 4163 H 380.936 0.997871 -3.07935 0
M  V30 4164 H 379.843 -1.27795 -3.51595 0
M  V30 4165 H 381.176 -1.66287 -4.6326 0
M  V30 4166 N 382.828 1.3818 -0.7579 0
M  V30 4167 C 383.778 2.27741 -0.108674 0
M  V30 4168 C 384.762 1.45415 0.688709 0
M  V30 4169 O 385.954 1.68108 0.553956 0
M  V30 4170 C 383.083 3.34313 0.780367 0
M  V30 4171 C 382.169 4.24093 -0.0240977 0
M  V30 4172 N 382.56 4.9451 -1.06271 0
M  V30 4173 C 380.858 4.45542 0.202049 0
M  V30 4174 C 381.559 5.60675 -1.54979 0
M  V30 4175 N 380.535 5.36684 -0.864348 0
M  V30 4176 H 384.337 2.79649 -0.904071 0
M  V30 4177 H 381.851 1.51133 -0.594346 0
M  V30 4178 H 383.848 3.97368 1.26114 0
M  V30 4179 H 382.508 2.83962 1.57467 0
M  V30 4180 H 383.519 4.97345 -1.44459 0
M  V30 4181 H 380.196 4.06091 0.96935 0
M  V30 4182 H 381.586 6.26992 -2.41517 0
M  V30 4183 N 384.306 0.507319 1.49211 0
M  V30 4184 C 385.722 0.163682 1.58758 0
M  V30 4185 C 385.922 -1.33208 1.51188 0
M  V30 4186 O 384.978 -2.10855 1.38911 0
M  V30 4187 C 386.291 0.746095 2.91297 0
M  V30 4188 C 387.839 0.712773 3.04776 0
M  V30 4189 C 388.314 1.27336 4.39943 0
M  V30 4190 N 389.805 1.23433 4.46451 0
M  V30 4191 C 390.54 1.63821 5.495 0
M  V30 4192 N 390.036 2.11832 6.5962 0
M  V30 4193 N 391.829 1.55198 5.4025 0
M  V30 4194 H 383.98 1.47972 1.52375 0
M  V30 4195 H 386.243 0.614147 0.722168 0
M  V30 4196 H 385.949 1.79534 3.02424 0
M  V30 4197 H 385.823 0.210137 3.76614 0
M  V30 4198 H 388.21 -0.327656 2.93275 0
M  V30 4199 H 388.291 1.28595 2.21127 0
M  V30 4200 H 387.935 2.3126 4.52196 0
M  V30 4201 H 387.865 0.676066 5.22242 0
M  V30 4202 H 390.356 0.882627 3.67448 0
M  V30 4203 H 390.669 2.40703 7.34358 0
M  V30 4204 H 389.014 2.1581 6.60644 0
M  V30 4205 H 392.205 1.17505 4.53112 0
M  V30 4206 H 392.378 1.86997 6.20432 0
M  V30 4207 N 385.784 -1.5574 0.241426 0
M  V30 4208 C 386.747 -2.19877 -0.647063 0
M  V30 4209 C 387.747 -1.16642 -1.10686 0
M  V30 4210 O 388.937 -1.41757 -1.01245 0
M  V30 4211 C 386.069 -2.83797 -1.88871 0
M  V30 4212 H 387.262 -2.99772 -0.087574 0
M  V30 4213 H 384.815 -1.56298 -0.00813574 0
M  V30 4214 H 385.55 -2.07824 -2.48957 0
M  V30 4215 H 385.335 -3.59414 -1.56728 0
M  V30 4216 H 386.825 -3.32898 -2.52129 0
M  V30 4217 N 387.262 0.0317525 -1.57568 0
M  V30 4218 C 388.192 1.03274 -2.0942 0
M  V30 4219 C 389.173 1.3788 -0.996143 0
M  V30 4220 O 390.358 1.46811 -1.27122 0
M  V30 4221 C 387.488 2.33448 -2.57137 0
M  V30 4222 C 386.442 2.13091 -3.71182 0
M  V30 4223 C 385.768 3.49001 -4.05095 0
M  V30 4224 C 387.068 1.51928 -4.99715 0
M  V30 4225 H 388.762 0.60112 -2.93303 0
M  V30 4226 H 386.308 0.287705 -1.41097 0
M  V30 4227 H 388.261 3.03802 -2.92032 0
M  V30 4228 H 386.985 2.78665 -1.70333 0
M  V30 4229 H 385.644 1.45171 -3.36632 0
M  V30 4230 H 385.292 3.91862 -3.15362 0
M  V30 4231 H 384.992 3.36207 -4.81911 0
M  V30 4232 H 386.516 4.20721 -4.42522 0
M  V30 4233 H 387.93 2.12196 -5.32584 0
M  V30 4234 H 386.327 1.49716 -5.81124 0
M  V30 4235 H 387.397 0.484811 -4.8247 0
M  V30 4236 N 388.74 1.54641 0.303973 0
M  V30 4237 C 389.67 1.88386 1.3796 0
M  V30 4238 C 390.651 0.742485 1.5304 0
M  V30 4239 O 391.836 0.997959 1.66597 0
M  V30 4240 C 388.966 2.12854 2.74427 0
M  V30 4241 C 387.92 3.28702 2.74115 0
M  V30 4242 C 387.246 3.38582 4.13844 0
M  V30 4243 C 388.546 4.65881 2.3612 0
M  V30 4244 H 390.24 2.78474 1.09966 0
M  V30 4245 H 387.786 1.33988 0.527556 0
M  V30 4246 H 389.739 2.35047 3.49758 0
M  V30 4247 H 388.463 1.19535 3.03939 0
M  V30 4248 H 387.122 3.06428 2.0124 0
M  V30 4249 H 386.77 2.42784 4.40528 0
M  V30 4250 H 386.47 4.16453 4.14537 0
M  V30 4251 H 387.994 3.63031 4.90959 0
M  V30 4252 H 389.408 4.87823 3.01167 0
M  V30 4253 H 387.805 5.46444 2.48031 0
M  V30 4254 H 388.875 4.66799 1.3125 0
M  V30 4255 N 390.218 -0.567019 1.47046 0
M  V30 4256 C 391.446 -1.35027 1.56765 0
M  V30 4257 C 391.861 -1.8758 0.214316 0
M  V30 4258 O 391.218 -1.64471 -0.790919 0
M  V30 4259 C 391.269 -2.52698 2.58507 0
M  V30 4260 O 390.99 -2.0232 3.88585 0
M  V30 4261 C 392.491 -3.45043 2.78316 0
M  V30 4262 H 389.711 -0.41195 0.529658 0
M  V30 4263 H 392.255 -0.687832 1.92585 0
M  V30 4264 H 390.41 -3.149 2.25648 0
M  V30 4265 H 390.824 -2.79068 4.44096 0
M  V30 4266 H 392.298 -4.2405 3.53391 0
M  V30 4267 H 392.775 -3.97971 1.85784 0
M  V30 4268 H 393.381 -2.88665 3.12334 0
M  V30 4269 N 391.696 -1.35014 -0.812953 0
M  V30 4270 C 393.112 -1.14914 -1.10757 0
M  V30 4271 C 393.312 0.0426818 -2.01455 0
M  V30 4272 O 392.368 0.715212 -2.42159 0
M  V30 4273 C 393.681 -2.44911 -1.74468 0
M  V30 4274 C 395.229 -2.5106 -1.86917 0
M  V30 4275 C 395.704 -3.81085 -2.54044 0
M  V30 4276 N 397.195 -3.82301 -2.61535 0
M  V30 4277 C 397.93 -4.79634 -3.14227 0
M  V30 4278 N 397.426 -5.87353 -3.67407 0
M  V30 4279 N 399.219 -4.67078 -3.12721 0
M  V30 4280 H 391.37 -2.1136 -0.20989 0
M  V30 4281 H 393.633 -0.935128 -0.155692 0
M  V30 4282 H 393.339 -3.32267 -1.15289 0
M  V30 4283 H 393.213 -2.58989 -2.74234 0
M  V30 4284 H 395.6 -1.64137 -2.45241 0
M  V30 4285 H 395.681 -2.40901 -0.860242 0
M  V30 4286 H 395.325 -4.68402 -1.96372 0
M  V30 4287 H 395.255 -3.88529 -3.55461 0
M  V30 4288 H 397.746 -3.04465 -2.23851 0
M  V30 4289 H 398.059 -6.57624 -4.05894 0
M  V30 4290 H 396.404 -5.91054 -3.65623 0
M  V30 4291 H 399.595 -3.82067 -2.70449 0
M  V30 4292 H 399.768 -5.43098 -3.53481 0
M  V30 4293 N 393.175 1.03435 -1.18907 0
M  V30 4294 C 394.123 2.13703 -0.918353 0
M  V30 4295 C 395.117 1.68947 0.123767 0
M  V30 4296 O 396.323 1.79983 -0.0249701 0
M  V30 4297 H 392.698 0.698112 -0.279542 0
M  V30 4298 H 394.669 2.33731 -1.85506 0
M  V30 4299 C 393.418 3.44542 -0.467532 0
M  V30 4300 H 392.741 3.79394 -1.26095 0
M  V30 4301 H 394.181 4.22812 -0.317164 0
M  V30 4302 C 392.64 3.26829 0.817588 0
M  V30 4303 O 393.17 3.54975 1.88031 0
M  V30 4304 N 391.376 2.80139 0.772677 0
M  V30 4305 H 390.923 2.57434 -0.0923883 0
M  V30 4306 H 390.881 2.68668 1.63294 0
M  V30 4307 N 394.653 0.992116 1.22453 0
M  V30 4308 C 395.901 0.666215 1.90804 0
M  V30 4309 C 396.222 -0.804152 1.77647 0
M  V30 4310 O 395.492 -1.57629 1.16318 0
M  V30 4311 H 394.072 0.243423 0.706225 0
M  V30 4312 H 396.734 1.25845 1.48825 0
M  V30 4313 H 395.83 0.928069 2.97982 0
M  V30 4314 N 396.131 -1.37776 0.765217 0
M  V30 4315 C 397.063 -2.28958 0.105361 0
M  V30 4316 C 398.076 -1.48316 -0.67128 0
M  V30 4317 O 399.265 -1.71046 -0.51045 0
M  V30 4318 C 396.365 -3.27421 -0.874569 0
M  V30 4319 C 395.538 -4.37132 -0.153123 0
M  V30 4320 C 394.597 -5.1571 -1.04547 0
M  V30 4321 O 393.623 -5.66896 -0.511672 0
M  V30 4322 N 394.825 -5.29808 -2.37243 0
M  V30 4323 H 397.59 -2.86227 0.888495 0
M  V30 4324 H 395.151 -1.49682 0.617 0
M  V30 4325 H 397.143 -3.7687 -1.47483 0
M  V30 4326 H 395.713 -2.70967 -1.55871 0
M  V30 4327 H 394.933 -3.89166 0.627975 0
M  V30 4328 H 396.221 -5.07625 0.345643 0
M  V30 4329 H 395.619 -4.89793 -2.83054 0
M  V30 4330 H 394.176 -5.82589 -2.9229 0
M  V30 4331 N 397.609 -0.515225 -1.4894 0
M  V30 4332 C 398.572 0.244681 -2.2789 0
M  V30 4333 C 399.572 0.881166 -1.34507 0
M  V30 4334 O 400.762 0.743497 -1.57537 0
M  V30 4335 C 397.894 1.35247 -3.12923 0
M  V30 4336 H 399.087 -0.448289 -2.96531 0
M  V30 4337 H 396.64 -0.270656 -1.53939 0
M  V30 4338 H 397.375 2.07916 -2.48881 0
M  V30 4339 H 397.16 0.901374 -3.81599 0
M  V30 4340 H 398.65 1.88737 -3.72516 0
M  V30 4341 N 399.087 1.5561 -0.249682 0
M  V30 4342 C 400.335 1.98618 0.373548 0
M  V30 4343 C 400.656 1.13919 1.58264 0
M  V30 4344 O 399.926 0.222637 1.94631 0
M  V30 4345 H 398.506 0.733571 0.141006 0
M  V30 4346 H 401.168 1.91748 -0.349117 0
M  V30 4347 H 400.264 3.04584 0.680796 0
M  V30 4348 N 400.565 -0.0233959 1.57583 0
M  V30 4349 C 401.813 -0.711654 1.89156 0
M  V30 4350 C 402.134 -1.75591 0.848096 0
M  V30 4351 O 401.404 -1.95547 -0.117566 0
M  V30 4352 H 399.984 -0.265835 0.698098 0
M  V30 4353 H 402.646 0.0119948 1.94896 0
M  V30 4354 H 401.742 -1.19766 2.88206 0
M  V30 4355 N 402.043 -1.548 -0.295768 0
M  V30 4356 C 403.291 -1.73985 -1.02828 0
M  V30 4357 C 403.612 -0.531406 -1.87619 0
M  V30 4358 O 402.882 0.454221 -1.90561 0
M  V30 4359 H 401.462 -0.641556 -0.382642 0
M  V30 4360 H 404.124 -1.92163 -0.325489 0
M  V30 4361 H 403.22 -2.63129 -1.67838 0
M  V30 4362 N 403.521 0.559213 -1.47345 0
M  V30 4363 C 404.769 1.31388 -1.53563 0
M  V30 4364 C 405.09 1.93985 -0.198678 0
M  V30 4365 O 404.36 1.79825 0.777167 0
M  V30 4366 H 402.94 0.487901 -0.565652 0
M  V30 4367 H 405.602 0.65315 -1.8363 0
M  V30 4368 H 404.698 2.10844 -2.30111 0
M  V30 4369 N 404.999 1.35443 0.805782 0
M  V30 4370 C 406.247 1.28507 1.55982 0
M  V30 4371 C 406.568 -0.140046 1.94496 0
M  V30 4372 O 405.838 -1.07666 1.63661 0
M  V30 4373 H 404.418 0.472676 0.578434 0
M  V30 4374 H 407.08 1.69555 0.961098 0
M  V30 4375 H 406.176 1.90148 2.47488 0
M  V30 4376 N 406.477 -1.02803 1.19454 0
M  V30 4377 C 407.725 -1.75869 0.995722 0
M  V30 4378 C 408.046 -1.89138 -0.474543 0
M  V30 4379 O 407.316 -1.42558 -1.34366 0
M  V30 4380 H 405.896 -0.651511 0.365435 0
M  V30 4381 H 408.558 -1.24004 1.50363 0
M  V30 4382 H 407.654 -2.76661 1.44447 0
M  V30 4383 N 407.956 -0.998596 -1.21925 0
M  V30 4384 C 409.204 -0.676325 -1.90448 0
M  V30 4385 C 409.525 0.794719 -1.78071 0
M  V30 4386 O 408.795 1.5701 -1.17152 0
M  V30 4387 H 407.375 -0.247165 -0.704925 0
M  V30 4388 H 410.037 -1.26633 -1.48156 0
M  V30 4389 H 409.133 -0.943858 -2.97486 0
M  V30 4390 N 409.434 1.37368 -0.772513 0
M  V30 4391 C 410.659 2.0447 -0.347386 0
M  V30 4392 C 411.084 1.57882 1.0225 0
M  V30 4393 O 410.442 0.73941 1.65537 0
M  V30 4394 C 410.49 3.58369 -0.400479 0
M  V30 4395 O 409.594 4.0803 0.598789 0
M  V30 4396 H 408.935 0.646773 -0.15027 0
M  V30 4397 H 411.465 1.75667 -1.04892 0
M  V30 4398 H 411.475 4.07183 -0.258045 0
M  V30 4399 H 410.15 3.91633 -1.39986 0
M  V30 4400 H 408.727 3.70534 0.419411 0
M  V30 4401 N 410.912 0.523116 1.48665 0
M  V30 4402 C 411.875 -0.232592 2.28017 0
M  V30 4403 C 412.875 -0.874021 1.34972 0
M  V30 4404 O 414.065 -0.735132 1.57929 0
M  V30 4405 C 411.197 -1.33586 3.13636 0
M  V30 4406 H 412.39 0.464008 2.96289 0
M  V30 4407 H 409.943 0.278816 1.53793 0
M  V30 4408 H 410.678 -2.06593 2.4998 0
M  V30 4409 H 410.463 -0.881125 3.82071 0
M  V30 4410 H 411.953 -1.86759 3.73511 0
M  V30 4411 N 412.39 -1.55475 0.257931 0
M  V30 4412 C 413.34 -2.18506 -0.651094 0
M  V30 4413 C 414.324 -1.14431 -1.13112 0
M  V30 4414 O 415.516 -1.40305 -1.07905 0
M  V30 4415 C 412.645 -2.89653 -1.84272 0
M  V30 4416 C 411.731 -4.00996 -1.38068 0
M  V30 4417 N 412.122 -5.01816 -0.633609 0
M  V30 4418 C 410.42 -4.13753 -1.66506 0
M  V30 4419 C 411.121 -5.80371 -0.392922 0
M  V30 4420 N 410.097 -5.3505 -0.960359 0
M  V30 4421 H 413.899 -2.93811 -0.0722883 0
M  V30 4422 H 411.413 -1.62286 0.0607256 0
M  V30 4423 H 413.41 -3.33245 -2.50506 0
M  V30 4424 H 412.07 -2.15854 -2.42564 0
M  V30 4425 H 413.081 -5.17128 -0.282626 0
M  V30 4426 H 409.758 -3.51133 -2.25858 0
M  V30 4427 H 411.148 -6.7159 0.204235 0
M  V30 4428 N 413.868 0.0150385 -1.57593 0
M  V30 4429 C 415.096 0.714395 -1.94175 0
M  V30 4430 C 415.511 1.68135 -0.858841 0
M  V30 4431 O 414.868 1.81766 0.163567 0
M  V30 4432 C 414.919 1.45933 -3.30735 0
M  V30 4433 O 414.64 0.531167 -4.34868 0
M  V30 4434 C 416.141 2.25456 -3.81686 0
M  V30 4435 H 413.361 0.199923 -0.640525 0
M  V30 4436 H 415.905 -0.0316096 -2.04476 0
M  V30 4437 H 414.06 2.15709 -3.21789 0
M  V30 4438 H 414.474 1.05509 -5.13778 0
M  V30 4439 H 415.948 2.731 -4.79709 0
M  V30 4440 H 416.425 3.07485 -3.13607 0
M  V30 4441 H 417.031 1.60727 -3.9376 0
M  V30 4442 N 415.346 1.54954 0.287554 0
M  V30 4443 C 416.574 1.78881 1.03967 0
M  V30 4444 C 416.989 0.554894 1.80462 0
M  V30 4445 O 416.346 -0.475676 1.76192 0
M  V30 4446 C 416.397 3.00488 2.0097 0
M  V30 4447 O 416.118 4.19113 1.27577 0
M  V30 4448 C 417.619 3.36907 2.88112 0
M  V30 4449 H 414.839 0.596259 0.307761 0
M  V30 4450 H 417.383 2.01937 0.322749 0
M  V30 4451 H 415.538 2.79601 2.68145 0
M  V30 4452 H 415.952 4.87765 1.92835 0
M  V30 4453 H 417.426 4.25205 3.52001 0
M  V30 4454 H 417.903 2.55659 3.57121 0
M  V30 4455 H 418.509 3.60001 2.26449 0
M  V30 4456 N 416.824 -0.551391 1.4764 0
M  V30 4457 C 418.101 -1.31229 1.45046 0
M  V30 4458 C 418.481 -2.10563 0.150527 0
M  V30 4459 O 417.829 -2.11374 -0.867956 0
M  V30 4460 C 418.039 -2.21189 2.69956 0
M  V30 4461 C 419.387 -2.82021 3.1741 0
M  V30 4462 O 420.411 -2.31488 2.70724 0
M  V30 4463 O 419.27 -3.73885 3.98588 0
M  V30 4464 H 416.364 -0.591193 0.578291 0
M  V30 4465 H 418.91 -0.569813 1.59847 0
M  V30 4466 H 417.682 -1.62207 3.56096 0
M  V30 4467 H 417.305 -3.02722 2.57769 0
M  V30 4468 N 418.302 -1.35869 -0.798587 0
M  V30 4469 C 419.53 -1.32722 -1.58722 0
M  V30 4470 C 419.945 0.0935631 -1.88568 0
M  V30 4471 O 419.302 1.04784 -1.49421 0
M  V30 4472 C 419.353 -2.13974 -2.91371 0
M  V30 4473 O 419.074 -3.50514 -2.62815 0
M  V30 4474 C 420.575 -2.18504 -3.85708 0
M  V30 4475 H 417.795 -0.45562 -0.492596 0
M  V30 4476 H 420.339 -1.78837 -0.991843 0
M  V30 4477 H 418.494 -1.71438 -3.47402 0
M  V30 4478 H 418.908 -3.92806 -3.47568 0
M  V30 4479 H 420.382 -2.79732 -4.75872 0
M  V30 4480 H 420.859 -1.18597 -4.22885 0
M  V30 4481 H 421.465 -2.61236 -3.35612 0
M  V30 4482 N 419.78 1.02168 -1.19998 0
M  V30 4483 C 420.743 2.08765 -0.94604 0
M  V30 4484 C 421.743 1.60618 0.0763846 0
M  V30 4485 O 422.933 1.73472 -0.159135 0
M  V30 4486 C 420.065 3.38262 -0.423255 0
M  V30 4487 H 421.258 2.32726 -1.89153 0
M  V30 4488 H 418.811 1.1889 -1.01464 0
M  V30 4489 H 419.546 3.19974 0.527938 0
M  V30 4490 H 419.331 3.74532 -1.16053 0
M  V30 4491 H 420.821 4.16759 -0.264911 0
M  V30 4492 N 421.258 1.00505 1.21394 0
M  V30 4493 C 422.483 0.706367 1.95001 0
M  V30 4494 C 422.908 -0.72463 1.73582 0
M  V30 4495 O 422.266 -1.49702 1.0227 0
M  V30 4496 C 422.314 1.03299 3.45487 0
M  V30 4497 O 421.418 0.138275 4.12168 0
M  V30 4498 H 420.759 0.263175 0.609619 0
M  V30 4499 H 423.289 1.34531 1.54151 0
M  V30 4500 H 423.299 0.979872 3.96059 0
M  V30 4501 H 421.974 2.07567 3.60401 0
M  V30 4502 H 420.551 0.247928 3.72075 0
M  V30 4503 N 422.737 -1.36956 0.779787 0
M  V30 4504 C 423.962 -2.04283 0.358224 0
M  V30 4505 C 424.387 -1.58422 -1.01411 0
M  V30 4506 O 423.745 -0.748179 -1.65142 0
M  V30 4507 C 423.793 -3.58152 0.419479 0
M  V30 4508 O 422.897 -4.08342 -0.577142 0
M  V30 4509 H 422.238 -0.645967 0.153698 0
M  V30 4510 H 424.768 -1.75108 1.05822 0
M  V30 4511 H 424.778 -4.07041 0.279636 0
M  V30 4512 H 423.453 -3.90886 1.42061 0
M  V30 4513 H 422.03 -3.70751 -0.399755 0
M  V30 4514 N 424.215 -0.530993 -1.48385 0
M  V30 4515 C 425.443 -0.00134122 -2.069 0
M  V30 4516 C 425.858 1.2805 -1.3874 0
M  V30 4517 O 425.215 1.76204 -0.475244 0
M  V30 4518 C 425.266 0.225256 -3.60798 0
M  V30 4519 O 424.987 -1.0058 -4.26398 0
M  V30 4520 C 426.488 0.795172 -4.3611 0
M  V30 4521 H 423.708 -0.0339704 -0.67014 0
M  V30 4522 H 426.252 -0.736926 -1.90761 0
M  V30 4523 H 424.407 0.910891 -3.76539 0
M  V30 4524 H 424.821 -0.787165 -5.1856 0
M  V30 4525 H 426.295 0.903143 -5.44562 0
M  V30 4526 H 426.772 1.80031 -4.00606 0
M  V30 4527 H 427.378 0.146069 -4.25049 0
M  V30 4528 N 425.693 1.55336 -0.266172 0
M  V30 4529 C 426.656 2.20878 0.612001 0
M  V30 4530 C 427.656 1.18388 1.08816 0
M  V30 4531 O 428.846 1.4335 0.989774 0
M  V30 4532 C 425.978 2.86765 1.84332 0
M  V30 4533 H 427.171 2.99873 0.0398718 0
M  V30 4534 H 424.724 1.56291 -0.0167309 0
M  V30 4535 H 425.459 2.11759 2.45619 0
M  V30 4536 H 425.244 3.61862 1.5099 0
M  V30 4537 H 426.734 3.36867 2.46801 0
M  V30 4538 N 427.171 -0.0066808 1.57599 0
M  V30 4539 C 428.134 -0.985035 2.06953 0
M  V30 4540 C 429.134 -1.27663 0.977687 0
M  V30 4541 O 430.324 -1.22293 1.24057 0
M  V30 4542 C 427.456 -2.3118 2.50536 0
M  V30 4543 H 428.649 -0.558255 2.94658 0
M  V30 4544 H 426.202 -0.254011 1.54222 0
M  V30 4545 H 426.937 -2.78561 1.66054 0
M  V30 4546 H 426.722 -2.11338 3.3027 0
M  V30 4547 H 428.212 -3.01377 2.8907 0
M  V30 4548 N 428.649 -1.55105 -0.279332 0
M  V30 4549 C 429.612 -1.86783 -1.32834 0
M  V30 4550 C 430.612 -0.74199 -1.42657 0
M  V30 4551 O 431.802 -1.0102 -1.41918 0
M  V30 4552 C 428.934 -2.06746 -2.71052 0
M  V30 4553 H 430.127 -2.8055 -1.05979 0
M  V30 4554 H 427.68 -1.47499 -0.517087 0
M  V30 4555 H 428.415 -1.15339 -3.03097 0
M  V30 4556 H 428.2 -2.88711 -2.65309 0
M  V30 4557 H 429.69 -2.32549 -3.46858 0
M  V30 4558 N 430.127 0.543554 -1.4793 0
M  V30 4559 C 431.375 1.29752 -1.54948 0
M  V30 4560 C 431.696 1.93764 -0.219242 0
M  V30 4561 O 430.966 1.80639 0.75805 0
M  V30 4562 H 429.546 0.481874 -0.570795 0
M  V30 4563 H 432.208 0.633636 -1.84312 0
M  V30 4564 H 431.304 2.08392 -2.32334 0
M  V30 4565 N 431.605 1.3629 0.791371 0
M  V30 4566 C 432.853 1.30154 1.5461 0
M  V30 4567 C 433.174 -0.119409 1.94634 0
M  V30 4568 O 432.444 -1.05924 1.64794 0
M  V30 4569 H 431.024 0.478784 0.573389 0
M  V30 4570 H 433.686 1.70565 0.94306 0
M  V30 4571 H 432.782 1.92762 2.45457 0
M  V30 4572 N 433.083 -1.0153 1.20538 0
M  V30 4573 C 434.331 -1.74803 1.01432 0
M  V30 4574 C 434.652 -1.8963 -0.454456 0
M  V30 4575 O 433.922 -1.43975 -1.32846 0
M  V30 4576 H 432.502 -0.647598 0.372324 0
M  V30 4577 H 435.164 -1.22402 1.5167 0
M  V30 4578 H 434.26 -2.75114 1.47373 0
M  V30 4579 N 434.561 -1.01147 -1.20859 0
M  V30 4580 C 435.809 -0.696486 -1.89719 0
M  V30 4581 C 436.13 0.775788 -1.78904 0
M  V30 4582 O 435.4 1.55759 -1.18811 0
M  V30 4583 H 433.98 -0.254628 -0.702263 0
M  V30 4584 H 436.642 -1.28197 -1.46804 0
M  V30 4585 H 435.738 -0.975357 -2.96468 0
M  V30 4586 N 436.039 1.36541 -0.78704 0
M  V30 4587 C 437.286 1.99304 -0.358341 0
M  V30 4588 C 437.614 1.62467 1.06933 0
M  V30 4589 O 436.869 0.870019 1.75297 0
M  V30 4590 C 437.168 3.54343 -0.466485 0
M  V30 4591 C 436.834 4.10993 -1.85461 0
M  V30 4592 C 435.496 4.26177 -2.23443 0
M  V30 4593 C 437.848 4.41895 -2.76366 0
M  V30 4594 C 435.176 4.69573 -3.51736 0
M  V30 4595 C 437.528 4.86722 -4.04084 0
M  V30 4596 C 436.192 5.00112 -4.42091 0
M  V30 4597 H 435.462 0.729306 -0.131126 0
M  V30 4598 H 438.109 1.63068 -1.00404 0
M  V30 4599 H 436.414 3.90918 0.262719 0
M  V30 4600 H 438.111 4.00833 -0.115854 0
M  V30 4601 H 434.701 3.99612 -1.54946 0
M  V30 4602 H 438.885 4.29735 -2.48277 0
M  V30 4603 H 434.141 4.78127 -3.81057 0
M  V30 4604 H 438.315 5.09598 -4.7464 0
M  V30 4605 H 435.942 5.33498 -5.41557 0
M  V30 4606 N 437.518 0.538854 1.48102 0
M  V30 4607 C 438.934 0.19732 1.58376 0
M  V30 4608 C 439.134 -1.29971 1.5398 0
M  V30 4609 O 438.19 -2.07861 1.43352 0
M  V30 4610 C 439.503 0.807716 2.89649 0
M  V30 4611 C 441.051 0.77726 3.03196 0
M  V30 4612 C 441.526 1.36639 4.37143 0
M  V30 4613 N 443.017 1.32875 4.43732 0
M  V30 4614 C 443.752 1.7544 5.45901 0
M  V30 4615 N 443.248 2.25776 6.54979 0
M  V30 4616 N 445.041 1.66623 5.36836 0
M  V30 4617 H 437.192 1.5117 1.49202 0
M  V30 4618 H 439.455 0.629327 0.708979 0
M  V30 4619 H 439.161 1.85909 2.98548 0
M  V30 4620 H 439.035 0.289975 3.76084 0
M  V30 4621 H 441.422 -0.265374 2.93904 0
M  V30 4622 H 441.503 1.33256 2.18349 0
M  V30 4623 H 441.147 2.408 4.47189 0
M  V30 4624 H 441.077 0.786689 5.20691 0
M  V30 4625 H 443.568 0.96037 3.65493 0
M  V30 4626 H 443.881 2.56226 7.29087 0
M  V30 4627 H 442.226 2.29775 6.55918 0
M  V30 4628 H 445.417 1.27089 4.50517 0
M  V30 4629 H 445.59 2.00115 6.16326 0
M  V30 4630 N 438.996 -1.55193 0.274407 0
M  V30 4631 C 439.944 -2.23924 -0.629362 0
M  V30 4632 C 440.938 -1.23602 -1.1584 0
M  V30 4633 O 442.144 -1.41535 -1.11211 0
M  V30 4634 H 438.519 -0.718637 -0.221507 0
M  V30 4635 H 440.49 -2.98388 -0.0268322 0
M  V30 4636 C 439.239 -2.97329 -1.80252 0
M  V30 4637 H 438.562 -3.74313 -1.40462 0
M  V30 4638 H 440.002 -3.48743 -2.41152 0
M  V30 4639 C 438.461 -2.0276 -2.69054 0
M  V30 4640 O 438.991 -1.57836 -3.69392 0
M  V30 4641 N 437.197 -1.69275 -2.36208 0
M  V30 4642 H 436.744 -2.06004 -1.54661 0
M  V30 4643 H 436.702 -1.06271 -2.95895 0
M  V30 4644 N 440.474 -0.00167713 -1.576 0
M  V30 4645 C 441.72 0.683832 -1.90923 0
M  V30 4646 C 442.053 1.7333 -0.875799 0
M  V30 4647 O 441.328 1.94215 0.10525 0
M  V30 4648 C 441.611 1.32543 -3.3482 0
M  V30 4649 C 441.464 0.287387 -4.48881 0
M  V30 4650 C 442.783 2.25114 -3.78169 0
M  V30 4651 H 439.902 0.247125 -0.694333 0
M  V30 4652 H 442.544 -0.0533149 -1.89925 0
M  V30 4653 H 440.694 1.95372 -3.35801 0
M  V30 4654 H 442.366 -0.341346 -4.60035 0
M  V30 4655 H 440.609 -0.39017 -4.32042 0
M  V30 4656 H 441.28 0.775393 -5.46527 0
M  V30 4657 H 443.756 1.723 -3.7875 0
M  V30 4658 H 442.632 2.66971 -4.79602 0
M  V30 4659 H 442.893 3.13092 -3.12131 0
M  V30 4660 N 441.952 1.55251 0.271103 0
M  V30 4661 C 443.182 1.79713 1.01916 0
M  V30 4662 C 443.59 0.571613 1.80359 0
M  V30 4663 O 442.933 -0.468853 1.77616 0
M  V30 4664 C 442.995 2.97138 2.02359 0
M  V30 4665 C 442.659 4.34104 1.42837 0
M  V30 4666 C 443.656 5.13019 0.843071 0
M  V30 4667 C 441.341 4.80765 1.455 0
M  V30 4668 C 443.335 6.36729 0.292333 0
M  V30 4669 C 441.022 6.0443 0.900402 0
M  V30 4670 C 442.02 6.8225 0.32007 0
M  V30 4671 O 441.708 8.03582 -0.226031 0
M  V30 4672 H 441.44 0.602431 0.306681 0
M  V30 4673 H 443.994 2.03097 0.306701 0
M  V30 4674 H 442.224 2.6945 2.77369 0
M  V30 4675 H 443.913 3.08907 2.63309 0
M  V30 4676 H 444.679 4.781 0.815178 0
M  V30 4677 H 440.558 4.20202 1.89609 0
M  V30 4678 H 444.102 6.97414 -0.161274 0
M  V30 4679 H 439.999 6.3883 0.925541 0
M  V30 4680 H 440.767 8.18418 -0.115572 0
M  V30 4681 N 443.43 -0.535701 1.48216 0
M  V30 4682 C 444.393 -1.623 1.61838 0
M  V30 4683 C 445.393 -1.53087 0.492024 0
M  V30 4684 O 446.583 -1.5686 0.757668 0
M  V30 4685 C 443.715 -3.01907 1.58319 0
M  V30 4686 H 444.908 -1.51564 2.58783 0
M  V30 4687 H 442.461 -0.757317 1.36727 0
M  V30 4688 H 443.196 -3.18155 0.628299 0
M  V30 4689 H 442.981 -3.10003 2.40085 0
M  V30 4690 H 444.471 -3.80969 1.71033 0
M  V30 4691 N 444.908 -1.36708 -0.784132 0
M  V30 4692 C 445.818 -1.3363 -1.92822 0
M  V30 4693 C 446.834 -0.237686 -1.72369 0
M  V30 4694 O 448.01 -0.470962 -1.95816 0
M  V30 4695 C 445.075 -1.13011 -3.27764 0
M  V30 4696 C 444.136 -2.32397 -3.60957 0
M  V30 4697 C 443.369 -2.12752 -4.89461 0
M  V30 4698 O 443.592 -1.10541 -5.59586 0
M  V30 4699 O 442.526 -3.00653 -5.21432 0
M  V30 4700 H 446.352 -2.29964 -1.98369 0
M  V30 4701 H 443.937 -1.1731 -0.925136 0
M  V30 4702 H 445.819 -1.03451 -4.08504 0
M  V30 4703 H 444.494 -0.19743 -3.23097 0
M  V30 4704 H 443.401 -2.47527 -2.80502 0
M  V30 4705 H 444.734 -3.2419 -3.70354 0
M  V30 4706 N 446.386 1.0089 -1.21074 0
M  V30 4707 C 447.632 1.74866 -1.02712 0
M  V30 4708 C 447.965 1.89178 0.438787 0
M  V30 4709 O 447.24 1.42325 1.32567 0
M  V30 4710 C 447.523 3.16347 -1.72036 0
M  V30 4711 C 447.376 3.09782 -3.26121 0
M  V30 4712 C 448.695 4.15187 -1.45973 0
M  V30 4713 H 445.814 0.634736 -0.374539 0
M  V30 4714 H 448.456 1.17646 -1.49196 0
M  V30 4715 H 446.606 3.65201 -1.32517 0
M  V30 4716 H 448.278 2.68673 -3.74983 0
M  V30 4717 H 446.521 2.46982 -3.56626 0
M  V30 4718 H 447.192 4.09829 -3.6979 0
M  V30 4719 H 449.668 3.75022 -1.80272 0
M  V30 4720 H 448.544 5.12331 -1.96999 0
M  V30 4721 H 448.805 4.40386 -0.388924 0
M  V30 4722 N 447.864 1.01787 1.20321 0
M  V30 4723 C 448.794 0.609625 2.25401 0
M  V30 4724 C 449.775 -0.375951 1.65893 0
M  V30 4725 O 450.96 -0.261101 1.92437 0
M  V30 4726 C 448.09 -0.0515995 3.47262 0
M  V30 4727 C 447.044 0.855095 4.19371 0
M  V30 4728 C 446.37 0.0595757 5.34667 0
M  V30 4729 C 447.67 2.16374 4.75373 0
M  V30 4730 H 449.364 1.48803 2.59804 0
M  V30 4731 H 446.91 0.716934 1.24884 0
M  V30 4732 H 448.863 -0.348764 4.19954 0
M  V30 4733 H 447.587 -0.964726 3.12027 0
M  V30 4734 H 446.246 1.13628 3.48546 0
M  V30 4735 H 445.894 -0.85524 4.95676 0
M  V30 4736 H 445.594 0.663406 5.83843 0
M  V30 4737 H 447.118 -0.231105 6.10162 0
M  V30 4738 H 448.532 1.92885 5.39878 0
M  V30 4739 H 446.929 2.71853 5.34991 0
M  V30 4740 H 447.999 2.82589 3.94045 0
M  V30 4741 N 449.342 -1.36122 0.79427 0
M  V30 4742 C 450.292 -2.27373 0.169017 0
M  V30 4743 C 451.276 -1.4719 -0.649913 0
M  V30 4744 O 452.468 -1.69518 -0.50919 0
M  V30 4745 C 449.597 -3.36264 -0.691455 0
M  V30 4746 C 448.683 -4.2388 0.13653 0
M  V30 4747 N 449.074 -4.91519 1.19345 0
M  V30 4748 C 447.372 -4.45921 -0.0838499 0
M  V30 4749 C 448.073 -5.56369 1.6979 0
M  V30 4750 N 447.049 -5.34204 1.00634 0
M  V30 4751 H 450.851 -2.77154 0.977897 0
M  V30 4752 H 448.365 -1.49504 0.634208 0
M  V30 4753 H 450.362 -4.00572 -1.15534 0
M  V30 4754 H 449.022 -2.88037 -1.49883 0
M  V30 4755 H 450.033 -4.9334 1.57594 0
M  V30 4756 H 446.71 -4.08518 -0.861341 0
M  V30 4757 H 448.1 -6.20368 2.58055 0
M  V30 4758 N 450.82 -0.546701 -1.47814 0
M  V30 4759 C 452.067 -0.0187407 -2.02491 0
M  V30 4760 C 452.395 1.32685 -1.42215 0
M  V30 4761 O 451.65 1.87413 -0.563454 0
M  V30 4762 C 451.949 0.134869 -3.57145 0
M  V30 4763 C 451.615 -1.13849 -4.3629 0
M  V30 4764 C 450.277 -1.48743 -4.57634 0
M  V30 4765 C 452.629 -1.98277 -4.82012 0
M  V30 4766 C 449.957 -2.67932 -5.21948 0
M  V30 4767 C 452.309 -3.16659 -5.4764 0
M  V30 4768 C 450.973 -3.51879 -5.67219 0
M  V30 4769 H 450.243 -0.0068577 -0.740968 0
M  V30 4770 H 452.89 -0.716097 -1.77607 0
M  V30 4771 H 451.195 0.915118 -3.80963 0
M  V30 4772 H 452.892 0.558556 -3.97091 0
M  V30 4773 H 449.482 -0.856767 -4.19949 0
M  V30 4774 H 453.666 -1.72628 -4.6531 0
M  V30 4775 H 448.922 -2.95401 -5.35302 0
M  V30 4776 H 453.096 -3.82374 -5.82033 0
M  V30 4777 H 450.723 -4.44331 -6.16825 0
M  V30 4778 N 452.299 1.55045 -0.282633 0
M  V30 4779 C 453.231 2.2023 0.634924 0
M  V30 4780 C 454.244 1.18931 1.11172 0
M  V30 4781 O 455.433 1.4562 1.03233 0
M  V30 4782 C 452.533 2.82041 1.87899 0
M  V30 4783 C 451.706 4.091 1.54776 0
M  V30 4784 C 450.765 4.54887 2.64507 0
M  V30 4785 O 449.791 5.20496 2.30375 0
M  V30 4786 N 450.993 4.25659 3.94709 0
M  V30 4787 H 453.758 2.99601 0.0769811 0
M  V30 4788 H 451.319 1.61565 -0.104048 0
M  V30 4789 H 453.311 3.09613 2.60619 0
M  V30 4790 H 451.881 2.06618 2.3458 0
M  V30 4791 H 451.101 3.88736 0.654049 0
M  V30 4792 H 452.389 4.9187 1.30158 0
M  V30 4793 H 451.787 3.7306 4.25256 0
M  V30 4794 H 450.344 4.57984 4.63782 0
M  V30 4795 N 453.777 0.010035 1.57597 0
M  V30 4796 C 455.002 -0.687021 1.95691 0
M  V30 4797 C 455.427 -1.65952 0.885519 0
M  V30 4798 O 454.785 -1.80633 -0.15543 0
M  V30 4799 C 454.833 -1.3864 3.32884 0
M  V30 4800 O 453.937 -2.50115 3.27897 0
M  V30 4801 H 453.278 -0.181989 0.638573 0
M  V30 4802 H 455.808 0.0662122 2.04493 0
M  V30 4803 H 455.818 -1.74754 3.6868 0
M  V30 4804 H 454.493 -0.673411 4.10412 0
M  V30 4805 H 453.07 -2.16253 3.03791 0
M  V30 4806 N 455.255 -1.55392 -0.262866 0
M  V30 4807 C 456.188 -1.8391 -1.35101 0
M  V30 4808 C 457.166 -0.692901 -1.47097 0
M  V30 4809 O 458.35 -0.936979 -1.63563 0
M  V30 4810 C 455.477 -2.00969 -2.72634 0
M  V30 4811 C 454.523 -3.23559 -2.7787 0
M  V30 4812 S 455.356 -4.80647 -2.3609 0
M  V30 4813 C 456.512 -5.00692 -3.75578 0
M  V30 4814 H 456.745 -2.75918 -1.1071 0
M  V30 4815 H 454.278 -1.47294 -0.463029 0
M  V30 4816 H 456.236 -2.11482 -3.51832 0
M  V30 4817 H 454.897 -1.09832 -2.94272 0
M  V30 4818 H 454.09 -3.32413 -3.78837 0
M  V30 4819 H 453.692 -3.11689 -2.06702 0
M  V30 4820 H 455.984 -4.87055 -4.70939 0
M  V30 4821 H 456.927 -6.02717 -3.71669 0
M  V30 4822 H 457.335 -4.28619 -3.6735 0
M  V30 4823 N 456.733 0.527833 -1.48498 0
M  V30 4824 C 457.973 1.29401 -1.58224 0
M  V30 4825 C 458.337 1.90348 -0.251327 0
M  V30 4826 O 459.538 2.67868 -0.223588 0
M  V30 4827 C 457.809 2.35266 -2.69044 0
M  V30 4828 S 459.368 3.2158 -2.98549 0
M  V30 4829 H 456.186 0.440138 -0.558391 0
M  V30 4830 H 458.788 0.601079 -1.8603 0
M  V30 4831 H 457.492 1.88975 -3.64303 0
M  V30 4832 H 457.023 3.09263 -2.43146 0
M  V30 4833 H 459.038 4.35391 -2.38011 0
M  V30 4834 N 458.211 1.37122 0.776871 0
M  V30 4835 C 459.436 1.354 1.57104 0
M  V30 4836 C 459.861 -0.0595562 1.88006 0
M  V30 4837 O 459.219 -1.03514 1.48844 0
M  V30 4838 C 459.267 2.19472 2.8612 0
M  V30 4839 O 458.371 1.59582 3.80273 0
M  V30 4840 H 457.712 0.462869 0.476076 0
M  V30 4841 H 460.242 1.80577 0.961932 0
M  V30 4842 H 460.252 2.32502 3.35271 0
M  V30 4843 H 458.927 3.22222 2.62956 0
M  V30 4844 H 457.504 1.55564 3.38902 0
M  V30 4845 N 459.689 -1.00246 1.21608 0
M  V30 4846 C 460.929 -1.75589 1.04631 0
M  V30 4847 C 461.293 -1.87513 -0.412648 0
M  V30 4848 O 462.494 -2.59444 -0.703003 0
M  V30 4849 C 460.765 -3.12893 1.72722 0
M  V30 4850 S 462.324 -4.04095 1.71034 0
M  V30 4851 H 459.142 -0.604133 0.374892 0
M  V30 4852 H 461.744 -1.19927 1.54395 0
M  V30 4853 H 460.448 -3.0185 2.78055 0
M  V30 4854 H 459.979 -3.73628 1.23149 0
M  V30 4855 H 461.994 -4.9045 0.753231 0
M  V30 4856 N 461.167 -1.02423 -1.1978 0
M  V30 4857 C 462.097 -0.62157 -2.25075 0
M  V30 4858 C 463.078 0.367148 -1.6609 0
M  V30 4859 O 464.263 0.250892 -1.92573 0
M  V30 4860 C 461.393 0.0331826 -3.47284 0
M  V30 4861 C 460.347 -0.877323 -4.18912 0
M  V30 4862 C 459.673 -0.0879296 -5.34628 0
M  V30 4863 C 460.973 -2.18892 -4.74219 0
M  V30 4864 H 462.667 -1.50179 -2.59011 0
M  V30 4865 H 460.213 -0.723547 -1.24502 0
M  V30 4866 H 462.166 0.326488 -4.20133 0
M  V30 4867 H 460.89 0.948164 -3.12534 0
M  V30 4868 H 459.549 -1.15475 -3.47938 0
M  V30 4869 H 459.197 0.828941 -4.96123 0
M  V30 4870 H 458.897 -0.694359 -5.83483 0
M  V30 4871 H 460.421 0.198743 -6.10276 0
M  V30 4872 H 461.835 -1.95746 -5.38847 0
M  V30 4873 H 460.232 -2.74686 -5.33542 0
M  V30 4874 H 461.302 -2.84674 -3.92541 0
M  V30 4875 N 462.645 1.35699 -0.801477 0
M  V30 4876 C 463.891 1.99643 -0.389135 0
M  V30 4877 C 464.246 1.62447 1.03095 0
M  V30 4878 O 463.539 0.875064 1.7045 0
M  V30 4879 C 463.733 3.53828 -0.504041 0
M  V30 4880 C 463.562 4.06 -1.93375 0
M  V30 4881 C 462.332 4.35592 -2.561 0
M  V30 4882 C 464.53 4.24905 -2.89759 0
M  V30 4883 N 462.512 4.73663 -3.90534 0
M  V30 4884 C 463.883 4.65914 -4.09052 0
M  V30 4885 C 465.938 4.07101 -2.86658 0
M  V30 4886 C 464.641 4.90984 -5.25669 0
M  V30 4887 C 466.667 4.33324 -4.02472 0
M  V30 4888 C 466.029 4.74601 -5.20512 0
M  V30 4889 H 462.128 0.758552 -0.19006 0
M  V30 4890 H 464.712 1.64493 -1.04164 0
M  V30 4891 H 462.883 3.88219 0.118437 0
M  V30 4892 H 464.615 4.04645 -0.0667794 0
M  V30 4893 H 461.37 4.25728 -2.07492 0
M  V30 4894 H 461.794 4.96965 -4.59734 0
M  V30 4895 H 466.436 3.74335 -1.96552 0
M  V30 4896 H 464.154 5.22626 -6.1635 0
M  V30 4897 H 467.74 4.21107 -4.01447 0
M  V30 4898 H 466.62 4.94497 -6.08639 0
M  V30 4899 N 464.123 0.554532 1.47522 0
M  V30 4900 C 465.353 0.0342074 2.06572 0
M  V30 4901 C 465.761 -1.26375 1.40805 0
M  V30 4902 O 465.104 -1.7683 0.49769 0
M  V30 4903 C 465.166 -0.235096 3.5873 0
M  V30 4904 C 464.83 0.973024 4.46521 0
M  V30 4905 C 465.827 1.8779 4.848 0
M  V30 4906 C 463.512 1.18694 4.88075 0
M  V30 4907 C 465.506 2.98039 5.63428 0
M  V30 4908 C 463.193 2.29254 5.66468 0
M  V30 4909 C 464.191 3.18757 6.04055 0
M  V30 4910 O 463.879 4.27401 6.8087 0
M  V30 4911 H 463.611 0.041587 0.67472 0
M  V30 4912 H 466.165 0.766748 1.90552 0
M  V30 4913 H 464.395 -1.02191 3.72953 0
M  V30 4914 H 466.084 -0.700477 3.9981 0
M  V30 4915 H 466.85 1.72467 4.53299 0
M  V30 4916 H 462.729 0.49947 4.58286 0
M  V30 4917 H 466.273 3.67926 5.92685 0
M  V30 4918 H 462.17 2.4455 5.97382 0
M  V30 4919 H 462.938 4.25415 6.9926 0
M  V30 4920 N 465.601 -1.54893 0.290851 0
M  V30 4921 C 466.548 -2.23138 -0.58974 0
M  V30 4922 C 467.518 -1.21036 -1.13752 0
M  V30 4923 O 468.703 -1.49626 -1.18392 0
M  V30 4924 C 465.843 -2.96811 -1.76061 0
M  V30 4925 C 464.956 -4.13665 -1.24519 0
M  V30 4926 C 464.091 -4.74944 -2.3791 0
M  V30 4927 C 463.13 -5.83963 -1.83451 0
M  V30 4928 N 462.267 -6.39239 -2.90376 0
M  V30 4929 H 467.107 -2.98 -0.00114915 0
M  V30 4930 H 464.644 -1.47096 0.0112006 0
M  V30 4931 H 466.602 -3.37751 -2.44909 0
M  V30 4932 H 465.232 -2.24344 -2.32098 0
M  V30 4933 H 464.284 -3.77737 -0.449288 0
M  V30 4934 H 465.596 -4.92238 -0.806424 0
M  V30 4935 H 464.75 -5.18684 -3.14724 0
M  V30 4936 H 463.489 -3.95682 -2.85109 0
M  V30 4937 H 462.494 -5.39657 -1.05122 0
M  V30 4938 H 463.719 -6.65103 -1.37169 0
M  V30 4939 H 461.665 -5.62864 -3.36927 0
M  V30 4940 H 461.582 -7.13129 -2.50965 0
M  V30 4941 H 462.85 -6.87637 -3.67118 0
M  V30 4942 N 467.08 -0.0183926 -1.57589 0
M  V30 4943 C 468.305 0.676634 -1.96052 0
M  V30 4944 C 468.73 1.6548 -0.894307 0
M  V30 4945 O 468.088 1.80712 0.145849 0
M  V30 4946 C 468.136 1.36872 -3.33614 0
M  V30 4947 O 467.24 2.48372 -3.29219 0
M  V30 4948 H 466.581 0.1786 -0.63953 0
M  V30 4949 H 469.111 -0.077056 -2.04455 0
M  V30 4950 H 469.121 1.72797 -3.69601 0
M  V30 4951 H 467.796 0.651636 -4.10763 0
M  V30 4952 H 466.373 2.14639 -3.04934 0
M  V30 4953 N 468.558 1.5553 0.254621 0
M  V30 4954 C 469.974 1.4778 0.602753 0
M  V30 4955 C 470.174 0.707047 1.88688 0
M  V30 4956 O 469.23 0.233288 2.5142 0
M  V30 4957 C 470.543 2.92133 0.712648 0
M  V30 4958 C 472.091 3.02458 0.805488 0
M  V30 4959 C 472.566 4.48102 0.947009 0
M  V30 4960 N 474.057 4.52008 1.01207 0
M  V30 4961 C 474.792 5.61939 1.1407 0
M  V30 4962 N 474.288 6.81697 1.23536 0
M  V30 4963 N 476.081 5.49719 1.17325 0
M  V30 4964 H 468.232 2.04085 -0.588463 0
M  V30 4965 H 470.495 0.926229 -0.202001 0
M  V30 4966 H 470.201 3.51332 -0.160766 0
M  V30 4967 H 470.075 3.42187 1.58707 0
M  V30 4968 H 472.462 2.43344 1.66936 0
M  V30 4969 H 472.543 2.55627 -0.0939266 0
M  V30 4970 H 472.187 5.07824 0.087725 0
M  V30 4971 H 472.117 4.92607 1.86135 0
M  V30 4972 H 474.608 3.65749 0.950577 0
M  V30 4973 H 474.921 7.61228 1.33236 0
M  V30 4974 H 473.266 6.84473 1.20508 0
M  V30 4975 H 476.457 4.55095 1.09573 0
M  V30 4976 H 476.63 6.35432 1.27005 0
M  V30 4977 N 470.036 -0.519951 1.48776 0
M  V30 4978 C 470.946 -1.65025 1.66745 0
M  V30 4979 C 471.962 -1.6508 0.549954 0
M  V30 4980 O 473.138 -1.83848 0.822295 0
M  V30 4981 C 470.203 -3.0146 1.71238 0
M  V30 4982 C 469.264 -3.12182 2.94688 0
M  V30 4983 C 468.497 -4.42109 2.98958 0
M  V30 4984 O 468.72 -5.29799 2.1135 0
M  V30 4985 O 467.654 -4.57406 3.91233 0
M  V30 4986 H 471.48 -1.52801 2.62461 0
M  V30 4987 H 469.065 -0.694157 1.32294 0
M  V30 4988 H 470.947 -3.82584 1.76657 0
M  V30 4989 H 469.622 -3.13988 0.786975 0
M  V30 4990 H 468.529 -2.30316 2.94797 0
M  V30 4991 H 469.862 -3.04574 3.86646 0
M  V30 4992 N 471.514 -1.37532 -0.769588 0
M  V30 4993 C 472.461 -1.3347 -1.88293 0
M  V30 4994 C 473.431 -0.199891 -1.64893 0
M  V30 4995 O 474.616 -0.389594 -1.8678 0
M  V30 4996 C 471.756 -1.14968 -3.25387 0
M  V30 4997 C 470.869 -2.37698 -3.60727 0
M  V30 4998 C 470.004 -2.12051 -4.8704 0
M  V30 4999 C 469.043 -3.30636 -5.15117 0
M  V30 5000 N 468.18 -3.04527 -6.3262 0
M  V30 5001 H 473.02 -2.28658 -1.911 0
M  V30 5002 H 470.557 -1.13622 -0.934257 0
M  V30 5003 H 472.515 -1.02261 -4.04473 0
M  V30 5004 H 471.145 -0.234263 -3.21949 0
M  V30 5005 H 470.197 -2.61137 -2.76608 0
M  V30 5006 H 471.509 -3.26131 -3.77413 0
M  V30 5007 H 470.663 -1.96388 -5.74035 0
M  V30 5008 H 469.402 -1.20959 -4.72462 0
M  V30 5009 H 468.407 -3.46836 -4.26597 0
M  V30 5010 H 469.632 -4.22582 -5.31603 0
M  V30 5011 H 467.578 -2.16067 -6.19396 0
M  V30 5012 H 467.495 -3.86503 -6.49732 0
M  V30 5013 H 468.763 -2.92485 -7.22546 0
M  V30 5014 N 472.992 0.995999 -1.22138 0
M  V30 5015 C 473.922 2.10387 -1.01289 0
M  V30 5016 C 474.903 1.69975 0.0651454 0
M  V30 5017 O 476.088 1.9396 -0.0964628 0
M  V30 5018 C 473.218 3.42312 -0.586517 0
M  V30 5019 C 472.172 3.96558 -1.61014 0
M  V30 5020 C 471.498 5.24494 -1.0397 0
M  V30 5021 C 472.798 4.27595 -2.99933 0
M  V30 5022 H 474.492 2.28086 -1.93951 0
M  V30 5023 H 472.038 1.09607 -0.933928 0
M  V30 5024 H 473.991 4.19223 -0.427793 0
M  V30 5025 H 472.715 3.24431 0.375761 0
M  V30 5026 H 471.374 3.21776 -1.75658 0
M  V30 5027 H 471.022 5.02953 -0.0688703 0
M  V30 5028 H 470.722 5.61755 -1.72352 0
M  V30 5029 H 472.246 6.04042 -0.892494 0
M  V30 5030 H 473.66 4.95315 -2.8868 0
M  V30 5031 H 472.057 4.76021 -3.6541 0
M  V30 5032 H 473.127 3.35498 -3.50099 0
M  V30 5033 N 474.47 1.03057 1.19235 0
M  V30 5034 C 475.402 0.570932 2.21975 0
M  V30 5035 C 476.415 -0.354088 1.58903 0
M  V30 5036 O 477.604 -0.150211 1.77867 0
M  V30 5037 C 474.704 -0.187152 3.38383 0
M  V30 5038 C 473.877 0.743231 4.31039 0
M  V30 5039 C 472.936 0.0302493 5.26191 0
M  V30 5040 O 471.962 0.657371 5.65391 0
M  V30 5041 N 473.164 -1.23991 5.67104 0
M  V30 5042 H 475.929 1.45456 2.62036 0
M  V30 5043 H 473.49 0.909807 1.33918 0
M  V30 5044 H 475.482 -0.673715 3.99053 0
M  V30 5045 H 474.052 -0.972205 2.97098 0
M  V30 5046 H 473.272 1.40985 3.68126 0
M  V30 5047 H 474.56 1.3755 4.89854 0
M  V30 5048 H 473.958 -1.77011 5.37293 0
M  V30 5049 H 472.515 -1.67093 6.30018 0
M  V30 5050 N 475.948 -1.35272 0.808662 0
M  V30 5051 C 477.178 -2.02652 0.401953 0
M  V30 5052 C 477.586 -1.6108 -0.992462 0
M  V30 5053 O 476.929 -0.804984 -1.65123 0
M  V30 5054 C 476.991 -3.57174 0.408246 0
M  V30 5055 C 476.655 -4.22019 1.75353 0
M  V30 5056 C 477.652 -4.43552 2.71215 0
M  V30 5057 C 475.337 -4.59093 2.03811 0
M  V30 5058 C 477.331 -5.01264 3.93717 0
M  V30 5059 C 475.018 -5.16519 3.26576 0
M  V30 5060 C 476.016 -5.37546 4.21347 0
M  V30 5061 O 475.704 -5.93761 5.41944 0
M  V30 5062 H 475.436 -0.656495 0.161216 0
M  V30 5063 H 477.99 -1.73829 1.0942 0
M  V30 5064 H 476.22 -3.85197 -0.340608 0
M  V30 5065 H 477.909 -4.05893 0.0235623 0
M  V30 5066 H 478.675 -4.15288 2.50522 0
M  V30 5067 H 474.554 -4.42039 1.30854 0
M  V30 5068 H 478.098 -5.17592 4.67701 0
M  V30 5069 H 473.995 -5.4421 3.47139 0
M  V30 5070 H 474.763 -6.1221 5.43269 0
M  V30 5071 N 477.426 -0.562348 -1.47226 0
M  V30 5072 C 478.651 -0.0432632 -2.07355 0
M  V30 5073 C 479.076 1.24332 -1.41149 0
M  V30 5074 O 478.434 1.74603 -0.488226 0
M  V30 5075 C 478.482 0.130288 -3.60365 0
M  V30 5076 O 477.586 1.19166 -3.94808 0
M  V30 5077 H 476.927 -0.0536334 -0.66183 0
M  V30 5078 H 479.457 -0.779495 -1.89169 0
M  V30 5079 H 479.467 0.342881 -4.06557 0
M  V30 5080 H 478.142 -0.809389 -4.07948 0
M  V30 5081 H 476.719 0.959153 -3.60354 0
M  V30 5082 N 478.904 1.54736 -0.299062 0
M  V30 5083 C 480.153 1.99279 0.311549 0
M  V30 5084 C 480.466 1.19107 1.55154 0
M  V30 5085 O 481.672 1.53908 2.23662 0
M  V30 5086 C 480.128 3.54768 0.605632 0
M  V30 5087 C 479.736 4.43746 -0.615914 0
M  V30 5088 C 481.48 4.07841 1.17754 0
M  V30 5089 C 479.387 5.90663 -0.29509 0
M  V30 5090 H 478.317 0.744359 0.120187 0
M  V30 5091 H 480.968 1.78919 -0.407464 0
M  V30 5092 H 479.35 3.71021 1.38419 0
M  V30 5093 H 480.524 4.39267 -1.39218 0
M  V30 5094 H 478.839 4.01434 -1.10633 0
M  V30 5095 H 481.436 5.15174 1.43179 0
M  V30 5096 H 481.779 3.58324 2.11918 0
M  V30 5097 H 482.312 3.95123 0.460739 0
M  V30 5098 H 479.051 6.44325 -1.20524 0
M  V30 5099 H 478.571 5.98155 0.44394 0
M  V30 5100 H 480.25 6.46916 0.104048 0
M  V30 5101 N 480.382 0.0267497 1.57577 0
M  V30 5102 C 481.793 -0.512413 1.79531 0
M  V30 5103 C 482.144 -1.72391 0.936791 0
M  V30 5104 O 481.269 -2.15903 0.146543 0
M  V30 5105 C 481.864 -0.936378 3.25603 0
M  V30 5106 C 480.423 -1.42067 3.4856 0
M  V30 5107 C 479.57 -0.384278 2.74624 0
M  V30 5108 H 482.521 0.252797 1.56674 0
M  V30 5109 H 482.542 -1.80088 3.35184 0
M  V30 5110 H 482.054 -0.0544332 3.88062 0
M  V30 5111 H 480.155 -2.32262 2.9135 0
M  V30 5112 H 480.268 -1.42968 4.57271 0
M  V30 5113 H 478.632 -0.851855 2.40032 0
M  V30 5114 H 479.415 0.489159 3.39797 0
M  V30 5115 N 481.861 -1.55662 -0.24637 0
M  V30 5116 C 482.794 -1.85332 -1.33143 0
M  V30 5117 C 483.772 -0.708464 -1.46354 0
M  V30 5118 O 484.956 -0.954274 -1.6256 0
M  V30 5119 C 482.083 -2.0385 -2.70487 0
M  V30 5120 C 481.129 -3.26488 -2.74423 0
M  V30 5121 S 481.962 -4.83124 -2.30979 0
M  V30 5122 C 483.118 -5.04647 -3.70246 0
M  V30 5123 H 483.351 -2.77077 -1.07777 0
M  V30 5124 H 480.884 -1.47776 -0.44738 0
M  V30 5125 H 482.842 -2.15202 -3.49569 0
M  V30 5126 H 481.503 -1.12947 -2.9309 0
M  V30 5127 H 480.696 -3.36413 -3.7529 0
M  V30 5128 H 480.298 -3.13864 -2.03385 0
M  V30 5129 H 482.59 -4.92023 -4.65746 0
M  V30 5130 H 483.533 -6.06625 -3.65255 0
M  V30 5131 H 483.941 -4.32491 -3.62784 0
M  V30 5132 N 483.339 0.512053 -1.4905 0
M  V30 5133 C 484.588 1.26343 -1.57227 0
M  V30 5134 C 484.901 1.93876 -0.259155 0
M  V30 5135 O 486.107 2.70612 -0.219358 0
M  V30 5136 C 484.563 2.29343 -2.77362 0
M  V30 5137 C 484.171 1.67799 -4.15388 0
M  V30 5138 C 485.915 3.05378 -2.94864 0
M  V30 5139 C 483.822 2.68845 -5.2676 0
M  V30 5140 H 482.752 0.475231 -0.585382 0
M  V30 5141 H 485.403 0.53862 -1.75417 0
M  V30 5142 H 483.785 3.04938 -2.52643 0
M  V30 5143 H 484.959 0.982715 -4.50199 0
M  V30 5144 H 483.274 1.04194 -4.03153 0
M  V30 5145 H 485.871 3.80921 -3.75238 0
M  V30 5146 H 486.214 3.62327 -2.05 0
M  V30 5147 H 486.747 2.36898 -3.19569 0
M  V30 5148 H 483.486 2.16692 -6.18647 0
M  V30 5149 H 483.006 3.36647 -4.96416 0
M  V30 5150 H 484.685 3.31487 -5.5563 0
M  V30 5151 N 484.817 1.37938 0.762283 0
M  V30 5152 C 486.066 1.32989 1.51647 0
M  V30 5153 C 486.379 -0.0802922 1.95435 0
M  V30 5154 O 487.585 -0.252295 2.70325 0
M  V30 5155 C 486.041 2.33485 2.73885 0
M  V30 5156 C 485.649 3.80079 2.37157 0
M  V30 5157 C 487.393 2.37563 3.51801 0
M  V30 5158 C 485.3 4.72283 3.55954 0
M  V30 5159 H 484.23 0.494301 0.56937 0
M  V30 5160 H 486.881 1.63448 0.834083 0
M  V30 5161 H 485.263 1.96056 3.44061 0
M  V30 5162 H 486.437 4.26398 1.74704 0
M  V30 5163 H 484.752 3.79037 1.72395 0
M  V30 5164 H 487.349 3.0365 4.40114 0
M  V30 5165 H 487.692 1.39199 3.92338 0
M  V30 5166 H 488.225 2.73747 2.8863 0
M  V30 5167 H 484.964 5.7181 3.2049 0
M  V30 5168 H 484.484 4.30663 4.1748 0
M  V30 5169 H 486.163 4.89876 4.22647 0
M  V30 5170 N 486.295 -0.989507 1.22664 0
M  V30 5171 C 487.706 -1.54406 1.04955 0
M  V30 5172 C 488.057 -1.92366 -0.385951 0
M  V30 5173 O 487.182 -1.75111 -1.27142 0
M  V30 5174 C 487.777 -2.80578 1.89899 0
M  V30 5175 C 486.336 -3.32464 1.76478 0
M  V30 5176 C 485.483 -2.05524 1.86159 0
M  V30 5177 H 488.434 -0.810211 1.3646 0
M  V30 5178 H 488.455 -3.53075 1.4184 0
M  V30 5179 H 487.967 -2.52918 2.94371 0
M  V30 5180 H 486.068 -3.65024 0.747528 0
M  V30 5181 H 486.181 -4.02838 2.59342 0
M  V30 5182 H 484.545 -2.19241 1.29636 0
M  V30 5183 H 485.328 -1.80258 2.92168 0
M  V30 5184 N 487.773 -1.03688 -1.18687 0
M  V30 5185 C 489.189 -0.755413 -1.4059 0
M  V30 5186 C 489.389 0.656659 -1.905 0
M  V30 5187 O 488.445 1.42144 -2.08689 0
M  V30 5188 C 489.758 -1.7983 -2.41001 0
M  V30 5189 C 491.306 -1.81877 -2.54735 0
M  V30 5190 C 491.781 -2.85148 -3.58406 0
M  V30 5191 N 493.272 -2.84015 -3.6591 0
M  V30 5192 C 494.007 -3.60573 -4.45841 0
M  V30 5193 N 493.503 -4.46871 -5.29413 0
M  V30 5194 N 495.296 -3.49079 -4.40568 0
M  V30 5195 H 487.447 -1.94818 -0.846148 0
M  V30 5196 H 489.71 -0.842727 -0.434184 0
M  V30 5197 H 489.416 -2.81097 -2.1137 0
M  V30 5198 H 489.29 -1.62727 -3.40294 0
M  V30 5199 H 491.677 -0.812836 -2.83685 0
M  V30 5200 H 491.758 -2.03057 -1.55568 0
M  V30 5201 H 491.402 -3.85918 -3.30197 0
M  V30 5202 H 491.332 -2.61224 -4.57241 0
M  V30 5203 H 493.823 -2.21431 -3.0623 0
M  V30 5204 H 494.136 -5.02007 -5.87545 0
M  V30 5205 H 492.481 -4.5094 -5.28846 0
M  V30 5206 H 495.672 -2.81066 -3.74325 0
M  V30 5207 H 495.845 -4.08994 -5.02621 0
M  V30 5208 N 489.251 1.34841 -0.815825 0
M  V30 5209 C 490.528 1.92908 -0.323416 0
M  V30 5210 C 490.908 1.74479 1.18828 0
M  V30 5211 O 490.256 1.11928 1.99209 0
M  V30 5212 C 490.466 3.40957 -0.744952 0
M  V30 5213 C 491.814 4.18107 -0.739716 0
M  V30 5214 O 492.838 3.49511 -0.68708 0
M  V30 5215 O 491.697 5.40517 -0.806456 0
M  V30 5216 H 488.791 0.822436 -0.0867646 0
M  V30 5217 H 491.337 1.4386 -0.90014 0
M  V30 5218 H 490.109 3.4814 -1.78646 0
M  V30 5219 H 489.732 3.97341 -0.143535 0
M  V30 5220 N 490.729 0.570148 1.46925 0
M  V30 5221 C 491.659 -0.158274 2.32963 0
M  V30 5222 C 492.64 -0.896093 1.44583 0
M  V30 5223 O 493.825 -0.874022 1.7342 0
M  V30 5224 C 490.955 -1.18055 3.26619 0
M  V30 5225 C 489.909 -0.558379 4.24342 0
M  V30 5226 C 489.235 -1.68623 5.07415 0
M  V30 5227 C 490.535 0.496295 5.19937 0
M  V30 5228 H 492.229 0.560046 2.94115 0
M  V30 5229 H 489.775 0.270775 1.41431 0
M  V30 5230 H 491.728 -1.69841 3.85658 0
M  V30 5231 H 490.452 -1.92899 2.63548 0
M  V30 5232 H 489.111 -0.0617157 3.66548 0
M  V30 5233 H 488.759 -2.42402 4.40738 0
M  V30 5234 H 488.459 -1.27564 5.73586 0
M  V30 5235 H 489.983 -2.20709 5.69315 0
M  V30 5236 H 491.397 0.0640052 5.73264 0
M  V30 5237 H 489.794 0.82649 5.94381 0
M  V30 5238 H 490.864 1.38735 4.6463 0
M  V30 5239 N 492.207 -1.54576 0.307264 0
M  V30 5240 C 493.432 -2.05139 -0.305379 0
M  V30 5241 C 493.857 -1.18278 -1.46259 0
M  V30 5242 O 493.215 -0.188243 -1.8032 0
M  V30 5243 C 493.263 -3.53066 -0.733283 0
M  V30 5244 O 492.367 -3.69206 -1.83741 0
M  V30 5245 H 491.708 -0.661444 -0.0582105 0
M  V30 5246 H 494.238 -1.99569 0.450931 0
M  V30 5247 H 494.248 -3.95034 -1.02039 0
M  V30 5248 H 492.923 -4.15746 0.113198 0
M  V30 5249 H 491.5 -3.39143 -1.55037 0
M  V30 5250 N 493.685 -0.035106 -1.57561 0
M  V30 5251 C 494.913 0.652258 -1.9635 0
M  V30 5252 C 495.328 1.65317 -0.911897 0
M  V30 5253 O 494.685 1.82194 0.105657 0
M  V30 5254 C 494.736 1.35337 -3.35211 0
M  V30 5255 O 494.457 0.392548 -4.36338 0
M  V30 5256 C 495.958 2.13199 -3.88666 0
M  V30 5257 H 493.178 0.179444 -0.646561 0
M  V30 5258 H 495.722 -0.0966459 -2.04271 0
M  V30 5259 H 493.877 2.05362 -3.28489 0
M  V30 5260 H 494.291 0.891097 -5.16875 0
M  V30 5261 H 495.765 2.577 -4.88154 0
M  V30 5262 H 496.242 2.97353 -3.23231 0
M  V30 5263 H 496.848 1.48118 -3.98674 0
M  V30 5264 N 495.163 1.55791 0.238111 0
M  V30 5265 C 496.388 1.8244 0.986432 0
M  V30 5266 C 496.813 0.613314 1.7782 0
M  V30 5267 O 496.171 -0.437767 1.75935 0
M  V30 5268 C 496.219 3.06917 1.893 0
M  V30 5269 O 495.323 2.84449 2.98601 0
M  V30 5270 H 494.664 0.601975 0.280218 0
M  V30 5271 H 497.194 2.02987 0.256437 0
M  V30 5272 H 497.204 3.36583 2.30598 0
M  V30 5273 H 495.879 3.947 1.31091 0
M  V30 5274 H 494.456 2.65972 2.61368 0
M  V30 5275 N 496.642 -0.504142 1.49319 0
M  V30 5276 C 497.919 -1.26548 1.49147 0
M  V30 5277 C 498.299 -2.09977 0.21744 0
M  V30 5278 O 497.647 -2.14028 -0.800269 0
M  V30 5279 C 497.857 -2.12489 2.76857 0
M  V30 5280 C 499.205 -2.7178 3.26222 0
M  V30 5281 O 500.229 -2.22758 2.77952 0
M  V30 5282 O 499.088 -3.61015 4.10281 0
M  V30 5283 H 496.182 -0.572495 0.596806 0
M  V30 5284 H 498.728 -0.51867 1.61579 0
M  V30 5285 H 497.5 -1.50796 3.61077 0
M  V30 5286 H 497.123 -2.94368 2.6727 0
M  V30 5287 N 498.12 -1.38341 -0.754957 0
M  V30 5288 C 499.348 -1.37704 -1.54419 0
M  V30 5289 C 499.763 0.0335243 -1.8877 0
M  V30 5290 O 499.12 0.999773 -1.52679 0
M  V30 5291 C 499.171 -2.23136 -2.84416 0
M  V30 5292 O 498.892 -3.58697 -2.51531 0
M  V30 5293 C 500.393 -2.30664 -3.78562 0
M  V30 5294 H 497.613 -0.471061 -0.477852 0
M  V30 5295 H 500.157 -1.81902 -0.934446 0
M  V30 5296 H 498.312 -1.82403 -3.41772 0
M  V30 5297 H 498.726 -4.03665 -3.34896 0
M  V30 5298 H 500.2 -2.9473 -4.66732 0
M  V30 5299 H 500.677 -1.3199 -4.18898 0
M  V30 5300 H 501.283 -2.71781 -3.27131 0
M  V30 5301 N 499.598 0.982988 -1.23187 0
M  V30 5302 C 500.838 1.73903 -1.07412 0
M  V30 5303 C 501.202 1.88146 0.382764 0
M  V30 5304 O 502.403 2.6053 0.661638 0
M  V30 5305 C 500.674 3.10105 -1.77678 0
M  V30 5306 S 502.233 4.01323 -1.77441 0
M  V30 5307 H 499.051 0.598093 -0.384456 0
M  V30 5308 H 501.653 1.17456 -1.56283 0
M  V30 5309 H 500.357 2.97388 -2.82822 0
M  V30 5310 H 499.888 3.71622 -1.29077 0
M  V30 5311 H 501.903 4.89189 -0.831162 0
M  V30 5312 N 501.076 1.04316 1.18135 0
M  V30 5313 C 502.322 0.749128 1.88457 0
M  V30 5314 C 502.655 -0.72149 1.803 0
M  V30 5315 O 501.93 -1.52676 1.205 0
M  V30 5316 C 502.213 1.21905 3.38838 0
M  V30 5317 C 502.066 2.75195 3.55792 0
M  V30 5318 C 503.385 0.811085 4.32561 0
M  V30 5319 H 500.504 0.273611 0.684329 0
M  V30 5320 H 503.146 1.29561 1.38975 0
M  V30 5321 H 501.296 0.754137 3.8111 0
M  V30 5322 H 502.968 3.29743 3.22595 0
M  V30 5323 H 501.211 3.14899 2.98364 0
M  V30 5324 H 501.882 3.03135 4.61317 0
M  V30 5325 H 504.358 1.21118 3.98082 0
M  V30 5326 H 503.234 1.16761 5.36338 0
M  V30 5327 H 503.495 -0.285596 4.41177 0
M  V30 5328 N 502.554 -1.34406 0.822964 0
M  V30 5329 C 503.464 -2.33298 0.246838 0
M  V30 5330 C 504.48 -1.62625 -0.618797 0
M  V30 5331 O 505.656 -1.94391 -0.526685 0
M  V30 5332 C 502.721 -3.41785 -0.581731 0
M  V30 5333 C 501.782 -4.28206 0.306309 0
M  V30 5334 C 501.015 -5.31512 -0.48281 0
M  V30 5335 O 501.238 -5.43973 -1.71607 0
M  V30 5336 O 500.172 -6.01749 0.134884 0
M  V30 5337 H 503.998 -2.84401 1.06534 0
M  V30 5338 H 501.583 -1.37466 0.585108 0
M  V30 5339 H 503.465 -4.08028 -1.05313 0
M  V30 5340 H 502.14 -2.92925 -1.37756 0
M  V30 5341 H 501.047 -3.64885 0.825199 0
M  V30 5342 H 502.38 -4.80507 1.06649 0
M  V30 5343 N 504.032 -0.577932 -1.46621 0
M  V30 5344 C 504.964 0.195801 -2.28362 0
M  V30 5345 C 505.977 0.859983 -1.38232 0
M  V30 5346 O 507.166 0.730349 -1.62875 0
M  V30 5347 C 504.266 1.29639 -3.13124 0
M  V30 5348 C 503.439 0.725049 -4.31349 0
M  V30 5349 C 502.498 1.71274 -4.97546 0
M  V30 5350 O 501.524 1.25067 -5.5529 0
M  V30 5351 N 502.726 3.04672 -4.94121 0
M  V30 5352 H 505.491 -0.505468 -2.95407 0
M  V30 5353 H 503.052 -0.415381 -1.56481 0
M  V30 5354 H 505.044 1.95631 -3.54275 0
M  V30 5355 H 503.614 1.90059 -2.48186 0
M  V30 5356 H 502.834 -0.112205 -3.9404 0
M  V30 5357 H 504.122 0.323034 -5.07774 0
M  V30 5358 H 503.52 3.4484 -4.48444 0
M  V30 5359 H 502.077 3.66166 -5.39227 0
M  V30 5360 N 505.51 1.54411 -0.315457 0
M  V30 5361 C 506.735 2.05299 0.294496 0
M  V30 5362 C 507.16 1.19052 1.4563 0
M  V30 5363 O 506.518 0.197804 1.80218 0
M  V30 5364 C 506.566 3.5345 0.714549 0
M  V30 5365 O 505.67 3.70175 1.81781 0
M  V30 5366 H 505.011 0.661743 0.0547019 0
M  V30 5367 H 507.541 1.99327 -0.461508 0
M  V30 5368 H 507.551 3.9557 0.999426 0
M  V30 5369 H 506.226 4.1568 -0.135244 0
M  V30 5370 H 504.803 3.3996 1.53236 0
M  V30 5371 N 506.988 0.0434614 1.5754 0
M  V30 5372 C 507.938 -0.943039 2.07583 0
M  V30 5373 C 508.922 -1.27662 0.979342 0
M  V30 5374 O 510.114 -1.26034 1.24276 0
M  V30 5375 C 507.243 -2.22056 2.61813 0
M  V30 5376 C 506.329 -1.91471 3.78417 0
M  V30 5377 N 506.72 -1.31214 4.88484 0
M  V30 5378 C 505.018 -2.21384 3.87176 0
M  V30 5379 C 505.719 -1.18084 5.69588 0
M  V30 5380 N 504.695 -1.68116 5.16951 0
M  V30 5381 H 508.497 -0.472354 2.90079 0
M  V30 5382 H 506.011 -0.161191 1.61598 0
M  V30 5383 H 508.008 -2.93618 2.95963 0
M  V30 5384 H 506.668 -2.69738 1.80752 0
M  V30 5385 H 507.679 -0.985318 5.08441 0
M  V30 5386 H 504.356 -2.7164 3.17046 0
M  V30 5387 H 505.746 -0.713684 6.68099 0
M  V30 5388 N 508.466 -1.55915 -0.229846 0
M  V30 5389 C 509.691 -1.8296 -0.976743 0
M  V30 5390 C 510.116 -0.622735 -1.77493 0
M  V30 5391 O 509.474 0.428431 -1.76165 0
M  V30 5392 C 509.522 -3.07916 -1.8767 0
M  V30 5393 O 508.626 -2.86028 -2.97088 0
M  V30 5394 H 507.967 -0.603453 -0.277021 0
M  V30 5395 H 510.497 -2.0312 -0.245669 0
M  V30 5396 H 510.507 -3.37802 -2.2881 0
M  V30 5397 H 509.182 -3.95389 -1.28996 0
M  V30 5398 H 507.759 -2.67355 -2.59954 0
M  V30 5399 N 509.944 0.496216 -1.49584 0
M  V30 5400 C 511.169 1.27865 -1.63295 0
M  V30 5401 C 511.594 1.85592 -0.306156 0
M  V30 5402 O 510.952 1.66092 0.726851 0
M  V30 5403 C 511 2.38128 -2.7079 0
M  V30 5404 O 510.104 3.42108 -2.30296 0
M  V30 5405 H 509.445 0.377279 -0.546403 0
M  V30 5406 H 511.975 0.593497 -1.95803 0
M  V30 5407 H 511.985 2.8382 -2.93104 0
M  V30 5408 H 510.66 1.95479 -3.67098 0
M  V30 5409 H 509.237 3.02301 -2.18331 0
M  V30 5410 N 511.423 1.38739 0.74761 0
M  V30 5411 C 512.834 1.31507 1.32524 0
M  V30 5412 C 513.185 -0.0263963 1.96182 0
M  V30 5413 O 512.31 -0.92849 1.95469 0
M  V30 5414 C 512.905 2.38162 2.40966 0
M  V30 5415 C 511.464 2.34489 2.94434 0
M  V30 5416 C 510.611 2.20712 1.67873 0
M  V30 5417 H 513.562 1.4901 0.546043 0
M  V30 5418 H 513.583 2.04222 3.21051 0
M  V30 5419 H 513.095 3.35783 1.94605 0
M  V30 5420 H 511.196 1.40467 3.45108 0
M  V30 5421 H 511.309 3.28861 3.48407 0
M  V30 5422 H 509.673 1.67667 1.91729 0
M  V30 5423 H 510.456 3.20285 1.23582 0
M  V30 5424 N 512.901 -0.976442 1.23707 0
M  V30 5425 C 514.149 -1.71487 1.06942 0
M  V30 5426 C 514.47 -1.9098 -0.393897 0
M  V30 5427 O 513.74 -1.48128 -1.28198 0
M  V30 5428 H 512.32 -0.635425 0.392739 0
M  V30 5429 H 514.982 -1.17515 1.55487 0
M  V30 5430 H 514.078 -2.70286 1.56051 0
M  V30 5431 N 514.379 -1.04941 -1.1758 0
M  V30 5432 C 515.627 -0.756492 -1.87408 0
M  V30 5433 C 515.948 0.718478 -1.81281 0
M  V30 5434 O 515.218 1.519 -1.23706 0
M  V30 5435 H 513.798 -0.276841 -0.693807 0
M  V30 5436 H 516.46 -1.32803 -1.42652 0
M  V30 5437 H 515.556 -1.06918 -2.93215 0
M  V30 5438 N 515.857 1.33968 -0.830081 0
M  V30 5439 C 517.105 1.97672 -0.420734 0
M  V30 5440 C 517.426 1.66111 1.02138 0
M  V30 5441 O 516.696 0.955503 1.71017 0
M  V30 5442 H 515.276 0.73125 -0.152587 0
M  V30 5443 H 517.938 1.63483 -1.0611 0
M  V30 5444 H 517.034 3.07294 -0.545588 0
M  V30 5445 N 517.335 0.585699 1.46312 0
M  V30 5446 C 518.583 0.072278 2.01971 0
M  V30 5447 C 518.904 -1.29345 1.45928 0
M  V30 5448 O 518.174 -1.84973 0.645109 0
M  V30 5449 H 516.754 0.023729 0.746623 0
M  V30 5450 H 519.416 0.762155 1.7938 0
M  V30 5451 H 518.512 0.00552767 3.121 0
M  V30 5452 N 518.813 -1.54241 0.323641 0
M  V30 5453 C 520.229 -1.59574 -0.0290018 0
M  V30 5454 C 520.429 -1.34017 -1.50472 0
M  V30 5455 O 519.485 -1.12464 -2.26071 0
M  V30 5456 C 520.798 -2.98169 0.389295 0
M  V30 5457 C 522.346 -3.11148 0.339958 0
M  V30 5458 C 522.821 -4.5209 0.733418 0
M  V30 5459 N 524.312 -4.5808 0.686827 0
M  V30 5460 C 525.047 -5.65248 0.963464 0
M  V30 5461 N 524.543 -6.80355 1.30724 0
M  V30 5462 N 526.336 -5.55025 0.88902 0
M  V30 5463 H 518.487 -1.6911 1.28512 0
M  V30 5464 H 520.75 -0.790972 0.522558 0
M  V30 5465 H 520.456 -3.21871 1.41746 0
M  V30 5466 H 520.33 -3.76399 -0.245657 0
M  V30 5467 H 522.717 -2.87182 -0.679002 0
M  V30 5468 H 522.798 -2.35023 1.00985 0
M  V30 5469 H 522.442 -4.76788 1.75029 0
M  V30 5470 H 522.372 -5.26584 0.0412189 0
M  V30 5471 H 524.863 -3.75411 0.43298 0
M  V30 5472 H 525.176 -7.58029 1.5037 0
M  V30 5473 H 523.521 -6.81851 1.3455 0
M  V30 5474 H 526.712 -4.63977 0.619939 0
M  V30 5475 H 526.885 -6.38458 1.10797 0
M  V30 5476 N 520.291 -0.0518155 -1.57515 0
M  V30 5477 C 521.521 0.63048 -1.96745 0
M  V30 5478 C 521.929 1.64875 -0.928054 0
M  V30 5479 O 521.272 1.83449 0.0960678 0
M  V30 5480 C 521.334 1.37381 -3.32215 0
M  V30 5481 C 520.998 0.511298 -4.54131 0
M  V30 5482 C 521.995 -0.222884 -5.19422 0
M  V30 5483 C 519.68 0.442035 -5.00351 0
M  V30 5484 C 521.674 -1.01476 -6.2927 0
M  V30 5485 C 519.361 -0.35353 -6.10077 0
M  V30 5486 C 520.359 -1.08062 -6.74397 0
M  V30 5487 O 520.047 -1.8631 -7.82013 0
M  V30 5488 H 519.779 0.177126 -0.652382 0
M  V30 5489 H 522.333 -0.114726 -2.05079 0
M  V30 5490 H 520.563 2.16466 -3.20436 0
M  V30 5491 H 522.252 1.9464 -3.56188 0
M  V30 5492 H 523.018 -0.178846 -4.8467 0
M  V30 5493 H 518.897 0.997562 -4.50077 0
M  V30 5494 H 522.441 -1.58279 -6.79407 0
M  V30 5495 H 518.338 -0.399205 -6.44264 0
M  V30 5496 H 519.106 -1.78528 -7.98793 0
M  V30 5497 N 521.769 1.56035 0.221574 0
M  V30 5498 C 522.994 1.83476 0.967026 0
M  V30 5499 C 523.419 0.632139 1.7716 0
M  V30 5500 O 522.777 -0.419082 1.7639 0
M  V30 5501 C 522.825 3.08907 1.86034 0
M  V30 5502 O 521.929 2.876 2.95567 0
M  V30 5503 H 521.27 0.604913 0.273817 0
M  V30 5504 H 523.8 2.03247 0.234893 0
M  V30 5505 H 523.81 3.3901 2.27016 0
M  V30 5506 H 522.485 3.96068 1.26898 0
M  V30 5507 H 521.062 2.6873 2.58532 0
M  V30 5508 N 523.247 -0.488276 1.49845 0
M  V30 5509 C 524.524 -1.24959 1.50481 0
M  V30 5510 C 524.904 -2.09735 0.239698 0
M  V30 5511 O 524.252 -2.14865 -0.777524 0
M  V30 5512 C 524.462 -2.0954 2.79095 0
M  V30 5513 C 525.81 -2.68305 3.29086 0
M  V30 5514 O 526.834 -2.19797 2.80299 0
M  V30 5515 O 525.693 -3.56643 4.14087 0
M  V30 5516 H 522.787 -0.566133 0.602845 0
M  V30 5517 H 525.333 -0.501504 1.6212 0
M  V30 5518 H 524.105 -1.46958 3.62656 0
M  V30 5519 H 523.728 -2.91517 2.70377 0
M  V30 5520 N 524.725 -1.39134 -0.740242 0
M  V30 5521 C 525.953 -1.39334 -1.5295 0
M  V30 5522 C 526.368 0.0135008 -1.88795 0
M  V30 5523 O 525.725 0.983524 -1.5373 0
M  V30 5524 C 525.776 -2.2614 -2.82034 0
M  V30 5525 O 525.497 -3.61345 -2.47712 0
M  V30 5526 C 526.998 -2.34666 -3.76094 0
M  V30 5527 H 524.218 -0.476103 -0.472828 0
M  V30 5528 H 526.762 -1.82883 -0.9151 0
M  V30 5529 H 524.917 -1.86018 -3.39818 0
M  V30 5530 H 525.331 -4.07194 -3.30595 0
M  V30 5531 H 526.805 -2.99663 -4.63579 0
M  V30 5532 H 527.282 -1.36426 -4.17474 0
M  V30 5533 H 527.888 -2.75236 -3.2423 0
M  V30 5534 N 526.204 0.969867 -1.24223 0
M  V30 5535 C 527.615 1.52717 -1.07399 0
M  V30 5536 C 527.966 1.92956 0.355298 0
M  V30 5537 O 527.091 1.77112 1.2434 0
M  V30 5538 C 527.686 2.77521 -1.94339 0
M  V30 5539 C 526.245 3.29615 -1.81744 0
M  V30 5540 C 525.392 2.02537 -1.89405 0
M  V30 5541 H 528.343 0.788399 -1.37732 0
M  V30 5542 H 528.364 3.50773 -1.47439 0
M  V30 5543 H 527.876 2.48203 -2.98357 0
M  V30 5544 H 525.977 3.63789 -0.805505 0
M  V30 5545 H 526.09 3.98661 -2.65718 0
M  V30 5546 H 524.454 2.17151 -1.33108 0
M  V30 5547 H 525.237 1.75587 -2.94999 0
M  V30 5548 N 527.682 1.05563 1.17022 0
M  V30 5549 C 528.907 0.788437 1.91829 0
M  V30 5550 C 529.332 -0.650356 1.76499 0
M  V30 5551 O 528.69 -1.45229 1.08527 0
M  V30 5552 C 528.738 1.1786 3.40795 0
M  V30 5553 O 527.842 0.312965 4.11211 0
M  V30 5554 H 527.183 0.288794 0.597908 0
M  V30 5555 H 529.713 1.40948 1.48307 0
M  V30 5556 H 529.723 1.14697 3.91546 0
M  V30 5557 H 528.398 2.22666 3.51273 0
M  V30 5558 H 526.975 0.405515 3.70689 0
M  V30 5559 N 529.16 -1.33526 0.837174 0
M  V30 5560 C 530.576 -1.50727 0.524743 0
M  V30 5561 C 530.776 -1.77792 -0.948279 0
M  V30 5562 O 529.832 -1.83719 -1.73216 0
M  V30 5563 C 531.145 -2.66299 1.39661 0
M  V30 5564 C 532.693 -2.80183 1.39521 0
M  V30 5565 C 533.168 -3.98815 2.25189 0
M  V30 5566 N 534.659 -4.06047 2.2289 0
M  V30 5567 C 535.394 -4.97032 2.85915 0
M  V30 5568 N 534.89 -5.93143 3.57985 0
M  V30 5569 N 536.683 -4.90015 2.75394 0
M  V30 5570 H 528.834 -1.1422 1.79074 0
M  V30 5571 H 531.097 -0.561399 0.763894 0
M  V30 5572 H 530.803 -2.52974 2.4433 0
M  V30 5573 H 530.677 -3.61663 1.07145 0
M  V30 5574 H 533.064 -2.92942 0.356253 0
M  V30 5575 H 533.145 -1.85586 1.76044 0
M  V30 5576 H 532.789 -3.86817 3.29143 0
M  V30 5577 H 532.719 -4.92654 1.86009 0
M  V30 5578 H 535.21 -3.37262 1.70478 0
M  V30 5579 H 535.523 -6.59227 4.03286 0
M  V30 5580 H 533.868 -5.93223 3.62093 0
M  V30 5581 H 537.059 -4.13894 2.18654 0
M  V30 5582 H 537.232 -5.60724 3.24796 0
M  V30 5583 N 530.638 -0.59345 -1.46 0
M  V30 5584 C 532.054 -0.255965 -1.57534 0
M  V30 5585 C 532.254 1.24167 -1.58697 0
M  V30 5586 O 531.31 2.02398 -1.50968 0
M  V30 5587 C 532.623 -0.91466 -2.86451 0
M  V30 5588 C 534.171 -0.889253 -3.00102 0
M  V30 5589 C 534.646 -1.52769 -4.3177 0
M  V30 5590 N 536.137 -1.49253 -4.38495 0
M  V30 5591 C 536.872 -1.9558 -5.39014 0
M  V30 5592 N 536.368 -2.49929 -6.46148 0
M  V30 5593 N 538.161 -1.86432 -5.30282 0
M  V30 5594 H 530.312 -1.56604 -1.43489 0
M  V30 5595 H 532.575 -0.655207 -0.685133 0
M  V30 5596 H 532.281 -1.96861 -2.91442 0
M  V30 5597 H 532.155 -0.429356 -3.74748 0
M  V30 5598 H 534.542 0.156111 -2.94687 0
M  V30 5599 H 534.623 -1.41268 -2.13253 0
M  V30 5600 H 534.267 -2.57231 -4.37944 0
M  V30 5601 H 534.197 -0.979398 -5.17412 0
M  V30 5602 H 536.688 -1.09536 -3.61677 0
M  V30 5603 H 537.001 -2.83109 -7.19075 0
M  V30 5604 H 535.346 -2.53961 -6.46938 0
M  V30 5605 H 538.537 -1.43722 -4.4549 0
M  V30 5606 H 538.71 -2.22852 -6.08474 0
M  V30 5607 N 532.116 1.54067 -0.331816 0
M  V30 5608 C 533.356 2.02625 0.26876 0
M  V30 5609 C 533.72 1.21462 1.48697 0
M  V30 5610 O 534.921 1.59863 2.16096 0
M  V30 5611 C 533.192 3.52554 0.586577 0
M  V30 5612 S 534.751 4.23035 1.16563 0
M  V30 5613 H 531.569 0.706395 0.0807862 0
M  V30 5614 H 534.171 1.89844 -0.466856 0
M  V30 5615 H 532.875 4.09242 -0.308046 0
M  V30 5616 H 532.406 3.69432 1.35217 0
M  V30 5617 H 534.421 4.31382 2.45203 0
M  V30 5618 N 533.594 0.0601682 1.57485 0
M  V30 5619 C 534.524 -0.90889 2.15085 0
M  V30 5620 C 535.505 -1.31838 1.07484 0
M  V30 5621 O 536.69 -1.3915 1.35466 0
M  V30 5622 C 533.82 -2.18059 2.7031 0
M  V30 5623 C 532.774 -1.91088 3.82974 0
M  V30 5624 C 532.1 -3.24789 4.24754 0
M  V30 5625 C 533.4 -1.22535 5.07723 0
M  V30 5626 H 535.094 -0.429093 2.96309 0
M  V30 5627 H 532.64 -0.204952 1.42534 0
M  V30 5628 H 534.593 -2.86258 3.09248 0
M  V30 5629 H 533.317 -2.6826 1.8629 0
M  V30 5630 H 531.976 -1.25297 3.44523 0
M  V30 5631 H 531.624 -3.72809 3.37672 0
M  V30 5632 H 531.324 -3.07538 5.00694 0
M  V30 5633 H 532.848 -3.94205 4.66299 0
M  V30 5634 H 534.262 -1.80783 5.4405 0
M  V30 5635 H 532.659 -1.1558 5.88864 0
M  V30 5636 H 533.729 -0.202692 4.84476 0
M  V30 5637 N 535.072 -1.5615 -0.213296 0
M  V30 5638 C 536.312 -1.81325 -0.943435 0
M  V30 5639 C 536.676 -0.634934 -1.81198 0
M  V30 5640 O 537.877 -0.766166 -2.5765 0
M  V30 5641 C 536.148 -3.11437 -1.75334 0
M  V30 5642 S 537.707 -3.57955 -2.53799 0
M  V30 5643 H 534.525 -0.636538 -0.316766 0
M  V30 5644 H 537.127 -1.94387 -0.208313 0
M  V30 5645 H 535.831 -3.95228 -1.10556 0
M  V30 5646 H 535.362 -3.01204 -2.53061 0
M  V30 5647 H 537.377 -3.21947 -3.77577 0
M  V30 5648 N 536.55 0.480323 -1.50102 0
M  V30 5649 C 537.775 1.26126 -1.64642 0
M  V30 5650 C 538.2 1.85257 -0.325823 0
M  V30 5651 O 537.558 1.66854 0.709194 0
M  V30 5652 C 537.606 2.35243 -2.73301 0
M  V30 5653 O 536.71 3.39646 -2.33911 0
M  V30 5654 H 536.051 0.371463 -0.550374 0
M  V30 5655 H 538.581 0.572696 -1.96421 0
M  V30 5656 H 538.591 2.80695 -2.96098 0
M  V30 5657 H 537.266 1.91574 -3.6915 0
M  V30 5658 H 535.843 2.99969 -2.21525 0
M  V30 5659 N 538.028 1.39524 0.732853 0
M  V30 5660 C 539.276 1.36594 1.48951 0
M  V30 5661 C 539.597 -0.0367507 1.94965 0
M  V30 5662 O 538.867 -0.988391 1.69138 0
M  V30 5663 H 537.447 0.502673 0.552566 0
M  V30 5664 H 540.109 1.74411 0.869869 0
M  V30 5665 H 539.205 2.03 2.3706 0
M  V30 5666 N 539.506 -0.963266 1.24736 0
M  V30 5667 C 540.469 -2.04013 1.04457 0
M  V30 5668 C 541.469 -1.608 0.000335555 0
M  V30 5669 O 542.659 -1.72515 0.241719 0
M  V30 5670 C 539.791 -3.35858 0.584162 0
M  V30 5671 H 540.984 -2.23436 2.00041 0
M  V30 5672 H 538.537 -1.13914 1.07021 0
M  V30 5673 H 539.272 -3.22128 -0.374673 0
M  V30 5674 H 539.057 -3.68568 1.3379 0
M  V30 5675 H 540.547 -4.1502 0.463451 0
M  V30 5676 N 540.985 -1.06182 -1.16461 0
M  V30 5677 C 542.396 -0.802426 -1.68576 0
M  V30 5678 C 542.747 0.67412 -1.84255 0
M  V30 5679 O 541.872 1.52303 -1.5373 0
M  V30 5680 C 542.467 -1.45002 -3.06202 0
M  V30 5681 C 541.026 -1.23843 -3.55443 0
M  V30 5682 C 540.173 -1.52724 -2.31454 0
M  V30 5683 H 543.124 -1.22545 -1.00839 0
M  V30 5684 H 543.145 -0.864731 -3.70544 0
M  V30 5685 H 542.657 -2.52466 -2.94759 0
M  V30 5686 H 540.758 -0.183487 -3.72148 0
M  V30 5687 H 540.871 -1.95036 -4.37604 0
M  V30 5688 H 539.235 -0.947726 -2.36411 0
M  V30 5689 H 540.018 -2.61343 -2.22609 0
M  V30 5690 N 542.463 1.3308 -0.844243 0
M  V30 5691 C 543.879 1.50447 -0.532729 0
M  V30 5692 C 544.079 1.78292 0.938837 0
M  V30 5693 O 543.135 1.84635 1.72239 0
M  V30 5694 C 544.448 2.65555 -1.41072 0
M  V30 5695 C 545.996 2.7944 -1.41005 0
M  V30 5696 C 546.471 3.97616 -2.27301 0
M  V30 5697 N 547.962 4.0486 -2.2504 0
M  V30 5698 C 548.697 4.95508 -2.88547 0
M  V30 5699 N 548.193 5.91236 -3.61126 0
M  V30 5700 N 549.986 4.88548 -2.77989 0
M  V30 5701 H 542.137 1.13269 -1.79677 0
M  V30 5702 H 544.4 0.55734 -0.766861 0
M  V30 5703 H 544.106 2.51675 -2.45668 0
M  V30 5704 H 543.98 3.61089 -1.09061 0
M  V30 5705 H 546.367 2.92749 -0.371784 0
M  V30 5706 H 546.448 1.8465 -1.77026 0
M  V30 5707 H 546.092 3.85066 -3.3119 0
M  V30 5708 H 546.022 4.91661 -1.88619 0
M  V30 5709 H 548.513 3.36353 -1.72264 0
M  V30 5710 H 548.826 6.57079 -4.06776 0
M  V30 5711 H 547.171 5.91295 -3.65234 0
M  V30 5712 H 550.362 4.12729 -2.20846 0
M  V30 5713 H 550.535 5.58994 -3.27765 0
M  V30 5714 N 543.941 0.601185 1.45683 0
M  V30 5715 C 545.166 0.0982245 2.07167 0
M  V30 5716 C 545.591 -1.20546 1.44396 0
M  V30 5717 O 544.949 -1.73247 0.534347 0
M  V30 5718 C 544.997 -0.0346976 3.60583 0
M  V30 5719 O 544.101 -1.08657 3.97828 0
M  V30 5720 H 543.442 0.0711618 0.660176 0
M  V30 5721 H 545.972 0.829376 1.87036 0
M  V30 5722 H 545.982 -0.234969 4.07323 0
M  V30 5723 H 544.657 0.917265 4.05659 0
M  V30 5724 H 543.234 -0.863275 3.6277 0
M  V30 5725 N 545.419 -1.53889 0.339982 0
M  V30 5726 C 546.382 -2.23547 -0.50592 0
M  V30 5727 C 547.382 -1.23445 -1.03044 0
M  V30 5728 O 548.572 -1.47909 -0.920253 0
M  V30 5729 C 545.704 -2.95234 -1.7044 0
M  V30 5730 H 546.897 -2.99722 0.103247 0
M  V30 5731 H 544.45 -1.56033 0.0912804 0
M  V30 5732 H 545.185 -2.23236 -2.35236 0
M  V30 5733 H 544.97 -3.68654 -1.33553 0
M  V30 5734 H 546.46 -3.48258 -2.30447 0
M  V30 5735 N 546.897 -0.0685191 -1.57451 0
M  V30 5736 C 548.146 0.600898 -1.92541 0
M  V30 5737 C 548.459 1.70967 -0.950239 0
M  V30 5738 O 549.665 2.43844 -1.19384 0
M  V30 5739 C 548.121 1.12019 -3.42023 0
M  V30 5740 C 547.729 0.0426028 -4.4798 0
M  V30 5741 C 549.473 1.76386 -3.86119 0
M  V30 5742 C 547.38 0.575759 -5.88591 0
M  V30 5743 H 546.31 0.228225 -0.71863 0
M  V30 5744 H 548.961 -0.140223 -1.82963 0
M  V30 5745 H 547.343 1.91418 -3.46663 0
M  V30 5746 H 548.517 -0.73182 -4.54952 0
M  V30 5747 H 546.832 -0.504642 -4.13331 0
M  V30 5748 H 549.429 2.17302 -4.88553 0
M  V30 5749 H 549.772 2.62255 -3.23308 0
M  V30 5750 H 550.305 1.03615 -3.84069 0
M  V30 5751 H 547.044 -0.245691 -6.55039 0
M  V30 5752 H 546.564 1.31778 -5.85145 0
M  V30 5753 H 548.243 1.0532 -6.3837 0
M  V30 5754 N 548.375 1.56261 0.205012 0
M  V30 5755 C 549.6 1.84491 0.947512 0
M  V30 5756 C 550.025 0.650894 1.76479 0
M  V30 5757 O 549.383 -0.40035 1.76824 0
M  V30 5758 C 549.431 3.10863 1.82747 0
M  V30 5759 O 548.535 2.90719 2.925 0
M  V30 5760 H 547.876 0.607783 0.267386 0
M  V30 5761 H 550.406 2.03485 0.213323 0
M  V30 5762 H 550.416 3.41399 2.23407 0
M  V30 5763 H 549.091 3.97392 1.2269 0
M  V30 5764 H 547.668 2.71457 2.55667 0
M  V30 5765 N 549.853 -0.472356 1.50355 0
M  V30 5766 C 551.078 -1.25251 1.65309 0
M  V30 5767 C 551.503 -1.85081 0.335643 0
M  V30 5768 O 550.861 -1.67227 -0.700335 0
M  V30 5769 C 550.909 -2.3379 2.74544 0
M  V30 5770 O 550.013 -3.38401 2.35709 0
M  V30 5771 H 549.354 -0.368539 0.552336 0
M  V30 5772 H 551.884 -0.562271 1.96722 0
M  V30 5773 H 551.894 -2.79121 2.97583 0
M  V30 5774 H 550.569 -1.89614 3.70161 0
M  V30 5775 H 549.146 -2.9879 2.23112 0
M  V30 5776 N 551.331 -1.39911 -0.725443 0
M  V30 5777 C 552.577 -1.37858 -1.48738 0
M  V30 5778 C 552.91 0.0224187 -1.94187 0
M  V30 5779 O 552.185 0.989204 -1.67466 0
M  V30 5780 C 552.468 -2.3594 -2.72038 0
M  V30 5781 C 552.321 -3.85023 -2.32546 0
M  V30 5782 C 553.64 -2.31704 -3.74167 0
M  V30 5783 H 550.759 -0.502074 -0.539528 0
M  V30 5784 H 553.401 -1.70974 -0.828728 0
M  V30 5785 H 551.551 -2.0783 -3.28236 0
M  V30 5786 H 553.223 -4.2392 -1.81905 0
M  V30 5787 H 551.466 -4.01334 -1.64661 0
M  V30 5788 H 552.137 -4.49152 -3.20884 0
M  V30 5789 H 554.613 -2.5658 -3.27576 0
M  V30 5790 H 553.489 -3.02395 -4.58092 0
M  V30 5791 H 553.75 -1.3253 -4.21768 0
M  V30 5792 N 552.809 0.956637 -1.25245 0
M  V30 5793 C 554.034 1.74104 -1.12706 0
M  V30 5794 C 554.459 1.85436 0.315429 0
M  V30 5795 O 553.817 1.33334 1.22848 0
M  V30 5796 C 553.865 3.1338 -1.78396 0
M  V30 5797 O 552.969 3.98485 -1.06224 0
M  V30 5798 H 552.31 0.53476 -0.393609 0
M  V30 5799 H 554.84 1.19924 -1.65769 0
M  V30 5800 H 554.85 3.6385 -1.846 0
M  V30 5801 H 553.525 3.04448 -2.83345 0
M  V30 5802 H 552.102 3.56952 -1.07886 0
M  V30 5803 N 554.287 1.06798 1.15896 0
M  V30 5804 C 555.515 0.808694 1.90441 0
M  V30 5805 C 555.93 -0.637506 1.77711 0
M  V30 5806 O 555.287 -1.43684 1.12522 0
M  V30 5807 C 555.338 1.20068 3.40978 0
M  V30 5808 O 555.059 2.59013 3.53333 0
M  V30 5809 C 556.56 0.96987 4.3256 0
M  V30 5810 H 553.78 0.292809 0.603742 0
M  V30 5811 H 556.324 1.42296 1.46874 0
M  V30 5812 H 554.479 0.630842 3.82229 0
M  V30 5813 H 554.893 2.7485 4.46719 0
M  V30 5814 H 556.367 1.29371 5.36626 0
M  V30 5815 H 556.844 -0.0941209 4.39099 0
M  V30 5816 H 557.45 1.52433 3.97044 0
M  V30 5817 N 555.766 -1.3263 0.851289 0
M  V30 5818 C 557.014 -1.96978 0.452128 0
M  V30 5819 C 557.335 -1.67715 -0.99482 0
M  V30 5820 O 556.605 -0.98259 -1.69476 0
M  V30 5821 H 555.185 -0.72873 0.164202 0
M  V30 5822 H 557.847 -1.61774 1.08698 0
M  V30 5823 H 556.943 -3.06387 0.594407 0
M  V30 5824 N 557.244 -0.608902 -1.45362 0
M  V30 5825 C 558.174 0.0964526 -2.33301 0
M  V30 5826 C 559.155 0.857444 -1.46908 0
M  V30 5827 O 560.34 0.827735 -1.75676 0
M  V30 5828 C 557.47 1.09354 -3.29635 0
M  V30 5829 C 556.424 0.445676 -4.25673 0
M  V30 5830 C 555.75 1.5511 -5.11708 0
M  V30 5831 C 557.05 -0.633972 -5.18438 0
M  V30 5832 H 558.744 -0.637829 -2.92527 0
M  V30 5833 H 556.29 -0.308178 -1.40664 0
M  V30 5834 H 558.243 1.59556 -3.90025 0
M  V30 5835 H 556.967 1.85843 -2.6857 0
M  V30 5836 H 555.626 -0.0354897 -3.66583 0
M  V30 5837 H 555.274 2.30631 -4.4701 0
M  V30 5838 H 554.974 1.12311 -5.76767 0
M  V30 5839 H 556.498 2.05537 -5.74967 0
M  V30 5840 H 557.912 -0.215974 -5.72893 0
M  V30 5841 H 556.309 -0.983789 -5.91981 0
M  V30 5842 H 557.379 -1.51005 -4.60788 0
M  V30 5843 N 558.722 1.53707 -0.348139 0
M  V30 5844 C 559.672 2.2193 0.522592 0
M  V30 5845 C 560.656 1.20831 1.06248 0
M  V30 5846 O 561.848 1.46357 0.995415 0
M  V30 5847 C 558.977 2.99904 1.6707 0
M  V30 5848 C 558.063 4.08364 1.14454 0
M  V30 5849 N 558.454 5.04656 0.339958 0
M  V30 5850 C 556.752 4.22757 1.421 0
M  V30 5851 C 557.453 5.81675 0.0538806 0
M  V30 5852 N 556.429 5.39739 0.646776 0
M  V30 5853 H 560.231 2.93733 -0.099135 0
M  V30 5854 H 557.745 1.61656 -0.15524 0
M  V30 5855 H 559.742 3.47284 2.30651 0
M  V30 5856 H 558.402 2.29629 2.29566 0
M  V30 5857 H 559.413 5.17896 -0.0193552 0
M  V30 5858 H 556.09 3.63704 2.05002 0
M  V30 5859 H 557.48 6.69256 -0.595443 0
M  V30 5860 N 560.2 0.0768682 1.57412 0
M  V30 5861 C 561.425 -0.603404 1.98428 0
M  V30 5862 C 561.85 -1.62047 0.955108 0
M  V30 5863 O 561.208 -1.81129 -0.0786778 0
M  V30 5864 C 561.256 -1.24396 3.38464 0
M  V30 5865 O 560.36 -2.35982 3.3821 0
M  V30 5866 H 559.701 -0.154741 0.645718 0
M  V30 5867 H 562.231 0.152885 2.04028 0
M  V30 5868 H 562.241 -1.5896 3.7576 0
M  V30 5869 H 560.916 -0.498735 4.12899 0
M  V30 5870 H 559.493 -2.03173 3.1269 0
M  V30 5871 N 561.678 -1.56367 -0.196722 0
M  V30 5872 C 562.608 -1.97442 -1.24655 0
M  V30 5873 C 563.589 -0.846147 -1.47561 0
M  V30 5874 O 564.774 -1.11035 -1.59326 0
M  V30 5875 C 561.904 -2.31253 -2.59112 0
M  V30 5876 C 560.858 -3.46804 -2.50821 0
M  V30 5877 C 560.184 -3.66286 -3.89536 0
M  V30 5878 C 561.484 -4.8104 -2.03465 0
M  V30 5879 H 563.178 -2.85388 -0.905216 0
M  V30 5880 H 560.724 -1.37304 -0.434002 0
M  V30 5881 H 562.677 -2.58583 -3.32736 0
M  V30 5882 H 561.401 -1.40188 -2.94983 0
M  V30 5883 H 560.06 -3.19563 -1.79653 0
M  V30 5884 H 559.708 -2.72555 -4.22756 0
M  V30 5885 H 559.408 -4.4402 -3.84864 0
M  V30 5886 H 560.932 -3.9599 -4.64784 0
M  V30 5887 H 562.346 -5.07411 -2.66846 0
M  V30 5888 H 560.743 -5.62232 -2.09798 0
M  V30 5889 H 561.813 -4.74732 -0.98781 0
M  V30 5890 N 563.156 0.464375 -1.50603 0
M  V30 5891 C 564.381 1.24372 -1.65971 0
M  V30 5892 C 564.806 1.84901 -0.345453 0
M  V30 5893 O 564.164 1.67596 0.691457 0
M  V30 5894 C 564.212 2.32331 -2.7578 0
M  V30 5895 O 563.316 3.37146 -2.375 0
M  V30 5896 H 562.657 0.365604 -0.554283 0
M  V30 5897 H 565.187 0.55183 -1.97018 0
M  V30 5898 H 565.197 2.77539 -2.99059 0
M  V30 5899 H 563.872 1.87648 -3.71162 0
M  V30 5900 H 562.449 2.97602 -2.24694 0
M  V30 5901 N 564.634 1.40294 0.718013 0
M  V30 5902 C 565.862 1.4175 1.50714 0
M  V30 5903 C 566.277 0.0165366 1.88793 0
M  V30 5904 O 565.634 -0.958942 1.55276 0
M  V30 5905 C 565.685 2.30598 2.784 0
M  V30 5906 O 565.406 3.6524 2.41932 0
M  V30 5907 C 566.907 2.4062 3.72313 0
M  V30 5908 H 564.127 0.483565 0.465194 0
M  V30 5909 H 566.671 1.84316 0.885889 0
M  V30 5910 H 564.826 1.91401 3.36815 0
M  V30 5911 H 565.24 4.12402 3.24076 0
M  V30 5912 H 566.714 3.07001 4.58753 0
M  V30 5913 H 567.191 1.4305 4.15251 0
M  V30 5914 H 567.797 2.80359 3.19811 0
M  V30 5915 N 566.112 -0.949982 1.2575 0
M  V30 5916 C 567.359 -1.69515 1.10774 0
M  V30 5917 C 567.687 -1.91316 -0.350479 0
M  V30 5918 O 566.942 -1.48515 -1.27443 0
M  V30 5919 C 567.241 -3.08039 1.81237 0
M  V30 5920 C 566.907 -3.06023 3.31151 0
M  V30 5921 C 565.569 -3.0518 3.72047 0
M  V30 5922 C 567.921 -2.98998 4.26907 0
M  V30 5923 C 565.249 -2.95067 5.07102 0
M  V30 5924 C 567.601 -2.90426 5.61992 0
M  V30 5925 C 566.265 -2.87922 6.0221 0
M  V30 5926 H 565.535 -0.6203 0.405351 0
M  V30 5927 H 568.182 -1.10953 1.56082 0
M  V30 5928 H 566.487 -3.70172 1.28373 0
M  V30 5929 H 568.184 -3.64526 1.67098 0
M  V30 5930 H 564.774 -3.07453 2.98614 0
M  V30 5931 H 568.958 -2.98764 3.963 0
M  V30 5932 H 564.214 -2.915 5.37436 0
M  V30 5933 H 568.388 -2.83952 6.35881 0
M  V30 5934 H 566.015 -2.79841 7.06819 0
M  V30 5935 N 567.59 -1.07411 -1.15328 0
M  V30 5936 C 569.006 -0.799759 -1.38116 0
M  V30 5937 C 569.206 0.59572 -1.92493 0
M  V30 5938 O 568.262 1.35433 -2.13106 0
M  V30 5939 C 569.575 -1.87407 -2.35158 0
M  V30 5940 C 571.123 -1.89889 -2.48819 0
M  V30 5941 C 571.598 -2.96406 -3.49153 0
M  V30 5942 N 573.089 -2.95512 -3.56689 0
M  V30 5943 C 573.824 -3.74575 -4.34144 0
M  V30 5944 N 573.32 -4.63488 -5.14928 0
M  V30 5945 N 575.113 -3.62919 -4.29239 0
M  V30 5946 H 567.264 -1.97411 -0.78374 0
M  V30 5947 H 569.527 -0.856113 -0.407154 0
M  V30 5948 H 569.233 -2.8768 -2.0232 0
M  V30 5949 H 569.107 -1.73471 -3.34944 0
M  V30 5950 H 571.494 -0.902677 -2.80955 0
M  V30 5951 H 571.575 -2.07904 -1.49029 0
M  V30 5952 H 571.219 -3.96227 -3.17752 0
M  V30 5953 H 571.149 -2.75638 -4.48699 0
M  V30 5954 H 573.64 -2.31061 -2.99031 0
M  V30 5955 H 573.953 -5.20445 -5.71276 0
M  V30 5956 H 572.298 -4.67537 -5.14232 0
M  V30 5957 H 575.489 -2.92833 -3.65194 0
M  V30 5958 H 575.662 -4.24777 -4.89355 0
M  V30 5959 N 569.068 1.32177 -0.85831 0
M  V30 5960 C 570.316 1.96735 -0.462568 0
M  V30 5961 C 570.637 1.6824 0.985911 0
M  V30 5962 O 569.907 0.991564 1.68952 0
M  V30 5963 H 568.487 0.727849 -0.168064 0
M  V30 5964 H 571.149 1.61195 -1.09554 0
M  V30 5965 H 570.245 3.06068 -0.610647 0
M  V30 5966 N 570.547 0.616602 1.45037 0
M  V30 5967 C 571.477 -0.0840787 2.33349 0
M  V30 5968 C 572.458 -0.849641 1.4736 0
M  V30 5969 O 573.643 -0.818407 1.76113 0
M  V30 5970 C 570.773 -1.07604 3.3021 0
M  V30 5971 C 569.727 -0.423096 4.25904 0
M  V30 5972 C 569.053 -1.52394 5.12523 0
M  V30 5973 C 570.353 0.661457 5.18095 0
M  V30 5974 H 572.047 0.653333 2.92185 0
M  V30 5975 H 569.593 0.315634 1.40498 0
M  V30 5976 H 571.546 -1.57485 3.90866 0
M  V30 5977 H 570.27 -1.84416 2.69552 0
M  V30 5978 H 568.929 0.05493 3.66559 0
M  V30 5979 H 568.577 -2.28257 4.48227 0
M  V30 5980 H 568.277 -1.09251 5.77354 0
M  V30 5981 H 569.801 -2.02485 5.76049 0
M  V30 5982 H 571.215 0.246353 5.7277 0
M  V30 5983 H 569.612 1.01517 5.91451 0
M  V30 5984 H 570.682 1.53446 4.59981 0
M  V30 5985 N 572.025 -1.5352 0.356285 0
M  V30 5986 C 572.958 -2.2177 -0.537913 0
M  V30 5987 C 573.936 -1.20626 -1.09033 0
M  V30 5988 O 575.12 -1.49494 -1.1482 0
M  V30 5989 C 572.247 -2.90513 -1.74126 0
M  V30 5990 C 571.293 -4.05652 -1.31715 0
M  V30 5991 S 572.126 -5.34505 -0.326236 0
M  V30 5992 C 573.282 -6.06757 -1.53612 0
M  V30 5993 H 573.515 -2.97271 0.0417411 0
M  V30 5994 H 571.048 -1.53761 0.140372 0
M  V30 5995 H 573.006 -3.30735 -2.43155 0
M  V30 5996 H 571.667 -2.14754 -2.29215 0
M  V30 5997 H 570.86 -4.52733 -2.21471 0
M  V30 5998 H 570.462 -3.67272 -0.706183 0
M  V30 5999 H 572.754 -6.30924 -2.46863 0
M  V30 6000 H 573.697 -6.99395 -1.10687 0
M  V30 6001 H 574.105 -5.3708 -1.73796 0
M  V30 6002 N 573.503 -0.0852151 -1.57369 0
M  V30 6003 C 574.45 0.877268 -2.13478 0
M  V30 6004 C 575.42 1.28642 -1.05073 0
M  V30 6005 O 576.605 1.36992 -1.32808 0
M  V30 6006 C 573.745 2.13464 -2.71159 0
M  V30 6007 C 572.858 1.77691 -3.93764 0
M  V30 6008 C 571.993 2.98139 -4.39643 0
M  V30 6009 C 571.032 2.58447 -5.54862 0
M  V30 6010 N 570.169 3.71698 -5.95639 0
M  V30 6011 H 575.009 0.391933 -2.95411 0
M  V30 6012 H 572.546 0.181796 -1.45972 0
M  V30 6013 H 574.504 2.87086 -3.02717 0
M  V30 6014 H 573.134 2.59514 -1.91969 0
M  V30 6015 H 572.186 0.940768 -3.68583 0
M  V30 6016 H 573.498 1.44497 -4.77412 0
M  V30 6017 H 572.652 3.80026 -4.72933 0
M  V30 6018 H 571.391 3.34536 -3.54876 0
M  V30 6019 H 570.396 1.74984 -5.21211 0
M  V30 6020 H 571.621 2.23205 -6.41371 0
M  V30 6021 H 569.567 4.07831 -5.13819 0
M  V30 6022 H 569.484 3.42317 -6.74059 0
M  V30 6023 H 570.752 4.54123 -6.33555 0
M  V30 6024 N 574.981 1.5647 0.188427 0
M  V30 6025 C 576.397 1.50204 0.539532 0
M  V30 6026 C 576.597 0.78644 1.85519 0
M  V30 6027 O 575.653 0.339714 2.50204 0
M  V30 6028 C 576.966 2.94893 0.588103 0
M  V30 6029 C 578.514 3.05602 0.67648 0
M  V30 6030 C 578.989 4.51716 0.756101 0
M  V30 6031 N 580.48 4.55894 0.819451 0
M  V30 6032 C 581.215 5.66272 0.90134 0
M  V30 6033 N 580.711 6.86323 0.945118 0
M  V30 6034 N 582.504 5.54201 0.939043 0
M  V30 6035 H 574.655 2.01406 -0.674493 0
M  V30 6036 H 576.918 0.916828 -0.241103 0
M  V30 6037 H 576.624 3.50334 -0.309633 0
M  V30 6038 H 576.498 3.4861 1.44051 0
M  V30 6039 H 578.885 2.50206 1.56465 0
M  V30 6040 H 578.966 2.54999 -0.202262 0
M  V30 6041 H 578.61 5.07739 -0.12774 0
M  V30 6042 H 578.54 5.00058 1.65074 0
M  V30 6043 H 581.031 3.69452 0.794594 0
M  V30 6044 H 581.344 7.66194 1.0083 0
M  V30 6045 H 579.689 6.88968 0.913683 0
M  V30 6046 H 582.88 4.59333 0.901725 0
M  V30 6047 H 583.053 6.40247 0.999402 0
M  V30 6048 N 576.459 -0.456382 1.50847 0
M  V30 6049 C 577.875 -0.791345 1.386 0
M  V30 6050 C 578.075 -1.9633 0.453498 0
M  V30 6051 O 577.131 -2.52308 -0.0984353 0
M  V30 6052 C 578.444 -1.08959 2.80265 0
M  V30 6053 C 579.992 -1.19517 2.89283 0
M  V30 6054 C 580.467 -1.52647 4.31814 0
M  V30 6055 N 581.958 -1.59609 4.34832 0
M  V30 6056 C 582.693 -1.86777 5.42127 0
M  V30 6057 N 582.189 -2.11866 6.59609 0
M  V30 6058 N 583.982 -1.88402 5.29586 0
M  V30 6059 H 576.133 0.315746 2.1004 0
M  V30 6060 H 578.396 0.0787916 0.94472 0
M  V30 6061 H 578.102 -0.301355 3.50407 0
M  V30 6062 H 577.976 -2.02211 3.18419 0
M  V30 6063 H 580.363 -1.97406 2.19351 0
M  V30 6064 H 580.444 -0.242111 2.54652 0
M  V30 6065 H 580.088 -0.752922 5.02288 0
M  V30 6066 H 580.018 -2.49127 4.63943 0
M  V30 6067 H 582.509 -1.42201 3.50125 0
M  V30 6068 H 582.822 -2.31912 7.37182 0
M  V30 6069 H 581.167 -2.09228 6.62758 0
M  V30 6070 H 584.358 -1.68307 4.36795 0
M  V30 6071 H 584.531 -2.09238 6.13289 0
M  V30 6072 N 577.937 -1.40673 -0.710563 0
M  V30 6073 C 579.162 -1.42741 -1.50465 0
M  V30 6074 C 579.587 -0.0302116 -1.88076 0
M  V30 6075 O 578.945 0.962945 -1.53613 0
M  V30 6076 C 578.993 -2.32873 -2.75322 0
M  V30 6077 O 578.097 -1.77544 -3.72226 0
M  V30 6078 H 577.438 -0.485056 -0.45345 0
M  V30 6079 H 579.968 -1.84961 -0.874681 0
M  V30 6080 H 579.978 -2.48233 -3.23797 0
M  V30 6081 H 578.653 -3.34401 -2.47283 0
M  V30 6082 H 577.23 -1.71556 -3.31093 0
M  V30 6083 N 579.415 0.9433 -1.26252 0
M  V30 6084 C 580.64 1.72898 -1.14547 0
M  V30 6085 C 581.065 1.85761 0.295743 0
M  V30 6086 O 580.423 1.3463 1.21427 0
M  V30 6087 C 580.471 3.11471 -1.8171 0
M  V30 6088 O 579.575 3.97336 -1.10445 0
M  V30 6089 H 578.916 0.530555 -0.399259 0
M  V30 6090 H 581.446 1.18159 -1.67032 0
M  V30 6091 H 581.456 3.61872 -1.88449 0
M  V30 6092 H 580.131 3.01425 -2.86558 0
M  V30 6093 H 578.708 3.55788 -1.11666 0
M  V30 6094 N 580.893 1.08022 1.14757 0
M  V30 6095 C 582.139 0.808705 1.85978 0
M  V30 6096 C 582.472 -0.663764 1.82504 0
M  V30 6097 O 581.747 -1.48765 1.25296 0
M  V30 6098 C 582.03 1.32623 3.34788 0
M  V30 6099 C 581.883 2.86375 3.46856 0
M  V30 6100 C 583.202 0.948291 4.29762 0
M  V30 6101 H 580.321 0.295244 0.675278 0
M  V30 6102 H 582.963 1.33917 1.34783 0
M  V30 6103 H 581.113 0.875002 3.78518 0
M  V30 6104 H 582.785 3.39839 3.11941 0
M  V30 6105 H 581.028 3.24232 2.88194 0
M  V30 6106 H 581.699 3.17658 4.51439 0
M  V30 6107 H 584.175 1.33722 3.94028 0
M  V30 6108 H 583.051 1.33765 5.32352 0
M  V30 6109 H 583.312 -0.145094 4.41862 0
M  V30 6110 O 582.41 -1.2689 0.999054 0
M  V30 6111 H 583.101 -1.82419 0.651387 0
M  V30 END ATOM
M  V30 BEGIN BOND
M  V30 END BOND
M  V30 END CTAB
M  END
$$$$
