drugbank_target|P29274 Adenosine receptor A2a (DB00201; DB00277; DB00358; DB00555; DB00640; DB00651; DB00806; DB00824; DB01303; DB01412; DB04853; DB04932; DB05009; DB05191; DB06213; DB08770; DB09273; DB11757; DB14132)
 OpenBabel12092119433D

  0  0  0     0  0            999 V3000
M  V30 BEGIN CTAB
M  V30 COUNTS 6338 6417 0 0 0
M  V30 BEGIN ATOM
M  V30 1 H -0.908 1.98254 -0.117106 0
M  V30 2 N 0 1.576 0 0
M  V30 3 C 0.933 2.03868 1.02534 0
M  V30 4 C 1.911 0.928543 1.3348 0
M  V30 5 O 3.095 1.19667 1.45644 0
M  V30 6 C 0.222 2.43627 2.35294 0
M  V30 7 C -0.732 3.65373 2.2001 0
M  V30 8 S 0.101 5.13292 1.52614 0
M  V30 9 C 1.257 5.56322 2.86805 0
M  V30 10 H 1.49 2.90518 0.631377 0
M  V30 11 H -0.977 1.52953 0.210867 0
M  V30 12 H 0.981 2.67203 3.11629 0
M  V30 13 H -0.358 1.57376 2.7183 0
M  V30 14 H -1.165 3.90944 3.18086 0
M  V30 15 H -1.563 3.418 1.51819 0
M  V30 16 H 0.729 5.58782 3.83104 0
M  V30 17 H 1.672 6.56266 2.65933 0
M  V30 18 H 2.08 4.83886 2.90714 0
M  V30 19 N 1.4781 -0.272755 1.55222 0
M  V30 20 C 2.8891 -0.84378 1.66545 0
M  V30 21 C 3.2401 -1.87035 0.592641 0
M  V30 22 O 2.3651 -2.14761 -0.265818 0
M  V30 23 C 2.9601 -1.53723 3.01918 0
M  V30 24 C 1.5191 -2.05628 3.15268 0
M  V30 25 C 0.6661 -0.898424 2.62343 0
M  V30 26 H 3.6171 -0.0490998 1.58624 0
M  V30 27 H 3.6381 -2.40421 2.94921 0
M  V30 28 H 3.1501 -0.78983 3.79978 0
M  V30 29 H 1.2511 -2.83329 2.41983 0
M  V30 30 H 1.3641 -2.27142 4.21833 0
M  V30 31 H -0.2719 -1.29186 2.19506 0
M  V30 32 H 0.5111 -0.164528 3.42906 0
M  V30 33 N 2.9562 -1.48159 -0.537278 0
M  V30 34 C 4.2052 -1.5506 -1.28993 0
M  V30 35 C 4.5182 -0.226211 -1.94288 0
M  V30 36 O 5.7242 -0.173395 -2.70946 0
M  V30 37 C 4.1802 -2.73429 -2.34018 0
M  V30 38 C 3.7882 -4.1248 -1.74825 0
M  V30 39 C 5.5322 -2.89638 -3.10339 0
M  V30 40 C 3.4392 -5.22121 -2.77747 0
M  V30 41 H 2.3692 -0.577231 -0.485098 0
M  V30 42 H 5.0202 -1.74478 -0.568317 0
M  V30 43 H 3.4022 -2.47431 -3.09182 0
M  V30 44 H 4.5762 -4.48466 -1.05899 0
M  V30 45 H 2.8912 -4.01327 -1.11022 0
M  V30 46 H 5.4882 -3.68718 -3.87235 0
M  V30 47 H 5.8312 -1.9882 -3.65754 0
M  V30 48 H 6.3642 -3.15502 -2.42288 0
M  V30 49 H 3.1032 -6.1488 -2.27161 0
M  V30 50 H 2.6232 -4.90631 -3.45024 0
M  V30 51 H 4.3022 -5.49924 -3.4087 0
M  V30 52 N 4.4343 0.785586 -1.36625 0
M  V30 53 C 5.3673 1.90509 -1.25625 0
M  V30 54 C 6.3453 1.62 -0.139607 0
M  V30 55 O 7.5293 1.8591 -0.31141 0
M  V30 56 C 4.6563 3.25419 -0.939158 0
M  V30 57 C 3.7023 3.72856 -2.07077 0
M  V30 58 S 4.5353 3.88162 -3.68904 0
M  V30 59 C 5.6913 5.25942 -3.39317 0
M  V30 60 H 5.9243 1.99549 -2.20381 0
M  V30 61 H 3.4573 0.945226 -1.22085 0
M  V30 62 H 5.4153 4.03346 -0.763029 0
M  V30 63 H 4.0763 3.14099 -0.00931402 0
M  V30 64 H 3.2693 4.70624 -1.80357 0
M  V30 65 H 2.8713 3.01989 -2.20632 0
M  V30 66 H 5.1633 6.10651 -2.93447 0
M  V30 67 H 6.1063 5.57668 -4.36363 0
M  V30 68 H 6.5143 4.93224 -2.74573 0
M  V30 69 N 5.9124 1.20967 1.01018 0
M  V30 70 C 7.1604 1.02172 1.74371 0
M  V30 71 C 7.4814 -0.446414 1.89821 0
M  V30 72 O 6.7514 -1.32234 1.44537 0
M  V30 73 H 5.3314 0.375066 0.646014 0
M  V30 74 H 7.9934 1.52187 1.21758 0
M  V30 75 H 7.0894 1.48538 2.74487 0
M  V30 76 N 7.3905 -1.2043 1.01659 0
M  V30 77 C 8.6155 -1.94318 0.724942 0
M  V30 78 C 9.0405 -1.74266 -0.708034 0
M  V30 79 O 8.3985 -1.03694 -1.48719 0
M  V30 80 C 8.4465 -3.44486 1.06591 0
M  V30 81 O 7.5505 -4.12017 0.177599 0
M  V30 82 H 6.8915 -0.60708 0.26898 0
M  V30 83 H 9.4215 -1.52861 1.35995 0
M  V30 84 H 9.4315 -3.95106 1.01762 0
M  V30 85 H 8.1065 -3.58404 2.10997 0
M  V30 86 H 6.6835 -3.71821 0.283421 0
M  V30 87 N 8.8686 -0.792821 -1.36206 0
M  V30 88 C 10.0936 -0.377701 -2.03932 0
M  V30 89 C 10.5186 0.998947 -1.59382 0
M  V30 90 O 9.8766 1.64421 -0.763903 0
M  V30 91 C 9.9246 -0.453635 -3.57735 0
M  V30 92 O 9.0286 0.538151 -4.08874 0
M  V30 93 H 8.3696 -0.159855 -0.644471 0
M  V30 94 H 10.8996 -1.07488 -1.7409 0
M  V30 95 H 10.9096 -0.318464 -4.06755 0
M  V30 96 H 9.5846 -1.45784 -3.89512 0
M  V30 97 H 8.1616 0.364359 -3.71116 0
M  V30 98 N 10.3467 1.47872 -0.545128 0
M  V30 99 C 11.5927 2.02793 -0.0166104 0
M  V30 100 C 11.9257 1.41987 1.32489 0
M  V30 101 O 11.2007 0.571045 1.85928 0
M  V30 102 C 11.4837 3.59989 0.0893294 0
M  V30 103 C 11.3367 4.3125 -1.27841 0
M  V30 104 C 12.6557 4.32606 0.808724 0
M  V30 105 H 9.7747 0.736962 -0.00751035 0
M  V30 106 H 12.4167 1.76433 -0.705085 0
M  V30 107 H 10.5667 3.82579 0.675681 0
M  V30 108 H 12.2387 4.20035 -1.90704 0
M  V30 109 H 10.4817 3.92076 -1.85632 0
M  V30 110 H 11.1527 5.39736 -1.15713 0
M  V30 111 H 13.6287 4.14936 0.310992 0
M  V30 112 H 12.5047 5.42251 0.851782 0
M  V30 113 H 12.7657 4.00963 1.86229 0
M  V30 114 N 11.8248 0.280983 1.55075 0
M  V30 115 C 13.0548 -0.336804 2.03836 0
M  V30 116 C 13.4628 -1.49577 1.15859 0
M  V30 117 O 12.8058 -1.82888 0.172503 0
M  V30 118 C 12.8678 -0.874616 3.48699 0
M  V30 119 C 12.5318 0.156478 4.56732 0
M  V30 120 C 13.5288 0.978032 5.10618 0
M  V30 121 C 11.2138 0.292409 5.01448 0
M  V30 122 C 13.2078 1.92165 6.07743 0
M  V30 123 C 10.8948 1.23949 5.98398 0
M  V30 124 C 11.8928 2.05261 6.51427 0
M  V30 125 O 11.5808 2.98367 7.4648 0
M  V30 126 H 11.3128 -0.0800885 0.671239 0
M  V30 127 H 13.8668 0.412589 2.01213 0
M  V30 128 H 12.0968 -1.67418 3.4858 0
M  V30 129 H 13.7858 -1.40612 3.80766 0
M  V30 130 H 14.5518 0.883782 4.7688 0
M  V30 131 H 10.4308 -0.330498 4.59814 0
M  V30 132 H 13.9748 2.55672 6.49059 0
M  V30 133 H 9.8718 1.33454 6.31554 0
M  V30 134 H 10.6398 2.93116 7.64215 0
M  V30 135 N 13.3029 -1.57598 0.00835791 0
M  V30 136 C 14.5519 -1.90107 -0.673968 0
M  V30 137 C 14.8649 -0.884275 -1.7447 0
M  V30 138 O 16.0709 -1.09987 -2.48224 0
M  V30 139 C 14.5269 -3.37497 -1.24995 0
M  V30 140 C 14.1349 -4.47491 -0.2136 0
M  V30 141 C 15.8789 -3.79104 -1.90999 0
M  V30 142 C 13.7859 -5.85963 -0.80005 0
M  V30 143 H 12.7159 -0.709393 -0.255495 0
M  V30 144 H 15.3669 -1.83365 0.0702693 0
M  V30 145 H 13.7489 -3.39102 -2.04513 0
M  V30 146 H 14.9229 -4.57414 0.557596 0
M  V30 147 H 13.2379 -4.14956 0.346474 0
M  V30 148 H 15.8349 -4.79901 -2.35795 0
M  V30 149 H 16.1779 -3.1306 -2.74407 0
M  V30 150 H 16.7109 -3.79833 -1.18203 0
M  V30 151 H 13.4499 -6.555 -0.00456708 0
M  V30 152 H 12.9699 -5.79687 -1.54021 0
M  V30 153 H 14.6489 -6.33884 -1.29615 0
M  V30 154 N 14.781 0.264519 -1.55364 0
M  V30 155 C 16.009 1.013 -1.80405 0
M  V30 156 C 16.424 1.79618 -0.581622 0
M  V30 157 O 15.781 1.76879 0.449468 0
M  V30 158 C 15.832 1.96487 -3.03439 0
M  V30 159 O 15.553 1.21341 -4.20961 0
M  V30 160 C 17.054 2.83079 -3.41147 0
M  V30 161 H 14.274 0.298875 -0.600762 0
M  V30 162 H 16.818 0.292736 -2.02394 0
M  V30 163 H 14.973 2.63965 -2.83551 0
M  V30 164 H 15.387 1.85573 -4.90574 0
M  V30 165 H 16.861 3.4565 -4.30384 0
M  V30 166 H 17.338 3.53286 -2.60932 0
M  V30 167 H 17.944 2.2108 -3.63323 0
M  V30 168 N 16.2591 1.48442 0.529413 0
M  V30 169 C 17.5051 1.5672 1.28711 0
M  V30 170 C 17.8381 0.2406 1.92704 0
M  V30 171 O 17.1131 -0.753454 1.79313 0
M  V30 172 C 17.3961 2.70587 2.37603 0
M  V30 173 C 17.2491 4.12953 1.78297 0
M  V30 174 C 18.5681 2.80212 3.39366 0
M  V30 175 H 15.6871 0.570474 0.466613 0
M  V30 176 H 18.3291 1.80617 0.589706 0
M  V30 177 H 16.4791 2.50342 2.97088 0
M  V30 178 H 18.1511 4.44639 1.22858 0
M  V30 179 H 16.3941 4.19927 1.0883 0
M  V30 180 H 17.0651 4.88448 2.57144 0
M  V30 181 H 19.5411 2.98553 2.89836 0
M  V30 182 H 18.4171 3.61611 4.12951 0
M  V30 183 H 18.6781 1.88393 3.99951 0
M  V30 184 N 17.7372 -0.778329 1.37039 0
M  V30 185 C 18.6472 -1.92253 1.34446 0
M  V30 186 C 19.6632 -1.72267 0.244991 0
M  V30 187 O 20.8392 -1.95615 0.479258 0
M  V30 188 C 17.9042 -3.27282 1.144 0
M  V30 189 C 16.9652 -3.59969 2.33925 0
M  V30 190 C 16.1982 -4.88555 2.14825 0
M  V30 191 O 16.4212 -5.59113 1.12912 0
M  V30 192 O 15.3552 -5.20153 3.02861 0
M  V30 193 H 19.1812 -1.97392 2.30803 0
M  V30 194 H 16.7662 -0.920154 1.17701 0
M  V30 195 H 18.6482 -4.08062 1.05182 0
M  V30 196 H 17.3232 -3.23011 0.211124 0
M  V30 197 H 16.2302 -2.7945 2.48714 0
M  V30 198 H 17.5632 -3.68976 3.25757 0
M  V30 199 N 19.2153 -1.21501 -1.00376 0
M  V30 200 C 20.1453 -0.999478 -2.11028 0
M  V30 201 C 21.1263 0.0759671 -1.6993 0
M  V30 202 O 22.3113 -0.0841106 -1.94018 0
M  V30 203 C 19.4413 -0.564709 -3.42678 0
M  V30 204 C 18.3953 -1.58486 -3.97576 0
M  V30 205 C 17.7213 -1.00628 -5.25146 0
M  V30 206 C 19.0213 -2.97204 -4.29496 0
M  V30 207 H 20.7153 -1.92495 -2.29317 0
M  V30 208 H 18.2613 -0.92693 -1.102 0
M  V30 209 H 20.2143 -0.401091 -4.19487 0
M  V30 210 H 18.9383 0.396411 -3.24185 0
M  V30 211 H 17.5973 -1.73606 -3.22888 0
M  V30 212 H 17.2453 -0.0368439 -5.02987 0
M  V30 213 H 16.9453 -1.68771 -5.62841 0
M  V30 214 H 18.4693 -0.854015 -6.04598 0
M  V30 215 H 19.8833 -2.8552 -4.97143 0
M  V30 216 H 18.2803 -3.62372 -4.78338 0
M  V30 217 H 19.3503 -3.47956 -3.3772 0
M  V30 218 N 20.6934 1.19889 -1.02296 0
M  V30 219 C 21.6564 2.21116 -0.603351 0
M  V30 220 C 22.6564 1.5738 0.329884 0
M  V30 221 O 23.8464 1.73802 0.117702 0
M  V30 222 C 20.9784 3.40696 0.117992 0
M  V30 223 H 22.1714 2.59754 -1.49893 0
M  V30 224 H 19.7244 1.33463 -0.813468 0
M  V30 225 H 20.4594 3.07569 1.0282 0
M  V30 226 H 20.2444 3.88188 -0.552511 0
M  V30 227 H 21.7344 4.15692 0.398696 0
M  V30 228 N 22.1715 0.800033 1.35784 0
M  V30 229 C 23.4205 0.37387 1.98205 0
M  V30 230 C 23.7335 -1.06302 1.64193 0
M  V30 231 O 24.9395 -1.59198 2.19928 0
M  V30 232 C 23.3955 0.617532 3.54562 0
M  V30 233 C 23.0035 2.06654 3.9749 0
M  V30 234 C 24.7475 0.256401 4.23725 0
M  V30 235 C 22.6545 2.2563 5.46667 0
M  V30 236 H 21.5845 0.136055 0.741623 0
M  V30 237 H 24.2355 0.983166 1.54939 0
M  V30 238 H 22.6175 -0.0616248 3.95952 0
M  V30 239 H 23.7915 2.78296 3.67271 0
M  V30 240 H 22.1065 2.38691 3.41197 0
M  V30 241 H 24.7035 0.376318 5.33374 0
M  V30 242 H 25.0465 -0.796692 4.08606 0
M  V30 243 H 25.5795 0.889214 3.87734 0
M  V30 244 H 22.3185 3.2936 5.66747 0
M  V30 245 H 21.8385 1.58504 5.78478 0
M  V30 246 H 23.5175 2.06861 6.1304 0
M  V30 247 N 23.6496 -1.47581 0.552962 0
M  V30 248 C 24.6126 -2.28439 -0.186605 0
M  V30 249 C 25.6126 -1.36706 -0.84665 0
M  V30 250 O 26.8026 -1.59378 -0.703164 0
M  V30 251 C 23.9346 -3.16264 -1.2724 0
M  V30 252 H 25.1276 -2.95294 0.523609 0
M  V30 253 H 22.6806 -1.532 0.309745 0
M  V30 254 H 23.4156 -2.54091 -2.01514 0
M  V30 255 H 23.2006 -3.83769 -0.803968 0
M  V30 256 H 24.6906 -3.77198 -1.79196 0
M  V30 257 N 25.1277 -0.289203 -1.54924 0
M  V30 258 C 26.3737 0.323998 -2.00195 0
M  V30 259 C 26.7067 1.54441 -1.17735 0
M  V30 260 O 25.9817 1.92875 -0.250878 0
M  V30 261 C 26.2647 0.692276 -3.53383 0
M  V30 262 C 26.1177 -0.536457 -4.46589 0
M  V30 263 C 27.4367 1.52335 -4.12895 0
M  V30 264 H 24.5557 0.116289 -0.727768 0
M  V30 265 H 27.1977 -0.398954 -1.85764 0
M  V30 266 H 25.3477 1.30822 -3.65811 0
M  V30 267 H 27.0197 -1.17499 -4.46085 0
M  V30 268 H 25.2627 -1.17192 -4.1767 0
M  V30 269 H 25.9337 -0.234806 -5.515 0
M  V30 270 H 28.4097 1.00302 -4.0383 0
M  V30 271 H 27.2857 1.74982 -5.20262 0
M  V30 272 H 27.5467 2.50886 -3.64018 0
M  V30 273 N 26.6058 1.57591 -0.0167156 0
M  V30 274 C 27.5358 2.12496 0.967858 0
M  V30 275 C 28.5168 1.03807 1.34752 0
M  V30 276 O 29.7018 1.31577 1.42833 0
M  V30 277 C 26.8318 2.64194 2.25431 0
M  V30 278 C 25.7858 3.77559 2.01576 0
M  V30 279 C 25.1118 4.15636 3.36379 0
M  V30 280 C 26.4118 5.04151 1.36489 0
M  V30 281 H 28.1058 2.95013 0.510643 0
M  V30 282 H 25.6518 1.41915 0.244181 0
M  V30 283 H 27.6048 3.01236 2.94678 0
M  V30 284 H 26.3288 1.78821 2.73296 0
M  V30 285 H 24.9878 3.40937 1.34751 0
M  V30 286 H 24.6358 3.27263 3.81979 0
M  V30 287 H 24.3358 4.92022 3.21229 0
M  V30 288 H 25.8598 4.5525 4.06915 0
M  V30 289 H 27.2738 5.38857 1.95718 0
M  V30 290 H 25.6708 5.85453 1.31776 0
M  V30 291 H 26.7408 4.83733 0.336219 0
M  V30 292 N 28.0839 -0.256276 1.55502 0
M  V30 293 C 29.0469 -1.30047 1.88734 0
M  V30 294 C 30.0469 -1.4154 0.763086 0
M  V30 295 O 31.2369 -1.40403 1.03115 0
M  V30 296 C 28.3689 -2.67953 2.10747 0
M  V30 297 H 29.5619 -1.01802 2.82093 0
M  V30 298 H 27.1149 -0.495134 1.4825 0
M  V30 299 H 27.8499 -3.01351 1.19825 0
M  V30 300 H 27.6349 -2.60993 2.92617 0
M  V30 301 H 29.1249 -3.43368 2.37673 0
M  V30 302 N 29.562 -1.4872 -0.521534 0
M  V30 303 C 30.811 -1.56419 -1.27341 0
M  V30 304 C 31.124 -0.246805 -1.94037 0
M  V30 305 O 32.33 -0.202122 -2.70747 0
M  V30 306 C 30.786 -2.75896 -2.31105 0
M  V30 307 C 30.394 -4.14311 -1.70441 0
M  V30 308 C 32.138 -2.92913 -3.07249 0
M  V30 309 C 30.045 -5.25038 -2.72194 0
M  V30 310 H 28.975 -0.582344 -0.478949 0
M  V30 311 H 31.626 -1.75071 -0.549779 0
M  V30 312 H 30.008 -2.50697 -3.06541 0
M  V30 313 H 31.182 -4.49564 -1.01136 0
M  V30 314 H 29.497 -4.02482 -1.06759 0
M  V30 315 H 32.094 -3.72805 -3.83302 0
M  V30 316 H 32.437 -2.02689 -3.63625 0
M  V30 317 H 32.97 -3.18054 -2.38928 0
M  V30 318 H 29.709 -6.17255 -2.20627 0
M  V30 319 H 29.229 -4.94263 -3.39801 0
M  V30 320 H 30.908 -5.53508 -3.35019 0
M  V30 321 N 31.0401 0.771051 -1.3745 0
M  V30 322 C 31.9701 1.89827 -1.3597 0
M  V30 323 C 32.9511 1.68562 -0.228216 0
M  V30 324 O 34.1361 1.8941 -0.428675 0
M  V30 325 C 31.2661 3.2712 -1.16662 0
M  V30 326 C 30.2201 3.6295 -2.2683 0
M  V30 327 C 29.5461 4.98791 -1.92644 0
M  V30 328 C 30.8461 3.69627 -3.69017 0
M  V30 329 H 32.5401 1.91323 -2.30295 0
M  V30 330 H 30.0861 0.919082 -1.10855 0
M  V30 331 H 32.0391 4.05615 -1.14256 0
M  V30 332 H 30.7631 3.26059 -0.187926 0
M  V30 333 H 29.4221 2.86763 -2.28392 0
M  V30 334 H 29.0701 4.94271 -0.933021 0
M  V30 335 H 28.7701 5.23733 -2.66416 0
M  V30 336 H 30.2941 5.79685 -1.91826 0
M  V30 337 H 31.7081 4.38273 -3.69581 0
M  V30 338 H 30.1051 4.06067 -4.41848 0
M  V30 339 H 31.1751 2.70273 -4.02592 0
M  V30 340 N 32.5182 1.22032 0.997298 0
M  V30 341 C 33.7662 1.04016 1.73278 0
M  V30 342 C 34.0872 -0.426255 1.90284 0
M  V30 343 O 33.3572 -1.30694 1.45931 0
M  V30 344 H 31.9372 0.381897 0.642 0
M  V30 345 H 34.5992 1.5347 1.20137 0
M  V30 346 H 33.6952 1.51441 2.72896 0
M  V30 347 N 33.9963 -1.19345 1.0293 0
M  V30 348 C 34.9443 -2.24621 0.604001 0
M  V30 349 C 35.9383 -1.65452 -0.363587 0
M  V30 350 O 37.1443 -1.78497 -0.23212 0
M  V30 351 H 33.5193 -0.730858 0.177061 0
M  V30 352 H 35.4903 -2.5781 1.50255 0
M  V30 353 C 34.2393 -3.47688 -0.0289127 0
M  V30 354 H 33.5623 -3.93505 0.706651 0
M  V30 355 H 35.0023 -4.23011 -0.289432 0
M  V30 356 C 33.4613 -3.11817 -1.2756 0
M  V30 357 O 33.9913 -3.2451 -2.36762 0
M  V30 358 N 32.1973 -2.66246 -1.16453 0
M  V30 359 H 31.7443 -2.56118 -0.275914 0
M  V30 360 H 31.7023 -2.42617 -1.99961 0
M  V30 361 N 35.4744 -0.807222 -1.35358 0
M  V30 362 C 36.7204 -0.388463 -1.99045 0
M  V30 363 C 37.0534 1.04184 -1.63888 0
M  V30 364 O 36.3284 1.72292 -0.902535 0
M  V30 365 C 36.6114 -0.572783 -3.55515 0
M  V30 366 C 36.4644 -2.04807 -4.00468 0
M  V30 367 C 37.7834 0.00114064 -4.401 0
M  V30 368 H 34.9024 -0.142619 -0.723069 0
M  V30 369 H 37.5444 -1.01687 -1.60498 0
M  V30 370 H 35.6944 -0.0378425 -3.88482 0
M  V30 371 H 37.3664 -2.64544 -3.77908 0
M  V30 372 H 35.6094 -2.54427 -3.51353 0
M  V30 373 H 36.2804 -2.12792 -5.09337 0
M  V30 374 H 38.7564 -0.455716 -4.13597 0
M  V30 375 H 37.6324 -0.157737 -5.48673 0
M  V30 376 H 37.8934 1.09488 -4.28328 0
M  V30 377 N 36.9525 1.47285 -0.560781 0
M  V30 378 C 37.8825 2.32857 0.173105 0
M  V30 379 C 38.8635 1.44009 0.905281 0
M  V30 380 O 40.0485 1.7286 0.885046 0
M  V30 381 C 37.1785 3.25861 1.20133 0
M  V30 382 C 36.1325 4.23978 0.585388 0
M  V30 383 C 35.4585 5.06332 1.7185 0
M  V30 384 C 36.7585 5.20242 -0.463178 0
M  V30 385 H 38.4525 2.94466 -0.541307 0
M  V30 386 H 35.9985 1.41601 -0.261764 0
M  V30 387 H 37.9515 3.84569 1.72293 0
M  V30 388 H 36.6755 2.62315 1.94573 0
M  V30 389 H 35.3345 3.66501 0.085054 0
M  V30 390 H 34.9825 4.39186 2.45203 0
M  V30 391 H 34.6825 5.72762 1.31213 0
M  V30 392 H 36.2065 5.67899 2.24329 0
M  V30 393 H 37.6205 5.73293 -0.027502 0
M  V30 394 H 36.0175 5.94896 -0.788627 0
M  V30 395 H 37.0875 4.65504 -1.35773 0
M  V30 396 N 38.4306 0.297415 1.54768 0
M  V30 397 C 39.6766 -0.313376 2.00364 0
M  V30 398 C 40.0096 -1.53815 1.18553 0
M  V30 399 O 39.2846 -1.92739 0.261103 0
M  V30 400 C 39.5676 -0.673525 3.53745 0
M  V30 401 C 39.4206 0.560133 4.46299 0
M  V30 402 C 40.7396 -1.50143 4.13697 0
M  V30 403 H 37.8586 -0.112428 0.728374 0
M  V30 404 H 40.5006 0.4088 1.8555 0
M  V30 405 H 38.6506 -1.28881 3.665 0
M  V30 406 H 40.3226 1.19863 4.45455 0
M  V30 407 H 38.5656 1.19405 4.17043 0
M  V30 408 H 39.2366 0.26405 5.51368 0
M  V30 409 H 41.7126 -0.981588 4.04356 0
M  V30 410 H 40.5886 -1.72221 5.21182 0
M  V30 411 H 40.8496 -2.48952 3.65343 0
M  V30 412 N 39.9087 -1.5758 0.0250728 0
M  V30 413 C 41.1487 -1.93497 -0.65865 0
M  V30 414 C 41.5127 -0.901409 -1.69525 0
M  V30 415 O 42.7137 -1.14664 -2.43116 0
M  V30 416 C 40.9847 -3.34352 -1.26267 0
M  V30 417 S 42.5437 -3.92191 -1.96803 0
M  V30 418 H 39.3617 -0.67709 -0.216958 0
M  V30 419 H 41.9637 -1.95303 0.0877692 0
M  V30 420 H 40.6677 -4.07395 -0.495741 0
M  V30 421 H 40.1987 -3.3598 -2.04648 0
M  V30 422 H 42.2137 -3.75298 -3.24601 0
M  V30 423 N 41.3868 0.248026 -1.55636 0
M  V30 424 C 42.6328 0.973427 -1.78594 0
M  V30 425 C 42.9878 1.83007 -0.593823 0
M  V30 426 O 42.2808 1.87097 0.412961 0
M  V30 427 C 42.4748 1.86819 -3.04686 0
M  V30 428 C 42.3038 1.09965 -4.36048 0
M  V30 429 C 41.0738 0.805204 -4.98843 0
M  V30 430 C 43.2718 0.477783 -5.12076 0
M  V30 431 N 41.2538 0.0124859 -6.13899 0
M  V30 432 C 42.6248 -0.179565 -6.1974 0
M  V30 433 C 44.6798 0.388136 -4.96385 0
M  V30 434 C 43.3828 -0.91795 -7.13419 0
M  V30 435 C 45.4088 -0.336716 -5.90441 0
M  V30 436 C 44.7708 -0.982705 -6.97511 0
M  V30 437 H 40.8698 0.337348 -0.705493 0
M  V30 438 H 43.4538 0.24667 -1.93131 0
M  V30 439 H 41.6248 2.56698 -2.9148 0
M  V30 440 H 43.3568 2.52907 -3.15944 0
M  V30 441 H 40.1118 1.11671 -4.60246 0
M  V30 442 H 40.5358 -0.371933 -6.75978 0
M  V30 443 H 45.1778 0.873237 -4.13684 0
M  V30 444 H 42.8958 -1.41466 -7.95621 0
M  V30 445 H 46.4818 -0.406731 -5.80377 0
M  V30 446 H 45.3618 -1.53464 -7.69037 0
M  V30 447 N 42.8649 1.48995 0.513639 0
M  V30 448 C 43.8279 1.64229 1.59879 0
M  V30 449 C 44.8279 0.514696 1.5234 0
M  V30 450 O 46.0179 0.78087 1.55718 0
M  V30 451 C 43.1499 1.62783 2.99524 0
M  V30 452 H 44.3429 2.61004 1.47705 0
M  V30 453 H 41.8959 1.37837 0.736936 0
M  V30 454 H 42.6309 0.675461 3.17188 0
M  V30 455 H 42.4159 2.4466 3.06404 0
M  V30 456 H 43.9059 1.76669 3.78388 0
M  V30 457 N 44.343 -0.763751 1.37857 0
M  V30 458 C 45.589 -1.52483 1.33704 0
M  V30 459 C 45.922 -1.94051 -0.0759612 0
M  V30 460 O 45.197 -1.64675 -1.03501 0
M  V30 461 C 45.48 -2.78441 2.28348 0
M  V30 462 C 45.333 -2.43075 3.78463 0
M  V30 463 C 46.652 -3.80415 2.21298 0
M  V30 464 H 43.771 -0.553169 0.487005 0
M  V30 465 H 46.413 -0.875562 1.68624 0
M  V30 466 H 44.563 -3.33842 1.987 0
M  V30 467 H 46.235 -1.93527 4.18742 0
M  V30 468 H 44.478 -1.75666 3.96641 0
M  V30 469 H 45.149 -3.33149 4.40132 0
M  V30 470 H 47.625 -3.34527 2.47449 0
M  V30 471 H 46.501 -4.66257 2.89647 0
M  V30 472 H 46.762 -4.25262 1.20849 0
M  V30 473 N 45.8211 -1.22559 -0.990812 0
M  V30 474 C 47.0671 -1.06303 -1.73411 0
M  V30 475 C 47.4221 0.397442 -1.8825 0
M  V30 476 O 46.7151 1.29062 -1.41611 0
M  V30 477 C 46.9091 -1.71011 -3.13831 0
M  V30 478 C 46.7381 -3.232 -3.12685 0
M  V30 479 C 45.5081 -3.92314 -3.18461 0
M  V30 480 C 47.7061 -4.20107 -2.96673 0
M  V30 481 N 45.6881 -5.31571 -3.07091 0
M  V30 482 C 47.0591 -5.46208 -2.93354 0
M  V30 483 C 49.1141 -4.10973 -2.8108 0
M  V30 484 C 47.8171 -6.64225 -2.76039 0
M  V30 485 C 49.8431 -5.28642 -2.65126 0
M  V30 486 C 49.2051 -6.53663 -2.62496 0
M  V30 487 H 45.3041 -0.443441 -0.644115 0
M  V30 488 H 47.8881 -1.55131 -1.17654 0
M  V30 489 H 46.0591 -1.2473 -3.67827 0
M  V30 490 H 47.7911 -1.47828 -3.76735 0
M  V30 491 H 44.5461 -3.43326 -3.26227 0
M  V30 492 H 44.9701 -6.0455 -3.0471 0
M  V30 493 H 49.6121 -3.15098 -2.8191 0
M  V30 494 H 47.3301 -7.60246 -2.73954 0
M  V30 495 H 50.9161 -5.23407 -2.54039 0
M  V30 496 H 49.7961 -7.43182 -2.50302 0
M  V30 497 N 47.2992 1.18797 -1.03562 0
M  V30 498 C 48.2292 2.24472 -0.643019 0
M  V30 499 C 49.2102 1.66433 0.351283 0
M  V30 500 O 50.3952 1.92803 0.232505 0
M  V30 501 C 47.5252 3.473 4.24935e-05 0
M  V30 502 C 46.4792 4.18055 -0.917257 0
M  V30 503 C 45.8052 5.34519 -0.138941 0
M  V30 504 C 47.1052 4.72109 -2.23407 0
M  V30 505 H 48.7992 2.57566 -1.52643 0
M  V30 506 H 46.3452 1.23806 -0.735394 0
M  V30 507 H 48.2982 4.20426 0.286383 0
M  V30 508 H 47.0222 3.13424 0.918299 0
M  V30 509 H 45.6812 3.46821 -1.1879 0
M  V30 510 H 45.3292 4.96891 0.781562 0
M  V30 511 H 45.0292 5.82794 -0.750005 0
M  V30 512 H 46.5532 6.10438 0.1405 0
M  V30 513 H 47.9672 5.36955 -2.00879 0
M  V30 514 H 46.3642 5.30897 -2.79765 0
M  V30 515 H 47.4342 3.89807 -2.88407 0
M  V30 516 N 48.7773 0.814389 1.34928 0
M  V30 517 C 49.7253 0.218424 2.31572 0
M  V30 518 C 50.7193 -0.636128 1.57002 0
M  V30 519 O 51.9253 -0.52842 1.72069 0
M  V30 520 H 48.3003 0.0518799 0.750208 0
M  V30 521 H 50.2713 1.04852 2.79372 0
M  V30 522 C 49.0203 -0.61207 3.4227 0
M  V30 523 H 48.3433 0.0361578 3.99784 0
M  V30 524 H 49.7833 -0.995317 4.12152 0
M  V30 525 C 48.2423 -1.78087 2.85984 0
M  V30 526 O 48.7723 -2.8787 2.80168 0
M  V30 527 N 46.9783 -1.59488 2.42924 0
M  V30 528 H 46.5253 -0.701874 2.47854 0
M  V30 529 H 46.4833 -2.37846 2.05613 0
M  V30 530 N 50.2554 -1.46986 0.568584 0
M  V30 531 C 51.4804 -2.07335 0.0520528 0
M  V30 532 C 51.9054 -1.41675 -1.23733 0
M  V30 533 O 51.2634 -0.495623 -1.74394 0
M  V30 534 C 51.3114 -3.60417 -0.11501 0
M  V30 535 O 50.4154 -3.95309 -1.17492 0
M  V30 536 H 49.7564 -0.661597 0.0564385 0
M  V30 537 H 52.2864 -1.88837 0.787507 0
M  V30 538 H 52.2964 -4.06698 -0.325644 0
M  V30 539 H 50.9714 -4.07601 0.826675 0
M  V30 540 H 49.5484 -3.60757 -0.943869 0
M  V30 541 N 51.7335 -0.305618 -1.54608 0
M  V30 542 C 52.6815 0.584119 -2.25146 0
M  V30 543 C 53.6755 1.13326 -1.25911 0
M  V30 544 O 54.8815 1.08337 -1.43747 0
M  V30 545 H 51.2565 0.206983 -0.722954 0
M  V30 546 H 53.2275 -0.033291 -2.98381 0
M  V30 547 C 51.9765 1.74225 -3.009 0
M  V30 548 H 51.2995 1.32892 -3.77067 0
M  V30 549 H 52.7395 2.34077 -3.53531 0
M  V30 550 C 51.1985 2.64914 -2.0814 0
M  V30 551 O 51.7285 3.66137 -1.65246 0
M  V30 552 N 49.9345 2.3275 -1.74 0
M  V30 553 H 49.4815 1.50479 -2.09078 0
M  V30 554 H 49.4395 2.93694 -1.12211 0
M  V30 555 N 53.2116 1.57565 -0.0334293 0
M  V30 556 C 54.1416 2.13511 0.945265 0
M  V30 557 C 55.1226 1.05231 1.33643 0
M  V30 558 O 56.3076 1.33084 1.41429 0
M  V30 559 C 53.4376 2.6657 2.22616 0
M  V30 560 C 52.3916 3.79676 1.97561 0
M  V30 561 C 51.7176 4.1918 3.31952 0
M  V30 562 C 53.0176 5.0557 1.31135 0
M  V30 563 H 54.7116 2.95538 0.479325 0
M  V30 564 H 52.2576 1.42166 0.229115 0
M  V30 565 H 54.2106 3.04344 2.91466 0
M  V30 566 H 52.9346 1.8171 2.71384 0
M  V30 567 H 51.5936 3.42347 1.31127 0
M  V30 568 H 51.2416 3.31296 3.78487 0
M  V30 569 H 50.9416 4.95402 3.15992 0
M  V30 570 H 52.4656 4.59541 4.02063 0
M  V30 571 H 53.8796 5.40903 1.89992 0
M  V30 572 H 52.2766 5.86818 1.25559 0
M  V30 573 H 53.3466 4.84062 0.284894 0
M  V30 574 N 54.6897 -0.239769 1.55765 0
M  V30 575 C 55.6217 -1.32001 1.87372 0
M  V30 576 C 56.6347 -1.43944 0.760522 0
M  V30 577 O 57.8237 -1.45167 1.0387 0
M  V30 578 C 54.9237 -2.69779 2.05115 0
M  V30 579 C 54.0967 -2.80014 3.36022 0
M  V30 580 C 53.1557 -3.98684 3.4342 0
M  V30 581 O 52.1817 -3.87877 4.16582 0
M  V30 582 N 53.3837 -5.12176 2.73232 0
M  V30 583 H 56.1487 -1.0522 2.80622 0
M  V30 584 H 53.7097 -0.429857 1.56089 0
M  V30 585 H 55.7017 -3.47517 2.07399 0
M  V30 586 H 54.2717 -2.89237 1.18577 0
M  V30 587 H 53.4917 -1.88896 3.45994 0
M  V30 588 H 54.7797 -2.83808 4.22292 0
M  V30 589 H 54.1777 -5.2385 2.13536 0
M  V30 590 H 52.7347 -5.88022 2.81199 0
M  V30 591 N 56.1678 -1.49265 -0.50573 0
M  V30 592 C 57.1158 -1.66065 -1.62866 0
M  V30 593 C 58.1098 -0.526636 -1.61006 0
M  V30 594 O 59.3158 -0.706126 -1.65571 0
M  V30 595 H 55.6908 -0.52356 -0.539805 0
M  V30 596 H 57.6618 -2.60329 -1.45848 0
M  V30 597 C 56.4108 -1.74008 -3.01026 0
M  V30 598 H 55.7338 -2.6064 -3.03161 0
M  V30 599 H 57.1738 -1.89798 -3.79147 0
M  V30 600 C 55.6328 -0.483868 -3.33407 0
M  V30 601 O 56.1628 0.392548 -3.99777 0
M  V30 602 N 54.3688 -0.348236 -2.88506 0
M  V30 603 H 53.9158 -1.06242 -2.34671 0
M  V30 604 H 53.8738 0.491204 -3.10539 0
M  V30 605 N 57.6459 0.756429 -1.3826 0
M  V30 606 C 58.8919 1.51772 -1.34511 0
M  V30 607 C 59.2249 1.94089 0.0656691 0
M  V30 608 O 58.4999 1.65221 1.02626 0
M  V30 609 C 58.7829 2.77226 -2.29821 0
M  V30 610 C 58.6359 2.41065 -3.79747 0
M  V30 611 C 59.9549 3.79236 -2.23312 0
M  V30 612 H 57.0739 0.550578 -0.489931 0
M  V30 613 H 59.7159 0.866607 -1.69086 0
M  V30 614 H 57.8659 3.32784 -2.00467 0
M  V30 615 H 59.5379 1.91303 -4.19763 0
M  V30 616 H 57.7809 1.7356 -3.97567 0
M  V30 617 H 58.4519 3.3081 -4.41892 0
M  V30 618 H 60.9279 3.3321 -2.49219 0
M  V30 619 H 59.8039 4.64714 -2.92116 0
M  V30 620 H 60.0649 4.24615 -1.23102 0
M  V30 621 N 59.124 1.23083 0.984299 0
M  V30 622 C 60.352 1.08714 1.76037 0
M  V30 623 C 60.767 -0.361691 1.85303 0
M  V30 624 O 60.124 -1.25034 1.32939 0
M  V30 625 C 60.175 1.70206 3.18923 0
M  V30 626 O 59.896 3.09423 3.10144 0
M  V30 627 C 61.397 1.61227 4.12941 0
M  V30 628 H 58.617 0.380664 0.552572 0
M  V30 629 H 61.161 1.62853 1.23689 0
M  V30 630 H 59.316 1.20109 3.6831 0
M  V30 631 H 59.73 3.39188 4.00065 0
M  V30 632 H 61.204 2.08962 5.10919 0
M  V30 633 H 61.681 0.570375 4.35481 0
M  V30 634 H 62.287 2.10671 3.69456 0
M  V30 635 N 60.6021 -1.18246 1.0419 0
M  V30 636 C 61.5501 -2.23968 0.627792 0
M  V30 637 C 62.5441 -1.65828 -0.346019 0
M  V30 638 O 63.7501 -1.78733 -0.213175 0
M  V30 639 H 60.1251 -0.728939 0.184802 0
M  V30 640 H 62.0961 -2.56202 1.52981 0
M  V30 641 C 60.8451 -3.47699 0.00796591 0
M  V30 642 H 60.1681 -3.92734 0.748347 0
M  V30 643 H 61.6081 -4.23294 -0.24455 0
M  V30 644 C 60.0671 -3.13153 -1.24246 0
M  V30 645 O 60.5971 -3.27003 -2.33307 0
M  V30 646 N 58.8031 -2.67467 -1.13622 0
M  V30 647 H 58.3501 -2.56396 -0.248734 0
M  V30 648 H 58.3081 -2.44724 -1.97377 0
M  V30 649 N 62.0802 -0.821533 -1.34494 0
M  V30 650 C 63.3102 -0.421272 -2.02259 0
M  V30 651 C 63.7182 0.977047 -1.6202 0
M  V30 652 O 63.0612 1.64348 -0.820703 0
M  V30 653 C 63.1232 -0.44231 -3.56769 0
M  V30 654 C 62.7872 -1.79372 -4.20327 0
M  V30 655 C 63.7842 -2.75435 -4.40944 0
M  V30 656 C 61.4692 -2.08182 -4.57127 0
M  V30 657 C 63.4632 -3.98482 -4.97484 0
M  V30 658 C 61.1502 -3.31489 -5.13379 0
M  V30 659 C 62.1482 -4.26457 -5.33501 0
M  V30 660 O 61.8362 -5.47585 -5.88562 0
M  V30 661 H 61.5682 -0.167473 -0.654927 0
M  V30 662 H 64.1222 -1.11073 -1.72777 0
M  V30 663 H 62.3522 0.303836 -3.85505 0
M  V30 664 H 64.0412 -0.0622925 -4.05852 0
M  V30 665 H 64.8072 -2.54473 -4.12878 0
M  V30 666 H 60.6862 -1.35066 -4.4077 0
M  V30 667 H 64.2302 -4.72618 -5.13106 0
M  V30 668 H 60.1272 -3.52316 -5.40873 0
M  V30 669 H 60.8952 -5.49086 -6.06998 0
M  V30 670 N 63.5583 1.46682 -0.576371 0
M  V30 671 C 64.8053 2.02412 -0.0595339 0
M  V30 672 C 65.1333 1.44859 1.29793 0
M  V30 673 O 64.3883 0.601099 1.8624 0
M  V30 674 C 64.6873 3.57345 0.062886 0
M  V30 675 C 64.3533 4.33908 -1.22616 0
M  V30 676 C 63.0153 4.54544 -1.57933 0
M  V30 677 C 65.3673 4.77919 -2.07948 0
M  V30 678 C 62.6953 5.16444 -2.78393 0
M  V30 679 C 65.0473 5.41149 -3.27629 0
M  V30 680 C 63.7113 5.60014 -3.63236 0
M  V30 681 H 62.9813 0.74068 -0.021785 0
M  V30 682 H 65.6283 1.76128 -0.751735 0
M  V30 683 H 63.9333 3.82729 0.838178 0
M  V30 684 H 65.6303 3.98136 0.478439 0
M  V30 685 H 62.2203 4.18138 -0.941202 0
M  V30 686 H 66.4043 4.61738 -1.81967 0
M  V30 687 H 61.6603 5.29242 -3.06126 0
M  V30 688 H 65.8343 5.74211 -3.94023 0
M  V30 689 H 63.4613 6.07748 -4.56669 0
M  V30 690 N 65.0364 0.313813 1.54444 0
M  V30 691 C 66.2824 -0.292108 2.00685 0
M  V30 692 C 66.6154 -1.52548 1.20177 0
M  V30 693 O 65.8904 -1.92452 0.281531 0
M  V30 694 C 66.1734 -0.635968 3.5444 0
M  V30 695 C 66.0264 0.607437 4.4568 0
M  V30 696 C 67.3454 -1.45747 4.15266 0
M  V30 697 H 64.4644 -0.104697 0.729526 0
M  V30 698 H 67.1064 0.428457 1.85106 0
M  V30 699 H 65.2564 -1.24986 3.67846 0
M  V30 700 H 66.9284 1.24581 4.44159 0
M  V30 701 H 65.1714 1.23822 4.15753 0
M  V30 702 H 65.8424 0.322515 5.51057 0
M  V30 703 H 68.3184 -0.938645 4.05375 0
M  V30 704 H 67.1944 -1.66683 5.2298 0
M  V30 705 H 67.4554 -2.45063 3.67963 0
M  V30 706 N 66.5145 -1.57545 0.0417849 0
M  V30 707 C 67.7605 -1.92601 -0.635021 0
M  V30 708 C 68.0935 -0.919627 -1.71045 0
M  V30 709 O 67.3685 0.0557892 -1.9442 0
M  V30 710 C 67.6515 -3.38085 -1.23979 0
M  V30 711 C 67.5045 -4.49467 -0.173057 0
M  V30 712 C 68.8235 -3.83776 -2.15416 0
M  V30 713 H 65.9425 -0.700397 -0.229374 0
M  V30 714 H 68.5845 -1.89728 0.101633 0
M  V30 715 H 66.7345 -3.40664 -1.86762 0
M  V30 716 H 68.4065 -4.59018 0.458312 0
M  V30 717 H 66.6495 -4.30909 0.499996 0
M  V30 718 H 67.3205 -5.48323 -0.636054 0
M  V30 719 H 69.7965 -3.83013 -1.62605 0
M  V30 720 H 68.6725 -4.8624 -2.54679 0
M  V30 721 H 68.9335 -3.19998 -3.05047 0
M  V30 722 N 67.9926 0.231505 -1.5589 0
M  V30 723 C 69.2176 0.978689 -1.82856 0
M  V30 724 C 69.6426 1.77559 -0.620846 0
M  V30 725 O 69.0006 1.76119 0.430305 0
M  V30 726 C 69.0486 1.87997 -3.07716 0
M  V30 727 O 68.1526 2.97393 -2.85712 0
M  V30 728 H 67.4936 0.277663 -0.603158 0
M  V30 729 H 70.0236 0.24783 -2.03093 0
M  V30 730 H 70.0336 2.2917 -3.37558 0
M  V30 731 H 68.7086 1.29417 -3.95252 0
M  V30 732 H 67.2856 2.60238 -2.67078 0
M  V30 733 N 69.4707 1.49531 0.497807 0
M  V30 734 C 70.4007 1.6935 1.60757 0
M  V30 735 C 71.3817 0.542218 1.61227 0
M  V30 736 O 72.5667 0.778417 1.77917 0
M  V30 737 C 69.6967 1.76298 2.99226 0
M  V30 738 C 68.6507 2.91248 3.13622 0
M  V30 739 C 67.9767 2.83312 4.53474 0
M  V30 740 C 69.2767 4.3214 2.93346 0
M  V30 741 H 70.9707 2.62263 1.44425 0
M  V30 742 H 68.5167 1.26208 0.693367 0
M  V30 743 H 70.4697 1.88749 3.76765 0
M  V30 744 H 69.1937 0.799871 3.16654 0
M  V30 745 H 67.8527 2.78404 2.38509 0
M  V30 746 H 67.5007 1.84902 4.67782 0
M  V30 747 H 67.2007 3.60465 4.64046 0
M  V30 748 H 68.7247 2.97775 5.33069 0
M  V30 749 H 70.1387 4.45649 3.60652 0
M  V30 750 H 68.5357 5.1054 3.15387 0
M  V30 751 H 69.6057 4.46363 1.89441 0
M  V30 752 N 70.9488 -0.749086 1.3866 0
M  V30 753 C 71.9118 -1.84457 1.36045 0
M  V30 754 C 72.9118 -1.58682 0.260122 0
M  V30 755 O 74.1018 -1.66343 0.517261 0
M  V30 756 C 71.2338 -3.22008 1.11911 0
M  V30 757 H 72.4268 -1.88182 2.33512 0
M  V30 758 H 69.9798 -0.951266 1.24019 0
M  V30 759 H 70.7148 -3.2395 0.150686 0
M  V30 760 H 70.4998 -3.42111 1.91579 0
M  V30 761 H 71.9898 -4.0208 1.12788 0
M  V30 762 N 72.4269 -1.23603 -0.977757 0
M  V30 763 C 73.3899 -1.02069 -2.05218 0
M  V30 764 C 74.3899 0.0184305 -1.60789 0
M  V30 765 O 75.5799 -0.221569 -1.72785 0
M  V30 766 C 72.7119 -0.544926 -3.36517 0
M  V30 767 H 73.9049 -1.9742 -2.25755 0
M  V30 768 H 71.4579 -1.05684 -1.15155 0
M  V30 769 H 72.1929 0.412241 -3.21669 0
M  V30 770 H 71.9779 -1.2948 -3.70105 0
M  V30 771 H 73.4679 -0.414985 -4.15533 0
M  V30 772 N 73.905 1.17692 -1.04816 0
M  V30 773 C 74.868 2.19787 -0.650117 0
M  V30 774 C 75.868 1.58044 0.296427 0
M  V30 775 O 77.058 1.74012 0.0808097 0
M  V30 776 C 74.19 3.40869 0.0456987 0
M  V30 777 H 75.383 2.56516 -1.5537 0
M  V30 778 H 72.936 1.31708 -0.841594 0
M  V30 779 H 73.671 3.09681 0.962726 0
M  V30 780 H 73.456 3.86928 -0.634727 0
M  V30 781 H 74.946 4.16445 0.310432 0
M  V30 782 N 75.3831 0.828654 1.34056 0
M  V30 783 C 76.6601 0.341809 1.9259 0
M  V30 784 C 77.0401 -1.17158 1.75605 0
M  V30 785 O 76.3881 -1.98132 1.13824 0
M  V30 786 C 76.5981 0.777453 3.4023 0
M  V30 787 C 77.9461 0.779579 4.17382 0
M  V30 788 O 78.9701 0.7204 3.48839 0
M  V30 789 O 77.8291 0.857996 5.39723 0
M  V30 790 H 74.9231 0.0946085 0.821571 0
M  V30 791 H 77.4691 0.913827 1.42994 0
M  V30 792 H 76.2411 1.8196 3.46419 0
M  V30 793 H 75.8641 0.181444 3.97186 0
M  V30 794 N 76.8612 -1.46375 0.584142 0
M  V30 795 C 78.1102 -2.01585 0.0679741 0
M  V30 796 C 78.4232 -1.46109 -1.30045 0
M  V30 797 O 79.6292 -1.93148 -1.90804 0
M  V30 798 C 78.0852 -3.5983 0.0709207 0
M  V30 799 C 77.6932 -4.24303 1.43775 0
M  V30 800 C 79.4372 -4.22693 -0.391228 0
M  V30 801 C 77.3442 -5.74631 1.39834 0
M  V30 802 H 76.2742 -0.753689 0.0216421 0
M  V30 803 H 78.9252 -1.68093 0.736001 0
M  V30 804 H 77.3072 -3.90405 -0.663299 0
M  V30 805 H 78.4812 -4.05335 2.19181 0
M  V30 806 H 76.7962 -3.73539 1.84004 0
M  V30 807 H 79.3932 -5.3289 -0.439524 0
M  V30 808 H 79.7362 -3.91728 -1.40906 0
M  V30 809 H 80.2692 -3.96749 0.288974 0
M  V30 810 H 77.0082 -6.10258 2.39303 0
M  V30 811 H 76.5282 -5.95858 0.686505 0
M  V30 812 H 78.2072 -6.37375 1.11187 0
M  V30 813 N 78.3393 -0.321999 -1.54275 0
M  V30 814 C 79.3023 0.531975 -2.22941 0
M  V30 815 C 80.3023 1.04478 -1.22234 0
M  V30 816 O 81.4923 0.937452 -1.46825 0
M  V30 817 C 78.6243 1.73874 -2.93224 0
M  V30 818 H 79.8173 -0.0682612 -2.99822 0
M  V30 819 H 77.3703 -0.0730644 -1.56129 0
M  V30 820 H 78.1053 2.37825 -2.20476 0
M  V30 821 H 77.8903 1.37847 -3.6707 0
M  V30 822 H 79.3803 2.34496 -3.45545 0
M  V30 823 N 79.8174 1.5752 -0.0501392 0
M  V30 824 C 81.0634 1.92936 0.624798 0
M  V30 825 C 81.3964 0.928685 1.70555 0
M  V30 826 O 80.6714 -0.0454779 1.94447 0
M  V30 827 C 80.9544 3.38737 1.22185 0
M  V30 828 C 80.8074 4.49552 0.149218 0
M  V30 829 C 82.1264 3.84913 2.13378 0
M  V30 830 H 79.2454 0.701604 0.225657 0
M  V30 831 H 81.8874 1.89671 -0.111693 0
M  V30 832 H 80.0374 3.4165 1.84953 0
M  V30 833 H 81.7094 4.58768 -0.482648 0
M  V30 834 H 79.9524 4.30638 -0.522841 0
M  V30 835 H 80.6234 5.48653 0.606966 0
M  V30 836 H 83.0994 3.8387 1.60572 0
M  V30 837 H 81.9754 4.87584 2.52097 0
M  V30 838 H 82.2364 3.21611 3.03346 0
M  V30 839 N 81.2955 -0.223234 1.56011 0
M  V30 840 C 82.5435 -0.946003 1.78592 0
M  V30 841 C 82.8645 -1.84936 0.618349 0
M  V30 842 O 82.1345 -1.92473 -0.364833 0
M  V30 843 H 80.7145 -0.352298 0.658707 0
M  V30 844 H 83.3765 -0.235494 1.93472 0
M  V30 845 H 82.4725 -1.55381 2.70672 0
M  V30 846 N 82.7736 -1.49793 -0.48987 0
M  V30 847 C 84.0196 -1.60078 -1.24511 0
M  V30 848 C 84.3526 -0.291608 -1.91998 0
M  V30 849 O 83.6276 0.705647 -1.81248 0
M  V30 850 C 83.9106 -2.76791 -2.30345 0
M  V30 851 C 83.7636 -4.17535 -1.67286 0
M  V30 852 C 85.0826 -2.89111 -3.31817 0
M  V30 853 H 82.2016 -0.582645 -0.451324 0
M  V30 854 H 84.8436 -1.82117 -0.541612 0
M  V30 855 H 82.9936 -2.5813 -2.90346 0
M  V30 856 H 84.6656 -4.4774 -1.11026 0
M  V30 857 H 82.9086 -4.22665 -0.976577 0
M  V30 858 H 83.5796 -4.95094 -2.44103 0
M  V30 859 H 86.0556 -3.06133 -2.81819 0
M  V30 860 H 84.9316 -3.72433 -4.03219 0
M  V30 861 H 85.1926 -1.9893 -3.94815 0
M  V30 862 N 84.2517 0.741722 -1.39055 0
M  V30 863 C 85.1817 1.869 -1.39966 0
M  V30 864 C 86.1627 1.6804 -0.26392 0
M  V30 865 O 87.3477 1.88458 -0.468755 0
M  V30 866 C 84.4777 3.24572 -1.23574 0
M  V30 867 C 83.4317 3.58056 -2.34477 0
M  V30 868 C 82.7577 4.94593 -2.0318 0
M  V30 869 C 84.0577 3.61716 -3.76774 0
M  V30 870 H 85.7517 1.86395 -2.34302 0
M  V30 871 H 83.2977 0.895361 -1.1278 0
M  V30 872 H 85.2507 4.031 -1.22834 0
M  V30 873 H 83.9747 3.25587 -0.257045 0
M  V30 874 H 82.6337 2.81854 -2.34423 0
M  V30 875 H 82.2817 4.92181 -1.03765 0
M  V30 876 H 81.9817 5.17964 -2.77465 0
M  V30 877 H 83.5057 5.75486 -2.04079 0
M  V30 878 H 84.9197 4.30335 -3.78794 0
M  V30 879 H 83.3167 3.96603 -4.50362 0
M  V30 880 H 84.3867 2.61672 -4.08235 0
M  V30 881 N 85.7298 1.2412 0.971189 0
M  V30 882 C 86.6928 1.03156 2.04674 0
M  V30 883 C 87.6928 -0.00990322 1.60797 0
M  V30 884 O 88.8828 0.230729 1.72665 0
M  V30 885 C 86.0148 0.562765 3.36223 0
M  V30 886 H 87.2078 1.98614 2.24705 0
M  V30 887 H 84.7608 1.06293 1.14593 0
M  V30 888 H 85.4958 -0.395176 3.21883 0
M  V30 889 H 85.2808 1.31441 3.69413 0
M  V30 890 H 86.7708 0.437015 4.15307 0
M  V30 891 N 87.2079 -1.17134 1.05439 0
M  V30 892 C 88.4569 -1.86791 0.761049 0
M  V30 893 C 88.7699 -1.82072 -0.714795 0
M  V30 894 O 89.9759 -2.47223 -1.12218 0
M  V30 895 C 88.4319 -3.35166 1.31117 0
M  V30 896 C 88.0399 -3.48381 2.81664 0
M  V30 897 C 89.7839 -4.10134 1.09499 0
M  V30 898 C 87.6909 -4.90793 3.29964 0
M  V30 899 H 86.6209 -0.699681 0.281002 0
M  V30 900 H 89.2719 -1.3226 1.27199 0
M  V30 901 H 87.6539 -3.8925 0.72803 0
M  V30 902 H 88.8279 -3.04502 3.45855 0
M  V30 903 H 87.1429 -2.86836 3.01851 0
M  V30 904 H 89.7399 -5.152 1.43084 0
M  V30 905 H 90.0829 -4.16287 0.0328772 0
M  V30 906 H 90.6159 -3.62264 1.64346 0
M  V30 907 H 87.3549 -4.89816 4.35616 0
M  V30 908 H 86.8749 -5.35333 2.70516 0
M  V30 909 H 88.5539 -5.59573 3.24787 0
M  V30 910 N 88.686 -0.835752 -1.33615 0
M  V30 911 C 90.097 -0.487099 -1.80234 0
M  V30 912 C 90.448 0.993627 -1.69179 0
M  V30 913 O 89.573 1.77403 -1.23924 0
M  V30 914 C 90.168 -0.877385 -3.27242 0
M  V30 915 C 88.727 -0.580915 -3.7189 0
M  V30 916 C 87.874 -1.0874 -2.5509 0
M  V30 917 H 90.825 -1.02474 -1.2118 0
M  V30 918 H 90.846 -0.186195 -3.80044 0
M  V30 919 H 90.358 -1.95512 -3.35256 0
M  V30 920 H 88.459 0.486881 -3.69405 0
M  V30 921 H 88.572 -1.13396 -4.65487 0
M  V30 922 H 86.936 -0.508392 -2.49575 0
M  V30 923 H 87.719 -2.17184 -2.65868 0
M  V30 924 N 90.1641 1.46063 -0.591896 0
M  V30 925 C 91.4111 2.02338 -0.0809991 0
M  V30 926 C 91.7391 1.46228 1.28249 0
M  V30 927 O 90.9941 0.620818 1.85592 0
M  V30 928 C 91.2931 3.57391 0.0249813 0
M  V30 929 C 90.9591 4.32583 -1.27211 0
M  V30 930 C 89.6211 4.52844 -1.62745 0
M  V30 931 C 91.9731 4.75687 -2.13005 0
M  V30 932 C 89.3011 5.13462 -2.83855 0
M  V30 933 C 91.6531 5.37644 -3.3335 0
M  V30 934 C 90.3171 5.5613 -3.69155 0
M  V30 935 H 89.5871 0.740407 -0.0296397 0
M  V30 936 H 92.2341 1.75321 -0.770374 0
M  V30 937 H 90.5391 3.83597 0.797537 0
M  V30 938 H 92.2361 3.98621 0.436184 0
M  V30 939 H 88.8261 4.17116 -0.985499 0
M  V30 940 H 93.0101 4.59782 -1.86855 0
M  V30 941 H 88.2661 5.25965 -3.11722 0
M  V30 942 H 92.4401 5.7 -4.00092 0
M  V30 943 H 90.0671 6.0287 -4.63089 0
M  V30 944 N 91.6422 0.330177 1.54103 0
M  V30 945 C 92.6052 -0.520144 2.2322 0
M  V30 946 C 93.6052 -1.03828 1.22786 0
M  V30 947 O 94.7952 -0.929652 1.4732 0
M  V30 948 C 91.9272 -1.72317 2.94142 0
M  V30 949 H 93.1202 0.0841605 2.99782 0
M  V30 950 H 90.6732 0.0813433 1.56088 0
M  V30 951 H 91.4082 -2.36653 2.21734 0
M  V30 952 H 91.1932 -1.35898 3.67796 0
M  V30 953 H 92.6832 -2.3266 3.46784 0
M  V30 954 N 93.1203 -1.57491 0.0584922 0
M  V30 955 C 94.3693 -1.92155 -0.613146 0
M  V30 956 C 94.6823 -0.939334 -1.71569 0
M  V30 957 O 95.8883 -1.17829 -2.44599 0
M  V30 958 C 94.3443 -3.41303 -1.14195 0
M  V30 959 C 93.9523 -4.47944 -0.0711265 0
M  V30 960 C 95.6963 -3.84988 -1.78841 0
M  V30 961 C 93.6033 -5.88212 -0.613225 0
M  V30 962 H 92.5333 -0.717162 -0.232796 0
M  V30 963 H 95.1843 -1.83049 0.12857 0
M  V30 964 H 93.5663 -3.45437 -1.93621 0
M  V30 965 H 94.7403 -4.55408 0.702836 0
M  V30 966 H 93.0553 -4.13644 0.478313 0
M  V30 967 H 95.6523 -4.87159 -2.20408 0
M  V30 968 H 95.9953 -3.21632 -2.64308 0
M  V30 969 H 96.5283 -3.83401 -1.06059 0
M  V30 970 H 93.2673 -6.55183 0.203978 0
M  V30 971 H 92.7873 -5.84294 -1.35501 0
M  V30 972 H 94.4663 -6.37687 -1.09383 0
M  V30 973 N 94.5984 0.214957 -1.56127 0
M  V30 974 C 95.8264 0.955092 -1.83536 0
M  V30 975 C 96.2414 1.77677 -0.638472 0
M  V30 976 O 95.5984 1.78219 0.392968 0
M  V30 977 C 95.6494 1.86734 -3.09536 0
M  V30 978 O 95.3704 1.07887 -4.24608 0
M  V30 979 C 96.8714 2.72082 -3.4998 0
M  V30 980 H 94.0914 0.279611 -0.609966 0
M  V30 981 H 96.6354 0.228197 -2.03223 0
M  V30 982 H 94.7904 2.5481 -2.91806 0
M  V30 983 H 95.2044 1.69872 -4.9623 0
M  V30 984 H 96.6784 3.31782 -4.41163 0
M  V30 985 H 97.1554 3.44806 -2.7204 0
M  V30 986 H 97.7614 2.09409 -3.70173 0
M  V30 987 N 96.0765 1.50051 0.48192 0
M  V30 988 C 97.3255 1.59741 1.23149 0
M  V30 989 C 97.6385 0.298163 1.93314 0
M  V30 990 O 98.8445 0.273835 2.70116 0
M  V30 991 C 97.3005 2.81926 2.23708 0
M  V30 992 C 96.9085 4.18685 1.59396 0
M  V30 993 C 98.6525 3.00956 2.99375 0
M  V30 994 C 96.5595 5.3207 2.58178 0
M  V30 995 H 95.4895 0.594838 0.46334 0
M  V30 996 H 98.1405 1.76467 0.503169 0
M  V30 997 H 96.5225 2.58736 2.99786 0
M  V30 998 H 97.6965 4.52088 0.891811 0
M  V30 999 H 96.0115 4.05171 0.960503 0
M  V30 1000 H 98.6085 3.82836 3.73283 0
M  V30 1001 H 98.9515 2.12258 3.58123 0
M  V30 1002 H 99.4845 3.24277 2.30411 0
M  V30 1003 H 96.2235 6.22888 2.04184 0
M  V30 1004 H 95.7435 5.03098 3.26577 0
M  V30 1005 H 97.4225 5.62196 3.20225 0
M  V30 1006 N 97.5546 -0.734337 1.39446 0
M  V30 1007 C 98.7796 -1.52866 1.40167 0
M  V30 1008 C 99.2046 -1.881 -0.00171513 0
M  V30 1009 O 98.5626 -1.51957 -0.988879 0
M  V30 1010 C 98.6106 -2.79235 2.28167 0
M  V30 1011 O 97.7146 -3.75185 1.71201 0
M  V30 1012 H 97.0556 -0.461618 0.477289 0
M  V30 1013 H 99.5856 -0.905949 1.8345 0
M  V30 1014 H 99.5956 -3.27963 2.42702 0
M  V30 1015 H 98.2706 -2.52923 3.30156 0
M  V30 1016 H 96.8476 -3.33958 1.65912 0
M  V30 1017 N 99.0327 -1.24633 -0.964593 0
M  V30 1018 C 100.261 -1.11501 -1.74285 0
M  V30 1019 C 100.676 0.332165 -1.85855 0
M  V30 1020 O 100.033 1.22903 -1.34911 0
M  V30 1021 C 100.084 -1.75258 -3.16175 0
M  V30 1022 O 99.8047 -3.14318 -3.05182 0
M  V30 1023 C 101.306 -1.67776 -4.10324 0
M  V30 1024 H 98.5257 -0.389407 -0.546446 0
M  V30 1025 H 101.07 -1.64801 -1.21083 0
M  V30 1026 H 99.2247 -1.25954 -3.66353 0
M  V30 1027 H 99.6387 -3.4551 -3.94618 0
M  V30 1028 H 101.113 -2.17064 -5.0753 0
M  V30 1029 H 101.59 -0.639584 -4.34518 0
M  V30 1030 H 102.196 -2.16522 -3.66058 0
M  V30 1031 N 100.511 1.16574 -1.06058 0
M  V30 1032 C 101.759 1.86677 -0.77434 0
M  V30 1033 C 102.08 1.81959 0.701147 0
M  V30 1034 O 101.35 1.2515 1.50713 0
M  V30 1035 H 99.9298 0.691134 -0.283449 0
M  V30 1036 H 102.592 1.41378 -1.34158 0
M  V30 1037 H 101.688 2.92181 -1.09711 0
M  V30 1038 N 101.989 0.842826 1.3317 0
M  V30 1039 C 103.236 0.440447 1.97652 0
M  V30 1040 C 103.564 -1.00123 1.6675 0
M  V30 1041 O 102.819 -1.7155 0.941761 0
M  V30 1042 C 103.118 0.612607 3.52111 0
M  V30 1043 C 102.784 2.02297 4.02972 0
M  V30 1044 C 101.446 2.40874 4.16573 0
M  V30 1045 C 103.798 2.94402 4.30089 0
M  V30 1046 C 101.126 3.70852 4.54627 0
M  V30 1047 C 103.478 4.23865 4.69597 0
M  V30 1048 C 102.142 4.62392 4.81404 0
M  V30 1049 H 101.412 0.161171 0.72326 0
M  V30 1050 H 104.059 1.07061 1.58777 0
M  V30 1051 H 102.364 -0.100849 3.9167 0
M  V30 1052 H 104.061 0.2815 4.00011 0
M  V30 1053 H 100.651 1.71338 3.92863 0
M  V30 1054 H 104.835 2.65835 4.19101 0
M  V30 1055 H 100.091 4.00501 4.61962 0
M  V30 1056 H 104.265 4.95306 4.89536 0
M  V30 1057 H 101.892 5.63154 5.10648 0
M  V30 1058 N 103.467 -1.45747 0.599634 0
M  V30 1059 C 104.707 -2.04181 0.0946309 0
M  V30 1060 C 105.071 -1.45895 -1.24815 0
M  V30 1061 O 106.272 -1.95633 -1.8434 0
M  V30 1062 C 104.543 -3.57368 0.047581 0
M  V30 1063 S 106.102 -4.36997 -0.397387 0
M  V30 1064 H 102.92 -0.70953 0.0456954 0
M  V30 1065 H 105.522 -1.78564 0.795946 0
M  V30 1066 H 104.226 -3.97303 1.02852 0
M  V30 1067 H 103.757 -3.87549 -0.675977 0
M  V30 1068 H 105.772 -4.68012 -1.64862 0
M  V30 1069 N 104.945 -0.338344 -1.53925 0
M  V30 1070 C 105.908 0.508299 -2.23493 0
M  V30 1071 C 106.908 1.03175 -1.23335 0
M  V30 1072 O 108.098 0.921826 -1.47811 0
M  V30 1073 C 105.23 1.70754 -2.95052 0
M  V30 1074 H 106.423 -0.100058 -2.99733 0
M  V30 1075 H 103.976 -0.0896198 -1.56043 0
M  V30 1076 H 104.711 2.35474 -2.22986 0
M  V30 1077 H 104.496 1.33946 -3.68512 0
M  V30 1078 H 105.986 2.30818 -3.48013 0
M  V30 1079 N 106.423 1.57458 -0.0668435 0
M  V30 1080 C 107.386 2.11323 0.887422 0
M  V30 1081 C 108.386 1.03618 1.22964 0
M  V30 1082 O 109.576 1.29626 1.16373 0
M  V30 1083 C 106.708 2.61048 2.19242 0
M  V30 1084 H 107.901 2.96942 0.420194 0
M  V30 1085 H 105.454 1.55239 0.181793 0
M  V30 1086 H 106.189 1.78868 2.70512 0
M  V30 1087 H 105.974 3.39769 1.95702 0
M  V30 1088 H 107.464 3.02814 2.87565 0
M  V30 1089 N 107.901 -0.206675 1.56239 0
M  V30 1090 C 109.141 -0.93574 1.81723 0
M  V30 1091 C 109.505 -1.80927 0.642609 0
M  V30 1092 O 110.706 -2.57323 0.777081 0
M  V30 1093 C 108.977 -1.74012 3.12177 0
M  V30 1094 S 110.536 -2.52279 3.59028 0
M  V30 1095 H 107.354 -0.314065 0.637875 0
M  V30 1096 H 109.956 -0.200071 1.94474 0
M  V30 1097 H 108.66 -1.0888 3.95693 0
M  V30 1098 H 108.191 -2.51782 3.02274 0
M  V30 1099 H 110.206 -3.76209 3.23545 0
M  V30 1100 N 109.379 -1.50304 -0.473955 0
M  V30 1101 C 110.329 -1.65347 -1.56985 0
M  V30 1102 C 111.313 -0.508176 -1.52664 0
M  V30 1103 O 112.505 -0.762446 -1.59737 0
M  V30 1104 C 109.634 -1.74832 -2.95447 0
M  V30 1105 C 108.72 -2.95028 -3.04662 0
M  V30 1106 N 109.111 -4.18747 -2.83698 0
M  V30 1107 C 107.409 -2.93527 -3.35795 0
M  V30 1108 C 108.11 -4.99687 -2.97805 0
M  V30 1109 N 107.086 -4.33585 -3.2788 0
M  V30 1110 H 110.888 -2.58698 -1.39472 0
M  V30 1111 H 108.402 -1.47449 -0.680629 0
M  V30 1112 H 110.399 -1.83712 -3.7424 0
M  V30 1113 H 109.059 -0.826376 -3.14008 0
M  V30 1114 H 110.07 -4.48291 -2.59337 0
M  V30 1115 H 106.747 -2.10821 -3.60362 0
M  V30 1116 H 108.137 -6.08057 -2.85861 0
M  V30 1117 N 110.857 0.726932 -1.39834 0
M  V30 1118 C 112.105 1.4837 -1.37225 0
M  V30 1119 C 112.426 1.94979 0.0284857 0
M  V30 1120 O 111.696 1.69555 0.981213 0
M  V30 1121 H 110.276 0.55043 -0.505011 0
M  V30 1122 H 112.938 0.862468 -1.74778 0
M  V30 1123 H 112.034 2.36198 -2.04003 0
M  V30 1124 N 112.336 1.25143 0.95797 0
M  V30 1125 C 113.576 1.10893 1.71703 0
M  V30 1126 C 113.94 -0.34478 1.88879 0
M  V30 1127 O 115.141 -0.609014 2.6181 0
M  V30 1128 C 113.412 1.83889 3.06463 0
M  V30 1129 S 114.971 1.85491 3.97666 0
M  V30 1130 H 111.789 0.396428 0.590226 0
M  V30 1131 H 114.391 1.58618 1.14283 0
M  V30 1132 H 113.095 2.88756 2.9163 0
M  V30 1133 H 112.626 1.36538 3.68946 0
M  V30 1134 H 114.641 0.929553 4.87415 0
M  V30 1135 N 113.814 -1.1601 1.06675 0
M  V30 1136 C 114.744 -2.22688 0.702307 0
M  V30 1137 C 115.725 -1.67306 -0.307032 0
M  V30 1138 O 116.91 -1.93352 -0.181305 0
M  V30 1139 C 114.04 -3.47178 0.092038 0
M  V30 1140 C 112.994 -4.15477 1.02777 0
M  V30 1141 C 112.32 -5.33963 0.28061 0
M  V30 1142 C 113.62 -4.66019 2.35846 0
M  V30 1143 H 115.314 -2.53429 1.59419 0
M  V30 1144 H 112.86 -1.21813 0.767961 0
M  V30 1145 H 114.813 -4.21037 -0.174814 0
M  V30 1146 H 113.537 -3.15749 -0.834877 0
M  V30 1147 H 112.196 -3.43549 1.27944 0
M  V30 1148 H 111.844 -4.98788 -0.649545 0
M  V30 1149 H 111.544 -5.806 0.904258 0
M  V30 1150 H 113.068 -6.10596 0.021396 0
M  V30 1151 H 114.482 -5.3144 2.15045 0
M  V30 1152 H 112.879 -5.23293 2.93743 0
M  V30 1153 H 113.949 -3.82023 2.98641 0
M  V30 1154 N 115.292 -0.849877 -1.32721 0
M  V30 1155 C 116.539 -0.450923 -1.97416 0
M  V30 1156 C 116.867 0.992376 -1.67279 0
M  V30 1157 O 116.122 1.71048 -0.950845 0
M  V30 1158 C 116.421 -0.631272 -3.51781 0
M  V30 1159 C 116.087 -2.04432 -4.01894 0
M  V30 1160 C 114.749 -2.4308 -4.1529 0
M  V30 1161 C 117.101 -2.96679 -4.28522 0
M  V30 1162 C 114.429 -3.73257 -4.52654 0
M  V30 1163 C 116.781 -4.26349 -4.67343 0
M  V30 1164 C 115.445 -4.64939 -4.78945 0
M  V30 1165 H 114.715 -0.165004 -0.722395 0
M  V30 1166 H 117.362 -1.07901 -1.58207 0
M  V30 1167 H 115.667 0.0800767 -3.91718 0
M  V30 1168 H 117.364 -0.302709 -3.99856 0
M  V30 1169 H 113.954 -1.73419 -3.91949 0
M  V30 1170 H 118.138 -2.68054 -4.17685 0
M  V30 1171 H 113.394 -4.02946 -4.59831 0
M  V30 1172 H 117.568 -4.97895 -4.86902 0
M  V30 1173 H 115.195 -5.65855 -5.07654 0
M  V30 1174 N 116.77 1.45427 -0.607355 0
M  V30 1175 C 118.019 2.01452 -0.100036 0
M  V30 1176 C 118.332 1.48159 1.27704 0
M  V30 1177 O 119.538 1.96159 1.87707 0
M  V30 1178 C 117.994 3.59672 -0.128158 0
M  V30 1179 C 117.602 4.21962 -1.50507 0
M  V30 1180 C 119.346 4.23262 0.323932 0
M  V30 1181 C 117.253 5.72333 -1.48959 0
M  V30 1182 H 116.183 0.75325 -0.0336299 0
M  V30 1183 H 118.834 1.66901 -0.76265 0
M  V30 1184 H 117.216 3.91411 0.601105 0
M  V30 1185 H 118.39 4.01796 -2.25602 0
M  V30 1186 H 116.705 3.70565 -1.89923 0
M  V30 1187 H 119.302 5.33522 0.354691 0
M  V30 1188 H 119.645 3.93921 1.34656 0
M  V30 1189 H 120.178 3.96239 -0.352056 0
M  V30 1190 H 116.917 6.06373 -2.48981 0
M  V30 1191 H 116.437 5.94691 -0.781214 0
M  V30 1192 H 118.116 6.35525 -1.21313 0
M  V30 1193 N 118.248 0.346503 1.53744 0
M  V30 1194 C 119.211 -0.496439 2.23759 0
M  V30 1195 C 120.211 -1.0252 1.2388 0
M  V30 1196 O 121.401 -0.913974 1.48297 0
M  V30 1197 C 118.533 -1.69187 2.95954 0
M  V30 1198 H 119.726 0.115952 2.99676 0
M  V30 1199 H 117.279 0.0978939 1.55993 0
M  V30 1200 H 118.014 -2.34288 2.24231 0
M  V30 1201 H 117.799 -1.31989 3.69217 0
M  V30 1202 H 119.289 -2.28969 3.49232 0
M  V30 1203 N 119.726 -1.57421 0.075193 0
M  V30 1204 C 120.966 -1.95495 -0.596757 0
M  V30 1205 C 121.33 -0.954886 -1.66571 0
M  V30 1206 O 122.531 -1.22341 -2.39345 0
M  V30 1207 C 120.802 -3.382 -1.15566 0
M  V30 1208 S 122.361 -3.98254 -1.84226 0
M  V30 1209 H 119.179 -0.683649 -0.195307 0
M  V30 1210 H 121.781 -1.94925 0.149859 0
M  V30 1211 H 120.485 -4.08766 -0.36588 0
M  V30 1212 H 120.016 -3.42321 -1.93856 0
M  V30 1213 H 122.031 -3.85435 -3.12497 0
M  V30 1214 N 121.204 0.198386 -1.56346 0
M  V30 1215 C 122.451 0.919286 -1.80431 0
M  V30 1216 C 122.779 1.83393 -0.647866 0
M  V30 1217 O 122.034 1.92236 0.366556 0
M  V30 1218 C 122.333 1.77031 -3.10475 0
M  V30 1219 C 121.999 1.00693 -4.39513 0
M  V30 1220 C 120.661 0.796145 -4.74568 0
M  V30 1221 C 123.013 0.469559 -5.19081 0
M  V30 1222 C 120.341 0.0364588 -5.86689 0
M  V30 1223 C 122.693 -0.2769 -6.31994 0
M  V30 1224 C 121.357 -0.49873 -6.65634 0
M  V30 1225 H 120.627 0.336391 -0.660244 0
M  V30 1226 H 123.274 0.185872 -1.90596 0
M  V30 1227 H 121.579 2.5723 -2.95533 0
M  V30 1228 H 123.276 2.33065 -3.26315 0
M  V30 1229 H 119.866 1.18122 -4.12001 0
M  V30 1230 H 124.05 0.619816 -4.92414 0
M  V30 1231 H 119.306 -0.145412 -6.11227 0
M  V30 1232 H 123.48 -0.700684 -6.92866 0
M  V30 1233 H 121.107 -1.0893 -7.52355 0
M  V30 1234 N 122.682 1.50554 0.465978 0
M  V30 1235 C 123.928 1.62038 1.21949 0
M  V30 1236 C 124.261 0.322116 1.9151 0
M  V30 1237 O 123.536 -0.676723 1.82348 0
M  V30 1238 C 123.819 2.80421 2.25912 0
M  V30 1239 C 123.672 4.20144 1.60622 0
M  V30 1240 C 124.991 2.94354 3.27176 0
M  V30 1241 H 122.11 0.589752 0.441998 0
M  V30 1242 H 124.752 1.82956 0.51257 0
M  V30 1243 H 122.902 2.62717 2.86203 0
M  V30 1244 H 124.574 4.49449 1.03889 0
M  V30 1245 H 122.817 4.24165 0.909211 0
M  V30 1246 H 123.488 4.98914 2.36196 0
M  V30 1247 H 125.964 3.10578 2.76913 0
M  V30 1248 H 124.84 3.788 3.97242 0
M  V30 1249 H 125.101 2.05186 3.916 0
M  V30 1250 N 124.16 -0.719506 1.40217 0
M  V30 1251 C 125.09 -1.8465 1.42922 0
M  V30 1252 C 126.071 -1.67599 0.29062 0
M  V30 1253 O 127.256 -1.87688 0.498677 0
M  V30 1254 C 124.386 -3.22565 1.28722 0
M  V30 1255 C 123.34 -3.54281 2.40144 0
M  V30 1256 C 122.666 -4.91298 2.11023 0
M  V30 1257 C 123.966 -3.55676 3.82481 0
M  V30 1258 H 125.66 -1.82644 2.37237 0
M  V30 1259 H 123.206 -0.877305 1.1419 0
M  V30 1260 H 125.159 -4.01095 1.29232 0
M  V30 1261 H 123.883 -3.25137 0.308811 0
M  V30 1262 H 122.542 -2.78088 2.38877 0
M  V30 1263 H 122.19 -4.90468 1.11582 0
M  V30 1264 H 121.89 -5.13485 2.8567 0
M  V30 1265 H 123.414 -5.72166 2.13209 0
M  V30 1266 H 124.828 -4.24254 3.85592 0
M  V30 1267 H 123.225 -3.89388 4.56614 0
M  V30 1268 H 124.295 -2.55144 4.12346 0
M  V30 1269 N 125.638 -1.25649 -0.95132 0
M  V30 1270 C 126.884 -1.10757 -1.69884 0
M  V30 1271 C 127.217 0.350061 -1.91019 0
M  V30 1272 O 126.492 1.25783 -1.48354 0
M  V30 1273 C 126.775 -1.86606 -3.07978 0
M  V30 1274 C 126.628 -3.40217 -2.94232 0
M  V30 1275 C 127.947 -1.65182 -4.07925 0
M  V30 1276 H 125.066 -0.40374 -0.616574 0
M  V30 1277 H 127.708 -1.54521 -1.10558 0
M  V30 1278 H 125.858 -1.49409 -3.58621 0
M  V30 1279 H 127.53 -3.87108 -2.50889 0
M  V30 1280 H 125.773 -3.67759 -2.30078 0
M  V30 1281 H 126.444 -3.88505 -3.92133 0
M  V30 1282 H 128.92 -1.9757 -3.66204 0
M  V30 1283 H 127.796 -2.20683 -5.02583 0
M  V30 1284 H 128.057 -0.593933 -4.38092 0
M  V30 1285 N 127.117 1.15442 -1.07289 0
M  V30 1286 C 128.047 2.22312 -0.714107 0
M  V30 1287 C 129.028 1.67467 0.298155 0
M  V30 1288 O 130.213 1.93445 0.171048 0
M  V30 1289 C 127.343 3.47124 -0.110448 0
M  V30 1290 C 126.297 4.14926 -1.04979 0
M  V30 1291 C 125.623 5.33807 -0.308924 0
M  V30 1292 C 126.923 4.64762 -2.38314 0
M  V30 1293 H 128.617 2.5258 -1.6076 0
M  V30 1294 H 126.163 1.21404 -0.77441 0
M  V30 1295 H 128.116 4.21124 0.152482 0
M  V30 1296 H 126.84 3.16187 0.81812 0
M  V30 1297 H 125.499 3.42866 -1.29764 0
M  V30 1298 H 125.147 4.99126 0.623084 0
M  V30 1299 H 124.847 5.80113 -0.935036 0
M  V30 1300 H 126.371 6.10576 -0.0537771 0
M  V30 1301 H 127.785 5.30292 -2.1786 0
M  V30 1302 H 126.182 5.21728 -2.96514 0
M  V30 1303 H 127.252 3.80434 -3.00663 0
M  V30 1304 N 128.595 0.856903 1.32268 0
M  V30 1305 C 129.823 0.475439 2.01363 0
M  V30 1306 C 130.238 -0.928486 1.64392 0
M  V30 1307 O 129.595 -1.60624 0.866387 0
M  V30 1308 C 129.646 0.607545 3.56358 0
M  V30 1309 O 129.367 1.95617 3.92002 0
M  V30 1310 C 130.868 0.225382 4.42727 0
M  V30 1311 H 128.088 0.186636 0.644521 0
M  V30 1312 H 130.632 1.15446 1.68797 0
M  V30 1313 H 128.787 -0.0237719 3.87393 0
M  V30 1314 H 129.201 1.95455 4.86721 0
M  V30 1315 H 130.675 0.368813 5.50767 0
M  V30 1316 H 131.152 -0.834369 4.31202 0
M  V30 1317 H 131.758 0.831864 4.17085 0
M  V30 1318 N 130.073 -1.45103 0.615059 0
M  V30 1319 C 131.005 -2.28786 -0.13762 0
M  V30 1320 C 132.018 -1.40376 -0.824525 0
M  V30 1321 O 133.207 -1.64681 -0.688662 0
M  V30 1322 C 130.307 -3.16322 -1.21628 0
M  V30 1323 C 129.48 -4.33054 -0.615039 0
M  V30 1324 C 128.539 -5.01743 -1.58556 0
M  V30 1325 O 127.565 -5.58293 -1.10895 0
M  V30 1326 N 128.767 -5.01714 -2.91998 0
M  V30 1327 H 131.532 -2.94025 0.580483 0
M  V30 1328 H 129.093 -1.55373 0.45507 0
M  V30 1329 H 131.085 -3.59139 -1.86552 0
M  V30 1330 H 129.655 -2.52943 -1.83681 0
M  V30 1331 H 128.875 -3.93627 0.21245 0
M  V30 1332 H 130.163 -5.08431 -0.193704 0
M  V30 1333 H 129.561 -4.57075 -3.33316 0
M  V30 1334 H 128.118 -5.48371 -3.52325 0
M  V30 1335 N 131.551 -0.354651 -1.53558 0
M  V30 1336 C 132.776 0.242153 -2.05981 0
M  V30 1337 C 133.201 1.42553 -1.2272 0
M  V30 1338 O 132.559 1.79656 -0.243604 0
M  V30 1339 C 132.607 0.624367 -3.55154 0
M  V30 1340 O 131.711 1.72301 -3.74681 0
M  V30 1341 H 131.052 0.0378432 -0.662921 0
M  V30 1342 H 133.582 -0.512087 -1.98088 0
M  V30 1343 H 133.592 0.898433 -3.97985 0
M  V30 1344 H 132.267 -0.240989 -4.15201 0
M  V30 1345 H 130.844 1.44535 -3.4375 0
M  V30 1346 N 133.029 1.57378 -0.0835403 0
M  V30 1347 C 134.254 1.98682 0.594987 0
M  V30 1348 C 134.679 0.961969 1.61641 0
M  V30 1349 O 134.037 -0.0709989 1.81161 0
M  V30 1350 C 134.085 3.38988 1.2296 0
M  V30 1351 O 133.189 3.39208 2.34546 0
M  V30 1352 H 132.53 0.646368 0.152002 0
M  V30 1353 H 135.06 2.03961 -0.161533 0
M  V30 1354 H 135.07 3.76431 1.57366 0
M  V30 1355 H 133.745 4.13107 0.481228 0
M  V30 1356 H 132.322 3.13548 2.01846 0
M  V30 1357 N 134.507 -0.190092 1.56449 0
M  V30 1358 C 135.756 -0.907912 1.80111 0
M  V30 1359 C 136.069 -1.84214 0.657619 0
M  V30 1360 O 137.275 -2.60094 0.778663 0
M  V30 1361 C 135.731 -1.66485 3.19078 0
M  V30 1362 C 135.339 -0.7752 4.41242 0
M  V30 1363 C 137.083 -2.37201 3.52045 0
M  V30 1364 C 134.99 -1.53129 5.71231 0
M  V30 1365 H 133.92 -0.34276 0.671589 0
M  V30 1366 H 136.571 -0.161109 1.82791 0
M  V30 1367 H 134.953 -2.45572 3.10661 0
M  V30 1368 H 136.127 -0.0226298 4.60794 0
M  V30 1369 H 134.442 -0.178627 4.16017 0
M  V30 1370 H 137.039 -2.94329 4.46402 0
M  V30 1371 H 137.382 -3.11632 2.76028 0
M  V30 1372 H 137.915 -1.65075 3.61932 0
M  V30 1373 H 134.654 -0.82967 6.50228 0
M  V30 1374 H 134.174 -2.25767 5.55688 0
M  V30 1375 H 135.853 -2.08377 6.12526 0
M  V30 1376 N 135.985 -1.50799 -0.457987 0
M  V30 1377 C 137.232 -1.62442 -1.20908 0
M  V30 1378 C 137.56 -0.330865 -1.91665 0
M  V30 1379 O 136.815 0.68401 -1.83357 0
M  V30 1380 C 137.114 -2.76358 -2.2663 0
M  V30 1381 C 136.78 -4.16378 -1.73033 0
M  V30 1382 C 135.442 -4.54473 -1.58138 0
M  V30 1383 C 137.794 -5.03836 -1.33413 0
M  V30 1384 C 135.122 -5.77754 -1.02065 0
M  V30 1385 C 137.474 -6.27676 -0.78778 0
M  V30 1386 C 136.138 -6.64562 -0.625561 0
M  V30 1387 H 135.408 -0.594417 -0.442435 0
M  V30 1388 H 138.055 -1.84772 -0.503136 0
M  V30 1389 H 136.36 -2.48167 -3.03184 0
M  V30 1390 H 138.057 -2.82568 -2.84528 0
M  V30 1391 H 134.647 -3.86331 -1.85598 0
M  V30 1392 H 138.831 -4.75026 -1.4375 0
M  V30 1393 H 134.087 -6.04997 -0.882547 0
M  V30 1394 H 138.261 -6.94797 -0.472177 0
M  V30 1395 H 135.888 -7.59965 -0.188926 0
M  V30 1396 N 137.463 0.71206 -1.40597 0
M  V30 1397 C 138.688 1.50617 -1.42581 0
M  V30 1398 C 139.113 1.88079 -0.0282102 0
M  V30 1399 O 138.471 1.53511 0.964579 0
M  V30 1400 C 138.519 2.7557 -2.3258 0
M  V30 1401 O 137.623 3.72414 -1.77148 0
M  V30 1402 H 136.964 0.453966 -0.484573 0
M  V30 1403 H 139.494 0.876649 -1.84868 0
M  V30 1404 H 139.504 3.2406 -2.47889 0
M  V30 1405 H 138.179 2.47639 -3.34138 0
M  V30 1406 H 136.756 3.31276 -1.71204 0
M  V30 1407 N 138.941 1.26152 0.944643 0
M  V30 1408 C 139.871 1.09902 2.06019 0
M  V30 1409 C 140.852 0.00519538 1.70099 0
M  V30 1410 O 142.037 0.176583 1.93396 0
M  V30 1411 C 139.167 0.727562 3.39594 0
M  V30 1412 C 138.121 1.77274 3.89561 0
M  V30 1413 C 137.447 1.25569 5.19747 0
M  V30 1414 C 138.747 3.17357 4.14827 0
M  V30 1415 H 140.441 2.03217 2.19871 0
M  V30 1416 H 137.987 0.978452 1.05652 0
M  V30 1417 H 139.94 0.600777 4.17095 0
M  V30 1418 H 138.664 -0.241287 3.25707 0
M  V30 1419 H 137.323 1.88814 3.14237 0
M  V30 1420 H 136.971 0.276783 5.02238 0
M  V30 1421 H 136.671 1.95433 5.54148 0
M  V30 1422 H 138.195 1.1415 5.99835 0
M  V30 1423 H 139.609 3.08914 4.82954 0
M  V30 1424 H 138.006 3.84781 4.60504 0
M  V30 1425 H 139.076 3.63673 3.20734 0
M  V30 1426 N 140.419 -1.14872 1.07899 0
M  V30 1427 C 141.349 -2.2193 0.725887 0
M  V30 1428 C 142.33 -1.67622 -0.28927 0
M  V30 1429 O 143.515 -1.93533 -0.160787 0
M  V30 1430 C 140.645 -3.47061 0.128856 0
M  V30 1431 C 139.599 -4.14363 1.07178 0
M  V30 1432 C 138.925 -5.33636 0.337229 0
M  V30 1433 C 140.225 -4.63492 2.40775 0
M  V30 1434 H 141.919 -2.51724 1.62097 0
M  V30 1435 H 139.465 -1.20991 0.780838 0
M  V30 1436 H 141.418 -4.21199 -0.130147 0
M  V30 1437 H 140.142 -3.16617 -0.80134 0
M  V30 1438 H 138.801 -3.42173 1.3158 0
M  V30 1439 H 138.449 -4.99449 -0.596606 0
M  V30 1440 H 138.149 -5.79609 0.965788 0
M  V30 1441 H 139.673 -6.10539 0.0861567 0
M  V30 1442 H 141.087 -5.2913 2.20669 0
M  V30 1443 H 139.484 -5.20148 2.99276 0
M  V30 1444 H 140.554 -3.78834 3.02676 0
M  V30 1445 N 141.898 -0.863906 -1.31812 0
M  V30 1446 C 142.861 -0.320212 -2.26952 0
M  V30 1447 C 143.861 0.525369 -1.51975 0
M  V30 1448 O 145.051 0.335547 -1.70938 0
M  V30 1449 C 142.183 0.545919 -3.365 0
M  V30 1450 H 143.376 -1.16004 -2.76556 0
M  V30 1451 H 140.929 -0.638995 -1.42641 0
M  V30 1452 H 141.664 1.40718 -2.92179 0
M  V30 1453 H 141.449 -0.0594674 -3.92055 0
M  V30 1454 H 142.939 0.918796 -4.07367 0
M  V30 1455 N 143.376 1.44774 -0.622745 0
M  V30 1456 C 144.625 2.01334 -0.121397 0
M  V30 1457 C 144.938 1.49505 1.26125 0
M  V30 1458 O 146.144 1.98139 1.85616 0
M  V30 1459 C 144.6 3.59516 -0.166298 0
M  V30 1460 C 144.208 4.20342 -1.54974 0
M  V30 1461 C 145.952 4.23582 0.279021 0
M  V30 1462 C 143.859 5.70721 -1.55021 0
M  V30 1463 H 142.789 0.752851 -0.0416172 0
M  V30 1464 H 145.44 1.66083 -0.780309 0
M  V30 1465 H 143.822 3.92027 0.559557 0
M  V30 1466 H 144.996 3.99381 -2.29851 0
M  V30 1467 H 143.311 3.68529 -1.93843 0
M  V30 1468 H 145.908 5.33868 0.298083 0
M  V30 1469 H 146.251 3.95327 1.30471 0
M  V30 1470 H 146.784 3.95843 -0.394063 0
M  V30 1471 H 143.523 6.03698 -2.55399 0
M  V30 1472 H 143.043 5.93829 -0.844245 0
M  V30 1473 H 144.722 6.34203 -1.28047 0
M  V30 1474 N 144.854 0.36279 1.53368 0
M  V30 1475 C 145.817 -0.472679 2.24273 0
M  V30 1476 C 146.817 -1.012 1.24961 0
M  V30 1477 O 148.007 -0.898194 1.49259 0
M  V30 1478 C 145.139 -1.66039 2.97731 0
M  V30 1479 H 146.332 0.14773 2.99536 0
M  V30 1480 H 143.885 0.114434 1.55881 0
M  V30 1481 H 144.62 -2.31896 2.26704 0
M  V30 1482 H 144.405 -1.28066 3.70596 0
M  V30 1483 H 145.895 -2.25252 3.51641 0
M  V30 1484 N 146.332 -1.57332 0.0918853 0
M  V30 1485 C 147.581 -1.93412 -0.572249 0
M  V30 1486 C 147.894 -0.975515 -1.69538 0
M  V30 1487 O 149.1 -1.22991 -2.42045 0
M  V30 1488 C 147.556 -3.43648 -1.0693 0
M  V30 1489 C 147.164 -4.47994 0.0239049 0
M  V30 1490 C 148.908 -3.88695 -1.70635 0
M  V30 1491 C 146.815 -5.89381 -0.488319 0
M  V30 1492 H 145.745 -0.721939 -0.217532 0
M  V30 1493 H 148.396 -1.82735 0.167369 0
M  V30 1494 H 146.778 -3.49466 -1.8625 0
M  V30 1495 H 147.952 -4.53815 0.799277 0
M  V30 1496 H 146.267 -4.12536 0.565946 0
M  V30 1497 H 148.864 -4.91725 -2.10025 0
M  V30 1498 H 149.207 -3.27166 -2.57426 0
M  V30 1499 H 149.74 -3.85564 -0.979023 0
M  V30 1500 H 146.479 -6.54602 0.342906 0
M  V30 1501 H 145.999 -5.87037 -1.23077 0
M  V30 1502 H 147.678 -6.39863 -0.958317 0
M  V30 1503 N 147.81 0.181792 -1.56548 0
M  V30 1504 C 149.087 0.926765 -1.72251 0
M  V30 1505 C 149.467 2.00831 -0.650386 0
M  V30 1506 O 148.815 2.26008 0.336521 0
M  V30 1507 C 149.025 1.50106 -3.1507 0
M  V30 1508 C 150.373 1.97805 -3.75711 0
M  V30 1509 O 151.397 1.59922 -3.18282 0
M  V30 1510 O 150.256 2.67555 -4.76525 0
M  V30 1511 H 147.35 0.435506 -0.703039 0
M  V30 1512 H 149.896 0.170443 -1.68842 0
M  V30 1513 H 148.668 0.72212 -3.84579 0
M  V30 1514 H 148.291 2.32186 -3.22763 0
M  V30 1515 N 149.288 1.51039 0.449983 0
M  V30 1516 C 150.704 1.38934 0.785462 0
M  V30 1517 C 150.904 0.461817 1.96136 0
M  V30 1518 O 149.96 -0.0877389 2.52348 0
M  V30 1519 C 151.273 2.80724 1.0777 0
M  V30 1520 C 152.821 2.89787 1.1829 0
M  V30 1521 C 153.296 4.32457 1.50815 0
M  V30 1522 N 154.787 4.35505 1.57764 0
M  V30 1523 C 155.522 5.42914 1.84477 0
M  V30 1524 N 155.018 6.60502 2.09068 0
M  V30 1525 N 156.811 5.3038 1.86155 0
M  V30 1526 H 148.962 2.09904 -0.324647 0
M  V30 1527 H 151.225 0.944378 -0.0827957 0
M  V30 1528 H 150.931 3.50531 0.286498 0
M  V30 1529 H 150.805 3.19273 2.00859 0
M  V30 1530 H 153.192 2.20186 1.96474 0
M  V30 1531 H 153.273 2.54752 0.231314 0
M  V30 1532 H 152.917 5.02603 0.731622 0
M  V30 1533 H 152.847 4.64995 2.47158 0
M  V30 1534 H 155.338 3.50724 1.40715 0
M  V30 1535 H 155.651 7.38158 2.28785 0
M  V30 1536 H 153.996 6.63639 2.06416 0
M  V30 1537 H 157.187 4.37505 1.66454 0
M  V30 1538 H 157.36 6.1417 2.06637 0
M  V30 1539 N 150.766 -0.704594 1.40972 0
M  V30 1540 C 151.996 -1.49138 1.42974 0
M  V30 1541 C 152.404 -1.89175 0.0308406 0
M  V30 1542 O 151.747 -1.56734 -0.958138 0
M  V30 1543 C 151.809 -2.79016 2.26694 0
M  V30 1544 C 151.473 -2.61236 3.74973 0
M  V30 1545 C 152.47 -2.27773 4.67349 0
M  V30 1546 C 150.155 -2.77158 4.18914 0
M  V30 1547 C 152.149 -2.10457 6.01653 0
M  V30 1548 C 149.836 -2.59459 5.53285 0
M  V30 1549 C 150.834 -2.26158 6.4447 0
M  V30 1550 O 150.522 -2.08605 7.76363 0
M  V30 1551 H 150.254 -0.466443 0.489292 0
M  V30 1552 H 152.808 -0.8758 1.85793 0
M  V30 1553 H 151.038 -3.42947 1.78673 0
M  V30 1554 H 152.727 -3.40782 2.20504 0
M  V30 1555 H 153.493 -2.15095 4.34694 0
M  V30 1556 H 149.372 -3.02064 3.48251 0
M  V30 1557 H 152.916 -1.84387 6.72791 0
M  V30 1558 H 148.813 -2.71725 5.85522 0
M  V30 1559 H 149.581 -2.23439 7.87412 0
M  V30 1560 N 152.244 -1.26651 -0.937939 0
M  V30 1561 C 153.493 -1.11775 -1.67897 0
M  V30 1562 C 153.806 0.33794 -1.92659 0
M  V30 1563 O 155.012 0.607434 -2.64618 0
M  V30 1564 C 153.468 -1.9523 -3.02346 0
M  V30 1565 C 153.076 -3.45393 -2.8532 0
M  V30 1566 C 154.82 -1.88972 -3.80118 0
M  V30 1567 C 152.727 -4.21083 -4.15263 0
M  V30 1568 H 151.657 -0.414696 -0.629717 0
M  V30 1569 H 154.308 -1.50988 -1.04283 0
M  V30 1570 H 152.69 -1.48853 -3.66959 0
M  V30 1571 H 153.864 -3.99561 -2.29537 0
M  V30 1572 H 152.179 -3.52921 -2.20988 0
M  V30 1573 H 154.776 -2.42805 -4.76392 0
M  V30 1574 H 155.119 -0.86113 -4.07296 0
M  V30 1575 H 155.652 -2.33189 -3.22285 0
M  V30 1576 H 152.391 -5.24425 -3.93267 0
M  V30 1577 H 151.911 -3.71695 -4.70747 0
M  V30 1578 H 153.59 -4.29706 -4.83696 0
M  V30 1579 N 153.722 1.14298 -1.08507 0
M  V30 1580 C 154.685 2.17607 -0.719711 0
M  V30 1581 C 155.685 1.58907 0.245997 0
M  V30 1582 O 156.875 1.74181 0.0254081 0
M  V30 1583 C 154.007 3.40842 -0.0627695 0
M  V30 1584 H 155.2 2.51443 -1.63452 0
M  V30 1585 H 152.753 1.28963 -0.88307 0
M  V30 1586 H 153.488 3.12587 0.863716 0
M  V30 1587 H 153.273 3.84713 -0.757504 0
M  V30 1588 H 154.763 4.17221 0.177786 0
M  V30 1589 N 155.201 0.870884 1.31352 0
M  V30 1590 C 156.45 0.478408 1.95944 0
M  V30 1591 C 156.763 -0.974493 1.69597 0
M  V30 1592 O 157.969 -1.47316 2.28058 0
M  V30 1593 C 156.425 0.804609 3.50791 0
M  V30 1594 C 156.033 2.27433 3.85977 0
M  V30 1595 C 157.777 0.480648 4.2177 0
M  V30 1596 C 155.684 2.5429 5.33939 0
M  V30 1597 H 154.614 0.175175 0.733369 0
M  V30 1598 H 157.265 1.06391 1.4951 0
M  V30 1599 H 155.647 0.148347 3.95722 0
M  V30 1600 H 156.821 2.97373 3.52002 0
M  V30 1601 H 155.136 2.56442 3.28065 0
M  V30 1602 H 157.733 0.658519 5.30629 0
M  V30 1603 H 158.076 -0.578979 4.12254 0
M  V30 1604 H 158.609 1.09349 3.82476 0
M  V30 1605 H 155.348 3.58939 5.48491 0
M  V30 1606 H 154.868 1.88945 5.69263 0
M  V30 1607 H 156.547 2.39066 6.01212 0
M  V30 1608 N 156.679 -1.44442 0.630414 0
M  V30 1609 C 158.095 -1.56832 0.295973 0
M  V30 1610 C 158.295 -1.61806 -1.20088 0
M  V30 1611 O 157.351 -1.5607 -1.9849 0
M  V30 1612 C 158.664 -2.84031 0.987264 0
M  V30 1613 C 160.212 -2.97742 0.96534 0
M  V30 1614 C 160.687 -4.27743 1.63708 0
M  V30 1615 N 162.178 -4.34555 1.60364 0
M  V30 1616 C 162.913 -5.33862 2.09234 0
M  V30 1617 N 162.409 -6.39578 2.66292 0
M  V30 1618 N 164.202 -5.25366 1.99867 0
M  V30 1619 H 156.353 -1.39457 1.60205 0
M  V30 1620 H 158.616 -0.668237 0.672431 0
M  V30 1621 H 158.322 -2.86338 2.04215 0
M  V30 1622 H 158.196 -3.73534 0.524588 0
M  V30 1623 H 160.583 -2.94989 -0.0810639 0
M  V30 1624 H 160.664 -2.09589 1.4665 0
M  V30 1625 H 160.308 -4.31255 2.68293 0
M  V30 1626 H 160.238 -5.14752 1.11076 0
M  V30 1627 H 162.729 -3.58772 1.18705 0
M  V30 1628 H 163.042 -7.11637 3.01317 0
M  V30 1629 H 161.387 -6.40265 2.70343 0
M  V30 1630 H 164.578 -4.41688 1.55013 0
M  V30 1631 H 164.751 -6.02606 2.38265 0
M  V30 1632 N 158.157 -0.370918 -1.53173 0
M  V30 1633 C 159.406 0.218249 -2.00516 0
M  V30 1634 C 159.719 1.49429 -1.26215 0
M  V30 1635 O 160.925 2.16239 -1.64174 0
M  V30 1636 C 159.381 0.43948 -3.57207 0
M  V30 1637 C 158.989 -0.822244 -4.4039 0
M  V30 1638 C 160.733 0.986012 -4.1289 0
M  V30 1639 C 158.64 -0.570304 -5.88644 0
M  V30 1640 H 157.57 0.0853333 -0.749156 0
M  V30 1641 H 160.221 -0.490483 -1.76823 0
M  V30 1642 H 158.603 1.20961 -3.77074 0
M  V30 1643 H 159.777 -1.59557 -4.32294 0
M  V30 1644 H 158.092 -1.29238 -3.95836 0
M  V30 1645 H 160.689 1.18991 -5.21292 0
M  V30 1646 H 161.032 1.94972 -3.6782 0
M  V30 1647 H 161.565 0.27592 -3.96842 0
M  V30 1648 H 158.304 -1.50449 -6.38001 0
M  V30 1649 H 157.824 0.164427 -5.99575 0
M  V30 1650 H 159.503 -0.19784 -6.46697 0
M  V30 1651 N 159.635 1.57281 -0.100228 0
M  V30 1652 C 161.046 1.81725 0.428107 0
M  V30 1653 C 161.397 1.01619 1.67833 0
M  V30 1654 O 160.522 0.247098 2.14985 0
M  V30 1655 C 161.117 3.29617 0.78347 0
M  V30 1656 C 159.676 3.54808 1.25653 0
M  V30 1657 C 158.823 2.76118 0.255752 0
M  V30 1658 H 161.774 1.55324 -0.325608 0
M  V30 1659 H 161.795 3.4322 1.64256 0
M  V30 1660 H 161.307 3.87893 -0.12665 0
M  V30 1661 H 159.408 3.01868 2.18418 0
M  V30 1662 H 159.521 4.63443 1.21482 0
M  V30 1663 H 157.885 2.43745 0.738956 0
M  V30 1664 H 158.668 3.37145 -0.647136 0
M  V30 1665 N 161.113 -0.173488 1.56642 0
M  V30 1666 C 162.043 -1.2171 1.99271 0
M  V30 1667 C 163.024 -1.46289 0.867959 0
M  V30 1668 O 164.209 -1.5766 1.13388 0
M  V30 1669 C 161.339 -2.55651 2.35074 0
M  V30 1670 C 160.293 -2.45645 3.50489 0
M  V30 1671 C 159.619 -3.84056 3.72028 0
M  V30 1672 C 160.919 -1.96302 4.84007 0
M  V30 1673 H 162.613 -0.86275 2.867 0
M  V30 1674 H 160.159 -0.413571 1.37933 0
M  V30 1675 H 162.112 -3.2886 2.63494 0
M  V30 1676 H 160.836 -2.92869 1.44552 0
M  V30 1677 H 159.495 -1.7489 3.22194 0
M  V30 1678 H 159.143 -4.18664 2.788 0
M  V30 1679 H 158.843 -3.7823 4.49684 0
M  V30 1680 H 160.367 -4.58854 4.02846 0
M  V30 1681 H 161.781 -2.59284 5.11317 0
M  V30 1682 H 160.178 -2.01429 5.65284 0
M  V30 1683 H 161.248 -0.917226 4.76146 0
M  V30 1684 N 162.591 -1.51276 -0.441967 0
M  V30 1685 C 164.007 -1.39349 -0.778083 0
M  V30 1686 C 164.207 -0.472212 -1.95889 0
M  V30 1687 O 163.263 0.0743551 -2.5239 0
M  V30 1688 C 164.576 -2.81292 -1.0628 0
M  V30 1689 C 166.124 -2.9041 -1.16751 0
M  V30 1690 C 166.599 -4.33251 -1.48519 0
M  V30 1691 N 168.09 -4.36336 -1.55453 0
M  V30 1692 C 168.825 -5.43885 -1.81596 0
M  V30 1693 N 168.321 -6.61601 -2.05562 0
M  V30 1694 N 170.114 -5.3136 -1.8334 0
M  V30 1695 H 162.265 -2.09729 0.335774 0
M  V30 1696 H 164.528 -0.943925 0.0878028 0
M  V30 1697 H 164.234 -3.50678 -0.267905 0
M  V30 1698 H 164.108 -3.20334 -1.99163 0
M  V30 1699 H 166.495 -2.21225 -1.95304 0
M  V30 1700 H 166.576 -2.54871 -0.217801 0
M  V30 1701 H 166.22 -5.02984 -0.704958 0
M  V30 1702 H 166.15 -4.66299 -2.44689 0
M  V30 1703 H 168.641 -3.51466 -1.38853 0
M  V30 1704 H 168.954 -7.39361 -2.24867 0
M  V30 1705 H 167.299 -6.64725 -2.02894 0
M  V30 1706 H 170.49 -4.38382 -1.64132 0
M  V30 1707 H 170.663 -6.15258 -2.03377 0
M  V30 1708 N 164.069 0.697108 -1.41344 0
M  V30 1709 C 165.299 1.48377 -1.43763 0
M  V30 1710 C 165.707 1.89156 -0.0408726 0
M  V30 1711 O 165.05 1.57239 0.949812 0
M  V30 1712 C 165.112 2.7781 -2.2817 0
M  V30 1713 C 164.776 2.59244 -3.76353 0
M  V30 1714 C 165.773 2.25292 -4.68551 0
M  V30 1715 C 163.458 2.74933 -4.20378 0
M  V30 1716 C 165.452 2.07264 -6.02761 0
M  V30 1717 C 163.139 2.56521 -5.54653 0
M  V30 1718 C 164.137 2.22737 -6.4566 0
M  V30 1719 O 163.825 2.04485 -7.77458 0
M  V30 1720 H 163.557 0.463842 -0.491759 0
M  V30 1721 H 166.111 0.865934 -1.86255 0
M  V30 1722 H 164.341 3.41995 -1.8049 0
M  V30 1723 H 166.03 3.39608 -2.22309 0
M  V30 1724 H 166.796 2.12787 -4.35829 0
M  V30 1725 H 162.675 3.00213 -3.49848 0
M  V30 1726 H 166.219 1.80817 -6.73759 0
M  V30 1727 H 162.116 2.68616 -5.86955 0
M  V30 1728 H 162.884 2.1926 -7.88586 0
M  V30 1729 N 165.547 1.27147 0.931209 0
M  V30 1730 C 166.495 1.09398 2.05268 0
M  V30 1731 C 167.489 0.0180591 1.6939 0
M  V30 1732 O 168.695 0.17551 1.79142 0
M  V30 1733 H 165.07 0.336986 0.672268 0
M  V30 1734 H 167.041 2.04416 2.17386 0
M  V30 1735 C 165.79 0.75424 3.39421 0
M  V30 1736 H 165.113 1.57404 3.67511 0
M  V30 1737 H 166.553 0.669903 4.18674 0
M  V30 1738 C 165.012 -0.541197 3.32525 0
M  V30 1739 O 165.542 -1.57664 3.69466 0
M  V30 1740 N 163.748 -0.535517 2.85623 0
M  V30 1741 H 163.295 0.307511 2.55758 0
M  V30 1742 H 163.253 -1.40236 2.81392 0
M  V30 1743 N 167.025 -1.13721 1.09112 0
M  V30 1744 C 168.273 -1.84559 0.823562 0
M  V30 1745 C 168.594 -1.83754 -0.652658 0
M  V30 1746 O 167.864 -1.29102 -1.47342 0
M  V30 1747 H 166.444 -0.683376 0.301673 0
M  V30 1748 H 169.106 -1.37771 1.37859 0
M  V30 1749 H 168.202 -2.8917 1.17419 0
M  V30 1750 N 168.503 -0.877838 -1.30888 0
M  V30 1751 C 169.433 -0.35534 -2.3078 0
M  V30 1752 C 170.414 0.557994 -1.60687 0
M  V30 1753 O 171.599 0.473355 -1.88343 0
M  V30 1754 C 168.729 0.437221 -3.44537 0
M  V30 1755 C 167.683 -0.383715 -4.26276 0
M  V30 1756 C 167.009 0.535014 -5.32017 0
M  V30 1757 C 168.309 -1.62201 -4.96476 0
M  V30 1758 H 170.003 -1.19007 -2.74732 0
M  V30 1759 H 167.549 -0.573698 -1.32078 0
M  V30 1760 H 169.502 0.813334 -4.13477 0
M  V30 1761 H 168.226 1.30553 -2.99372 0
M  V30 1762 H 166.885 -0.741874 -3.59015 0
M  V30 1763 H 166.533 1.40083 -4.831 0
M  V30 1764 H 166.233 -0.0104211 -5.87599 0
M  V30 1765 H 167.757 0.907799 -6.03814 0
M  V30 1766 H 169.171 -1.31689 -5.5797 0
M  V30 1767 H 167.568 -2.10711 -5.61891 0
M  V30 1768 H 168.638 -2.37044 -4.23011 0
M  V30 1769 N 169.982 1.44106 -0.638065 0
M  V30 1770 C 171.228 2.02277 -0.145546 0
M  V30 1771 C 171.561 1.50125 1.23191 0
M  V30 1772 O 170.836 0.688133 1.8192 0
M  V30 1773 C 171.119 3.59829 -0.139791 0
M  V30 1774 C 170.972 4.22247 -1.55008 0
M  V30 1775 C 172.291 4.36873 0.531966 0
M  V30 1776 H 169.41 0.734992 -0.0543632 0
M  V30 1777 H 172.052 1.71592 -0.815863 0
M  V30 1778 H 170.202 3.86102 0.431007 0
M  V30 1779 H 171.874 4.07057 -2.1703 0
M  V30 1780 H 170.117 3.79476 -2.10191 0
M  V30 1781 H 170.788 5.31284 -1.49804 0
M  V30 1782 H 173.264 4.16074 0.0464781 0
M  V30 1783 H 172.14 5.4657 0.505206 0
M  V30 1784 H 172.401 4.11995 1.60352 0
M  V30 1785 N 171.46 0.379036 1.52974 0
M  V30 1786 C 172.688 -0.20679 2.05864 0
M  V30 1787 C 173.103 -1.41356 1.25155 0
M  V30 1788 O 172.46 -1.8009 0.295588 0
M  V30 1789 C 172.511 -0.587045 3.56702 0
M  V30 1790 O 172.232 0.571776 4.34353 0
M  V30 1791 C 173.733 -1.22983 4.25899 0
M  V30 1792 H 170.953 -0.0336123 0.670158 0
M  V30 1793 H 173.497 0.541298 1.97206 0
M  V30 1794 H 171.652 -1.28504 3.65466 0
M  V30 1795 H 172.066 0.261544 5.23847 0
M  V30 1796 H 173.54 -1.44635 5.32715 0
M  V30 1797 H 174.017 -2.19416 3.80465 0
M  V30 1798 H 174.623 -0.572892 4.21424 0
M  V30 1799 N 172.938 -1.57226 0.108567 0
M  V30 1800 C 174.186 -1.94448 -0.550853 0
M  V30 1801 C 174.507 -0.992074 -1.67878 0
M  V30 1802 O 173.777 -0.0465 -1.95845 0
M  V30 1803 H 172.357 -0.717897 -0.206479 0
M  V30 1804 H 175.019 -1.94112 0.175062 0
M  V30 1805 H 174.115 -2.97218 -0.952259 0
M  V30 1806 N 174.416 0.165178 -1.56732 0
M  V30 1807 C 175.644 0.896218 -1.86482 0
M  V30 1808 C 176.059 1.75555 -0.694675 0
M  V30 1809 O 175.416 1.79379 0.33607 0
M  V30 1810 C 175.467 1.76792 -3.1532 0
M  V30 1811 O 175.188 0.943239 -4.27825 0
M  V30 1812 C 176.689 2.6081 -3.58459 0
M  V30 1813 H 173.909 0.260064 -0.618553 0
M  V30 1814 H 176.453 0.163428 -2.03846 0
M  V30 1815 H 174.608 2.45398 -2.99764 0
M  V30 1816 H 175.022 1.53998 -5.01383 0
M  V30 1817 H 176.496 3.17579 -4.51495 0
M  V30 1818 H 176.973 3.35977 -2.82872 0
M  V30 1819 H 177.579 1.97526 -3.76648 0
M  V30 1820 N 175.894 1.51508 0.433938 0
M  V30 1821 C 177.31 1.39759 0.770682 0
M  V30 1822 C 177.51 0.482594 1.95636 0
M  V30 1823 O 176.566 -0.0609691 2.52426 0
M  V30 1824 C 177.879 2.81851 1.04787 0
M  V30 1825 C 179.427 2.91025 1.1521 0
M  V30 1826 C 179.902 4.34032 1.46219 0
M  V30 1827 N 181.393 4.37154 1.53136 0
M  V30 1828 C 182.128 5.4484 1.78709 0
M  V30 1829 N 181.624 6.62682 2.02051 0
M  V30 1830 N 183.417 5.32324 1.80519 0
M  V30 1831 H 175.568 2.09548 -0.346892 0
M  V30 1832 H 177.831 0.943446 -0.0928074 0
M  V30 1833 H 177.537 3.50815 0.249304 0
M  V30 1834 H 177.411 3.21386 1.97461 0
M  V30 1835 H 179.798 2.22257 1.94128 0
M  V30 1836 H 179.879 2.54983 0.204281 0
M  V30 1837 H 179.523 5.03351 0.678274 0
M  V30 1838 H 179.453 4.6759 2.42212 0
M  V30 1839 H 181.944 3.52197 1.36987 0
M  V30 1840 H 182.257 7.40543 2.20943 0
M  V30 1841 H 180.602 6.65791 1.99366 0
M  V30 1842 H 183.793 4.39246 1.61805 0
M  V30 1843 H 183.966 6.16328 2.00111 0
M  V30 1844 N 177.372 -0.689602 1.41712 0
M  V30 1845 C 178.335 -1.78521 1.43746 0
M  V30 1846 C 179.335 -1.57436 0.327191 0
M  V30 1847 O 180.525 -1.64 0.587348 0
M  V30 1848 C 177.657 -3.16971 1.25467 0
M  V30 1849 H 178.85 -1.78108 2.41283 0
M  V30 1850 H 176.403 -0.89781 1.27942 0
M  V30 1851 H 177.138 -3.23019 0.287948 0
M  V30 1852 H 176.923 -3.33678 2.05917 0
M  V30 1853 H 178.413 -3.96935 1.2974 0
M  V30 1854 N 178.85 -1.27639 -0.924453 0
M  V30 1855 C 179.797 -1.10644 -2.0255 0
M  V30 1856 C 180.767 -0.00658438 -1.66099 0
M  V30 1857 O 181.952 -0.16952 -1.90045 0
M  V30 1858 C 179.092 -0.76309 -3.36557 0
M  V30 1859 C 178.205 -1.94091 -3.85944 0
M  V30 1860 C 177.34 -1.53914 -5.08413 0
M  V30 1861 C 176.379 -2.68425 -5.50104 0
M  V30 1862 N 175.516 -2.28815 -6.63768 0
M  V30 1863 H 180.356 -2.04858 -2.16419 0
M  V30 1864 H 177.893 -1.01974 -1.06017 0
M  V30 1865 H 179.851 -0.544822 -4.13627 0
M  V30 1866 H 178.481 0.142102 -3.22487 0
M  V30 1867 H 177.533 -2.27162 -3.05125 0
M  V30 1868 H 178.845 -2.7998 -4.12811 0
M  V30 1869 H 177.999 -1.28231 -5.92994 0
M  V30 1870 H 176.738 -0.651391 -4.8333 0
M  V30 1871 H 175.743 -2.94819 -4.64071 0
M  V30 1872 H 176.968 -3.57826 -5.7718 0
M  V30 1873 H 174.914 -1.42495 -6.40337 0
M  V30 1874 H 174.831 -3.08242 -6.90306 0
M  V30 1875 H 176.099 -2.06387 -7.51681 0
M  V30 1876 N 180.328 1.1314 -1.09713 0
M  V30 1877 C 181.576 1.84119 -0.833338 0
M  V30 1878 C 181.897 1.84097 0.642904 0
M  V30 1879 O 181.167 1.29881 1.46655 0
M  V30 1880 H 179.747 0.681766 -0.305293 0
M  V30 1881 H 182.409 1.37038 -1.38588 0
M  V30 1882 H 181.505 2.88543 -1.18951 0
M  V30 1883 N 181.806 0.884767 1.30421 0
M  V30 1884 C 183.055 0.499164 1.95426 0
M  V30 1885 C 183.368 -0.95645 1.70621 0
M  V30 1886 O 184.574 -1.44889 2.29607 0
M  V30 1887 C 183.03 0.84177 3.49917 0
M  V30 1888 C 182.638 2.31514 3.83543 0
M  V30 1889 C 184.382 0.525355 4.21237 0
M  V30 1890 C 182.289 2.59939 5.31212 0
M  V30 1891 H 181.219 0.182944 0.73147 0
M  V30 1892 H 183.87 1.07971 1.48373 0
M  V30 1893 H 182.252 0.190311 3.95542 0
M  V30 1894 H 183.426 3.0109 3.48829 0
M  V30 1895 H 181.741 2.59907 3.25326 0
M  V30 1896 H 184.338 0.714762 5.29901 0
M  V30 1897 H 184.681 -0.535222 4.12845 0
M  V30 1898 H 185.214 1.134 3.81294 0
M  V30 1899 H 181.953 3.64736 5.44654 0
M  V30 1900 H 181.473 1.94972 5.67227 0
M  V30 1901 H 183.152 2.45429 5.98643 0
M  V30 1902 N 183.284 -1.43765 0.645699 0
M  V30 1903 C 184.533 -2.01116 0.153412 0
M  V30 1904 C 184.846 -1.51493 -1.23731 0
M  V30 1905 O 186.052 -2.01067 -1.8244 0
M  V30 1906 C 184.508 -3.59206 0.223473 0
M  V30 1907 C 184.116 -4.17823 1.61642 0
M  V30 1908 C 185.86 -4.23972 -0.211597 0
M  V30 1909 C 183.767 -5.68183 1.64081 0
M  V30 1910 H 182.697 -0.752093 0.0535891 0
M  V30 1911 H 185.348 -1.6482 0.806633 0
M  V30 1912 H 183.73 -3.92867 -0.497118 0
M  V30 1913 H 184.904 -3.95674 2.36176 0
M  V30 1914 H 183.219 -3.65399 1.99681 0
M  V30 1915 H 185.816 -5.34275 -0.213112 0
M  V30 1916 H 186.159 -3.97352 -1.24165 0
M  V30 1917 H 186.692 -3.95166 0.456988 0
M  V30 1918 H 183.431 -5.99559 2.64971 0
M  V30 1919 H 182.951 -5.9241 0.938611 0
M  V30 1920 H 184.63 -6.32085 1.3812 0
M  V30 1921 N 184.763 -0.387143 -1.52771 0
M  V30 1922 C 185.726 0.436939 -2.24997 0
M  V30 1923 C 186.726 0.991991 -1.26555 0
M  V30 1924 O 187.916 0.874335 -1.50669 0
M  V30 1925 C 185.048 1.61281 -3.00335 0
M  V30 1926 H 186.241 -0.195365 -2.99263 0
M  V30 1927 H 183.794 -0.139218 -1.55679 0
M  V30 1928 H 184.529 2.2826 -2.30364 0
M  V30 1929 H 184.314 1.22154 -3.72587 0
M  V30 1930 H 185.804 2.19629 -3.5518 0
M  V30 1931 N 186.241 1.57166 -0.116904 0
M  V30 1932 C 187.49 1.94298 0.541407 0
M  V30 1933 C 187.803 1.00236 1.67964 0
M  V30 1934 O 189.009 1.26826 2.40057 0
M  V30 1935 C 187.465 3.45306 1.01449 0
M  V30 1936 C 187.073 4.47899 -0.0951738 0
M  V30 1937 C 188.817 3.91361 1.6443 0
M  V30 1938 C 186.724 5.90083 0.394491 0
M  V30 1939 H 185.654 0.725308 0.206019 0
M  V30 1940 H 188.305 1.82446 -0.196419 0
M  V30 1941 H 186.687 3.52385 1.80667 0
M  V30 1942 H 187.861 4.52486 -0.871374 0
M  V30 1943 H 186.176 4.11583 -0.631505 0
M  V30 1944 H 188.773 4.95004 2.02176 0
M  V30 1945 H 189.116 3.3122 2.52189 0
M  V30 1946 H 189.649 3.87073 0.917559 0
M  V30 1947 H 186.388 6.53974 -0.447004 0
M  V30 1948 H 185.908 5.88921 1.13722 0
M  V30 1949 H 187.587 6.41307 0.856399 0
M  V30 1950 N 187.719 -0.156864 1.56817 0
M  V30 1951 C 188.959 -0.877453 1.84608 0
M  V30 1952 C 189.323 -1.78791 0.699845 0
M  V30 1953 O 190.524 -2.5472 0.858553 0
M  V30 1954 C 188.795 -1.63992 3.17555 0
M  V30 1955 S 190.354 -2.40729 3.66872 0
M  V30 1956 H 187.172 -0.293612 0.647544 0
M  V30 1957 H 189.774 -0.138099 1.95012 0
M  V30 1958 H 188.478 -0.962363 3.98957 0
M  V30 1959 H 188.009 -2.42038 3.10131 0
M  V30 1960 H 190.024 -3.65725 3.3535 0
M  V30 1961 N 189.197 -1.51736 -0.425897 0
M  V30 1962 C 190.443 -1.66174 -1.17294 0
M  V30 1963 C 190.798 -0.37876 -1.88635 0
M  V30 1964 O 190.091 0.626021 -1.81084 0
M  V30 1965 C 190.285 -2.81103 -2.20717 0
M  V30 1966 C 190.114 -4.20453 -1.59529 0
M  V30 1967 C 188.884 -4.86225 -1.37525 0
M  V30 1968 C 191.082 -5.03146 -1.06528 0
M  V30 1969 N 189.064 -6.09657 -0.720537 0
M  V30 1970 C 190.435 -6.17674 -0.536506 0
M  V30 1971 C 192.49 -4.88594 -0.958127 0
M  V30 1972 C 191.193 -7.19245 0.0888917 0
M  V30 1973 C 193.219 -5.90383 -0.346608 0
M  V30 1974 C 192.581 -7.04191 0.171564 0
M  V30 1975 H 188.68 -0.661871 -0.416475 0
M  V30 1976 H 191.264 -1.88997 -0.467801 0
M  V30 1977 H 189.435 -2.59924 -2.88607 0
M  V30 1978 H 191.167 -2.84662 -2.87663 0
M  V30 1979 H 187.922 -4.44293 -1.64015 0
M  V30 1980 H 188.346 -6.75756 -0.410292 0
M  V30 1981 H 192.988 -4.0085 -1.34459 0
M  V30 1982 H 190.706 -8.06628 0.48746 0
M  V30 1983 H 194.292 -5.81194 -0.265451 0
M  V30 1984 H 193.172 -7.81606 0.637309 0
M  V30 1985 N 190.675 0.682077 -1.42076 0
M  V30 1986 C 191.921 1.44428 -1.42367 0
M  V30 1987 C 192.254 1.94164 -0.0373056 0
M  V30 1988 O 191.529 1.70429 0.937239 0
M  V30 1989 C 191.812 2.64654 -2.44194 0
M  V30 1990 C 191.665 2.20596 -3.91991 0
M  V30 1991 C 192.984 3.66865 -2.431 0
M  V30 1992 H 190.103 0.523834 -0.518428 0
M  V30 1993 H 192.745 0.77576 -1.73442 0
M  V30 1994 H 190.895 3.2169 -2.17826 0
M  V30 1995 H 192.567 1.68783 -4.29313 0
M  V30 1996 H 190.81 1.52242 -4.06208 0
M  V30 1997 H 191.481 3.06921 -4.58807 0
M  V30 1998 H 193.957 3.19531 -2.66532 0
M  V30 1999 H 192.833 4.48577 -3.16339 0
M  V30 2000 H 193.094 4.17493 -1.45437 0
M  V30 2001 N 192.153 1.28127 0.917671 0
M  V30 2002 C 193.083 1.14248 2.03641 0
M  V30 2003 C 194.064 0.0412748 1.7005 0
M  V30 2004 O 195.249 0.217566 1.92977 0
M  V30 2005 C 192.379 0.799431 3.37974 0
M  V30 2006 C 191.333 1.85497 3.85713 0
M  V30 2007 C 190.659 1.36565 5.16966 0
M  V30 2008 C 191.959 3.26085 4.08002 0
M  V30 2009 H 193.653 2.07835 2.15511 0
M  V30 2010 H 191.199 1.00064 1.03553 0
M  V30 2011 H 193.152 0.689114 4.15727 0
M  V30 2012 H 191.876 -0.172145 3.26146 0
M  V30 2013 H 190.535 1.95437 3.10161 0
M  V30 2014 H 190.183 0.383253 5.01538 0
M  V30 2015 H 189.883 2.07143 5.49878 0
M  V30 2016 H 191.407 1.26848 5.97279 0
M  V30 2017 H 192.821 3.19089 4.76293 0
M  V30 2018 H 191.218 3.94462 4.52238 0
M  V30 2019 H 192.288 3.70394 3.12948 0
M  V30 2020 N 193.631 -1.12557 1.10312 0
M  V30 2021 C 194.856 -1.88405 0.867085 0
M  V30 2022 C 195.281 -1.79038 -0.576817 0
M  V30 2023 O 194.639 -1.14439 -1.40618 0
M  V30 2024 C 194.687 -3.3563 1.31851 0
M  V30 2025 O 193.791 -4.09565 0.482734 0
M  V30 2026 H 193.132 -0.585455 0.313271 0
M  V30 2027 H 195.662 -1.42352 1.4696 0
M  V30 2028 H 195.672 -3.86469 1.3079 0
M  V30 2029 H 194.347 -3.41765 2.37001 0
M  V30 2030 H 192.924 -3.68695 0.558448 0
M  V30 2031 N 195.109 -0.891671 -1.2995 0
M  V30 2032 C 196.356 -0.513501 -1.95881 0
M  V30 2033 C 196.684 0.938655 -1.70351 0
M  V30 2034 O 195.939 1.67936 -1.00478 0
M  V30 2035 C 196.238 -0.742868 -3.49594 0
M  V30 2036 C 195.904 -2.17114 -3.95186 0
M  V30 2037 C 194.566 -2.56169 -4.07346 0
M  V30 2038 C 196.918 -3.10162 -4.18866 0
M  V30 2039 C 194.246 -3.87469 -4.4055 0
M  V30 2040 C 196.598 -4.41001 -4.53542 0
M  V30 2041 C 195.262 -4.79941 -4.63911 0
M  V30 2042 H 194.532 -0.187903 -0.71678 0
M  V30 2043 H 197.179 -1.1288 -1.54694 0
M  V30 2044 H 195.484 -0.044586 -3.91775 0
M  V30 2045 H 197.181 -0.429767 -3.9869 0
M  V30 2046 H 193.771 -1.85801 -3.86233 0
M  V30 2047 H 197.955 -2.81206 -4.08946 0
M  V30 2048 H 193.211 -4.17371 -4.46779 0
M  V30 2049 H 197.385 -5.13133 -4.70815 0
M  V30 2050 H 195.012 -5.81719 -4.89395 0
M  V30 2051 N 196.587 1.43421 -0.653314 0
M  V30 2052 C 197.55 2.29182 0.0287951 0
M  V30 2053 C 198.55 1.42213 0.750465 0
M  V30 2054 O 199.74 1.63843 0.591701 0
M  V30 2055 C 196.872 3.24278 1.05151 0
M  V30 2056 H 198.065 2.90985 -0.725786 0
M  V30 2057 H 195.618 1.50702 -0.414545 0
M  V30 2058 H 196.353 2.6737 1.83532 0
M  V30 2059 H 196.138 3.88396 0.537687 0
M  V30 2060 H 197.628 3.88647 1.52786 0
M  V30 2061 N 198.065 0.39524 1.52563 0
M  V30 2062 C 199.314 -0.186321 2.00838 0
M  V30 2063 C 199.627 -1.47402 1.28577 0
M  V30 2064 O 200.833 -2.13599 1.67593 0
M  V30 2065 C 199.289 -0.382595 3.57861 0
M  V30 2066 C 198.897 0.892202 4.39026 0
M  V30 2067 C 200.641 -0.9202 4.14406 0
M  V30 2068 C 198.548 0.66388 5.87662 0
M  V30 2069 H 197.478 -0.0734041 0.750418 0
M  V30 2070 H 200.129 0.518552 1.76021 0
M  V30 2071 H 198.511 -1.14946 3.7895 0
M  V30 2072 H 199.685 1.66414 4.29701 0
M  V30 2073 H 198 1.35519 3.9373 0
M  V30 2074 H 200.597 -1.10683 5.23119 0
M  V30 2075 H 200.94 -1.89096 3.70875 0
M  V30 2076 H 201.473 -0.212751 3.97231 0
M  V30 2077 H 198.212 1.6058 6.35527 0
M  V30 2078 H 197.732 -0.0690193 5.9976 0
M  V30 2079 H 199.411 0.300699 6.46301 0
M  V30 2080 N 199.544 -1.57102 0.125237 0
M  V30 2081 C 200.792 -1.95021 -0.530198 0
M  V30 2082 C 201.113 -1.00982 -1.66816 0
M  V30 2083 O 200.383 -0.0672693 -1.95784 0
M  V30 2084 H 198.963 -0.720046 -0.198853 0
M  V30 2085 H 201.625 -1.93916 0.19564 0
M  V30 2086 H 200.721 -2.98211 -0.920681 0
M  V30 2087 N 201.022 0.148545 -1.56898 0
M  V30 2088 C 201.952 1.18524 -2.01182 0
M  V30 2089 C 202.933 1.4489 -0.891123 0
M  V30 2090 O 204.118 1.55836 -1.15882 0
M  V30 2091 C 201.248 2.51879 -2.39112 0
M  V30 2092 C 200.202 2.40038 -3.54353 0
M  V30 2093 C 199.528 3.78089 -3.78091 0
M  V30 2094 C 200.828 1.88577 -4.87069 0
M  V30 2095 H 202.522 0.817029 -2.88036 0
M  V30 2096 H 200.068 0.391575 -1.38574 0
M  V30 2097 H 202.021 3.24627 -2.68692 0
M  V30 2098 H 200.745 2.90532 -1.49193 0
M  V30 2099 H 199.404 1.69742 -3.24936 0
M  V30 2100 H 199.052 4.14175 -2.85426 0
M  V30 2101 H 198.752 3.71028 -4.55645 0
M  V30 2102 H 200.276 4.52387 -4.10095 0
M  V30 2103 H 201.69 2.51117 -5.15377 0
M  V30 2104 H 200.087 1.9241 -5.68417 0
M  V30 2105 H 201.157 0.84136 -4.77545 0
M  V30 2106 N 202.5 1.5196 0.417844 0
M  V30 2107 C 203.728 1.69426 1.18753 0
M  V30 2108 C 204.143 0.399955 1.84515 0
M  V30 2109 O 203.5 -0.623288 1.71527 0
M  V30 2110 C 203.551 2.82375 2.25714 0
M  V30 2111 O 203.272 4.06793 1.62638 0
M  V30 2112 C 204.773 3.11277 3.15628 0
M  V30 2113 H 201.993 0.568031 0.357186 0
M  V30 2114 H 204.537 1.98475 0.49273 0
M  V30 2115 H 202.692 2.5587 2.90877 0
M  V30 2116 H 203.106 4.69667 2.3348 0
M  V30 2117 H 204.58 3.93843 3.86771 0
M  V30 2118 H 205.057 2.24473 3.77503 0
M  V30 2119 H 205.663 3.39515 2.56144 0
M  V30 2120 N 203.978 -0.674533 1.42435 0
M  V30 2121 C 205.389 -1.25514 1.38214 0
M  V30 2122 C 205.74 -1.96055 0.0755464 0
M  V30 2123 O 204.865 -2.00028 -0.8257 0
M  V30 2124 C 205.46 -2.28269 2.50357 0
M  V30 2125 C 204.019 -2.81856 2.49467 0
M  V30 2126 C 203.166 -1.56182 2.29134 0
M  V30 2127 H 206.117 -0.467902 1.51646 0
M  V30 2128 H 206.138 -3.10009 2.20624 0
M  V30 2129 H 205.65 -1.769 3.45439 0
M  V30 2130 H 203.751 -3.37346 1.58204 0
M  V30 2131 H 203.864 -3.30854 3.46515 0
M  V30 2132 H 202.228 -1.82761 1.774 0
M  V30 2133 H 203.011 -1.06778 3.26272 0
M  V30 2134 N 205.456 -1.28612 -0.910864 0
M  V30 2135 C 206.389 -1.07109 -2.01502 0
M  V30 2136 C 207.367 0.013706 -1.62594 0
M  V30 2137 O 208.551 -0.134796 -1.88017 0
M  V30 2138 C 205.678 -0.628255 -3.32822 0
M  V30 2139 C 204.724 -1.71012 -3.90714 0
M  V30 2140 S 205.557 -3.30676 -4.21205 0
M  V30 2141 C 206.713 -2.88234 -5.55583 0
M  V30 2142 H 206.946 -2.00591 -2.19432 0
M  V30 2143 H 204.479 -1.12633 -1.05609 0
M  V30 2144 H 206.437 -0.37946 -4.08742 0
M  V30 2145 H 205.098 0.28678 -3.12788 0
M  V30 2146 H 204.291 -1.35195 -4.85529 0
M  V30 2147 H 203.893 -1.91186 -3.21441 0
M  V30 2148 H 206.185 -2.34584 -6.35591 0
M  V30 2149 H 207.128 -3.81857 -5.96314 0
M  V30 2150 H 207.536 -2.26862 -5.16908 0
M  V30 2151 N 206.934 1.1197 -1.10907 0
M  V30 2152 C 207.864 2.19928 -0.784473 0
M  V30 2153 C 208.845 1.6833 0.244726 0
M  V30 2154 O 210.03 1.93892 0.109418 0
M  V30 2155 C 207.16 3.46597 -0.220827 0
M  V30 2156 C 206.114 4.11376 -1.18127 0
M  V30 2157 C 205.44 5.32554 -0.478594 0
M  V30 2158 C 206.74 4.56945 -2.52979 0
M  V30 2159 H 208.434 2.47337 -1.68715 0
M  V30 2160 H 205.98 1.18879 -0.812642 0
M  V30 2161 H 207.933 4.21396 0.0184278 0
M  V30 2162 H 206.657 3.1863 0.717113 0
M  V30 2163 H 205.316 3.38564 -1.40606 0
M  V30 2164 H 204.964 5.00856 0.463976 0
M  V30 2165 H 204.664 5.76844 -1.11912 0
M  V30 2166 H 206.188 6.10096 -0.248 0
M  V30 2167 H 207.602 5.23093 -2.3462 0
M  V30 2168 H 205.999 5.1203 -3.12962 0
M  V30 2169 H 207.069 3.70676 -3.12614 0
M  V30 2170 N 208.412 0.89855 1.29475 0
M  V30 2171 C 209.66 0.522847 1.9522 0
M  V30 2172 C 209.981 -0.93371 1.71192 0
M  V30 2173 O 209.251 -1.65823 1.04305 0
M  V30 2174 H 207.831 0.190366 0.722336 0
M  V30 2175 H 210.493 1.14459 1.5775 0
M  V30 2176 H 209.589 0.704476 3.04045 0
M  V30 2177 N 209.89 -1.43072 0.660911 0
M  V30 2178 C 211.136 -2.02545 0.186337 0
M  V30 2179 C 211.491 -1.51253 -1.18913 0
M  V30 2180 O 210.784 -0.699167 -1.78388 0
M  V30 2181 C 210.978 -3.57103 0.145563 0
M  V30 2182 C 210.807 -4.23393 1.51554 0
M  V30 2183 C 209.577 -4.59144 2.10984 0
M  V30 2184 C 211.775 -4.51897 2.45548 0
M  V30 2185 N 209.757 -5.10545 3.40907 0
M  V30 2186 C 211.128 -5.04698 3.6011 0
M  V30 2187 C 213.183 -4.33872 2.44253 0
M  V30 2188 C 211.886 -5.41371 4.73613 0
M  V30 2189 C 213.912 -4.71612 3.56842 0
M  V30 2190 C 213.274 -5.24553 4.70131 0
M  V30 2191 H 209.373 -0.773823 0.112792 0
M  V30 2192 H 211.957 -1.74137 0.870885 0
M  V30 2193 H 210.128 -3.85059 -0.508353 0
M  V30 2194 H 211.86 -4.03264 -0.340598 0
M  V30 2195 H 208.615 -4.4444 1.63615 0
M  V30 2196 H 209.039 -5.40689 4.07411 0
M  V30 2197 H 213.681 -3.92208 1.579 0
M  V30 2198 H 211.399 -5.81975 5.60652 0
M  V30 2199 H 214.985 -4.59354 3.57051 0
M  V30 2200 H 213.865 -5.53213 5.5581 0
M  V30 2201 N 211.368 -0.403325 -1.52352 0
M  V30 2202 C 212.316 0.439752 -2.28405 0
M  V30 2203 C 213.31 1.05089 -1.32863 0
M  V30 2204 O 214.516 0.989759 -1.50345 0
M  V30 2205 H 210.891 0.160587 -0.734653 0
M  V30 2206 H 212.862 -0.222983 -2.97566 0
M  V30 2207 C 211.611 1.54736 -3.11371 0
M  V30 2208 H 210.934 1.08643 -3.84755 0
M  V30 2209 H 212.374 2.1112 -3.67701 0
M  V30 2210 C 210.833 2.51141 -2.24566 0
M  V30 2211 O 211.363 3.54887 -1.88196 0
M  V30 2212 N 209.569 2.21213 -1.8845 0
M  V30 2213 H 209.116 1.36878 -2.18225 0
M  V30 2214 H 209.074 2.85963 -1.30662 0
M  V30 2215 N 212.846 1.57033 -0.133567 0
M  V30 2216 C 213.794 2.17348 0.828412 0
M  V30 2217 C 214.788 1.12671 1.26498 0
M  V30 2218 O 215.994 1.30947 1.23502 0
M  V30 2219 H 212.369 0.695775 0.285309 0
M  V30 2220 H 214.34 2.96935 0.295372 0
M  V30 2221 C 213.089 2.79893 2.06289 0
M  V30 2222 H 212.412 3.60147 1.73592 0
M  V30 2223 H 213.852 3.25615 2.71572 0
M  V30 2224 C 212.311 1.77713 2.86216 0
M  V30 2225 O 212.841 1.23937 3.82103 0
M  V30 2226 N 211.047 1.47321 2.50489 0
M  V30 2227 H 210.594 1.91243 1.7258 0
M  V30 2228 H 210.552 0.79199 3.04261 0
M  V30 2229 N 214.325 -0.140222 1.56975 0
M  V30 2230 C 215.565 -0.857823 1.85528 0
M  V30 2231 C 215.929 -1.78039 0.718768 0
M  V30 2232 O 217.13 -2.53795 0.885521 0
M  V30 2233 C 215.401 -1.60615 3.19277 0
M  V30 2234 S 216.96 -2.36824 3.69405 0
M  V30 2235 H 213.778 -0.286727 0.650622 0
M  V30 2236 H 216.38 -0.117408 1.95147 0
M  V30 2237 H 215.084 -0.919994 3.99955 0
M  V30 2238 H 214.615 -2.38735 3.12681 0
M  V30 2239 H 216.63 -3.62148 3.3921 0
M  V30 2240 N 215.803 -1.52179 -0.40978 0
M  V30 2241 C 217.051 -1.65878 -1.15451 0
M  V30 2242 C 217.372 -0.390771 -1.91044 0
M  V30 2243 O 216.642 0.594323 -1.86667 0
M  V30 2244 H 215.222 -0.611405 -0.429177 0
M  V30 2245 H 217.884 -1.89219 -0.467134 0
M  V30 2246 H 216.98 -2.49954 -1.86894 0
M  V30 2247 N 217.281 0.66697 -1.42791 0
M  V30 2248 C 218.213 1.7925 -1.42836 0
M  V30 2249 C 219.226 1.59496 -0.326333 0
M  V30 2250 O 220.415 1.6847 -0.589916 0
M  V30 2251 C 217.515 3.16476 -1.21229 0
M  V30 2252 C 216.688 3.63011 -2.44013 0
M  V30 2253 C 215.747 4.78993 -2.17834 0
M  V30 2254 O 214.773 4.89137 -2.91091 0
M  V30 2255 N 215.975 5.68248 -1.18635 0
M  V30 2256 H 218.74 1.79695 -2.39854 0
M  V30 2257 H 216.301 0.850338 -1.37771 0
M  V30 2258 H 218.293 3.91734 -1.01621 0
M  V30 2259 H 216.863 3.10884 -0.32706 0
M  V30 2260 H 216.083 2.78346 -2.79137 0
M  V30 2261 H 217.371 3.90845 -3.25757 0
M  V30 2262 H 216.769 5.62712 -0.580615 0
M  V30 2263 H 215.326 6.43285 -1.05013 0
M  V30 2264 N 218.759 1.29093 0.90403 0
M  V30 2265 C 220.17 1.15186 1.46932 0
M  V30 2266 C 220.521 -0.254587 1.94541 0
M  V30 2267 O 219.646 -1.14972 1.83332 0
M  V30 2268 C 220.241 2.08492 2.67051 0
M  V30 2269 C 218.8 1.98621 3.19729 0
M  V30 2270 C 217.947 1.9967 1.92425 0
M  V30 2271 H 220.898 1.41641 0.715789 0
M  V30 2272 H 220.919 1.65461 3.42641 0
M  V30 2273 H 220.431 3.10847 2.3237 0
M  V30 2274 H 218.532 0.993389 3.59114 0
M  V30 2275 H 218.645 2.86068 3.8432 0
M  V30 2276 H 217.009 1.44208 2.09943 0
M  V30 2277 H 217.792 3.03721 1.60026 0
M  V30 2278 N 220.237 -1.11381 1.11499 0
M  V30 2279 C 221.184 -2.17439 0.773887 0
M  V30 2280 C 222.154 -1.64132 -0.254899 0
M  V30 2281 O 223.339 -1.90345 -0.13168 0
M  V30 2282 C 220.479 -3.44373 0.223917 0
M  V30 2283 C 219.592 -4.1168 1.30934 0
M  V30 2284 C 218.727 -5.263 0.71984 0
M  V30 2285 C 217.766 -5.85493 1.78507 0
M  V30 2286 N 216.903 -6.91507 1.21502 0
M  V30 2287 H 221.743 -2.45962 1.68246 0
M  V30 2288 H 219.28 -1.20744 0.840191 0
M  V30 2289 H 221.238 -4.17047 -0.112921 0
M  V30 2290 H 219.868 -3.16232 -0.647851 0
M  V30 2291 H 218.92 -3.37073 1.76312 0
M  V30 2292 H 220.232 -4.51729 2.11524 0
M  V30 2293 H 219.386 -6.05785 0.333094 0
M  V30 2294 H 218.125 -4.87559 -0.117377 0
M  V30 2295 H 217.13 -5.04686 2.18111 0
M  V30 2296 H 218.355 -6.26301 2.62533 0
M  V30 2297 H 216.301 -6.54783 0.399455 0
M  V30 2298 H 216.218 -7.30214 1.95763 0
M  V30 2299 H 217.486 -7.74795 0.855181 0
M  V30 2300 N 221.715 -0.905404 -1.28997 0
M  V30 2301 C 222.625 -0.392246 -2.31298 0
M  V30 2302 C 223.641 0.515889 -1.66176 0
M  V30 2303 O 224.817 0.404093 -1.97304 0
M  V30 2304 C 221.882 0.36686 -3.44754 0
M  V30 2305 C 220.943 -0.573485 -4.25452 0
M  V30 2306 C 220.176 0.149488 -5.33491 0
M  V30 2307 O 220.399 1.37255 -5.5364 0
M  V30 2308 O 219.333 -0.510919 -5.99728 0
M  V30 2309 H 223.159 -1.2411 -2.77183 0
M  V30 2310 H 220.744 -0.669926 -1.33538 0
M  V30 2311 H 222.626 0.795907 -4.13816 0
M  V30 2312 H 221.301 1.19169 -3.00966 0
M  V30 2313 H 220.208 -1.05176 -3.59011 0
M  V30 2314 H 221.541 -1.36489 -4.72897 0
M  V30 2315 N 223.193 1.4272 -0.668489 0
M  V30 2316 C 224.441 2.01226 -0.187769 0
M  V30 2317 C 224.762 1.53092 1.2078 0
M  V30 2318 O 224.032 0.74993 1.80977 0
M  V30 2319 H 222.612 0.744041 -0.0664272 0
M  V30 2320 H 225.274 1.74723 -0.863583 0
M  V30 2321 H 224.37 3.11556 -0.184166 0
M  V30 2322 N 224.671 0.411399 1.52136 0
M  V30 2323 C 225.618 -0.412975 2.27075 0
M  V30 2324 C 226.588 -1.03912 1.29582 0
M  V30 2325 O 227.773 -1.06296 1.58448 0
M  V30 2326 C 224.913 -1.52247 3.09701 0
M  V30 2327 C 224.026 -0.917021 4.22155 0
M  V30 2328 C 223.161 -1.9994 4.92135 0
M  V30 2329 C 222.2 -1.37101 5.96548 0
M  V30 2330 N 221.337 -2.39364 6.60038 0
M  V30 2331 H 226.177 0.232499 2.97092 0
M  V30 2332 H 223.714 0.126496 1.46555 0
M  V30 2333 H 225.672 -2.17674 3.55913 0
M  V30 2334 H 224.302 -2.13794 2.41851 0
M  V30 2335 H 223.354 -0.151742 3.80097 0
M  V30 2336 H 224.666 -0.418006 4.97045 0
M  V30 2337 H 223.82 -2.73088 5.41763 0
M  V30 2338 H 222.559 -2.53208 4.16818 0
M  V30 2339 H 221.564 -0.624873 5.46237 0
M  V30 2340 H 222.789 -0.845998 6.7381 0
M  V30 2341 H 220.735 -2.91759 5.87548 0
M  V30 2342 H 220.652 -1.9428 7.3061 0
M  V30 2343 H 221.92 -3.12074 7.14304 0
M  V30 2344 N 226.149 -1.5696 0.141893 0
M  V30 2345 C 227.097 -2.17784 -0.816874 0
M  V30 2346 C 228.091 -1.1334 -1.25899 0
M  V30 2347 O 229.297 -1.316 -1.22806 0
M  V30 2348 H 225.672 -0.697278 -0.281615 0
M  V30 2349 H 227.643 -2.97087 -0.279621 0
M  V30 2350 C 226.392 -2.80983 -2.04802 0
M  V30 2351 H 225.715 -3.61062 -1.7168 0
M  V30 2352 H 227.155 -3.2705 -2.69841 0
M  V30 2353 C 225.614 -1.79228 -2.8527 0
M  V30 2354 O 226.144 -1.25962 -3.8144 0
M  V30 2355 N 224.35 -1.48647 -2.49704 0
M  V30 2356 H 223.897 -1.92155 -1.71564 0
M  V30 2357 H 223.855 -0.808115 -3.03837 0
M  V30 2358 N 227.627 0.131896 -1.57047 0
M  V30 2359 C 228.577 1.1679 -1.95816 0
M  V30 2360 C 229.561 1.37756 -0.831393 0
M  V30 2361 O 230.753 1.39065 -1.09499 0
M  V30 2362 C 227.882 2.49778 -2.35512 0
M  V30 2363 C 226.968 2.32342 -3.54793 0
M  V30 2364 N 227.359 1.8469 -4.70875 0
M  V30 2365 C 225.657 2.63043 -3.60173 0
M  V30 2366 C 226.358 1.80656 -5.52936 0
M  V30 2367 N 225.334 2.24528 -4.95064 0
M  V30 2368 H 229.136 0.791818 -2.83033 0
M  V30 2369 H 226.65 0.339791 -1.58805 0
M  V30 2370 H 228.647 3.24692 -2.61498 0
M  V30 2371 H 227.307 2.88156 -1.49654 0
M  V30 2372 H 228.318 1.54429 -4.9434 0
M  V30 2373 H 224.995 3.05193 -2.84892 0
M  V30 2374 H 226.385 1.45178 -6.56028 0
M  V30 2375 N 229.106 1.52395 0.401703 0
M  V30 2376 C 230.331 1.70972 1.17403 0
M  V30 2377 C 230.756 0.421615 1.83314 0
M  V30 2378 O 230.114 -0.621564 1.70312 0
M  V30 2379 C 230.162 2.85151 2.20728 0
M  V30 2380 O 229.266 2.51238 3.27037 0
M  V30 2381 H 228.607 0.568927 0.342372 0
M  V30 2382 H 231.137 1.99131 0.469891 0
M  V30 2383 H 231.147 3.10279 2.64936 0
M  V30 2384 H 229.822 3.78603 1.7214 0
M  V30 2385 H 228.399 2.36808 2.88057 0
M  V30 2386 N 230.584 -0.659388 1.43143 0
M  V30 2387 C 231.516 -1.7849 1.43784 0
M  V30 2388 C 232.529 -1.5932 0.334787 0
M  V30 2389 O 233.718 -1.68155 0.598842 0
M  V30 2390 C 230.818 -3.15828 1.22906 0
M  V30 2391 C 229.991 -3.61711 2.45934 0
M  V30 2392 C 229.05 -4.77831 2.20371 0
M  V30 2393 O 228.076 -4.87586 2.93681 0
M  V30 2394 N 229.278 -5.67611 1.21647 0
M  V30 2395 H 232.043 -1.7842 2.40803 0
M  V30 2396 H 229.604 -0.84302 1.3822 0
M  V30 2397 H 231.596 -3.91189 1.03697 0
M  V30 2398 H 230.166 -3.10707 0.343542 0
M  V30 2399 H 229.386 -2.76861 2.80609 0
M  V30 2400 H 230.674 -3.89112 3.27825 0
M  V30 2401 H 230.072 -5.62397 0.610449 0
M  V30 2402 H 228.629 -6.42719 1.08423 0
M  V30 2403 N 232.062 -1.29571 -0.897171 0
M  V30 2404 C 233.31 -1.17456 -1.64464 0
M  V30 2405 C 233.631 0.273698 -1.9307 0
M  V30 2406 O 232.901 1.18684 -1.55855 0
M  V30 2407 H 231.481 -0.431706 -0.609622 0
M  V30 2408 H 234.143 -1.62531 -1.07562 0
M  V30 2409 H 233.239 -1.72648 -2.59998 0
M  V30 2410 N 233.54 1.10788 -1.12088 0
M  V30 2411 C 234.78 1.84297 -0.883974 0
M  V30 2412 C 235.144 1.83036 0.579797 0
M  V30 2413 O 236.345 2.52061 0.933734 0
M  V30 2414 C 234.616 3.27173 -1.43849 0
M  V30 2415 S 236.175 4.17853 -1.33957 0
M  V30 2416 H 232.993 0.635433 -0.318977 0
M  V30 2417 H 235.595 1.33341 -1.4297 0
M  V30 2418 H 234.299 3.25658 -2.49749 0
M  V30 2419 H 233.83 3.83198 -0.890096 0
M  V30 2420 H 235.845 4.95239 -0.308603 0
M  V30 2421 N 235.018 0.912232 1.28515 0
M  V30 2422 C 236.266 0.543523 1.94654 0
M  V30 2423 C 236.587 -0.9155 1.72173 0
M  V30 2424 O 235.857 -1.64708 1.06058 0
M  V30 2425 H 234.437 0.198017 0.720277 0
M  V30 2426 H 237.099 1.16126 1.56527 0
M  V30 2427 H 236.195 0.736684 3.03281 0
M  V30 2428 N 236.496 -1.42363 0.676048 0
M  V30 2429 C 237.406 -2.346 -0.00153389 0
M  V30 2430 C 238.422 -1.5516 -0.787485 0
M  V30 2431 O 239.598 -1.87723 -0.729521 0
M  V30 2432 C 236.663 -3.33705 -0.940298 0
M  V30 2433 C 235.724 -4.29042 -0.148739 0
M  V30 2434 C 234.957 -5.23413 -1.04279 0
M  V30 2435 O 235.18 -5.22749 -2.28232 0
M  V30 2436 O 234.114 -5.99795 -0.502925 0
M  V30 2437 H 237.94 -2.94082 0.758268 0
M  V30 2438 H 235.525 -1.42888 0.436289 0
M  V30 2439 H 237.407 -3.94586 -1.47917 0
M  V30 2440 H 236.082 -2.76695 -1.67993 0
M  V30 2441 H 234.989 -3.71571 0.43427 0
M  V30 2442 H 236.322 -4.89097 0.551805 0
M  V30 2443 N 237.974 -0.419461 -1.51915 0
M  V30 2444 C 239.222 0.152637 -2.01523 0
M  V30 2445 C 239.543 1.44762 -1.30649 0
M  V30 2446 O 238.813 1.90997 -0.435535 0
M  V30 2447 H 237.393 0.0593966 -0.744635 0
M  V30 2448 H 240.055 -0.558073 -1.86739 0
M  V30 2449 H 239.151 0.341369 -3.10227 0
M  V30 2450 N 239.452 1.56882 -0.150215 0
M  V30 2451 C 240.384 2.14057 0.819286 0
M  V30 2452 C 241.397 1.09082 1.20851 0
M  V30 2453 O 242.586 1.36347 1.15203 0
M  V30 2454 C 239.686 2.65102 2.11127 0
M  V30 2455 C 238.859 3.94511 1.88891 0
M  V30 2456 C 237.918 4.30834 3.02107 0
M  V30 2457 O 236.944 4.99099 2.73659 0
M  V30 2458 N 238.146 3.90676 4.29363 0
M  V30 2459 H 240.911 2.97871 0.330618 0
M  V30 2460 H 238.472 1.61866 0.0332538 0
M  V30 2461 H 240.464 2.86411 2.85921 0
M  V30 2462 H 239.034 1.85994 2.51247 0
M  V30 2463 H 238.254 3.81795 0.981152 0
M  V30 2464 H 239.542 4.7907 1.71376 0
M  V30 2465 H 238.94 3.35677 4.55343 0
M  V30 2466 H 237.497 4.1703 5.00928 0
M  V30 2467 N 240.93 -0.123565 1.57115 0
M  V30 2468 C 242.176 -0.833386 1.84885 0
M  V30 2469 C 242.509 -1.79742 0.735292 0
M  V30 2470 O 241.784 -1.92764 -0.25925 0
M  V30 2471 C 242.067 -1.5873 3.23228 0
M  V30 2472 C 241.92 -0.643183 4.45178 0
M  V30 2473 C 243.239 -2.54453 3.59085 0
M  V30 2474 H 240.358 -0.301518 0.6725 0
M  V30 2475 H 243 -0.097778 1.89748 0
M  V30 2476 H 241.15 -2.21438 3.19214 0
M  V30 2477 H 242.822 -0.0253015 4.61293 0
M  V30 2478 H 241.065 0.0456139 4.33776 0
M  V30 2479 H 241.736 -1.20724 5.38637 0
M  V30 2480 H 244.212 -2.01853 3.63861 0
M  V30 2481 H 243.088 -3.04238 4.5687 0
M  V30 2482 H 243.349 -3.36906 2.86264 0
M  V30 2483 N 242.408 -1.52605 -0.393616 0
M  V30 2484 C 243.371 -1.76415 -1.46323 0
M  V30 2485 C 244.371 -0.634126 -1.47768 0
M  V30 2486 O 245.561 -0.902142 -1.4902 0
M  V30 2487 C 242.693 -1.8607 -2.85641 0
M  V30 2488 H 243.886 -2.71916 -1.26498 0
M  V30 2489 H 241.439 -1.43257 -0.625073 0
M  V30 2490 H 242.174 -0.925378 -3.10817 0
M  V30 2491 H 241.959 -2.68235 -2.85993 0
M  V30 2492 H 243.449 -2.06179 -3.63153 0
M  V30 2493 N 243.887 0.651787 -1.4349 0
M  V30 2494 C 245.127 1.42345 -1.46688 0
M  V30 2495 C 245.491 1.91793 -0.0891023 0
M  V30 2496 O 246.692 2.688 0.00423594 0
M  V30 2497 C 244.963 2.57221 -2.48137 0
M  V30 2498 S 246.522 3.45725 -2.70221 0
M  V30 2499 H 243.34 0.485878 -0.51908 0
M  V30 2500 H 245.942 0.756578 -1.80267 0
M  V30 2501 H 244.646 2.1917 -3.46976 0
M  V30 2502 H 244.177 3.28757 -2.16061 0
M  V30 2503 H 246.192 4.53996 -2.00255 0
M  V30 2504 N 245.365 1.30045 0.890287 0
M  V30 2505 C 246.295 1.18541 2.01172 0
M  V30 2506 C 247.276 0.0773356 1.69924 0
M  V30 2507 O 248.461 0.25845 1.92473 0
M  V30 2508 C 245.591 0.870941 3.36202 0
M  V30 2509 C 244.545 1.93637 3.81692 0
M  V30 2510 C 243.871 1.475 5.13953 0
M  V30 2511 C 245.171 3.34666 4.00994 0
M  V30 2512 H 246.865 2.12359 2.11054 0
M  V30 2513 H 244.411 1.02238 1.01407 0
M  V30 2514 H 246.364 0.777141 4.14172 0
M  V30 2515 H 245.088 -0.102926 3.26438 0
M  V30 2516 H 243.747 2.01972 3.05946 0
M  V30 2517 H 243.395 0.489551 5.00612 0
M  V30 2518 H 243.095 2.1876 5.4536 0
M  V30 2519 H 244.619 1.39489 5.94454 0
M  V30 2520 H 246.033 3.2912 4.69417 0
M  V30 2521 H 244.43 4.03966 4.43769 0
M  V30 2522 H 245.5 3.76949 3.05021 0
M  V30 2523 N 246.843 -1.10192 1.12674 0
M  V30 2524 C 248.09 -1.82205 0.883606 0
M  V30 2525 C 248.418 -1.8532 -0.590492 0
M  V30 2526 O 247.673 -1.31137 -1.45264 0
M  V30 2527 C 247.972 -3.28552 1.4067 0
M  V30 2528 C 247.638 -3.45582 2.89627 0
M  V30 2529 C 246.3 -3.49937 3.30299 0
M  V30 2530 C 248.652 -3.50768 3.85501 0
M  V30 2531 C 245.98 -3.57049 4.65546 0
M  V30 2532 C 248.332 -3.59414 5.20581 0
M  V30 2533 C 246.996 -3.62034 5.60792 0
M  V30 2534 H 246.266 -0.666735 0.323334 0
M  V30 2535 H 248.913 -1.29868 1.40736 0
M  V30 2536 H 247.218 -3.83473 0.80347 0
M  V30 2537 H 248.915 -3.82788 1.19475 0
M  V30 2538 H 245.505 -3.42871 2.57172 0
M  V30 2539 H 249.689 -3.46651 3.55171 0
M  V30 2540 H 244.945 -3.57361 4.96088 0
M  V30 2541 H 249.119 -3.62371 5.94693 0
M  V30 2542 H 246.746 -3.67298 6.6558 0
M  V30 2543 N 248.321 -0.919034 -1.28029 0
M  V30 2544 C 249.231 -0.416756 -2.30869 0
M  V30 2545 C 250.247 0.498235 -1.66714 0
M  V30 2546 O 251.423 0.383144 -1.97722 0
M  V30 2547 C 248.488 0.330274 -3.45123 0
M  V30 2548 C 247.549 -0.618578 -4.2482 0
M  V30 2549 C 246.782 0.0928959 -5.33619 0
M  V30 2550 O 247.005 1.31375 -5.55065 0
M  V30 2551 O 245.939 -0.574499 -5.99152 0
M  V30 2552 H 249.765 -1.27043 -2.75851 0
M  V30 2553 H 247.35 -0.684052 -1.3282 0
M  V30 2554 H 249.232 0.751972 -4.14636 0
M  V30 2555 H 247.907 1.1597 -3.02213 0
M  V30 2556 H 246.814 -1.08978 -3.57875 0
M  V30 2557 H 248.147 -1.41497 -4.71423 0
M  V30 2558 N 249.799 1.42003 -0.683588 0
M  V30 2559 C 251.076 1.95112 -0.138075 0
M  V30 2560 C 251.456 1.62359 1.34918 0
M  V30 2561 O 250.804 0.924311 2.08971 0
M  V30 2562 C 251.014 3.46505 -0.416581 0
M  V30 2563 C 252.362 4.23254 -0.337834 0
M  V30 2564 O 253.386 3.54468 -0.35082 0
M  V30 2565 O 252.245 5.45743 -0.287596 0
M  V30 2566 H 249.339 0.826961 -0.00797996 0
M  V30 2567 H 251.885 1.51784 -0.758924 0
M  V30 2568 H 250.657 3.63582 -1.4465 0
M  V30 2569 H 250.28 3.969 0.235839 0
M  V30 2570 N 251.277 0.427512 1.51691 0
M  V30 2571 C 252.523 -0.142439 2.02299 0
M  V30 2572 C 252.856 -1.43214 1.31162 0
M  V30 2573 O 252.131 -1.89833 0.423511 0
M  V30 2574 C 252.414 -0.371301 3.58181 0
M  V30 2575 C 252.267 0.936358 4.39946 0
M  V30 2576 C 253.586 -1.14542 4.24933 0
M  V30 2577 H 250.705 -0.0502937 0.735282 0
M  V30 2578 H 253.347 0.564584 1.81418 0
M  V30 2579 H 251.497 -0.973559 3.76104 0
M  V30 2580 H 253.169 1.57184 4.33694 0
M  V30 2581 H 251.412 1.5432 4.05423 0
M  V30 2582 H 252.083 0.730388 5.47147 0
M  V30 2583 H 254.559 -0.635362 4.11221 0
M  V30 2584 H 253.435 -1.27431 5.33903 0
M  V30 2585 H 253.696 -2.17093 3.85127 0
M  V30 2586 N 252.755 -1.56801 0.158532 0
M  V30 2587 C 254.001 -1.96781 -0.490405 0
M  V30 2588 C 254.334 -1.04397 -1.63753 0
M  V30 2589 O 253.609 -0.0885805 -1.94298 0
M  V30 2590 C 253.892 -3.4635 -0.985594 0
M  V30 2591 C 253.745 -4.49512 0.160824 0
M  V30 2592 C 255.064 -3.98697 -1.86355 0
M  V30 2593 H 252.183 -0.715482 -0.176788 0
M  V30 2594 H 254.825 -1.88451 0.242088 0
M  V30 2595 H 252.975 -3.53579 -1.60978 0
M  V30 2596 H 254.647 -4.54353 0.797537 0
M  V30 2597 H 252.89 -4.26013 0.818256 0
M  V30 2598 H 253.561 -5.51531 -0.227569 0
M  V30 2599 H 256.037 -3.94019 -1.33746 0
M  V30 2600 H 254.913 -5.03792 -2.17909 0
M  V30 2601 H 255.174 -3.41744 -2.8047 0
M  V30 2602 N 254.233 0.115231 -1.57178 0
M  V30 2603 C 255.644 0.67197 -1.74188 0
M  V30 2604 C 255.995 1.80125 -0.777777 0
M  V30 2605 O 255.12 2.16346 0.0484376 0
M  V30 2606 C 255.715 1.22573 -3.1585 0
M  V30 2607 C 254.274 1.72872 -3.34353 0
M  V30 2608 C 253.421 0.629972 -2.70049 0
M  V30 2609 H 256.372 -0.110712 -1.58313 0
M  V30 2610 H 256.393 2.09535 -3.17609 0
M  V30 2611 H 255.905 0.403598 -3.85996 0
M  V30 2612 H 254.006 2.5755 -2.69256 0
M  V30 2613 H 254.119 1.83557 -4.42542 0
M  V30 2614 H 252.483 1.0645 -2.31388 0
M  V30 2615 H 253.266 -0.181241 -3.42821 0
M  V30 2616 N 255.711 1.52812 0.385517 0
M  V30 2617 C 256.644 1.72592 1.49289 0
M  V30 2618 C 257.622 0.573819 1.52138 0
M  V30 2619 O 258.806 0.80404 1.70492 0
M  V30 2620 C 255.933 1.78669 2.87741 0
M  V30 2621 C 254.979 3.00455 3.02703 0
M  V30 2622 S 255.812 4.60366 2.73538 0
M  V30 2623 C 256.968 4.69263 4.14177 0
M  V30 2624 H 257.201 2.66248 1.32285 0
M  V30 2625 H 254.734 1.43148 0.578611 0
M  V30 2626 H 256.692 1.82855 3.67524 0
M  V30 2627 H 255.353 0.861 3.02069 0
M  V30 2628 H 254.546 3.01258 4.04054 0
M  V30 2629 H 254.148 2.94278 2.30817 0
M  V30 2630 H 256.44 4.48092 5.08153 0
M  V30 2631 H 257.383 5.71276 4.18388 0
M  V30 2632 H 257.791 3.98072 4.00249 0
M  V30 2633 N 257.189 -0.644168 1.43834 0
M  V30 2634 C 258.137 -1.77793 1.49974 0
M  V30 2635 C 259.131 -1.65253 0.372536 0
M  V30 2636 O 260.337 -1.7149 0.546924 0
M  V30 2637 H 256.712 -0.58675 0.47035 0
M  V30 2638 H 258.683 -1.69736 2.45423 0
M  V30 2639 C 257.432 -3.16087 1.4486 0
M  V30 2640 H 256.755 -3.26378 2.30905 0
M  V30 2641 H 258.195 -3.95349 1.53217 0
M  V30 2642 C 256.654 -3.36484 0.167463 0
M  V30 2643 O 257.184 -3.94298 -0.767609 0
M  V30 2644 N 255.39 -2.90504 0.0747556 0
M  V30 2645 H 254.937 -2.4364 0.836507 0
M  V30 2646 H 254.895 -3.04527 -0.781714 0
M  V30 2647 N 258.668 -1.30515 -0.883378 0
M  V30 2648 C 259.898 -1.22182 -1.66599 0
M  V30 2649 C 260.306 0.217507 -1.87946 0
M  V30 2650 O 259.649 1.1554 -1.42815 0
M  V30 2651 C 259.711 -1.88146 -3.06335 0
M  V30 2652 C 259.375 -3.37476 -3.08154 0
M  V30 2653 C 260.372 -4.33443 -2.87094 0
M  V30 2654 C 258.057 -3.7895 -3.29701 0
M  V30 2655 C 260.051 -5.68858 -2.8754 0
M  V30 2656 C 257.738 -5.14482 -3.29776 0
M  V30 2657 C 258.736 -6.09246 -3.0872 0
M  V30 2658 O 258.424 -7.42302 -3.08615 0
M  V30 2659 H 258.156 -0.423898 -0.52658 0
M  V30 2660 H 260.71 -1.72703 -1.11188 0
M  V30 2661 H 258.94 -1.32157 -3.63416 0
M  V30 2662 H 260.629 -1.7391 -3.66756 0
M  V30 2663 H 261.395 -4.02733 -2.70243 0
M  V30 2664 H 257.274 -3.05631 -3.45124 0
M  V30 2665 H 260.818 -6.428 -2.71024 0
M  V30 2666 H 256.715 -5.44832 -3.46163 0
M  V30 2667 H 257.483 -7.5131 -3.24769 0
M  V30 2668 N 260.146 1.09593 -1.13257 0
M  V30 2669 C 261.079 2.15451 -0.752061 0
M  V30 2670 C 262.057 1.60493 0.260913 0
M  V30 2671 O 263.241 1.8788 0.152819 0
M  V30 2672 C 260.368 3.38506 -0.114594 0
M  V30 2673 C 259.414 4.12183 -1.09579 0
M  V30 2674 S 260.247 4.6661 -2.62745 0
M  V30 2675 C 261.403 5.92966 -2.00354 0
M  V30 2676 H 261.636 2.47395 -1.64872 0
M  V30 2677 H 259.169 1.21515 -0.952545 0
M  V30 2678 H 261.127 4.09757 0.246808 0
M  V30 2679 H 259.788 3.04784 0.759309 0
M  V30 2680 H 258.981 5.00445 -0.597545 0
M  V30 2681 H 258.583 3.46785 -1.40057 0
M  V30 2682 H 260.875 6.63882 -1.35156 0
M  V30 2683 H 261.818 6.47467 -2.86691 0
M  V30 2684 H 262.226 5.45405 -1.4558 0
M  V30 2685 N 261.624 0.925811 1.2754 0
M  V30 2686 C 262.87 0.566092 1.94739 0
M  V30 2687 C 263.203 -0.890057 1.72603 0
M  V30 2688 O 262.478 -1.63467 1.05399 0
M  V30 2689 C 262.761 0.89054 3.48915 0
M  V30 2690 C 262.614 2.4003 3.80402 0
M  V30 2691 C 263.933 0.395101 4.38323 0
M  V30 2692 H 261.052 0.20714 0.707292 0
M  V30 2693 H 263.694 1.15725 1.50691 0
M  V30 2694 H 261.844 0.387452 3.86563 0
M  V30 2695 H 263.516 2.97494 3.52555 0
M  V30 2696 H 261.759 2.85028 3.2702 0
M  V30 2697 H 262.43 2.57785 4.8811 0
M  V30 2698 H 264.906 0.826241 4.07814 0
M  V30 2699 H 263.782 0.651086 5.45025 0
M  V30 2700 H 264.043 -0.704798 4.36446 0
M  V30 2701 N 263.102 -1.41638 0.69111 0
M  V30 2702 C 264.332 -2.0533 0.228758 0
M  V30 2703 C 264.74 -1.52089 -1.12541 0
M  V30 2704 O 264.083 -0.662145 -1.71351 0
M  V30 2705 C 264.145 -3.59349 0.10407 0
M  V30 2706 C 263.809 -4.35362 1.38956 0
M  V30 2707 C 264.806 -4.64942 2.32648 0
M  V30 2708 C 262.491 -4.74714 1.64169 0
M  V30 2709 C 264.485 -5.32828 3.49818 0
M  V30 2710 C 262.172 -5.42338 2.81625 0
M  V30 2711 C 263.17 -5.71322 3.74273 0
M  V30 2712 O 262.858 -6.37554 4.89673 0
M  V30 2713 H 262.59 -0.667796 0.104997 0
M  V30 2714 H 265.144 -1.82477 0.942938 0
M  V30 2715 H 263.374 -3.80924 -0.665839 0
M  V30 2716 H 265.063 -4.04633 -0.320519 0
M  V30 2717 H 265.829 -4.35025 2.14425 0
M  V30 2718 H 261.708 -4.51538 0.929202 0
M  V30 2719 H 265.252 -5.55368 4.22152 0
M  V30 2720 H 261.149 -5.71673 2.99768 0
M  V30 2721 H 261.917 -6.56049 4.8943 0
M  V30 2722 N 264.58 -0.43555 -1.51462 0
M  V30 2723 C 265.827 0.131514 -2.02072 0
M  V30 2724 C 266.155 1.42868 -1.31981 0
M  V30 2725 O 265.41 1.91076 -0.422883 0
M  V30 2726 C 265.709 0.39942 -3.55161 0
M  V30 2727 C 265.375 -0.81172 -4.43533 0
M  V30 2728 C 264.037 -1.14387 -4.67407 0
M  V30 2729 C 266.389 -1.61976 -4.95392 0
M  V30 2730 C 263.717 -2.28477 -5.40384 0
M  V30 2731 C 266.069 -2.75164 -5.6962 0
M  V30 2732 C 264.733 -3.08835 -5.91758 0
M  V30 2733 H 264.003 0.0481244 -0.739436 0
M  V30 2734 H 266.65 -0.58238 -1.8243 0
M  V30 2735 H 264.955 1.19519 -3.73125 0
M  V30 2736 H 266.652 0.85157 -3.91854 0
M  V30 2737 H 263.242 -0.542898 -4.25148 0
M  V30 2738 H 267.426 -1.37637 -4.76833 0
M  V30 2739 H 262.682 -2.5488 -5.55739 0
M  V30 2740 H 266.856 -3.38147 -6.08793 0
M  V30 2741 H 264.483 -3.97353 -6.48086 0
M  V30 2742 N 266.058 1.56714 -0.166846 0
M  V30 2743 C 267.006 2.19056 0.782123 0
M  V30 2744 C 268 1.15328 1.24079 0
M  V30 2745 O 269.206 1.33537 1.20697 0
M  V30 2746 H 265.581 0.70167 0.270486 0
M  V30 2747 H 267.552 2.97494 0.232322 0
M  V30 2748 C 266.301 2.84206 2.00306 0
M  V30 2749 H 265.624 3.63748 1.65914 0
M  V30 2750 H 267.064 3.31302 2.64604 0
M  V30 2751 C 265.523 1.83744 2.82382 0
M  V30 2752 O 266.053 1.32014 3.79388 0
M  V30 2753 N 264.259 1.52601 2.47308 0
M  V30 2754 H 263.806 1.9486 1.68485 0
M  V30 2755 H 263.764 0.856351 3.02513 0
M  V30 2756 N 267.536 -0.106894 1.57237 0
M  V30 2757 C 268.783 -0.812526 1.85484 0
M  V30 2758 C 269.111 -1.79304 0.753687 0
M  V30 2759 O 268.366 -1.94047 -0.253853 0
M  V30 2760 C 268.665 -1.58628 3.20268 0
M  V30 2761 C 268.331 -0.748967 4.44636 0
M  V30 2762 C 266.993 -0.518104 4.78403 0
M  V30 2763 C 269.345 -0.166122 5.20935 0
M  V30 2764 C 266.673 0.305659 5.85903 0
M  V30 2765 C 269.025 0.644899 6.29304 0
M  V30 2766 C 267.689 0.885965 6.61594 0
M  V30 2767 H 266.959 -0.297324 0.678734 0
M  V30 2768 H 269.606 -0.0744332 1.91355 0
M  V30 2769 H 267.911 -2.39562 3.10028 0
M  V30 2770 H 269.608 -2.13643 3.39349 0
M  V30 2771 H 266.198 -0.939006 4.18187 0
M  V30 2772 H 270.382 -0.33167 4.95191 0
M  V30 2773 H 265.638 0.501528 6.0934 0
M  V30 2774 H 269.812 1.10345 6.87602 0
M  V30 2775 H 267.439 1.52609 7.44725 0
M  V30 2776 N 269.014 -1.53014 -0.377408 0
M  V30 2777 C 270.261 -1.68623 -1.12128 0
M  V30 2778 C 270.589 -0.431997 -1.89642 0
M  V30 2779 O 269.844 0.585855 -1.86725 0
M  V30 2780 C 270.143 -2.87982 -2.11663 0
M  V30 2781 C 269.809 -4.24964 -1.50719 0
M  V30 2782 C 268.471 -4.62217 -1.33825 0
M  V30 2783 C 270.823 -5.10199 -1.06519 0
M  V30 2784 C 268.151 -5.82352 -0.712963 0
M  V30 2785 C 270.503 -6.30969 -0.453955 0
M  V30 2786 C 269.167 -6.66944 -0.272411 0
M  V30 2787 H 268.437 -0.617034 -0.410305 0
M  V30 2788 H 271.084 -1.8718 -0.404484 0
M  V30 2789 H 269.389 -2.63889 -2.89603 0
M  V30 2790 H 271.086 -2.97253 -2.6915 0
M  V30 2791 H 267.676 -3.95626 -1.64858 0
M  V30 2792 H 271.86 -4.81978 -1.18368 0
M  V30 2793 H 267.116 -6.08824 -0.560611 0
M  V30 2794 H 271.29 -6.96324 -0.103217 0
M  V30 2795 H 268.917 -7.59898 0.214181 0
M  V30 2796 N 270.492 0.636531 -1.44174 0
M  V30 2797 C 271.455 1.73063 -1.50273 0
M  V30 2798 C 272.455 1.56113 -0.385397 0
M  V30 2799 O 273.645 1.61707 -0.64781 0
M  V30 2800 C 270.777 3.12096 -1.37145 0
M  V30 2801 H 271.97 1.69031 -2.47727 0
M  V30 2802 H 269.523 0.849706 -1.31186 0
M  V30 2803 H 270.258 3.21728 -0.407636 0
M  V30 2804 H 270.043 3.25805 -2.18159 0
M  V30 2805 H 271.533 3.91846 -1.44382 0
M  V30 2806 N 271.97 1.30982 0.876444 0
M  V30 2807 C 273.21 1.21589 1.64303 0
M  V30 2808 C 273.574 -0.223962 1.90689 0
M  V30 2809 O 274.775 -0.44128 2.65153 0
M  V30 2810 C 273.046 2.03007 2.94148 0
M  V30 2811 S 274.605 2.10405 3.85065 0
M  V30 2812 H 271.423 0.433161 0.563819 0
M  V30 2813 H 274.025 1.65565 1.03964 0
M  V30 2814 H 272.729 3.06719 2.72675 0
M  V30 2815 H 272.26 1.59725 3.59515 0
M  V30 2816 H 274.275 1.23765 4.80517 0
M  V30 2817 N 273.449 -1.08991 1.13837 0
M  V30 2818 C 274.695 -1.81526 0.90422 0
M  V30 2819 C 275.028 -1.85706 -0.568066 0
M  V30 2820 O 274.303 -1.32855 -1.42056 0
M  V30 2821 C 274.586 -3.27447 1.49835 0
M  V30 2822 C 274.439 -3.31512 3.04006 0
M  V30 2823 C 275.758 -4.24256 1.17025 0
M  V30 2824 H 272.877 -0.659029 0.329923 0
M  V30 2825 H 275.519 -1.27644 1.40737 0
M  V30 2826 H 273.669 -3.73462 1.07044 0
M  V30 2827 H 275.341 -2.93867 3.55584 0
M  V30 2828 H 273.584 -2.70963 3.38765 0
M  V30 2829 H 274.255 -4.34329 3.40679 0
M  V30 2830 H 276.731 -3.86549 1.54009 0
M  V30 2831 H 275.607 -5.24684 1.61237 0
M  V30 2832 H 275.868 -4.42019 0.0846274 0
M  V30 2833 N 274.927 -0.932562 -1.27047 0
M  V30 2834 C 275.857 -0.452902 -2.29066 0
M  V30 2835 C 276.838 0.489338 -1.62909 0
M  V30 2836 O 278.023 0.393046 -1.90181 0
M  V30 2837 C 275.153 0.290698 -3.46081 0
M  V30 2838 C 274.107 -0.564168 -4.24265 0
M  V30 2839 C 273.433 0.308886 -5.33807 0
M  V30 2840 C 274.733 -1.83112 -4.89149 0
M  V30 2841 H 276.427 -1.30552 -2.69437 0
M  V30 2842 H 273.973 -0.629201 -1.29526 0
M  V30 2843 H 275.926 0.637233 -4.16554 0
M  V30 2844 H 274.65 1.17738 -3.0464 0
M  V30 2845 H 273.309 -0.893477 -3.55545 0
M  V30 2846 H 272.957 1.19467 -4.88607 0
M  V30 2847 H 272.657 -0.259633 -5.87026 0
M  V30 2848 H 274.181 0.650884 -6.07121 0
M  V30 2849 H 275.595 -1.55236 -5.51883 0
M  V30 2850 H 273.992 -2.34353 -5.52448 0
M  V30 2851 H 275.062 -2.54772 -4.12576 0
M  V30 2852 N 276.405 1.4127 -0.698611 0
M  V30 2853 C 277.651 2.01478 -0.231207 0
M  V30 2854 C 277.984 1.55215 1.16713 0
M  V30 2855 O 277.259 0.764672 1.78838 0
M  V30 2856 C 277.542 3.58912 -0.292281 0
M  V30 2857 C 277.395 4.15293 -1.72778 0
M  V30 2858 C 278.714 4.38736 0.346194 0
M  V30 2859 H 275.833 0.732025 -0.0854878 0
M  V30 2860 H 278.475 1.67977 -0.887906 0
M  V30 2861 H 276.625 3.87582 0.26686 0
M  V30 2862 H 278.297 3.97486 -2.341 0
M  V30 2863 H 276.54 3.7022 -2.26096 0
M  V30 2864 H 277.211 5.24452 -1.72202 0
M  V30 2865 H 279.687 4.15897 -0.130035 0
M  V30 2866 H 278.563 5.48221 0.272932 0
M  V30 2867 H 278.824 4.18425 1.42734 0
M  V30 2868 N 277.883 0.443576 1.51229 0
M  V30 2869 C 279.294 -0.0180867 1.86691 0
M  V30 2870 C 279.645 -1.41384 1.36033 0
M  V30 2871 O 278.77 -2.04291 0.713722 0
M  V30 2872 C 279.365 -0.039597 3.38777 0
M  V30 2873 C 277.924 -0.445692 3.73752 0
M  V30 2874 C 277.071 0.357584 2.74985 0
M  V30 2875 H 280.022 0.659138 1.44364 0
M  V30 2876 H 280.043 -0.847761 3.70936 0
M  V30 2877 H 279.555 0.976382 3.75617 0
M  V30 2878 H 277.656 -1.46704 3.42503 0
M  V30 2879 H 277.769 -0.166155 4.78812 0
M  V30 2880 H 276.133 -0.184973 2.54027 0
M  V30 2881 H 276.916 1.37256 3.14668 0
M  V30 2882 N 279.361 -1.56624 0.175154 0
M  V30 2883 C 280.291 -2.21155 -0.749195 0
M  V30 2884 C 281.272 -1.16836 -1.23626 0
M  V30 2885 O 282.457 -1.45277 -1.28873 0
M  V30 2886 C 279.587 -2.8553 -1.97711 0
M  V30 2887 C 278.541 -3.95921 -1.62575 0
M  V30 2888 C 277.867 -4.47365 -2.92864 0
M  V30 2889 C 279.167 -5.15323 -0.850838 0
M  V30 2890 H 280.861 -2.98653 -0.211295 0
M  V30 2891 H 278.407 -1.43651 -0.100188 0
M  V30 2892 H 280.36 -3.2935 -2.62881 0
M  V30 2893 H 279.084 -2.05406 -2.53921 0
M  V30 2894 H 277.743 -3.52762 -0.997719 0
M  V30 2895 H 277.391 -3.64027 -3.47122 0
M  V30 2896 H 277.091 -5.21839 -2.70106 0
M  V30 2897 H 278.615 -4.93873 -3.59056 0
M  V30 2898 H 280.029 -5.55812 -1.40521 0
M  V30 2899 H 278.426 -5.95739 -0.722154 0
M  V30 2900 H 279.496 -4.84661 0.152082 0
M  V30 2901 N 280.839 0.0985539 -1.57292 0
M  V30 2902 C 281.769 1.12064 -2.04851 0
M  V30 2903 C 282.75 1.41981 -0.936767 0
M  V30 2904 O 283.935 1.52071 -1.20781 0
M  V30 2905 C 281.065 2.44144 -2.47004 0
M  V30 2906 C 280.019 2.28643 -3.6181 0
M  V30 2907 C 279.345 3.65869 -3.89929 0
M  V30 2908 C 280.645 1.72986 -4.92822 0
M  V30 2909 H 282.339 0.724979 -2.9049 0
M  V30 2910 H 279.885 0.34729 -1.39749 0
M  V30 2911 H 281.838 3.15914 -2.78884 0
M  V30 2912 H 280.562 2.85639 -1.5836 0
M  V30 2913 H 279.221 1.59318 -3.30172 0
M  V30 2914 H 278.869 4.04885 -2.98458 0
M  V30 2915 H 278.569 3.56344 -4.67218 0
M  V30 2916 H 280.093 4.39112 -4.2428 0
M  V30 2917 H 281.507 2.34593 -5.23105 0
M  V30 2918 H 279.904 1.74229 -5.74251 0
M  V30 2919 H 280.974 0.689007 -4.7998 0
M  V30 2920 N 282.317 1.53212 0.369288 0
M  V30 2921 C 283.247 1.82365 1.45826 0
M  V30 2922 C 284.228 0.676907 1.56051 0
M  V30 2923 O 285.413 0.926401 1.70679 0
M  V30 2924 C 282.543 2.01023 2.83208 0
M  V30 2925 C 281.497 3.1678 2.8781 0
M  V30 2926 C 280.823 3.20724 4.27832 0
M  V30 2927 C 282.123 4.55447 2.55667 0
M  V30 2928 H 283.817 2.73559 1.21678 0
M  V30 2929 H 281.363 1.3163 0.583911 0
M  V30 2930 H 283.316 2.20001 3.59413 0
M  V30 2931 H 282.04 1.06536 3.08736 0
M  V30 2932 H 280.699 2.97616 2.14056 0
M  V30 2933 H 280.347 2.23882 4.50429 0
M  V30 2934 H 280.047 3.98496 4.31827 0
M  V30 2935 H 281.571 3.41881 5.05915 0
M  V30 2936 H 282.985 4.74611 3.21586 0
M  V30 2937 H 281.382 5.35432 2.70984 0
M  V30 2938 H 282.452 4.60812 1.5093 0
M  V30 2939 N 283.795 -0.628877 1.44509 0
M  V30 2940 C 284.728 -1.75367 1.46019 0
M  V30 2941 C 285.706 -1.59444 0.318787 0
M  V30 2942 O 286.89 -1.81297 0.516099 0
M  V30 2943 C 284.017 -3.12965 1.29501 0
M  V30 2944 C 283.063 -3.47532 2.47233 0
M  V30 2945 S 283.896 -3.44758 4.09758 0
M  V30 2946 C 285.052 -4.84973 3.95667 0
M  V30 2947 H 285.285 -1.7382 2.41193 0
M  V30 2948 H 282.818 -0.803686 1.31834 0
M  V30 2949 H 284.776 -3.92367 1.20658 0
M  V30 2950 H 283.437 -3.12049 0.358341 0
M  V30 2951 H 282.63 -4.47664 2.31544 0
M  V30 2952 H 282.232 -2.75598 2.52828 0
M  V30 2953 H 284.524 -5.74255 3.59496 0
M  V30 2954 H 285.467 -5.05716 4.95638 0
M  V30 2955 H 285.875 -4.59653 3.27688 0
M  V30 2956 N 285.273 -1.31445 -0.869486 0
M  V30 2957 C 286.203 -1.21727 -1.99261 0
M  V30 2958 C 287.184 -0.104359 -1.6978 0
M  V30 2959 O 288.369 -0.289038 -1.92037 0
M  V30 2960 C 285.499 -0.924317 -3.34774 0
M  V30 2961 C 284.453 -1.99685 -3.78563 0
M  V30 2962 C 283.779 -1.55658 -5.11541 0
M  V30 2963 C 285.079 -3.41003 -3.95619 0
M  V30 2964 H 286.773 -2.1569 -2.07649 0
M  V30 2965 H 284.319 -1.03839 -0.997675 0
M  V30 2966 H 286.272 -0.842934 -4.12883 0
M  V30 2967 H 284.996 0.0509793 -3.2656 0
M  V30 2968 H 283.655 -2.06813 -3.02694 0
M  V30 2969 H 283.303 -0.569132 -4.9977 0
M  V30 2970 H 283.003 -2.27409 -5.41811 0
M  V30 2971 H 284.527 -1.48928 -5.92159 0
M  V30 2972 H 285.941 -3.36547 -4.64122 0
M  V30 2973 H 284.338 -4.10975 -4.37286 0
M  V30 2974 H 285.408 -3.81754 -2.98985 0
M  V30 2975 N 286.751 1.08385 -1.14413 0
M  V30 2976 C 287.999 1.80419 -0.910679 0
M  V30 2977 C 288.32 1.86658 0.564243 0
M  V30 2978 O 287.59 1.35985 1.41014 0
M  V30 2979 H 286.17 0.668204 -0.333934 0
M  V30 2980 H 288.832 1.31037 -1.44275 0
M  V30 2981 H 287.928 2.83238 -1.31082 0
M  V30 2982 N 288.23 0.939286 1.26551 0
M  V30 2983 C 289.476 0.586715 1.94128 0
M  V30 2984 C 289.809 -0.8717 1.73537 0
M  V30 2985 O 289.084 -1.62339 1.07127 0
M  V30 2986 C 289.367 0.927497 3.4795 0
M  V30 2987 C 289.22 2.44052 3.77834 0
M  V30 2988 C 290.539 0.441569 4.37879 0
M  V30 2989 H 287.658 0.21463 0.705055 0
M  V30 2990 H 290.3 1.17316 1.49455 0
M  V30 2991 H 288.45 0.428431 3.8613 0
M  V30 2992 H 290.122 3.01216 3.4938 0
M  V30 2993 H 288.365 2.8848 3.23978 0
M  V30 2994 H 289.036 2.62947 4.85348 0
M  V30 2995 H 291.512 0.869448 4.06915 0
M  V30 2996 H 290.388 0.708856 5.44304 0
M  V30 2997 H 290.649 -0.658467 4.37169 0
M  V30 2998 N 289.708 -1.40897 0.706093 0
M  V30 2999 C 290.938 -2.05075 0.250523 0
M  V30 3000 C 291.346 -1.53275 -1.10921 0
M  V30 3001 O 290.689 -0.680281 -1.7064 0
M  V30 3002 C 290.751 -3.59219 0.142178 0
M  V30 3003 C 290.415 -4.33864 1.43566 0
M  V30 3004 C 291.412 -4.62448 2.37566 0
M  V30 3005 C 289.097 -4.72946 1.69195 0
M  V30 3006 C 291.091 -5.29088 3.5545 0
M  V30 3007 C 288.778 -5.3932 2.87362 0
M  V30 3008 C 289.776 -5.6732 3.80312 0
M  V30 3009 O 289.464 -6.32325 4.96408 0
M  V30 3010 H 289.196 -0.666645 0.112074 0
M  V30 3011 H 291.75 -1.81467 0.962239 0
M  V30 3012 H 289.98 -3.81609 -0.6254 0
M  V30 3013 H 291.669 -4.0495 -0.277584 0
M  V30 3014 H 292.435 -4.32727 2.19027 0
M  V30 3015 H 288.314 -4.50527 0.977042 0
M  V30 3016 H 291.858 -5.50859 4.28018 0
M  V30 3017 H 287.755 -5.68461 3.05814 0
M  V30 3018 H 288.523 -6.50821 4.9636 0
M  V30 3019 N 291.186 -0.45159 -1.50991 0
M  V30 3020 C 292.116 0.342898 -2.30969 0
M  V30 3021 C 293.097 1.00815 -1.37005 0
M  V30 3022 O 294.282 1.00907 -1.65926 0
M  V30 3023 C 291.412 1.43637 -3.16205 0
M  V30 3024 C 290.366 0.893818 -4.18563 0
M  V30 3025 C 289.692 2.08411 -4.92411 0
M  V30 3026 C 290.992 -0.0815568 -5.22236 0
M  V30 3027 H 292.686 -0.324556 -2.97636 0
M  V30 3028 H 290.232 -0.157531 -1.43136 0
M  V30 3029 H 292.185 1.9995 -3.70942 0
M  V30 3030 H 290.909 2.13232 -2.47386 0
M  V30 3031 H 289.568 0.352798 -3.64898 0
M  V30 3032 H 289.216 2.76658 -4.20082 0
M  V30 3033 H 288.916 1.72741 -5.61636 0
M  V30 3034 H 290.44 2.65251 -5.49976 0
M  V30 3035 H 291.854 0.391742 -5.7196 0
M  V30 3036 H 290.251 -0.351551 -5.99069 0
M  V30 3037 H 291.321 -1.01374 -4.74185 0
M  V30 3038 N 292.664 1.56529 -0.183458 0
M  V30 3039 C 294.08 1.58664 0.172554 0
M  V30 3040 C 294.28 1.19925 1.61926 0
M  V30 3041 O 293.336 0.916534 2.35278 0
M  V30 3042 C 294.649 3.00463 -0.119262 0
M  V30 3043 C 296.197 3.12945 -0.0584396 0
M  V30 3044 C 296.672 4.56857 -0.323408 0
M  V30 3045 N 298.163 4.62403 -0.271612 0
M  V30 3046 C 298.898 5.71626 -0.450639 0
M  V30 3047 N 298.394 6.89362 -0.689384 0
M  V30 3048 N 300.187 5.60775 -0.385701 0
M  V30 3049 H 292.338 1.79994 -1.12765 0
M  V30 3050 H 294.601 0.834808 -0.449222 0
M  V30 3051 H 294.307 3.33326 -1.12192 0
M  V30 3052 H 294.181 3.72659 0.583544 0
M  V30 3053 H 296.568 2.79902 0.934805 0
M  V30 3054 H 296.649 2.4316 -0.794144 0
M  V30 3055 H 296.293 4.9061 -1.31392 0
M  V30 3056 H 296.223 5.24816 0.43305 0
M  V30 3057 H 298.714 3.77785 -0.0932256 0
M  V30 3058 H 299.027 7.68489 -0.815113 0
M  V30 3059 H 297.372 6.91196 -0.726142 0
M  V30 3060 H 300.563 4.67674 -0.199687 0
M  V30 3061 H 300.736 6.4584 -0.528646 0
M  V30 3062 N 294.142 -0.090211 1.57342 0
M  V30 3063 C 295.391 -0.791531 1.8552 0
M  V30 3064 C 295.704 -1.79659 0.773441 0
M  V30 3065 O 296.91 -2.54616 0.942497 0
M  V30 3066 C 295.366 -1.45856 3.2902 0
M  V30 3067 C 294.974 -0.493017 4.45279 0
M  V30 3068 C 296.718 -2.14332 3.66418 0
M  V30 3069 C 294.625 -1.16491 5.79814 0
M  V30 3070 H 293.555 -0.299356 0.692027 0
M  V30 3071 H 296.206 -0.0445343 1.83446 0
M  V30 3072 H 294.588 -2.25318 3.2565 0
M  V30 3073 H 295.762 0.270464 4.60006 0
M  V30 3074 H 294.077 0.0863061 4.16311 0
M  V30 3075 H 296.674 -2.65344 4.64216 0
M  V30 3076 H 297.017 -2.93447 2.95287 0
M  V30 3077 H 297.55 -1.41724 3.71698 0
M  V30 3078 H 294.289 -0.41447 6.54188 0
M  V30 3079 H 293.809 -1.8997 5.68921 0
M  V30 3080 H 295.488 -1.69001 6.24538 0
M  V30 3081 N 295.62 -1.53406 -0.361157 0
M  V30 3082 C 296.867 -1.69802 -1.10333 0
M  V30 3083 C 297.195 -0.452087 -1.89173 0
M  V30 3084 O 296.45 0.566017 -1.87336 0
M  V30 3085 C 296.749 -2.90211 -2.08596 0
M  V30 3086 C 296.415 -4.26539 -1.46203 0
M  V30 3087 C 295.077 -4.6361 -1.28915 0
M  V30 3088 C 297.429 -5.113 -1.01101 0
M  V30 3089 C 294.757 -5.83075 -0.651157 0
M  V30 3090 C 297.109 -6.31415 -0.387007 0
M  V30 3091 C 295.773 -6.67195 -0.201657 0
M  V30 3092 H 295.043 -0.621351 -0.403737 0
M  V30 3093 H 297.69 -1.87598 -0.384609 0
M  V30 3094 H 295.995 -2.66946 -2.86788 0
M  V30 3095 H 297.692 -3.00091 -2.65982 0
M  V30 3096 H 294.282 -3.97352 -1.60653 0
M  V30 3097 H 298.466 -4.83206 -1.13249 0
M  V30 3098 H 293.722 -6.09385 -0.496006 0
M  V30 3099 H 297.896 -6.96394 -0.0293563 0
M  V30 3100 H 295.523 -7.59628 0.294766 0
M  V30 3101 N 297.098 0.621204 -1.44841 0
M  V30 3102 C 298.028 1.74366 -1.55303 0
M  V30 3103 C 299.009 1.65199 -0.405385 0
M  V30 3104 O 300.194 1.83807 -0.626787 0
M  V30 3105 C 297.324 3.12931 -1.50637 0
M  V30 3106 C 296.278 3.36896 -2.63979 0
M  V30 3107 C 295.604 4.75594 -2.44366 0
M  V30 3108 C 296.904 3.28483 -4.06074 0
M  V30 3109 H 298.598 1.65867 -2.49256 0
M  V30 3110 H 296.144 0.796558 -1.19962 0
M  V30 3111 H 298.097 3.9124 -1.56555 0
M  V30 3112 H 296.821 3.22237 -0.532057 0
M  V30 3113 H 295.48 2.60972 -2.57467 0
M  V30 3114 H 295.128 4.81616 -1.45105 0
M  V30 3115 H 294.828 4.92586 -3.20364 0
M  V30 3116 H 296.352 5.5612 -2.52117 0
M  V30 3117 H 297.766 3.96684 -4.13902 0
M  V30 3118 H 296.163 3.57008 -4.82354 0
M  V30 3119 H 297.233 2.26133 -4.28943 0
M  V30 3120 N 298.576 1.31904 0.862503 0
M  V30 3121 C 299.539 1.20131 1.95195 0
M  V30 3122 C 300.539 0.126409 1.60302 0
M  V30 3123 O 301.729 0.376234 1.70089 0
M  V30 3124 C 298.861 0.845691 3.30244 0
M  V30 3125 H 300.054 2.16943 2.07064 0
M  V30 3126 H 297.607 1.15622 1.05172 0
M  V30 3127 H 298.342 -0.120957 3.24074 0
M  V30 3128 H 298.127 1.62276 3.56944 0
M  V30 3129 H 299.617 0.787418 4.10109 0
M  V30 3130 N 300.054 -1.07777 1.14986 0
M  V30 3131 C 301.017 -2.13041 0.845358 0
M  V30 3132 C 302.017 -1.60071 -0.152931 0
M  V30 3133 O 303.207 -1.74033 0.0761879 0
M  V30 3134 C 300.339 -3.39896 0.261383 0
M  V30 3135 H 301.532 -2.41485 1.77834 0
M  V30 3136 H 299.085 -1.23595 0.956757 0
M  V30 3137 H 299.82 -3.17091 -0.68 0
M  V30 3138 H 299.605 -3.79642 0.980514 0
M  V30 3139 H 301.095 -4.17548 0.0657687 0
M  V30 3140 N 301.532 -0.945985 -1.26051 0
M  V30 3141 C 302.948 -0.649045 -1.45807 0
M  V30 3142 C 303.148 0.796158 -1.85104 0
M  V30 3143 O 302.204 1.57233 -1.97571 0
M  V30 3144 C 303.517 -1.61458 -2.53677 0
M  V30 3145 C 305.065 -1.62481 -2.67524 0
M  V30 3146 C 305.54 -2.57776 -3.7857 0
M  V30 3147 N 307.031 -2.5609 -3.85969 0
M  V30 3148 C 307.766 -3.26508 -4.7136 0
M  V30 3149 N 307.262 -4.0637 -5.61102 0
M  V30 3150 N 309.055 -3.15437 -4.65248 0
M  V30 3151 H 301.206 -1.88005 -0.988328 0
M  V30 3152 H 303.469 -0.808198 -0.4955 0
M  V30 3153 H 303.175 -2.64644 -2.31638 0
M  V30 3154 H 303.049 -1.37036 -3.51427 0
M  V30 3155 H 305.436 -0.600167 -2.88933 0
M  V30 3156 H 305.517 -1.90958 -1.70202 0
M  V30 3157 H 305.161 -3.60361 -3.57913 0
M  V30 3158 H 305.091 -2.26587 -4.75359 0
M  V30 3159 H 307.582 -1.98105 -3.21812 0
M  V30 3160 H 307.895 -4.57042 -6.23164 0
M  V30 3161 H 306.24 -4.10469 -5.60839 0
M  V30 3162 H 309.431 -2.52525 -3.94143 0
M  V30 3163 H 309.604 -3.70584 -5.31575 0
M  V30 3164 N 303.011 1.40521 -0.713556 0
M  V30 3165 C 304.427 1.54839 -0.386907 0
M  V30 3166 C 304.627 1.68532 1.1045 0
M  V30 3167 O 303.683 1.67377 1.89053 0
M  V30 3168 C 304.996 2.77792 -1.15118 0
M  V30 3169 C 306.544 2.91607 -1.13729 0
M  V30 3170 C 307.019 4.1747 -1.88368 0
M  V30 3171 N 308.51 4.24466 -1.85427 0
M  V30 3172 C 309.245 5.20755 -2.40004 0
M  V30 3173 N 308.741 6.22965 -3.03129 0
M  V30 3174 N 310.534 5.1282 -2.30158 0
M  V30 3175 H 302.685 1.29879 -1.68063 0
M  V30 3176 H 304.948 0.627896 -0.710247 0
M  V30 3177 H 304.654 2.73944 -2.20561 0
M  V30 3178 H 304.528 3.6984 -0.741477 0
M  V30 3179 H 306.915 2.94959 -0.0910608 0
M  V30 3180 H 306.996 2.00682 -1.5862 0
M  V30 3181 H 306.64 4.1488 -2.9298 0
M  V30 3182 H 306.57 5.074 -1.40898 0
M  V30 3183 H 309.061 3.51241 -1.3942 0
M  V30 3184 H 309.374 6.92859 -3.42295 0
M  V30 3185 H 307.719 6.23415 -3.07212 0
M  V30 3186 H 310.91 4.31899 -1.80501 0
M  V30 3187 H 311.083 5.87689 -2.72993 0
M  V30 3188 N 304.489 0.459591 1.5075 0
M  V30 3189 C 305.421 -0.37665 2.26084 0
M  V30 3190 C 306.434 -0.967109 1.30961 0
M  V30 3191 O 307.623 -0.857468 1.56556 0
M  V30 3192 C 304.723 -1.54112 3.01832 0
M  V30 3193 C 303.896 -1.06553 4.24223 0
M  V30 3194 C 302.955 -2.1027 4.82362 0
M  V30 3195 O 301.981 -1.68798 5.43595 0
M  V30 3196 N 303.183 -3.42974 4.68347 0
M  V30 3197 H 305.948 0.269124 2.98489 0
M  V30 3198 H 303.509 0.28972 1.59287 0
M  V30 3199 H 305.501 -2.23165 3.37608 0
M  V30 3200 H 304.071 -2.0918 2.32298 0
M  V30 3201 H 303.291 -0.201274 3.93686 0
M  V30 3202 H 304.579 -0.725516 5.03601 0
M  V30 3203 H 303.977 -3.79385 4.19623 0
M  V30 3204 H 302.534 -4.07858 5.08424 0
M  V30 3205 N 305.967 -1.56429 0.191757 0
M  V30 3206 C 306.897 -2.21937 -0.725696 0
M  V30 3207 C 307.878 -1.1814 -1.2238 0
M  V30 3208 O 309.063 -1.46636 -1.27325 0
M  V30 3209 C 306.193 -2.87611 -1.94672 0
M  V30 3210 C 305.147 -3.97623 -1.58366 0
M  V30 3211 C 304.473 -4.50446 -2.88102 0
M  V30 3212 C 305.773 -5.16197 -0.796133 0
M  V30 3213 H 307.467 -2.98861 -0.179606 0
M  V30 3214 H 305.013 -1.43749 -0.0849464 0
M  V30 3215 H 306.966 -3.3212 -2.59373 0
M  V30 3216 H 305.69 -2.08087 -2.51728 0
M  V30 3217 H 304.349 -3.53801 -0.960247 0
M  V30 3218 H 303.997 -3.67688 -3.43241 0
M  V30 3219 H 303.697 -5.24675 -2.64556 0
M  V30 3220 H 305.221 -4.97654 -3.53798 0
M  V30 3221 H 306.635 -5.57271 -1.34618 0
M  V30 3222 H 305.032 -5.96471 -0.658928 0
M  V30 3223 H 306.102 -4.84473 0.203478 0
M  V30 3224 N 307.445 0.0818655 -1.57387 0
M  V30 3225 C 308.392 1.09834 -2.0299 0
M  V30 3226 C 309.362 1.39043 -0.908639 0
M  V30 3227 O 310.547 1.50282 -1.17559 0
M  V30 3228 C 307.687 2.40971 -2.47037 0
M  V30 3229 C 306.8 2.18379 -3.7274 0
M  V30 3230 C 305.935 3.43008 -4.0561 0
M  V30 3231 C 304.974 3.15736 -5.24383 0
M  V30 3232 N 304.111 4.32667 -5.52941 0
M  V30 3233 H 308.951 0.702472 -2.89602 0
M  V30 3234 H 306.488 0.33531 -1.43227 0
M  V30 3235 H 308.446 3.1752 -2.70623 0
M  V30 3236 H 307.076 2.78379 -1.63417 0
M  V30 3237 H 306.128 1.32569 -3.56552 0
M  V30 3238 H 307.44 1.94227 -4.59431 0
M  V30 3239 H 306.594 4.27958 -4.30043 0
M  V30 3240 H 305.333 3.70225 -3.17466 0
M  V30 3241 H 304.338 2.2918 -4.99757 0
M  V30 3242 H 305.563 2.8985 -6.14136 0
M  V30 3243 H 303.509 4.59935 -4.67756 0
M  V30 3244 H 303.426 4.11753 -6.34031 0
M  V30 3245 H 304.694 5.18644 -5.81918 0
M  V30 3246 N 308.923 1.53595 0.353017 0
M  V30 3247 C 309.855 1.77219 1.45348 0
M  V30 3248 C 310.868 0.65324 1.49119 0
M  V30 3249 O 312.057 0.929775 1.52373 0
M  V30 3250 C 309.157 1.84841 2.84055 0
M  V30 3251 C 308.33 3.14649 3.03833 0
M  V30 3252 C 307.389 3.13351 4.22727 0
M  V30 3253 O 306.415 3.87107 4.17297 0
M  V30 3254 N 307.617 2.35052 5.30783 0
M  V30 3255 H 310.382 2.72178 1.25457 0
M  V30 3256 H 307.943 1.52528 0.542833 0
M  V30 3257 H 309.935 1.81435 3.61751 0
M  V30 3258 H 308.505 0.971114 2.97133 0
M  V30 3259 H 307.725 3.31256 2.13689 0
M  V30 3260 H 309.013 4.00411 3.13925 0
M  V30 3261 H 308.411 1.74663 5.38061 0
M  V30 3262 H 306.968 2.37453 6.07009 0
M  V30 3263 N 310.401 -0.613514 1.45168 0
M  V30 3264 C 311.334 -1.73809 1.47871 0
M  V30 3265 C 312.312 -1.59097 0.33568 0
M  V30 3266 O 313.496 -1.8074 0.535299 0
M  V30 3267 C 310.623 -3.11574 1.32813 0
M  V30 3268 C 309.669 -3.4489 2.50905 0
M  V30 3269 S 310.502 -3.40393 4.13392 0
M  V30 3270 C 311.658 -4.80749 4.00789 0
M  V30 3271 H 311.891 -1.71252 2.43023 0
M  V30 3272 H 309.424 -0.789658 1.32679 0
M  V30 3273 H 311.382 -3.91065 1.24812 0
M  V30 3274 H 310.043 -3.11652 0.391418 0
M  V30 3275 H 309.236 -4.45183 2.36279 0
M  V30 3276 H 308.838 -2.72901 2.55736 0
M  V30 3277 H 311.13 -5.7041 3.65567 0
M  V30 3278 H 312.073 -5.00431 5.00974 0
M  V30 3279 H 312.481 -4.56151 3.32545 0
M  V30 3280 N 311.879 -1.3236 -0.855495 0
M  V30 3281 C 312.789 -1.23221 -1.99634 0
M  V30 3282 C 313.805 -0.145983 -1.73387 0
M  V30 3283 O 314.981 -0.366502 -1.98037 0
M  V30 3284 C 312.046 -0.954782 -3.33294 0
M  V30 3285 C 311.107 -2.12937 -3.72769 0
M  V30 3286 C 310.34 -1.86508 -5.00051 0
M  V30 3287 O 310.563 -0.807231 -5.64659 0
M  V30 3288 O 309.497 -2.72591 -5.36636 0
M  V30 3289 H 313.323 -2.19126 -2.1028 0
M  V30 3290 H 310.908 -1.12241 -0.986018 0
M  V30 3291 H 312.79 -0.816519 -4.13414 0
M  V30 3292 H 311.465 -0.0258854 -3.2369 0
M  V30 3293 H 310.372 -2.3231 -2.93228 0
M  V30 3294 H 311.705 -3.04102 -3.87018 0
M  V30 3295 N 313.357 1.07166 -1.15556 0
M  V30 3296 C 314.582 1.84053 -0.955988 0
M  V30 3297 C 315.007 1.81586 0.490739 0
M  V30 3298 O 314.365 1.21018 1.34997 0
M  V30 3299 C 314.413 3.28957 -1.47714 0
M  V30 3300 O 313.517 4.06795 -0.677593 0
M  V30 3301 H 312.858 0.569842 -0.340847 0
M  V30 3302 H 315.388 1.35178 -1.53584 0
M  V30 3303 H 315.398 3.79788 -1.4908 0
M  V30 3304 H 314.073 3.30068 -2.53037 0
M  V30 3305 H 312.65 3.6561 -0.733721 0
M  V30 3306 N 314.835 0.952656 1.25548 0
M  V30 3307 C 315.767 0.428609 2.25157 0
M  V30 3308 C 316.78 -0.454428 1.56329 0
M  V30 3309 O 317.969 -0.263023 1.76552 0
M  V30 3310 C 315.069 -0.401972 3.36508 0
M  V30 3311 C 314.242 0.467601 4.34893 0
M  V30 3312 C 313.301 -0.30445 5.25319 0
M  V30 3313 O 312.327 0.296473 5.68427 0
M  V30 3314 N 313.529 -1.59805 5.5807 0
M  V30 3315 H 316.294 1.28497 2.70756 0
M  V30 3316 H 313.855 0.822798 1.39433 0
M  V30 3317 H 315.847 -0.926134 3.9396 0
M  V30 3318 H 314.417 -1.15918 2.90313 0
M  V30 3319 H 313.637 1.17288 3.76347 0
M  V30 3320 H 314.925 1.06119 4.97611 0
M  V30 3321 H 314.323 -2.10823 5.24948 0
M  V30 3322 H 312.88 -2.06822 6.18116 0
M  V30 3323 N 316.313 -1.40141 0.720998 0
M  V30 3324 C 317.724 -1.83678 0.334553 0
M  V30 3325 C 318.075 -1.6027 -1.13173 0
M  V30 3326 O 317.2 -1.08643 -1.87152 0
M  V30 3327 C 317.795 -3.33437 0.600437 0
M  V30 3328 C 316.354 -3.75447 0.267642 0
M  V30 3329 C 315.501 -2.63296 0.870097 0
M  V30 3330 H 318.452 -1.29331 0.919732 0
M  V30 3331 H 318.473 -3.80269 -0.132517 0
M  V30 3332 H 317.985 -3.50442 1.66768 0
M  V30 3333 H 316.086 -3.64035 -0.794329 0
M  V30 3334 H 316.199 -4.73344 0.74042 0
M  V30 3335 H 314.563 -2.52954 0.297739 0
M  V30 3336 H 315.346 -2.83112 1.94172 0
M  V30 3337 N 317.792 -0.46758 -1.50504 0
M  V30 3338 C 318.722 0.318381 -2.31319 0
M  V30 3339 C 319.703 0.993564 -1.38066 0
M  V30 3340 O 320.888 0.991411 -1.66987 0
M  V30 3341 C 318.018 1.40275 -3.17711 0
M  V30 3342 C 316.972 0.849373 -4.19487 0
M  V30 3343 C 316.298 2.03177 -4.94594 0
M  V30 3344 C 317.598 -0.136942 -5.2212 0
M  V30 3345 H 319.292 -0.356106 -2.97275 0
M  V30 3346 H 316.838 -0.172703 -1.42961 0
M  V30 3347 H 318.791 1.96004 -3.73042 0
M  V30 3348 H 317.515 2.10596 -2.49634 0
M  V30 3349 H 316.174 0.314076 -3.65252 0
M  V30 3350 H 315.822 2.72187 -4.22993 0
M  V30 3351 H 315.522 1.66774 -5.63436 0
M  V30 3352 H 317.046 2.59403 -5.52759 0
M  V30 3353 H 318.46 0.331056 -5.72343 0
M  V30 3354 H 316.857 -0.41507 -5.98663 0
M  V30 3355 H 317.927 -1.06398 -4.73083 0
M  V30 3356 N 319.27 1.56325 -0.20005 0
M  V30 3357 C 320.681 1.8408 0.31167 0
M  V30 3358 C 321.032 1.12087 1.61031 0
M  V30 3359 O 320.157 0.38332 2.12978 0
M  V30 3360 C 320.752 3.33932 0.57226 0
M  V30 3361 C 319.311 3.6208 1.02834 0
M  V30 3362 C 318.458 2.77186 0.079634 0
M  V30 3363 H 321.409 1.52939 -0.423729 0
M  V30 3364 H 321.43 3.52971 1.42096 0
M  V30 3365 H 320.942 3.86303 -0.37308 0
M  V30 3366 H 319.043 3.15147 1.98778 0
M  V30 3367 H 319.156 4.7023 0.917624 0
M  V30 3368 H 317.52 2.47951 0.582448 0
M  V30 3369 H 318.303 3.32347 -0.860238 0
M  V30 3370 N 320.748 -0.0735177 1.57428 0
M  V30 3371 C 321.996 -0.771472 1.86796 0
M  V30 3372 C 322.317 -1.78201 0.791804 0
M  V30 3373 O 321.587 -1.95074 -0.179718 0
M  V30 3374 H 320.167 -0.28791 0.689287 0
M  V30 3375 H 322.829 -0.0500161 1.94836 0
M  V30 3376 H 321.925 -1.28874 2.8425 0
M  V30 3377 N 322.226 -1.5378 -0.344866 0
M  V30 3378 C 323.136 -1.84667 -1.4469 0
M  V30 3379 C 324.152 -0.736704 -1.57635 0
M  V30 3380 O 325.328 -1.02888 -1.73136 0
M  V30 3381 C 322.393 -2.04869 -2.79696 0
M  V30 3382 C 321.454 -3.28731 -2.76106 0
M  V30 3383 C 320.687 -3.4796 -4.04673 0
M  V30 3384 O 320.91 -2.71052 -5.01883 0
M  V30 3385 O 319.844 -4.41383 -4.09224 0
M  V30 3386 H 323.67 -2.78334 -1.21506 0
M  V30 3387 H 321.255 -1.39418 -0.536921 0
M  V30 3388 H 323.137 -2.19609 -3.59652 0
M  V30 3389 H 321.812 -1.14391 -3.02814 0
M  V30 3390 H 320.719 -3.19396 -1.94774 0
M  V30 3391 H 322.052 -4.19198 -2.57941 0
M  V30 3392 N 323.704 0.605807 -1.45491 0
M  V30 3393 C 325.12 0.926751 -1.29936 0
M  V30 3394 C 325.32 1.99896 -0.253706 0
M  V30 3395 O 324.376 2.50038 0.351737 0
M  V30 3396 C 325.689 1.36599 -2.67883 0
M  V30 3397 C 327.237 1.4801 -2.75793 0
M  V30 3398 C 327.712 1.95309 -4.14268 0
M  V30 3399 N 329.203 2.0254 -4.16571 0
M  V30 3400 C 329.938 2.40363 -5.20589 0
M  V30 3401 N 329.434 2.77143 -6.34952 0
M  V30 3402 N 331.227 2.40718 -5.07948 0
M  V30 3403 H 323.378 -0.102862 -2.12151 0
M  V30 3404 H 325.641 0.016639 -0.947854 0
M  V30 3405 H 325.347 0.652306 -3.45598 0
M  V30 3406 H 325.221 2.33215 -2.96463 0
M  V30 3407 H 327.608 2.1847 -1.98381 0
M  V30 3408 H 327.689 0.497041 -2.50925 0
M  V30 3409 H 327.333 1.25436 -4.92167 0
M  V30 3410 H 327.263 2.94532 -4.3653 0
M  V30 3411 H 329.754 1.76699 -3.34045 0
M  V30 3412 H 330.067 3.0489 -7.10114 0
M  V30 3413 H 328.412 2.74834 -6.3835 0
M  V30 3414 H 331.603 2.11392 -4.1765 0
M  V30 3415 H 331.776 2.69869 -5.89131 0
M  V30 3416 N 325.182 1.32811 0.848464 0
M  V30 3417 C 326.145 1.22194 1.9391 0
M  V30 3418 C 327.145 0.143404 1.60159 0
M  V30 3419 O 328.335 0.394253 1.6968 0
M  V30 3420 C 325.467 0.88067 3.29328 0
M  V30 3421 H 326.66 2.19127 2.04752 0
M  V30 3422 H 324.213 1.16731 1.0394 0
M  V30 3423 H 324.948 -0.0865776 3.24184 0
M  V30 3424 H 324.733 1.66052 3.55203 0
M  V30 3425 H 326.223 0.830871 4.09251 0
M  V30 3426 N 326.66 -1.06551 1.16123 0
M  V30 3427 C 328.076 -1.3142 0.905585 0
M  V30 3428 C 328.276 -1.96571 -0.442964 0
M  V30 3429 O 327.332 -2.23068 -1.18308 0
M  V30 3430 C 328.645 -2.19741 2.05267 0
M  V30 3431 C 330.193 -2.33165 2.08813 0
M  V30 3432 C 330.668 -3.24838 3.22868 0
M  V30 3433 N 332.159 -3.32421 3.22568 0
M  V30 3434 C 332.894 -4.0344 4.0746 0
M  V30 3435 N 332.39 -4.77003 5.02434 0
M  V30 3436 N 334.183 -3.99464 3.95456 0
M  V30 3437 H 326.334 -0.626548 2.02949 0
M  V30 3438 H 328.597 -0.338777 0.8854 0
M  V30 3439 H 328.303 -1.79142 3.02657 0
M  V30 3440 H 328.177 -3.20313 1.99198 0
M  V30 3441 H 330.564 -2.73013 1.12018 0
M  V30 3442 H 330.645 -1.3227 2.18948 0
M  V30 3443 H 330.289 -2.85708 4.19921 0
M  V30 3444 H 330.219 -4.25707 3.0997 0
M  V30 3445 H 332.71 -2.79994 2.53795 0
M  V30 3446 H 333.023 -5.28712 5.63634 0
M  V30 3447 H 331.368 -4.75992 5.06415 0
M  V30 3448 H 334.559 -3.4111 3.20564 0
M  V30 3449 H 334.732 -4.54544 4.61837 0
M  V30 3450 N 328.138 -0.959301 -1.25041 0
M  V30 3451 C 329.363 -0.633507 -1.97488 0
M  V30 3452 C 329.788 0.788555 -1.70773 0
M  V30 3453 O 329.146 1.53394 -0.966431 0
M  V30 3454 C 329.194 -0.904057 -3.49083 0
M  V30 3455 O 328.298 0.0147939 -4.12397 0
M  V30 3456 H 327.639 -0.240368 -0.618966 0
M  V30 3457 H 330.169 -1.28717 -1.59038 0
M  V30 3458 H 330.179 -0.832203 -3.99423 0
M  V30 3459 H 328.854 -1.94048 -3.67856 0
M  V30 3460 H 327.431 -0.109664 -3.72739 0
M  V30 3461 N 329.616 1.39756 -0.72842 0
M  V30 3462 C 330.844 2.04948 -0.283528 0
M  V30 3463 C 331.259 1.54908 1.0793 0
M  V30 3464 O 330.616 0.711135 1.68075 0
M  V30 3465 C 330.667 3.60498 -0.268957 0
M  V30 3466 O 330.388 4.08695 -1.57798 0
M  V30 3467 C 331.889 4.4288 0.192912 0
M  V30 3468 H 329.109 0.659243 -0.125056 0
M  V30 3469 H 331.653 1.78927 -0.990226 0
M  V30 3470 H 329.808 3.85444 0.388801 0
M  V30 3471 H 330.222 5.02977 -1.48709 0
M  V30 3472 H 331.696 5.51791 0.151952 0
M  V30 3473 H 332.173 4.21418 1.23708 0
M  V30 3474 H 332.779 4.23069 -0.435039 0
M  V30 3475 N 331.094 0.475555 1.50254 0
M  V30 3476 C 332.024 -0.30611 2.31485 0
M  V30 3477 C 333.005 -0.986228 1.38591 0
M  V30 3478 O 334.19 -0.982541 1.67511 0
M  V30 3479 C 331.32 -1.38588 3.1845 0
M  V30 3480 C 330.274 -0.827115 4.19932 0
M  V30 3481 C 329.6 -2.00551 4.95665 0
M  V30 3482 C 330.9 0.16463 5.2204 0
M  V30 3483 H 332.594 0.371866 2.97082 0
M  V30 3484 H 330.14 0.180282 1.42867 0
M  V30 3485 H 332.093 -1.94023 3.74076 0
M  V30 3486 H 330.817 -2.09269 2.50747 0
M  V30 3487 H 329.476 -0.294702 3.65414 0
M  V30 3488 H 329.124 -2.6994 4.2443 0
M  V30 3489 H 328.824 -1.63784 5.64313 0
M  V30 3490 H 330.348 -2.56468 5.54127 0
M  V30 3491 H 331.762 -0.300699 5.72511 0
M  V30 3492 H 330.159 0.446813 5.98434 0
M  V30 3493 H 331.229 1.08905 4.72512 0
M  V30 3494 N 332.573 -1.56217 0.208337 0
M  V30 3495 C 333.505 -2.1695 -0.739276 0
M  V30 3496 C 334.518 -1.13492 -1.1672 0
M  V30 3497 O 335.707 -1.40529 -1.10063 0
M  V30 3498 C 332.807 -2.72755 -2.01142 0
M  V30 3499 C 331.98 -4.0125 -1.74118 0
M  V30 3500 C 331.039 -4.41749 -2.85909 0
M  V30 3501 O 330.065 -5.08912 -2.54946 0
M  V30 3502 N 331.267 -4.06342 -4.14568 0
M  V30 3503 H 334.032 -2.98893 -0.219837 0
M  V30 3504 H 331.593 -1.61878 0.0268445 0
M  V30 3505 H 333.585 -2.96826 -2.75094 0
M  V30 3506 H 332.155 -1.95191 -2.4417 0
M  V30 3507 H 331.375 -3.85173 -0.838775 0
M  V30 3508 H 332.663 -4.851 -1.53477 0
M  V30 3509 H 332.061 -3.52345 -4.42571 0
M  V30 3510 H 330.618 -4.35335 -4.85105 0
M  V30 3511 N 334.051 0.0651679 -1.57465 0
M  V30 3512 C 334.998 1.07675 -2.04144 0
M  V30 3513 C 335.968 1.38071 -0.923335 0
M  V30 3514 O 337.153 1.49026 -1.19146 0
M  V30 3515 C 334.293 2.38337 -2.49579 0
M  V30 3516 C 333.406 2.14413 -3.75035 0
M  V30 3517 C 332.541 3.38686 -4.09225 0
M  V30 3518 C 331.58 3.10156 -5.27702 0
M  V30 3519 N 330.717 4.26778 -5.57499 0
M  V30 3520 H 335.557 0.671716 -2.90331 0
M  V30 3521 H 333.094 0.3201 -1.43575 0
M  V30 3522 H 335.052 3.14632 -2.73975 0
M  V30 3523 H 333.682 2.7663 -1.6636 0
M  V30 3524 H 332.734 1.2878 -3.57939 0
M  V30 3525 H 334.046 1.89344 -4.61466 0
M  V30 3526 H 333.2 4.23373 -4.34558 0
M  V30 3527 H 331.939 3.66837 -3.21374 0
M  V30 3528 H 330.944 2.23866 -5.02159 0
M  V30 3529 H 332.169 2.8332 -6.17176 0
M  V30 3530 H 330.115 4.54948 -4.72608 0
M  V30 3531 H 330.032 4.05005 -6.38362 0
M  V30 3532 H 331.3 5.12443 -5.87386 0
M  V30 3533 N 335.529 1.53961 0.336706 0
M  V30 3534 C 336.439 1.85432 1.43708 0
M  V30 3535 C 337.455 0.745053 1.57242 0
M  V30 3536 O 338.631 1.03804 1.72588 0
M  V30 3537 C 335.696 2.06349 2.78605 0
M  V30 3538 C 334.757 3.30191 2.74358 0
M  V30 3539 C 333.99 3.50101 4.02822 0
M  V30 3540 O 334.213 2.7371 5.00439 0
M  V30 3541 O 333.147 4.43547 4.06878 0
M  V30 3542 H 336.973 2.78975 1.20028 0
M  V30 3543 H 334.558 1.39701 0.52952 0
M  V30 3544 H 336.44 2.21513 3.58483 0
M  V30 3545 H 335.115 1.15995 3.02203 0
M  V30 3546 H 334.022 3.20425 1.93078 0
M  V30 3547 H 335.355 4.2056 2.55715 0
M  V30 3548 N 337.007 -0.598083 1.45811 0
M  V30 3549 C 338.253 -1.35882 1.50545 0
M  V30 3550 C 338.586 -1.93616 0.150445 0
M  V30 3551 O 337.861 -1.75604 -0.83628 0
M  V30 3552 C 338.144 -2.49966 2.59208 0
M  V30 3553 C 337.997 -1.97367 4.04186 0
M  V30 3554 C 339.316 -3.52068 2.64076 0
M  V30 3555 H 336.435 -0.492717 0.548087 0
M  V30 3556 H 339.077 -0.673319 1.77669 0
M  V30 3557 H 337.227 -3.08443 2.3621 0
M  V30 3558 H 338.899 -1.43466 4.38423 0
M  V30 3559 H 337.142 -1.283 4.14393 0
M  V30 3560 H 337.813 -2.79649 4.75921 0
M  V30 3561 H 340.289 -3.03448 2.84708 0
M  V30 3562 H 339.165 -4.2937 3.41954 0
M  V30 3563 H 339.426 -4.08304 1.69531 0
M  V30 3564 N 338.485 -1.33259 -0.841409 0
M  V30 3565 C 339.435 -1.19872 -1.93945 0
M  V30 3566 C 340.419 -0.102269 -1.60575 0
M  V30 3567 O 341.611 -0.330114 -1.73894 0
M  V30 3568 C 338.74 -0.937517 -3.30251 0
M  V30 3569 C 337.826 -2.07629 -3.69799 0
M  V30 3570 N 338.217 -3.32604 -3.81062 0
M  V30 3571 C 336.515 -1.98242 -3.9952 0
M  V30 3572 C 337.216 -4.07275 -4.15333 0
M  V30 3573 N 336.192 -3.35691 -4.27566 0
M  V30 3574 H 339.994 -2.14604 -2.00805 0
M  V30 3575 H 337.508 -1.2523 -1.03398 0
M  V30 3576 H 339.505 -0.822545 -4.08705 0
M  V30 3577 H 338.165 0.00128798 -3.247 0
M  V30 3578 H 339.176 -3.67382 -3.65035 0
M  V30 3579 H 335.853 -1.12005 -4.02195 0
M  V30 3580 H 337.243 -5.1511 -4.31406 0
M  V30 3581 N 339.963 1.05934 -1.16686 0
M  V30 3582 C 340.926 2.11669 -0.879144 0
M  V30 3583 C 341.926 1.60294 0.127445 0
M  V30 3584 O 343.116 1.7389 -0.103865 0
M  V30 3585 C 340.248 3.39438 -0.315425 0
M  V30 3586 H 341.441 2.38626 -1.81653 0
M  V30 3587 H 338.994 1.22058 -0.976299 0
M  V30 3588 H 339.729 3.18132 0.629468 0
M  V30 3589 H 339.514 3.78034 -1.04079 0
M  V30 3590 H 341.004 4.17391 -0.132189 0
M  V30 3591 N 341.441 0.965919 1.2453 0
M  V30 3592 C 342.404 0.499547 2.2369 0
M  V30 3593 C 343.404 -0.40294 1.5567 0
M  V30 3594 O 344.594 -0.19865 1.73064 0
M  V30 3595 C 341.726 -0.276792 3.39774 0
M  V30 3596 H 342.919 1.37613 2.66463 0
M  V30 3597 H 340.472 0.750324 1.37112 0
M  V30 3598 H 341.207 -1.17055 3.02438 0
M  V30 3599 H 340.992 0.370826 3.90343 0
M  V30 3600 H 342.482 -0.592175 4.1338 0
M  V30 3601 N 342.919 -1.39368 0.735821 0
M  V30 3602 C 343.866 -2.30599 0.0963825 0
M  V30 3603 C 344.836 -1.49257 -0.728794 0
M  V30 3604 O 346.021 -1.77941 -0.688588 0
M  V30 3605 C 343.161 -3.35596 -0.804305 0
M  V30 3606 C 342.274 -4.31987 0.0335761 0
M  V30 3607 C 341.409 -5.24053 -0.868461 0
M  V30 3608 C 340.448 -6.12095 -0.0258776 0
M  V30 3609 N 339.585 -6.96514 -0.883893 0
M  V30 3610 H 344.425 -2.8471 0.880002 0
M  V30 3611 H 341.962 -1.40188 0.445619 0
M  V30 3612 H 343.92 -3.95062 -1.34096 0
M  V30 3613 H 342.55 -2.82938 -1.55389 0
M  V30 3614 H 341.602 -3.74133 0.68766 0
M  V30 3615 H 342.914 -4.94074 0.685036 0
M  V30 3616 H 342.068 -5.88549 -1.47293 0
M  V30 3617 H 340.807 -4.62289 -1.5537 0
M  V30 3618 H 339.812 -5.4661 0.591386 0
M  V30 3619 H 341.037 -6.75923 0.656156 0
M  V30 3620 H 338.983 -6.37318 -1.55441 0
M  V30 3621 H 338.9 -7.55448 -0.288931 0
M  V30 3622 H 340.168 -7.65439 -1.4739 0
M  V30 3623 N 344.397 -0.483516 -1.5 0
M  V30 3624 C 345.622 0.0667119 -2.07293 0
M  V30 3625 C 346.047 1.3164 -1.3436 0
M  V30 3626 O 345.405 1.76945 -0.394987 0
M  V30 3627 C 345.453 0.321126 -3.59167 0
M  V30 3628 O 344.557 1.39927 -3.87936 0
M  V30 3629 H 343.898 -0.0184758 -0.663743 0
M  V30 3630 H 346.428 -0.678125 -1.93035 0
M  V30 3631 H 346.438 0.557906 -4.04168 0
M  V30 3632 H 345.113 -0.592007 -4.11665 0
M  V30 3633 H 343.69 1.14882 -3.54763 0
M  V30 3634 N 345.875 1.56104 -0.216619 0
M  V30 3635 C 346.805 2.23063 0.690296 0
M  V30 3636 C 347.786 1.20072 1.20485 0
M  V30 3637 O 348.971 1.48643 1.24976 0
M  V30 3638 C 346.101 2.90672 1.90072 0
M  V30 3639 C 345.055 4.00092 1.5202 0
M  V30 3640 C 344.381 4.54972 2.80899 0
M  V30 3641 C 345.681 5.17398 0.71391 0
M  V30 3642 H 347.375 2.99109 0.132038 0
M  V30 3643 H 344.921 1.43866 0.0620664 0
M  V30 3644 H 346.874 3.36204 2.54057 0
M  V30 3645 H 345.598 2.12066 2.48386 0
M  V30 3646 H 344.257 3.55283 0.903839 0
M  V30 3647 H 343.905 3.73102 3.37348 0
M  V30 3648 H 343.605 5.28817 2.56176 0
M  V30 3649 H 345.129 5.0322 3.45836 0
M  V30 3650 H 346.543 5.59342 1.25735 0
M  V30 3651 H 344.94 5.97444 0.563951 0
M  V30 3652 H 346.01 4.84088 -0.280527 0
M  V30 3653 N 347.353 -0.0568162 1.57498 0
M  V30 3654 C 348.316 -1.05038 2.03715 0
M  V30 3655 C 349.316 -1.30709 0.936577 0
M  V30 3656 O 350.506 -1.26178 1.20103 0
M  V30 3657 C 347.638 -2.39034 2.43055 0
M  V30 3658 H 348.831 -0.651715 2.92733 0
M  V30 3659 H 346.384 -0.302947 1.53336 0
M  V30 3660 H 347.119 -2.83703 1.57108 0
M  V30 3661 H 346.904 -2.21739 3.2338 0
M  V30 3662 H 348.394 -3.10421 2.79336 0
M  V30 3663 N 348.832 -1.54138 -0.328536 0
M  V30 3664 C 350.081 -1.71318 -1.06456 0
M  V30 3665 C 350.394 -0.491109 -1.89334 0
M  V30 3666 O 351.6 -0.54416 -2.65991 0
M  V30 3667 C 350.056 -3.03 -1.94214 0
M  V30 3668 C 349.664 -4.32595 -1.16471 0
M  V30 3669 C 351.408 -3.29544 -2.67583 0
M  V30 3670 C 349.315 -5.55341 -2.03347 0
M  V30 3671 H 348.245 -0.638429 -0.401155 0
M  V30 3672 H 350.896 -1.80633 -0.323106 0
M  V30 3673 H 349.278 -2.87579 -2.72239 0
M  V30 3674 H 350.452 -4.58766 -0.432525 0
M  V30 3675 H 348.767 -4.12777 -0.548063 0
M  V30 3676 H 351.364 -4.18444 -3.3288 0
M  V30 3677 H 351.707 -2.47206 -3.34955 0
M  V30 3678 H 352.24 -3.45809 -1.96623 0
M  V30 3679 H 348.979 -6.40268 -1.40491 0
M  V30 3680 H 348.499 -5.33397 -2.74313 0
M  V30 3681 H 350.178 -5.91557 -2.62049 0
M  V30 3682 N 350.31 0.590341 -1.46126 0
M  V30 3683 C 351.559 1.34499 -1.50309 0
M  V30 3684 C 351.872 1.94977 -0.156021 0
M  V30 3685 O 353.078 2.71395 -0.0756037 0
M  V30 3686 C 351.534 2.43723 -2.64815 0
M  V30 3687 C 351.142 1.89582 -4.0591 0
M  V30 3688 C 352.886 3.20579 -2.78262 0
M  V30 3689 C 350.793 2.9639 -5.11769 0
M  V30 3690 H 349.723 0.505593 -0.559368 0
M  V30 3691 H 352.374 0.630848 -1.72315 0
M  V30 3692 H 350.756 3.17902 -2.36124 0
M  V30 3693 H 351.93 1.21997 -4.44357 0
M  V30 3694 H 350.245 1.25418 -3.97063 0
M  V30 3695 H 352.842 4.00276 -3.54519 0
M  V30 3696 H 353.185 3.72684 -1.85505 0
M  V30 3697 H 353.718 2.53505 -3.06562 0
M  V30 3698 H 350.457 2.49181 -6.06291 0
M  V30 3699 H 349.977 3.62487 -4.77873 0
M  V30 3700 H 351.656 3.60474 -5.37278 0
M  V30 3701 N 351.788 1.33704 0.83433 0
M  V30 3702 C 353.034 1.25603 1.59222 0
M  V30 3703 C 353.367 -0.176659 1.93395 0
M  V30 3704 O 352.642 -1.11915 1.59076 0
M  V30 3705 C 352.925 2.13576 2.89926 0
M  V30 3706 C 352.778 3.65326 2.62406 0
M  V30 3707 C 354.097 2.01238 3.91397 0
M  V30 3708 H 351.216 0.457613 0.577719 0
M  V30 3709 H 353.858 1.63848 0.961972 0
M  V30 3710 H 352.008 1.8109 3.43713 0
M  V30 3711 H 353.68 4.08124 2.15017 0
M  V30 3712 H 351.923 3.8698 1.96033 0
M  V30 3713 H 352.594 4.22232 3.55562 0
M  V30 3714 H 355.07 2.29738 3.46929 0
M  V30 3715 H 353.946 2.65036 4.80673 0
M  V30 3716 H 354.207 0.985951 4.30966 0
M  V30 3717 N 353.266 -1.05314 1.17247 0
M  V30 3718 C 354.514 -1.77941 0.958194 0
M  V30 3719 C 354.835 -1.88089 -0.514556 0
M  V30 3720 O 354.105 -1.39676 -1.37359 0
M  V30 3721 H 352.685 -0.659116 0.351533 0
M  V30 3722 H 355.347 -1.27166 1.47699 0
M  V30 3723 H 354.443 -2.79663 1.38546 0
M  V30 3724 N 354.744 -0.972509 -1.24016 0
M  V30 3725 C 355.674 -0.525548 -2.27509 0
M  V30 3726 C 356.655 0.437262 -1.64384 0
M  V30 3727 O 357.84 0.332343 -1.91335 0
M  V30 3728 C 354.97 0.180448 -3.46831 0
M  V30 3729 C 353.924 -0.698859 -4.22256 0
M  V30 3730 C 353.25 0.138903 -5.3452 0
M  V30 3731 C 354.55 -1.98582 -4.83076 0
M  V30 3732 H 356.244 -1.39058 -2.65148 0
M  V30 3733 H 353.79 -0.67009 -1.27459 0
M  V30 3734 H 355.743 0.504387 -4.18371 0
M  V30 3735 H 354.467 1.07987 -3.08231 0
M  V30 3736 H 353.126 -1.00614 -3.52523 0
M  V30 3737 H 352.774 1.03862 -4.9216 0
M  V30 3738 H 352.474 -0.446259 -5.85903 0
M  V30 3739 H 353.998 0.457404 -6.08884 0
M  V30 3740 H 355.412 -1.72715 -5.46665 0
M  V30 3741 H 353.809 -2.5181 -5.44713 0
M  V30 3742 H 354.879 -2.67769 -4.04262 0
M  V30 3743 N 356.222 1.38976 -0.743202 0
M  V30 3744 C 357.469 2.00343 -0.294752 0
M  V30 3745 C 357.797 1.58983 1.12047 0
M  V30 3746 O 357.052 0.813809 1.77977 0
M  V30 3747 C 357.351 3.55647 -0.353517 0
M  V30 3748 C 357.017 4.16685 -1.72292 0
M  V30 3749 C 355.679 4.3307 -2.09771 0
M  V30 3750 C 358.031 4.50464 -2.62168 0
M  V30 3751 C 355.359 4.80526 -3.36618 0
M  V30 3752 C 357.711 4.99332 -3.88395 0
M  V30 3753 C 356.375 5.13924 -4.25956 0
M  V30 3754 H 355.645 0.733108 -0.107857 0
M  V30 3755 H 358.292 1.6618 -0.951651 0
M  V30 3756 H 356.597 3.89884 0.386954 0
M  V30 3757 H 358.294 4.00998 0.0117269 0
M  V30 3758 H 354.884 4.04339 -1.42155 0
M  V30 3759 H 359.068 4.37416 -2.3448 0
M  V30 3760 H 354.324 4.90008 -3.65653 0
M  V30 3761 H 358.498 5.2444 -4.58187 0
M  V30 3762 H 356.125 5.50457 -5.2431 0
M  V30 3763 N 357.7 0.491464 1.49741 0
M  V30 3764 C 358.663 -0.280906 2.27472 0
M  V30 3765 C 359.663 -0.902454 1.33088 0
M  V30 3766 O 360.853 -0.768465 1.56334 0
M  V30 3767 C 357.985 -1.40209 3.10732 0
M  V30 3768 H 359.178 0.401056 2.97206 0
M  V30 3769 H 356.731 0.246131 1.5435 0
M  V30 3770 H 357.466 -2.11849 2.45541 0
M  V30 3771 H 357.251 -0.961969 3.80117 0
M  V30 3772 H 358.741 -1.9464 3.69466 0
M  V30 3773 N 359.178 -1.55987 0.224894 0
M  V30 3774 C 360.108 -2.23426 -0.678457 0
M  V30 3775 C 361.089 -1.20709 -1.19847 0
M  V30 3776 O 362.274 -1.49304 -1.24186 0
M  V30 3777 C 359.404 -2.91676 -1.88527 0
M  V30 3778 C 358.358 -4.00893 -1.49896 0
M  V30 3779 C 357.684 -4.56455 -2.78483 0
M  V30 3780 C 358.984 -5.17769 -0.686461 0
M  V30 3781 H 360.678 -2.99175 -0.116173 0
M  V30 3782 H 358.224 -1.43897 -0.054436 0
M  V30 3783 H 360.177 -3.37547 -2.5227 0
M  V30 3784 H 358.901 -2.1338 -2.47258 0
M  V30 3785 H 357.56 -3.55758 -0.884985 0
M  V30 3786 H 357.208 -3.74886 -3.35365 0
M  V30 3787 H 356.908 -5.30169 -2.53368 0
M  V30 3788 H 358.432 -5.05047 -3.43162 0
M  V30 3789 H 359.846 -5.60001 -1.22767 0
M  V30 3790 H 358.243 -5.97735 -0.532259 0
M  V30 3791 H 359.313 -4.83932 0.306196 0
M  V30 3792 N 360.656 0.0484629 -1.57525 0
M  V30 3793 C 361.896 0.748196 -1.90214 0
M  V30 3794 C 362.26 1.73545 -0.821347 0
M  V30 3795 O 363.461 2.48201 -1.03198 0
M  V30 3796 C 361.732 1.41727 -3.28098 0
M  V30 3797 S 363.291 2.14884 -3.82584 0
M  V30 3798 H 360.109 0.248307 -0.666232 0
M  V30 3799 H 362.711 0.00343188 -1.955 0
M  V30 3800 H 361.415 0.685244 -4.04639 0
M  V30 3801 H 360.946 2.20099 -3.26068 0
M  V30 3802 H 362.961 3.41755 -3.59747 0
M  V30 3803 N 362.134 1.5431 0.320358 0
M  V30 3804 C 363.38 1.73859 1.05568 0
M  V30 3805 C 363.735 0.507807 1.85578 0
M  V30 3806 O 363.028 -0.499789 1.84967 0
M  V30 3807 C 363.222 2.95639 2.00828 0
M  V30 3808 C 363.051 4.30444 1.30186 0
M  V30 3809 C 361.821 4.94544 1.03703 0
M  V30 3810 C 364.019 5.0929 0.716138 0
M  V30 3811 N 362.001 6.13172 0.298846 0
M  V30 3812 C 363.372 6.19903 0.109729 0
M  V30 3813 C 365.427 4.94034 0.619269 0
M  V30 3814 C 364.13 7.16924 -0.584153 0
M  V30 3815 C 366.156 5.91369 -0.0609184 0
M  V30 3816 C 365.518 7.01336 -0.656258 0
M  V30 3817 H 361.617 0.688988 0.36989 0
M  V30 3818 H 364.201 1.9177 0.336494 0
M  V30 3819 H 362.372 2.79188 2.70016 0
M  V30 3820 H 364.104 3.03802 2.6737 0
M  V30 3821 H 360.859 4.54536 1.33019 0
M  V30 3822 H 361.283 6.76977 -0.0561964 0
M  V30 3823 H 365.925 4.0916 1.06526 0
M  V30 3824 H 363.643 8.01354 -1.04197 0
M  V30 3825 H 367.229 5.81642 -0.135552 0
M  V30 3826 H 366.109 7.75359 -1.17423 0
M  V30 3827 N 363.613 -0.582584 1.46437 0
M  V30 3828 C 364.543 -1.70187 1.59871 0
M  V30 3829 C 365.524 -1.64066 0.449042 0
M  V30 3830 O 366.709 -1.82081 0.6753 0
M  V30 3831 C 363.839 -3.08827 1.58881 0
M  V30 3832 C 362.793 -3.29779 2.72819 0
M  V30 3833 C 362.119 -4.68947 2.5689 0
M  V30 3834 C 363.419 -3.17601 4.1464 0
M  V30 3835 H 365.113 -1.592 2.53566 0
M  V30 3836 H 362.659 -0.764472 1.22032 0
M  V30 3837 H 364.612 -3.86951 1.66873 0
M  V30 3838 H 363.336 -3.20713 0.617306 0
M  V30 3839 H 361.995 -2.54054 2.64296 0
M  V30 3840 H 361.643 -4.77599 1.57823 0
M  V30 3841 H 361.343 -4.83919 3.33312 0
M  V30 3842 H 362.867 -5.4924 2.66773 0
M  V30 3843 H 364.281 -3.8557 4.24274 0
M  V30 3844 H 362.678 -3.44094 4.9165 0
M  V30 3845 H 363.748 -2.14681 4.34788 0
M  V30 3846 N 365.091 -1.34144 -0.827227 0
M  V30 3847 C 366.502 -1.23557 -1.39966 0
M  V30 3848 C 366.853 0.140731 -1.95695 0
M  V30 3849 O 365.978 1.04087 -1.89723 0
M  V30 3850 C 366.573 -2.23708 -2.54441 0
M  V30 3851 C 365.132 -2.16924 -3.07605 0
M  V30 3852 C 364.279 -2.10549 -1.80456 0
M  V30 3853 H 367.23 -1.45573 -0.631991 0
M  V30 3854 H 367.251 -1.85157 -3.32411 0
M  V30 3855 H 366.763 -3.23866 -2.13851 0
M  V30 3856 H 364.864 -1.20107 -3.52711 0
M  V30 3857 H 364.977 -3.07988 -3.66988 0
M  V30 3858 H 363.341 -1.56203 -2.01178 0
M  V30 3859 H 364.124 -3.12535 -1.42046 0
M  V30 3860 N 366.569 1.04691 -1.17803 0
M  V30 3861 C 367.499 2.14494 -0.92275 0
M  V30 3862 C 368.48 1.69546 0.137179 0
M  V30 3863 O 369.665 1.94195 -0.0141108 0
M  V30 3864 C 366.795 3.44491 -0.440803 0
M  V30 3865 C 365.749 4.03031 -1.4405 0
M  V30 3866 C 365.075 5.28432 -0.81631 0
M  V30 3867 C 366.375 4.39932 -2.81527 0
M  V30 3868 H 368.069 2.36107 -1.84103 0
M  V30 3869 H 365.615 1.1347 -0.886599 0
M  V30 3870 H 367.568 4.2066 -0.249602 0
M  V30 3871 H 366.292 3.22546 0.513025 0
M  V30 3872 H 364.951 3.28937 -1.61853 0
M  V30 3873 H 364.599 5.02792 0.144511 0
M  V30 3874 H 364.299 5.68559 -1.48371 0
M  V30 3875 H 365.823 6.07284 -0.635496 0
M  V30 3876 H 367.237 5.07113 -2.67412 0
M  V30 3877 H 365.634 4.9109 -3.44892 0
M  V30 3878 H 366.704 3.50045 -3.35554 0
M  V30 3879 N 368.047 0.979072 1.23499 0
M  V30 3880 C 368.997 0.489378 2.22686 0
M  V30 3881 C 369.981 -0.434871 1.54912 0
M  V30 3882 O 371.173 -0.263941 1.75021 0
M  V30 3883 C 368.302 -0.208178 3.42668 0
M  V30 3884 C 367.388 0.735563 4.17672 0
M  V30 3885 N 367.779 1.87763 4.69658 0
M  V30 3886 C 366.077 0.548625 4.42613 0
M  V30 3887 C 366.778 2.46886 5.26709 0
M  V30 3888 N 365.754 1.75287 5.14563 0
M  V30 3889 H 369.556 1.36062 2.60508 0
M  V30 3890 H 367.07 0.83958 1.39014 0
M  V30 3891 H 369.067 -0.576295 4.12898 0
M  V30 3892 H 367.727 -1.07572 3.06363 0
M  V30 3893 H 368.738 2.25885 4.66043 0
M  V30 3894 H 365.415 -0.274006 4.166 0
M  V30 3895 H 366.805 3.43326 5.77561 0
M  V30 3896 N 369.525 -1.3858 0.750561 0
M  V30 3897 C 370.774 -1.99424 0.302172 0
M  V30 3898 C 371.087 -1.60254 -1.12152 0
M  V30 3899 O 372.293 -2.14046 -1.67023 0
M  V30 3900 C 370.749 -3.56558 0.489307 0
M  V30 3901 C 370.357 -4.04682 1.92189 0
M  V30 3902 C 372.101 -4.24374 0.103478 0
M  V30 3903 C 370.008 -5.54446 2.05775 0
M  V30 3904 H 368.938 -0.746046 0.10923 0
M  V30 3905 H 371.589 -1.58383 0.92667 0
M  V30 3906 H 369.971 -3.95472 -0.204329 0
M  V30 3907 H 371.145 -3.77065 2.64875 0
M  V30 3908 H 369.46 -3.4958 2.26236 0
M  V30 3909 H 372.057 -5.34384 0.183787 0
M  V30 3910 H 372.4 -4.05468 -0.943481 0
M  V30 3911 H 372.933 -3.90688 0.748854 0
M  V30 3912 H 369.672 -5.78252 3.08714 0
M  V30 3913 H 369.192 -5.83816 1.37546 0
M  V30 3914 H 370.871 -6.20099 1.84626 0
M  V30 3915 N 371.003 -0.499398 -1.49478 0
M  V30 3916 C 372.252 0.0475259 -2.01644 0
M  V30 3917 C 372.565 1.38195 -1.38425 0
M  V30 3918 O 373.771 2.01547 -1.8191 0
M  V30 3919 C 372.227 0.135164 -3.59646 0
M  V30 3920 C 371.835 -1.19252 -4.31837 0
M  V30 3921 C 373.579 0.632538 -4.19761 0
M  V30 3922 C 371.486 -1.06713 -5.81693 0
M  V30 3923 H 370.416 0.0215349 -0.753692 0
M  V30 3924 H 373.067 -0.638577 -1.7203 0
M  V30 3925 H 371.449 0.885681 -3.85969 0
M  V30 3926 H 372.623 -1.9562 -4.17216 0
M  V30 3927 H 370.938 -1.62321 -3.83459 0
M  V30 3928 H 373.535 0.743833 -5.29501 0
M  V30 3929 H 373.878 1.63098 -3.83021 0
M  V30 3930 H 374.411 -0.0613987 -3.97753 0
M  V30 3931 H 371.15 -2.03979 -6.22955 0
M  V30 3932 H 370.67 -0.344307 -5.98811 0
M  V30 3933 H 372.349 -0.745208 -6.42694 0
M  V30 3934 N 372.481 1.55866 -0.233164 0
M  V30 3935 C 373.429 2.22176 0.68851 0
M  V30 3936 C 374.423 1.20487 1.19076 0
M  V30 3937 O 375.629 1.38536 1.14925 0
M  V30 3938 H 372.004 0.712511 0.240483 0
M  V30 3939 H 373.975 2.98212 0.105935 0
M  V30 3940 C 372.724 2.92446 1.88071 0
M  V30 3941 H 372.047 3.70458 1.50337 0
M  V30 3942 H 373.487 3.42226 2.50314 0
M  V30 3943 C 371.946 1.95555 2.74335 0
M  V30 3944 O 372.476 1.47986 3.73447 0
M  V30 3945 N 370.682 1.62953 2.40613 0
M  V30 3946 H 370.229 2.01831 1.60069 0
M  V30 3947 H 370.187 0.983886 2.98609 0
M  V30 3948 N 373.959 -0.0401083 1.57549 0
M  V30 3949 C 375.199 -0.738098 1.90608 0
M  V30 3950 C 375.563 -1.73107 0.830539 0
M  V30 3951 O 376.764 -2.4765 1.04513 0
M  V30 3952 C 375.035 -1.39985 3.28845 0
M  V30 3953 S 376.594 -2.12852 3.83718 0
M  V30 3954 H 373.412 -0.24477 0.667539 0
M  V30 3955 H 376.014 0.00693599 1.95499 0
M  V30 3956 H 374.718 -0.663775 4.04997 0
M  V30 3957 H 374.249 -2.18366 3.2723 0
M  V30 3958 H 376.264 -3.39842 3.61555 0
M  V30 3959 N 375.437 -1.54477 -0.31217 0
M  V30 3960 C 376.684 -1.73227 -1.04875 0
M  V30 3961 C 377.012 -0.512042 -1.87639 0
M  V30 3962 O 376.267 0.506131 -1.89042 0
M  V30 3963 C 376.566 -2.967 -1.99258 0
M  V30 3964 C 376.232 -4.30974 -1.32559 0
M  V30 3965 C 374.894 -4.67477 -1.141 0
M  V30 3966 C 377.246 -5.14258 -0.847835 0
M  V30 3967 C 374.574 -5.84852 -0.465326 0
M  V30 3968 C 376.926 -6.32327 -0.185931 0
M  V30 3969 C 375.59 -6.67499 0.0107077 0
M  V30 3970 H 374.86 -0.633881 -0.383765 0
M  V30 3971 H 377.507 -1.88727 -0.324731 0
M  V30 3972 H 375.812 -2.75935 -2.7815 0
M  V30 3973 H 377.509 -3.08401 -2.563 0
M  V30 3974 H 374.099 -4.02262 -1.4793 0
M  V30 3975 H 378.283 -4.86565 -0.978192 0
M  V30 3976 H 373.539 -6.10654 -0.301883 0
M  V30 3977 H 377.713 -6.96135 0.192211 0
M  V30 3978 H 375.34 -7.58306 0.536287 0
M  V30 3979 N 376.915 0.57481 -1.46744 0
M  V30 3980 C 378.143 1.35856 -1.56047 0
M  V30 3981 C 378.558 1.87691 -0.204365 0
M  V30 3982 O 377.915 1.64049 0.79963 0
M  V30 3983 C 377.966 2.54066 -2.57163 0
M  V30 3984 O 377.687 2.04377 -3.87507 0
M  V30 3985 C 379.188 3.46514 -2.76483 0
M  V30 3986 H 376.408 0.414754 -0.527466 0
M  V30 3987 H 378.952 0.698035 -1.92218 0
M  V30 3988 H 377.107 3.16092 -2.23974 0
M  V30 3989 H 377.521 2.81419 -4.4261 0
M  V30 3990 H 378.995 4.25919 -3.51137 0
M  V30 3991 H 379.472 3.98951 -1.83671 0
M  V30 3992 H 380.078 2.90318 -3.10799 0
M  V30 3993 N 378.394 1.34581 0.820102 0
M  V30 3994 C 379.641 1.27096 1.57648 0
M  V30 3995 C 379.969 -0.158317 1.93855 0
M  V30 3996 O 379.224 -1.12028 1.60463 0
M  V30 3997 C 379.523 2.10997 2.8847 0
M  V30 3998 C 379.189 3.59966 2.71543 0
M  V30 3999 C 377.851 4.00575 2.66634 0
M  V30 4000 C 380.203 4.54548 2.55021 0
M  V30 4001 C 377.531 5.33953 2.43128 0
M  V30 4002 C 379.883 5.88109 2.33047 0
M  V30 4003 C 378.547 6.27878 2.26552 0
M  V30 4004 H 377.817 0.465078 0.576874 0
M  V30 4005 H 380.464 1.6635 0.948671 0
M  V30 4006 H 378.769 1.6458 3.55557 0
M  V30 4007 H 380.466 2.0255 3.46084 0
M  V30 4008 H 377.056 3.27733 2.76205 0
M  V30 4009 H 381.24 4.24069 2.57835 0
M  V30 4010 H 376.496 5.63781 2.3656 0
M  V30 4011 H 380.67 6.60985 2.19251 0
M  V30 4012 H 378.297 7.31162 2.081 0
M  V30 4013 N 379.872 -1.04064 1.18357 0
M  V30 4014 C 381.119 -1.77265 0.978947 0
M  V30 4015 C 381.447 -1.88189 -0.491428 0
M  V30 4016 O 380.702 -1.38653 -1.38108 0
M  V30 4017 C 381.001 -3.20634 1.57888 0
M  V30 4018 C 380.667 -3.29743 3.07539 0
M  V30 4019 C 379.329 -3.31937 3.48384 0
M  V30 4020 C 381.681 -3.29841 4.03552 0
M  V30 4021 C 379.009 -3.3187 4.83818 0
M  V30 4022 C 381.361 -3.31313 5.38901 0
M  V30 4023 C 380.025 -3.31799 5.79194 0
M  V30 4024 H 379.295 -0.648659 0.358222 0
M  V30 4025 H 381.942 -1.22225 1.47422 0
M  V30 4026 H 380.247 -3.78675 1.00561 0
M  V30 4027 H 381.944 -3.75917 1.39598 0
M  V30 4028 H 378.534 -3.28757 2.74986 0
M  V30 4029 H 382.718 -3.27337 3.73047 0
M  V30 4030 H 377.974 -3.30562 5.14333 0
M  V30 4031 H 382.148 -3.30338 6.13066 0
M  V30 4032 H 379.775 -3.315 6.84114 0
M  V30 4033 N 381.35 -0.985608 -1.22978 0
M  V30 4034 C 382.59 -0.665487 -1.93263 0
M  V30 4035 C 382.954 0.78706 -1.75127 0
M  V30 4036 O 384.155 1.21826 -2.39608 0
M  V30 4037 C 382.426 -1.0515 -3.41582 0
M  V30 4038 S 383.985 -0.848637 -4.30516 0
M  V30 4039 H 380.803 -0.24355 -0.667985 0
M  V30 4040 H 383.405 -1.26635 -1.48942 0
M  V30 4041 H 382.109 -2.10517 -3.52293 0
M  V30 4042 H 381.64 -0.442134 -3.90908 0
M  V30 4043 H 383.655 0.264717 -4.95493 0
M  V30 4044 N 382.828 1.3818 -0.7579 0
M  V30 4045 C 384.239 1.82726 -0.383134 0
M  V30 4046 C 384.59 1.63214 1.08884 0
M  V30 4047 O 383.715 1.13566 1.84205 0
M  V30 4048 C 384.31 3.31728 -0.688631 0
M  V30 4049 C 382.869 3.74606 -0.367091 0
M  V30 4050 C 382.016 2.60896 -0.939599 0
M  V30 4051 H 384.967 1.26847 -0.953699 0
M  V30 4052 H 384.988 3.80487 0.0316492 0
M  V30 4053 H 384.5 3.45898 -1.76001 0
M  V30 4054 H 382.601 3.66013 0.697532 0
M  V30 4055 H 382.714 4.71215 -0.865658 0
M  V30 4056 H 381.078 2.52075 -0.3647 0
M  V30 4057 H 381.861 2.77864 -2.0161 0
M  V30 4058 N 384.306 0.507319 1.49211 0
M  V30 4059 C 385.583 -0.0982702 1.95353 0
M  V30 4060 C 385.963 -1.53516 1.449 0
M  V30 4061 O 385.311 -2.18594 0.66551 0
M  V30 4062 C 385.521 -0.00440283 3.49 0
M  V30 4063 C 386.869 -0.175147 4.24239 0
M  V30 4064 O 387.893 -0.0792891 3.56112 0
M  V30 4065 O 386.752 -0.37276 5.45227 0
M  V30 4066 H 383.846 -0.0918236 0.821887 0
M  V30 4067 H 386.392 0.570307 1.5983 0
M  V30 4068 H 385.164 0.997402 3.78375 0
M  V30 4069 H 384.787 -0.712845 3.91158 0
M  V30 4070 N 385.784 -1.5574 0.241426 0
M  V30 4071 C 387.024 -2.00714 -0.38644 0
M  V30 4072 C 387.388 -1.12586 -1.55526 0
M  V30 4073 O 388.589 -1.46992 -2.25048 0
M  V30 4074 C 386.86 -3.48534 -0.791128 0
M  V30 4075 S 388.419 -4.15519 -1.41029 0
M  V30 4076 H 385.237 -0.700484 -0.121834 0
M  V30 4077 H 387.839 -1.92243 0.355377 0
M  V30 4078 H 386.543 -4.10342 0.0689225 0
M  V30 4079 H 386.074 -3.6092 -1.56526 0
M  V30 4080 H 388.089 -4.16352 -2.69936 0
M  V30 4081 N 387.262 0.0317525 -1.57568 0
M  V30 4082 C 388.487 0.738664 -1.938 0
M  V30 4083 C 388.912 1.68242 -0.841208 0
M  V30 4084 O 388.27 1.80157 0.203267 0
M  V30 4085 C 388.318 1.47417 -3.29091 0
M  V30 4086 O 387.422 2.5872 -3.2115 0
M  V30 4087 H 386.763 0.198856 -0.633524 0
M  V30 4088 H 389.293 -0.0119713 -2.04596 0
M  V30 4089 H 389.303 1.84468 -3.63917 0
M  V30 4090 H 387.978 0.781988 -4.08482 0
M  V30 4091 H 386.555 2.24231 -2.97951 0
M  V30 4092 N 388.74 1.54641 0.303973 0
M  V30 4093 C 389.69 1.8177 1.37636 0
M  V30 4094 C 390.674 0.674697 1.46071 0
M  V30 4095 O 391.866 0.935251 1.50273 0
M  V30 4096 C 388.995 2.06584 2.74186 0
M  V30 4097 C 388.081 3.2706 2.69986 0
M  V30 4098 N 388.472 4.47682 2.35402 0
M  V30 4099 C 386.77 3.29028 3.01092 0
M  V30 4100 C 387.471 5.29689 2.40426 0
M  V30 4101 N 386.447 4.67339 2.7766 0
M  V30 4102 H 390.249 2.72596 1.09857 0
M  V30 4103 H 387.763 1.541 0.51254 0
M  V30 4104 H 389.76 2.24166 3.51504 0
M  V30 4105 H 388.42 1.17024 3.02879 0
M  V30 4106 H 389.431 4.74336 2.07908 0
M  V30 4107 H 386.108 2.49565 3.34699 0
M  V30 4108 H 387.498 6.3606 2.16512 0
M  V30 4109 N 390.218 -0.567019 1.47046 0
M  V30 4110 C 391.181 -1.65696 1.58359 0
M  V30 4111 C 392.181 -1.54097 0.459441 0
M  V30 4112 O 393.371 -1.58432 0.724225 0
M  V30 4113 C 390.503 -3.05197 1.51879 0
M  V30 4114 H 391.696 -1.57019 2.5551 0
M  V30 4115 H 389.249 -0.786148 1.3509 0
M  V30 4116 H 389.984 -3.19417 0.560673 0
M  V30 4117 H 389.769 -3.15025 2.33455 0
M  V30 4118 H 391.259 -3.84511 1.62913 0
M  V30 4119 N 391.696 -1.35014 -0.812953 0
M  V30 4120 C 393.107 -1.25035 -1.38648 0
M  V30 4121 C 393.458 0.119967 -1.95833 0
M  V30 4122 O 392.583 1.02069 -1.90816 0
M  V30 4123 C 393.178 -2.26394 -2.52054 0
M  V30 4124 C 391.737 -2.20175 -3.05287 0
M  V30 4125 C 390.884 -2.12451 -1.78213 0
M  V30 4126 H 393.835 -1.46235 -0.616516 0
M  V30 4127 H 393.856 -1.88672 -3.30429 0
M  V30 4128 H 393.368 -3.26116 -2.10404 0
M  V30 4129 H 391.469 -1.23841 -3.51417 0
M  V30 4130 H 391.582 -3.11863 -3.63701 0
M  V30 4131 H 389.946 -1.58328 -1.9951 0
M  V30 4132 H 390.729 -3.14024 -1.38723 0
M  V30 4133 N 393.175 1.03435 -1.18907 0
M  V30 4134 C 394.105 2.13503 -0.945448 0
M  V30 4135 C 395.086 1.69682 0.119189 0
M  V30 4136 O 396.271 1.94169 -0.034707 0
M  V30 4137 C 393.401 3.44004 -0.477316 0
M  V30 4138 C 392.355 4.0148 -1.48316 0
M  V30 4139 C 391.681 5.27537 -0.872311 0
M  V30 4140 C 392.981 4.36921 -2.86177 0
M  V30 4141 H 394.675 2.34141 -1.86597 0
M  V30 4142 H 392.221 1.12523 -0.898584 0
M  V30 4143 H 394.174 4.20372 -0.294204 0
M  V30 4144 H 392.898 3.23072 0.478786 0
M  V30 4145 H 391.557 3.27201 -1.65332 0
M  V30 4146 H 391.205 5.02917 0.0911752 0
M  V30 4147 H 390.905 5.66954 -1.54393 0
M  V30 4148 H 392.429 6.06576 -0.699871 0
M  V30 4149 H 393.843 5.04248 -2.72776 0
M  V30 4150 H 392.24 4.87405 -3.50081 0
M  V30 4151 H 393.31 3.46466 -3.39248 0
M  V30 4152 N 394.653 0.992116 1.22453 0
M  V30 4153 C 395.899 0.678177 1.91761 0
M  V30 4154 C 396.254 -0.781141 1.75829 0
M  V30 4155 O 395.547 -1.55747 1.11595 0
M  V30 4156 C 395.741 1.01832 3.42586 0
M  V30 4157 C 395.57 2.50916 3.73191 0
M  V30 4158 C 394.34 3.17308 3.93248 0
M  V30 4159 C 396.538 3.49032 3.77732 0
M  V30 4160 N 394.52 4.55876 4.11157 0
M  V30 4161 C 395.891 4.73055 4.00773 0
M  V30 4162 C 397.946 3.43349 3.60577 0
M  V30 4163 C 396.649 5.92089 4.0844 0
M  V30 4164 C 398.675 4.61759 3.69503 0
M  V30 4165 C 398.037 5.84582 3.92993 0
M  V30 4166 H 394.136 0.299425 0.722405 0
M  V30 4167 H 396.72 1.27197 1.47408 0
M  V30 4168 H 394.891 0.453118 3.85748 0
M  V30 4169 H 396.623 0.660454 3.99274 0
M  V30 4170 H 393.378 2.67778 3.9063 0
M  V30 4171 H 393.802 5.27748 4.24042 0
M  V30 4172 H 398.444 2.49408 3.41402 0
M  V30 4173 H 396.162 6.86435 4.26418 0
M  V30 4174 H 399.748 4.58951 3.57569 0
M  V30 4175 H 398.628 6.74676 3.99728 0
M  V30 4176 N 396.131 -1.37776 0.765217 0
M  V30 4177 C 397.061 -2.32945 0.160953 0
M  V30 4178 C 398.042 -1.55454 -0.690516 0
M  V30 4179 O 399.227 -1.83721 -0.629318 0
M  V30 4180 C 396.357 -3.39669 -0.724031 0
M  V30 4181 C 395.311 -4.27992 0.0256173 0
M  V30 4182 C 394.637 -5.25673 -0.978383 0
M  V30 4183 C 395.937 -5.08309 1.20082 0
M  V30 4184 H 397.631 -2.83728 0.955969 0
M  V30 4185 H 395.177 -1.36416 0.461149 0
M  V30 4186 H 397.13 -4.05219 -1.15652 0
M  V30 4187 H 395.854 -2.87396 -1.5515 0
M  V30 4188 H 394.513 -3.63964 0.438812 0
M  V30 4189 H 394.161 -4.69682 -1.80022 0
M  V30 4190 H 393.861 -5.85625 -0.481378 0
M  V30 4191 H 395.385 -5.94098 -1.40995 0
M  V30 4192 H 396.799 -5.67034 0.845307 0
M  V30 4193 H 395.196 -5.77554 1.62947 0
M  V30 4194 H 396.266 -4.41365 2.00811 0
M  V30 4195 N 397.609 -0.515225 -1.4894 0
M  V30 4196 C 398.542 0.302518 -2.26186 0
M  V30 4197 C 399.52 0.957895 -1.31389 0
M  V30 4198 O 400.704 0.985198 -1.60705 0
M  V30 4199 C 397.831 1.42719 -3.07163 0
M  V30 4200 C 396.877 0.884736 -4.17223 0
M  V30 4201 S 397.71 -0.235767 -5.34981 0
M  V30 4202 C 398.866 0.891731 -6.19515 0
M  V30 4203 H 399.099 -0.353076 -2.95196 0
M  V30 4204 H 396.632 -0.300753 -1.51443 0
M  V30 4205 H 398.59 2.07152 -3.54398 0
M  V30 4206 H 397.251 2.05445 -2.37595 0
M  V30 4207 H 396.444 1.72801 -4.73451 0
M  V30 4208 H 396.046 0.317362 -3.72651 0
M  V30 4209 H 398.338 1.79377 -6.53322 0
M  V30 4210 H 399.281 0.367751 -7.07144 0
M  V30 4211 H 399.689 1.16548 -5.52338 0
M  V30 4212 N 399.087 1.5561 -0.249682 0
M  V30 4213 C 400.317 2.03116 0.377803 0
M  V30 4214 C 400.725 1.12822 1.51881 0
M  V30 4215 O 400.068 0.13562 1.83199 0
M  V30 4216 C 400.13 3.46866 0.944693 0
M  V30 4217 C 399.794 4.56955 -0.0644259 0
M  V30 4218 C 400.791 5.12485 -0.874957 0
M  V30 4219 C 398.476 5.01936 -0.19132 0
M  V30 4220 C 400.47 6.11491 -1.79881 0
M  V30 4221 C 398.157 6.00773 -1.11868 0
M  V30 4222 C 399.155 6.5543 -1.92095 0
M  V30 4223 O 398.843 7.5234 -2.83267 0
M  V30 4224 H 398.575 0.669489 0.0935961 0
M  V30 4225 H 401.129 2.02004 -0.371966 0
M  V30 4226 H 399.359 3.45136 1.74407 0
M  V30 4227 H 401.048 3.77856 1.48255 0
M  V30 4228 H 401.814 4.78564 -0.787523 0
M  V30 4229 H 397.693 4.59055 0.423072 0
M  V30 4230 H 401.237 6.54078 -2.42543 0
M  V30 4231 H 397.134 6.34114 -1.20703 0
M  V30 4232 H 397.902 7.69966 -2.7766 0
M  V30 4233 N 400.565 -0.0233959 1.57583 0
M  V30 4234 C 401.495 -1.02162 2.09965 0
M  V30 4235 C 402.476 -1.3735 1.00344 0
M  V30 4236 O 403.661 -1.46135 1.27899 0
M  V30 4237 C 400.791 -2.32081 2.58371 0
M  V30 4238 C 399.745 -2.1112 3.72307 0
M  V30 4239 C 399.071 -3.46848 4.06941 0
M  V30 4240 C 400.371 -1.49276 5.00514 0
M  V30 4241 H 402.065 -0.585557 2.93618 0
M  V30 4242 H 399.611 -0.280218 1.41247 0
M  V30 4243 H 401.564 -3.02249 2.93639 0
M  V30 4244 H 400.288 -2.77758 1.71808 0
M  V30 4245 H 398.947 -1.43384 3.37397 0
M  V30 4246 H 398.595 -3.90184 3.17436 0
M  V30 4247 H 398.295 -3.33646 4.83688 0
M  V30 4248 H 399.819 -4.18369 4.44747 0
M  V30 4249 H 401.233 -2.09368 5.33702 0
M  V30 4250 H 399.63 -1.46632 5.8191 0
M  V30 4251 H 400.7 -0.459217 4.82721 0
M  V30 4252 N 402.043 -1.548 -0.295768 0
M  V30 4253 C 403.006 -1.85363 -1.34808 0
M  V30 4254 C 404.006 -0.726817 -1.43436 0
M  V30 4255 O 405.196 -0.995088 -1.42981 0
M  V30 4256 C 402.328 -2.03859 -2.73229 0
M  V30 4257 H 403.521 -2.7941 -1.08949 0
M  V30 4258 H 401.074 -1.46942 -0.532702 0
M  V30 4259 H 401.809 -1.12117 -3.04303 0
M  V30 4260 H 401.594 -2.8588 -2.68356 0
M  V30 4261 H 403.084 -2.28857 -3.49305 0
M  V30 4262 N 403.521 0.559213 -1.47345 0
M  V30 4263 C 404.77 1.31281 -1.53128 0
M  V30 4264 C 405.083 1.94602 -0.197344 0
M  V30 4265 O 406.289 2.71173 -0.133154 0
M  V30 4266 C 404.745 2.38051 -2.69925 0
M  V30 4267 C 404.353 1.8093 -4.0984 0
M  V30 4268 C 406.097 3.14604 -2.84999 0
M  V30 4269 C 404.004 2.85468 -5.1794 0
M  V30 4270 H 402.934 0.493614 -0.569966 0
M  V30 4271 H 405.585 0.594155 -1.73615 0
M  V30 4272 H 403.967 3.12822 -2.42814 0
M  V30 4273 H 405.141 1.12544 -4.46845 0
M  V30 4274 H 403.456 1.16967 -3.99634 0
M  V30 4275 H 406.053 3.92666 -3.62929 0
M  V30 4276 H 406.396 3.68665 -1.93369 0
M  V30 4277 H 406.929 2.46945 -3.1187 0
M  V30 4278 H 403.668 2.36264 -6.1144 0
M  V30 4279 H 403.188 3.52269 -4.85455 0
M  V30 4280 H 404.867 3.48996 -5.44803 0
M  V30 4281 N 404.999 1.35443 0.805782 0
M  V30 4282 C 406.245 1.28952 1.56522 0
M  V30 4283 C 406.578 -0.135597 1.93726 0
M  V30 4284 O 405.853 -1.08516 1.61414 0
M  V30 4285 C 406.136 2.19678 2.85331 0
M  V30 4286 C 405.989 3.7081 2.54598 0
M  V30 4287 C 407.308 2.09495 3.8704 0
M  V30 4288 H 404.427 0.469764 0.567883 0
M  V30 4289 H 407.069 1.65851 0.927001 0
M  V30 4290 H 405.219 1.8834 3.39795 0
M  V30 4291 H 406.891 4.12593 2.06312 0
M  V30 4292 H 405.134 3.91051 1.8778 0
M  V30 4293 H 405.805 4.29679 3.46525 0
M  V30 4294 H 408.281 2.37045 3.41978 0
M  V30 4295 H 407.157 2.75173 4.74943 0
M  V30 4296 H 407.418 1.07714 4.28777 0
M  V30 4297 N 406.477 -1.02803 1.19454 0
M  V30 4298 C 407.407 -2.12999 0.956758 0
M  V30 4299 C 408.388 -1.69743 -0.110188 0
M  V30 4300 O 409.573 -1.94148 0.0450038 0
M  V30 4301 C 406.703 -3.43746 0.495553 0
M  V30 4302 C 405.657 -4.00688 1.50443 0
M  V30 4303 C 404.983 -5.27067 0.900275 0
M  V30 4304 C 406.283 -4.35397 2.8849 0
M  V30 4305 H 407.977 -2.33148 1.87836 0
M  V30 4306 H 405.523 -1.12045 0.904539 0
M  V30 4307 H 407.476 -4.2021 0.316493 0
M  V30 4308 H 406.2 -3.23321 -0.461646 0
M  V30 4309 H 404.859 -3.2632 1.67065 0
M  V30 4310 H 404.507 -5.02959 -0.064503 0
M  V30 4311 H 404.207 -5.66127 1.57397 0
M  V30 4312 H 405.731 -6.06196 0.73203 0
M  V30 4313 H 407.145 -5.02795 2.75446 0
M  V30 4314 H 405.542 -4.85541 3.52661 0
M  V30 4315 H 406.612 -3.44662 3.41081 0
M  V30 4316 N 407.956 -0.998596 -1.21925 0
M  V30 4317 C 409.181 -0.696015 -1.95372 0
M  V30 4318 C 409.606 0.733826 -1.73195 0
M  V30 4319 O 408.964 1.50242 -1.01474 0
M  V30 4320 C 409.012 -1.01466 -3.4603 0
M  V30 4321 O 408.116 -0.116415 -4.12236 0
M  V30 4322 H 407.457 -0.259938 -0.611006 0
M  V30 4323 H 409.987 -1.33711 -1.54863 0
M  V30 4324 H 409.997 -0.958855 -3.96573 0
M  V30 4325 H 408.672 -2.05653 -3.61497 0
M  V30 4326 H 407.249 -0.228193 -3.72201 0
M  V30 4327 N 409.434 1.37368 -0.772513 0
M  V30 4328 C 410.384 2.27613 -0.132823 0
M  V30 4329 C 411.368 1.46138 0.673247 0
M  V30 4330 O 412.56 1.68686 0.536095 0
M  V30 4331 C 409.689 3.35122 0.744864 0
M  V30 4332 C 408.775 4.24044 -0.0690771 0
M  V30 4333 N 409.166 4.93355 -1.1151 0
M  V30 4334 C 407.464 4.45731 0.154782 0
M  V30 4335 C 408.165 5.59 -1.60917 0
M  V30 4336 N 407.141 5.35737 -0.921222 0
M  V30 4337 H 410.943 2.78675 -0.933681 0
M  V30 4338 H 408.457 1.50494 -0.610342 0
M  V30 4339 H 410.454 3.98683 1.21892 0
M  V30 4340 H 409.114 2.85616 1.54446 0
M  V30 4341 H 410.125 4.95785 -1.49726 0
M  V30 4342 H 406.802 4.07096 0.926224 0
M  V30 4343 H 408.192 6.24395 -2.48153 0
M  V30 4344 N 410.912 0.523116 1.48665 0
M  V30 4345 C 412.14 -0.0096312 2.06898 0
M  V30 4346 C 412.555 -1.28784 1.38059 0
M  V30 4347 O 411.912 -1.76453 0.465893 0
M  V30 4348 C 411.963 -0.244386 3.60673 0
M  V30 4349 O 411.684 0.983172 4.26925 0
M  V30 4350 C 413.185 -0.818289 4.35682 0
M  V30 4351 H 410.405 0.0304161 0.67031 0
M  V30 4352 H 412.949 0.726799 1.91149 0
M  V30 4353 H 411.104 -0.930847 3.76051 0
M  V30 4354 H 411.518 0.759653 5.1897 0
M  V30 4355 H 412.992 -0.93201 5.44075 0
M  V30 4356 H 413.469 -1.82153 3.99646 0
M  V30 4357 H 414.075 -0.168609 4.24966 0
M  V30 4358 N 412.39 -1.55475 0.257931 0
M  V30 4359 C 413.338 -2.23244 -0.653076 0
M  V30 4360 C 414.332 -1.22366 -1.17144 0
M  V30 4361 O 415.538 -1.40347 -1.12706 0
M  V30 4362 H 411.913 -0.716247 -0.229117 0
M  V30 4363 H 413.884 -2.98343 -0.0584788 0
M  V30 4364 C 412.633 -2.95401 -1.83395 0
M  V30 4365 H 411.956 -3.72802 -1.44424 0
M  V30 4366 H 413.396 -3.46165 -2.44838 0
M  V30 4367 C 411.855 -1.99895 -2.71189 0
M  V30 4368 O 412.385 -1.53909 -3.71046 0
M  V30 4369 N 410.591 -1.6676 -2.3799 0
M  V30 4370 H 410.138 -2.04352 -1.56837 0
M  V30 4371 H 410.096 -1.03127 -2.97005 0
M  V30 4372 N 413.868 0.0150385 -1.57593 0
M  V30 4373 C 415.093 0.718067 -1.94573 0
M  V30 4374 C 415.518 1.6734 -0.859005 0
M  V30 4375 O 414.876 1.80362 0.184147 0
M  V30 4376 C 414.924 1.43918 -3.30636 0
M  V30 4377 O 414.028 2.55299 -3.23876 0
M  V30 4378 H 413.369 0.192125 -0.635597 0
M  V30 4379 H 415.899 -0.0336708 -2.04572 0
M  V30 4380 H 415.909 1.80598 -3.65853 0
M  V30 4381 H 414.584 0.738619 -4.09289 0
M  V30 4382 H 413.161 2.21058 -3.00312 0
M  V30 4383 N 415.346 1.54954 0.287554 0
M  V30 4384 C 416.592 1.75132 1.02257 0
M  V30 4385 C 416.925 0.542858 1.86458 0
M  V30 4386 O 416.2 -0.459856 1.88986 0
M  V30 4387 C 416.483 3.04812 1.91733 0
M  V30 4388 C 416.336 4.35985 1.10622 0
M  V30 4389 C 417.655 3.30438 2.90687 0
M  V30 4390 H 414.774 0.637194 0.370341 0
M  V30 4391 H 417.416 1.87678 0.296111 0
M  V30 4392 H 415.566 2.94247 2.53675 0
M  V30 4393 H 417.238 4.58487 0.508636 0
M  V30 4394 H 415.481 4.31865 0.409271 0
M  V30 4395 H 416.152 5.23017 1.76513 0
M  V30 4396 H 418.628 3.40701 2.38877 0
M  V30 4397 H 417.504 4.22467 3.50447 0
M  V30 4398 H 417.765 2.49377 3.65053 0
M  V30 4399 N 416.824 -0.551391 1.4764 0
M  V30 4400 C 418.07 -1.31024 1.54792 0
M  V30 4401 C 418.403 -1.9304 0.211967 0
M  V30 4402 O 417.678 -1.78175 -0.77999 0
M  V30 4403 C 417.961 -2.41593 2.67029 0
M  V30 4404 C 417.814 -1.84408 4.10261 0
M  V30 4405 C 419.133 -3.43488 2.75143 0
M  V30 4406 H 416.252 -0.475031 0.563485 0
M  V30 4407 H 418.894 -0.616454 1.79722 0
M  V30 4408 H 417.044 -3.00772 2.45904 0
M  V30 4409 H 418.716 -1.29445 4.42766 0
M  V30 4410 H 416.959 -1.15051 4.18265 0
M  V30 4411 H 417.63 -2.64367 4.84576 0
M  V30 4412 H 420.106 -2.94236 2.94218 0
M  V30 4413 H 418.982 -4.18274 3.55441 0
M  V30 4414 H 419.243 -4.02703 1.82435 0
M  V30 4415 N 418.302 -1.35869 -0.798587 0
M  V30 4416 C 419.25 -1.29491 -1.93222 0
M  V30 4417 C 420.244 -0.18836 -1.6835 0
M  V30 4418 O 421.45 -0.354822 -1.76468 0
M  V30 4419 H 417.825 -0.402901 -0.63496 0
M  V30 4420 H 419.796 -2.25247 -1.9572 0
M  V30 4421 C 418.545 -1.09184 -3.30112 0
M  V30 4422 H 417.868 -1.93574 -3.49813 0
M  V30 4423 H 419.308 -1.08766 -4.09812 0
M  V30 4424 C 417.767 0.203959 -3.36282 0
M  V30 4425 O 418.297 1.19699 -3.83451 0
M  V30 4426 N 416.503 0.245488 -2.89561 0
M  V30 4427 H 416.05 -0.563223 -2.51367 0
M  V30 4428 H 416.008 1.11219 -2.94071 0
M  V30 4429 N 419.78 1.02168 -1.19998 0
M  V30 4430 C 421.191 1.57135 -1.00825 0
M  V30 4431 C 421.542 1.91276 0.436818 0
M  V30 4432 O 420.667 1.71679 1.3174 0
M  V30 4433 C 421.262 2.85514 -1.82393 0
M  V30 4434 C 419.821 3.37027 -1.67601 0
M  V30 4435 C 418.968 2.10388 -1.80644 0
M  V30 4436 H 421.919 0.846106 -1.34264 0
M  V30 4437 H 421.94 3.56711 -1.32429 0
M  V30 4438 H 421.452 2.60634 -2.87561 0
M  V30 4439 H 419.553 3.66878 -0.650485 0
M  V30 4440 H 419.666 4.09572 -2.4857 0
M  V30 4441 H 418.03 2.22601 -1.23778 0
M  V30 4442 H 418.813 1.8794 -2.87286 0
M  V30 4443 N 421.258 1.00505 1.21394 0
M  V30 4444 C 422.505 0.687774 1.90462 0
M  V30 4445 C 422.833 -0.78147 1.7811 0
M  V30 4446 O 422.088 -1.58208 1.1519 0
M  V30 4447 C 422.387 1.0546 3.41486 0
M  V30 4448 C 422.053 2.51812 3.74034 0
M  V30 4449 C 420.715 2.91804 3.82628 0
M  V30 4450 C 423.067 3.46614 3.8924 0
M  V30 4451 C 420.395 4.2556 4.03876 0
M  V30 4452 C 422.747 4.80044 4.11995 0
M  V30 4453 C 421.411 5.19759 4.18816 0
M  V30 4454 H 420.681 0.251674 0.696951 0
M  V30 4455 H 423.328 1.26349 1.43903 0
M  V30 4456 H 421.633 0.397133 3.89782 0
M  V30 4457 H 423.33 0.786976 3.93202 0
M  V30 4458 H 419.92 2.1982 3.67936 0
M  V30 4459 H 424.104 3.16883 3.81967 0
M  V30 4460 H 419.36 4.55901 4.07387 0
M  V30 4461 H 423.534 5.53439 4.22704 0
M  V30 4462 H 421.161 6.23418 4.35033 0
M  V30 4463 N 422.737 -1.36956 0.779787 0
M  V30 4464 C 423.986 -1.98738 0.344405 0
M  V30 4465 C 424.299 -1.62596 -1.08728 0
M  V30 4466 O 425.505 -2.1754 -1.62445 0
M  V30 4467 C 423.961 -3.5544 0.564829 0
M  V30 4468 C 423.569 -4.00514 2.0073 0
M  V30 4469 C 425.313 -4.24059 0.193471 0
M  V30 4470 C 423.22 -5.49957 2.17489 0
M  V30 4471 H 422.15 -0.743561 0.12503 0
M  V30 4472 H 424.801 -1.56381 0.960057 0
M  V30 4473 H 423.183 -3.95817 -0.120397 0
M  V30 4474 H 424.357 -3.71362 2.72814 0
M  V30 4475 H 422.672 -3.44703 2.336 0
M  V30 4476 H 425.269 -5.33874 0.297097 0
M  V30 4477 H 425.612 -4.07378 -0.857263 0
M  V30 4478 H 426.145 -3.89012 0.831556 0
M  V30 4479 H 422.884 -5.71574 3.2091 0
M  V30 4480 H 422.404 -5.80767 1.49899 0
M  V30 4481 H 424.083 -6.16043 1.97738 0
M  V30 4482 N 424.215 -0.530993 -1.48385 0
M  V30 4483 C 425.445 -0.00133928 -2.066 0
M  V30 4484 C 425.853 1.28599 -1.38777 0
M  V30 4485 O 425.196 1.77599 -0.469495 0
M  V30 4486 C 425.258 0.292137 -3.58311 0
M  V30 4487 C 424.922 -0.901864 -4.48013 0
M  V30 4488 C 425.919 -1.80053 -4.87726 0
M  V30 4489 C 423.604 -1.10915 -4.89901 0
M  V30 4490 C 425.598 -2.89038 -5.68098 0
M  V30 4491 C 423.285 -2.20213 -5.70043 0
M  V30 4492 C 424.283 -3.09107 -6.0905 0
M  V30 4493 O 423.971 -4.16514 -6.87583 0
M  V30 4494 H 423.703 -0.0308475 -0.675296 0
M  V30 4495 H 426.257 -0.736335 -1.91748 0
M  V30 4496 H 424.487 1.08112 -3.7128 0
M  V30 4497 H 426.176 0.763994 -3.98645 0
M  V30 4498 H 426.942 -1.65234 -4.55986 0
M  V30 4499 H 422.821 -0.426498 -4.59023 0
M  V30 4500 H 426.365 -3.58451 -5.98464 0
M  V30 4501 H 422.262 -2.35016 -6.01197 0
M  V30 4502 H 423.03 -4.14237 -7.05939 0
M  V30 4503 N 425.693 1.55336 -0.266172 0
M  V30 4504 C 426.656 2.20878 0.612001 0
M  V30 4505 C 427.656 1.18388 1.08816 0
M  V30 4506 O 428.846 1.4335 0.989774 0
M  V30 4507 C 425.978 2.86765 1.84332 0
M  V30 4508 H 427.171 2.99873 0.0398718 0
M  V30 4509 H 424.724 1.56291 -0.0167309 0
M  V30 4510 H 425.459 2.11759 2.45619 0
M  V30 4511 H 425.244 3.61862 1.5099 0
M  V30 4512 H 426.734 3.36867 2.46801 0
M  V30 4513 N 427.171 -0.0066808 1.57599 0
M  V30 4514 C 428.401 -0.703066 1.94269 0
M  V30 4515 C 428.809 -1.68206 0.866222 0
M  V30 4516 O 428.152 -1.82966 -0.164087 0
M  V30 4517 C 428.214 -1.49616 3.26887 0
M  V30 4518 C 427.878 -0.679494 4.5192 0
M  V30 4519 C 428.875 0.0299508 5.19891 0
M  V30 4520 C 426.56 -0.627433 4.98366 0
M  V30 4521 C 428.554 0.780514 6.32603 0
M  V30 4522 C 426.241 0.126861 6.10968 0
M  V30 4523 C 427.239 0.829574 6.77943 0
M  V30 4524 O 426.927 1.57157 7.88389 0
M  V30 4525 H 426.659 -0.201217 0.645359 0
M  V30 4526 H 429.213 0.0385326 2.05364 0
M  V30 4527 H 427.443 -2.28209 3.12182 0
M  V30 4528 H 429.132 -2.07726 3.48719 0
M  V30 4529 H 429.898 -0.00115963 4.85 0
M  V30 4530 H 425.777 -1.16392 4.46065 0
M  V30 4531 H 429.321 1.32954 6.84813 0
M  V30 4532 H 425.218 0.159815 6.45302 0
M  V30 4533 H 425.986 1.48758 8.04868 0
M  V30 4534 N 428.649 -1.55105 -0.279332 0
M  V30 4535 C 430.065 -1.46803 -0.626187 0
M  V30 4536 C 430.265 -0.676939 -1.89789 0
M  V30 4537 O 429.321 -0.19326 -2.51759 0
M  V30 4538 C 430.634 -2.90962 -0.759034 0
M  V30 4539 C 432.182 -3.01138 -0.853504 0
M  V30 4540 C 432.657 -4.46539 -1.01818 0
M  V30 4541 N 434.148 -4.50341 -1.08386 0
M  V30 4542 C 434.883 -5.60053 -1.22996 0
M  V30 4543 N 434.379 -6.79645 -1.34366 0
M  V30 4544 N 436.172 -5.47783 -1.26056 0
M  V30 4545 H 428.323 -2.04996 0.555921 0
M  V30 4546 H 430.586 -0.929325 0.187239 0
M  V30 4547 H 430.292 -3.51544 0.104852 0
M  V30 4548 H 430.166 -3.39619 -1.64131 0
M  V30 4549 H 432.553 -2.40658 -1.70786 0
M  V30 4550 H 432.634 -2.55745 0.0532466 0
M  V30 4551 H 432.278 -5.0762 -0.168504 0
M  V30 4552 H 432.208 -4.89583 -1.93948 0
M  V30 4553 H 434.699 -3.64191 -1.00864 0
M  V30 4554 H 435.012 -7.59012 -1.4533 0
M  V30 4555 H 433.357 -6.82469 -1.31382 0
M  V30 4556 H 436.548 -4.53294 -1.168 0
M  V30 4557 H 436.721 -6.33331 -1.37098 0
M  V30 4558 N 430.127 0.543554 -1.4793 0
M  V30 4559 C 431.376 1.29649 -1.54512 0
M  V30 4560 C 431.689 1.94382 -0.217973 0
M  V30 4561 O 432.895 2.71017 -0.161908 0
M  V30 4562 C 431.351 2.35175 -2.72435 0
M  V30 4563 C 430.959 1.76572 -4.11736 0
M  V30 4564 C 432.703 3.11564 -2.8832 0
M  V30 4565 C 430.61 2.79958 -5.20939 0
M  V30 4566 H 429.54 0.487541 -0.57517 0
M  V30 4567 H 432.191 0.575708 -1.74235 0
M  V30 4568 H 430.573 3.10229 -2.46118 0
M  V30 4569 H 431.747 1.07799 -4.48013 0
M  V30 4570 H 430.062 1.12722 -4.00852 0
M  V30 4571 H 432.659 3.88794 -3.67074 0
M  V30 4572 H 433.002 3.66594 -1.97268 0
M  V30 4573 H 433.535 2.43623 -3.14472 0
M  V30 4574 H 430.274 2.29766 -6.13912 0
M  V30 4575 H 429.794 3.47101 -4.89164 0
M  V30 4576 H 431.473 3.43198 -5.48474 0
M  V30 4577 N 431.605 1.3629 0.791371 0
M  V30 4578 C 433.021 1.16661 1.08914 0
M  V30 4579 C 433.221 -0.0106266 2.01497 0
M  V30 4580 O 432.277 -0.676596 2.43266 0
M  V30 4581 C 433.59 2.47656 1.70549 0
M  V30 4582 C 435.138 2.54002 1.82899 0
M  V30 4583 C 435.613 3.85078 2.47949 0
M  V30 4584 N 437.104 3.86413 2.5542 0
M  V30 4585 C 437.839 4.84572 3.06557 0
M  V30 4586 N 437.335 5.93124 3.58016 0
M  V30 4587 N 439.128 4.71994 3.05251 0
M  V30 4588 H 431.279 2.11668 0.176238 0
M  V30 4589 H 433.542 0.937486 0.140796 0
M  V30 4590 H 433.248 3.34059 1.09989 0
M  V30 4591 H 433.122 2.63319 2.70079 0
M  V30 4592 H 435.509 1.68018 2.42598 0
M  V30 4593 H 435.59 2.42239 0.821808 0
M  V30 4594 H 435.234 4.71467 1.88895 0
M  V30 4595 H 435.164 3.94135 3.49235 0
M  V30 4596 H 437.655 3.07988 2.18979 0
M  V30 4597 H 437.968 6.63999 3.95381 0
M  V30 4598 H 436.313 5.96796 3.56173 0
M  V30 4599 H 439.504 3.86321 2.64336 0
M  V30 4600 H 439.677 5.48653 3.44796 0
M  V30 4601 N 433.083 -1.0153 1.20538 0
M  V30 4602 C 433.993 -2.13557 0.971113 0
M  V30 4603 C 435.009 -1.73845 -0.0734366 0
M  V30 4604 O 436.185 -2.01075 0.114299 0
M  V30 4605 C 433.25 -3.42661 0.527639 0
M  V30 4606 C 432.311 -3.96608 1.64319 0
M  V30 4607 C 431.544 -5.1955 1.22078 0
M  V30 4608 O 431.767 -5.70329 0.0900198 0
M  V30 4609 O 430.701 -5.66681 2.02871 0
M  V30 4610 H 434.527 -2.3619 1.90913 0
M  V30 4611 H 432.112 -1.11946 0.989362 0
M  V30 4612 H 433.994 -4.20404 0.289621 0
M  V30 4613 H 432.669 -3.21441 -0.381779 0
M  V30 4614 H 431.576 -3.20139 1.93551 0
M  V30 4615 H 432.909 -4.22219 2.52966 0
M  V30 4616 N 434.561 -1.01147 -1.20859 0
M  V30 4617 C 435.808 -0.697865 -1.90095 0
M  V30 4618 C 436.136 0.772014 -1.78522 0
M  V30 4619 O 435.391 1.57595 -1.16027 0
M  V30 4620 C 435.69 -1.0727 -3.40922 0
M  V30 4621 C 435.356 -2.53792 -3.72693 0
M  V30 4622 C 434.018 -2.93829 -3.81075 0
M  V30 4623 C 436.37 -3.48674 -3.87397 0
M  V30 4624 C 433.698 -4.27696 -4.01613 0
M  V30 4625 C 436.05 -4.82223 -4.09444 0
M  V30 4626 C 434.714 -5.21973 -4.16054 0
M  V30 4627 H 433.984 -0.255367 -0.695607 0
M  V30 4628 H 436.631 -1.27111 -1.43231 0
M  V30 4629 H 434.936 -0.417799 -3.89566 0
M  V30 4630 H 436.633 -0.807818 -3.92779 0
M  V30 4631 H 433.223 -2.21768 -3.66765 0
M  V30 4632 H 437.407 -3.18904 -3.80281 0
M  V30 4633 H 432.663 -4.58055 -4.04964 0
M  V30 4634 H 436.837 -5.55672 -4.19763 0
M  V30 4635 H 434.464 -6.25717 -4.31721 0
M  V30 4636 N 436.039 1.36541 -0.78704 0
M  V30 4637 C 437.455 1.52571 -0.46844 0
M  V30 4638 C 437.655 1.7415 1.01361 0
M  V30 4639 O 436.711 1.77163 1.79915 0
M  V30 4640 C 438.024 2.71299 -1.29682 0
M  V30 4641 C 439.572 2.85169 -1.29027 0
M  V30 4642 C 440.047 4.06898 -2.10233 0
M  V30 4643 N 441.538 4.1404 -2.07666 0
M  V30 4644 C 442.273 5.07301 -2.67271 0
M  V30 4645 N 441.769 6.06021 -3.35724 0
M  V30 4646 N 443.562 4.99898 -2.57018 0
M  V30 4647 H 435.713 1.20788 -1.74711 0
M  V30 4648 H 437.976 0.589364 -0.742532 0
M  V30 4649 H 437.682 2.61868 -2.34773 0
M  V30 4650 H 437.556 3.6539 -0.936479 0
M  V30 4651 H 439.943 2.94062 -0.247284 0
M  V30 4652 H 440.024 1.91992 -1.69035 0
M  V30 4653 H 439.668 3.98766 -3.1456 0
M  V30 4654 H 439.598 4.99218 -1.67597 0
M  V30 4655 H 442.089 3.43357 -1.57843 0
M  V30 4656 H 442.402 6.73741 -3.78541 0
M  V30 4657 H 440.747 6.06253 -3.39826 0
M  V30 4658 H 443.938 4.21724 -2.03142 0
M  V30 4659 H 444.111 5.72392 -3.03761 0
M  V30 4660 N 437.518 0.538854 1.48102 0
M  V30 4661 C 438.45 -0.256278 2.27763 0
M  V30 4662 C 439.463 -0.89633 1.35904 0
M  V30 4663 O 440.652 -0.773275 1.60881 0
M  V30 4664 C 437.752 -1.37896 3.09577 0
M  V30 4665 C 436.925 -0.839159 4.29275 0
M  V30 4666 C 435.984 -1.84405 4.9283 0
M  V30 4667 O 435.01 -1.39746 5.51779 0
M  V30 4668 N 436.212 -3.17666 4.85869 0
M  V30 4669 H 438.977 0.426968 2.96643 0
M  V30 4670 H 436.538 0.373747 1.57527 0
M  V30 4671 H 438.53 -2.04955 3.48963 0
M  V30 4672 H 437.1 -1.96572 2.4306 0
M  V30 4673 H 436.32 0.00769287 3.94199 0
M  V30 4674 H 437.608 -0.457548 5.06739 0
M  V30 4675 H 437.006 -3.56609 4.39143 0
M  V30 4676 H 435.563 -3.80334 5.29329 0
M  V30 4677 N 438.996 -1.55193 0.274407 0
M  V30 4678 C 440.224 -2.03987 -0.345943 0
M  V30 4679 C 440.639 -1.15279 -1.4952 0
M  V30 4680 O 439.996 -0.172759 -1.8168 0
M  V30 4681 C 440.047 -3.51898 -0.827631 0
M  V30 4682 O 439.768 -4.37231 0.275855 0
M  V30 4683 C 441.269 -4.16577 -1.51587 0
M  V30 4684 H 438.489 -0.666335 -0.0789892 0
M  V30 4685 H 441.033 -2.00423 0.406294 0
M  V30 4686 H 439.188 -3.55909 -1.52996 0
M  V30 4687 H 439.602 -5.24415 -0.0943638 0
M  V30 4688 H 441.076 -5.21678 -1.80433 0
M  V30 4689 H 441.553 -3.64707 -2.44716 0
M  V30 4690 H 442.159 -4.16568 -0.857409 0
M  V30 4691 N 440.474 -0.00167713 -1.576 0
M  V30 4692 C 441.721 0.68282 -1.90641 0
M  V30 4693 C 442.049 1.73686 -0.875415 0
M  V30 4694 O 441.304 1.95334 0.119575 0
M  V30 4695 C 441.603 1.36189 -3.30435 0
M  V30 4696 C 441.269 0.440887 -4.48739 0
M  V30 4697 C 439.931 0.187312 -4.80835 0
M  V30 4698 C 442.283 -0.193134 -5.20842 0
M  V30 4699 C 439.611 -0.70855 -5.82406 0
M  V30 4700 C 441.963 -1.07688 -6.23367 0
M  V30 4701 C 440.627 -1.33962 -6.53919 0
M  V30 4702 H 439.897 0.249862 -0.697603 0
M  V30 4703 H 442.544 -0.0575642 -1.91413 0
M  V30 4704 H 440.849 2.17636 -3.25794 0
M  V30 4705 H 442.546 1.89759 -3.5326 0
M  V30 4706 H 439.136 0.648694 -4.23663 0
M  V30 4707 H 443.32 -0.0102445 -4.96299 0
M  V30 4708 H 438.576 -0.920097 -6.04437 0
M  V30 4709 H 442.75 -1.57451 -6.78367 0
M  V30 4710 H 440.377 -2.03549 -7.32442 0
M  V30 4711 N 441.952 1.55251 0.271103 0
M  V30 4712 C 443.368 1.47133 0.618393 0
M  V30 4713 C 443.568 0.686994 1.89427 0
M  V30 4714 O 442.624 0.206609 2.51653 0
M  V30 4715 C 443.937 2.91361 0.743593 0
M  V30 4716 C 445.485 3.01587 0.837522 0
M  V30 4717 C 445.96 4.47073 0.994483 0
M  V30 4718 N 447.451 4.50909 1.05996 0
M  V30 4719 C 448.186 5.60698 1.20024 0
M  V30 4720 N 447.682 6.80348 1.30759 0
M  V30 4721 N 449.475 5.48444 1.23149 0
M  V30 4722 H 441.626 2.04698 -0.566784 0
M  V30 4723 H 443.889 0.928319 -0.192165 0
M  V30 4724 H 443.595 3.51483 -0.123493 0
M  V30 4725 H 443.469 3.40484 1.62328 0
M  V30 4726 H 445.856 2.4156 1.69507 0
M  V30 4727 H 445.937 2.55713 -0.0668086 0
M  V30 4728 H 445.581 5.07703 0.141582 0
M  V30 4729 H 445.511 4.90605 1.91349 0
M  V30 4730 H 448.002 3.6472 0.989316 0
M  V30 4731 H 448.315 7.59772 1.41303 0
M  V30 4732 H 446.66 6.83156 1.27761 0
M  V30 4733 H 449.851 4.53907 1.14394 0
M  V30 4734 H 450.024 6.34049 1.33738 0
M  V30 4735 N 443.43 -0.535701 1.48216 0
M  V30 4736 C 444.377 -1.64083 1.62312 0
M  V30 4737 C 445.347 -1.59448 0.465365 0
M  V30 4738 O 446.532 -1.77959 0.688135 0
M  V30 4739 C 443.672 -3.0236 1.66349 0
M  V30 4740 C 442.785 -3.17273 2.93193 0
M  V30 4741 C 441.92 -4.46075 2.88427 0
M  V30 4742 C 440.959 -4.54496 4.1 0
M  V30 4743 N 440.096 -5.7468 4.03345 0
M  V30 4744 H 444.936 -1.51374 2.5669 0
M  V30 4745 H 442.473 -0.737059 1.27302 0
M  V30 4746 H 444.431 -3.82461 1.66672 0
M  V30 4747 H 443.061 -3.13854 0.754672 0
M  V30 4748 H 442.113 -2.30462 3.02641 0
M  V30 4749 H 443.425 -3.19357 3.83162 0
M  V30 4750 H 442.579 -5.3446 2.87119 0
M  V30 4751 H 441.318 -4.46504 1.96177 0
M  V30 4752 H 440.323 -3.64519 4.11589 0
M  V30 4753 H 441.548 -4.5581 5.03402 0
M  V30 4754 H 439.494 -5.76017 3.13912 0
M  V30 4755 H 439.411 -5.78234 4.87013 0
M  V30 4756 H 440.679 -6.65367 4.06087 0
M  V30 4757 N 444.908 -1.36708 -0.784132 0
M  V30 4758 C 446.157 -1.30559 -1.53744 0
M  V30 4759 C 446.47 0.111374 -1.95283 0
M  V30 4760 O 447.676 0.29527 -2.6989 0
M  V30 4761 C 446.132 -2.29098 -2.77565 0
M  V30 4762 C 445.74 -3.76258 -2.43174 0
M  V30 4763 C 447.484 -2.31936 -3.55536 0
M  V30 4764 C 445.391 -4.6656 -3.63422 0
M  V30 4765 H 444.321 -0.48518 -0.577162 0
M  V30 4766 H 446.972 -1.62101 -0.859981 0
M  V30 4767 H 445.354 -1.90557 -3.47137 0
M  V30 4768 H 446.528 -4.23565 -1.81465 0
M  V30 4769 H 444.843 -3.76246 -1.78403 0
M  V30 4770 H 447.44 -2.9661 -4.44889 0
M  V30 4771 H 447.783 -1.3294 -3.94503 0
M  V30 4772 H 448.316 -2.6912 -2.92949 0
M  V30 4773 H 445.055 -5.66638 -3.29547 0
M  V30 4774 H 444.575 -4.23966 -4.24279 0
M  V30 4775 H 446.254 -4.8309 -4.30387 0
M  V30 4776 N 446.386 1.0089 -1.21074 0
M  V30 4777 C 447.635 1.74019 -1.01981 0
M  V30 4778 C 447.948 1.90408 0.447665 0
M  V30 4779 O 449.154 2.60707 0.757906 0
M  V30 4780 C 447.61 3.13026 -1.77603 0
M  V30 4781 C 447.218 3.04623 -3.28495 0
M  V30 4782 C 448.962 3.90312 -1.66904 0
M  V30 4783 C 446.869 4.38685 -3.96623 0
M  V30 4784 H 445.799 0.652422 -0.377971 0
M  V30 4785 H 448.45 1.12755 -1.44771 0
M  V30 4786 H 446.832 3.74878 -1.27604 0
M  V30 4787 H 448.006 2.52032 -3.85767 0
M  V30 4788 H 446.321 2.40827 -3.39693 0
M  V30 4789 H 448.918 4.8951 -2.15138 0
M  V30 4790 H 449.261 4.11558 -0.62658 0
M  V30 4791 H 449.794 3.35104 -2.14359 0
M  V30 4792 H 446.533 4.22641 -5.01054 0
M  V30 4793 H 446.053 4.91252 -3.4414 0
M  V30 4794 H 447.732 5.075 -4.01314 0
M  V30 4795 N 447.864 1.01787 1.20321 0
M  V30 4796 C 449.28 0.732951 1.41774 0
M  V30 4797 C 449.48 -0.686883 1.89431 0
M  V30 4798 O 448.536 -1.45446 2.06402 0
M  V30 4799 C 449.849 1.75973 2.43832 0
M  V30 4800 C 451.397 1.77802 2.57596 0
M  V30 4801 C 451.872 2.7941 3.62897 0
M  V30 4802 N 453.363 2.78157 3.70382 0
M  V30 4803 C 454.098 3.53434 4.51521 0
M  V30 4804 N 453.594 4.38392 5.36455 0
M  V30 4805 N 455.387 3.42026 4.46066 0
M  V30 4806 H 447.538 1.93447 0.877035 0
M  V30 4807 H 449.801 0.835712 0.447536 0
M  V30 4808 H 449.507 2.77699 2.15815 0
M  V30 4809 H 449.381 1.57292 3.4284 0
M  V30 4810 H 451.768 0.767602 2.84942 0
M  V30 4811 H 451.849 2.00557 1.58779 0
M  V30 4812 H 451.493 3.80616 3.36295 0
M  V30 4813 H 451.423 2.53916 4.61339 0
M  V30 4814 H 453.914 2.16531 3.09714 0
M  V30 4815 H 454.227 4.92596 5.95457 0
M  V30 4816 H 452.572 4.4247 5.35953 0
M  V30 4817 H 455.763 2.75075 3.78749 0
M  V30 4818 H 455.936 4.00946 5.09064 0
M  V30 4819 N 449.342 -1.36122 0.79427 0
M  V30 4820 C 450.567 -2.03891 0.379871 0
M  V30 4821 C 450.992 -1.59488 -0.997251 0
M  V30 4822 O 450.35 -0.765652 -1.64339 0
M  V30 4823 C 450.398 -3.57687 0.457442 0
M  V30 4824 O 449.502 -4.08931 -0.5338 0
M  V30 4825 H 448.843 -0.6443 0.160541 0
M  V30 4826 H 451.373 -1.73976 1.07673 0
M  V30 4827 H 451.383 -4.06721 0.322792 0
M  V30 4828 H 450.058 -3.89357 1.46199 0
M  V30 4829 H 448.635 -3.71154 -0.360409 0
M  V30 4830 N 450.82 -0.546701 -1.47814 0
M  V30 4831 C 451.77 0.227042 -2.26867 0
M  V30 4832 C 452.754 0.894844 -1.33721 0
M  V30 4833 O 453.946 0.794887 -1.58147 0
M  V30 4834 C 451.075 1.26299 -3.19223 0
M  V30 4835 C 450.161 0.59913 -4.19847 0
M  V30 4836 N 450.552 -0.324777 -5.04756 0
M  V30 4837 C 448.85 0.854331 -4.37741 0
M  V30 4838 C 449.551 -0.709386 -5.77358 0
M  V30 4839 N 448.527 -0.0666153 -5.43559 0
M  V30 4840 H 452.329 -0.483476 -2.89896 0
M  V30 4841 H 449.843 -0.365893 -1.58224 0
M  V30 4842 H 451.84 1.83116 -3.74532 0
M  V30 4843 H 450.5 1.97471 -2.57751 0
M  V30 4844 H 451.511 -0.698351 -5.1317 0
M  V30 4845 H 448.188 1.55536 -3.87447 0
M  V30 4846 H 449.578 -1.46796 -6.55668 0
M  V30 4847 N 452.299 1.55045 -0.282633 0
M  V30 4848 C 453.545 2.00056 0.332481 0
M  V30 4849 C 453.878 1.1708 1.54939 0
M  V30 4850 O 453.153 0.2427 1.9298 0
M  V30 4851 C 453.436 3.53086 0.70725 0
M  V30 4852 C 453.289 4.46813 -0.517521 0
M  V30 4853 C 454.608 4.12245 1.54084 0
M  V30 4854 H 451.727 0.727268 0.119373 0
M  V30 4855 H 454.369 1.85932 -0.391076 0
M  V30 4856 H 452.519 3.65253 1.32372 0
M  V30 4857 H 454.191 4.46579 -1.15607 0
M  V30 4858 H 452.434 4.18163 -1.1542 0
M  V30 4859 H 453.105 5.51595 -0.211426 0
M  V30 4860 H 455.581 4.03401 1.02013 0
M  V30 4861 H 454.457 5.19515 1.77186 0
M  V30 4862 H 454.718 3.62951 2.52427 0
M  V30 4863 N 453.777 0.010035 1.57597 0
M  V30 4864 C 454.707 -0.976857 2.12084 0
M  V30 4865 C 455.688 -1.35191 1.03235 0
M  V30 4866 O 456.873 -1.43389 1.3097 0
M  V30 4867 C 454.003 -2.26548 2.63236 0
M  V30 4868 C 452.957 -2.03175 3.76701 0
M  V30 4869 C 452.283 -3.38138 4.14206 0
M  V30 4870 C 453.583 -1.38625 5.03568 0
M  V30 4871 H 455.277 -0.523145 2.94794 0
M  V30 4872 H 452.823 -0.250195 1.4181 0
M  V30 4873 H 454.776 -2.95952 2.99984 0
M  V30 4874 H 453.5 -2.74051 1.77661 0
M  V30 4875 H 452.159 -1.36195 3.40362 0
M  V30 4876 H 451.807 -3.83363 3.25641 0
M  V30 4877 H 451.507 -3.23312 4.90656 0
M  V30 4878 H 453.031 -4.08841 4.53521 0
M  V30 4879 H 454.445 -1.98 5.38023 0
M  V30 4880 H 452.842 -1.34256 5.84889 0
M  V30 4881 H 453.912 -0.356722 4.83586 0
M  V30 4882 N 455.255 -1.55392 -0.262866 0
M  V30 4883 C 456.671 -1.47459 -0.610582 0
M  V30 4884 C 456.871 -0.697031 -1.8906 0
M  V30 4885 O 455.927 -0.219952 -2.5154 0
M  V30 4886 C 457.24 -2.91751 -0.728131 0
M  V30 4887 C 458.788 -3.02027 -0.821517 0
M  V30 4888 C 459.263 -4.47594 -0.97076 0
M  V30 4889 N 460.754 -4.51465 -1.03603 0
M  V30 4890 C 461.489 -5.61326 -1.17049 0
M  V30 4891 N 460.985 -6.81032 -1.2715 0
M  V30 4892 N 462.778 -5.49089 -1.20239 0
M  V30 4893 H 454.929 -2.04395 0.577632 0
M  V30 4894 H 457.192 -0.927287 0.197086 0
M  V30 4895 H 456.898 -3.51413 0.142132 0
M  V30 4896 H 456.772 -3.4134 -1.6052 0
M  V30 4897 H 459.159 -2.42456 -1.68224 0
M  V30 4898 H 459.24 -2.55674 0.0803688 0
M  V30 4899 H 458.884 -5.07771 -0.114655 0
M  V30 4900 H 458.814 -4.91613 -1.88745 0
M  V30 4901 H 461.305 -3.6524 -0.96996 0
M  V30 4902 H 461.618 -7.60511 -1.37271 0
M  V30 4903 H 459.963 -6.83824 -1.24136 0
M  V30 4904 H 463.154 -4.54507 -1.11985 0
M  V30 4905 H 463.327 -6.34749 -1.30373 0
M  V30 4906 N 456.733 0.527833 -1.48498 0
M  V30 4907 C 457.665 1.6482 -1.5927 0
M  V30 4908 C 458.678 1.55659 -0.476869 0
M  V30 4909 O 459.867 1.62081 -0.747806 0
M  V30 4910 C 456.967 3.0348 -1.50842 0
M  V30 4911 C 456.14 3.381 -2.77502 0
M  V30 4912 C 455.199 4.5605 -2.62497 0
M  V30 4913 O 454.225 4.59165 -3.36387 0
M  V30 4914 N 455.427 5.54353 -1.72257 0
M  V30 4915 H 458.192 1.56015 -2.55889 0
M  V30 4916 H 455.753 0.715152 -1.45249 0
M  V30 4917 H 457.745 3.80264 -1.38496 0
M  V30 4918 H 456.315 3.06352 -0.621887 0
M  V30 4919 H 455.535 2.50473 -3.04396 0
M  V30 4920 H 456.823 3.58017 -3.61527 0
M  V30 4921 H 456.221 5.54617 -1.11431 0
M  V30 4922 H 454.778 6.30347 -1.65849 0
M  V30 4923 N 458.211 1.37122 0.776871 0
M  V30 4924 C 459.143 1.28342 1.89897 0
M  V30 4925 C 460.156 0.200277 1.61563 0
M  V30 4926 O 461.345 0.456012 1.72577 0
M  V30 4927 C 458.445 0.960427 3.25006 0
M  V30 4928 C 457.618 2.148 3.81025 0
M  V30 4929 C 456.677 1.79608 4.94598 0
M  V30 4930 O 455.703 2.51845 5.10454 0
M  V30 4931 N 456.905 0.737171 5.758 0
M  V30 4932 H 459.67 2.25027 1.97947 0
M  V30 4933 H 457.231 1.3068 0.955739 0
M  V30 4934 H 459.223 0.705942 3.98495 0
M  V30 4935 H 457.793 0.0823066 3.12492 0
M  V30 4936 H 457.013 2.56454 2.99374 0
M  V30 4937 H 458.301 2.9411 4.15183 0
M  V30 4938 H 457.699 0.137637 5.65533 0
M  V30 4939 H 456.256 0.542534 6.49538 0
M  V30 4940 N 459.689 -1.00246 1.21608 0
M  V30 4941 C 460.599 -2.12515 0.993709 0
M  V30 4942 C 461.615 -1.73913 -0.0549939 0
M  V30 4943 O 462.791 -2.00943 0.135619 0
M  V30 4944 C 459.856 -3.42083 0.563953 0
M  V30 4945 C 458.917 -3.94843 1.68516 0
M  V30 4946 C 458.15 -5.18226 1.27582 0
M  V30 4947 O 458.373 -5.70201 0.150506 0
M  V30 4948 O 457.307 -5.64497 2.0887 0
M  V30 4949 H 461.133 -2.34152 1.93407 0
M  V30 4950 H 458.718 -1.10891 1.00118 0
M  V30 4951 H 460.6 -4.20073 0.334194 0
M  V30 4952 H 459.275 -3.21828 -0.347665 0
M  V30 4953 H 458.182 -3.18068 1.96935 0
M  V30 4954 H 459.515 -4.19512 2.5743 0
M  V30 4955 N 461.167 -1.02423 -1.1978 0
M  V30 4956 C 462.578 -0.748389 -1.71044 0
M  V30 4957 C 462.929 0.732398 -1.82017 0
M  V30 4958 O 462.054 1.57116 -1.48807 0
M  V30 4959 C 462.649 -1.35187 -3.1066 0
M  V30 4960 C 461.208 -1.12472 -3.59203 0
M  V30 4961 C 460.355 -1.45283 -2.36195 0
M  V30 4962 H 463.306 -1.19275 -1.04686 0
M  V30 4963 H 463.327 -0.746408 -3.73107 0
M  V30 4964 H 462.839 -2.4296 -3.02642 0
M  V30 4965 H 460.94 -0.0649983 -3.72543 0
M  V30 4966 H 461.053 -1.81016 -4.43588 0
M  V30 4967 H 459.417 -0.872034 -2.39307 0
M  V30 4968 H 460.2 -2.54129 -2.30811 0
M  V30 4969 N 462.645 1.35699 -0.801477 0
M  V30 4970 C 463.892 1.98913 -0.379459 0
M  V30 4971 C 464.22 1.63592 1.05204 0
M  V30 4972 O 463.475 0.888563 1.74365 0
M  V30 4973 C 463.774 3.53828 -0.504041 0
M  V30 4974 C 463.44 4.09002 -1.8981 0
M  V30 4975 C 462.102 4.23783 -2.27951 0
M  V30 4976 C 464.454 4.38939 -2.81038 0
M  V30 4977 C 461.782 4.65816 -3.56696 0
M  V30 4978 C 464.134 4.82409 -4.09224 0
M  V30 4979 C 462.798 4.95395 -4.4737 0
M  V30 4980 H 462.068 0.727874 -0.138854 0
M  V30 4981 H 464.715 1.61994 -1.02128 0
M  V30 4982 H 463.02 3.91175 0.221242 0
M  V30 4983 H 464.717 4.00687 -0.158361 0
M  V30 4984 H 461.307 3.97946 -1.59176 0
M  V30 4985 H 465.491 4.27077 -2.52821 0
M  V30 4986 H 460.747 4.74059 -3.86106 0
M  V30 4987 H 464.921 5.04535 -4.80018 0
M  V30 4988 H 462.548 5.27724 -5.47185 0
M  V30 4989 N 464.123 0.554532 1.47522 0
M  V30 4990 C 465.07 -0.19466 2.29978 0
M  V30 4991 C 466.04 -0.910882 1.38896 0
M  V30 4992 O 467.225 -0.907102 1.67858 0
M  V30 4993 C 464.365 -1.22035 3.22802 0
M  V30 4994 C 463.478 -0.510474 4.28973 0
M  V30 4995 C 462.613 -1.52123 5.08952 0
M  V30 4996 C 461.652 -0.796173 6.069 0
M  V30 4997 N 460.789 -1.75363 6.79847 0
M  V30 4998 H 465.629 0.51461 2.93523 0
M  V30 4999 H 463.166 0.265607 1.44682 0
M  V30 5000 H 465.124 -1.8276 3.7504 0
M  V30 5001 H 463.754 -1.89769 2.61127 0
M  V30 5002 H 462.806 0.211234 3.79813 0
M  V30 5003 H 464.118 0.0576503 4.98767 0
M  V30 5004 H 463.272 -2.20207 5.65326 0
M  V30 5005 H 462.011 -2.12327 4.39054 0
M  V30 5006 H 461.016 -0.101388 5.49707 0
M  V30 5007 H 462.241 -0.199911 6.78806 0
M  V30 5008 H 460.187 -2.3443 6.12682 0
M  V30 5009 H 460.104 -1.23759 7.45801 0
M  V30 5010 H 461.372 -2.4257 7.40797 0
M  V30 5011 N 465.601 -1.54893 0.290851 0
M  V30 5012 C 466.564 -2.21824 -0.576784 0
M  V30 5013 C 467.564 -1.20104 -1.06919 0
M  V30 5014 O 468.754 -1.44906 -0.966843 0
M  V30 5015 C 465.886 -2.89662 -1.79747 0
M  V30 5016 H 467.079 -2.99899 0.00784051 0
M  V30 5017 H 464.632 -1.56245 0.0415934 0
M  V30 5018 H 465.367 -2.15639 -2.42219 0
M  V30 5019 H 465.152 -3.64219 -1.45214 0
M  V30 5020 H 466.642 -3.4075 -2.4141 0
M  V30 5021 N 467.08 -0.0183926 -1.57589 0
M  V30 5022 C 468.043 0.951986 -2.08494 0
M  V30 5023 C 469.043 1.26092 -0.997874 0
M  V30 5024 O 470.233 1.20304 -1.25987 0
M  V30 5025 C 467.365 2.27165 -2.54182 0
M  V30 5026 H 468.558 0.511307 -2.95509 0
M  V30 5027 H 466.111 0.229444 -1.54607 0
M  V30 5028 H 466.846 2.75884 -1.70465 0
M  V30 5029 H 466.631 2.06057 -3.33591 0
M  V30 5030 H 468.121 2.9674 -2.93828 0
M  V30 5031 N 468.558 1.5553 0.254621 0
M  V30 5032 C 469.806 1.7665 0.981793 0
M  V30 5033 C 470.127 0.580963 1.86145 0
M  V30 5034 O 469.397 -0.403537 1.91699 0
M  V30 5035 H 467.977 0.651475 0.365498 0
M  V30 5036 H 470.639 1.92958 0.274426 0
M  V30 5037 H 469.735 2.67486 1.60802 0
M  V30 5038 N 470.036 -0.519951 1.48776 0
M  V30 5039 C 471.264 -1.29971 1.60982 0
M  V30 5040 C 471.679 -1.86803 0.273885 0
M  V30 5041 O 471.036 -1.66904 -0.738193 0
M  V30 5042 C 471.087 -2.44346 2.66415 0
M  V30 5043 O 470.808 -1.89855 3.94825 0
M  V30 5044 C 472.309 -3.36014 2.89153 0
M  V30 5045 H 469.529 -0.394891 0.542496 0
M  V30 5046 H 472.073 -0.626214 1.94676 0
M  V30 5047 H 470.228 -3.07562 2.35552 0
M  V30 5048 H 470.642 -2.64798 4.5275 0
M  V30 5049 H 472.116 -4.12593 3.66703 0
M  V30 5050 H 472.593 -3.91859 1.98351 0
M  V30 5051 H 473.199 -2.78582 3.21359 0
M  V30 5052 N 471.514 -1.37532 -0.769588 0
M  V30 5053 C 472.739 -1.36231 -1.56384 0
M  V30 5054 C 473.164 0.0495849 -1.88035 0
M  V30 5055 O 472.522 1.02723 -1.49391 0
M  V30 5056 C 472.57 -2.20986 -2.84952 0
M  V30 5057 O 471.674 -1.61597 -3.79421 0
M  V30 5058 H 471.015 -0.465387 -0.473615 0
M  V30 5059 H 473.545 -1.81085 -0.952342 0
M  V30 5060 H 473.555 -2.34277 -3.34034 0
M  V30 5061 H 472.23 -3.23612 -2.61243 0
M  V30 5062 H 470.807 -1.57359 -3.38072 0
M  V30 5063 N 472.992 0.995999 -1.22138 0
M  V30 5064 C 473.955 2.06711 -0.990109 0
M  V30 5065 C 474.955 1.60744 0.0422978 0
M  V30 5066 O 476.145 1.73095 -0.195895 0
M  V30 5067 C 473.277 3.37288 -0.49491 0
M  V30 5068 H 474.47 2.28661 -1.94047 0
M  V30 5069 H 472.023 1.16711 -1.03963 0
M  V30 5070 H 472.758 3.21022 0.459948 0
M  V30 5071 H 472.543 3.71986 -1.23971 0
M  V30 5072 H 474.033 4.16103 -0.353253 0
M  V30 5073 N 474.47 1.03057 1.19235 0
M  V30 5074 C 475.886 0.747947 1.40989 0
M  V30 5075 C 476.086 -0.666752 1.90149 0
M  V30 5076 O 475.142 -1.43249 2.07933 0
M  V30 5077 C 476.455 1.7855 2.41951 0
M  V30 5078 C 478.003 1.80524 2.55695 0
M  V30 5079 C 478.478 2.83243 3.59913 0
M  V30 5080 N 479.969 2.8207 3.67411 0
M  V30 5081 C 480.704 3.58204 4.47747 0
M  V30 5082 N 480.2 4.44057 5.31775 0
M  V30 5083 N 481.993 3.46738 4.42413 0
M  V30 5084 H 474.144 1.94367 0.856468 0
M  V30 5085 H 476.407 0.840412 0.438647 0
M  V30 5086 H 476.113 2.79973 2.12857 0
M  V30 5087 H 475.987 1.6092 3.41152 0
M  V30 5088 H 478.374 0.79778 2.84112 0
M  V30 5089 H 478.455 2.02229 1.56643 0
M  V30 5090 H 478.099 3.84161 3.32239 0
M  V30 5091 H 478.029 2.58795 4.5862 0
M  V30 5092 H 480.52 2.19803 3.074 0
M  V30 5093 H 480.833 4.98884 5.90199 0
M  V30 5094 H 479.178 4.48129 5.3123 0
M  V30 5095 H 482.369 2.79077 3.75811 0
M  V30 5096 H 482.542 4.06322 5.04783 0
M  V30 5097 N 475.948 -1.35272 0.808662 0
M  V30 5098 C 477.194 -1.99003 0.390581 0
M  V30 5099 C 477.527 -1.63999 -1.0401 0
M  V30 5100 O 476.802 -0.904368 -1.72196 0
M  V30 5101 C 477.085 -3.55454 0.576566 0
M  V30 5102 C 476.938 -4.00249 2.05233 0
M  V30 5103 C 478.257 -4.401 0.00354277 0
M  V30 5104 H 475.376 -0.722917 0.143388 0
M  V30 5105 H 478.018 -1.6039 1.01858 0
M  V30 5106 H 476.168 -3.88477 0.0419766 0
M  V30 5107 H 477.84 -3.77626 2.64946 0
M  V30 5108 H 476.083 -3.51082 2.54801 0
M  V30 5109 H 476.754 -5.0911 2.13333 0
M  V30 5110 H 479.23 -4.13548 0.460117 0
M  V30 5111 H 478.106 -5.48656 0.163575 0
M  V30 5112 H 478.367 -4.28444 -1.09032 0
M  V30 5113 N 477.426 -0.562348 -1.47226 0
M  V30 5114 C 478.356 0.170627 -2.32876 0
M  V30 5115 C 479.337 0.903748 -1.44106 0
M  V30 5116 O 480.522 0.883206 -1.72954 0
M  V30 5117 C 477.652 1.19786 -3.25989 0
M  V30 5118 C 476.606 0.580875 -4.2404 0
M  V30 5119 C 475.932 1.71311 -5.06514 0
M  V30 5120 C 477.232 -0.468714 -5.20193 0
M  V30 5121 H 478.926 -0.544441 -2.94408 0
M  V30 5122 H 476.472 -0.263271 -1.41573 0
M  V30 5123 H 478.425 1.71884 -3.84752 0
M  V30 5124 H 477.149 1.94294 -2.62521 0
M  V30 5125 H 475.808 0.0811538 -3.6651 0
M  V30 5126 H 475.456 2.44736 -4.39447 0
M  V30 5127 H 475.156 1.30604 -5.72902 0
M  V30 5128 H 476.68 2.23725 -5.68137 0
M  V30 5129 H 478.094 -0.0336028 -5.7329 0
M  V30 5130 H 476.491 -0.794957 -5.94811 0
M  V30 5131 H 477.561 -1.36269 -4.65359 0
M  V30 5132 N 478.904 1.54736 -0.299062 0
M  V30 5133 C 479.867 2.22127 0.565012 0
M  V30 5134 C 480.867 1.20669 1.06281 0
M  V30 5135 O 482.057 1.45417 0.959145 0
M  V30 5136 C 479.189 2.90611 1.78208 0
M  V30 5137 H 480.382 2.99891 -0.0237448 0
M  V30 5138 H 477.935 1.5622 -0.0498788 0
M  V30 5139 H 478.67 2.16921 2.41072 0
M  V30 5140 H 478.455 3.64984 1.43281 0
M  V30 5141 H 479.945 3.42026 2.396 0
M  V30 5142 N 480.382 0.0267497 1.57577 0
M  V30 5143 C 481.345 -0.940916 2.08996 0
M  V30 5144 C 482.345 -1.25561 1.00455 0
M  V30 5145 O 483.535 -1.19634 1.26623 0
M  V30 5146 C 480.667 -2.25814 2.55384 0
M  V30 5147 H 481.86 -0.495628 2.95776 0
M  V30 5148 H 479.413 -0.221241 1.54726 0
M  V30 5149 H 480.148 -2.74976 1.71926 0
M  V30 5150 H 479.933 -2.04285 3.34679 0
M  V30 5151 H 481.423 -2.95178 2.95398 0
M  V30 5152 N 481.861 -1.55662 -0.24637 0
M  V30 5153 C 482.811 -1.86753 -1.30795 0
M  V30 5154 C 483.795 -0.728445 -1.43466 0
M  V30 5155 O 484.987 -0.99038 -1.46699 0
M  V30 5156 C 482.116 -2.16618 -2.66329 0
M  V30 5157 C 481.202 -3.36855 -2.57661 0
M  V30 5158 N 481.593 -4.56111 -2.18624 0
M  V30 5159 C 479.891 -3.39976 -2.88673 0
M  V30 5160 C 480.592 -5.38247 -2.20601 0
M  V30 5161 N 479.568 -4.77322 -2.60124 0
M  V30 5162 H 483.37 -2.76486 -0.996642 0
M  V30 5163 H 480.884 -1.55896 -0.454994 0
M  V30 5164 H 482.881 -2.37057 -3.42942 0
M  V30 5165 H 481.541 -1.28185 -2.98327 0
M  V30 5166 H 482.552 -4.81726 -1.9016 0
M  V30 5167 H 479.229 -2.61815 -3.25206 0
M  V30 5168 H 480.619 -6.43657 -1.92756 0
M  V30 5169 N 483.339 0.512053 -1.4905 0
M  V30 5170 C 484.587 1.26436 -1.57665 0
M  V30 5171 C 484.908 1.93255 -0.260293 0
M  V30 5172 O 484.178 1.82206 0.719564 0
M  V30 5173 H 482.758 0.469658 -0.580888 0
M  V30 5174 H 485.42 0.594398 -1.85615 0
M  V30 5175 H 484.516 2.03417 -2.36702 0
M  V30 5176 N 484.817 1.37938 0.762283 0
M  V30 5177 C 486.042 1.37059 1.55659 0
M  V30 5178 C 486.467 -0.0396123 1.88058 0
M  V30 5179 O 485.825 -1.01929 1.49934 0
M  V30 5180 C 485.873 2.22494 2.83776 0
M  V30 5181 O 484.977 1.63607 3.78559 0
M  V30 5182 H 484.318 0.467892 0.47114 0
M  V30 5183 H 486.848 1.81587 0.942725 0
M  V30 5184 H 486.858 2.36045 3.32786 0
M  V30 5185 H 485.533 3.24993 2.59524 0
M  V30 5186 H 484.11 1.5915 3.37233 0
M  V30 5187 N 486.295 -0.989507 1.22664 0
M  V30 5188 C 487.572 -1.70326 0.961688 0
M  V30 5189 C 487.952 -2.04537 -0.522279 0
M  V30 5190 O 487.3 -1.73136 -1.49118 0
M  V30 5191 C 487.51 -2.95135 1.86269 0
M  V30 5192 C 488.858 -3.67842 2.12078 0
M  V30 5193 O 489.882 -3.0515 1.83745 0
M  V30 5194 O 488.741 -4.80644 2.60083 0
M  V30 5195 H 485.835 -0.743589 0.361946 0
M  V30 5196 H 488.381 -1.04555 1.33665 0
M  V30 5197 H 487.153 -2.66382 2.8663 0
M  V30 5198 H 486.776 -3.68645 1.48952 0
M  V30 5199 N 487.773 -1.03688 -1.18687 0
M  V30 5200 C 489.021 -0.736572 -1.88199 0
M  V30 5201 C 489.342 0.737665 -1.80509 0
M  V30 5202 O 488.612 1.53204 -1.22088 0
M  V30 5203 H 487.192 -0.269466 -0.696704 0
M  V30 5204 H 489.854 -1.31282 -1.44052 0
M  V30 5205 H 488.95 -1.03802 -2.94332 0
M  V30 5206 N 489.251 1.34841 -0.815825 0
M  V30 5207 C 490.161 2.33425 -0.234462 0
M  V30 5208 C 491.177 1.62295 0.627413 0
M  V30 5209 O 492.353 1.94109 0.536987 0
M  V30 5210 C 489.418 3.41471 0.599849 0
M  V30 5211 C 488.479 4.28362 -0.283596 0
M  V30 5212 C 487.712 5.31248 0.51099 0
M  V30 5213 O 487.935 5.43056 1.7449 0
M  V30 5214 O 486.869 6.01812 -0.10297 0
M  V30 5215 H 490.695 2.84962 -1.05024 0
M  V30 5216 H 488.28 1.37774 -0.577809 0
M  V30 5217 H 490.162 4.07464 1.07475 0
M  V30 5218 H 488.837 2.9219 1.39308 0
M  V30 5219 H 487.744 3.65318 -0.805836 0
M  V30 5220 H 489.077 4.81066 -1.041 0
M  V30 5221 N 490.729 0.570148 1.46925 0
M  V30 5222 C 491.661 -0.207909 2.28255 0
M  V30 5223 C 492.674 -0.867301 1.37774 0
M  V30 5224 O 493.863 -0.738976 1.62485 0
M  V30 5225 C 490.963 -1.31298 3.12433 0
M  V30 5226 C 490.136 -0.747915 4.30958 0
M  V30 5227 C 489.195 -1.7391 4.9663 0
M  V30 5228 O 488.221 -1.2801 5.54619 0
M  V30 5229 N 489.423 -3.07288 4.92498 0
M  V30 5230 H 492.188 0.489794 2.95671 0
M  V30 5231 H 489.749 0.407076 1.56699 0
M  V30 5232 H 491.741 -1.97507 3.53232 0
M  V30 5233 H 490.311 -1.91373 2.47175 0
M  V30 5234 H 489.531 0.0913066 3.94094 0
M  V30 5235 H 490.819 -0.349958 5.07595 0
M  V30 5236 H 490.217 -3.47213 4.46609 0
M  V30 5237 H 488.774 -3.69021 5.37277 0
M  V30 5238 N 492.207 -1.54576 0.307264 0
M  V30 5239 C 493.453 -2.0056 -0.300612 0
M  V30 5240 C 493.786 -1.1953 -1.53057 0
M  V30 5241 O 493.061 -0.27337 -1.92569 0
M  V30 5242 C 493.344 -3.54167 -0.650987 0
M  V30 5243 C 493.197 -4.45933 0.588539 0
M  V30 5244 C 494.516 -4.14645 -1.47506 0
M  V30 5245 H 491.635 -0.729075 -0.107788 0
M  V30 5246 H 494.277 -1.85286 0.420606 0
M  V30 5247 H 492.427 -3.67313 -1.26544 0
M  V30 5248 H 494.099 -4.44683 1.22697 0
M  V30 5249 H 492.342 -4.16274 1.22058 0
M  V30 5250 H 493.013 -5.51189 0.299153 0
M  V30 5251 H 495.489 -4.04973 -0.955821 0
M  V30 5252 H 494.365 -5.22269 -1.68899 0
M  V30 5253 H 494.626 -3.66921 -2.4662 0
M  V30 5254 N 493.685 -0.035106 -1.57561 0
M  V30 5255 C 494.91 0.655802 -1.96759 0
M  V30 5256 C 495.335 1.64523 -0.911809 0
M  V30 5257 O 494.693 1.80857 0.126673 0
M  V30 5258 C 494.741 1.33326 -3.35047 0
M  V30 5259 O 493.845 2.44866 -3.31835 0
M  V30 5260 H 493.186 0.171807 -0.641388 0
M  V30 5261 H 495.716 -0.0987369 -2.04362 0
M  V30 5262 H 495.726 1.68867 -3.71413 0
M  V30 5263 H 494.401 0.608033 -4.11431 0
M  V30 5264 H 492.978 2.11392 -3.07193 0
M  V30 5265 N 495.163 1.55791 0.238111 0
M  V30 5266 C 496.093 1.94068 1.29846 0
M  V30 5267 C 497.074 0.806726 1.49753 0
M  V30 5268 O 498.259 1.06772 1.62214 0
M  V30 5269 C 495.389 2.24302 2.65153 0
M  V30 5270 C 494.343 3.40032 2.59927 0
M  V30 5271 C 493.669 3.55829 3.99111 0
M  V30 5272 C 494.969 4.75476 2.16148 0
M  V30 5273 H 496.663 2.82887 0.980563 0
M  V30 5274 H 494.209 1.36105 0.470253 0
M  V30 5275 H 496.162 2.4967 3.39475 0
M  V30 5276 H 494.886 1.32318 2.98596 0
M  V30 5277 H 493.545 3.14687 1.88063 0
M  V30 5278 H 493.193 2.6125 4.29834 0
M  V30 5279 H 492.893 4.3366 3.96501 0
M  V30 5280 H 494.417 3.83528 4.7512 0
M  V30 5281 H 495.831 5.00158 2.80205 0
M  V30 5282 H 494.228 5.56472 2.24631 0
M  V30 5283 H 495.298 4.71946 1.11333 0
M  V30 5284 N 496.642 -0.504142 1.49319 0
M  V30 5285 C 498.058 -0.835039 1.36012 0
M  V30 5286 C 498.258 -1.97674 0.390808 0
M  V30 5287 O 497.314 -2.51867 -0.178655 0
M  V30 5288 C 498.627 -1.17821 2.76656 0
M  V30 5289 C 500.175 -1.2866 2.85334 0
M  V30 5290 C 500.65 -1.66307 4.26739 0
M  V30 5291 N 502.141 -1.73362 4.29534 0
M  V30 5292 C 502.876 -2.0393 5.35911 0
M  V30 5293 N 502.372 -2.32744 6.52535 0
M  V30 5294 N 504.165 -2.05155 5.23324 0
M  V30 5295 H 496.316 0.248764 2.10938 0
M  V30 5296 H 498.579 0.0486962 0.946748 0
M  V30 5297 H 498.285 -0.412682 3.4927 0
M  V30 5298 H 498.159 -2.12239 3.11825 0
M  V30 5299 H 500.546 -2.04285 2.1296 0
M  V30 5300 H 500.627 -0.323004 2.53752 0
M  V30 5301 H 500.271 -0.91234 4.99639 0
M  V30 5302 H 500.201 -2.63761 4.55782 0
M  V30 5303 H 502.692 -1.53268 3.45424 0
M  V30 5304 H 503.005 -2.55248 7.2943 0
M  V30 5305 H 501.35 -2.30207 6.55767 0
M  V30 5306 H 504.541 -1.82119 4.3122 0
M  V30 5307 H 504.714 -2.28644 6.06322 0
M  V30 5308 N 498.12 -1.38341 -0.754957 0
M  V30 5309 C 499.05 -1.38176 -1.88227 0
M  V30 5310 C 500.031 -0.247873 -1.68284 0
M  V30 5311 O 501.216 -0.45075 -1.88896 0
M  V30 5312 C 498.346 -1.20471 -3.25736 0
M  V30 5313 C 497.3 -2.3105 -3.60278 0
M  V30 5314 C 496.626 -1.98452 -4.96509 0
M  V30 5315 C 497.926 -3.73305 -3.65295 0
M  V30 5316 H 499.62 -2.32512 -1.88622 0
M  V30 5317 H 497.166 -1.1192 -0.906082 0
M  V30 5318 H 499.119 -1.18982 -4.04254 0
M  V30 5319 H 497.843 -0.225965 -3.25817 0
M  V30 5320 H 496.502 -2.31723 -2.84078 0
M  V30 5321 H 496.15 -0.990641 -4.93148 0
M  V30 5322 H 495.85 -2.7251 -5.20588 0
M  V30 5323 H 497.374 -1.98578 -5.77407 0
M  V30 5324 H 498.788 -3.7467 -4.3393 0
M  V30 5325 H 497.185 -4.46557 -4.00883 0
M  V30 5326 H 498.255 -4.05719 -2.65556 0
M  V30 5327 N 499.598 0.982988 -1.23187 0
M  V30 5328 C 500.546 2.09616 -1.00817 0
M  V30 5329 C 501.54 1.6932 0.0519995 0
M  V30 5330 O 502.746 1.79715 -0.101284 0
M  V30 5331 H 499.121 0.685628 -0.308899 0
M  V30 5332 H 501.092 2.25652 -1.95253 0
M  V30 5333 C 499.841 3.42249 -0.613243 0
M  V30 5334 H 499.164 3.73705 -1.42073 0
M  V30 5335 H 500.604 4.21086 -0.496208 0
M  V30 5336 C 499.063 3.30002 0.678233 0
M  V30 5337 O 499.593 3.6263 1.72807 0
M  V30 5338 N 497.799 2.83164 0.653165 0
M  V30 5339 H 497.346 2.56811 -0.201492 0
M  V30 5340 H 497.304 2.75352 1.51752 0
M  V30 5341 N 501.076 1.04316 1.18135 0
M  V30 5342 C 502.324 0.746542 1.87806 0
M  V30 5343 C 502.645 -0.728082 1.80898 0
M  V30 5344 O 501.915 -1.52554 1.22899 0
M  V30 5345 H 500.495 0.273157 0.695265 0
M  V30 5346 H 503.157 1.32044 1.43354 0
M  V30 5347 H 502.253 1.05362 2.93778 0
M  V30 5348 N 502.554 -1.34406 0.822964 0
M  V30 5349 C 503.504 -2.26963 0.217208 0
M  V30 5350 C 504.488 -1.48536 -0.618545 0
M  V30 5351 O 505.68 -1.7056 -0.473118 0
M  V30 5352 C 502.809 -3.37655 -0.619973 0
M  V30 5353 C 501.895 -4.23495 0.226411 0
M  V30 5354 N 502.286 -4.88876 1.29744 0
M  V30 5355 C 500.584 -4.45999 0.0107554 0
M  V30 5356 C 501.285 -5.52642 1.81553 0
M  V30 5357 N 500.261 -5.31949 1.11942 0
M  V30 5358 H 504.063 -2.75017 1.03647 0
M  V30 5359 H 501.577 -1.48126 0.665777 0
M  V30 5360 H 503.574 -4.02932 -1.07011 0
M  V30 5361 H 502.234 -2.91151 -1.43739 0
M  V30 5362 H 503.245 -4.89886 1.68024 0
M  V30 5363 H 499.922 -4.10253 -0.774495 0
M  V30 5364 H 501.312 -6.14755 2.71156 0
M  V30 5365 N 504.032 -0.577932 -1.46621 0
M  V30 5366 C 505.443 -0.150071 -1.86096 0
M  V30 5367 C 505.794 1.28563 -1.48209 0
M  V30 5368 O 504.919 1.97036 -0.894754 0
M  V30 5369 C 505.514 -0.265576 -3.37758 0
M  V30 5370 C 504.073 0.10738 -3.76247 0
M  V30 5371 C 503.22 -0.603711 -2.70649 0
M  V30 5372 H 506.171 -0.786438 -1.37844 0
M  V30 5373 H 506.192 0.510352 -3.77062 0
M  V30 5374 H 505.704 -1.3106 -3.65301 0
M  V30 5375 H 503.805 1.15272 -3.54321 0
M  V30 5376 H 503.918 -0.26561 -4.78363 0
M  V30 5377 H 502.282 -0.0444884 -2.54661 0
M  V30 5378 H 503.065 -1.65029 -3.01032 0
M  V30 5379 N 505.51 1.54411 -0.315457 0
M  V30 5380 C 506.921 1.85885 0.174265 0
M  V30 5381 C 507.272 1.23723 1.52273 0
M  V30 5382 O 506.397 0.540246 2.09548 0
M  V30 5383 C 506.992 3.37257 0.322981 0
M  V30 5384 C 505.551 3.68711 0.756922 0
M  V30 5385 C 504.698 2.77013 -0.126195 0
M  V30 5386 H 507.649 1.49374 -0.536007 0
M  V30 5387 H 507.67 3.62539 1.15522 0
M  V30 5388 H 507.182 3.82471 -0.658602 0
M  V30 5389 H 505.283 3.29024 1.74854 0
M  V30 5390 H 505.396 4.75741 0.566291 0
M  V30 5391 H 503.76 2.51588 0.39692 0
M  V30 5392 H 504.543 3.25051 -1.1044 0
M  V30 5393 N 506.988 0.0434614 1.5754 0
M  V30 5394 C 508.236 -0.630786 1.92004 0
M  V30 5395 C 508.557 -1.71836 0.921807 0
M  V30 5396 O 507.827 -1.9587 -0.034522 0
M  V30 5397 H 506.407 -0.235988 0.708745 0
M  V30 5398 H 509.069 0.0946462 1.9467 0
M  V30 5399 H 508.165 -1.07434 2.93026 0
M  V30 5400 N 508.466 -1.55915 -0.229846 0
M  V30 5401 C 509.712 -1.78807 -0.956868 0
M  V30 5402 C 510.045 -0.611687 -1.84315 0
M  V30 5403 O 509.32 0.389398 -1.90562 0
M  V30 5404 C 509.603 -3.11718 -1.80288 0
M  V30 5405 C 509.456 -4.3979 -0.943649 0
M  V30 5406 C 510.775 -3.40999 -2.78222 0
M  V30 5407 H 507.894 -0.6505 -0.346437 0
M  V30 5408 H 510.536 -1.88648 -0.226252 0
M  V30 5409 H 508.686 -3.03459 -2.42579 0
M  V30 5410 H 510.358 -4.60059 -0.338121 0
M  V30 5411 H 508.601 -4.33086 -0.248705 0
M  V30 5412 H 509.272 -5.29208 -1.5698 0
M  V30 5413 H 511.748 -3.49332 -2.26067 0
M  V30 5414 H 510.624 -4.35183 -3.34526 0
M  V30 5415 H 510.885 -2.62754 -3.55546 0
M  V30 5416 N 509.944 0.496216 -1.49584 0
M  V30 5417 C 511.19 1.24918 -1.60521 0
M  V30 5418 C 511.545 1.90197 -0.290352 0
M  V30 5419 O 510.838 1.77967 0.709813 0
M  V30 5420 C 511.032 2.3359 -2.705 0
M  V30 5421 C 510.861 1.78969 -4.12553 0
M  V30 5422 C 509.631 1.60057 -4.79281 0
M  V30 5423 C 511.829 1.29883 -4.97629 0
M  V30 5424 N 509.811 1.00415 -6.05632 0
M  V30 5425 C 511.182 0.824057 -6.14499 0
M  V30 5426 C 513.237 1.18501 -4.83593 0
M  V30 5427 C 511.94 0.246721 -7.18877 0
M  V30 5428 C 513.966 0.621634 -5.88124 0
M  V30 5429 C 513.328 0.157116 -7.04225 0
M  V30 5430 H 509.427 0.446896 -0.641722 0
M  V30 5431 H 512.011 0.555456 -1.86609 0
M  V30 5432 H 510.182 3.00418 -2.46178 0
M  V30 5433 H 511.914 3.00628 -2.70933 0
M  V30 5434 H 508.669 1.84562 -4.36158 0
M  V30 5435 H 509.093 0.725074 -6.73106 0
M  V30 5436 H 513.735 1.53012 -3.94141 0
M  V30 5437 H 511.453 -0.110651 -8.08024 0
M  V30 5438 H 515.039 0.536279 -5.79323 0
M  V30 5439 H 513.919 -0.272009 -7.83728 0
M  V30 5440 N 511.423 1.38739 0.74761 0
M  V30 5441 C 512.386 1.36241 1.84312 0
M  V30 5442 C 513.386 0.261811 1.58654 0
M  V30 5443 O 514.576 0.519031 1.66288 0
M  V30 5444 C 511.708 1.12253 3.21888 0
M  V30 5445 H 512.901 2.33712 1.87933 0
M  V30 5446 H 510.454 1.2412 0.949946 0
M  V30 5447 H 511.189 0.154133 3.23934 0
M  V30 5448 H 510.974 1.91943 3.41907 0
M  V30 5449 H 512.464 1.13215 4.0196 0
M  V30 5450 N 512.901 -0.976442 1.23707 0
M  V30 5451 C 513.849 -2.09078 1.01927 0
M  V30 5452 C 514.843 -1.69345 -0.0430193 0
M  V30 5453 O 516.049 -1.79659 0.110814 0
M  V30 5454 H 512.424 -0.68398 0.312531 0
M  V30 5455 H 514.395 -2.24614 1.96447 0
M  V30 5456 C 513.144 -3.41919 0.631385 0
M  V30 5457 H 512.467 -3.72946 1.44053 0
M  V30 5458 H 513.907 -4.20817 0.518532 0
M  V30 5459 C 512.366 -3.30357 -0.660723 0
M  V30 5460 O 512.896 -3.63542 -1.70881 0
M  V30 5461 N 511.102 -2.83507 -0.638139 0
M  V30 5462 H 510.649 -2.567 0.215108 0
M  V30 5463 H 510.607 -2.76153 -1.50289 0
M  V30 5464 N 514.379 -1.04941 -1.1758 0
M  V30 5465 C 515.627 -0.756492 -1.87408 0
M  V30 5466 C 515.948 0.718478 -1.81281 0
M  V30 5467 O 515.218 1.519 -1.23706 0
M  V30 5468 H 513.798 -0.276841 -0.693807 0
M  V30 5469 H 516.46 -1.32803 -1.42652 0
M  V30 5470 H 515.556 -1.06918 -2.93215 0
M  V30 5471 N 515.857 1.33968 -0.830081 0
M  V30 5472 C 517.082 2.02813 -0.433796 0
M  V30 5473 C 517.507 1.62076 0.954614 0
M  V30 5474 O 516.865 0.808955 1.62252 0
M  V30 5475 C 516.913 3.56348 -0.552115 0
M  V30 5476 O 516.017 4.10202 0.425191 0
M  V30 5477 H 515.358 0.639817 -0.177567 0
M  V30 5478 H 517.888 1.7106 -1.12248 0
M  V30 5479 H 517.898 4.05722 -0.430513 0
M  V30 5480 H 516.573 3.85344 -1.56471 0
M  V30 5481 H 515.15 3.71979 0.261878 0
M  V30 5482 N 517.335 0.585699 1.46312 0
M  V30 5483 C 518.298 -0.135673 2.28798 0
M  V30 5484 C 519.298 -0.815988 1.38558 0
M  V30 5485 O 520.488 -0.667487 1.60904 0
M  V30 5486 C 517.62 -1.20163 3.1902 0
M  V30 5487 H 518.813 0.589257 2.94054 0
M  V30 5488 H 516.366 0.343794 1.52472 0
M  V30 5489 H 517.101 -1.95804 2.58517 0
M  V30 5490 H 516.886 -0.718282 3.85465 0
M  V30 5491 H 518.376 -1.70749 3.81096 0
M  V30 5492 N 518.813 -1.54241 0.323641 0
M  V30 5493 C 520.224 -1.85975 -0.164405 0
M  V30 5494 C 520.575 -1.24529 -1.51615 0
M  V30 5495 O 519.7 -0.551351 -2.09258 0
M  V30 5496 C 520.295 -3.37424 -0.305091 0
M  V30 5497 C 518.854 -3.69107 -0.737358 0
M  V30 5498 C 518.001 -2.76942 0.140884 0
M  V30 5499 H 520.952 -1.49088 0.543922 0
M  V30 5500 H 520.973 -3.63147 -1.13598 0
M  V30 5501 H 520.485 -3.82116 0.678876 0
M  V30 5502 H 518.586 -3.29947 -1.73107 0
M  V30 5503 H 518.699 -4.76035 -0.541053 0
M  V30 5504 H 517.063 -2.51795 -0.383572 0
M  V30 5505 H 517.846 -3.24461 1.12162 0
M  V30 5506 N 520.291 -0.0518155 -1.57515 0
M  V30 5507 C 521.241 0.932017 -2.0808 0
M  V30 5508 C 522.225 1.27141 -0.986098 0
M  V30 5509 O 523.417 1.25373 -1.24943 0
M  V30 5510 C 520.546 2.20665 -2.62986 0
M  V30 5511 C 519.632 1.89462 -3.79427 0
M  V30 5512 N 520.023 1.28621 -4.89173 0
M  V30 5513 C 518.321 2.19327 -3.88345 0
M  V30 5514 C 519.022 1.15062 -5.70207 0
M  V30 5515 N 517.998 1.65372 -5.17835 0
M  V30 5516 H 521.8 0.456964 -2.90326 0
M  V30 5517 H 519.314 0.152619 -1.61681 0
M  V30 5518 H 521.311 2.92044 -2.97516 0
M  V30 5519 H 519.971 2.68776 -1.8218 0
M  V30 5520 H 520.982 0.958341 -5.08956 0
M  V30 5521 H 517.659 2.69955 -3.18482 0
M  V30 5522 H 519.049 0.678243 -6.68468 0
M  V30 5523 N 521.769 1.56035 0.221574 0
M  V30 5524 C 523.18 1.69229 0.788567 0
M  V30 5525 C 523.531 0.653814 1.84986 0
M  V30 5526 O 522.656 -0.195065 2.15519 0
M  V30 5527 C 523.251 3.06809 1.43713 0
M  V30 5528 C 521.81 3.21858 1.95152 0
M  V30 5529 C 520.957 2.65155 0.811685 0
M  V30 5530 H 523.908 1.587 -0.00307894 0
M  V30 5531 H 523.929 3.02666 2.30594 0
M  V30 5532 H 523.441 3.82369 0.664475 0
M  V30 5533 H 521.542 2.51167 2.7522 0
M  V30 5534 H 521.655 4.29073 2.1315 0
M  V30 5535 H 520.019 2.23635 1.21899 0
M  V30 5536 H 520.802 3.43261 0.0516987 0
M  V30 5537 N 523.247 -0.488276 1.49845 0
M  V30 5538 C 524.157 -1.61451 1.70207 0
M  V30 5539 C 525.173 -1.63877 0.584846 0
M  V30 5540 O 526.349 -1.82063 0.861107 0
M  V30 5541 C 523.414 -2.9776 1.77594 0
M  V30 5542 C 522.475 -3.05861 3.01243 0
M  V30 5543 C 521.708 -4.35668 3.08268 0
M  V30 5544 O 521.931 -5.25197 2.22541 0
M  V30 5545 O 520.865 -4.49005 4.00847 0
M  V30 5546 H 524.691 -1.47199 2.65643 0
M  V30 5547 H 522.276 -0.665939 1.33737 0
M  V30 5548 H 524.158 -3.7875 1.84732 0
M  V30 5549 H 522.833 -3.12248 0.8534 0
M  V30 5550 H 521.74 -2.24012 2.99616 0
M  V30 5551 H 523.073 -2.96304 3.9302 0
M  V30 5552 N 524.725 -1.39134 -0.740242 0
M  V30 5553 C 526.141 -1.20623 -1.0451 0
M  V30 5554 C 526.341 -0.0641651 -2.01398 0
M  V30 5555 O 525.397 0.585843 -2.4561 0
M  V30 5556 C 526.71 -2.53815 -1.6124 0
M  V30 5557 C 528.258 -2.60615 -1.73346 0
M  V30 5558 C 528.733 -3.94015 -2.33486 0
M  V30 5559 N 530.224 -3.95627 -2.40902 0
M  V30 5560 C 530.959 -4.95616 -2.88361 0
M  V30 5561 N 530.455 -6.06003 -3.35756 0
M  V30 5562 N 532.248 -4.82998 -2.87523 0
M  V30 5563 H 524.399 -2.12176 -0.0975576 0
M  V30 5564 H 526.662 -0.942066 -0.105904 0
M  V30 5565 H 526.368 -3.37911 -0.975144 0
M  V30 5566 H 526.242 -2.73162 -2.6012 0
M  V30 5567 H 528.629 -1.76906 -2.36195 0
M  V30 5568 H 528.71 -2.45123 -0.731336 0
M  V30 5569 H 528.354 -4.78153 -1.71267 0
M  V30 5570 H 528.284 -4.06825 -3.34366 0
M  V30 5571 H 530.775 -3.15903 -2.07398 0
M  V30 5572 H 531.088 -6.78215 -3.70464 0
M  V30 5573 H 529.433 -6.09604 -3.33778 0
M  V30 5574 H 532.624 -3.95866 -2.49816 0
M  V30 5575 H 532.797 -5.61072 -3.24196 0
M  V30 5576 N 526.204 0.969867 -1.24223 0
M  V30 5577 C 527.62 1.23809 -1.00716 0
M  V30 5578 C 527.82 1.99469 0.285358 0
M  V30 5579 O 526.876 2.31764 1.00207 0
M  V30 5580 C 528.189 2.02734 -2.2208 0
M  V30 5581 C 529.737 2.15834 -2.26681 0
M  V30 5582 C 530.212 2.98154 -3.47661 0
M  V30 5583 N 531.703 3.05737 -3.47964 0
M  V30 5584 C 532.438 3.69785 -4.38231 0
M  V30 5585 N 531.934 4.35569 -5.3875 0
M  V30 5586 N 533.727 3.66775 -4.25949 0
M  V30 5587 H 525.878 0.463294 -2.07286 0
M  V30 5588 H 528.141 0.267348 -0.909521 0
M  V30 5589 H 527.847 1.54524 -3.15935 0
M  V30 5590 H 527.721 3.0347 -2.24021 0
M  V30 5591 H 530.108 2.63248 -1.33359 0
M  V30 5592 H 530.189 1.14453 -2.28767 0
M  V30 5593 H 529.833 2.51435 -4.41297 0
M  V30 5594 H 529.763 3.99729 -3.42818 0
M  V30 5595 H 532.254 2.58941 -2.75242 0
M  V30 5596 H 532.567 4.82251 -6.03866 0
M  V30 5597 H 530.912 4.34244 -5.42639 0
M  V30 5598 H 534.103 3.14558 -3.46657 0
M  V30 5599 H 534.276 4.16407 -4.96497 0
M  V30 5600 N 527.682 1.05563 1.17022 0
M  V30 5601 C 529.093 0.793475 1.69 0
M  V30 5602 C 529.444 -0.683882 1.83895 0
M  V30 5603 O 528.569 -1.53116 1.5292 0
M  V30 5604 C 529.164 1.43376 3.06967 0
M  V30 5605 C 527.723 1.21956 3.56095 0
M  V30 5606 C 526.87 1.51494 2.3226 0
M  V30 5607 H 529.821 1.22008 1.01487 0
M  V30 5608 H 529.842 0.845068 3.70997 0
M  V30 5609 H 529.354 2.50899 2.96093 0
M  V30 5610 H 527.455 0.163749 3.7224 0
M  V30 5611 H 527.568 1.92713 4.38633 0
M  V30 5612 H 525.932 0.935175 2.3691 0
M  V30 5613 H 526.715 2.60159 2.23992 0
M  V30 5614 N 529.16 -1.33526 0.837174 0
M  V30 5615 C 530.108 -2.31168 0.257698 0
M  V30 5616 C 531.102 -1.5806 -0.609388 0
M  V30 5617 O 532.308 -1.72941 -0.499139 0
M  V30 5618 H 528.683 -0.74922 0.0646058 0
M  V30 5619 H 530.654 -2.77552 1.09578 0
M  V30 5620 C 529.403 -3.4326 -0.553887 0
M  V30 5621 H 528.726 -3.99665 0.104008 0
M  V30 5622 H 530.166 -4.13782 -0.925219 0
M  V30 5623 C 528.625 -2.88965 -1.73207 0
M  V30 5624 O 529.155 -2.85013 -2.83073 0
M  V30 5625 N 527.361 -2.45596 -1.55342 0
M  V30 5626 H 526.908 -2.49009 -0.659705 0
M  V30 5627 H 526.866 -2.0962 -2.34322 0
M  V30 5628 N 530.638 -0.59345 -1.46 0
M  V30 5629 C 531.886 -0.082988 -2.0193 0
M  V30 5630 C 532.207 1.28569 -1.46612 0
M  V30 5631 O 531.477 1.84629 -0.654909 0
M  V30 5632 H 530.057 -0.0276882 -0.746487 0
M  V30 5633 H 532.719 -0.771657 -1.78973 0
M  V30 5634 H 531.815 -0.022079 -3.12092 0
M  V30 5635 N 532.116 1.54067 -0.331816 0
M  V30 5636 C 533.346 2.04833 0.269605 0
M  V30 5637 C 533.754 1.20714 1.45687 0
M  V30 5638 O 533.097 0.232539 1.82222 0
M  V30 5639 C 533.159 3.51386 0.759499 0
M  V30 5640 C 532.823 4.55971 -0.306557 0
M  V30 5641 C 533.82 5.07126 -1.14538 0
M  V30 5642 C 531.505 5.00216 -0.457116 0
M  V30 5643 C 533.499 6.01096 -2.12042 0
M  V30 5644 C 531.186 5.93999 -1.43556 0
M  V30 5645 C 532.184 6.44326 -2.26568 0
M  V30 5646 O 531.872 7.36267 -3.22749 0
M  V30 5647 H 531.604 0.673509 0.0579763 0
M  V30 5648 H 534.158 1.99748 -0.478521 0
M  V30 5649 H 532.388 3.53896 1.55867 0
M  V30 5650 H 534.077 3.85184 1.28017 0
M  V30 5651 H 534.843 4.73716 -1.04009 0
M  V30 5652 H 530.722 4.60652 0.179142 0
M  V30 5653 H 534.266 6.40302 -2.76873 0
M  V30 5654 H 530.163 6.26825 -1.54146 0
M  V30 5655 H 530.931 7.54165 -3.18083 0
M  V30 5656 N 533.594 0.0601682 1.57485 0
M  V30 5657 C 534.557 -0.896373 2.10945 0
M  V30 5658 C 535.557 -1.23402 1.03095 0
M  V30 5659 O 536.747 -1.16921 1.29132 0
M  V30 5660 C 533.879 -2.20346 2.60116 0
M  V30 5661 H 535.072 -0.432778 2.96761 0
M  V30 5662 H 532.625 -0.188372 1.55161 0
M  V30 5663 H 533.36 -2.71268 1.7772 0
M  V30 5664 H 533.145 -1.9714 3.38937 0
M  V30 5665 H 534.635 -2.88846 3.01592 0
M  V30 5666 N 535.072 -1.5615 -0.213296 0
M  V30 5667 C 536.002 -1.96109 -1.26742 0
M  V30 5668 C 536.983 -0.830448 -1.48451 0
M  V30 5669 O 538.168 -1.09339 -1.60495 0
M  V30 5670 C 535.298 -2.28492 -2.61551 0
M  V30 5671 C 534.252 -3.44124 -2.54485 0
M  V30 5672 C 533.578 -3.62134 -3.93399 0
M  V30 5673 C 534.878 -4.78855 -2.08556 0
M  V30 5674 H 536.572 -2.84412 -0.935434 0
M  V30 5675 H 534.118 -1.36836 -0.44854 0
M  V30 5676 H 536.071 -2.55039 -3.3546 0
M  V30 5677 H 534.795 -1.37052 -2.96453 0
M  V30 5678 H 533.454 -3.17639 -1.83033 0
M  V30 5679 H 533.102 -2.68055 -4.25623 0
M  V30 5680 H 532.802 -4.39913 -3.89551 0
M  V30 5681 H 534.326 -3.91038 -4.68958 0
M  V30 5682 H 535.74 -5.04552 -2.72213 0
M  V30 5683 H 534.137 -5.59975 -2.1575 0
M  V30 5684 H 535.207 -4.73657 -1.03811 0
M  V30 5685 N 536.55 0.480323 -1.50102 0
M  V30 5686 C 537.798 1.23063 -1.60312 0
M  V30 5687 C 538.119 1.92659 -0.301226 0
M  V30 5688 O 537.389 1.83691 0.680753 0
M  V30 5689 H 535.969 0.457231 -0.590719 0
M  V30 5690 H 538.631 0.554893 -1.86834 0
M  V30 5691 H 537.727 1.9835 -2.40964 0
M  V30 5692 N 538.028 1.39524 0.732853 0
M  V30 5693 C 538.958 1.41153 1.86005 0
M  V30 5694 C 539.939 0.274614 1.67869 0
M  V30 5695 O 541.124 0.480745 1.88155 0
M  V30 5696 C 538.254 1.25638 3.23778 0
M  V30 5697 C 537.208 2.36752 3.56556 0
M  V30 5698 C 536.534 2.06326 4.93289 0
M  V30 5699 C 537.834 3.79069 3.5931 0
M  V30 5700 H 539.528 2.35484 1.84899 0
M  V30 5701 H 537.074 1.13348 0.888162 0
M  V30 5702 H 539.027 1.25398 4.0231 0
M  V30 5703 H 537.751 0.277772 3.25417 0
M  V30 5704 H 536.41 2.36213 2.80355 0
M  V30 5705 H 536.058 1.06897 4.9151 0
M  V30 5706 H 535.758 2.80757 5.16187 0
M  V30 5707 H 537.282 2.07739 5.74175 0
M  V30 5708 H 538.696 3.81526 4.27914 0
M  V30 5709 H 537.093 4.52878 3.93728 0
M  V30 5710 H 538.163 4.09893 2.59068 0
M  V30 5711 N 539.506 -0.963266 1.24736 0
M  V30 5712 C 540.752 -1.70933 1.09131 0
M  V30 5713 C 541.085 -1.90676 -0.368273 0
M  V30 5714 O 540.36 -1.47147 -1.27193 0
M  V30 5715 C 540.643 -3.09744 1.83658 0
M  V30 5716 C 540.496 -2.97465 3.37394 0
M  V30 5717 C 541.815 -4.09483 1.61282 0
M  V30 5718 H 538.934 -0.620398 0.397838 0
M  V30 5719 H 541.576 -1.12028 1.53459 0
M  V30 5720 H 539.726 -3.60031 1.4598 0
M  V30 5721 H 541.398 -2.54571 3.84696 0
M  V30 5722 H 539.641 -2.33576 3.65547 0
M  V30 5723 H 540.312 -3.95822 3.84745 0
M  V30 5724 H 542.788 -3.68073 1.94066 0
M  V30 5725 H 541.664 -5.04666 2.15878 0
M  V30 5726 H 541.925 -4.38639 0.552102 0
M  V30 5727 N 540.985 -1.06182 -1.16461 0
M  V30 5728 C 542.21 -0.798599 -1.91408 0
M  V30 5729 C 542.635 0.640987 -1.76842 0
M  V30 5730 O 541.993 1.44652 -1.09296 0
M  V30 5731 C 542.041 -1.19665 -3.40165 0
M  V30 5732 O 541.145 -0.334768 -4.11039 0
M  V30 5733 H 540.486 -0.291961 -0.596368 0
M  V30 5734 H 543.016 -1.41732 -1.47557 0
M  V30 5735 H 543.026 -1.16772 -3.90933 0
M  V30 5736 H 541.701 -2.24526 -3.50087 0
M  V30 5737 H 540.278 -0.425168 -3.70468 0
M  V30 5738 N 542.463 1.3308 -0.844243 0
M  V30 5739 C 543.711 1.97215 -0.441676 0
M  V30 5740 C 544.032 1.67185 1.0037 0
M  V30 5741 O 543.302 0.973588 1.69994 0
M  V30 5742 H 541.882 0.72959 -0.160335 0
M  V30 5743 H 544.544 1.62348 -1.07838 0
M  V30 5744 H 543.64 3.06698 -0.57815 0
M  V30 5745 N 543.941 0.601185 1.45683 0
M  V30 5746 C 545.189 0.0936957 2.01883 0
M  V30 5747 C 545.51 -1.2779 1.47291 0
M  V30 5748 O 544.78 -1.84279 0.664691 0
M  V30 5749 H 543.36 0.0316466 0.746329 0
M  V30 5750 H 546.022 0.781137 1.78562 0
M  V30 5751 H 545.118 0.0386297 3.12076 0
M  V30 5752 N 545.419 -1.53889 0.339982 0
M  V30 5753 C 546.644 -2.05741 -0.261798 0
M  V30 5754 C 547.069 -1.21354 -1.43718 0
M  V30 5755 O 546.427 -0.22645 -1.7988 0
M  V30 5756 C 546.475 -3.54542 -0.658228 0
M  V30 5757 O 545.579 -3.7302 -1.75869 0
M  V30 5758 H 544.92 -0.662529 -0.0441672 0
M  V30 5759 H 547.45 -1.98568 0.493161 0
M  V30 5760 H 547.46 -3.9711 -0.936368 0
M  V30 5761 H 546.135 -4.15412 0.201358 0
M  V30 5762 H 544.712 -3.42355 -1.47809 0
M  V30 5763 N 546.897 -0.0685191 -1.57451 0
M  V30 5764 C 547.86 0.885173 -2.11417 0
M  V30 5765 C 548.86 1.22853 -1.03748 0
M  V30 5766 O 550.05 1.16235 -1.2975 0
M  V30 5767 C 547.182 2.18964 -2.61281 0
M  V30 5768 H 548.375 0.417034 -2.96986 0
M  V30 5769 H 545.928 0.18014 -1.55258 0
M  V30 5770 H 546.663 2.70321 -1.79156 0
M  V30 5771 H 546.448 1.9534 -3.39977 0
M  V30 5772 H 547.938 2.87242 -3.0312 0
M  V30 5773 N 548.375 1.56261 0.205012 0
M  V30 5774 C 549.307 1.90266 1.27795 0
M  V30 5775 C 550.32 0.792397 1.42214 0
M  V30 5776 O 551.509 1.07077 1.42817 0
M  V30 5777 C 548.609 2.11074 2.65143 0
M  V30 5778 C 547.782 3.42176 2.7246 0
M  V30 5779 C 546.841 3.52216 3.90936 0
M  V30 5780 O 545.867 4.25119 3.78501 0
M  V30 5781 N 547.069 2.84573 5.05963 0
M  V30 5782 H 549.834 2.82896 0.989434 0
M  V30 5783 H 547.395 1.57008 0.394981 0
M  V30 5784 H 549.387 2.15089 3.4281 0
M  V30 5785 H 547.957 1.2499 2.86524 0
M  V30 5786 H 547.177 3.50116 1.81142 0
M  V30 5787 H 548.465 4.28509 2.74331 0
M  V30 5788 H 547.863 2.25152 5.18963 0
M  V30 5789 H 546.42 2.94228 5.81613 0
M  V30 5790 N 549.853 -0.472356 1.50355 0
M  V30 5791 C 550.763 -1.59637 1.7191 0
M  V30 5792 C 551.779 -1.63247 0.602195 0
M  V30 5793 O 552.955 -1.81139 0.880369 0
M  V30 5794 C 550.02 -2.9586 1.80742 0
M  V30 5795 C 549.081 -3.02649 3.04471 0
M  V30 5796 C 548.314 -4.32374 3.12872 0
M  V30 5797 O 548.537 -5.22807 2.28099 0
M  V30 5798 O 547.471 -4.44728 4.05587 0
M  V30 5799 H 551.297 -1.44373 2.67189 0
M  V30 5800 H 548.882 -0.651717 1.34436 0
M  V30 5801 H 550.764 -3.7677 1.88739 0
M  V30 5802 H 549.439 -3.11325 0.88647 0
M  V30 5803 H 548.346 -2.20821 3.01975 0
M  V30 5804 H 549.679 -2.92119 3.9614 0
M  V30 5805 N 551.331 -1.39911 -0.725443 0
M  V30 5806 C 552.556 -1.41137 -1.5197 0
M  V30 5807 C 552.981 -0.010262 -1.88097 0
M  V30 5808 O 552.339 0.979184 -1.52583 0
M  V30 5809 C 552.387 -2.2994 -2.77777 0
M  V30 5810 O 551.491 -1.73586 -3.74088 0
M  V30 5811 H 550.832 -0.480219 -0.458569 0
M  V30 5812 H 553.362 -1.84023 -0.894249 0
M  V30 5813 H 553.372 -2.44785 -3.26411 0
M  V30 5814 H 552.047 -3.31759 -2.50816 0
M  V30 5815 H 550.624 -1.68035 -3.32894 0
M  V30 5816 N 552.809 0.956637 -1.25245 0
M  V30 5817 C 553.741 2.05628 -1.01242 0
M  V30 5818 C 554.754 1.62785 0.0219579 0
M  V30 5819 O 555.943 1.77184 -0.216365 0
M  V30 5820 C 553.043 3.35069 -0.508161 0
M  V30 5821 C 552.216 4.06761 -1.60823 0
M  V30 5822 C 551.275 5.14473 -1.1047 0
M  V30 5823 O 550.301 5.40033 -1.79868 0
M  V30 5824 N 551.503 5.80474 0.0550773 0
M  V30 5825 H 554.268 2.2679 -1.95925 0
M  V30 5826 H 551.829 1.12505 -1.16423 0
M  V30 5827 H 553.821 4.044 -0.155819 0
M  V30 5828 H 552.391 3.10694 0.344683 0
M  V30 5829 H 551.611 3.31555 -2.13224 0
M  V30 5830 H 552.899 4.51418 -2.34733 0
M  V30 5831 H 552.297 5.62125 0.635004 0
M  V30 5832 H 550.854 6.50868 0.348469 0
M  V30 5833 N 554.287 1.06798 1.15896 0
M  V30 5834 C 555.535 0.786211 1.8618 0
M  V30 5835 C 555.856 -0.689547 1.82401 0
M  V30 5836 O 555.126 -1.49913 1.26107 0
M  V30 5837 H 553.706 0.287843 0.689315 0
M  V30 5838 H 556.368 1.35055 1.40521 0
M  V30 5839 H 555.464 1.1157 2.91477 0
M  V30 5840 N 555.766 -1.3263 0.851289 0
M  V30 5841 C 556.714 -2.30882 0.282202 0
M  V30 5842 C 557.708 -1.58697 -0.592589 0
M  V30 5843 O 558.914 -1.73461 -0.480768 0
M  V30 5844 H 555.289 -0.748492 0.0725487 0
M  V30 5845 H 557.26 -2.76374 1.12516 0
M  V30 5846 C 556.009 -3.43828 -0.517449 0
M  V30 5847 H 555.332 -3.99532 0.146392 0
M  V30 5848 H 556.772 -4.1474 -0.88128 0
M  V30 5849 C 555.231 -2.90786 -1.70133 0
M  V30 5850 O 555.761 -2.88 -2.80034 0
M  V30 5851 N 553.967 -2.4723 -1.52728 0
M  V30 5852 H 553.514 -2.49695 -0.633257 0
M  V30 5853 H 553.472 -2.12094 -2.32085 0
M  V30 5854 N 557.244 -0.608902 -1.45362 0
M  V30 5855 C 558.472 -0.111013 -2.06602 0
M  V30 5856 C 558.887 1.20516 -1.45332 0
M  V30 5857 O 558.244 1.73437 -0.567978 0
M  V30 5858 C 558.295 0.033688 -3.61484 0
M  V30 5859 O 558.016 -1.23041 -4.20467 0
M  V30 5860 C 559.517 0.562882 -4.39712 0
M  V30 5861 H 556.737 -0.0694453 -0.667397 0
M  V30 5862 H 559.281 -0.837008 -1.86586 0
M  V30 5863 H 557.436 0.710016 -3.80838 0
M  V30 5864 H 557.85 -1.06094 -5.13658 0
M  V30 5865 H 559.324 0.613213 -5.48583 0
M  V30 5866 H 559.801 1.58543 -4.09586 0
M  V30 5867 H 560.407 -0.0794454 -4.25226 0
M  V30 5868 N 558.722 1.53707 -0.348139 0
M  V30 5869 C 559.97 2.00591 0.246478 0
M  V30 5870 C 560.291 1.23753 1.50699 0
M  V30 5871 O 559.561 0.345964 1.92821 0
M  V30 5872 H 558.141 0.741053 0.0940679 0
M  V30 5873 H 560.803 1.89139 -0.470354 0
M  V30 5874 H 559.899 3.08297 0.485714 0
M  V30 5875 N 560.2 0.0768682 1.57412 0
M  V30 5876 C 561.13 -0.886026 2.16037 0
M  V30 5877 C 562.111 -1.30691 1.08876 0
M  V30 5878 O 563.296 -1.37705 1.36934 0
M  V30 5879 C 560.426 -2.1518 2.72608 0
M  V30 5880 C 559.38 -1.87015 3.8498 0
M  V30 5881 C 558.706 -3.20266 4.28175 0
M  V30 5882 C 560.006 -1.17143 5.08994 0
M  V30 5883 H 561.7 -0.397642 2.96748 0
M  V30 5884 H 559.246 -0.189823 1.42743 0
M  V30 5885 H 561.199 -2.82962 3.12266 0
M  V30 5886 H 559.923 -2.66269 1.89125 0
M  V30 5887 H 558.582 -1.21636 3.45833 0
M  V30 5888 H 558.23 -3.69207 3.41607 0
M  V30 5889 H 557.93 -3.0221 5.03927 0
M  V30 5890 H 559.454 -3.89237 4.70454 0
M  V30 5891 H 560.868 -1.75003 5.45937 0
M  V30 5892 H 559.265 -1.09328 5.90057 0
M  V30 5893 H 560.335 -0.151295 4.84664 0
M  V30 5894 N 561.678 -1.56367 -0.196722 0
M  V30 5895 C 563.089 -1.70462 -0.761545 0
M  V30 5896 C 563.44 -0.683161 -1.83922 0
M  V30 5897 O 562.565 0.160753 -2.15802 0
M  V30 5898 C 563.16 -3.09057 -1.38814 0
M  V30 5899 C 561.719 -3.24922 -1.90007 0
M  V30 5900 C 560.866 -2.66412 -0.769399 0
M  V30 5901 H 563.817 -1.58675 0.0283263 0
M  V30 5902 H 563.838 -3.06296 -2.2575 0
M  V30 5903 H 563.35 -3.83378 -0.603559 0
M  V30 5904 H 561.451 -2.55514 -2.71189 0
M  V30 5905 H 561.564 -4.3241 -2.06297 0
M  V30 5906 H 559.928 -2.25546 -1.18326 0
M  V30 5907 H 560.711 -3.433 0.00291773 0
M  V30 5908 N 563.156 0.464375 -1.50603 0
M  V30 5909 C 564.433 1.22549 -1.5245 0
M  V30 5910 C 564.813 2.09327 -0.273035 0
M  V30 5911 O 564.161 2.16074 0.743242 0
M  V30 5912 C 564.371 2.05074 -2.82393 0
M  V30 5913 C 565.719 2.63036 -3.33313 0
M  V30 5914 O 566.743 2.1531 -2.8376 0
M  V30 5915 O 565.602 3.5001 -4.19709 0
M  V30 5916 H 562.696 0.556471 -0.611775 0
M  V30 5917 H 565.242 0.475648 -1.62898 0
M  V30 5918 H 564.014 1.41169 -3.64948 0
M  V30 5919 H 563.637 2.87179 -2.7498 0
M  V30 5920 N 564.634 1.40294 0.718013 0
M  V30 5921 C 565.88 1.38645 1.48005 0
M  V30 5922 C 566.213 -0.0121202 1.94196 0
M  V30 5923 O 565.488 -0.980309 1.67989 0
M  V30 5924 C 565.771 2.37379 2.70782 0
M  V30 5925 C 565.624 3.8625 2.30501 0
M  V30 5926 C 566.943 2.33685 3.72933 0
M  V30 5927 H 564.062 0.504928 0.536858 0
M  V30 5928 H 566.704 1.71411 0.819649 0
M  V30 5929 H 564.854 2.09568 3.27129 0
M  V30 5930 H 566.526 4.24879 1.79655 0
M  V30 5931 H 564.769 4.02202 1.6253 0
M  V30 5932 H 565.44 4.50847 3.18498 0
M  V30 5933 H 567.916 2.58314 3.2621 0
M  V30 5934 H 566.792 3.0482 4.56482 0
M  V30 5935 H 567.053 1.34765 4.21059 0
M  V30 5936 N 566.112 -0.949982 1.2575 0
M  V30 5937 C 567.022 -2.08109 1.08295 0
M  V30 5938 C 568.038 -1.7399 0.0188181 0
M  V30 5939 O 569.214 -2.00187 0.220724 0
M  V30 5940 C 566.279 -3.39383 0.708534 0
M  V30 5941 C 565.34 -3.8734 1.85111 0
M  V30 5942 C 564.573 -5.12349 1.49447 0
M  V30 5943 O 564.796 -5.6905 0.392212 0
M  V30 5944 O 563.73 -5.5513 2.32624 0
M  V30 5945 H 567.556 -2.25738 2.03165 0
M  V30 5946 H 565.141 -1.06545 1.04731 0
M  V30 5947 H 567.023 -4.18277 0.512061 0
M  V30 5948 H 565.698 -3.23013 -0.210854 0
M  V30 5949 H 564.605 -3.09429 2.10248 0
M  V30 5950 H 565.938 -4.08216 2.74991 0
M  V30 5951 N 567.59 -1.07411 -1.15328 0
M  V30 5952 C 568.52 -0.716472 -2.22236 0
M  V30 5953 C 569.501 0.296373 -1.67498 0
M  V30 5954 O 570.686 0.168989 -1.93463 0
M  V30 5955 C 567.816 -0.114142 -3.47112 0
M  V30 5956 C 566.77 -1.05421 -4.14814 0
M  V30 5957 C 566.096 -0.314604 -5.33774 0
M  V30 5958 C 567.396 -2.38808 -4.64508 0
M  V30 5959 H 569.09 -1.61029 -2.52408 0
M  V30 5960 H 566.636 -0.775702 -1.21321 0
M  V30 5961 H 568.589 0.148001 -4.2114 0
M  V30 5962 H 567.313 0.814755 -3.16274 0
M  V30 5963 H 565.972 -1.30128 -3.42728 0
M  V30 5964 H 565.62 0.617772 -4.99192 0
M  V30 5965 H 565.32 -0.941209 -5.80013 0
M  V30 5966 H 566.844 -0.0602747 -6.1057 0
M  V30 5967 H 568.258 -2.18424 -5.3006 0
M  V30 5968 H 566.655 -2.97069 -5.21412 0
M  V30 5969 H 567.725 -3.01067 -3.80114 0
M  V30 5970 N 569.068 1.32177 -0.85831 0
M  V30 5971 C 569.998 2.31282 -0.321041 0
M  V30 5972 C 570.979 1.59841 0.581786 0
M  V30 5973 O 572.164 1.87619 0.501262 0
M  V30 5974 C 569.294 3.4385 0.48832 0
M  V30 5975 C 568.248 4.26799 -0.320391 0
M  V30 5976 C 567.574 5.31164 0.613934 0
M  V30 5977 C 568.874 4.98829 -1.54813 0
M  V30 5978 H 570.568 2.76469 -1.14915 0
M  V30 5979 H 568.114 1.32916 -0.554028 0
M  V30 5980 H 570.067 4.12224 0.874626 0
M  V30 5981 H 568.791 2.97401 1.34983 0
M  V30 5982 H 567.45 3.60077 -0.688497 0
M  V30 5983 H 567.098 4.80967 1.47239 0
M  V30 5984 H 566.798 5.8755 0.0768097 0
M  V30 5985 H 568.322 6.024 0.997336 0
M  V30 5986 H 569.736 5.59864 -1.23392 0
M  V30 5987 H 568.133 5.64957 -2.02346 0
M  V30 5988 H 569.203 4.26483 -2.30739 0
M  V30 5989 N 570.547 0.616602 1.45037 0
M  V30 5990 C 571.772 0.120192 2.07051 0
M  V30 5991 C 572.197 -1.19008 1.45666 0
M  V30 5992 O 571.555 -1.7267 0.552692 0
M  V30 5993 C 571.603 0.00354901 3.606 0
M  V30 5994 O 570.707 -1.04431 3.98958 0
M  V30 5995 H 570.048 0.0781599 0.659384 0
M  V30 5996 H 572.578 0.849167 1.86146 0
M  V30 5997 H 572.588 -0.191754 4.07549 0
M  V30 5998 H 571.263 0.960239 4.04663 0
M  V30 5999 H 569.84 -0.824749 3.63665 0
M  V30 6000 N 572.025 -1.5352 0.356285 0
M  V30 6001 C 572.975 -2.22204 -0.510815 0
M  V30 6002 C 573.959 -1.21393 -1.05605 0
M  V30 6003 O 575.151 -1.46883 -0.987639 0
M  V30 6004 C 572.28 -3.00786 -1.65478 0
M  V30 6005 C 571.366 -4.08965 -1.12287 0
M  V30 6006 N 571.757 -5.04829 -0.313191 0
M  V30 6007 C 570.055 -4.23505 -1.39856 0
M  V30 6008 C 570.756 -5.81695 -0.0230322 0
M  V30 6009 N 569.732 -5.40074 -0.618144 0
M  V30 6010 H 573.534 -2.93676 0.114711 0
M  V30 6011 H 571.048 -1.61572 0.163811 0
M  V30 6012 H 573.045 -3.48502 -2.28806 0
M  V30 6013 H 571.705 -2.30843 -2.28345 0
M  V30 6014 H 572.716 -5.17879 0.0468202 0
M  V30 6015 H 569.393 -3.64786 -2.0307 0
M  V30 6016 H 570.783 -6.68931 0.630927 0
M  V30 6017 N 573.503 -0.0852151 -1.57369 0
M  V30 6018 C 574.413 0.891712 -2.16992 0
M  V30 6019 C 575.429 1.3174 -1.13669 0
M  V30 6020 O 576.605 1.38735 -1.45995 0
M  V30 6021 C 573.67 2.13635 -2.73059 0
M  V30 6022 C 572.731 1.7658 -3.91303 0
M  V30 6023 C 571.964 2.95111 -4.44686 0
M  V30 6024 O 572.187 4.09539 -3.97032 0
M  V30 6025 O 571.121 2.74149 -5.35841 0
M  V30 6026 H 574.947 0.414477 -3.00858 0
M  V30 6027 H 572.532 0.138598 -1.48756 0
M  V30 6028 H 574.414 2.86595 -3.08935 0
M  V30 6029 H 573.089 2.6043 -1.92244 0
M  V30 6030 H 571.996 1.00831 -3.60255 0
M  V30 6031 H 573.329 1.34557 -4.7345 0
M  V30 6032 N 574.981 1.5647 0.188427 0
M  V30 6033 C 575.911 1.98101 1.23606 0
M  V30 6034 C 576.892 0.853961 1.47111 0
M  V30 6035 O 578.077 1.11879 1.58735 0
M  V30 6036 C 575.207 2.32624 2.57882 0
M  V30 6037 C 574.161 3.48129 2.48978 0
M  V30 6038 C 573.487 3.68347 3.87588 0
M  V30 6039 C 574.787 4.82112 2.00911 0
M  V30 6040 H 576.481 2.85864 0.890068 0
M  V30 6041 H 574.027 1.37532 0.426714 0
M  V30 6042 H 575.98 2.60343 3.3136 0
M  V30 6043 H 574.704 1.41751 2.94235 0
M  V30 6044 H 573.363 3.20511 1.77956 0
M  V30 6045 H 573.011 2.74793 4.21305 0
M  V30 6046 H 572.711 4.46055 3.82503 0
M  V30 6047 H 574.235 3.98449 4.62678 0
M  V30 6048 H 575.649 5.08819 2.64151 0
M  V30 6049 H 574.046 5.63337 2.06814 0
M  V30 6050 H 575.116 4.75249 0.96262 0
M  V30 6051 N 576.459 -0.456382 1.50847 0
M  V30 6052 C 577.406 -1.55249 1.70782 0
M  V30 6053 C 578.376 -1.56757 0.549231 0
M  V30 6054 O 579.561 -1.74061 0.7815 0
M  V30 6055 C 576.701 -2.93118 1.82143 0
M  V30 6056 C 575.814 -3.01285 3.09598 0
M  V30 6057 C 574.949 -4.30159 3.11667 0
M  V30 6058 C 573.988 -4.32124 4.33515 0
M  V30 6059 N 573.125 -5.52492 4.3324 0
M  V30 6060 H 577.965 -1.37555 2.64353 0
M  V30 6061 H 575.502 -0.668543 1.3103 0
M  V30 6062 H 577.46 -3.73088 1.86711 0
M  V30 6063 H 576.09 -3.09413 0.919978 0
M  V30 6064 H 575.142 -2.14096 3.14431 0
M  V30 6065 H 576.454 -2.98597 3.99551 0
M  V30 6066 H 575.608 -5.18489 3.15046 0
M  V30 6067 H 574.347 -4.35477 2.1957 0
M  V30 6068 H 573.352 -3.42189 4.30333 0
M  V30 6069 H 574.577 -4.28485 5.26856 0
M  V30 6070 H 572.523 -5.58567 3.44004 0
M  V30 6071 H 572.44 -5.51605 5.16979 0
M  V30 6072 H 573.708 -6.42906 4.40786 0
M  V30 6073 N 577.937 -1.40673 -0.710563 0
M  V30 6074 C 579.185 -1.38947 -1.46759 0
M  V30 6075 C 579.506 0.00572879 -1.94999 0
M  V30 6076 O 578.776 0.961358 -1.70689 0
M  V30 6077 H 577.356 -0.5114 -0.544499 0
M  V30 6078 H 580.018 -1.75773 -0.842012 0
M  V30 6079 H 579.114 -2.06745 -2.33801 0
M  V30 6080 N 579.415 0.9433 -1.26252 0
M  V30 6081 C 580.661 1.69175 -1.11837 0
M  V30 6082 C 580.994 1.91238 0.337891 0
M  V30 6083 O 580.269 1.49152 1.24836 0
M  V30 6084 C 580.552 3.06783 -1.88563 0
M  V30 6085 C 580.405 2.9206 -3.42083 0
M  V30 6086 C 581.724 4.06865 -1.67776 0
M  V30 6087 H 578.843 0.61399 -0.407658 0
M  V30 6088 H 581.485 1.09572 -1.55222 0
M  V30 6089 H 579.635 3.57663 -1.51689 0
M  V30 6090 H 581.307 2.48419 -3.88698 0
M  V30 6091 H 579.55 2.27731 -3.69217 0
M  V30 6092 H 580.221 3.89651 -3.90994 0
M  V30 6093 H 582.697 3.64939 -1.99897 0
M  V30 6094 H 581.573 5.01168 -2.23879 0
M  V30 6095 H 581.834 4.37705 -0.621816 0
M  V30 6096 N 580.893 1.08022 1.14757 0
M  V30 6097 C 582.133 0.816959 1.87364 0
M  V30 6098 C 582.497 -0.645407 1.80827 0
M  V30 6099 O 583.698 -1.024 2.48531 0
M  V30 6100 C 581.969 1.31961 3.32146 0
M  V30 6101 S 583.528 1.18806 4.2241 0
M  V30 6102 H 580.346 0.295862 0.646519 0
M  V30 6103 H 582.948 1.3807 1.38408 0
M  V30 6104 H 581.652 2.37847 3.3445 0
M  V30 6105 H 581.183 0.751371 3.86158 0
M  V30 6106 H 583.198 0.129865 4.9603 0
M  V30 6107 N 582.371 -1.3172 0.865308 0
M  V30 6108 C 583.782 -1.79104 0.527126 0
M  V30 6109 C 584.133 -1.7135 -0.955695 0
M  V30 6110 O 583.258 -1.27845 -1.74598 0
M  V30 6111 C 583.853 -3.25207 0.950061 0
M  V30 6112 C 582.412 -3.70504 0.663611 0
M  V30 6113 C 581.559 -2.52605 1.14395 0
M  V30 6114 H 584.51 -1.18868 1.05148 0
M  V30 6115 H 584.531 -3.79535 0.270805 0
M  V30 6116 H 584.043 -3.30818 2.02931 0
M  V30 6117 H 582.144 -3.70398 -0.404474 0
M  V30 6118 H 582.257 -4.62845 1.23737 0
M  V30 6119 H 580.621 -2.4838 0.563859 0
M  V30 6120 H 581.404 -2.60964 2.23053 0
M  V30 6121 N 583.85 -0.624285 -1.44708 0
M  V30 6122 C 584.76 0.0861083 -2.34442 0
M  V30 6123 C 585.776 0.84291 -1.5222 0
M  V30 6124 O 586.952 0.796723 -1.84971 0
M  V30 6125 C 584.017 1.05999 -3.30099 0
M  V30 6126 C 583.077 0.303316 -4.28227 0
M  V30 6127 C 582.311 1.23081 -5.19314 0
M  V30 6128 O 582.534 2.46929 -5.14181 0
M  V30 6129 O 581.468 0.71883 -5.97592 0
M  V30 6130 H 585.293 -0.651756 -2.96624 0
M  V30 6131 H 582.879 -0.384493 -1.44368 0
M  V30 6132 H 584.76 1.62046 -3.88997 0
M  V30 6133 H 583.436 1.77859 -2.70459 0
M  V30 6134 H 582.343 -0.300033 -3.72895 0
M  V30 6135 H 583.676 -0.375123 -4.90768 0
M  V30 6136 N 585.328 1.53329 -0.364422 0
M  V30 6137 C 586.739 1.86345 0.115039 0
M  V30 6138 C 587.09 1.28505 1.4826 0
M  V30 6139 O 586.215 0.606639 2.07723 0
M  V30 6140 C 586.81 3.38114 0.215522 0
M  V30 6141 C 585.369 3.70932 0.639237 0
M  V30 6142 C 584.516 2.76471 -0.214261 0
M  V30 6143 H 587.467 1.47593 -0.583258 0
M  V30 6144 H 587.488 3.66031 1.0393 0
M  V30 6145 H 587 3.80182 -0.779948 0
M  V30 6146 H 585.101 3.3442 1.64298 0
M  V30 6147 H 585.214 4.77302 0.41465 0
M  V30 6148 H 583.578 2.52724 0.316678 0
M  V30 6149 H 584.361 3.21373 -1.20725 0
M  V30 6150 N 586.806 0.0935595 1.57322 0
M  V30 6151 C 588.217 -0.435807 1.81542 0
M  V30 6152 C 588.568 -1.68263 1.00907 0
M  V30 6153 O 587.693 -2.15087 0.237983 0
M  V30 6154 C 588.288 -0.797436 3.29282 0
M  V30 6155 C 586.847 -1.27155 3.54272 0
M  V30 6156 C 585.994 -0.267455 2.76007 0
M  V30 6157 H 588.945 0.31902 1.5546 0
M  V30 6158 H 588.966 -1.6571 3.42521 0
M  V30 6159 H 588.478 0.110206 3.87943 0
M  V30 6160 H 586.579 -2.19696 3.00939 0
M  V30 6161 H 586.692 -1.23445 4.62923 0
M  V30 6162 H 585.056 -0.749282 2.43429 0
M  V30 6163 H 585.839 0.632839 3.37417 0
M  V30 6164 N 588.284 -1.56567 -0.180126 0
M  V30 6165 C 589.532 -1.81133 -0.896392 0
M  V30 6166 C 589.853 -0.669114 -1.83161 0
M  V30 6167 O 589.123 0.311616 -1.93406 0
M  V30 6168 H 587.703 -0.668172 -0.333999 0
M  V30 6169 H 590.365 -1.94048 -0.182051 0
M  V30 6170 H 589.461 -2.74854 -1.47857 0
M  V30 6171 N 589.762 0.448376 -1.51087 0
M  V30 6172 C 590.692 1.55102 -1.74544 0
M  V30 6173 C 591.673 1.59357 -0.594932 0
M  V30 6174 O 592.858 1.75261 -0.836491 0
M  V30 6175 C 589.988 2.93268 -1.86041 0
M  V30 6176 C 588.942 3.03877 -3.01402 0
M  V30 6177 C 588.268 4.43914 -2.98068 0
M  V30 6178 C 589.568 2.7898 -4.41551 0
M  V30 6179 H 591.262 1.35724 -2.66869 0
M  V30 6180 H 588.808 0.651498 -1.28419 0
M  V30 6181 H 590.761 3.70356 -2.01034 0
M  V30 6182 H 589.485 3.13853 -0.903548 0
M  V30 6183 H 588.144 2.29227 -2.86096 0
M  V30 6184 H 587.792 4.6145 -2.00182 0
M  V30 6185 H 587.492 4.51944 -3.75527 0
M  V30 6186 H 589.016 5.22991 -3.1514 0
M  V30 6187 H 590.43 3.45805 -4.57265 0
M  V30 6188 H 588.827 2.98431 -5.20633 0
M  V30 6189 H 589.897 1.74663 -4.5235 0
M  V30 6190 N 591.24 1.41047 0.703093 0
M  V30 6191 C 592.517 1.30493 1.45708 0
M  V30 6192 C 592.897 -0.0709892 2.10981 0
M  V30 6193 O 592.245 -1.08471 2.01113 0
M  V30 6194 C 592.455 2.45287 2.48265 0
M  V30 6195 C 593.803 2.86104 3.13735 0
M  V30 6196 O 594.827 2.44971 2.58587 0
M  V30 6197 O 593.686 3.57206 4.13601 0
M  V30 6198 H 590.78 0.513144 0.648546 0
M  V30 6199 H 593.326 1.52995 0.734208 0
M  V30 6200 H 592.098 3.37135 1.98635 0
M  V30 6201 H 591.721 2.24622 3.28071 0
M  V30 6202 N 592.718 -0.936591 1.26751 0
M  V30 6203 C 593.995 -1.66094 1.03306 0
M  V30 6204 C 594.375 -2.06568 -0.435058 0
M  V30 6205 O 593.723 -1.79305 -1.41641 0
M  V30 6206 C 593.933 -2.86969 1.98619 0
M  V30 6207 C 595.281 -3.58516 2.27489 0
M  V30 6208 O 596.305 -2.97082 1.96522 0
M  V30 6209 O 595.164 -4.69181 2.80235 0
M  V30 6210 H 592.258 -0.727568 0.393158 0
M  V30 6211 H 594.804 -0.987914 1.3798 0
M  V30 6212 H 593.576 -2.53985 2.9767 0
M  V30 6213 H 593.199 -3.61996 1.64454 0
M  V30 6214 N 594.196 -1.08629 -1.14182 0
M  V30 6215 C 595.607 -0.838003 -1.66836 0
M  V30 6216 C 595.958 0.634885 -1.85644 0
M  V30 6217 O 595.083 1.49008 -1.56926 0
M  V30 6218 C 595.678 -1.51465 -3.03058 0
M  V30 6219 C 594.237 -1.31355 -3.52736 0
M  V30 6220 C 593.384 -1.57599 -2.28162 0
M  V30 6221 H 596.335 -1.24656 -0.982165 0
M  V30 6222 H 596.356 -0.943134 -3.68626 0
M  V30 6223 H 595.868 -2.58661 -2.89337 0
M  V30 6224 H 593.969 -0.262384 -3.71675 0
M  V30 6225 H 594.082 -2.04275 -4.33369 0
M  V30 6226 H 592.446 -0.997659 -2.34348 0
M  V30 6227 H 593.229 -2.66006 -2.17015 0
M  V30 6228 N 595.674 1.31259 -0.872281 0
M  V30 6229 C 596.604 2.30929 -0.345554 0
M  V30 6230 C 597.585 1.60449 0.5648 0
M  V30 6231 O 598.77 1.8814 0.481335 0
M  V30 6232 C 595.9 3.44348 0.451823 0
M  V30 6233 C 594.854 4.26435 -0.365641 0
M  V30 6234 C 594.18 5.31785 0.557562 0
M  V30 6235 C 595.48 4.97159 -1.60095 0
M  V30 6236 H 597.174 2.75234 -1.17841 0
M  V30 6237 H 594.72 1.3232 -0.568094 0
M  V30 6238 H 596.673 4.13128 0.830854 0
M  V30 6239 H 595.397 2.98816 1.31821 0
M  V30 6240 H 594.056 3.59326 -0.726649 0
M  V30 6241 H 593.704 4.82502 1.4213 0
M  V30 6242 H 593.404 5.87598 0.0144878 0
M  V30 6243 H 594.928 6.03424 0.933387 0
M  V30 6244 H 596.342 5.58523 -1.29323 0
M  V30 6245 H 594.739 5.62779 -2.08327 0
M  V30 6246 H 595.809 4.24012 -2.35249 0
M  V30 6247 N 597.152 0.631951 1.44375 0
M  V30 6248 C 598.115 -0.0628142 2.29114 0
M  V30 6249 C 599.115 -0.771494 1.41084 0
M  V30 6250 O 600.305 -0.615959 1.62947 0
M  V30 6251 C 597.437 -1.09953 3.22681 0
M  V30 6252 H 598.63 0.682509 2.92031 0
M  V30 6253 H 596.183 0.392128 1.51301 0
M  V30 6254 H 596.918 -1.87481 2.64616 0
M  V30 6255 H 596.703 -0.595286 3.87555 0
M  V30 6256 H 598.193 -1.58538 3.86336 0
M  V30 6257 N 598.631 -1.53133 0.372548 0
M  V30 6258 C 599.563 -2.23557 -0.505444 0
M  V30 6259 C 600.576 -1.25211 -1.04049 0
M  V30 6260 O 601.765 -1.51391 -0.945675 0
M  V30 6261 C 598.865 -2.92516 -1.71136 0
M  V30 6262 C 598.038 -4.17428 -1.30661 0
M  V30 6263 C 597.097 -4.69535 -2.37536 0
M  V30 6264 O 596.123 -5.33042 -1.99637 0
M  V30 6265 N 597.325 -4.47947 -3.6922 0
M  V30 6266 H 600.09 -2.9954 0.0978259 0
M  V30 6267 H 597.651 -1.60684 0.198068 0
M  V30 6268 H 599.643 -3.24281 -2.42124 0
M  V30 6269 H 598.213 -2.19944 -2.22134 0
M  V30 6270 H 597.433 -3.91888 -0.426292 0
M  V30 6271 H 598.721 -4.98622 -1.01259 0
M  V30 6272 H 598.119 -3.97219 -4.02783 0
M  V30 6273 H 596.676 -4.84245 -4.36292 0
M  V30 6274 N 600.109 -0.101901 -1.5727 0
M  V30 6275 C 601.386 0.602832 -1.86079 0
M  V30 6276 C 601.766 1.85912 -1 0
M  V30 6277 O 601.114 2.28379 -0.0742488 0
M  V30 6278 C 601.324 0.911694 -3.36881 0
M  V30 6279 C 602.672 1.2722 -4.05093 0
M  V30 6280 O 603.696 1.0025 -3.41802 0
M  V30 6281 O 602.555 1.7776 -5.16782 0
M  V30 6282 H 599.649 0.302366 -0.769743 0
M  V30 6283 H 602.195 -0.135113 -1.69161 0
M  V30 6284 H 600.967 0.0207256 -3.91295 0
M  V30 6285 H 600.59 1.70538 -3.59169 0
M  V30 6286 N 601.587 1.56661 0.17182 0
M  V30 6287 C 602.835 1.81606 0.886774 0
M  V30 6288 C 603.156 0.678818 1.82803 0
M  V30 6289 O 602.426 -0.301354 1.93568 0
M  V30 6290 H 601.006 0.669934 0.330451 0
M  V30 6291 H 603.668 1.94142 0.171757 0
M  V30 6292 H 602.764 2.75634 1.46398 0
M  V30 6293 N 603.065 -0.440357 1.51323 0
M  V30 6294 C 604.028 -1.51679 1.71832 0
M  V30 6295 C 605.028 -1.49648 0.588386 0
M  V30 6296 O 606.218 -1.51724 0.855891 0
M  V30 6297 C 603.35 -2.91228 1.77199 0
M  V30 6298 H 604.543 -1.34799 2.67898 0
M  V30 6299 H 602.096 -0.66883 1.41267 0
M  V30 6300 H 602.831 -3.13516 0.829363 0
M  V30 6301 H 602.616 -2.94107 2.59314 0
M  V30 6302 H 604.106 -3.69321 1.94915 0
M  V30 6303 N 604.543 -1.41418 -0.695603 0
M  V30 6304 C 605.791 -1.40496 -1.45277 0
M  V30 6305 C 606.112 -0.0149538 -1.94994 0
M  V30 6306 O 605.382 0.9432 -1.71699 0
M  V30 6307 H 603.962 -0.517147 -0.539044 0
M  V30 6308 H 606.624 -1.76656 -0.823321 0
M  V30 6309 H 605.72 -2.09214 -2.31595 0
M  V30 6310 N 606.021 0.929856 -1.27246 0
M  V30 6311 C 607.267 1.6798 -1.13625 0
M  V30 6312 C 607.6 1.91586 0.317589 0
M  V30 6313 O 606.875 1.50467 1.23247 0
M  V30 6314 C 607.158 3.04766 -1.91806 0
M  V30 6315 C 607.011 2.88415 -3.45162 0
M  V30 6316 C 608.33 4.05063 -1.72082 0
M  V30 6317 H 605.449 0.609632 -0.414147 0
M  V30 6318 H 608.091 1.0792 -1.56376 0
M  V30 6319 H 606.241 3.56034 -1.55474 0
M  V30 6320 H 607.913 2.44282 -3.91311 0
M  V30 6321 H 606.156 2.23802 -3.71611 0
M  V30 6322 H 606.827 3.85482 -3.95105 0
M  V30 6323 H 609.303 3.62798 -2.03757 0
M  V30 6324 H 608.179 4.98765 -2.29182 0
M  V30 6325 H 608.44 4.37021 -0.668206 0
M  V30 6326 N 607.499 1.09233 1.13605 0
M  V30 6327 C 608.724 0.849067 1.89224 0
M  V30 6328 C 609.149 -0.593875 1.78479 0
M  V30 6329 O 608.507 -1.41703 1.13092 0
M  V30 6330 C 608.555 1.28642 3.36873 0
M  V30 6331 O 607.659 0.44363 4.10007 0
M  V30 6332 H 607 0.30767 0.588417 0
M  V30 6333 H 609.53 1.45595 1.43748 0
M  V30 6334 H 609.54 1.27096 3.87699 0
M  V30 6335 H 608.215 2.33729 3.44011 0
M  V30 6336 H 606.792 0.523241 3.69211 0
M  V30 6337 O 609.016 -1.25824 1.01246 0
M  V30 6338 H 609.707 -1.81718 0.670699 0
M  V30 END ATOM
M  V30 BEGIN BOND
M  V30 END BOND
M  V30 END CTAB
M  END
$$$$
