drugbank_target|Q46891 Putative hydroxypyruvate isomerase YgbM (DB01942)
 OpenBabel12092119533D

  0  0  0     0  0            999 V3000
M  V30 BEGIN CTAB
M  V30 COUNTS 4049 4109 0 0 0
M  V30 BEGIN ATOM
M  V30 1 H -0.908 1.98254 -0.117106 0
M  V30 2 N 0 1.576 0 0
M  V30 3 C 0.933 2.03868 1.02534 0
M  V30 4 C 1.911 0.928543 1.3348 0
M  V30 5 O 3.095 1.19667 1.45644 0
M  V30 6 C 0.222 2.43627 2.35294 0
M  V30 7 C -0.732 3.65373 2.2001 0
M  V30 8 S 0.101 5.13292 1.52614 0
M  V30 9 C 1.257 5.56322 2.86805 0
M  V30 10 H 1.49 2.90518 0.631377 0
M  V30 11 H -0.977 1.52953 0.210867 0
M  V30 12 H 0.981 2.67203 3.11629 0
M  V30 13 H -0.358 1.57376 2.7183 0
M  V30 14 H -1.165 3.90944 3.18086 0
M  V30 15 H -1.563 3.418 1.51819 0
M  V30 16 H 0.729 5.58782 3.83104 0
M  V30 17 H 1.672 6.56266 2.65933 0
M  V30 18 H 2.08 4.83886 2.90714 0
M  V30 19 N 1.4781 -0.272755 1.55222 0
M  V30 20 C 2.8891 -0.84378 1.66545 0
M  V30 21 C 3.2401 -1.87035 0.592641 0
M  V30 22 O 2.3651 -2.14761 -0.265818 0
M  V30 23 C 2.9601 -1.53723 3.01918 0
M  V30 24 C 1.5191 -2.05628 3.15268 0
M  V30 25 C 0.6661 -0.898424 2.62343 0
M  V30 26 H 3.6171 -0.0490998 1.58624 0
M  V30 27 H 3.6381 -2.40421 2.94921 0
M  V30 28 H 3.1501 -0.78983 3.79978 0
M  V30 29 H 1.2511 -2.83329 2.41983 0
M  V30 30 H 1.3641 -2.27142 4.21833 0
M  V30 31 H -0.2719 -1.29186 2.19506 0
M  V30 32 H 0.5111 -0.164528 3.42906 0
M  V30 33 N 2.9562 -1.48159 -0.537278 0
M  V30 34 C 4.3722 -1.34118 -0.865129 0
M  V30 35 C 4.5722 -0.346678 -1.98495 0
M  V30 36 O 3.6282 0.234715 -2.51407 0
M  V30 37 C 4.9412 -2.73963 -1.23954 0
M  V30 38 C 6.4892 -2.82397 -1.34984 0
M  V30 39 C 6.9642 -4.22928 -1.75772 0
M  V30 40 N 8.4552 -4.25566 -1.82887 0
M  V30 41 C 9.1902 -5.31235 -2.15817 0
M  V30 42 N 8.6862 -6.47189 -2.47222 0
M  V30 43 N 10.4792 -5.18624 -2.16761 0
M  V30 44 H 2.6302 -2.1144 0.201715 0
M  V30 45 H 4.8932 -0.947598 0.0275949 0
M  V30 46 H 4.5992 -3.48264 -0.490381 0
M  V30 47 H 4.4732 -3.0702 -2.19132 0
M  V30 48 H 6.8602 -2.08356 -2.08978 0
M  V30 49 H 6.9412 -2.5297 -0.379448 0
M  V30 50 H 6.5852 -4.97482 -1.02341 0
M  V30 51 H 6.5152 -4.49794 -2.73848 0
M  V30 52 H 9.0062 -3.41924 -1.60924 0
M  V30 53 H 9.3192 -7.23564 -2.71433 0
M  V30 54 H 7.6642 -6.50476 -2.44757 0
M  V30 55 H 10.8552 -4.27056 -1.91679 0
M  V30 56 H 11.0282 -6.01078 -2.42093 0
M  V30 57 N 4.4343 0.785586 -1.36625 0
M  V30 58 C 5.6813 1.54362 -1.31067 0
M  V30 59 C 6.0093 1.94195 0.10893 0
M  V30 60 O 5.2643 1.63262 1.07908 0
M  V30 61 C 5.5633 2.83007 -2.1827 0
M  V30 62 C 5.2293 2.62294 -3.6676 0
M  V30 63 C 3.8913 2.56353 -4.0723 0
M  V30 64 C 6.2433 2.43371 -4.6089 0
M  V30 65 C 3.5713 2.29461 -5.39967 0
M  V30 66 C 5.9233 2.18005 -5.93849 0
M  V30 67 C 4.5873 2.105 -6.3344 0
M  V30 68 H 3.8573 0.564851 -0.479609 0
M  V30 69 H 6.5043 0.906028 -1.68711 0
M  V30 70 H 4.8093 3.51253 -1.73576 0
M  V30 71 H 6.5063 3.40817 -2.11292 0
M  V30 72 H 3.0963 2.67774 -3.34656 0
M  V30 73 H 7.2803 2.46959 -4.30494 0
M  V30 74 H 2.5363 2.22135 -5.69619 0
M  V30 75 H 6.7103 2.02359 -6.66351 0
M  V30 76 H 4.3373 1.89425 -7.36222 0
M  V30 77 N 5.9124 1.20967 1.01018 0
M  V30 78 C 6.8754 0.965918 2.07853 0
M  V30 79 C 7.8754 -0.0610545 1.60684 0
M  V30 80 O 9.0654 0.175681 1.73312 0
M  V30 81 C 6.1974 0.455513 3.37843 0
M  V30 82 H 7.3904 1.91365 2.3091 0
M  V30 83 H 4.9434 1.02594 1.17916 0
M  V30 84 H 5.6784 -0.497381 3.20463 0
M  V30 85 H 5.4634 1.19622 3.73407 0
M  V30 86 H 6.9534 0.304667 4.16487 0
M  V30 87 N 7.3905 -1.2043 1.01659 0
M  V30 88 C 8.3535 -2.21433 0.591616 0
M  V30 89 C 9.3535 -1.57203 -0.338226 0
M  V30 90 O 10.5435 -1.73737 -0.126918 0
M  V30 91 C 7.6755 -3.40628 -0.136058 0
M  V30 92 H 8.8685 -2.60545 1.48514 0
M  V30 93 H 6.4215 -1.33893 0.806379 0
M  V30 94 H 7.1565 -3.07019 -1.04449 0
M  V30 95 H 6.9415 -3.88475 0.531917 0
M  V30 96 H 8.4315 -4.15475 -0.420735 0
M  V30 97 N 8.8686 -0.792821 -1.36206 0
M  V30 98 C 9.8166 -0.181555 -2.3189 0
M  V30 99 C 10.8106 0.661025 -1.55971 0
M  V30 100 O 12.0166 0.555728 -1.71206 0
M  V30 101 H 8.3916 -0.0399382 -0.750939 0
M  V30 102 H 10.3626 -1.00394 -2.81005 0
M  V30 103 C 9.1116 0.666444 -3.41253 0
M  V30 104 H 8.4346 0.0274489 -3.99791 0
M  V30 105 H 9.8746 1.06076 -4.10517 0
M  V30 106 C 8.3336 1.82614 -2.83114 0
M  V30 107 O 8.8636 2.9229 -2.75553 0
M  V30 108 N 7.0696 1.63333 -2.40356 0
M  V30 109 H 6.6166 0.741217 -2.46706 0
M  V30 110 H 6.5746 2.41087 -2.01803 0
M  V30 111 N 10.3467 1.47872 -0.545128 0
M  V30 112 C 11.2767 2.32661 0.197793 0
M  V30 113 C 12.2577 1.43041 0.920504 0
M  V30 114 O 13.4427 1.71912 0.90333 0
M  V30 115 C 10.5727 3.24569 1.23582 0
M  V30 116 C 9.5267 4.23333 0.630323 0
M  V30 117 C 8.8527 5.0448 1.77211 0
M  V30 118 C 10.1527 5.20704 -0.407974 0
M  V30 119 H 11.8467 2.95024 -0.510045 0
M  V30 120 H 9.3927 1.4187 -0.246731 0
M  V30 121 H 11.3457 3.8272 1.76362 0
M  V30 122 H 10.0697 2.60236 1.97344 0
M  V30 123 H 8.7287 3.6639 0.123922 0
M  V30 124 H 8.3767 4.36561 2.49847 0
M  V30 125 H 8.0767 5.71339 1.37281 0
M  V30 126 H 9.6007 5.65487 2.3034 0
M  V30 127 H 11.0147 5.7329 0.033305 0
M  V30 128 H 9.4117 5.95699 -0.725486 0
M  V30 129 H 10.4817 4.66917 -1.30828 0
M  V30 130 N 11.8248 0.280983 1.55075 0
M  V30 131 C 13.0498 -0.340154 2.04592 0
M  V30 132 C 13.4748 -1.48246 1.15779 0
M  V30 133 O 12.8328 -1.80614 0.15761 0
M  V30 134 C 12.8808 -0.793104 3.5177 0
M  V30 135 O 11.9848 -1.89981 3.66034 0
M  V30 136 H 11.3258 -0.0694289 0.66036 0
M  V30 137 H 13.8558 0.416993 2.00306 0
M  V30 138 H 13.8658 -1.08729 3.93245 0
M  V30 139 H 12.5408 0.0426163 4.15878 0
M  V30 140 H 11.1178 -1.60771 3.36463 0
M  V30 141 N 13.3029 -1.57598 0.00835791 0
M  V30 142 C 14.2359 -2.04409 -1.01451 0
M  V30 143 C 15.2139 -0.935609 -1.32985 0
M  V30 144 O 16.3979 -1.20437 -1.45007 0
M  V30 145 C 13.5249 -2.44872 -2.33999 0
M  V30 146 C 12.5709 -3.66535 -2.18069 0
M  V30 147 S 13.4039 -5.14095 -1.4989 0
M  V30 148 C 14.5599 -5.57835 -2.8385 0
M  V30 149 H 14.7929 -2.90849 -0.615961 0
M  V30 150 H 12.3259 -1.53063 -0.202752 0
M  V30 151 H 14.2839 -2.68852 -3.10208 0
M  V30 152 H 12.9449 -1.58815 -2.70992 0
M  V30 153 H 12.1379 -3.92626 -3.16008 0
M  V30 154 H 11.7399 -3.426 -1.50004 0
M  V30 155 H 14.0319 -5.60806 -3.80136 0
M  V30 156 H 14.9749 -6.57667 -2.62449 0
M  V30 157 H 15.3829 -4.85421 -2.88144 0
M  V30 158 N 14.781 0.264519 -1.55364 0
M  V30 159 C 15.714 1.35297 -1.83766 0
M  V30 160 C 16.692 1.47171 -0.691336 0
M  V30 161 O 17.876 1.63663 -0.935238 0
M  V30 162 C 15.003 2.72847 -2.00679 0
M  V30 163 C 14.049 2.78214 -3.23263 0
M  V30 164 S 14.882 2.36601 -4.80396 0
M  V30 165 C 16.038 3.7611 -5.00292 0
M  V30 166 H 16.271 1.11003 -2.758 0
M  V30 167 H 13.804 0.464596 -1.47244 0
M  V30 168 H 15.762 3.52057 -2.11108 0
M  V30 169 H 14.423 2.94388 -1.09518 0
M  V30 170 H 13.616 3.7919 -3.3201 0
M  V30 171 H 13.218 2.07034 -3.11469 0
M  V30 172 H 15.51 4.71457 -4.86554 0
M  V30 173 H 16.453 3.7231 -6.02321 0
M  V30 174 H 16.861 3.67806 -4.28228 0
M  V30 175 N 16.2591 1.48442 0.529413 0
M  V30 176 C 17.5061 1.56488 1.28521 0
M  V30 177 C 17.8341 0.239042 1.93025 0
M  V30 178 O 17.0891 -0.770713 1.79885 0
M  V30 179 C 17.3881 2.6523 2.39558 0
M  V30 180 C 17.0541 4.07648 1.92702 0
M  V30 181 C 15.7161 4.46411 1.79641 0
M  V30 182 C 18.0681 4.96896 1.573 0
M  V30 183 C 15.3961 5.72226 1.29514 0
M  V30 184 C 17.7481 6.23202 1.08636 0
M  V30 185 C 16.4121 6.60821 0.941919 0
M  V30 186 H 15.6821 0.572631 0.470292 0
M  V30 187 H 18.3291 1.82161 0.59072 0
M  V30 188 H 16.6341 2.33419 3.14679 0
M  V30 189 H 18.3311 2.68671 2.97686 0
M  V30 190 H 14.9211 3.77036 2.03819 0
M  V30 191 H 19.1051 4.67626 1.66251 0
M  V30 192 H 14.3611 6.00097 1.17019 0
M  V30 193 H 18.5351 6.91753 0.803136 0
M  V30 194 H 16.1621 7.58198 0.5513 0
M  V30 195 N 17.7372 -0.778329 1.37039 0
M  V30 196 C 18.9652 -1.56734 1.35063 0
M  V30 197 C 19.3802 -1.88686 -0.0655597 0
M  V30 198 O 18.7372 -1.5096 -1.02554 0
M  V30 199 C 18.7882 -2.88163 2.18276 0
M  V30 200 O 18.5092 -2.57583 3.54376 0
M  V30 201 C 20.0102 -3.82422 2.24206 0
M  V30 202 H 17.2302 -0.485778 0.462883 0
M  V30 203 H 19.7742 -0.965185 1.8029 0
M  V30 204 H 17.9292 -3.44818 1.76576 0
M  V30 205 H 18.3432 -3.41699 3.97922 0
M  V30 206 H 19.8172 -4.71667 2.86765 0
M  V30 207 H 20.2942 -4.21078 1.24861 0
M  V30 208 H 20.9002 -3.31697 2.6619 0
M  V30 209 N 19.2153 -1.21501 -1.00376 0
M  V30 210 C 20.1253 -0.991447 -2.12621 0
M  V30 211 C 21.1413 0.0568446 -1.73907 0
M  V30 212 O 22.3173 -0.13348 -2.00957 0
M  V30 213 C 19.3823 -0.560312 -3.42142 0
M  V30 214 C 18.4433 -1.68096 -3.95022 0
M  V30 215 C 17.6763 -1.2703 -5.18362 0
M  V30 216 O 17.8993 -0.144438 -5.70217 0
M  V30 217 O 16.8333 -2.08269 -5.64719 0
M  V30 218 H 20.6593 -1.93158 -2.34358 0
M  V30 219 H 18.2443 -0.999999 -1.10997 0
M  V30 220 H 20.1263 -0.329724 -4.20108 0
M  V30 221 H 18.8013 0.351089 -3.2179 0
M  V30 222 H 17.7083 -1.96597 -3.18278 0
M  V30 223 H 19.0413 -2.56983 -4.19786 0
M  V30 224 N 20.6934 1.19889 -1.02296 0
M  V30 225 C 21.9394 1.89701 -0.717033 0
M  V30 226 C 22.2724 1.7905 0.751989 0
M  V30 227 O 21.5474 1.17891 1.547 0
M  V30 228 C 21.8304 3.40858 -1.16136 0
M  V30 229 C 21.6834 3.60411 -2.69117 0
M  V30 230 C 23.0024 4.33876 -0.737549 0
M  V30 231 H 20.1214 0.688874 -0.261957 0
M  V30 232 H 22.7634 1.41154 -1.27183 0
M  V30 233 H 20.9134 3.82335 -0.689342 0
M  V30 234 H 22.5854 3.28145 -3.2422 0
M  V30 235 H 20.8284 3.03665 -3.0979 0
M  V30 236 H 21.4994 4.66396 -2.95261 0
M  V30 237 H 23.9754 4.00081 -1.14344 0
M  V30 238 H 22.8514 5.38242 -1.0764 0
M  V30 239 H 23.1124 4.40628 0.360436 0
M  V30 240 N 22.1715 0.800033 1.35784 0
M  V30 241 C 23.5825 0.439142 1.81462 0
M  V30 242 C 23.9335 -1.03813 1.66485 0
M  V30 243 O 23.0585 -1.80626 1.19177 0
M  V30 244 C 23.6535 0.790314 3.29453 0
M  V30 245 C 22.2125 0.482111 3.733 0
M  V30 246 C 21.3595 1.01938 2.57883 0
M  V30 247 H 24.3105 0.992254 1.23855 0
M  V30 248 H 24.3315 0.0853677 3.80404 0
M  V30 249 H 23.8435 1.86554 3.40322 0
M  V30 250 H 21.9445 -0.584652 3.67984 0
M  V30 251 H 22.0575 1.01015 4.6833 0
M  V30 252 H 20.4215 0.442043 2.50835 0
M  V30 253 H 21.2045 2.10059 2.71533 0
M  V30 254 N 23.6496 -1.47581 0.552962 0
M  V30 255 C 24.8966 -2.02482 0.0273243 0
M  V30 256 C 25.2246 -1.42776 -1.32081 0
M  V30 257 O 24.4796 -0.571393 -1.87173 0
M  V30 258 C 24.7786 -3.57199 -0.119728 0
M  V30 259 C 24.4446 -4.35804 1.15697 0
M  V30 260 C 23.1066 -4.57 1.50681 0
M  V30 261 C 25.4586 -4.81167 2.00319 0
M  V30 262 C 22.7866 -5.20807 2.70142 0
M  V30 263 C 25.1386 -5.46293 3.18978 0
M  V30 264 C 23.8026 -5.65722 3.54281 0
M  V30 265 H 23.0726 -0.740933 0.00999866 0
M  V30 266 H 25.7196 -1.77302 0.72362 0
M  V30 267 H 24.0246 -3.81348 -0.89896 0
M  V30 268 H 25.7216 -3.97324 -0.541718 0
M  V30 269 H 22.3116 -4.19582 0.874561 0
M  V30 270 H 26.4956 -4.64574 1.74599 0
M  V30 271 H 21.7516 -5.34045 2.97668 0
M  V30 272 H 25.9256 -5.80407 3.84838 0
M  V30 273 H 23.5526 -6.14936 4.46942 0
M  V30 274 N 25.1277 -0.289203 -1.54924 0
M  V30 275 C 26.3767 0.324231 -1.99077 0
M  V30 276 C 26.6897 1.5591 -1.18117 0
M  V30 277 O 27.8957 2.24637 -1.52481 0
M  V30 278 C 26.3517 0.628209 -3.54375 0
M  V30 279 C 25.9597 -0.587647 -4.44129 0
M  V30 280 C 27.7037 1.20349 -4.07083 0
M  V30 281 C 25.6107 -0.257475 -5.90839 0
M  V30 282 H 24.5407 0.124924 -0.743579 0
M  V30 283 H 27.1917 -0.396063 -1.79175 0
M  V30 284 H 25.5737 1.40778 -3.70132 0
M  V30 285 H 26.7477 -1.36418 -4.40144 0
M  V30 286 H 25.0627 -1.08074 -4.0213 0
M  V30 287 H 27.6597 1.46456 -5.14252 0
M  V30 288 H 28.0027 2.14195 -3.56968 0
M  V30 289 H 28.5357 0.485889 -3.94821 0
M  V30 290 H 25.2747 -1.16419 -6.45079 0
M  V30 291 H 24.7947 0.482018 -5.9786 0
M  V30 292 H 26.4737 0.145238 -6.46837 0
M  V30 293 N 26.6058 1.57591 -0.0167156 0
M  V30 294 C 27.5158 2.1291 0.98521 0
M  V30 295 C 28.5318 1.07834 1.36557 0
M  V30 296 O 29.7078 1.39826 1.44951 0
M  V30 297 C 26.7728 2.63512 2.25305 0
M  V30 298 C 25.8338 3.83256 1.93426 0
M  V30 299 C 25.0668 4.31435 3.14165 0
M  V30 300 O 25.2898 3.78851 4.26413 0
M  V30 301 O 24.2238 5.23416 2.97186 0
M  V30 302 H 28.0498 2.98772 0.544888 0
M  V30 303 H 25.6348 1.48012 0.203141 0
M  V30 304 H 27.5168 2.96183 2.99756 0
M  V30 305 H 26.1918 1.8074 2.68542 0
M  V30 306 H 25.0988 3.55531 1.16398 0
M  V30 307 H 26.4318 4.67153 1.55013 0
M  V30 308 N 28.0839 -0.256276 1.55502 0
M  V30 309 C 29.4999 -0.604325 1.47716 0
M  V30 310 C 29.6999 -1.88763 0.705039 0
M  V30 311 O 28.7559 -2.51445 0.230613 0
M  V30 312 C 30.0689 -0.715756 2.92057 0
M  V30 313 C 31.6169 -0.808706 3.02372 0
M  V30 314 C 32.0919 -0.951777 4.48001 0
M  V30 315 N 33.5829 -1.01688 4.519 0
M  V30 316 C 34.3179 -1.14668 5.61817 0
M  V30 317 N 33.8139 -1.24261 6.81565 0
M  V30 318 N 35.6069 -1.1791 5.49594 0
M  V30 319 H 27.7579 0.586291 2.04148 0
M  V30 320 H 30.0209 0.201015 0.926443 0
M  V30 321 H 29.7269 0.157027 3.51349 0
M  V30 322 H 29.6009 -1.59071 3.42018 0
M  V30 323 H 31.9879 -1.67195 2.43166 0
M  V30 324 H 32.0689 0.0912063 2.55637 0
M  V30 325 H 31.7129 -0.0931291 5.07815 0
M  V30 326 H 31.6429 -1.86659 4.92408 0
M  V30 327 H 34.1339 -0.954468 3.65648 0
M  V30 328 H 34.4469 -1.34046 7.61086 0
M  V30 329 H 32.7919 -1.21236 6.84344 0
M  V30 330 H 35.9829 -1.10057 4.54978 0
M  V30 331 H 36.1559 -1.27681 6.35296 0
M  V30 332 N 29.562 -1.4872 -0.521534 0
M  V30 333 C 30.809 -1.57168 -1.27689 0
M  V30 334 C 31.137 -0.249275 -1.92896 0
M  V30 335 O 30.392 0.761162 -1.80291 0
M  V30 336 C 30.691 -2.66497 -2.38148 0
M  V30 337 C 30.357 -4.08664 -1.90538 0
M  V30 338 C 29.019 -4.47357 -1.77271 0
M  V30 339 C 31.371 -4.97724 -1.54663 0
M  V30 340 C 28.699 -5.72905 -1.26478 0
M  V30 341 C 31.051 -6.2377 -1.05329 0
M  V30 342 C 29.715 -6.61311 -0.906861 0
M  V30 343 H 28.985 -0.575117 -0.467249 0
M  V30 344 H 31.632 -1.82472 -0.581051 0
M  V30 345 H 29.937 -2.35085 -3.13437 0
M  V30 346 H 31.634 -2.70246 -2.96257 0
M  V30 347 H 28.224 -3.78111 -2.01816 0
M  V30 348 H 32.408 -4.68501 -1.63768 0
M  V30 349 H 27.664 -6.00709 -1.13835 0
M  V30 350 H 31.838 -6.9217 -0.76644 0
M  V30 351 H 29.465 -7.5848 -0.511083 0
M  V30 352 N 31.0401 0.771051 -1.3745 0
M  V30 353 C 32.0031 1.86598 -1.33093 0
M  V30 354 C 33.0031 1.59076 -0.234845 0
M  V30 355 O 34.1931 1.67145 -0.490732 0
M  V30 356 C 31.3251 3.23747 -1.06773 0
M  V30 357 H 32.5181 1.91873 -2.30488 0
M  V30 358 H 30.0711 0.970876 -1.2249 0
M  V30 359 H 30.8061 3.24148 -0.099129 0
M  V30 360 H 30.5911 3.45115 -1.86112 0
M  V30 361 H 32.0811 4.03824 -1.06377 0
M  V30 362 N 32.5182 1.22032 0.997298 0
M  V30 363 C 33.4812 0.987909 2.06816 0
M  V30 364 C 34.4812 -0.0440084 1.6074 0
M  V30 365 O 35.6712 0.194053 1.73116 0
M  V30 366 C 32.8032 0.49132 3.37341 0
M  V30 367 H 33.9962 1.93803 2.28868 0
M  V30 368 H 31.5492 1.03838 1.16822 0
M  V30 369 H 32.2842 -0.463364 3.20973 0
M  V30 370 H 32.0692 1.23575 3.72118 0
M  V30 371 H 33.5592 0.348824 4.16141 0
M  V30 372 N 33.9963 -1.19345 1.0293 0
M  V30 373 C 34.9593 -2.20793 0.615069 0
M  V30 374 C 35.9593 -1.57553 -0.321533 0
M  V30 375 O 37.1493 -1.73862 -0.108483 0
M  V30 376 C 34.2813 -3.40754 -0.0999222 0
M  V30 377 H 35.4743 -2.58955 1.51269 0
M  V30 378 H 33.0273 -1.3303 0.820534 0
M  V30 379 H 33.7623 -3.0811 -1.01187 0
M  V30 380 H 33.5473 -3.87889 0.57309 0
M  V30 381 H 35.0373 -4.15898 -0.376645 0
M  V30 382 N 35.4744 -0.807222 -1.35358 0
M  V30 383 C 36.8904 -0.491038 -1.51858 0
M  V30 384 C 37.0904 0.987648 -1.75635 0
M  V30 385 O 36.1464 1.77265 -1.79815 0
M  V30 386 C 37.4594 -1.33695 -2.69344 0
M  V30 387 C 39.0074 -1.33246 -2.83222 0
M  V30 388 C 39.4824 -2.1625 -4.03733 0
M  V30 389 N 40.9734 -2.1379 -4.10911 0
M  V30 390 C 41.7084 -2.74772 -5.03277 0
M  V30 391 N 41.2044 -3.44684 -6.0097 0
M  V30 392 N 42.9974 -2.6441 -4.96028 0
M  V30 393 H 35.1484 -1.76485 -1.18181 0
M  V30 394 H 37.4114 -0.751199 -0.578276 0
M  V30 395 H 37.1174 -2.38634 -2.58354 0
M  V30 396 H 36.9914 -0.990618 -3.6396 0
M  V30 397 H 39.3784 -0.290911 -2.93663 0
M  V30 398 H 39.4594 -1.71866 -1.89461 0
M  V30 399 H 39.1034 -3.20445 -3.94052 0
M  V30 400 H 39.0334 -1.74989 -4.96675 0
M  V30 401 H 41.5244 -1.62923 -3.40976 0
M  V30 402 H 41.8374 -3.88501 -6.68047 0
M  V30 403 H 40.1824 -3.48788 -6.01142 0
M  V30 404 H 43.3734 -2.0938 -4.18662 0
M  V30 405 H 43.5464 -3.12225 -5.6782 0
M  V30 406 N 36.9525 1.47285 -0.560781 0
M  V30 407 C 37.8995 2.30058 0.18491 0
M  V30 408 C 38.8695 1.39281 0.904986 0
M  V30 409 O 40.0545 1.68241 0.899979 0
M  V30 410 C 37.1945 3.23317 1.20666 0
M  V30 411 C 36.3075 4.29186 0.492285 0
M  V30 412 C 35.4425 5.09592 1.49964 0
M  V30 413 C 34.4815 6.07232 0.770439 0
M  V30 414 N 33.6185 6.80584 1.72479 0
M  V30 415 H 38.4585 2.93302 -0.527048 0
M  V30 416 H 35.9955 1.44568 -0.271738 0
M  V30 417 H 37.9535 3.75811 1.81168 0
M  V30 418 H 36.5835 2.61929 1.88661 0
M  V30 419 H 35.6355 3.7972 -0.227333 0
M  V30 420 H 36.9475 4.98738 -0.0787929 0
M  V30 421 H 36.1015 5.66254 2.17809 0
M  V30 422 H 34.8405 4.3995 2.10464 0
M  V30 423 H 33.8455 5.49745 0.0780846 0
M  V30 424 H 35.0705 6.78884 0.171134 0
M  V30 425 H 33.0165 6.1367 2.3183 0
M  V30 426 H 32.9335 7.46319 1.20596 0
M  V30 427 H 34.2015 7.41818 2.39428 0
M  V30 428 N 38.4306 0.297415 1.54768 0
M  V30 429 C 39.3936 -0.567375 2.22066 0
M  V30 430 C 40.3936 -1.06409 1.20556 0
M  V30 431 O 41.5836 -0.960691 1.45315 0
M  V30 432 C 38.7156 -1.78517 2.90421 0
M  V30 433 H 39.9086 0.0205534 2.99893 0
M  V30 434 H 37.4616 0.0482163 1.56226 0
M  V30 435 H 38.1966 -2.41303 2.16664 0
M  V30 436 H 37.9816 -1.43669 3.64831 0
M  V30 437 H 39.4716 -2.39964 3.41771 0
M  V30 438 N 39.9087 -1.5758 0.0250728 0
M  V30 439 C 41.1567 -1.91255 -0.653151 0
M  V30 440 C 41.4777 -0.901691 -1.729 0
M  V30 441 O 40.7477 0.0573785 -1.95816 0
M  V30 442 H 39.3277 -0.705942 -0.244243 0
M  V30 443 H 41.9897 -1.94767 0.0719209 0
M  V30 444 H 41.0857 -2.91752 -1.10847 0
M  V30 445 N 41.3868 0.248026 -1.55636 0
M  V30 446 C 42.6338 0.976224 -1.77415 0
M  V30 447 C 42.9618 1.85361 -0.589193 0
M  V30 448 O 42.2168 1.90973 0.427529 0
M  V30 449 C 42.5158 1.86819 -3.04686 0
M  V30 450 C 42.1818 1.14625 -4.36087 0
M  V30 451 C 40.8438 0.946723 -4.71795 0
M  V30 452 C 43.1958 0.634463 -5.17324 0
M  V30 453 C 40.5238 0.223091 -5.86276 0
M  V30 454 C 42.8758 -0.0756959 -6.32555 0
M  V30 455 C 41.5398 -0.286711 -6.66884 0
M  V30 456 H 40.8098 0.357226 -0.649208 0
M  V30 457 H 43.4568 0.246415 -1.89908 0
M  V30 458 H 41.7618 2.66502 -2.872 0
M  V30 459 H 43.4588 2.43329 -3.18735 0
M  V30 460 H 40.0488 1.3117 -4.08035 0
M  V30 461 H 44.2328 0.77616 -4.90193 0
M  V30 462 H 39.4888 0.0491185 -6.1138 0
M  V30 463 H 43.6628 -0.479899 -6.94745 0
M  V30 464 H 41.2898 -0.849389 -7.5544 0
M  V30 465 N 42.8649 1.48995 0.513639 0
M  V30 466 C 44.1419 1.48338 1.27495 0
M  V30 467 C 44.5219 0.204065 2.10111 0
M  V30 468 O 43.8699 -0.813881 2.13514 0
M  V30 469 C 44.0799 2.75498 2.14247 0
M  V30 470 C 45.4279 3.24484 2.73852 0
M  V30 471 O 46.4519 2.76528 2.24523 0
M  V30 472 O 45.3109 4.07974 3.6362 0
M  V30 473 H 42.4049 0.593149 0.576284 0
M  V30 474 H 44.9509 1.61246 0.528948 0
M  V30 475 H 43.7229 3.60109 1.53092 0
M  V30 476 H 43.3459 2.6539 2.96064 0
M  V30 477 N 44.343 -0.763751 1.37857 0
M  V30 478 C 45.306 -1.85889 1.34081 0
M  V30 479 C 46.306 -1.58949 0.243277 0
M  V30 480 O 47.496 -1.66882 0.499589 0
M  V30 481 C 44.628 -3.23176 1.08489 0
M  V30 482 H 45.821 -1.90648 2.31502 0
M  V30 483 H 43.374 -0.964367 1.23003 0
M  V30 484 H 44.109 -3.24091 0.116318 0
M  V30 485 H 43.894 -3.44124 1.8794 0
M  V30 486 H 45.384 -4.03254 1.08517 0
M  V30 487 N 45.8211 -1.22559 -0.990812 0
M  V30 488 C 47.0671 -1.05297 -1.73322 0
M  V30 489 C 47.4001 0.410655 -1.89808 0
M  V30 490 O 46.6751 1.30439 -1.44277 0
M  V30 491 C 46.9581 -1.76713 -3.13759 0
M  V30 492 C 46.8111 -3.30684 -3.04907 0
M  V30 493 C 48.1301 -1.52121 -4.12974 0
M  V30 494 H 45.2491 -0.38392 -0.629106 0
M  V30 495 H 47.8911 -1.50926 -1.15418 0
M  V30 496 H 46.0411 -1.37924 -3.63193 0
M  V30 497 H 47.7131 -3.7893 -2.63077 0
M  V30 498 H 45.9561 -3.60253 -2.41661 0
M  V30 499 H 46.6271 -3.75833 -4.04294 0
M  V30 500 H 49.1031 -1.85819 -3.72304 0
M  V30 501 H 47.9791 -2.04582 -5.0935 0
M  V30 502 H 48.2401 -0.454257 -4.3976 0
M  V30 503 N 47.2992 1.18797 -1.03562 0
M  V30 504 C 48.2092 2.25913 -0.632505 0
M  V30 505 C 49.2252 1.70668 0.338882 0
M  V30 506 O 50.4012 2.00453 0.195076 0
M  V30 507 C 47.4662 3.467 0.00350942 0
M  V30 508 C 46.5272 4.17098 -1.01624 0
M  V30 509 C 45.7602 5.32119 -0.410478 0
M  V30 510 O 45.9832 5.64976 0.784725 0
M  V30 511 O 44.9172 5.9107 -1.13667 0
M  V30 512 H 48.7432 2.62648 -1.52478 0
M  V30 513 H 46.3282 1.25781 -0.806195 0
M  V30 514 H 48.2102 4.19878 0.35781 0
M  V30 515 H 46.8852 3.11798 0.869686 0
M  V30 516 H 45.7922 3.4601 -1.42224 0
M  V30 517 H 47.1252 4.55987 -1.85301 0
M  V30 518 N 48.7773 0.814389 1.34928 0
M  V30 519 C 50.0243 0.398423 1.98542 0
M  V30 520 C 50.3523 -1.03638 1.64589 0
M  V30 521 O 49.6073 -1.73509 0.90516 0
M  V30 522 C 49.9063 0.537781 3.53331 0
M  V30 523 C 49.5723 1.93704 4.07172 0
M  V30 524 C 48.2343 2.31984 4.21589 0
M  V30 525 C 50.5863 2.85213 4.36237 0
M  V30 526 C 47.9143 3.61125 4.62391 0
M  V30 527 C 50.2663 4.13809 4.78482 0
M  V30 528 C 48.9303 4.52077 4.91104 0
M  V30 529 H 48.2003 0.145793 0.726516 0
M  V30 530 H 50.8473 1.03669 1.61012 0
M  V30 531 H 49.1523 -0.183906 3.91368 0
M  V30 532 H 50.8493 0.196588 4.00518 0
M  V30 533 H 47.4393 1.62966 3.96409 0
M  V30 534 H 51.6233 2.56885 4.24645 0
M  V30 535 H 46.8793 3.90612 4.70353 0
M  V30 536 H 51.0533 4.84811 4.99932 0
M  V30 537 H 48.6803 5.52196 5.22478 0
M  V30 538 N 50.2554 -1.46986 0.568584 0
M  V30 539 C 51.1854 -2.32946 -0.160753 0
M  V30 540 C 52.1664 -1.44487 -0.897631 0
M  V30 541 O 53.3514 -1.73327 -0.875867 0
M  V30 542 C 50.4814 -3.26494 -1.18403 0
M  V30 543 C 49.4354 -4.24282 -0.562895 0
M  V30 544 C 48.7614 -5.07236 -1.69163 0
M  V30 545 C 50.0614 -5.19989 0.490761 0
M  V30 546 H 51.7554 -2.94175 0.556916 0
M  V30 547 H 49.3014 -1.4146 0.26927 0
M  V30 548 H 51.2544 -3.85477 -1.70251 0
M  V30 549 H 49.9784 -2.63343 -1.93179 0
M  V30 550 H 48.6374 -3.66541 -0.0656164 0
M  V30 551 H 48.2854 -4.4048 -2.42871 0
M  V30 552 H 47.9854 -5.7345 -1.28174 0
M  V30 553 H 49.5094 -5.6908 -2.21314 0
M  V30 554 H 50.9234 -5.73271 0.0579047 0
M  V30 555 H 49.3204 -5.94469 0.820165 0
M  V30 556 H 50.3904 -4.64777 1.3824 0
M  V30 557 N 51.7335 -0.305618 -1.54608 0
M  V30 558 C 52.9805 0.302298 -2.00231 0
M  V30 559 C 53.3085 1.5354 -1.19398 0
M  V30 560 O 52.5635 1.93973 -0.259423 0
M  V30 561 C 52.8625 0.698983 -3.50498 0
M  V30 562 C 52.5285 -0.432903 -4.48817 0
M  V30 563 C 51.1905 -0.743622 -4.75419 0
M  V30 564 C 53.5425 -1.19409 -5.07337 0
M  V30 565 C 50.8705 -1.81857 -5.57804 0
M  V30 566 C 53.2225 -2.25899 -5.90891 0
M  V30 567 C 51.8865 -2.57572 -6.15803 0
M  V30 568 H 51.1565 0.110619 -0.732697 0
M  V30 569 H 53.8035 -0.425674 -1.86709 0
M  V30 570 H 52.1085 1.50711 -3.61654 0
M  V30 571 H 53.8055 1.1806 -3.83227 0
M  V30 572 H 50.3955 -0.18063 -4.28219 0
M  V30 573 H 54.5795 -0.967295 -4.86782 0
M  V30 574 H 49.8355 -2.06864 -5.75341 0
M  V30 575 H 54.0095 -2.85335 -6.35261 0
M  V30 576 H 51.6365 -3.40998 -6.7943 0
M  V30 577 N 53.2116 1.57565 -0.0334293 0
M  V30 578 C 54.6226 1.79746 0.504798 0
M  V30 579 C 54.9736 0.944091 1.71992 0
M  V30 580 O 54.0986 0.155694 2.15839 0
M  V30 581 C 54.6936 3.25997 0.922567 0
M  V30 582 C 53.2526 3.49159 1.40588 0
M  V30 583 C 52.3996 2.74785 0.372633 0
M  V30 584 H 55.3506 1.56565 -0.259436 0
M  V30 585 H 55.3716 3.35945 1.78666 0
M  V30 586 H 54.8836 3.88081 0.0379825 0
M  V30 587 H 52.9846 2.92332 2.31025 0
M  V30 588 H 53.0976 4.57873 1.41028 0
M  V30 589 H 51.4616 2.40391 0.841672 0
M  V30 590 H 52.2446 3.39587 -0.503559 0
M  V30 591 N 54.6897 -0.239769 1.55765 0
M  V30 592 C 55.9197 -0.982743 1.8173 0
M  V30 593 C 56.3277 -1.7917 0.607835 0
M  V30 594 O 55.6707 -1.78525 -0.432973 0
M  V30 595 C 55.7327 -1.96332 3.01155 0
M  V30 596 C 55.3967 -1.34062 4.36894 0
M  V30 597 C 56.3937 -0.739539 5.14613 0
M  V30 598 C 54.0787 -1.35784 4.83599 0
M  V30 599 C 56.0727 -0.163989 6.37189 0
M  V30 600 C 53.7597 -0.778441 6.06122 0
M  V30 601 C 54.7577 -0.182548 6.82756 0
M  V30 602 O 54.4457 0.387887 8.02964 0
M  V30 603 H 54.1777 -0.294481 0.608487 0
M  V30 604 H 56.7317 -0.26572 2.03674 0
M  V30 605 H 54.9617 -2.71884 2.74984 0
M  V30 606 H 56.6507 -2.57032 3.14149 0
M  V30 607 H 57.4167 -0.718687 4.79646 0
M  V30 608 H 53.2957 -1.81105 4.23936 0
M  V30 609 H 56.8397 0.301753 6.96947 0
M  V30 610 H 52.7367 -0.796645 6.40565 0
M  V30 611 H 53.5047 0.28044 8.18019 0
M  V30 612 N 56.1678 -1.49265 -0.50573 0
M  V30 613 C 57.1158 -1.66065 -1.62866 0
M  V30 614 C 58.1098 -0.526636 -1.61006 0
M  V30 615 O 59.3158 -0.706126 -1.65571 0
M  V30 616 H 55.6908 -0.52356 -0.539805 0
M  V30 617 H 57.6618 -2.60329 -1.45848 0
M  V30 618 C 56.4108 -1.74008 -3.01026 0
M  V30 619 H 55.7338 -2.6064 -3.03161 0
M  V30 620 H 57.1738 -1.89798 -3.79147 0
M  V30 621 C 55.6328 -0.483868 -3.33407 0
M  V30 622 O 56.1628 0.392548 -3.99777 0
M  V30 623 N 54.3688 -0.348236 -2.88506 0
M  V30 624 H 53.9158 -1.06242 -2.34671 0
M  V30 625 H 53.8738 0.491204 -3.10539 0
M  V30 626 N 57.6459 0.756429 -1.3826 0
M  V30 627 C 58.8759 1.54341 -1.3734 0
M  V30 628 C 59.2839 1.89159 0.0393917 0
M  V30 629 O 58.6269 1.5307 1.01565 0
M  V30 630 C 58.6889 2.87238 -2.16182 0
M  V30 631 C 58.3529 2.74973 -3.65019 0
M  V30 632 C 59.3499 2.44962 -4.58574 0
M  V30 633 C 57.0349 2.92515 -4.08338 0
M  V30 634 C 59.0289 2.32642 -5.93428 0
M  V30 635 C 56.7159 2.79815 -5.43274 0
M  V30 636 C 57.7139 2.49921 -6.35632 0
M  V30 637 O 57.4019 2.37275 -7.68086 0
M  V30 638 H 57.1339 0.484281 -0.471643 0
M  V30 639 H 59.6879 0.944152 -1.82414 0
M  V30 640 H 57.9179 3.49342 -1.65822 0
M  V30 641 H 59.6069 3.48731 -2.07705 0
M  V30 642 H 60.3729 2.31081 -4.26412 0
M  V30 643 H 56.2519 3.14781 -3.368 0
M  V30 644 H 59.7959 2.0923 -6.65484 0
M  V30 645 H 55.6929 2.93269 -5.75034 0
M  V30 646 H 56.4609 2.52509 -7.78577 0
M  V30 647 N 59.124 1.23083 0.984299 0
M  V30 648 C 60.349 1.088 1.76571 0
M  V30 649 C 60.774 -0.356657 1.84688 0
M  V30 650 O 60.132 -1.25788 1.30565 0
M  V30 651 C 60.18 1.71371 3.17277 0
M  V30 652 O 59.284 0.973213 4.00752 0
M  V30 653 H 58.625 0.381599 0.543395 0
M  V30 654 H 61.155 1.63057 1.23587 0
M  V30 655 H 61.165 1.76449 3.67872 0
M  V30 656 H 59.84 2.76493 3.10684 0
M  V30 657 H 58.417 0.999078 3.59267 0
M  V30 658 N 60.6021 -1.18246 1.0419 0
M  V30 659 C 61.8301 -1.92195 0.766072 0
M  V30 660 C 62.2451 -1.76247 -0.676933 0
M  V30 661 O 61.6021 -1.09293 -1.46155 0
M  V30 662 C 61.6531 -3.43568 1.12442 0
M  V30 663 O 61.3741 -3.59015 2.51078 0
M  V30 664 C 62.8751 -4.34613 0.873275 0
M  V30 665 H 60.0951 -0.610114 0.279288 0
M  V30 666 H 62.6391 -1.50007 1.38989 0
M  V30 667 H 60.7941 -3.8354 0.545542 0
M  V30 668 H 61.2081 -4.5273 2.64831 0
M  V30 669 H 62.6821 -5.39374 1.17385 0
M  V30 670 H 63.1591 -4.38781 -0.191909 0
M  V30 671 H 63.7651 -4.00341 1.43551 0
M  V30 672 N 62.0802 -0.821533 -1.34494 0
M  V30 673 C 63.0102 -0.257138 -2.3208 0
M  V30 674 C 63.9912 0.625645 -1.58176 0
M  V30 675 O 65.1762 0.552811 -1.86166 0
M  V30 676 C 62.3062 0.582958 -3.42372 0
M  V30 677 C 61.2602 -0.202571 -4.2752 0
M  V30 678 C 60.5862 0.760179 -5.29269 0
M  V30 679 C 61.8862 -1.40998 -5.02908 0
M  V30 680 H 63.5802 -1.07247 -2.79532 0
M  V30 681 H 61.1262 -0.517163 -1.34393 0
M  V30 682 H 63.0792 0.987972 -4.09655 0
M  V30 683 H 61.8032 1.43133 -2.93565 0
M  V30 684 H 60.4622 -0.588936 -3.61838 0
M  V30 685 H 60.1102 1.60447 -4.76724 0
M  V30 686 H 59.8102 0.238809 -5.87115 0
M  V30 687 H 61.3342 1.16308 -5.9942 0
M  V30 688 H 62.7482 -1.07905 -5.63054 0
M  V30 689 H 61.1452 -1.86689 -5.70322 0
M  V30 690 H 62.2152 -2.1889 -4.32684 0
M  V30 691 N 63.5583 1.46682 -0.576371 0
M  V30 692 C 64.4903 2.28341 0.198231 0
M  V30 693 C 65.5033 1.38141 0.861453 0
M  V30 694 O 66.6923 1.62797 0.732082 0
M  V30 695 C 63.7923 3.12986 1.29972 0
M  V30 696 C 62.9653 4.31271 0.729639 0
M  V30 697 C 62.0243 4.97363 1.71803 0
M  V30 698 O 61.0503 5.55156 1.25658 0
M  V30 699 N 62.2523 4.93796 3.05198 0
M  V30 700 H 65.0173 2.9546 -0.502324 0
M  V30 701 H 62.5783 1.56525 -0.413715 0
M  V30 702 H 64.5703 3.54066 1.96008 0
M  V30 703 H 63.1403 2.47984 1.90323 0
M  V30 704 H 62.3603 3.94052 -0.108012 0
M  V30 705 H 63.6483 5.07739 0.328438 0
M  V30 706 H 63.0463 4.48077 3.45317 0
M  V30 707 H 61.6033 5.38837 3.6674 0
M  V30 708 N 65.0364 0.313813 1.54444 0
M  V30 709 C 66.2854 -0.292519 1.99568 0
M  V30 710 C 66.5984 -1.54011 1.20582 0
M  V30 711 O 67.8044 -2.22183 1.56035 0
M  V30 712 C 66.2604 -0.571752 3.55329 0
M  V30 713 C 65.8684 0.658229 4.43138 0
M  V30 714 C 67.6124 -1.13857 4.08946 0
M  V30 715 C 65.5194 0.351439 5.90355 0
M  V30 716 H 64.4494 -0.113079 0.745472 0
M  V30 717 H 67.1004 0.424518 1.78522 0
M  V30 718 H 65.4824 -1.34872 3.72325 0
M  V30 719 H 66.6564 1.43403 4.37918 0
M  V30 720 H 64.9714 1.14458 4.0036 0
M  V30 721 H 67.5684 -1.38257 5.16516 0
M  V30 722 H 67.9114 -2.08489 3.6033 0
M  V30 723 H 68.4444 -0.423015 3.95544 0
M  V30 724 H 65.1834 1.26667 6.43145 0
M  V30 725 H 64.7034 -0.386842 5.98551 0
M  V30 726 H 66.3824 -0.0423134 6.46986 0
M  V30 727 N 66.5145 -1.57545 0.0417849 0
M  V30 728 C 67.4465 -2.07904 -0.964799 0
M  V30 729 C 68.4595 -1.00497 -1.28079 0
M  V30 730 O 69.6485 -1.28087 -1.24322 0
M  V30 731 C 66.7485 -2.49928 -2.28887 0
M  V30 732 C 65.9215 -3.80562 -2.15619 0
M  V30 733 C 64.9805 -4.08999 -3.31069 0
M  V30 734 O 64.0065 -4.79061 -3.0739 0
M  V30 735 N 65.2085 -3.6017 -4.55256 0
M  V30 736 H 67.9735 -2.94886 -0.535029 0
M  V30 737 H 65.5345 -1.61252 -0.144681 0
M  V30 738 H 67.5265 -2.66034 -3.04972 0
M  V30 739 H 66.0965 -1.68245 -2.63463 0
M  V30 740 H 65.3165 -3.74129 -1.24183 0
M  V30 741 H 66.6045 -4.66126 -2.03971 0
M  V30 742 H 66.0025 -3.03512 -4.77386 0
M  V30 743 H 64.5595 -3.81532 -5.28466 0
M  V30 744 N 67.9926 0.231505 -1.5589 0
M  V30 745 C 68.9396 1.28682 -1.91598 0
M  V30 746 C 69.9096 1.47071 -0.771974 0
M  V30 747 O 71.0946 1.60802 -1.027 0
M  V30 748 C 68.2346 2.6342 -2.22944 0
M  V30 749 C 67.3476 2.52912 -3.50228 0
M  V30 750 C 66.4826 3.80106 -3.7107 0
M  V30 751 C 65.5216 3.64279 -4.91902 0
M  V30 752 N 64.6586 4.834 -5.09184 0
M  V30 753 H 69.4986 0.975305 -2.81588 0
M  V30 754 H 67.0356 0.470299 -1.39379 0
M  V30 755 H 68.9936 3.41869 -2.39126 0
M  V30 756 H 67.6236 2.92687 -1.36139 0
M  V30 757 H 66.6756 1.6595 -3.42294 0
M  V30 758 H 67.9876 2.37133 -4.38827 0
M  V30 759 H 67.1416 4.66999 -3.87295 0
M  V30 760 H 65.8806 3.98799 -2.80733 0
M  V30 761 H 64.8856 2.7577 -4.75637 0
M  V30 762 H 66.1106 3.47067 -5.83714 0
M  V30 763 H 64.0566 5.02425 -4.21788 0
M  V30 764 H 63.9736 4.70311 -5.91898 0
M  V30 765 H 65.2416 5.71747 -5.29835 0
M  V30 766 N 69.4707 1.49531 0.497807 0
M  V30 767 C 70.4027 1.62559 1.61578 0
M  V30 768 C 71.4157 0.508134 1.54667 0
M  V30 769 O 72.6047 0.780309 1.60541 0
M  V30 770 C 69.7047 1.56925 3.00379 0
M  V30 771 C 68.8777 2.84257 3.3244 0
M  V30 772 C 67.9367 2.71632 4.50669 0
M  V30 773 O 66.9627 3.4557 4.52294 0
M  V30 774 N 68.1647 1.83391 5.5077 0
M  V30 775 H 70.9297 2.58981 1.50828 0
M  V30 776 H 68.4907 1.4666 0.685743 0
M  V30 777 H 70.4827 1.46129 3.77397 0
M  V30 778 H 69.0527 0.683483 3.05037 0
M  V30 779 H 68.2727 3.09381 2.44289 0
M  V30 780 H 69.5607 3.68666 3.5066 0
M  V30 781 H 68.9587 1.22583 5.52259 0
M  V30 782 H 67.5157 1.78515 6.26878 0
M  V30 783 N 70.9488 -0.749086 1.3866 0
M  V30 784 C 71.8788 -1.8764 1.38973 0
M  V30 785 C 72.8598 -1.68178 0.255004 0
M  V30 786 O 74.0448 -1.88704 0.458754 0
M  V30 787 C 71.1748 -3.25222 1.21851 0
M  V30 788 C 70.1288 -3.59295 2.32575 0
M  V30 789 C 69.4548 -4.95663 2.00555 0
M  V30 790 C 70.7548 -3.63709 3.7485 0
M  V30 791 H 72.4488 -1.87635 2.3331 0
M  V30 792 H 69.9948 -0.901329 1.12303 0
M  V30 793 H 71.9478 -4.03746 1.20695 0
M  V30 794 H 70.6718 -3.25719 0.239775 0
M  V30 795 H 69.3308 -2.83093 2.32925 0
M  V30 796 H 68.9788 -4.92724 1.01154 0
M  V30 797 H 68.6788 -5.19429 2.74714 0
M  V30 798 H 70.2028 -5.7656 2.01024 0
M  V30 799 H 71.6168 -4.32338 3.76506 0
M  V30 800 H 70.0138 -3.98986 4.48252 0
M  V30 801 H 71.0838 -2.63834 4.06841 0
M  V30 802 N 72.4269 -1.23603 -0.977757 0
M  V30 803 C 73.3369 -1.03632 -2.1047 0
M  V30 804 C 74.3529 0.0199435 -1.73989 0
M  V30 805 O 75.5289 -0.176076 -2.00629 0
M  V30 806 C 72.5939 -0.63276 -3.40877 0
M  V30 807 C 71.6549 -1.76437 -3.91367 0
M  V30 808 C 70.8879 -1.37997 -5.15551 0
M  V30 809 O 71.1109 -0.265357 -5.69782 0
M  V30 810 O 70.0449 -2.20201 -5.60174 0
M  V30 811 H 73.8709 -1.98086 -2.30208 0
M  V30 812 H 71.4559 -1.02332 -1.08851 0
M  V30 813 H 73.3379 -0.418761 -4.19314 0
M  V30 814 H 72.0129 0.282754 -3.22463 0
M  V30 815 H 70.9199 -2.03304 -3.14036 0
M  V30 816 H 72.2529 -2.6583 -4.14241 0
M  V30 817 N 73.905 1.17692 -1.04816 0
M  V30 818 C 74.837 2.21103 -0.603822 0
M  V30 819 C 75.85 1.59411 0.33046 0
M  V30 820 O 77.039 1.7807 0.12379 0
M  V30 821 C 74.139 3.38623 0.136898 0
M  V30 822 C 73.312 4.29888 -0.807137 0
M  V30 823 C 72.371 5.26088 -0.10836 0
M  V30 824 O 71.397 5.64353 -0.741232 0
M  V30 825 N 72.599 5.68882 1.15558 0
M  V30 826 H 75.364 2.59848 -1.49329 0
M  V30 827 H 72.925 1.32553 -0.929587 0
M  V30 828 H 74.917 4.00009 0.614401 0
M  V30 829 H 73.487 2.98508 0.927993 0
M  V30 830 H 72.707 3.65993 -1.46434 0
M  V30 831 H 73.995 4.87759 -1.44807 0
M  V30 832 H 73.393 5.39861 1.69015 0
M  V30 833 H 71.95 6.32429 1.57722 0
M  V30 834 N 75.3831 0.828654 1.34056 0
M  V30 835 C 76.3311 0.242973 2.31327 0
M  V30 836 C 77.3251 -0.61944 1.57668 0
M  V30 837 O 78.5311 -0.51014 1.7262 0
M  V30 838 H 74.9061 0.059834 0.749616 0
M  V30 839 H 76.8771 1.07809 2.78244 0
M  V30 840 C 75.6261 -0.575733 3.429 0
M  V30 841 H 74.9491 0.0785582 3.99723 0
M  V30 842 H 76.3891 -0.951547 4.13185 0
M  V30 843 C 74.8481 -1.75044 2.87856 0
M  V30 844 O 75.3781 -2.84882 2.83205 0
M  V30 845 N 73.5841 -1.56903 2.44602 0
M  V30 846 H 73.1311 -0.675547 2.48584 0
M  V30 847 H 73.0891 -2.35652 2.08124 0
M  V30 848 N 76.8612 -1.46375 0.584142 0
M  V30 849 C 77.8112 -2.27371 -0.169232 0
M  V30 850 C 78.7952 -1.35955 -0.860523 0
M  V30 851 O 79.9872 -1.60119 -0.754382 0
M  V30 852 C 77.1162 -3.22334 -1.18134 0
M  V30 853 C 76.2022 -4.21235 -0.492088 0
M  V30 854 N 76.5932 -5.03766 0.453129 0
M  V30 855 C 74.8912 -4.39773 -0.742652 0
M  V30 856 C 75.5922 -5.75366 0.85609 0
M  V30 857 N 74.5682 -5.43214 0.204926 0
M  V30 858 H 78.3702 -2.88572 0.557097 0
M  V30 859 H 75.8842 -1.57242 0.406042 0
M  V30 860 H 77.8812 -3.79071 -1.73525 0
M  V30 861 H 76.5412 -2.62693 -1.90847 0
M  V30 862 H 77.5522 -5.11227 0.828723 0
M  V30 863 H 74.2292 -3.91279 -1.45625 0
M  V30 864 H 75.6192 -6.5172 1.63434 0
M  V30 865 N 78.3393 -0.321999 -1.54275 0
M  V30 866 C 79.2693 0.537411 -2.27231 0
M  V30 867 C 80.2503 1.12064 -1.27968 0
M  V30 868 O 81.4353 1.14606 -1.56777 0
M  V30 869 C 78.5653 1.69919 -3.02894 0
M  V30 870 C 77.5193 1.24534 -4.09482 0
M  V30 871 C 76.8453 2.49394 -4.72977 0
M  V30 872 C 78.1453 0.361335 -5.21049 0
M  V30 873 H 79.8393 -0.0711406 -2.99315 0
M  V30 874 H 77.3853 -0.0356555 -1.43956 0
M  V30 875 H 79.3383 2.30668 -3.52662 0
M  V30 876 H 78.0623 2.33431 -2.28424 0
M  V30 877 H 76.7213 0.660782 -3.60596 0
M  V30 878 H 76.3693 3.11265 -3.95124 0
M  V30 879 H 76.0693 2.19718 -5.44975 0
M  V30 880 H 77.5933 3.10908 -5.25517 0
M  V30 881 H 79.0073 0.875072 -5.66582 0
M  V30 882 H 77.4043 0.157428 -5.99893 0
M  V30 883 H 78.4743 -0.60822 -4.8107 0
M  V30 884 N 79.8174 1.5752 -0.0501392 0
M  V30 885 C 81.0454 1.96963 0.633492 0
M  V30 886 C 81.4604 0.927631 1.6444 0
M  V30 887 O 80.8174 -0.0882665 1.82286 0
M  V30 888 C 80.8684 3.36487 1.32132 0
M  V30 889 O 80.5894 4.36693 0.350894 0
M  V30 890 C 82.0904 3.90682 2.09481 0
M  V30 891 H 79.3104 0.648244 0.173266 0
M  V30 892 H 81.8544 2.0417 -0.116134 0
M  V30 893 H 80.0094 3.30434 2.02218 0
M  V30 894 H 80.4234 5.17702 0.841735 0
M  V30 895 H 81.8974 4.90591 2.5303 0
M  V30 896 H 82.3744 3.26053 2.94255 0
M  V30 897 H 82.9804 4.00069 1.44307 0
M  V30 898 N 81.2955 -0.223234 1.56011 0
M  V30 899 C 82.2255 -1.27988 1.95298 0
M  V30 900 C 83.2065 -1.48976 0.820979 0
M  V30 901 O 84.3915 -1.61188 1.08315 0
M  V30 902 C 81.5215 -2.63 2.26822 0
M  V30 903 C 80.4755 -2.56671 3.42497 0
M  V30 904 C 79.8015 -3.95697 3.59622 0
M  V30 905 C 81.1015 -2.11601 4.77517 0
M  V30 906 H 82.7955 -0.953525 2.8381 0
M  V30 907 H 80.3415 -0.457244 1.36548 0
M  V30 908 H 82.2945 -3.37077 2.52898 0
M  V30 909 H 81.0185 -2.9732 1.35161 0
M  V30 910 H 79.6775 -1.85051 3.16467 0
M  V30 911 H 79.3255 -4.27322 2.6534 0
M  V30 912 H 79.0255 -3.92345 4.37424 0
M  V30 913 H 80.5495 -4.71438 3.88044 0
M  V30 914 H 81.9635 -2.7542 5.02809 0
M  V30 915 H 80.3605 -2.19311 5.5859 0
M  V30 916 H 81.4305 -1.06824 4.72987 0
M  V30 917 N 82.7736 -1.49793 -0.48987 0
M  V30 918 C 83.7366 -1.66752 -1.57246 0
M  V30 919 C 84.7366 -0.538867 -1.51502 0
M  V30 920 O 85.9266 -0.805545 -1.54456 0
M  V30 921 C 83.0586 -1.67528 -2.96896 0
M  V30 922 H 84.2516 -2.63321 -1.43534 0
M  V30 923 H 81.8046 -1.38992 -0.714914 0
M  V30 924 H 82.5396 -0.725837 -3.16073 0
M  V30 925 H 82.3246 -2.49504 -3.02473 0
M  V30 926 H 83.8146 -1.82667 -3.7553 0
M  V30 927 N 84.2517 0.741722 -1.39055 0
M  V30 928 C 85.1817 1.869 -1.39966 0
M  V30 929 C 86.1627 1.6804 -0.26392 0
M  V30 930 O 87.3477 1.88458 -0.468755 0
M  V30 931 C 84.4777 3.24572 -1.23574 0
M  V30 932 C 83.4317 3.58056 -2.34477 0
M  V30 933 C 82.7577 4.94593 -2.0318 0
M  V30 934 C 84.0577 3.61716 -3.76774 0
M  V30 935 H 85.7517 1.86395 -2.34302 0
M  V30 936 H 83.2977 0.895361 -1.1278 0
M  V30 937 H 85.2507 4.031 -1.22834 0
M  V30 938 H 83.9747 3.25587 -0.257045 0
M  V30 939 H 82.6337 2.81854 -2.34423 0
M  V30 940 H 82.2817 4.92181 -1.03765 0
M  V30 941 H 81.9817 5.17964 -2.77465 0
M  V30 942 H 83.5057 5.75486 -2.04079 0
M  V30 943 H 84.9197 4.30335 -3.78794 0
M  V30 944 H 83.3167 3.96603 -4.50362 0
M  V30 945 H 84.3867 2.61672 -4.08235 0
M  V30 946 N 85.7298 1.2412 0.971189 0
M  V30 947 C 86.9768 1.07881 1.71371 0
M  V30 948 C 87.3048 -0.382901 1.90694 0
M  V30 949 O 86.5598 -1.29945 1.46331 0
M  V30 950 C 86.8588 1.75983 3.11071 0
M  V30 951 C 86.5248 3.25909 3.11599 0
M  V30 952 C 85.1868 3.66813 3.11451 0
M  V30 953 C 87.5388 4.21771 3.062 0
M  V30 954 C 84.8668 5.02021 3.03631 0
M  V30 955 C 87.2188 5.56982 2.99923 0
M  V30 956 C 85.8828 5.97237 2.98102 0
M  V30 957 H 85.1528 0.394764 0.62709 0
M  V30 958 H 87.7998 1.54176 1.13587 0
M  V30 959 H 86.1048 1.22072 3.72298 0
M  V30 960 H 87.8018 1.60887 3.6731 0
M  V30 961 H 84.3918 2.93353 3.12477 0
M  V30 962 H 88.5758 3.91172 3.05447 0
M  V30 963 H 83.8318 5.32411 3.0058 0
M  V30 964 H 88.0058 6.30969 2.94704 0
M  V30 965 H 85.6328 7.01967 2.91798 0
M  V30 966 N 87.2079 -1.17134 1.05439 0
M  V30 967 C 88.1559 -2.23289 0.651511 0
M  V30 968 C 89.1499 -1.66186 -0.328411 0
M  V30 969 O 90.3559 -1.78949 -0.194206 0
M  V30 970 H 86.7309 -0.726938 0.192523 0
M  V30 971 H 88.7019 -2.54565 1.55689 0
M  V30 972 C 87.4509 -3.47671 0.0448436 0
M  V30 973 H 86.7739 -3.91918 0.78996 0
M  V30 974 H 88.2139 -4.2353 -0.19964 0
M  V30 975 C 86.6729 -3.14453 -1.20918 0
M  V30 976 O 87.2029 -3.29459 -2.29825 0
M  V30 977 N 85.4089 -2.68657 -1.10779 0
M  V30 978 H 84.9559 -2.56646 -0.221526 0
M  V30 979 H 84.9139 -2.46804 -1.9477 0
M  V30 980 N 88.686 -0.835752 -1.33615 0
M  V30 981 C 89.914 -0.443344 -2.02094 0
M  V30 982 C 90.329 0.954522 -1.62894 0
M  V30 983 O 89.686 1.61982 -0.840723 0
M  V30 984 C 89.737 -0.550775 -3.5728 0
M  V30 985 O 89.458 -1.89356 -3.95065 0
M  V30 986 C 90.959 -0.154919 -4.43029 0
M  V30 987 H 88.179 -0.176359 -0.647409 0
M  V30 988 H 90.723 -1.12746 -1.70612 0
M  V30 989 H 88.878 0.0853997 -3.87306 0
M  V30 990 H 89.292 -1.87687 -4.89769 0
M  V30 991 H 90.766 -0.281144 -5.51284 0
M  V30 992 H 91.243 0.902863 -4.2982 0
M  V30 993 H 91.849 -0.765404 -4.18356 0
M  V30 994 N 90.1641 1.46063 -0.591896 0
M  V30 995 C 91.1271 2.28854 0.125973 0
M  V30 996 C 92.1271 1.38903 0.810107 0
M  V30 997 O 93.3171 1.61186 0.66066 0
M  V30 998 C 90.4491 3.19526 1.1881 0
M  V30 999 H 91.6421 2.93802 -0.601717 0
M  V30 1000 H 89.1951 1.52325 -0.350254 0
M  V30 1001 H 89.9301 2.59345 1.94707 0
M  V30 1002 H 89.7151 3.85766 0.701936 0
M  V30 1003 H 91.2051 3.81817 1.69132 0
M  V30 1004 N 91.6422 0.330177 1.54103 0
M  V30 1005 C 93.0532 -0.15652 1.86043 0
M  V30 1006 C 93.4042 -1.51086 1.2517 0
M  V30 1007 O 92.5292 -2.09023 0.560217 0
M  V30 1008 C 93.1242 -0.290784 3.3755 0
M  V30 1009 C 91.6832 -0.721705 3.69416 0
M  V30 1010 C 90.8302 0.152622 2.7688 0
M  V30 1011 H 93.7812 0.550237 1.48856 0
M  V30 1012 H 93.8022 -1.12058 3.63625 0
M  V30 1013 H 93.3142 0.695068 3.81825 0
M  V30 1014 H 91.4152 -1.71706 3.30678 0
M  V30 1015 H 91.5282 -0.520869 4.7626 0
M  V30 1016 H 89.8922 -0.372894 2.51956 0
M  V30 1017 H 90.6752 1.13536 3.23982 0
M  V30 1018 N 93.1203 -1.57491 0.0584922 0
M  V30 1019 C 94.3683 -1.92597 -0.612436 0
M  V30 1020 C 94.6893 -0.938162 -1.70949 0
M  V30 1021 O 93.9593 0.0158301 -1.95894 0
M  V30 1022 H 92.5393 -0.710964 -0.229214 0
M  V30 1023 H 95.2013 -1.94571 0.113218 0
M  V30 1024 H 94.2973 -2.94038 -1.04633 0
M  V30 1025 N 94.5984 0.214957 -1.56127 0
M  V30 1026 C 95.8754 0.963093 -1.70247 0
M  V30 1027 C 96.2554 2.02166 -0.60764 0
M  V30 1028 O 95.6034 2.25244 0.384385 0
M  V30 1029 C 95.8134 1.56756 -3.11815 0
M  V30 1030 C 97.1614 2.0573 -3.7143 0
M  V30 1031 O 98.1854 1.66637 -3.14818 0
M  V30 1032 O 97.0444 2.77603 -4.70743 0
M  V30 1033 H 94.1384 0.450321 -0.693643 0
M  V30 1034 H 96.6844 0.206219 -1.68442 0
M  V30 1035 H 95.4564 0.803533 -3.82961 0
M  V30 1036 H 95.0794 2.3898 -3.17765 0
M  V30 1037 N 96.0765 1.50051 0.48192 0
M  V30 1038 C 97.3255 1.59741 1.23149 0
M  V30 1039 C 97.6385 0.298163 1.93314 0
M  V30 1040 O 98.8445 0.273835 2.70116 0
M  V30 1041 C 97.3005 2.81926 2.23708 0
M  V30 1042 C 96.9085 4.18685 1.59396 0
M  V30 1043 C 98.6525 3.00956 2.99375 0
M  V30 1044 C 96.5595 5.3207 2.58178 0
M  V30 1045 H 95.4895 0.594838 0.46334 0
M  V30 1046 H 98.1405 1.76467 0.503169 0
M  V30 1047 H 96.5225 2.58736 2.99786 0
M  V30 1048 H 97.6965 4.52088 0.891811 0
M  V30 1049 H 96.0115 4.05171 0.960503 0
M  V30 1050 H 98.6085 3.82836 3.73283 0
M  V30 1051 H 98.9515 2.12258 3.58123 0
M  V30 1052 H 99.4845 3.24277 2.30411 0
M  V30 1053 H 96.2235 6.22888 2.04184 0
M  V30 1054 H 95.7435 5.03098 3.26577 0
M  V30 1055 H 97.4225 5.62196 3.20225 0
M  V30 1056 N 97.5546 -0.734337 1.39446 0
M  V30 1057 C 98.5026 -1.86971 1.38364 0
M  V30 1058 C 99.4966 -1.67288 0.266687 0
M  V30 1059 O 100.703 -1.74621 0.436755 0
M  V30 1060 H 97.0776 -0.615474 0.432082 0
M  V30 1061 H 99.0486 -1.85 2.34132 0
M  V30 1062 C 97.7976 -3.2466 1.24465 0
M  V30 1063 H 97.1206 -3.40402 2.09682 0
M  V30 1064 H 98.5606 -4.04292 1.27764 0
M  V30 1065 C 97.0196 -3.36867 -0.0468674 0
M  V30 1066 O 97.5496 -3.88618 -1.01681 0
M  V30 1067 N 95.7556 -2.90391 -0.110145 0
M  V30 1068 H 95.3026 -2.48466 0.679868 0
M  V30 1069 H 95.2606 -2.98939 -0.973799 0
M  V30 1070 N 99.0327 -1.24633 -0.964593 0
M  V30 1071 C 99.9957 -1.0424 -2.04124 0
M  V30 1072 C 100.996 0.00137563 -1.608 0
M  V30 1073 O 102.186 -0.239883 -1.7254 0
M  V30 1074 C 99.3177 -0.580588 -3.3592 0
M  V30 1075 H 100.511 -1.99803 -2.23649 0
M  V30 1076 H 98.0637 -1.06899 -1.14027 0
M  V30 1077 H 98.7987 0.3781 -3.22088 0
M  V30 1078 H 98.5837 -1.33398 -3.6871 0
M  V30 1079 H 100.074 -0.459034 -4.15069 0
M  V30 1080 N 100.511 1.16574 -1.06058 0
M  V30 1081 C 101.759 1.86677 -0.77434 0
M  V30 1082 C 102.08 1.81959 0.701147 0
M  V30 1083 O 101.35 1.2515 1.50713 0
M  V30 1084 H 99.9298 0.691134 -0.283449 0
M  V30 1085 H 102.592 1.41378 -1.34158 0
M  V30 1086 H 101.688 2.92181 -1.09711 0
M  V30 1087 N 101.989 0.842826 1.3317 0
M  V30 1088 C 102.899 0.281444 2.32906 0
M  V30 1089 C 103.915 -0.594587 1.63526 0
M  V30 1090 O 105.091 -0.49777 1.95152 0
M  V30 1091 C 102.156 -0.530929 3.42611 0
M  V30 1092 C 101.217 0.369843 4.27704 0
M  V30 1093 C 100.45 -0.403853 5.3217 0
M  V30 1094 O 100.673 -1.63513 5.46461 0
M  V30 1095 O 99.6069 0.224199 6.01482 0
M  V30 1096 H 103.433 1.10744 2.82789 0
M  V30 1097 H 101.018 0.60545 1.36582 0
M  V30 1098 H 102.9 -0.992437 4.09547 0
M  V30 1099 H 101.575 -1.33392 2.94938 0
M  V30 1100 H 100.482 0.879275 3.6362 0
M  V30 1101 H 101.815 1.13771 4.78871 0
M  V30 1102 N 103.467 -1.45747 0.599634 0
M  V30 1103 C 104.713 -2.03153 0.100263 0
M  V30 1104 C 105.068 -1.46073 -1.25221 0
M  V30 1105 O 104.361 -0.622878 -1.81193 0
M  V30 1106 C 104.555 -3.57399 -0.00602758 0
M  V30 1107 C 104.384 -4.2944 1.3346 0
M  V30 1108 C 103.154 -4.6768 1.91321 0
M  V30 1109 C 105.352 -4.61905 2.2616 0
M  V30 1110 N 103.334 -5.24544 3.18946 0
M  V30 1111 C 104.705 -5.19518 3.3838 0
M  V30 1112 C 106.76 -4.43841 2.25631 0
M  V30 1113 C 105.463 -5.60972 4.50226 0
M  V30 1114 C 107.489 -4.86322 3.36518 0
M  V30 1115 C 106.851 -5.44021 4.4746 0
M  V30 1116 H 102.95 -0.777911 0.0798696 0
M  V30 1117 H 105.534 -1.77674 0.796244 0
M  V30 1118 H 103.705 -3.82556 -0.671212 0
M  V30 1119 H 105.437 -4.01457 -0.51133 0
M  V30 1120 H 102.192 -4.5098 1.44617 0
M  V30 1121 H 102.616 -5.57483 3.84112 0
M  V30 1122 H 107.258 -3.98552 1.41123 0
M  V30 1123 H 104.976 -6.0523 5.35464 0
M  V30 1124 H 108.562 -4.74084 3.37247 0
M  V30 1125 H 107.442 -5.76289 5.31846 0
M  V30 1126 N 104.945 -0.338344 -1.53925 0
M  V30 1127 C 106.193 0.259245 -2.0043 0
M  V30 1128 C 106.514 1.51484 -1.22791 0
M  V30 1129 O 105.784 1.93037 -0.33368 0
M  V30 1130 H 104.364 0.0987845 -0.740439 0
M  V30 1131 H 107.026 -0.458302 -1.89435 0
M  V30 1132 H 106.122 0.505334 -3.07982 0
M  V30 1133 N 106.423 1.57458 -0.0668435 0
M  V30 1134 C 107.353 2.15468 0.899764 0
M  V30 1135 C 108.334 1.08042 1.31381 0
M  V30 1136 O 109.519 1.36054 1.38574 0
M  V30 1137 C 106.649 2.71232 2.16911 0
M  V30 1138 C 105.603 3.83781 1.89463 0
M  V30 1139 C 104.929 4.26127 3.22986 0
M  V30 1140 C 106.229 5.08238 1.20381 0
M  V30 1141 H 107.923 2.96488 0.416529 0
M  V30 1142 H 105.469 1.4262 0.198908 0
M  V30 1143 H 107.422 3.10458 2.84945 0
M  V30 1144 H 106.146 1.87426 2.67468 0
M  V30 1145 H 104.805 3.45051 1.23836 0
M  V30 1146 H 104.453 3.39249 3.71374 0
M  V30 1147 H 104.153 5.01993 3.05413 0
M  V30 1148 H 105.677 4.67966 3.92225 0
M  V30 1149 H 107.091 5.44811 1.78475 0
M  V30 1150 H 105.488 5.89349 1.13083 0
M  V30 1151 H 106.558 4.84558 0.182153 0
M  V30 1152 N 107.901 -0.206675 1.56239 0
M  V30 1153 C 109.126 -0.949474 1.8439 0
M  V30 1154 C 109.551 -1.76549 0.649016 0
M  V30 1155 O 108.909 -1.76782 -0.402231 0
M  V30 1156 C 108.957 -1.83078 3.10668 0
M  V30 1157 O 108.061 -2.9281 2.90407 0
M  V30 1158 H 107.402 -0.268033 0.607499 0
M  V30 1159 H 109.932 -0.215488 2.03462 0
M  V30 1160 H 109.942 -2.2377 3.41161 0
M  V30 1161 H 108.617 -1.23112 3.97261 0
M  V30 1162 H 107.194 -2.55956 2.71184 0
M  V30 1163 N 109.379 -1.50304 -0.473955 0
M  V30 1164 C 110.342 -1.6841 -1.55469 0
M  V30 1165 C 111.342 -0.554905 -1.50922 0
M  V30 1166 O 112.532 -0.821882 -1.53593 0
M  V30 1167 C 109.664 -1.70667 -2.95102 0
M  V30 1168 H 110.857 -2.64828 -1.40733 0
M  V30 1169 H 108.41 -1.39742 -0.700132 0
M  V30 1170 H 109.145 -0.75932 -3.15285 0
M  V30 1171 H 108.93 -2.52698 -2.9981 0
M  V30 1172 H 110.42 -1.8664 -3.73571 0
M  V30 1173 N 110.857 0.726932 -1.39834 0
M  V30 1174 C 111.787 1.85405 -1.41941 0
M  V30 1175 C 112.768 1.67751 -0.281728 0
M  V30 1176 O 113.953 1.8795 -0.488717 0
M  V30 1177 C 111.083 3.23243 -1.2701 0
M  V30 1178 C 110.037 3.55549 -2.38262 0
M  V30 1179 C 109.363 4.9241 -2.08415 0
M  V30 1180 C 110.663 3.577 -3.80589 0
M  V30 1181 H 112.357 1.83899 -2.36266 0
M  V30 1182 H 109.903 0.883349 -1.13723 0
M  V30 1183 H 111.856 4.01775 -1.27103 0
M  V30 1184 H 110.58 3.25296 -0.291564 0
M  V30 1185 H 109.239 2.79351 -2.37399 0
M  V30 1186 H 108.887 4.91052 -1.0898 0
M  V30 1187 H 108.587 5.14992 -2.82943 0
M  V30 1188 H 110.111 5.73289 -2.10171 0
M  V30 1189 H 111.525 4.26293 -3.83337 0
M  V30 1190 H 109.922 3.91804 -4.54543 0
M  V30 1191 H 110.992 2.57328 -4.10987 0
M  V30 1192 N 112.336 1.25143 0.95797 0
M  V30 1193 C 113.747 1.08851 1.51685 0
M  V30 1194 C 114.098 -0.33687 1.93286 0
M  V30 1195 O 113.223 -1.22644 1.7829 0
M  V30 1196 C 113.818 1.96978 2.75654 0
M  V30 1197 C 112.377 1.84881 3.27866 0
M  V30 1198 C 111.524 1.91329 2.0072 0
M  V30 1199 H 114.475 1.38478 0.77522 0
M  V30 1200 H 114.496 1.5078 3.4935 0
M  V30 1201 H 114.008 3.00712 2.45345 0
M  V30 1202 H 112.109 0.840182 3.63004 0
M  V30 1203 H 112.222 2.6951 3.96107 0
M  V30 1204 H 110.586 1.35174 2.15871 0
M  V30 1205 H 111.369 2.96661 1.72764 0
M  V30 1206 N 113.814 -1.1601 1.06675 0
M  V30 1207 C 115.062 -1.86264 0.784229 0
M  V30 1208 C 115.383 -1.82328 -0.691488 0
M  V30 1209 O 114.653 -1.25947 -1.50047 0
M  V30 1210 H 113.233 -0.689621 0.28711 0
M  V30 1211 H 115.895 -1.40664 1.34906 0
M  V30 1212 H 114.991 -2.91595 1.11259 0
M  V30 1213 N 115.292 -0.849877 -1.32721 0
M  V30 1214 C 116.708 -0.539102 -1.50219 0
M  V30 1215 C 116.908 0.931271 -1.78689 0
M  V30 1216 O 115.964 1.71455 -1.85363 0
M  V30 1217 C 117.277 -1.42196 -2.64954 0
M  V30 1218 C 118.825 -1.42189 -2.78839 0
M  V30 1219 C 119.3 -2.28985 -3.96648 0
M  V30 1220 N 120.791 -2.26754 -4.03902 0
M  V30 1221 C 121.526 -2.90644 -4.94281 0
M  V30 1222 N 121.022 -3.63629 -5.897 0
M  V30 1223 N 122.815 -2.80057 -4.87365 0
M  V30 1224 H 114.966 -1.80156 -1.12506 0
M  V30 1225 H 117.229 -0.769217 -0.554085 0
M  V30 1226 H 116.935 -2.46733 -2.50631 0
M  V30 1227 H 116.809 -1.10591 -3.60624 0
M  V30 1228 H 119.196 -0.38419 -2.92588 0
M  V30 1229 H 119.277 -1.77807 -1.83898 0
M  V30 1230 H 118.921 -3.32819 -3.83658 0
M  V30 1231 H 118.851 -1.90702 -4.90857 0
M  V30 1232 H 121.342 -1.73688 -3.3562 0
M  V30 1233 H 121.655 -4.09558 -6.55349 0
M  V30 1234 H 120 -3.67737 -5.89741 0
M  V30 1235 H 123.191 -2.22593 -4.11789 0
M  V30 1236 H 123.364 -3.30132 -5.57599 0
M  V30 1237 N 116.77 1.45427 -0.607355 0
M  V30 1238 C 117.68 2.34325 0.113463 0
M  V30 1239 C 118.696 1.51226 0.860617 0
M  V30 1240 O 119.872 1.84029 0.818255 0
M  V30 1241 C 116.937 3.28839 1.09844 0
M  V30 1242 C 115.998 4.27844 0.353271 0
M  V30 1243 C 115.231 5.17842 1.29133 0
M  V30 1244 O 115.454 5.11264 2.52913 0
M  V30 1245 O 114.388 5.96713 0.788523 0
M  V30 1246 H 118.214 2.97364 -0.617094 0
M  V30 1247 H 115.799 1.44807 -0.367619 0
M  V30 1248 H 117.681 3.8708 1.66575 0
M  V30 1249 H 116.356 2.68365 1.81003 0
M  V30 1250 H 115.263 3.7322 -0.256494 0
M  V30 1251 H 116.596 4.91173 -0.317822 0
M  V30 1252 N 118.248 0.346503 1.53744 0
M  V30 1253 C 119.198 -0.524953 2.21874 0
M  V30 1254 C 120.182 -1.06376 1.20718 0
M  V30 1255 O 121.374 -0.996972 1.46251 0
M  V30 1256 C 118.503 -1.6739 2.99726 0
M  V30 1257 C 117.589 -1.14888 4.08242 0
M  V30 1258 N 117.98 -0.345329 5.0462 0
M  V30 1259 C 116.278 -1.4255 4.22606 0
M  V30 1260 C 116.979 -0.0600706 5.81669 0
M  V30 1261 N 115.955 -0.65252 5.39669 0
M  V30 1262 H 119.757 0.0960091 2.93743 0
M  V30 1263 H 117.271 0.15352 1.61673 0
M  V30 1264 H 119.268 -2.3102 3.47038 0
M  V30 1265 H 117.928 -2.29811 2.29384 0
M  V30 1266 H 118.939 0.0138439 5.17898 0
M  V30 1267 H 115.616 -2.05389 3.63486 0
M  V30 1268 H 117.006 0.588321 6.69319 0
M  V30 1269 N 119.726 -1.57421 0.075193 0
M  V30 1270 C 120.636 -2.1642 -0.905511 0
M  V30 1271 C 121.652 -1.12828 -1.32461 0
M  V30 1272 O 122.828 -1.45109 -1.39661 0
M  V30 1273 C 119.893 -2.71693 -2.15369 0
M  V30 1274 C 118.954 -3.90171 -1.79068 0
M  V30 1275 C 118.187 -4.42798 -2.97936 0
M  V30 1276 O 118.41 -3.94416 -4.12058 0
M  V30 1277 O 117.344 -5.34085 -2.77555 0
M  V30 1278 H 121.17 -3.00588 -0.433626 0
M  V30 1279 H 118.755 -1.48664 -0.148067 0
M  V30 1280 H 120.637 -3.07104 -2.88557 0
M  V30 1281 H 119.312 -1.90582 -2.61649 0
M  V30 1282 H 118.219 -3.59606 -1.03122 0
M  V30 1283 H 119.552 -4.72584 -1.37569 0
M  V30 1284 N 121.204 0.198386 -1.56346 0
M  V30 1285 C 122.167 1.22952 -1.93431 0
M  V30 1286 C 123.167 1.38611 -0.815092 0
M  V30 1287 O 124.357 1.36479 -1.08255 0
M  V30 1288 C 121.489 2.59946 -2.20546 0
M  V30 1289 H 122.682 0.912626 -2.85677 0
M  V30 1290 H 120.235 0.43977 -1.49986 0
M  V30 1291 H 120.97 2.96696 -1.30927 0
M  V30 1292 H 120.755 2.49953 -3.02102 0
M  V30 1293 H 122.245 3.3431 -2.50253 0
M  V30 1294 N 122.682 1.50554 0.465978 0
M  V30 1295 C 123.632 1.66177 1.56106 0
M  V30 1296 C 124.616 0.516265 1.52393 0
M  V30 1297 O 125.808 0.770906 1.5933 0
M  V30 1298 C 122.937 1.76396 2.94515 0
M  V30 1299 C 122.023 2.9664 3.03093 0
M  V30 1300 N 122.414 4.20245 2.81474 0
M  V30 1301 C 120.712 2.95304 3.34233 0
M  V30 1302 C 121.413 5.01259 2.95151 0
M  V30 1303 N 120.389 4.35318 3.25576 0
M  V30 1304 H 124.191 2.59434 1.38099 0
M  V30 1305 H 121.705 1.47808 0.6728 0
M  V30 1306 H 123.702 1.85694 3.73261 0
M  V30 1307 H 122.362 0.843017 3.13565 0
M  V30 1308 H 123.373 4.4966 2.56956 0
M  V30 1309 H 120.05 2.12729 3.59239 0
M  V30 1310 H 121.44 6.09564 2.82632 0
M  V30 1311 N 124.16 -0.719506 1.40217 0
M  V30 1312 C 125.123 -1.8153 1.39927 0
M  V30 1313 C 126.123 -1.58095 0.293723 0
M  V30 1314 O 127.313 -1.65209 0.552429 0
M  V30 1315 C 124.445 -3.19561 1.18716 0
M  V30 1316 H 125.638 -1.83186 2.37451 0
M  V30 1317 H 123.191 -0.924746 1.26008 0
M  V30 1318 H 123.926 -3.23557 0.219366 0
M  V30 1319 H 123.711 -3.3797 1.98793 0
M  V30 1320 H 125.201 -3.99598 1.21291 0
M  V30 1321 N 125.638 -1.25649 -0.95132 0
M  V30 1322 C 126.915 -1.01361 -1.67288 0
M  V30 1323 C 127.295 0.459135 -2.06046 0
M  V30 1324 O 126.643 1.43723 -1.7764 0
M  V30 1325 C 126.853 -1.95256 -2.89268 0
M  V30 1326 C 128.201 -2.23289 -3.61147 0
M  V30 1327 O 129.225 -1.93041 -2.99355 0
M  V30 1328 O 128.084 -2.74741 -4.72419 0
M  V30 1329 H 125.178 -0.38464 -0.732107 0
M  V30 1330 H 127.724 -1.36817 -1.00395 0
M  V30 1331 H 126.496 -2.94685 -2.57442 0
M  V30 1332 H 126.119 -1.60218 -3.6389 0
M  V30 1333 N 127.117 1.15442 -1.07289 0
M  V30 1334 C 128.366 1.85557 -0.790669 0
M  V30 1335 C 128.679 1.83186 0.685739 0
M  V30 1336 O 129.885 2.48977 1.0827 0
M  V30 1337 C 128.341 3.33038 -1.36433 0
M  V30 1338 C 127.949 3.43856 -2.8717 0
M  V30 1339 C 129.693 4.0834 -1.1601 0
M  V30 1340 C 127.6 4.85482 -3.3773 0
M  V30 1341 H 126.53 0.695122 -0.292098 0
M  V30 1342 H 129.181 1.30219 -1.29287 0
M  V30 1343 H 127.563 3.88043 -0.789864 0
M  V30 1344 H 128.737 2.98961 -3.50655 0
M  V30 1345 H 127.052 2.81998 -3.06376 0
M  V30 1346 H 129.649 5.12859 -1.51262 0
M  V30 1347 H 129.992 4.16182 -0.0991007 0
M  V30 1348 H 130.525 3.59603 -1.70089 0
M  V30 1349 H 127.264 4.82823 -4.43353 0
M  V30 1350 H 126.784 5.30961 -2.78999 0
M  V30 1351 H 128.463 5.54335 -3.33648 0
M  V30 1352 N 128.595 0.856903 1.32268 0
M  V30 1353 C 129.872 0.382583 1.91822 0
M  V30 1354 C 130.252 -1.13407 1.78051 0
M  V30 1355 O 129.6 -1.95673 1.18001 0
M  V30 1356 C 129.81 0.849446 3.38505 0
M  V30 1357 C 131.158 0.867936 4.15634 0
M  V30 1358 O 132.182 0.794232 3.47232 0
M  V30 1359 O 131.041 0.972286 5.37781 0
M  V30 1360 H 128.135 0.112014 0.819379 0
M  V30 1361 H 130.681 0.943952 1.41024 0
M  V30 1362 H 129.453 1.89267 3.42482 0
M  V30 1363 H 129.076 0.265652 3.96712 0
M  V30 1364 N 130.073 -1.45103 0.615059 0
M  V30 1365 C 131.003 -2.33339 -0.0865619 0
M  V30 1366 C 131.984 -1.4727 -0.851209 0
M  V30 1367 O 133.169 -1.76026 -0.820281 0
M  V30 1368 C 130.299 -3.30095 -1.07956 0
M  V30 1369 C 129.253 -4.25858 -0.427628 0
M  V30 1370 C 128.579 -5.12361 -1.5294 0
M  V30 1371 C 129.879 -5.18165 0.655944 0
M  V30 1372 H 131.573 -2.92254 0.650224 0
M  V30 1373 H 129.119 -1.40532 0.314138 0
M  V30 1374 H 131.072 -3.90698 -1.57901 0
M  V30 1375 H 129.796 -2.69355 -1.84703 0
M  V30 1376 H 128.455 -3.66564 0.0510292 0
M  V30 1377 H 128.103 -4.47984 -2.28734 0
M  V30 1378 H 127.803 -5.77238 -1.09865 0
M  V30 1379 H 129.327 -5.75833 -2.03098 0
M  V30 1380 H 130.741 -5.72796 0.240257 0
M  V30 1381 H 129.138 -5.91559 1.00888 0
M  V30 1382 H 130.208 -4.60144 1.52957 0
M  V30 1383 N 131.551 -0.354651 -1.53558 0
M  V30 1384 C 132.514 0.484566 -2.24019 0
M  V30 1385 C 133.514 1.01861 -1.24422 0
M  V30 1386 O 134.704 0.906097 -1.4878 0
M  V30 1387 C 131.836 1.67615 -2.96847 0
M  V30 1388 H 133.029 -0.131843 -2.9961 0
M  V30 1389 H 130.582 -0.106165 -1.55939 0
M  V30 1390 H 131.317 2.33095 -2.25471 0
M  V30 1391 H 131.102 1.30029 -3.69912 0
M  V30 1392 H 132.592 2.27114 -3.50441 0
M  V30 1393 N 133.029 1.57378 -0.0835403 0
M  V30 1394 C 133.959 2.1641 0.87686 0
M  V30 1395 C 134.94 1.09429 1.30228 0
M  V30 1396 O 136.125 1.37516 1.37124 0
M  V30 1397 C 133.255 2.73517 2.14022 0
M  V30 1398 C 132.209 3.85769 1.85381 0
M  V30 1399 C 131.535 4.29529 3.18448 0
M  V30 1400 C 132.835 5.09486 1.14984 0
M  V30 1401 H 134.529 2.96914 0.385059 0
M  V30 1402 H 132.075 1.42823 0.18377 0
M  V30 1403 H 134.028 3.13463 2.81636 0
M  V30 1404 H 132.752 1.90252 2.65465 0
M  V30 1405 H 131.411 3.46345 1.20169 0
M  V30 1406 H 131.059 3.43169 3.67755 0
M  V30 1407 H 130.759 5.05204 3.00071 0
M  V30 1408 H 132.283 4.72099 3.8724 0
M  V30 1409 H 133.697 5.46674 1.72687 0
M  V30 1410 H 132.094 5.90515 1.06826 0
M  V30 1411 H 133.164 4.84724 0.130749 0
M  V30 1412 N 134.507 -0.190092 1.56449 0
M  V30 1413 C 135.417 -1.25591 1.98152 0
M  V30 1414 C 136.433 -1.49519 0.889944 0
M  V30 1415 O 137.609 -1.62036 1.19609 0
M  V30 1416 C 134.674 -2.57916 2.3169 0
M  V30 1417 C 133.735 -2.42015 3.5458 0
M  V30 1418 C 132.968 -3.6803 3.8651 0
M  V30 1419 O 133.191 -4.72413 3.1966 0
M  V30 1420 O 132.125 -3.6326 4.79923 0
M  V30 1421 H 135.951 -0.931988 2.89046 0
M  V30 1422 H 133.536 -0.395488 1.4407 0
M  V30 1423 H 135.418 -3.36008 2.54316 0
M  V30 1424 H 134.093 -2.89925 1.43963 0
M  V30 1425 H 133 -1.62017 3.37196 0
M  V30 1426 H 134.333 -2.14937 4.4279 0
M  V30 1427 N 135.985 -1.50799 -0.457987 0
M  V30 1428 C 137.215 -1.65977 -1.23025 0
M  V30 1429 C 137.623 -0.347918 -1.85974 0
M  V30 1430 O 136.966 0.68148 -1.70592 0
M  V30 1431 C 137.028 -2.70309 -2.3701 0
M  V30 1432 C 136.692 -4.135 -1.94594 0
M  V30 1433 C 137.689 -4.98949 -1.46101 0
M  V30 1434 C 135.374 -4.5949 -2.02915 0
M  V30 1435 C 137.368 -6.28442 -1.06489 0
M  V30 1436 C 135.055 -5.88984 -1.62914 0
M  V30 1437 C 136.053 -6.73286 -1.1478 0
M  V30 1438 O 135.741 -8.00362 -0.75339 0
M  V30 1439 H 135.473 -0.56064 -0.377702 0
M  V30 1440 H 138.027 -1.97857 -0.551537 0
M  V30 1441 H 136.257 -2.337 -3.08093 0
M  V30 1442 H 137.946 -2.74574 -2.98938 0
M  V30 1443 H 138.712 -4.6463 -1.39084 0
M  V30 1444 H 134.591 -3.94009 -2.39328 0
M  V30 1445 H 138.135 -6.94194 -0.688488 0
M  V30 1446 H 134.032 -6.22822 -1.69595 0
M  V30 1447 H 134.8 -8.13744 -0.88108 0
M  V30 1448 N 137.463 0.71206 -1.40597 0
M  V30 1449 C 138.426 1.80785 -1.40888 0
M  V30 1450 C 139.426 1.57937 -0.302103 0
M  V30 1451 O 140.616 1.64913 -0.561182 0
M  V30 1452 C 137.748 3.18927 -1.20409 0
M  V30 1453 H 138.941 1.81924 -2.38419 0
M  V30 1454 H 136.494 0.91805 -1.26497 0
M  V30 1455 H 137.229 3.23436 -0.236522 0
M  V30 1456 H 137.014 3.36911 -2.00582 0
M  V30 1457 H 138.504 3.98949 -1.23408 0
M  V30 1458 N 138.941 1.26152 0.944643 0
M  V30 1459 C 139.871 1.09902 2.06019 0
M  V30 1460 C 140.852 0.00519538 1.70099 0
M  V30 1461 O 142.037 0.176583 1.93396 0
M  V30 1462 C 139.167 0.727562 3.39594 0
M  V30 1463 C 138.121 1.77274 3.89561 0
M  V30 1464 C 137.447 1.25569 5.19747 0
M  V30 1465 C 138.747 3.17357 4.14827 0
M  V30 1466 H 140.441 2.03217 2.19871 0
M  V30 1467 H 137.987 0.978452 1.05652 0
M  V30 1468 H 139.94 0.600777 4.17095 0
M  V30 1469 H 138.664 -0.241287 3.25707 0
M  V30 1470 H 137.323 1.88814 3.14237 0
M  V30 1471 H 136.971 0.276783 5.02238 0
M  V30 1472 H 136.671 1.95433 5.54148 0
M  V30 1473 H 138.195 1.1415 5.99835 0
M  V30 1474 H 139.609 3.08914 4.82954 0
M  V30 1475 H 138.006 3.84781 4.60504 0
M  V30 1476 H 139.076 3.63673 3.20734 0
M  V30 1477 N 140.419 -1.14872 1.07899 0
M  V30 1478 C 141.382 -2.17986 0.708161 0
M  V30 1479 C 142.382 -1.58775 -0.25442 0
M  V30 1480 O 143.572 -1.74166 -0.034645 0
M  V30 1481 C 140.704 -3.40871 0.0446929 0
M  V30 1482 H 141.897 -2.52306 1.62116 0
M  V30 1483 H 139.45 -1.2943 0.876218 0
M  V30 1484 H 140.185 -3.12124 -0.880281 0
M  V30 1485 H 139.97 -3.8511 0.737091 0
M  V30 1486 H 141.46 -4.17121 -0.19991 0
M  V30 1487 N 141.898 -0.863906 -1.31812 0
M  V30 1488 C 142.828 -0.330843 -2.31144 0
M  V30 1489 C 143.809 0.575005 -1.60087 0
M  V30 1490 O 144.994 0.493304 -1.8783 0
M  V30 1491 C 142.124 0.47374 -3.44054 0
M  V30 1492 C 141.078 -0.338481 -4.26659 0
M  V30 1493 C 140.404 0.591412 -5.31419 0
M  V30 1494 C 141.704 -1.56926 -4.98168 0
M  V30 1495 H 143.398 -1.16086 -2.75979 0
M  V30 1496 H 140.944 -0.559657 -1.32679 0
M  V30 1497 H 142.897 0.857143 -4.12591 0
M  V30 1498 H 141.621 1.33721 -2.9797 0
M  V30 1499 H 140.28 -0.703754 -3.59782 0
M  V30 1500 H 139.928 1.45199 -4.81587 0
M  V30 1501 H 139.628 0.0519022 -5.87577 0
M  V30 1502 H 141.152 0.97179 -6.02817 0
M  V30 1503 H 142.566 -1.25764 -5.59336 0
M  V30 1504 H 140.963 -2.04739 -5.64094 0
M  V30 1505 H 142.033 -2.32544 -4.25501 0
M  V30 1506 N 143.376 1.44774 -0.622745 0
M  V30 1507 C 144.324 2.32387 0.0994683 0
M  V30 1508 C 145.318 1.46859 0.844326 0
M  V30 1509 O 146.524 1.63254 0.758174 0
M  V30 1510 H 142.899 0.750273 0.0509291 0
M  V30 1511 H 144.87 2.91062 -0.65767 0
M  V30 1512 C 143.619 3.30723 1.07319 0
M  V30 1513 H 142.942 3.96541 0.509462 0
M  V30 1514 H 144.382 3.94725 1.54817 0
M  V30 1515 C 142.841 2.59021 2.15429 0
M  V30 1516 O 143.371 2.38286 3.23393 0
M  V30 1517 N 141.577 2.189 1.91131 0
M  V30 1518 H 141.124 2.35964 1.03337 0
M  V30 1519 H 141.082 1.71251 2.63668 0
M  V30 1520 N 144.854 0.36279 1.53368 0
M  V30 1521 C 146.094 -0.227882 2.03126 0
M  V30 1522 C 146.458 -1.4622 1.24434 0
M  V30 1523 O 147.659 -2.12831 1.64184 0
M  V30 1524 C 145.93 -0.515427 3.53664 0
M  V30 1525 S 147.489 -1.08017 4.25297 0
M  V30 1526 H 144.307 -0.0665377 0.70788 0
M  V30 1527 H 146.909 0.50501 1.88865 0
M  V30 1528 H 145.613 0.390436 4.08539 0
M  V30 1529 H 145.144 -1.27747 3.72081 0
M  V30 1530 H 147.159 -2.36462 4.36234 0
M  V30 1531 N 146.332 -1.57332 0.0918853 0
M  V30 1532 C 147.242 -2.17368 -0.882505 0
M  V30 1533 C 148.258 -1.14226 -1.31257 0
M  V30 1534 O 149.434 -1.46582 -1.38115 0
M  V30 1535 C 146.499 -2.73962 -2.12476 0
M  V30 1536 C 145.56 -3.92048 -1.7492 0
M  V30 1537 C 144.793 -4.45933 -2.93223 0
M  V30 1538 O 145.016 -3.98764 -4.07852 0
M  V30 1539 O 143.95 -5.36999 -2.71875 0
M  V30 1540 H 147.776 -3.01031 -0.40172 0
M  V30 1541 H 145.361 -1.48813 -0.132291 0
M  V30 1542 H 147.243 -3.10147 -2.85283 0
M  V30 1543 H 145.918 -1.93347 -2.59613 0
M  V30 1544 H 144.825 -3.6068 -0.993025 0
M  V30 1545 H 146.158 -4.74017 -1.32548 0
M  V30 1546 N 147.81 0.181792 -1.56548 0
M  V30 1547 C 148.742 1.24956 -1.92142 0
M  V30 1548 C 149.755 1.41022 -0.813422 0
M  V30 1549 O 150.944 1.41212 -1.09186 0
M  V30 1550 C 148.044 2.61981 -2.14987 0
M  V30 1551 C 147.217 2.6735 -3.46183 0
M  V30 1552 C 146.276 3.85664 -3.5798 0
M  V30 1553 O 145.302 3.72148 -4.30691 0
M  V30 1554 N 146.504 5.01683 -2.92053 0
M  V30 1555 H 149.269 0.947329 -2.84334 0
M  V30 1556 H 146.83 0.371629 -1.57577 0
M  V30 1557 H 148.822 3.3958 -2.20154 0
M  V30 1558 H 147.392 2.84637 -1.2923 0
M  V30 1559 H 146.612 1.75925 -3.52766 0
M  V30 1560 H 147.9 2.67939 -4.32534 0
M  V30 1561 H 147.298 5.15564 -2.32832 0
M  V30 1562 H 145.855 5.77181 -3.0283 0
M  V30 1563 N 149.288 1.51039 0.449983 0
M  V30 1564 C 150.534 1.63322 1.20223 0
M  V30 1565 C 150.867 0.34241 1.91158 0
M  V30 1566 O 150.142 -0.657344 1.83055 0
M  V30 1567 C 150.425 2.82801 2.22925 0
M  V30 1568 C 150.278 4.21823 1.56157 0
M  V30 1569 C 151.597 2.97807 3.24035 0
M  V30 1570 H 148.716 0.594407 0.435718 0
M  V30 1571 H 151.358 1.83489 0.493136 0
M  V30 1572 H 149.508 2.65738 2.834 0
M  V30 1573 H 151.18 4.50526 0.991162 0
M  V30 1574 H 149.423 4.25105 0.864172 0
M  V30 1575 H 150.094 5.01391 2.30891 0
M  V30 1576 H 152.57 3.13497 2.73603 0
M  V30 1577 H 151.446 3.82992 3.93202 0
M  V30 1578 H 151.707 2.09328 3.89402 0
M  V30 1579 N 150.766 -0.704594 1.40972 0
M  V30 1580 C 151.716 -1.81051 1.38581 0
M  V30 1581 C 152.7 -1.58759 0.261585 0
M  V30 1582 O 153.892 -1.69745 0.501556 0
M  V30 1583 C 151.021 -3.19279 1.26157 0
M  V30 1584 C 150.107 -3.47296 2.43405 0
M  V30 1585 N 150.498 -3.46064 3.68881 0
M  V30 1586 C 148.796 -3.77804 2.37023 0
M  V30 1587 C 149.497 -3.72733 4.46592 0
M  V30 1588 N 148.473 -3.9203 3.76581 0
M  V30 1589 H 152.275 -1.78448 2.33525 0
M  V30 1590 H 149.789 -0.904198 1.349 0
M  V30 1591 H 151.786 -3.98488 1.22526 0
M  V30 1592 H 150.446 -3.231 0.321902 0
M  V30 1593 H 151.457 -3.26656 4.01891 0
M  V30 1594 H 148.134 -3.8905 1.51481 0
M  V30 1595 H 149.524 -3.77993 5.55492 0
M  V30 1596 N 152.244 -1.26651 -0.937939 0
M  V30 1597 C 153.49 -1.12553 -1.687 0
M  V30 1598 C 153.823 0.329782 -1.91379 0
M  V30 1599 O 153.098 1.24202 -1.4968 0
M  V30 1600 C 153.381 -1.89862 -3.05981 0
M  V30 1601 C 153.234 -3.43318 -2.90607 0
M  V30 1602 C 154.553 -1.69499 -4.0615 0
M  V30 1603 H 151.672 -0.410257 -0.612257 0
M  V30 1604 H 154.314 -1.55685 -1.08913 0
M  V30 1605 H 152.464 -1.53204 -3.57017 0
M  V30 1606 H 154.136 -3.89747 -2.46769 0
M  V30 1607 H 152.379 -3.70179 -2.26164 0
M  V30 1608 H 153.05 -3.92642 -3.8799 0
M  V30 1609 H 155.526 -2.01442 -3.64088 0
M  V30 1610 H 154.402 -2.26002 -5.00214 0
M  V30 1611 H 154.663 -0.640365 -4.37438 0
M  V30 1612 N 153.722 1.14298 -1.08507 0
M  V30 1613 C 154.655 2.18447 -0.660004 0
M  V30 1614 C 155.633 1.59242 0.328749 0
M  V30 1615 O 156.817 1.87062 0.232367 0
M  V30 1616 C 153.944 3.38688 0.0290807 0
M  V30 1617 C 152.99 4.1646 -0.919982 0
M  V30 1618 S 153.823 4.77334 -2.42718 0
M  V30 1619 C 154.979 6.00931 -1.75024 0
M  V30 1620 H 155.212 2.54166 -1.54231 0
M  V30 1621 H 152.745 1.25446 -0.900149 0
M  V30 1622 H 154.703 4.08342 0.420378 0
M  V30 1623 H 153.364 3.01289 0.887895 0
M  V30 1624 H 152.557 5.02529 -0.384751 0
M  V30 1625 H 152.159 3.52414 -1.25223 0
M  V30 1626 H 154.451 6.69017 -1.06877 0
M  V30 1627 H 155.394 6.59044 -2.58971 0
M  V30 1628 H 155.802 5.51089 -1.22317 0
M  V30 1629 N 155.201 0.870884 1.31352 0
M  V30 1630 C 156.164 0.332243 2.26779 0
M  V30 1631 C 157.164 -0.517302 1.52252 0
M  V30 1632 O 158.354 -0.326477 1.71113 0
M  V30 1633 C 155.486 -0.528066 3.36785 0
M  V30 1634 H 156.679 1.17469 2.75937 0
M  V30 1635 H 154.232 0.64655 1.423 0
M  V30 1636 H 154.967 -1.39167 2.92922 0
M  V30 1637 H 154.752 0.0802582 3.92018 0
M  V30 1638 H 156.242 -0.897179 4.07849 0
M  V30 1639 N 156.679 -1.44442 0.630414 0
M  V30 1640 C 157.927 -2.01653 0.134351 0
M  V30 1641 C 158.248 -1.49836 -1.24796 0
M  V30 1642 O 157.518 -0.701684 -1.82902 0
M  V30 1643 H 156.098 -0.74554 0.0466769 0
M  V30 1644 H 158.76 -1.76952 0.816955 0
M  V30 1645 H 157.856 -3.11935 0.101498 0
M  V30 1646 N 158.157 -0.370918 -1.53173 0
M  V30 1647 C 159.403 0.217423 -2.01631 0
M  V30 1648 C 159.736 1.47983 -1.25756 0
M  V30 1649 O 159.011 1.91274 -0.352764 0
M  V30 1650 C 159.294 0.503982 -3.56556 0
M  V30 1651 C 159.147 -0.77243 -4.43118 0
M  V30 1652 C 160.466 1.30234 -4.20389 0
M  V30 1653 H 157.585 0.0775486 -0.732909 0
M  V30 1654 H 160.227 -0.496863 -1.83388 0
M  V30 1655 H 158.377 1.11248 -3.72231 0
M  V30 1656 H 160.049 -1.4098 -4.39229 0
M  V30 1657 H 158.292 -1.39167 -4.10871 0
M  V30 1658 H 158.963 -0.526815 -5.4948 0
M  V30 1659 H 161.439 0.787546 -4.08579 0
M  V30 1660 H 160.315 1.47158 -5.28806 0
M  V30 1661 H 160.576 2.31237 -3.76805 0
M  V30 1662 N 159.635 1.57281 -0.100228 0
M  V30 1663 C 160.881 1.94826 0.563101 0
M  V30 1664 C 161.214 0.982475 1.67514 0
M  V30 1665 O 160.489 0.0164069 1.94493 0
M  V30 1666 C 160.772 3.42453 1.11346 0
M  V30 1667 C 160.625 4.498 0.00612081 0
M  V30 1668 C 161.944 3.91506 2.01024 0
M  V30 1669 H 159.063 0.708428 0.203221 0
M  V30 1670 H 161.705 1.8922 -0.171979 0
M  V30 1671 H 159.855 3.47361 1.7399 0
M  V30 1672 H 161.527 4.57 -0.628357 0
M  V30 1673 H 159.77 4.28756 -0.659581 0
M  V30 1674 H 160.441 5.50306 0.432109 0
M  V30 1675 H 162.917 3.88784 1.48278 0
M  V30 1676 H 161.793 4.95358 2.36457 0
M  V30 1677 H 162.054 3.31099 2.92961 0
M  V30 1678 N 161.113 -0.173488 1.56642 0
M  V30 1679 C 162.524 -0.736155 1.71574 0
M  V30 1680 C 162.875 -1.82888 0.710389 0
M  V30 1681 O 162 -2.16017 -0.1287 0
M  V30 1682 C 162.595 -1.34211 3.11083 0
M  V30 1683 C 161.154 -1.85162 3.27707 0
M  V30 1684 C 160.301 -0.729765 2.67525 0
M  V30 1685 H 163.252 0.0518786 1.58615 0
M  V30 1686 H 163.273 -2.21178 3.09613 0
M  V30 1687 H 162.785 -0.546579 3.84232 0
M  V30 1688 H 160.886 -2.67366 2.59512 0
M  V30 1689 H 160.999 -1.99855 4.35425 0
M  V30 1690 H 159.363 -1.14965 2.27278 0
M  V30 1691 H 160.146 0.0538806 3.43258 0
M  V30 1692 N 162.591 -1.51276 -0.441967 0
M  V30 1693 C 163.554 -1.7167 -1.51862 0
M  V30 1694 C 164.554 -0.586793 -1.49711 0
M  V30 1695 O 165.744 -0.854276 -1.51815 0
M  V30 1696 C 162.876 -1.76889 -2.91416 0
M  V30 1697 H 164.069 -2.67754 -1.35084 0
M  V30 1698 H 161.622 -1.41196 -0.670333 0
M  V30 1699 H 162.357 -0.826026 -3.13604 0
M  V30 1700 H 162.142 -2.59001 -2.94382 0
M  V30 1701 H 163.632 -1.94522 -3.69528 0
M  V30 1702 N 164.069 0.697108 -1.41344 0
M  V30 1703 C 165.317 1.45426 -1.40341 0
M  V30 1704 C 165.638 1.94996 -0.0128787 0
M  V30 1705 O 164.908 1.71599 0.945027 0
M  V30 1706 H 163.488 0.539594 -0.516573 0
M  V30 1707 H 166.15 0.825201 -1.76569 0
M  V30 1708 H 165.246 2.31817 -2.08967 0
M  V30 1709 N 165.547 1.27147 0.931209 0
M  V30 1710 C 166.457 1.11372 2.06478 0
M  V30 1711 C 167.473 0.044645 1.73943 0
M  V30 1712 O 168.649 0.250417 1.99837 0
M  V30 1713 C 165.714 0.758838 3.38294 0
M  V30 1714 C 164.775 1.90841 3.84549 0
M  V30 1715 C 164.008 1.57036 5.10074 0
M  V30 1716 O 164.231 0.476645 5.68405 0
M  V30 1717 O 163.165 2.40839 5.51616 0
M  V30 1718 H 166.991 2.06493 2.22698 0
M  V30 1719 H 164.576 1.06301 1.04978 0
M  V30 1720 H 166.458 0.574098 4.17471 0
M  V30 1721 H 165.133 -0.162879 3.2329 0
M  V30 1722 H 164.04 2.14819 3.06274 0
M  V30 1723 H 165.373 2.81021 4.04089 0
M  V30 1724 N 167.025 -1.13721 1.09112 0
M  V30 1725 C 168.302 -1.81155 0.737706 0
M  V30 1726 C 168.682 -1.96253 -0.777683 0
M  V30 1727 O 168.03 -1.52807 -1.69889 0
M  V30 1728 C 168.24 -3.16392 1.47299 0
M  V30 1729 C 169.588 -3.91787 1.63671 0
M  V30 1730 O 170.612 -3.26005 1.43524 0
M  V30 1731 O 169.471 -5.0977 1.96969 0
M  V30 1732 H 166.565 -0.783518 0.26463 0
M  V30 1733 H 169.111 -1.20676 1.19312 0
M  V30 1734 H 167.883 -3.0061 2.50498 0
M  V30 1735 H 167.506 -3.8457 1.00953 0
M  V30 1736 N 168.503 -0.877838 -1.30888 0
M  V30 1737 C 169.466 -0.344265 -2.266 0
M  V30 1738 C 170.466 0.50922 -1.52524 0
M  V30 1739 O 171.656 0.317398 -1.71284 0
M  V30 1740 C 168.788 0.510198 -3.37061 0
M  V30 1741 H 169.981 -1.1893 -2.7531 0
M  V30 1742 H 167.534 -0.654088 -1.41956 0
M  V30 1743 H 168.269 1.37612 -2.93655 0
M  V30 1744 H 168.054 -0.101047 -3.9197 0
M  V30 1745 H 169.544 0.875537 -4.08319 0
M  V30 1746 N 169.982 1.44106 -0.638065 0
M  V30 1747 C 170.892 2.34513 0.0637334 0
M  V30 1748 C 171.908 1.53018 0.828346 0
M  V30 1749 O 173.084 1.85723 0.779036 0
M  V30 1750 C 170.149 3.31095 1.02844 0
M  V30 1751 C 169.21 4.28497 0.26244 0
M  V30 1752 C 168.443 5.20465 1.1812 0
M  V30 1753 O 168.666 5.16514 2.42011 0
M  V30 1754 O 167.6 5.98251 0.661774 0
M  V30 1755 H 171.426 2.95989 -0.68003 0
M  V30 1756 H 169.011 1.43994 -0.398252 0
M  V30 1757 H 170.893 3.90526 1.58327 0
M  V30 1758 H 169.568 2.72144 1.7527 0
M  V30 1759 H 168.475 3.72592 -0.335602 0
M  V30 1760 H 169.808 4.90388 -0.421936 0
M  V30 1761 N 171.46 0.379036 1.52974 0
M  V30 1762 C 172.876 0.0285448 1.59574 0
M  V30 1763 C 173.076 -1.45542 1.39355 0
M  V30 1764 O 172.132 -2.2187 1.20541 0
M  V30 1765 C 173.445 0.496535 2.96572 0
M  V30 1766 C 174.993 0.451909 3.0972 0
M  V30 1767 C 175.468 0.895924 4.49152 0
M  V30 1768 N 176.959 0.851522 4.55306 0
M  V30 1769 C 177.694 1.16661 5.61407 0
M  V30 1770 N 177.19 1.55166 6.752 0
M  V30 1771 N 178.983 1.08853 5.51459 0
M  V30 1772 H 171.134 1.34525 1.64367 0
M  V30 1773 H 173.397 0.550733 0.771619 0
M  V30 1774 H 173.103 1.53258 3.16552 0
M  V30 1775 H 172.977 -0.109802 3.7704 0
M  V30 1776 H 175.364 -0.575029 2.89443 0
M  V30 1777 H 175.445 1.09392 2.3123 0
M  V30 1778 H 175.089 1.92104 4.70168 0
M  V30 1779 H 175.019 0.23103 5.26093 0
M  V30 1780 H 177.51 0.568038 3.73606 0
M  V30 1781 H 177.823 1.776 7.52116 0
M  V30 1782 H 176.168 1.59044 6.76557 0
M  V30 1783 H 179.359 0.786803 4.6144 0
M  V30 1784 H 179.532 1.33742 6.34048 0
M  V30 1785 N 172.938 -1.57226 0.108567 0
M  V30 1786 C 174.168 -1.9889 -0.559142 0
M  V30 1787 C 174.576 -0.986889 -1.61422 0
M  V30 1788 O 173.919 0.0298705 -1.83676 0
M  V30 1789 C 173.981 -3.36952 -1.25315 0
M  V30 1790 C 173.645 -4.55679 -0.347248 0
M  V30 1791 C 174.642 -5.18281 0.409996 0
M  V30 1792 C 172.327 -5.0162 -0.261367 0
M  V30 1793 C 174.321 -6.25203 1.24096 0
M  V30 1794 C 172.008 -6.08405 0.573238 0
M  V30 1795 C 173.006 -6.70063 1.32304 0
M  V30 1796 O 172.694 -7.74788 2.14381 0
M  V30 1797 H 172.426 -0.658343 -0.153492 0
M  V30 1798 H 174.98 -2.04532 0.188584 0
M  V30 1799 H 173.21 -3.28032 -2.04773 0
M  V30 1800 H 174.899 -3.62974 -1.81673 0
M  V30 1801 H 175.665 -4.8371 0.353457 0
M  V30 1802 H 171.544 -4.53381 -0.834656 0
M  V30 1803 H 175.088 -6.73259 1.82669 0
M  V30 1804 H 170.985 -6.42406 0.631208 0
M  V30 1805 H 171.753 -7.91837 2.07209 0
M  V30 1806 N 174.416 0.165178 -1.56732 0
M  V30 1807 C 175.832 0.517174 -1.50988 0
M  V30 1808 C 176.032 1.84331 -0.813894 0
M  V30 1809 O 175.088 2.49672 -0.37682 0
M  V30 1810 C 176.401 0.544261 -2.95733 0
M  V30 1811 C 177.949 0.631039 -3.06573 0
M  V30 1812 C 178.424 0.68896 -4.52788 0
M  V30 1813 N 179.915 0.751683 -4.5706 0
M  V30 1814 C 180.65 0.817177 -5.67547 0
M  V30 1815 N 180.146 0.843129 -6.8765 0
M  V30 1816 N 181.939 0.856668 -5.55534 0
M  V30 1817 H 174.09 -0.704318 -2.00382 0
M  V30 1818 H 176.353 -0.254687 -0.913148 0
M  V30 1819 H 176.059 -0.361607 -3.49836 0
M  V30 1820 H 175.933 1.3886 -3.5071 0
M  V30 1821 H 178.32 1.52733 -2.52501 0
M  V30 1822 H 178.401 -0.240095 -2.54671 0
M  V30 1823 H 178.045 -0.2031 -5.07494 0
M  V30 1824 H 177.975 1.57633 -5.02454 0
M  V30 1825 H 180.466 0.739661 -3.70591 0
M  V30 1826 H 180.779 0.894448 -7.67606 0
M  V30 1827 H 179.124 0.811304 -6.90248 0
M  V30 1828 H 182.315 0.833437 -4.60621 0
M  V30 1829 H 182.488 0.904247 -6.4166 0
M  V30 1830 N 175.894 1.51508 0.433938 0
M  V30 1831 C 176.857 1.72473 1.50949 0
M  V30 1832 C 177.857 0.594725 1.49398 0
M  V30 1833 O 179.047 0.862315 1.5136 0
M  V30 1834 C 176.179 1.78431 2.90474 0
M  V30 1835 H 177.372 2.68467 1.33662 0
M  V30 1836 H 174.925 1.41549 0.662836 0
M  V30 1837 H 175.66 0.842645 3.13161 0
M  V30 1838 H 175.445 2.60558 2.93005 0
M  V30 1839 H 176.935 1.96479 3.68491 0
M  V30 1840 N 177.372 -0.689602 1.41712 0
M  V30 1841 C 178.618 -1.45181 1.41599 0
M  V30 1842 C 178.951 -1.94181 0.0270081 0
M  V30 1843 O 178.226 -1.6993 -0.946265 0
M  V30 1844 C 178.509 -2.65945 2.42787 0
M  V30 1845 C 178.362 -2.22672 3.90816 0
M  V30 1846 C 179.681 -3.68149 2.41151 0
M  V30 1847 H 176.8 -0.526576 0.515642 0
M  V30 1848 H 179.442 -0.784947 1.73028 0
M  V30 1849 H 177.592 -3.2284 2.16116 0
M  V30 1850 H 179.264 -1.71058 4.28412 0
M  V30 1851 H 177.507 -1.54394 4.05395 0
M  V30 1852 H 178.178 -3.0935 4.57172 0
M  V30 1853 H 180.654 -3.2094 2.64834 0
M  V30 1854 H 179.53 -4.50248 3.13955 0
M  V30 1855 H 179.791 -4.18259 1.43221 0
M  V30 1856 N 178.85 -1.27639 -0.924453 0
M  V30 1857 C 180.097 -1.14167 -1.67249 0
M  V30 1858 C 180.425 0.311863 -1.91984 0
M  V30 1859 O 179.68 1.24425 -1.51053 0
M  V30 1860 C 179.979 -1.87407 -3.04325 0
M  V30 1861 C 179.645 -3.37249 -2.99289 0
M  V30 1862 C 178.307 -3.7812 -2.97622 0
M  V30 1863 C 180.659 -4.32845 -2.90336 0
M  V30 1864 C 177.987 -5.12944 -2.8479 0
M  V30 1865 C 180.339 -5.6773 -2.79045 0
M  V30 1866 C 179.003 -6.07889 -2.7573 0
M  V30 1867 H 178.273 -0.417766 -0.612007 0
M  V30 1868 H 180.92 -1.58286 -1.07786 0
M  V30 1869 H 179.225 -1.35805 -3.67511 0
M  V30 1870 H 180.922 -1.74408 -3.61086 0
M  V30 1871 H 177.512 -3.04748 -3.01374 0
M  V30 1872 H 181.696 -4.02239 -2.90719 0
M  V30 1873 H 176.952 -5.432 -2.80612 0
M  V30 1874 H 181.126 -6.41472 -2.71083 0
M  V30 1875 H 178.753 -7.12314 -2.65544 0
M  V30 1876 N 180.328 1.1314 -1.09713 0
M  V30 1877 C 181.577 1.83838 -0.829851 0
M  V30 1878 C 181.89 1.84599 0.646728 0
M  V30 1879 O 183.096 2.51218 1.02965 0
M  V30 1880 C 181.552 3.30069 -1.43466 0
M  V30 1881 C 181.16 3.37688 -2.94399 0
M  V30 1882 C 182.904 4.05788 -1.24645 0
M  V30 1883 C 180.811 4.78209 -3.47952 0
M  V30 1884 H 179.741 0.68877 -0.306777 0
M  V30 1885 H 182.392 1.27448 -1.3202 0
M  V30 1886 H 180.774 3.8628 -0.871996 0
M  V30 1887 H 181.948 2.91456 -3.56918 0
M  V30 1888 H 180.263 2.75436 -3.12289 0
M  V30 1889 H 182.86 5.09535 -1.62107 0
M  V30 1890 H 183.203 4.15878 -0.187357 0
M  V30 1891 H 183.736 3.55915 -1.77678 0
M  V30 1892 H 180.475 4.73311 -4.53495 0
M  V30 1893 H 179.995 5.24924 -2.90198 0
M  V30 1894 H 181.674 5.47133 -3.45332 0
M  V30 1895 N 181.806 0.884767 1.30421 0
M  V30 1896 C 183.083 0.423185 1.90967 0
M  V30 1897 C 183.463 -1.09605 1.80416 0
M  V30 1898 O 182.811 -1.93126 1.22125 0
M  V30 1899 C 183.021 0.921056 3.36627 0
M  V30 1900 C 184.369 0.955903 4.137 0
M  V30 1901 O 185.393 0.867706 3.4547 0
M  V30 1902 O 184.252 1.08614 5.35598 0
M  V30 1903 H 181.346 0.129369 0.816819 0
M  V30 1904 H 183.892 0.973653 1.3899 0
M  V30 1905 H 182.664 1.96489 3.3839 0
M  V30 1906 H 182.287 0.349741 3.96059 0
M  V30 1907 N 183.284 -1.43765 0.645699 0
M  V30 1908 C 184.232 -2.32516 -0.0624849 0
M  V30 1909 C 185.226 -1.48183 -0.820855 0
M  V30 1910 O 186.432 -1.64439 -0.732106 0
M  V30 1911 H 182.807 -0.750989 -0.0389864 0
M  V30 1912 H 184.778 -2.89979 0.703892 0
M  V30 1913 C 183.527 -3.32389 -1.02044 0
M  V30 1914 H 182.85 -3.97301 -0.446312 0
M  V30 1915 H 184.29 -3.97138 -1.48517 0
M  V30 1916 C 182.749 -2.62416 -2.11281 0
M  V30 1917 O 183.279 -2.434 -3.19561 0
M  V30 1918 N 181.485 -2.21913 -1.87624 0
M  V30 1919 H 181.032 -2.37578 -0.995703 0
M  V30 1920 H 180.99 -1.75424 -2.6091 0
M  V30 1921 N 184.763 -0.387143 -1.52771 0
M  V30 1922 C 186.012 0.19697 -2.00736 0
M  V30 1923 C 186.325 1.48082 -1.27793 0
M  V30 1924 O 187.531 2.14485 -1.66458 0
M  V30 1925 C 185.987 0.401568 -3.57653 0
M  V30 1926 C 185.595 -0.868907 -4.39493 0
M  V30 1927 C 187.339 0.942164 -4.13912 0
M  V30 1928 C 185.246 -0.632705 -5.88006 0
M  V30 1929 H 184.176 0.0773827 -0.750019 0
M  V30 1930 H 186.827 -0.50921 -1.76293 0
M  V30 1931 H 185.209 1.16954 -3.78335 0
M  V30 1932 H 186.383 -1.64133 -4.30577 0
M  V30 1933 H 184.698 -1.33429 -3.94443 0
M  V30 1934 H 187.295 1.13455 -5.22525 0
M  V30 1935 H 187.638 1.9106 -3.69867 0
M  V30 1936 H 188.171 0.233814 -3.97112 0
M  V30 1937 H 184.91 -1.57208 -6.36369 0
M  V30 1938 H 184.43 0.100825 -5.99715 0
M  V30 1939 H 186.109 -0.26642 -6.46451 0
M  V30 1940 N 186.241 1.57166 -0.116904 0
M  V30 1941 C 187.657 1.5779 0.239693 0
M  V30 1942 C 187.857 1.1295 1.66867 0
M  V30 1943 O 186.913 0.81592 2.38954 0
M  V30 1944 C 188.226 3.00699 0.00828202 0
M  V30 1945 C 189.774 3.12912 0.0743438 0
M  V30 1946 C 190.249 4.57817 -0.129348 0
M  V30 1947 N 191.74 4.63139 -0.075247 0
M  V30 1948 C 192.475 5.73023 -0.207788 0
M  V30 1949 N 191.971 6.91665 -0.396382 0
M  V30 1950 N 193.764 5.61906 -0.14751 0
M  V30 1951 H 185.915 1.84615 -1.05029 0
M  V30 1952 H 188.178 0.85311 -0.41341 0
M  V30 1953 H 187.884 3.37784 -0.979531 0
M  V30 1954 H 187.758 3.69848 0.741077 0
M  V30 1955 H 190.145 2.75686 1.05268 0
M  V30 1956 H 190.226 2.4631 -0.690297 0
M  V30 1957 H 189.87 4.95742 -1.10465 0
M  V30 1958 H 189.8 5.22507 0.655253 0
M  V30 1959 H 192.291 3.7784 0.0670898 0
M  V30 1960 H 192.604 7.71255 -0.488437 0
M  V30 1961 H 190.949 6.93654 -0.432329 0
M  V30 1962 H 194.14 4.681 -0.00115036 0
M  V30 1963 H 194.313 6.47501 -0.254247 0
M  V30 1964 N 187.719 -0.156864 1.56817 0
M  V30 1965 C 188.949 -0.885031 1.86684 0
M  V30 1966 C 189.357 -1.75696 0.701954 0
M  V30 1967 O 188.7 -1.80569 -0.337732 0
M  V30 1968 C 188.762 -1.80092 3.11138 0
M  V30 1969 C 188.426 -1.10714 4.43386 0
M  V30 1970 C 189.423 -0.465714 5.1781 0
M  V30 1971 C 187.108 -1.09959 4.90117 0
M  V30 1972 C 189.102 0.174002 6.37162 0
M  V30 1973 C 186.789 -0.456055 6.09396 0
M  V30 1974 C 187.787 0.179622 6.82764 0
M  V30 1975 O 187.475 0.812975 7.99779 0
M  V30 1976 H 187.207 -0.261813 0.623242 0
M  V30 1977 H 189.761 -0.157383 2.04796 0
M  V30 1978 H 187.991 -2.56926 2.89009 0
M  V30 1979 H 189.68 -2.40018 3.27332 0
M  V30 1980 H 190.446 -0.463427 4.82781 0
M  V30 1981 H 186.325 -1.58378 4.3294 0
M  V30 1982 H 189.869 0.670765 6.94368 0
M  V30 1983 H 185.766 -0.455975 6.43888 0
M  V30 1984 H 186.534 0.71366 8.15383 0
M  V30 1985 N 189.197 -1.51736 -0.425897 0
M  V30 1986 C 190.16 -1.73271 -1.50032 0
M  V30 1987 C 191.16 -0.602639 -1.4908 0
M  V30 1988 O 192.35 -0.87033 -1.509 0
M  V30 1989 C 189.482 -1.79969 -2.89523 0
M  V30 1990 H 190.675 -2.69172 -1.32237 0
M  V30 1991 H 188.228 -1.41899 -0.65532 0
M  V30 1992 H 188.963 -0.859241 -3.1271 0
M  V30 1993 H 188.748 -2.62109 -2.91619 0
M  V30 1994 H 190.238 -1.9843 -3.67444 0
M  V30 1995 N 190.675 0.682077 -1.42076 0
M  V30 1996 C 191.638 1.77756 -1.44691 0
M  V30 1997 C 192.638 1.5726 -0.335535 0
M  V30 1998 O 193.828 1.63686 -0.596037 0
M  V30 1999 C 190.96 3.16301 -1.27146 0
M  V30 2000 H 192.153 1.76826 -2.42224 0
M  V30 2001 H 189.706 0.891012 -1.28416 0
M  V30 2002 H 190.441 3.22862 -0.305075 0
M  V30 2003 H 190.226 3.32581 -2.07683 0
M  V30 2004 H 191.716 3.96241 -1.31843 0
M  V30 2005 N 192.153 1.28127 0.917671 0
M  V30 2006 C 193.43 1.05761 1.64542 0
M  V30 2007 C 193.81 -0.404344 2.07191 0
M  V30 2008 O 193.158 -1.38963 1.81388 0
M  V30 2009 C 193.368 2.02857 2.83989 0
M  V30 2010 C 194.716 2.32786 3.551 0
M  V30 2011 O 195.74 2.0091 2.94132 0
M  V30 2012 O 194.599 2.87169 4.64969 0
M  V30 2013 H 191.693 0.403916 0.721652 0
M  V30 2014 H 194.239 1.39431 0.967322 0
M  V30 2015 H 193.011 3.01407 2.49538 0
M  V30 2016 H 192.634 1.69809 3.59514 0
M  V30 2017 N 193.631 -1.12557 1.10312 0
M  V30 2018 C 195.047 -1.36036 0.834649 0
M  V30 2019 C 195.247 -1.93946 -0.546539 0
M  V30 2020 O 194.303 -2.16484 -1.29966 0
M  V30 2021 C 195.616 -2.30312 1.9333 0
M  V30 2022 C 197.164 -2.43906 1.9616 0
M  V30 2023 C 197.639 -3.41496 3.05195 0
M  V30 2024 N 199.13 -3.49053 3.04494 0
M  V30 2025 C 199.865 -4.24471 3.85502 0
M  V30 2026 N 199.361 -5.02966 4.76442 0
M  V30 2027 N 201.154 -4.19864 3.73725 0
M  V30 2028 H 193.305 -0.733246 1.99342 0
M  V30 2029 H 195.568 -0.385234 0.866198 0
M  V30 2030 H 195.274 -1.94933 2.92735 0
M  V30 2031 H 195.148 -3.30421 1.81939 0
M  V30 2032 H 197.535 -2.78567 0.973886 0
M  V30 2033 H 197.616 -1.4369 2.11629 0
M  V30 2034 H 197.26 -3.07565 4.04186 0
M  V30 2035 H 197.19 -4.41539 2.86968 0
M  V30 2036 H 199.681 -2.93053 2.38596 0
M  V30 2037 H 199.994 -5.57846 5.34815 0
M  V30 2038 H 198.339 -5.02167 4.80472 0
M  V30 2039 H 201.53 -3.57623 3.02032 0
M  V30 2040 H 201.703 -4.78386 4.37093 0
M  V30 2041 N 195.109 -0.891671 -1.2995 0
M  V30 2042 C 196.356 -0.513501 -1.95881 0
M  V30 2043 C 196.684 0.938655 -1.70351 0
M  V30 2044 O 195.939 1.67936 -1.00478 0
M  V30 2045 C 196.238 -0.742868 -3.49594 0
M  V30 2046 C 195.904 -2.17114 -3.95186 0
M  V30 2047 C 194.566 -2.56169 -4.07346 0
M  V30 2048 C 196.918 -3.10162 -4.18866 0
M  V30 2049 C 194.246 -3.87469 -4.4055 0
M  V30 2050 C 196.598 -4.41001 -4.53542 0
M  V30 2051 C 195.262 -4.79941 -4.63911 0
M  V30 2052 H 194.532 -0.187903 -0.71678 0
M  V30 2053 H 197.179 -1.1288 -1.54694 0
M  V30 2054 H 195.484 -0.044586 -3.91775 0
M  V30 2055 H 197.181 -0.429767 -3.9869 0
M  V30 2056 H 193.771 -1.85801 -3.86233 0
M  V30 2057 H 197.955 -2.81206 -4.08946 0
M  V30 2058 H 193.211 -4.17371 -4.46779 0
M  V30 2059 H 197.385 -5.13133 -4.70815 0
M  V30 2060 H 195.012 -5.81719 -4.89395 0
M  V30 2061 N 196.587 1.43421 -0.653314 0
M  V30 2062 C 197.55 2.29182 0.0287951 0
M  V30 2063 C 198.55 1.42213 0.750465 0
M  V30 2064 O 199.74 1.63843 0.591701 0
M  V30 2065 C 196.872 3.24278 1.05151 0
M  V30 2066 H 198.065 2.90985 -0.725786 0
M  V30 2067 H 195.618 1.50702 -0.414545 0
M  V30 2068 H 196.353 2.6737 1.83532 0
M  V30 2069 H 196.138 3.88396 0.537687 0
M  V30 2070 H 197.628 3.88647 1.52786 0
M  V30 2071 N 198.065 0.39524 1.52563 0
M  V30 2072 C 199.476 -0.0774719 1.86539 0
M  V30 2073 C 199.827 -1.45641 1.31466 0
M  V30 2074 O 198.952 -2.06459 0.648367 0
M  V30 2075 C 199.547 -0.147356 3.38479 0
M  V30 2076 C 198.106 -0.564373 3.72145 0
M  V30 2077 C 197.253 0.269919 2.75983 0
M  V30 2078 H 200.204 0.612876 1.46388 0
M  V30 2079 H 200.225 -0.965343 3.68051 0
M  V30 2080 H 199.737 0.856387 3.78534 0
M  V30 2081 H 197.838 -1.57527 3.37663 0
M  V30 2082 H 197.951 -0.318402 4.78041 0
M  V30 2083 H 196.315 -0.265696 2.5331 0
M  V30 2084 H 197.098 1.27175 3.18875 0
M  V30 2085 N 199.544 -1.57102 0.125237 0
M  V30 2086 C 200.494 -2.12202 -0.833936 0
M  V30 2087 C 201.478 -1.04433 -1.22403 0
M  V30 2088 O 202.67 -1.30655 -1.19408 0
M  V30 2089 C 199.799 -2.72994 -2.08157 0
M  V30 2090 C 198.885 -3.87852 -1.71556 0
M  V30 2091 N 199.276 -4.9464 -1.05662 0
M  V30 2092 C 197.574 -3.98153 -2.00973 0
M  V30 2093 C 198.275 -5.74953 -0.883376 0
M  V30 2094 N 197.251 -5.24985 -1.41036 0
M  V30 2095 H 201.053 -2.92141 -0.321035 0
M  V30 2096 H 198.567 -1.62217 -0.0770315 0
M  V30 2097 H 200.564 -3.10816 -2.77847 0
M  V30 2098 H 199.224 -1.9452 -2.59985 0
M  V30 2099 H 200.235 -5.12872 -0.719878 0
M  V30 2100 H 196.912 -3.30728 -2.54804 0
M  V30 2101 H 198.302 -6.70904 -0.365675 0
M  V30 2102 N 201.022 0.148545 -1.56898 0
M  V30 2103 C 202.27 0.859717 -1.82902 0
M  V30 2104 C 202.591 1.81775 -0.70588 0
M  V30 2105 O 201.861 1.93994 0.272586 0
M  V30 2106 H 200.441 0.320469 -0.674766 0
M  V30 2107 H 203.103 0.142918 -1.94375 0
M  V30 2108 H 202.199 1.4229 -2.77777 0
M  V30 2109 N 202.5 1.5196 0.417844 0
M  V30 2110 C 203.447 1.74678 1.50852 0
M  V30 2111 C 204.417 0.588947 1.55308 0
M  V30 2112 O 205.602 0.825544 1.72016 0
M  V30 2113 C 202.742 1.89544 2.88387 0
M  V30 2114 C 201.855 3.17166 2.93309 0
M  V30 2115 C 200.99 3.22513 4.22088 0
M  V30 2116 C 200.029 4.44372 4.20951 0
M  V30 2117 N 199.166 4.47161 5.41287 0
M  V30 2118 H 204.006 2.67768 1.30783 0
M  V30 2119 H 201.543 1.32689 0.63498 0
M  V30 2120 H 203.501 1.96146 3.68216 0
M  V30 2121 H 202.131 0.998424 3.06971 0
M  V30 2122 H 201.183 3.19778 2.06024 0
M  V30 2123 H 202.495 4.07021 2.88332 0
M  V30 2124 H 201.649 3.28139 5.10303 0
M  V30 2125 H 200.388 2.30581 4.29748 0
M  V30 2126 H 199.393 4.38902 3.31127 0
M  V30 2127 H 200.618 5.3759 4.14938 0
M  V30 2128 H 198.564 3.58108 5.49632 0
M  V30 2129 H 198.481 5.3085 5.3827 0
M  V30 2130 H 199.749 4.57005 6.3148 0
M  V30 2131 N 203.978 -0.674533 1.42435 0
M  V30 2132 C 205.394 -0.98769 1.25367 0
M  V30 2133 C 205.594 -2.00879 0.158044 0
M  V30 2134 O 204.65 -2.48075 -0.470633 0
M  V30 2135 C 205.963 -1.49224 2.6106 0
M  V30 2136 C 207.511 -1.61 2.68417 0
M  V30 2137 C 207.986 -2.14852 4.04478 0
M  V30 2138 N 209.477 -2.22185 4.06434 0
M  V30 2139 C 210.212 -2.64928 5.08528 0
M  V30 2140 N 209.708 -3.07121 6.21006 0
M  V30 2141 N 211.501 -2.64679 4.95885 0
M  V30 2142 H 203.652 0.00152503 2.124 0
M  V30 2143 H 205.915 -0.0618434 0.945981 0
M  V30 2144 H 205.621 -0.816453 3.42092 0
M  V30 2145 H 205.495 -2.47094 2.84999 0
M  V30 2146 H 207.882 -2.27686 1.87732 0
M  V30 2147 H 207.963 -0.616195 2.48267 0
M  V30 2148 H 207.607 -1.48775 4.85622 0
M  V30 2149 H 207.537 -3.15024 4.2198 0
M  V30 2150 H 210.028 -1.92435 3.25234 0
M  V30 2151 H 210.341 -3.38423 6.94759 0
M  V30 2152 H 208.686 -3.04978 6.24511 0
M  V30 2153 H 211.877 -2.31078 4.07088 0
M  V30 2154 H 212.05 -2.9767 5.75584 0
M  V30 2155 N 205.456 -1.28612 -0.910864 0
M  V30 2156 C 206.705 -1.15311 -1.65488 0
M  V30 2157 C 207.018 0.296999 -1.93332 0
M  V30 2158 O 208.224 0.551168 -2.65847 0
M  V30 2159 C 206.68 -2.01599 -2.98137 0
M  V30 2160 C 206.288 -3.51367 -2.7793 0
M  V30 2161 C 208.032 -1.96993 -3.76024 0
M  V30 2162 C 205.939 -4.29797 -4.06237 0
M  V30 2163 H 204.869 -0.42796 -0.620779 0
M  V30 2164 H 207.52 -1.53166 -1.01057 0
M  V30 2165 H 205.902 -1.56603 -3.63719 0
M  V30 2166 H 207.076 -4.0434 -2.21011 0
M  V30 2167 H 205.391 -3.57529 -2.13452 0
M  V30 2168 H 207.988 -2.52856 -4.71135 0
M  V30 2169 H 208.331 -0.94733 -4.05378 0
M  V30 2170 H 208.864 -2.39973 -3.17266 0
M  V30 2171 H 205.603 -5.32648 -3.82055 0
M  V30 2172 H 205.123 -3.81596 -4.62757 0
M  V30 2173 H 206.802 -4.39869 -4.74473 0
M  V30 2174 N 206.934 1.1197 -1.10907 0
M  V30 2175 C 207.864 2.19928 -0.784473 0
M  V30 2176 C 208.845 1.6833 0.244726 0
M  V30 2177 O 210.03 1.93892 0.109418 0
M  V30 2178 C 207.16 3.46597 -0.220827 0
M  V30 2179 C 206.114 4.11376 -1.18127 0
M  V30 2180 C 205.44 5.32554 -0.478594 0
M  V30 2181 C 206.74 4.56945 -2.52979 0
M  V30 2182 H 208.434 2.47337 -1.68715 0
M  V30 2183 H 205.98 1.18879 -0.812642 0
M  V30 2184 H 207.933 4.21396 0.0184278 0
M  V30 2185 H 206.657 3.1863 0.717113 0
M  V30 2186 H 205.316 3.38564 -1.40606 0
M  V30 2187 H 204.964 5.00856 0.463976 0
M  V30 2188 H 204.664 5.76844 -1.11912 0
M  V30 2189 H 206.188 6.10096 -0.248 0
M  V30 2190 H 207.602 5.23093 -2.3462 0
M  V30 2191 H 205.999 5.1203 -3.12962 0
M  V30 2192 H 207.069 3.70676 -3.12614 0
M  V30 2193 N 208.412 0.89855 1.29475 0
M  V30 2194 C 209.658 0.524658 1.95896 0
M  V30 2195 C 209.991 -0.926468 1.70676 0
M  V30 2196 O 209.266 -1.65665 1.01908 0
M  V30 2197 C 209.549 0.81633 3.50725 0
M  V30 2198 C 209.402 2.31907 3.85408 0
M  V30 2199 C 210.721 0.302038 4.39062 0
M  V30 2200 H 207.84 0.19209 0.711527 0
M  V30 2201 H 210.482 1.12502 1.53112 0
M  V30 2202 H 208.632 0.305369 3.87298 0
M  V30 2203 H 210.304 2.89949 3.58786 0
M  V30 2204 H 208.547 2.78027 3.32992 0
M  V30 2205 H 209.218 2.47373 4.93468 0
M  V30 2206 H 211.694 0.739551 4.09475 0
M  V30 2207 H 210.57 0.535331 5.46283 0
M  V30 2208 H 210.831 -0.797216 4.34853 0
M  V30 2209 N 209.89 -1.43072 0.660911 0
M  V30 2210 C 210.8 -2.34585 -0.0264163 0
M  V30 2211 C 211.816 -1.54316 -0.803898 0
M  V30 2212 O 212.992 -1.86939 -0.749391 0
M  V30 2213 C 210.057 -3.32689 -0.975639 0
M  V30 2214 C 209.118 -4.2886 -0.194236 0
M  V30 2215 C 208.351 -5.22278 -1.09825 0
M  V30 2216 O 208.574 -5.20299 -2.33763 0
M  V30 2217 O 207.508 -5.99228 -0.566513 0
M  V30 2218 H 211.334 -2.94869 0.727034 0
M  V30 2219 H 208.919 -1.43342 0.42111 0
M  V30 2220 H 210.801 -3.92995 -1.52094 0
M  V30 2221 H 209.476 -2.74898 -1.70918 0
M  V30 2222 H 208.383 -3.72011 0.394835 0
M  V30 2223 H 209.716 -4.89655 0.499899 0
M  V30 2224 N 211.368 -0.403325 -1.52352 0
M  V30 2225 C 212.331 0.413051 -2.25447 0
M  V30 2226 C 213.331 0.978513 -1.276 0
M  V30 2227 O 214.521 0.858305 -1.51587 0
M  V30 2228 C 211.653 1.58087 -3.02029 0
M  V30 2229 H 212.846 -0.227094 -2.99039 0
M  V30 2230 H 210.399 -0.155722 -1.55522 0
M  V30 2231 H 211.134 2.25804 -2.32772 0
M  V30 2232 H 210.919 1.18195 -3.73861 0
M  V30 2233 H 212.409 2.1585 -3.57489 0
M  V30 2234 N 212.846 1.57033 -0.133567 0
M  V30 2235 C 213.776 2.1909 0.807567 0
M  V30 2236 C 214.757 1.13517 1.26681 0
M  V30 2237 O 215.942 1.41809 1.32679 0
M  V30 2238 C 213.072 2.80188 2.05212 0
M  V30 2239 C 212.026 3.91471 1.73015 0
M  V30 2240 C 211.352 4.39443 3.04622 0
M  V30 2241 C 212.652 5.12886 0.987168 0
M  V30 2242 H 214.346 2.97988 0.290403 0
M  V30 2243 H 211.892 1.43335 0.138239 0
M  V30 2244 H 213.845 3.22264 2.71521 0
M  V30 2245 H 212.569 1.98601 2.59278 0
M  V30 2246 H 211.228 3.49993 1.0909 0
M  V30 2247 H 210.876 3.54695 3.56651 0
M  V30 2248 H 210.576 5.14495 2.83847 0
M  V30 2249 H 212.1 4.8418 3.72024 0
M  V30 2250 H 213.514 5.51891 1.55208 0
M  V30 2251 H 211.911 5.93615 0.87985 0
M  V30 2252 H 212.981 4.84894 -0.0235286 0
M  V30 2253 N 214.325 -0.140222 1.56975 0
M  V30 2254 C 215.55 -0.870414 1.88251 0
M  V30 2255 C 215.975 -1.73637 0.723312 0
M  V30 2256 O 215.333 -1.78329 -0.32689 0
M  V30 2257 C 215.381 -1.69737 3.18154 0
M  V30 2258 O 214.485 -2.80229 3.02565 0
M  V30 2259 H 213.826 -0.242025 0.61832 0
M  V30 2260 H 216.356 -0.128999 2.04193 0
M  V30 2261 H 216.366 -2.09099 3.50345 0
M  V30 2262 H 215.041 -1.06152 4.02125 0
M  V30 2263 H 213.618 -2.44224 2.81796 0
M  V30 2264 N 215.803 -1.52179 -0.40978 0
M  V30 2265 C 217.214 -1.58377 -0.988615 0
M  V30 2266 C 217.565 -0.423879 -1.91566 0
M  V30 2267 O 216.69 0.455844 -2.11544 0
M  V30 2268 C 217.285 -2.87044 -1.79976 0
M  V30 2269 C 215.844 -2.95722 -2.32863 0
M  V30 2270 C 214.991 -2.53309 -1.12828 0
M  V30 2271 H 217.942 -1.57558 -0.190039 0
M  V30 2272 H 217.963 -2.7236 -2.65707 0
M  V30 2273 H 217.475 -3.71444 -1.12478 0
M  V30 2274 H 215.576 -2.15814 -3.03735 0
M  V30 2275 H 215.689 -3.99951 -2.63773 0
M  V30 2276 H 214.053 -2.07142 -1.48204 0
M  V30 2277 H 214.836 -3.40082 -0.46897 0
M  V30 2278 N 217.281 0.66697 -1.42791 0
M  V30 2279 C 218.529 1.42417 -1.43394 0
M  V30 2280 C 218.85 1.94925 -0.0542373 0
M  V30 2281 O 218.12 1.73564 0.908415 0
M  V30 2282 H 216.7 0.528515 -0.527902 0
M  V30 2283 H 219.362 0.787562 -1.78279 0
M  V30 2284 H 218.458 2.27333 -2.13837 0
M  V30 2285 N 218.759 1.29093 0.90403 0
M  V30 2286 C 220.005 1.16986 1.65656 0
M  V30 2287 C 220.338 -0.278925 1.92186 0
M  V30 2288 O 219.613 -1.2019 1.5292 0
M  V30 2289 C 219.896 1.97908 3.0084 0
M  V30 2290 C 219.749 3.50903 2.81403 0
M  V30 2291 C 221.068 1.80208 4.01513 0
M  V30 2292 H 218.187 0.426346 0.601164 0
M  V30 2293 H 220.829 1.58518 1.04747 0
M  V30 2294 H 218.979 1.62616 3.52829 0
M  V30 2295 H 220.651 3.96153 2.36348 0
M  V30 2296 H 218.894 3.76045 2.1627 0
M  V30 2297 H 219.565 4.02791 3.77443 0
M  V30 2298 H 222.041 2.11025 3.58619 0
M  V30 2299 H 220.917 2.39184 4.94047 0
M  V30 2300 H 221.178 0.756119 4.35586 0
M  V30 2301 N 220.237 -1.11381 1.11499 0
M  V30 2302 C 221.184 -2.17439 0.773887 0
M  V30 2303 C 222.154 -1.64132 -0.254899 0
M  V30 2304 O 223.339 -1.90345 -0.13168 0
M  V30 2305 C 220.479 -3.44373 0.223917 0
M  V30 2306 C 219.592 -4.1168 1.30934 0
M  V30 2307 C 218.727 -5.263 0.71984 0
M  V30 2308 C 217.766 -5.85493 1.78507 0
M  V30 2309 N 216.903 -6.91507 1.21502 0
M  V30 2310 H 221.743 -2.45962 1.68246 0
M  V30 2311 H 219.28 -1.20744 0.840191 0
M  V30 2312 H 221.238 -4.17047 -0.112921 0
M  V30 2313 H 219.868 -3.16232 -0.647851 0
M  V30 2314 H 218.92 -3.37073 1.76312 0
M  V30 2315 H 220.232 -4.51729 2.11524 0
M  V30 2316 H 219.386 -6.05785 0.333094 0
M  V30 2317 H 218.125 -4.87559 -0.117377 0
M  V30 2318 H 217.13 -5.04686 2.18111 0
M  V30 2319 H 218.355 -6.26301 2.62533 0
M  V30 2320 H 216.301 -6.54783 0.399455 0
M  V30 2321 H 216.218 -7.30214 1.95763 0
M  V30 2322 H 217.486 -7.74795 0.855181 0
M  V30 2323 N 221.715 -0.905404 -1.28997 0
M  V30 2324 C 223.126 -0.581953 -1.77398 0
M  V30 2325 C 223.477 0.902552 -1.74208 0
M  V30 2326 O 222.602 1.70584 -1.33154 0
M  V30 2327 C 223.197 -1.04961 -3.22131 0
M  V30 2328 C 221.756 -0.777229 -3.68288 0
M  V30 2329 C 220.903 -1.22109 -2.48967 0
M  V30 2330 H 223.854 -1.08754 -1.15578 0
M  V30 2331 H 223.875 -0.387387 -3.78523 0
M  V30 2332 H 223.387 -2.13008 -3.24421 0
M  V30 2333 H 221.488 0.290383 -3.71467 0
M  V30 2334 H 221.601 -1.37911 -4.58822 0
M  V30 2335 H 219.965 -0.639971 -2.46529 0
M  V30 2336 H 220.748 -2.30972 -2.53982 0
M  V30 2337 N 223.193 1.4272 -0.668489 0
M  V30 2338 C 224.143 2.27971 0.0363806 0
M  V30 2339 C 225.127 1.40741 0.779794 0
M  V30 2340 O 226.319 1.64245 0.659745 0
M  V30 2341 C 223.448 3.28673 0.991398 0
M  V30 2342 C 222.534 4.23388 0.245658 0
M  V30 2343 N 222.925 5.00267 -0.746069 0
M  V30 2344 C 221.223 4.43355 0.484988 0
M  V30 2345 C 221.924 5.69396 -1.19009 0
M  V30 2346 N 220.9 5.41095 -0.521287 0
M  V30 2347 H 224.702 2.84833 -0.724394 0
M  V30 2348 H 222.216 1.54607 -0.497028 0
M  V30 2349 H 224.213 3.88543 1.51129 0
M  V30 2350 H 222.873 2.73373 1.75207 0
M  V30 2351 H 223.884 5.05525 -1.12537 0
M  V30 2352 H 220.561 3.99104 1.22565 0
M  V30 2353 H 221.951 6.41083 -2.01153 0
M  V30 2354 N 224.671 0.411399 1.52136 0
M  V30 2355 C 225.901 -0.16284 2.05957 0
M  V30 2356 C 226.309 -1.3922 1.28119 0
M  V30 2357 O 225.652 -1.80768 0.326881 0
M  V30 2358 C 225.714 -0.575946 3.54856 0
M  V30 2359 C 225.378 0.542998 4.53763 0
M  V30 2360 C 226.375 1.40726 5.00492 0
M  V30 2361 C 224.06 0.716337 4.97166 0
M  V30 2362 C 226.054 2.4298 5.8927 0
M  V30 2363 C 223.741 1.74218 5.8574 0
M  V30 2364 C 224.739 2.59731 6.31687 0
M  V30 2365 O 224.427 3.60558 7.18507 0
M  V30 2366 H 224.159 -0.0229125 0.675612 0
M  V30 2367 H 226.713 0.581634 1.96993 0
M  V30 2368 H 224.943 -1.37274 3.61515 0
M  V30 2369 H 226.632 -1.07836 3.91313 0
M  V30 2370 H 227.398 1.28476 4.67674 0
M  V30 2371 H 223.277 0.0603857 4.6096 0
M  V30 2372 H 226.821 3.0976 6.25055 0
M  V30 2373 H 222.718 1.86498 6.17971 0
M  V30 2374 H 223.486 3.56829 7.36624 0
M  V30 2375 N 226.149 -1.5696 0.141893 0
M  V30 2376 C 227.079 -2.19516 -0.795936 0
M  V30 2377 C 228.06 -1.14187 -1.26077 0
M  V30 2378 O 229.245 -1.42511 -1.31925 0
M  V30 2379 C 226.375 -2.81272 -2.03723 0
M  V30 2380 C 225.329 -3.92384 -1.70936 0
M  V30 2381 C 224.655 -4.41052 -3.02287 0
M  V30 2382 C 225.955 -5.13403 -0.959954 0
M  V30 2383 H 227.649 -2.98138 -0.274596 0
M  V30 2384 H 225.195 -1.43406 -0.130636 0
M  V30 2385 H 227.148 -3.237 -2.69808 0
M  V30 2386 H 225.872 -1.99973 -2.58221 0
M  V30 2387 H 224.531 -3.50566 -1.07232 0
M  V30 2388 H 224.179 -3.56582 -3.54765 0
M  V30 2389 H 223.879 -5.15993 -2.81114 0
M  V30 2390 H 225.403 -4.86146 -3.69451 0
M  V30 2391 H 226.817 -5.52706 -1.52279 0
M  V30 2392 H 225.214 -5.94073 -0.848357 0
M  V30 2393 H 226.284 -4.84875 0.0492434 0
M  V30 2394 N 227.627 0.131896 -1.57047 0
M  V30 2395 C 228.874 0.841932 -1.84168 0
M  V30 2396 C 229.202 1.8048 -0.725066 0
M  V30 2397 O 228.457 1.93618 0.284692 0
M  V30 2398 C 228.756 1.63703 -3.17704 0
M  V30 2399 C 228.422 0.81961 -4.43388 0
M  V30 2400 C 227.084 0.594148 -4.77518 0
M  V30 2401 C 229.436 0.248977 -5.20605 0
M  V30 2402 C 226.764 -0.212409 -5.86315 0
M  V30 2403 C 229.116 -0.544701 -6.30251 0
M  V30 2404 C 227.78 -0.780599 -6.6292 0
M  V30 2405 H 227.05 0.308085 -0.673917 0
M  V30 2406 H 229.697 0.104867 -1.91213 0
M  V30 2407 H 228.002 2.44464 -3.06177 0
M  V30 2408 H 229.699 2.19015 -3.35907 0
M  V30 2409 H 226.289 1.00542 -4.16641 0
M  V30 2410 H 230.473 0.410408 -4.946 0
M  V30 2411 H 225.729 -0.404524 -6.1006 0
M  V30 2412 H 229.903 -0.993922 -6.89271 0
M  V30 2413 H 227.53 -1.40742 -7.47058 0
M  V30 2414 N 229.106 1.52395 0.401703 0
M  V30 2415 C 230.331 1.70972 1.17403 0
M  V30 2416 C 230.756 0.421615 1.83314 0
M  V30 2417 O 230.114 -0.621564 1.70312 0
M  V30 2418 C 230.162 2.85151 2.20728 0
M  V30 2419 O 229.266 2.51238 3.27037 0
M  V30 2420 H 228.607 0.568927 0.342372 0
M  V30 2421 H 231.137 1.99131 0.469891 0
M  V30 2422 H 231.147 3.10279 2.64936 0
M  V30 2423 H 229.822 3.78603 1.7214 0
M  V30 2424 H 228.399 2.36808 2.88057 0
M  V30 2425 N 230.584 -0.659388 1.43143 0
M  V30 2426 C 231.809 -1.45221 1.48073 0
M  V30 2427 C 232.234 -1.87845 0.097995 0
M  V30 2428 O 231.592 -1.56985 -0.90694 0
M  V30 2429 C 231.64 -2.66748 2.42647 0
M  V30 2430 O 230.744 -3.65583 1.90848 0
M  V30 2431 H 230.085 -0.435669 0.501088 0
M  V30 2432 H 232.615 -0.807432 1.87994 0
M  V30 2433 H 232.625 -3.14637 2.59745 0
M  V30 2434 H 231.3 -2.35067 3.43098 0
M  V30 2435 H 229.877 -3.24693 1.83381 0
M  V30 2436 N 232.062 -1.29571 -0.897171 0
M  V30 2437 C 232.994 -1.10724 -2.00681 0
M  V30 2438 C 234.007 -0.0540026 -1.6271 0
M  V30 2439 O 235.196 -0.298783 -1.75982 0
M  V30 2440 C 232.296 -0.663912 -3.32333 0
M  V30 2441 C 231.469 -1.79622 -3.98816 0
M  V30 2442 C 230.528 -1.34349 -5.0876 0
M  V30 2443 O 229.554 -2.04864 -5.31055 0
M  V30 2444 N 230.756 -0.215764 -5.80099 0
M  V30 2445 H 233.521 -2.06291 -2.17403 0
M  V30 2446 H 231.082 -1.21544 -1.06951 0
M  V30 2447 H 233.074 -0.344295 -4.03233 0
M  V30 2448 H 231.644 0.199375 -3.11964 0
M  V30 2449 H 230.864 -2.28459 -3.21248 0
M  V30 2450 H 232.152 -2.55535 -4.39976 0
M  V30 2451 H 231.55 0.372091 -5.64475 0
M  V30 2452 H 230.107 0.0444707 -6.51785 0
M  V30 2453 N 233.54 1.10788 -1.12088 0
M  V30 2454 C 234.77 1.86191 -0.895351 0
M  V30 2455 C 235.178 1.80763 0.558702 0
M  V30 2456 O 234.521 1.19188 1.39785 0
M  V30 2457 C 234.583 3.35659 -1.28737 0
M  V30 2458 C 234.247 3.64849 -2.75198 0
M  V30 2459 C 235.244 3.61757 -3.734 0
M  V30 2460 C 232.929 3.93641 -3.12013 0
M  V30 2461 C 234.923 3.87045 -5.06434 0
M  V30 2462 C 232.61 4.18585 -4.4523 0
M  V30 2463 C 233.608 4.15277 -5.42249 0
M  V30 2464 O 233.296 4.3959 -6.73065 0
M  V30 2465 H 233.028 0.595425 -0.32007 0
M  V30 2466 H 235.582 1.40992 -1.49367 0
M  V30 2467 H 233.812 3.81497 -0.63224 0
M  V30 2468 H 235.501 3.92441 -1.03656 0
M  V30 2469 H 236.267 3.39557 -3.46303 0
M  V30 2470 H 232.146 3.95348 -2.37109 0
M  V30 2471 H 235.69 3.84378 -5.82151 0
M  V30 2472 H 231.587 4.40264 -4.72057 0
M  V30 2473 H 232.355 4.57123 -6.78956 0
M  V30 2474 N 235.018 0.912232 1.28515 0
M  V30 2475 C 235.95 0.35676 2.26406 0
M  V30 2476 C 236.963 -0.503933 1.54804 0
M  V30 2477 O 238.152 -0.319059 1.75625 0
M  V30 2478 C 235.252 -0.508825 3.35058 0
M  V30 2479 C 234.425 0.329007 4.36161 0
M  V30 2480 C 233.484 -0.471422 5.24084 0
M  V30 2481 O 232.51 0.115482 5.69083 0
M  V30 2482 N 233.712 -1.77479 5.52704 0
M  V30 2483 H 236.477 1.19818 2.74707 0
M  V30 2484 H 234.038 0.778022 1.4198 0
M  V30 2485 H 236.03 -1.051 3.90815 0
M  V30 2486 H 234.6 -1.25095 2.86478 0
M  V30 2487 H 233.82 1.05256 3.79888 0
M  V30 2488 H 235.108 0.90234 5.00735 0
M  V30 2489 H 234.506 -2.27417 5.17975 0
M  V30 2490 H 233.063 -2.26382 6.11224 0
M  V30 2491 N 236.496 -1.42363 0.676048 0
M  V30 2492 C 237.459 -2.29199 0.00766941 0
M  V30 2493 C 238.459 -1.43389 -0.727745 0
M  V30 2494 O 239.649 -1.64764 -0.56556 0
M  V30 2495 C 236.781 -3.2591 -0.999785 0
M  V30 2496 H 237.974 -2.89794 0.771988 0
M  V30 2497 H 235.527 -1.50024 0.438468 0
M  V30 2498 H 236.262 -2.70256 -1.79255 0
M  V30 2499 H 236.047 -3.89202 -0.475829 0
M  V30 2500 H 237.537 -3.91028 -1.46583 0
M  V30 2501 N 237.974 -0.419461 -1.51915 0
M  V30 2502 C 238.904 0.391813 -2.30189 0
M  V30 2503 C 239.885 1.03699 -1.34836 0
M  V30 2504 O 241.07 1.04403 -1.63748 0
M  V30 2505 C 238.2 1.50312 -3.13087 0
M  V30 2506 C 237.154 0.9824 -4.16573 0
M  V30 2507 C 236.48 2.18809 -4.8788 0
M  V30 2508 C 237.78 0.0292356 -5.22292 0
M  V30 2509 H 239.474 -0.26135 -2.98257 0
M  V30 2510 H 237.02 -0.127134 -1.43438 0
M  V30 2511 H 238.973 2.07773 -3.66617 0
M  V30 2512 H 237.697 2.18431 -2.42807 0
M  V30 2513 H 236.356 0.430119 -3.64068 0
M  V30 2514 H 236.004 2.85507 -4.14119 0
M  V30 2515 H 235.704 1.84615 -5.57845 0
M  V30 2516 H 237.228 2.76858 -5.44226 0
M  V30 2517 H 238.642 0.512976 -5.71 0
M  V30 2518 H 237.039 -0.2244 -5.9968 0
M  V30 2519 H 238.109 -0.912931 -4.76228 0
M  V30 2520 N 239.452 1.56882 -0.150215 0
M  V30 2521 C 240.415 2.1573 0.774157 0
M  V30 2522 C 241.415 1.0999 1.17298 0
M  V30 2523 O 242.605 1.35613 1.09338 0
M  V30 2524 C 239.737 2.72302 2.05096 0
M  V30 2525 H 240.93 2.98752 0.262201 0
M  V30 2526 H 238.483 1.55985 0.099248 0
M  V30 2527 H 239.218 1.92956 2.6065 0
M  V30 2528 H 239.003 3.49665 1.77416 0
M  V30 2529 H 240.493 3.17632 2.71109 0
M  V30 2530 N 240.93 -0.123565 1.57115 0
M  V30 2531 C 242.179 -0.830704 1.83799 0
M  V30 2532 C 242.492 -1.81259 0.735158 0
M  V30 2533 O 243.698 -2.56558 0.888278 0
M  V30 2534 C 242.154 -1.52802 3.25852 0
M  V30 2535 C 241.762 -0.587356 4.44133 0
M  V30 2536 C 243.506 -2.22056 3.61789 0
M  V30 2537 C 241.413 -1.28764 5.77212 0
M  V30 2538 H 240.343 -0.313967 0.685522 0
M  V30 2539 H 242.994 -0.0834359 1.8331 0
M  V30 2540 H 241.376 -2.32175 3.20797 0
M  V30 2541 H 242.55 0.172829 4.60476 0
M  V30 2542 H 240.865 -0.00201892 4.164 0
M  V30 2543 H 243.462 -2.75131 4.58483 0
M  V30 2544 H 243.805 -2.99644 2.88997 0
M  V30 2545 H 244.338 -1.49576 3.68608 0
M  V30 2546 H 241.077 -0.55314 6.53162 0
M  V30 2547 H 240.597 -2.01995 5.64764 0
M  V30 2548 H 242.276 -1.8221 6.20813 0
M  V30 2549 N 242.408 -1.52605 -0.393616 0
M  V30 2550 C 243.654 -1.67672 -1.14079 0
M  V30 2551 C 243.987 -0.413121 -1.89755 0
M  V30 2552 O 243.262 0.588952 -1.85369 0
M  V30 2553 C 243.545 -2.9088 -2.12276 0
M  V30 2554 C 243.398 -4.27329 -1.40394 0
M  V30 2555 C 244.717 -3.09628 -3.12759 0
M  V30 2556 H 241.836 -0.610168 -0.413356 0
M  V30 2557 H 244.478 -1.85193 -0.424696 0
M  V30 2558 H 242.628 -2.76073 -2.73342 0
M  V30 2559 H 244.3 -4.53894 -0.82327 0
M  V30 2560 H 242.543 -4.2802 -0.705801 0
M  V30 2561 H 243.214 -5.09615 -2.12123 0
M  V30 2562 H 245.69 -3.23436 -2.61779 0
M  V30 2563 H 244.566 -3.97322 -3.78717 0
M  V30 2564 H 244.827 -2.23637 -3.81365 0
M  V30 2565 N 243.887 0.651787 -1.4349 0
M  V30 2566 C 244.797 1.79368 -1.5121 0
M  V30 2567 C 245.813 1.69361 -0.399093 0
M  V30 2568 O 246.989 1.90505 -0.653431 0
M  V30 2569 C 244.054 3.15653 -1.43401 0
M  V30 2570 C 243.115 3.37446 -2.65384 0
M  V30 2571 C 242.348 4.67229 -2.57939 0
M  V30 2572 O 242.571 5.46676 -1.62792 0
M  V30 2573 O 241.505 4.90773 -3.48462 0
M  V30 2574 H 245.331 1.7581 -2.47638 0
M  V30 2575 H 242.916 0.810447 -1.25507 0
M  V30 2576 H 244.798 3.96935 -1.41494 0
M  V30 2577 H 243.473 3.19798 -0.501085 0
M  V30 2578 H 242.38 2.55923 -2.72863 0
M  V30 2579 H 243.713 3.38148 -3.57654 0
M  V30 2580 N 245.365 1.30045 0.890287 0
M  V30 2581 C 246.275 1.17885 2.02831 0
M  V30 2582 C 247.291 0.0999609 1.73713 0
M  V30 2583 O 248.467 0.313867 1.98939 0
M  V30 2584 C 245.532 0.866079 3.35708 0
M  V30 2585 C 244.593 2.02979 3.78283 0
M  V30 2586 C 243.826 1.73184 5.0482 0
M  V30 2587 O 244.049 0.657237 5.66601 0
M  V30 2588 O 242.983 2.58267 5.43674 0
M  V30 2589 H 246.809 2.13474 2.16015 0
M  V30 2590 H 244.394 1.09587 1.01543 0
M  V30 2591 H 246.276 0.706623 4.15433 0
M  V30 2592 H 244.951 -0.0599443 3.23644 0
M  V30 2593 H 243.858 2.24454 2.99285 0
M  V30 2594 H 245.191 2.93734 3.94944 0
M  V30 2595 N 246.843 -1.10192 1.12674 0
M  V30 2596 C 248.089 -1.82475 0.884915 0
M  V30 2597 C 248.422 -1.85093 -0.58773 0
M  V30 2598 O 247.697 -1.3134 -1.43457 0
M  V30 2599 C 247.98 -3.29018 1.46353 0
M  V30 2600 C 247.833 -3.34718 3.00473 0
M  V30 2601 C 249.152 -4.25473 1.12519 0
M  V30 2602 H 246.271 -0.662492 0.322915 0
M  V30 2603 H 248.913 -1.2913 1.39375 0
M  V30 2604 H 247.063 -3.74576 1.03077 0
M  V30 2605 H 248.735 -2.97622 3.52447 0
M  V30 2606 H 246.978 -2.74541 3.35872 0
M  V30 2607 H 247.649 -4.37918 3.36053 0
M  V30 2608 H 250.125 -3.88161 1.499 0
M  V30 2609 H 249.001 -5.26365 1.55663 0
M  V30 2610 H 249.262 -4.42084 0.0377407 0
M  V30 2611 N 248.321 -0.919034 -1.28029 0
M  V30 2612 C 249.284 -0.416182 -2.2539 0
M  V30 2613 C 250.284 0.460438 -1.54067 0
M  V30 2614 O 251.474 0.262744 -1.72207 0
M  V30 2615 C 248.606 0.402707 -3.38513 0
M  V30 2616 H 249.799 -1.27629 -2.71387 0
M  V30 2617 H 247.352 -0.698919 -1.39803 0
M  V30 2618 H 248.087 1.282 -2.97885 0
M  V30 2619 H 247.872 -0.225698 -3.9145 0
M  V30 2620 H 249.362 0.745191 -4.10897 0
M  V30 2621 N 249.799 1.42003 -0.683588 0
M  V30 2622 C 251.215 1.55625 -0.353976 0
M  V30 2623 C 251.415 1.66151 1.14 0
M  V30 2624 O 250.471 1.63329 1.92561 0
M  V30 2625 C 251.784 2.80171 -1.092 0
M  V30 2626 C 253.332 2.93954 -1.07518 0
M  V30 2627 C 253.807 4.21372 -1.79471 0
M  V30 2628 N 255.298 4.28303 -1.76381 0
M  V30 2629 C 256.033 5.25729 -2.28904 0
M  V30 2630 N 255.529 6.29254 -2.89846 0
M  V30 2631 N 257.322 5.17586 -2.19228 0
M  V30 2632 H 249.473 1.33415 -1.6527 0
M  V30 2633 H 251.736 0.64282 -0.696769 0
M  V30 2634 H 251.442 2.78561 -2.14701 0
M  V30 2635 H 251.316 3.7133 -0.662862 0
M  V30 2636 H 253.703 2.95086 -0.028475 0
M  V30 2637 H 253.784 2.04002 -1.54328 0
M  V30 2638 H 253.428 4.21001 -2.84114 0
M  V30 2639 H 253.358 5.10275 -1.30104 0
M  V30 2640 H 255.849 3.54119 -1.31939 0
M  V30 2641 H 256.162 6.99964 -3.27522 0
M  V30 2642 H 254.507 6.29791 -2.93919 0
M  V30 2643 H 257.698 4.35631 -1.71299 0
M  V30 2644 H 257.871 5.93348 -2.60466 0
M  V30 2645 N 251.277 0.427512 1.51691 0
M  V30 2646 C 252.554 -0.201684 1.94557 0
M  V30 2647 C 252.934 -1.60981 1.36559 0
M  V30 2648 O 252.282 -2.21814 0.548702 0
M  V30 2649 C 252.492 -0.189394 3.48486 0
M  V30 2650 C 253.84 -0.39978 4.22714 0
M  V30 2651 O 254.864 -0.267945 3.55191 0
M  V30 2652 O 253.723 -0.661249 5.42485 0
M  V30 2653 H 250.817 -0.135261 0.815864 0
M  V30 2654 H 253.363 0.484782 1.62628 0
M  V30 2655 H 252.135 0.795431 3.8313 0
M  V30 2656 H 251.758 -0.919187 3.86829 0
M  V30 2657 N 252.755 -1.56801 0.158532 0
M  V30 2658 C 253.703 -2.18638 -0.793729 0
M  V30 2659 C 254.697 -1.14669 -1.24689 0
M  V30 2660 O 255.903 -1.32895 -1.21403 0
M  V30 2661 H 252.278 -0.700226 -0.274204 0
M  V30 2662 H 254.249 -2.97367 -0.248095 0
M  V30 2663 C 252.998 -2.83139 -2.0181 0
M  V30 2664 H 252.321 -3.62863 -1.67841 0
M  V30 2665 H 253.761 -3.29894 -2.66357 0
M  V30 2666 C 252.22 -1.82244 -2.83353 0
M  V30 2667 O 252.75 -1.3 -3.80083 0
M  V30 2668 N 250.956 -1.51288 -2.48114 0
M  V30 2669 H 250.503 -1.93964 -1.69516 0
M  V30 2670 H 250.461 -0.840296 -3.02963 0
M  V30 2671 N 254.233 0.115231 -1.57178 0
M  V30 2672 C 255.479 0.82357 -1.85325 0
M  V30 2673 C 255.812 1.79349 -0.744814 0
M  V30 2674 O 255.087 1.92899 0.249024 0
M  V30 2675 C 255.37 1.57014 -3.24066 0
M  V30 2676 C 255.223 0.619565 -4.45513 0
M  V30 2677 C 256.542 2.52545 -3.60429 0
M  V30 2678 H 253.661 0.297948 -0.674089 0
M  V30 2679 H 256.303 0.0877138 -1.89797 0
M  V30 2680 H 254.453 2.19742 -3.20383 0
M  V30 2681 H 256.125 0.000837639 -4.613 0
M  V30 2682 H 254.368 -0.0686174 -4.33746 0
M  V30 2683 H 255.039 1.17866 -5.3927 0
M  V30 2684 H 257.515 1.9992 -3.64926 0
M  V30 2685 H 256.391 3.01811 -4.58477 0
M  V30 2686 H 256.652 3.35383 -2.88047 0
M  V30 2687 N 255.711 1.52812 0.385517 0
M  V30 2688 C 256.958 1.68026 1.1302 0
M  V30 2689 C 257.286 0.421934 1.89868 0
M  V30 2690 O 256.541 -0.595749 1.86412 0
M  V30 2691 C 256.84 2.86856 2.13187 0
M  V30 2692 C 256.506 4.24159 1.5297 0
M  V30 2693 C 255.168 4.61501 1.36274 0
M  V30 2694 C 257.52 5.09627 1.09223 0
M  V30 2695 C 254.848 5.81966 0.743837 0
M  V30 2696 C 257.2 6.30719 0.487411 0
M  V30 2697 C 255.864 6.6679 0.307777 0
M  V30 2698 H 255.134 0.614849 0.413571 0
M  V30 2699 H 257.781 1.86962 0.414405 0
M  V30 2700 H 256.086 2.6235 2.90998 0
M  V30 2701 H 257.783 2.95821 2.70722 0
M  V30 2702 H 254.373 3.94746 1.66954 0
M  V30 2703 H 258.557 4.81343 1.20922 0
M  V30 2704 H 253.813 6.08519 0.592891 0
M  V30 2705 H 257.987 6.96259 0.140143 0
M  V30 2706 H 255.614 7.60001 -0.173879 0
M  V30 2707 N 257.189 -0.644168 1.43834 0
M  V30 2708 C 258.438 -1.39985 1.45214 0
M  V30 2709 C 258.751 -1.95421 0.0835494 0
M  V30 2710 O 259.957 -2.71488 -0.0251748 0
M  V30 2711 C 258.413 -2.53384 2.55587 0
M  V30 2712 C 258.021 -2.04517 3.98594 0
M  V30 2713 C 259.765 -3.30685 2.66172 0
M  V30 2714 C 257.672 -3.1518 5.00416 0
M  V30 2715 H 256.602 -0.526005 0.540218 0
M  V30 2716 H 259.253 -0.694367 1.69855 0
M  V30 2717 H 257.635 -3.26446 2.24163 0
M  V30 2718 H 258.809 -1.38405 4.39523 0
M  V30 2719 H 257.124 -1.40068 3.92135 0
M  V30 2720 H 259.721 -4.13158 3.39418 0
M  V30 2721 H 260.064 -3.79312 1.71546 0
M  V30 2722 H 260.597 -2.64708 2.96942 0
M  V30 2723 H 257.336 -2.71511 5.96625 0
M  V30 2724 H 256.856 -3.79974 4.64091 0
M  V30 2725 H 258.535 -3.80166 5.23529 0
M  V30 2726 N 258.668 -1.30515 -0.883378 0
M  V30 2727 C 259.6 -1.12846 -1.99496 0
M  V30 2728 C 260.613 -0.0712571 -1.62644 0
M  V30 2729 O 261.802 -0.317432 -1.75655 0
M  V30 2730 C 258.902 -0.699123 -3.3161 0
M  V30 2731 C 258.075 -1.83842 -3.96889 0
M  V30 2732 C 257.134 -1.39737 -5.07307 0
M  V30 2733 O 256.16 -2.10485 -5.28852 0
M  V30 2734 N 257.362 -0.277279 -5.79837 0
M  V30 2735 H 260.127 -2.08585 -2.15203 0
M  V30 2736 H 257.688 -1.22672 -1.05656 0
M  V30 2737 H 259.68 -0.387044 -4.02845 0
M  V30 2738 H 258.25 0.166276 -3.12157 0
M  V30 2739 H 257.47 -2.31853 -3.18807 0
M  V30 2740 H 258.758 -2.60187 -4.37241 0
M  V30 2741 H 258.156 0.3122 -5.64838 0
M  V30 2742 H 256.713 -0.0246623 -6.51795 0
M  V30 2743 N 260.146 1.09593 -1.13257 0
M  V30 2744 C 261.076 2.18214 -0.830946 0
M  V30 2745 C 262.057 1.68812 0.208966 0
M  V30 2746 O 263.242 1.9408 0.0682666 0
M  V30 2747 C 260.372 3.46051 -0.294296 0
M  V30 2748 C 259.326 4.08778 -1.26826 0
M  V30 2749 C 258.652 5.31419 -0.591449 0
M  V30 2750 C 259.952 4.51476 -2.62615 0
M  V30 2751 H 261.646 2.43703 -1.73923 0
M  V30 2752 H 259.192 1.17128 -0.837675 0
M  V30 2753 H 261.145 4.2134 -0.0709606 0
M  V30 2754 H 259.869 3.20079 0.649366 0
M  V30 2755 H 258.528 3.35505 -1.47756 0
M  V30 2756 H 258.176 5.01727 0.357633 0
M  V30 2757 H 257.876 5.74341 -1.24123 0
M  V30 2758 H 259.4 6.09433 -0.377355 0
M  V30 2759 H 260.814 5.17999 -2.45663 0
M  V30 2760 H 259.211 5.05277 -3.23752 0
M  V30 2761 H 260.281 3.63962 -3.20406 0
M  V30 2762 N 261.624 0.925811 1.2754 0
M  V30 2763 C 262.901 0.483726 1.89524 0
M  V30 2764 C 263.281 -1.03809 1.83812 0
M  V30 2765 O 262.629 -1.89143 1.28207 0
M  V30 2766 C 262.839 1.02769 3.33526 0
M  V30 2767 C 264.187 1.08703 4.10449 0
M  V30 2768 O 265.211 0.977175 3.42534 0
M  V30 2769 O 264.07 1.25599 5.31871 0
M  V30 2770 H 261.164 0.15529 0.812289 0
M  V30 2771 H 263.71 1.01738 1.35822 0
M  V30 2772 H 262.482 2.07155 3.31967 0
M  V30 2773 H 262.105 0.475567 3.94746 0
M  V30 2774 N 263.102 -1.41638 0.69111 0
M  V30 2775 C 264.33 -2.05628 0.22909 0
M  V30 2776 C 264.745 -1.51992 -1.11999 0
M  V30 2777 O 264.102 -0.666322 -1.69901 0
M  V30 2778 C 264.153 -3.61084 0.173283 0
M  V30 2779 O 263.874 -4.12735 1.46907 0
M  V30 2780 C 265.375 -4.42213 -0.310266 0
M  V30 2781 H 262.595 -0.662327 0.107534 0
M  V30 2782 H 265.139 -1.81489 0.942438 0
M  V30 2783 H 263.294 -3.84278 -0.490858 0
M  V30 2784 H 263.708 -5.06743 1.35322 0
M  V30 2785 H 265.182 -5.51194 -0.298196 0
M  V30 2786 H 265.659 -4.1799 -1.34838 0
M  V30 2787 H 266.265 -4.24074 0.322716 0
M  V30 2788 N 264.58 -0.43555 -1.51462 0
M  V30 2789 C 265.827 0.131514 -2.02072 0
M  V30 2790 C 266.155 1.42868 -1.31981 0
M  V30 2791 O 265.41 1.91076 -0.422883 0
M  V30 2792 C 265.709 0.39942 -3.55161 0
M  V30 2793 C 265.375 -0.81172 -4.43533 0
M  V30 2794 C 264.037 -1.14387 -4.67407 0
M  V30 2795 C 266.389 -1.61976 -4.95392 0
M  V30 2796 C 263.717 -2.28477 -5.40384 0
M  V30 2797 C 266.069 -2.75164 -5.6962 0
M  V30 2798 C 264.733 -3.08835 -5.91758 0
M  V30 2799 H 264.003 0.0481244 -0.739436 0
M  V30 2800 H 266.65 -0.58238 -1.8243 0
M  V30 2801 H 264.955 1.19519 -3.73125 0
M  V30 2802 H 266.652 0.85157 -3.91854 0
M  V30 2803 H 263.242 -0.542898 -4.25148 0
M  V30 2804 H 267.426 -1.37637 -4.76833 0
M  V30 2805 H 262.682 -2.5488 -5.55739 0
M  V30 2806 H 266.856 -3.38147 -6.08793 0
M  V30 2807 H 264.483 -3.97353 -6.48086 0
M  V30 2808 N 266.058 1.56714 -0.166846 0
M  V30 2809 C 267.008 2.14338 0.777382 0
M  V30 2810 C 267.992 1.07642 1.19591 0
M  V30 2811 O 269.184 1.33775 1.15902 0
M  V30 2812 C 266.313 2.78417 2.00846 0
M  V30 2813 C 265.399 3.92264 1.61212 0
M  V30 2814 N 265.79 4.97268 0.925104 0
M  V30 2815 C 264.088 4.03342 1.90346 0
M  V30 2816 C 264.789 5.77093 0.730627 0
M  V30 2817 N 263.765 5.2854 1.27067 0
M  V30 2818 H 267.567 2.9289 0.243466 0
M  V30 2819 H 265.081 1.62364 0.0339954 0
M  V30 2820 H 267.078 3.18073 2.69509 0
M  V30 2821 H 265.738 2.01344 2.54736 0
M  V30 2822 H 266.749 5.14601 0.583646 0
M  V30 2823 H 263.426 3.37368 2.45946 0
M  V30 2824 H 264.816 6.71638 0.187668 0
M  V30 2825 N 267.536 -0.106894 1.57237 0
M  V30 2826 C 268.499 -1.11466 2.0027 0
M  V30 2827 C 269.499 -1.33623 0.894519 0
M  V30 2828 O 270.689 -1.29935 1.16028 0
M  V30 2829 C 267.821 -2.46646 2.35327 0
M  V30 2830 H 269.014 -0.744516 2.90512 0
M  V30 2831 H 266.567 -0.351576 1.52295 0
M  V30 2832 H 267.302 -2.88558 1.48003 0
M  V30 2833 H 267.087 -2.31915 3.16161 0
M  V30 2834 H 268.577 -3.19151 2.69318 0
M  V30 2835 N 269.014 -1.53014 -0.377408 0
M  V30 2836 C 269.946 -1.74884 -1.48149 0
M  V30 2837 C 270.959 -0.629433 -1.5014 0
M  V30 2838 O 272.148 -0.905416 -1.53833 0
M  V30 2839 C 269.248 -1.80299 -2.86959 0
M  V30 2840 C 268.421 -3.09776 -3.08801 0
M  V30 2841 C 267.48 -3.06586 -4.27658 0
M  V30 2842 O 266.506 -3.80419 -4.23403 0
M  V30 2843 N 267.708 -2.26578 -5.34455 0
M  V30 2844 H 270.473 -2.70147 -1.29771 0
M  V30 2845 H 268.034 -1.51646 -0.56703 0
M  V30 2846 H 270.026 -1.75657 -3.64591 0
M  V30 2847 H 268.596 -0.92372 -2.98641 0
M  V30 2848 H 267.816 -3.27815 -2.18931 0
M  V30 2849 H 269.104 -3.95366 -3.20255 0
M  V30 2850 H 268.502 -1.66081 -5.40771 0
M  V30 2851 H 267.059 -2.27766 -6.10709 0
M  V30 2852 N 270.492 0.636531 -1.44174 0
M  V30 2853 C 271.439 1.74875 -1.50624 0
M  V30 2854 C 272.409 1.62275 -0.35442 0
M  V30 2855 O 273.594 1.82276 -0.563908 0
M  V30 2856 C 270.734 3.13102 -1.45125 0
M  V30 2857 C 269.847 3.36717 -2.7064 0
M  V30 2858 C 268.982 4.64885 -2.57013 0
M  V30 2859 C 268.021 4.8166 -3.77717 0
M  V30 2860 N 267.158 6.01101 -3.62798 0
M  V30 2861 H 271.998 1.68697 -2.45653 0
M  V30 2862 H 269.535 0.823004 -1.21922 0
M  V30 2863 H 271.493 3.93034 -1.39929 0
M  V30 2864 H 270.123 3.18308 -0.536671 0
M  V30 2865 H 269.175 2.50763 -2.86046 0
M  V30 2866 H 270.487 3.44993 -3.60252 0
M  V30 2867 H 269.641 5.52969 -2.49619 0
M  V30 2868 H 268.38 4.58957 -1.64953 0
M  V30 2869 H 267.385 3.92007 -3.85501 0
M  V30 2870 H 268.61 4.89406 -4.70807 0
M  V30 2871 H 266.556 5.96273 -2.73486 0
M  V30 2872 H 266.473 6.10409 -4.46023 0
M  V30 2873 H 267.741 6.91761 -3.59286 0
M  V30 2874 N 271.97 1.30982 0.876444 0
M  V30 2875 C 273.216 1.20474 1.63138 0
M  V30 2876 C 273.549 -0.238096 1.92735 0
M  V30 2877 O 272.824 -1.1692 1.55435 0
M  V30 2878 C 273.107 2.04244 2.96574 0
M  V30 2879 C 272.96 3.56793 2.73896 0
M  V30 2880 C 274.279 1.88684 3.97601 0
M  V30 2881 H 271.398 0.439001 0.591985 0
M  V30 2882 H 274.04 1.60704 1.01361 0
M  V30 2883 H 272.19 1.70063 3.493 0
M  V30 2884 H 273.862 4.01077 2.27892 0
M  V30 2885 H 272.105 3.80548 2.08245 0
M  V30 2886 H 272.776 4.10706 3.68815 0
M  V30 2887 H 275.252 2.18584 3.54062 0
M  V30 2888 H 274.128 2.4961 4.88862 0
M  V30 2889 H 274.389 0.848343 4.33884 0
M  V30 2890 N 273.449 -1.08991 1.13837 0
M  V30 2891 C 274.726 -1.77863 0.813876 0
M  V30 2892 C 275.106 -1.99375 -0.693746 0
M  V30 2893 O 274.454 -1.59875 -1.63255 0
M  V30 2894 C 274.664 -3.0986 1.60586 0
M  V30 2895 C 276.012 -3.84493 1.8014 0
M  V30 2896 O 277.036 -3.19624 1.57222 0
M  V30 2897 O 275.895 -5.00957 2.18413 0
M  V30 2898 H 272.989 -0.771589 0.297624 0
M  V30 2899 H 275.535 -1.15507 1.24323 0
M  V30 2900 H 274.307 -2.89715 2.63022 0
M  V30 2901 H 273.93 -3.79942 1.17173 0
M  V30 2902 N 274.927 -0.932562 -1.27047 0
M  V30 2903 C 276.175 -0.574422 -1.93765 0
M  V30 2904 C 276.496 0.887993 -1.73608 0
M  V30 2905 O 275.766 1.62999 -1.08665 0
M  V30 2906 H 274.346 -0.209451 -0.717035 0
M  V30 2907 H 277.008 -1.18601 -1.5466 0
M  V30 2908 H 276.104 -0.784841 -3.02071 0
M  V30 2909 N 276.405 1.4127 -0.698611 0
M  V30 2910 C 277.353 2.32588 -0.023855 0
M  V30 2911 C 278.347 1.51128 0.765292 0
M  V30 2912 O 279.553 1.67043 0.670571 0
M  V30 2913 H 275.928 0.751918 0.0110871 0
M  V30 2914 H 277.899 2.87167 -0.811031 0
M  V30 2915 C 276.648 3.35947 0.896369 0
M  V30 2916 H 275.971 3.98684 0.298548 0
M  V30 2917 H 277.411 4.02376 1.33676 0
M  V30 2918 C 275.87 2.70076 2.01396 0
M  V30 2919 O 276.4 2.55093 3.10307 0
M  V30 2920 N 274.606 2.28724 1.79259 0
M  V30 2921 H 274.153 2.4111 0.906841 0
M  V30 2922 H 274.111 1.84986 2.54219 0
M  V30 2923 N 277.883 0.443576 1.51229 0
M  V30 2924 C 278.813 -0.355142 2.30783 0
M  V30 2925 C 279.794 -1.0154 1.36468 0
M  V30 2926 O 280.979 -1.01785 1.65389 0
M  V30 2927 C 278.109 -1.45312 3.15439 0
M  V30 2928 C 277.063 -0.916002 4.18083 0
M  V30 2929 C 276.389 -2.1102 4.91299 0
M  V30 2930 C 277.689 0.0538602 5.22272 0
M  V30 2931 H 279.383 0.308767 2.97804 0
M  V30 2932 H 276.929 0.149937 1.43217 0
M  V30 2933 H 278.882 -2.01914 3.69876 0
M  V30 2934 H 277.606 -2.14541 2.46252 0
M  V30 2935 H 276.265 -0.372145 3.64706 0
M  V30 2936 H 275.913 -2.78882 4.18609 0
M  V30 2937 H 275.613 -1.75717 5.60712 0
M  V30 2938 H 277.137 -2.68164 5.48562 0
M  V30 2939 H 278.551 -0.422069 5.71744 0
M  V30 2940 H 276.948 0.319776 5.99247 0
M  V30 2941 H 278.018 0.98858 4.74716 0
M  V30 2942 N 279.361 -1.56624 0.175154 0
M  V30 2943 C 280.589 -2.01374 -0.474971 0
M  V30 2944 C 281.004 -1.05537 -1.56548 0
M  V30 2945 O 280.361 -0.0568668 -1.82411 0
M  V30 2946 C 280.412 -3.45923 -1.04975 0
M  V30 2947 O 280.133 -4.381 -0.00276605 0
M  V30 2948 C 281.634 -4.06093 -1.77773 0
M  V30 2949 H 278.854 -0.659962 -0.121206 0
M  V30 2950 H 281.398 -2.02601 0.27801 0
M  V30 2951 H 279.553 -3.45458 -1.75321 0
M  V30 2952 H 279.967 -5.22753 -0.427681 0
M  V30 2953 H 281.441 -5.09147 -2.13245 0
M  V30 2954 H 281.918 -3.48405 -2.67414 0
M  V30 2955 H 282.524 -4.10272 -1.12059 0
M  V30 2956 N 280.839 0.0985539 -1.57292 0
M  V30 2957 C 281.789 1.1261 -1.9825 0
M  V30 2958 C 282.773 1.35961 -0.860426 0
M  V30 2959 O 283.965 1.36711 -1.12424 0
M  V30 2960 C 281.094 2.44727 -2.40757 0
M  V30 2961 C 280.18 2.24764 -3.59642 0
M  V30 2962 N 280.571 1.74661 -4.74687 0
M  V30 2963 C 278.869 2.55344 -3.65672 0
M  V30 2964 C 279.57 1.68887 -5.56644 0
M  V30 2965 N 278.546 2.13976 -4.99715 0
M  V30 2966 H 282.348 0.731604 -2.84648 0
M  V30 2967 H 279.862 0.306029 -1.59491 0
M  V30 2968 H 281.859 3.19072 -2.68326 0
M  V30 2969 H 280.519 2.84917 -1.55733 0
M  V30 2970 H 281.53 1.43908 -4.97505 0
M  V30 2971 H 278.207 2.99081 -2.91302 0
M  V30 2972 H 279.597 1.3123 -6.5896 0
M  V30 2973 N 282.317 1.53212 0.369288 0
M  V30 2974 C 283.247 1.82365 1.45826 0
M  V30 2975 C 284.228 0.676907 1.56051 0
M  V30 2976 O 285.413 0.926401 1.70679 0
M  V30 2977 C 282.543 2.01023 2.83208 0
M  V30 2978 C 281.497 3.1678 2.8781 0
M  V30 2979 C 280.823 3.20724 4.27832 0
M  V30 2980 C 282.123 4.55447 2.55667 0
M  V30 2981 H 283.817 2.73559 1.21678 0
M  V30 2982 H 281.363 1.3163 0.583911 0
M  V30 2983 H 283.316 2.20001 3.59413 0
M  V30 2984 H 282.04 1.06536 3.08736 0
M  V30 2985 H 280.699 2.97616 2.14056 0
M  V30 2986 H 280.347 2.23882 4.50429 0
M  V30 2987 H 280.047 3.98496 4.31827 0
M  V30 2988 H 281.571 3.41881 5.05915 0
M  V30 2989 H 282.985 4.74611 3.21586 0
M  V30 2990 H 281.382 5.35432 2.70984 0
M  V30 2991 H 282.452 4.60812 1.5093 0
M  V30 2992 N 283.795 -0.628877 1.44509 0
M  V30 2993 C 285.044 -1.38437 1.4669 0
M  V30 2994 C 285.357 -1.95322 0.104272 0
M  V30 2995 O 286.563 -2.715 0.00362163 0
M  V30 2996 C 285.019 -2.50659 2.5826 0
M  V30 2997 C 284.627 -2.00277 4.0074 0
M  V30 2998 C 286.371 -3.27844 2.69664 0
M  V30 2999 C 284.278 -3.09854 5.0373 0
M  V30 3000 H 283.208 -0.520245 0.545766 0
M  V30 3001 H 285.859 -0.676313 1.70582 0
M  V30 3002 H 284.241 -3.2405 2.27612 0
M  V30 3003 H 285.415 -1.33736 4.40966 0
M  V30 3004 H 283.73 -1.35901 3.93599 0
M  V30 3005 H 286.327 -4.09534 3.43781 0
M  V30 3006 H 286.67 -3.77471 1.75559 0
M  V30 3007 H 287.203 -2.61543 2.99733 0
M  V30 3008 H 283.942 -2.65168 5.99472 0
M  V30 3009 H 283.462 -3.7503 4.68095 0
M  V30 3010 H 285.141 -3.74592 5.27532 0
M  V30 3011 N 285.273 -1.31445 -0.869486 0
M  V30 3012 C 286.689 -1.10113 -1.15531 0
M  V30 3013 C 286.889 0.128087 -2.01092 0
M  V30 3014 O 285.945 0.817276 -2.38908 0
M  V30 3015 C 287.258 -2.37291 -1.84698 0
M  V30 3016 C 288.806 -2.42906 -1.97397 0
M  V30 3017 C 289.281 -3.69967 -2.69979 0
M  V30 3018 N 290.772 -3.70864 -2.77514 0
M  V30 3019 C 291.507 -4.65875 -3.34287 0
M  V30 3020 N 291.003 -5.71242 -3.91988 0
M  V30 3021 N 292.796 -4.53394 -3.3225 0
M  V30 3022 H 284.947 -2.1028 -0.299347 0
M  V30 3023 H 287.21 -0.927683 -0.195214 0
M  V30 3024 H 286.916 -3.27078 -1.29278 0
M  V30 3025 H 286.79 -2.47125 -2.84972 0
M  V30 3026 H 289.177 -1.53588 -2.51982 0
M  V30 3027 H 289.258 -2.37036 -0.961643 0
M  V30 3028 H 288.902 -4.59652 -2.16062 0
M  V30 3029 H 288.832 -3.73103 -3.7162 0
M  V30 3030 H 291.323 -2.94697 -2.36563 0
M  V30 3031 H 291.636 -6.39817 -4.33421 0
M  V30 3032 H 289.981 -5.75015 -3.90362 0
M  V30 3033 H 293.172 -3.70252 -2.8641 0
M  V30 3034 H 293.345 -5.27617 -3.76197 0
M  V30 3035 N 286.751 1.08385 -1.14413 0
M  V30 3036 C 288.028 1.77429 -0.823297 0
M  V30 3037 C 288.408 1.9974 0.683163 0
M  V30 3038 O 287.756 1.60739 1.62405 0
M  V30 3039 C 287.966 3.09004 -1.62227 0
M  V30 3040 C 289.314 3.83532 -1.82177 0
M  V30 3041 O 290.338 3.18786 -1.58915 0
M  V30 3042 O 289.197 4.99792 -2.21067 0
M  V30 3043 H 286.291 0.769999 -0.301712 0
M  V30 3044 H 288.837 1.14846 -1.24934 0
M  V30 3045 H 287.609 2.88316 -2.64555 0
M  V30 3046 H 287.232 3.79316 -1.19187 0
M  V30 3047 N 288.23 0.939286 1.26551 0
M  V30 3048 C 289.46 0.601663 1.97645 0
M  V30 3049 C 289.868 -0.827206 1.70159 0
M  V30 3050 O 289.211 -1.56291 0.965338 0
M  V30 3051 C 289.273 0.761725 3.51337 0
M  V30 3052 C 288.937 2.16487 4.0247 0
M  V30 3053 C 289.934 3.14016 4.14355 0
M  V30 3054 C 287.619 2.48494 4.36527 0
M  V30 3055 C 289.613 4.41654 4.59587 0
M  V30 3056 C 287.3 3.76364 4.81449 0
M  V30 3057 C 288.298 4.72758 4.92939 0
M  V30 3058 O 287.986 5.98352 5.36871 0
M  V30 3059 H 287.718 0.225758 0.637189 0
M  V30 3060 H 290.272 1.26178 1.62075 0
M  V30 3061 H 288.502 0.0444808 3.86674 0
M  V30 3062 H 290.191 0.427442 4.03643 0
M  V30 3063 H 290.957 2.90613 3.8829 0
M  V30 3064 H 286.836 1.74202 4.26819 0
M  V30 3065 H 290.38 5.16896 4.68471 0
M  V30 3066 H 286.277 3.99582 5.06956 0
M  V30 3067 H 287.045 6.01507 5.55096 0
M  V30 3068 N 289.708 -1.40897 0.706093 0
M  V30 3069 C 290.671 -2.29131 0.0562841 0
M  V30 3070 C 291.671 -1.44901 -0.697166 0
M  V30 3071 O 292.861 -1.65926 -0.530484 0
M  V30 3072 C 289.993 -3.27957 -0.93043 0
M  V30 3073 H 291.186 -2.88091 0.833284 0
M  V30 3074 H 288.739 -1.4906 0.470192 0
M  V30 3075 H 289.474 -2.73997 -1.73482 0
M  V30 3076 H 289.259 -3.90124 -0.393166 0
M  V30 3077 H 290.749 -3.94049 -1.38256 0
M  V30 3078 N 291.186 -0.45159 -1.50991 0
M  V30 3079 C 292.434 0.109857 -2.01801 0
M  V30 3080 C 292.755 1.41958 -1.3369 0
M  V30 3081 O 292.025 1.9003 -0.475951 0
M  V30 3082 H 290.605 0.0435884 -0.745727 0
M  V30 3083 H 293.267 -0.597557 -1.85514 0
M  V30 3084 H 292.363 0.275489 -3.10882 0
M  V30 3085 N 292.664 1.56529 -0.183458 0
M  V30 3086 C 293.611 2.18546 0.742055 0
M  V30 3087 C 294.581 1.12912 1.2182 0
M  V30 3088 O 295.766 1.41115 1.28418 0
M  V30 3089 C 292.906 2.83977 1.96089 0
M  V30 3090 C 292.019 4.04105 1.52719 0
M  V30 3091 C 291.154 4.57427 2.70063 0
M  V30 3092 C 290.193 5.69938 2.23243 0
M  V30 3093 N 289.33 6.17717 3.33722 0
M  V30 3094 H 294.17 2.97284 0.206432 0
M  V30 3095 H 291.707 1.46823 0.0901571 0
M  V30 3096 H 293.665 3.20077 2.67594 0
M  V30 3097 H 292.295 2.07822 2.47002 0
M  V30 3098 H 291.347 3.73745 0.708436 0
M  V30 3099 H 292.659 4.85513 1.1436 0
M  V30 3100 H 291.813 4.95772 3.49708 0
M  V30 3101 H 290.552 3.75101 3.11689 0
M  V30 3102 H 289.557 5.31133 1.42048 0
M  V30 3103 H 290.782 6.54073 1.82661 0
M  V30 3104 H 288.728 5.38317 3.74902 0
M  V30 3105 H 288.645 6.94146 2.99495 0
M  V30 3106 H 289.913 6.60713 4.13616 0
M  V30 3107 N 294.142 -0.090211 1.57342 0
M  V30 3108 C 295.372 -0.805055 1.90269 0
M  V30 3109 C 295.78 -1.72561 0.775842 0
M  V30 3110 O 295.123 -1.81839 -0.260843 0
M  V30 3111 C 295.185 -1.66734 3.18497 0
M  V30 3112 C 294.849 -0.918092 4.47683 0
M  V30 3113 C 295.846 -0.245674 5.19319 0
M  V30 3114 C 293.531 -0.890724 4.94339 0
M  V30 3115 C 295.525 0.444088 6.35851 0
M  V30 3116 C 293.212 -0.197179 6.10782 0
M  V30 3117 C 294.21 0.469044 6.81388 0
M  V30 3118 O 293.898 1.15146 7.95611 0
M  V30 3119 H 293.63 -0.235143 0.633785 0
M  V30 3120 H 296.184 -0.0703805 2.05279 0
M  V30 3121 H 294.414 -2.44437 2.99646 0
M  V30 3122 H 296.103 -2.25919 3.37217 0
M  V30 3123 H 296.869 -0.258246 4.84312 0
M  V30 3124 H 292.748 -1.39873 4.39268 0
M  V30 3125 H 296.292 0.964667 6.90898 0
M  V30 3126 H 292.189 -0.18247 6.45242 0
M  V30 3127 H 292.957 1.05885 8.11622 0
M  V30 3128 N 295.62 -1.53406 -0.361157 0
M  V30 3129 C 296.583 -1.79479 -1.42548 0
M  V30 3130 C 297.583 -0.665327 -1.4639 0
M  V30 3131 O 298.773 -0.933549 -1.47073 0
M  V30 3132 C 295.905 -1.92087 -2.8163 0
M  V30 3133 H 297.098 -2.74538 -1.20701 0
M  V30 3134 H 294.651 -1.4455 -0.594546 0
M  V30 3135 H 295.386 -0.991099 -3.08784 0
M  V30 3136 H 295.171 -2.74241 -2.80239 0
M  V30 3137 H 296.661 -2.13836 -3.58697 0
M  V30 3138 N 297.098 0.621204 -1.44841 0
M  V30 3139 C 298.048 1.72663 -1.48901 0
M  V30 3140 C 299.032 1.56964 -0.353702 0
M  V30 3141 O 300.224 1.66532 -0.599669 0
M  V30 3142 C 297.353 3.11381 -1.44557 0
M  V30 3143 C 296.439 3.32514 -2.6324 0
M  V30 3144 N 296.83 3.23969 -3.8843 0
M  V30 3145 C 295.128 3.63343 -2.58647 0
M  V30 3146 C 295.829 3.46062 -4.67564 0
M  V30 3147 N 294.805 3.69407 -3.98797 0
M  V30 3148 H 298.607 1.64529 -2.43531 0
M  V30 3149 H 296.121 0.82401 -1.39942 0
M  V30 3150 H 298.118 3.90667 -1.4555 0
M  V30 3151 H 296.778 3.20674 -0.509731 0
M  V30 3152 H 297.789 3.02669 -4.20252 0
M  V30 3153 H 294.466 3.79556 -1.73906 0
M  V30 3154 H 295.856 3.44963 -5.76585 0
M  V30 3155 N 298.576 1.31904 0.862503 0
M  V30 3156 C 299.822 1.22197 1.61851 0
M  V30 3157 C 300.155 -0.217641 1.92977 0
M  V30 3158 O 299.43 -1.15264 1.56666 0
M  V30 3159 C 299.713 2.07378 2.94391 0
M  V30 3160 C 299.566 3.59678 2.70096 0
M  V30 3161 C 300.885 1.92891 3.95577 0
M  V30 3162 H 298.004 0.445255 0.587296 0
M  V30 3163 H 300.646 1.6177 0.99651 0
M  V30 3164 H 298.796 1.73758 3.47477 0
M  V30 3165 H 300.468 4.03472 2.23625 0
M  V30 3166 H 298.711 3.82735 2.04197 0
M  V30 3167 H 299.382 4.14595 3.64438 0
M  V30 3168 H 301.858 2.22327 3.51724 0
M  V30 3169 H 300.734 2.54781 4.86187 0
M  V30 3170 H 300.995 0.894315 4.3296 0
M  V30 3171 N 300.054 -1.07777 1.14986 0
M  V30 3172 C 300.986 -2.14769 0.800436 0
M  V30 3173 C 301.999 -1.61739 -0.185595 0
M  V30 3174 O 303.188 -1.78462 0.0370358 0
M  V30 3175 C 300.288 -3.38481 0.168533 0
M  V30 3176 C 299.461 -4.20876 1.1909 0
M  V30 3177 C 298.52 -5.22976 0.581575 0
M  V30 3178 O 297.546 -5.55388 1.24633 0
M  V30 3179 N 298.748 -5.76976 -0.638706 0
M  V30 3180 H 301.513 -2.45348 1.72118 0
M  V30 3181 H 299.074 -1.23645 1.04515 0
M  V30 3182 H 301.066 -4.03916 -0.251764 0
M  V30 3183 H 299.636 -3.05651 -0.655467 0
M  V30 3184 H 298.856 -3.51322 1.78791 0
M  V30 3185 H 300.144 -4.7274 1.88133 0
M  V30 3186 H 299.542 -5.52886 -1.19723 0
M  V30 3187 H 298.099 -6.44061 -1.00142 0
M  V30 3188 N 301.532 -0.945985 -1.26051 0
M  V30 3189 C 302.781 -0.591836 -1.92822 0
M  V30 3190 C 303.094 0.873956 -1.7499 0
M  V30 3191 O 304.3 1.33769 -2.36259 0
M  V30 3192 C 302.756 -1.00776 -3.45503 0
M  V30 3193 C 302.364 -2.4955 -3.7206 0
M  V30 3194 C 304.108 -0.725735 -4.1825 0
M  V30 3195 C 302.015 -2.84988 -5.18205 0
M  V30 3196 H 300.945 -0.217635 -0.721908 0
M  V30 3197 H 303.596 -1.14927 -1.43052 0
M  V30 3198 H 301.978 -0.378812 -3.94184 0
M  V30 3199 H 303.152 -3.1739 -3.34066 0
M  V30 3200 H 301.467 -2.75133 -3.12555 0
M  V30 3201 H 304.064 -0.966771 -5.25887 0
M  V30 3202 H 304.407 0.337639 -4.14929 0
M  V30 3203 H 304.94 -1.31463 -3.7545 0
M  V30 3204 H 301.679 -3.90307 -5.26631 0
M  V30 3205 H 301.199 -2.21813 -5.57278 0
M  V30 3206 H 302.878 -2.73712 -5.86252 0
M  V30 3207 N 303.011 1.40521 -0.713556 0
M  V30 3208 C 303.974 2.29098 -0.0684347 0
M  V30 3209 C 304.974 1.45268 0.689472 0
M  V30 3210 O 306.164 1.66205 0.521677 0
M  V30 3211 C 303.296 3.28446 0.913024 0
M  V30 3212 H 304.489 2.87645 -0.84855 0
M  V30 3213 H 302.042 1.48809 -0.47809 0
M  V30 3214 H 302.777 2.74913 1.72027 0
M  V30 3215 H 302.562 3.90327 0.372472 0
M  V30 3216 H 304.052 3.94777 1.36165 0
M  V30 3217 N 304.489 0.459591 1.5075 0
M  V30 3218 C 305.737 -0.0991532 2.01857 0
M  V30 3219 C 306.058 -1.41247 1.34441 0
M  V30 3220 O 305.328 -1.89775 0.486022 0
M  V30 3221 H 303.908 -0.039633 0.745948 0
M  V30 3222 H 306.57 0.607387 1.85194 0
M  V30 3223 H 305.666 -0.258998 3.11023 0
M  V30 3224 N 305.967 -1.56429 0.191757 0
M  V30 3225 C 306.897 -2.21937 -0.725696 0
M  V30 3226 C 307.878 -1.1814 -1.2238 0
M  V30 3227 O 309.063 -1.46636 -1.27325 0
M  V30 3228 C 306.193 -2.87611 -1.94672 0
M  V30 3229 C 305.147 -3.97623 -1.58366 0
M  V30 3230 C 304.473 -4.50446 -2.88102 0
M  V30 3231 C 305.773 -5.16197 -0.796133 0
M  V30 3232 H 307.467 -2.98861 -0.179606 0
M  V30 3233 H 305.013 -1.43749 -0.0849464 0
M  V30 3234 H 306.966 -3.3212 -2.59373 0
M  V30 3235 H 305.69 -2.08087 -2.51728 0
M  V30 3236 H 304.349 -3.53801 -0.960247 0
M  V30 3237 H 303.997 -3.67688 -3.43241 0
M  V30 3238 H 303.697 -5.24675 -2.64556 0
M  V30 3239 H 305.221 -4.97654 -3.53798 0
M  V30 3240 H 306.635 -5.57271 -1.34618 0
M  V30 3241 H 305.032 -5.96471 -0.658928 0
M  V30 3242 H 306.102 -4.84473 0.203478 0
M  V30 3243 N 307.445 0.0818655 -1.57387 0
M  V30 3244 C 308.856 0.634871 -1.75574 0
M  V30 3245 C 309.207 1.78435 -0.815809 0
M  V30 3246 O 308.332 2.164 0.0025366 0
M  V30 3247 C 308.927 1.15845 -3.18379 0
M  V30 3248 C 307.486 1.65741 -3.37945 0
M  V30 3249 C 306.633 0.572549 -2.71325 0
M  V30 3250 H 309.584 -0.144268 -1.58043 0
M  V30 3251 H 309.605 2.02751 -3.21982 0
M  V30 3252 H 309.117 0.321631 -3.86765 0
M  V30 3253 H 307.218 2.51781 -2.74658 0
M  V30 3254 H 307.331 1.74129 -4.46336 0
M  V30 3255 H 305.695 1.01518 -2.33594 0
M  V30 3256 H 306.478 -0.253918 -3.4236 0
M  V30 3257 N 308.923 1.53595 0.353017 0
M  V30 3258 C 310.2 1.61002 1.11075 0
M  V30 3259 C 310.58 0.425356 2.0677 0
M  V30 3260 O 309.928 -0.583267 2.2093 0
M  V30 3261 C 310.138 2.96631 1.83877 0
M  V30 3262 C 311.486 3.51653 2.37961 0
M  V30 3263 O 312.51 2.98743 1.93987 0
M  V30 3264 O 311.369 4.44177 3.18386 0
M  V30 3265 H 308.463 0.650825 0.510251 0
M  V30 3266 H 311.009 1.6594 0.35527 0
M  V30 3267 H 309.781 3.74293 1.14108 0
M  V30 3268 H 309.404 2.95242 2.66304 0
M  V30 3269 N 310.401 -0.613514 1.45168 0
M  V30 3270 C 311.817 -0.933629 1.29443 0
M  V30 3271 C 312.017 -2.00028 0.243101 0
M  V30 3272 O 311.073 -2.49848 -0.364992 0
M  V30 3273 C 312.386 -1.38018 2.67155 0
M  V30 3274 C 313.934 -1.49471 2.75004 0
M  V30 3275 C 314.409 -1.97503 4.13227 0
M  V30 3276 N 315.9 -2.04746 4.15491 0
M  V30 3277 C 316.635 -2.43121 5.19307 0
M  V30 3278 N 316.131 -2.80506 6.33473 0
M  V30 3279 N 317.924 -2.43408 5.06664 0
M  V30 3280 H 310.075 0.0916097 2.12202 0
M  V30 3281 H 312.338 -0.0216655 0.947752 0
M  V30 3282 H 312.044 -0.670625 3.45247 0
M  V30 3283 H 311.918 -2.34784 2.95222 0
M  V30 3284 H 314.305 -2.19519 1.9722 0
M  V30 3285 H 314.386 -0.510342 2.50657 0
M  V30 3286 H 314.03 -1.28045 4.91495 0
M  V30 3287 H 313.96 -2.96843 4.34962 0
M  V30 3288 H 316.451 -1.78468 3.33103 0
M  V30 3289 H 316.764 -3.08652 7.08487 0
M  V30 3290 H 315.109 -2.78216 6.36884 0
M  V30 3291 H 318.3 -2.13604 4.16523 0
M  V30 3292 H 318.473 -2.72989 5.87691 0
M  V30 3293 N 311.879 -1.3236 -0.855495 0
M  V30 3294 C 312.829 -1.17809 -1.95205 0
M  V30 3295 C 313.813 -0.0852319 -1.60674 0
M  V30 3296 O 315.005 -0.311651 -1.74235 0
M  V30 3297 C 312.134 -0.902437 -3.31226 0
M  V30 3298 C 311.22 -2.03695 -3.7198 0
M  V30 3299 N 311.611 -3.28544 -3.84568 0
M  V30 3300 C 309.909 -1.93993 -4.016 0
M  V30 3301 C 310.61 -4.02847 -4.19629 0
M  V30 3302 N 309.586 -3.31138 -4.31102 0
M  V30 3303 H 313.388 -2.12462 -2.0307 0
M  V30 3304 H 310.902 -1.24127 -1.0472 0
M  V30 3305 H 312.899 -0.77915 -4.09554 0
M  V30 3306 H 311.559 0.0357267 -3.2468 0
M  V30 3307 H 312.57 -3.6349 -3.68911 0
M  V30 3308 H 309.247 -1.07733 -4.03361 0
M  V30 3309 H 310.637 -5.10506 -4.36845 0
M  V30 3310 N 313.357 1.07166 -1.15556 0
M  V30 3311 C 314.267 2.17947 -0.868116 0
M  V30 3312 C 315.283 1.73297 0.156297 0
M  V30 3313 O 316.459 2.01392 -0.0182327 0
M  V30 3314 C 313.524 3.44789 -0.36355 0
M  V30 3315 C 312.585 4.03996 -1.45209 0
M  V30 3316 C 311.818 5.24783 -0.971508 0
M  V30 3317 O 312.041 5.70109 0.182194 0
M  V30 3318 O 310.975 5.75715 -1.75603 0
M  V30 3319 H 314.801 2.4503 -1.79427 0
M  V30 3320 H 312.386 1.16539 -0.934824 0
M  V30 3321 H 314.268 4.21307 -0.0887113 0
M  V30 3322 H 312.943 3.19253 0.534708 0
M  V30 3323 H 311.85 3.29009 -1.78056 0
M  V30 3324 H 313.183 4.33808 -2.32533 0
M  V30 3325 N 314.835 0.952656 1.25548 0
M  V30 3326 C 316.246 0.647392 1.75116 0
M  V30 3327 C 316.597 -0.837274 1.77438 0
M  V30 3328 O 315.722 -1.65525 1.39393 0
M  V30 3329 C 316.317 1.16845 3.18014 0
M  V30 3330 C 314.876 0.913382 3.6515 0
M  V30 3331 C 314.023 1.31265 2.44264 0
M  V30 3332 H 316.974 1.12968 1.11462 0
M  V30 3333 H 316.995 0.527606 3.76824 0
M  V30 3334 H 316.507 2.24902 3.16292 0
M  V30 3335 H 314.608 -0.152316 3.72289 0
M  V30 3336 H 314.721 1.54845 4.53387 0
M  V30 3337 H 313.085 0.731028 2.43984 0
M  V30 3338 H 313.868 2.40239 2.45234 0
M  V30 3339 N 316.313 -1.40141 0.720998 0
M  V30 3340 C 317.59 -1.94677 0.189757 0
M  V30 3341 C 317.97 -1.65879 -1.30566 0
M  V30 3342 O 317.318 -0.979391 -2.06447 0
M  V30 3343 C 317.528 -3.45279 0.508304 0
M  V30 3344 C 318.876 -4.22209 0.449934 0
M  V30 3345 O 319.9 -3.53413 0.444677 0
M  V30 3346 O 318.759 -5.44788 0.432189 0
M  V30 3347 H 315.853 -0.826459 0.0299026 0
M  V30 3348 H 318.399 -1.49719 0.7989 0
M  V30 3349 H 317.171 -3.59619 1.54239 0
M  V30 3350 H 316.794 -3.97386 -0.130525 0
M  V30 3351 N 317.792 -0.46758 -1.50504 0
M  V30 3352 C 319.069 0.15003 -1.95024 0
M  V30 3353 C 319.449 1.57304 -1.40779 0
M  V30 3354 O 318.797 2.20281 -0.607319 0
M  V30 3355 C 319.007 0.0969324 -3.48865 0
M  V30 3356 C 320.355 0.287565 -4.23625 0
M  V30 3357 O 321.379 0.173678 -3.55776 0
M  V30 3358 O 320.238 0.517186 -5.44047 0
M  V30 3359 H 317.332 0.113582 -0.819163 0
M  V30 3360 H 319.878 -0.52773 -1.61286 0
M  V30 3361 H 318.65 -0.896732 -3.80886 0
M  V30 3362 H 318.273 0.816303 -3.8913 0
M  V30 3363 N 319.27 1.56325 -0.20005 0
M  V30 3364 C 320.518 1.97329 0.436547 0
M  V30 3365 C 320.839 1.08826 1.61808 0
M  V30 3366 O 320.109 0.160604 1.95241 0
M  V30 3367 H 318.689 0.728714 0.164272 0
M  V30 3368 H 321.351 1.92761 -0.287937 0
M  V30 3369 H 320.447 3.02264 0.777353 0
M  V30 3370 N 320.748 -0.0735177 1.57428 0
M  V30 3371 C 321.658 -1.10547 2.06922 0
M  V30 3372 C 322.674 -1.42506 0.998402 0
M  V30 3373 O 323.85 -1.52717 1.31299 0
M  V30 3374 C 320.915 -2.40019 2.50184 0
M  V30 3375 C 319.976 -2.15046 3.71556 0
M  V30 3376 C 319.209 -3.38345 4.12745 0
M  V30 3377 O 319.432 -4.47399 3.53822 0
M  V30 3378 O 318.366 -3.2666 5.05546 0
M  V30 3379 H 322.192 -0.715013 2.95163 0
M  V30 3380 H 319.777 -0.287531 1.46607 0
M  V30 3381 H 321.659 -3.16218 2.78539 0
M  V30 3382 H 320.334 -2.78447 1.65072 0
M  V30 3383 H 319.241 -1.36558 3.48285 0
M  V30 3384 H 320.574 -1.81499 4.57514 0
M  V30 3385 N 322.226 -1.5378 -0.344866 0
M  V30 3386 C 323.475 -1.7018 -1.08267 0
M  V30 3387 C 323.788 -0.471 -1.89845 0
M  V30 3388 O 324.994 -0.515917 -2.66553 0
M  V30 3389 C 323.45 -3.00923 -1.97417 0
M  V30 3390 C 323.058 -4.31335 -1.21053 0
M  V30 3391 C 324.802 -3.26688 -2.71063 0
M  V30 3392 C 322.709 -5.53153 -2.09225 0
M  V30 3393 H 321.639 -0.634138 -0.407903 0
M  V30 3394 H 324.29 -1.8028 -0.342246 0
M  V30 3395 H 322.672 -2.84676 -2.75274 0
M  V30 3396 H 323.846 -4.58281 -0.481159 0
M  V30 3397 H 322.161 -4.12173 -0.591813 0
M  V30 3398 H 324.758 -4.1489 -3.37299 0
M  V30 3399 H 325.101 -2.43639 -3.37558 0
M  V30 3400 H 325.634 -3.43705 -2.0028 0
M  V30 3401 H 322.373 -6.38741 -1.47274 0
M  V30 3402 H 321.893 -5.30458 -2.79955 0
M  V30 3403 H 323.572 -5.88744 -2.68308 0
M  V30 3404 N 323.704 0.605807 -1.45491 0
M  V30 3405 C 324.652 1.73754 -1.54636 0
M  V30 3406 C 325.646 1.64207 -0.416219 0
M  V30 3407 O 326.852 1.69979 -0.592199 0
M  V30 3408 H 323.227 0.574073 -0.485741 0
M  V30 3409 H 325.198 1.63169 -2.49837 0
M  V30 3410 C 323.947 3.12135 -1.53189 0
M  V30 3411 H 323.27 3.20141 -2.39478 0
M  V30 3412 H 324.71 3.91147 -1.63645 0
M  V30 3413 C 323.169 3.35921 -0.256616 0
M  V30 3414 O 323.699 3.96194 0.662798 0
M  V30 3415 N 321.905 2.90204 -0.151751 0
M  V30 3416 H 321.452 2.41336 -0.90081 0
M  V30 3417 H 321.41 3.06492 0.700699 0
M  V30 3418 N 325.182 1.32811 0.848464 0
M  V30 3419 C 326.412 1.26556 1.63301 0
M  V30 3420 C 326.82 -0.1676 1.88456 0
M  V30 3421 O 326.163 -1.11713 1.45828 0
M  V30 3422 C 326.225 1.96202 3.01239 0
M  V30 3423 C 325.889 3.45528 2.99098 0
M  V30 3424 C 326.886 4.40903 2.75501 0
M  V30 3425 C 324.571 3.87558 3.19537 0
M  V30 3426 C 326.565 5.76282 2.72356 0
M  V30 3427 C 324.252 5.23044 3.16019 0
M  V30 3428 C 325.25 6.17217 2.92458 0
M  V30 3429 O 324.938 7.50223 2.88825 0
M  V30 3430 H 324.67 0.43771 0.515156 0
M  V30 3431 H 327.224 1.7559 1.0657 0
M  V30 3432 H 325.454 1.41746 3.59785 0
M  V30 3433 H 327.143 1.83573 3.62016 0
M  V30 3434 H 327.909 4.09756 2.5947 0
M  V30 3435 H 323.788 3.14674 3.369 0
M  V30 3436 H 327.332 6.4976 2.53886 0
M  V30 3437 H 323.229 5.53818 3.31596 0
M  V30 3438 H 323.997 7.59657 3.04735 0
M  V30 3439 N 326.66 -1.06551 1.16123 0
M  V30 3440 C 328.071 -1.60768 0.949232 0
M  V30 3441 C 328.422 -1.89523 -0.507508 0
M  V30 3442 O 327.547 -1.66671 -1.38021 0
M  V30 3443 C 328.142 -2.92086 1.71671 0
M  V30 3444 C 326.701 -3.43015 1.54977 0
M  V30 3445 C 325.848 -2.16947 1.72711 0
M  V30 3446 H 328.799 -0.895354 1.31031 0
M  V30 3447 H 328.82 -3.6138 1.19099 0
M  V30 3448 H 328.332 -2.71127 2.7769 0
M  V30 3449 H 326.433 -3.69039 0.513873 0
M  V30 3450 H 326.546 -4.18516 2.33198 0
M  V30 3451 H 324.91 -2.27041 1.15431 0
M  V30 3452 H 325.693 -1.98473 2.80113 0
M  V30 3453 N 328.138 -0.959301 -1.25041 0
M  V30 3454 C 329.384 -0.627096 -1.93492 0
M  V30 3455 C 329.739 0.827484 -1.73696 0
M  V30 3456 O 329.032 1.58651 -1.07427 0
M  V30 3457 C 329.226 -0.927136 -3.45165 0
M  V30 3458 C 329.055 -2.40933 -3.79712 0
M  V30 3459 C 327.825 -3.0677 -4.01522 0
M  V30 3460 C 330.023 -3.38894 -3.86853 0
M  V30 3461 N 328.005 -4.44815 -4.231 0
M  V30 3462 C 329.376 -4.62263 -4.13174 0
M  V30 3463 C 331.431 -3.33668 -3.69554 0
M  V30 3464 C 330.134 -5.81052 -4.23995 0
M  V30 3465 C 332.16 -4.518 -3.81616 0
M  V30 3466 C 331.522 -5.73957 -4.08354 0
M  V30 3467 H 327.621 -0.280166 -0.73009 0
M  V30 3468 H 330.205 -1.23244 -1.50729 0
M  V30 3469 H 328.376 -0.350685 -3.86814 0
M  V30 3470 H 330.108 -0.554361 -4.00885 0
M  V30 3471 H 326.863 -2.57327 -3.97593 0
M  V30 3472 H 327.287 -5.16319 -4.37885 0
M  V30 3473 H 331.929 -2.40268 -3.47895 0
M  V30 3474 H 329.647 -6.74888 -4.44468 0
M  V30 3475 H 333.233 -4.49309 -3.69612 0
M  V30 3476 H 332.113 -6.6384 -4.17475 0
M  V30 3477 N 329.616 1.39756 -0.72842 0
M  V30 3478 C 330.546 2.33289 -0.0991354 0
M  V30 3479 C 331.527 1.53568 0.731489 0
M  V30 3480 O 332.712 1.81987 0.677807 0
M  V30 3481 C 329.842 3.3763 0.813834 0
M  V30 3482 C 328.796 4.2791 0.0878663 0
M  V30 3483 C 328.122 5.22894 1.11741 0
M  V30 3484 C 329.422 5.11314 -1.06563 0
M  V30 3485 H 331.116 2.86163 -0.880408 0
M  V30 3486 H 328.662 1.37591 -0.424819 0
M  V30 3487 H 330.615 4.0201 1.26355 0
M  V30 3488 H 329.339 2.83181 1.62715 0
M  V30 3489 H 327.998 3.65 -0.342159 0
M  V30 3490 H 327.646 4.64744 1.92412 0
M  V30 3491 H 327.346 5.84143 0.636477 0
M  V30 3492 H 328.87 5.90151 1.56697 0
M  V30 3493 H 330.284 5.69076 -0.694671 0
M  V30 3494 H 328.681 5.81671 -1.47577 0
M  V30 3495 H 329.751 4.46534 -1.89038 0
M  V30 3496 N 331.094 0.475555 1.50254 0
M  V30 3497 C 332.341 -0.0778919 2.0235 0
M  V30 3498 C 332.669 -1.39319 1.35722 0
M  V30 3499 O 331.924 -1.89888 0.473395 0
M  V30 3500 C 332.223 -0.305114 3.56095 0
M  V30 3501 C 331.889 0.92903 4.41225 0
M  V30 3502 C 330.551 1.26739 4.6421 0
M  V30 3503 C 332.903 1.75054 4.90923 0
M  V30 3504 C 330.231 2.42724 5.34137 0
M  V30 3505 C 332.583 2.9017 5.62125 0
M  V30 3506 C 331.247 3.24416 5.83362 0
M  V30 3507 H 330.517 -0.0285027 0.740452 0
M  V30 3508 H 333.164 0.630543 1.80821 0
M  V30 3509 H 331.469 -1.09584 3.76163 0
M  V30 3510 H 333.166 -0.747377 3.93974 0
M  V30 3511 H 329.756 0.655428 4.23559 0
M  V30 3512 H 333.94 1.50231 4.73016 0
M  V30 3513 H 329.196 2.69525 5.48786 0
M  V30 3514 H 333.37 3.54169 5.99614 0
M  V30 3515 H 330.997 4.14396 6.37323 0
M  V30 3516 N 332.573 -1.56217 0.208337 0
M  V30 3517 C 333.989 -1.58919 -0.14729 0
M  V30 3518 C 334.189 -1.22486 -1.59998 0
M  V30 3519 O 333.245 -0.953849 -2.3379 0
M  V30 3520 C 334.558 -3.00236 0.167048 0
M  V30 3521 C 336.106 -3.12813 0.108219 0
M  V30 3522 C 336.581 -4.56284 0.396049 0
M  V30 3523 N 338.072 -4.61912 0.345142 0
M  V30 3524 C 338.807 -5.70837 0.541523 0
M  V30 3525 N 338.303 -6.88178 0.798968 0
M  V30 3526 N 340.096 -5.60091 0.474867 0
M  V30 3527 H 332.247 -1.78177 1.15614 0
M  V30 3528 H 334.51 -0.827555 0.462446 0
M  V30 3529 H 334.216 -3.31499 1.1748 0
M  V30 3530 H 334.09 -3.7354 -0.524184 0
M  V30 3531 H 336.477 -2.81354 -0.890157 0
M  V30 3532 H 336.558 -2.41866 0.832729 0
M  V30 3533 H 336.202 -4.88458 1.3918 0
M  V30 3534 H 336.132 -5.25439 -0.349502 0
M  V30 3535 H 338.623 -3.77589 0.153316 0
M  V30 3536 H 338.936 -7.67095 0.93727 0
M  V30 3537 H 337.281 -6.89953 0.836013 0
M  V30 3538 H 340.472 -4.67297 0.274064 0
M  V30 3539 H 340.645 -6.44917 0.631326 0
M  V30 3540 N 334.051 0.0651679 -1.57465 0
M  V30 3541 C 334.981 1.07693 -2.07182 0
M  V30 3542 C 335.962 1.39962 -0.966673 0
M  V30 3543 O 337.147 1.49475 -1.2398 0
M  V30 3544 C 334.277 2.3885 -2.52127 0
M  V30 3545 C 333.231 2.20917 -3.66579 0
M  V30 3546 C 332.557 3.57515 -3.97601 0
M  V30 3547 C 333.857 1.62493 -4.9638 0
M  V30 3548 H 335.551 0.663199 -2.91962 0
M  V30 3549 H 333.097 0.317569 -1.40455 0
M  V30 3550 H 335.05 3.09928 -2.85522 0
M  V30 3551 H 333.774 2.82215 -1.64384 0
M  V30 3552 H 332.433 1.52279 -3.33477 0
M  V30 3553 H 332.081 3.98463 -3.06979 0
M  V30 3554 H 331.781 3.46353 -4.74672 0
M  V30 3555 H 333.305 4.30013 -4.33499 0
M  V30 3556 H 334.719 2.23445 -5.27963 0
M  V30 3557 H 333.116 1.62009 -5.77818 0
M  V30 3558 H 334.186 0.587041 -4.81333 0
M  V30 3559 N 335.529 1.53961 0.336706 0
M  V30 3560 C 336.776 1.71536 1.07618 0
M  V30 3561 C 337.104 0.482125 1.8843 0
M  V30 3562 O 336.359 -0.536142 1.88213 0
M  V30 3563 C 336.658 2.93493 2.03953 0
M  V30 3564 C 336.324 4.28811 1.39399 0
M  V30 3565 C 334.986 4.65602 1.21523 0
M  V30 3566 C 337.338 5.12844 0.929541 0
M  V30 3567 C 334.666 5.84037 0.558312 0
M  V30 3568 C 337.018 6.31951 0.286505 0
M  V30 3569 C 335.682 6.67432 0.0954869 0
M  V30 3570 H 334.952 0.627696 0.393801 0
M  V30 3571 H 337.599 1.88186 0.354715 0
M  V30 3572 H 335.904 2.71475 2.82504 0
M  V30 3573 H 337.601 3.04285 2.61174 0
M  V30 3574 H 334.191 3.99858 1.54311 0
M  V30 3575 H 338.375 4.84947 1.05548 0
M  V30 3576 H 333.631 6.10097 0.398995 0
M  V30 3577 H 337.805 6.96352 -0.0814376 0
M  V30 3578 H 335.432 7.59063 -0.415579 0
M  V30 3579 N 337.007 -0.598083 1.45811 0
M  V30 3580 C 338.284 -1.35777 1.40797 0
M  V30 3581 C 338.664 -2.10935 0.083462 0
M  V30 3582 O 338.012 -2.08505 -0.934763 0
M  V30 3583 C 338.222 -2.29666 2.62783 0
M  V30 3584 C 339.57 -2.91977 3.08277 0
M  V30 3585 O 340.594 -2.39984 2.63223 0
M  V30 3586 O 339.453 -3.86376 3.86491 0
M  V30 3587 H 336.547 -0.609291 0.55919 0
M  V30 3588 H 339.093 -0.620379 1.57954 0
M  V30 3589 H 337.865 -1.73454 3.50756 0
M  V30 3590 H 337.488 -3.1077 2.48008 0
M  V30 3591 N 338.485 -1.33259 -0.841409 0
M  V30 3592 C 339.395 -1.25332 -1.98316 0
M  V30 3593 C 340.411 -0.164364 -1.73222 0
M  V30 3594 O 341.587 -0.387486 -1.97637 0
M  V30 3595 C 338.652 -0.990078 -3.32262 0
M  V30 3596 C 337.713 -2.16879 -3.70489 0
M  V30 3597 C 336.946 -1.91801 -4.98044 0
M  V30 3598 O 337.169 -0.867075 -5.63771 0
M  V30 3599 O 336.103 -2.78267 -5.33714 0
M  V30 3600 H 339.929 -2.21344 -2.07944 0
M  V30 3601 H 337.514 -1.1328 -0.974058 0
M  V30 3602 H 339.396 -0.860321 -4.12524 0
M  V30 3603 H 338.071 -0.0602155 -3.23644 0
M  V30 3604 H 336.978 -2.35407 -2.90748 0
M  V30 3605 H 338.311 -3.0819 -3.8377 0
M  V30 3606 N 339.963 1.05934 -1.16686 0
M  V30 3607 C 341.209 1.79065 -0.95203 0
M  V30 3608 C 341.542 1.87147 0.518629 0
M  V30 3609 O 340.817 1.36574 1.38484 0
M  V30 3610 C 341.1 3.23359 -1.58464 0
M  V30 3611 C 340.953 3.23336 -3.12689 0
M  V30 3612 C 342.272 4.21004 -1.28232 0
M  V30 3613 H 339.391 0.65005 -0.34728 0
M  V30 3614 H 342.033 1.23868 -1.44072 0
M  V30 3615 H 340.183 3.70493 -1.16908 0
M  V30 3616 H 341.855 2.84336 -3.6325 0
M  V30 3617 H 340.098 2.61886 -3.4583 0
M  V30 3618 H 340.769 4.25144 -3.52075 0
M  V30 3619 H 343.245 3.8233 -1.64203 0
M  V30 3620 H 342.121 5.20225 -1.75092 0
M  V30 3621 H 342.382 4.41639 -0.201791 0
M  V30 3622 N 341.441 0.965919 1.2453 0
M  V30 3623 C 342.689 0.625593 1.92174 0
M  V30 3624 C 343.01 -0.841652 1.75901 0
M  V30 3625 O 342.28 -1.60061 1.12948 0
M  V30 3626 H 340.86 0.228388 0.71123 0
M  V30 3627 H 343.522 1.2266 1.51461 0
M  V30 3628 H 342.618 0.864653 2.99884 0
M  V30 3629 N 342.919 -1.39368 0.735821 0
M  V30 3630 C 344.149 -2.04498 0.293967 0
M  V30 3631 C 344.557 -1.55593 -1.07645 0
M  V30 3632 O 343.9 -0.716324 -1.69158 0
M  V30 3633 C 343.962 -3.58836 0.218342 0
M  V30 3634 C 343.626 -4.30721 1.52736 0
M  V30 3635 C 344.623 -4.57305 2.47322 0
M  V30 3636 C 342.308 -4.69251 1.79189 0
M  V30 3637 C 344.302 -5.21429 3.66593 0
M  V30 3638 C 341.989 -5.33104 2.98737 0
M  V30 3639 C 342.987 -5.59125 3.9226 0
M  V30 3640 O 342.675 -6.21653 5.09708 0
M  V30 3641 H 342.407 -0.664118 0.126189 0
M  V30 3642 H 344.961 -1.79385 1.00051 0
M  V30 3643 H 343.191 -3.8285 -0.544314 0
M  V30 3644 H 344.88 -4.05447 -0.191626 0
M  V30 3645 H 345.646 -4.27983 2.28156 0
M  V30 3646 H 341.525 -4.48354 1.07239 0
M  V30 3647 H 345.069 -5.41656 4.39607 0
M  V30 3648 H 340.966 -5.61846 3.17803 0
M  V30 3649 H 341.734 -6.40146 5.10054 0
M  V30 3650 N 344.397 -0.483516 -1.5 0
M  V30 3651 C 345.329 0.340634 -2.26655 0
M  V30 3652 C 346.342 0.946152 -1.32483 0
M  V30 3653 O 347.531 0.832453 -1.579 0
M  V30 3654 C 344.631 1.4929 -3.04246 0
M  V30 3655 C 343.804 0.997903 -4.25865 0
M  V30 3656 C 342.863 2.02569 -4.85646 0
M  V30 3657 O 341.889 1.60128 -5.46212 0
M  V30 3658 N 343.091 3.3548 -4.73744 0
M  V30 3659 H 345.856 -0.316577 -2.98023 0
M  V30 3660 H 343.417 -0.315024 -1.58806 0
M  V30 3661 H 345.409 2.17766 -3.41116 0
M  V30 3662 H 343.979 2.05458 -2.35597 0
M  V30 3663 H 343.199 0.138617 -3.93956 0
M  V30 3664 H 344.487 0.645305 -5.04691 0
M  V30 3665 H 343.885 3.72661 -4.25605 0
M  V30 3666 H 342.442 3.99718 -5.14848 0
M  V30 3667 N 345.875 1.56104 -0.216619 0
M  V30 3668 C 347.123 1.97781 0.415593 0
M  V30 3669 C 347.444 1.10536 1.60645 0
M  V30 3670 O 346.714 0.181303 1.95059 0
M  V30 3671 H 345.294 0.730415 0.156534 0
M  V30 3672 H 347.956 1.92445 -0.308366 0
M  V30 3673 H 347.052 3.03072 0.74525 0
M  V30 3674 N 347.353 -0.0568162 1.57498 0
M  V30 3675 C 348.599 -0.748893 1.89111 0
M  V30 3676 C 348.954 -1.74422 0.81208 0
M  V30 3677 O 348.247 -1.90731 -0.182247 0
M  V30 3678 C 348.441 -1.48359 3.25153 0
M  V30 3679 C 348.27 -0.560924 4.46188 0
M  V30 3680 C 347.04 -0.192264 5.04934 0
M  V30 3681 C 349.238 0.148824 5.14085 0
M  V30 3682 N 347.22 0.734555 6.0949 0
M  V30 3683 C 348.591 0.932286 6.12951 0
M  V30 3684 C 350.646 0.218713 4.97419 0
M  V30 3685 C 349.349 1.77917 6.96949 0
M  V30 3686 C 351.375 1.05262 5.81957 0
M  V30 3687 C 350.737 1.82409 6.80372 0
M  V30 3688 H 346.836 -0.249002 0.741298 0
M  V30 3689 H 349.42 -0.00984926 1.94698 0
M  V30 3690 H 347.591 -2.19326 3.20547 0
M  V30 3691 H 349.323 -2.12586 3.44368 0
M  V30 3692 H 346.078 -0.548421 4.70414 0
M  V30 3693 H 346.502 1.19165 6.6643 0
M  V30 3694 H 351.144 -0.363407 4.21235 0
M  V30 3695 H 348.862 2.3722 7.72497 0
M  V30 3696 H 352.448 1.10987 5.71116 0
M  V30 3697 H 351.328 2.45895 7.44651 0
M  V30 3698 N 348.832 -1.54138 -0.328536 0
M  V30 3699 C 350.081 -1.71318 -1.06456 0
M  V30 3700 C 350.394 -0.491109 -1.89334 0
M  V30 3701 O 351.6 -0.54416 -2.65991 0
M  V30 3702 C 350.056 -3.03 -1.94214 0
M  V30 3703 C 349.664 -4.32595 -1.16471 0
M  V30 3704 C 351.408 -3.29544 -2.67583 0
M  V30 3705 C 349.315 -5.55341 -2.03347 0
M  V30 3706 H 348.245 -0.638429 -0.401155 0
M  V30 3707 H 350.896 -1.80633 -0.323106 0
M  V30 3708 H 349.278 -2.87579 -2.72239 0
M  V30 3709 H 350.452 -4.58766 -0.432525 0
M  V30 3710 H 348.767 -4.12777 -0.548063 0
M  V30 3711 H 351.364 -4.18444 -3.3288 0
M  V30 3712 H 351.707 -2.47206 -3.34955 0
M  V30 3713 H 352.24 -3.45809 -1.96623 0
M  V30 3714 H 348.979 -6.40268 -1.40491 0
M  V30 3715 H 348.499 -5.33397 -2.74313 0
M  V30 3716 H 350.178 -5.91557 -2.62049 0
M  V30 3717 N 350.31 0.590341 -1.46126 0
M  V30 3718 C 351.558 1.34616 -1.50742 0
M  V30 3719 C 351.879 1.94363 -0.157486 0
M  V30 3720 O 351.149 1.78136 0.815136 0
M  V30 3721 H 349.729 0.499789 -0.555175 0
M  V30 3722 H 352.391 0.691953 -1.82203 0
M  V30 3723 H 351.487 2.15678 -2.25587 0
M  V30 3724 N 351.788 1.33704 0.83433 0
M  V30 3725 C 353.028 1.26754 1.60352 0
M  V30 3726 C 353.392 -0.163182 1.91305 0
M  V30 3727 O 354.593 -0.3567 2.66423 0
M  V30 3728 C 352.864 2.12262 2.8754 0
M  V30 3729 S 354.423 2.22549 3.78176 0
M  V30 3730 H 351.241 0.450879 0.549753 0
M  V30 3731 H 353.843 1.68788 0.986444 0
M  V30 3732 H 352.547 3.15238 2.62779 0
M  V30 3733 H 352.078 1.71082 3.54252 0
M  V30 3734 H 354.093 1.3899 4.76336 0
M  V30 3735 N 353.266 -1.05314 1.17247 0
M  V30 3736 C 354.176 -2.16538 0.90268 0
M  V30 3737 C 355.192 -1.73523 -0.128707 0
M  V30 3738 O 356.368 -2.01337 0.0502701 0
M  V30 3739 C 353.433 -3.44167 0.418356 0
M  V30 3740 C 352.494 -4.01635 1.51618 0
M  V30 3741 C 351.727 -5.23171 1.05487 0
M  V30 3742 O 351.95 -5.70327 -0.0914715 0
M  V30 3743 O 350.884 -5.72848 1.8474 0
M  V30 3744 H 354.71 -2.42145 1.83302 0
M  V30 3745 H 352.295 -1.15037 0.953246 0
M  V30 3746 H 354.177 -4.21112 0.155726 0
M  V30 3747 H 352.852 -3.20063 -0.48385 0
M  V30 3748 H 351.759 -3.26135 1.83268 0
M  V30 3749 H 353.092 -4.30053 2.39405 0
M  V30 3750 N 354.744 -0.972509 -1.24016 0
M  V30 3751 C 355.974 -0.653853 -1.9598 0
M  V30 3752 C 356.382 0.781801 -1.72292 0
M  V30 3753 O 355.725 1.53677 -1.00644 0
M  V30 3754 C 355.787 -0.854608 -3.49194 0
M  V30 3755 C 355.451 -2.27082 -3.96589 0
M  V30 3756 C 356.448 -3.24892 -4.05883 0
M  V30 3757 C 354.133 -2.5998 -4.29786 0
M  V30 3758 C 356.127 -4.53684 -4.47716 0
M  V30 3759 C 353.814 -3.88997 -4.71301 0
M  V30 3760 C 354.812 -4.85661 -4.80232 0
M  V30 3761 O 354.5 -6.12376 -5.20818 0
M  V30 3762 H 354.232 -0.242572 -0.630979 0
M  V30 3763 H 356.786 -1.30431 -1.58673 0
M  V30 3764 H 355.016 -0.146985 -3.86421 0
M  V30 3765 H 356.705 -0.534311 -4.02368 0
M  V30 3766 H 357.471 -3.00805 -3.80449 0
M  V30 3767 H 353.35 -1.85457 -4.22051 0
M  V30 3768 H 356.894 -5.29135 -4.54601 0
M  V30 3769 H 352.791 -4.12882 -4.96184 0
M  V30 3770 H 353.559 -6.16013 -5.38953 0
M  V30 3771 N 356.222 1.38976 -0.743202 0
M  V30 3772 C 357.169 2.30544 -0.10861 0
M  V30 3773 C 358.139 1.49642 0.720869 0
M  V30 3774 O 359.324 1.78304 0.679142 0
M  V30 3775 C 356.464 3.36018 0.786496 0
M  V30 3776 C 355.577 4.31963 -0.0564849 0
M  V30 3777 C 354.712 5.24506 0.840657 0
M  V30 3778 C 353.751 6.121 -0.00658363 0
M  V30 3779 N 352.888 6.96973 0.846943 0
M  V30 3780 H 357.728 2.8424 -0.895088 0
M  V30 3781 H 355.265 1.3995 -0.453048 0
M  V30 3782 H 357.223 3.95768 1.31999 0
M  V30 3783 H 355.853 2.83758 1.53887 0
M  V30 3784 H 354.905 3.73763 -0.707492 0
M  V30 3785 H 356.217 4.93703 -0.711229 0
M  V30 3786 H 355.371 5.89322 1.4417 0
M  V30 3787 H 354.11 4.63107 1.52916 0
M  V30 3788 H 353.115 5.46289 -0.620366 0
M  V30 3789 H 354.34 6.75565 -0.691992 0
M  V30 3790 H 352.286 6.38133 1.52059 0
M  V30 3791 H 352.203 7.5559 0.248864 0
M  V30 3792 H 353.471 7.6621 1.43328 0
M  V30 3793 N 357.7 0.491464 1.49741 0
M  V30 3794 C 359.111 0.0413169 1.86654 0
M  V30 3795 C 359.462 -1.36985 1.40462 0
M  V30 3796 O 358.587 -2.01917 0.778354 0
M  V30 3797 C 359.182 0.0682023 3.38731 0
M  V30 3798 C 357.741 -0.32656 3.74981 0
M  V30 3799 C 356.888 0.444888 2.73708 0
M  V30 3800 H 359.839 0.704733 1.42194 0
M  V30 3801 H 359.86 -0.729322 3.73445 0
M  V30 3802 H 359.372 1.09539 3.72321 0
M  V30 3803 H 357.473 -1.35734 3.46997 0
M  V30 3804 H 357.586 -0.013741 4.79098 0
M  V30 3805 H 355.95 -0.104062 2.54487 0
M  V30 3806 H 356.733 1.47197 3.10142 0
M  V30 3807 N 359.178 -1.55987 0.224894 0
M  V30 3808 C 360.594 -1.59066 -0.130426 0
M  V30 3809 C 360.794 -1.24176 -1.5869 0
M  V30 3810 O 359.85 -0.978592 -2.32766 0
M  V30 3811 C 361.163 -3.00042 0.198883 0
M  V30 3812 C 362.711 -3.1268 0.141391 0
M  V30 3813 C 363.186 -4.55839 0.444422 0
M  V30 3814 N 364.677 -4.6152 0.394115 0
M  V30 3815 C 365.412 -5.70231 0.602038 0
M  V30 3816 N 364.908 -6.87291 0.871914 0
M  V30 3817 N 366.701 -5.59555 0.534245 0
M  V30 3818 H 358.852 -1.76941 1.17497 0
M  V30 3819 H 361.115 -0.822604 0.471197 0
M  V30 3820 H 360.821 -3.30234 1.2099 0
M  V30 3821 H 360.695 -3.74075 -0.484535 0
M  V30 3822 H 363.082 -2.82283 -0.860265 0
M  V30 3823 H 363.163 -2.40969 0.858335 0
M  V30 3824 H 362.807 -4.86954 1.44353 0
M  V30 3825 H 362.737 -5.2578 -0.293752 0
M  V30 3826 H 365.228 -3.77405 0.193356 0
M  V30 3827 H 365.541 -7.66058 1.01858 0
M  V30 3828 H 363.886 -6.89028 0.909145 0
M  V30 3829 H 367.077 -4.6698 0.323612 0
M  V30 3830 H 367.25 -6.44211 0.699693 0
M  V30 3831 N 360.656 0.0484629 -1.57525 0
M  V30 3832 C 361.904 0.741657 -1.88 0
M  V30 3833 C 362.225 1.76918 -0.820054 0
M  V30 3834 O 361.495 1.95335 0.148661 0
M  V30 3835 H 360.075 0.276908 -0.69378 0
M  V30 3836 H 362.737 0.019013 -1.94891 0
M  V30 3837 H 361.833 1.24336 -2.86264 0
M  V30 3838 N 362.134 1.5431 0.320358 0
M  V30 3839 C 363.064 1.86912 1.3995 0
M  V30 3840 C 364.045 0.726211 1.53819 0
M  V30 3841 O 365.23 0.980233 1.67646 0
M  V30 3842 C 362.36 2.09932 2.7667 0
M  V30 3843 C 361.314 3.25776 2.77586 0
M  V30 3844 C 360.64 3.34173 4.17412 0
M  V30 3845 C 361.94 4.6335 2.41048 0
M  V30 3846 H 363.634 2.77292 1.12914 0
M  V30 3847 H 361.18 1.33421 0.541738 0
M  V30 3848 H 363.133 2.31324 3.52232 0
M  V30 3849 H 361.857 1.16304 3.0519 0
M  V30 3850 H 360.516 3.04276 2.04479 0
M  V30 3851 H 360.164 2.38098 4.43078 0
M  V30 3852 H 359.864 4.12033 4.18931 0
M  V30 3853 H 361.388 3.57803 4.94782 0
M  V30 3854 H 362.802 4.84602 3.06324 0
M  V30 3855 H 361.199 5.43782 2.53813 0
M  V30 3856 H 362.269 4.65381 1.36193 0
M  V30 3857 N 363.613 -0.582584 1.46437 0
M  V30 3858 C 364.841 -1.36682 1.55324 0
M  V30 3859 C 365.256 -1.87796 0.194409 0
M  V30 3860 O 364.613 -1.63623 -0.808318 0
M  V30 3861 C 364.664 -2.55426 2.55812 0
M  V30 3862 O 364.385 -2.0643 3.86417 0
M  V30 3863 C 365.886 -3.47976 2.74641 0
M  V30 3864 H 363.106 -0.417545 0.525259 0
M  V30 3865 H 365.65 -0.708219 1.91845 0
M  V30 3866 H 363.805 -3.17275 2.22295 0
M  V30 3867 H 364.219 -2.83762 4.41111 0
M  V30 3868 H 365.693 -4.27775 3.48874 0
M  V30 3869 H 366.17 -3.99919 1.81553 0
M  V30 3870 H 366.776 -2.91962 3.09255 0
M  V30 3871 N 365.091 -1.34144 -0.827227 0
M  V30 3872 C 366.001 -1.27428 -1.96975 0
M  V30 3873 C 367.017 -0.182728 -1.73038 0
M  V30 3874 O 368.193 -0.408426 -1.97215 0
M  V30 3875 C 365.258 -1.02526 -3.31194 0
M  V30 3876 C 364.319 -2.20796 -3.68168 0
M  V30 3877 C 363.552 -1.97073 -4.95982 0
M  V30 3878 O 363.775 -0.926822 -5.6282 0
M  V30 3879 O 362.709 -2.83912 -5.30733 0
M  V30 3880 H 366.535 -2.23537 -2.05584 0
M  V30 3881 H 364.12 -1.14307 -0.961989 0
M  V30 3882 H 366.002 -0.904026 -4.11589 0
M  V30 3883 H 364.677 -0.0945389 -3.23562 0
M  V30 3884 H 363.584 -2.38477 -2.88235 0
M  V30 3885 H 364.917 -3.12243 -3.8048 0
M  V30 3886 N 366.569 1.04691 -1.17803 0
M  V30 3887 C 367.479 2.16057 -0.914151 0
M  V30 3888 C 368.495 1.73589 0.119503 0
M  V30 3889 O 369.671 2.01308 -0.0609468 0
M  V30 3890 C 366.736 3.4394 -0.436603 0
M  V30 3891 C 365.797 4.00825 -1.53746 0
M  V30 3892 C 365.03 5.22604 -1.0826 0
M  V30 3893 O 365.253 5.70367 0.0612244 0
M  V30 3894 O 364.187 5.7186 -1.87775 0
M  V30 3895 H 368.013 2.41169 -1.84584 0
M  V30 3896 H 365.598 1.1453 -0.959334 0
M  V30 3897 H 367.48 4.21024 -0.178057 0
M  V30 3898 H 366.155 3.20316 0.466869 0
M  V30 3899 H 365.062 3.25158 -1.84995 0
M  V30 3900 H 366.395 4.28778 -2.41683 0
M  V30 3901 N 368.047 0.979072 1.23499 0
M  V30 3902 C 369.295 0.645941 1.91499 0
M  V30 3903 C 369.616 -0.822948 1.76784 0
M  V30 3904 O 368.886 -1.58854 1.14639 0
M  V30 3905 H 367.466 0.235919 0.708767 0
M  V30 3906 H 370.128 1.2426 1.50152 0
M  V30 3907 H 369.224 0.896411 2.9895 0
M  V30 3908 N 369.525 -1.3858 0.750561 0
M  V30 3909 C 370.455 -2.33102 0.136237 0
M  V30 3910 C 371.436 -1.54713 -0.706965 0
M  V30 3911 O 372.621 -1.83043 -0.648769 0
M  V30 3912 C 369.751 -3.38882 -0.760017 0
M  V30 3913 C 368.705 -4.27995 -0.0197785 0
M  V30 3914 C 368.031 -5.24605 -1.03408 0
M  V30 3915 C 369.331 -5.09554 1.14684 0
M  V30 3916 H 371.025 -2.84726 0.925822 0
M  V30 3917 H 368.571 -1.36898 0.446654 0
M  V30 3918 H 370.524 -4.0397 -1.19943 0
M  V30 3919 H 369.248 -2.85734 -1.58189 0
M  V30 3920 H 367.907 -3.64409 0.400184 0
M  V30 3921 H 367.555 -4.67746 -1.84994 0
M  V30 3922 H 367.255 -5.85081 -0.543464 0
M  V30 3923 H 368.779 -5.9257 -1.47288 0
M  V30 3924 H 370.193 -5.67899 0.785118 0
M  V30 3925 H 368.59 -5.7925 1.56812 0
M  V30 3926 H 369.66 -4.4347 1.96118 0
M  V30 3927 N 371.003 -0.499398 -1.49478 0
M  V30 3928 C 372.251 0.0455996 -2.02049 0
M  V30 3929 C 372.572 1.37633 -1.38138 0
M  V30 3930 O 371.842 1.8842 -0.536166 0
M  V30 3931 H 370.422 0.0198416 -0.746736 0
M  V30 3932 H 373.084 -0.656274 -1.83519 0
M  V30 3933 H 372.18 0.176445 -3.11601 0
M  V30 3934 N 372.481 1.55866 -0.233164 0
M  V30 3935 C 373.727 1.99643 0.389148 0
M  V30 3936 C 374.082 1.11836 1.56558 0
M  V30 3937 O 373.375 0.170848 1.90837 0
M  V30 3938 C 373.569 3.46856 0.861724 0
M  V30 3939 C 373.398 4.48904 -0.267376 0
M  V30 3940 C 372.168 4.99888 -0.737577 0
M  V30 3941 C 374.366 5.02624 -1.08966 0
M  V30 3942 N 372.348 5.8566 -1.84052 0
M  V30 3943 C 373.719 5.85434 -2.04125 0
M  V30 3944 C 375.774 4.84959 -1.12779 0
M  V30 3945 C 374.477 6.52466 -3.02789 0
M  V30 3946 C 376.503 5.52759 -2.10266 0
M  V30 3947 C 375.865 6.35346 -3.04162 0
M  V30 3948 H 371.964 0.774402 0.108742 0
M  V30 3949 H 374.548 1.91572 -0.347596 0
M  V30 3950 H 372.719 3.55352 1.5678 0
M  V30 3951 H 374.451 3.77531 1.45783 0
M  V30 3952 H 371.206 4.7249 -0.324122 0
M  V30 3953 H 371.63 6.33246 -2.39434 0
M  V30 3954 H 376.272 4.20751 -0.415749 0
M  V30 3955 H 373.99 7.15849 -3.74948 0
M  V30 3956 H 377.576 5.41051 -2.13905 0
M  V30 3957 H 376.456 6.86883 -3.78366 0
M  V30 3958 N 373.959 -0.0401083 1.57549 0
M  V30 3959 C 375.206 -0.733125 1.88763 0
M  V30 3960 C 375.534 -1.75946 0.829058 0
M  V30 3961 O 374.789 -1.94949 -0.171323 0
M  V30 3962 C 375.088 -1.44902 3.26708 0
M  V30 3963 C 374.754 -0.559707 4.47413 0
M  V30 3964 C 373.416 -0.314731 4.8017 0
M  V30 3965 C 375.768 0.0549743 5.21171 0
M  V30 3966 C 373.096 0.553886 5.8408 0
M  V30 3967 C 375.448 0.911229 6.26003 0
M  V30 3968 C 374.112 1.16577 6.57241 0
M  V30 3969 H 373.382 -0.268269 0.690733 0
M  V30 3970 H 376.029 0.00679408 1.91499 0
M  V30 3971 H 374.334 -2.26197 3.1991 0
M  V30 3972 H 376.031 -1.99058 3.48105 0
M  V30 3973 H 372.621 -0.760793 4.21794 0
M  V30 3974 H 376.805 -0.121344 4.96152 0
M  V30 3975 H 372.061 0.759518 6.06664 0
M  V30 3976 H 376.235 1.3941 6.82303 0
M  V30 3977 H 373.862 1.84058 7.37582 0
M  V30 3978 N 375.437 -1.54477 -0.31217 0
M  V30 3979 C 376.714 -1.63891 -1.06767 0
M  V30 3980 C 377.094 -0.480028 -2.0557 0
M  V30 3981 O 376.442 0.524487 -2.22399 0
M  V30 3982 C 376.652 -3.01402 -1.75948 0
M  V30 3983 C 378 -3.57838 -2.28554 0
M  V30 3984 O 379.024 -3.03782 -1.85998 0
M  V30 3985 O 377.883 -4.52462 -3.06497 0
M  V30 3986 H 374.977 -0.664125 -0.492816 0
M  V30 3987 H 377.523 -1.66823 -0.311149 0
M  V30 3988 H 376.295 -3.77187 -1.04144 0
M  V30 3989 H 375.918 -3.02199 -2.58383 0
M  V30 3990 N 376.915 0.57481 -1.46744 0
M  V30 3991 C 377.878 1.66533 -1.57478 0
M  V30 3992 C 378.878 1.54338 -0.451263 0
M  V30 3993 O 380.068 1.58814 -0.715813 0
M  V30 3994 C 377.2 3.05999 -1.50259 0
M  V30 3995 H 378.393 1.58372 -2.54673 0
M  V30 3996 H 375.946 0.793301 -1.34672 0
M  V30 3997 H 376.681 3.19709 -0.543725 0
M  V30 3998 H 376.466 3.16259 -2.31781 0
M  V30 3999 H 377.956 3.8537 -1.60872 0
M  V30 4000 N 378.394 1.34581 0.820102 0
M  V30 4001 C 379.64 1.28294 1.57836 0
M  V30 4002 C 379.995 -0.145099 1.91852 0
M  V30 4003 O 379.288 -1.09209 1.57429 0
M  V30 4004 C 379.482 2.10997 2.8847 0
M  V30 4005 C 379.311 3.61698 2.67216 0
M  V30 4006 C 378.081 4.3097 2.63805 0
M  V30 4007 C 380.279 4.55638 2.38534 0
M  V30 4008 N 378.261 5.67502 2.34126 0
M  V30 4009 C 379.632 5.80194 2.18574 0
M  V30 4010 C 381.687 4.44523 2.24285 0
M  V30 4011 C 380.39 6.94886 1.8581 0
M  V30 4012 C 382.416 5.5905 1.92916 0
M  V30 4013 C 381.778 6.82627 1.73782 0
M  V30 4014 H 377.877 0.524697 0.579842 0
M  V30 4015 H 380.461 1.69323 0.961139 0
M  V30 4016 H 378.632 1.7226 3.48111 0
M  V30 4017 H 380.364 1.96333 3.53886 0
M  V30 4018 H 377.119 3.83438 2.77978 0
M  V30 4019 H 377.543 6.39525 2.22118 0
M  V30 4020 H 382.185 3.49599 2.37782 0
M  V30 4021 H 379.903 7.89789 1.7105 0
M  V30 4022 H 383.489 5.52396 1.82619 0
M  V30 4023 H 382.369 7.69748 1.49861 0
M  V30 4024 N 379.872 -1.04064 1.18357 0
M  V30 4025 C 381.288 -1.2947 0.933258 0
M  V30 4026 C 381.488 -1.97466 -0.401169 0
M  V30 4027 O 380.544 -2.25528 -1.13549 0
M  V30 4028 C 381.857 -2.15337 2.09882 0
M  V30 4029 C 383.405 -2.28683 2.13712 0
M  V30 4030 C 383.88 -3.17917 3.29686 0
M  V30 4031 N 385.371 -3.25504 3.29547 0
M  V30 4032 C 386.106 -3.94706 4.15926 0
M  V30 4033 N 385.602 -4.66239 5.12439 0
M  V30 4034 N 387.395 -3.90986 4.0384 0
M  V30 4035 H 379.546 -0.583359 2.04232 0
M  V30 4036 H 381.809 -0.319921 0.892387 0
M  V30 4037 H 381.515 -1.72682 3.06389 0
M  V30 4038 H 381.389 -3.16015 2.05947 0
M  V30 4039 H 383.776 -2.70575 1.17784 0
M  V30 4040 H 383.857 -1.27596 2.21705 0
M  V30 4041 H 383.501 -2.76736 4.25887 0
M  V30 4042 H 383.431 -4.19036 3.1893 0
M  V30 4043 H 385.922 -2.74547 2.59677 0
M  V30 4044 H 386.235 -5.16638 5.74722 0
M  V30 4045 H 384.58 -4.65143 5.16398 0
M  V30 4046 H 387.771 -3.34234 3.27727 0
M  V30 4047 H 387.944 -4.44646 4.71375 0
M  V30 4048 O 381.389 -1.11421 -1.16909 0
M  V30 4049 H 382.08 -0.820425 -1.75467 0
M  V30 END ATOM
M  V30 BEGIN BOND
M  V30 END BOND
M  V30 END CTAB
M  END
$$$$
