drugbank_target|P22314 Ubiquitin-like modifier-activating enzyme 1 (DB04119; DB04216)
 OpenBabel12092120553D

  0  0  0     0  0            999 V3000
M  V30 BEGIN CTAB
M  V30 COUNTS 16464 16648 0 0 0
M  V30 BEGIN ATOM
M  V30 1 H -0.908 1.98254 -0.117106 0
M  V30 2 N 0 1.576 0 0
M  V30 3 C 0.933 2.03868 1.02534 0
M  V30 4 C 1.911 0.928543 1.3348 0
M  V30 5 O 3.095 1.19667 1.45644 0
M  V30 6 C 0.222 2.43627 2.35294 0
M  V30 7 C -0.732 3.65373 2.2001 0
M  V30 8 S 0.101 5.13292 1.52614 0
M  V30 9 C 1.257 5.56322 2.86805 0
M  V30 10 H 1.49 2.90518 0.631377 0
M  V30 11 H -0.977 1.52953 0.210867 0
M  V30 12 H 0.981 2.67203 3.11629 0
M  V30 13 H -0.358 1.57376 2.7183 0
M  V30 14 H -1.165 3.90944 3.18086 0
M  V30 15 H -1.563 3.418 1.51819 0
M  V30 16 H 0.729 5.58782 3.83104 0
M  V30 17 H 1.672 6.56266 2.65933 0
M  V30 18 H 2.08 4.83886 2.90714 0
M  V30 19 N 1.4781 -0.272755 1.55222 0
M  V30 20 C 2.7031 -1.02683 1.80197 0
M  V30 21 C 3.1281 -1.79142 0.573551 0
M  V30 22 O 2.4861 -1.74917 -0.476849 0
M  V30 23 C 2.5341 -1.9609 3.02624 0
M  V30 24 O 1.6381 -3.04863 2.77727 0
M  V30 25 H 0.9791 -0.293557 0.595584 0
M  V30 26 H 3.5091 -0.30159 2.02365 0
M  V30 27 H 3.5191 -2.38039 3.31363 0
M  V30 28 H 2.1941 -1.39851 3.91682 0
M  V30 29 H 0.7711 -2.67228 2.60084 0
M  V30 30 N 2.9562 -1.48159 -0.537278 0
M  V30 31 C 4.1812 -1.59707 -1.32319 0
M  V30 32 C 4.6062 -0.254859 -1.86365 0
M  V30 33 O 3.9642 0.772378 -1.64024 0
M  V30 34 C 4.0122 -2.6412 -2.45505 0
M  V30 35 O 3.1162 -2.20774 -3.48328 0
M  V30 36 H 2.4572 -0.535791 -0.392204 0
M  V30 37 H 4.9872 -1.94092 -0.647268 0
M  V30 38 H 4.9972 -2.85166 -2.91795 0
M  V30 39 H 3.6722 -3.61567 -2.05528 0
M  V30 40 H 2.2492 -2.09911 -3.08207 0
M  V30 41 N 4.4343 0.785586 -1.36625 0
M  V30 42 C 5.6593 1.57963 -1.34397 0
M  V30 43 C 6.0843 1.87964 0.071526 0
M  V30 44 O 5.4423 1.48182 1.0446 0
M  V30 45 C 5.4903 2.87511 -2.17646 0
M  V30 46 O 4.5943 3.81281 -1.57158 0
M  V30 47 H 3.9353 0.479014 -0.459828 0
M  V30 48 H 6.4653 0.973411 -1.79961 0
M  V30 49 H 6.4753 3.36745 -2.30362 0
M  V30 50 H 5.1503 2.65002 -3.20541 0
M  V30 51 H 3.7273 3.39885 -1.53403 0
M  V30 52 N 5.9124 1.20967 1.01018 0
M  V30 53 C 7.3234 1.02319 1.56165 0
M  V30 54 C 7.6744 -0.418546 1.91684 0
M  V30 55 O 6.7994 -1.30096 1.72928 0
M  V30 56 C 7.3944 1.85109 2.8376 0
M  V30 57 C 5.9534 1.70809 3.35412 0
M  V30 58 C 5.1004 1.82643 2.08655 0
M  V30 59 H 8.0514 1.35065 0.833255 0
M  V30 60 H 8.0724 1.35827 3.55431 0
M  V30 61 H 7.5844 2.90035 2.57878 0
M  V30 62 H 5.6854 0.685464 3.66241 0
M  V30 63 H 5.7984 2.52467 4.07182 0
M  V30 64 H 4.1624 1.25896 2.21409 0
M  V30 65 H 4.9454 2.89066 1.85191 0
M  V30 66 N 7.3905 -1.2043 1.01659 0
M  V30 67 C 8.3205 -2.25466 0.607226 0
M  V30 68 C 9.3015 -1.65853 -0.377716 0
M  V30 69 O 10.4865 -1.92409 -0.263149 0
M  V30 70 C 7.6165 -3.47256 -0.0552949 0
M  V30 71 C 6.5705 -4.19462 0.850632 0
M  V30 72 C 5.8965 -5.34673 0.0538859 0
M  V30 73 C 7.1965 -4.75603 2.15868 0
M  V30 74 H 8.8905 -2.59962 1.48526 0
M  V30 75 H 6.4365 -1.2496 0.715605 0
M  V30 76 H 8.3895 -4.19917 -0.353233 0
M  V30 77 H 7.1135 -3.11924 -0.968045 0
M  V30 78 H 5.7725 -3.48667 1.13257 0
M  V30 79 H 5.4205 -4.95585 -0.860514 0
M  V30 80 H 5.1205 -5.83913 0.657192 0
M  V30 81 H 6.6445 -6.10138 -0.237598 0
M  V30 82 H 8.0585 -5.40083 1.92311 0
M  V30 83 H 6.4555 -5.3528 2.71284 0
M  V30 84 H 7.5255 -3.94346 2.82169 0
M  V30 85 N 8.8686 -0.792821 -1.36206 0
M  V30 86 C 10.0936 -0.377701 -2.03932 0
M  V30 87 C 10.5186 0.998947 -1.59382 0
M  V30 88 O 9.8766 1.64421 -0.763903 0
M  V30 89 C 9.9246 -0.453635 -3.57735 0
M  V30 90 O 9.0286 0.538151 -4.08874 0
M  V30 91 H 8.3696 -0.159855 -0.644471 0
M  V30 92 H 10.8996 -1.07488 -1.7409 0
M  V30 93 H 10.9096 -0.318464 -4.06755 0
M  V30 94 H 9.5846 -1.45784 -3.89512 0
M  V30 95 H 8.1616 0.364359 -3.71116 0
M  V30 96 N 10.3467 1.47872 -0.545128 0
M  V30 97 C 11.2937 2.29849 0.2093 0
M  V30 98 C 12.2637 1.38313 0.919707 0
M  V30 99 O 13.4487 1.67277 0.917772 0
M  V30 100 C 10.5887 3.22019 1.24088 0
M  V30 101 C 9.7017 4.2864 0.537778 0
M  V30 102 C 8.8367 5.07973 1.5536 0
M  V30 103 C 7.8757 6.06381 0.8348 0
M  V30 104 N 7.0127 6.78717 1.79688 0
M  V30 105 H 11.8527 2.93845 -0.49591 0
M  V30 106 H 9.3897 1.44848 -0.256389 0
M  V30 107 H 11.3477 3.73868 1.85144 0
M  V30 108 H 9.9777 2.59914 1.91428 0
M  V30 109 H 9.0297 3.7994 -0.187046 0
M  V30 110 H 10.3417 4.98793 -0.0258907 0
M  V30 111 H 9.4957 5.63912 2.23803 0
M  V30 112 H 8.2347 4.37693 2.15118 0
M  V30 113 H 7.2397 5.49631 0.136388 0
M  V30 114 H 8.4647 6.78665 0.24313 0
M  V30 115 H 6.4107 6.11177 2.38326 0
M  V30 116 H 6.3277 7.44998 1.28505 0
M  V30 117 H 7.5957 7.39237 2.47282 0
M  V30 118 N 11.8248 0.280983 1.55075 0
M  V30 119 C 12.7718 -0.603937 2.22758 0
M  V30 120 C 13.7418 -1.1452 1.20309 0
M  V30 121 O 14.9268 -1.19343 1.48869 0
M  V30 122 C 12.0668 -1.77947 2.95684 0
M  V30 123 C 11.1798 -1.2715 4.12864 0
M  V30 124 C 10.3148 -2.4093 4.7342 0
M  V30 125 C 9.3538 -1.87165 5.82783 0
M  V30 126 N 8.4908 -2.94441 6.37377 0
M  V30 127 H 13.3308 -0.020124 2.97993 0
M  V30 128 H 10.8678 0.00183425 1.471 0
M  V30 129 H 12.8258 -2.47055 3.36184 0
M  V30 130 H 11.4558 -2.33522 2.22861 0
M  V30 131 H 10.5078 -0.473331 3.77444 0
M  V30 132 H 11.8198 -0.837751 4.91715 0
M  V30 133 H 10.9738 -3.18021 5.1667 0
M  V30 134 H 9.7128 -2.87623 3.93859 0
M  V30 135 H 8.7178 -1.08556 5.38976 0
M  V30 136 H 9.9428 -1.41401 6.64216 0
M  V30 137 H 7.8888 -3.40505 5.60707 0
M  V30 138 H 7.8058 -2.55501 7.11516 0
M  V30 139 H 9.0738 -3.71489 6.85285 0
M  V30 140 N 13.3029 -1.57598 0.00835791 0
M  V30 141 C 14.7189 -1.55764 -0.347822 0
M  V30 142 C 14.9189 -1.01186 -1.74252 0
M  V30 143 O 13.9749 -0.649371 -2.44007 0
M  V30 144 C 15.2879 -2.99927 -0.215407 0
M  V30 145 C 16.8359 -3.11656 -0.289725 0
M  V30 146 C 17.3109 -4.57621 -0.18634 0
M  V30 147 N 18.8019 -4.62557 -0.243978 0
M  V30 148 C 19.5369 -5.73094 -0.18745 0
M  V30 149 N 19.0329 -6.92753 -0.0810331 0
M  V30 150 N 20.8259 -5.61588 -0.239925 0
M  V30 151 H 12.9769 -1.91411 0.92062 0
M  V30 152 H 15.2399 -0.879562 0.353659 0
M  V30 153 H 14.9459 -3.43729 0.744512 0
M  V30 154 H 14.8199 -3.63865 -0.994097 0
M  V30 155 H 17.2069 -2.67779 -1.24009 0
M  V30 156 H 17.2879 -2.5048 0.51898 0
M  V30 157 H 16.9319 -5.02174 0.760519 0
M  V30 158 H 16.8619 -5.16752 -1.01364 0
M  V30 159 H 19.3529 -3.76481 -0.327217 0
M  V30 160 H 19.6659 -7.72787 -0.0440241 0
M  V30 161 H 18.0109 -6.94984 -0.0465419 0
M  V30 162 H 21.2019 -4.66996 -0.321317 0
M  V30 163 H 21.3749 -6.47714 -0.192407 0
M  V30 164 N 14.781 0.264519 -1.55364 0
M  V30 165 C 16.197 0.61215 -1.47394 0
M  V30 166 C 16.397 1.89134 -0.695018 0
M  V30 167 O 15.453 2.51563 -0.217275 0
M  V30 168 C 16.766 0.731235 -2.91674 0
M  V30 169 C 18.314 0.82473 -3.01939 0
M  V30 170 C 18.789 0.975522 -4.4749 0
M  V30 171 N 20.28 1.04083 -4.51354 0
M  V30 172 C 21.015 1.17646 -5.61201 0
M  V30 173 N 20.511 1.27874 -6.80896 0
M  V30 174 N 22.304 1.20823 -5.48961 0
M  V30 175 H 14.455 -0.575456 -2.04456 0
M  V30 176 H 16.718 -0.196099 -0.927496 0
M  V30 177 H 16.424 -0.138392 -3.51428 0
M  V30 178 H 16.298 1.60883 -3.41169 0
M  V30 179 H 18.685 1.68482 -2.42276 0
M  V30 180 H 18.766 -0.0776479 -2.55682 0
M  V30 181 H 18.41 0.120058 -5.07758 0
M  V30 182 H 18.34 1.89268 -4.91412 0
M  V30 183 H 20.831 0.973846 -3.65136 0
M  V30 184 H 21.144 1.38081 -7.60364 0
M  V30 185 H 19.489 1.24863 -6.83692 0
M  V30 186 H 22.68 1.12469 -4.54388 0
M  V30 187 H 22.853 1.31049 -6.3461 0
M  V30 188 N 16.2591 1.48442 0.529413 0
M  V30 189 C 17.5051 1.5672 1.28711 0
M  V30 190 C 17.8381 0.2406 1.92704 0
M  V30 191 O 17.1131 -0.753454 1.79313 0
M  V30 192 C 17.3961 2.70587 2.37603 0
M  V30 193 C 17.2491 4.12953 1.78297 0
M  V30 194 C 18.5681 2.80212 3.39366 0
M  V30 195 H 15.6871 0.570474 0.466613 0
M  V30 196 H 18.3291 1.80617 0.589706 0
M  V30 197 H 16.4791 2.50342 2.97088 0
M  V30 198 H 18.1511 4.44639 1.22858 0
M  V30 199 H 16.3941 4.19927 1.0883 0
M  V30 200 H 17.0651 4.88448 2.57144 0
M  V30 201 H 19.5411 2.98553 2.89836 0
M  V30 202 H 18.4171 3.61611 4.12951 0
M  V30 203 H 18.6781 1.88393 3.99951 0
M  V30 204 N 17.7372 -0.778329 1.37039 0
M  V30 205 C 18.9622 -1.57248 1.35233 0
M  V30 206 C 19.3872 -1.87999 -0.0615568 0
M  V30 207 O 18.7452 -1.48734 -1.03672 0
M  V30 208 C 18.7932 -2.86353 2.19167 0
M  V30 209 O 17.8972 -3.80442 1.59178 0
M  V30 210 H 17.2382 -0.476569 0.462362 0
M  V30 211 H 19.7682 -0.963853 1.80474 0
M  V30 212 H 19.7782 -3.35519 2.32145 0
M  V30 213 H 18.4532 -2.63299 3.21942 0
M  V30 214 H 17.0302 -3.39067 1.55203 0
M  V30 215 N 19.2153 -1.21501 -1.00376 0
M  V30 216 C 20.4633 -1.03095 -1.73827 0
M  V30 217 C 20.7843 0.436341 -1.90055 0
M  V30 218 O 20.0543 1.31466 -1.45236 0
M  V30 219 H 18.6343 -0.378487 -0.644016 0
M  V30 220 H 21.2963 -1.52831 -1.20949 0
M  V30 221 H 20.3923 -1.49991 -2.73695 0
M  V30 222 N 20.6934 1.19889 -1.02296 0
M  V30 223 C 22.1044 1.71124 -0.746568 0
M  V30 224 C 22.4554 1.81939 0.734335 0
M  V30 225 O 21.5804 1.48639 1.57275 0
M  V30 226 C 22.1754 3.10804 -1.34857 0
M  V30 227 C 20.7344 3.59323 -1.1209 0
M  V30 228 C 19.8814 2.3635 -1.45031 0
M  V30 229 H 22.8324 1.04813 -1.19163 0
M  V30 230 H 22.8534 3.73186 -0.742437 0
M  V30 231 H 22.3654 3.029 -2.42638 0
M  V30 232 H 20.4664 3.7255 -0.0610337 0
M  V30 233 H 20.5794 4.4378 -1.80544 0
M  V30 234 H 18.9434 2.39399 -0.869487 0
M  V30 235 H 19.7264 2.31081 -2.53883 0
M  V30 236 N 22.1715 0.800033 1.35784 0
M  V30 237 C 23.4485 0.30088 1.93272 0
M  V30 238 C 23.8285 -1.20857 1.73081 0
M  V30 239 O 23.1765 -2.00502 1.09596 0
M  V30 240 C 23.3865 0.70511 3.41803 0
M  V30 241 C 24.7345 0.690871 4.18942 0
M  V30 242 O 25.7585 0.646244 3.50289 0
M  V30 243 O 24.6175 0.74332 5.41421 0
M  V30 244 H 21.7115 0.0771605 0.823393 0
M  V30 245 H 24.2575 0.88329 1.449 0
M  V30 246 H 23.0295 1.74571 3.50201 0
M  V30 247 H 22.6525 0.0971541 3.97481 0
M  V30 248 N 23.6496 -1.47581 0.552962 0
M  V30 249 C 25.0606 -1.86324 0.118463 0
M  V30 250 C 25.4116 -1.46006 -1.3106 0
M  V30 251 O 24.5366 -0.861182 -1.98526 0
M  V30 252 C 25.1316 -3.3816 0.20821 0
M  V30 253 C 23.6906 -3.7601 -0.171226 0
M  V30 254 C 22.8376 -2.71634 0.557686 0
M  V30 255 H 25.7886 -1.39159 0.762928 0
M  V30 256 H 25.8096 -3.76141 -0.574278 0
M  V30 257 H 25.3216 -3.67473 1.24841 0
M  V30 258 H 23.4226 -3.52313 -1.21269 0
M  V30 259 H 23.5356 -4.78745 0.184379 0
M  V30 260 H 21.8996 -2.547 0.00125792 0
M  V30 261 H 22.6826 -3.0379 1.59896 0
M  V30 262 N 25.1277 -0.289203 -1.54924 0
M  V30 263 C 26.0747 0.592115 -2.23075 0
M  V30 264 C 27.0447 1.13881 -1.20915 0
M  V30 265 O 28.2297 1.18551 -1.495 0
M  V30 266 C 25.3697 1.76376 -2.96623 0
M  V30 267 C 24.4827 1.24959 -4.13533 0
M  V30 268 C 23.6177 2.38416 -4.74691 0
M  V30 269 C 22.6567 1.84072 -5.83767 0
M  V30 270 N 21.7937 2.91057 -6.38929 0
M  V30 271 H 26.6337 0.00432038 -2.98 0
M  V30 272 H 24.1707 -0.00963529 -1.47097 0
M  V30 273 H 26.1287 2.45268 -3.3749 0
M  V30 274 H 24.7587 2.32337 -2.24097 0
M  V30 275 H 23.8107 0.453307 -3.77689 0
M  V30 276 H 25.1227 0.811662 -4.92152 0
M  V30 277 H 24.2767 3.15276 -5.18349 0
M  V30 278 H 23.0157 2.8553 -3.95378 0
M  V30 279 H 22.0207 1.05697 -5.39545 0
M  V30 280 H 23.2457 1.37877 -6.64956 0
M  V30 281 H 21.1917 3.37526 -5.62505 0
M  V30 282 H 21.1087 2.51724 -7.12861 0
M  V30 283 H 22.3767 3.6785 -6.87246 0
M  V30 284 N 26.6058 1.57591 -0.0167156 0
M  V30 285 C 28.0168 1.79201 0.523834 0
M  V30 286 C 28.3678 0.925796 1.72984 0
M  V30 287 O 27.4928 0.132792 2.15992 0
M  V30 288 C 28.0878 3.25 0.957091 0
M  V30 289 C 26.6468 3.47648 1.44283 0
M  V30 290 C 25.7938 2.74374 0.401757 0
M  V30 291 H 28.7448 1.56831 -0.242816 0
M  V30 292 H 28.7658 3.34031 1.82219 0
M  V30 293 H 28.2778 3.88019 0.0791415 0
M  V30 294 H 26.3788 2.89866 2.34113 0
M  V30 295 H 26.4918 4.56352 1.45877 0
M  V30 296 H 24.8558 2.39485 0.867121 0
M  V30 297 H 25.6388 3.40102 -0.467513 0
M  V30 298 N 28.0839 -0.256276 1.55502 0
M  V30 299 C 29.3319 -0.983672 1.76545 0
M  V30 300 C 29.6529 -1.86206 0.578982 0
M  V30 301 O 28.9229 -1.91656 -0.405577 0
M  V30 302 H 27.5029 -0.366191 0.651086 0
M  V30 303 H 30.1649 -0.276479 1.92929 0
M  V30 304 H 29.2609 -1.61087 2.67315 0
M  V30 305 N 29.562 -1.4872 -0.521534 0
M  V30 306 C 30.787 -1.61101 -1.30618 0
M  V30 307 C 31.212 -0.274611 -1.86085 0
M  V30 308 O 30.57 0.754937 -1.64834 0
M  V30 309 C 30.618 -2.66709 -2.4269 0
M  V30 310 O 29.722 -2.24456 -3.45967 0
M  V30 311 H 29.063 -0.539921 -0.386499 0
M  V30 312 H 31.593 -1.94767 -0.626645 0
M  V30 313 H 31.603 -2.88245 -2.88754 0
M  V30 314 H 30.278 -3.63727 -2.01682 0
M  V30 315 H 28.855 -2.13168 -3.05964 0
M  V30 316 N 31.0401 0.771051 -1.3745 0
M  V30 317 C 31.9881 1.90574 -1.33358 0
M  V30 318 C 32.9821 1.67936 -0.22224 0
M  V30 319 O 34.1881 1.75717 -0.390304 0
M  V30 320 H 30.5631 0.626714 -0.415612 0
M  V30 321 H 32.5341 1.91142 -2.29144 0
M  V30 322 C 31.2831 3.27845 -1.15813 0
M  V30 323 H 30.6061 3.45842 -2.00583 0
M  V30 324 H 32.0461 4.07538 -1.17 0
M  V30 325 C 30.5051 3.36625 0.136165 0
M  V30 326 O 31.0351 3.85785 1.11949 0
M  V30 327 N 29.2411 2.89997 0.187099 0
M  V30 328 H 28.7881 2.50182 -0.613753 0
M  V30 329 H 28.7461 2.96252 1.05272 0
M  V30 330 N 32.5182 1.22032 0.997298 0
M  V30 331 C 33.7582 1.05375 1.75144 0
M  V30 332 C 34.1222 -0.404696 1.87686 0
M  V30 333 O 35.3232 -0.691998 2.5974 0
M  V30 334 C 33.5942 1.74046 3.12158 0
M  V30 335 S 35.1532 1.72745 4.03366 0
M  V30 336 H 31.9712 0.377449 0.602539 0
M  V30 337 H 34.5732 1.54902 1.19272 0
M  V30 338 H 33.2772 2.79332 3.00669 0
M  V30 339 H 32.8082 1.24731 3.73103 0
M  V30 340 H 34.8232 0.774015 4.90126 0
M  V30 341 N 33.9963 -1.19345 1.0293 0
M  V30 342 C 35.2213 -1.93538 0.745511 0
M  V30 343 C 35.6463 -1.75007 -0.689511 0
M  V30 344 O 35.0043 -1.05265 -1.47611 0
M  V30 345 C 35.0523 -3.43336 1.10239 0
M  V30 346 O 34.1563 -4.11806 0.221289 0
M  V30 347 H 33.4973 -0.604193 0.275404 0
M  V30 348 H 36.0273 -1.5141 1.37609 0
M  V30 349 H 36.0373 -3.94004 1.05947 0
M  V30 350 H 34.7123 -3.56146 2.14786 0
M  V30 351 H 33.2893 -3.715 0.322842 0
M  V30 352 N 35.4744 -0.807222 -1.35358 0
M  V30 353 C 36.8854 -0.44876 -1.81226 0
M  V30 354 C 37.2364 1.02929 -1.67033 0
M  V30 355 O 36.3614 1.79991 -1.20133 0
M  V30 356 C 36.9564 -0.807774 -3.2903 0
M  V30 357 C 35.5154 -0.501901 -3.73039 0
M  V30 358 C 34.6624 -1.03304 -2.57339 0
M  V30 359 H 37.6134 -0.998808 -1.23327 0
M  V30 360 H 37.6344 -0.10554 -3.80354 0
M  V30 361 H 37.1464 -1.88357 -3.39328 0
M  V30 362 H 35.2474 0.565128 -3.68289 0
M  V30 363 H 35.3604 -1.03497 -4.67787 0
M  V30 364 H 33.7244 -0.455339 -2.50597 0
M  V30 365 H 34.5074 -2.11496 -2.70415 0
M  V30 366 N 36.9525 1.47285 -0.560781 0
M  V30 367 C 37.9155 2.28535 0.174488 0
M  V30 368 C 38.9155 1.37153 0.839388 0
M  V30 369 O 40.1055 1.59748 0.694702 0
M  V30 370 C 37.2375 3.16934 1.25561 0
M  V30 371 H 38.4305 2.95012 -0.539262 0
M  V30 372 H 35.9835 1.53034 -0.317865 0
M  V30 373 H 36.7185 2.55157 2.00164 0
M  V30 374 H 36.5035 3.8419 0.783604 0
M  V30 375 H 37.9935 3.78143 1.77193 0
M  V30 376 N 38.4306 0.297415 1.54768 0
M  V30 377 C 39.3626 -0.613881 2.20826 0
M  V30 378 C 40.3756 -1.10032 1.19987 0
M  V30 379 O 41.5646 -1.01839 1.46598 0
M  V30 380 C 38.6646 -1.852 2.83821 0
M  V30 381 C 37.8376 -1.50865 4.10559 0
M  V30 382 C 36.8966 -2.60154 4.57391 0
M  V30 383 O 35.9226 -2.25398 5.2267 0
M  V30 384 N 37.1246 -3.90629 4.29406 0
M  V30 385 H 39.8896 -0.048389 2.99661 0
M  V30 386 H 37.4506 0.11946 1.61459 0
M  V30 387 H 39.4426 -2.57652 3.12086 0
M  V30 388 H 38.0126 -2.32597 2.08847 0
M  V30 389 H 37.2326 -0.616925 3.89343 0
M  V30 390 H 38.5206 -1.25458 4.9309 0
M  V30 391 H 37.9186 -4.21677 3.77101 0
M  V30 392 H 36.4756 -4.59391 4.62388 0
M  V30 393 N 39.9087 -1.5758 0.0250728 0
M  V30 394 C 41.1337 -1.96337 -0.668317 0
M  V30 395 C 41.5587 -0.901314 -1.651 0
M  V30 396 O 40.9167 0.138187 -1.80773 0
M  V30 397 C 40.9647 -3.34191 -1.35457 0
M  V30 398 O 40.0687 -3.30269 -2.46974 0
M  V30 399 H 39.4097 -0.640281 -0.175887 0
M  V30 400 H 41.9397 -2.0442 0.0857224 0
M  V30 401 H 41.9497 -3.70331 -1.71228 0
M  V30 402 H 40.6247 -4.11036 -0.634218 0
M  V30 403 H 39.2017 -3.05841 -2.13344 0
M  V30 404 N 41.3868 0.248026 -1.55636 0
M  V30 405 C 42.6328 0.97767 -1.77678 0
M  V30 406 C 42.9658 1.85016 -0.590135 0
M  V30 407 O 42.2408 1.90095 0.411611 0
M  V30 408 C 42.5238 1.83914 -3.09593 0
M  V30 409 C 42.3768 0.99491 -4.38659 0
M  V30 410 C 43.6958 2.82183 -3.37729 0
M  V30 411 H 40.8148 0.354005 -0.646413 0
M  V30 412 H 43.4568 0.248253 -1.88371 0
M  V30 413 H 41.6068 2.46104 -3.00608 0
M  V30 414 H 43.2788 0.391789 -4.59633 0
M  V30 415 H 41.5218 0.299231 -4.32767 0
M  V30 416 H 42.1928 1.63145 -5.2734 0
M  V30 417 H 44.6688 2.30129 -3.4667 0
M  V30 418 H 43.5448 3.39582 -4.31249 0
M  V30 419 H 43.8058 3.58588 -2.58586 0
M  V30 420 N 42.8649 1.48995 0.513639 0
M  V30 421 C 43.7949 1.67636 1.62544 0
M  V30 422 C 44.7759 0.525087 1.61793 0
M  V30 423 O 45.9609 0.759502 1.78732 0
M  V30 424 C 43.0909 1.73114 3.01079 0
M  V30 425 C 42.0449 2.87905 3.16693 0
M  V30 426 C 41.3709 2.78486 4.56453 0
M  V30 427 C 42.6709 4.29005 2.97913 0
M  V30 428 H 44.3649 2.60716 1.47198 0
M  V30 429 H 41.9109 1.25465 0.706714 0
M  V30 430 H 43.8639 1.84742 3.78746 0
M  V30 431 H 42.5879 0.766241 3.17484 0
M  V30 432 H 41.2469 2.75859 2.41448 0
M  V30 433 H 40.8949 1.7993 4.69717 0
M  V30 434 H 40.5949 3.55523 4.67843 0
M  V30 435 H 42.1189 2.92104 5.36197 0
M  V30 436 H 43.5329 4.41798 3.65359 0
M  V30 437 H 41.9299 5.07166 3.20785 0
M  V30 438 H 42.9999 4.44329 1.94165 0
M  V30 439 N 44.343 -0.763751 1.37857 0
M  V30 440 C 45.568 -1.55805 1.36893 0
M  V30 441 C 45.993 -1.88054 -0.0416135 0
M  V30 442 O 45.351 -1.49825 -1.02089 0
M  V30 443 C 45.399 -2.84012 2.22192 0
M  V30 444 O 44.503 -3.78732 1.63204 0
M  V30 445 H 43.844 -0.471638 0.46739 0
M  V30 446 H 46.374 -0.944657 1.81487 0
M  V30 447 H 46.384 -3.33037 2.35691 0
M  V30 448 H 45.059 -2.59869 3.24716 0
M  V30 449 H 43.636 -3.37402 1.58791 0
M  V30 450 N 45.8211 -1.22559 -0.990812 0
M  V30 451 C 46.7311 -1.01394 -2.11557 0
M  V30 452 C 47.7471 0.0383962 -1.73958 0
M  V30 453 O 48.9231 -0.154787 -2.00804 0
M  V30 454 C 45.9881 -0.596569 -3.41529 0
M  V30 455 C 45.0491 -1.72276 -3.93217 0
M  V30 456 C 44.2821 -1.32521 -5.16985 0
M  V30 457 O 44.5051 -0.204909 -5.70032 0
M  V30 458 O 43.4391 -2.14247 -5.62478 0
M  V30 459 H 47.2651 -1.95633 -2.32296 0
M  V30 460 H 44.8501 -1.01172 -1.0993 0
M  V30 461 H 46.7321 -0.374263 -4.19735 0
M  V30 462 H 45.4071 0.316939 -3.22145 0
M  V30 463 H 44.3141 -1.99961 -3.16174 0
M  V30 464 H 45.6471 -2.61421 -4.17037 0
M  V30 465 N 47.2992 1.18797 -1.03562 0
M  V30 466 C 48.5452 1.8893 -0.737113 0
M  V30 467 C 48.8782 1.79837 0.732956 0
M  V30 468 O 48.1532 1.19525 1.5344 0
M  V30 469 C 48.4362 3.39607 -1.19745 0
M  V30 470 C 48.2892 3.57537 -2.72924 0
M  V30 471 C 49.6082 4.33069 -0.783526 0
M  V30 472 H 46.7272 0.686057 -0.269249 0
M  V30 473 H 49.3692 1.39797 -1.28673 0
M  V30 474 H 47.5192 3.81583 -0.729855 0
M  V30 475 H 49.1912 3.24688 -3.27682 0
M  V30 476 H 47.4342 3.00363 -3.12993 0
M  V30 477 H 48.1052 4.63238 -3.00191 0
M  V30 478 H 50.5812 3.98846 -1.18581 0
M  V30 479 H 49.4572 5.3707 -1.13343 0
M  V30 480 H 49.7182 4.40986 0.313681 0
M  V30 481 N 48.7773 0.814389 1.34928 0
M  V30 482 C 50.1883 0.458364 1.80986 0
M  V30 483 C 50.5393 -1.02042 1.67577 0
M  V30 484 O 49.6643 -1.79352 1.21086 0
M  V30 485 C 50.2593 0.825212 3.28597 0
M  V30 486 C 48.8183 0.521677 3.72767 0
M  V30 487 C 47.9653 1.04668 2.56788 0
M  V30 488 H 50.9163 1.00533 1.22795 0
M  V30 489 H 50.9373 0.12571 3.80292 0
M  V30 490 H 50.4493 1.90154 3.38324 0
M  V30 491 H 48.5503 -0.545589 3.68584 0
M  V30 492 H 48.6633 1.05977 4.67232 0
M  V30 493 H 47.0273 0.468622 2.50352 0
M  V30 494 H 47.8103 2.12927 2.6929 0
M  V30 495 N 50.2554 -1.46986 0.568584 0
M  V30 496 C 51.4804 -2.07335 0.0520528 0
M  V30 497 C 51.9054 -1.41675 -1.23733 0
M  V30 498 O 51.2634 -0.495623 -1.74394 0
M  V30 499 C 51.3114 -3.60417 -0.11501 0
M  V30 500 O 50.4154 -3.95309 -1.17492 0
M  V30 501 H 49.7564 -0.661597 0.0564385 0
M  V30 502 H 52.2864 -1.88837 0.787507 0
M  V30 503 H 52.2964 -4.06698 -0.325644 0
M  V30 504 H 50.9714 -4.07601 0.826675 0
M  V30 505 H 49.5484 -3.60757 -0.943869 0
M  V30 506 N 51.7335 -0.305618 -1.54608 0
M  V30 507 C 52.9795 0.302746 -2.00528 0
M  V30 508 C 53.3125 1.53184 -1.19367 0
M  V30 509 O 52.5875 1.92598 -0.271321 0
M  V30 510 C 52.8705 0.654756 -3.54097 0
M  V30 511 C 52.7235 -0.583793 -4.45995 0
M  V30 512 C 54.0425 1.47947 -4.14487 0
M  V30 513 H 51.1615 0.108564 -0.72896 0
M  V30 514 H 53.8035 -0.418634 -1.85331 0
M  V30 515 H 51.9535 1.26935 -3.67178 0
M  V30 516 H 53.6255 -1.22224 -4.44814 0
M  V30 517 H 51.8685 -1.21615 -4.16404 0
M  V30 518 H 52.5395 -0.293287 -5.5122 0
M  V30 519 H 55.0155 0.96013 -4.04871 0
M  V30 520 H 53.8915 1.69454 -5.22088 0
M  V30 521 H 54.1525 2.47011 -3.66658 0
M  V30 522 N 53.2116 1.57565 -0.0334293 0
M  V30 523 C 54.6226 1.79746 0.504798 0
M  V30 524 C 54.9736 0.944091 1.71992 0
M  V30 525 O 54.0986 0.155694 2.15839 0
M  V30 526 C 54.6936 3.25997 0.922567 0
M  V30 527 C 53.2526 3.49159 1.40588 0
M  V30 528 C 52.3996 2.74785 0.372633 0
M  V30 529 H 55.3506 1.56565 -0.259436 0
M  V30 530 H 55.3716 3.35945 1.78666 0
M  V30 531 H 54.8836 3.88081 0.0379825 0
M  V30 532 H 52.9846 2.92332 2.31025 0
M  V30 533 H 53.0976 4.57873 1.41028 0
M  V30 534 H 51.4616 2.40391 0.841672 0
M  V30 535 H 52.2446 3.39587 -0.503559 0
M  V30 536 N 54.6897 -0.239769 1.55765 0
M  V30 537 C 55.9177 -0.98417 1.81994 0
M  V30 538 C 56.3327 -1.7867 0.610124 0
M  V30 539 O 55.6897 -1.77571 -0.421271 0
M  V30 540 C 55.7407 -1.91635 3.06526 0
M  V30 541 O 55.4617 -1.14629 4.22838 0
M  V30 542 C 56.9627 -2.77616 3.45607 0
M  V30 543 H 54.1827 -0.28928 0.605441 0
M  V30 544 H 56.7267 -0.260499 2.02834 0
M  V30 545 H 54.8817 -2.5942 2.87715 0
M  V30 546 H 55.2957 -1.77745 4.93464 0
M  V30 547 H 56.7697 -3.38759 4.35828 0
M  V30 548 H 57.2467 -3.4909 2.6652 0
M  V30 549 H 57.8527 -2.15271 3.66795 0
M  V30 550 N 56.1678 -1.49265 -0.50573 0
M  V30 551 C 57.1158 -1.66065 -1.62866 0
M  V30 552 C 58.1098 -0.526636 -1.61006 0
M  V30 553 O 59.3158 -0.706126 -1.65571 0
M  V30 554 H 55.6908 -0.52356 -0.539805 0
M  V30 555 H 57.6618 -2.60329 -1.45848 0
M  V30 556 C 56.4108 -1.74008 -3.01026 0
M  V30 557 H 55.7338 -2.6064 -3.03161 0
M  V30 558 H 57.1738 -1.89798 -3.79147 0
M  V30 559 C 55.6328 -0.483868 -3.33407 0
M  V30 560 O 56.1628 0.392548 -3.99777 0
M  V30 561 N 54.3688 -0.348236 -2.88506 0
M  V30 562 H 53.9158 -1.06242 -2.34671 0
M  V30 563 H 53.8738 0.491204 -3.10539 0
M  V30 564 N 57.6459 0.756429 -1.3826 0
M  V30 565 C 58.8939 1.51248 -1.34047 0
M  V30 566 C 59.2149 1.94875 0.0698372 0
M  V30 567 O 58.4849 1.67436 1.01696 0
M  V30 568 H 57.0649 0.561018 -0.493222 0
M  V30 569 H 59.7269 0.899347 -1.7291 0
M  V30 570 H 58.8229 2.40472 -1.98947 0
M  V30 571 N 59.124 1.23083 0.984299 0
M  V30 572 C 60.057 0.951786 2.07404 0
M  V30 573 C 61.035 -0.10848 1.62238 0
M  V30 574 O 62.219 0.0249467 1.88483 0
M  V30 575 C 59.346 0.433142 3.35919 0
M  V30 576 C 58.392 1.47941 4.0002 0
M  V30 577 S 59.225 3.05556 4.39768 0
M  V30 578 C 60.381 2.55351 5.71442 0
M  V30 579 H 60.614 1.87456 2.30754 0
M  V30 580 H 58.147 1.06284 1.11996 0
M  V30 581 H 60.105 0.140506 4.10259 0
M  V30 582 H 58.766 -0.468656 3.10584 0
M  V30 583 H 57.959 1.06658 4.92585 0
M  V30 584 H 57.561 1.7212 3.3204 0
M  V30 585 H 59.853 1.97128 6.48187 0
M  V30 586 H 60.796 3.46441 6.17563 0
M  V30 587 H 61.204 1.96339 5.29255 0
M  V30 588 N 60.6021 -1.18246 1.0419 0
M  V30 589 C 61.5651 -2.20128 0.638452 0
M  V30 590 C 62.5651 -1.57885 -0.304805 0
M  V30 591 O 63.7551 -1.73967 -0.0900369 0
M  V30 592 C 60.8871 -3.4084 -0.0637751 0
M  V30 593 H 62.0801 -2.57336 1.54007 0
M  V30 594 H 59.6331 -1.32152 0.834598 0
M  V30 595 H 60.3681 -3.09166 -0.979136 0
M  V30 596 H 60.1531 -3.8726 0.614198 0
M  V30 597 H 61.6431 -4.16274 -0.332512 0
M  V30 598 N 62.0802 -0.821533 -1.34494 0
M  V30 599 C 63.0272 -0.240397 -2.29545 0
M  V30 600 C 63.9972 0.634031 -1.53523 0
M  V30 601 O 65.1822 0.575966 -1.81899 0
M  V30 602 C 62.3222 0.592869 -3.39969 0
M  V30 603 C 61.4352 -0.30365 -4.30932 0
M  V30 604 C 60.5702 0.539049 -5.28458 0
M  V30 605 C 59.6092 -0.356942 -6.11058 0
M  V30 606 N 58.7462 0.446603 -7.00678 0
M  V30 607 H 63.5862 -1.05632 -2.7865 0
M  V30 608 H 61.1232 -0.532413 -1.37127 0
M  V30 609 H 63.0812 1.09129 -4.02675 0
M  V30 610 H 61.7112 1.37392 -2.92102 0
M  V30 611 H 60.7632 -0.920276 -3.691 0
M  V30 612 H 62.0752 -0.992661 -4.88823 0
M  V30 613 H 61.2292 1.102 -5.96608 0
M  V30 614 H 59.9682 1.26157 -4.71101 0
M  V30 615 H 58.9732 -0.932047 -5.41842 0
M  V30 616 H 60.1982 -1.07755 -6.70497 0
M  V30 617 H 58.1442 1.15282 -6.45791 0
M  V30 618 H 58.0612 -0.184048 -7.55776 0
M  V30 619 H 59.3292 0.992352 -7.73158 0
M  V30 620 N 63.5583 1.46682 -0.576371 0
M  V30 621 C 64.5063 2.31953 0.17335 0
M  V30 622 C 65.5003 1.44098 0.89062 0
M  V30 623 O 66.7063 1.60759 0.809728 0
M  V30 624 H 63.0813 0.748273 0.0747727 0
M  V30 625 H 65.0523 2.93007 -0.564738 0
M  V30 626 C 63.8013 3.27142 1.17786 0
M  V30 627 H 63.1243 3.94719 0.635361 0
M  V30 628 H 64.5643 3.896 1.67296 0
M  V30 629 C 63.0233 2.52036 2.23561 0
M  V30 630 O 63.5533 2.27877 3.3081 0
M  V30 631 N 61.7593 2.12709 1.97998 0
M  V30 632 H 61.3063 2.32557 1.10792 0
M  V30 633 H 61.2643 1.62776 2.68982 0
M  V30 634 N 65.0364 0.313813 1.54444 0
M  V30 635 C 66.2844 -0.291099 1.99993 0
M  V30 636 C 66.6054 -1.53418 1.20366 0
M  V30 637 O 65.8754 -1.93544 0.302927 0
M  V30 638 H 64.4554 -0.110552 0.738774 0
M  V30 639 H 67.1174 0.428106 1.9014 0
M  V30 640 H 66.2134 -0.554268 3.07139 0
M  V30 641 N 66.5145 -1.57545 0.0417849 0
M  V30 642 C 67.7395 -1.97035 -0.647455 0
M  V30 643 C 68.1645 -0.918775 -1.64135 0
M  V30 644 O 67.5225 0.119006 -1.80909 0
M  V30 645 C 67.5705 -3.35609 -1.31905 0
M  V30 646 O 66.6745 -3.3287 -2.43457 0
M  V30 647 H 66.0155 -0.64211 -0.169086 0
M  V30 648 H 68.5455 -2.04318 0.107399 0
M  V30 649 H 68.5555 -3.72126 -1.67291 0
M  V30 650 H 67.2305 -4.11685 -0.590586 0
M  V30 651 H 65.8075 -3.08087 -2.10088 0
M  V30 652 N 67.9926 0.231505 -1.5589 0
M  V30 653 C 68.9026 1.308 -1.94752 0
M  V30 654 C 69.9186 1.51826 -0.849989 0
M  V30 655 O 71.0946 1.6515 -1.15271 0
M  V30 656 C 68.1596 2.63968 -2.24771 0
M  V30 657 C 67.2206 2.51331 -3.48039 0
M  V30 658 C 66.4536 3.78148 -3.76616 0
M  V30 659 O 66.6766 4.80722 -3.07022 0
M  V30 660 O 65.6106 3.75857 -4.70123 0
M  V30 661 H 69.4366 1.0083 -2.86474 0
M  V30 662 H 67.0216 0.433547 -1.42971 0
M  V30 663 H 68.9036 3.42633 -2.45318 0
M  V30 664 H 67.5786 2.9364 -1.36225 0
M  V30 665 H 66.4856 1.709 -3.32782 0
M  V30 666 H 67.8186 2.26601 -4.36936 0
M  V30 667 N 69.4707 1.49531 0.497807 0
M  V30 668 C 70.4337 1.65916 1.58128 0
M  V30 669 C 71.4337 0.530825 1.51786 0
M  V30 670 O 72.6237 0.797342 1.54881 0
M  V30 671 C 69.7557 1.65951 2.9778 0
M  V30 672 H 70.9487 2.62556 1.44929 0
M  V30 673 H 68.5017 1.38611 0.722275 0
M  V30 674 H 69.2367 0.709065 3.16453 0
M  V30 675 H 69.0217 2.47897 3.03792 0
M  V30 676 H 70.5117 1.80673 3.76493 0
M  V30 677 N 70.9488 -0.749086 1.3866 0
M  V30 678 C 72.2258 -1.4992 1.25632 0
M  V30 679 C 72.6058 -2.10633 -0.140317 0
M  V30 680 O 71.9538 -1.97437 -1.15025 0
M  V30 681 C 72.1638 -2.56195 2.36992 0
M  V30 682 C 73.5118 -3.22972 2.75634 0
M  V30 683 O 74.5358 -2.66502 2.36337 0
M  V30 684 O 73.3948 -4.25122 3.43415 0
M  V30 685 H 70.4888 -0.665067 0.491544 0
M  V30 686 H 73.0348 -0.784113 1.50498 0
M  V30 687 H 71.8068 -2.09612 3.30422 0
M  V30 688 H 71.4298 -3.35279 2.13714 0
M  V30 689 N 72.4269 -1.23603 -0.977757 0
M  V30 690 C 73.6759 -1.06377 -1.71368 0
M  V30 691 C 73.9889 0.399062 -1.91486 0
M  V30 692 O 75.1949 0.691312 -2.62551 0
M  V30 693 C 73.6509 -1.85512 -3.08404 0
M  V30 694 C 73.2589 -3.36141 -2.96164 0
M  V30 695 C 75.0029 -1.76783 -3.85938 0
M  V30 696 C 72.9099 -4.07659 -4.28449 0
M  V30 697 H 71.8399 -0.394452 -0.642591 0
M  V30 698 H 74.4909 -1.47594 -1.09034 0
M  V30 699 H 72.8729 -1.37103 -3.71509 0
M  V30 700 H 74.0469 -3.92056 -2.42133 0
M  V30 701 H 72.3619 -3.45712 -2.32104 0
M  V30 702 H 74.9589 -2.27526 -4.83876 0
M  V30 703 H 75.3019 -0.731116 -4.0983 0
M  V30 704 H 75.8349 -2.22818 -3.2954 0
M  V30 705 H 72.5739 -5.11648 -4.09752 0
M  V30 706 H 72.0939 -3.5653 -4.82334 0
M  V30 707 H 73.7729 -4.141 -4.97122 0
M  V30 708 N 73.905 1.17692 -1.04816 0
M  V30 709 C 75.182 1.83768 -0.669963 0
M  V30 710 C 75.562 1.93232 0.849986 0
M  V30 711 O 74.91 1.46397 1.75443 0
M  V30 712 C 75.12 3.21641 -1.35455 0
M  V30 713 C 76.468 3.97592 -1.49017 0
M  V30 714 O 77.492 3.31107 -1.31326 0
M  V30 715 O 76.351 5.16729 -1.77914 0
M  V30 716 H 73.445 0.792799 -0.235368 0
M  V30 717 H 75.991 1.25021 -1.14751 0
M  V30 718 H 74.763 3.097 -2.39168 0
M  V30 719 H 74.386 3.88052 -0.866107 0
M  V30 720 N 75.3831 0.828654 1.34056 0
M  V30 721 C 76.2931 0.256725 2.33191 0
M  V30 722 C 77.3091 -0.611898 1.62886 0
M  V30 723 O 78.4851 -0.51844 1.94613 0
M  V30 724 C 75.5501 -0.567238 3.42028 0
M  V30 725 C 74.6111 0.324458 4.28072 0
M  V30 726 C 73.8441 -0.460274 5.31712 0
M  V30 727 O 74.0671 -1.693 5.44696 0
M  V30 728 O 73.0011 0.160391 6.01686 0
M  V30 729 H 76.8271 1.07739 2.83947 0
M  V30 730 H 74.4121 0.59093 1.37217 0
M  V30 731 H 76.2941 -1.03582 4.08471 0
M  V30 732 H 74.9691 -1.36513 2.93506 0
M  V30 733 H 73.8761 0.840659 3.64532 0
M  V30 734 H 75.2091 1.08685 4.8005 0
M  V30 735 N 76.8612 -1.46375 0.584142 0
M  V30 736 C 78.1092 -2.01978 0.0701287 0
M  V30 737 C 78.4302 -1.4579 -1.295 0
M  V30 738 O 77.7002 -0.64314 -1.85042 0
M  V30 739 H 76.2802 -0.746648 0.0229345 0
M  V30 740 H 78.9422 -1.79461 0.760245 0
M  V30 741 H 78.0382 -3.121 0.0022064 0
M  V30 742 N 78.3393 -0.321999 -1.54275 0
M  V30 743 C 79.2693 0.537411 -2.27231 0
M  V30 744 C 80.2503 1.12064 -1.27968 0
M  V30 745 O 81.4353 1.14606 -1.56777 0
M  V30 746 C 78.5653 1.69919 -3.02894 0
M  V30 747 C 77.5193 1.24534 -4.09482 0
M  V30 748 C 76.8453 2.49394 -4.72977 0
M  V30 749 C 78.1453 0.361335 -5.21049 0
M  V30 750 H 79.8393 -0.0711406 -2.99315 0
M  V30 751 H 77.3853 -0.0356555 -1.43956 0
M  V30 752 H 79.3383 2.30668 -3.52662 0
M  V30 753 H 78.0623 2.33431 -2.28424 0
M  V30 754 H 76.7213 0.660782 -3.60596 0
M  V30 755 H 76.3693 3.11265 -3.95124 0
M  V30 756 H 76.0693 2.19718 -5.44975 0
M  V30 757 H 77.5933 3.10908 -5.25517 0
M  V30 758 H 79.0073 0.875072 -5.66582 0
M  V30 759 H 77.4043 0.157428 -5.99893 0
M  V30 760 H 78.4743 -0.60822 -4.8107 0
M  V30 761 N 79.8174 1.5752 -0.0501392 0
M  V30 762 C 81.0474 1.96678 0.632573 0
M  V30 763 C 81.4554 0.926298 1.64974 0
M  V30 764 O 80.7984 -0.09802 1.83438 0
M  V30 765 C 80.8604 3.32068 1.37735 0
M  V30 766 C 80.5244 4.54076 0.516131 0
M  V30 767 C 81.5214 5.19445 -0.217357 0
M  V30 768 C 79.2064 5.00304 0.44736 0
M  V30 769 C 81.2004 6.29378 -1.00807 0
M  V30 770 C 78.8874 6.10114 -0.347038 0
M  V30 771 C 79.8854 6.74512 -1.07344 0
M  V30 772 O 79.5734 7.82211 -1.85477 0
M  V30 773 H 79.3054 0.652193 0.177821 0
M  V30 774 H 81.8594 2.05091 -0.112543 0
M  V30 775 H 80.0894 3.20206 2.16807 0
M  V30 776 H 81.7784 3.55981 1.95019 0
M  V30 777 H 82.5444 4.84689 -0.173688 0
M  V30 778 H 78.4234 4.49971 1.00235 0
M  V30 779 H 81.9674 6.79575 -1.57556 0
M  V30 780 H 77.8644 6.44307 -0.392349 0
M  V30 781 H 78.6324 7.98982 -1.77678 0
M  V30 782 N 81.2955 -0.223234 1.56011 0
M  V30 783 C 82.5205 -0.968978 1.83373 0
M  V30 784 C 82.9455 -1.77227 0.630254 0
M  V30 785 O 82.3035 -1.76345 -0.420959 0
M  V30 786 C 82.3515 -1.86363 3.08709 0
M  V30 787 O 81.4555 -2.95873 2.87285 0
M  V30 788 H 80.7965 -0.274461 0.604622 0
M  V30 789 H 83.3265 -0.237056 2.03222 0
M  V30 790 H 83.3365 -2.27376 3.38768 0
M  V30 791 H 82.0115 -1.27319 3.95933 0
M  V30 792 H 80.5885 -2.58818 2.68454 0
M  V30 793 N 82.7736 -1.49793 -0.48987 0
M  V30 794 C 84.1896 -1.36803 -0.822022 0
M  V30 795 C 84.3896 -0.409652 -1.97292 0
M  V30 796 O 83.4456 0.154614 -2.52026 0
M  V30 797 C 84.7586 -2.77768 -1.15175 0
M  V30 798 C 86.3066 -2.86549 -1.25931 0
M  V30 799 C 86.7816 -4.28306 -1.62228 0
M  V30 800 N 88.2726 -4.31169 -1.69256 0
M  V30 801 C 89.0076 -5.37832 -1.98807 0
M  V30 802 N 88.5036 -6.54726 -2.26507 0
M  V30 803 N 90.2966 -5.25258 -2.00152 0
M  V30 804 H 82.4476 -2.10691 0.268881 0
M  V30 805 H 84.7106 -0.946241 0.057728 0
M  V30 806 H 84.4166 -3.49648 -0.379335 0
M  V30 807 H 84.2906 -3.13836 -2.09253 0
M  V30 808 H 86.6776 -2.14899 -2.02243 0
M  V30 809 H 86.7586 -2.54049 -0.298776 0
M  V30 810 H 86.4026 -5.00486 -0.864622 0
M  V30 811 H 86.3326 -4.58279 -2.594 0
M  V30 812 H 88.8236 -3.4687 -1.49965 0
M  V30 813 H 89.1366 -7.31833 -2.48276 0
M  V30 814 H 87.4816 -6.57933 -2.23939 0
M  V30 815 H 90.6726 -4.32938 -1.77996 0
M  V30 816 H 90.8456 -6.08476 -2.22848 0
M  V30 817 N 84.2517 0.741722 -1.39055 0
M  V30 818 C 85.1837 1.8657 -1.33133 0
M  V30 819 C 86.1967 1.61001 -0.241329 0
M  V30 820 O 87.3857 1.7136 -0.499784 0
M  V30 821 C 84.4857 3.22457 -1.04283 0
M  V30 822 C 83.6587 3.75435 -2.24427 0
M  V30 823 C 82.7177 4.89867 -1.92138 0
M  V30 824 O 81.7437 5.03879 -2.64754 0
M  V30 825 N 82.9457 5.73738 -0.88347 0
M  V30 826 H 85.7107 1.92156 -2.29991 0
M  V30 827 H 83.2717 0.922172 -1.3307 0
M  V30 828 H 85.2637 3.9657 -0.807128 0
M  V30 829 H 83.8337 3.12181 -0.161807 0
M  V30 830 H 83.0537 2.92751 -2.6399 0
M  V30 831 H 84.3417 4.07563 -3.04581 0
M  V30 832 H 83.7397 5.64999 -0.281517 0
M  V30 833 H 82.2967 6.47947 -0.707662 0
M  V30 834 N 85.7298 1.2412 0.971189 0
M  V30 835 C 86.6598 1.05508 2.08304 0
M  V30 836 C 87.6408 -0.0308864 1.70072 0
M  V30 837 O 88.8258 0.135521 1.93727 0
M  V30 838 C 85.9558 0.655365 3.4106 0
M  V30 839 C 84.9098 1.68971 3.93234 0
M  V30 840 C 84.2358 1.14516 5.22293 0
M  V30 841 C 85.5358 3.08487 4.21465 0
M  V30 842 H 87.2298 1.98507 2.24132 0
M  V30 843 H 84.7758 0.955821 1.07704 0
M  V30 844 H 86.7288 0.51217 4.18276 0
M  V30 845 H 85.4528 -0.31032 3.25122 0
M  V30 846 H 84.1118 1.82106 3.18171 0
M  V30 847 H 83.7598 0.170189 5.02712 0
M  V30 848 H 83.4598 1.83635 5.58168 0
M  V30 849 H 84.9838 1.01401 6.02121 0
M  V30 850 H 86.3978 2.98601 4.89398 0
M  V30 851 H 84.7948 3.74926 4.68562 0
M  V30 852 H 85.8648 3.56787 3.28376 0
M  V30 853 N 87.2079 -1.17134 1.05439 0
M  V30 854 C 88.4379 -1.91094 0.785274 0
M  V30 855 C 88.8459 -1.77198 -0.663142 0
M  V30 856 O 88.1889 -1.10835 -1.46497 0
M  V30 857 C 88.2509 -3.42594 1.08949 0
M  V30 858 C 87.9149 -3.80274 2.53458 0
M  V30 859 C 88.9119 -3.82912 3.51673 0
M  V30 860 C 86.5969 -4.11162 2.88532 0
M  V30 861 C 88.5909 -4.15913 4.83006 0
M  V30 862 C 86.2779 -4.43831 4.20068 0
M  V30 863 C 87.2759 -4.46185 5.17115 0
M  V30 864 O 86.9639 -4.78083 6.46291 0
M  V30 865 H 86.6959 -0.613073 0.284811 0
M  V30 866 H 89.2499 -1.49461 1.40893 0
M  V30 867 H 87.4799 -3.84534 0.408741 0
M  V30 868 H 89.1689 -3.97817 0.805991 0
M  V30 869 H 89.9349 -3.5917 3.25917 0
M  V30 870 H 85.8139 -4.085 2.13656 0
M  V30 871 H 89.3579 -4.17665 5.5875 0
M  V30 872 H 85.2549 -4.67037 4.45586 0
M  V30 873 H 86.0229 -4.9593 6.51149 0
M  V30 874 N 88.686 -0.835752 -1.33615 0
M  V30 875 C 89.932 -0.430596 -1.98176 0
M  V30 876 C 90.265 1.00684 -1.66061 0
M  V30 877 O 89.54 1.70339 -0.938877 0
M  V30 878 C 89.823 -0.648065 -3.5422 0
M  V30 879 C 89.676 -2.13255 -3.96033 0
M  V30 880 C 90.995 -0.0922113 -4.40003 0
M  V30 881 H 88.114 -0.157924 -0.719881 0
M  V30 882 H 90.756 -1.05069 -1.58305 0
M  V30 883 H 88.906 -0.120237 -3.88314 0
M  V30 884 H 90.578 -2.725 -3.72211 0
M  V30 885 H 88.821 -2.61823 -3.45878 0
M  V30 886 H 89.492 -2.23547 -5.04708 0
M  V30 887 H 91.968 -0.543343 -4.12537 0
M  V30 888 H 90.844 -0.274083 -5.48215 0
M  V30 889 H 91.105 1.00378 -4.30554 0
M  V30 890 N 90.1641 1.46063 -0.591896 0
M  V30 891 C 91.0941 2.33172 0.123673 0
M  V30 892 C 92.0751 1.45897 0.87453 0
M  V30 893 O 93.2601 1.74698 0.848181 0
M  V30 894 C 90.3901 3.28336 1.13194 0
M  V30 895 C 89.3441 4.25124 0.495324 0
M  V30 896 C 88.6701 5.09863 1.61071 0
M  V30 897 C 89.9701 5.19143 -0.573425 0
M  V30 898 H 91.6641 2.93252 -0.603646 0
M  V30 899 H 89.2101 1.41014 -0.291741 0
M  V30 900 H 91.1631 3.88137 1.64097 0
M  V30 901 H 89.8871 2.66383 1.88965 0
M  V30 902 H 88.5461 3.66599 0.00729452 0
M  V30 903 H 88.1941 4.44288 2.35832 0
M  V30 904 H 87.8941 5.75417 1.19035 0
M  V30 905 H 89.4181 5.72529 2.12233 0
M  V30 906 H 90.8321 5.73106 -0.1491 0
M  V30 907 H 89.2291 5.93089 -0.914636 0
M  V30 908 H 90.2991 4.62519 -1.45617 0
M  V30 909 N 91.6422 0.330177 1.54103 0
M  V30 910 C 92.8902 -0.269871 2.0029 0
M  V30 911 C 93.2112 -1.52133 1.21986 0
M  V30 912 O 92.4812 -1.93212 0.323438 0
M  V30 913 H 91.0612 -0.10271 0.739905 0
M  V30 914 H 93.7232 0.448249 1.89675 0
M  V30 915 H 92.8192 -0.52166 3.07709 0
M  V30 916 N 93.1203 -1.57491 0.0584922 0
M  V30 917 C 94.0703 -2.08474 -0.923188 0
M  V30 918 C 95.0543 -0.991479 -1.26722 0
M  V30 919 O 96.2463 -1.25473 -1.24842 0
M  V30 920 C 93.3753 -2.6392 -2.19548 0
M  V30 921 C 92.4613 -3.80227 -1.87852 0
M  V30 922 N 92.8523 -4.89714 -1.26546 0
M  V30 923 C 91.1503 -3.89271 -2.17679 0
M  V30 924 C 91.8513 -5.70689 -1.12644 0
M  V30 925 N 90.8273 -5.18531 -1.63176 0
M  V30 926 H 94.6293 -2.90517 -0.444653 0
M  V30 927 H 92.1433 -1.61745 -0.145764 0
M  V30 928 H 94.1403 -2.98752 -2.9078 0
M  V30 929 H 92.8003 -1.83318 -2.68001 0
M  V30 930 H 93.8113 -5.09358 -0.936757 0
M  V30 931 H 90.4883 -3.19623 -2.68602 0
M  V30 932 H 91.8783 -6.6875 -0.6499 0
M  V30 933 N 94.5984 0.214957 -1.56127 0
M  V30 934 C 95.5084 1.28727 -1.96129 0
M  V30 935 C 96.5244 1.50916 -0.866044 0
M  V30 936 O 97.7004 1.63918 -1.17016 0
M  V30 937 C 94.7654 2.61569 -2.27558 0
M  V30 938 C 93.8264 2.47625 -3.50685 0
M  V30 939 C 93.0594 3.74132 -3.80606 0
M  V30 940 O 93.2824 4.77438 -3.12104 0
M  V30 941 O 92.2164 3.70849 -4.74083 0
M  V30 942 H 96.0424 0.977855 -2.87527 0
M  V30 943 H 93.6274 0.418358 -1.43423 0
M  V30 944 H 95.5094 3.40012 -2.48938 0
M  V30 945 H 94.1844 2.92178 -1.39332 0
M  V30 946 H 93.0914 1.67361 -3.34576 0
M  V30 947 H 94.4244 2.21954 -4.39315 0
M  V30 948 N 96.0765 1.50051 0.48192 0
M  V30 949 C 97.0395 1.67584 1.5636 0
M  V30 950 C 98.0395 0.546894 1.51214 0
M  V30 951 O 99.2295 0.813725 1.54026 0
M  V30 952 C 96.3615 1.691 2.96003 0
M  V30 953 H 97.5545 2.64078 1.42136 0
M  V30 954 H 95.1075 1.39369 0.707533 0
M  V30 955 H 95.8425 0.742589 3.15684 0
M  V30 956 H 95.6275 2.51105 3.01146 0
M  V30 957 H 97.1175 1.84656 3.74556 0
M  V30 958 N 97.5546 -0.734337 1.39446 0
M  V30 959 C 98.4876 -1.85715 1.32609 0
M  V30 960 C 99.4656 -1.6137 0.199636 0
M  V30 961 O 100.65 -1.84626 0.380195 0
M  V30 962 C 97.7766 -3.21709 1.05929 0
M  V30 963 C 96.8226 -3.64913 2.20773 0
M  V30 964 S 97.6556 -3.74203 3.83056 0
M  V30 965 C 98.8116 -5.12986 3.58603 0
M  V30 966 H 99.0446 -1.91232 2.27635 0
M  V30 967 H 96.5776 -0.899263 1.25509 0
M  V30 968 H 98.5356 -4.00236 0.912203 0
M  V30 969 H 97.1966 -3.13848 0.125883 0
M  V30 970 H 96.3896 -4.63606 1.97699 0
M  V30 971 H 95.9916 -2.93593 2.31688 0
M  V30 972 H 98.2836 -5.99339 3.15909 0
M  V30 973 H 99.2266 -5.41088 4.5676 0
M  V30 974 H 99.6346 -4.82694 2.9269 0
M  V30 975 N 99.0327 -1.24633 -0.964593 0
M  V30 976 C 99.9797 -1.04144 -2.05968 0
M  V30 977 C 100.95 0.046262 -1.66036 0
M  V30 978 O 102.135 -0.108972 -1.90489 0
M  V30 979 C 99.2747 -0.65563 -3.38815 0
M  V30 980 C 98.3877 -1.81714 -3.91923 0
M  V30 981 C 97.5227 -1.37662 -5.13052 0
M  V30 982 C 96.5617 -2.50788 -5.58365 0
M  V30 983 N 95.6987 -2.07582 -6.70712 0
M  V30 984 H 100.539 -1.9787 -2.22827 0
M  V30 985 H 98.0757 -0.9855 -1.09208 0
M  V30 986 H 100.034 -0.412954 -4.15151 0
M  V30 987 H 98.6637 0.244627 -3.21872 0
M  V30 988 H 97.7157 -2.1734 -3.12198 0
M  V30 989 H 99.0277 -2.66705 -4.21509 0
M  V30 990 H 98.1817 -1.093 -5.96773 0
M  V30 991 H 96.9207 -0.497293 -4.85158 0
M  V30 992 H 95.9257 -2.79906 -4.73215 0
M  V30 993 H 97.1507 -3.39283 -5.88272 0
M  V30 994 H 95.0967 -1.22051 -6.44546 0
M  V30 995 H 95.0137 -2.86125 -6.99763 0
M  V30 996 H 96.2817 -1.82369 -7.57867 0
M  V30 997 N 100.511 1.16574 -1.06058 0
M  V30 998 C 101.927 1.3904 -0.783585 0
M  V30 999 C 102.127 1.91784 0.618145 0
M  V30 1000 O 101.183 2.11511 1.37911 0
M  V30 1001 C 102.496 2.37329 -1.84649 0
M  V30 1002 C 104.044 2.51018 -1.86973 0
M  V30 1003 C 104.519 3.52588 -2.92311 0
M  V30 1004 N 106.01 3.60113 -2.91329 0
M  V30 1005 C 106.745 4.38486 -3.69482 0
M  V30 1006 N 106.241 5.20302 -4.57447 0
M  V30 1007 N 108.034 4.33446 -3.57885 0
M  V30 1008 H 100.185 0.806725 -1.96483 0
M  V30 1009 H 102.448 0.417117 -0.851303 0
M  V30 1010 H 102.154 2.05663 -2.85299 0
M  V30 1011 H 102.028 3.36946 -1.6955 0
M  V30 1012 H 104.415 2.81989 -0.869827 0
M  V30 1013 H 104.496 1.51445 -2.0615 0
M  V30 1014 H 104.14 3.22354 -3.92492 0
M  V30 1015 H 104.07 4.51886 -2.70383 0
M  V30 1016 H 106.561 3.01707 -2.27555 0
M  V30 1017 H 106.874 5.77311 -5.13743 0
M  V30 1018 H 105.219 5.19653 -4.61503 0
M  V30 1019 H 108.41 3.68586 -2.88551 0
M  V30 1020 H 108.583 4.94279 -4.19037 0
M  V30 1021 N 101.989 0.842826 1.3317 0
M  V30 1022 C 102.919 0.294028 2.31641 0
M  V30 1023 C 103.9 -0.600401 1.59151 0
M  V30 1024 O 105.085 -0.523124 1.87022 0
M  V30 1025 C 102.215 -0.528416 3.43257 0
M  V30 1026 C 101.169 0.27056 4.27144 0
M  V30 1027 C 100.495 -0.675881 5.30411 0
M  V30 1028 C 101.795 1.48981 5.00602 0
M  V30 1029 H 103.489 1.11681 2.77791 0
M  V30 1030 H 101.035 0.538478 1.33553 0
M  V30 1031 H 102.988 -0.922674 4.11175 0
M  V30 1032 H 101.712 -1.38445 2.95805 0
M  V30 1033 H 100.371 0.646427 3.60856 0
M  V30 1034 H 100.019 -1.52842 4.79216 0
M  V30 1035 H 99.7189 -0.145374 5.8742 0
M  V30 1036 H 101.243 -1.06757 6.01195 0
M  V30 1037 H 102.657 1.16849 5.61266 0
M  V30 1038 H 101.054 1.95739 5.6728 0
M  V30 1039 H 102.124 2.25746 4.29147 0
M  V30 1040 N 103.467 -1.45747 0.599634 0
M  V30 1041 C 104.399 -2.28628 -0.161879 0
M  V30 1042 C 105.412 -1.39494 -0.839367 0
M  V30 1043 O 106.601 -1.63941 -0.706089 0
M  V30 1044 C 103.701 -3.15014 -1.24976 0
M  V30 1045 C 102.874 -4.32378 -0.660935 0
M  V30 1046 C 101.933 -5.00033 -1.63869 0
M  V30 1047 O 100.959 -5.57085 -1.1681 0
M  V30 1048 N 102.161 -4.98589 -2.97303 0
M  V30 1049 H 104.926 -2.94624 0.549265 0
M  V30 1050 H 102.487 -1.55847 0.438565 0
M  V30 1051 H 104.479 -3.5714 -1.9035 0
M  V30 1052 H 103.049 -2.5098 -1.86354 0
M  V30 1053 H 102.269 -3.9383 0.170688 0
M  V30 1054 H 103.557 -5.08197 -0.247619 0
M  V30 1055 H 102.955 -4.53514 -3.38145 0
M  V30 1056 H 101.512 -5.44603 -3.58121 0
M  V30 1057 N 104.945 -0.338344 -1.53925 0
M  V30 1058 C 106.173 0.261298 -2.05243 0
M  V30 1059 C 106.588 1.44625 -1.21363 0
M  V30 1060 O 105.945 1.80811 -0.247736 0
M  V30 1061 C 105.996 0.681412 -3.5502 0
M  V30 1062 O 105.717 -0.456414 -4.35716 0
M  V30 1063 C 107.218 1.34232 -4.22489 0
M  V30 1064 H 104.438 0.0513685 -0.669031 0
M  V30 1065 H 106.982 -0.488822 -1.98572 0
M  V30 1066 H 105.137 1.38148 -3.61931 0
M  V30 1067 H 105.551 -0.122564 -5.24357 0
M  V30 1068 H 107.025 1.58708 -5.28693 0
M  V30 1069 H 107.502 2.29426 -3.74514 0
M  V30 1070 H 108.108 0.684424 -4.19757 0
M  V30 1071 N 106.423 1.57458 -0.0668435 0
M  V30 1072 C 107.648 1.9804 0.616027 0
M  V30 1073 C 108.073 0.944771 1.62652 0
M  V30 1074 O 107.431 -0.0902094 1.81075 0
M  V30 1075 C 107.479 3.37665 1.26549 0
M  V30 1076 O 106.583 3.36701 2.38131 0
M  V30 1077 H 105.924 0.644719 0.158849 0
M  V30 1078 H 108.454 2.04121 -0.139891 0
M  V30 1079 H 108.464 3.7474 1.6135 0
M  V30 1080 H 107.139 4.12573 0.525016 0
M  V30 1081 H 105.716 3.1139 2.0516 0
M  V30 1082 N 107.901 -0.206675 1.56239 0
M  V30 1083 C 109.126 -0.949474 1.8439 0
M  V30 1084 C 109.551 -1.76549 0.649016 0
M  V30 1085 O 108.909 -1.76782 -0.402231 0
M  V30 1086 C 108.957 -1.83078 3.10668 0
M  V30 1087 O 108.061 -2.9281 2.90407 0
M  V30 1088 H 107.402 -0.268033 0.607499 0
M  V30 1089 H 109.932 -0.215488 2.03462 0
M  V30 1090 H 109.942 -2.2377 3.41161 0
M  V30 1091 H 108.617 -1.23112 3.97261 0
M  V30 1092 H 107.194 -2.55956 2.71184 0
M  V30 1093 N 109.379 -1.50304 -0.473955 0
M  V30 1094 C 110.625 -1.61389 -1.22806 0
M  V30 1095 C 110.958 -0.311955 -1.91678 0
M  V30 1096 O 110.233 0.686384 -1.81986 0
M  V30 1097 C 110.516 -2.79219 -2.27396 0
M  V30 1098 C 110.369 -4.19286 -1.62848 0
M  V30 1099 C 111.688 -2.92614 -3.28732 0
M  V30 1100 H 108.807 -0.587399 -0.445119 0
M  V30 1101 H 111.449 -1.82681 -0.522265 0
M  V30 1102 H 109.599 -2.61195 -2.87592 0
M  V30 1103 H 111.271 -4.48892 -1.06271 0
M  V30 1104 H 109.514 -4.23677 -0.931693 0
M  V30 1105 H 110.185 -4.97655 -2.38838 0
M  V30 1106 H 112.661 -3.09105 -2.78556 0
M  V30 1107 H 111.537 -3.76688 -3.99246 0
M  V30 1108 H 111.798 -2.03107 -3.92683 0
M  V30 1109 N 110.857 0.726932 -1.39834 0
M  V30 1110 C 111.787 1.85405 -1.41941 0
M  V30 1111 C 112.768 1.67751 -0.281728 0
M  V30 1112 O 113.953 1.8795 -0.488717 0
M  V30 1113 C 111.083 3.23243 -1.2701 0
M  V30 1114 C 110.037 3.55549 -2.38262 0
M  V30 1115 C 109.363 4.9241 -2.08415 0
M  V30 1116 C 110.663 3.577 -3.80589 0
M  V30 1117 H 112.357 1.83899 -2.36266 0
M  V30 1118 H 109.903 0.883349 -1.13723 0
M  V30 1119 H 111.856 4.01775 -1.27103 0
M  V30 1120 H 110.58 3.25296 -0.291564 0
M  V30 1121 H 109.239 2.79351 -2.37399 0
M  V30 1122 H 108.887 4.91052 -1.0898 0
M  V30 1123 H 108.587 5.14992 -2.82943 0
M  V30 1124 H 110.111 5.73289 -2.10171 0
M  V30 1125 H 111.525 4.26293 -3.83337 0
M  V30 1126 H 109.922 3.91804 -4.54543 0
M  V30 1127 H 110.992 2.57328 -4.10987 0
M  V30 1128 N 112.336 1.25143 0.95797 0
M  V30 1129 C 113.582 1.09855 1.70469 0
M  V30 1130 C 113.915 -0.360187 1.90831 0
M  V30 1131 O 113.19 -1.26568 1.47685 0
M  V30 1132 C 113.473 1.8497 3.08963 0
M  V30 1133 C 113.326 3.38652 2.96032 0
M  V30 1134 C 114.645 1.63016 4.08795 0
M  V30 1135 H 111.764 0.400465 0.618706 0
M  V30 1136 H 114.406 1.53933 1.11376 0
M  V30 1137 H 112.556 1.47505 3.59409 0
M  V30 1138 H 114.228 3.85772 2.52938 0
M  V30 1139 H 112.471 3.66534 2.32025 0
M  V30 1140 H 113.142 3.8642 3.94187 0
M  V30 1141 H 115.618 1.95625 3.67247 0
M  V30 1142 H 114.494 2.18015 5.03747 0
M  V30 1143 H 114.755 0.570692 4.38401 0
M  V30 1144 N 113.814 -1.1601 1.06675 0
M  V30 1145 C 115.039 -1.91068 0.806706 0
M  V30 1146 C 115.464 -1.77112 -0.633485 0
M  V30 1147 O 114.822 -1.09908 -1.44187 0
M  V30 1148 C 114.87 -3.39655 1.21106 0
M  V30 1149 O 113.974 -4.10893 0.352189 0
M  V30 1150 H 113.315 -0.595125 0.294486 0
M  V30 1151 H 115.845 -1.46955 1.42356 0
M  V30 1152 H 115.855 -3.90434 1.18428 0
M  V30 1153 H 114.53 -3.49132 2.26008 0
M  V30 1154 H 113.107 -3.70285 0.440868 0
M  V30 1155 N 115.292 -0.849877 -1.32721 0
M  V30 1156 C 116.54 -0.450032 -1.97026 0
M  V30 1157 C 116.861 0.996604 -1.67609 0
M  V30 1158 O 116.131 1.6958 -0.980786 0
M  V30 1159 H 114.711 -0.163426 -0.728904 0
M  V30 1160 H 117.373 -1.08526 -1.6189 0
M  V30 1161 H 116.469 -0.591146 -3.0645 0
M  V30 1162 N 116.77 1.45427 -0.607355 0
M  V30 1163 C 117.7 2.3329 0.0989352 0
M  V30 1164 C 118.681 1.46816 0.859007 0
M  V30 1165 O 119.866 1.75588 0.829604 0
M  V30 1166 C 116.996 3.29518 1.09705 0
M  V30 1167 C 115.95 4.25626 0.450206 0
M  V30 1168 C 115.276 5.11542 1.55655 0
M  V30 1169 C 116.576 5.18505 -0.628455 0
M  V30 1170 H 118.27 2.92595 -0.634716 0
M  V30 1171 H 115.816 1.40696 -0.306681 0
M  V30 1172 H 117.769 3.89855 1.59971 0
M  V30 1173 H 116.493 2.68372 1.86129 0
M  V30 1174 H 115.152 3.66586 -0.0315886 0
M  V30 1175 H 114.8 4.46765 2.31107 0
M  V30 1176 H 114.5 5.76647 1.12925 0
M  V30 1177 H 116.024 5.74748 2.06148 0
M  V30 1178 H 117.438 5.72916 -0.209877 0
M  V30 1179 H 115.835 5.92085 -0.977489 0
M  V30 1180 H 116.905 4.60948 -1.50514 0
M  V30 1181 N 118.248 0.346503 1.53744 0
M  V30 1182 C 119.664 -0.00530975 1.59599 0
M  V30 1183 C 119.864 -1.48465 1.36236 0
M  V30 1184 O 118.92 -2.24376 1.15808 0
M  V30 1185 C 120.233 0.433516 2.97559 0
M  V30 1186 C 121.781 0.386111 3.10609 0
M  V30 1187 C 122.256 0.800451 4.50951 0
M  V30 1188 N 123.747 0.754753 4.5701 0
M  V30 1189 C 124.482 1.04727 5.63755 0
M  V30 1190 N 123.978 1.4081 6.7834 0
M  V30 1191 N 125.771 0.971316 5.53644 0
M  V30 1192 H 117.922 1.31009 1.67184 0
M  V30 1193 H 120.185 0.534242 0.783128 0
M  V30 1194 H 119.891 1.46509 3.19731 0
M  V30 1195 H 119.765 -0.189753 3.76722 0
M  V30 1196 H 122.152 -0.636295 2.88158 0
M  V30 1197 H 122.233 1.04462 2.33498 0
M  V30 1198 H 121.877 1.82088 4.74137 0
M  V30 1199 H 121.807 0.119386 5.26465 0
M  V30 1200 H 124.298 0.488662 3.74727 0
M  V30 1201 H 124.611 1.61607 7.55714 0
M  V30 1202 H 122.956 1.44657 6.79779 0
M  V30 1203 H 126.147 0.688748 4.63005 0
M  V30 1204 H 126.32 1.20263 6.36742 0
M  V30 1205 N 119.726 -1.57421 0.075193 0
M  V30 1206 C 120.974 -1.93236 -0.591974 0
M  V30 1207 C 121.295 -0.956241 -1.69944 0
M  V30 1208 O 120.565 -0.00494792 -1.95899 0
M  V30 1209 H 119.145 -0.713355 -0.22166 0
M  V30 1210 H 121.807 -1.9444 0.133848 0
M  V30 1211 H 120.903 -2.95131 -1.01509 0
M  V30 1212 N 121.204 0.198386 -1.56346 0
M  V30 1213 C 122.134 1.24865 -1.9731 0
M  V30 1214 C 123.115 1.47651 -0.844576 0
M  V30 1215 O 124.3 1.59444 -1.10866 0
M  V30 1216 C 121.43 2.59358 -2.30977 0
M  V30 1217 C 120.384 2.5119 -3.46537 0
M  V30 1218 C 119.71 3.89926 -3.65871 0
M  V30 1219 C 121.01 2.03977 -4.80823 0
M  V30 1220 H 122.704 0.908252 -2.85291 0
M  V30 1221 H 120.25 0.435462 -1.37258 0
M  V30 1222 H 122.203 3.33011 -2.58228 0
M  V30 1223 H 120.927 2.95132 -1.39874 0
M  V30 1224 H 119.586 1.79993 -3.19371 0
M  V30 1225 H 119.234 4.23046 -2.72105 0
M  V30 1226 H 118.934 3.85336 -4.4361 0
M  V30 1227 H 120.458 4.65205 -3.95495 0
M  V30 1228 H 121.872 2.67386 -5.07127 0
M  V30 1229 H 120.269 2.10397 -5.62008 0
M  V30 1230 H 121.339 0.992861 -4.74626 0
M  V30 1231 N 122.682 1.50554 0.465978 0
M  V30 1232 C 123.93 1.61479 1.21528 0
M  V30 1233 C 124.251 0.319596 1.92363 0
M  V30 1234 O 123.521 -0.663194 1.84333 0
M  V30 1235 H 122.101 0.595055 0.451573 0
M  V30 1236 H 124.763 1.87355 0.53704 0
M  V30 1237 H 123.859 2.42846 1.96042 0
M  V30 1238 N 124.16 -0.719506 1.40217 0
M  V30 1239 C 125.406 -1.48152 1.38488 0
M  V30 1240 C 125.739 -1.94195 -0.0141867 0
M  V30 1241 O 125.014 -1.67884 -0.982096 0
M  V30 1242 C 125.297 -2.71035 2.37091 0
M  V30 1243 C 125.15 -2.30912 3.86005 0
M  V30 1244 C 126.469 -3.73182 2.33288 0
M  V30 1245 H 123.588 -0.537395 0.504357 0
M  V30 1246 H 126.23 -0.821472 1.71324 0
M  V30 1247 H 124.38 -3.27352 2.0922 0
M  V30 1248 H 126.052 -1.80107 4.24687 0
M  V30 1249 H 124.295 -1.62958 4.02029 0
M  V30 1250 H 124.966 -3.18978 4.50508 0
M  V30 1251 H 127.442 -3.26485 2.57966 0
M  V30 1252 H 126.318 -4.56806 3.04334 0
M  V30 1253 H 126.579 -4.21202 1.34317 0
M  V30 1254 N 125.638 -1.25649 -0.95132 0
M  V30 1255 C 126.548 -1.08073 -2.08224 0
M  V30 1256 C 127.564 -0.0169666 -1.73992 0
M  V30 1257 O 128.74 -0.218593 -2.0021 0
M  V30 1258 C 125.805 -0.704922 -3.39458 0
M  V30 1259 C 124.866 -1.84699 -3.87537 0
M  V30 1260 C 124.099 -1.48902 -5.12508 0
M  V30 1261 O 124.322 -0.386156 -5.69091 0
M  V30 1262 O 123.256 -2.32033 -5.55378 0
M  V30 1263 H 127.082 -2.02924 -2.25954 0
M  V30 1264 H 124.667 -1.04618 -1.06656 0
M  V30 1265 H 126.549 -0.507609 -4.18332 0
M  V30 1266 H 125.224 0.214291 -3.2299 0
M  V30 1267 H 124.131 -2.09919 -3.09653 0
M  V30 1268 H 125.464 -2.74557 -4.08509 0
M  V30 1269 N 127.117 1.15442 -1.07289 0
M  V30 1270 C 128.366 1.85557 -0.790669 0
M  V30 1271 C 128.679 1.83186 0.685739 0
M  V30 1272 O 129.885 2.48977 1.0827 0
M  V30 1273 C 128.341 3.33038 -1.36433 0
M  V30 1274 C 127.949 3.43856 -2.8717 0
M  V30 1275 C 129.693 4.0834 -1.1601 0
M  V30 1276 C 127.6 4.85482 -3.3773 0
M  V30 1277 H 126.53 0.695122 -0.292098 0
M  V30 1278 H 129.181 1.30219 -1.29287 0
M  V30 1279 H 127.563 3.88043 -0.789864 0
M  V30 1280 H 128.737 2.98961 -3.50655 0
M  V30 1281 H 127.052 2.81998 -3.06376 0
M  V30 1282 H 129.649 5.12859 -1.51262 0
M  V30 1283 H 129.992 4.16182 -0.0991007 0
M  V30 1284 H 130.525 3.59603 -1.70089 0
M  V30 1285 H 127.264 4.82823 -4.43353 0
M  V30 1286 H 126.784 5.30961 -2.78999 0
M  V30 1287 H 128.463 5.54335 -3.33648 0
M  V30 1288 N 128.595 0.856903 1.32268 0
M  V30 1289 C 129.558 0.308171 2.27119 0
M  V30 1290 C 130.558 -0.533421 1.51695 0
M  V30 1291 O 131.748 -0.344607 1.70757 0
M  V30 1292 C 128.88 -0.563757 3.36206 0
M  V30 1293 H 130.073 1.14535 2.77167 0
M  V30 1294 H 127.626 0.631421 1.42978 0
M  V30 1295 H 128.361 -1.42266 2.91429 0
M  V30 1296 H 128.146 0.0386749 3.92081 0
M  V30 1297 H 129.636 -0.940386 4.06874 0
M  V30 1298 N 130.073 -1.45103 0.615059 0
M  V30 1299 C 131.02 -2.30586 -0.0993978 0
M  V30 1300 C 131.99 -1.42544 -0.852669 0
M  V30 1301 O 133.175 -1.71465 -0.836917 0
M  V30 1302 C 130.315 -3.27572 -1.08583 0
M  V30 1303 C 129.428 -4.30717 -0.332656 0
M  V30 1304 C 128.563 -5.14807 -1.30947 0
M  V30 1305 C 127.602 -6.09673 -0.544538 0
M  V30 1306 N 126.739 -6.86517 -1.47101 0
M  V30 1307 H 131.579 -2.91144 0.635542 0
M  V30 1308 H 129.116 -1.4346 0.325206 0
M  V30 1309 H 131.074 -3.82276 -1.67095 0
M  V30 1310 H 129.704 -2.68751 -1.78809 0
M  V30 1311 H 128.756 -3.78615 0.368107 0
M  V30 1312 H 130.068 -4.98102 0.263842 0
M  V30 1313 H 129.222 -5.73948 -1.96643 0
M  V30 1314 H 127.961 -4.47458 -1.9399 0
M  V30 1315 H 126.966 -5.49656 0.126003 0
M  V30 1316 H 128.191 -6.79052 0.080947 0
M  V30 1317 H 126.137 -6.21851 -2.08895 0
M  V30 1318 H 126.054 -7.50281 -0.928137 0
M  V30 1319 H 127.322 -7.50194 -2.11731 0
M  V30 1320 N 131.551 -0.354651 -1.53558 0
M  V30 1321 C 132.499 0.512195 -2.26891 0
M  V30 1322 C 133.493 1.09263 -1.29452 0
M  V30 1323 O 134.699 1.03709 -1.47121 0
M  V30 1324 H 131.074 0.183878 -0.729173 0
M  V30 1325 H 133.045 -0.128202 -2.98124 0
M  V30 1326 C 131.794 1.64563 -3.06291 0
M  V30 1327 H 131.117 1.20829 -3.81104 0
M  V30 1328 H 132.557 2.22711 -3.60799 0
M  V30 1329 C 131.016 2.58158 -2.16462 0
M  V30 1330 O 131.546 3.60695 -1.76811 0
M  V30 1331 N 129.752 2.27096 -1.81317 0
M  V30 1332 H 129.299 1.43751 -2.1376 0
M  V30 1333 H 129.257 2.89975 -1.21498 0
M  V30 1334 N 133.029 1.57378 -0.0835403 0
M  V30 1335 C 134.278 1.93106 0.582498 0
M  V30 1336 C 134.591 0.96651 1.70053 0
M  V30 1337 O 135.797 1.21705 2.42693 0
M  V30 1338 C 134.253 3.43076 1.08751 0
M  V30 1339 C 133.861 4.48 -0.000146404 0
M  V30 1340 C 135.605 3.87785 1.72694 0
M  V30 1341 C 133.512 5.89113 0.519568 0
M  V30 1342 H 132.442 0.720775 0.221358 0
M  V30 1343 H 135.093 1.82821 -0.157675 0
M  V30 1344 H 133.475 3.48474 1.88101 0
M  V30 1345 H 134.649 4.54233 -0.775199 0
M  V30 1346 H 132.964 4.1283 -0.54406 0
M  V30 1347 H 135.561 4.90604 2.1263 0
M  V30 1348 H 135.904 3.25796 2.59158 0
M  V30 1349 H 136.437 3.8504 0.999457 0
M  V30 1350 H 133.176 6.54775 -0.308186 0
M  V30 1351 H 132.696 5.86376 1.26188 0
M  V30 1352 H 134.375 6.39346 0.992237 0
M  V30 1353 N 134.507 -0.190092 1.56449 0
M  V30 1354 C 135.756 -0.907912 1.80111 0
M  V30 1355 C 136.069 -1.84214 0.657619 0
M  V30 1356 O 137.275 -2.60094 0.778663 0
M  V30 1357 C 135.731 -1.66485 3.19078 0
M  V30 1358 C 135.339 -0.7752 4.41242 0
M  V30 1359 C 137.083 -2.37201 3.52045 0
M  V30 1360 C 134.99 -1.53129 5.71231 0
M  V30 1361 H 133.92 -0.34276 0.671589 0
M  V30 1362 H 136.571 -0.161109 1.82791 0
M  V30 1363 H 134.953 -2.45572 3.10661 0
M  V30 1364 H 136.127 -0.0226298 4.60794 0
M  V30 1365 H 134.442 -0.178627 4.16017 0
M  V30 1366 H 137.039 -2.94329 4.46402 0
M  V30 1367 H 137.382 -3.11632 2.76028 0
M  V30 1368 H 137.915 -1.65075 3.61932 0
M  V30 1369 H 134.654 -0.82967 6.50228 0
M  V30 1370 H 134.174 -2.25767 5.55688 0
M  V30 1371 H 135.853 -2.08377 6.12526 0
M  V30 1372 N 135.985 -1.50799 -0.457987 0
M  V30 1373 C 136.915 -1.73553 -1.5621 0
M  V30 1374 C 137.896 -0.584774 -1.59732 0
M  V30 1375 O 139.081 -0.825314 -1.7579 0
M  V30 1376 C 136.211 -1.84169 -2.94447 0
M  V30 1377 C 135.165 -2.99461 -3.0579 0
M  V30 1378 C 134.491 -2.95235 -4.45803 0
M  V30 1379 C 135.791 -4.39766 -2.81786 0
M  V30 1380 H 137.485 -2.66 -1.37421 0
M  V30 1381 H 135.031 -1.28002 -0.659662 0
M  V30 1382 H 136.984 -1.98672 -3.71628 0
M  V30 1383 H 135.708 -0.883545 -3.14422 0
M  V30 1384 H 134.367 -2.8463 -2.31044 0
M  V30 1385 H 134.015 -1.97239 -4.62715 0
M  V30 1386 H 133.715 -3.72642 -4.54326 0
M  V30 1387 H 135.239 -3.11803 -5.24987 0
M  V30 1388 H 136.653 -4.55054 -3.4871 0
M  V30 1389 H 135.05 -5.18722 -3.0174 0
M  V30 1390 H 136.12 -4.51229 -1.7754 0
M  V30 1391 N 137.463 0.71206 -1.40597 0
M  V30 1392 C 138.711 1.46907 -1.38791 0
M  V30 1393 C 139.032 1.94998 0.00780391 0
M  V30 1394 O 138.302 1.70587 0.963174 0
M  V30 1395 H 136.882 0.545043 -0.51082 0
M  V30 1396 H 139.544 0.843882 -1.75683 0
M  V30 1397 H 138.64 2.34021 -2.06496 0
M  V30 1398 N 138.941 1.26152 0.944643 0
M  V30 1399 C 140.189 1.11271 1.6871 0
M  V30 1400 C 140.51 -0.345166 1.91921 0
M  V30 1401 O 139.78 -1.24387 1.51343 0
M  V30 1402 H 138.36 0.408783 0.625224 0
M  V30 1403 H 141.022 1.58427 1.1352 0
M  V30 1404 H 140.118 1.62879 2.66227 0
M  V30 1405 N 140.419 -1.14872 1.07899 0
M  V30 1406 C 141.665 -1.86064 0.806725 0
M  V30 1407 C 141.998 -1.82434 -0.665706 0
M  V30 1408 O 141.273 -1.25138 -1.48899 0
M  V30 1409 C 141.556 -3.34929 1.32267 0
M  V30 1410 C 141.409 -3.47161 2.86006 0
M  V30 1411 C 142.728 -4.29863 0.943717 0
M  V30 1412 H 139.847 -0.675591 0.294526 0
M  V30 1413 H 142.489 -1.34925 1.33773 0
M  V30 1414 H 140.639 -3.78611 0.870974 0
M  V30 1415 H 142.311 -3.12302 3.39507 0
M  V30 1416 H 140.554 -2.88539 3.23925 0
M  V30 1417 H 141.225 -4.51777 3.17177 0
M  V30 1418 H 143.701 -3.9417 1.33302 0
M  V30 1419 H 142.577 -5.32494 1.33198 0
M  V30 1420 H 142.838 -4.41846 -0.149796 0
M  V30 1421 N 141.898 -0.863906 -1.31812 0
M  V30 1422 C 142.845 -0.313303 -2.28664 0
M  V30 1423 C 143.815 0.584868 -1.55462 0
M  V30 1424 O 145 0.517805 -1.83639 0
M  V30 1425 C 142.14 0.48441 -3.41683 0
M  V30 1426 C 141.253 -0.440594 -4.29747 0
M  V30 1427 C 140.388 0.370652 -5.29905 0
M  V30 1428 C 139.427 -0.551164 -6.09613 0
M  V30 1429 N 138.564 0.223462 -7.01744 0
M  V30 1430 H 143.404 -1.14444 -2.75148 0
M  V30 1431 H 140.941 -0.575769 -1.35364 0
M  V30 1432 H 142.899 0.962627 -4.05943 0
M  V30 1433 H 141.529 1.28029 -2.96325 0
M  V30 1434 H 140.581 -1.03724 -3.65986 0
M  V30 1435 H 141.893 -1.14767 -4.85417 0
M  V30 1436 H 141.047 0.911638 -5.99812 0
M  V30 1437 H 139.786 1.11105 -4.74876 0
M  V30 1438 H 138.791 -1.10396 -5.38603 0
M  V30 1439 H 140.016 -1.29032 -6.66729 0
M  V30 1440 H 137.962 0.946787 -6.49132 0
M  V30 1441 H 137.879 -0.424399 -7.54808 0
M  V30 1442 H 139.147 0.745876 -7.75923 0
M  V30 1443 N 143.376 1.44774 -0.622745 0
M  V30 1444 C 144.339 2.29069 0.0774015 0
M  V30 1445 C 145.339 1.4059 0.780461 0
M  V30 1446 O 146.529 1.62551 0.626322 0
M  V30 1447 C 143.661 3.21974 1.12006 0
M  V30 1448 H 144.854 2.92459 -0.663901 0
M  V30 1449 H 142.407 1.51548 -0.382486 0
M  V30 1450 H 143.142 2.63417 1.89162 0
M  V30 1451 H 142.927 3.87168 0.619951 0
M  V30 1452 H 144.417 3.85318 1.60995 0
M  V30 1453 N 144.854 0.36279 1.53368 0
M  V30 1454 C 146.1 -0.228113 2.01513 0
M  V30 1455 C 146.433 -1.48648 1.2497 0
M  V30 1456 O 145.708 -1.91459 0.342616 0
M  V30 1457 C 145.991 -0.522884 3.56284 0
M  V30 1458 C 145.844 0.74892 4.43521 0
M  V30 1459 C 147.163 -1.32461 4.19693 0
M  V30 1460 H 144.282 -0.0814343 0.732487 0
M  V30 1461 H 146.924 0.48713 1.83649 0
M  V30 1462 H 145.074 -1.1322 3.71636 0
M  V30 1463 H 146.746 1.38648 4.39971 0
M  V30 1464 H 144.989 1.36986 4.11603 0
M  V30 1465 H 145.66 0.497667 5.49752 0
M  V30 1466 H 148.136 -0.809203 4.08156 0
M  V30 1467 H 147.012 -1.49961 5.28018 0
M  V30 1468 H 147.273 -2.33232 3.75573 0
M  V30 1469 N 146.332 -1.57332 0.0918853 0
M  V30 1470 C 147.56 -1.98574 -0.581048 0
M  V30 1471 C 147.975 -0.970903 -1.61923 0
M  V30 1472 O 147.332 0.0399054 -1.82456 0
M  V30 1473 C 147.383 -3.39872 -1.23164 0
M  V30 1474 O 147.104 -4.37469 -0.234989 0
M  V30 1475 C 148.605 -3.96099 -1.99049 0
M  V30 1476 H 145.825 -0.65261 -0.156018 0
M  V30 1477 H 148.369 -2.0379 0.170225 0
M  V30 1478 H 146.524 -3.35679 -1.93386 0
M  V30 1479 H 146.938 -5.19751 -0.70418 0
M  V30 1480 H 148.412 -4.97127 -2.39934 0
M  V30 1481 H 148.889 -3.3374 -2.85507 0
M  V30 1482 H 149.495 -4.03755 -1.3365 0
M  V30 1483 N 147.81 0.181792 -1.56548 0
M  V30 1484 C 148.74 1.22765 -1.98623 0
M  V30 1485 C 149.721 1.46747 -0.860189 0
M  V30 1486 O 150.906 1.58259 -1.12551 0
M  V30 1487 C 148.036 2.56894 -2.33715 0
M  V30 1488 C 146.99 2.475 -3.49182 0
M  V30 1489 C 146.316 3.86023 -3.69986 0
M  V30 1490 C 147.616 1.98866 -4.82959 0
M  V30 1491 H 149.31 0.877942 -2.86239 0
M  V30 1492 H 146.856 0.42088 -1.37712 0
M  V30 1493 H 148.809 3.30253 -2.61746 0
M  V30 1494 H 147.533 2.93632 -1.42997 0
M  V30 1495 H 146.192 1.76596 -3.21262 0
M  V30 1496 H 145.84 4.20136 -2.76576 0
M  V30 1497 H 145.54 3.80609 -4.47672 0
M  V30 1498 H 147.064 4.60984 -4.00407 0
M  V30 1499 H 148.478 2.61992 -5.09934 0
M  V30 1500 H 146.875 2.04424 -5.64208 0
M  V30 1501 H 147.945 0.942465 -4.75653 0
M  V30 1502 N 149.288 1.51039 0.449983 0
M  V30 1503 C 150.238 1.67824 1.54335 0
M  V30 1504 C 151.222 0.5324 1.51836 0
M  V30 1505 O 152.414 0.787762 1.58503 0
M  V30 1506 C 149.543 1.7951 2.92628 0
M  V30 1507 C 148.629 2.99838 2.9993 0
M  V30 1508 N 149.02 4.23207 2.77001 0
M  V30 1509 C 147.318 2.98832 3.31082 0
M  V30 1510 C 148.019 5.04361 2.89818 0
M  V30 1511 N 146.995 4.38746 3.2094 0
M  V30 1512 H 150.797 2.60884 1.35339 0
M  V30 1513 H 148.311 1.48513 0.657085 0
M  V30 1514 H 150.308 1.89642 3.7127 0
M  V30 1515 H 148.968 0.876227 3.12654 0
M  V30 1516 H 149.979 4.5236 2.52172 0
M  V30 1517 H 146.656 2.16527 3.56963 0
M  V30 1518 H 148.046 6.12528 2.76151 0
M  V30 1519 N 150.766 -0.704594 1.40972 0
M  V30 1520 C 152.043 -1.45847 1.30338 0
M  V30 1521 C 152.423 -2.10973 -0.0732344 0
M  V30 1522 O 151.771 -2.00997 -1.08685 0
M  V30 1523 C 151.981 -2.48525 2.45023 0
M  V30 1524 C 153.329 -3.1404 2.8577 0
M  V30 1525 O 154.353 -2.58848 2.44696 0
M  V30 1526 O 153.212 -4.13981 3.56766 0
M  V30 1527 H 150.306 -0.649092 0.512454 0
M  V30 1528 H 152.852 -0.735836 1.52917 0
M  V30 1529 H 151.624 -1.98994 3.36923 0
M  V30 1530 H 151.247 -3.2831 2.24272 0
M  V30 1531 N 152.244 -1.26651 -0.937939 0
M  V30 1532 C 153.176 -1.04283 -2.04102 0
M  V30 1533 C 154.189 -0.00221014 -1.628 0
M  V30 1534 O 155.378 -0.242645 -1.76843 0
M  V30 1535 C 152.478 -0.557846 -3.34277 0
M  V30 1536 C 151.651 -1.66843 -4.04329 0
M  V30 1537 C 150.71 -1.18095 -5.12777 0
M  V30 1538 O 149.736 -1.87865 -5.37304 0
M  V30 1539 N 150.938 -0.0311006 -5.80492 0
M  V30 1540 H 153.703 -1.9927 -2.23856 0
M  V30 1541 H 151.264 -1.1808 -1.10764 0
M  V30 1542 H 153.256 -0.215836 -4.04124 0
M  V30 1543 H 151.826 0.298523 -3.11171 0
M  V30 1544 H 151.046 -2.18123 -3.28353 0
M  V30 1545 H 152.334 -2.41408 -4.47883 0
M  V30 1546 H 151.732 0.551486 -5.63005 0
M  V30 1547 H 150.289 0.251809 -6.51313 0
M  V30 1548 N 153.722 1.14298 -1.08507 0
M  V30 1549 C 154.97 1.84993 -0.813763 0
M  V30 1550 C 155.291 1.83405 0.662393 0
M  V30 1551 O 154.561 1.28319 1.48024 0
M  V30 1552 H 153.141 0.684966 -0.298045 0
M  V30 1553 H 155.803 1.385 -1.37126 0
M  V30 1554 H 154.899 2.89788 -1.15884 0
M  V30 1555 N 155.201 0.870884 1.31352 0
M  V30 1556 C 156.429 0.49677 2.00848 0
M  V30 1557 C 156.844 -0.910998 1.65367 0
M  V30 1558 O 156.201 -1.59696 0.883374 0
M  V30 1559 C 156.252 0.645308 3.55694 0
M  V30 1560 O 155.973 1.99764 3.89905 0
M  V30 1561 C 157.474 0.272326 4.42463 0
M  V30 1562 H 154.694 0.193462 0.642506 0
M  V30 1563 H 157.238 1.1723 1.67563 0
M  V30 1564 H 155.393 0.0173176 3.87396 0
M  V30 1565 H 155.807 2.00607 4.84621 0
M  V30 1566 H 157.281 0.427208 5.50344 0
M  V30 1567 H 157.758 -0.788587 4.32062 0
M  V30 1568 H 158.364 0.876054 4.1618 0
M  V30 1569 N 156.679 -1.44442 0.630414 0
M  V30 1570 C 157.642 -2.29107 -0.0652523 0
M  V30 1571 C 158.642 -1.41002 -0.772995 0
M  V30 1572 O 159.832 -1.62881 -0.617692 0
M  V30 1573 C 156.964 -3.22564 -1.10296 0
M  V30 1574 H 158.157 -2.92103 0.679401 0
M  V30 1575 H 155.71 -1.51343 0.390517 0
M  V30 1576 H 156.445 -2.64416 -1.87762 0
M  V30 1577 H 156.23 -3.87491 -0.59941 0
M  V30 1578 H 157.72 -3.86167 -1.5895 0
M  V30 1579 N 158.157 -0.370918 -1.53173 0
M  V30 1580 C 159.089 0.507823 -2.23503 0
M  V30 1581 C 160.102 1.04182 -1.251 0
M  V30 1582 O 161.291 0.947286 -1.5129 0
M  V30 1583 C 158.391 1.71447 -2.92334 0
M  V30 1584 C 157.564 1.31105 -4.17289 0
M  V30 1585 C 156.623 2.38035 -4.69282 0
M  V30 1586 O 155.649 2.00204 -5.32829 0
M  V30 1587 N 156.851 3.69697 -4.47554 0
M  V30 1588 H 159.616 -0.0946382 -2.99551 0
M  V30 1589 H 157.177 -0.196358 -1.60705 0
M  V30 1590 H 159.169 2.42469 -3.24023 0
M  V30 1591 H 157.739 2.22368 -2.19707 0
M  V30 1592 H 156.959 0.430462 -3.91843 0
M  V30 1593 H 158.247 1.0179 -4.98514 0
M  V30 1594 H 157.645 4.03205 -3.9679 0
M  V30 1595 H 156.202 4.36807 -4.8378 0
M  V30 1596 N 159.635 1.57281 -0.100228 0
M  V30 1597 C 160.881 1.95626 0.556946 0
M  V30 1598 C 161.236 0.981655 1.65473 0
M  V30 1599 O 160.529 0.00849847 1.91598 0
M  V30 1600 C 160.723 3.38305 1.15259 0
M  V30 1601 C 160.552 4.49555 0.114035 0
M  V30 1602 C 159.322 5.0434 -0.311266 0
M  V30 1603 C 161.52 5.10051 -0.659768 0
M  V30 1604 N 159.502 5.99152 -1.33755 0
M  V30 1605 C 160.873 6.00628 -1.53774 0
M  V30 1606 C 162.928 4.92772 -0.712723 0
M  V30 1607 C 161.631 6.7578 -2.46403 0
M  V30 1608 C 163.657 5.6859 -1.62663 0
M  V30 1609 C 163.019 6.58838 -2.49222 0
M  V30 1610 H 159.118 0.7624 0.173982 0
M  V30 1611 H 161.702 1.93829 -0.183988 0
M  V30 1612 H 159.873 3.40786 1.86332 0
M  V30 1613 H 161.605 3.63817 1.77254 0
M  V30 1614 H 158.36 4.73537 0.0774812 0
M  V30 1615 H 158.784 6.5126 -1.84905 0
M  V30 1616 H 163.426 4.22761 -0.0576648 0
M  V30 1617 H 161.144 7.4505 -3.12931 0
M  V30 1618 H 164.73 5.57233 -1.67281 0
M  V30 1619 H 163.61 7.16479 -3.18791 0
M  V30 1620 N 161.113 -0.173488 1.56642 0
M  V30 1621 C 162.076 -1.19859 1.95362 0
M  V30 1622 C 163.076 -1.37296 0.83704 0
M  V30 1623 O 164.266 -1.34739 1.10413 0
M  V30 1624 C 161.398 -2.56405 2.24654 0
M  V30 1625 H 162.591 -0.867062 2.87092 0
M  V30 1626 H 160.144 -0.415853 1.50666 0
M  V30 1627 H 160.879 -2.94576 1.35631 0
M  V30 1628 H 160.664 -2.45115 3.06041 0
M  V30 1629 H 162.154 -3.30287 2.5554 0
M  V30 1630 N 162.591 -1.51276 -0.441967 0
M  V30 1631 C 163.868 -1.54252 -1.20273 0
M  V30 1632 C 164.248 -0.30408 -2.08898 0
M  V30 1633 O 163.596 0.711084 -2.17154 0
M  V30 1634 C 163.806 -2.85406 -2.00859 0
M  V30 1635 C 165.154 -3.37181 -2.58059 0
M  V30 1636 O 166.178 -2.86925 -2.11074 0
M  V30 1637 O 165.037 -4.24858 -3.43741 0
M  V30 1638 H 162.131 -0.619969 -0.547328 0
M  V30 1639 H 164.677 -1.63586 -0.451413 0
M  V30 1640 H 163.449 -3.67003 -1.35736 0
M  V30 1641 H 163.072 -2.79213 -2.83065 0
M  V30 1642 N 164.069 0.697108 -1.41344 0
M  V30 1643 C 164.999 1.82353 -1.45841 0
M  V30 1644 C 165.98 1.67115 -0.317247 0
M  V30 1645 O 167.165 1.86871 -0.528474 0
M  V30 1646 C 164.295 3.20476 -1.33838 0
M  V30 1647 C 163.249 3.50415 -2.4575 0
M  V30 1648 C 162.575 4.87878 -2.18813 0
M  V30 1649 C 163.875 3.49546 -3.88091 0
M  V30 1650 H 165.569 1.78846 -2.40113 0
M  V30 1651 H 163.115 0.859028 -1.15571 0
M  V30 1652 H 165.068 3.98988 -1.35596 0
M  V30 1653 H 163.792 3.24604 -0.360498 0
M  V30 1654 H 162.451 2.74253 -2.43271 0
M  V30 1655 H 162.099 4.8863 -1.19371 0
M  V30 1656 H 161.799 5.08875 -2.93803 0
M  V30 1657 H 163.323 5.68702 -2.22284 0
M  V30 1658 H 164.737 4.18066 -3.92293 0
M  V30 1659 H 163.134 3.82075 -4.62751 0
M  V30 1660 H 164.204 2.48552 -4.16353 0
M  V30 1661 N 165.547 1.27147 0.931209 0
M  V30 1662 C 166.772 1.16191 1.71797 0
M  V30 1663 C 167.197 -0.278004 1.86034 0
M  V30 1664 O 166.555 -1.20137 1.35782 0
M  V30 1665 C 166.603 1.84673 3.09723 0
M  V30 1666 O 165.707 1.14231 3.96264 0
M  V30 1667 H 165.048 0.404303 0.526721 0
M  V30 1668 H 167.578 1.68152 1.1656 0
M  V30 1669 H 167.588 1.91893 3.60057 0
M  V30 1670 H 166.263 2.89421 2.98677 0
M  V30 1671 H 164.84 1.15056 3.54706 0
M  V30 1672 N 167.025 -1.13721 1.09112 0
M  V30 1673 C 168.25 -1.89314 0.847053 0
M  V30 1674 C 168.675 -1.78416 -0.595774 0
M  V30 1675 O 168.033 -1.12942 -1.41823 0
M  V30 1676 C 168.081 -3.3701 1.28284 0
M  V30 1677 O 167.185 -4.10054 0.439267 0
M  V30 1678 H 166.526 -0.588745 0.307044 0
M  V30 1679 H 169.056 -1.43902 1.45442 0
M  V30 1680 H 169.066 -3.87834 1.26683 0
M  V30 1681 H 167.741 -3.4426 2.33363 0
M  V30 1682 H 166.318 -3.69266 0.519312 0
M  V30 1683 N 168.503 -0.877838 -1.30888 0
M  V30 1684 C 169.435 -0.296607 -2.27273 0
M  V30 1685 C 170.448 0.544799 -1.53414 0
M  V30 1686 O 171.637 0.365511 -1.74718 0
M  V30 1687 C 168.737 0.597481 -3.33592 0
M  V30 1688 C 167.91 -0.213251 -4.3688 0
M  V30 1689 C 166.969 0.610208 -5.2265 0
M  V30 1690 O 165.995 0.035441 -5.69189 0
M  V30 1691 N 167.197 1.92071 -5.47804 0
M  V30 1692 H 169.962 -1.12492 -2.77787 0
M  V30 1693 H 167.523 -0.740105 -1.43993 0
M  V30 1694 H 169.515 1.15425 -3.87891 0
M  V30 1695 H 168.085 1.32647 -2.83061 0
M  V30 1696 H 167.305 -0.951466 -3.82545 0
M  V30 1697 H 168.593 -0.769262 -5.02951 0
M  V30 1698 H 167.991 2.4107 -5.11763 0
M  V30 1699 H 166.548 2.42508 -6.05007 0
M  V30 1700 N 169.982 1.44106 -0.638065 0
M  V30 1701 C 171.229 2.01978 -0.14533 0
M  V30 1702 C 171.557 1.50234 1.23532 0
M  V30 1703 O 170.812 0.679548 1.83523 0
M  V30 1704 C 171.111 3.5729 -0.0887327 0
M  V30 1705 C 170.777 4.28317 -1.40909 0
M  V30 1706 C 169.439 4.47437 -1.77069 0
M  V30 1707 C 171.791 4.6867 -2.28031 0
M  V30 1708 C 169.119 5.04171 -3.00047 0
M  V30 1709 C 171.471 5.26766 -3.50286 0
M  V30 1710 C 170.135 5.44104 -3.86661 0
M  V30 1711 H 169.405 0.739089 -0.0531801 0
M  V30 1712 H 172.052 1.72781 -0.825761 0
M  V30 1713 H 170.357 3.8594 0.675095 0
M  V30 1714 H 172.054 3.99807 0.309145 0
M  V30 1715 H 168.644 4.1377 -1.1177 0
M  V30 1716 H 172.828 4.53604 -2.01388 0
M  V30 1717 H 168.084 5.15782 -3.28298 0
M  V30 1718 H 172.258 5.56983 -4.18023 0
M  V30 1719 H 169.885 5.87832 -4.82034 0
M  V30 1720 N 171.46 0.379036 1.52974 0
M  V30 1721 C 172.69 -0.20649 2.05566 0
M  V30 1722 C 173.098 -1.41906 1.25137 0
M  V30 1723 O 172.441 -1.81421 0.288464 0
M  V30 1724 C 172.503 -0.651086 3.53555 0
M  V30 1725 C 172.167 0.446626 4.54812 0
M  V30 1726 C 173.164 1.30079 5.03364 0
M  V30 1727 C 170.849 0.610719 4.98573 0
M  V30 1728 C 172.843 2.30426 5.94292 0
M  V30 1729 C 170.53 1.61754 5.89304 0
M  V30 1730 C 171.528 2.46274 6.37054 0
M  V30 1731 O 171.216 3.45237 7.25994 0
M  V30 1732 H 170.948 -0.0372381 0.674974 0
M  V30 1733 H 173.502 0.539718 1.98182 0
M  V30 1734 H 171.732 -1.44911 3.58522 0
M  V30 1735 H 173.421 -1.16112 3.88938 0
M  V30 1736 H 174.187 1.18527 4.70294 0
M  V30 1737 H 170.066 -0.0374044 4.60985 0
M  V30 1738 H 173.61 2.96432 6.31485 0
M  V30 1739 H 169.507 1.73348 6.21788 0
M  V30 1740 H 170.275 3.41124 7.44027 0
M  V30 1741 N 172.938 -1.57226 0.108567 0
M  V30 1742 C 173.868 -2.17778 -0.84232 0
M  V30 1743 C 174.849 -1.11487 -1.2847 0
M  V30 1744 O 176.034 -1.39681 -1.34918 0
M  V30 1745 C 173.164 -2.76888 -2.09644 0
M  V30 1746 C 172.118 -3.88669 -1.79221 0
M  V30 1747 C 171.444 -4.34541 -3.11574 0
M  V30 1748 C 172.744 -5.11251 -1.06864 0
M  V30 1749 H 174.438 -2.97489 -0.337774 0
M  V30 1750 H 171.984 -1.43097 -0.161025 0
M  V30 1751 H 173.937 -3.17904 -2.76614 0
M  V30 1752 H 172.661 -1.94451 -2.62405 0
M  V30 1753 H 171.32 -3.48213 -1.14644 0
M  V30 1754 H 170.968 -3.48977 -3.62249 0
M  V30 1755 H 170.668 -5.09914 -2.91996 0
M  V30 1756 H 172.192 -4.782 -3.7968 0
M  V30 1757 H 173.606 -5.49352 -1.63968 0
M  V30 1758 H 172.003 -5.9214 -0.974178 0
M  V30 1759 H 173.073 -4.8487 -0.0536168 0
M  V30 1760 N 174.416 0.165178 -1.56732 0
M  V30 1761 C 175.832 0.517174 -1.50988 0
M  V30 1762 C 176.032 1.84331 -0.813894 0
M  V30 1763 O 175.088 2.49672 -0.37682 0
M  V30 1764 C 176.401 0.544261 -2.95733 0
M  V30 1765 C 177.949 0.631039 -3.06573 0
M  V30 1766 C 178.424 0.68896 -4.52788 0
M  V30 1767 N 179.915 0.751683 -4.5706 0
M  V30 1768 C 180.65 0.817177 -5.67547 0
M  V30 1769 N 180.146 0.843129 -6.8765 0
M  V30 1770 N 181.939 0.856668 -5.55534 0
M  V30 1771 H 174.09 -0.704318 -2.00382 0
M  V30 1772 H 176.353 -0.254687 -0.913148 0
M  V30 1773 H 176.059 -0.361607 -3.49836 0
M  V30 1774 H 175.933 1.3886 -3.5071 0
M  V30 1775 H 178.32 1.52733 -2.52501 0
M  V30 1776 H 178.401 -0.240095 -2.54671 0
M  V30 1777 H 178.045 -0.2031 -5.07494 0
M  V30 1778 H 177.975 1.57633 -5.02454 0
M  V30 1779 H 180.466 0.739661 -3.70591 0
M  V30 1780 H 180.779 0.894448 -7.67606 0
M  V30 1781 H 179.124 0.811304 -6.90248 0
M  V30 1782 H 182.315 0.833437 -4.60621 0
M  V30 1783 H 182.488 0.904247 -6.4166 0
M  V30 1784 N 175.894 1.51508 0.433938 0
M  V30 1785 C 176.804 1.75917 1.5521 0
M  V30 1786 C 177.82 0.643545 1.61662 0
M  V30 1787 O 178.996 0.926183 1.7884 0
M  V30 1788 C 176.061 1.88213 2.91164 0
M  V30 1789 C 175.122 3.12074 2.94802 0
M  V30 1790 C 174.355 3.23774 4.24271 0
M  V30 1791 O 174.578 2.4133 5.16833 0
M  V30 1792 O 173.512 4.16774 4.34262 0
M  V30 1793 H 177.338 2.70777 1.37527 0
M  V30 1794 H 174.923 1.36051 0.617293 0
M  V30 1795 H 176.805 1.98267 3.71845 0
M  V30 1796 H 175.48 0.965413 3.08968 0
M  V30 1797 H 174.387 3.07497 2.13065 0
M  V30 1798 H 175.72 4.03446 2.81943 0
M  V30 1799 N 177.372 -0.689602 1.41712 0
M  V30 1800 C 178.282 -1.83314 1.46401 0
M  V30 1801 C 179.298 -1.7036 0.35405 0
M  V30 1802 O 180.474 -1.92171 0.602692 0
M  V30 1803 C 177.539 -3.19344 1.34982 0
M  V30 1804 C 176.6 -3.44363 2.56344 0
M  V30 1805 C 175.833 -4.73904 2.45461 0
M  V30 1806 O 176.056 -5.508 1.48241 0
M  V30 1807 O 174.99 -4.99839 3.35328 0
M  V30 1808 H 178.816 -1.82314 2.42889 0
M  V30 1809 H 176.401 -0.843438 1.23315 0
M  V30 1810 H 178.283 -4.00547 1.3092 0
M  V30 1811 H 176.958 -3.21014 0.41612 0
M  V30 1812 H 175.865 -2.63067 2.65982 0
M  V30 1813 H 177.198 -3.47512 3.48563 0
M  V30 1814 N 178.85 -1.27639 -0.924453 0
M  V30 1815 C 180.127 -1.04887 -1.651 0
M  V30 1816 C 180.507 0.415327 -2.06974 0
M  V30 1817 O 179.855 1.39923 -1.80648 0
M  V30 1818 C 180.065 -2.01348 -2.85061 0
M  V30 1819 C 181.413 -2.30899 -3.56329 0
M  V30 1820 O 182.437 -1.99348 -2.95193 0
M  V30 1821 O 181.296 -2.84699 -4.66485 0
M  V30 1822 H 178.39 -0.400083 -0.723784 0
M  V30 1823 H 180.936 -1.38916 -0.974703 0
M  V30 1824 H 179.708 -3.0008 -2.51133 0
M  V30 1825 H 179.331 -1.679 -3.6041 0
M  V30 1826 N 180.328 1.1314 -1.09713 0
M  V30 1827 C 181.577 1.83838 -0.829851 0
M  V30 1828 C 181.89 1.84599 0.646728 0
M  V30 1829 O 183.096 2.51218 1.02965 0
M  V30 1830 C 181.552 3.30069 -1.43466 0
M  V30 1831 C 181.16 3.37688 -2.94399 0
M  V30 1832 C 182.904 4.05788 -1.24645 0
M  V30 1833 C 180.811 4.78209 -3.47952 0
M  V30 1834 H 179.741 0.68877 -0.306777 0
M  V30 1835 H 182.392 1.27448 -1.3202 0
M  V30 1836 H 180.774 3.8628 -0.871996 0
M  V30 1837 H 181.948 2.91456 -3.56918 0
M  V30 1838 H 180.263 2.75436 -3.12289 0
M  V30 1839 H 182.86 5.09535 -1.62107 0
M  V30 1840 H 183.203 4.15878 -0.187357 0
M  V30 1841 H 183.736 3.55915 -1.77678 0
M  V30 1842 H 180.475 4.73311 -4.53495 0
M  V30 1843 H 179.995 5.24924 -2.90198 0
M  V30 1844 H 181.674 5.47133 -3.45332 0
M  V30 1845 N 181.806 0.884767 1.30421 0
M  V30 1846 C 183.054 0.502112 1.95763 0
M  V30 1847 C 183.375 -0.951815 1.70192 0
M  V30 1848 O 182.645 -1.6692 1.0254 0
M  V30 1849 H 181.225 0.182694 0.724315 0
M  V30 1850 H 183.887 1.1278 1.58955 0
M  V30 1851 H 182.983 0.672188 3.04775 0
M  V30 1852 N 183.284 -1.43765 0.645699 0
M  V30 1853 C 184.231 -2.30745 -0.0504648 0
M  V30 1854 C 185.201 -1.4432 -0.822241 0
M  V30 1855 O 186.386 -1.73202 -0.800358 0
M  V30 1856 C 183.526 -3.29802 -1.0161 0
M  V30 1857 C 182.639 -4.31326 -0.241219 0
M  V30 1858 C 181.774 -5.17469 -1.19998 0
M  V30 1859 C 180.813 -6.10691 -0.415094 0
M  V30 1860 N 179.95 -6.89483 -1.32506 0
M  V30 1861 H 184.79 -2.8973 0.697155 0
M  V30 1862 H 182.327 -1.42738 0.355563 0
M  V30 1863 H 184.285 -3.85734 -1.58949 0
M  V30 1864 H 182.915 -2.72483 -1.73069 0
M  V30 1865 H 181.967 -3.77749 0.448334 0
M  V30 1866 H 183.279 -4.9743 0.369437 0
M  V30 1867 H 182.433 -5.7799 -1.84424 0
M  V30 1868 H 181.172 -4.51473 -1.84455 0
M  V30 1869 H 180.177 -5.49265 0.242565 0
M  V30 1870 H 181.402 -6.78727 0.224966 0
M  V30 1871 H 179.348 -6.26142 -1.95657 0
M  V30 1872 H 179.265 -7.52081 -0.768783 0
M  V30 1873 H 180.533 -7.54516 -1.9577 0
M  V30 1874 N 184.763 -0.387143 -1.52771 0
M  V30 1875 C 185.711 0.463953 -2.27926 0
M  V30 1876 C 186.705 1.06493 -1.31741 0
M  V30 1877 O 187.911 1.00565 -1.49287 0
M  V30 1878 H 184.286 0.16837 -0.732909 0
M  V30 1879 H 186.257 -0.19141 -2.97785 0
M  V30 1880 C 185.006 1.5803 -3.09713 0
M  V30 1881 H 184.329 1.12718 -3.83581 0
M  V30 1882 H 185.769 2.15008 -3.65442 0
M  V30 1883 C 184.228 2.53509 -2.2189 0
M  V30 1884 O 184.758 3.56863 -1.84422 0
M  V30 1885 N 182.964 2.23199 -1.86093 0
M  V30 1886 H 182.511 1.39185 -2.16761 0
M  V30 1887 H 182.469 2.87333 -1.27621 0
M  V30 1888 N 186.241 1.57166 -0.116904 0
M  V30 1889 C 187.657 1.5779 0.239693 0
M  V30 1890 C 187.857 1.1295 1.66867 0
M  V30 1891 O 186.913 0.81592 2.38954 0
M  V30 1892 C 188.226 3.00699 0.00828202 0
M  V30 1893 C 189.774 3.12912 0.0743438 0
M  V30 1894 C 190.249 4.57817 -0.129348 0
M  V30 1895 N 191.74 4.63139 -0.075247 0
M  V30 1896 C 192.475 5.73023 -0.207788 0
M  V30 1897 N 191.971 6.91665 -0.396382 0
M  V30 1898 N 193.764 5.61906 -0.14751 0
M  V30 1899 H 185.915 1.84615 -1.05029 0
M  V30 1900 H 188.178 0.85311 -0.41341 0
M  V30 1901 H 187.884 3.37784 -0.979531 0
M  V30 1902 H 187.758 3.69848 0.741077 0
M  V30 1903 H 190.145 2.75686 1.05268 0
M  V30 1904 H 190.226 2.4631 -0.690297 0
M  V30 1905 H 189.87 4.95742 -1.10465 0
M  V30 1906 H 189.8 5.22507 0.655253 0
M  V30 1907 H 192.291 3.7784 0.0670898 0
M  V30 1908 H 192.604 7.71255 -0.488437 0
M  V30 1909 H 190.949 6.93654 -0.432329 0
M  V30 1910 H 194.14 4.681 -0.00115036 0
M  V30 1911 H 194.313 6.47501 -0.254247 0
M  V30 1912 N 187.719 -0.156864 1.56817 0
M  V30 1913 C 188.682 -1.17781 1.96622 0
M  V30 1914 C 189.682 -1.36401 0.851555 0
M  V30 1915 O 190.872 -1.33561 1.11836 0
M  V30 1916 C 188.004 -2.54008 2.27361 0
M  V30 1917 H 189.197 -0.836564 2.87996 0
M  V30 1918 H 186.75 -0.39985 1.51099 0
M  V30 1919 H 187.485 -2.9312 1.38748 0
M  V30 1920 H 187.27 -2.41856 3.08623 0
M  V30 1921 H 188.76 -3.27558 2.59029 0
M  V30 1922 N 189.197 -1.51736 -0.425897 0
M  V30 1923 C 190.107 -1.76738 -1.54275 0
M  V30 1924 C 191.123 -0.65211 -1.61318 0
M  V30 1925 O 192.299 -0.935654 -1.78346 0
M  V30 1926 C 189.364 -1.89755 -2.90162 0
M  V30 1927 C 188.425 -3.13633 -2.93143 0
M  V30 1928 C 187.658 -3.2602 -4.22548 0
M  V30 1929 O 187.881 -2.44067 -5.15546 0
M  V30 1930 O 186.815 -4.19071 -4.32046 0
M  V30 1931 H 190.641 -2.71502 -1.36089 0
M  V30 1932 H 188.226 -1.36376 -0.610069 0
M  V30 1933 H 190.108 -2.00236 -3.70788 0
M  V30 1934 H 188.783 -0.981785 -3.08452 0
M  V30 1935 H 187.69 -3.08622 -2.11431 0
M  V30 1936 H 189.023 -4.04936 -2.798 0
M  V30 1937 N 190.675 0.682077 -1.42076 0
M  V30 1938 C 191.921 1.44428 -1.42367 0
M  V30 1939 C 192.254 1.94164 -0.0373056 0
M  V30 1940 O 191.529 1.70429 0.937239 0
M  V30 1941 C 191.812 2.64654 -2.44194 0
M  V30 1942 C 191.665 2.20596 -3.91991 0
M  V30 1943 C 192.984 3.66865 -2.431 0
M  V30 1944 H 190.103 0.523834 -0.518428 0
M  V30 1945 H 192.745 0.77576 -1.73442 0
M  V30 1946 H 190.895 3.2169 -2.17826 0
M  V30 1947 H 192.567 1.68783 -4.29313 0
M  V30 1948 H 190.81 1.52242 -4.06208 0
M  V30 1949 H 191.481 3.06921 -4.58807 0
M  V30 1950 H 193.957 3.19531 -2.66532 0
M  V30 1951 H 192.833 4.48577 -3.16339 0
M  V30 1952 H 193.094 4.17493 -1.45437 0
M  V30 1953 N 192.153 1.28127 0.917671 0
M  V30 1954 C 193.378 1.18007 1.70555 0
M  V30 1955 C 193.803 -0.258257 1.86319 0
M  V30 1956 O 193.161 -1.1869 1.37049 0
M  V30 1957 C 193.209 1.87948 3.07746 0
M  V30 1958 O 192.313 1.18427 3.9503 0
M  V30 1959 H 191.654 0.409867 0.522403 0
M  V30 1960 H 194.184 1.69379 1.1477 0
M  V30 1961 H 194.194 1.95701 3.58001 0
M  V30 1962 H 192.869 2.92573 2.95591 0
M  V30 1963 H 191.446 1.18811 3.53466 0
M  V30 1964 N 193.631 -1.12557 1.10312 0
M  V30 1965 C 194.563 -2.17971 0.708625 0
M  V30 1966 C 195.576 -1.60806 -0.254027 0
M  V30 1967 O 196.765 -1.78458 -0.0386891 0
M  V30 1968 C 193.865 -3.38891 0.0248198 0
M  V30 1969 C 193.038 -4.25548 1.01132 0
M  V30 1970 C 192.097 -5.24972 0.35924 0
M  V30 1971 O 191.123 -5.60174 1.00965 0
M  V30 1972 N 192.325 -5.73747 -0.882847 0
M  V30 1973 H 195.09 -2.52427 1.61557 0
M  V30 1974 H 192.651 -1.27967 0.991771 0
M  V30 1975 H 194.643 -4.02485 -0.422852 0
M  V30 1976 H 193.213 -3.02596 -0.784514 0
M  V30 1977 H 192.433 -3.58589 1.6373 0
M  V30 1978 H 193.721 -4.80294 1.67914 0
M  V30 1979 H 193.119 -5.4731 -1.43065 0
M  V30 1980 H 191.676 -6.39234 -1.27369 0
M  V30 1981 N 195.109 -0.891671 -1.2995 0
M  V30 1982 C 196.52 -0.563104 -1.78006 0
M  V30 1983 C 196.871 0.920978 -1.73241 0
M  V30 1984 O 195.996 1.71987 -1.31337 0
M  V30 1985 C 196.591 -1.01539 -3.23226 0
M  V30 1986 C 195.15 -0.738124 -3.69092 0
M  V30 1987 C 194.297 -1.19461 -2.50249 0
M  V30 1988 H 197.248 -1.07522 -1.16725 0
M  V30 1989 H 197.269 -0.347217 -3.78912 0
M  V30 1990 H 196.781 -2.09555 -3.26662 0
M  V30 1991 H 194.882 0.329766 -3.71138 0
M  V30 1992 H 194.995 -1.33037 -4.60259 0
M  V30 1993 H 193.359 -0.613787 -2.47194 0
M  V30 1994 H 194.142 -2.28265 -2.56417 0
M  V30 1995 N 196.587 1.43421 -0.653314 0
M  V30 1996 C 198.003 1.56341 -0.320886 0
M  V30 1997 C 198.203 1.63696 1.17499 0
M  V30 1998 O 197.259 1.59208 1.95982 0
M  V30 1999 C 198.572 2.82424 -1.03233 0
M  V30 2000 C 200.12 2.96168 -1.01259 0
M  V30 2001 C 200.595 4.25084 -1.70492 0
M  V30 2002 N 202.086 4.31948 -1.67257 0
M  V30 2003 C 202.821 5.30466 -2.17701 0
M  V30 2004 N 202.317 6.35261 -2.76434 0
M  V30 2005 N 204.11 5.2212 -2.082 0
M  V30 2006 H 196.261 1.3689 -1.62403 0
M  V30 2007 H 198.524 0.657455 -0.682977 0
M  V30 2008 H 198.23 2.83053 -2.08744 0
M  V30 2009 H 198.104 3.72653 -0.583948 0
M  V30 2010 H 200.491 2.9508 0.0341235 0
M  V30 2011 H 200.572 2.07229 -1.49966 0
M  V30 2012 H 200.216 4.26932 -2.7512 0
M  V30 2013 H 200.146 5.1292 -1.19251 0
M  V30 2014 H 202.637 3.56838 -1.24398 0
M  V30 2015 H 202.95 7.06754 -3.12601 0
M  V30 2016 H 201.295 6.35884 -2.80495 0
M  V30 2017 H 204.486 4.39166 -1.62021 0
M  V30 2018 H 204.659 5.98739 -2.47822 0
M  V30 2019 N 198.065 0.39524 1.52563 0
M  V30 2020 C 198.995 -0.428384 2.29537 0
M  V30 2021 C 199.976 -1.05831 1.33169 0
M  V30 2022 O 201.161 -1.06995 1.62067 0
M  V30 2023 C 198.291 -1.55274 3.10656 0
M  V30 2024 C 197.245 -1.04855 4.14957 0
M  V30 2025 C 196.571 -2.26543 4.84337 0
M  V30 2026 C 197.871 -0.112324 5.22179 0
M  V30 2027 H 199.565 0.213867 2.98635 0
M  V30 2028 H 197.111 0.104298 1.43622 0
M  V30 2029 H 199.064 -2.1358 3.63265 0
M  V30 2030 H 197.788 -2.22266 2.39302 0
M  V30 2031 H 196.447 -0.487985 3.63338 0
M  V30 2032 H 196.095 -2.92059 4.09525 0
M  V30 2033 H 195.795 -1.93466 5.54837 0
M  V30 2034 H 197.319 -2.85481 5.39753 0
M  V30 2035 H 198.733 -0.603752 5.70112 0
M  V30 2036 H 197.13 0.128968 5.99961 0
M  V30 2037 H 198.2 0.837052 4.77621 0
M  V30 2038 N 199.544 -1.57102 0.125237 0
M  V30 2039 C 200.507 -2.14471 -0.80838 0
M  V30 2040 C 201.507 -1.0811 -1.19033 0
M  V30 2041 O 202.697 -1.33856 -1.11482 0
M  V30 2042 C 199.829 -2.69005 -2.09402 0
M  V30 2043 H 201.022 -2.98297 -0.309696 0
M  V30 2044 H 198.575 -1.55807 -0.124051 0
M  V30 2045 H 199.31 -1.88785 -2.63687 0
M  V30 2046 H 199.095 -3.46799 -1.82957 0
M  V30 2047 H 200.585 -3.13278 -2.76128 0
M  V30 2048 N 201.022 0.148545 -1.56898 0
M  V30 2049 C 201.932 1.20293 -2.01412 0
M  V30 2050 C 202.948 1.47107 -0.929273 0
M  V30 2051 O 204.124 1.58807 -1.23863 0
M  V30 2052 C 201.189 2.51682 -2.38447 0
M  V30 2053 C 200.25 2.32529 -3.60872 0
M  V30 2054 C 199.483 3.57653 -3.96132 0
M  V30 2055 O 199.706 4.63771 -3.32073 0
M  V30 2056 O 198.64 3.50408 -4.89385 0
M  V30 2057 H 202.466 0.855025 -2.91416 0
M  V30 2058 H 200.051 0.357151 -1.45068 0
M  V30 2059 H 201.933 3.29147 -2.63135 0
M  V30 2060 H 200.608 2.86006 -1.51599 0
M  V30 2061 H 199.515 1.53019 -3.41373 0
M  V30 2062 H 200.848 2.03121 -4.48333 0
M  V30 2063 N 202.5 1.5196 0.417844 0
M  V30 2064 C 203.43 1.77634 1.51554 0
M  V30 2065 C 204.411 0.626918 1.58126 0
M  V30 2066 O 205.596 0.871632 1.7354 0
M  V30 2067 C 202.726 1.91911 2.8946 0
M  V30 2068 C 201.68 3.07463 2.97743 0
M  V30 2069 C 201.006 3.06951 4.37819 0
M  V30 2070 C 202.306 4.47082 2.70027 0
M  V30 2071 H 204 2.6955 1.3032 0
M  V30 2072 H 201.546 1.29706 0.625492 0
M  V30 2073 H 203.499 2.08455 3.6623 0
M  V30 2074 H 202.223 0.966598 3.11969 0
M  V30 2075 H 200.882 2.90656 2.23416 0
M  V30 2076 H 200.53 2.09438 4.57323 0
M  V30 2077 H 200.23 3.84556 4.44286 0
M  V30 2078 H 201.754 3.25613 5.16535 0
M  V30 2079 H 203.168 4.6414 3.36522 0
M  V30 2080 H 201.565 5.2654 2.87881 0
M  V30 2081 H 202.635 4.55777 1.65514 0
M  V30 2082 N 203.978 -0.674533 1.42435 0
M  V30 2083 C 204.926 -1.80934 1.46169 0
M  V30 2084 C 205.92 -1.66006 0.3374 0
M  V30 2085 O 207.126 -1.72611 0.510425 0
M  V30 2086 H 203.501 -0.596594 0.457798 0
M  V30 2087 H 205.472 -1.74903 2.41767 0
M  V30 2088 C 204.221 -3.19088 1.38123 0
M  V30 2089 H 203.544 -3.31203 2.23931 0
M  V30 2090 H 204.984 -3.9851 1.44797 0
M  V30 2091 C 203.443 -3.36763 0.0960517 0
M  V30 2092 O 203.973 -3.92581 -0.851073 0
M  V30 2093 N 202.179 -2.90597 0.0131186 0
M  V30 2094 H 201.726 -2.45359 0.784639 0
M  V30 2095 H 201.684 -3.028 -0.846133 0
M  V30 2096 N 205.456 -1.28612 -0.910864 0
M  V30 2097 C 206.681 -1.1891 -1.69927 0
M  V30 2098 C 207.106 0.248372 -1.86453 0
M  V30 2099 O 206.464 1.17961 -1.37676 0
M  V30 2100 C 206.512 -1.89578 -3.06745 0
M  V30 2101 O 205.616 -1.20521 -3.94396 0
M  V30 2102 H 204.957 -0.412632 -0.520222 0
M  V30 2103 H 207.487 -1.69985 -1.1387 0
M  V30 2104 H 207.497 -1.97597 -3.56958 0
M  V30 2105 H 206.172 -2.94136 -2.94035 0
M  V30 2106 H 204.749 -1.20684 -3.52831 0
M  V30 2107 N 206.934 1.1197 -1.10907 0
M  V30 2108 C 208.164 1.8713 -0.875553 0
M  V30 2109 C 208.572 1.8016 0.577843 0
M  V30 2110 O 207.915 1.17699 1.41042 0
M  V30 2111 C 207.977 3.37005 -1.2517 0
M  V30 2112 C 207.641 3.67748 -2.71313 0
M  V30 2113 C 208.638 3.65698 -3.69542 0
M  V30 2114 C 206.323 3.96928 -3.07821 0
M  V30 2115 C 208.317 3.92395 -5.023 0
M  V30 2116 C 206.004 4.23284 -4.40765 0
M  V30 2117 C 207.002 4.21005 -5.37814 0
M  V30 2118 O 206.69 4.46704 -6.68364 0
M  V30 2119 H 206.422 0.598786 -0.313737 0
M  V30 2120 H 208.976 1.42568 -1.47863 0
M  V30 2121 H 207.206 3.82146 -0.591741 0
M  V30 2122 H 208.895 3.93519 -0.994877 0
M  V30 2123 H 209.661 3.43211 -3.42682 0
M  V30 2124 H 205.54 3.97841 -2.32902 0
M  V30 2125 H 209.084 3.90531 -5.78041 0
M  V30 2126 H 204.981 4.45246 -4.67361 0
M  V30 2127 H 205.749 4.64299 -6.74069 0
M  V30 2128 N 208.412 0.89855 1.29475 0
M  V30 2129 C 209.658 0.524658 1.95896 0
M  V30 2130 C 209.991 -0.926468 1.70676 0
M  V30 2131 O 209.266 -1.65665 1.01908 0
M  V30 2132 C 209.549 0.81633 3.50725 0
M  V30 2133 C 209.402 2.31907 3.85408 0
M  V30 2134 C 210.721 0.302038 4.39062 0
M  V30 2135 H 207.84 0.19209 0.711527 0
M  V30 2136 H 210.482 1.12502 1.53112 0
M  V30 2137 H 208.632 0.305369 3.87298 0
M  V30 2138 H 210.304 2.89949 3.58786 0
M  V30 2139 H 208.547 2.78027 3.32992 0
M  V30 2140 H 209.218 2.47373 4.93468 0
M  V30 2141 H 211.694 0.739551 4.09475 0
M  V30 2142 H 210.57 0.535331 5.46283 0
M  V30 2143 H 210.831 -0.797216 4.34853 0
M  V30 2144 N 209.89 -1.43072 0.660911 0
M  V30 2145 C 211.301 -1.84932 0.256348 0
M  V30 2146 C 211.652 -1.55325 -1.19868 0
M  V30 2147 O 210.777 -1.00607 -1.91591 0
M  V30 2148 C 211.372 -3.35684 0.458475 0
M  V30 2149 C 209.931 -3.76245 0.108161 0
M  V30 2150 C 209.078 -2.66749 0.757641 0
M  V30 2151 H 212.029 -1.33116 0.864051 0
M  V30 2152 H 212.05 -3.79365 -0.293683 0
M  V30 2153 H 211.562 -3.572 1.51755 0
M  V30 2154 H 209.663 -3.60338 -0.948014 0
M  V30 2155 H 209.776 -4.76058 0.538992 0
M  V30 2156 H 208.14 -2.53989 0.190185 0
M  V30 2157 H 208.923 -2.91092 1.81989 0
M  V30 2158 N 211.368 -0.403325 -1.52352 0
M  V30 2159 C 212.614 0.174605 -2.02047 0
M  V30 2160 C 212.947 1.45282 -1.28867 0
M  V30 2161 O 212.222 1.90483 -0.393257 0
M  V30 2162 C 212.505 0.428238 -3.57545 0
M  V30 2163 C 212.358 -0.866248 -4.4138 0
M  V30 2164 C 213.677 1.21287 -4.23057 0
M  V30 2165 H 210.796 0.0619851 -0.734389 0
M  V30 2166 H 213.438 -0.53565 -1.82293 0
M  V30 2167 H 211.588 1.03327 -3.74507 0
M  V30 2168 H 213.26 -1.50265 -4.3614 0
M  V30 2169 H 211.503 -1.47851 -4.07827 0
M  V30 2170 H 212.174 -0.643249 -5.48239 0
M  V30 2171 H 214.65 0.700703 -4.10158 0
M  V30 2172 H 213.526 1.35909 -5.31808 0
M  V30 2173 H 213.787 2.23193 -3.81625 0
M  V30 2174 N 212.846 1.57033 -0.133567 0
M  V30 2175 C 214.074 2.00044 0.528195 0
M  V30 2176 C 214.489 1.01349 1.59291 0
M  V30 2177 O 213.846 0.00848369 1.82498 0
M  V30 2178 C 213.897 3.43018 1.1411 0
M  V30 2179 O 213.618 4.37939 0.11892 0
M  V30 2180 C 215.119 4.01237 1.88477 0
M  V30 2181 H 212.339 0.656517 0.138661 0
M  V30 2182 H 214.883 2.03267 -0.224196 0
M  V30 2183 H 213.038 3.40688 1.84418 0
M  V30 2184 H 213.452 5.21436 0.56613 0
M  V30 2185 H 214.926 5.03314 2.26669 0
M  V30 2186 H 215.403 3.41193 2.76558 0
M  V30 2187 H 216.009 4.07156 1.22898 0
M  V30 2188 N 214.325 -0.140222 1.56975 0
M  V30 2189 C 215.288 -1.15689 1.97861 0
M  V30 2190 C 216.288 -1.3549 0.865974 0
M  V30 2191 O 217.478 -1.32367 1.13246 0
M  V30 2192 C 214.61 -2.51582 2.30042 0
M  V30 2193 H 215.803 -0.805971 2.88867 0
M  V30 2194 H 213.356 -0.383801 1.51515 0
M  V30 2195 H 214.091 -2.91632 1.41849 0
M  V30 2196 H 213.876 -2.38569 3.11171 0
M  V30 2197 H 215.366 -3.24792 2.62488 0
M  V30 2198 N 215.803 -1.52179 -0.40978 0
M  V30 2199 C 217.033 -1.69807 -1.17682 0
M  V30 2200 C 217.441 -0.406908 -1.84773 0
M  V30 2201 O 216.784 0.626863 -1.72673 0
M  V30 2202 C 216.846 -2.77712 -2.2829 0
M  V30 2203 C 216.51 -4.19481 -1.81341 0
M  V30 2204 C 217.507 -5.03345 -1.30154 0
M  V30 2205 C 215.192 -4.65713 -1.88194 0
M  V30 2206 C 217.186 -6.31511 -0.864416 0
M  V30 2207 C 214.873 -5.93869 -1.44093 0
M  V30 2208 C 215.871 -6.76597 -0.933023 0
M  V30 2209 O 215.559 -8.02354 -0.49838 0
M  V30 2210 H 215.291 -0.572372 -0.359675 0
M  V30 2211 H 217.845 -1.99511 -0.488311 0
M  V30 2212 H 216.075 -2.43383 -3.00502 0
M  V30 2213 H 217.764 -2.83946 -2.90051 0
M  V30 2214 H 218.53 -4.68819 -1.24232 0
M  V30 2215 H 214.409 -4.01424 -2.26671 0
M  V30 2216 H 217.953 -6.96033 -0.467286 0
M  V30 2217 H 213.85 -6.27903 -1.49694 0
M  V30 2218 H 214.618 -8.16135 -0.621747 0
M  V30 2219 N 217.281 0.66697 -1.42791 0
M  V30 2220 C 218.509 1.45505 -1.47091 0
M  V30 2221 C 218.924 1.8861 -0.0845873 0
M  V30 2222 O 218.281 1.58632 0.90234 0
M  V30 2223 C 218.332 2.69906 -2.40485 0
M  V30 2224 O 218.053 2.28608 -3.73725 0
M  V30 2225 C 219.554 3.63396 -2.53886 0
M  V30 2226 H 216.774 0.447459 -0.500022 0
M  V30 2227 H 219.318 0.818866 -1.8739 0
M  V30 2228 H 217.473 3.29696 -2.03419 0
M  V30 2229 H 217.887 3.08997 -4.23817 0
M  V30 2230 H 219.361 4.47387 -3.2334 0
M  V30 2231 H 219.838 4.09824 -1.57927 0
M  V30 2232 H 220.444 3.09495 -2.91706 0
M  V30 2233 N 218.759 1.29093 0.90403 0
M  V30 2234 C 220.007 1.16583 1.65085 0
M  V30 2235 C 220.328 -0.283933 1.92922 0
M  V30 2236 O 219.598 -1.19509 1.55224 0
M  V30 2237 H 218.178 0.428467 0.611903 0
M  V30 2238 H 220.84 1.61959 1.08422 0
M  V30 2239 H 219.936 1.71266 2.6091 0
M  V30 2240 N 220.237 -1.11381 1.11499 0
M  V30 2241 C 221.648 -1.6465 0.880191 0
M  V30 2242 C 221.999 -1.87199 -0.587434 0
M  V30 2243 O 221.124 -1.60667 -1.44966 0
M  V30 2244 C 221.719 -2.99105 1.59128 0
M  V30 2245 C 220.278 -3.49279 1.40289 0
M  V30 2246 C 219.425 -2.24077 1.63354 0
M  V30 2247 H 222.376 -0.950123 1.27116 0
M  V30 2248 H 222.397 -3.66107 1.03664 0
M  V30 2249 H 221.909 -2.82661 2.65941 0
M  V30 2250 H 220.01 -3.70887 0.356888 0
M  V30 2251 H 220.123 -4.2803 2.15238 0
M  V30 2252 H 218.487 -2.31733 1.05698 0
M  V30 2253 H 219.27 -2.10175 2.71443 0
M  V30 2254 N 221.715 -0.905404 -1.28997 0
M  V30 2255 C 222.645 -0.404212 -2.29975 0
M  V30 2256 C 223.626 0.523784 -1.61835 0
M  V30 2257 O 224.811 0.433298 -1.89304 0
M  V30 2258 C 221.941 0.364042 -3.45387 0
M  V30 2259 C 220.895 -0.474048 -4.25367 0
M  V30 2260 C 220.221 0.422045 -5.33032 0
M  V30 2261 C 221.521 -1.72696 -4.92923 0
M  V30 2262 H 223.215 -1.24807 -2.72146 0
M  V30 2263 H 220.761 -0.601585 -1.30832 0
M  V30 2264 H 222.714 0.725447 -4.15109 0
M  V30 2265 H 221.438 1.24174 -3.02074 0
M  V30 2266 H 220.097 -0.81786 -3.57361 0
M  V30 2267 H 219.745 1.29804 -4.85963 0
M  V30 2268 H 219.445 -0.135057 -5.87445 0
M  V30 2269 H 220.969 0.779517 -6.05604 0
M  V30 2270 H 222.383 -1.43495 -5.55051 0
M  V30 2271 H 220.78 -2.22582 -5.57295 0
M  V30 2272 H 221.85 -2.45964 -4.17887 0
M  V30 2273 N 223.193 1.4272 -0.668489 0
M  V30 2274 C 224.439 2.01923 -0.188419 0
M  V30 2275 C 224.772 1.52704 1.19979 0
M  V30 2276 O 224.047 0.726566 1.8042 0
M  V30 2277 C 224.33 3.59451 -0.216085 0
M  V30 2278 C 224.183 4.18864 -1.6393 0
M  V30 2279 C 225.502 4.37903 0.439179 0
M  V30 2280 H 222.621 0.733674 -0.0699412 0
M  V30 2281 H 225.263 1.69822 -0.852076 0
M  V30 2282 H 223.413 3.86929 0.349012 0
M  V30 2283 H 225.085 4.02362 -2.25616 0
M  V30 2284 H 223.328 3.74933 -2.18193 0
M  V30 2285 H 223.999 5.27987 -1.61039 0
M  V30 2286 H 226.475 4.16079 -0.0417878 0
M  V30 2287 H 225.351 5.47519 0.389157 0
M  V30 2288 H 225.612 4.15303 1.51577 0
M  V30 2289 N 224.671 0.411399 1.52136 0
M  V30 2290 C 225.581 -0.419774 2.30814 0
M  V30 2291 C 226.597 -1.0515 1.38634 0
M  V30 2292 O 227.773 -1.05252 1.71709 0
M  V30 2293 C 224.838 -1.52019 3.11594 0
M  V30 2294 C 223.899 -0.91129 4.19516 0
M  V30 2295 C 223.132 -1.95927 4.96436 0
M  V30 2296 O 223.355 -3.17775 4.73683 0
M  V30 2297 O 222.289 -1.56423 5.81219 0
M  V30 2298 H 226.115 0.221805 3.02889 0
M  V30 2299 H 223.7 0.174547 1.48377 0
M  V30 2300 H 225.582 -2.15898 3.61892 0
M  V30 2301 H 224.257 -2.14633 2.42311 0
M  V30 2302 H 223.164 -0.235157 3.7336 0
M  V30 2303 H 224.497 -0.32904 4.91099 0
M  V30 2304 N 226.149 -1.5696 0.141893 0
M  V30 2305 C 227.426 -1.87553 -0.555281 0
M  V30 2306 C 227.806 -1.04699 -1.83306 0
M  V30 2307 O 227.154 -0.132346 -2.28116 0
M  V30 2308 C 227.364 -3.39093 -0.825664 0
M  V30 2309 C 228.712 -4.08199 -1.16869 0
M  V30 2310 O 229.736 -3.44242 -0.915185 0
M  V30 2311 O 228.595 -5.21139 -1.6455 0
M  V30 2312 H 225.689 -0.777188 -0.282679 0
M  V30 2313 H 228.235 -1.68763 0.17812 0
M  V30 2314 H 227.007 -3.91221 0.0788633 0
M  V30 2315 H 226.63 -3.63393 -1.61343 0
M  V30 2316 N 227.627 0.131896 -1.57047 0
M  V30 2317 C 228.874 0.841932 -1.84168 0
M  V30 2318 C 229.202 1.8048 -0.725066 0
M  V30 2319 O 228.457 1.93618 0.284692 0
M  V30 2320 C 228.756 1.63703 -3.17704 0
M  V30 2321 C 228.422 0.81961 -4.43388 0
M  V30 2322 C 227.084 0.594148 -4.77518 0
M  V30 2323 C 229.436 0.248977 -5.20605 0
M  V30 2324 C 226.764 -0.212409 -5.86315 0
M  V30 2325 C 229.116 -0.544701 -6.30251 0
M  V30 2326 C 227.78 -0.780599 -6.6292 0
M  V30 2327 H 227.05 0.308085 -0.673917 0
M  V30 2328 H 229.697 0.104867 -1.91213 0
M  V30 2329 H 228.002 2.44464 -3.06177 0
M  V30 2330 H 229.699 2.19015 -3.35907 0
M  V30 2331 H 226.289 1.00542 -4.16641 0
M  V30 2332 H 230.473 0.410408 -4.946 0
M  V30 2333 H 225.729 -0.404524 -6.1006 0
M  V30 2334 H 229.903 -0.993922 -6.89271 0
M  V30 2335 H 227.53 -1.40742 -7.47058 0
M  V30 2336 N 229.106 1.52395 0.401703 0
M  V30 2337 C 230.036 1.79231 1.49661 0
M  V30 2338 C 231.017 0.643654 1.57452 0
M  V30 2339 O 232.202 0.889989 1.72606 0
M  V30 2340 C 229.332 1.94971 2.87409 0
M  V30 2341 C 228.286 3.10604 2.94465 0
M  V30 2342 C 227.612 3.11577 4.34538 0
M  V30 2343 C 228.912 4.49921 2.6527 0
M  V30 2344 H 230.606 2.70917 1.27454 0
M  V30 2345 H 228.152 1.30362 0.6117 0
M  V30 2346 H 230.105 2.12328 3.63999 0
M  V30 2347 H 228.829 0.999632 3.10926 0
M  V30 2348 H 227.488 2.93009 2.20321 0
M  V30 2349 H 227.136 2.14277 4.55076 0
M  V30 2350 H 226.836 3.89247 4.40183 0
M  V30 2351 H 228.36 3.31073 5.13053 0
M  V30 2352 H 229.774 4.67683 3.31581 0
M  V30 2353 H 228.171 5.29564 2.82281 0
M  V30 2354 H 229.241 4.57507 1.60671 0
M  V30 2355 N 230.584 -0.659388 1.43143 0
M  V30 2356 C 231.809 -1.45221 1.48073 0
M  V30 2357 C 232.234 -1.87845 0.097995 0
M  V30 2358 O 231.592 -1.56985 -0.90694 0
M  V30 2359 C 231.64 -2.66748 2.42647 0
M  V30 2360 O 230.744 -3.65583 1.90848 0
M  V30 2361 H 230.085 -0.435669 0.501088 0
M  V30 2362 H 232.615 -0.807432 1.87994 0
M  V30 2363 H 232.625 -3.14637 2.59745 0
M  V30 2364 H 231.3 -2.35067 3.43098 0
M  V30 2365 H 229.877 -3.24693 1.83381 0
M  V30 2366 N 232.062 -1.29571 -0.897171 0
M  V30 2367 C 233.31 -1.17456 -1.64464 0
M  V30 2368 C 233.631 0.273698 -1.9307 0
M  V30 2369 O 232.901 1.18684 -1.55855 0
M  V30 2370 H 231.481 -0.431706 -0.609622 0
M  V30 2371 H 234.143 -1.62531 -1.07562 0
M  V30 2372 H 233.239 -1.72648 -2.59998 0
M  V30 2373 N 233.54 1.10788 -1.12088 0
M  V30 2374 C 234.787 1.82671 -0.873931 0
M  V30 2375 C 235.115 1.85004 0.600311 0
M  V30 2376 O 234.37 1.30365 1.45957 0
M  V30 2377 C 234.669 3.29294 -1.38926 0
M  V30 2378 C 234.335 3.47113 -2.87791 0
M  V30 2379 C 232.997 3.51684 -3.28439 0
M  V30 2380 C 235.349 3.52808 -3.83635 0
M  V30 2381 C 232.677 3.59513 -4.63646 0
M  V30 2382 C 235.029 3.62169 -5.18668 0
M  V30 2383 C 233.693 3.65003 -5.58864 0
M  V30 2384 H 232.963 0.668441 -0.319794 0
M  V30 2385 H 235.61 1.30613 -1.40045 0
M  V30 2386 H 233.915 3.83894 -0.783122 0
M  V30 2387 H 235.612 3.83416 -1.17443 0
M  V30 2388 H 232.202 3.4423 -2.5535 0
M  V30 2389 H 236.386 3.4853 -3.53328 0
M  V30 2390 H 231.642 3.59987 -4.94185 0
M  V30 2391 H 235.816 3.6552 -5.92763 0
M  V30 2392 H 233.443 3.70822 -6.63623 0
M  V30 2393 N 235.018 0.912232 1.28515 0
M  V30 2394 C 235.95 0.35676 2.26406 0
M  V30 2395 C 236.963 -0.503933 1.54804 0
M  V30 2396 O 238.152 -0.319059 1.75625 0
M  V30 2397 C 235.252 -0.508825 3.35058 0
M  V30 2398 C 234.425 0.329007 4.36161 0
M  V30 2399 C 233.484 -0.471422 5.24084 0
M  V30 2400 O 232.51 0.115482 5.69083 0
M  V30 2401 N 233.712 -1.77479 5.52704 0
M  V30 2402 H 236.477 1.19818 2.74707 0
M  V30 2403 H 234.038 0.778022 1.4198 0
M  V30 2404 H 236.03 -1.051 3.90815 0
M  V30 2405 H 234.6 -1.25095 2.86478 0
M  V30 2406 H 233.82 1.05256 3.79888 0
M  V30 2407 H 235.108 0.90234 5.00735 0
M  V30 2408 H 234.506 -2.27417 5.17975 0
M  V30 2409 H 233.063 -2.26382 6.11224 0
M  V30 2410 N 236.496 -1.42363 0.676048 0
M  V30 2411 C 237.742 -2.0182 0.199125 0
M  V30 2412 C 238.075 -1.53339 -1.19168 0
M  V30 2413 O 237.35 -0.736124 -1.80032 0
M  V30 2414 C 237.633 -3.59331 0.235144 0
M  V30 2415 C 237.486 -4.17989 1.66149 0
M  V30 2416 C 238.805 -4.3813 -0.41595 0
M  V30 2417 H 235.924 -0.733293 0.0738311 0
M  V30 2418 H 238.566 -1.69368 0.86107 0
M  V30 2419 H 236.716 -3.87109 -0.328487 0
M  V30 2420 H 238.388 -4.0116 2.27747 0
M  V30 2421 H 236.631 -3.7377 2.20178 0
M  V30 2422 H 237.302 -5.27126 1.63837 0
M  V30 2423 H 239.778 -4.16051 0.0638529 0
M  V30 2424 H 238.654 -5.47717 -0.360115 0
M  V30 2425 H 238.915 -4.16101 -1.49373 0
M  V30 2426 N 237.974 -0.419461 -1.51915 0
M  V30 2427 C 239.22 0.153166 -2.02221 0
M  V30 2428 C 239.553 1.43907 -1.30401 0
M  V30 2429 O 238.828 1.90055 -0.413438 0
M  V30 2430 C 239.111 0.390291 -3.57979 0
M  V30 2431 C 238.964 -0.913014 -4.40436 0
M  V30 2432 C 240.283 1.16794 -4.2432 0
M  V30 2433 H 237.402 0.0541924 -0.735005 0
M  V30 2434 H 240.044 -0.554955 -1.81715 0
M  V30 2435 H 238.194 0.993491 -3.75582 0
M  V30 2436 H 239.866 -1.54882 -4.34522 0
M  V30 2437 H 238.109 -1.52168 -4.06236 0
M  V30 2438 H 238.78 -0.701361 -5.47526 0
M  V30 2439 H 241.256 0.657161 -4.10878 0
M  V30 2440 H 240.132 1.3026 -5.3322 0
M  V30 2441 H 240.393 2.19132 -3.83971 0
M  V30 2442 N 239.452 1.56882 -0.150215 0
M  V30 2443 C 240.698 1.96518 0.500834 0
M  V30 2444 C 241.031 1.03527 1.64304 0
M  V30 2445 O 240.306 0.0782751 1.94342 0
M  V30 2446 C 240.589 3.45822 1.00395 0
M  V30 2447 C 240.442 4.49591 -0.136983 0
M  V30 2448 C 241.761 3.97704 1.88467 0
M  V30 2449 H 238.88 0.714535 0.18058 0
M  V30 2450 H 241.522 1.88577 -0.232091 0
M  V30 2451 H 239.672 3.5272 1.62851 0
M  V30 2452 H 241.344 4.5477 -0.77343 0
M  V30 2453 H 239.587 4.26441 -0.795652 0
M  V30 2454 H 240.258 5.51402 0.256815 0
M  V30 2455 H 242.734 3.93304 1.35834 0
M  V30 2456 H 241.61 5.0263 2.20578 0
M  V30 2457 H 241.871 3.40252 2.82279 0
M  V30 2458 N 240.93 -0.123565 1.57115 0
M  V30 2459 C 241.86 -1.15309 2.03042 0
M  V30 2460 C 242.841 -1.43454 0.914061 0
M  V30 2461 O 244.026 -1.53973 1.18347 0
M  V30 2462 C 241.156 -2.48043 2.43089 0
M  V30 2463 C 240.11 -2.3437 3.58127 0
M  V30 2464 C 239.436 -3.72026 3.84059 0
M  V30 2465 C 240.736 -1.80804 4.90007 0
M  V30 2466 H 242.43 -0.771102 2.893 0
M  V30 2467 H 239.976 -0.369479 1.39179 0
M  V30 2468 H 241.929 -3.20311 2.73823 0
M  V30 2469 H 240.653 -2.88122 1.53796 0
M  V30 2470 H 239.312 -1.64551 3.27595 0
M  V30 2471 H 238.96 -4.09582 2.91979 0
M  V30 2472 H 238.66 -3.63732 4.6149 0
M  V30 2473 H 240.184 -4.45806 4.1724 0
M  V30 2474 H 241.598 -2.42886 5.19307 0
M  V30 2475 H 239.995 -1.83343 5.71407 0
M  V30 2476 H 241.065 -0.76528 4.78823 0
M  V30 2477 N 242.408 -1.52605 -0.393616 0
M  V30 2478 C 243.636 -1.71294 -1.16043 0
M  V30 2479 C 244.051 -0.429259 -1.83855 0
M  V30 2480 O 243.408 0.595921 -1.72496 0
M  V30 2481 C 243.459 -2.8593 -2.21193 0
M  V30 2482 O 243.18 -4.09329 -1.56146 0
M  V30 2483 C 244.681 -3.16259 -3.10636 0
M  V30 2484 H 241.901 -0.573641 -0.348104 0
M  V30 2485 H 244.445 -1.99234 -0.461092 0
M  V30 2486 H 242.6 -2.60465 -2.86769 0
M  V30 2487 H 243.014 -4.73323 -2.25978 0
M  V30 2488 H 244.488 -3.99946 -3.80456 0
M  V30 2489 H 244.965 -2.3045 -3.73884 0
M  V30 2490 H 245.571 -3.43547 -2.50711 0
M  V30 2491 N 243.887 0.651787 -1.4349 0
M  V30 2492 C 244.835 1.78586 -1.49029 0
M  V30 2493 C 245.829 1.65448 -0.363767 0
M  V30 2494 O 247.035 1.71777 -0.537821 0
M  V30 2495 H 243.41 0.589236 -0.467231 0
M  V30 2496 H 245.381 1.71035 -2.44519 0
M  V30 2497 C 244.13 3.16851 -1.43181 0
M  V30 2498 H 243.453 3.27598 -2.29171 0
M  V30 2499 H 244.893 3.96156 -1.51118 0
M  V30 2500 C 243.352 3.36568 -0.149616 0
M  V30 2501 O 243.882 3.93885 0.788509 0
M  V30 2502 N 242.088 2.90539 -0.0593484 0
M  V30 2503 H 241.635 2.4408 -0.823575 0
M  V30 2504 H 241.593 3.04108 0.797853 0
M  V30 2505 N 245.365 1.30045 0.890287 0
M  V30 2506 C 246.593 1.21472 1.67487 0
M  V30 2507 C 247.008 -0.223241 1.87476 0
M  V30 2508 O 246.365 -1.14828 1.41847 0
M  V30 2509 C 246.416 1.93394 3.05419 0
M  V30 2510 O 246.137 3.31576 2.86337 0
M  V30 2511 C 247.638 1.91414 3.99844 0
M  V30 2512 H 244.858 0.420604 0.522813 0
M  V30 2513 H 247.402 1.7158 1.11268 0
M  V30 2514 H 245.557 1.47099 3.58386 0
M  V30 2515 H 245.971 3.67929 3.73802 0
M  V30 2516 H 247.445 2.46285 4.94012 0
M  V30 2517 H 247.922 0.891833 4.3005 0
M  V30 2518 H 248.528 2.37496 3.52811 0
M  V30 2519 N 246.843 -1.10192 1.12674 0
M  V30 2520 C 248.254 -1.63707 0.897604 0
M  V30 2521 C 248.605 -1.87812 -0.567546 0
M  V30 2522 O 247.73 -1.62196 -1.43253 0
M  V30 2523 C 248.325 -2.974 1.62292 0
M  V30 2524 C 246.884 -3.47772 1.43986 0
M  V30 2525 C 246.031 -2.22332 1.65722 0
M  V30 2526 H 248.982 -0.936587 1.28116 0
M  V30 2527 H 249.003 -3.64986 1.07541 0
M  V30 2528 H 248.515 -2.79824 2.68924 0
M  V30 2529 H 246.616 -3.70487 0.396206 0
M  V30 2530 H 246.729 -4.25723 2.19765 0
M  V30 2531 H 245.093 -2.30599 1.08149 0
M  V30 2532 H 245.876 -2.07285 2.73657 0
M  V30 2533 N 248.321 -0.919034 -1.28029 0
M  V30 2534 C 249.251 -0.428581 -2.29533 0
M  V30 2535 C 250.232 0.50659 -1.62381 0
M  V30 2536 O 251.417 0.413195 -1.89753 0
M  V30 2537 C 248.547 0.327388 -3.45753 0
M  V30 2538 C 247.501 -0.519137 -4.2484 0
M  V30 2539 C 246.827 0.365486 -5.33449 0
M  V30 2540 C 248.127 -1.77914 -4.91064 0
M  V30 2541 H 249.821 -1.27687 -2.70807 0
M  V30 2542 H 247.367 -0.615428 -1.30186 0
M  V30 2543 H 249.32 0.681378 -4.15855 0
M  V30 2544 H 248.044 1.20963 -3.03374 0
M  V30 2545 H 246.703 -0.855717 -3.56473 0
M  V30 2546 H 246.351 1.24642 -4.87312 0
M  V30 2547 H 246.051 -0.197356 -5.87268 0
M  V30 2548 H 247.575 0.715241 -6.06396 0
M  V30 2549 H 248.989 -1.49374 -5.53498 0
M  V30 2550 H 247.386 -2.2848 -5.54903 0
M  V30 2551 H 248.456 -2.50382 -4.15255 0
M  V30 2552 N 249.799 1.42003 -0.683588 0
M  V30 2553 C 250.709 2.34597 -0.0109075 0
M  V30 2554 C 251.725 1.55576 0.779245 0
M  V30 2555 O 252.901 1.88107 0.719555 0
M  V30 2556 C 249.966 3.34199 0.922588 0
M  V30 2557 C 249.027 4.29115 0.125984 0
M  V30 2558 C 248.26 5.23959 1.01502 0
M  V30 2559 O 248.483 5.23952 2.25456 0
M  V30 2560 O 247.417 6.00053 0.47111 0
M  V30 2561 H 251.243 2.93675 -0.773853 0
M  V30 2562 H 248.828 1.42654 -0.443861 0
M  V30 2563 H 250.71 3.95365 1.45823 0
M  V30 2564 H 249.385 2.77582 1.66523 0
M  V30 2565 H 248.292 3.71335 -0.453969 0
M  V30 2566 H 249.625 4.88798 -0.577736 0
M  V30 2567 N 251.277 0.427512 1.51691 0
M  V30 2568 C 252.554 -0.201684 1.94557 0
M  V30 2569 C 252.934 -1.60981 1.36559 0
M  V30 2570 O 252.282 -2.21814 0.548702 0
M  V30 2571 C 252.492 -0.189394 3.48486 0
M  V30 2572 C 253.84 -0.39978 4.22714 0
M  V30 2573 O 254.864 -0.267945 3.55191 0
M  V30 2574 O 253.723 -0.661249 5.42485 0
M  V30 2575 H 250.817 -0.135261 0.815864 0
M  V30 2576 H 253.363 0.484782 1.62628 0
M  V30 2577 H 252.135 0.795431 3.8313 0
M  V30 2578 H 251.758 -0.919187 3.86829 0
M  V30 2579 N 252.755 -1.56801 0.158532 0
M  V30 2580 C 253.687 -2.14488 -0.807923 0
M  V30 2581 C 254.7 -1.09721 -1.20271 0
M  V30 2582 O 255.889 -1.36956 -1.14478 0
M  V30 2583 C 252.989 -2.66217 -2.09718 0
M  V30 2584 C 252.162 -3.95507 -1.86796 0
M  V30 2585 C 251.221 -4.3243 -2.99818 0
M  V30 2586 O 250.247 -5.00543 -2.71008 0
M  V30 2587 N 251.449 -3.92947 -4.27285 0
M  V30 2588 H 254.214 -2.98042 -0.314816 0
M  V30 2589 H 251.775 -1.61881 -0.0246692 0
M  V30 2590 H 253.767 -2.87924 -2.84398 0
M  V30 2591 H 252.337 -1.87324 -2.50257 0
M  V30 2592 H 251.557 -3.82309 -0.96089 0
M  V30 2593 H 252.845 -4.79972 -1.68833 0
M  V30 2594 H 252.243 -3.38087 -4.53557 0
M  V30 2595 H 250.8 -4.19681 -4.9871 0
M  V30 2596 N 254.233 0.115231 -1.57178 0
M  V30 2597 C 255.163 1.1423 -2.03651 0
M  V30 2598 C 256.144 1.42967 -0.921655 0
M  V30 2599 O 257.329 1.53343 -1.19162 0
M  V30 2600 C 254.459 2.4675 -2.44401 0
M  V30 2601 C 253.413 2.32467 -3.59365 0
M  V30 2602 C 252.739 3.69984 -3.86026 0
M  V30 2603 C 254.039 1.78203 -4.90959 0
M  V30 2604 H 255.733 0.755749 -2.89705 0
M  V30 2605 H 253.279 0.362093 -1.39373 0
M  V30 2606 H 255.232 3.18854 -2.75517 0
M  V30 2607 H 253.956 2.87302 -1.55322 0
M  V30 2608 H 252.615 1.62811 -3.28463 0
M  V30 2609 H 252.263 4.08028 -2.94147 0
M  V30 2610 H 251.963 3.61279 -4.63412 0
M  V30 2611 H 253.487 4.43587 -4.19599 0
M  V30 2612 H 254.901 2.40128 -5.20587 0
M  V30 2613 H 253.298 1.8031 -5.72371 0
M  V30 2614 H 254.368 0.739876 -4.79222 0
M  V30 2615 N 255.711 1.52812 0.385517 0
M  V30 2616 C 257.127 1.4214 0.725829 0
M  V30 2617 C 257.327 0.544589 1.94001 0
M  V30 2618 O 256.383 0.0193693 2.52493 0
M  V30 2619 C 257.696 2.85042 0.957668 0
M  V30 2620 C 259.244 2.94543 1.05892 0
M  V30 2621 C 259.719 4.38464 1.32337 0
M  V30 2622 N 261.21 4.41804 1.39151 0
M  V30 2623 C 261.945 5.5025 1.61285 0
M  V30 2624 N 261.441 6.68775 1.80866 0
M  V30 2625 N 263.234 5.37798 1.63492 0
M  V30 2626 H 255.385 2.08338 -0.413383 0
M  V30 2627 H 257.648 0.940016 -0.122775 0
M  V30 2628 H 257.354 3.51431 0.137568 0
M  V30 2629 H 257.228 3.27505 1.87137 0
M  V30 2630 H 259.615 2.28321 1.86959 0
M  V30 2631 H 259.696 2.55504 0.123057 0
M  V30 2632 H 259.34 5.05254 0.517793 0
M  V30 2633 H 259.27 4.75059 2.27214 0
M  V30 2634 H 261.761 3.56377 1.25713 0
M  V30 2635 H 262.074 7.47197 1.97271 0
M  V30 2636 H 260.419 6.71797 1.78083 0
M  V30 2637 H 263.61 4.44171 1.47749 0
M  V30 2638 H 263.783 6.22382 1.80402 0
M  V30 2639 N 257.189 -0.644168 1.43834 0
M  V30 2640 C 258.435 -1.40603 1.46146 0
M  V30 2641 C 258.768 -1.93997 0.0887717 0
M  V30 2642 O 258.043 -1.72854 -0.891724 0
M  V30 2643 C 258.326 -2.58086 2.51124 0
M  V30 2644 C 258.179 -2.10126 3.97702 0
M  V30 2645 C 259.498 -3.60291 2.52742 0
M  V30 2646 H 256.617 -0.509905 0.532134 0
M  V30 2647 H 259.259 -0.729502 1.75437 0
M  V30 2648 H 257.409 -3.15801 2.26278 0
M  V30 2649 H 259.081 -1.57342 4.33637 0
M  V30 2650 H 257.324 -1.41419 4.10101 0
M  V30 2651 H 257.995 -2.94649 4.66783 0
M  V30 2652 H 260.471 -3.12352 2.7491 0
M  V30 2653 H 259.347 -4.40032 3.28121 0
M  V30 2654 H 259.608 -4.1349 1.56455 0
M  V30 2655 N 258.668 -1.30515 -0.883378 0
M  V30 2656 C 259.916 -1.19194 -1.63209 0
M  V30 2657 C 260.237 0.253205 -1.93349 0
M  V30 2658 O 259.507 1.17025 -1.57105 0
M  V30 2659 H 258.087 -0.438148 -0.605009 0
M  V30 2660 H 260.749 -1.63663 -1.05832 0
M  V30 2661 H 259.845 -1.75396 -2.58153 0
M  V30 2662 N 260.146 1.09593 -1.13257 0
M  V30 2663 C 261.056 2.19739 -0.821691 0
M  V30 2664 C 262.072 1.72926 0.19302 0
M  V30 2665 O 263.248 2.01385 0.0244895 0
M  V30 2666 C 260.313 3.45482 -0.290333 0
M  V30 2667 C 259.374 4.06985 -1.36607 0
M  V30 2668 C 258.607 5.26726 -0.859975 0
M  V30 2669 O 258.83 5.69594 0.303082 0
M  V30 2670 O 257.764 5.7931 -1.63351 0
M  V30 2671 H 261.59 2.48781 -1.74189 0
M  V30 2672 H 259.175 1.18496 -0.909894 0
M  V30 2673 H 261.057 4.214 0.000674022 0
M  V30 2674 H 259.732 3.18047 0.602306 0
M  V30 2675 H 258.639 3.32712 -1.71037 0
M  V30 2676 H 259.972 4.38643 -2.23279 0
M  V30 2677 N 261.624 0.925811 1.2754 0
M  V30 2678 C 262.871 0.565255 1.94451 0
M  V30 2679 C 263.199 -0.89316 1.7278 0
M  V30 2680 O 262.454 -1.65213 1.04895 0
M  V30 2681 C 262.753 0.835296 3.47502 0
M  V30 2682 C 262.419 2.27515 3.89291 0
M  V30 2683 C 261.081 2.66879 4.00411 0
M  V30 2684 C 263.433 3.21158 4.10496 0
M  V30 2685 C 260.761 3.99014 4.30122 0
M  V30 2686 C 263.113 4.52871 4.4169 0
M  V30 2687 C 261.777 4.92072 4.51023 0
M  V30 2688 H 261.047 0.206841 0.711546 0
M  V30 2689 H 263.694 1.16942 1.51647 0
M  V30 2690 H 261.999 0.148442 3.91519 0
M  V30 2691 H 263.696 0.535322 3.97411 0
M  V30 2692 H 260.286 1.95976 3.81171 0
M  V30 2693 H 264.47 2.9195 4.01346 0
M  V30 2694 H 259.726 4.2907 4.35556 0
M  V30 2695 H 263.9 5.25436 4.57045 0
M  V30 2696 H 261.527 5.9449 4.738 0
M  V30 2697 N 263.102 -1.41638 0.69111 0
M  V30 2698 C 264.342 -2.03166 0.224291 0
M  V30 2699 C 264.706 -1.53537 -1.15284 0
M  V30 2700 O 265.907 -2.0696 -1.71525 0
M  V30 2701 C 264.178 -3.56342 0.274758 0
M  V30 2702 S 265.737 -4.3864 -0.118669 0
M  V30 2703 H 262.555 -0.705188 0.0907263 0
M  V30 2704 H 265.157 -1.7314 0.907895 0
M  V30 2705 H 263.861 -3.89958 1.2791 0
M  V30 2706 H 263.392 -3.91063 -0.428142 0
M  V30 2707 H 265.407 -4.77549 -1.34764 0
M  V30 2708 N 264.58 -0.43555 -1.51462 0
M  V30 2709 C 265.53 0.394701 -2.24558 0
M  V30 2710 C 266.514 0.99157 -1.26715 0
M  V30 2711 O 267.706 0.910007 -1.51815 0
M  V30 2712 C 264.835 1.4963 -3.08975 0
M  V30 2713 C 263.921 0.908912 -4.14246 0
M  V30 2714 N 264.312 0.0505335 -5.05775 0
M  V30 2715 C 262.61 1.17668 -4.30198 0
M  V30 2716 C 263.311 -0.279161 -5.8103 0
M  V30 2717 N 262.287 0.336767 -5.42556 0
M  V30 2718 H 266.089 -0.267106 -2.92684 0
M  V30 2719 H 263.603 -0.247518 -1.60503 0
M  V30 2720 H 265.6 2.10394 -3.59917 0
M  V30 2721 H 264.26 2.16046 -2.42393 0
M  V30 2722 H 265.271 -0.31577 -5.16936 0
M  V30 2723 H 261.948 1.83847 -3.74842 0
M  V30 2724 H 263.338 -0.977553 -6.64751 0
M  V30 2725 N 266.058 1.56714 -0.166846 0
M  V30 2726 C 267.006 2.19056 0.782123 0
M  V30 2727 C 268 1.15328 1.24079 0
M  V30 2728 O 269.206 1.33537 1.20697 0
M  V30 2729 H 265.581 0.70167 0.270486 0
M  V30 2730 H 267.552 2.97494 0.232322 0
M  V30 2731 C 266.301 2.84206 2.00306 0
M  V30 2732 H 265.624 3.63748 1.65914 0
M  V30 2733 H 267.064 3.31302 2.64604 0
M  V30 2734 C 265.523 1.83744 2.82382 0
M  V30 2735 O 266.053 1.32014 3.79388 0
M  V30 2736 N 264.259 1.52601 2.47308 0
M  V30 2737 H 263.806 1.9486 1.68485 0
M  V30 2738 H 263.764 0.856351 3.02513 0
M  V30 2739 N 267.536 -0.106894 1.57237 0
M  V30 2740 C 268.952 -0.46078 1.52804 0
M  V30 2741 C 269.152 -1.81184 0.881746 0
M  V30 2742 O 268.208 -2.48102 0.469224 0
M  V30 2743 C 269.521 -0.434127 2.9755 0
M  V30 2744 C 271.069 -0.516821 3.08704 0
M  V30 2745 C 271.544 -0.520436 4.55033 0
M  V30 2746 N 273.035 -0.58153 4.59535 0
M  V30 2747 C 273.77 -0.605973 5.70189 0
M  V30 2748 N 273.266 -0.587331 6.90306 0
M  V30 2749 N 275.059 -0.649895 5.5833 0
M  V30 2750 H 267.21 0.778203 1.9763 0
M  V30 2751 H 269.473 0.288403 0.903066 0
M  V30 2752 H 269.179 0.491197 3.48253 0
M  V30 2753 H 269.053 -1.25748 3.55622 0
M  V30 2754 H 271.44 -1.43256 2.57995 0
M  V30 2755 H 271.521 0.334449 2.53604 0
M  V30 2756 H 271.165 0.391313 5.0639 0
M  V30 2757 H 271.095 -1.38876 5.07958 0
M  V30 2758 H 273.586 -0.60161 3.73081 0
M  V30 2759 H 273.899 -0.60894 7.70397 0
M  V30 2760 H 272.244 -0.554564 6.92784 0
M  V30 2761 H 275.435 -0.661907 4.63397 0
M  V30 2762 H 275.608 -0.665476 6.44574 0
M  V30 2763 N 269.014 -1.53014 -0.377408 0
M  V30 2764 C 270.262 -1.6829 -1.11906 0
M  V30 2765 C 270.583 -0.431206 -1.90173 0
M  V30 2766 O 269.853 0.554595 -1.87886 0
M  V30 2767 H 268.433 -0.620371 -0.416112 0
M  V30 2768 H 271.095 -1.90167 -0.426893 0
M  V30 2769 H 270.191 -2.53862 -1.8155 0
M  V30 2770 N 270.492 0.636531 -1.44174 0
M  V30 2771 C 271.741 1.39213 -1.45954 0
M  V30 2772 C 272.054 1.95374 -0.0939119 0
M  V30 2773 O 273.26 2.71498 0.0107767 0
M  V30 2774 C 271.716 2.52025 -2.56927 0
M  V30 2775 C 271.324 2.024 -3.99673 0
M  V30 2776 C 273.068 3.29269 -2.67922 0
M  V30 2777 C 270.975 3.12521 -5.0208 0
M  V30 2778 H 269.905 0.523132 -0.542999 0
M  V30 2779 H 272.556 0.685349 -1.70221 0
M  V30 2780 H 270.938 3.25253 -2.25891 0
M  V30 2781 H 272.112 1.36073 -4.40251 0
M  V30 2782 H 270.427 1.37987 -3.92872 0
M  V30 2783 H 273.024 4.11352 -3.41605 0
M  V30 2784 H 273.367 3.78397 -1.73555 0
M  V30 2785 H 273.9 2.63129 -2.98342 0
M  V30 2786 H 270.639 2.68343 -5.98057 0
M  V30 2787 H 270.159 3.77507 -4.66099 0
M  V30 2788 H 271.838 3.77385 -5.25538 0
M  V30 2789 N 271.97 1.30982 0.876444 0
M  V30 2790 C 272.917 1.18085 1.98304 0
M  V30 2791 C 273.887 0.0682263 1.6596 0
M  V30 2792 O 275.072 0.239937 1.89285 0
M  V30 2793 C 272.212 0.887475 3.33493 0
M  V30 2794 C 271.325 2.08281 3.78475 0
M  V30 2795 C 270.46 1.72678 5.0235 0
M  V30 2796 C 269.499 2.88657 5.39762 0
M  V30 2797 N 268.636 2.53292 6.54819 0
M  V30 2798 H 273.476 2.1275 2.08666 0
M  V30 2799 H 271.013 1.05839 1.02159 0
M  V30 2800 H 272.971 0.697961 4.1132 0
M  V30 2801 H 271.601 -0.022315 3.22792 0
M  V30 2802 H 270.653 2.3833 2.96484 0
M  V30 2803 H 271.965 2.95108 4.02135 0
M  V30 2804 H 271.119 1.50151 5.87826 0
M  V30 2805 H 269.858 0.830327 4.8058 0
M  V30 2806 H 268.863 3.1184 4.52809 0
M  V30 2807 H 270.088 3.79002 5.63502 0
M  V30 2808 H 268.034 1.66163 6.34607 0
M  V30 2809 H 267.951 3.3365 6.7839 0
M  V30 2810 H 269.219 2.34143 7.43503 0
M  V30 2811 N 273.449 -1.08991 1.13837 0
M  V30 2812 C 274.379 -2.17771 0.842507 0
M  V30 2813 C 275.36 -1.6892 -0.20001 0
M  V30 2814 O 276.545 -1.94113 -0.0579731 0
M  V30 2815 C 273.675 -3.4589 0.312644 0
M  V30 2816 C 272.629 -4.08099 1.28992 0
M  V30 2817 C 271.955 -5.31098 0.619623 0
M  V30 2818 C 273.255 -4.50077 2.65005 0
M  V30 2819 H 274.949 -2.42777 1.75213 0
M  V30 2820 H 272.495 -1.16682 0.843875 0
M  V30 2821 H 274.448 -4.21297 0.0933043 0
M  V30 2822 H 273.172 -3.20419 -0.632382 0
M  V30 2823 H 271.831 -3.34717 1.49533 0
M  V30 2824 H 271.479 -5.0191 -0.33102 0
M  V30 2825 H 271.179 -5.73674 1.27167 0
M  V30 2826 H 272.703 -6.09224 0.409669 0
M  V30 2827 H 274.117 -5.16688 2.48407 0
M  V30 2828 H 272.514 -5.03553 3.26427 0
M  V30 2829 H 273.584 -3.62257 3.22332 0
M  V30 2830 N 274.927 -0.932562 -1.27047 0
M  V30 2831 C 276.173 -0.576412 -1.94436 0
M  V30 2832 C 276.506 0.880891 -1.73072 0
M  V30 2833 O 275.781 1.62905 -1.06264 0
M  V30 2834 C 276.064 -0.909031 -3.48437 0
M  V30 2835 C 275.917 -2.42044 -3.79123 0
M  V30 2836 C 277.236 -0.418341 -4.38107 0
M  V30 2837 H 274.355 -0.210888 -0.706184 0
M  V30 2838 H 276.997 -1.16522 -1.50075 0
M  V30 2839 H 275.147 -0.407947 -3.86352 0
M  V30 2840 H 276.819 -2.99359 -3.50973 0
M  V30 2841 H 275.062 -2.86758 -3.25503 0
M  V30 2842 H 275.733 -2.6037 -4.86736 0
M  V30 2843 H 278.209 -0.847856 -4.0737 0
M  V30 2844 H 277.085 -0.679981 -5.44672 0
M  V30 2845 H 277.346 0.681642 -4.36814 0
M  V30 2846 N 276.405 1.4127 -0.698611 0
M  V30 2847 C 277.651 2.01478 -0.231207 0
M  V30 2848 C 277.984 1.55215 1.16713 0
M  V30 2849 O 277.259 0.764672 1.78838 0
M  V30 2850 C 277.542 3.58912 -0.292281 0
M  V30 2851 C 277.395 4.15293 -1.72778 0
M  V30 2852 C 278.714 4.38736 0.346194 0
M  V30 2853 H 275.833 0.732025 -0.0854878 0
M  V30 2854 H 278.475 1.67977 -0.887906 0
M  V30 2855 H 276.625 3.87582 0.26686 0
M  V30 2856 H 278.297 3.97486 -2.341 0
M  V30 2857 H 276.54 3.7022 -2.26096 0
M  V30 2858 H 277.211 5.24452 -1.72202 0
M  V30 2859 H 279.687 4.15897 -0.130035 0
M  V30 2860 H 278.563 5.48221 0.272932 0
M  V30 2861 H 278.824 4.18425 1.42734 0
M  V30 2862 N 277.883 0.443576 1.51229 0
M  V30 2863 C 278.846 -0.353132 2.26463 0
M  V30 2864 C 279.846 -0.944338 1.3015 0
M  V30 2865 O 281.036 -0.817813 1.5381 0
M  V30 2866 C 278.168 -1.50023 3.06114 0
M  V30 2867 H 279.361 0.3063 2.98332 0
M  V30 2868 H 276.914 0.196902 1.55055 0
M  V30 2869 H 277.649 -2.19553 2.38677 0
M  V30 2870 H 277.434 -1.08241 3.76864 0
M  V30 2871 H 278.924 -2.06296 3.63087 0
M  V30 2872 N 279.361 -1.56624 0.175154 0
M  V30 2873 C 280.638 -1.88688 -0.515373 0
M  V30 2874 C 281.018 -1.08564 -1.81044 0
M  V30 2875 O 280.366 -0.180703 -2.27784 0
M  V30 2876 C 280.576 -3.40768 -0.753552 0
M  V30 2877 C 281.924 -4.10587 -1.08184 0
M  V30 2878 O 282.948 -3.46106 -0.841961 0
M  V30 2879 O 281.807 -5.24512 -1.53459 0
M  V30 2880 H 278.901 -0.78301 -0.26613 0
M  V30 2881 H 281.447 -1.68347 0.213877 0
M  V30 2882 H 280.219 -3.90965 0.161829 0
M  V30 2883 H 279.842 -3.66733 -1.53598 0
M  V30 2884 N 280.839 0.0985539 -1.57292 0
M  V30 2885 C 282.067 0.816318 -1.90115 0
M  V30 2886 C 282.482 1.72451 -0.768509 0
M  V30 2887 O 281.839 1.80643 0.259687 0
M  V30 2888 C 281.89 1.63259 -3.22535 0
M  V30 2889 O 281.611 0.760934 -4.31441 0
M  V30 2890 C 283.112 2.45372 -3.69199 0
M  V30 2891 H 280.332 0.233595 -0.629027 0
M  V30 2892 H 282.876 0.0768229 -2.04356 0
M  V30 2893 H 281.031 2.32463 -3.09903 0
M  V30 2894 H 281.445 1.32595 -5.07463 0
M  V30 2895 H 282.919 2.98144 -4.64558 0
M  V30 2896 H 283.396 3.23677 -2.96867 0
M  V30 2897 H 284.002 1.81373 -3.84687 0
M  V30 2898 N 282.317 1.53212 0.369288 0
M  V30 2899 C 283.733 1.42902 0.710712 0
M  V30 2900 C 283.933 0.565135 1.93413 0
M  V30 2901 O 282.989 0.0461484 2.52458 0
M  V30 2902 C 284.302 2.86042 0.927382 0
M  V30 2903 C 285.85 2.9565 1.02762 0
M  V30 2904 C 286.325 4.39843 1.27679 0
M  V30 2905 N 287.816 4.43256 1.34457 0
M  V30 2906 C 288.551 5.51929 1.55439 0
M  V30 2907 N 288.047 6.70655 1.73762 0
M  V30 2908 N 289.84 5.39502 1.57779 0
M  V30 2909 H 281.991 2.07888 -0.435457 0
M  V30 2910 H 284.254 0.938661 -0.132739 0
M  V30 2911 H 283.96 3.51557 0.100287 0
M  V30 2912 H 283.834 3.29472 1.83653 0
M  V30 2913 H 286.221 2.30291 1.84527 0
M  V30 2914 H 286.302 2.5562 0.0959504 0
M  V30 2915 H 285.946 5.05774 0.464175 0
M  V30 2916 H 285.876 4.77443 2.22162 0
M  V30 2917 H 288.367 3.5769 1.21926 0
M  V30 2918 H 288.68 7.49248 1.89335 0
M  V30 2919 H 287.025 6.73648 1.70948 0
M  V30 2920 H 290.216 4.45713 1.43029 0
M  V30 2921 H 290.389 6.2426 1.7379 0
M  V30 2922 N 283.795 -0.628877 1.44509 0
M  V30 2923 C 285.043 -1.38565 1.4712 0
M  V30 2924 C 285.364 -1.94712 0.105899 0
M  V30 2925 O 284.634 -1.75912 -0.862079 0
M  V30 2926 H 283.214 -0.514333 0.541729 0
M  V30 2927 H 285.876 -0.740018 1.80305 0
M  V30 2928 H 284.972 -2.21583 2.19789 0
M  V30 2929 N 285.273 -1.31445 -0.869486 0
M  V30 2930 C 286.203 -1.21727 -1.99261 0
M  V30 2931 C 287.184 -0.104359 -1.6978 0
M  V30 2932 O 288.369 -0.289038 -1.92037 0
M  V30 2933 C 285.499 -0.924317 -3.34774 0
M  V30 2934 C 284.453 -1.99685 -3.78563 0
M  V30 2935 C 283.779 -1.55658 -5.11541 0
M  V30 2936 C 285.079 -3.41003 -3.95619 0
M  V30 2937 H 286.773 -2.1569 -2.07649 0
M  V30 2938 H 284.319 -1.03839 -0.997675 0
M  V30 2939 H 286.272 -0.842934 -4.12883 0
M  V30 2940 H 284.996 0.0509793 -3.2656 0
M  V30 2941 H 283.655 -2.06813 -3.02694 0
M  V30 2942 H 283.303 -0.569132 -4.9977 0
M  V30 2943 H 283.003 -2.27409 -5.41811 0
M  V30 2944 H 284.527 -1.48928 -5.92159 0
M  V30 2945 H 285.941 -3.36547 -4.64122 0
M  V30 2946 H 284.338 -4.10975 -4.37286 0
M  V30 2947 H 285.408 -3.81754 -2.98985 0
M  V30 2948 N 286.751 1.08385 -1.14413 0
M  V30 2949 C 287.998 1.80776 -0.912482 0
M  V30 2950 C 288.326 1.86236 0.560934 0
M  V30 2951 O 287.581 1.33431 1.43159 0
M  V30 2952 C 287.88 3.26273 -1.45879 0
M  V30 2953 C 287.546 3.4093 -2.95089 0
M  V30 2954 C 286.208 3.44638 -3.35824 0
M  V30 2955 C 288.56 3.44591 -3.91033 0
M  V30 2956 C 285.888 3.49597 -4.71167 0
M  V30 2957 C 288.24 3.51086 -5.26233 0
M  V30 2958 C 286.904 3.53067 -5.6648 0
M  V30 2959 H 286.174 0.661507 -0.333901 0
M  V30 2960 H 288.821 1.27613 -1.42784 0
M  V30 2961 H 287.126 3.82146 -0.864376 0
M  V30 2962 H 288.823 3.80839 -1.2555 0
M  V30 2963 H 285.413 3.38736 -2.62594 0
M  V30 2964 H 289.597 3.40957 -3.60641 0
M  V30 2965 H 284.853 3.49424 -5.0171 0
M  V30 2966 H 289.027 3.52864 -6.00383 0
M  V30 2967 H 286.654 3.56662 -6.71339 0
M  V30 2968 N 288.23 0.939286 1.26551 0
M  V30 2969 C 289.478 0.58469 1.93457 0
M  V30 2970 C 289.799 -0.878774 1.74076 0
M  V30 2971 O 289.069 -1.62421 1.09528 0
M  V30 2972 H 287.649 0.21325 0.715914 0
M  V30 2973 H 290.311 1.1942 1.54029 0
M  V30 2974 H 289.407 0.800849 3.0165 0
M  V30 2975 N 289.708 -1.40897 0.706093 0
M  V30 2976 C 290.64 -2.29199 0.00815776 0
M  V30 2977 C 291.653 -1.45336 -0.733582 0
M  V30 2978 O 292.842 -1.68727 -0.582537 0
M  V30 2979 C 289.942 -3.23417 -1.01265 0
M  V30 2980 C 289.115 -4.36089 -0.338387 0
M  V30 2981 C 288.174 -5.10811 -1.26326 0
M  V30 2982 O 287.2 -5.64215 -0.751651 0
M  V30 2983 N 288.402 -5.19269 -2.595 0
M  V30 2984 H 291.167 -2.89738 0.766297 0
M  V30 2985 H 288.728 -1.52164 0.55296 0
M  V30 2986 H 290.72 -3.70276 -1.63334 0
M  V30 2987 H 289.29 -2.64112 -1.67223 0
M  V30 2988 H 288.51 -3.91479 0.462352 0
M  V30 2989 H 289.798 -5.08634 0.130031 0
M  V30 2990 H 289.196 -4.77347 -3.03573 0
M  V30 2991 H 287.753 -5.69667 -3.16737 0
M  V30 2992 N 291.186 -0.45159 -1.50991 0
M  V30 2993 C 292.116 0.342898 -2.30969 0
M  V30 2994 C 293.097 1.00815 -1.37005 0
M  V30 2995 O 294.282 1.00907 -1.65926 0
M  V30 2996 C 291.412 1.43637 -3.16205 0
M  V30 2997 C 290.366 0.893818 -4.18563 0
M  V30 2998 C 289.692 2.08411 -4.92411 0
M  V30 2999 C 290.992 -0.0815568 -5.22236 0
M  V30 3000 H 292.686 -0.324556 -2.97636 0
M  V30 3001 H 290.232 -0.157531 -1.43136 0
M  V30 3002 H 292.185 1.9995 -3.70942 0
M  V30 3003 H 290.909 2.13232 -2.47386 0
M  V30 3004 H 289.568 0.352798 -3.64898 0
M  V30 3005 H 289.216 2.76658 -4.20082 0
M  V30 3006 H 288.916 1.72741 -5.61636 0
M  V30 3007 H 290.44 2.65251 -5.49976 0
M  V30 3008 H 291.854 0.391742 -5.7196 0
M  V30 3009 H 290.251 -0.351551 -5.99069 0
M  V30 3010 H 291.321 -1.01374 -4.74185 0
M  V30 3011 N 292.664 1.56529 -0.183458 0
M  V30 3012 C 293.911 1.97244 0.458357 0
M  V30 3013 C 294.239 1.06992 1.62428 0
M  V30 3014 O 293.494 0.106542 1.9541 0
M  V30 3015 C 293.793 3.43939 0.971637 0
M  V30 3016 C 293.459 4.5083 -0.0796784 0
M  V30 3017 C 292.121 4.79786 -0.368584 0
M  V30 3018 C 294.473 5.15138 -0.792638 0
M  V30 3019 C 291.801 5.70345 -1.37563 0
M  V30 3020 C 294.153 6.06784 -1.78875 0
M  V30 3021 C 292.817 6.34102 -2.08497 0
M  V30 3022 H 292.087 0.721768 0.167725 0
M  V30 3023 H 294.734 1.89472 -0.277976 0
M  V30 3024 H 293.039 3.48724 1.78602 0
M  V30 3025 H 294.736 3.72791 1.47744 0
M  V30 3026 H 291.326 4.28317 0.155668 0
M  V30 3027 H 295.51 4.92868 -0.582659 0
M  V30 3028 H 290.766 5.89789 -1.61118 0
M  V30 3029 H 294.94 6.55677 -2.3465 0
M  V30 3030 H 292.567 7.04074 -2.86678 0
M  V30 3031 N 294.142 -0.090211 1.57342 0
M  V30 3032 C 295.382 -0.798365 1.88163 0
M  V30 3033 C 295.746 -1.75662 0.775046 0
M  V30 3034 O 296.947 -2.50849 0.965816 0
M  V30 3035 C 295.218 -1.50376 3.24225 0
M  V30 3036 S 296.777 -2.24952 3.76752 0
M  V30 3037 H 293.595 -0.265883 0.659414 0
M  V30 3038 H 296.197 -0.055264 1.95422 0
M  V30 3039 H 294.901 -0.792286 4.0268 0
M  V30 3040 H 294.432 -2.28666 3.20118 0
M  V30 3041 H 296.447 -3.51173 3.5056 0
M  V30 3042 N 295.62 -1.53406 -0.361157 0
M  V30 3043 C 296.897 -1.60411 -1.11927 0
M  V30 3044 C 297.277 -0.414385 -2.06993 0
M  V30 3045 O 296.625 0.594976 -2.20618 0
M  V30 3046 C 296.835 -2.95652 -1.85448 0
M  V30 3047 C 298.183 -3.50386 -2.39823 0
M  V30 3048 O 299.207 -2.97711 -1.95568 0
M  V30 3049 O 298.066 -4.42482 -3.20737 0
M  V30 3050 H 295.16 -0.64811 -0.513695 0
M  V30 3051 H 297.706 -1.65749 -0.364065 0
M  V30 3052 H 296.478 -3.73682 -1.16091 0
M  V30 3053 H 296.101 -2.93825 -2.67866 0
M  V30 3054 N 297.098 0.621204 -1.44841 0
M  V30 3055 C 298.345 1.38055 -1.48145 0
M  V30 3056 C 298.673 1.94143 -0.117867 0
M  V30 3057 O 297.928 1.74713 0.881694 0
M  V30 3058 C 298.227 2.55675 -2.4973 0
M  V30 3059 C 297.893 2.17817 -3.94799 0
M  V30 3060 C 296.555 2.07205 -4.34303 0
M  V30 3061 C 298.907 1.88065 -4.86087 0
M  V30 3062 C 296.235 1.65045 -5.63007 0
M  V30 3063 C 298.587 1.47394 -6.15189 0
M  V30 3064 C 297.251 1.35331 -6.53637 0
M  V30 3065 H 296.521 0.505181 -0.542101 0
M  V30 3066 H 299.168 0.703477 -1.78111 0
M  V30 3067 H 297.473 3.2866 -2.13284 0
M  V30 3068 H 299.17 3.13904 -2.4953 0
M  V30 3069 H 295.76 2.26998 -3.63552 0
M  V30 3070 H 299.944 1.95168 -4.56315 0
M  V30 3071 H 295.2 1.54317 -5.91605 0
M  V30 3072 H 299.374 1.23415 -6.85377 0
M  V30 3073 H 297.001 1.02435 -7.53267 0
M  V30 3074 N 298.576 1.31904 0.862503 0
M  V30 3075 C 299.824 1.21776 1.61292 0
M  V30 3076 C 300.145 -0.222413 1.93727 0
M  V30 3077 O 299.415 -1.1451 1.58947 0
M  V30 3078 H 297.995 0.447717 0.597962 0
M  V30 3079 H 300.657 1.65326 1.03215 0
M  V30 3080 H 299.753 1.7948 2.5533 0
M  V30 3081 N 300.054 -1.07777 1.14986 0
M  V30 3082 C 300.964 -2.18404 0.856546 0
M  V30 3083 C 301.98 -1.73211 -0.165485 0
M  V30 3084 O 303.156 -2.01399 0.00755219 0
M  V30 3085 C 300.221 -3.44977 0.34526 0
M  V30 3086 C 299.282 -4.0476 1.43065 0
M  V30 3087 C 298.515 -5.25291 0.943663 0
M  V30 3088 O 298.738 -5.70004 -0.212426 0
M  V30 3089 O 297.672 -5.76638 1.72547 0
M  V30 3090 H 301.498 -2.45978 1.78125 0
M  V30 3091 H 299.083 -1.17033 0.928631 0
M  V30 3092 H 300.965 -4.21348 0.0663671 0
M  V30 3093 H 299.64 -3.18965 -0.551631 0
M  V30 3094 H 298.547 -3.29949 1.76309 0
M  V30 3095 H 299.88 -4.35035 2.30229 0
M  V30 3096 N 301.532 -0.945985 -1.26051 0
M  V30 3097 C 302.442 -0.465633 -2.29933 0
M  V30 3098 C 303.458 0.462761 -1.67733 0
M  V30 3099 O 304.634 0.341118 -1.9849 0
M  V30 3100 C 301.699 0.256994 -3.45746 0
M  V30 3101 C 300.76 -0.708549 -4.23412 0
M  V30 3102 C 299.993 -0.0203135 -5.33696 0
M  V30 3103 O 300.216 1.19571 -5.57726 0
M  V30 3104 O 299.15 -0.701459 -5.97799 0
M  V30 3105 H 302.976 -1.32866 -2.73094 0
M  V30 3106 H 300.561 -0.712071 -1.31339 0
M  V30 3107 H 302.443 0.663852 -4.16138 0
M  V30 3108 H 301.118 1.09533 -3.04605 0
M  V30 3109 H 300.025 -1.16545 -3.55483 0
M  V30 3110 H 301.358 -1.51465 -4.68315 0
M  V30 3111 N 303.011 1.40521 -0.713556 0
M  V30 3112 C 303.944 2.28198 -0.00881422 0
M  V30 3113 C 304.922 1.43227 0.769735 0
M  V30 3114 O 306.106 1.72641 0.756799 0
M  V30 3115 C 303.233 3.23758 0.994899 0
M  V30 3116 C 302.279 4.25391 0.3074 0
M  V30 3117 S 303.112 5.26765 -0.963247 0
M  V30 3118 C 304.268 6.25888 0.0384143 0
M  V30 3119 H 304.501 2.87622 -0.752407 0
M  V30 3120 H 302.034 1.45925 -0.504502 0
M  V30 3121 H 303.992 3.79341 1.56879 0
M  V30 3122 H 302.653 2.63396 1.71118 0
M  V30 3123 H 301.846 4.92596 1.0661 0
M  V30 3124 H 301.448 3.73497 -0.193879 0
M  V30 3125 H 303.74 6.71683 0.885912 0
M  V30 3126 H 304.683 7.05552 -0.60019 0
M  V30 3127 H 305.091 5.63072 0.401233 0
M  V30 3128 N 304.489 0.459591 1.5075 0
M  V30 3129 C 305.738 -0.100971 2.01447 0
M  V30 3130 C 306.051 -1.41816 1.34713 0
M  V30 3131 O 307.257 -2.06299 1.76502 0
M  V30 3132 C 305.713 -0.23047 3.59161 0
M  V30 3133 C 305.321 1.0776 4.34847 0
M  V30 3134 C 307.065 -0.743608 4.17936 0
M  V30 3135 C 304.972 0.91253 5.84317 0
M  V30 3136 H 303.902 -0.0415102 0.752856 0
M  V30 3137 H 306.553 0.592742 1.73663 0
M  V30 3138 H 304.935 -0.987703 3.83485 0
M  V30 3139 H 306.109 1.8449 4.22256 0
M  V30 3140 H 304.424 1.52097 3.87628 0
M  V30 3141 H 307.021 -0.883959 5.27343 0
M  V30 3142 H 307.364 -1.73196 3.78562 0
M  V30 3143 H 307.897 -0.04408 3.97776 0
M  V30 3144 H 304.636 1.87391 6.28144 0
M  V30 3145 H 304.156 0.185422 5.99513 0
M  V30 3146 H 305.835 0.574547 6.44444 0
M  V30 3147 N 305.967 -1.56429 0.191757 0
M  V30 3148 C 306.897 -2.21937 -0.725696 0
M  V30 3149 C 307.878 -1.1814 -1.2238 0
M  V30 3150 O 309.063 -1.46636 -1.27325 0
M  V30 3151 C 306.193 -2.87611 -1.94672 0
M  V30 3152 C 305.147 -3.97623 -1.58366 0
M  V30 3153 C 304.473 -4.50446 -2.88102 0
M  V30 3154 C 305.773 -5.16197 -0.796133 0
M  V30 3155 H 307.467 -2.98861 -0.179606 0
M  V30 3156 H 305.013 -1.43749 -0.0849464 0
M  V30 3157 H 306.966 -3.3212 -2.59373 0
M  V30 3158 H 305.69 -2.08087 -2.51728 0
M  V30 3159 H 304.349 -3.53801 -0.960247 0
M  V30 3160 H 303.997 -3.67688 -3.43241 0
M  V30 3161 H 303.697 -5.24675 -2.64556 0
M  V30 3162 H 305.221 -4.97654 -3.53798 0
M  V30 3163 H 306.635 -5.57271 -1.34618 0
M  V30 3164 H 305.032 -5.96471 -0.658928 0
M  V30 3165 H 306.102 -4.84473 0.203478 0
M  V30 3166 N 307.445 0.0818655 -1.57387 0
M  V30 3167 C 308.673 0.796108 -1.9097 0
M  V30 3168 C 309.088 1.71626 -0.786757 0
M  V30 3169 O 308.445 1.80908 0.240513 0
M  V30 3170 C 308.496 1.59829 -3.24248 0
M  V30 3171 O 308.217 0.715131 -4.32224 0
M  V30 3172 C 309.718 2.41442 -3.7178 0
M  V30 3173 H 306.938 0.22691 -0.631469 0
M  V30 3174 H 309.482 0.0551439 -2.04426 0
M  V30 3175 H 307.637 2.29163 -3.12351 0
M  V30 3176 H 308.051 1.27205 -5.08841 0
M  V30 3177 H 309.525 2.932 -4.67694 0
M  V30 3178 H 310.002 3.2051 -3.00283 0
M  V30 3179 H 310.608 1.77283 -3.86589 0
M  V30 3180 N 308.923 1.53595 0.353017 0
M  V30 3181 C 310.2 1.61002 1.11075 0
M  V30 3182 C 310.58 0.425356 2.0677 0
M  V30 3183 O 309.928 -0.583267 2.2093 0
M  V30 3184 C 310.138 2.96631 1.83877 0
M  V30 3185 C 311.486 3.51653 2.37961 0
M  V30 3186 O 312.51 2.98743 1.93987 0
M  V30 3187 O 311.369 4.44177 3.18386 0
M  V30 3188 H 308.463 0.650825 0.510251 0
M  V30 3189 H 311.009 1.6594 0.35527 0
M  V30 3190 H 309.781 3.74293 1.14108 0
M  V30 3191 H 309.404 2.95242 2.66304 0
M  V30 3192 N 310.401 -0.613514 1.45168 0
M  V30 3193 C 311.626 -1.40437 1.52618 0
M  V30 3194 C 312.051 -1.87438 0.157707 0
M  V30 3195 O 311.409 -1.59791 -0.856537 0
M  V30 3196 C 311.457 -2.58894 2.51011 0
M  V30 3197 O 310.561 -3.59326 2.02382 0
M  V30 3198 H 309.902 -0.419506 0.514695 0
M  V30 3199 H 312.432 -0.747215 1.90467 0
M  V30 3200 H 312.442 -3.06214 2.69624 0
M  V30 3201 H 311.117 -2.24032 3.50403 0
M  V30 3202 H 309.694 -3.18695 1.93618 0
M  V30 3203 N 311.879 -1.3236 -0.855495 0
M  V30 3204 C 312.827 -1.2118 -1.9854 0
M  V30 3205 C 313.821 -0.116788 -1.68997 0
M  V30 3206 O 315.027 -0.279657 -1.77814 0
M  V30 3207 H 311.402 -0.375608 -0.651477 0
M  V30 3208 H 313.373 -2.16743 -2.05098 0
M  V30 3209 C 312.122 -0.950849 -3.34446 0
M  V30 3210 H 311.445 -1.78563 -3.57708 0
M  V30 3211 H 312.885 -0.912863 -4.14057 0
M  V30 3212 C 311.344 0.346404 -3.35114 0
M  V30 3213 O 311.874 1.35855 -3.7803 0
M  V30 3214 N 310.08 0.36808 -2.88259 0
M  V30 3215 H 309.627 -0.456102 -2.5353 0
M  V30 3216 H 309.585 1.23591 -2.89089 0
M  V30 3217 N 313.357 1.07166 -1.15556 0
M  V30 3218 C 314.605 1.79443 -0.929764 0
M  V30 3219 C 314.926 1.87246 0.544414 0
M  V30 3220 O 314.196 1.37473 1.39564 0
M  V30 3221 H 312.776 0.664625 -0.341003 0
M  V30 3222 H 315.438 1.29499 -1.45657 0
M  V30 3223 H 314.534 2.81832 -1.34079 0
M  V30 3224 N 314.835 0.952656 1.25548 0
M  V30 3225 C 315.745 0.47782 2.29682 0
M  V30 3226 C 316.761 -0.453859 1.67977 0
M  V30 3227 O 317.937 -0.330587 1.98668 0
M  V30 3228 C 315.002 -0.238655 3.45878 0
M  V30 3229 C 314.063 0.730994 4.23031 0
M  V30 3230 C 313.296 0.0486165 5.33678 0
M  V30 3231 O 313.519 -1.16612 5.58353 0
M  V30 3232 O 312.453 0.733152 5.97418 0
M  V30 3233 H 316.279 1.34312 2.72386 0
M  V30 3234 H 313.864 0.719026 1.30959 0
M  V30 3235 H 315.746 -0.641774 4.16484 0
M  V30 3236 H 314.421 -1.07916 3.05181 0
M  V30 3237 H 313.328 1.18428 3.5486 0
M  V30 3238 H 314.661 1.53946 4.67506 0
M  V30 3239 N 316.313 -1.40141 0.720998 0
M  V30 3240 C 317.245 -2.29177 0.0324669 0
M  V30 3241 C 318.258 -1.46105 -0.718126 0
M  V30 3242 O 319.447 -1.69335 -0.564608 0
M  V30 3243 C 316.547 -3.24473 -0.978292 0
M  V30 3244 C 315.72 -4.36423 -0.292115 0
M  V30 3245 C 314.779 -5.12122 -1.20901 0
M  V30 3246 O 313.805 -5.64981 -0.691766 0
M  V30 3247 N 315.007 -5.21992 -2.53978 0
M  V30 3248 H 317.772 -2.88909 0.796984 0
M  V30 3249 H 315.333 -1.51569 0.569068 0
M  V30 3250 H 317.325 -3.71987 -1.59398 0
M  V30 3251 H 315.895 -2.65871 -1.64413 0
M  V30 3252 H 315.115 -3.90967 0.503847 0
M  V30 3253 H 316.403 -5.08467 0.183971 0
M  V30 3254 H 315.801 -4.8054 -2.98493 0
M  V30 3255 H 314.358 -5.72995 -3.10677 0
M  V30 3256 N 317.792 -0.46758 -1.50504 0
M  V30 3257 C 319.203 -0.0116166 -1.86696 0
M  V30 3258 C 319.554 1.39202 -1.38265 0
M  V30 3259 O 318.679 2.0313 -0.746132 0
M  V30 3260 C 319.274 -0.0143044 -3.38797 0
M  V30 3261 C 317.833 0.386175 -3.74414 0
M  V30 3262 C 316.98 -0.401287 -2.74381 0
M  V30 3263 H 319.931 -0.682022 -1.43297 0
M  V30 3264 H 319.952 0.788641 -3.72237 0
M  V30 3265 H 319.464 -1.03602 -3.74016 0
M  V30 3266 H 317.565 1.41237 -3.44794 0
M  V30 3267 H 317.678 0.0899596 -4.79016 0
M  V30 3268 H 316.042 0.144536 -2.5429 0
M  V30 3269 H 316.825 -1.42244 -3.12444 0
M  V30 3270 N 319.27 1.56325 -0.20005 0
M  V30 3271 C 320.2 2.22318 0.713916 0
M  V30 3272 C 321.181 1.18788 1.21752 0
M  V30 3273 O 322.366 1.47309 1.26545 0
M  V30 3274 C 319.496 2.88639 1.93144 0
M  V30 3275 C 318.45 3.98457 1.56255 0
M  V30 3276 C 317.776 4.51967 2.85709 0
M  V30 3277 C 319.076 5.16612 0.768747 0
M  V30 3278 H 320.77 2.98952 0.163755 0
M  V30 3279 H 318.316 1.43792 0.0773219 0
M  V30 3280 H 320.269 3.33491 2.57608 0
M  V30 3281 H 318.993 2.09419 2.50621 0
M  V30 3282 H 317.652 3.54305 0.941471 0
M  V30 3283 H 317.3 3.69503 3.41287 0
M  V30 3284 H 317 5.26071 2.6177 0
M  V30 3285 H 318.524 4.99523 3.51154 0
M  V30 3286 H 319.938 5.57977 1.3166 0
M  V30 3287 H 318.335 5.96812 0.627286 0
M  V30 3288 H 319.405 4.84358 -0.229168 0
M  V30 3289 N 320.748 -0.0735177 1.57428 0
M  V30 3290 C 321.973 -0.789787 1.91774 0
M  V30 3291 C 322.398 -1.70413 0.796306 0
M  V30 3292 O 321.756 -1.79555 -0.250961 0
M  V30 3293 C 321.804 -1.5609 3.25067 0
M  V30 3294 O 320.908 -2.67144 3.14178 0
M  V30 3295 H 320.249 -0.215582 0.628029 0
M  V30 3296 H 322.779 -0.0422781 2.04556 0
M  V30 3297 H 322.789 -1.94052 3.58898 0
M  V30 3298 H 321.464 -0.890015 4.06265 0
M  V30 3299 H 320.041 -2.32052 2.91901 0
M  V30 3300 N 322.226 -1.5378 -0.344866 0
M  V30 3301 C 323.189 -1.80981 -1.40637 0
M  V30 3302 C 324.189 -0.680816 -1.45676 0
M  V30 3303 O 325.379 -0.949095 -1.46075 0
M  V30 3304 C 322.511 -1.95063 -2.79577 0
M  V30 3305 H 323.704 -2.75803 -1.17783 0
M  V30 3306 H 321.257 -1.45173 -0.579181 0
M  V30 3307 H 321.992 -1.02379 -3.07716 0
M  V30 3308 H 321.777 -2.77198 -2.77315 0
M  V30 3309 H 323.267 -2.17629 -3.56409 0
M  V30 3310 N 323.704 0.605807 -1.45491 0
M  V30 3311 C 324.637 1.73022 -1.48791 0
M  V30 3312 C 325.615 1.58917 -0.344112 0
M  V30 3313 O 326.799 1.80453 -0.544876 0
M  V30 3314 C 323.926 3.10865 -1.34463 0
M  V30 3315 C 322.972 3.43554 -2.5273 0
M  V30 3316 S 323.805 3.38196 -4.15191 0
M  V30 3317 C 324.961 4.78616 -4.03333 0
M  V30 3318 H 325.194 1.69961 -2.43928 0
M  V30 3319 H 322.727 0.782611 -1.33096 0
M  V30 3320 H 324.685 3.90398 -1.26884 0
M  V30 3321 H 323.346 3.1144 -0.40794 0
M  V30 3322 H 322.539 4.43924 -2.38637 0
M  V30 3323 H 322.141 2.71541 -2.5718 0
M  V30 3324 H 324.433 5.68463 -3.68587 0
M  V30 3325 H 325.376 4.97767 -5.03621 0
M  V30 3326 H 325.784 4.54381 -3.34959 0
M  V30 3327 N 325.182 1.32811 0.848464 0
M  V30 3328 C 326.428 1.23907 1.60546 0
M  V30 3329 C 326.761 -0.197161 1.93197 0
M  V30 3330 O 326.036 -1.13596 1.5788 0
M  V30 3331 C 326.319 2.10489 2.92175 0
M  V30 3332 C 326.172 3.62522 2.66266 0
M  V30 3333 C 327.491 1.97075 3.93509 0
M  V30 3334 H 324.61 0.451459 0.58254 0
M  V30 3335 H 327.252 1.62818 0.979296 0
M  V30 3336 H 325.402 1.77434 3.45614 0
M  V30 3337 H 327.074 4.05821 2.19334 0
M  V30 3338 H 325.317 3.84879 2.00126 0
M  V30 3339 H 325.988 4.18437 3.6002 0
M  V30 3340 H 328.464 2.26045 3.49346 0
M  V30 3341 H 327.34 2.59923 4.83457 0
M  V30 3342 H 327.601 0.940186 4.31987 0
M  V30 3343 N 326.66 -1.06551 1.16123 0
M  V30 3344 C 327.885 -1.83544 0.965735 0
M  V30 3345 C 328.31 -1.81843 -0.481102 0
M  V30 3346 O 327.668 -1.21732 -1.34354 0
M  V30 3347 C 327.716 -3.28169 1.49457 0
M  V30 3348 O 326.82 -4.0643 0.699157 0
M  V30 3349 H 326.161 -0.568026 0.343864 0
M  V30 3350 H 328.691 -1.34362 1.54299 0
M  V30 3351 H 328.701 -3.78992 1.51092 0
M  V30 3352 H 327.376 -3.28722 2.54784 0
M  V30 3353 H 325.953 -3.65216 0.7531 0
M  V30 3354 N 328.138 -0.959301 -1.25041 0
M  V30 3355 C 329.071 -0.427418 -2.24161 0
M  V30 3356 C 330.049 0.493837 -1.54919 0
M  V30 3357 O 331.233 0.427144 -1.83597 0
M  V30 3358 C 328.36 0.383893 -3.36517 0
M  V30 3359 C 327.406 -0.478431 -4.23808 0
M  V30 3360 S 328.239 -1.91353 -5.00144 0
M  V30 3361 C 329.395 -1.11077 -6.15965 0
M  V30 3362 H 329.628 -1.26743 -2.6893 0
M  V30 3363 H 327.161 -0.763714 -1.34189 0
M  V30 3364 H 329.119 0.846039 -4.01687 0
M  V30 3365 H 327.78 1.19878 -2.90324 0
M  V30 3366 H 326.973 0.14406 -5.03794 0
M  V30 3367 H 326.575 -0.87597 -3.63597 0
M  V30 3368 H 328.867 -0.361699 -6.76534 0
M  V30 3369 H 329.81 -1.88472 -6.82557 0
M  V30 3370 H 330.218 -0.638843 -5.60873 0
M  V30 3371 N 329.616 1.39756 -0.72842 0
M  V30 3372 C 330.862 2.00942 -0.273892 0
M  V30 3373 C 331.195 1.57656 1.13394 0
M  V30 3374 O 330.47 0.802434 1.77176 0
M  V30 3375 C 330.753 3.58211 -0.368346 0
M  V30 3376 C 330.606 4.11534 -1.81548 0
M  V30 3377 C 331.925 4.39372 0.253054 0
M  V30 3378 H 329.044 0.730047 -0.100996 0
M  V30 3379 H 331.686 1.66056 -0.923337 0
M  V30 3380 H 329.836 3.88061 0.184588 0
M  V30 3381 H 331.508 3.92431 -2.42478 0
M  V30 3382 H 329.751 3.65341 -2.33898 0
M  V30 3383 H 330.422 5.20682 -1.83288 0
M  V30 3384 H 332.898 4.15527 -0.218224 0
M  V30 3385 H 331.774 5.48677 0.156585 0
M  V30 3386 H 332.035 4.21358 1.33826 0
M  V30 3387 N 331.094 0.475555 1.50254 0
M  V30 3388 C 332.322 -0.0754493 2.06762 0
M  V30 3389 C 332.737 -1.33111 1.33891 0
M  V30 3390 O 332.094 -1.77846 0.40952 0
M  V30 3391 C 332.145 -0.359008 3.59713 0
M  V30 3392 O 331.866 0.846851 4.29837 0
M  V30 3393 C 333.367 -0.956484 4.32858 0
M  V30 3394 H 330.587 0.00907525 0.670939 0
M  V30 3395 H 333.131 0.665618 1.93364 0
M  V30 3396 H 331.286 -1.05001 3.72899 0
M  V30 3397 H 331.7 0.594162 5.21124 0
M  V30 3398 H 333.174 -1.10463 5.40834 0
M  V30 3399 H 333.651 -1.94775 3.93649 0
M  V30 3400 H 334.257 -0.303723 4.24214 0
M  V30 3401 N 332.573 -1.56217 0.208337 0
M  V30 3402 C 333.52 -2.19699 -0.707192 0
M  V30 3403 C 334.49 -1.14836 -1.20008 0
M  V30 3404 O 335.675 -1.4314 -1.26157 0
M  V30 3405 C 332.815 -2.87061 -1.91546 0
M  V30 3406 C 331.928 -4.06483 -1.46271 0
M  V30 3407 C 331.063 -4.61665 -2.62752 0
M  V30 3408 C 330.102 -5.73417 -2.14147 0
M  V30 3409 N 329.239 -6.22948 -3.23853 0
M  V30 3410 H 334.079 -2.97575 -0.159111 0
M  V30 3411 H 331.616 -1.46948 -0.0667874 0
M  V30 3412 H 333.574 -3.24294 -2.62468 0
M  V30 3413 H 332.204 -2.11725 -2.43664 0
M  V30 3414 H 331.256 -3.74825 -0.648886 0
M  V30 3415 H 332.568 -4.87271 -1.06622 0
M  V30 3416 H 331.722 -5.01272 -3.41776 0
M  V30 3417 H 330.461 -3.80013 -3.05682 0
M  V30 3418 H 329.466 -5.33326 -1.33581 0
M  V30 3419 H 330.691 -6.56897 -1.72232 0
M  V30 3420 H 328.637 -5.44213 -3.6629 0
M  V30 3421 H 328.554 -6.98823 -2.88414 0
M  V30 3422 H 329.822 -6.6721 -4.03052 0
M  V30 3423 N 334.051 0.0651679 -1.57465 0
M  V30 3424 C 335.328 0.79644 -1.78651 0
M  V30 3425 C 335.708 1.95454 -0.797566 0
M  V30 3426 O 335.056 2.27882 0.167946 0
M  V30 3427 C 335.266 1.26322 -3.25337 0
M  V30 3428 C 336.614 1.6939 -3.89348 0
M  V30 3429 O 337.638 1.35872 -3.29268 0
M  V30 3430 O 336.497 2.31471 -4.95059 0
M  V30 3431 H 333.591 0.382157 -0.733407 0
M  V30 3432 H 336.137 0.0447311 -1.69641 0
M  V30 3433 H 334.909 0.434859 -3.88876 0
M  V30 3434 H 334.532 2.07604 -3.39096 0
M  V30 3435 N 335.529 1.53961 0.336706 0
M  V30 3436 C 336.477 1.83136 1.43401 0
M  V30 3437 C 337.471 0.702313 1.54156 0
M  V30 3438 O 338.677 0.885765 1.56698 0
M  V30 3439 H 335.052 0.580309 0.478273 0
M  V30 3440 H 337.023 2.74925 1.16012 0
M  V30 3441 C 335.772 2.06385 2.79822 0
M  V30 3442 H 335.095 2.92718 2.72316 0
M  V30 3443 H 336.535 2.30761 3.55704 0
M  V30 3444 C 334.994 0.851414 3.25964 0
M  V30 3445 O 335.524 0.0541904 4.01663 0
M  V30 3446 N 333.73 0.66672 2.82848 0
M  V30 3447 H 333.277 1.31665 2.21409 0
M  V30 3448 H 333.235 -0.143032 3.14074 0
M  V30 3449 N 337.007 -0.598083 1.45811 0
M  V30 3450 C 338.418 -1.18011 1.44673 0
M  V30 3451 C 338.769 -1.95378 0.179364 0
M  V30 3452 O 337.894 -2.04124 -0.718509 0
M  V30 3453 C 338.489 -2.14677 2.62105 0
M  V30 3454 C 337.048 -2.68236 2.64057 0
M  V30 3455 C 336.195 -1.43816 2.37091 0
M  V30 3456 H 339.146 -0.38686 1.53913 0
M  V30 3457 H 339.167 -2.97878 2.36746 0
M  V30 3458 H 338.679 -1.5834 3.5433 0
M  V30 3459 H 336.78 -3.28486 1.75864 0
M  V30 3460 H 336.893 -3.12021 3.63566 0
M  V30 3461 H 335.257 -1.731 1.86838 0
M  V30 3462 H 336.04 -0.893333 3.31473 0
M  V30 3463 N 338.485 -1.33259 -0.841409 0
M  V30 3464 C 339.733 -1.24326 -1.59334 0
M  V30 3465 C 340.054 0.191564 -1.94057 0
M  V30 3466 O 339.324 1.11967 -1.60749 0
M  V30 3467 H 337.904 -0.457174 -0.590763 0
M  V30 3468 H 340.566 -1.66947 -1.00571 0
M  V30 3469 H 339.662 -1.8352 -2.52442 0
M  V30 3470 N 339.963 1.05934 -1.16686 0
M  V30 3471 C 341.209 1.79065 -0.95203 0
M  V30 3472 C 341.542 1.87147 0.518629 0
M  V30 3473 O 340.817 1.36574 1.38484 0
M  V30 3474 C 341.1 3.23359 -1.58464 0
M  V30 3475 C 340.953 3.23336 -3.12689 0
M  V30 3476 C 342.272 4.21004 -1.28232 0
M  V30 3477 H 339.391 0.65005 -0.34728 0
M  V30 3478 H 342.033 1.23868 -1.44072 0
M  V30 3479 H 340.183 3.70493 -1.16908 0
M  V30 3480 H 341.855 2.84336 -3.6325 0
M  V30 3481 H 340.098 2.61886 -3.4583 0
M  V30 3482 H 340.769 4.25144 -3.52075 0
M  V30 3483 H 343.245 3.8233 -1.64203 0
M  V30 3484 H 342.121 5.20225 -1.75092 0
M  V30 3485 H 342.382 4.41639 -0.201791 0
M  V30 3486 N 341.441 0.965919 1.2453 0
M  V30 3487 C 342.687 0.62776 1.92839 0
M  V30 3488 C 343.02 -0.834694 1.75347 0
M  V30 3489 O 342.295 -1.60031 1.10546 0
M  V30 3490 C 342.578 1.00109 3.45905 0
M  V30 3491 C 342.431 2.52011 3.72573 0
M  V30 3492 C 343.75 0.53435 4.36844 0
M  V30 3493 H 340.869 0.229537 0.700344 0
M  V30 3494 H 343.511 1.2046 1.46933 0
M  V30 3495 H 341.661 0.510238 3.85135 0
M  V30 3496 H 343.333 3.08559 3.42912 0
M  V30 3497 H 341.576 2.95287 3.17786 0
M  V30 3498 H 342.247 2.73183 4.79661 0
M  V30 3499 H 344.723 0.955565 4.04979 0
M  V30 3500 H 343.599 0.824152 5.42678 0
M  V30 3501 H 343.86 -0.565589 4.38467 0
M  V30 3502 N 342.919 -1.39368 0.735821 0
M  V30 3503 C 344.147 -2.04795 0.294393 0
M  V30 3504 C 344.562 -1.55478 -1.07107 0
M  V30 3505 O 343.919 -0.720038 -1.67695 0
M  V30 3506 C 343.97 -3.6035 0.288071 0
M  V30 3507 O 343.691 -4.07852 1.59963 0
M  V30 3508 C 345.192 -4.42976 -0.169422 0
M  V30 3509 H 342.412 -0.658571 0.128551 0
M  V30 3510 H 344.956 -1.78399 0.999701 0
M  V30 3511 H 343.111 -3.85645 -0.368355 0
M  V30 3512 H 343.525 -5.02181 1.51375 0
M  V30 3513 H 344.999 -5.51864 -0.122687 0
M  V30 3514 H 345.476 -4.22068 -1.21472 0
M  V30 3515 H 346.082 -4.22832 0.457469 0
M  V30 3516 N 344.397 -0.483516 -1.5 0
M  V30 3517 C 345.637 0.0657469 -2.04294 0
M  V30 3518 C 346.001 1.35869 -1.35659 0
M  V30 3519 O 347.202 1.99111 -1.80578 0
M  V30 3520 C 345.473 0.232758 -3.56641 0
M  V30 3521 S 347.032 0.738788 -4.32536 0
M  V30 3522 H 343.85 0.0100755 -0.710929 0
M  V30 3523 H 346.452 -0.653494 -1.84254 0
M  V30 3524 H 345.156 -0.713847 -4.04144 0
M  V30 3525 H 344.687 0.977751 -3.81056 0
M  V30 3526 H 346.702 2.01048 -4.53645 0
M  V30 3527 N 345.875 1.56104 -0.216619 0
M  V30 3528 C 346.805 2.23063 0.690296 0
M  V30 3529 C 347.786 1.20072 1.20485 0
M  V30 3530 O 348.971 1.48643 1.24976 0
M  V30 3531 C 346.101 2.90672 1.90072 0
M  V30 3532 C 345.055 4.00092 1.5202 0
M  V30 3533 C 344.381 4.54972 2.80899 0
M  V30 3534 C 345.681 5.17398 0.71391 0
M  V30 3535 H 347.375 2.99109 0.132038 0
M  V30 3536 H 344.921 1.43866 0.0620664 0
M  V30 3537 H 346.874 3.36204 2.54057 0
M  V30 3538 H 345.598 2.12066 2.48386 0
M  V30 3539 H 344.257 3.55283 0.903839 0
M  V30 3540 H 343.905 3.73102 3.37348 0
M  V30 3541 H 343.605 5.28817 2.56176 0
M  V30 3542 H 345.129 5.0322 3.45836 0
M  V30 3543 H 346.543 5.59342 1.25735 0
M  V30 3544 H 344.94 5.97444 0.563951 0
M  V30 3545 H 346.01 4.84088 -0.280527 0
M  V30 3546 N 347.353 -0.0568162 1.57498 0
M  V30 3547 C 348.63 -0.786954 1.79071 0
M  V30 3548 C 349.01 -1.95028 0.80792 0
M  V30 3549 O 348.358 -2.27968 -0.155858 0
M  V30 3550 C 348.568 -1.24594 3.26002 0
M  V30 3551 C 349.916 -1.67323 3.90241 0
M  V30 3552 O 350.94 -1.34124 3.29984 0
M  V30 3553 O 349.799 -2.28842 4.9628 0
M  V30 3554 H 346.893 -0.378262 0.735423 0
M  V30 3555 H 349.439 -0.035734 1.69662 0
M  V30 3556 H 348.211 -0.41423 3.89101 0
M  V30 3557 H 347.834 -2.05803 3.40192 0
M  V30 3558 N 348.832 -1.54138 -0.328536 0
M  V30 3559 C 349.742 -1.86192 -1.42723 0
M  V30 3560 C 350.758 -0.753382 -1.56844 0
M  V30 3561 O 351.934 -1.04718 -1.72035 0
M  V30 3562 C 348.999 -2.07824 -2.77507 0
M  V30 3563 C 348.06 -3.31641 -2.72603 0
M  V30 3564 C 347.293 -3.52232 -4.00959 0
M  V30 3565 O 347.516 -2.7636 -4.9898 0
M  V30 3566 O 346.45 -4.45699 -4.0452 0
M  V30 3567 H 350.276 -2.79608 -1.18547 0
M  V30 3568 H 347.861 -1.3998 -0.522104 0
M  V30 3569 H 349.743 -2.23411 -3.57303 0
M  V30 3570 H 348.418 -1.17596 -3.01584 0
M  V30 3571 H 347.325 -3.21444 -1.91376 0
M  V30 3572 H 348.658 -4.2191 -2.53481 0
M  V30 3573 N 350.31 0.590341 -1.46126 0
M  V30 3574 C 351.273 1.68194 -1.55703 0
M  V30 3575 C 352.273 1.54808 -0.434868 0
M  V30 3576 O 353.463 1.59564 -0.698928 0
M  V30 3577 C 350.595 3.07575 -1.47005 0
M  V30 3578 H 351.788 1.61064 -2.52979 0
M  V30 3579 H 349.341 0.807541 -1.33823 0
M  V30 3580 H 350.076 3.20268 -0.509785 0
M  V30 3581 H 349.861 3.187 -2.28414 0
M  V30 3582 H 351.351 3.87055 -1.56776 0
M  V30 3583 N 351.788 1.33704 0.83433 0
M  V30 3584 C 353.204 1.13137 1.12571 0
M  V30 3585 C 353.404 -0.0747261 2.01361 0
M  V30 3586 O 352.46 -0.753647 2.4099 0
M  V30 3587 C 353.773 2.42105 1.78342 0
M  V30 3588 C 355.321 2.48054 1.90888 0
M  V30 3589 C 355.796 3.76995 2.60075 0
M  V30 3590 N 357.287 3.78092 2.67584 0
M  V30 3591 C 358.022 4.74574 3.21818 0
M  V30 3592 N 357.518 5.81434 3.76705 0
M  V30 3593 N 359.311 4.62044 3.20112 0
M  V30 3594 H 351.462 2.11 0.243489 0
M  V30 3595 H 353.725 0.932532 0.17055 0
M  V30 3596 H 353.431 3.30391 1.20561 0
M  V30 3597 H 353.305 2.54594 2.7832 0
M  V30 3598 H 355.692 1.60215 2.47821 0
M  V30 3599 H 355.773 2.39502 0.898459 0
M  V30 3600 H 355.417 4.65219 2.03799 0
M  V30 3601 H 355.347 3.82825 3.61597 0
M  V30 3602 H 357.838 3.00865 2.28667 0
M  V30 3603 H 358.151 6.51084 4.16305 0
M  V30 3604 H 356.496 5.85163 3.7498 0
M  V30 3605 H 359.687 3.77716 2.76493 0
M  V30 3606 H 359.86 5.37406 3.62076 0
M  V30 3607 N 353.266 -1.05314 1.17247 0
M  V30 3608 C 354.216 -2.11313 0.856196 0
M  V30 3609 C 355.2 -1.60013 -0.168694 0
M  V30 3610 O 356.392 -1.76968 0.0335624 0
M  V30 3611 C 353.521 -3.41301 0.369917 0
M  V30 3612 C 352.607 -3.99401 1.42616 0
M  V30 3613 N 352.998 -4.31481 2.63928 0
M  V30 3614 C 351.296 -4.27126 1.28373 0
M  V30 3615 C 351.997 -4.77799 3.31787 0
M  V30 3616 N 350.973 -4.77843 2.59166 0
M  V30 3617 H 354.775 -2.33976 1.77856 0
M  V30 3618 H 352.289 -1.2295 1.06099 0
M  V30 3619 H 354.286 -4.16713 0.124897 0
M  V30 3620 H 352.946 -3.20072 -0.546253 0
M  V30 3621 H 353.957 -4.21519 3.00902 0
M  V30 3622 H 350.634 -4.15289 0.429111 0
M  V30 3623 H 352.024 -5.11743 4.35395 0
M  V30 3624 N 354.744 -0.972509 -1.24016 0
M  V30 3625 C 355.992 -0.635776 -1.91839 0
M  V30 3626 C 356.313 0.832312 -1.76345 0
M  V30 3627 O 355.583 1.5946 -1.13795 0
M  V30 3628 H 354.163 -0.232157 -0.710009 0
M  V30 3629 H 356.825 -1.23462 -1.50809 0
M  V30 3630 H 355.921 -0.880545 -2.99421 0
M  V30 3631 N 356.222 1.38976 -0.743202 0
M  V30 3632 C 357.469 2.00343 -0.294752 0
M  V30 3633 C 357.797 1.58983 1.12047 0
M  V30 3634 O 357.052 0.813809 1.77977 0
M  V30 3635 C 357.351 3.55647 -0.353517 0
M  V30 3636 C 357.017 4.16685 -1.72292 0
M  V30 3637 C 355.679 4.3307 -2.09771 0
M  V30 3638 C 358.031 4.50464 -2.62168 0
M  V30 3639 C 355.359 4.80526 -3.36618 0
M  V30 3640 C 357.711 4.99332 -3.88395 0
M  V30 3641 C 356.375 5.13924 -4.25956 0
M  V30 3642 H 355.645 0.733108 -0.107857 0
M  V30 3643 H 358.292 1.6618 -0.951651 0
M  V30 3644 H 356.597 3.89884 0.386954 0
M  V30 3645 H 358.294 4.00998 0.0117269 0
M  V30 3646 H 354.884 4.04339 -1.42155 0
M  V30 3647 H 359.068 4.37416 -2.3448 0
M  V30 3648 H 354.324 4.90008 -3.65653 0
M  V30 3649 H 358.498 5.2444 -4.58187 0
M  V30 3650 H 356.125 5.50457 -5.2431 0
M  V30 3651 N 357.7 0.491464 1.49741 0
M  V30 3652 C 358.61 -0.296835 2.32715 0
M  V30 3653 C 359.626 -0.976536 1.44013 0
M  V30 3654 O 360.802 -0.960023 1.77047 0
M  V30 3655 C 357.867 -1.35288 3.19215 0
M  V30 3656 C 356.928 -0.687632 4.23757 0
M  V30 3657 C 356.161 -1.69336 5.06123 0
M  V30 3658 O 356.384 -2.92219 4.89861 0
M  V30 3659 O 355.318 -1.25394 5.88693 0
M  V30 3660 H 359.144 0.382048 3.01287 0
M  V30 3661 H 356.729 0.252953 1.47243 0
M  V30 3662 H 358.611 -1.96411 3.72828 0
M  V30 3663 H 357.286 -2.01487 2.53347 0
M  V30 3664 H 356.193 -0.0369159 3.74082 0
M  V30 3665 H 357.526 -0.0682566 4.92153 0
M  V30 3666 N 359.178 -1.55987 0.224894 0
M  V30 3667 C 360.403 -2.03232 -0.41369 0
M  V30 3668 C 360.828 -1.10359 -1.52323 0
M  V30 3669 O 360.186 -0.092395 -1.81064 0
M  V30 3670 C 360.234 -3.48682 -0.919405 0
M  V30 3671 O 359.338 -3.58947 -2.03054 0
M  V30 3672 H 358.679 -0.657428 -0.0931903 0
M  V30 3673 H 361.209 -2.01679 0.34451 0
M  V30 3674 H 361.219 -3.8907 -1.22835 0
M  V30 3675 H 359.894 -4.15761 -0.107339 0
M  V30 3676 H 358.471 -3.30448 -1.72796 0
M  V30 3677 N 360.656 0.0484629 -1.57525 0
M  V30 3678 C 361.904 0.741657 -1.88 0
M  V30 3679 C 362.225 1.76918 -0.820054 0
M  V30 3680 O 361.495 1.95335 0.148661 0
M  V30 3681 H 360.075 0.276908 -0.69378 0
M  V30 3682 H 362.737 0.019013 -1.94891 0
M  V30 3683 H 361.833 1.24336 -2.86264 0
M  V30 3684 N 362.134 1.5431 0.320358 0
M  V30 3685 C 363.411 1.63322 1.07635 0
M  V30 3686 C 363.791 0.46912 2.05821 0
M  V30 3687 O 363.139 -0.536274 2.22118 0
M  V30 3688 C 363.349 3.00465 1.77544 0
M  V30 3689 C 364.697 3.56621 2.30449 0
M  V30 3690 O 365.721 3.02791 1.87606 0
M  V30 3691 O 364.58 4.5083 3.08892 0
M  V30 3692 H 361.674 0.661502 0.496331 0
M  V30 3693 H 364.22 1.66656 0.319992 0
M  V30 3694 H 362.992 3.76629 1.06143 0
M  V30 3695 H 362.615 3.00824 2.59982 0
M  V30 3696 N 363.613 -0.582584 1.46437 0
M  V30 3697 C 364.86 -1.34079 1.51753 0
M  V30 3698 C 365.188 -1.93762 0.169299 0
M  V30 3699 O 364.443 -1.76989 -0.835062 0
M  V30 3700 C 364.742 -2.48964 2.56421 0
M  V30 3701 C 364.408 -2.07273 4.00436 0
M  V30 3702 C 363.07 -1.95618 4.39644 0
M  V30 3703 C 365.422 -1.75111 4.90903 0
M  V30 3704 C 362.75 -1.5006 5.67185 0
M  V30 3705 C 365.102 -1.31032 6.18881 0
M  V30 3706 C 363.766 -1.17954 6.56996 0
M  V30 3707 H 363.036 -0.49063 0.555304 0
M  V30 3708 H 365.683 -0.656007 1.79913 0
M  V30 3709 H 363.988 -3.22889 2.21923 0
M  V30 3710 H 365.685 -3.07178 2.57765 0
M  V30 3711 H 362.275 -2.17279 3.69443 0
M  V30 3712 H 366.459 -1.83001 4.61329 0
M  V30 3713 H 361.715 -1.38577 5.95488 0
M  V30 3714 H 365.889 -1.052 6.88408 0
M  V30 3715 H 363.516 -0.824279 7.55718 0
M  V30 3716 N 365.091 -1.34144 -0.827227 0
M  V30 3717 C 366.337 -1.26446 -1.58554 0
M  V30 3718 C 366.67 0.1664 -1.93486 0
M  V30 3719 O 365.945 1.1107 -1.59667 0
M  V30 3720 C 366.228 -2.15111 -2.8879 0
M  V30 3721 C 366.081 -3.66712 -2.60465 0
M  V30 3722 C 367.4 -2.03311 -3.90324 0
M  V30 3723 H 364.519 -0.46067 -0.575284 0
M  V30 3724 H 367.161 -1.64356 -0.953269 0
M  V30 3725 H 365.311 -1.8291 -3.42748 0
M  V30 3726 H 366.983 -4.09259 -2.1285 0
M  V30 3727 H 365.226 -3.88014 -1.93978 0
M  V30 3728 H 365.897 -4.24112 -3.53317 0
M  V30 3729 H 368.373 -2.31574 -3.45706 0
M  V30 3730 H 367.249 -2.67582 -4.79261 0
M  V30 3731 H 367.51 -1.00879 -4.30437 0
M  V30 3732 N 366.569 1.04691 -1.17803 0
M  V30 3733 C 367.794 1.81984 -0.994813 0
M  V30 3734 C 368.219 1.82586 0.452112 0
M  V30 3735 O 367.577 1.23854 1.324 0
M  V30 3736 C 367.625 3.2575 -1.54659 0
M  V30 3737 O 366.729 4.05267 -0.763728 0
M  V30 3738 H 366.07 0.562483 -0.352857 0
M  V30 3739 H 368.6 1.3189 -1.56417 0
M  V30 3740 H 368.61 3.76541 -1.57102 0
M  V30 3741 H 367.285 3.24627 -2.59981 0
M  V30 3742 H 365.862 3.63972 -0.811108 0
M  V30 3743 N 368.047 0.979072 1.23499 0
M  V30 3744 C 369.294 0.647219 1.91878 0
M  V30 3745 C 369.622 -0.819074 1.76413 0
M  V30 3746 O 368.877 -1.60616 1.11808 0
M  V30 3747 C 369.176 0.981932 3.43646 0
M  V30 3748 C 368.842 2.43822 3.79291 0
M  V30 3749 C 367.504 2.83622 3.88731 0
M  V30 3750 C 369.856 3.3828 3.96505 0
M  V30 3751 C 367.184 4.16897 4.12812 0
M  V30 3752 C 369.536 4.71197 4.22085 0
M  V30 3753 C 368.2 5.10758 4.29747 0
M  V30 3754 H 367.47 0.236834 0.702133 0
M  V30 3755 H 370.117 1.23268 1.46551 0
M  V30 3756 H 368.422 0.314365 3.90537 0
M  V30 3757 H 370.119 0.703395 3.94783 0
M  V30 3758 H 366.709 2.11966 3.72516 0
M  V30 3759 H 370.893 3.0871 3.88603 0
M  V30 3760 H 366.149 4.47157 4.16966 0
M  V30 3761 H 370.323 5.44348 4.34348 0
M  V30 3762 H 367.95 6.1405 4.48159 0
M  V30 3763 N 369.525 -1.3858 0.750561 0
M  V30 3764 C 370.75 -2.04997 0.314812 0
M  V30 3765 C 371.175 -1.56235 -1.04749 0
M  V30 3766 O 370.533 -0.712981 -1.66692 0
M  V30 3767 C 370.581 -3.58961 0.343415 0
M  V30 3768 O 369.685 -4.07025 -0.663628 0
M  V30 3769 H 369.026 -0.649081 0.139962 0
M  V30 3770 H 371.556 -1.77313 1.02084 0
M  V30 3771 H 371.566 -4.07542 0.193233 0
M  V30 3772 H 370.241 -3.93811 1.33738 0
M  V30 3773 H 368.818 -3.6982 -0.478307 0
M  V30 3774 N 371.003 -0.499398 -1.49478 0
M  V30 3775 C 371.913 0.284489 -2.32869 0
M  V30 3776 C 372.929 0.968885 -1.44529 0
M  V30 3777 O 374.105 0.95062 -1.77553 0
M  V30 3778 C 371.17 1.33594 -3.19928 0
M  V30 3779 C 370.231 0.665149 -4.24116 0
M  V30 3780 C 369.464 1.6665 -5.07014 0
M  V30 3781 O 369.687 2.89618 -4.91404 0
M  V30 3782 O 368.621 1.22271 -5.8935 0
M  V30 3783 H 372.447 -0.39802 -3.01081 0
M  V30 3784 H 370.032 -0.260758 -1.47107 0
M  V30 3785 H 371.914 1.94431 -3.73864 0
M  V30 3786 H 370.589 2.0014 -2.54412 0
M  V30 3787 H 369.496 0.0170769 -3.74096 0
M  V30 3788 H 370.829 0.0421555 -4.92182 0
M  V30 3789 N 372.481 1.55866 -0.233164 0
M  V30 3790 C 373.727 1.98897 0.395959 0
M  V30 3791 C 374.06 1.12091 1.58585 0
M  V30 3792 O 373.335 0.181182 1.93654 0
M  V30 3793 C 373.618 3.50658 0.819224 0
M  V30 3794 C 373.471 4.48233 -0.375109 0
M  V30 3795 C 374.79 4.07135 1.67121 0
M  V30 3796 H 371.909 0.723102 0.142451 0
M  V30 3797 H 374.551 1.87082 -0.331725 0
M  V30 3798 H 372.701 3.60857 1.43925 0
M  V30 3799 H 374.373 4.50031 -1.01341 0
M  V30 3800 H 372.616 4.21624 -1.02058 0
M  V30 3801 H 373.287 5.51988 -0.0358328 0
M  V30 3802 H 375.763 3.99952 1.14795 0
M  V30 3803 H 374.639 5.13615 1.93625 0
M  V30 3804 H 374.9 3.54736 2.63846 0
M  V30 3805 N 373.959 -0.0401083 1.57549 0
M  V30 3806 C 374.891 -1.07149 2.02612 0
M  V30 3807 C 375.904 -1.33126 0.937085 0
M  V30 3808 O 377.093 -1.30808 1.21456 0
M  V30 3809 C 374.193 -2.41561 2.37701 0
M  V30 3810 C 373.366 -2.35096 3.68848 0
M  V30 3811 C 372.425 -3.51867 3.91249 0
M  V30 3812 O 371.451 -3.3186 4.62447 0
M  V30 3813 N 372.653 -4.73351 3.36035 0
M  V30 3814 H 375.418 -0.687485 2.91708 0
M  V30 3815 H 372.979 -0.228248 1.60283 0
M  V30 3816 H 374.971 -3.18379 2.49833 0
M  V30 3817 H 373.541 -2.71846 1.54332 0
M  V30 3818 H 372.761 -1.4345 3.67173 0
M  V30 3819 H 374.049 -2.27908 4.54901 0
M  V30 3820 H 373.447 -4.92507 2.78304 0
M  V30 3821 H 372.004 -5.47572 3.53565 0
M  V30 3822 N 375.437 -1.54477 -0.31217 0
M  V30 3823 C 376.685 -1.72884 -1.04668 0
M  V30 3824 C 377.006 -0.511477 -1.88173 0
M  V30 3825 O 376.276 0.474407 -1.90069 0
M  V30 3826 H 374.856 -0.637461 -0.389425 0
M  V30 3827 H 377.518 -1.91807 -0.345852 0
M  V30 3828 H 376.614 -2.61334 -1.70619 0
M  V30 3829 N 376.915 0.57481 -1.46744 0
M  V30 3830 C 377.848 1.69827 -1.52427 0
M  V30 3831 C 378.826 1.58151 -0.377744 0
M  V30 3832 O 380.01 1.79257 -0.58303 0
M  V30 3833 C 377.137 3.07943 -1.41027 0
M  V30 3834 C 376.183 3.38116 -2.59961 0
M  V30 3835 S 377.016 3.29313 -4.22272 0
M  V30 3836 C 378.172 4.69953 -4.13394 0
M  V30 3837 H 378.405 1.64748 -2.47478 0
M  V30 3838 H 375.938 0.754203 -1.34726 0
M  V30 3839 H 377.896 3.87619 -1.35137 0
M  V30 3840 H 376.557 3.10504 -0.473909 0
M  V30 3841 H 375.75 4.38762 -2.47999 0
M  V30 3842 H 375.352 2.66024 -2.62882 0
M  V30 3843 H 377.644 5.60517 -3.80562 0
M  V30 3844 H 378.587 4.86972 -5.14066 0
M  V30 3845 H 378.995 4.47174 -3.44522 0
M  V30 3846 N 378.394 1.34581 0.820102 0
M  V30 3847 C 379.64 1.27285 1.57881 0
M  V30 3848 C 379.973 -0.156137 1.93571 0
M  V30 3849 O 379.248 -1.10222 1.60254 0
M  V30 3850 C 379.531 2.16639 2.87645 0
M  V30 3851 C 379.384 3.68088 2.58517 0
M  V30 3852 C 380.703 2.05378 3.8924 0
M  V30 3853 H 377.822 0.463714 0.572833 0
M  V30 3854 H 380.464 1.64859 0.944539 0
M  V30 3855 H 378.614 1.84725 3.41773 0
M  V30 3856 H 380.286 4.10382 2.10676 0
M  V30 3857 H 378.529 3.89038 1.91917 0
M  V30 3858 H 379.2 4.2598 3.51063 0
M  V30 3859 H 381.676 2.33404 3.44473 0
M  V30 3860 H 380.552 2.7012 4.77835 0
M  V30 3861 H 380.813 1.0316 4.29896 0
M  V30 3862 N 379.872 -1.04064 1.18357 0
M  V30 3863 C 380.782 -2.15569 0.925596 0
M  V30 3864 C 381.798 -1.7365 -0.110295 0
M  V30 3865 O 382.974 -2.01273 0.0716218 0
M  V30 3866 C 380.039 -3.43704 0.454836 0
M  V30 3867 C 379.1 -4.00004 1.55869 0
M  V30 3868 C 378.333 -5.22023 1.1103 0
M  V30 3869 O 378.556 -5.70392 -0.0309756 0
M  V30 3870 O 377.49 -5.70856 1.90805 0
M  V30 3871 H 381.316 -2.40187 1.8586 0
M  V30 3872 H 378.901 -1.1402 0.965394 0
M  V30 3873 H 380.783 -4.20923 0.200382 0
M  V30 3874 H 379.458 -3.20559 -0.449876 0
M  V30 3875 H 378.365 -3.24172 1.86716 0
M  V30 3876 H 379.698 -4.2749 2.43953 0
M  V30 3877 N 381.35 -0.985608 -1.22978 0
M  V30 3878 C 382.28 -0.549649 -2.26939 0
M  V30 3879 C 383.261 0.419803 -1.64838 0
M  V30 3880 O 384.446 0.31203 -1.91677 0
M  V30 3881 C 381.576 0.143652 -3.47003 0
M  V30 3882 C 380.53 -0.743606 -4.21491 0
M  V30 3883 C 379.856 0.0822027 -5.34637 0
M  V30 3884 C 381.156 -2.03694 -4.80943 0
M  V30 3885 H 382.85 -1.41862 -2.63658 0
M  V30 3886 H 380.396 -0.683571 -1.26741 0
M  V30 3887 H 382.349 0.459985 -4.18882 0
M  V30 3888 H 381.073 1.04711 -3.09359 0
M  V30 3889 H 379.732 -1.04347 -3.51436 0
M  V30 3890 H 379.38 0.986359 -4.93234 0
M  V30 3891 H 379.08 -0.508377 -5.85397 0
M  V30 3892 H 380.604 0.392797 -6.09335 0
M  V30 3893 H 382.018 -1.78504 -5.44802 0
M  V30 3894 H 380.415 -2.57573 -5.42011 0
M  V30 3895 H 381.485 -2.72042 -4.01399 0
M  V30 3896 N 382.828 1.3818 -0.7579 0
M  V30 3897 C 383.776 2.32277 -0.122482 0
M  V30 3898 C 384.77 1.54238 0.700505 0
M  V30 3899 O 385.976 1.69737 0.599119 0
M  V30 3900 H 382.351 0.751712 -0.0208143 0
M  V30 3901 H 384.322 2.83469 -0.932099 0
M  V30 3902 C 383.071 3.39447 0.753076 0
M  V30 3903 H 382.394 3.99591 0.129184 0
M  V30 3904 H 383.834 4.07684 1.16489 0
M  V30 3905 C 382.293 2.78375 1.8976 0
M  V30 3906 O 382.823 2.68025 2.99208 0
M  V30 3907 N 381.029 2.36121 1.69397 0
M  V30 3908 H 380.576 2.4474 0.803762 0
M  V30 3909 H 380.534 1.95602 2.46145 0
M  V30 3910 N 384.306 0.507319 1.49211 0
M  V30 3911 C 385.554 -0.0348839 2.0207 0
M  V30 3912 C 385.875 -1.36898 1.38866 0
M  V30 3913 O 385.145 -1.88133 0.546151 0
M  V30 3914 H 383.725 -0.0158812 0.746831 0
M  V30 3915 H 386.387 0.665998 1.83168 0
M  V30 3916 H 385.483 -0.159917 3.1169 0
M  V30 3917 N 385.784 -1.5574 0.241426 0
M  V30 3918 C 386.732 -2.22538 -0.676718 0
M  V30 3919 C 387.726 -1.21117 -1.18436 0
M  V30 3920 O 388.932 -1.39144 -1.14188 0
M  V30 3921 H 385.307 -0.713776 -0.236701 0
M  V30 3922 H 387.278 -2.98264 -0.0901187 0
M  V30 3923 C 386.027 -2.93439 -1.86518 0
M  V30 3924 H 385.35 -3.7125 -1.4837 0
M  V30 3925 H 386.79 -3.43549 -2.48495 0
M  V30 3926 C 385.249 -1.97008 -2.73294 0
M  V30 3927 O 385.779 -1.49965 -3.72657 0
M  V30 3928 N 383.985 -1.64227 -2.39745 0
M  V30 3929 H 383.532 -2.02677 -1.58996 0
M  V30 3930 H 383.49 -0.999708 -2.98083 0
M  V30 3931 N 387.262 0.0317525 -1.57568 0
M  V30 3932 C 388.194 1.06073 -2.03178 0
M  V30 3933 C 389.207 1.32627 -0.944132 0
M  V30 3934 O 390.396 1.30162 -1.22148 0
M  V30 3935 C 387.496 2.40297 -2.38978 0
M  V30 3936 C 386.669 2.33137 -3.70089 0
M  V30 3937 C 385.728 3.49787 -3.9311 0
M  V30 3938 O 384.754 3.29403 -4.64201 0
M  V30 3939 N 385.956 4.71562 -3.38541 0
M  V30 3940 H 388.721 0.672006 -2.92069 0
M  V30 3941 H 386.282 0.219745 -1.60402 0
M  V30 3942 H 388.274 3.1705 -2.51518 0
M  V30 3943 H 386.844 2.71024 -1.55771 0
M  V30 3944 H 386.064 1.415 -3.67928 0
M  V30 3945 H 387.352 2.25493 -4.56104 0
M  V30 3946 H 386.75 4.91024 -2.80912 0
M  V30 3947 H 385.307 5.45689 -3.56464 0
M  V30 3948 N 388.74 1.54641 0.303973 0
M  V30 3949 C 390.151 1.64811 0.877163 0
M  V30 3950 C 390.502 0.554838 1.88191 0
M  V30 3951 O 389.627 -0.309033 2.14182 0
M  V30 3952 C 390.222 2.9876 1.59775 0
M  V30 3953 C 388.781 3.11061 2.11938 0
M  V30 3954 C 387.928 2.60479 0.951097 0
M  V30 3955 H 390.879 1.58493 0.0810486 0
M  V30 3956 H 390.9 2.90017 2.46314 0
M  V30 3957 H 390.412 3.7831 0.866226 0
M  V30 3958 H 388.513 2.36225 2.88146 0
M  V30 3959 H 388.626 4.17171 2.35595 0
M  V30 3960 H 386.99 2.16859 1.33583 0
M  V30 3961 H 387.773 3.42504 0.233581 0
M  V30 3962 N 390.218 -0.567019 1.47046 0
M  V30 3963 C 391.151 -1.69016 1.53326 0
M  V30 3964 C 392.129 -1.57949 0.386126 0
M  V30 3965 O 393.313 -1.78945 0.592529 0
M  V30 3966 C 390.44 -3.07191 1.42658 0
M  V30 3967 C 389.486 -3.36733 2.6175 0
M  V30 3968 S 390.319 -3.27069 4.24012 0
M  V30 3969 C 391.475 -4.67755 4.1588 0
M  V30 3970 H 391.708 -1.63434 2.48348 0
M  V30 3971 H 389.241 -0.747048 1.35124 0
M  V30 3972 H 391.199 -3.86897 1.37191 0
M  V30 3973 H 389.86 -3.10249 0.490369 0
M  V30 3974 H 389.053 -4.37441 2.50323 0
M  V30 3975 H 388.655 -2.64627 2.64289 0
M  V30 3976 H 390.947 -5.58491 3.83529 0
M  V30 3977 H 391.89 -4.84239 5.16641 0
M  V30 3978 H 392.298 -4.45341 3.46889 0
M  V30 3979 N 391.696 -1.35014 -0.812953 0
M  V30 3980 C 392.606 -1.2951 -1.95613 0
M  V30 3981 C 393.622 -0.20107 -1.72834 0
M  V30 3982 O 394.798 -0.42932 -1.96771 0
M  V30 3983 C 391.863 -1.06033 -3.30088 0
M  V30 3984 C 390.924 -2.24688 -3.65805 0
M  V30 3985 C 390.157 -2.02322 -4.93864 0
M  V30 3986 O 390.38 -0.986464 -5.61805 0
M  V30 3987 O 389.314 -2.89525 -5.27692 0
M  V30 3988 H 393.14 -2.25705 -2.03202 0
M  V30 3989 H 390.725 -1.15321 -0.949811 0
M  V30 3990 H 392.607 -0.94763 -4.10607 0
M  V30 3991 H 391.282 -0.128852 -3.23443 0
M  V30 3992 H 390.189 -2.41521 -2.85689 0
M  V30 3993 H 391.522 -3.16261 -3.77147 0
M  V30 3994 N 393.175 1.03435 -1.18907 0
M  V30 3995 C 394.424 1.76143 -0.982669 0
M  V30 3996 C 394.737 1.89416 0.487953 0
M  V30 3997 O 395.943 2.59041 0.813036 0
M  V30 3998 C 394.399 3.16722 -1.70924 0
M  V30 3999 C 394.007 3.11522 -3.21959 0
M  V30 4000 C 395.751 3.93764 -1.58588 0
M  V30 4001 C 393.658 4.46999 -3.87228 0
M  V30 4002 H 392.588 0.660292 -0.364047 0
M  V30 4003 H 395.239 1.158 -1.42347 0
M  V30 4004 H 393.621 3.775 -1.19623 0
M  V30 4005 H 394.795 2.60158 -3.80335 0
M  V30 4006 H 393.11 2.47978 -3.34508 0
M  V30 4007 H 395.707 4.93963 -2.04707 0
M  V30 4008 H 396.05 4.12794 -0.539142 0
M  V30 4009 H 396.583 3.39576 -2.07203 0
M  V30 4010 H 393.322 4.33174 -4.91976 0
M  V30 4011 H 392.842 4.98441 -3.33642 0
M  V30 4012 H 394.521 5.15898 -3.90459 0
M  V30 4013 N 394.653 0.992116 1.22453 0
M  V30 4014 C 395.6 0.541731 2.24352 0
M  V30 4015 C 396.57 -0.425519 1.60557 0
M  V30 4016 O 397.755 -0.330453 1.87917 0
M  V30 4017 C 394.895 -0.138248 3.44823 0
M  V30 4018 C 394.008 0.870649 4.23136 0
M  V30 4019 C 393.143 0.164269 5.30946 0
M  V30 4020 C 392.182 1.16159 6.00977 0
M  V30 4021 N 391.319 0.483568 7.00433 0
M  V30 4022 H 396.159 1.41541 2.62241 0
M  V30 4023 H 393.696 0.709013 1.28885 0
M  V30 4024 H 395.654 -0.5494 4.13567 0
M  V30 4025 H 394.284 -0.975721 3.077 0
M  V30 4026 H 393.336 1.40013 3.53696 0
M  V30 4027 H 394.648 1.63014 4.7141 0
M  V30 4028 H 393.802 -0.303653 6.0594 0
M  V30 4029 H 392.541 -0.627733 4.83643 0
M  V30 4030 H 391.546 1.64015 5.24766 0
M  V30 4031 H 392.771 1.95445 6.50368 0
M  V30 4032 H 390.717 -0.289012 6.55363 0
M  V30 4033 H 390.634 1.18152 7.4671 0
M  V30 4034 H 391.902 0.0384219 7.79491 0
M  V30 4035 N 396.131 -1.37776 0.765217 0
M  V30 4036 C 397.377 -2.00145 0.327072 0
M  V30 4037 C 397.71 -1.60607 -1.09175 0
M  V30 4038 O 396.985 -0.849127 -1.74986 0
M  V30 4039 C 397.268 -3.57109 0.46319 0
M  V30 4040 C 397.121 -4.06576 1.92395 0
M  V30 4041 C 398.44 -4.39888 -0.136473 0
M  V30 4042 H 395.559 -0.727113 0.120316 0
M  V30 4043 H 398.201 -1.63549 0.967039 0
M  V30 4044 H 396.351 -3.88414 -0.0816358 0
M  V30 4045 H 398.023 -3.85864 2.52798 0
M  V30 4046 H 396.266 -3.59011 2.43503 0
M  V30 4047 H 396.937 -5.15639 1.97028 0
M  V30 4048 H 399.413 -4.14803 0.328317 0
M  V30 4049 H 398.289 -5.48899 -0.0110582 0
M  V30 4050 H 398.55 -4.24758 -1.22608 0
M  V30 4051 N 397.609 -0.515225 -1.4894 0
M  V30 4052 C 398.539 0.244628 -2.32215 0
M  V30 4053 C 399.52 0.949136 -1.41157 0
M  V30 4054 O 400.705 0.937783 -1.70057 0
M  V30 4055 C 397.835 1.30096 -3.22013 0
M  V30 4056 C 396.789 0.715486 -4.21977 0
M  V30 4057 C 396.115 1.87339 -5.00808 0
M  V30 4058 C 397.415 -0.302982 -5.2142 0
M  V30 4059 H 399.109 -0.450501 -2.95991 0
M  V30 4060 H 396.655 -0.218098 -1.42339 0
M  V30 4061 H 398.608 1.84037 -3.79089 0
M  V30 4062 H 397.332 2.02547 -2.56207 0
M  V30 4063 H 395.991 0.197715 -3.66066 0
M  V30 4064 H 395.639 2.58592 -4.31438 0
M  V30 4065 H 395.339 1.48764 -5.68457 0
M  V30 4066 H 396.863 2.41686 -5.60732 0
M  V30 4067 H 398.277 0.148802 -5.73107 0
M  V30 4068 H 396.674 -0.60532 -5.97039 0
M  V30 4069 H 397.744 -1.21395 -4.69459 0
M  V30 4070 N 399.087 1.5561 -0.249682 0
M  V30 4071 C 400.335 1.98618 0.373548 0
M  V30 4072 C 400.656 1.13919 1.58264 0
M  V30 4073 O 399.926 0.222637 1.94631 0
M  V30 4074 H 398.506 0.733571 0.141006 0
M  V30 4075 H 401.168 1.91748 -0.349117 0
M  V30 4076 H 400.264 3.04584 0.680796 0
M  V30 4077 N 400.565 -0.0233959 1.57583 0
M  V30 4078 C 401.976 -0.56927 1.77809 0
M  V30 4079 C 402.327 -1.75284 0.881472 0
M  V30 4080 O 401.452 -2.1626 0.0777805 0
M  V30 4081 C 402.047 -1.03949 3.22459 0
M  V30 4082 C 400.606 -1.53084 3.43864 0
M  V30 4083 C 399.753 -0.471454 2.73263 0
M  V30 4084 H 402.704 0.202825 1.57399 0
M  V30 4085 H 402.725 -1.90661 3.29285 0
M  V30 4086 H 402.237 -0.177865 3.87692 0
M  V30 4087 H 400.338 -2.41414 2.83814 0
M  V30 4088 H 400.451 -1.57443 4.52491 0
M  V30 4089 H 398.815 -0.927788 2.37201 0
M  V30 4090 H 399.598 0.380808 3.41181 0
M  V30 4091 N 402.043 -1.548 -0.295768 0
M  V30 4092 C 403.273 -1.78069 -1.04762 0
M  V30 4093 C 403.681 -0.542847 -1.81245 0
M  V30 4094 O 403.024 0.497051 -1.76848 0
M  V30 4095 C 403.086 -2.93881 -2.07061 0
M  V30 4096 C 402.75 -4.31777 -1.49725 0
M  V30 4097 C 403.747 -5.11613 -0.924581 0
M  V30 4098 C 401.432 -4.78389 -1.5313 0
M  V30 4099 C 403.426 -6.36184 -0.393594 0
M  V30 4100 C 401.113 -6.02921 -0.996447 0
M  V30 4101 C 402.111 -6.81654 -0.428569 0
M  V30 4102 O 401.799 -8.0384 0.0981593 0
M  V30 4103 H 401.531 -0.597475 -0.316226 0
M  V30 4104 H 404.085 -2.02584 -0.338973 0
M  V30 4105 H 402.315 -2.65003 -2.81621 0
M  V30 4106 H 404.004 -3.04679 -2.6819 0
M  V30 4107 H 404.77 -4.76743 -0.891136 0
M  V30 4108 H 400.649 -4.17132 -1.9627 0
M  V30 4109 H 404.193 -6.97582 0.0503014 0
M  V30 4110 H 400.09 -6.37277 -1.02706 0
M  V30 4111 H 400.858 -8.18499 -0.0146455 0
M  V30 4112 N 403.521 0.559213 -1.47345 0
M  V30 4113 C 404.749 1.34194 -1.57479 0
M  V30 4114 C 405.164 1.87463 -0.224261 0
M  V30 4115 O 404.521 1.64888 0.782185 0
M  V30 4116 C 404.572 2.51324 -2.59843 0
M  V30 4117 O 404.293 2.00256 -3.89653 0
M  V30 4118 C 405.794 3.43563 -2.80142 0
M  V30 4119 H 403.014 0.409136 -0.531835 0
M  V30 4120 H 405.558 0.677609 -1.92947 0
M  V30 4121 H 403.713 3.13699 -2.27314 0
M  V30 4122 H 404.127 2.76708 -4.4557 0
M  V30 4123 H 405.601 4.2217 -3.55635 0
M  V30 4124 H 406.078 3.9698 -1.87892 0
M  V30 4125 H 406.684 2.87005 -3.1386 0
M  V30 4126 N 404.999 1.35443 0.805782 0
M  V30 4127 C 406.246 1.28761 1.56291 0
M  V30 4128 C 406.574 -0.137747 1.94012 0
M  V30 4129 O 405.829 -1.1032 1.61642 0
M  V30 4130 C 406.128 2.14045 2.86216 0
M  V30 4131 C 405.794 3.62826 2.67709 0
M  V30 4132 C 404.456 4.0338 2.6237 0
M  V30 4133 C 406.808 4.57227 2.50186 0
M  V30 4134 C 404.136 5.36501 2.37451 0
M  V30 4135 C 406.488 5.90547 2.26797 0
M  V30 4136 C 405.152 6.30245 2.1988 0
M  V30 4137 H 404.422 0.471171 0.571908 0
M  V30 4138 H 407.069 1.67347 0.930974 0
M  V30 4139 H 405.374 1.68342 3.53791 0
M  V30 4140 H 407.071 2.0621 3.43917 0
M  V30 4141 H 403.661 3.30644 2.72713 0
M  V30 4142 H 407.845 4.2678 2.53323 0
M  V30 4143 H 403.101 5.66259 2.30567 0
M  V30 4144 H 407.275 6.63274 2.12228 0
M  V30 4145 H 404.902 7.33328 2.00333 0
M  V30 4146 N 406.477 -1.02803 1.19454 0
M  V30 4147 C 407.702 -1.80378 1.02364 0
M  V30 4148 C 408.127 -1.83282 -0.423007 0
M  V30 4149 O 407.485 -1.25945 -1.30413 0
M  V30 4150 C 407.533 -3.23248 1.59821 0
M  V30 4151 O 406.637 -4.04 0.828105 0
M  V30 4152 H 405.978 -0.556799 0.361761 0
M  V30 4153 H 408.508 -1.29385 1.58495 0
M  V30 4154 H 408.518 -3.73994 1.63073 0
M  V30 4155 H 407.193 -3.2045 2.65113 0
M  V30 4156 H 405.77 -3.62635 0.86891 0
M  V30 4157 N 407.956 -0.998596 -1.21925 0
M  V30 4158 C 409.205 -0.673085 -1.90138 0
M  V30 4159 C 409.518 0.79895 -1.78539 0
M  V30 4160 O 410.724 1.23628 -2.4172 0
M  V30 4161 C 409.18 -1.15339 -3.40918 0
M  V30 4162 C 408.788 -2.65106 -3.61141 0
M  V30 4163 C 410.532 -0.902476 -4.14796 0
M  V30 4164 C 408.439 -3.0671 -5.05651 0
M  V30 4165 H 407.369 -0.248057 -0.712028 0
M  V30 4166 H 410.02 -1.20891 -1.38049 0
M  V30 4167 H 408.402 -0.545658 -3.92223 0
M  V30 4168 H 409.576 -3.31274 -3.20304 0
M  V30 4169 H 407.891 -2.88142 -3.00605 0
M  V30 4170 H 410.488 -1.18895 -5.21314 0
M  V30 4171 H 410.831 0.161349 -4.15987 0
M  V30 4172 H 411.364 -1.47269 -3.69536 0
M  V30 4173 H 408.103 -4.12292 -5.09603 0
M  V30 4174 H 407.623 -2.45249 -5.47369 0
M  V30 4175 H 409.302 -2.9833 -5.74115 0
M  V30 4176 N 409.434 1.37368 -0.772513 0
M  V30 4177 C 410.674 2.01512 -0.342361 0
M  V30 4178 C 411.038 1.59997 1.06136 0
M  V30 4179 O 412.239 2.16609 1.59167 0
M  V30 4180 C 410.51 3.54134 -0.482048 0
M  V30 4181 S 412.069 4.38585 -0.137272 0
M  V30 4182 H 408.887 0.698699 -0.131686 0
M  V30 4183 H 411.489 1.67552 -1.0073 0
M  V30 4184 H 410.193 3.81837 -1.50428 0
M  V30 4185 H 409.724 3.92894 0.199413 0
M  V30 4186 H 411.739 4.84594 1.06692 0
M  V30 4187 N 410.912 0.523116 1.48665 0
M  V30 4188 C 412.189 -0.0775449 1.95446 0
M  V30 4189 C 412.569 -1.5197 1.4652 0
M  V30 4190 O 411.917 -2.17876 0.688657 0
M  V30 4191 C 412.127 0.0326135 3.48985 0
M  V30 4192 C 413.475 -0.130141 4.24401 0
M  V30 4193 O 414.499 -0.0415142 3.56176 0
M  V30 4194 O 413.358 -0.31491 5.45592 0
M  V30 4195 H 410.452 -0.0831012 0.822814 0
M  V30 4196 H 412.998 0.587227 1.59216 0
M  V30 4197 H 411.77 1.03748 3.77296 0
M  V30 4198 H 411.393 -0.671317 3.91892 0
M  V30 4199 N 412.39 -1.55475 0.257931 0
M  V30 4200 C 413.618 -2.03609 -0.367559 0
M  V30 4201 C 414.033 -1.13687 -1.50734 0
M  V30 4202 O 413.39 -0.153479 -1.81853 0
M  V30 4203 C 413.441 -3.51001 -0.864908 0
M  V30 4204 O 413.162 -4.37499 0.229465 0
M  V30 4205 C 414.663 -4.14946 -1.55997 0
M  V30 4206 H 411.883 -0.665459 -0.0860521 0
M  V30 4207 H 414.427 -2.00843 0.385014 0
M  V30 4208 H 412.582 -3.54266 -1.56762 0
M  V30 4209 H 412.996 -5.24286 -0.14998 0
M  V30 4210 H 414.47 -5.19735 -1.85956 0
M  V30 4211 H 414.947 -3.6209 -2.4857 0
M  V30 4212 H 415.553 -4.15635 -0.901543 0
M  V30 4213 N 413.868 0.0150385 -1.57593 0
M  V30 4214 C 415.093 0.718067 -1.94573 0
M  V30 4215 C 415.518 1.6734 -0.859005 0
M  V30 4216 O 414.876 1.80362 0.184147 0
M  V30 4217 C 414.924 1.43918 -3.30636 0
M  V30 4218 O 414.028 2.55299 -3.23876 0
M  V30 4219 H 413.369 0.192125 -0.635597 0
M  V30 4220 H 415.899 -0.0336708 -2.04572 0
M  V30 4221 H 415.909 1.80598 -3.65853 0
M  V30 4222 H 414.584 0.738619 -4.09289 0
M  V30 4223 H 413.161 2.21058 -3.00312 0
M  V30 4224 N 415.346 1.54954 0.287554 0
M  V30 4225 C 416.294 1.87606 1.37502 0
M  V30 4226 C 417.288 0.751001 1.51843 0
M  V30 4227 O 418.494 0.935169 1.53801 0
M  V30 4228 H 414.869 0.595231 0.459569 0
M  V30 4229 H 416.84 2.78477 1.07206 0
M  V30 4230 C 415.589 2.15183 2.73115 0
M  V30 4231 H 414.912 3.01234 2.62866 0
M  V30 4232 H 416.352 2.4196 3.48183 0
M  V30 4233 C 414.811 0.954686 3.2309 0
M  V30 4234 O 415.341 0.181949 4.01288 0
M  V30 4235 N 413.547 0.756368 2.80584 0
M  V30 4236 H 413.094 1.38643 2.17108 0
M  V30 4237 H 413.052 -0.0430391 3.14371 0
M  V30 4238 N 416.824 -0.551391 1.4764 0
M  V30 4239 C 418.071 -1.3083 1.54563 0
M  V30 4240 C 418.399 -1.93359 0.210361 0
M  V30 4241 O 417.654 -1.78721 -0.797332 0
M  V30 4242 C 417.953 -2.43469 2.61644 0
M  V30 4243 C 417.619 -1.98732 4.04742 0
M  V30 4244 C 416.281 -1.86248 4.43695 0
M  V30 4245 C 418.633 -1.64659 4.94507 0
M  V30 4246 C 415.961 -1.37995 5.70241 0
M  V30 4247 C 418.313 -1.17875 6.21521 0
M  V30 4248 C 416.977 -1.03992 6.5935 0
M  V30 4249 H 416.247 -0.478741 0.565587 0
M  V30 4250 H 418.894 -0.617697 1.81264 0
M  V30 4251 H 417.199 -3.18109 2.28722 0
M  V30 4252 H 418.896 -3.01642 2.64222 0
M  V30 4253 H 415.486 -2.09393 3.73968 0
M  V30 4254 H 419.67 -1.73174 4.65107 0
M  V30 4255 H 414.926 -1.25915 5.98294 0
M  V30 4256 H 419.1 -0.905739 6.90485 0
M  V30 4257 H 416.727 -0.663794 7.57296 0
M  V30 4258 N 418.302 -1.35869 -0.798587 0
M  V30 4259 C 419.527 -1.32883 -1.59238 0
M  V30 4260 C 419.952 0.0894587 -1.87887 0
M  V30 4261 O 419.31 1.05869 -1.47178 0
M  V30 4262 C 419.358 -2.14892 -2.89575 0
M  V30 4263 O 418.462 -1.53512 -3.82763 0
M  V30 4264 H 417.803 -0.455236 -0.48338 0
M  V30 4265 H 420.333 -1.79024 -0.990539 0
M  V30 4266 H 420.343 -2.27139 -3.38928 0
M  V30 4267 H 419.018 -3.17998 -2.68049 0
M  V30 4268 H 417.595 -1.50153 -3.41334 0
M  V30 4269 N 419.78 1.02168 -1.19998 0
M  V30 4270 C 421.057 1.72816 -0.916191 0
M  V30 4271 C 421.437 2.03081 0.576325 0
M  V30 4272 O 420.785 1.69122 1.53656 0
M  V30 4273 C 420.995 2.9997 -1.78378 0
M  V30 4274 C 422.343 3.73336 -2.02251 0
M  V30 4275 O 423.367 3.09914 -1.75589 0
M  V30 4276 O 422.226 4.87371 -2.47249 0
M  V30 4277 H 419.32 0.752924 -0.342103 0
M  V30 4278 H 421.866 1.08062 -1.30846 0
M  V30 4279 H 420.638 2.73888 -2.79466 0
M  V30 4280 H 420.261 3.72464 -1.39126 0
M  V30 4281 N 421.258 1.00505 1.21394 0
M  V30 4282 C 422.488 0.705584 1.94178 0
M  V30 4283 C 422.896 -0.735846 1.74304 0
M  V30 4284 O 422.239 -1.50954 1.04683 0
M  V30 4285 C 422.301 0.94689 3.46806 0
M  V30 4286 C 421.965 2.37517 3.90429 0
M  V30 4287 C 422.962 3.35539 3.97127 0
M  V30 4288 C 420.647 2.71284 4.22742 0
M  V30 4289 C 422.641 4.65395 4.3553 0
M  V30 4290 C 420.328 4.01356 4.60822 0
M  V30 4291 C 421.326 4.98223 4.67186 0
M  V30 4292 O 421.014 6.25969 5.04399 0
M  V30 4293 H 420.746 0.259216 0.624326 0
M  V30 4294 H 423.3 1.34592 1.55159 0
M  V30 4295 H 421.53 0.249386 3.85895 0
M  V30 4296 H 423.219 0.640804 4.0081 0
M  V30 4297 H 423.985 3.10786 3.7234 0
M  V30 4298 H 419.864 1.96581 4.16985 0
M  V30 4299 H 423.408 5.41002 4.40412 0
M  V30 4300 H 419.305 4.25893 4.85063 0
M  V30 4301 H 420.073 6.30085 5.22431 0
M  V30 4302 N 422.737 -1.36956 0.779787 0
M  V30 4303 C 423.986 -1.98738 0.344405 0
M  V30 4304 C 424.299 -1.62596 -1.08728 0
M  V30 4305 O 425.505 -2.1754 -1.62445 0
M  V30 4306 C 423.961 -3.5544 0.564829 0
M  V30 4307 C 423.569 -4.00514 2.0073 0
M  V30 4308 C 425.313 -4.24059 0.193471 0
M  V30 4309 C 423.22 -5.49957 2.17489 0
M  V30 4310 H 422.15 -0.743561 0.12503 0
M  V30 4311 H 424.801 -1.56381 0.960057 0
M  V30 4312 H 423.183 -3.95817 -0.120397 0
M  V30 4313 H 424.357 -3.71362 2.72814 0
M  V30 4314 H 422.672 -3.44703 2.336 0
M  V30 4315 H 425.269 -5.33874 0.297097 0
M  V30 4316 H 425.612 -4.07378 -0.857263 0
M  V30 4317 H 426.145 -3.89012 0.831556 0
M  V30 4318 H 422.884 -5.71574 3.2091 0
M  V30 4319 H 422.404 -5.80767 1.49899 0
M  V30 4320 H 424.083 -6.16043 1.97738 0
M  V30 4321 N 424.215 -0.530993 -1.48385 0
M  V30 4322 C 425.631 -0.188919 -1.58478 0
M  V30 4323 C 425.831 1.30786 -1.53288 0
M  V30 4324 O 424.887 2.08619 -1.42248 0
M  V30 4325 C 426.2 -0.792343 -2.90073 0
M  V30 4326 C 427.748 -0.76117 -3.03604 0
M  V30 4327 C 428.223 -1.34319 -4.37861 0
M  V30 4328 N 429.714 -1.3052 -4.44431 0
M  V30 4329 C 430.449 -1.72543 -5.46824 0
M  V30 4330 N 429.945 -2.22299 -6.56167 0
M  V30 4331 N 431.738 -1.63773 -5.37712 0
M  V30 4332 H 423.889 -1.50377 -1.50002 0
M  V30 4333 H 426.152 -0.625559 -0.712306 0
M  V30 4334 H 425.858 -1.84323 -2.99529 0
M  V30 4335 H 425.732 -0.270026 -3.76232 0
M  V30 4336 H 428.119 0.280957 -2.93759 0
M  V30 4337 H 428.2 -1.32097 -2.19053 0
M  V30 4338 H 427.844 -2.38425 -4.4846 0
M  V30 4339 H 427.774 -0.759064 -5.21101 0
M  V30 4340 H 430.265 -0.940973 -3.65997 0
M  V30 4341 H 430.578 -2.52356 -7.30436 0
M  V30 4342 H 428.923 -2.26293 -6.57127 0
M  V30 4343 H 432.114 -1.24698 -4.51185 0
M  V30 4344 H 432.287 -1.96844 -6.17379 0
M  V30 4345 N 425.693 1.55336 -0.266172 0
M  V30 4346 C 426.941 1.99003 0.35246 0
M  V30 4347 C 427.262 1.15591 1.57047 0
M  V30 4348 O 426.532 0.243268 1.94384 0
M  V30 4349 H 425.112 0.735025 0.133217 0
M  V30 4350 H 427.774 1.91367 -0.369434 0
M  V30 4351 H 426.87 3.05289 0.648453 0
M  V30 4352 N 427.171 -0.0066808 1.57599 0
M  V30 4353 C 428.419 -0.691552 1.899 0
M  V30 4354 C 428.74 -1.74682 0.866672 0
M  V30 4355 O 428.01 -1.95661 -0.0968189 0
M  V30 4356 H 426.59 -0.258416 0.700878 0
M  V30 4357 H 429.252 0.0326655 1.94873 0
M  V30 4358 H 428.348 -1.16702 2.8946 0
M  V30 4359 N 428.649 -1.55105 -0.279332 0
M  V30 4360 C 429.898 -1.74618 -1.00952 0
M  V30 4361 C 430.211 -0.551096 -1.87676 0
M  V30 4362 O 431.417 -0.628507 -2.64125 0
M  V30 4363 C 429.873 -3.09025 -1.84476 0
M  V30 4364 C 429.481 -4.36081 -1.0265 0
M  V30 4365 C 431.225 -3.37891 -2.56963 0
M  V30 4366 C 429.132 -5.6153 -1.85576 0
M  V30 4367 H 428.062 -0.650868 -0.38064 0
M  V30 4368 H 430.713 -1.81569 -0.265475 0
M  V30 4369 H 429.095 -2.96095 -2.62952 0
M  V30 4370 H 430.269 -4.59909 -0.286354 0
M  V30 4371 H 428.584 -4.14312 -0.416464 0
M  V30 4372 H 431.181 -4.28822 -3.19399 0
M  V30 4373 H 431.524 -2.57737 -3.26921 0
M  V30 4374 H 432.057 -3.5189 -1.85522 0
M  V30 4375 H 428.796 -6.44413 -1.2005 0
M  V30 4376 H 428.316 -5.41854 -2.57204 0
M  V30 4377 H 429.995 -5.99594 -2.43096 0
M  V30 4378 N 430.127 0.543554 -1.4793 0
M  V30 4379 C 431.373 1.30201 -1.55485 0
M  V30 4380 C 431.706 1.92925 -0.222201 0
M  V30 4381 O 430.981 1.78586 0.77053 0
M  V30 4382 C 431.264 2.40174 -2.68307 0
M  V30 4383 C 431.117 1.8223 -4.11233 0
M  V30 4384 C 432.436 3.42024 -2.76961 0
M  V30 4385 H 429.555 0.472036 -0.565996 0
M  V30 4386 H 432.197 0.606914 -1.80046 0
M  V30 4387 H 430.347 2.99463 -2.47495 0
M  V30 4388 H 432.019 1.27096 -4.43446 0
M  V30 4389 H 430.262 1.12832 -4.18869 0
M  V30 4390 H 430.933 2.61793 -4.85972 0
M  V30 4391 H 433.409 2.92672 -2.95774 0
M  V30 4392 H 432.285 4.16383 -3.57654 0
M  V30 4393 H 432.546 4.0173 -1.84568 0
M  V30 4394 N 431.605 1.3629 0.791371 0
M  V30 4395 C 432.83 1.33726 1.58531 0
M  V30 4396 C 433.255 -0.0794933 1.87932 0
M  V30 4397 O 432.613 -1.05087 1.47738 0
M  V30 4398 C 432.661 2.16425 2.88431 0
M  V30 4399 O 431.765 1.5554 3.81944 0
M  V30 4400 H 431.106 0.457793 0.480959 0
M  V30 4401 H 433.636 1.79547 0.981031 0
M  V30 4402 H 433.646 2.28933 3.37718 0
M  V30 4403 H 432.321 3.19415 2.66359 0
M  V30 4404 H 430.898 1.51961 3.40532 0
M  V30 4405 N 433.083 -1.0153 1.20538 0
M  V30 4406 C 434.015 -2.10224 0.913155 0
M  V30 4407 C 435.028 -1.62495 -0.0995998 0
M  V30 4408 O 436.217 -1.78014 0.131582 0
M  V30 4409 C 433.317 -3.37111 0.347717 0
M  V30 4410 C 432.49 -4.13971 1.41233 0
M  V30 4411 C 431.549 -5.19158 0.857976 0
M  V30 4412 O 430.575 -5.48 1.53897 0
M  V30 4413 N 431.777 -5.7955 -0.331966 0
M  V30 4414 H 434.542 -2.35879 1.84881 0
M  V30 4415 H 432.103 -1.17931 1.10923 0
M  V30 4416 H 434.095 -4.04683 -0.0373026 0
M  V30 4417 H 432.665 -3.08696 -0.492527 0
M  V30 4418 H 431.885 -3.41351 1.97163 0
M  V30 4419 H 433.173 -4.62103 2.12928 0
M  V30 4420 H 432.571 -5.58455 -0.902478 0
M  V30 4421 H 431.128 -6.48464 -0.65861 0
M  V30 4422 N 434.561 -1.01147 -1.20859 0
M  V30 4423 C 435.807 -0.698899 -1.90377 0
M  V30 4424 C 436.14 0.76904 -1.78324 0
M  V30 4425 O 435.415 1.55817 -1.16409 0
M  V30 4426 C 435.698 -1.12878 -3.41951 0
M  V30 4427 C 435.551 -2.65665 -3.62963 0
M  V30 4428 C 436.87 -0.696114 -4.3456 0
M  V30 4429 H 433.989 -0.255372 -0.691342 0
M  V30 4430 H 436.631 -1.25831 -1.42361 0
M  V30 4431 H 434.781 -0.652827 -3.82976 0
M  V30 4432 H 436.453 -3.21074 -3.31224 0
M  V30 4433 H 434.696 -3.06878 -3.06608 0
M  V30 4434 H 435.367 -2.90797 -4.69192 0
M  V30 4435 H 437.843 -1.10521 -4.01154 0
M  V30 4436 H 436.719 -1.025 -5.39245 0
M  V30 4437 H 436.98 0.402465 -4.40264 0
M  V30 4438 N 436.039 1.36541 -0.78704 0
M  V30 4439 C 436.986 2.30082 -0.181901 0
M  V30 4440 C 437.956 1.5186 0.672896 0
M  V30 4441 O 439.141 1.80374 0.622072 0
M  V30 4442 C 436.281 3.3835 0.679197 0
M  V30 4443 C 435.394 4.31565 -0.193882 0
M  V30 4444 C 434.529 5.26915 0.673364 0
M  V30 4445 C 433.568 6.11769 -0.201315 0
M  V30 4446 N 432.705 6.99315 0.624777 0
M  V30 4447 H 437.545 2.81248 -0.985064 0
M  V30 4448 H 435.082 1.38437 -0.497342 0
M  V30 4449 H 437.04 3.99767 1.19341 0
M  V30 4450 H 435.67 2.8851 1.44781 0
M  V30 4451 H 434.722 3.71323 -0.826044 0
M  V30 4452 H 436.034 4.91191 -0.867937 0
M  V30 4453 H 435.188 5.9361 1.25348 0
M  V30 4454 H 433.927 4.67737 1.38105 0
M  V30 4455 H 432.932 5.44039 -0.793849 0
M  V30 4456 H 434.157 6.73022 -0.906568 0
M  V30 4457 H 432.103 6.42648 1.3168 0
M  V30 4458 H 432.02 7.56 0.00835237 0
M  V30 4459 H 433.288 7.70382 1.18879 0
M  V30 4460 N 437.518 0.538854 1.48102 0
M  V30 4461 C 438.764 0.00801365 2.02798 0
M  V30 4462 C 439.097 -1.3309 1.41424 0
M  V30 4463 O 438.372 -1.86169 0.563158 0
M  V30 4464 C 438.655 -0.104589 3.59948 0
M  V30 4465 C 438.508 1.26012 4.31788 0
M  V30 4466 C 439.827 -0.827055 4.32259 0
M  V30 4467 H 436.946 0.00438624 0.736987 0
M  V30 4468 H 439.588 0.6976 1.7673 0
M  V30 4469 H 437.738 -0.691893 3.82289 0
M  V30 4470 H 439.41 1.88922 4.2084 0
M  V30 4471 H 437.653 1.83968 3.92859 0
M  V30 4472 H 438.324 1.13424 5.40221 0
M  V30 4473 H 440.8 -0.328578 4.14801 0
M  V30 4474 H 439.676 -0.87476 5.41885 0
M  V30 4475 H 439.937 -1.87927 4.0017 0
M  V30 4476 N 438.996 -1.55193 0.274407 0
M  V30 4477 C 440.407 -1.85358 -0.223488 0
M  V30 4478 C 440.758 -1.19642 -1.555 0
M  V30 4479 O 439.883 -0.484498 -2.10907 0
M  V30 4480 C 440.478 -3.36282 -0.412285 0
M  V30 4481 C 439.037 -3.66574 -0.854413 0
M  V30 4482 C 438.184 -2.7725 0.0527056 0
M  V30 4483 H 441.135 -1.50743 0.496215 0
M  V30 4484 H 441.156 -3.59349 -1.25094 0
M  V30 4485 H 440.668 -3.84083 0.556965 0
M  V30 4486 H 438.769 -3.24273 -1.83516 0
M  V30 4487 H 438.882 -4.74073 -0.692226 0
M  V30 4488 H 437.246 -2.50447 -0.463484 0
M  V30 4489 H 438.029 -3.27865 1.01783 0
M  V30 4490 N 440.474 -0.00167713 -1.576 0
M  V30 4491 C 441.421 0.989195 -2.08527 0
M  V30 4492 C 442.391 1.34031 -0.981065 0
M  V30 4493 O 443.576 1.43839 -1.2536 0
M  V30 4494 C 440.716 2.27537 -2.59463 0
M  V30 4495 C 439.829 1.98314 -3.83791 0
M  V30 4496 C 438.964 3.21025 -4.23222 0
M  V30 4497 C 438.003 2.87495 -5.40382 0
M  V30 4498 N 437.14 4.02749 -5.75098 0
M  V30 4499 H 441.98 0.547973 -2.92919 0
M  V30 4500 H 439.517 0.258917 -1.44803 0
M  V30 4501 H 441.475 3.02729 -2.87073 0
M  V30 4502 H 440.105 2.69325 -1.77943 0
M  V30 4503 H 439.157 1.13482 -3.63078 0
M  V30 4504 H 440.469 1.69601 -4.69081 0
M  V30 4505 H 439.623 4.04561 -4.52123 0
M  V30 4506 H 438.362 3.52877 -3.36644 0
M  V30 4507 H 437.367 2.02367 -5.11202 0
M  V30 4508 H 438.592 2.56889 -6.28637 0
M  V30 4509 H 436.538 4.34494 -4.91478 0
M  V30 4510 H 436.455 3.77566 -6.54966 0
M  V30 4511 H 437.723 4.87068 -6.08592 0
M  V30 4512 N 441.952 1.55251 0.271103 0
M  V30 4513 C 442.899 1.88261 1.33516 0
M  V30 4514 C 443.869 0.734296 1.48988 0
M  V30 4515 O 445.054 0.985741 1.63364 0
M  V30 4516 C 442.194 2.16168 2.69008 0
M  V30 4517 C 441.307 3.43678 2.61743 0
M  V30 4518 C 440.442 3.61276 3.89427 0
M  V30 4519 C 439.481 4.82472 3.7668 0
M  V30 4520 N 438.618 4.96717 4.96202 0
M  V30 4521 H 443.458 2.79015 1.04665 0
M  V30 4522 H 440.995 1.38137 0.505618 0
M  V30 4523 H 442.953 2.30349 3.47844 0
M  V30 4524 H 441.583 1.28646 2.96057 0
M  V30 4525 H 440.635 3.37959 1.74607 0
M  V30 4526 H 441.947 4.3265 2.48224 0
M  V30 4527 H 441.101 3.75284 4.76704 0
M  V30 4528 H 439.84 2.70492 4.05814 0
M  V30 4529 H 438.845 4.68465 2.87786 0
M  V30 4530 H 440.07 5.74692 3.61809 0
M  V30 4531 H 438.016 4.08865 5.12997 0
M  V30 4532 H 437.933 5.79738 4.85222 0
M  V30 4533 H 439.201 5.15113 5.85046 0
M  V30 4534 N 443.43 -0.535701 1.48216 0
M  V30 4535 C 444.679 -1.28828 1.55197 0
M  V30 4536 C 444.992 -1.94263 0.228278 0
M  V30 4537 O 446.198 -2.70927 0.176278 0
M  V30 4538 C 444.654 -2.33727 2.73678 0
M  V30 4539 C 444.262 -1.74386 4.12666 0
M  V30 4540 C 446.006 -3.1003 2.89968 0
M  V30 4541 C 443.913 -2.77192 5.22416 0
M  V30 4542 H 442.843 -0.484484 0.577747 0
M  V30 4543 H 445.494 -0.56646 1.74538 0
M  V30 4544 H 443.876 -3.08919 2.4776 0
M  V30 4545 H 445.05 -1.05421 4.48579 0
M  V30 4546 H 443.365 -1.10595 4.01445 0
M  V30 4547 H 445.962 -3.86842 3.6913 0
M  V30 4548 H 446.305 -3.65542 1.9921 0
M  V30 4549 H 446.838 -2.41952 3.15759 0
M  V30 4550 H 443.577 -2.26507 6.15122 0
M  V30 4551 H 443.097 -3.44502 4.90998 0
M  V30 4552 H 444.776 -3.40285 5.50286 0
M  V30 4553 N 444.908 -1.36708 -0.784132 0
M  V30 4554 C 446.133 -1.34565 -1.5782 0
M  V30 4555 C 446.558 0.0695257 -1.87971 0
M  V30 4556 O 445.916 1.04302 -1.48293 0
M  V30 4557 C 445.964 -2.17952 -2.87279 0
M  V30 4558 O 445.068 -1.57563 -3.81114 0
M  V30 4559 H 444.409 -0.460337 -0.478524 0
M  V30 4560 H 446.939 -1.80064 -0.971495 0
M  V30 4561 H 446.949 -2.30721 -3.365 0
M  V30 4562 H 445.624 -3.20823 -2.64661 0
M  V30 4563 H 444.201 -1.53764 -3.39722 0
M  V30 4564 N 446.386 1.0089 -1.21074 0
M  V30 4565 C 447.633 1.74607 -1.0256 0
M  V30 4566 C 447.961 1.89426 0.44136 0
M  V30 4567 O 447.216 1.42266 1.34384 0
M  V30 4568 C 447.515 3.16335 -1.66334 0
M  V30 4569 C 447.181 3.21474 -3.16173 0
M  V30 4570 C 445.843 3.22583 -3.57062 0
M  V30 4571 C 448.195 3.19025 -4.12156 0
M  V30 4572 C 445.523 3.18925 -4.92446 0
M  V30 4573 C 447.875 3.16909 -5.47496 0
M  V30 4574 C 446.539 3.16326 -5.87787 0
M  V30 4575 H 445.809 0.638933 -0.375294 0
M  V30 4576 H 448.456 1.18274 -1.50611 0
M  V30 4577 H 446.761 3.75876 -1.10566 0
M  V30 4578 H 448.458 3.72083 -1.49516 0
M  V30 4579 H 445.048 3.2135 -2.83605 0
M  V30 4580 H 449.232 3.17332 -3.81595 0
M  V30 4581 H 444.488 3.16809 -5.22917 0
M  V30 4582 H 448.662 3.13968 -6.21609 0
M  V30 4583 H 446.289 3.13246 -6.92662 0
M  V30 4584 N 447.864 1.01787 1.20321 0
M  V30 4585 C 448.811 0.589197 2.23153 0
M  V30 4586 C 449.781 -0.391367 1.61423 0
M  V30 4587 O 450.966 -0.290518 1.88575 0
M  V30 4588 C 448.106 -0.0650747 3.45039 0
M  V30 4589 C 447.219 0.960207 4.21194 0
M  V30 4590 C 446.354 0.276854 5.30478 0
M  V30 4591 C 445.393 1.2888 5.98378 0
M  V30 4592 N 444.53 0.632031 6.99249 0
M  V30 4593 H 449.37 1.47071 2.59179 0
M  V30 4594 H 446.907 0.736192 1.27352 0
M  V30 4595 H 448.865 -0.461552 4.14639 0
M  V30 4596 H 447.495 -0.910233 3.09701 0
M  V30 4597 H 446.547 1.47484 3.50646 0
M  V30 4598 H 447.859 1.72977 4.67847 0
M  V30 4599 H 447.013 -0.175056 6.06447 0
M  V30 4600 H 445.752 -0.525004 4.84866 0
M  V30 4601 H 444.757 1.75109 5.21169 0
M  V30 4602 H 445.982 2.09196 6.46076 0
M  V30 4603 H 443.928 -0.149935 6.55829 0
M  V30 4604 H 443.845 1.33964 7.44036 0
M  V30 4605 H 445.113 0.203755 7.79234 0
M  V30 4606 N 449.342 -1.36122 0.79427 0
M  V30 4607 C 450.567 -2.03891 0.379871 0
M  V30 4608 C 450.992 -1.59488 -0.997251 0
M  V30 4609 O 450.35 -0.765652 -1.64339 0
M  V30 4610 C 450.398 -3.57687 0.457442 0
M  V30 4611 O 449.502 -4.08931 -0.5338 0
M  V30 4612 H 448.843 -0.6443 0.160541 0
M  V30 4613 H 451.373 -1.73976 1.07673 0
M  V30 4614 H 451.383 -4.06721 0.322792 0
M  V30 4615 H 450.058 -3.89357 1.46199 0
M  V30 4616 H 448.635 -3.71154 -0.360409 0
M  V30 4617 N 450.82 -0.546701 -1.47814 0
M  V30 4618 C 451.75 0.195317 -2.32682 0
M  V30 4619 C 452.731 0.918981 -1.43139 0
M  V30 4620 O 453.916 0.901501 -1.72008 0
M  V30 4621 C 451.046 1.23237 -3.247 0
M  V30 4622 C 450 0.625818 -4.234 0
M  V30 4623 C 449.326 1.76674 -5.04669 0
M  V30 4624 C 450.626 -0.413515 -5.2066 0
M  V30 4625 H 452.32 -0.513184 -2.94969 0
M  V30 4626 H 449.866 -0.248241 -1.41844 0
M  V30 4627 H 451.819 1.75955 -3.82907 0
M  V30 4628 H 450.543 1.97067 -2.60446 0
M  V30 4629 H 449.202 0.120023 -3.66403 0
M  V30 4630 H 448.85 2.49383 -4.36826 0
M  V30 4631 H 448.55 1.36673 -5.71484 0
M  V30 4632 H 450.074 2.29738 -5.65732 0
M  V30 4633 H 451.488 0.0272042 -5.73294 0
M  V30 4634 H 449.885 -0.731825 -5.95621 0
M  V30 4635 H 450.955 -1.31325 -4.66778 0
M  V30 4636 N 452.299 1.55045 -0.282633 0
M  V30 4637 C 453.545 2.00056 0.332481 0
M  V30 4638 C 453.878 1.1708 1.54939 0
M  V30 4639 O 453.153 0.2427 1.9298 0
M  V30 4640 C 453.436 3.53086 0.70725 0
M  V30 4641 C 453.289 4.46813 -0.517521 0
M  V30 4642 C 454.608 4.12245 1.54084 0
M  V30 4643 H 451.727 0.727268 0.119373 0
M  V30 4644 H 454.369 1.85932 -0.391076 0
M  V30 4645 H 452.519 3.65253 1.32372 0
M  V30 4646 H 454.191 4.46579 -1.15607 0
M  V30 4647 H 452.434 4.18163 -1.1542 0
M  V30 4648 H 453.105 5.51595 -0.211426 0
M  V30 4649 H 455.581 4.03401 1.02013 0
M  V30 4650 H 454.457 5.19515 1.77186 0
M  V30 4651 H 454.718 3.62951 2.52427 0
M  V30 4652 N 453.777 0.010035 1.57597 0
M  V30 4653 C 454.74 -0.963029 2.07986 0
M  V30 4654 C 455.74 -1.26619 0.991173 0
M  V30 4655 O 456.93 -1.2097 1.25347 0
M  V30 4656 C 454.062 -2.2851 2.52974 0
M  V30 4657 H 455.255 -0.526971 2.95234 0
M  V30 4658 H 452.808 -0.237639 1.54483 0
M  V30 4659 H 453.543 -2.76784 1.69 0
M  V30 4660 H 453.328 -2.07824 3.32493 0
M  V30 4661 H 454.818 -2.98294 2.9225 0
M  V30 4662 N 455.255 -1.55392 -0.262866 0
M  V30 4663 C 456.48 -1.80847 -1.01533 0
M  V30 4664 C 456.905 -0.584946 -1.78774 0
M  V30 4665 O 456.263 0.465701 -1.75217 0
M  V30 4666 C 456.311 -3.03866 -1.94159 0
M  V30 4667 O 455.415 -2.79662 -3.03089 0
M  V30 4668 H 454.756 -0.597441 -0.289759 0
M  V30 4669 H 457.286 -2.02553 -0.288698 0
M  V30 4670 H 457.296 -3.32872 -2.35924 0
M  V30 4671 H 455.971 -3.92564 -1.37354 0
M  V30 4672 H 454.548 -2.61781 -2.65566 0
M  V30 4673 N 456.733 0.527833 -1.48498 0
M  V30 4674 C 457.663 1.64136 -1.66077 0
M  V30 4675 C 458.644 1.62286 -0.509625 0
M  V30 4676 O 459.829 1.79449 -0.742413 0
M  V30 4677 C 456.959 3.02717 -1.70234 0
M  V30 4678 C 455.913 3.19426 -2.8487 0
M  V30 4679 C 455.239 4.5909 -2.74118 0
M  V30 4680 C 456.539 3.01993 -4.26142 0
M  V30 4681 H 458.233 1.4968 -2.593 0
M  V30 4682 H 455.779 0.718654 -1.24785 0
M  V30 4683 H 457.732 3.80491 -1.8112 0
M  V30 4684 H 456.456 3.18201 -0.735911 0
M  V30 4685 H 455.115 2.4407 -2.73542 0
M  V30 4686 H 454.763 4.71413 -1.7544 0
M  V30 4687 H 454.463 4.71214 -3.51042 0
M  V30 4688 H 455.987 5.3896 -2.86974 0
M  V30 4689 H 457.401 3.69558 -4.38292 0
M  V30 4690 H 455.798 3.2561 -5.04082 0
M  V30 4691 H 456.868 1.98396 -4.42456 0
M  V30 4692 N 458.211 1.37122 0.776871 0
M  V30 4693 C 459.174 1.32301 1.8716 0
M  V30 4694 C 460.174 0.228099 1.59174 0
M  V30 4695 O 461.364 0.483642 1.67352 0
M  V30 4696 C 458.496 1.054 3.24197 0
M  V30 4697 H 459.689 2.29673 1.92848 0
M  V30 4698 H 457.242 1.22077 0.97606 0
M  V30 4699 H 457.977 0.0853872 3.24188 0
M  V30 4700 H 457.762 1.84648 3.45901 0
M  V30 4701 H 459.252 1.04664 4.04271 0
M  V30 4702 N 459.689 -1.00246 1.21608 0
M  V30 4703 C 460.599 -2.12515 0.993709 0
M  V30 4704 C 461.615 -1.73913 -0.0549939 0
M  V30 4705 O 462.791 -2.00943 0.135619 0
M  V30 4706 C 459.856 -3.42083 0.563953 0
M  V30 4707 C 458.917 -3.94843 1.68516 0
M  V30 4708 C 458.15 -5.18226 1.27582 0
M  V30 4709 O 458.373 -5.70201 0.150506 0
M  V30 4710 O 457.307 -5.64497 2.0887 0
M  V30 4711 H 461.133 -2.34152 1.93407 0
M  V30 4712 H 458.718 -1.10891 1.00118 0
M  V30 4713 H 460.6 -4.20073 0.334194 0
M  V30 4714 H 459.275 -3.21828 -0.347665 0
M  V30 4715 H 458.182 -3.18068 1.96935 0
M  V30 4716 H 459.515 -4.19512 2.5743 0
M  V30 4717 N 461.167 -1.02423 -1.1978 0
M  V30 4718 C 462.578 -0.748389 -1.71044 0
M  V30 4719 C 462.929 0.732398 -1.82017 0
M  V30 4720 O 462.054 1.57116 -1.48807 0
M  V30 4721 C 462.649 -1.35187 -3.1066 0
M  V30 4722 C 461.208 -1.12472 -3.59203 0
M  V30 4723 C 460.355 -1.45283 -2.36195 0
M  V30 4724 H 463.306 -1.19275 -1.04686 0
M  V30 4725 H 463.327 -0.746408 -3.73107 0
M  V30 4726 H 462.839 -2.4296 -3.02642 0
M  V30 4727 H 460.94 -0.0649983 -3.72543 0
M  V30 4728 H 461.053 -1.81016 -4.43588 0
M  V30 4729 H 459.417 -0.872034 -2.39307 0
M  V30 4730 H 460.2 -2.54129 -2.30811 0
M  V30 4731 N 462.645 1.35699 -0.801477 0
M  V30 4732 C 463.922 1.9324 -0.302937 0
M  V30 4733 C 464.302 1.73209 1.20672 0
M  V30 4734 O 463.65 1.09809 2.00385 0
M  V30 4735 C 463.86 3.41728 -0.708747 0
M  V30 4736 C 465.208 4.18868 -0.695328 0
M  V30 4737 O 466.232 3.5022 -0.649971 0
M  V30 4738 O 465.091 5.41342 -0.749081 0
M  V30 4739 H 462.185 0.82331 -0.0780367 0
M  V30 4740 H 464.731 1.44806 -0.884832 0
M  V30 4741 H 463.503 3.50015 -1.74944 0
M  V30 4742 H 463.126 3.97471 -0.101384 0
M  V30 4743 N 464.123 0.554532 1.47522 0
M  V30 4744 C 465.37 0.029479 2.02479 0
M  V30 4745 C 465.698 -1.31929 1.42916 0
M  V30 4746 O 464.953 -1.87112 0.573385 0
M  V30 4747 C 465.252 -0.115927 3.57212 0
M  V30 4748 C 464.918 1.16161 4.3568 0
M  V30 4749 C 463.58 1.51168 4.56839 0
M  V30 4750 C 465.932 2.0083 4.80954 0
M  V30 4751 C 463.26 2.70696 5.2052 0
M  V30 4752 C 465.612 3.19559 5.45953 0
M  V30 4753 C 464.276 3.54882 5.65345 0
M  V30 4754 H 463.546 0.0107871 0.740921 0
M  V30 4755 H 466.193 0.725506 1.77225 0
M  V30 4756 H 464.498 -0.894902 3.81443 0
M  V30 4757 H 466.195 -0.53749 3.97381 0
M  V30 4758 H 462.785 0.879026 4.19489 0
M  V30 4759 H 466.969 1.75093 4.64388 0
M  V30 4760 H 462.225 2.98236 5.33728 0
M  V30 4761 H 466.399 3.85456 5.79997 0
M  V30 4762 H 464.026 4.47596 6.1446 0
M  V30 4763 N 465.601 -1.54893 0.290851 0
M  V30 4764 C 466.847 -2.0023 -0.321867 0
M  V30 4765 C 467.18 -1.179 -1.54316 0
M  V30 4766 O 466.455 -0.25293 -1.92848 0
M  V30 4767 C 466.738 -3.53456 -0.688515 0
M  V30 4768 C 466.591 -4.46532 0.541209 0
M  V30 4769 C 467.91 -4.13057 -1.51895 0
M  V30 4770 H 465.029 -0.727891 -0.115515 0
M  V30 4771 H 467.671 -1.85722 0.400931 0
M  V30 4772 H 465.821 -3.6595 -1.30433 0
M  V30 4773 H 467.493 -4.4596 1.17973 0
M  V30 4774 H 465.736 -4.17545 1.17636 0
M  V30 4775 H 466.407 -5.51475 0.240675 0
M  V30 4776 H 468.883 -4.03937 -0.99872 0
M  V30 4777 H 467.759 -5.20448 -1.74429 0
M  V30 4778 H 468.02 -3.64284 -2.50498 0
M  V30 4779 N 467.08 -0.0183926 -1.57589 0
M  V30 4780 C 468.326 0.663543 -1.91638 0
M  V30 4781 C 468.659 1.72392 -0.894134 0
M  V30 4782 O 467.934 1.94316 0.0846449 0
M  V30 4783 C 468.217 1.28984 -3.36207 0
M  V30 4784 C 468.07 0.239761 -4.49161 0
M  V30 4785 C 469.389 2.2109 -3.80536 0
M  V30 4786 H 466.508 0.239746 -0.696915 0
M  V30 4787 H 469.15 -0.073456 -1.89858 0
M  V30 4788 H 467.3 1.91799 -3.37854 0
M  V30 4789 H 468.972 -0.390119 -4.59647 0
M  V30 4790 H 467.215 -0.435972 -4.31604 0
M  V30 4791 H 467.886 0.717383 -5.47319 0
M  V30 4792 H 470.362 1.68273 -3.80557 0
M  V30 4793 H 469.238 2.61869 -4.82406 0
M  V30 4794 H 469.499 3.09764 -3.15434 0
M  V30 4795 N 468.558 1.5553 0.254621 0
M  V30 4796 C 469.786 1.81046 1.00149 0
M  V30 4797 C 470.201 0.593047 1.79244 0
M  V30 4798 O 469.558 -0.438196 1.77161 0
M  V30 4799 C 469.609 3.04684 1.94551 0
M  V30 4800 O 469.33 4.21725 1.18658 0
M  V30 4801 C 470.831 3.42943 2.80901 0
M  V30 4802 H 468.051 0.602653 0.295044 0
M  V30 4803 H 470.595 2.02576 0.279842 0
M  V30 4804 H 468.75 2.85226 2.62154 0
M  V30 4805 H 469.164 4.91746 1.82445 0
M  V30 4806 H 470.638 4.32576 3.42902 0
M  V30 4807 H 471.115 2.63176 3.51617 0
M  V30 4808 H 471.721 3.64724 2.18762 0
M  V30 4809 N 470.036 -0.519951 1.48776 0
M  V30 4810 C 471.313 -1.28123 1.47797 0
M  V30 4811 C 471.693 -2.10196 0.195157 0
M  V30 4812 O 471.041 -2.13167 -0.822925 0
M  V30 4813 C 471.251 -2.15413 2.74587 0
M  V30 4814 C 472.599 -2.75225 3.23321 0
M  V30 4815 O 473.623 -2.25694 2.75574 0
M  V30 4816 O 472.482 -3.65346 4.06429 0
M  V30 4817 H 469.576 -0.578793 0.590701 0
M  V30 4818 H 472.122 -0.535779 1.6102 0
M  V30 4819 H 470.894 -1.54617 3.59457 0
M  V30 4820 H 470.517 -2.97186 2.64132 0
M  V30 4821 N 471.514 -1.37532 -0.769588 0
M  V30 4822 C 472.761 -1.3286 -1.52822 0
M  V30 4823 C 473.089 0.0862597 -1.94309 0
M  V30 4824 O 472.344 1.05995 -1.6451 0
M  V30 4825 C 472.643 -2.21558 -2.8044 0
M  V30 4826 C 472.309 -3.69796 -2.57996 0
M  V30 4827 C 470.971 -4.10194 -2.51583 0
M  V30 4828 C 473.323 -4.63699 -2.37976 0
M  V30 4829 C 470.651 -5.42608 -2.23144 0
M  V30 4830 C 473.003 -5.96353 -2.1106 0
M  V30 4831 C 471.667 -6.35853 -2.03093 0
M  V30 4832 H 470.937 -0.486168 -0.559215 0
M  V30 4833 H 473.584 -1.69757 -0.886277 0
M  V30 4834 H 471.889 -1.77663 -3.49204 0
M  V30 4835 H 473.586 -2.15256 -3.38328 0
M  V30 4836 H 470.176 -3.37759 -2.63851 0
M  V30 4837 H 474.36 -4.33346 -2.41919 0
M  V30 4838 H 469.616 -5.72173 -2.15472 0
M  V30 4839 H 473.79 -6.68667 -1.94568 0
M  V30 4840 H 471.417 -7.38382 -1.8082 0
M  V30 4841 N 472.992 0.995999 -1.22138 0
M  V30 4842 C 473.955 2.06711 -0.990109 0
M  V30 4843 C 474.955 1.60744 0.0422978 0
M  V30 4844 O 476.145 1.73095 -0.195895 0
M  V30 4845 C 473.277 3.37288 -0.49491 0
M  V30 4846 H 474.47 2.28661 -1.94047 0
M  V30 4847 H 472.023 1.16711 -1.03963 0
M  V30 4848 H 472.758 3.21022 0.459948 0
M  V30 4849 H 472.543 3.71986 -1.23971 0
M  V30 4850 H 474.033 4.16103 -0.353253 0
M  V30 4851 N 474.47 1.03057 1.19235 0
M  V30 4852 C 475.417 0.612832 2.22515 0
M  V30 4853 C 476.387 -0.374224 1.61829 0
M  V30 4854 O 477.572 -0.270501 1.88873 0
M  V30 4855 C 474.712 -0.028475 3.45088 0
M  V30 4856 C 473.825 1.00483 4.20151 0
M  V30 4857 C 472.96 0.333102 5.30155 0
M  V30 4858 C 471.999 1.3522 5.96977 0
M  V30 4859 N 471.136 0.70616 6.9854 0
M  V30 4860 H 475.976 1.49812 2.57605 0
M  V30 4861 H 473.513 0.749658 1.26564 0
M  V30 4862 H 475.471 -0.417548 4.15105 0
M  V30 4863 H 474.101 -0.877334 3.10649 0
M  V30 4864 H 473.153 1.51194 3.49062 0
M  V30 4865 H 474.465 1.77929 4.65986 0
M  V30 4866 H 473.619 -0.110725 6.06599 0
M  V30 4867 H 472.358 -0.473547 4.85396 0
M  V30 4868 H 471.363 1.80627 5.19282 0
M  V30 4869 H 472.588 2.16037 6.4382 0
M  V30 4870 H 470.534 -0.0803667 6.55951 0
M  V30 4871 H 470.451 1.41848 7.42573 0
M  V30 4872 H 471.719 0.286391 7.78974 0
M  V30 4873 N 475.948 -1.35272 0.808662 0
M  V30 4874 C 477.195 -1.98709 0.390003 0
M  V30 4875 C 477.523 -1.64148 -1.04335 0
M  V30 4876 O 476.778 -0.897797 -1.73891 0
M  V30 4877 C 477.077 -3.53556 0.522798 0
M  V30 4878 C 476.743 -4.0799 1.91977 0
M  V30 4879 C 475.405 -4.22568 2.30195 0
M  V30 4880 C 477.757 -4.37442 2.83361 0
M  V30 4881 C 475.085 -4.63918 3.59162 0
M  V30 4882 C 477.437 -4.80232 4.11776 0
M  V30 4883 C 476.101 -4.93016 4.49991 0
M  V30 4884 H 475.371 -0.727127 0.142712 0
M  V30 4885 H 478.018 -1.6145 1.02985 0
M  V30 4886 H 476.323 -3.91287 -0.200494 0
M  V30 4887 H 478.02 -4.00598 0.179608 0
M  V30 4888 H 474.61 -3.97096 1.61284 0
M  V30 4889 H 478.794 -4.25731 2.55083 0
M  V30 4890 H 474.05 -4.72005 3.88615 0
M  V30 4891 H 478.224 -5.01982 4.82687 0
M  V30 4892 H 475.851 -5.24814 5.49976 0
M  V30 4893 N 477.426 -0.562348 -1.47226 0
M  V30 4894 C 478.651 -0.0432632 -2.07355 0
M  V30 4895 C 479.076 1.24332 -1.41149 0
M  V30 4896 O 478.434 1.74603 -0.488226 0
M  V30 4897 C 478.482 0.130288 -3.60365 0
M  V30 4898 O 477.586 1.19166 -3.94808 0
M  V30 4899 H 476.927 -0.0536334 -0.66183 0
M  V30 4900 H 479.457 -0.779495 -1.89169 0
M  V30 4901 H 479.467 0.342881 -4.06557 0
M  V30 4902 H 478.142 -0.809389 -4.07948 0
M  V30 4903 H 476.719 0.959153 -3.60354 0
M  V30 4904 N 478.904 1.54736 -0.299062 0
M  V30 4905 C 480.32 1.59507 0.0543849 0
M  V30 4906 C 480.52 1.31606 1.52585 0
M  V30 4907 O 479.576 1.08853 2.27832 0
M  V30 4908 C 480.889 2.98751 -0.34181 0
M  V30 4909 C 482.437 3.1165 -0.290414 0
M  V30 4910 C 482.912 4.53199 -0.661402 0
M  V30 4911 N 484.403 4.59114 -0.613863 0
M  V30 4912 C 485.138 5.66709 -0.873417 0
M  V30 4913 N 484.634 6.82349 -1.19884 0
M  V30 4914 N 486.427 5.56369 -0.800608 0
M  V30 4915 H 478.578 1.71133 -1.25806 0
M  V30 4916 H 480.841 0.799186 -0.509908 0
M  V30 4917 H 480.547 3.24085 -1.36608 0
M  V30 4918 H 480.421 3.75961 0.305508 0
M  V30 4919 H 482.808 2.86066 0.724605 0
M  V30 4920 H 482.889 2.366 -0.972327 0
M  V30 4921 H 482.533 4.79513 -1.67422 0
M  V30 4922 H 482.463 5.26583 0.0425612 0
M  V30 4923 H 484.954 3.76053 -0.3732 0
M  V30 4924 H 485.267 7.60326 -1.38291 0
M  V30 4925 H 483.612 6.83906 -1.23685 0
M  V30 4926 H 486.803 4.64904 -0.546045 0
M  V30 4927 H 486.976 6.40139 -1.00626 0
M  V30 4928 N 480.382 0.0267497 1.57577 0
M  V30 4929 C 481.793 -0.512413 1.79531 0
M  V30 4930 C 482.144 -1.72391 0.936791 0
M  V30 4931 O 481.269 -2.15903 0.146543 0
M  V30 4932 C 481.864 -0.936378 3.25603 0
M  V30 4933 C 480.423 -1.42067 3.4856 0
M  V30 4934 C 479.57 -0.384278 2.74624 0
M  V30 4935 H 482.521 0.252797 1.56674 0
M  V30 4936 H 482.542 -1.80088 3.35184 0
M  V30 4937 H 482.054 -0.0544332 3.88062 0
M  V30 4938 H 480.155 -2.32262 2.9135 0
M  V30 4939 H 480.268 -1.42968 4.57271 0
M  V30 4940 H 478.632 -0.851855 2.40032 0
M  V30 4941 H 479.415 0.489159 3.39797 0
M  V30 4942 N 481.861 -1.55662 -0.24637 0
M  V30 4943 C 482.824 -1.89558 -1.28842 0
M  V30 4944 C 483.824 -0.772082 -1.41052 0
M  V30 4945 O 485.014 -1.04007 -1.39743 0
M  V30 4946 C 482.146 -2.12449 -2.66605 0
M  V30 4947 H 483.339 -2.82735 -1.00004 0
M  V30 4948 H 480.892 -1.48562 -0.485684 0
M  V30 4949 H 481.627 -1.21742 -3.00582 0
M  V30 4950 H 481.412 -2.94273 -2.59125 0
M  V30 4951 H 482.902 -2.39854 -3.41847 0
M  V30 4952 N 483.339 0.512053 -1.4905 0
M  V30 4953 C 484.271 1.63121 -1.6101 0
M  V30 4954 C 485.284 1.55145 -0.493352 0
M  V30 4955 O 486.473 1.61278 -0.764955 0
M  V30 4956 C 483.573 3.01863 -1.54052 0
M  V30 4957 C 482.746 3.35138 -2.81072 0
M  V30 4958 C 481.805 4.5324 -2.67319 0
M  V30 4959 O 480.831 4.55571 -3.41238 0
M  V30 4960 N 482.033 5.52495 -1.78127 0
M  V30 4961 H 484.798 1.53292 -2.5753 0
M  V30 4962 H 482.359 0.699706 -1.45999 0
M  V30 4963 H 484.351 3.78774 -1.42521 0
M  V30 4964 H 482.921 3.05675 -0.654345 0
M  V30 4965 H 482.141 2.4723 -3.07036 0
M  V30 4966 H 483.429 3.54162 -3.65304 0
M  V30 4967 H 482.827 5.53403 -1.17308 0
M  V30 4968 H 481.384 6.28553 -1.72525 0
M  V30 4969 N 484.817 1.37938 0.762283 0
M  V30 4970 C 485.747 1.37176 1.88958 0
M  V30 4971 C 486.728 0.238945 1.68413 0
M  V30 4972 O 487.913 0.440726 1.89133 0
M  V30 4973 C 485.043 1.18742 3.2637 0
M  V30 4974 C 483.997 2.29136 3.61498 0
M  V30 4975 C 483.323 1.95816 4.97554 0
M  V30 4976 C 484.623 3.71363 3.6727 0
M  V30 4977 H 486.317 2.31509 1.89853 0
M  V30 4978 H 483.863 1.11438 0.912005 0
M  V30 4979 H 485.816 1.16837 4.04879 0
M  V30 4980 H 484.54 0.208683 3.25933 0
M  V30 4981 H 483.199 2.30213 2.85303 0
M  V30 4982 H 482.847 0.964475 4.93667 0
M  V30 4983 H 482.547 2.69745 5.22026 0
M  V30 4984 H 484.071 1.95513 5.78452 0
M  V30 4985 H 485.485 3.72364 4.35911 0
M  V30 4986 H 483.882 4.44425 4.03245 0
M  V30 4987 H 484.952 4.04305 2.67704 0
M  V30 4988 N 486.295 -0.989507 1.22664 0
M  V30 4989 C 487.245 -2.06478 0.967005 0
M  V30 4990 C 488.229 -1.60682 -0.0836374 0
M  V30 4991 O 489.421 -1.76541 0.127322 0
M  V30 4992 C 486.55 -3.38861 0.550313 0
M  V30 4993 C 485.636 -3.9128 1.63587 0
M  V30 4994 N 486.027 -4.16884 2.86429 0
M  V30 4995 C 484.325 -4.1972 1.50834 0
M  V30 4996 C 485.026 -4.5954 3.56648 0
M  V30 4997 N 484.002 -4.63434 2.84131 0
M  V30 4998 H 487.804 -2.24219 1.90008 0
M  V30 4999 H 485.318 -1.17153 1.12467 0
M  V30 5000 H 487.315 -4.15465 0.345612 0
M  V30 5001 H 485.975 -3.22518 -0.375822 0
M  V30 5002 H 486.986 -4.04976 3.22823 0
M  V30 5003 H 483.663 -4.1243 0.648643 0
M  V30 5004 H 485.053 -4.87944 4.61909 0
M  V30 5005 N 487.773 -1.03688 -1.18687 0
M  V30 5006 C 489.022 -0.733235 -1.879 0
M  V30 5007 C 489.335 0.741745 -1.8099 0
M  V30 5008 O 490.541 1.15875 -2.4553 0
M  V30 5009 C 488.997 -1.26127 -3.37076 0
M  V30 5010 C 488.605 -2.76461 -3.52524 0
M  V30 5011 C 490.349 -1.03398 -4.11715 0
M  V30 5012 C 488.256 -3.22642 -4.95637 0
M  V30 5013 H 487.186 -0.270584 -0.703776 0
M  V30 5014 H 489.837 -1.25222 -1.34133 0
M  V30 5015 H 488.219 -0.670165 -3.90288 0
M  V30 5016 H 489.393 -3.41296 -3.09602 0
M  V30 5017 H 487.708 -2.97559 -2.91286 0
M  V30 5018 H 490.305 -1.3542 -5.17267 0
M  V30 5019 H 490.648 0.0289246 -4.1629 0
M  V30 5020 H 491.181 -1.5895 -3.64664 0
M  V30 5021 H 487.92 -4.28296 -4.96228 0
M  V30 5022 H 487.44 -2.62539 -5.39289 0
M  V30 5023 H 489.119 -3.16444 -5.64333 0
M  V30 5024 N 489.251 1.34841 -0.815825 0
M  V30 5025 C 490.499 1.98107 -0.399744 0
M  V30 5026 C 490.82 1.65019 1.03894 0
M  V30 5027 O 490.09 0.937311 1.72021 0
M  V30 5028 H 488.67 0.732827 -0.144823 0
M  V30 5029 H 491.332 1.64599 -1.0437 0
M  V30 5030 H 490.428 3.07856 -0.512965 0
M  V30 5031 N 490.729 0.570148 1.46925 0
M  V30 5032 C 491.976 0.0509529 2.02436 0
M  V30 5033 C 492.304 -1.30405 1.44308 0
M  V30 5034 O 491.559 -1.86493 0.593198 0
M  V30 5035 C 491.858 -0.0780336 3.57315 0
M  V30 5036 C 491.524 1.20775 4.34424 0
M  V30 5037 C 490.186 1.56004 4.5521 0
M  V30 5038 C 492.538 2.0592 4.78797 0
M  V30 5039 C 489.866 2.76201 5.17619 0
M  V30 5040 C 492.218 3.25332 5.42533 0
M  V30 5041 C 490.882 3.60859 5.61549 0
M  V30 5042 H 490.152 0.018645 0.740765 0
M  V30 5043 H 492.799 0.744262 1.76445 0
M  V30 5044 H 491.104 -0.854394 3.82371 0
M  V30 5045 H 492.801 -0.495312 3.97929 0
M  V30 5046 H 489.391 0.923469 4.18533 0
M  V30 5047 H 493.575 1.80008 4.62505 0
M  V30 5048 H 488.831 3.0388 5.30535 0
M  V30 5049 H 493.005 3.91586 5.75876 0
M  V30 5050 H 490.632 4.54088 6.09678 0
M  V30 5051 N 492.207 -1.54576 0.307264 0
M  V30 5052 C 493.139 -2.21212 -0.599807 0
M  V30 5053 C 494.152 -1.20685 -1.09266 0
M  V30 5054 O 495.341 -1.47244 -1.00903 0
M  V30 5055 C 492.441 -2.84994 -1.83389 0
M  V30 5056 C 491.614 -4.11511 -1.48248 0
M  V30 5057 C 490.673 -4.59038 -2.57237 0
M  V30 5058 O 489.699 -5.24095 -2.22065 0
M  V30 5059 N 490.901 -4.31884 -3.87887 0
M  V30 5060 H 493.666 -2.99686 -0.0293075 0
M  V30 5061 H 491.227 -1.61379 0.129738 0
M  V30 5062 H 493.219 -3.1372 -2.5566 0
M  V30 5063 H 491.789 -2.10324 -2.31263 0
M  V30 5064 H 491.009 -3.89728 -0.592122 0
M  V30 5065 H 492.297 -4.93879 -1.22316 0
M  V30 5066 H 491.695 -3.79778 -4.19268 0
M  V30 5067 H 490.252 -4.65304 -4.56438 0
M  V30 5068 N 493.685 -0.035106 -1.57561 0
M  V30 5069 C 494.648 0.929819 -2.09492 0
M  V30 5070 C 495.648 1.25026 -1.01119 0
M  V30 5071 O 496.838 1.18961 -1.27255 0
M  V30 5072 C 493.97 2.24457 -2.56577 0
M  V30 5073 H 495.163 0.479935 -2.96035 0
M  V30 5074 H 492.716 0.213033 -1.54841 0
M  V30 5075 H 493.451 2.74061 -1.73382 0
M  V30 5076 H 493.236 2.02508 -3.35757 0
M  V30 5077 H 494.726 2.93607 -2.96959 0
M  V30 5078 N 495.163 1.55791 0.238111 0
M  V30 5079 C 496.093 1.94068 1.29846 0
M  V30 5080 C 497.074 0.806726 1.49753 0
M  V30 5081 O 498.259 1.06772 1.62214 0
M  V30 5082 C 495.389 2.24302 2.65153 0
M  V30 5083 C 494.343 3.40032 2.59927 0
M  V30 5084 C 493.669 3.55829 3.99111 0
M  V30 5085 C 494.969 4.75476 2.16148 0
M  V30 5086 H 496.663 2.82887 0.980563 0
M  V30 5087 H 494.209 1.36105 0.470253 0
M  V30 5088 H 496.162 2.4967 3.39475 0
M  V30 5089 H 494.886 1.32318 2.98596 0
M  V30 5090 H 493.545 3.14687 1.88063 0
M  V30 5091 H 493.193 2.6125 4.29834 0
M  V30 5092 H 492.893 4.3366 3.96501 0
M  V30 5093 H 494.417 3.83528 4.7512 0
M  V30 5094 H 495.831 5.00158 2.80205 0
M  V30 5095 H 494.228 5.56472 2.24631 0
M  V30 5096 H 495.298 4.71946 1.11333 0
M  V30 5097 N 496.642 -0.504142 1.49319 0
M  V30 5098 C 497.592 -1.60284 1.62151 0
M  V30 5099 C 498.576 -1.53657 0.477315 0
M  V30 5100 O 499.768 -1.6124 0.730108 0
M  V30 5101 C 496.897 -2.98909 1.68844 0
M  V30 5102 C 495.983 -3.10544 2.8883 0
M  V30 5103 N 496.374 -2.92078 4.12946 0
M  V30 5104 C 494.672 -3.4164 2.86702 0
M  V30 5105 C 495.373 -3.07812 4.93585 0
M  V30 5106 N 494.349 -3.36549 4.26891 0
M  V30 5107 H 498.151 -1.44656 2.55835 0
M  V30 5108 H 495.665 -0.710198 1.46048 0
M  V30 5109 H 497.662 -3.77865 1.76134 0
M  V30 5110 H 496.322 -3.15609 0.762943 0
M  V30 5111 H 497.333 -2.68316 4.42975 0
M  V30 5112 H 494.01 -3.64537 2.03517 0
M  V30 5113 H 495.4 -2.98054 6.02174 0
M  V30 5114 N 498.12 -1.38341 -0.754957 0
M  V30 5115 C 499.052 -1.31347 -1.87831 0
M  V30 5116 C 500.065 -0.225955 -1.61224 0
M  V30 5117 O 501.254 -0.48341 -1.7183 0
M  V30 5118 C 498.354 -1.01201 -3.23437 0
M  V30 5119 C 497.527 -2.20834 -3.77559 0
M  V30 5120 C 496.586 -1.87454 -4.91678 0
M  V30 5121 O 495.612 -2.59934 -5.06382 0
M  V30 5122 N 496.814 -0.828682 -5.74555 0
M  V30 5123 H 499.579 -2.28147 -1.94342 0
M  V30 5124 H 497.14 -1.32184 -0.934828 0
M  V30 5125 H 499.132 -0.769249 -3.97322 0
M  V30 5126 H 497.702 -0.132011 -3.12321 0
M  V30 5127 H 496.922 -2.61184 -2.95256 0
M  V30 5128 H 498.21 -3.00678 -4.10451 0
M  V30 5129 H 497.608 -0.227591 -5.65242 0
M  V30 5130 H 496.165 -0.645802 -6.48593 0
M  V30 5131 N 499.598 0.982988 -1.23187 0
M  V30 5132 C 500.845 1.72392 -1.06241 0
M  V30 5133 C 501.173 1.9032 0.40108 0
M  V30 5134 O 500.428 1.45084 1.31336 0
M  V30 5135 C 500.727 3.12736 -1.73006 0
M  V30 5136 C 500.393 3.14695 -3.22921 0
M  V30 5137 C 499.055 3.14937 -3.63824 0
M  V30 5138 C 501.407 3.10211 -4.1883 0
M  V30 5139 C 498.735 3.08408 -4.99101 0
M  V30 5140 C 501.087 3.05224 -5.54095 0
M  V30 5141 C 499.751 3.03787 -5.94365 0
M  V30 5142 H 499.021 0.630829 -0.388762 0
M  V30 5143 H 501.668 1.15053 -1.53085 0
M  V30 5144 H 499.973 3.73446 -1.18514 0
M  V30 5145 H 501.67 3.68828 -1.57374 0
M  V30 5146 H 498.26 3.15262 -2.90358 0
M  V30 5147 H 502.444 3.09166 -3.8824 0
M  V30 5148 H 497.7 3.05646 -5.29519 0
M  V30 5149 H 501.874 3.00712 -6.28128 0
M  V30 5150 H 499.501 2.98483 -6.99151 0
M  V30 5151 N 501.076 1.04316 1.18135 0
M  V30 5152 C 502.316 0.756937 1.89868 0
M  V30 5153 C 502.68 -0.702609 1.78682 0
M  V30 5154 O 503.881 -1.10255 2.45148 0
M  V30 5155 C 502.152 1.21327 3.36176 0
M  V30 5156 S 503.711 1.05307 4.25976 0
M  V30 5157 H 500.529 0.275143 0.655604 0
M  V30 5158 H 503.131 1.33597 1.42731 0
M  V30 5159 H 501.835 2.27086 3.41848 0
M  V30 5160 H 501.366 0.628137 3.88353 0
M  V30 5161 H 503.381 -0.0280093 4.96192 0
M  V30 5162 N 502.554 -1.34406 0.822964 0
M  V30 5163 C 503.517 -2.2783 0.250271 0
M  V30 5164 C 504.517 -1.50288 -0.571854 0
M  V30 5165 O 505.707 -1.69825 -0.387952 0
M  V30 5166 C 502.839 -3.34663 -0.649137 0
M  V30 5167 H 504.032 -2.79992 1.07444 0
M  V30 5168 H 501.585 -1.44539 0.594829 0
M  V30 5169 H 502.32 -2.87714 -1.49637 0
M  V30 5170 H 502.105 -3.92052 -0.0611199 0
M  V30 5171 H 503.595 -4.04349 -1.04363 0
M  V30 5172 N 504.032 -0.577932 -1.46621 0
M  V30 5173 C 504.964 0.195801 -2.28362 0
M  V30 5174 C 505.977 0.859983 -1.38232 0
M  V30 5175 O 507.166 0.730349 -1.62875 0
M  V30 5176 C 504.266 1.29639 -3.13124 0
M  V30 5177 C 503.439 0.725049 -4.31349 0
M  V30 5178 C 502.498 1.71274 -4.97546 0
M  V30 5179 O 501.524 1.25067 -5.5529 0
M  V30 5180 N 502.726 3.04672 -4.94121 0
M  V30 5181 H 505.491 -0.505468 -2.95407 0
M  V30 5182 H 503.052 -0.415381 -1.56481 0
M  V30 5183 H 505.044 1.95631 -3.54275 0
M  V30 5184 H 503.614 1.90059 -2.48186 0
M  V30 5185 H 502.834 -0.112205 -3.9404 0
M  V30 5186 H 504.122 0.323034 -5.07774 0
M  V30 5187 H 503.52 3.4484 -4.48444 0
M  V30 5188 H 502.077 3.66166 -5.39227 0
M  V30 5189 N 505.51 1.54411 -0.315457 0
M  V30 5190 C 506.46 2.20772 0.569549 0
M  V30 5191 C 507.444 1.18551 1.08787 0
M  V30 5192 O 508.636 1.44213 1.02624 0
M  V30 5193 C 505.765 2.96293 1.73394 0
M  V30 5194 C 504.851 4.05844 1.2309 0
M  V30 5195 N 505.242 5.03822 0.446927 0
M  V30 5196 C 503.54 4.19648 1.51035 0
M  V30 5197 C 504.241 5.8143 0.17725 0
M  V30 5198 N 503.217 5.38245 0.761118 0
M  V30 5199 H 507.019 2.93877 -0.0368076 0
M  V30 5200 H 504.533 1.61949 -0.120915 0
M  V30 5201 H 506.53 3.42313 2.37965 0
M  V30 5202 H 505.19 2.24708 2.34386 0
M  V30 5203 H 506.201 5.17821 0.0905027 0
M  V30 5204 H 502.878 3.59274 2.1267 0
M  V30 5205 H 504.268 6.70369 -0.45335 0
M  V30 5206 N 506.988 0.0434614 1.5754 0
M  V30 5207 C 508.236 -0.630786 1.92004 0
M  V30 5208 C 508.557 -1.71836 0.921807 0
M  V30 5209 O 507.827 -1.9587 -0.034522 0
M  V30 5210 H 506.407 -0.235988 0.708745 0
M  V30 5211 H 509.069 0.0946462 1.9467 0
M  V30 5212 H 508.165 -1.07434 2.93026 0
M  V30 5213 N 508.466 -1.55915 -0.229846 0
M  V30 5214 C 509.882 -1.48721 -0.579166 0
M  V30 5215 C 510.082 -0.736976 -1.87539 0
M  V30 5216 O 509.138 -0.273258 -2.51017 0
M  V30 5217 C 510.451 -2.9323 -0.666082 0
M  V30 5218 C 511.999 -3.03701 -0.757267 0
M  V30 5219 C 512.474 -4.49552 -0.8756 0
M  V30 5220 N 513.965 -4.53561 -0.940035 0
M  V30 5221 C 514.7 -5.63683 -1.05116 0
M  V30 5222 N 514.196 -6.83576 -1.12675 0
M  V30 5223 N 515.989 -5.51516 -1.08565 0
M  V30 5224 H 508.14 -2.03123 0.620857 0
M  V30 5225 H 510.403 -0.922898 0.21671 0
M  V30 5226 H 510.109 -3.51032 0.21664 0
M  V30 5227 H 509.983 -3.44668 -1.53243 0
M  V30 5228 H 512.37 -2.45969 -1.63043 0
M  V30 5229 H 512.451 -2.55446 0.134583 0
M  V30 5230 H 512.095 -5.079 -0.00692351 0
M  V30 5231 H 512.025 -4.95506 -1.78274 0
M  V30 5232 H 514.516 -3.67215 -0.892269 0
M  V30 5233 H 514.829 -7.63251 -1.21109 0
M  V30 5234 H 513.174 -6.86303 -1.09603 0
M  V30 5235 H 516.365 -4.5678 -1.02319 0
M  V30 5236 H 516.538 -6.37372 -1.1688 0
M  V30 5237 N 509.944 0.496216 -1.49584 0
M  V30 5238 C 511.355 1.07765 -1.52459 0
M  V30 5239 C 511.706 1.93679 -0.31353 0
M  V30 5240 O 510.831 2.08588 0.576186 0
M  V30 5241 C 511.426 1.96111 -2.76271 0
M  V30 5242 C 509.985 2.49409 -2.81908 0
M  V30 5243 C 509.132 1.27142 -2.46435 0
M  V30 5244 H 512.083 0.279914 -1.56212 0
M  V30 5245 H 512.104 2.80862 -2.56704 0
M  V30 5246 H 511.616 1.33555 -3.64396 0
M  V30 5247 H 509.717 3.1559 -1.98074 0
M  V30 5248 H 509.83 2.86234 -3.84196 0
M  V30 5249 H 508.194 1.59818 -1.98319 0
M  V30 5250 H 508.977 0.662866 -3.3684 0
M  V30 5251 N 511.423 1.38739 0.74761 0
M  V30 5252 C 512.834 1.31507 1.32524 0
M  V30 5253 C 513.185 -0.0263963 1.96182 0
M  V30 5254 O 512.31 -0.92849 1.95469 0
M  V30 5255 C 512.905 2.38162 2.40966 0
M  V30 5256 C 511.464 2.34489 2.94434 0
M  V30 5257 C 510.611 2.20712 1.67873 0
M  V30 5258 H 513.562 1.4901 0.546043 0
M  V30 5259 H 513.583 2.04222 3.21051 0
M  V30 5260 H 513.095 3.35783 1.94605 0
M  V30 5261 H 511.196 1.40467 3.45108 0
M  V30 5262 H 511.309 3.28861 3.48407 0
M  V30 5263 H 509.673 1.67667 1.91729 0
M  V30 5264 H 510.456 3.20285 1.23582 0
M  V30 5265 N 512.901 -0.976442 1.23707 0
M  V30 5266 C 514.317 -1.24341 1.00058 0
M  V30 5267 C 514.517 -1.99315 -0.295932 0
M  V30 5268 O 513.573 -2.3123 -1.01435 0
M  V30 5269 C 514.886 -2.03909 2.21001 0
M  V30 5270 C 516.434 -2.17034 2.25534 0
M  V30 5271 C 516.909 -2.99994 3.46075 0
M  V30 5272 N 518.4 -3.07578 3.46338 0
M  V30 5273 C 519.135 -3.72104 4.36264 0
M  V30 5274 N 518.631 -4.3842 5.36432 0
M  V30 5275 N 520.424 -3.69029 4.23998 0
M  V30 5276 H 512.575 -0.47428 2.07037 0
M  V30 5277 H 514.838 -0.272167 0.908091 0
M  V30 5278 H 514.544 -1.56198 3.15111 0
M  V30 5279 H 514.418 -3.04654 2.22409 0
M  V30 5280 H 516.805 -2.63951 1.31961 0
M  V30 5281 H 516.886 -1.15664 2.28156 0
M  V30 5282 H 516.53 -2.53772 4.39957 0
M  V30 5283 H 516.46 -4.01541 3.40694 0
M  V30 5284 H 518.951 -2.60397 2.73865 0
M  V30 5285 H 519.264 -4.85447 6.013 0
M  V30 5286 H 517.609 -4.37116 5.40328 0
M  V30 5287 H 520.8 -3.16392 3.44984 0
M  V30 5288 H 520.973 -4.19034 4.94282 0
M  V30 5289 N 514.379 -1.04941 -1.1758 0
M  V30 5290 C 515.79 -0.784501 -1.69418 0
M  V30 5291 C 516.141 0.693625 -1.8353 0
M  V30 5292 O 515.266 1.53925 -1.52106 0
M  V30 5293 C 515.861 -1.41746 -3.07723 0
M  V30 5294 C 514.42 -1.20066 -3.56737 0
M  V30 5295 C 513.567 -1.5026 -2.33061 0
M  V30 5296 H 516.518 -1.21469 -1.02133 0
M  V30 5297 H 516.539 -0.825381 -3.7144 0
M  V30 5298 H 516.051 -2.49325 -2.9742 0
M  V30 5299 H 514.152 -0.144006 -3.72322 0
M  V30 5300 H 514.265 -1.90384 -4.39648 0
M  V30 5301 H 512.629 -0.922598 -2.37403 0
M  V30 5302 H 513.412 -2.58967 -2.25368 0
M  V30 5303 N 515.857 1.33968 -0.830081 0
M  V30 5304 C 517.273 1.51003 -0.516742 0
M  V30 5305 C 517.473 1.77286 0.957694 0
M  V30 5306 O 516.529 1.82797 1.74188 0
M  V30 5307 C 517.842 2.67036 -1.38247 0
M  V30 5308 C 519.39 2.80919 -1.38034 0
M  V30 5309 C 519.865 4.00004 -2.23071 0
M  V30 5310 N 521.356 4.07224 -2.20733 0
M  V30 5311 C 522.091 4.98541 -2.83275 0
M  V30 5312 N 521.587 5.95033 -3.54835 0
M  V30 5313 N 523.38 4.91469 -2.72791 0
M  V30 5314 H 515.531 1.15168 -1.78466 0
M  V30 5315 H 517.794 0.565443 -0.760906 0
M  V30 5316 H 517.5 2.54266 -2.42985 0
M  V30 5317 H 517.374 3.62226 -1.05225 0
M  V30 5318 H 519.761 2.93127 -0.340713 0
M  V30 5319 H 519.842 1.86517 -1.75057 0
M  V30 5320 H 519.486 3.88557 -3.27087 0
M  V30 5321 H 519.416 4.93634 -1.83394 0
M  V30 5322 H 521.907 3.38162 -1.68687 0
M  V30 5323 H 522.22 6.61357 -3.99784 0
M  V30 5324 H 520.565 5.95135 -3.58942 0
M  V30 5325 H 523.756 4.15048 -2.16456 0
M  V30 5326 H 523.929 5.62439 -3.21818 0
M  V30 5327 N 517.335 0.585699 1.46312 0
M  V30 5328 C 518.283 -0.158577 2.32059 0
M  V30 5329 C 519.277 -0.881427 1.44662 0
M  V30 5330 O 520.483 -0.799476 1.61271 0
M  V30 5331 H 516.858 -0.0700066 0.748734 0
M  V30 5332 H 518.829 0.583383 2.92642 0
M  V30 5333 C 517.578 -1.15701 3.27885 0
M  V30 5334 H 516.901 -0.610215 3.95116 0
M  V30 5335 H 518.341 -1.64812 3.90657 0
M  V30 5336 C 516.8 -2.21951 2.53455 0
M  V30 5337 O 517.33 -3.29352 2.29978 0
M  V30 5338 N 515.536 -1.9664 2.13965 0
M  V30 5339 H 515.083 -1.09309 2.33258 0
M  V30 5340 H 515.041 -2.6794 1.64485 0
M  V30 5341 N 518.813 -1.54241 0.323641 0
M  V30 5342 C 519.723 -2.28033 -0.551205 0
M  V30 5343 C 520.739 -1.32388 -1.12913 0
M  V30 5344 O 521.915 -1.65403 -1.14908 0
M  V30 5345 C 518.98 -3.02382 -1.69606 0
M  V30 5346 C 518.041 -4.13612 -1.14993 0
M  V30 5347 C 517.274 -4.84407 -2.24022 0
M  V30 5348 O 517.497 -4.54716 -3.44368 0
M  V30 5349 O 516.431 -5.71312 -1.89436 0
M  V30 5350 H 520.257 -3.03662 0.048066 0
M  V30 5351 H 517.842 -1.49133 0.0893289 0
M  V30 5352 H 519.724 -3.48941 -2.36259 0
M  V30 5353 H 518.399 -2.29628 -2.28151 0
M  V30 5354 H 517.306 -3.71402 -0.448484 0
M  V30 5355 H 518.639 -4.8841 -0.609608 0
M  V30 5356 N 520.291 -0.0518155 -1.57515 0
M  V30 5357 C 521.201 0.937539 -2.15052 0
M  V30 5358 C 522.217 1.34121 -1.10849 0
M  V30 5359 O 523.393 1.418 -1.4302 0
M  V30 5360 C 520.458 2.19379 -2.68466 0
M  V30 5361 C 519.519 1.84841 -3.87469 0
M  V30 5362 C 518.752 3.04477 -4.38326 0
M  V30 5363 O 518.975 4.17868 -3.88256 0
M  V30 5364 O 517.909 2.85453 -5.29906 0
M  V30 5365 H 521.735 0.478201 -2.99912 0
M  V30 5366 H 519.32 0.17012 -1.48428 0
M  V30 5367 H 521.202 2.93084 -3.02787 0
M  V30 5368 H 519.877 2.64449 -1.86677 0
M  V30 5369 H 518.784 1.08449 -3.58036 0
M  V30 5370 H 520.117 1.44569 -4.7049 0
M  V30 5371 N 521.769 1.56035 0.221574 0
M  V30 5372 C 523.046 1.69837 0.970301 0
M  V30 5373 C 523.426 0.599065 2.02421 0
M  V30 5374 O 522.774 -0.393929 2.25079 0
M  V30 5375 C 522.984 3.11148 1.58076 0
M  V30 5376 C 524.332 3.70555 2.07302 0
M  V30 5377 O 525.356 3.14109 1.6797 0
M  V30 5378 O 524.215 4.69562 2.79596 0
M  V30 5379 H 521.309 0.691727 0.453257 0
M  V30 5380 H 523.855 1.68353 0.213358 0
M  V30 5381 H 522.627 3.82617 0.819759 0
M  V30 5382 H 522.25 3.16749 2.40324 0
M  V30 5383 N 523.247 -0.488276 1.49845 0
M  V30 5384 C 524.21 -1.57069 1.66919 0
M  V30 5385 C 525.21 -1.51445 0.540479 0
M  V30 5386 O 526.4 -1.5437 0.807188 0
M  V30 5387 C 523.532 -2.96718 1.67844 0
M  V30 5388 H 524.725 -1.43254 2.63474 0
M  V30 5389 H 522.278 -0.713435 1.39068 0
M  V30 5390 H 523.013 -3.15996 0.7292 0
M  V30 5391 H 522.798 -3.02208 2.49826 0
M  V30 5392 H 524.288 -3.75335 1.83066 0
M  V30 5393 N 524.725 -1.39134 -0.740242 0
M  V30 5394 C 525.688 -1.37217 -1.83587 0
M  V30 5395 C 526.688 -0.270221 -1.58513 0
M  V30 5396 O 527.878 -0.527843 -1.6601 0
M  V30 5397 C 525.01 -1.13959 -3.21288 0
M  V30 5398 H 526.203 -2.34705 -1.86691 0
M  V30 5399 H 523.756 -1.24622 -0.94335 0
M  V30 5400 H 524.491 -0.17131 -3.23847 0
M  V30 5401 H 524.276 -1.93754 -3.40884 0
M  V30 5402 H 525.766 -1.15346 -4.01354 0
M  V30 5403 N 526.204 0.969867 -1.24223 0
M  V30 5404 C 527.114 2.09806 -1.0497 0
M  V30 5405 C 528.13 1.73998 0.00886455 0
M  V30 5406 O 529.306 2.00513 -0.188848 0
M  V30 5407 C 526.371 3.40467 -0.654452 0
M  V30 5408 C 525.432 3.90236 -1.78926 0
M  V30 5409 C 524.665 5.14662 -1.41277 0
M  V30 5410 O 524.888 5.69602 -0.301632 0
M  V30 5411 O 523.822 5.58761 -2.23763 0
M  V30 5412 H 527.648 2.28942 -1.99548 0
M  V30 5413 H 525.233 1.08197 -1.03023 0
M  V30 5414 H 527.115 4.19039 -0.445452 0
M  V30 5415 H 525.79 3.22636 0.262216 0
M  V30 5416 H 524.697 3.12735 -2.05299 0
M  V30 5417 H 526.03 4.1254 -2.68462 0
M  V30 5418 N 527.682 1.05563 1.17022 0
M  V30 5419 C 528.612 0.681026 2.23348 0
M  V30 5420 C 529.593 -0.322983 1.67005 0
M  V30 5421 O 530.778 -0.199746 1.9317 0
M  V30 5422 C 527.908 0.0589053 3.4725 0
M  V30 5423 C 526.862 0.988082 4.16438 0
M  V30 5424 C 526.188 0.229646 5.34207 0
M  V30 5425 C 527.488 2.31388 4.68249 0
M  V30 5426 H 529.182 1.56993 2.54938 0
M  V30 5427 H 526.728 0.756302 1.2254 0
M  V30 5428 H 528.681 -0.214982 4.20851 0
M  V30 5429 H 527.405 -0.864968 3.14938 0
M  V30 5430 H 526.064 1.24659 3.44754 0
M  V30 5431 H 525.712 -0.697111 4.98146 0
M  V30 5432 H 525.412 0.848815 5.81437 0
M  V30 5433 H 526.936 -0.0368694 6.10589 0
M  V30 5434 H 528.35 2.09964 5.33468 0
M  V30 5435 H 526.747 2.88736 5.26072 0
M  V30 5436 H 527.817 2.94982 3.84855 0
M  V30 5437 N 529.16 -1.33526 0.837174 0
M  V30 5438 C 530.406 -1.9813 0.432704 0
M  V30 5439 C 530.739 -1.66168 -1.00508 0
M  V30 5440 O 530.014 -0.94069 -1.70239 0
M  V30 5441 C 530.297 -3.54151 0.651834 0
M  V30 5442 C 530.15 -3.95806 2.13676 0
M  V30 5443 C 531.469 -4.39993 0.0968937 0
M  V30 5444 H 528.588 -0.719713 0.15869 0
M  V30 5445 H 531.23 -1.58193 1.05237 0
M  V30 5446 H 529.38 -3.88301 0.124369 0
M  V30 5447 H 531.052 -3.71921 2.72896 0
M  V30 5448 H 529.295 -3.45599 2.62191 0
M  V30 5449 H 529.966 -5.0447 2.24084 0
M  V30 5450 H 532.442 -4.12479 0.547733 0
M  V30 5451 H 531.318 -5.48186 0.279917 0
M  V30 5452 H 531.579 -4.3066 -0.9992 0
M  V30 5453 N 530.638 -0.59345 -1.46 0
M  V30 5454 C 531.601 0.123538 -2.28867 0
M  V30 5455 C 532.601 0.808628 -1.38989 0
M  V30 5456 O 533.791 0.658945 -1.61256 0
M  V30 5457 C 530.923 1.1847 -3.19653 0
M  V30 5458 H 532.116 -0.604843 -2.93737 0
M  V30 5459 H 529.669 -0.351875 -1.52288 0
M  V30 5460 H 530.404 1.94431 -2.59552 0
M  V30 5461 H 530.189 0.69783 -3.8584 0
M  V30 5462 H 531.679 1.68726 -3.81997 0
M  V30 5463 N 532.116 1.54067 -0.331816 0
M  V30 5464 C 533.046 2.27569 0.522932 0
M  V30 5465 C 534.027 1.28679 1.11247 0
M  V30 5466 O 535.212 1.57504 1.13605 0
M  V30 5467 C 532.342 3.0397 1.67987 0
M  V30 5468 C 531.296 4.10267 1.21924 0
M  V30 5469 C 530.622 4.74555 2.46377 0
M  V30 5470 C 531.922 5.21268 0.32815 0
M  V30 5471 H 533.616 2.99264 -0.0901977 0
M  V30 5472 H 531.162 1.4393 -0.044821 0
M  V30 5473 H 533.115 3.54123 2.28418 0
M  V30 5474 H 531.839 2.29906 2.31971 0
M  V30 5475 H 530.498 3.61009 0.637809 0
M  V30 5476 H 530.146 3.97098 3.08743 0
M  V30 5477 H 529.846 5.46363 2.16243 0
M  V30 5478 H 531.37 5.27487 3.07555 0
M  V30 5479 H 532.784 5.67128 0.838978 0
M  V30 5480 H 531.181 5.99982 0.119228 0
M  V30 5481 H 532.251 4.80673 -0.638839 0
M  V30 5482 N 533.594 0.0601682 1.57485 0
M  V30 5483 C 534.557 -0.896373 2.10945 0
M  V30 5484 C 535.557 -1.23402 1.03095 0
M  V30 5485 O 536.747 -1.16921 1.29132 0
M  V30 5486 C 533.879 -2.20346 2.60116 0
M  V30 5487 H 535.072 -0.432778 2.96761 0
M  V30 5488 H 532.625 -0.188372 1.55161 0
M  V30 5489 H 533.36 -2.71268 1.7772 0
M  V30 5490 H 533.145 -1.9714 3.38937 0
M  V30 5491 H 534.635 -2.88846 3.01592 0
M  V30 5492 N 535.072 -1.5615 -0.213296 0
M  V30 5493 C 536.004 -1.89586 -1.28802 0
M  V30 5494 C 537.017 -0.784844 -1.42633 0
M  V30 5495 O 538.206 -1.06319 -1.43383 0
M  V30 5496 C 535.306 -2.09665 -2.66259 0
M  V30 5497 C 534.479 -3.40726 -2.7427 0
M  V30 5498 C 533.538 -3.50137 -3.92798 0
M  V30 5499 O 532.564 -4.23105 -3.8075 0
M  V30 5500 N 533.766 -2.81886 -5.07465 0
M  V30 5501 H 536.531 -2.82368 -1.00442 0
M  V30 5502 H 534.092 -1.56796 -0.403302 0
M  V30 5503 H 536.084 -2.13268 -3.43946 0
M  V30 5504 H 534.654 -1.23469 -2.87183 0
M  V30 5505 H 533.874 -3.4915 -1.82997 0
M  V30 5506 H 535.162 -4.27048 -2.76599 0
M  V30 5507 H 534.56 -2.22397 -5.2015 0
M  V30 5508 H 533.117 -2.91139 -5.83165 0
M  V30 5509 N 536.55 0.480323 -1.50102 0
M  V30 5510 C 537.513 1.56181 -1.6775 0
M  V30 5511 C 538.513 1.51156 -0.548503 0
M  V30 5512 O 539.703 1.5394 -0.815363 0
M  V30 5513 C 536.835 2.95823 -1.69415 0
M  V30 5514 H 538.028 1.41855 -2.6423 0
M  V30 5515 H 535.581 0.70605 -1.39444 0
M  V30 5516 H 536.316 3.15604 -0.745948 0
M  V30 5517 H 536.101 3.00878 -2.51425 0
M  V30 5518 H 537.591 3.74359 -1.85054 0
M  V30 5519 N 538.028 1.39524 0.732853 0
M  V30 5520 C 539.274 1.37068 1.49467 0
M  V30 5521 C 539.607 -0.0327166 1.94172 0
M  V30 5522 O 538.882 -0.998071 1.66939 0
M  V30 5523 C 539.165 2.34494 2.73285 0
M  V30 5524 C 539.018 3.83784 2.34585 0
M  V30 5525 C 540.337 2.29717 3.75391 0
M  V30 5526 H 537.456 0.499206 0.542183 0
M  V30 5527 H 540.098 1.70532 0.837783 0
M  V30 5528 H 538.248 2.06087 3.29333 0
M  V30 5529 H 539.92 4.22949 1.84151 0
M  V30 5530 H 538.163 4.00455 1.66787 0
M  V30 5531 H 538.834 4.47444 3.23262 0
M  V30 5532 H 541.31 2.54839 3.28932 0
M  V30 5533 H 540.186 2.99962 4.59689 0
M  V30 5534 H 540.447 1.30291 4.22465 0
M  V30 5535 N 539.506 -0.963266 1.24736 0
M  V30 5536 C 540.454 -2.07985 1.04139 0
M  V30 5537 C 541.448 -1.69381 -0.0250556 0
M  V30 5538 O 542.654 -1.79531 0.129863 0
M  V30 5539 H 539.029 -0.680627 0.319768 0
M  V30 5540 H 541 -2.22517 1.98818 0
M  V30 5541 C 539.749 -3.4123 0.667615 0
M  V30 5542 H 539.072 -3.71397 1.48 0
M  V30 5543 H 540.512 -4.20244 0.563136 0
M  V30 5544 C 538.971 -3.3104 -0.625647 0
M  V30 5545 O 539.501 -3.65334 -1.67016 0
M  V30 5546 N 537.707 -2.84168 -0.608033 0
M  V30 5547 H 537.254 -2.56458 0.242323 0
M  V30 5548 H 537.212 -2.77732 -1.47352 0
M  V30 5549 N 540.985 -1.06182 -1.16461 0
M  V30 5550 C 541.948 -0.675723 -2.19013 0
M  V30 5551 C 542.948 0.277963 -1.58379 0
M  V30 5552 O 544.138 0.0604962 -1.74095 0
M  V30 5553 C 541.27 0.00591459 -3.40899 0
M  V30 5554 H 542.463 -1.58353 -2.54685 0
M  V30 5555 H 540.016 -0.856908 -1.30716 0
M  V30 5556 H 540.751 0.92652 -3.10783 0
M  V30 5557 H 540.536 -0.67984 -3.86161 0
M  V30 5558 H 542.026 0.26181 -4.16778 0
M  V30 5559 N 542.463 1.3308 -0.844243 0
M  V30 5560 C 543.879 1.50447 -0.532729 0
M  V30 5561 C 544.079 1.78292 0.938837 0
M  V30 5562 O 543.135 1.84635 1.72239 0
M  V30 5563 C 544.448 2.65555 -1.41072 0
M  V30 5564 C 545.996 2.7944 -1.41005 0
M  V30 5565 C 546.471 3.97616 -2.27301 0
M  V30 5566 N 547.962 4.0486 -2.2504 0
M  V30 5567 C 548.697 4.95508 -2.88547 0
M  V30 5568 N 548.193 5.91236 -3.61126 0
M  V30 5569 N 549.986 4.88548 -2.77989 0
M  V30 5570 H 542.137 1.13269 -1.79677 0
M  V30 5571 H 544.4 0.55734 -0.766861 0
M  V30 5572 H 544.106 2.51675 -2.45668 0
M  V30 5573 H 543.98 3.61089 -1.09061 0
M  V30 5574 H 546.367 2.92749 -0.371784 0
M  V30 5575 H 546.448 1.8465 -1.77026 0
M  V30 5576 H 546.092 3.85066 -3.3119 0
M  V30 5577 H 546.022 4.91661 -1.88619 0
M  V30 5578 H 548.513 3.36353 -1.72264 0
M  V30 5579 H 548.826 6.57079 -4.06776 0
M  V30 5580 H 547.171 5.91295 -3.65234 0
M  V30 5581 H 550.362 4.12729 -2.20846 0
M  V30 5582 H 550.535 5.58994 -3.27765 0
M  V30 5583 N 543.941 0.601185 1.45683 0
M  V30 5584 C 544.904 -0.111398 2.28929 0
M  V30 5585 C 545.904 -0.801246 1.39416 0
M  V30 5586 O 547.094 -0.650383 1.61603 0
M  V30 5587 C 544.226 -1.16773 3.20276 0
M  V30 5588 H 545.419 0.620412 2.93413 0
M  V30 5589 H 542.972 0.359946 1.52099 0
M  V30 5590 H 543.707 -1.93051 2.60579 0
M  V30 5591 H 543.492 -0.677358 3.86205 0
M  V30 5592 H 544.982 -1.66698 3.82886 0
M  V30 5593 N 545.419 -1.53889 0.339982 0
M  V30 5594 C 546.349 -2.27843 -0.510856 0
M  V30 5595 C 547.33 -1.29267 -1.10563 0
M  V30 5596 O 548.515 -1.58104 -1.12768 0
M  V30 5597 C 545.645 -3.04857 -1.66372 0
M  V30 5598 C 544.599 -4.10907 -1.19746 0
M  V30 5599 C 543.925 -4.75855 -2.43857 0
M  V30 5600 C 545.225 -5.21435 -0.300501 0
M  V30 5601 H 546.919 -2.99212 0.106067 0
M  V30 5602 H 544.465 -1.43904 0.0524533 0
M  V30 5603 H 546.418 -3.5533 -2.26537 0
M  V30 5604 H 545.142 -2.31133 -2.30749 0
M  V30 5605 H 543.801 -3.61342 -0.618654 0
M  V30 5606 H 543.449 -3.9873 -3.06633 0
M  V30 5607 H 543.149 -5.47502 -2.13343 0
M  V30 5608 H 544.673 -5.2911 -3.04754 0
M  V30 5609 H 546.087 -5.67565 -0.80889 0
M  V30 5610 H 544.484 -6.00036 -0.0874076 0
M  V30 5611 H 545.554 -4.80328 0.664321 0
M  V30 5612 N 546.897 -0.0685191 -1.57451 0
M  V30 5613 C 548.308 0.464634 -1.80826 0
M  V30 5614 C 548.659 1.69847 -0.982169 0
M  V30 5615 O 547.784 2.15439 -0.203734 0
M  V30 5616 C 548.379 0.849721 -3.27971 0
M  V30 5617 C 546.938 1.32776 -3.52204 0
M  V30 5618 C 546.085 0.311332 -2.75547 0
M  V30 5619 H 549.036 -0.294248 -1.55948 0
M  V30 5620 H 549.057 1.71138 -3.39841 0
M  V30 5621 H 548.569 -0.0484736 -3.8807 0
M  V30 5622 H 546.67 2.24456 -2.97406 0
M  V30 5623 H 546.783 1.30794 -4.60901 0
M  V30 5624 H 545.147 0.787915 -2.42206 0
M  V30 5625 H 545.93 -0.579078 -3.38381 0
M  V30 5626 N 548.375 1.56261 0.205012 0
M  V30 5627 C 549.338 1.92908 1.23771 0
M  V30 5628 C 550.338 0.809208 1.38955 0
M  V30 5629 O 551.528 1.07676 1.36936 0
M  V30 5630 C 548.66 2.19442 2.60879 0
M  V30 5631 H 549.853 2.85287 0.924728 0
M  V30 5632 H 547.406 1.49798 0.446125 0
M  V30 5633 H 548.141 1.29668 2.97248 0
M  V30 5634 H 547.926 3.0104 2.51232 0
M  V30 5635 H 549.416 2.48833 3.35368 0
M  V30 5636 N 549.853 -0.472356 1.50355 0
M  V30 5637 C 551.099 -1.22634 1.6152 0
M  V30 5638 C 551.432 -1.91645 0.313995 0
M  V30 5639 O 550.707 -1.82059 -0.684446 0
M  V30 5640 C 550.99 -2.27099 2.7946 0
M  V30 5641 C 550.843 -1.62402 4.19459 0
M  V30 5642 C 552.162 -3.28421 2.92964 0
M  V30 5643 H 549.281 -0.444494 0.587873 0
M  V30 5644 H 551.923 -0.520321 1.82737 0
M  V30 5645 H 550.073 -2.87314 2.61501 0
M  V30 5646 H 551.745 -1.05793 4.49005 0
M  V30 5647 H 549.988 -0.927184 4.23776 0
M  V30 5648 H 550.659 -2.38309 4.97909 0
M  V30 5649 H 553.135 -2.78227 3.09401 0
M  V30 5650 H 552.011 -3.98845 3.77113 0
M  V30 5651 H 552.272 -3.92467 2.03525 0
M  V30 5652 N 551.331 -1.39911 -0.725443 0
M  V30 5653 C 552.263 -1.35301 -1.85003 0
M  V30 5654 C 553.276 -0.260102 -1.60709 0
M  V30 5655 O 554.465 -0.519749 -1.70766 0
M  V30 5656 C 551.565 -1.08039 -3.21218 0
M  V30 5657 C 550.738 -2.28793 -3.7279 0
M  V30 5658 C 549.797 -1.97841 -4.87591 0
M  V30 5659 O 548.823 -2.70616 -5.00755 0
M  V30 5660 N 550.025 -0.950367 -5.72668 0
M  V30 5661 H 552.79 -2.32218 -1.89459 0
M  V30 5662 H 550.351 -1.34137 -0.90658 0
M  V30 5663 H 552.343 -0.853354 -3.95601 0
M  V30 5664 H 550.913 -0.198229 -3.11971 0
M  V30 5665 H 550.133 -2.67388 -2.8965 0
M  V30 5666 H 551.421 -3.09317 -4.03981 0
M  V30 5667 H 550.819 -0.347436 -5.64632 0
M  V30 5668 H 549.376 -0.783232 -6.47077 0
M  V30 5669 N 552.809 0.956637 -1.25245 0
M  V30 5670 C 553.741 2.05628 -1.01242 0
M  V30 5671 C 554.754 1.62785 0.0219579 0
M  V30 5672 O 555.943 1.77184 -0.216365 0
M  V30 5673 C 553.043 3.35069 -0.508161 0
M  V30 5674 C 552.216 4.06761 -1.60823 0
M  V30 5675 C 551.275 5.14473 -1.1047 0
M  V30 5676 O 550.301 5.40033 -1.79868 0
M  V30 5677 N 551.503 5.80474 0.0550773 0
M  V30 5678 H 554.268 2.2679 -1.95925 0
M  V30 5679 H 551.829 1.12505 -1.16423 0
M  V30 5680 H 553.821 4.044 -0.155819 0
M  V30 5681 H 552.391 3.10694 0.344683 0
M  V30 5682 H 551.611 3.31555 -2.13224 0
M  V30 5683 H 552.899 4.51418 -2.34733 0
M  V30 5684 H 552.297 5.62125 0.635004 0
M  V30 5685 H 550.854 6.50868 0.348469 0
M  V30 5686 N 554.287 1.06798 1.15896 0
M  V30 5687 C 555.235 0.677525 2.22514 0
M  V30 5688 C 556.229 -0.308994 1.66558 0
M  V30 5689 O 557.435 -0.173308 1.79164 0
M  V30 5690 H 553.81 0.200994 0.724642 0
M  V30 5691 H 555.781 1.5865 2.52731 0
M  V30 5692 C 554.53 0.0854153 3.47595 0
M  V30 5693 H 553.853 0.835645 3.90969 0
M  V30 5694 H 555.293 -0.150199 4.23734 0
M  V30 5695 C 553.752 -1.1724 3.15843 0
M  V30 5696 O 554.282 -2.25965 3.32119 0
M  V30 5697 N 552.488 -1.07636 2.69931 0
M  V30 5698 H 552.035 -0.191559 2.56887 0
M  V30 5699 H 551.993 -1.91876 2.4906 0
M  V30 5700 N 555.766 -1.3263 0.851289 0
M  V30 5701 C 556.714 -2.30882 0.282202 0
M  V30 5702 C 557.708 -1.58697 -0.592589 0
M  V30 5703 O 558.914 -1.73461 -0.480768 0
M  V30 5704 H 555.289 -0.748492 0.0725487 0
M  V30 5705 H 557.26 -2.76374 1.12516 0
M  V30 5706 C 556.009 -3.43828 -0.517449 0
M  V30 5707 H 555.332 -3.99532 0.146392 0
M  V30 5708 H 556.772 -4.1474 -0.88128 0
M  V30 5709 C 555.231 -2.90786 -1.70133 0
M  V30 5710 O 555.761 -2.88 -2.80034 0
M  V30 5711 N 553.967 -2.4723 -1.52728 0
M  V30 5712 H 553.514 -2.49695 -0.633257 0
M  V30 5713 H 553.472 -2.12094 -2.32085 0
M  V30 5714 N 557.244 -0.608902 -1.45362 0
M  V30 5715 C 558.174 0.0964526 -2.33301 0
M  V30 5716 C 559.155 0.857444 -1.46908 0
M  V30 5717 O 560.34 0.827735 -1.75676 0
M  V30 5718 C 557.47 1.09354 -3.29635 0
M  V30 5719 C 556.424 0.445676 -4.25673 0
M  V30 5720 C 555.75 1.5511 -5.11708 0
M  V30 5721 C 557.05 -0.633972 -5.18438 0
M  V30 5722 H 558.744 -0.637829 -2.92527 0
M  V30 5723 H 556.29 -0.308178 -1.40664 0
M  V30 5724 H 558.243 1.59556 -3.90025 0
M  V30 5725 H 556.967 1.85843 -2.6857 0
M  V30 5726 H 555.626 -0.0354897 -3.66583 0
M  V30 5727 H 555.274 2.30631 -4.4701 0
M  V30 5728 H 554.974 1.12311 -5.76767 0
M  V30 5729 H 556.498 2.05537 -5.74967 0
M  V30 5730 H 557.912 -0.215974 -5.72893 0
M  V30 5731 H 556.309 -0.983789 -5.91981 0
M  V30 5732 H 557.379 -1.51005 -4.60788 0
M  V30 5733 N 558.722 1.53707 -0.348139 0
M  V30 5734 C 559.999 1.93247 0.302475 0
M  V30 5735 C 560.379 1.28012 1.67857 0
M  V30 5736 O 559.727 0.43274 2.24365 0
M  V30 5737 C 559.937 3.47031 0.370159 0
M  V30 5738 C 561.285 4.20066 0.61882 0
M  V30 5739 O 562.309 3.53319 0.452087 0
M  V30 5740 O 561.168 5.38318 0.94215 0
M  V30 5741 H 558.262 0.807736 0.177458 0
M  V30 5742 H 560.808 1.64927 -0.399651 0
M  V30 5743 H 559.58 3.86745 -0.59534 0
M  V30 5744 H 559.203 3.81532 1.11888 0
M  V30 5745 N 560.2 0.0768682 1.57412 0
M  V30 5746 C 561.11 -0.903207 2.16516 0
M  V30 5747 C 562.126 -1.32341 1.12968 0
M  V30 5748 O 563.302 -1.39507 1.45258 0
M  V30 5749 C 560.367 -2.1508 2.71922 0
M  V30 5750 C 559.428 -1.78653 3.90361 0
M  V30 5751 C 558.661 -2.97465 4.43114 0
M  V30 5752 O 558.884 -4.11638 3.94854 0
M  V30 5753 O 557.818 -2.76987 5.3438 0
M  V30 5754 H 561.644 -0.430427 3.00634 0
M  V30 5755 H 559.229 -0.146485 1.4868 0
M  V30 5756 H 561.111 -2.8823 3.07411 0
M  V30 5757 H 559.786 -2.61446 1.9086 0
M  V30 5758 H 558.693 -1.0274 3.59716 0
M  V30 5759 H 560.026 -1.37066 4.7273 0
M  V30 5760 N 561.678 -1.56367 -0.196722 0
M  V30 5761 C 562.955 -1.71359 -0.943159 0
M  V30 5762 C 563.335 -0.631192 -2.01443 0
M  V30 5763 O 562.683 0.358071 -2.25677 0
M  V30 5764 C 562.893 -3.13623 -1.53106 0
M  V30 5765 C 564.241 -3.73806 -2.01381 0
M  V30 5766 O 565.265 -3.16742 -1.62951 0
M  V30 5767 O 564.124 -4.73951 -2.7209 0
M  V30 5768 H 561.218 -0.698851 -0.442195 0
M  V30 5769 H 563.764 -1.68672 -0.186547 0
M  V30 5770 H 562.536 -3.83873 -0.758785 0
M  V30 5771 H 562.159 -3.20532 -2.35255 0
M  V30 5772 N 563.156 0.464375 -1.50603 0
M  V30 5773 C 564.086 1.56944 -1.72889 0
M  V30 5774 C 565.067 1.59979 -0.577997 0
M  V30 5775 O 566.252 1.76138 -0.817855 0
M  V30 5776 C 563.382 2.95225 -1.8292 0
M  V30 5777 C 562.336 3.07056 -2.98162 0
M  V30 5778 C 561.662 4.47051 -2.93343 0
M  V30 5779 C 562.962 2.83648 -4.38567 0
M  V30 5780 H 564.656 1.38547 -2.65415 0
M  V30 5781 H 562.202 0.665082 -1.27721 0
M  V30 5782 H 564.155 3.72467 -1.97095 0
M  V30 5783 H 562.879 3.14793 -0.870209 0
M  V30 5784 H 561.538 2.32248 -2.83648 0
M  V30 5785 H 561.186 4.63547 -1.95276 0
M  V30 5786 H 560.886 4.55902 -3.70712 0
M  V30 5787 H 562.41 5.26304 -3.09575 0
M  V30 5788 H 563.824 3.50636 -4.53572 0
M  V30 5789 H 562.221 3.03937 -5.17438 0
M  V30 5790 H 563.291 1.79451 -4.50472 0
M  V30 5791 N 564.634 1.40294 0.718013 0
M  V30 5792 C 565.883 1.37746 1.4734 0
M  V30 5793 C 566.196 -0.0180754 1.95592 0
M  V30 5794 O 567.402 -0.166166 2.70991 0
M  V30 5795 C 565.858 2.4208 2.66318 0
M  V30 5796 C 565.466 3.87432 2.24945 0
M  V30 5797 C 567.21 2.48635 3.44065 0
M  V30 5798 C 565.117 4.83368 3.40748 0
M  V30 5799 H 564.047 0.512165 0.553356 0
M  V30 5800 H 566.698 1.66019 0.781661 0
M  V30 5801 H 565.08 2.06903 3.3765 0
M  V30 5802 H 566.254 4.3174 1.6105 0
M  V30 5803 H 564.569 3.8433 1.60249 0
M  V30 5804 H 567.166 3.17499 4.30231 0
M  V30 5805 H 567.509 1.51611 3.87711 0
M  V30 5806 H 568.042 2.82791 2.79775 0
M  V30 5807 H 564.781 5.81716 3.02136 0
M  V30 5808 H 564.301 4.43726 4.03568 0
M  V30 5809 H 565.98 5.03074 4.06848 0
M  V30 5810 N 566.112 -0.949982 1.2575 0
M  V30 5811 C 567.528 -1.22191 1.02672 0
M  V30 5812 C 567.728 -1.99898 -0.253588 0
M  V30 5813 O 566.784 -2.33329 -0.965076 0
M  V30 5814 C 568.097 -1.99175 2.25277 0
M  V30 5815 C 569.645 -2.12201 2.30087 0
M  V30 5816 C 570.12 -2.92586 3.5236 0
M  V30 5817 N 571.611 -3.00163 3.52784 0
M  V30 5818 C 572.346 -3.62766 4.44059 0
M  V30 5819 N 571.842 -4.26943 5.45611 0
M  V30 5820 N 573.635 -3.59953 4.3173 0
M  V30 5821 H 565.786 -0.430258 2.07996 0
M  V30 5822 H 568.049 -0.252844 0.91366 0
M  V30 5823 H 567.755 -1.49479 3.18354 0
M  V30 5824 H 567.629 -2.99868 2.28821 0
M  V30 5825 H 570.016 -2.61093 1.3753 0
M  V30 5826 H 570.097 -1.10799 2.30559 0
M  V30 5827 H 569.741 -2.44383 4.45241 0
M  V30 5828 H 569.671 -3.94224 3.49134 0
M  V30 5829 H 572.162 -2.54529 2.79327 0
M  V30 5830 H 572.475 -4.72583 6.11461 0
M  V30 5831 H 570.82 -4.25557 5.49478 0
M  V30 5832 H 574.011 -3.09003 3.51617 0
M  V30 5833 H 574.184 -4.08455 5.03059 0
M  V30 5834 N 567.59 -1.07411 -1.15328 0
M  V30 5835 C 568.537 -0.694995 -2.20087 0
M  V30 5836 C 569.507 0.313904 -1.63107 0
M  V30 5837 O 570.692 0.200216 -1.89747 0
M  V30 5838 C 567.832 -0.0996218 -3.44956 0
M  V30 5839 C 566.945 -1.16007 -4.16133 0
M  V30 5840 C 566.08 -0.529636 -5.28553 0
M  V30 5841 C 565.119 -1.57283 -5.91548 0
M  V30 5842 N 564.256 -0.964932 -6.95438 0
M  V30 5843 H 569.096 -1.5927 -2.51867 0
M  V30 5844 H 566.633 -0.796115 -1.23695 0
M  V30 5845 H 568.591 0.263197 -4.16369 0
M  V30 5846 H 567.221 0.761435 -3.13691 0
M  V30 5847 H 566.273 -1.64045 -3.4321 0
M  V30 5848 H 567.585 -1.95101 -4.59061 0
M  V30 5849 H 566.739 -0.114487 -6.06592 0
M  V30 5850 H 565.478 0.29307 -4.86819 0
M  V30 5851 H 564.483 -1.99775 -5.12221 0
M  V30 5852 H 565.708 -2.39783 -6.35359 0
M  V30 5853 H 563.654 -0.16314 -6.55797 0
M  V30 5854 H 563.571 -1.69311 -7.36797 0
M  V30 5855 H 564.839 -0.575305 -7.77374 0
M  V30 5856 N 569.068 1.32177 -0.85831 0
M  V30 5857 C 569.998 2.31282 -0.321041 0
M  V30 5858 C 570.979 1.59841 0.581786 0
M  V30 5859 O 572.164 1.87619 0.501262 0
M  V30 5860 C 569.294 3.4385 0.48832 0
M  V30 5861 C 568.248 4.26799 -0.320391 0
M  V30 5862 C 567.574 5.31164 0.613934 0
M  V30 5863 C 568.874 4.98829 -1.54813 0
M  V30 5864 H 570.568 2.76469 -1.14915 0
M  V30 5865 H 568.114 1.32916 -0.554028 0
M  V30 5866 H 570.067 4.12224 0.874626 0
M  V30 5867 H 568.791 2.97401 1.34983 0
M  V30 5868 H 567.45 3.60077 -0.688497 0
M  V30 5869 H 567.098 4.80967 1.47239 0
M  V30 5870 H 566.798 5.8755 0.0768097 0
M  V30 5871 H 568.322 6.024 0.997336 0
M  V30 5872 H 569.736 5.59864 -1.23392 0
M  V30 5873 H 568.133 5.64957 -2.02346 0
M  V30 5874 H 569.203 4.26483 -2.30739 0
M  V30 5875 N 570.547 0.616602 1.45037 0
M  V30 5876 C 571.51 -0.0871112 2.29034 0
M  V30 5877 C 572.51 -0.786414 1.40258 0
M  V30 5878 O 573.7 -0.633207 1.62284 0
M  V30 5879 C 570.832 -1.13369 3.21497 0
M  V30 5880 H 572.025 0.651497 2.92738 0
M  V30 5881 H 569.578 0.376058 1.51709 0
M  V30 5882 H 570.313 -1.90277 2.62612 0
M  V30 5883 H 570.098 -0.636358 3.86902 0
M  V30 5884 H 571.588 -1.62627 3.84633 0
M  V30 5885 N 572.025 -1.5352 0.356285 0
M  V30 5886 C 573.255 -2.05236 -0.236983 0
M  V30 5887 C 573.663 -1.23016 -1.43749 0
M  V30 5888 O 573.006 -0.2615 -1.81829 0
M  V30 5889 C 573.068 -3.52549 -0.7035 0
M  V30 5890 C 572.732 -4.55425 0.379059 0
M  V30 5891 C 573.729 -5.0524 1.22592 0
M  V30 5892 C 571.414 -4.99425 0.536638 0
M  V30 5893 C 573.408 -5.97647 2.21578 0
M  V30 5894 C 571.095 -5.9164 1.52988 0
M  V30 5895 C 572.093 -6.4064 2.3679 0
M  V30 5896 O 571.781 -7.31039 3.34421 0
M  V30 5897 H 571.513 -0.674346 -0.047254 0
M  V30 5898 H 574.067 -1.98962 0.510238 0
M  V30 5899 H 572.297 -3.56331 -1.50217 0
M  V30 5900 H 573.986 -3.87171 -1.21873 0
M  V30 5901 H 574.752 -4.72002 1.11532 0
M  V30 5902 H 570.631 -4.60879 -0.105834 0
M  V30 5903 H 574.175 -6.35816 2.87025 0
M  V30 5904 H 570.072 -6.24293 1.64099 0
M  V30 5905 H 570.84 -7.49009 3.30041 0
M  V30 5906 N 573.503 -0.0852151 -1.57369 0
M  V30 5907 C 574.749 0.581666 -1.94279 0
M  V30 5908 C 575.082 1.68444 -0.966446 0
M  V30 5909 O 574.357 1.945 0.00215277 0
M  V30 5910 C 574.64 1.14609 -3.41375 0
M  V30 5911 C 574.493 0.0490414 -4.49773 0
M  V30 5912 C 575.812 2.04751 -3.8957 0
M  V30 5913 H 572.931 0.209972 -0.706456 0
M  V30 5914 H 575.573 -0.153915 -1.89376 0
M  V30 5915 H 573.723 1.77297 -3.45685 0
M  V30 5916 H 575.395 -0.584721 -4.57579 0
M  V30 5917 H 573.638 -0.618638 -4.29366 0
M  V30 5918 H 574.309 0.484601 -5.49869 0
M  V30 5919 H 576.785 1.51981 -3.87351 0
M  V30 5920 H 575.661 2.41173 -4.93079 0
M  V30 5921 H 575.922 2.96107 -3.28288 0
M  V30 5922 N 574.981 1.5647 0.188427 0
M  V30 5923 C 575.944 1.9421 1.21718 0
M  V30 5924 C 576.944 0.823901 1.38089 0
M  V30 5925 O 578.134 1.09122 1.35787 0
M  V30 5926 C 575.266 2.22197 2.58537 0
M  V30 5927 H 576.459 2.86252 0.894418 0
M  V30 5928 H 574.012 1.50263 0.430211 0
M  V30 5929 H 574.747 1.32814 2.95856 0
M  V30 5930 H 574.532 3.03688 2.48025 0
M  V30 5931 H 576.022 2.52376 3.3271 0
M  V30 5932 N 576.459 -0.456382 1.50847 0
M  V30 5933 C 577.422 -1.53493 1.70213 0
M  V30 5934 C 578.422 -1.50264 0.572481 0
M  V30 5935 O 579.612 -1.52623 0.839751 0
M  V30 5936 C 576.744 -2.93091 1.741 0
M  V30 5937 H 577.937 -1.37633 2.66453 0
M  V30 5938 H 575.49 -0.683776 1.4055 0
M  V30 5939 H 576.225 -3.14378 0.796063 0
M  V30 5940 H 576.01 -2.9684 2.5618 0
M  V30 5941 H 577.5 -3.71368 1.90987 0
M  V30 5942 N 577.937 -1.40673 -0.710563 0
M  V30 5943 C 579.185 -1.38947 -1.46759 0
M  V30 5944 C 579.506 0.00572879 -1.94999 0
M  V30 5945 O 578.776 0.961358 -1.70689 0
M  V30 5946 H 577.356 -0.5114 -0.544499 0
M  V30 5947 H 580.018 -1.75773 -0.842012 0
M  V30 5948 H 579.114 -2.06745 -2.33801 0
M  V30 5949 N 579.415 0.9433 -1.26252 0
M  V30 5950 C 580.692 1.66639 -1.02424 0
M  V30 5951 C 581.072 2.06335 0.446006 0
M  V30 5952 O 580.42 1.78551 1.42589 0
M  V30 5953 C 580.63 2.88019 -1.97094 0
M  V30 5954 C 581.978 3.59718 -2.25584 0
M  V30 5955 O 583.002 2.9812 -1.94943 0
M  V30 5956 O 581.861 4.7066 -2.77743 0
M  V30 5957 H 578.955 0.729643 -0.389294 0
M  V30 5958 H 581.501 0.995218 -1.37454 0
M  V30 5959 H 580.273 2.5556 -2.96319 0
M  V30 5960 H 579.896 3.62863 -1.62532 0
M  V30 5961 N 580.893 1.08022 1.14757 0
M  V30 5962 C 581.823 0.728248 2.21853 0
M  V30 5963 C 582.804 -0.287486 1.67653 0
M  V30 5964 O 583.989 -0.158727 1.9355 0
M  V30 5965 C 581.119 0.132549 3.47047 0
M  V30 5966 C 580.073 1.07619 4.14249 0
M  V30 5967 C 579.399 0.342907 5.33599 0
M  V30 5968 C 580.699 2.41268 4.63235 0
M  V30 5969 H 582.393 1.62365 2.51551 0
M  V30 5970 H 579.939 0.782125 1.20908 0
M  V30 5971 H 581.892 -0.125665 4.21213 0
M  V30 5972 H 580.616 -0.797971 3.16702 0
M  V30 5973 H 579.275 1.31944 3.42033 0
M  V30 5974 H 578.923 -0.59129 4.99513 0
M  V30 5975 H 578.623 0.971955 5.79506 0
M  V30 5976 H 580.147 0.0926538 6.1053 0
M  V30 5977 H 581.561 2.21232 5.28894 0
M  V30 5978 H 579.958 2.9983 5.19829 0
M  V30 5979 H 581.028 3.03079 3.78512 0
M  V30 5980 N 582.371 -1.3172 0.865308 0
M  V30 5981 C 583.334 -2.26918 0.322627 0
M  V30 5982 C 584.334 -1.52031 -0.523751 0
M  V30 5983 O 585.524 -1.70973 -0.333727 0
M  V30 5984 C 582.656 -3.36558 -0.542338 0
M  V30 5985 H 583.849 -2.76432 1.16298 0
M  V30 5986 H 581.402 -1.42573 0.640512 0
M  V30 5987 H 582.137 -2.92329 -1.40407 0
M  V30 5988 H 581.922 -3.92048 0.0636395 0
M  V30 5989 H 583.412 -4.07465 -0.91446 0
M  V30 5990 N 583.85 -0.624285 -1.44708 0
M  V30 5991 C 585.26 -0.2092 -1.85524 0
M  V30 5992 C 585.611 1.23783 -1.52225 0
M  V30 5993 O 584.736 1.94089 -0.956986 0
M  V30 5994 C 585.332 -0.372897 -3.36742 0
M  V30 5995 C 583.891 -0.012374 -3.76398 0
M  V30 5996 C 583.038 -0.68951 -2.68591 0
M  V30 5997 H 585.989 -0.829894 -1.35272 0
M  V30 5998 H 586.01 0.390134 -3.78495 0
M  V30 5999 H 585.522 -1.42615 -3.60947 0
M  V30 6000 H 583.623 1.03941 -3.57809 0
M  V30 6001 H 583.736 -0.417663 -4.77276 0
M  V30 6002 H 582.1 -0.125484 -2.54391 0
M  V30 6003 H 582.883 -1.74522 -2.9563 0
M  V30 6004 N 585.328 1.53329 -0.364422 0
M  V30 6005 C 586.577 2.00421 0.226747 0
M  V30 6006 C 586.89 1.25581 1.49963 0
M  V30 6007 O 588.096 1.63256 2.16933 0
M  V30 6008 C 586.552 3.57017 0.454618 0
M  V30 6009 C 586.16 4.40734 -0.803568 0
M  V30 6010 C 587.904 4.12468 1.00351 0
M  V30 6011 C 585.811 5.8888 -0.545345 0
M  V30 6012 H 584.741 0.748787 0.0885082 0
M  V30 6013 H 587.392 1.7703 -0.482983 0
M  V30 6014 H 585.774 3.76558 1.22558 0
M  V30 6015 H 586.948 4.32967 -1.57723 0
M  V30 6016 H 585.263 3.96381 -1.27559 0
M  V30 6017 H 587.86 5.20783 1.212 0
M  V30 6018 H 588.203 3.6699 1.9653 0
M  V30 6019 H 588.736 3.96721 0.29274 0
M  V30 6020 H 585.475 6.38633 -1.47743 0
M  V30 6021 H 584.995 5.99499 0.189842 0
M  V30 6022 H 586.674 6.46776 -0.170425 0
M  V30 6023 N 586.806 0.0935595 1.57322 0
M  V30 6024 C 587.754 -0.883457 2.15169 0
M  V30 6025 C 588.748 -1.29324 1.09415 0
M  V30 6026 O 589.954 -1.26795 1.27762 0
M  V30 6027 H 586.329 -0.302923 0.688289 0
M  V30 6028 H 588.3 -0.370845 2.96087 0
M  V30 6029 C 587.049 -2.13345 2.74552 0
M  V30 6030 H 586.372 -1.82702 3.55612 0
M  V30 6031 H 587.812 -2.7977 3.18598 0
M  V30 6032 C 586.271 -2.90646 1.70371 0
M  V30 6033 O 586.801 -3.85133 1.14173 0
M  V30 6034 N 585.007 -2.54157 1.40899 0
M  V30 6035 H 584.554 -1.77391 1.86789 0
M  V30 6036 H 584.512 -3.06178 0.714301 0
M  V30 6037 N 588.284 -1.56567 -0.180126 0
M  V30 6038 C 589.247 -1.94852 -1.20686 0
M  V30 6039 C 590.247 -0.831212 -1.3765 0
M  V30 6040 O 591.437 -1.09841 -1.35206 0
M  V30 6041 C 588.569 -2.23565 -2.57355 0
M  V30 6042 H 589.762 -2.86722 -0.879225 0
M  V30 6043 H 587.315 -1.50489 -0.422237 0
M  V30 6044 H 588.05 -1.34381 -2.95148 0
M  V30 6045 H 587.835 -3.04999 -2.46411 0
M  V30 6046 H 589.325 -2.54137 -3.31367 0
M  V30 6047 N 589.762 0.448376 -1.51087 0
M  V30 6048 C 591.009 1.19872 -1.63209 0
M  V30 6049 C 591.337 1.91451 -0.343062 0
M  V30 6050 O 590.592 1.83789 0.672321 0
M  V30 6051 C 590.891 2.24866 -2.77795 0
M  V30 6052 C 590.557 1.70378 -4.17471 0
M  V30 6053 C 589.219 1.55241 -4.55471 0
M  V30 6054 C 591.571 1.30203 -5.04675 0
M  V30 6055 C 588.899 0.983844 -5.78392 0
M  V30 6056 C 591.251 0.747798 -6.28165 0
M  V30 6057 C 589.915 0.583233 -6.64947 0
M  V30 6058 H 589.185 0.438642 -0.597222 0
M  V30 6059 H 591.832 0.49136 -1.85089 0
M  V30 6060 H 590.137 3.01598 -2.50092 0
M  V30 6061 H 591.834 2.82723 -2.84374 0
M  V30 6062 H 588.424 1.83134 -3.87505 0
M  V30 6063 H 592.608 1.40723 -4.75932 0
M  V30 6064 H 587.864 0.844007 -6.05546 0
M  V30 6065 H 592.038 0.427927 -6.95084 0
M  V30 6066 H 589.665 0.140532 -7.6007 0
M  V30 6067 N 591.24 1.41047 0.703093 0
M  V30 6068 C 592.489 1.39301 1.4587 0
M  V30 6069 C 592.802 0.00267077 1.956 0
M  V30 6070 O 594.008 -0.137414 2.71152 0
M  V30 6071 C 592.464 2.44891 2.63735 0
M  V30 6072 C 592.072 3.89796 2.20824 0
M  V30 6073 C 593.816 2.5227 3.41409 0
M  V30 6074 C 591.723 4.86955 3.35602 0
M  V30 6075 H 590.653 0.518005 0.547893 0
M  V30 6076 H 593.304 1.66839 0.764009 0
M  V30 6077 H 591.686 2.10472 3.35436 0
M  V30 6078 H 592.86 4.33424 1.56461 0
M  V30 6079 H 591.175 3.86008 1.56163 0
M  V30 6080 H 593.772 3.22044 4.26839 0
M  V30 6081 H 594.115 1.55714 3.86081 0
M  V30 6082 H 594.648 2.85742 2.7676 0
M  V30 6083 H 591.387 5.84888 2.9595 0
M  V30 6084 H 590.907 4.47982 3.98839 0
M  V30 6085 H 592.586 5.07361 4.01489 0
M  V30 6086 N 592.718 -0.936591 1.26751 0
M  V30 6087 C 593.966 -1.67998 1.12343 0
M  V30 6088 C 594.287 -1.92137 -0.332938 0
M  V30 6089 O 593.557 -1.52132 -1.23421 0
M  V30 6090 H 592.137 -0.622609 0.412756 0
M  V30 6091 H 594.799 -1.12509 1.59147 0
M  V30 6092 H 593.895 -2.65185 1.64571 0
M  V30 6093 N 594.196 -1.08629 -1.14182 0
M  V30 6094 C 595.444 -0.815731 -1.84906 0
M  V30 6095 C 595.765 0.660441 -1.83475 0
M  V30 6096 O 595.035 1.47888 -1.28476 0
M  V30 6097 H 593.615 -0.298773 -0.684648 0
M  V30 6098 H 596.277 -1.37274 -1.38354 0
M  V30 6099 H 595.373 -1.16193 -2.89665 0
M  V30 6100 N 595.674 1.31259 -0.872281 0
M  V30 6101 C 596.604 2.30929 -0.345554 0
M  V30 6102 C 597.585 1.60449 0.5648 0
M  V30 6103 O 598.77 1.8814 0.481335 0
M  V30 6104 C 595.9 3.44348 0.451823 0
M  V30 6105 C 594.854 4.26435 -0.365641 0
M  V30 6106 C 594.18 5.31785 0.557562 0
M  V30 6107 C 595.48 4.97159 -1.60095 0
M  V30 6108 H 597.174 2.75234 -1.17841 0
M  V30 6109 H 594.72 1.3232 -0.568094 0
M  V30 6110 H 596.673 4.13128 0.830854 0
M  V30 6111 H 595.397 2.98816 1.31821 0
M  V30 6112 H 594.056 3.59326 -0.726649 0
M  V30 6113 H 593.704 4.82502 1.4213 0
M  V30 6114 H 593.404 5.87598 0.0144878 0
M  V30 6115 H 594.928 6.03424 0.933387 0
M  V30 6116 H 596.342 5.58523 -1.29323 0
M  V30 6117 H 594.739 5.62779 -2.08327 0
M  V30 6118 H 595.809 4.24012 -2.35249 0
M  V30 6119 N 597.152 0.631951 1.44375 0
M  V30 6120 C 598.115 -0.0628142 2.29114 0
M  V30 6121 C 599.115 -0.771494 1.41084 0
M  V30 6122 O 600.305 -0.615959 1.62947 0
M  V30 6123 C 597.437 -1.09953 3.22681 0
M  V30 6124 H 598.63 0.682509 2.92031 0
M  V30 6125 H 596.183 0.392128 1.51301 0
M  V30 6126 H 596.918 -1.87481 2.64616 0
M  V30 6127 H 596.703 -0.595286 3.87555 0
M  V30 6128 H 598.193 -1.58538 3.86336 0
M  V30 6129 N 598.631 -1.53133 0.372548 0
M  V30 6130 C 599.594 -2.24569 -0.458389 0
M  V30 6131 C 600.594 -1.25603 -1.00402 0
M  V30 6132 O 601.784 -1.49827 -0.888672 0
M  V30 6133 C 598.916 -2.98783 -1.6414 0
M  V30 6134 H 600.109 -2.99436 0.166799 0
M  V30 6135 H 597.662 -1.55805 0.124357 0
M  V30 6136 H 598.397 -2.28176 -2.30448 0
M  V30 6137 H 598.182 -3.71404 -1.25704 0
M  V30 6138 H 599.672 -3.53068 -2.23008 0
M  V30 6139 N 600.109 -0.101901 -1.5727 0
M  V30 6140 C 601.041 0.884723 -2.11436 0
M  V30 6141 C 602.054 1.24149 -1.05314 0
M  V30 6142 O 603.243 1.19341 -1.3274 0
M  V30 6143 C 600.343 2.19179 -2.58484 0
M  V30 6144 C 599.516 2.00933 -3.88516 0
M  V30 6145 C 598.575 3.15213 -4.2134 0
M  V30 6146 O 597.601 2.88877 -4.90448 0
M  V30 6147 N 598.803 4.41174 -3.77288 0
M  V30 6148 H 601.568 0.422058 -2.96713 0
M  V30 6149 H 599.129 0.0830128 -1.61687 0
M  V30 6150 H 601.121 2.94593 -2.77484 0
M  V30 6151 H 599.691 2.56847 -1.7818 0
M  V30 6152 H 598.911 1.09809 -3.78597 0
M  V30 6153 H 600.199 1.86026 -4.73573 0
M  V30 6154 H 599.597 4.6545 -3.21516 0
M  V30 6155 H 598.154 5.13515 -4.01429 0
M  V30 6156 N 601.587 1.56661 0.17182 0
M  V30 6157 C 602.497 1.99604 1.2327 0
M  V30 6158 C 603.513 0.907333 1.4847 0
M  V30 6159 O 604.689 1.21492 1.60629 0
M  V30 6160 C 601.754 2.34685 2.55194 0
M  V30 6161 C 600.815 3.57381 2.3786 0
M  V30 6162 C 600.048 3.90779 3.63494 0
M  V30 6163 O 600.271 3.25152 4.6865 0
M  V30 6164 O 599.205 4.84129 3.57634 0
M  V30 6165 H 603.031 2.90114 0.898192 0
M  V30 6166 H 600.616 1.44522 0.378647 0
M  V30 6167 H 602.498 2.5822 3.33017 0
M  V30 6168 H 601.173 1.47336 2.88225 0
M  V30 6169 H 600.08 3.39064 1.5807 0
M  V30 6170 H 601.413 4.45268 2.09754 0
M  V30 6171 N 603.065 -0.440357 1.51323 0
M  V30 6172 C 604.311 -1.19181 1.64085 0
M  V30 6173 C 604.644 -1.90936 0.354575 0
M  V30 6174 O 603.919 -1.8347 -0.645675 0
M  V30 6175 C 604.202 -2.2112 2.84215 0
M  V30 6176 C 604.055 -1.53468 4.22809 0
M  V30 6177 C 605.374 -3.22133 2.99864 0
M  V30 6178 H 602.493 -0.431924 0.597169 0
M  V30 6179 H 605.135 -0.481443 1.83799 0
M  V30 6180 H 603.285 -2.81703 2.67537 0
M  V30 6181 H 604.957 -0.962455 4.51148 0
M  V30 6182 H 603.2 -0.837086 4.25647 0
M  V30 6183 H 603.871 -2.27694 5.02852 0
M  V30 6184 H 606.347 -2.71601 3.15233 0
M  V30 6185 H 605.223 -3.90756 3.85488 0
M  V30 6186 H 605.484 -3.88061 2.11804 0
M  V30 6187 N 604.543 -1.41418 -0.695603 0
M  V30 6188 C 605.476 -1.3768 -1.81988 0
M  V30 6189 C 606.454 -0.244061 -1.60758 0
M  V30 6190 O 607.638 -0.430965 -1.83507 0
M  V30 6191 C 604.765 -1.1476 -3.18666 0
M  V30 6192 C 603.811 -2.30752 -3.58686 0
M  V30 6193 S 604.644 -3.9323 -3.63498 0
M  V30 6194 C 605.8 -3.72613 -5.02902 0
M  V30 6195 H 606.033 -2.32822 -1.84882 0
M  V30 6196 H 603.566 -1.27942 -0.86431 0
M  V30 6197 H 605.524 -1.02223 -3.97569 0
M  V30 6198 H 604.185 -0.212385 -3.13381 0
M  V30 6199 H 603.378 -2.10409 -4.57978 0
M  V30 6200 H 602.98 -2.39696 -2.87092 0
M  V30 6201 H 605.272 -3.32317 -5.904 0
M  V30 6202 H 606.215 -4.71507 -5.28286 0
M  V30 6203 H 606.623 -3.0589 -4.74438 0
M  V30 6204 N 606.021 0.929856 -1.27246 0
M  V30 6205 C 606.968 2.03017 -1.09785 0
M  V30 6206 C 607.938 1.661 0.000456744 0
M  V30 6207 O 609.123 1.90116 -0.161462 0
M  V30 6208 C 606.263 3.36878 -0.748816 0
M  V30 6209 C 605.376 3.86763 -1.92453 0
M  V30 6210 C 604.511 5.09061 -1.51758 0
M  V30 6211 C 603.55 5.51237 -2.66091 0
M  V30 6212 N 602.687 6.64732 -2.25999 0
M  V30 6213 H 607.527 2.17285 -2.03939 0
M  V30 6214 H 605.064 1.06448 -1.01524 0
M  V30 6215 H 607.022 4.13855 -0.527283 0
M  V30 6216 H 605.652 3.22424 0.155771 0
M  V30 6217 H 604.704 3.06086 -2.25867 0
M  V30 6218 H 606.016 4.13994 -2.78227 0
M  V30 6219 H 605.17 5.93532 -1.25716 0
M  V30 6220 H 603.909 4.83602 -0.630896 0
M  V30 6221 H 602.914 4.65316 -2.92849 0
M  V30 6222 H 604.139 5.78692 -3.55377 0
M  V30 6223 H 602.085 6.40935 -1.3978 0
M  V30 6224 H 602.002 6.91607 -3.05313 0
M  V30 6225 H 603.27 7.52549 -2.03199 0
M  V30 6226 N 607.499 1.09233 1.13605 0
M  V30 6227 C 608.462 0.733553 2.17144 0
M  V30 6228 C 609.462 -0.235873 1.59061 0
M  V30 6229 O 610.652 -0.0143167 1.74194 0
M  V30 6230 C 607.784 0.084471 3.40795 0
M  V30 6231 H 608.977 1.65049 2.50397 0
M  V30 6232 H 606.53 0.891264 1.28399 0
M  V30 6233 H 607.265 -0.843795 3.1313 0
M  V30 6234 H 607.05 0.781985 3.84223 0
M  V30 6235 H 608.54 -0.151216 4.17326 0
M  V30 6236 N 608.977 -1.30795 0.87923 0
M  V30 6237 C 610.217 -1.98155 0.50141 0
M  V30 6238 C 610.581 -1.67925 -0.930863 0
M  V30 6239 O 611.782 -2.28572 -1.41451 0
M  V30 6240 C 610.053 -3.49184 0.761937 0
M  V30 6241 S 611.612 -4.36107 0.485361 0
M  V30 6242 H 608.43 -0.686025 0.186792 0
M  V30 6243 H 611.032 -1.59018 1.13726 0
M  V30 6244 H 609.736 -3.68676 1.80295 0
M  V30 6245 H 609.267 -3.93236 0.113432 0
M  V30 6246 H 611.282 -4.9154 -0.678467 0
M  V30 6247 N 610.455 -0.639598 -1.44038 0
M  V30 6248 C 611.68 -0.153117 -2.06834 0
M  V30 6249 C 612.105 1.16676 -1.47541 0
M  V30 6250 O 611.463 1.71769 -0.580093 0
M  V30 6251 C 611.511 -0.0609169 -3.60549 0
M  V30 6252 O 610.615 0.98071 -4.00569 0
M  V30 6253 H 609.956 -0.0886402 -0.658057 0
M  V30 6254 H 612.486 -0.878674 -1.84771 0
M  V30 6255 H 612.496 0.126892 -4.07803 0
M  V30 6256 H 611.171 -1.0245 -4.03084 0
M  V30 6257 H 609.748 0.766789 -3.64931 0
M  V30 6258 N 611.933 1.52934 -0.380664 0
M  V30 6259 C 613.181 2.01069 0.203874 0
M  V30 6260 C 613.502 1.26922 1.4804 0
M  V30 6261 O 612.772 0.386787 1.92044 0
M  V30 6262 H 611.352 0.742882 0.0783279 0
M  V30 6263 H 614.014 1.88099 -0.510368 0
M  V30 6264 H 613.11 3.09258 0.42021 0
M  V30 6265 N 613.412 0.11024 1.57214 0
M  V30 6266 C 614.359 -0.843195 2.14846 0
M  V30 6267 C 615.329 -1.26954 1.07107 0
M  V30 6268 O 616.514 -1.34861 1.34971 0
M  V30 6269 C 613.654 -2.09123 2.74521 0
M  V30 6270 C 612.767 -1.71404 3.96541 0
M  V30 6271 C 611.902 -2.91107 4.44331 0
M  V30 6272 C 610.941 -2.49586 5.58903 0
M  V30 6273 N 610.078 -3.62175 6.01477 0
M  V30 6274 H 614.918 -0.344886 2.95998 0
M  V30 6275 H 612.455 -0.15855 1.46243 0
M  V30 6276 H 614.413 -2.82234 3.07246 0
M  V30 6277 H 613.043 -2.56427 1.96074 0
M  V30 6278 H 612.095 -0.88201 3.70033 0
M  V30 6279 H 613.407 -1.36884 4.7965 0
M  V30 6280 H 612.561 -3.72454 4.78919 0
M  V30 6281 H 611.3 -3.28848 3.60153 0
M  V30 6282 H 610.305 -1.6667 5.23929 0
M  V30 6283 H 611.53 -2.12973 6.4484 0
M  V30 6284 H 609.476 -3.99605 5.20242 0
M  V30 6285 H 609.393 -3.3155 6.79419 0
M  V30 6286 H 610.661 -4.43987 6.407 0
M  V30 6287 N 614.89 -1.56749 -0.16351 0
M  V30 6288 C 616.137 -1.82434 -0.878866 0
M  V30 6289 C 616.465 -0.688557 -1.81904 0
M  V30 6290 O 615.72 0.323644 -1.93005 0
M  V30 6291 C 616.019 -3.14342 -1.70071 0
M  V30 6292 C 615.685 -4.41647 -0.908775 0
M  V30 6293 C 614.347 -4.76224 -0.690236 0
M  V30 6294 C 616.699 -5.19998 -0.353815 0
M  V30 6295 C 614.027 -5.86624 0.0942374 0
M  V30 6296 C 616.379 -6.3122 0.41761 0
M  V30 6297 C 615.043 -6.64358 0.646879 0
M  V30 6298 H 614.313 -0.667574 -0.3216 0
M  V30 6299 H 616.96 -1.90963 -0.14337 0
M  V30 6300 H 615.265 -3.0119 -2.50583 0
M  V30 6301 H 616.962 -3.31426 -2.25738 0
M  V30 6302 H 613.552 -4.1453 -1.08916 0
M  V30 6303 H 617.736 -4.93673 -0.509975 0
M  V30 6304 H 612.992 -6.10751 0.281529 0
M  V30 6305 H 617.166 -6.91133 0.854849 0
M  V30 6306 H 614.793 -7.49742 1.25662 0
M  V30 6307 N 616.368 0.432326 -1.51554 0
M  V30 6308 C 617.301 1.54525 -1.6792 0
M  V30 6309 C 618.279 1.53831 -0.526764 0
M  V30 6310 O 619.463 1.72884 -0.751233 0
M  V30 6311 C 616.59 2.931 -1.69736 0
M  V30 6312 C 615.636 3.11799 -2.91005 0
M  V30 6313 S 616.469 2.87565 -4.51737 0
M  V30 6314 C 617.625 4.28412 -4.56305 0
M  V30 6315 H 617.858 1.4041 -2.62054 0
M  V30 6316 H 615.391 0.622357 -1.41301 0
M  V30 6317 H 617.349 3.72974 -1.71467 0
M  V30 6318 H 616.01 3.04574 -0.767705 0
M  V30 6319 H 615.203 4.13127 -2.8869 0
M  V30 6320 H 614.805 2.39757 -2.87041 0
M  V30 6321 H 617.097 5.21692 -4.32254 0
M  V30 6322 H 618.04 4.35758 -5.58141 0
M  V30 6323 H 618.448 4.12301 -3.85576 0
M  V30 6324 N 617.846 1.41785 0.688094 0
M  V30 6325 C 619.257 1.3701 1.26828 0
M  V30 6326 C 619.608 0.056835 1.96118 0
M  V30 6327 O 618.733 -0.84475 1.99231 0
M  V30 6328 C 619.328 2.48168 2.30648 0
M  V30 6329 C 617.887 2.46766 2.84224 0
M  V30 6330 C 617.034 2.27633 1.58361 0
M  V30 6331 H 619.985 1.51192 0.482351 0
M  V30 6332 H 620.006 2.17655 3.121 0
M  V30 6333 H 619.518 3.43735 1.80188 0
M  V30 6334 H 617.619 1.54978 3.3884 0
M  V30 6335 H 617.732 3.43342 3.34145 0
M  V30 6336 H 616.096 1.75648 1.84445 0
M  V30 6337 H 616.879 3.25238 1.09887 0
M  V30 6338 N 619.324 -0.923095 1.27737 0
M  V30 6339 C 620.573 -1.66581 1.13727 0
M  V30 6340 C 620.886 -1.9304 -0.315433 0
M  V30 6341 O 622.092 -2.65309 -0.57651 0
M  V30 6342 C 620.548 -3.00047 1.98745 0
M  V30 6343 C 620.156 -2.8127 3.48699 0
M  V30 6344 C 621.9 -3.77887 1.93395 0
M  V30 6345 C 619.807 -4.1032 4.25901 0
M  V30 6346 H 618.737 -0.624834 0.422017 0
M  V30 6347 H 621.388 -1.02514 1.52194 0
M  V30 6348 H 619.77 -3.65197 1.53125 0
M  V30 6349 H 620.944 -2.24859 4.02213 0
M  V30 6350 H 619.259 -2.16854 3.55476 0
M  V30 6351 H 621.856 -4.73526 2.48348 0
M  V30 6352 H 622.199 -4.06264 0.908605 0
M  V30 6353 H 622.732 -3.19541 2.36935 0
M  V30 6354 H 619.471 -3.8712 5.28978 0
M  V30 6355 H 618.991 -4.66377 3.77163 0
M  V30 6356 H 620.67 -4.78648 4.35321 0
M  V30 6357 N 620.802 -1.09834 -1.13024 0
M  V30 6358 C 621.735 -0.685453 -2.17662 0
M  V30 6359 C 622.713 0.310142 -1.59615 0
M  V30 6360 O 623.897 0.21052 -1.87321 0
M  V30 6361 C 621.024 -0.0104476 -3.38698 0
M  V30 6362 C 620.07 -0.968522 -4.15358 0
M  V30 6363 S 620.903 -2.48272 -4.74469 0
M  V30 6364 C 622.059 -1.82025 -5.98847 0
M  V30 6365 H 622.292 -1.57187 -2.52348 0
M  V30 6366 H 619.825 -0.914728 -1.24387 0
M  V30 6367 H 621.783 0.372694 -4.08805 0
M  V30 6368 H 620.444 0.852673 -3.02305 0
M  V30 6369 H 619.637 -0.443373 -5.02046 0
M  V30 6370 H 619.239 -1.29327 -3.50928 0
M  V30 6371 H 621.531 -1.14678 -6.67724 0
M  V30 6372 H 622.474 -2.66645 -6.55977 0
M  V30 6373 H 622.882 -1.2874 -5.49624 0
M  V30 6374 N 622.28 1.30327 -0.886154 0
M  V30 6375 C 623.212 2.27079 -0.311072 0
M  V30 6376 C 624.225 1.53758 0.53502 0
M  V30 6377 O 625.414 1.74947 0.354378 0
M  V30 6378 C 622.514 3.33965 0.576228 0
M  V30 6379 C 621.687 4.36735 -0.241064 0
M  V30 6380 C 620.746 5.23028 0.576916 0
M  V30 6381 O 619.772 5.692 -0.000802231 0
M  V30 6382 N 620.974 5.49016 1.88579 0
M  V30 6383 H 623.739 2.77065 -1.14259 0
M  V30 6384 H 621.3 1.43519 -0.749258 0
M  V30 6385 H 623.292 3.88618 1.12953 0
M  V30 6386 H 621.862 2.839 1.30842 0
M  V30 6387 H 621.082 3.81932 -0.975805 0
M  V30 6388 H 622.37 5.02451 -0.801272 0
M  V30 6389 H 621.768 5.13288 2.37806 0
M  V30 6390 H 620.325 6.06539 2.38651 0
M  V30 6391 N 623.758 0.647228 1.43697 0
M  V30 6392 C 625.004 0.167001 2.02713 0
M  V30 6393 C 625.359 -1.20351 1.50111 0
M  V30 6394 O 624.652 -1.79047 0.682113 0
M  V30 6395 C 624.846 0.111481 3.57226 0
M  V30 6396 C 624.675 1.47507 4.2482 0
M  V30 6397 C 623.445 2.06594 4.61137 0
M  V30 6398 C 625.643 2.41224 4.54219 0
M  V30 6399 N 623.625 3.3602 5.13774 0
M  V30 6400 C 624.996 3.55278 5.08112 0
M  V30 6401 C 627.051 2.40102 4.36183 0
M  V30 6402 C 625.754 4.68426 5.45866 0
M  V30 6403 C 627.78 3.52326 4.74995 0
M  V30 6404 C 627.142 4.65104 5.29015 0
M  V30 6405 H 623.241 0.105402 0.774864 0
M  V30 6406 H 625.825 0.854229 1.7496 0
M  V30 6407 H 623.996 -0.545073 3.84556 0
M  V30 6408 H 625.728 -0.379063 4.02921 0
M  V30 6409 H 622.483 1.59366 4.45981 0
M  V30 6410 H 622.907 4.02233 5.44552 0
M  V30 6411 H 627.549 1.54151 3.93697 0
M  V30 6412 H 625.267 5.55074 5.87298 0
M  V30 6413 H 628.853 3.52652 4.6274 0
M  V30 6414 H 627.733 5.50506 5.58492 0
M  V30 6415 N 625.236 -1.5273 0.388769 0
M  V30 6416 C 626.166 -2.29353 -0.438111 0
M  V30 6417 C 627.147 -1.32719 -1.06394 0
M  V30 6418 O 628.332 -1.61612 -1.07681 0
M  V30 6419 C 625.462 -3.09995 -1.56589 0
M  V30 6420 C 624.416 -4.14509 -1.06613 0
M  V30 6421 C 623.742 -4.83372 -2.28594 0
M  V30 6422 C 625.042 -5.22127 -0.134459 0
M  V30 6423 H 626.736 -2.98723 0.201206 0
M  V30 6424 H 624.282 -1.43665 0.0982089 0
M  V30 6425 H 626.235 -3.62357 -2.15118 0
M  V30 6426 H 624.959 -2.38357 -2.23279 0
M  V30 6427 H 623.618 -3.63128 -0.503383 0
M  V30 6428 H 623.266 -4.08283 -2.93792 0
M  V30 6429 H 622.966 -5.54012 -1.95817 0
M  V30 6430 H 624.49 -5.38538 -2.87766 0
M  V30 6431 H 625.904 -5.69851 -0.627914 0
M  V30 6432 H 624.301 -6.00011 0.103534 0
M  V30 6433 H 625.371 -4.77971 0.816798 0
M  V30 6434 N 626.714 -0.118576 -1.57153 0
M  V30 6435 C 627.944 0.546466 -1.99242 0
M  V30 6436 C 628.352 1.60791 -0.997148 0
M  V30 6437 O 627.695 1.83691 0.0181745 0
M  V30 6438 C 627.757 1.23167 -3.37743 0
M  V30 6439 C 627.421 0.318226 -4.55891 0
M  V30 6440 C 628.418 -0.442988 -5.18009 0
M  V30 6441 C 626.103 0.229421 -5.01776 0
M  V30 6442 C 628.097 -1.28074 -6.244 0
M  V30 6443 C 625.784 -0.611966 -6.08028 0
M  V30 6444 C 626.782 -1.36568 -6.69207 0
M  V30 6445 O 626.47 -2.1931 -7.73407 0
M  V30 6446 H 626.202 0.149297 -0.659307 0
M  V30 6447 H 628.756 -0.201603 -2.04408 0
M  V30 6448 H 626.986 2.0268 -3.29329 0
M  V30 6449 H 628.675 1.79358 -3.64123 0
M  V30 6450 H 629.441 -0.38425 -4.83475 0
M  V30 6451 H 625.32 0.805771 -4.53903 0
M  V30 6452 H 628.864 -1.86952 -6.72082 0
M  V30 6453 H 624.761 -0.6721 -6.41991 0
M  V30 6454 H 625.529 -2.12247 -7.90502 0
M  V30 6455 N 628.193 1.56834 0.155195 0
M  V30 6456 C 629.44 1.82898 0.869179 0
M  V30 6457 C 629.768 0.698194 1.81537 0
M  V30 6458 O 629.023 -0.313404 1.93174 0
M  V30 6459 C 629.322 3.15239 1.68402 0
M  V30 6460 C 628.988 4.42123 0.885341 0
M  V30 6461 C 627.65 4.76583 0.664971 0
M  V30 6462 C 630.002 5.20178 0.326234 0
M  V30 6463 C 627.33 5.86566 -0.125346 0
M  V30 6464 C 629.682 6.3099 -0.45108 0
M  V30 6465 C 628.346 6.64006 -0.682102 0
M  V30 6466 H 627.616 0.66927 0.318055 0
M  V30 6467 H 630.263 1.91036 0.133241 0
M  V30 6468 H 628.568 3.02515 2.48982 0
M  V30 6469 H 630.265 3.32618 2.23978 0
M  V30 6470 H 626.855 4.15102 1.06716 0
M  V30 6471 H 631.039 4.93936 0.483787 0
M  V30 6472 H 626.295 6.10594 -0.313915 0
M  V30 6473 H 630.469 6.9067 -0.89149 0
M  V30 6474 H 628.096 7.49065 -1.29636 0
M  V30 6475 N 629.671 -0.424282 1.51781 0
M  V30 6476 C 630.948 -1.18464 1.55646 0
M  V30 6477 C 631.328 -2.08529 0.328438 0
M  V30 6478 O 630.676 -2.17969 -0.685693 0
M  V30 6479 C 630.886 -1.97514 2.87731 0
M  V30 6480 C 632.234 -2.54106 3.40169 0
M  V30 6481 O 633.258 -2.07711 2.89369 0
M  V30 6482 O 632.117 -3.38759 4.28841 0
M  V30 6483 H 629.211 -0.540055 0.626314 0
M  V30 6484 H 631.757 -0.432291 1.64102 0
M  V30 6485 H 630.529 -1.31444 3.68562 0
M  V30 6486 H 630.152 -2.79787 2.82498 0
M  V30 6487 N 631.149 -1.42148 -0.680565 0
M  V30 6488 C 632.112 -1.4488 -1.77602 0
M  V30 6489 C 633.112 -0.337209 -1.57224 0
M  V30 6490 O 634.302 -0.597778 -1.63622 0
M  V30 6491 C 631.434 -1.27483 -3.16166 0
M  V30 6492 H 632.627 -2.42412 -1.76568 0
M  V30 6493 H 630.18 -1.28511 -0.889645 0
M  V30 6494 H 630.915 -0.30851 -3.22829 0
M  V30 6495 H 630.7 -2.08037 -3.3236 0
M  V30 6496 H 632.19 -1.32265 -3.96101 0
M  V30 6497 N 632.627 0.916307 -1.28225 0
M  V30 6498 C 633.557 2.0352 -1.14464 0
M  V30 6499 C 634.538 1.70045 -0.0430844 0
M  V30 6500 O 635.723 1.92954 -0.219619 0
M  V30 6501 C 632.853 3.37889 -0.803027 0
M  V30 6502 C 631.807 3.85516 -1.85908 0
M  V30 6503 C 631.133 5.1682 -1.37116 0
M  V30 6504 C 632.433 4.07655 -3.26519 0
M  V30 6505 H 634.127 2.1529 -2.08064 0
M  V30 6506 H 631.673 1.03446 -1.00174 0
M  V30 6507 H 633.626 4.15654 -0.693537 0
M  V30 6508 H 632.35 3.26164 0.168674 0
M  V30 6509 H 631.009 3.09953 -1.95767 0
M  V30 6510 H 630.657 5.01497 -0.38859 0
M  V30 6511 H 630.357 5.49657 -2.07728 0
M  V30 6512 H 631.881 5.97143 -1.27484 0
M  V30 6513 H 633.295 4.75953 -3.19596 0
M  V30 6514 H 631.692 4.51818 -3.94943 0
M  V30 6515 H 632.762 3.12553 -3.70727 0
M  V30 6516 N 634.105 1.10431 1.1244 0
M  V30 6517 C 635.015 0.765502 2.21759 0
M  V30 6518 C 636.031 -0.236966 1.72379 0
M  V30 6519 O 637.207 -0.0757329 2.01258 0
M  V30 6520 C 634.272 0.202316 3.46109 0
M  V30 6521 C 633.333 1.26205 4.1033 0
M  V30 6522 C 632.566 0.725648 5.28744 0
M  V30 6523 O 632.789 -0.447942 5.68638 0
M  V30 6524 O 631.723 1.48555 5.83279 0
M  V30 6525 H 635.549 1.67801 2.53133 0
M  V30 6526 H 633.134 0.879443 1.20773 0
M  V30 6527 H 635.016 -0.107918 4.21262 0
M  V30 6528 H 633.691 -0.683052 3.16411 0
M  V30 6529 H 632.598 1.62514 3.36957 0
M  V30 6530 H 633.931 2.12044 4.44183 0
M  V30 6531 N 635.583 -1.29855 0.893053 0
M  V30 6532 C 636.823 -1.97612 0.522399 0
M  V30 6533 C 637.187 -1.68903 -0.913 0
M  V30 6534 O 638.388 -2.30059 -1.39019 0
M  V30 6535 C 636.659 -3.48356 0.79893 0
M  V30 6536 S 638.218 -4.35568 0.531588 0
M  V30 6537 H 635.036 -0.684005 0.194058 0
M  V30 6538 H 637.638 -1.57803 1.15406 0
M  V30 6539 H 636.342 -3.66743 1.84196 0
M  V30 6540 H 635.873 -3.93094 0.155133 0
M  V30 6541 H 637.888 -4.92232 -0.626295 0
M  V30 6542 N 637.061 -0.65484 -1.43351 0
M  V30 6543 C 637.991 0.0221809 -2.33489 0
M  V30 6544 C 638.972 0.810272 -1.49561 0
M  V30 6545 O 640.157 0.771426 -1.78221 0
M  V30 6546 C 637.287 0.988117 -3.32947 0
M  V30 6547 C 636.241 0.310026 -4.26876 0
M  V30 6548 C 635.567 1.38752 -5.16384 0
M  V30 6549 C 636.867 -0.798589 -5.16159 0
M  V30 6550 H 638.561 -0.730571 -2.9035 0
M  V30 6551 H 636.107 -0.352773 -1.39612 0
M  V30 6552 H 638.06 1.47067 -3.94904 0
M  V30 6553 H 636.784 1.77205 -2.74346 0
M  V30 6554 H 635.443 -0.152097 -3.66284 0
M  V30 6555 H 635.091 2.16293 -4.54121 0
M  V30 6556 H 634.791 0.939051 -5.80048 0
M  V30 6557 H 636.315 1.87141 -5.81215 0
M  V30 6558 H 637.729 -0.398126 -5.71916 0
M  V30 6559 H 636.126 -1.17163 -5.88552 0
M  V30 6560 H 637.196 -1.65588 -4.55751 0
M  V30 6561 N 638.539 1.52521 -0.396863 0
M  V30 6562 C 639.95 1.86547 0.0754868 0
M  V30 6563 C 640.301 1.31621 1.45501 0
M  V30 6564 O 639.426 0.650563 2.0639 0
M  V30 6565 C 640.021 3.38495 0.143754 0
M  V30 6566 C 638.58 3.72205 0.560413 0
M  V30 6567 C 637.727 2.75954 -0.272856 0
M  V30 6568 H 640.678 1.46323 -0.614434 0
M  V30 6569 H 640.699 3.68153 0.961425 0
M  V30 6570 H 640.211 3.78442 -0.860415 0
M  V30 6571 H 638.312 3.3783 1.57167 0
M  V30 6572 H 638.425 4.78074 0.313314 0
M  V30 6573 H 636.789 2.53339 0.263 0
M  V30 6574 H 637.572 3.1874 -1.27515 0
M  V30 6575 N 640.017 0.126909 1.57088 0
M  V30 6576 C 640.927 -0.833867 2.1928 0
M  V30 6577 C 641.943 -1.2868 1.17122 0
M  V30 6578 O 643.119 -1.34815 1.49622 0
M  V30 6579 C 640.184 -2.0632 2.78627 0
M  V30 6580 C 639.245 -1.66143 3.95847 0
M  V30 6581 C 638.478 -2.83217 4.52354 0
M  V30 6582 O 638.701 -3.98868 4.0775 0
M  V30 6583 O 637.635 -2.59846 5.42922 0
M  V30 6584 H 641.461 -0.334564 3.01852 0
M  V30 6585 H 639.046 -0.0991091 1.49071 0
M  V30 6586 H 640.928 -2.78304 3.16425 0
M  V30 6587 H 639.603 -2.55242 1.99082 0
M  V30 6588 H 638.51 -0.912435 3.62802 0
M  V30 6589 H 639.843 -1.21957 4.76852 0
M  V30 6590 N 641.495 -1.56914 -0.146875 0
M  V30 6591 C 642.772 -1.74273 -0.888165 0
M  V30 6592 C 643.152 -0.69496 -1.99333 0
M  V30 6593 O 642.5 0.286093 -2.26702 0
M  V30 6594 C 642.71 -3.18336 -1.43051 0
M  V30 6595 C 644.058 -3.80024 -1.89387 0
M  V30 6596 O 645.082 -3.21765 -1.52792 0
M  V30 6597 O 643.941 -4.82367 -2.56874 0
M  V30 6598 H 641.035 -0.712565 -0.419738 0
M  V30 6599 H 643.581 -1.6918 -0.132791 0
M  V30 6600 H 642.353 -3.86092 -0.636274 0
M  V30 6601 H 641.976 -3.27854 -2.24938 0
M  V30 6602 N 642.974 0.416227 -1.52004 0
M  V30 6603 C 643.921 1.50666 -1.74838 0
M  V30 6604 C 644.891 1.55245 -0.590599 0
M  V30 6605 O 646.076 1.71928 -0.827374 0
M  V30 6606 C 643.216 2.88185 -1.89851 0
M  V30 6607 C 642.329 2.92971 -3.17478 0
M  V30 6608 C 641.464 4.21745 -3.22962 0
M  V30 6609 C 640.503 4.20478 -4.4482 0
M  V30 6610 N 639.64 5.40811 -4.47736 0
M  V30 6611 H 644.48 1.30498 -2.67907 0
M  V30 6612 H 642.017 0.633568 -1.32757 0
M  V30 6613 H 643.975 3.68007 -1.96537 0
M  V30 6614 H 642.605 3.06865 -1.00169 0
M  V30 6615 H 641.657 2.05684 -3.19997 0
M  V30 6616 H 642.969 2.87899 -4.07328 0
M  V30 6617 H 642.123 5.09954 -3.28682 0
M  V30 6618 H 640.862 4.29503 -2.31038 0
M  V30 6619 H 639.867 3.30659 -4.39254 0
M  V30 6620 H 641.092 4.14366 -5.38031 0
M  V30 6621 H 639.038 5.4925 -3.58692 0
M  V30 6622 H 638.955 5.37705 -5.31422 0
M  V30 6623 H 640.223 6.30993 -4.57676 0
M  V30 6624 N 644.452 1.42507 0.673017 0
M  V30 6625 C 645.362 1.4853 1.81593 0
M  V30 6626 C 646.378 0.373907 1.69935 0
M  V30 6627 O 647.554 0.625078 1.91454 0
M  V30 6628 C 644.619 1.387 3.17747 0
M  V30 6629 C 643.68 2.60346 3.41348 0
M  V30 6630 C 642.913 2.50975 4.71007 0
M  V30 6631 O 643.136 1.54659 5.49033 0
M  V30 6632 O 642.07 3.41138 4.95892 0
M  V30 6633 H 645.896 2.45001 1.79467 0
M  V30 6634 H 643.481 1.2429 0.82899 0
M  V30 6635 H 645.363 1.35586 3.98992 0
M  V30 6636 H 644.038 0.453555 3.20507 0
M  V30 6637 H 642.945 2.69034 2.59945 0
M  V30 6638 H 644.278 3.52595 3.43421 0
M  V30 6639 N 645.93 -0.909495 1.28709 0
M  V30 6640 C 647.176 -1.66151 1.16283 0
M  V30 6641 C 647.509 -1.92067 -0.287069 0
M  V30 6642 O 646.784 -1.52409 -1.20837 0
M  V30 6643 C 647.067 -3.01676 1.9663 0
M  V30 6644 C 646.92 -2.82888 3.49707 0
M  V30 6645 C 648.239 -4.02274 1.78504 0
M  V30 6646 H 645.358 -0.602966 0.423793 0
M  V30 6647 H 648 -1.05418 1.58073 0
M  V30 6648 H 646.15 -3.53515 1.61119 0
M  V30 6649 H 647.822 -2.38026 3.95147 0
M  V30 6650 H 646.065 -2.17862 3.75125 0
M  V30 6651 H 646.736 -3.79147 4.01187 0
M  V30 6652 H 649.212 -3.59511 2.09503 0
M  V30 6653 H 648.088 -4.95056 2.37088 0
M  V30 6654 H 648.349 -4.35903 0.737647 0
M  V30 6655 N 647.408 -1.11026 -1.11852 0
M  V30 6656 C 648.338 -0.786812 -2.19844 0
M  V30 6657 C 649.319 0.242935 -1.68356 0
M  V30 6658 O 650.504 0.107355 -1.93903 0
M  V30 6659 C 647.634 -0.224516 -3.46574 0
M  V30 6660 C 646.588 -1.18564 -4.1125 0
M  V30 6661 C 645.914 -0.484261 -5.32503 0
M  V30 6662 C 647.214 -2.53465 -4.56676 0
M  V30 6663 H 648.908 -1.68978 -2.47158 0
M  V30 6664 H 646.454 -0.813906 -1.18792 0
M  V30 6665 H 648.407 0.0139435 -4.21398 0
M  V30 6666 H 647.131 0.713722 -3.18706 0
M  V30 6667 H 645.79 -1.40966 -3.38414 0
M  V30 6668 H 645.438 0.458646 -5.00905 0
M  V30 6669 H 645.138 -1.12526 -5.76725 0
M  V30 6670 H 646.662 -0.254492 -6.10069 0
M  V30 6671 H 648.076 -2.35177 -5.22843 0
M  V30 6672 H 646.473 -3.13507 -5.11697 0
M  V30 6673 H 647.543 -3.13008 -3.70343 0
M  V30 6674 N 648.886 1.2938 -0.899927 0
M  V30 6675 C 650.114 1.99691 -0.541386 0
M  V30 6676 C 650.529 1.67355 0.873936 0
M  V30 6677 O 649.886 0.918728 1.57688 0
M  V30 6678 C 649.937 3.54168 -0.72438 0
M  V30 6679 O 649.658 3.85359 -2.08399 0
M  V30 6680 C 651.159 4.41746 -0.370819 0
M  V30 6681 H 648.379 0.638037 -0.207726 0
M  V30 6682 H 650.923 1.6491 -1.20934 0
M  V30 6683 H 649.078 3.87261 -0.103607 0
M  V30 6684 H 649.492 4.80032 -2.11352 0
M  V30 6685 H 650.966 5.49256 -0.549693 0
M  V30 6686 H 651.443 4.33712 0.692148 0
M  V30 6687 H 652.049 4.14125 -0.968543 0
M  V30 6688 N 650.364 0.662433 1.43002 0
M  V30 6689 C 651.274 -0.0239199 2.34588 0
M  V30 6690 C 652.29 -0.802255 1.54402 0
M  V30 6691 O 653.466 -0.747401 1.87018 0
M  V30 6692 C 650.531 -0.972098 3.32793 0
M  V30 6693 C 649.592 -0.189673 4.28881 0
M  V30 6694 C 648.825 -1.09269 5.22395 0
M  V30 6695 O 649.048 -2.33209 5.20547 0
M  V30 6696 O 647.982 -0.560136 5.99288 0
M  V30 6697 H 651.808 0.730171 2.94792 0
M  V30 6698 H 649.393 0.422635 1.43297 0
M  V30 6699 H 651.275 -1.51676 3.93157 0
M  V30 6700 H 649.95 -1.70626 2.75079 0
M  V30 6701 H 648.857 0.398794 3.71968 0
M  V30 6702 H 650.19 0.50511 4.89601 0
M  V30 6703 N 651.842 -1.52309 0.404946 0
M  V30 6704 C 653.119 -1.94237 -0.230544 0
M  V30 6705 C 653.499 -1.34154 -1.6299 0
M  V30 6706 O 652.847 -0.515713 -2.22604 0
M  V30 6707 C 653.057 -3.48166 -0.241106 0
M  V30 6708 C 654.405 -4.22074 -0.462488 0
M  V30 6709 O 655.429 -3.54754 -0.320644 0
M  V30 6710 O 654.288 -5.41443 -0.741708 0
M  V30 6711 H 651.382 -0.813766 -0.147358 0
M  V30 6712 H 653.928 -1.6333 0.460587 0
M  V30 6713 H 652.7 -3.84269 0.738467 0
M  V30 6714 H 652.323 -3.85422 -0.97651 0
M  V30 6715 N 653.32 -0.135238 -1.57019 0
M  V30 6716 C 654.267 0.808908 -2.1616 0
M  V30 6717 C 655.237 1.25234 -1.09113 0
M  V30 6718 O 656.422 1.32697 -1.37099 0
M  V30 6719 C 653.562 2.04729 -2.77813 0
M  V30 6720 C 652.675 1.65074 -3.99218 0
M  V30 6721 C 651.81 2.84002 -4.48906 0
M  V30 6722 C 650.849 2.40663 -5.62803 0
M  V30 6723 N 649.986 3.5256 -6.07162 0
M  V30 6724 H 654.826 0.297751 -2.96509 0
M  V30 6725 H 652.363 0.135264 -1.46477 0
M  V30 6726 H 654.321 2.7731 -3.11697 0
M  V30 6727 H 652.951 2.53275 -2.00128 0
M  V30 6728 H 652.003 0.823029 -3.7139 0
M  V30 6729 H 653.315 1.29236 -4.81767 0
M  V30 6730 H 652.469 3.64788 -4.84783 0
M  V30 6731 H 651.208 3.23076 -3.65339 0
M  V30 6732 H 650.213 1.58314 -5.26514 0
M  V30 6733 H 651.438 2.02687 -6.48147 0
M  V30 6734 H 649.384 3.91278 -5.26534 0
M  V30 6735 H 649.301 3.20699 -6.84608 0
M  V30 6736 H 650.569 4.33738 -6.47682 0
M  V30 6737 N 654.798 1.5699 0.138552 0
M  V30 6738 C 656.038 1.85619 0.855849 0
M  V30 6739 C 656.402 0.720663 1.77962 0
M  V30 6740 O 657.603 0.888221 2.53701 0
M  V30 6741 C 655.874 3.19447 1.60275 0
M  V30 6742 S 657.433 3.69656 2.36431 0
M  V30 6743 H 654.251 0.650926 0.286035 0
M  V30 6744 H 656.853 1.9516 0.115331 0
M  V30 6745 H 655.557 4.00053 0.915737 0
M  V30 6746 H 655.088 3.12935 2.38402 0
M  V30 6747 H 657.103 3.39595 3.61787 0
M  V30 6748 N 656.276 -0.40816 1.52223 0
M  V30 6749 C 657.206 -1.5042 1.78595 0
M  V30 6750 C 658.187 -1.57723 0.636974 0
M  V30 6751 O 659.372 -1.72982 0.882664 0
M  V30 6752 C 656.502 -2.88232 1.93751 0
M  V30 6753 C 655.456 -2.95779 3.09352 0
M  V30 6754 C 654.782 -4.35855 3.09732 0
M  V30 6755 C 656.082 -2.67175 4.48793 0
M  V30 6756 H 657.776 -1.28601 2.70374 0
M  V30 6757 H 655.322 -0.617221 1.30101 0
M  V30 6758 H 657.275 -3.64895 2.10783 0
M  V30 6759 H 655.999 -3.11347 0.986443 0
M  V30 6760 H 654.658 -2.21561 2.92072 0
M  V30 6761 H 654.306 -4.55981 2.12346 0
M  V30 6762 H 654.006 -4.41829 3.87377 0
M  V30 6763 H 655.53 -5.14451 3.28895 0
M  V30 6764 H 656.944 -3.3356 4.66273 0
M  V30 6765 H 655.341 -2.84523 5.28362 0
M  V30 6766 H 656.411 -1.62609 4.56822 0
M  V30 6767 N 657.755 -1.42862 -0.66545 0
M  V30 6768 C 658.687 -1.43026 -1.79098 0
M  V30 6769 C 659.7 -0.32803 -1.59461 0
M  V30 6770 O 660.889 -0.591709 -1.68407 0
M  V30 6771 C 657.989 -1.21566 -3.16346 0
M  V30 6772 C 657.162 -2.44399 -3.62751 0
M  V30 6773 C 656.221 -2.18344 -4.78761 0
M  V30 6774 O 655.247 -2.91611 -4.88827 0
M  V30 6775 N 656.449 -1.1924 -5.68122 0
M  V30 6776 H 659.214 -2.40045 -1.79439 0
M  V30 6777 H 656.775 -1.37861 -0.848872 0
M  V30 6778 H 658.767 -1.02037 -3.91625 0
M  V30 6779 H 657.337 -0.330368 -3.10849 0
M  V30 6780 H 656.557 -2.79433 -2.78048 0
M  V30 6781 H 657.845 -3.26173 -3.90498 0
M  V30 6782 H 657.243 -0.586603 -5.6265 0
M  V30 6783 H 655.8 -1.05698 -6.43173 0
M  V30 6784 N 659.233 0.902656 -1.29189 0
M  V30 6785 C 660.649 1.18296 -1.07137 0
M  V30 6786 C 660.849 2.00701 0.179223 0
M  V30 6787 O 659.905 2.3675 0.877812 0
M  V30 6788 C 661.218 1.90677 -2.32514 0
M  V30 6789 C 662.766 2.03515 -2.37804 0
M  V30 6790 C 663.241 2.79307 -3.62976 0
M  V30 6791 N 664.732 2.86862 -3.63681 0
M  V30 6792 C 665.467 3.46035 -4.57217 0
M  V30 6793 N 664.963 4.06399 -5.61081 0
M  V30 6794 N 666.756 3.43681 -4.44792 0
M  V30 6795 H 658.907 0.352765 -2.0945 0
M  V30 6796 H 661.17 0.21876 -0.922414 0
M  V30 6797 H 660.876 1.3756 -3.23682 0
M  V30 6798 H 660.75 2.91169 -2.39793 0
M  V30 6799 H 663.137 2.55809 -1.47125 0
M  V30 6800 H 663.218 1.02166 -2.34512 0
M  V30 6801 H 662.862 2.2769 -4.54004 0
M  V30 6802 H 662.792 3.80995 -3.63525 0
M  V30 6803 H 665.283 2.43987 -2.88581 0
M  V30 6804 H 665.596 4.49564 -6.2858 0
M  V30 6805 H 663.941 4.0487 -5.64894 0
M  V30 6806 H 667.132 2.9574 -3.62843 0
M  V30 6807 H 667.305 3.89503 -5.17872 0
M  V30 6808 N 660.711 1.11618 1.11262 0
M  V30 6809 C 661.643 0.734015 2.17129 0
M  V30 6810 C 662.656 -0.235243 1.61091 0
M  V30 6811 O 663.845 -0.0178597 1.78491 0
M  V30 6812 C 660.945 0.0643682 3.38839 0
M  V30 6813 C 660.118 1.06092 4.24339 0
M  V30 6814 C 659.177 0.420482 5.24517 0
M  V30 6815 O 658.203 1.07495 5.58957 0
M  V30 6816 N 659.405 -0.815828 5.74739 0
M  V30 6817 H 662.17 1.64492 2.50524 0
M  V30 6818 H 659.731 1.00664 1.26801 0
M  V30 6819 H 661.723 -0.375851 4.02951 0
M  V30 6820 H 660.293 -0.749147 3.03491 0
M  V30 6821 H 659.513 1.67903 3.56654 0
M  V30 6822 H 660.801 1.73507 4.78302 0
M  V30 6823 H 660.199 -1.36668 5.48943 0
M  V30 6824 H 658.756 -1.199 6.40677 0
M  V30 6825 N 662.189 -1.289 0.906776 0
M  V30 6826 C 663.137 -2.29477 0.379873 0
M  V30 6827 C 664.131 -1.61068 -0.524747 0
M  V30 6828 O 665.337 -1.75344 -0.406765 0
M  V30 6829 H 661.712 -0.744742 0.10423 0
M  V30 6830 H 663.683 -2.71353 1.24137 0
M  V30 6831 C 662.432 -3.45713 -0.371154 0
M  V30 6832 H 661.755 -3.98551 0.315716 0
M  V30 6833 H 663.195 -4.18105 -0.704581 0
M  V30 6834 C 661.654 -2.9774 -1.57646 0
M  V30 6835 O 662.184 -2.99618 -2.67567 0
M  V30 6836 N 660.39 -2.53485 -1.42105 0
M  V30 6837 H 659.937 -2.52156 -0.526783 0
M  V30 6838 H 659.895 -2.21747 -2.22881 0
M  V30 6839 N 663.667 -0.670007 -1.42649 0
M  V30 6840 C 665.083 -0.33911 -1.55956 0
M  V30 6841 C 665.283 1.1558 -1.65056 0
M  V30 6842 O 664.339 1.94111 -1.61485 0
M  V30 6843 C 665.652 -1.06522 -2.812 0
M  V30 6844 C 667.2 -1.04708 -2.94966 0
M  V30 6845 C 667.675 -1.75442 -4.23065 0
M  V30 6846 N 669.166 -1.72286 -4.29967 0
M  V30 6847 C 669.901 -2.23877 -5.27889 0
M  V30 6848 N 669.397 -2.83829 -6.31991 0
M  V30 6849 N 671.19 -2.14279 -5.19654 0
M  V30 6850 H 663.341 -1.6399 -1.34986 0
M  V30 6851 H 665.604 -0.690603 -0.649439 0
M  V30 6852 H 665.31 -2.12033 -2.80597 0
M  V30 6853 H 665.184 -0.627398 -3.71946 0
M  V30 6854 H 667.571 -0.000315966 -2.951 0
M  V30 6855 H 667.652 -1.52374 -2.05465 0
M  V30 6856 H 667.296 -2.80084 -4.23693 0
M  V30 6857 H 667.226 -1.25229 -5.11493 0
M  V30 6858 H 669.717 -1.28554 -3.55362 0
M  V30 6859 H 670.03 -3.20827 -7.03057 0
M  V30 6860 H 668.375 -2.87896 -6.32567 0
M  V30 6861 H 671.566 -1.67135 -4.37245 0
M  V30 6862 H 671.739 -2.54792 -5.95806 0
M  V30 6863 N 665.145 1.52092 -0.413018 0
M  V30 6864 C 666.375 2.05974 0.160648 0
M  V30 6865 C 666.783 1.28267 1.39084 0
M  V30 6866 O 666.126 0.328805 1.80733 0
M  V30 6867 C 666.188 3.54918 0.572169 0
M  V30 6868 C 665.852 4.53705 -0.547826 0
M  V30 6869 C 666.849 5.00342 -1.41259 0
M  V30 6870 C 664.534 4.97089 -0.721627 0
M  V30 6871 C 666.528 5.89011 -2.43607 0
M  V30 6872 C 664.215 5.85554 -1.74841 0
M  V30 6873 C 665.213 6.3141 -2.60403 0
M  V30 6874 O 664.901 7.18123 -3.61323 0
M  V30 6875 H 664.633 0.675636 0.0221936 0
M  V30 6876 H 667.187 1.96931 -0.58373 0
M  V30 6877 H 665.417 3.61661 1.36889 0
M  V30 6878 H 667.106 3.91428 1.0742 0
M  V30 6879 H 667.872 4.67537 -1.28974 0
M  V30 6880 H 663.751 4.60954 -0.0652911 0
M  V30 6881 H 667.295 6.24725 -3.10425 0
M  V30 6882 H 663.192 6.17773 -1.87156 0
M  V30 6883 H 663.96 7.36244 -3.57613 0
M  V30 6884 N 666.623 0.143563 1.56945 0
M  V30 6885 C 667.9 -0.553285 1.87612 0
M  V30 6886 C 668.28 -1.83195 1.04894 0
M  V30 6887 O 667.628 -2.28102 0.134773 0
M  V30 6888 C 667.838 -0.822055 3.3918 0
M  V30 6889 C 669.186 -1.16435 4.08324 0
M  V30 6890 O 670.21 -0.911522 3.4434 0
M  V30 6891 O 669.069 -1.63996 5.21313 0
M  V30 6892 H 666.163 -0.281851 0.777489 0
M  V30 6893 H 668.709 0.179916 1.68744 0
M  V30 6894 H 667.481 0.0830265 3.91212 0
M  V30 6895 H 667.104 -1.60956 3.63564 0
M  V30 6896 N 668.101 -1.57061 -0.130224 0
M  V30 6897 C 669.349 -1.83893 -0.838313 0
M  V30 6898 C 669.67 -0.727046 -1.80939 0
M  V30 6899 O 668.94 0.249927 -1.94299 0
M  V30 6900 H 667.52 -0.67846 -0.312573 0
M  V30 6901 H 670.182 -1.94529 -0.120224 0
M  V30 6902 H 669.278 -2.79419 -1.39038 0
M  V30 6903 N 669.579 0.400081 -1.52437 0
M  V30 6904 C 670.511 1.50729 -1.72666 0
M  V30 6905 C 671.524 1.51058 -0.607075 0
M  V30 6906 O 672.713 1.5516 -0.88248 0
M  V30 6907 C 669.813 2.89604 -1.76019 0
M  V30 6908 C 668.986 3.13365 -3.05157 0
M  V30 6909 C 668.045 4.32163 -3.00203 0
M  V30 6910 O 667.071 4.29004 -3.74092 0
M  V30 6911 N 668.273 5.3776 -2.18619 0
M  V30 6912 H 671.038 1.33767 -2.68191 0
M  V30 6913 H 668.599 0.58948 -1.50787 0
M  V30 6914 H 670.591 3.67159 -1.70225 0
M  V30 6915 H 669.161 2.99979 -0.879284 0
M  V30 6916 H 668.381 2.23774 -3.24529 0
M  V30 6917 H 669.669 3.26089 -3.90568 0
M  V30 6918 H 669.067 5.43177 -1.58035 0
M  V30 6919 H 667.624 6.14023 -2.18674 0
M  V30 6920 N 671.057 1.43213 0.657864 0
M  V30 6921 C 672.303 1.44798 1.41991 0
M  V30 6922 C 672.636 0.070256 1.94073 0
M  V30 6923 O 671.911 -0.908177 1.71995 0
M  V30 6924 C 672.194 2.4865 2.60471 0
M  V30 6925 C 672.047 3.95679 2.13911 0
M  V30 6926 C 673.366 2.49292 3.62686 0
M  V30 6927 H 670.485 0.527244 0.514959 0
M  V30 6928 H 673.127 1.74733 0.74621 0
M  V30 6929 H 671.277 2.23254 3.17946 0
M  V30 6930 H 672.949 4.32116 1.61472 0
M  V30 6931 H 671.192 4.08733 1.45325 0
M  V30 6932 H 671.863 4.6395 2.99089 0
M  V30 6933 H 674.339 2.71917 3.14961 0
M  V30 6934 H 673.215 3.23907 4.43143 0
M  V30 6935 H 673.476 1.52502 4.14964 0
M  V30 6936 N 672.536 -0.895792 1.29666 0
M  V30 6937 C 673.499 -1.98189 1.15124 0
M  V30 6938 C 674.499 -1.60572 0.0855717 0
M  V30 6939 O 675.689 -1.70991 0.332826 0
M  V30 6940 C 672.821 -3.32289 0.761372 0
M  V30 6941 H 674.014 -2.12518 2.11603 0
M  V30 6942 H 671.567 -1.0808 1.12908 0
M  V30 6943 H 672.302 -3.23662 -0.203393 0
M  V30 6944 H 672.087 -3.60958 1.53139 0
M  V30 6945 H 673.577 -4.1198 0.682792 0
M  V30 6946 N 674.014 -1.12206 -1.10668 0
M  V30 6947 C 675.26 -0.877172 -1.82848 0
M  V30 6948 C 675.593 0.595571 -1.84842 0
M  V30 6949 O 674.868 1.44013 -1.30731 0
M  V30 6950 C 675.151 -1.44957 -3.29635 0
M  V30 6951 C 675.004 -2.99051 -3.35989 0
M  V30 6952 C 676.323 -1.10714 -4.25946 0
M  V30 6953 H 673.442 -0.320103 -0.663854 0
M  V30 6954 H 676.084 -1.38827 -1.2972 0
M  V30 6955 H 674.234 -1.01488 -3.7501 0
M  V30 6956 H 675.906 -3.51182 -2.99113 0
M  V30 6957 H 674.149 -3.34705 -2.75962 0
M  V30 6958 H 674.82 -3.34194 -4.39339 0
M  V30 6959 H 677.296 -1.48254 -3.88793 0
M  V30 6960 H 676.172 -1.5343 -5.2702 0
M  V30 6961 H 676.433 -0.019 -4.42096 0
M  V30 6962 N 675.492 1.28418 -0.913599 0
M  V30 6963 C 676.739 1.94981 -0.546674 0
M  V30 6964 C 677.067 1.7192 0.909606 0
M  V30 6965 O 676.322 1.03314 1.66207 0
M  V30 6966 C 676.621 3.48283 -0.802099 0
M  V30 6967 C 676.287 3.91444 -2.2379 0
M  V30 6968 C 674.949 4.02939 -2.63046 0
M  V30 6969 C 677.301 4.13542 -3.17227 0
M  V30 6970 C 674.629 4.3391 -3.94891 0
M  V30 6971 C 676.981 4.45992 -4.48636 0
M  V30 6972 C 675.645 4.55698 -4.87746 0
M  V30 6973 H 674.915 0.713487 -0.200042 0
M  V30 6974 H 677.562 1.52756 -1.15489 0
M  V30 6975 H 675.867 3.91643 -0.111076 0
M  V30 6976 H 677.564 3.97903 -0.497375 0
M  V30 6977 H 674.154 3.83024 -1.9233 0
M  V30 6978 H 678.338 4.04114 -2.88107 0
M  V30 6979 H 673.594 4.39631 -4.24894 0
M  V30 6980 H 677.768 4.62038 -5.21051 0
M  V30 6981 H 675.395 4.79451 -5.89942 0
M  V30 6982 N 676.97 0.677563 1.42291 0
M  V30 6983 C 678.218 0.200578 2.01102 0
M  V30 6984 C 678.539 -1.19803 1.53858 0
M  V30 6985 O 677.809 -1.80496 0.761439 0
M  V30 6986 H 676.389 0.0711634 0.743603 0
M  V30 6987 H 679.051 0.874691 1.7417 0
M  V30 6988 H 678.147 0.204 3.11433 0
M  V30 6989 N 678.448 -1.51871 0.421078 0
M  V30 6990 C 679.673 -2.0684 -0.152371 0
M  V30 6991 C 680.098 -1.28802 -1.37083 0
M  V30 6992 O 679.456 -0.321482 -1.78427 0
M  V30 6993 C 679.504 -3.57532 -0.469368 0
M  V30 6994 O 678.608 -3.81818 -1.55848 0
M  V30 6995 H 677.949 -0.663939 -0.00898586 0
M  V30 6996 H 680.479 -1.95674 0.597724 0
M  V30 6997 H 680.489 -4.01515 -0.724553 0
M  V30 6998 H 679.164 -4.13761 0.421276 0
M  V30 6999 H 677.741 -3.49709 -1.29453 0
M  V30 7000 N 679.926 -0.151884 -1.56866 0
M  V30 7001 C 681.203 0.543328 -1.87902 0
M  V30 7002 C 681.583 1.82636 -1.05864 0
M  V30 7003 O 680.931 2.28028 -0.146868 0
M  V30 7004 C 681.141 0.804056 -3.39611 0
M  V30 7005 C 682.489 1.14267 -4.08935 0
M  V30 7006 O 683.513 0.893248 -3.44818 0
M  V30 7007 O 682.372 1.61229 -5.22176 0
M  V30 7008 H 679.466 0.277724 -0.778973 0
M  V30 7009 H 682.012 -0.188862 -1.68646 0
M  V30 7010 H 680.784 -0.103772 -3.91162 0
M  V30 7011 H 680.407 1.59025 -3.64413 0
M  V30 7012 N 681.404 1.57128 0.121893 0
M  V30 7013 C 682.334 2.03165 1.15092 0
M  V30 7014 C 683.315 0.915587 1.43356 0
M  V30 7015 O 684.5 1.1851 1.53847 0
M  V30 7016 C 681.63 2.43352 2.47784 0
M  V30 7017 C 680.584 3.58376 2.33989 0
M  V30 7018 C 679.91 3.84454 3.71617 0
M  V30 7019 C 681.21 4.90199 1.80283 0
M  V30 7020 H 682.904 2.89382 0.768023 0
M  V30 7021 H 680.45 1.39218 0.367998 0
M  V30 7022 H 682.403 2.74163 3.20019 0
M  V30 7023 H 681.127 1.54103 2.87958 0
M  V30 7024 H 679.786 3.2777 1.64202 0
M  V30 7025 H 679.434 2.92414 4.09271 0
M  V30 7026 H 679.134 4.61877 3.6324 0
M  V30 7027 H 680.658 4.17714 4.45362 0
M  V30 7028 H 682.072 5.19565 2.42333 0
M  V30 7029 H 680.469 5.71601 1.82735 0
M  V30 7030 H 681.539 4.78904 0.760184 0
M  V30 7031 N 682.882 -0.391992 1.52647 0
M  V30 7032 C 683.814 -1.49811 1.73463 0
M  V30 7033 C 684.827 -1.50734 0.615078 0
M  V30 7034 O 686.016 -1.5469 0.890696 0
M  V30 7035 C 683.116 -2.88667 1.77552 0
M  V30 7036 C 682.289 -3.11743 3.06815 0
M  V30 7037 C 681.348 -4.30564 3.02491 0
M  V30 7038 O 680.374 -4.27014 3.76361 0
M  V30 7039 N 681.576 -5.36593 2.21468 0
M  V30 7040 H 684.341 -1.32343 2.68897 0
M  V30 7041 H 681.902 -0.581475 1.51098 0
M  V30 7042 H 683.894 -3.66251 1.7217 0
M  V30 7043 H 682.464 -2.99508 0.895181 0
M  V30 7044 H 681.684 -2.2205 3.25711 0
M  V30 7045 H 682.972 -3.24013 3.92292 0
M  V30 7046 H 682.37 -5.42332 1.60913 0
M  V30 7047 H 680.927 -6.12855 2.21928 0
M  V30 7048 N 684.36 -1.4356 -0.65026 0
M  V30 7049 C 685.27 -1.514 -1.79207 0
M  V30 7050 C 686.286 -0.400895 -1.69319 0
M  V30 7051 O 687.462 -0.655458 -1.90436 0
M  V30 7052 C 684.527 -1.43737 -3.155 0
M  V30 7053 C 683.588 -2.65743 -3.37163 0
M  V30 7054 C 682.821 -2.58436 -4.66954 0
M  V30 7055 O 683.044 -1.63374 -5.46503 0
M  V30 7056 O 681.978 -3.48984 -4.90402 0
M  V30 7057 H 685.804 -2.47825 -1.75547 0
M  V30 7058 H 683.389 -1.25594 -0.809111 0
M  V30 7059 H 685.271 -1.41916 -3.96784 0
M  V30 7060 H 683.946 -0.504488 -3.19745 0
M  V30 7061 H 682.853 -2.73136 -2.55632 0
M  V30 7062 H 684.186 -3.58014 -3.37768 0
M  V30 7063 N 685.838 0.888903 -1.30139 0
M  V30 7064 C 686.785 1.99422 -1.16188 0
M  V30 7065 C 687.755 1.66017 -0.0523869 0
M  V30 7066 O 688.94 1.89506 -0.221864 0
M  V30 7067 C 686.08 3.34325 -0.855612 0
M  V30 7068 C 685.193 3.80445 -2.0466 0
M  V30 7069 C 684.328 5.03975 -1.67876 0
M  V30 7070 C 683.367 5.42492 -2.83493 0
M  V30 7071 N 682.504 6.57206 -2.47032 0
M  V30 7072 H 687.344 2.10687 -2.10749 0
M  V30 7073 H 684.881 1.03165 -1.04859 0
M  V30 7074 H 686.839 4.11968 -0.658681 0
M  V30 7075 H 685.469 3.22756 0.0531155 0
M  V30 7076 H 684.521 2.98745 -2.3549 0
M  V30 7077 H 685.833 4.04933 -2.91257 0
M  V30 7078 H 684.987 5.89232 -1.44535 0
M  V30 7079 H 683.726 4.8135 -0.784431 0
M  V30 7080 H 682.731 4.55764 -3.07505 0
M  V30 7081 H 683.956 5.67093 -3.73607 0
M  V30 7082 H 681.902 6.36164 -1.601 0
M  V30 7083 H 681.819 6.81543 -3.27161 0
M  V30 7084 H 683.087 7.45704 -2.27038 0
M  V30 7085 N 687.317 1.12792 1.10072 0
M  V30 7086 C 688.247 0.821688 2.18565 0
M  V30 7087 C 689.228 -0.21612 1.68721 0
M  V30 7088 O 690.413 -0.0764932 1.94049 0
M  V30 7089 C 687.543 0.279624 3.46172 0
M  V30 7090 C 686.497 1.25092 4.09312 0
M  V30 7091 C 685.823 0.568916 5.31665 0
M  V30 7092 C 687.123 2.60699 4.52585 0
M  V30 7093 H 688.817 1.72888 2.44438 0
M  V30 7094 H 686.363 0.832702 1.17482 0
M  V30 7095 H 688.316 0.053099 4.21367 0
M  V30 7096 H 687.04 -0.662929 3.19801 0
M  V30 7097 H 685.699 1.46332 3.36129 0
M  V30 7098 H 685.347 -0.378898 5.01571 0
M  V30 7099 H 685.047 1.21687 5.74862 0
M  V30 7100 H 686.571 0.351517 6.09587 0
M  V30 7101 H 687.985 2.43465 5.19035 0
M  V30 7102 H 686.382 3.21608 5.06644 0
M  V30 7103 H 687.452 3.1886 3.65317 0
M  V30 7104 N 688.795 -1.27931 0.920396 0
M  V30 7105 C 690.043 -1.94304 0.555906 0
M  V30 7106 C 690.364 -1.72753 -0.904519 0
M  V30 7107 O 689.634 -1.07104 -1.64029 0
M  V30 7108 H 688.214 -0.719001 0.202599 0
M  V30 7109 H 690.876 -1.55785 1.1712 0
M  V30 7110 H 689.972 -3.02806 0.755981 0
M  V30 7111 N 690.273 -0.685099 -1.4193 0
M  V30 7112 C 691.22 -0.0131869 -2.30796 0
M  V30 7113 C 692.19 0.782129 -1.46533 0
M  V30 7114 O 693.375 0.75229 -1.75343 0
M  V30 7115 C 690.515 0.924768 -3.32479 0
M  V30 7116 C 689.628 0.122181 -4.31827 0
M  V30 7117 C 688.763 1.05682 -5.20581 0
M  V30 7118 C 687.802 0.246526 -6.11603 0
M  V30 7119 N 686.939 1.13442 -6.92875 0
M  V30 7120 H 691.779 -0.776789 -2.87698 0
M  V30 7121 H 689.316 -0.394791 -1.41703 0
M  V30 7122 H 691.274 1.48251 -3.89971 0
M  V30 7123 H 689.904 1.65488 -2.77152 0
M  V30 7124 H 688.956 -0.552335 -3.76369 0
M  V30 7125 H 690.268 -0.506473 -4.96222 0
M  V30 7126 H 689.422 1.68415 -5.82856 0
M  V30 7127 H 688.161 1.71935 -4.56388 0
M  V30 7128 H 687.166 -0.393944 -5.48387 0
M  V30 7129 H 688.391 -0.412053 -6.77849 0
M  V30 7130 H 686.337 1.78316 -6.313 0
M  V30 7131 H 686.254 0.561089 -7.53915 0
M  V30 7132 H 687.522 1.74889 -7.59628 0
M  V30 7133 N 691.751 1.51645 -0.429126 0
M  V30 7134 C 692.683 2.25279 0.422124 0
M  V30 7135 C 693.696 1.28986 0.993299 0
M  V30 7136 O 694.885 1.54797 0.888836 0
M  V30 7137 C 691.985 2.98666 1.60162 0
M  V30 7138 C 691.158 4.2199 1.15078 0
M  V30 7139 C 690.217 4.78028 2.19946 0
M  V30 7140 O 689.243 5.40084 1.79716 0
M  V30 7141 N 690.445 4.61342 3.5234 0
M  V30 7142 H 693.21 2.98971 -0.208931 0
M  V30 7143 H 690.771 1.59838 -0.257568 0
M  V30 7144 H 692.763 3.33044 2.29922 0
M  V30 7145 H 691.333 2.28036 2.13818 0
M  V30 7146 H 690.553 3.932 0.280552 0
M  V30 7147 H 691.841 5.02037 0.826831 0
M  V30 7148 H 691.239 4.11894 3.87763 0
M  V30 7149 H 689.796 5.00104 4.18019 0
M  V30 7150 N 693.229 0.160201 1.56784 0
M  V30 7151 C 694.176 -0.774416 2.1742 0
M  V30 7152 C 695.146 -1.23483 1.11091 0
M  V30 7153 O 696.331 -1.30499 1.39193 0
M  V30 7154 C 693.471 -2.00283 2.81035 0
M  V30 7155 C 692.584 -1.58701 4.01793 0
M  V30 7156 C 691.719 -2.76824 4.53367 0
M  V30 7157 C 690.758 -2.31679 5.66561 0
M  V30 7158 N 689.895 -3.42856 6.12694 0
M  V30 7159 H 694.735 -0.250542 2.96945 0
M  V30 7160 H 692.272 -0.111943 1.46673 0
M  V30 7161 H 694.23 -2.72316 3.16069 0
M  V30 7162 H 692.86 -2.5006 2.04132 0
M  V30 7163 H 691.912 -0.76384 3.72652 0
M  V30 7164 H 693.224 -1.21555 4.83762 0
M  V30 7165 H 692.378 -3.57029 4.90525 0
M  V30 7166 H 691.117 -3.17223 3.70433 0
M  V30 7167 H 690.122 -1.49917 5.28966 0
M  V30 7168 H 691.347 -1.9235 6.5129 0
M  V30 7169 H 689.293 -3.82852 5.32692 0
M  V30 7170 H 689.21 -3.09767 6.89624 0
M  V30 7171 H 690.478 -4.23379 6.545 0
M  V30 7172 N 694.707 -1.5719 -0.113559 0
M  V30 7173 C 695.937 -1.89053 -0.833212 0
M  V30 7174 C 696.345 -0.750139 -1.73694 0
M  V30 7175 O 695.688 0.287808 -1.81431 0
M  V30 7176 C 695.75 -3.15986 -1.71443 0
M  V30 7177 C 695.414 -4.46271 -0.984449 0
M  V30 7178 C 696.411 -5.18897 -0.322741 0
M  V30 7179 C 694.096 -4.92963 -0.964011 0
M  V30 7180 C 696.09 -6.3644 0.349646 0
M  V30 7181 C 693.777 -6.10422 -0.287828 0
M  V30 7182 C 694.775 -6.82009 0.36784 0
M  V30 7183 O 694.463 -7.97233 1.03322 0
M  V30 7184 H 694.195 -0.630225 -0.244526 0
M  V30 7185 H 696.749 -2.05152 -0.100847 0
M  V30 7186 H 694.979 -2.95984 -2.48858 0
M  V30 7187 H 696.668 -3.33826 -2.309 0
M  V30 7188 H 697.434 -4.83875 -0.330114 0
M  V30 7189 H 693.313 -4.37143 -1.46379 0
M  V30 7190 H 696.857 -6.92254 0.861996 0
M  V30 7191 H 692.754 -6.449 -0.278237 0
M  V30 7192 H 693.522 -8.13105 0.938247 0
M  V30 7193 N 696.185 0.383891 -1.52853 0
M  V30 7194 C 697.432 1.12842 -1.68146 0
M  V30 7195 C 697.76 1.89823 -0.423954 0
M  V30 7196 O 697.015 1.86475 0.593765 0
M  V30 7197 C 697.314 2.12881 -2.87082 0
M  V30 7198 C 696.98 1.52519 -4.24322 0
M  V30 7199 C 695.642 1.35783 -4.61645 0
M  V30 7200 C 697.994 1.0868 -5.09743 0
M  V30 7201 C 695.322 0.737643 -5.82044 0
M  V30 7202 C 697.674 0.480699 -6.30771 0
M  V30 7203 C 696.338 0.300681 -6.66822 0
M  V30 7204 H 695.608 0.412917 -0.615289 0
M  V30 7205 H 698.255 0.412416 -1.87006 0
M  V30 7206 H 696.56 2.90719 -2.62659 0
M  V30 7207 H 698.257 2.70408 -2.96109 0
M  V30 7208 H 694.847 1.66534 -3.94923 0
M  V30 7209 H 699.031 1.2041 -4.81472 0
M  V30 7210 H 694.287 0.586415 -6.08581 0
M  V30 7211 H 698.461 0.132733 -6.96273 0
M  V30 7212 H 696.088 -0.181966 -7.59982 0
M  V30 7213 N 697.663 1.43903 0.642637 0
M  V30 7214 C 698.593 1.52697 1.76652 0
M  V30 7215 C 699.574 0.380816 1.65782 0
M  V30 7216 O 700.759 0.599432 1.84717 0
M  V30 7217 C 697.889 1.45975 3.15133 0
M  V30 7218 C 696.843 2.58949 3.40778 0
M  V30 7219 C 696.169 2.37279 4.79169 0
M  V30 7220 C 697.469 4.01153 3.34475 0
M  V30 7221 H 699.163 2.46766 1.69549 0
M  V30 7222 H 696.709 1.18767 0.814279 0
M  V30 7223 H 698.662 1.5073 3.93521 0
M  V30 7224 H 697.386 0.484162 3.22991 0
M  V30 7225 H 696.045 2.53564 2.64765 0
M  V30 7226 H 695.693 1.37939 4.83717 0
M  V30 7227 H 695.393 3.13016 4.97287 0
M  V30 7228 H 696.917 2.43834 5.59801 0
M  V30 7229 H 698.331 4.07968 4.02784 0
M  V30 7230 H 696.728 4.77001 3.64129 0
M  V30 7231 H 697.798 4.25539 2.32475 0
M  V30 7232 N 699.141 -0.881989 1.30609 0
M  V30 7233 C 700.387 -1.63647 1.19781 0
M  V30 7234 C 700.72 -1.92632 -0.246265 0
M  V30 7235 O 699.995 -1.54938 -1.17577 0
M  V30 7236 C 700.278 -2.97437 2.02985 0
M  V30 7237 C 700.131 -2.75406 3.55628 0
M  V30 7238 C 701.45 -3.98397 1.86997 0
M  V30 7239 H 698.569 -0.593841 0.436488 0
M  V30 7240 H 701.211 -1.02041 1.60273 0
M  V30 7241 H 699.361 -3.50018 1.68581 0
M  V30 7242 H 701.033 -2.2959 4.00107 0
M  V30 7243 H 699.276 -2.09856 3.79662 0
M  V30 7244 H 699.947 -3.70552 4.09139 0
M  V30 7245 H 702.423 -3.54986 2.17081 0
M  V30 7246 H 701.299 -4.89916 2.47536 0
M  V30 7247 H 701.56 -4.3424 0.829943 0
M  V30 7248 N 700.619 -1.13374 -1.09472 0
M  V30 7249 C 701.867 -0.893422 -1.8128 0
M  V30 7250 C 702.188 0.582029 -1.86111 0
M  V30 7251 O 701.458 1.42305 -1.34633 0
M  V30 7252 H 700.038 -0.327543 -0.67136 0
M  V30 7253 H 702.7 -1.43018 -1.32408 0
M  V30 7254 H 701.796 -1.28374 -2.84476 0
M  V30 7255 N 702.098 1.27442 -0.927168 0
M  V30 7256 C 703.061 2.2512 -0.430525 0
M  V30 7257 C 704.061 1.54357 0.450619 0
M  V30 7258 O 705.251 1.72371 0.251774 0
M  V30 7259 C 702.383 3.38763 0.381144 0
M  V30 7260 H 703.576 2.70569 -1.29354 0
M  V30 7261 H 701.129 1.39355 -0.707806 0
M  V30 7262 H 701.864 2.98695 1.263 0
M  V30 7263 H 701.649 3.91298 -0.250618 0
M  V30 7264 H 703.139 4.11364 0.719012 0
M  V30 7265 N 703.576 0.692616 1.41565 0
M  V30 7266 C 704.824 0.221896 2.00878 0
M  V30 7267 C 705.145 -1.18164 1.5512 0
M  V30 7268 O 704.415 -1.79679 0.78054 0
M  V30 7269 H 702.995 0.0790463 0.742806 0
M  V30 7270 H 705.657 0.893115 1.73232 0
M  V30 7271 H 704.753 0.23702 3.11199 0
M  V30 7272 N 705.054 -1.51416 0.437162 0
M  V30 7273 C 706.017 -2.26312 -0.362729 0
M  V30 7274 C 707.017 -1.29748 -0.949847 0
M  V30 7275 O 708.207 -1.53462 -0.824325 0
M  V30 7276 C 705.339 -3.05475 -1.5132 0
M  V30 7277 H 706.532 -2.98459 0.29365 0
M  V30 7278 H 704.085 -1.55137 0.190327 0
M  V30 7279 H 704.82 -2.37744 -2.20563 0
M  V30 7280 H 704.605 -3.76401 -1.09838 0
M  V30 7281 H 706.095 -3.62209 -2.07833 0
M  V30 7282 N 706.532 -0.168513 -1.56696 0
M  V30 7283 C 707.781 0.477233 -1.95973 0
M  V30 7284 C 708.094 1.64578 -1.05704 0
M  V30 7285 O 709.3 2.35758 -1.3465 0
M  V30 7286 C 707.756 0.900413 -3.48455 0
M  V30 7287 C 707.364 -0.242382 -4.47344 0
M  V30 7288 C 709.108 1.51474 -3.96555 0
M  V30 7289 C 707.015 0.200272 -5.91061 0
M  V30 7290 H 705.945 0.182061 -0.73169 0
M  V30 7291 H 708.596 -0.256297 -1.81701 0
M  V30 7292 H 706.978 1.68984 -3.58135 0
M  V30 7293 H 708.152 -1.01967 -4.49377 0
M  V30 7294 H 706.467 -0.766484 -4.09285 0
M  V30 7295 H 709.064 1.85792 -5.01384 0
M  V30 7296 H 709.407 2.41163 -3.39332 0
M  V30 7297 H 709.94 0.789802 -3.89881 0
M  V30 7298 H 706.679 -0.661775 -6.52151 0
M  V30 7299 H 706.199 0.942979 -5.92341 0
M  V30 7300 H 707.878 0.645088 -6.43776 0
M  V30 7301 N 708.01 1.57248 0.105221 0
M  V30 7302 C 709.258 1.85204 0.808951 0
M  V30 7303 C 709.579 0.75574 1.7976 0
M  V30 7304 O 708.849 -0.218984 1.94672 0
M  V30 7305 H 707.429 0.683346 0.301739 0
M  V30 7306 H 710.091 1.94695 0.0892605 0
M  V30 7307 H 709.187 2.81595 1.34575 0
M  V30 7308 N 709.488 -0.375779 1.53054 0
M  V30 7309 C 710.728 -1.12828 1.70438 0
M  V30 7310 C 711.092 -1.86854 0.441527 0
M  V30 7311 O 712.293 -2.64261 0.491908 0
M  V30 7312 C 710.564 -2.07009 2.91345 0
M  V30 7313 S 712.123 -2.89917 3.29383 0
M  V30 7314 H 708.941 -0.381736 0.599832 0
M  V30 7315 H 711.543 -0.4109 1.91133 0
M  V30 7316 H 710.247 -1.51371 3.81464 0
M  V30 7317 H 709.778 -2.83236 2.73022 0
M  V30 7318 H 711.793 -4.0924 2.80601 0
M  V30 7319 N 710.966 -1.44241 -0.634997 0
M  V30 7320 C 711.876 -1.53293 -1.77591 0
M  V30 7321 C 712.892 -0.418831 -1.68884 0
M  V30 7322 O 714.068 -0.675619 -1.8973 0
M  V30 7323 C 711.133 -1.47075 -3.13958 0
M  V30 7324 C 710.194 -2.69304 -3.34326 0
M  V30 7325 C 709.427 -2.63374 -4.64187 0
M  V30 7326 O 709.65 -1.69161 -5.44739 0
M  V30 7327 O 708.584 -3.54166 -4.86673 0
M  V30 7328 H 712.41 -2.49673 -1.72908 0
M  V30 7329 H 709.995 -1.26445 -0.795745 0
M  V30 7330 H 711.877 -1.46117 -3.95257 0
M  V30 7331 H 710.552 -0.538373 -3.19192 0
M  V30 7332 H 709.459 -2.75831 -2.52721 0
M  V30 7333 H 710.792 -3.61576 -3.33951 0
M  V30 7334 N 712.444 0.87505 -1.31075 0
M  V30 7335 C 713.374 1.99775 -1.20881 0
M  V30 7336 C 714.355 1.69822 -0.0971612 0
M  V30 7337 O 715.54 1.92158 -0.280895 0
M  V30 7338 C 712.67 3.35163 -0.910118 0
M  V30 7339 C 711.624 3.79406 -1.98078 0
M  V30 7340 C 710.95 5.12197 -1.53488 0
M  V30 7341 C 712.25 3.97061 -3.39323 0
M  V30 7342 H 713.944 2.08562 -2.14808 0
M  V30 7343 H 711.49 1.00207 -1.03415 0
M  V30 7344 H 713.443 4.13237 -0.825423 0
M  V30 7345 H 712.167 3.26536 0.064822 0
M  V30 7346 H 710.826 3.03568 -2.05528 0
M  V30 7347 H 710.474 5.00007 -0.547941 0
M  V30 7348 H 710.174 5.4277 -2.2511 0
M  V30 7349 H 711.698 5.92785 -1.46417 0
M  V30 7350 H 713.112 4.65545 -3.34576 0
M  V30 7351 H 711.509 4.39025 -4.09118 0
M  V30 7352 H 712.579 3.00601 -3.80483 0
M  V30 7353 N 713.922 1.13953 1.08869 0
M  V30 7354 C 714.852 0.844824 2.17681 0
M  V30 7355 C 715.833 -0.198213 1.68941 0
M  V30 7356 O 717.018 -0.0559073 1.9412 0
M  V30 7357 C 714.148 0.316325 3.45856 0
M  V30 7358 C 713.102 1.29426 4.07962 0
M  V30 7359 C 712.428 0.625275 5.31031 0
M  V30 7360 C 713.728 2.65484 4.49795 0
M  V30 7361 H 715.422 1.75471 2.42591 0
M  V30 7362 H 712.968 0.845116 1.16592 0
M  V30 7363 H 714.921 0.0977876 4.21287 0
M  V30 7364 H 713.645 -0.628972 3.20486 0
M  V30 7365 H 712.304 1.49889 3.34558 0
M  V30 7366 H 711.952 -0.325678 5.01945 0
M  V30 7367 H 711.652 1.27777 5.73539 0
M  V30 7368 H 713.176 0.416152 6.0918 0
M  V30 7369 H 714.59 2.48957 5.16424 0
M  V30 7370 H 712.987 3.26963 5.03205 0
M  V30 7371 H 714.057 3.22717 3.61914 0
M  V30 7372 N 715.4 -1.26948 0.933913 0
M  V30 7373 C 716.347 -2.26635 0.436484 0
M  V30 7374 C 717.317 -1.58397 -0.499953 0
M  V30 7375 O 718.502 -1.86171 -0.417753 0
M  V30 7376 C 715.642 -3.43803 -0.298951 0
M  V30 7377 C 714.755 -4.26736 0.672316 0
M  V30 7378 C 713.89 -5.31134 -0.0835872 0
M  V30 7379 C 712.929 -6.05742 0.879979 0
M  V30 7380 N 712.066 -7.01926 0.156301 0
M  V30 7381 H 716.906 -2.68558 1.29154 0
M  V30 7382 H 714.443 -1.32052 0.648118 0
M  V30 7383 H 716.401 -4.10554 -0.741723 0
M  V30 7384 H 715.031 -3.02814 -1.1182 0
M  V30 7385 H 714.083 -3.59842 1.23361 0
M  V30 7386 H 715.395 -4.78502 1.40846 0
M  V30 7387 H 714.549 -6.03863 -0.585984 0
M  V30 7388 H 713.288 -4.80188 -0.852661 0
M  V30 7389 H 712.293 -5.31846 1.39357 0
M  V30 7390 H 713.518 -6.58777 1.64894 0
M  V30 7391 H 711.464 -6.53301 -0.594413 0
M  V30 7392 H 711.381 -7.51409 0.831906 0
M  V30 7393 H 712.649 -7.78821 -0.325239 0
M  V30 7394 N 716.879 -0.700114 -1.41195 0
M  V30 7395 C 717.827 -0.0263301 -2.32585 0
M  V30 7396 C 718.821 0.763683 -1.51209 0
M  V30 7397 O 720.027 0.668793 -1.67114 0
M  V30 7398 H 716.402 0.0102869 -0.75193 0
M  V30 7399 H 718.373 -0.814087 -2.8708 0
M  V30 7400 C 717.122 0.892793 -3.36042 0
M  V30 7401 H 716.445 0.294306 -3.98715 0
M  V30 7402 H 717.885 1.33247 -4.02518 0
M  V30 7403 C 716.344 2.01109 -2.7029 0
M  V30 7404 O 716.874 3.10035 -2.55423 0
M  V30 7405 N 715.08 1.79015 -2.28915 0
M  V30 7406 H 714.627 0.904275 -2.41207 0
M  V30 7407 H 714.585 2.54022 -1.85257 0
M  V30 7408 N 718.357 1.51182 -0.445186 0
M  V30 7409 C 719.604 2.02152 0.118645 0
M  V30 7410 C 719.932 1.32888 1.42025 0
M  V30 7411 O 719.187 0.435041 1.90803 0
M  V30 7412 C 719.486 3.55408 0.376797 0
M  V30 7413 C 719.152 4.43008 -0.839945 0
M  V30 7414 C 717.814 4.66669 -1.17361 0
M  V30 7415 C 720.166 4.9435 -1.65127 0
M  V30 7416 C 717.494 5.38919 -2.31913 0
M  V30 7417 C 719.846 5.67857 -2.78786 0
M  V30 7418 C 718.51 5.89779 -3.12597 0
M  V30 7419 H 717.78 0.739727 0.0434152 0
M  V30 7420 H 720.427 1.82055 -0.593984 0
M  V30 7421 H 718.732 3.73879 1.1714 0
M  V30 7422 H 720.429 3.92388 0.826602 0
M  V30 7423 H 717.019 4.24793 -0.569958 0
M  V30 7424 H 721.203 4.75947 -1.4067 0
M  V30 7425 H 716.459 5.54105 -2.58413 0
M  V30 7426 H 720.633 6.06628 -3.42017 0
M  V30 7427 H 718.26 6.45542 -4.01471 0
M  V30 7428 N 719.835 0.176821 1.56605 0
M  V30 7429 C 720.798 -0.737429 2.17013 0
M  V30 7430 C 721.798 -1.15414 1.11965 0
M  V30 7431 O 722.988 -1.0702 1.37449 0
M  V30 7432 C 720.12 -2.00445 2.75744 0
M  V30 7433 H 721.313 -0.211455 2.99154 0
M  V30 7434 H 718.866 -0.0727582 1.56131 0
M  V30 7435 H 719.601 -2.57338 1.97352 0
M  V30 7436 H 719.386 -1.71456 3.52626 0
M  V30 7437 H 720.876 -2.65679 3.22187 0
M  V30 7438 N 721.313 -1.57302 -0.09688 0
M  V30 7439 C 722.246 -1.97179 -1.14872 0
M  V30 7440 C 723.224 -0.844734 -1.38935 0
M  V30 7441 O 724.408 -1.10487 -1.52725 0
M  V30 7442 C 721.535 -2.28703 -2.49826 0
M  V30 7443 C 720.581 -3.51158 -2.42054 0
M  V30 7444 S 721.414 -5.0294 -1.83879 0
M  V30 7445 C 722.57 -5.37639 -3.2046 0
M  V30 7446 H 722.803 -2.86088 -0.808771 0
M  V30 7447 H 720.336 -1.51368 -0.304492 0
M  V30 7448 H 722.294 -2.47541 -3.27466 0
M  V30 7449 H 720.955 -1.40368 -2.8099 0
M  V30 7450 H 720.148 -3.70651 -3.41517 0
M  V30 7451 H 719.75 -3.31821 -1.72543 0
M  V30 7452 H 722.042 -5.34175 -4.16729 0
M  V30 7453 H 722.985 -6.38677 -3.05773 0
M  V30 7454 H 723.393 -4.651 -3.19909 0
M  V30 7455 N 722.791 0.367657 -1.53252 0
M  V30 7456 C 724.04 1.10782 -1.68554 0
M  V30 7457 C 724.353 1.90523 -0.442765 0
M  V30 7458 O 725.559 2.6729 -0.47629 0
M  V30 7459 C 724.015 2.01863 -2.97959 0
M  V30 7460 C 723.623 1.27443 -4.29491 0
M  V30 7461 C 725.367 2.75883 -3.22628 0
M  V30 7462 C 723.274 2.17414 -5.49987 0
M  V30 7463 H 722.204 0.417272 -0.628013 0
M  V30 7464 H 724.855 0.368971 -1.79752 0
M  V30 7465 H 723.237 2.7947 -2.80558 0
M  V30 7466 H 724.411 0.549138 -4.57516 0
M  V30 7467 H 722.726 0.652935 -4.11249 0
M  V30 7468 H 725.323 3.43421 -4.09837 0
M  V30 7469 H 725.666 3.41138 -2.38601 0
M  V30 7470 H 726.199 2.0536 -3.40693 0
M  V30 7471 H 722.938 1.5674 -6.36485 0
M  V30 7472 H 722.458 2.87799 -5.26243 0
M  V30 7473 H 724.137 2.77019 -5.84696 0
M  V30 7474 N 724.269 1.44576 0.627338 0
M  V30 7475 C 725.517 1.47267 1.38408 0
M  V30 7476 C 725.838 0.107971 1.94701 0
M  V30 7477 O 725.108 -0.860206 1.76004 0
M  V30 7478 H 723.688 0.542276 0.513756 0
M  V30 7479 H 726.35 1.80383 0.738099 0
M  V30 7480 H 725.446 2.20025 2.21349 0
M  V30 7481 N 725.747 -0.868086 1.31537 0
M  V30 7482 C 726.677 -1.99131 1.21939 0
M  V30 7483 C 727.658 -1.69768 0.106166 0
M  V30 7484 O 728.843 -1.92006 0.291081 0
M  V30 7485 C 725.973 -3.34676 0.927879 0
M  V30 7486 C 724.927 -3.7835 2.00088 0
M  V30 7487 C 724.253 -5.11375 1.56203 0
M  V30 7488 C 725.553 -3.95256 3.41424 0
M  V30 7489 H 727.247 -2.07419 2.15911 0
M  V30 7490 H 724.793 -0.996569 1.03945 0
M  V30 7491 H 726.746 -4.12793 0.847327 0
M  V30 7492 H 725.47 -3.26565 -0.0475042 0
M  V30 7493 H 724.129 -3.02474 2.07135 0
M  V30 7494 H 723.777 -4.99709 0.57445 0
M  V30 7495 H 723.477 -5.41568 2.27985 0
M  V30 7496 H 725.001 -5.92001 1.49558 0
M  V30 7497 H 726.415 -4.63764 3.3704 0
M  V30 7498 H 724.812 -4.36849 4.1144 0
M  V30 7499 H 725.882 -2.98579 3.82072 0
M  V30 7500 N 727.225 -1.14528 -1.08264 0
M  V30 7501 C 728.473 -0.912599 -1.80322 0
M  V30 7502 C 728.794 0.562256 -1.86718 0
M  V30 7503 O 728.064 1.40869 -1.36135 0
M  V30 7504 H 726.644 -0.334645 -0.667849 0
M  V30 7505 H 729.306 -1.44415 -1.30883 0
M  V30 7506 H 728.402 -1.31384 -2.83098 0
M  V30 7507 N 728.703 1.26451 -0.940633 0
M  V30 7508 C 729.943 1.95537 -0.595381 0
M  V30 7509 C 730.307 1.72175 0.849683 0
M  V30 7510 O 731.508 2.3506 1.30384 0
M  V30 7511 C 729.779 3.45151 -0.927669 0
M  V30 7512 S 731.338 4.33295 -0.69288 0
M  V30 7513 H 728.156 0.676331 -0.219311 0
M  V30 7514 H 730.758 1.53411 -1.21183 0
M  V30 7515 H 729.462 3.59654 -1.9768 0
M  V30 7516 H 728.993 3.92247 -0.300921 0
M  V30 7517 H 731.008 4.94217 0.443175 0
M  V30 7518 N 730.181 0.707592 1.40822 0
M  V30 7519 C 731.429 0.243189 2.00632 0
M  V30 7520 C 731.75 -1.16512 1.56365 0
M  V30 7521 O 731.02 -1.78841 0.799553 0
M  V30 7522 H 729.6 0.0869203 0.741926 0
M  V30 7523 H 732.262 0.911438 1.72275 0
M  V30 7524 H 731.358 0.270014 3.1093 0
M  V30 7525 N 731.66 -1.50943 0.453197 0
M  V30 7526 C 732.57 -2.31884 -0.355963 0
M  V30 7527 C 733.586 -1.41481 -1.01287 0
M  V30 7528 O 734.762 -1.74546 -1.00477 0
M  V30 7529 C 731.827 -3.15668 -1.43369 0
M  V30 7530 C 730.888 -4.2187 -0.795253 0
M  V30 7531 C 730.121 -5.0165 -1.82162 0
M  V30 7532 O 730.344 -4.82266 -3.04592 0
M  V30 7533 O 729.278 -5.85311 -1.40336 0
M  V30 7534 H 733.104 -3.02162 0.305248 0
M  V30 7535 H 730.689 -1.47839 0.215398 0
M  V30 7536 H 732.571 -3.67709 -2.05836 0
M  V30 7537 H 731.246 -2.48137 -2.07869 0
M  V30 7538 H 730.153 -3.73867 -0.132106 0
M  V30 7539 H 731.486 -4.9182 -0.193484 0
M  V30 7540 N 733.138 -0.185124 -1.56509 0
M  V30 7541 C 734.386 0.455357 -1.96903 0
M  V30 7542 C 734.707 1.62839 -1.07277 0
M  V30 7543 O 733.977 1.95385 -0.141966 0
M  V30 7544 H 732.557 0.171218 -0.727113 0
M  V30 7545 H 735.219 -0.26953 -1.93027 0
M  V30 7546 H 734.315 0.80616 -3.01509 0
M  V30 7547 N 734.616 1.57351 0.0885366 0
M  V30 7548 C 735.864 1.86051 0.789262 0
M  V30 7549 C 736.185 0.774763 1.78948 0
M  V30 7550 O 735.455 -0.198324 1.94894 0
M  V30 7551 H 734.035 0.686508 0.294475 0
M  V30 7552 H 736.697 1.94779 0.0686055 0
M  V30 7553 H 735.793 2.83007 1.31581 0
M  V30 7554 N 736.094 -0.359525 1.53444 0
M  V30 7555 C 737.004 -1.46445 1.83278 0
M  V30 7556 C 738.02 -1.5833 0.721629 0
M  V30 7557 O 739.196 -1.7411 1.01231 0
M  V30 7558 C 736.261 -2.81638 2.02191 0
M  V30 7559 C 735.322 -2.7923 3.26082 0
M  V30 7560 C 734.555 -4.07974 3.44082 0
M  V30 7561 O 734.778 -5.04447 2.66251 0
M  V30 7562 O 733.712 -4.13417 4.37458 0
M  V30 7563 H 737.538 -1.24156 2.77162 0
M  V30 7564 H 735.123 -0.550201 1.389 0
M  V30 7565 H 737.005 -3.61732 2.16167 0
M  V30 7566 H 735.68 -3.03892 1.11496 0
M  V30 7567 H 734.587 -1.97813 3.17523 0
M  V30 7568 H 735.92 -2.6193 4.16718 0
M  V30 7569 N 737.572 -1.44907 -0.619662 0
M  V30 7570 C 738.821 -1.47569 -1.37501 0
M  V30 7571 C 739.134 -0.116707 -1.95252 0
M  V30 7572 O 740.34 -0.020909 -2.71492 0
M  V30 7573 C 738.796 -2.59851 -2.49009 0
M  V30 7574 C 738.404 -4.02008 -1.97722 0
M  V30 7575 C 740.148 -2.71746 -3.2612 0
M  V30 7576 C 738.055 -5.05693 -3.0664 0
M  V30 7577 H 736.985 -0.549068 -0.51676 0
M  V30 7578 H 739.636 -1.71009 -0.665437 0
M  V30 7579 H 738.018 -2.29671 -3.22594 0
M  V30 7580 H 739.192 -4.41809 -1.30925 0
M  V30 7581 H 737.507 -3.94456 -1.33392 0
M  V30 7582 H 740.104 -3.46382 -4.07337 0
M  V30 7583 H 740.447 -1.77959 -3.76346 0
M  V30 7584 H 740.98 -3.01392 -2.5963 0
M  V30 7585 H 737.719 -6.01148 -2.61345 0
M  V30 7586 H 737.239 -4.70473 -3.72042 0
M  V30 7587 H 738.918 -5.29906 -3.71226 0
M  V30 7588 N 739.05 0.861098 -1.31996 0
M  V30 7589 C 740.299 1.60965 -1.21545 0
M  V30 7590 C 740.612 1.94325 0.222972 0
M  V30 7591 O 741.818 2.67757 0.449272 0
M  V30 7592 C 740.274 2.90223 -2.12834 0
M  V30 7593 C 739.882 2.64313 -3.61722 0
M  V30 7594 C 741.626 3.68229 -2.11205 0
M  V30 7595 C 739.533 3.89532 -4.44993 0
M  V30 7596 H 738.463 0.603988 -0.451348 0
M  V30 7597 H 741.114 0.951358 -1.56912 0
M  V30 7598 H 739.496 3.57475 -1.70375 0
M  V30 7599 H 740.67 2.05413 -4.12483 0
M  V30 7600 H 738.985 1.99647 -3.65418 0
M  V30 7601 H 741.582 4.61138 -2.70658 0
M  V30 7602 H 741.925 4.01466 -1.1014 0
M  V30 7603 H 742.458 3.07873 -2.51911 0
M  V30 7604 H 739.197 3.61441 -5.46846 0
M  V30 7605 H 738.717 4.47851 -3.98985 0
M  V30 7606 H 740.396 4.57334 -4.57663 0
M  V30 7607 N 740.528 1.15101 1.07655 0
M  V30 7608 C 741.774 0.925343 1.80458 0
M  V30 7609 C 742.107 -0.546354 1.86356 0
M  V30 7610 O 741.382 -1.40496 1.34503 0
M  V30 7611 C 741.665 1.53646 3.25676 0
M  V30 7612 C 741.518 3.07854 3.27942 0
M  V30 7613 C 742.837 1.21968 4.22861 0
M  V30 7614 H 739.956 0.337592 0.655134 0
M  V30 7615 H 742.598 1.42217 1.25993 0
M  V30 7616 H 740.748 1.11395 3.72187 0
M  V30 7617 H 742.42 3.58989 2.89697 0
M  V30 7618 H 740.663 3.41904 2.66991 0
M  V30 7619 H 741.334 3.45725 4.30324 0
M  V30 7620 H 743.81 1.5851 3.84726 0
M  V30 7621 H 742.686 1.67349 5.22767 0
M  V30 7622 H 742.947 0.136207 4.4189 0
M  V30 7623 N 742.006 -1.2595 0.947325 0
M  V30 7624 C 743.234 -1.97544 0.615127 0
M  V30 7625 C 743.649 -1.70484 -0.811221 0
M  V30 7626 O 743.006 -0.97662 -1.5417 0
M  V30 7627 C 743.057 -3.51236 0.855328 0
M  V30 7628 O 742.778 -3.77359 2.22558 0
M  V30 7629 C 744.279 -4.40066 0.534515 0
M  V30 7630 H 741.499 -0.629888 0.231263 0
M  V30 7631 H 744.043 -1.60308 1.26971 0
M  V30 7632 H 742.198 -3.8661 0.247266 0
M  V30 7633 H 742.612 -4.71857 2.29022 0
M  V30 7634 H 744.086 -5.46838 0.753168 0
M  V30 7635 H 744.563 -4.35982 -0.530701 0
M  V30 7636 H 745.169 -4.10245 1.12158 0
M  V30 7637 N 743.484 -0.715051 -1.40445 0
M  V30 7638 C 744.761 -0.181503 -1.94756 0
M  V30 7639 C 745.141 1.31268 -1.65324 0
M  V30 7640 O 744.489 2.0686 -0.970631 0
M  V30 7641 C 744.699 -0.493663 -3.45491 0
M  V30 7642 C 746.047 -0.432032 -4.22396 0
M  V30 7643 O 747.071 -0.429692 -3.53599 0
M  V30 7644 O 745.93 -0.409091 -5.44967 0
M  V30 7645 H 743.024 -0.0263989 -0.826579 0
M  V30 7646 H 745.57 -0.792546 -1.50056 0
M  V30 7647 H 744.342 -1.52713 -3.6027 0
M  V30 7648 H 743.965 0.14737 -3.97327 0
M  V30 7649 N 744.962 1.50701 -0.461195 0
M  V30 7650 C 745.895 2.24948 0.383863 0
M  V30 7651 C 746.873 1.27851 1.00464 0
M  V30 7652 O 748.057 1.57049 1.04249 0
M  V30 7653 C 745.184 3.01818 1.537 0
M  V30 7654 C 744.23 4.13762 1.03457 0
M  V30 7655 S 745.063 5.35483 -0.0427485 0
M  V30 7656 C 746.219 6.15898 1.11449 0
M  V30 7657 H 746.452 2.96277 -0.246425 0
M  V30 7658 H 743.985 1.52428 -0.245961 0
M  V30 7659 H 745.943 3.467 2.19794 0
M  V30 7660 H 744.604 2.30034 2.13877 0
M  V30 7661 H 743.797 4.66914 1.89757 0
M  V30 7662 H 743.399 3.71265 0.4515 0
M  V30 7663 H 745.691 6.46431 2.02813 0
M  V30 7664 H 746.634 7.05359 0.622444 0
M  V30 7665 H 747.042 5.47777 1.36385 0
M  V30 7666 N 746.441 0.193421 1.56409 0
M  V30 7667 C 747.718 -0.493318 1.89277 0
M  V30 7668 C 748.098 -1.79765 1.10669 0
M  V30 7669 O 747.446 -2.27558 0.207274 0
M  V30 7670 C 747.656 -0.713732 3.41624 0
M  V30 7671 C 749.004 -1.03385 4.11821 0
M  V30 7672 O 750.028 -0.801511 3.47065 0
M  V30 7673 O 748.887 -1.47327 5.26267 0
M  V30 7674 H 745.981 -0.256973 0.786062 0
M  V30 7675 H 748.527 0.23351 1.68086 0
M  V30 7676 H 747.299 0.207446 3.9075 0
M  V30 7677 H 746.922 -1.49308 3.68501 0
M  V30 7678 N 747.919 -1.57396 -0.0801906 0
M  V30 7679 C 749.147 -1.91055 -0.794075 0
M  V30 7680 C 749.562 -0.788583 -1.71542 0
M  V30 7681 O 748.919 0.238587 -1.80934 0
M  V30 7682 C 748.97 -3.24418 -1.59484 0
M  V30 7683 O 748.691 -4.323 -0.710532 0
M  V30 7684 C 750.192 -3.72037 -2.41046 0
M  V30 7685 H 747.412 -0.63171 -0.226238 0
M  V30 7686 H 749.956 -2.04431 -0.0529685 0
M  V30 7687 H 748.111 -3.12595 -2.2883 0
M  V30 7688 H 748.525 -5.08976 -1.26663 0
M  V30 7689 H 749.999 -4.68006 -2.92702 0
M  V30 7690 H 750.476 -3.00624 -3.2019 0
M  V30 7691 H 751.082 -3.86777 -1.76871 0
M  V30 7692 N 749.397 0.351382 -1.53633 0
M  V30 7693 C 750.646 1.08988 -1.69719 0
M  V30 7694 C 750.959 1.90043 -0.462948 0
M  V30 7695 O 752.165 2.66769 -0.504613 0
M  V30 7696 C 750.621 1.98691 -3.00083 0
M  V30 7697 C 750.229 1.22881 -4.30818 0
M  V30 7698 C 751.973 2.72446 -3.25536 0
M  V30 7699 C 749.88 2.11568 -5.52262 0
M  V30 7700 H 748.81 0.410588 -0.632403 0
M  V30 7701 H 751.461 0.349886 -1.80133 0
M  V30 7702 H 749.843 2.76478 -2.83506 0
M  V30 7703 H 751.017 0.500582 -4.58073 0
M  V30 7704 H 749.332 0.60928 -4.11918 0
M  V30 7705 H 751.929 3.39055 -4.13456 0
M  V30 7706 H 752.272 3.38588 -2.42206 0
M  V30 7707 H 752.805 2.01735 -3.42852 0
M  V30 7708 H 749.544 1.4998 -6.38111 0
M  V30 7709 H 749.064 2.82201 -5.29266 0
M  V30 7710 H 750.743 2.70802 -5.87601 0
M  V30 7711 N 750.875 1.45233 0.611969 0
M  V30 7712 C 751.785 1.56098 1.7513 0
M  V30 7713 C 752.801 0.445646 1.68196 0
M  V30 7714 O 753.977 0.705718 1.88631 0
M  V30 7715 C 751.042 1.52052 3.11579 0
M  V30 7716 C 750.103 2.74589 3.29999 0
M  V30 7717 C 749.336 2.70726 4.59938 0
M  V30 7718 O 749.559 1.77806 5.41979 0
M  V30 7719 O 748.493 3.61864 4.80976 0
M  V30 7720 H 752.319 2.52392 1.68914 0
M  V30 7721 H 749.904 1.27695 0.775528 0
M  V30 7722 H 751.786 1.52387 3.92882 0
M  V30 7723 H 750.461 0.589085 3.18295 0
M  V30 7724 H 749.368 2.79817 2.48301 0
M  V30 7725 H 750.701 3.66843 3.28157 0
M  V30 7726 N 752.353 -0.854086 1.3245 0
M  V30 7727 C 753.3 -1.96271 1.21434 0
M  V30 7728 C 754.27 -1.6582 0.0963851 0
M  V30 7729 O 755.455 -1.88851 0.27203 0
M  V30 7730 C 752.595 -3.31939 0.943952 0
M  V30 7731 C 751.708 -3.74885 2.14675 0
M  V30 7732 C 750.843 -4.99347 1.81179 0
M  V30 7733 C 749.882 -5.34785 2.97777 0
M  V30 7734 N 749.019 -6.50425 2.6437 0
M  V30 7735 H 753.859 -2.05025 2.16261 0
M  V30 7736 H 751.396 -1.00348 1.07558 0
M  V30 7737 H 753.354 -4.10076 0.767675 0
M  V30 7738 H 751.984 -3.22784 0.0324763 0
M  V30 7739 H 751.036 -2.92396 2.43328 0
M  V30 7740 H 752.348 -3.97068 3.01891 0
M  V30 7741 H 751.502 -5.85193 1.60107 0
M  V30 7742 H 750.241 -4.79101 0.911777 0
M  V30 7743 H 749.246 -4.47451 3.1948 0
M  V30 7744 H 750.471 -5.56988 3.88511 0
M  V30 7745 H 748.417 -6.31695 1.7691 0
M  V30 7746 H 748.334 -6.7263 3.45116 0
M  V30 7747 H 749.602 -7.39422 2.46729 0
M  V30 7748 N 753.831 -1.1567 -1.07043 0
M  V30 7749 C 755.056 -0.957946 -1.83952 0
M  V30 7750 C 755.481 0.488807 -1.81638 0
M  V30 7751 O 754.839 1.34869 -1.21162 0
M  V30 7752 C 754.887 -1.48064 -3.288 0
M  V30 7753 O 753.991 -0.681921 -4.06723 0
M  V30 7754 H 753.332 -0.341453 -0.569479 0
M  V30 7755 H 755.862 -1.53728 -1.35015 0
M  V30 7756 H 755.872 -1.49484 -3.7963 0
M  V30 7757 H 754.547 -2.53388 -3.29799 0
M  V30 7758 H 753.124 -0.737612 -3.65532 0
M  V30 7759 N 755.309 1.25446 -0.953992 0
M  V30 7760 C 756.257 2.27909 -0.46478 0
M  V30 7761 C 757.251 1.62904 0.464607 0
M  V30 7762 O 758.457 1.76733 0.341407 0
M  V30 7763 H 754.832 0.74036 -0.131798 0
M  V30 7764 H 756.803 2.66559 -1.34122 0
M  V30 7765 C 755.552 3.46853 0.242589 0
M  V30 7766 H 754.875 3.97105 -0.463418 0
M  V30 7767 H 756.315 4.20432 0.548919 0
M  V30 7768 C 754.774 3.03386 1.46487 0
M  V30 7769 O 755.304 3.09342 2.56262 0
M  V30 7770 N 753.51 2.58584 1.32599 0
M  V30 7771 H 753.057 2.53938 0.432834 0
M  V30 7772 H 753.015 2.29866 2.14497 0
M  V30 7773 N 756.787 0.722489 1.40064 0
M  V30 7774 C 757.717 0.0892452 2.33329 0
M  V30 7775 C 758.698 -0.737992 1.53257 0
M  V30 7776 O 759.883 -0.685516 1.81698 0
M  V30 7777 C 757.013 -0.828139 3.37282 0
M  V30 7778 C 755.967 -0.106005 4.27869 0
M  V30 7779 C 755.293 -1.13957 5.22415 0
M  V30 7780 C 756.593 1.04395 5.11761 0
M  V30 7781 H 758.287 0.868269 2.86534 0
M  V30 7782 H 755.833 0.418982 1.3777 0
M  V30 7783 H 757.786 -1.28058 4.01471 0
M  V30 7784 H 756.51 -1.63914 2.82489 0
M  V30 7785 H 755.169 0.326683 3.65142 0
M  V30 7786 H 754.817 -1.9438 4.63924 0
M  V30 7787 H 754.517 -0.661233 5.83868 0
M  V30 7788 H 756.041 -1.59197 5.89482 0
M  V30 7789 H 757.455 0.670541 5.69365 0
M  V30 7790 H 755.852 1.4511 5.82291 0
M  V30 7791 H 756.922 1.87144 4.47331 0
M  V30 7792 N 758.265 -1.50454 0.469181 0
M  V30 7793 C 759.213 -2.30101 -0.340033 0
M  V30 7794 C 760.207 -1.37306 -0.992135 0
M  V30 7795 O 761.413 -1.54506 -0.923458 0
M  V30 7796 H 757.788 -0.740941 -0.128495 0
M  V30 7797 H 759.759 -2.96315 0.352144 0
M  V30 7798 C 758.508 -3.17804 -1.41052 0
M  V30 7799 H 757.831 -3.89115 -0.918124 0
M  V30 7800 H 759.271 -3.76533 -1.94934 0
M  V30 7801 C 757.73 -2.35272 -2.4114 0
M  V30 7802 O 758.26 -2.03448 -3.4637 0
M  V30 7803 N 756.466 -1.97889 -2.1281 0
M  V30 7804 H 756.013 -2.2397 -1.27261 0
M  V30 7805 H 755.971 -1.42971 -2.80012 0
M  V30 7806 N 759.743 -0.201713 -1.56304 0
M  V30 7807 C 761.159 0.154025 -1.58855 0
M  V30 7808 C 761.359 1.60516 -1.21807 0
M  V30 7809 O 760.415 2.34193 -0.94393 0
M  V30 7810 C 761.728 -0.154319 -3.00304 0
M  V30 7811 C 763.276 -0.0949578 -3.12856 0
M  V30 7812 C 763.751 -0.376703 -4.56448 0
M  V30 7813 N 765.242 -0.325558 -4.62054 0
M  V30 7814 C 765.977 -0.51732 -5.71062 0
M  V30 7815 N 765.473 -0.769789 -6.8851 0
M  V30 7816 N 767.266 -0.45112 -5.60287 0
M  V30 7817 H 759.417 -1.14858 -1.78666 0
M  V30 7818 H 761.68 -0.458934 -0.829508 0
M  V30 7819 H 761.386 -1.16074 -3.31994 0
M  V30 7820 H 761.26 0.540014 -3.73314 0
M  V30 7821 H 763.647 0.902075 -2.80974 0
M  V30 7822 H 763.728 -0.822468 -2.42217 0
M  V30 7823 H 763.372 -1.37108 -4.89044 0
M  V30 7824 H 763.302 0.371772 -5.25286 0
M  V30 7825 H 765.793 -0.137308 -3.7765 0
M  V30 7826 H 766.106 -0.904744 -7.67486 0
M  V30 7827 H 764.451 -0.806758 -6.90302 0
M  V30 7828 H 767.642 -0.254253 -4.67409 0
M  V30 7829 H 767.815 -0.603982 -6.45179 0
M  V30 7830 N 761.222 1.57436 0.0718424 0
M  V30 7831 C 762.154 2.00412 1.1121 0
M  V30 7832 C 763.167 0.910074 1.34987 0
M  V30 7833 O 764.356 1.18796 1.33228 0
M  V30 7834 C 761.456 2.32786 2.46301 0
M  V30 7835 C 760.629 3.64036 2.4248 0
M  V30 7836 C 759.688 3.8408 3.59679 0
M  V30 7837 O 758.714 4.55667 3.4111 0
M  V30 7838 N 759.916 3.2643 4.80025 0
M  V30 7839 H 762.681 2.90264 0.746118 0
M  V30 7840 H 760.242 1.59791 0.260495 0
M  V30 7841 H 762.234 2.43368 3.23348 0
M  V30 7842 H 760.804 1.48824 2.74901 0
M  V30 7843 H 760.024 3.64208 1.50818 0
M  V30 7844 H 761.312 4.50217 2.37027 0
M  V30 7845 H 760.71 2.68325 4.98014 0
M  V30 7846 H 759.267 3.42461 5.54584 0
M  V30 7847 N 762.7 -0.34323 1.53817 0
M  V30 7848 C 763.947 -1.08344 1.71079 0
M  V30 7849 C 764.275 -1.88633 0.474133 0
M  V30 7850 O 763.53 -1.87984 -0.544116 0
M  V30 7851 C 763.829 -2.05195 2.92626 0
M  V30 7852 C 763.495 -1.41215 4.28216 0
M  V30 7853 C 762.157 -1.23495 4.65083 0
M  V30 7854 C 764.509 -0.951273 5.12445 0
M  V30 7855 C 761.837 -0.583065 5.83796 0
M  V30 7856 C 764.189 -0.313292 6.31824 0
M  V30 7857 C 762.853 -0.123779 6.67385 0
M  V30 7858 H 762.123 -0.396458 0.626021 0
M  V30 7859 H 764.77 -0.362689 1.88034 0
M  V30 7860 H 763.075 -2.83653 2.70275 0
M  V30 7861 H 764.772 -2.62462 3.03175 0
M  V30 7862 H 761.362 -1.56005 3.992 0
M  V30 7863 H 765.546 -1.07602 4.84495 0
M  V30 7864 H 760.802 -0.424854 6.09922 0
M  V30 7865 H 764.976 0.0519179 6.96381 0
M  V30 7866 H 762.603 0.383398 7.59233 0
M  V30 7867 N 764.178 -1.45556 -0.604258 0
M  V30 7868 C 765.108 -1.57327 -1.72541 0
M  V30 7869 C 766.089 -0.424637 -1.64714 0
M  V30 7870 O 767.274 -0.648196 -1.83063 0
M  V30 7871 C 764.404 -1.54279 -3.11152 0
M  V30 7872 C 763.358 -2.67893 -3.33792 0
M  V30 7873 C 762.684 -2.499 -4.72709 0
M  V30 7874 C 763.984 -4.0988 -3.23722 0
M  V30 7875 H 765.678 -2.51175 -1.62947 0
M  V30 7876 H 763.224 -1.20884 -0.782504 0
M  V30 7877 H 765.177 -1.6111 -3.89386 0
M  V30 7878 H 763.901 -0.569627 -3.21594 0
M  V30 7879 H 762.56 -2.60495 -2.57949 0
M  V30 7880 H 762.208 -1.50715 -4.79889 0
M  V30 7881 H 761.908 -3.26091 -4.88813 0
M  V30 7882 H 763.432 -2.5859 -5.5314 0
M  V30 7883 H 764.846 -4.18503 -3.91826 0
M  V30 7884 H 763.243 -4.86487 -3.51355 0
M  V30 7885 H 764.313 -4.31553 -2.21111 0
M  V30 7886 N 765.656 0.84705 -1.32902 0
M  V30 7887 C 766.903 1.60176 -1.23894 0
M  V30 7888 C 767.231 1.93496 0.197341 0
M  V30 7889 O 766.486 1.58173 1.15238 0
M  V30 7890 C 766.785 2.92663 -2.05142 0
M  V30 7891 C 766.451 2.7874 -3.54422 0
M  V30 7892 C 765.113 2.7465 -3.95121 0
M  V30 7893 C 767.465 2.64128 -4.49317 0
M  V30 7894 C 764.793 2.53837 -5.28946 0
M  V30 7895 C 767.145 2.44849 -5.83294 0
M  V30 7896 C 765.809 2.39156 -6.23186 0
M  V30 7897 H 765.079 0.586127 -0.453361 0
M  V30 7898 H 767.726 0.981994 -1.64405 0
M  V30 7899 H 766.031 3.588 -1.57383 0
M  V30 7900 H 767.728 3.50095 -1.95537 0
M  V30 7901 H 764.318 2.82751 -3.22102 0
M  V30 7902 H 768.502 2.66327 -4.18788 0
M  V30 7903 H 763.758 2.4787 -5.58901 0
M  V30 7904 H 767.932 2.32524 -6.56434 0
M  V30 7905 H 765.559 2.22789 -7.26821 0
M  V30 7906 N 767.134 1.16236 1.06428 0
M  V30 7907 C 768.55 0.906983 1.31324 0
M  V30 7908 C 768.75 -0.440872 1.96618 0
M  V30 7909 O 767.806 -1.1807 2.23194 0
M  V30 7910 C 769.119 2.05501 2.19522 0
M  V30 7911 C 770.667 2.09061 2.32943 0
M  V30 7912 C 771.142 3.23214 3.24495 0
M  V30 7913 N 772.633 3.22922 3.32078 0
M  V30 7914 C 773.368 4.07889 4.03006 0
M  V30 7915 N 772.864 5.02941 4.76469 0
M  V30 7916 N 774.657 3.95881 3.99043 0
M  V30 7917 H 766.808 2.03015 0.624388 0
M  V30 7918 H 769.071 0.88576 0.337835 0
M  V30 7919 H 768.777 3.02847 1.78819 0
M  V30 7920 H 768.651 1.99538 3.201 0
M  V30 7921 H 771.038 1.12308 2.72893 0
M  V30 7922 H 771.119 2.19089 1.32037 0
M  V30 7923 H 770.763 4.20225 2.85261 0
M  V30 7924 H 770.693 3.10423 4.25377 0
M  V30 7925 H 773.184 2.54093 2.79724 0
M  V30 7926 H 773.497 5.64196 5.28112 0
M  V30 7927 H 771.842 5.06922 4.75453 0
M  V30 7928 H 775.033 3.20927 3.40769 0
M  V30 7929 H 775.206 4.62321 4.54052 0
M  V30 7930 N 768.612 -1.24939 0.960631 0
M  V30 7931 C 770.023 -1.74701 0.658529 0
M  V30 7932 C 770.374 -1.77967 -0.825959 0
M  V30 7933 O 769.499 -1.40444 -1.64634 0
M  V30 7934 C 770.094 -3.17263 1.18867 0
M  V30 7935 C 768.653 -3.64561 0.936614 0
M  V30 7936 C 767.8 -2.43423 1.32817 0
M  V30 7937 H 770.751 -1.10741 1.13676 0
M  V30 7938 H 770.772 -3.76481 0.551589 0
M  V30 7939 H 770.284 -3.14854 2.26912 0
M  V30 7940 H 768.385 -3.72378 -0.128608 0
M  V30 7941 H 768.498 -4.52392 1.57729 0
M  V30 7942 H 766.862 -2.43513 0.746548 0
M  V30 7943 H 767.645 -2.437 2.41796 0
M  V30 7944 N 770.09 -0.729906 -1.39679 0
M  V30 7945 C 771.336 -0.284905 -2.01395 0
M  V30 7946 C 771.691 1.11394 -1.56873 0
M  V30 7947 O 770.984 1.74765 -0.785342 0
M  V30 7948 C 771.178 -0.319564 -3.55968 0
M  V30 7949 C 771.007 -1.72024 -4.15497 0
M  V30 7950 C 769.777 -2.33128 -4.48307 0
M  V30 7951 C 771.975 -2.67296 -4.39383 0
M  V30 7952 N 769.957 -3.65403 -4.93309 0
M  V30 7953 C 771.328 -3.84298 -4.86534 0
M  V30 7954 C 773.383 -2.65124 -4.21442 0
M  V30 7955 C 772.086 -4.99455 -5.17627 0
M  V30 7956 C 774.112 -3.7942 -4.53646 0
M  V30 7957 C 773.474 -4.95156 -5.00999 0
M  V30 7958 H 769.573 -0.1504 -0.767401 0
M  V30 7959 H 772.157 -0.954783 -1.69682 0
M  V30 7960 H 770.328 0.319938 -3.8708 0
M  V30 7961 H 772.06 0.143504 -4.04445 0
M  V30 7962 H 768.815 -1.85097 -4.35931 0
M  V30 7963 H 769.239 -4.33298 -5.20175 0
M  V30 7964 H 773.881 -1.76842 -3.8404 0
M  V30 7965 H 771.599 -5.88371 -5.53937 0
M  V30 7966 H 775.185 -3.79031 -4.41392 0
M  V30 7967 H 774.065 -5.82131 -5.25446 0
M  V30 7968 N 771.568 1.50203 -0.477153 0
M  V30 7969 C 772.845 1.95115 0.137609 0
M  V30 7970 C 773.225 1.41778 1.56404 0
M  V30 7971 O 772.573 0.621333 2.1989 0
M  V30 7972 C 772.783 3.4892 0.0747168 0
M  V30 7973 C 774.131 4.238 0.260585 0
M  V30 7974 O 775.155 3.5588 0.151021 0
M  V30 7975 O 774.014 5.44366 0.482534 0
M  V30 7976 H 771.108 0.81987 0.108364 0
M  V30 7977 H 773.654 1.60946 -0.537989 0
M  V30 7978 H 772.426 3.80308 -0.920966 0
M  V30 7979 H 772.049 3.89642 0.791509 0
M  V30 7980 N 773.046 0.209999 1.56195 0
M  V30 7981 C 774.292 -0.425442 1.98287 0
M  V30 7982 C 774.625 -1.60232 1.09724 0
M  V30 7983 O 773.9 -1.93902 0.152414 0
M  V30 7984 C 774.183 -0.871189 3.49403 0
M  V30 7985 C 774.036 0.308527 4.48741 0
M  V30 7986 C 775.355 -1.73146 4.04609 0
M  V30 7987 H 772.474 -0.153169 0.720908 0
M  V30 7988 H 775.116 0.303916 1.87554 0
M  V30 7989 H 773.266 -1.49266 3.58681 0
M  V30 7990 H 774.938 0.946487 4.51486 0
M  V30 7991 H 773.181 0.957878 4.23092 0
M  V30 7992 H 773.852 -0.0461143 5.51981 0
M  V30 7993 H 776.328 -1.2072 3.98203 0
M  V30 7994 H 775.204 -2.01228 5.10684 0
M  V30 7995 H 775.465 -2.69083 3.5078 0
M  V30 7996 N 774.524 -1.57472 -0.0634922 0
M  V30 7997 C 775.752 -1.91887 -0.773767 0
M  V30 7998 C 776.167 -0.806733 -1.70696 0
M  V30 7999 O 775.524 0.219383 -1.81177 0
M  V30 8000 C 775.575 -3.26092 -1.56034 0
M  V30 8001 O 775.296 -4.33029 -0.66464 0
M  V30 8002 C 776.797 -3.74573 -2.37087 0
M  V30 8003 H 774.017 -0.634074 -0.219525 0
M  V30 8004 H 776.561 -2.04476 -0.0312828 0
M  V30 8005 H 774.716 -3.15004 -2.25502 0
M  V30 8006 H 775.13 -5.10291 -1.21258 0
M  V30 8007 H 776.604 -4.71084 -2.87722 0
M  V30 8008 H 777.081 -3.04003 -3.16984 0
M  V30 8009 H 777.687 -3.88631 -1.72759 0
M  V30 8010 N 776.003 0.335068 -1.53997 0
M  V30 8011 C 776.95 1.41187 -1.82579 0
M  V30 8012 C 777.92 1.51897 -0.672061 0
M  V30 8013 O 779.105 1.673 -0.917346 0
M  V30 8014 C 776.245 2.77717 -2.0486 0
M  V30 8015 C 775.358 2.7573 -3.32561 0
M  V30 8016 C 774.493 4.04032 -3.44864 0
M  V30 8017 C 773.532 3.96308 -4.66483 0
M  V30 8018 N 772.669 5.16317 -4.75774 0
M  V30 8019 H 777.509 1.16113 -2.74448 0
M  V30 8020 H 775.046 0.562305 -1.35928 0
M  V30 8021 H 777.004 3.57071 -2.15768 0
M  V30 8022 H 775.634 3.01124 -1.16294 0
M  V30 8023 H 774.686 1.88432 -3.3045 0
M  V30 8024 H 775.998 2.65902 -4.22016 0
M  V30 8025 H 775.152 4.91814 -3.55251 0
M  V30 8026 H 773.891 4.16652 -2.53481 0
M  V30 8027 H 772.896 3.06911 -4.56164 0
M  V30 8028 H 774.121 3.85263 -5.5924 0
M  V30 8029 H 772.067 5.29464 -3.87303 0
M  V30 8030 H 771.984 5.08779 -5.59178 0
M  V30 8031 H 773.252 6.05846 -4.9048 0
M  V30 8032 N 777.481 1.45874 0.596531 0
M  V30 8033 C 778.411 1.5824 1.71705 0
M  V30 8034 C 779.392 0.433366 1.64487 0
M  V30 8035 O 780.577 0.657895 1.82717 0
M  V30 8036 C 777.707 1.55927 3.10329 0
M  V30 8037 C 776.661 2.69659 3.32367 0
M  V30 8038 C 775.987 2.52403 4.71377 0
M  V30 8039 C 777.287 4.11591 3.21544 0
M  V30 8040 H 778.981 2.52035 1.61613 0
M  V30 8041 H 776.527 1.21297 0.776082 0
M  V30 8042 H 778.48 1.63173 3.88526 0
M  V30 8043 H 777.204 0.586674 3.21288 0
M  V30 8044 H 775.863 2.61859 2.56564 0
M  V30 8045 H 775.511 1.53258 4.79083 0
M  V30 8046 H 775.211 3.28679 4.87077 0
M  V30 8047 H 776.735 2.6152 5.5176 0
M  V30 8048 H 778.149 4.20576 3.89601 0
M  V30 8049 H 776.546 4.88344 3.4877 0
M  V30 8050 H 777.616 4.32719 2.1882 0
M  V30 8051 N 778.959 -0.83999 1.33349 0
M  V30 8052 C 779.906 -1.94972 1.23509 0
M  V30 8053 C 780.876 -1.65709 0.113967 0
M  V30 8054 O 782.061 -1.88552 0.292045 0
M  V30 8055 C 779.201 -3.30919 0.979105 0
M  V30 8056 C 778.314 -3.72587 2.18639 0
M  V30 8057 C 777.449 -4.97397 1.86465 0
M  V30 8058 C 776.488 -5.31597 3.03432 0
M  V30 8059 N 775.625 -6.47584 2.71254 0
M  V30 8060 H 780.465 -2.0272 2.18423 0
M  V30 8061 H 778.002 -0.992017 1.08616 0
M  V30 8062 H 779.96 -4.09239 0.811126 0
M  V30 8063 H 778.59 -3.22731 0.0667099 0
M  V30 8064 H 777.642 -2.89799 2.46416 0
M  V30 8065 H 778.954 -3.93844 3.06086 0
M  V30 8066 H 778.108 -5.83462 1.66305 0
M  V30 8067 H 776.847 -4.78107 0.96254 0
M  V30 8068 H 775.852 -4.44037 3.24208 0
M  V30 8069 H 777.077 -5.52836 3.94397 0
M  V30 8070 H 775.023 -6.29783 1.836 0
M  V30 8071 H 774.94 -6.68931 3.52231 0
M  V30 8072 H 776.208 -7.36764 2.54558 0
M  V30 8073 N 780.437 -1.16799 -1.0581 0
M  V30 8074 C 781.662 -0.977402 -1.82925 0
M  V30 8075 C 782.087 0.469514 -1.82146 0
M  V30 8076 O 781.445 1.33576 -1.22585 0
M  V30 8077 C 781.493 -1.51543 -3.27211 0
M  V30 8078 O 780.597 -0.725021 -4.05977 0
M  V30 8079 H 779.938 -0.347474 -0.565825 0
M  V30 8080 H 782.468 -1.55151 -1.33376 0
M  V30 8081 H 782.478 -1.53502 -3.78023 0
M  V30 8082 H 781.153 -2.56872 -3.27093 0
M  V30 8083 H 779.73 -0.77634 -3.64729 0
M  V30 8084 N 781.915 1.24427 -0.967243 0
M  V30 8085 C 783.192 1.87831 -0.545776 0
M  V30 8086 C 783.572 1.87126 0.977099 0
M  V30 8087 O 782.92 1.34357 1.84826 0
M  V30 8088 C 783.13 3.29967 -1.13679 0
M  V30 8089 C 784.478 4.06654 -1.22139 0
M  V30 8090 O 785.502 3.39136 -1.08926 0
M  V30 8091 O 784.361 5.27455 -1.43017 0
M  V30 8092 H 781.455 0.806745 -0.181912 0
M  V30 8093 H 784.001 1.32403 -1.06148 0
M  V30 8094 H 782.773 3.24977 -2.17958 0
M  V30 8095 H 782.396 3.92969 -0.605093 0
M  V30 8096 N 783.393 0.737304 1.3929 0
M  V30 8097 C 784.621 0.296573 2.04763 0
M  V30 8098 C 785.036 -1.06941 1.55592 0
M  V30 8099 O 784.393 -1.67619 0.721822 0
M  V30 8100 C 784.444 0.291906 3.6032 0
M  V30 8101 O 784.165 1.60397 4.07682 0
M  V30 8102 C 785.666 -0.164708 4.42994 0
M  V30 8103 H 782.886 0.129251 0.658434 0
M  V30 8104 H 785.43 1.0016 1.78293 0
M  V30 8105 H 783.585 -0.364251 3.85684 0
M  V30 8106 H 783.999 1.51909 5.0202 0
M  V30 8107 H 785.473 -0.116814 5.51876 0
M  V30 8108 H 785.95 -1.21022 4.22197 0
M  V30 8109 H 786.556 0.461968 4.22784 0
M  V30 8110 N 784.871 -1.49948 0.485112 0
M  V30 8111 C 785.834 -2.27351 -0.290546 0
M  V30 8112 C 786.834 -1.32704 -0.908087 0
M  V30 8113 O 788.024 -1.56007 -0.775085 0
M  V30 8114 C 785.156 -3.10135 -1.41524 0
M  V30 8115 H 786.349 -2.97374 0.388454 0
M  V30 8116 H 783.902 -1.54453 0.239586 0
M  V30 8117 H 784.637 -2.44641 -2.12888 0
M  V30 8118 H 784.422 -3.79705 -0.978074 0
M  V30 8119 H 785.912 -3.68638 -1.96204 0
M  V30 8120 N 786.349 -0.21828 -1.56081 0
M  V30 8121 C 787.312 0.679633 -2.18892 0
M  V30 8122 C 788.312 1.12405 -1.14986 0
M  V30 8123 O 789.502 1.03339 -1.40238 0
M  V30 8124 C 786.634 1.93063 -2.80962 0
M  V30 8125 H 787.827 0.132066 -2.99609 0
M  V30 8126 H 785.38 0.0313374 -1.56269 0
M  V30 8127 H 786.115 2.52015 -2.04106 0
M  V30 8128 H 785.9 1.62046 -3.57048 0
M  V30 8129 H 787.39 2.57043 -3.29118 0
M  V30 8130 N 787.827 1.57504 0.0551401 0
M  V30 8131 C 788.79 2.03826 1.04821 0
M  V30 8132 C 789.79 0.937968 1.30609 0
M  V30 8133 O 790.98 1.20237 1.2605 0
M  V30 8134 C 788.112 2.43309 2.38775 0
M  V30 8135 H 789.305 2.92802 0.6486 0
M  V30 8136 H 786.858 1.53368 0.301315 0
M  V30 8137 H 787.593 1.5741 2.83536 0
M  V30 8138 H 787.378 3.23615 2.21395 0
M  V30 8139 H 788.868 2.79666 3.10124 0
M  V30 8140 N 789.305 -0.326896 1.54172 0
M  V30 8141 C 790.268 -1.38515 1.8261 0
M  V30 8142 C 791.268 -1.44872 0.697771 0
M  V30 8143 O 792.458 -1.44957 0.966078 0
M  V30 8144 C 789.59 -2.77281 1.98313 0
M  V30 8145 H 790.783 -1.14556 2.77159 0
M  V30 8146 H 788.336 -0.562199 1.45839 0
M  V30 8147 H 789.071 -3.065 1.05964 0
M  V30 8148 H 788.856 -2.74061 2.80416 0
M  V30 8149 H 790.346 -3.53845 2.21773 0
M  V30 8150 N 790.784 -1.46188 -0.588786 0
M  V30 8151 C 792.03 -1.51407 -1.34921 0
M  V30 8152 C 792.363 -0.162771 -1.93517 0
M  V30 8153 O 791.638 0.825082 -1.76132 0
M  V30 8154 C 791.921 -2.60795 -2.48311 0
M  V30 8155 C 791.774 -4.05435 -1.94789 0
M  V30 8156 C 793.093 -2.66313 -3.50379 0
M  V30 8157 H 790.212 -0.551213 -0.489217 0
M  V30 8158 H 792.854 -1.78095 -0.661993 0
M  V30 8159 H 791.004 -2.3817 -3.06932 0
M  V30 8160 H 792.676 -4.39328 -1.40672 0
M  V30 8161 H 790.919 -4.15202 -1.25659 0
M  V30 8162 H 791.59 -4.77691 -2.76613 0
M  V30 8163 H 794.066 -2.86634 -3.01629 0
M  V30 8164 H 792.942 -3.44681 -4.27184 0
M  V30 8165 H 793.203 -1.72127 -4.07216 0
M  V30 8166 N 792.262 0.832906 -1.33792 0
M  V30 8167 C 793.678 1.1245 -1.13257 0
M  V30 8168 C 793.878 2.01369 0.0725832 0
M  V30 8169 O 792.934 2.41071 0.751082 0
M  V30 8170 C 794.247 1.78084 -2.42294 0
M  V30 8171 C 795.795 1.90624 -2.48257 0
M  V30 8172 C 796.27 2.59673 -3.77271 0
M  V30 8173 N 797.761 2.67181 -3.78376 0
M  V30 8174 C 798.496 3.21313 -4.74916 0
M  V30 8175 N 797.992 3.76086 -5.81835 0
M  V30 8176 N 799.785 3.19621 -4.62384 0
M  V30 8177 H 791.936 0.241244 -2.11026 0
M  V30 8178 H 794.199 0.169557 -0.932713 0
M  V30 8179 H 793.905 1.20209 -3.30519 0
M  V30 8180 H 793.779 2.78049 -2.5489 0
M  V30 8181 H 796.166 2.4765 -1.60478 0
M  V30 8182 H 796.247 0.89591 -2.39598 0
M  V30 8183 H 795.891 2.03304 -4.65435 0
M  V30 8184 H 795.821 3.61189 -3.8321 0
M  V30 8185 H 798.312 2.28346 -3.01108 0
M  V30 8186 H 798.625 4.15612 -6.51526 0
M  V30 8187 H 796.97 3.74357 -5.85561 0
M  V30 8188 H 800.161 2.76091 -3.7801 0
M  V30 8189 H 800.334 3.61504 -5.37791 0
M  V30 8190 N 793.74 1.17359 1.05189 0
M  V30 8191 C 794.672 0.848078 2.12933 0
M  V30 8192 C 795.685 -0.149521 1.62112 0
M  V30 8193 O 796.874 0.0767797 1.78335 0
M  V30 8194 C 793.974 0.243889 3.38021 0
M  V30 8195 C 793.147 1.28436 4.18118 0
M  V30 8196 C 792.206 0.697926 5.21551 0
M  V30 8197 O 791.232 1.36973 5.52473 0
M  V30 8198 N 792.434 -0.510024 5.78255 0
M  V30 8199 H 795.199 1.7754 2.41453 0
M  V30 8200 H 792.76 1.07244 1.21286 0
M  V30 8201 H 794.752 -0.161727 4.04377 0
M  V30 8202 H 793.322 -0.58722 3.07035 0
M  V30 8203 H 792.542 1.86573 3.47252 0
M  V30 8204 H 793.83 1.98617 4.68432 0
M  V30 8205 H 793.228 -1.07378 5.55416 0
M  V30 8206 H 791.785 -0.857705 6.46132 0
M  V30 8207 N 795.218 -1.23913 0.973828 0
M  V30 8208 C 796.151 -2.23647 0.45355 0
M  V30 8209 C 797.129 -1.55485 -0.475724 0
M  V30 8210 O 798.313 -1.84083 -0.405689 0
M  V30 8211 C 795.44 -3.36942 -0.344594 0
M  V30 8212 C 794.486 -4.23221 0.527859 0
M  V30 8213 S 795.319 -4.97877 1.97177 0
M  V30 8214 C 796.475 -6.14627 1.18258 0
M  V30 8215 H 796.708 -2.67433 1.29873 0
M  V30 8216 H 794.241 -1.33289 0.779322 0
M  V30 8217 H 796.199 -4.02647 -0.799103 0
M  V30 8218 H 794.86 -2.91703 -1.16482 0
M  V30 8219 H 794.053 -5.03928 -0.0852555 0
M  V30 8220 H 793.655 -3.6255 0.918344 0
M  V30 8221 H 795.947 -6.76066 0.440629 0
M  V30 8222 H 796.89 -6.80311 1.96425 0
M  V30 8223 H 797.298 -5.6009 0.704256 0
M  V30 8224 N 796.696 -0.74468 -1.38897 0
M  V30 8225 C 797.644 -0.100312 -2.32384 0
M  V30 8226 C 798.638 0.715191 -1.53562 0
M  V30 8227 O 799.844 0.615288 -1.69157 0
M  V30 8228 H 796.219 -0.0136403 -0.751876 0
M  V30 8229 H 798.19 -0.905007 -2.84345 0
M  V30 8230 C 796.939 0.785432 -3.38713 0
M  V30 8231 H 796.262 0.167308 -3.9945 0
M  V30 8232 H 797.702 1.20374 -4.06554 0
M  V30 8233 C 796.161 1.92408 -2.76552 0
M  V30 8234 O 796.691 3.01752 -2.65157 0
M  V30 8235 N 794.897 1.71642 -2.34494 0
M  V30 8236 H 794.444 0.827079 -2.43961 0
M  V30 8237 H 794.402 2.48 -1.93244 0
M  V30 8238 N 798.174 1.49689 -0.493057 0
M  V30 8239 C 799.585 1.8665 -0.0433032 0
M  V30 8240 C 799.936 1.40607 1.36836 0
M  V30 8241 O 799.061 0.780503 2.01834 0
M  V30 8242 C 799.656 3.38724 -0.0718069 0
M  V30 8243 C 798.215 3.75015 0.32257 0
M  V30 8244 C 797.362 2.7366 -0.4478 0
M  V30 8245 H 800.313 1.42119 -0.706246 0
M  V30 8246 H 800.334 3.73522 0.725347 0
M  V30 8247 H 799.846 3.72204 -1.09935 0
M  V30 8248 H 797.947 3.47142 1.35364 0
M  V30 8249 H 798.06 4.79099 0.00864259 0
M  V30 8250 H 796.424 2.54498 0.101354 0
M  V30 8251 H 797.207 3.09985 -1.47527 0
M  V30 8252 N 799.652 0.226554 1.55963 0
M  V30 8253 C 800.602 -0.694986 2.1715 0
M  V30 8254 C 801.586 -1.15394 1.12129 0
M  V30 8255 O 802.778 -1.1071 1.38102 0
M  V30 8256 C 799.907 -1.9007 2.85882 0
M  V30 8257 C 798.993 -1.46119 3.98133 0
M  V30 8258 N 799.384 -0.734584 5.00437 0
M  V30 8259 C 797.682 -1.74809 4.10314 0
M  V30 8260 C 798.383 -0.509773 5.79462 0
M  V30 8261 N 797.359 -1.06796 5.33006 0
M  V30 8262 H 801.161 -0.131469 2.93606 0
M  V30 8263 H 798.675 0.0280165 1.62376 0
M  V30 8264 H 800.672 -2.57169 3.28131 0
M  V30 8265 H 799.332 -2.46864 2.10923 0
M  V30 8266 H 800.343 -0.386757 5.16454 0
M  V30 8267 H 797.02 -2.32887 3.46511 0
M  V30 8268 H 798.41 0.0688847 6.71865 0
M  V30 8269 N 801.13 -1.57531 -0.0467866 0
M  V30 8270 C 802.379 -1.87632 -0.740069 0
M  V30 8271 C 802.692 -0.822691 -1.77457 0
M  V30 8272 O 803.898 -1.01235 -2.5192 0
M  V30 8273 C 802.354 -3.32917 -1.36727 0
M  V30 8274 C 801.962 -4.46469 -0.370035 0
M  V30 8275 C 803.706 -3.72189 -2.04146 0
M  V30 8276 C 801.613 -5.82806 -1.00457 0
M  V30 8277 H 800.543 -0.70002 -0.280158 0
M  V30 8278 H 803.194 -1.83499 0.00607151 0
M  V30 8279 H 801.576 -3.31739 -2.16252 0
M  V30 8280 H 802.75 -4.59085 0.397217 0
M  V30 8281 H 801.065 -4.15914 0.201079 0
M  V30 8282 H 803.662 -4.71357 -2.52441 0
M  V30 8283 H 804.005 -3.03268 -2.85192 0
M  V30 8284 H 804.538 -3.75465 -1.3142 0
M  V30 8285 H 801.277 -6.55083 -0.233907 0
M  V30 8286 H 800.797 -5.73944 -1.74209 0
M  V30 8287 H 802.476 -6.28961 -1.51713 0
M  V30 8288 N 802.608 0.318715 -1.54344 0
M  V30 8289 C 804.024 0.663345 -1.45162 0
M  V30 8290 C 804.224 1.9145 -0.62842 0
M  V30 8291 O 803.28 2.5217 -0.129126 0
M  V30 8292 C 804.593 0.832836 -2.88937 0
M  V30 8293 C 806.141 0.929866 -2.98869 0
M  V30 8294 C 806.616 1.13149 -4.43803 0
M  V30 8295 N 808.107 1.19811 -4.47437 0
M  V30 8296 C 808.842 1.37209 -5.56742 0
M  V30 8297 N 808.338 1.51619 -6.76006 0
M  V30 8298 N 810.131 1.39956 -5.44398 0
M  V30 8299 H 802.282 -0.50357 -2.06344 0
M  V30 8300 H 804.545 -0.163528 -0.933789 0
M  V30 8301 H 804.251 -0.0153519 -3.51697 0
M  V30 8302 H 804.125 1.72721 -3.35332 0
M  V30 8303 H 806.512 1.76855 -2.36233 0
M  V30 8304 H 806.593 0.0118561 -2.55797 0
M  V30 8305 H 806.237 0.297636 -5.07027 0
M  V30 8306 H 806.167 2.06345 -4.84489 0
M  V30 8307 H 808.658 1.101 -3.61506 0
M  V30 8308 H 808.971 1.64599 -7.55067 0
M  V30 8309 H 807.316 1.48708 -6.78904 0
M  V30 8310 H 810.507 1.28298 -4.50175 0
M  V30 8311 H 810.68 1.53172 -6.29637 0
M  V30 8312 N 804.086 1.46499 0.581025 0
M  V30 8313 C 805.332 1.52121 1.34116 0
M  V30 8314 C 805.665 0.173031 1.93428 0
M  V30 8315 O 804.94 -0.815729 1.76568 0
M  V30 8316 C 805.223 2.62108 2.46924 0
M  V30 8317 C 805.076 4.06462 1.92636 0
M  V30 8318 C 806.395 2.68167 3.48962 0
M  V30 8319 H 803.514 0.5538 0.486287 0
M  V30 8320 H 806.156 1.78443 0.652538 0
M  V30 8321 H 804.306 2.39794 3.05665 0
M  V30 8322 H 805.978 4.40068 1.3834 0
M  V30 8323 H 804.221 4.15862 1.23455 0
M  V30 8324 H 804.892 4.79152 2.74076 0
M  V30 8325 H 807.368 2.8823 3.00104 0
M  V30 8326 H 806.244 3.46942 4.2535 0
M  V30 8327 H 806.505 1.74284 4.06297 0
M  V30 8328 N 805.565 -0.825799 1.34232 0
M  V30 8329 C 806.793 -1.61363 1.29497 0
M  V30 8330 C 807.208 -1.88341 -0.131536 0
M  V30 8331 O 806.565 -1.47279 -1.07773 0
M  V30 8332 C 806.616 -2.95623 2.08061 0
M  V30 8333 O 806.337 -2.69824 3.45147 0
M  V30 8334 C 807.838 -3.90032 2.10688 0
M  V30 8335 H 805.058 -0.501676 0.445603 0
M  V30 8336 H 807.602 -1.02767 1.76803 0
M  V30 8337 H 805.757 -3.50785 1.64404 0
M  V30 8338 H 806.171 -3.55412 3.85723 0
M  V30 8339 H 807.645 -4.81411 2.70087 0
M  V30 8340 H 808.122 -4.25188 1.10052 0
M  V30 8341 H 808.728 -3.40807 2.54422 0
M  V30 8342 N 807.043 -1.17915 -1.04565 0
M  V30 8343 C 808.268 -0.996749 -1.81878 0
M  V30 8344 C 808.693 0.450169 -1.82634 0
M  V30 8345 O 808.051 1.32268 -1.23995 0
M  V30 8346 C 808.099 -1.55005 -3.25585 0
M  V30 8347 O 807.203 -0.76804 -4.05185 0
M  V30 8348 H 806.544 -0.353456 -0.562108 0
M  V30 8349 H 809.074 -1.56557 -1.31723 0
M  V30 8350 H 809.084 -1.57503 -3.76373 0
M  V30 8351 H 807.759 -2.60327 -3.2435 0
M  V30 8352 H 806.336 -0.81498 -3.63885 0
M  V30 8353 N 808.521 1.23394 -0.980386 0
M  V30 8354 C 809.471 2.22634 -0.491747 0
M  V30 8355 C 810.455 1.54958 0.433222 0
M  V30 8356 O 811.647 1.75049 0.262078 0
M  V30 8357 C 808.776 3.4269 0.204531 0
M  V30 8358 C 807.862 4.17594 -0.740007 0
M  V30 8359 N 808.253 4.69458 -1.88263 0
M  V30 8360 C 806.551 4.42554 -0.553335 0
M  V30 8361 C 807.252 5.26446 -2.47446 0
M  V30 8362 N 806.228 5.14377 -1.75834 0
M  V30 8363 H 810.03 2.60363 -1.36339 0
M  V30 8364 H 807.544 1.38924 -0.841059 0
M  V30 8365 H 809.541 4.12959 0.571901 0
M  V30 8366 H 808.201 3.06477 1.07246 0
M  V30 8367 H 809.212 4.65803 -2.26381 0
M  V30 8368 H 805.889 4.16629 0.269573 0
M  V30 8369 H 807.279 5.77195 -3.43941 0
M  V30 8370 N 809.999 0.752036 1.385 0
M  V30 8371 C 810.931 0.0835089 2.29048 0
M  V30 8372 C 811.944 -0.685402 1.47669 0
M  V30 8373 O 813.133 -0.526748 1.70551 0
M  V30 8374 C 810.233 -0.905772 3.26572 0
M  V30 8375 C 809.406 -0.194828 4.36966 0
M  V30 8376 C 808.465 -1.09464 5.14688 0
M  V30 8377 O 807.491 -0.565743 5.66381 0
M  V30 8378 N 808.693 -2.42287 5.2752 0
M  V30 8379 H 811.458 0.861142 2.87062 0
M  V30 8380 H 809.019 0.602689 1.50264 0
M  V30 8381 H 811.011 -1.51072 3.75446 0
M  V30 8382 H 809.581 -1.58449 2.69467 0
M  V30 8383 H 808.801 0.590812 3.89747 0
M  V30 8384 H 810.089 0.297189 5.07931 0
M  V30 8385 H 809.487 -2.87715 4.8707 0
M  V30 8386 H 808.044 -2.97836 5.79773 0
M  V30 8387 N 811.477 -1.49425 0.500989 0
M  V30 8388 C 812.425 -2.30771 -0.291149 0
M  V30 8389 C 813.419 -1.3938 -0.962787 0
M  V30 8390 O 814.625 -1.56431 -0.890477 0
M  V30 8391 H 811 -0.743499 -0.11275 0
M  V30 8392 H 812.971 -2.95501 0.414917 0
M  V30 8393 C 811.72 -3.20725 -1.34279 0
M  V30 8394 H 811.043 -3.90975 -0.83538 0
M  V30 8395 H 812.483 -3.80583 -1.86903 0
M  V30 8396 C 810.942 -2.40334 -2.36095 0
M  V30 8397 O 811.472 -2.10749 -3.41976 0
M  V30 8398 N 809.678 -2.02359 -2.08565 0
M  V30 8399 H 809.225 -2.26619 -1.22482 0
M  V30 8400 H 809.183 -1.48878 -2.76916 0
M  V30 8401 N 812.955 -0.234822 -1.55841 0
M  V30 8402 C 814.371 0.120295 -1.59146 0
M  V30 8403 C 814.571 1.57896 -1.25184 0
M  V30 8404 O 813.627 2.32138 -0.993393 0
M  V30 8405 C 814.94 -0.217984 -2.99909 0
M  V30 8406 C 816.488 -0.161298 -3.12584 0
M  V30 8407 C 816.963 -0.473438 -4.55546 0
M  V30 8408 N 818.454 -0.423494 -4.6126 0
M  V30 8409 C 819.189 -0.638334 -5.69836 0
M  V30 8410 N 818.685 -0.915659 -6.86722 0
M  V30 8411 N 820.478 -0.569864 -5.59204 0
M  V30 8412 H 812.629 -1.18622 -1.76189 0
M  V30 8413 H 814.892 -0.476426 -0.819587 0
M  V30 8414 H 814.598 -1.2309 -3.29457 0
M  V30 8415 H 814.472 0.460707 -3.74376 0
M  V30 8416 H 816.859 0.842274 -2.82825 0
M  V30 8417 H 816.94 -0.873661 -2.40418 0
M  V30 8418 H 816.584 -1.47451 -4.86025 0
M  V30 8419 H 816.514 0.260268 -5.25956 0
M  V30 8420 H 819.005 -0.217383 -3.77274 0
M  V30 8421 H 819.318 -1.06734 -7.65394 0
M  V30 8422 H 817.663 -0.953 -6.88435 0
M  V30 8423 H 820.854 -0.35334 -4.66765 0
M  V30 8424 H 821.027 -0.740698 -6.43753 0
M  V30 8425 N 814.433 1.57553 0.0384317 0
M  V30 8426 C 815.679 1.89121 0.732199 0
M  V30 8427 C 816.012 0.831404 1.75503 0
M  V30 8428 O 815.287 -0.154642 1.93884 0
M  V30 8429 C 815.57 3.31338 1.41021 0
M  V30 8430 C 815.423 4.48004 0.401532 0
M  V30 8431 C 816.742 3.72318 2.34665 0
M  V30 8432 H 813.861 0.687819 0.264715 0
M  V30 8433 H 816.503 1.89999 -0.00496279 0
M  V30 8434 H 814.653 3.3072 2.03854 0
M  V30 8435 H 816.325 4.60755 -0.224159 0
M  V30 8436 H 814.568 4.32895 -0.280092 0
M  V30 8437 H 815.239 5.44377 0.91423 0
M  V30 8438 H 817.715 3.74243 1.81883 0
M  V30 8439 H 816.591 4.72652 2.7909 0
M  V30 8440 H 816.852 3.04062 3.20934 0
M  V30 8441 N 815.911 -0.310526 1.54511 0
M  V30 8442 C 817.159 -1.04484 1.72996 0
M  V30 8443 C 817.48 -1.88118 0.513479 0
M  V30 8444 O 816.75 -1.90119 -0.472384 0
M  V30 8445 H 815.33 -0.388747 0.637875 0
M  V30 8446 H 817.992 -0.343811 1.91844 0
M  V30 8447 H 817.088 -1.70341 2.61515 0
M  V30 8448 N 817.389 -1.46805 -0.573248 0
M  V30 8449 C 818.8 -1.46655 -1.15539 0
M  V30 8450 C 819.151 -0.2125 -1.95046 0
M  V30 8451 O 818.276 0.683759 -2.05314 0
M  V30 8452 C 818.871 -2.65711 -2.10198 0
M  V30 8453 C 817.43 -2.68572 -2.63716 0
M  V30 8454 C 816.577 -2.39498 -1.39772 0
M  V30 8455 H 819.528 -1.54547 -0.36068 0
M  V30 8456 H 819.549 -2.41768 -2.93817 0
M  V30 8457 H 819.061 -3.56967 -1.52303 0
M  V30 8458 H 817.162 -1.81414 -3.25453 0
M  V30 8459 H 817.275 -3.68809 -3.05805 0
M  V30 8460 H 815.639 -1.89749 -1.69904 0
M  V30 8461 H 816.422 -3.32942 -0.836943 0
M  V30 8462 N 818.867 0.818669 -1.34668 0
M  V30 8463 C 820.144 1.56118 -1.17841 0
M  V30 8464 C 820.524 2.09646 0.24731 0
M  V30 8465 O 819.872 1.91329 1.24922 0
M  V30 8466 C 820.082 2.67922 -2.23649 0
M  V30 8467 C 821.43 3.36579 -2.58843 0
M  V30 8468 O 822.454 2.78182 -2.22471 0
M  V30 8469 O 821.313 4.42045 -3.21339 0
M  V30 8470 H 818.407 0.689216 -0.457067 0
M  V30 8471 H 820.953 0.859674 -1.46314 0
M  V30 8472 H 819.725 2.26153 -3.19328 0
M  V30 8473 H 819.348 3.45719 -1.96377 0
M  V30 8474 N 820.346 1.18468 1.03938 0
M  V30 8475 C 821.574 1.00576 1.80809 0
M  V30 8476 C 821.989 -0.445786 1.83462 0
M  V30 8477 O 821.346 -1.30964 1.27101 0
M  V30 8478 C 821.397 1.55491 3.26351 0
M  V30 8479 O 821.118 2.94963 3.23926 0
M  V30 8480 C 822.619 1.42236 4.19862 0
M  V30 8481 H 819.839 0.35508 0.56935 0
M  V30 8482 H 822.383 1.57046 1.30984 0
M  V30 8483 H 820.538 1.03195 3.73403 0
M  V30 8484 H 820.952 3.20598 4.15111 0
M  V30 8485 H 822.426 1.85455 5.19914 0
M  V30 8486 H 822.903 0.371267 4.37628 0
M  V30 8487 H 823.509 1.9361 3.78675 0
M  V30 8488 N 821.824 -1.22873 0.986916 0
M  V30 8489 C 822.734 -2.28277 0.540978 0
M  V30 8490 C 823.75 -1.69164 -0.407363 0
M  V30 8491 O 824.926 -1.99504 -0.275674 0
M  V30 8492 C 821.991 -3.46404 -0.143181 0
M  V30 8493 C 821.052 -4.20854 0.847375 0
M  V30 8494 C 820.285 -5.33341 0.19577 0
M  V30 8495 O 820.508 -5.61356 -1.0117 0
M  V30 8496 O 819.442 -5.95169 0.897623 0
M  V30 8497 H 823.268 -2.68578 1.41773 0
M  V30 8498 H 820.853 -1.28927 0.754867 0
M  V30 8499 H 822.735 -4.18096 -0.526676 0
M  V30 8500 H 821.41 -3.08041 -0.994593 0
M  V30 8501 H 820.317 -3.51459 1.28169 0
M  V30 8502 H 821.65 -4.63082 1.6678 0
M  V30 8503 N 823.302 -0.75937 -1.38099 0
M  V30 8504 C 824.718 -0.437606 -1.53483 0
M  V30 8505 C 824.918 1.04849 -1.72072 0
M  V30 8506 O 823.974 1.83448 -1.73502 0
M  V30 8507 C 825.287 -1.24189 -2.73857 0
M  V30 8508 C 826.835 -1.23255 -2.8771 0
M  V30 8509 C 827.31 -2.01992 -4.11051 0
M  V30 8510 N 828.801 -1.99282 -4.1814 0
M  V30 8511 C 829.536 -2.56996 -5.12583 0
M  V30 8512 N 829.032 -3.23446 -6.12662 0
M  V30 8513 N 830.825 -2.46894 -5.04975 0
M  V30 8514 H 822.976 -1.72242 -1.24283 0
M  V30 8515 H 825.239 -0.730507 -0.604205 0
M  V30 8516 H 824.945 -2.29449 -2.66545 0
M  V30 8517 H 824.819 -0.862672 -3.67203 0
M  V30 8518 H 827.206 -0.187988 -2.94501 0
M  V30 8519 H 827.287 -1.65132 -1.95359 0
M  V30 8520 H 826.931 -3.06462 -4.05023 0
M  V30 8521 H 826.861 -1.57505 -5.02494 0
M  V30 8522 H 829.352 -1.50893 -3.46467 0
M  V30 8523 H 829.665 -3.6489 -6.81231 0
M  V30 8524 H 828.01 -3.27543 -6.12977 0
M  V30 8525 H 831.201 -1.94604 -4.25731 0
M  V30 8526 H 831.374 -2.92168 -5.78396 0
M  V30 8527 N 824.78 1.49157 -0.508906 0
M  V30 8528 C 826.029 2.0167 0.0346854 0
M  V30 8529 C 826.342 1.39302 1.37311 0
M  V30 8530 O 827.548 1.83189 2.00385 0
M  V30 8531 C 826.004 3.59725 0.112261 0
M  V30 8532 C 825.612 4.31069 -1.21999 0
M  V30 8533 C 827.356 4.20155 0.605798 0
M  V30 8534 C 825.263 5.81001 -1.10415 0
M  V30 8535 H 824.193 0.753814 0.0167355 0
M  V30 8536 H 826.844 1.7162 -0.649518 0
M  V30 8537 H 825.226 3.86525 0.861087 0
M  V30 8538 H 826.4 4.15962 -1.98273 0
M  V30 8539 H 824.715 3.82418 -1.64759 0
M  V30 8540 H 827.312 5.29964 0.710102 0
M  V30 8541 H 827.655 3.84051 1.60656 0
M  V30 8542 H 828.188 3.97705 -0.0867239 0
M  V30 8543 H 824.927 6.21643 -2.07941 0
M  V30 8544 H 824.447 5.9858 -0.382428 0
M  V30 8545 H 826.126 6.42207 -0.786116 0
M  V30 8546 N 826.258 0.243083 1.55714 0
M  V30 8547 C 827.488 -0.38641 2.02954 0
M  V30 8548 C 827.896 -1.52358 1.12177 0
M  V30 8549 O 827.239 -1.83255 0.127853 0
M  V30 8550 C 827.301 -0.959388 3.46462 0
M  V30 8551 C 826.965 0.0450546 4.56978 0
M  V30 8552 C 827.962 0.853224 5.12851 0
M  V30 8553 C 825.647 0.170041 5.02012 0
M  V30 8554 C 827.641 1.77288 6.12248 0
M  V30 8555 C 825.328 1.0932 6.01242 0
M  V30 8556 C 826.326 1.89315 6.56238 0
M  V30 8557 O 826.014 2.80075 7.53534 0
M  V30 8558 H 825.746 -0.0964333 0.669086 0
M  V30 8559 H 828.3 0.363399 2.0216 0
M  V30 8560 H 826.53 -1.75869 3.44394 0
M  V30 8561 H 828.219 -1.49856 3.77224 0
M  V30 8562 H 828.985 0.767229 4.78893 0
M  V30 8563 H 824.864 -0.442528 4.58871 0
M  V30 8564 H 828.408 2.39768 6.55101 0
M  V30 8565 H 824.305 1.18013 6.3462 0
M  V30 8566 H 825.073 2.74393 7.71136 0
M  V30 8567 N 827.736 -1.57571 -0.0300757 0
M  V30 8568 C 829.013 -1.80381 -0.756447 0
M  V30 8569 C 829.393 -0.840906 -1.93628 0
M  V30 8570 O 828.741 0.117143 -2.282 0
M  V30 8571 C 828.951 -3.2807 -1.19043 0
M  V30 8572 C 830.299 -3.93025 -1.60676 0
M  V30 8573 O 831.323 -3.32213 -1.28503 0
M  V30 8574 O 830.182 -5.00092 -2.20386 0
M  V30 8575 H 827.276 -0.741737 -0.365725 0
M  V30 8576 H 829.822 -1.69699 -0.00693177 0
M  V30 8577 H 828.594 -3.89748 -0.348128 0
M  V30 8578 H 828.217 -3.43637 -1.99999 0
M  V30 8579 N 829.214 0.302327 -1.54673 0
M  V30 8580 C 830.491 1.05721 -1.64567 0
M  V30 8581 C 830.871 2.0526 -0.493108 0
M  V30 8582 O 830.219 2.22729 0.510315 0
M  V30 8583 C 830.429 1.74025 -3.02517 0
M  V30 8584 C 831.777 2.26271 -3.59286 0
M  V30 8585 O 832.801 1.8406 -3.0496 0
M  V30 8586 O 831.66 3.0361 -4.54404 0
M  V30 8587 H 828.754 0.488577 -0.667249 0
M  V30 8588 H 831.3 0.300521 -1.67018 0
M  V30 8589 H 830.072 1.0174 -3.77842 0
M  V30 8590 H 829.695 2.56454 -3.03838 0
M  V30 8591 N 830.692 1.47107 0.565454 0
M  V30 8592 C 831.969 1.43787 1.32607 0
M  V30 8593 C 832.349 0.130428 2.10697 0
M  V30 8594 O 831.697 -0.888086 2.10536 0
M  V30 8595 C 831.907 2.67833 2.23755 0
M  V30 8596 C 833.255 3.14704 2.85037 0
M  V30 8597 O 834.279 2.68503 2.34061 0
M  V30 8598 O 833.138 3.95002 3.77671 0
M  V30 8599 H 830.232 0.572623 0.596684 0
M  V30 8600 H 832.778 1.59296 0.58504 0
M  V30 8601 H 831.55 3.54532 1.65597 0
M  V30 8602 H 831.173 2.54869 3.05168 0
M  V30 8603 N 832.17 -0.811516 1.35101 0
M  V30 8604 C 833.417 -1.56835 1.28098 0
M  V30 8605 C 833.745 -1.93951 -0.14597 0
M  V30 8606 O 833 -1.61173 -1.11004 0
M  V30 8607 C 833.299 -2.87121 2.1283 0
M  V30 8608 C 832.965 -2.69245 3.61688 0
M  V30 8609 C 831.627 -2.64078 4.02264 0
M  V30 8610 C 833.979 -2.52122 4.56162 0
M  V30 8611 C 831.307 -2.39724 5.3549 0
M  V30 8612 C 833.659 -2.29298 5.89581 0
M  V30 8613 C 832.323 -2.2255 6.29307 0
M  V30 8614 H 831.593 -0.5739 0.468742 0
M  V30 8615 H 834.24 -0.93806 1.66951 0
M  V30 8616 H 832.545 -3.54502 1.66841 0
M  V30 8617 H 834.242 -3.44788 2.0475 0
M  V30 8618 H 830.832 -2.74112 3.29485 0
M  V30 8619 H 835.016 -2.5513 4.25702 0
M  V30 8620 H 830.272 -2.32965 5.65276 0
M  V30 8621 H 834.446 -2.15038 6.62368 0
M  V30 8622 H 832.073 -2.0344 7.32473 0
M  V30 8623 N 833.648 -1.19017 -1.03309 0
M  V30 8624 C 834.895 -0.990214 -1.76638 0
M  V30 8625 C 835.223 0.479435 -1.88498 0
M  V30 8626 O 834.478 1.37223 -1.39529 0
M  V30 8627 C 834.777 -1.59927 -3.19622 0
M  V30 8628 C 834.443 -3.09632 -3.27779 0
M  V30 8629 C 833.105 -3.50491 -3.29712 0
M  V30 8630 C 835.457 -4.05644 -3.27264 0
M  V30 8631 C 832.785 -4.85921 -3.28782 0
M  V30 8632 C 835.137 -5.41 -3.27875 0
M  V30 8633 C 833.801 -5.81295 -3.28104 0
M  V30 8634 H 833.071 -0.362345 -0.646364 0
M  V30 8635 H 835.718 -1.48197 -1.21284 0
M  V30 8636 H 834.023 -1.0297 -3.78027 0
M  V30 8637 H 835.72 -1.41989 -3.7502 0
M  V30 8638 H 832.31 -2.77073 -3.26999 0
M  V30 8639 H 836.494 -3.75124 -3.24955 0
M  V30 8640 H 831.75 -5.16427 -3.27281 0
M  V30 8641 H 835.924 -6.15157 -3.26428 0
M  V30 8642 H 833.551 -6.86211 -3.27138 0
M  V30 8643 N 835.127 1.22348 -0.993418 0
M  V30 8644 C 836.059 2.23626 -0.502404 0
M  V30 8645 C 837.072 1.57739 0.402784 0
M  V30 8646 O 838.261 1.77321 0.204835 0
M  V30 8647 C 835.361 3.37647 0.291118 0
M  V30 8648 C 834.534 4.33121 -0.610332 0
M  V30 8649 C 833.593 5.26035 0.131572 0
M  V30 8650 O 832.619 5.67145 -0.483199 0
M  V30 8651 N 833.821 5.63023 1.41371 0
M  V30 8652 H 836.586 2.66385 -1.37329 0
M  V30 8653 H 834.147 1.36653 -0.868196 0
M  V30 8654 H 836.139 3.96792 0.796107 0
M  V30 8655 H 834.709 2.93967 1.0631 0
M  V30 8656 H 833.929 3.72287 -1.29598 0
M  V30 8657 H 835.217 4.93853 -1.22422 0
M  V30 8658 H 834.615 5.31596 1.93449 0
M  V30 8659 H 833.172 6.24582 1.86388 0
M  V30 8660 N 836.605 0.766683 1.37694 0
M  V30 8661 C 837.553 0.137269 2.32195 0
M  V30 8662 C 838.547 -0.69067 1.54681 0
M  V30 8663 O 839.753 -0.588299 1.70115 0
M  V30 8664 H 836.128 0.0256003 0.751564 0
M  V30 8665 H 838.099 0.950129 2.82869 0
M  V30 8666 C 836.848 -0.731446 3.39919 0
M  V30 8667 H 836.171 -0.103738 3.99665 0
M  V30 8668 H 837.611 -1.13891 4.08417 0
M  V30 8669 C 836.07 -1.87984 2.79578 0
M  V30 8670 O 836.6 -2.97496 2.69924 0
M  V30 8671 N 834.806 -1.6789 2.37195 0
M  V30 8672 H 834.353 -0.788162 2.45246 0
M  V30 8673 H 834.311 -2.44894 1.97165 0
M  V30 8674 N 838.083 -1.48885 0.516809 0
M  V30 8675 C 839.013 -2.32241 -0.242157 0
M  V30 8676 C 839.994 -1.41258 -0.947633 0
M  V30 8677 O 841.179 -1.70156 -0.935973 0
M  V30 8678 C 838.309 -3.22151 -1.29754 0
M  V30 8679 C 837.263 -4.22053 -0.710995 0
M  V30 8680 C 836.589 -5.01007 -1.86806 0
M  V30 8681 C 837.889 -5.21388 0.30853 0
M  V30 8682 H 839.583 -2.95943 0.453651 0
M  V30 8683 H 837.129 -1.42316 0.219612 0
M  V30 8684 H 839.082 -3.79284 -1.83634 0
M  V30 8685 H 837.806 -2.56423 -2.02274 0
M  V30 8686 H 836.465 -3.66087 -0.193819 0
M  V30 8687 H 836.113 -4.31713 -2.58133 0
M  V30 8688 H 835.813 -5.68615 -1.48159 0
M  V30 8689 H 837.337 -5.60989 -2.4109 0
M  V30 8690 H 838.751 -5.73122 -0.142703 0
M  V30 8691 H 837.148 -5.96975 0.611673 0
M  V30 8692 H 838.218 -4.69329 1.21894 0
M  V30 8693 N 839.561 -0.251338 -1.55583 0
M  V30 8694 C 840.838 0.422729 -1.90977 0
M  V30 8695 C 841.218 1.75534 -1.17265 0
M  V30 8696 O 840.566 2.26632 -0.291588 0
M  V30 8697 C 840.776 0.586448 -3.44037 0
M  V30 8698 C 842.124 0.880294 -4.15375 0
M  V30 8699 O 843.148 0.672148 -3.49801 0
M  V30 8700 O 842.007 1.27694 -5.31372 0
M  V30 8701 H 839.101 0.227622 -0.795058 0
M  V30 8702 H 841.647 -0.295733 -1.67103 0
M  V30 8703 H 840.419 -0.352327 -3.89711 0
M  V30 8704 H 840.042 1.35528 -3.73789 0
M  V30 8705 N 841.039 1.57585 0.0217189 0
M  V30 8706 C 842.287 1.89231 0.709641 0
M  V30 8707 C 842.608 0.849964 1.75501 0
M  V30 8708 O 841.878 -0.115485 1.95559 0
M  V30 8709 H 840.458 0.69838 0.265092 0
M  V30 8710 H 843.12 1.94895 -0.0140688 0
M  V30 8711 H 842.216 2.88333 1.19459 0
M  V30 8712 N 842.517 -0.29412 1.54831 0
M  V30 8713 C 843.763 -1.02999 1.74697 0
M  V30 8714 C 844.096 -1.86687 0.534949 0
M  V30 8715 O 843.371 -1.88789 -0.467863 0
M  V30 8716 C 843.654 -1.93024 3.03996 0
M  V30 8717 C 843.507 -1.1247 4.35512 0
M  V30 8718 C 844.826 -2.92085 3.29203 0
M  V30 8719 H 841.945 -0.373039 0.635618 0
M  V30 8720 H 844.587 -0.304065 1.87551 0
M  V30 8721 H 842.737 -2.5492 2.93169 0
M  V30 8722 H 844.409 -0.528067 4.58268 0
M  V30 8723 H 842.652 -0.427574 4.31688 0
M  V30 8724 H 843.323 -1.78728 5.22265 0
M  V30 8725 H 845.799 -2.40319 3.39685 0
M  V30 8726 H 844.675 -3.52234 4.20978 0
M  V30 8727 H 844.936 -3.66107 2.47827 0
M  V30 8728 N 843.995 -1.47404 -0.557645 0
M  V30 8729 C 844.958 -1.59411 -1.64684 0
M  V30 8730 C 845.958 -0.469244 -1.53801 0
M  V30 8731 O 847.148 -0.734298 -1.57967 0
M  V30 8732 C 844.28 -1.5382 -3.04224 0
M  V30 8733 H 845.473 -2.56504 -1.55389 0
M  V30 8734 H 843.026 -1.35588 -0.777531 0
M  V30 8735 H 843.761 -0.581 -3.19053 0
M  V30 8736 H 843.546 -2.35456 -3.13533 0
M  V30 8737 H 845.036 -1.65358 -3.83466 0
M  V30 8738 N 845.473 0.80434 -1.35529 0
M  V30 8739 C 846.421 1.93769 -1.28671 0
M  V30 8740 C 847.415 1.68428 -0.181222 0
M  V30 8741 O 848.621 1.76617 -0.347338 0
M  V30 8742 H 844.996 0.636663 -0.400206 0
M  V30 8743 H 846.967 1.96673 -2.24415 0
M  V30 8744 C 845.716 3.30572 -1.07784 0
M  V30 8745 H 845.039 3.5063 -1.9209 0
M  V30 8746 H 846.479 4.1027 -1.07027 0
M  V30 8747 C 844.938 3.36193 0.218213 0
M  V30 8748 O 845.468 3.82941 1.21323 0
M  V30 8749 N 843.674 2.89455 0.257761 0
M  V30 8750 H 843.221 2.51604 -0.552562 0
M  V30 8751 H 843.179 2.93597 1.12465 0
M  V30 8752 N 846.951 1.19563 1.02676 0
M  V30 8753 C 847.914 0.937182 2.09164 0
M  V30 8754 C 848.914 -0.0831927 1.60585 0
M  V30 8755 O 850.104 0.15178 1.73538 0
M  V30 8756 C 847.236 0.408912 3.38439 0
M  V30 8757 H 848.429 1.88164 2.33526 0
M  V30 8758 H 845.982 1.00959 1.19319 0
M  V30 8759 H 846.717 -0.541497 3.19747 0
M  V30 8760 H 846.502 1.14464 3.7502 0
M  V30 8761 H 847.992 0.247242 4.16867 0
M  V30 8762 N 848.429 -1.21819 0.999893 0
M  V30 8763 C 849.359 -2.26282 0.576096 0
M  V30 8764 C 850.34 -1.65317 -0.400537 0
M  V30 8765 O 851.525 -1.92028 -0.28964 0
M  V30 8766 C 848.655 -3.47147 -0.103145 0
M  V30 8767 C 847.609 -4.20594 0.792745 0
M  V30 8768 C 846.935 -5.34696 -0.0198026 0
M  V30 8769 C 848.235 -4.78533 2.09293 0
M  V30 8770 H 849.929 -2.61984 1.4493 0
M  V30 8771 H 847.475 -1.25935 0.698316 0
M  V30 8772 H 849.428 -4.1939 -0.411068 0
M  V30 8773 H 848.152 -3.1056 -1.01094 0
M  V30 8774 H 846.811 -3.50194 1.08442 0
M  V30 8775 H 846.459 -4.94352 -0.928729 0
M  V30 8776 H 846.159 -5.84764 0.576661 0
M  V30 8777 H 847.683 -6.09752 -0.321659 0
M  V30 8778 H 849.097 -5.42682 1.8485 0
M  V30 8779 H 847.494 -5.38968 2.63881 0
M  V30 8780 H 848.564 -3.98197 2.76708 0
M  V30 8781 N 849.908 -0.773975 -1.37286 0
M  V30 8782 C 851.185 -0.263942 -1.93811 0
M  V30 8783 C 851.565 1.24138 -1.70743 0
M  V30 8784 O 850.913 2.02557 -1.05749 0
M  V30 8785 C 851.123 -0.639753 -3.43086 0
M  V30 8786 C 852.471 -0.610796 -4.20184 0
M  V30 8787 O 853.495 -0.579278 -3.51458 0
M  V30 8788 O 852.354 -0.639862 -5.42741 0
M  V30 8789 H 849.448 -0.0614331 -0.824715 0
M  V30 8790 H 851.994 -0.855477 -1.46559 0
M  V30 8791 H 850.766 -1.67856 -3.53469 0
M  V30 8792 H 850.389 -0.0212827 -3.97594 0
M  V30 8793 N 851.386 1.48609 -0.524698 0
M  V30 8794 C 852.334 2.31205 0.254398 0
M  V30 8795 C 853.328 1.40894 0.940491 0
M  V30 8796 O 854.534 1.57827 0.865478 0
M  V30 8797 H 850.909 0.745199 0.100907 0
M  V30 8798 H 852.88 2.94804 -0.461876 0
M  V30 8799 C 851.629 3.2282 1.2916 0
M  V30 8800 H 850.952 3.92255 0.773074 0
M  V30 8801 H 852.392 3.83508 1.80825 0
M  V30 8802 C 850.851 2.4406 2.32242 0
M  V30 8803 O 851.381 2.16163 3.3858 0
M  V30 8804 N 849.587 2.05651 2.05319 0
M  V30 8805 H 849.134 2.28539 1.18861 0
M  V30 8806 H 849.092 1.53265 2.74513 0
M  V30 8807 N 852.864 0.259585 1.55447 0
M  V30 8808 C 854.11 -0.362143 1.9954 0
M  V30 8809 C 854.443 -1.5666 1.14767 0
M  V30 8810 O 853.718 -1.93319 0.214025 0
M  V30 8811 C 854.001 -0.759588 3.51998 0
M  V30 8812 C 853.854 0.451134 4.47532 0
M  V30 8813 C 855.173 -1.60186 4.09913 0
M  V30 8814 H 852.292 -0.130157 0.725416 0
M  V30 8815 H 854.934 0.363431 1.86492 0
M  V30 8816 H 853.084 -1.3778 3.63248 0
M  V30 8817 H 854.756 1.08965 4.48246 0
M  V30 8818 H 852.999 1.092 4.19831 0
M  V30 8819 H 853.67 0.129518 5.51848 0
M  V30 8820 H 856.146 -1.0799 4.01842 0
M  V30 8821 H 855.022 -1.84879 5.16828 0
M  V30 8822 H 855.283 -2.57787 3.59163 0
M  V30 8823 N 854.342 -1.57594 -0.0133615 0
M  V30 8824 C 855.619 -1.81173 -0.737273 0
M  V30 8825 C 855.999 -0.861395 -1.92726 0
M  V30 8826 O 855.347 0.0929324 -2.28311 0
M  V30 8827 C 855.557 -3.29314 -1.15557 0
M  V30 8828 C 856.905 -3.94707 -1.56498 0
M  V30 8829 O 857.929 -3.33557 -1.24973 0
M  V30 8830 O 856.788 -5.02402 -2.15069 0
M  V30 8831 H 853.882 -0.745575 -0.357837 0
M  V30 8832 H 856.428 -1.69696 0.0110674 0
M  V30 8833 H 855.2 -3.90096 -0.30677 0
M  V30 8834 H 854.823 -3.45739 -1.96343 0
M  V30 8835 N 855.82 0.285905 -1.54985 0
M  V30 8836 C 856.783 1.33625 -1.86218 0
M  V30 8837 C 857.783 1.42971 -0.735936 0
M  V30 8838 O 858.973 1.42345 -1.00417 0
M  V30 8839 C 856.105 2.71926 -2.05595 0
M  V30 8840 H 857.298 1.07167 -2.80099 0
M  V30 8841 H 854.851 0.523335 -1.47278 0
M  V30 8842 H 855.586 3.03583 -1.14053 0
M  V30 8843 H 855.371 2.6653 -2.87583 0
M  V30 8844 H 856.861 3.47841 -2.31077 0
M  V30 8845 N 857.298 1.47698 0.54982 0
M  V30 8846 C 858.714 1.3338 0.876468 0
M  V30 8847 C 858.914 0.329837 1.98782 0
M  V30 8848 O 857.97 -0.256022 2.51199 0
M  V30 8849 C 859.283 2.72903 1.26272 0
M  V30 8850 C 860.831 2.81243 1.37373 0
M  V30 8851 C 861.306 4.21423 1.79351 0
M  V30 8852 N 862.797 4.24 1.86489 0
M  V30 8853 C 863.532 5.29386 2.20313 0
M  V30 8854 N 863.028 6.4507 2.527 0
M  V30 8855 N 864.821 5.16768 2.2115 0
M  V30 8856 H 856.972 2.11603 -0.183781 0
M  V30 8857 H 859.235 0.947798 -0.0195601 0
M  V30 8858 H 858.941 3.47836 0.519889 0
M  V30 8859 H 858.815 3.05151 2.21727 0
M  V30 8860 H 861.202 2.06577 2.10737 0
M  V30 8861 H 861.283 2.52639 0.400882 0
M  V30 8862 H 860.927 4.96597 1.06555 0
M  V30 8863 H 860.857 4.47456 2.77652 0
M  V30 8864 H 863.348 3.40547 1.63817 0
M  V30 8865 H 863.661 7.21236 2.77557 0
M  V30 8866 H 862.006 6.48377 2.50263 0
M  V30 8867 H 865.197 4.25416 1.95293 0
M  V30 8868 H 865.37 5.99004 2.4718 0
M  V30 8869 N 858.776 -0.797141 1.35954 0
M  V30 8870 C 859.709 -1.91567 1.24005 0
M  V30 8871 C 860.687 -1.62112 0.125868 0
M  V30 8872 O 861.871 -1.86167 0.295638 0
M  V30 8873 C 858.998 -3.26204 0.911535 0
M  V30 8874 C 858.044 -3.74598 2.03909 0
M  V30 8875 S 858.877 -3.91276 3.656 0
M  V30 8876 C 860.033 -5.288 3.34846 0
M  V30 8877 H 860.266 -2.0141 2.18681 0
M  V30 8878 H 857.799 -0.955542 1.2128 0
M  V30 8879 H 859.757 -4.03979 0.728805 0
M  V30 8880 H 858.418 -3.14095 -0.0173159 0
M  V30 8881 H 857.611 -4.72137 1.7636 0
M  V30 8882 H 857.213 -3.03849 2.18064 0
M  V30 8883 H 859.505 -6.13117 2.8826 0
M  V30 8884 H 860.448 -5.61347 4.31619 0
M  V30 8885 H 860.856 -4.95534 2.70382 0
M  V30 8886 N 860.254 -1.20106 -1.0204 0
M  V30 8887 C 861.484 -1.0329 -1.78927 0
M  V30 8888 C 861.892 0.421115 -1.84454 0
M  V30 8889 O 861.235 1.30422 -1.29367 0
M  V30 8890 C 861.297 -1.53627 -3.25021 0
M  V30 8891 C 860.961 -3.01869 -3.4311 0
M  V30 8892 C 861.958 -3.9956 -3.32638 0
M  V30 8893 C 859.643 -3.40746 -3.6905 0
M  V30 8894 C 861.637 -5.34119 -3.47844 0
M  V30 8895 C 859.324 -4.75462 -3.839 0
M  V30 8896 C 860.322 -5.71957 -3.73302 0
M  V30 8897 O 860.01 -7.04231 -3.87703 0
M  V30 8898 H 859.742 -0.363962 -0.569656 0
M  V30 8899 H 862.296 -1.59551 -1.29354 0
M  V30 8900 H 860.526 -0.917481 -3.75658 0
M  V30 8901 H 862.215 -1.32889 -3.8353 0
M  V30 8902 H 862.981 -3.70869 -3.12539 0
M  V30 8903 H 858.86 -2.66182 -3.76388 0
M  V30 8904 H 862.404 -6.09421 -3.39488 0
M  V30 8905 H 858.301 -5.03844 -4.03499 0
M  V30 8906 H 859.069 -7.11425 -4.04744 0
M  V30 8907 N 861.732 1.21287 -1.00634 0
M  V30 8908 C 862.665 2.22366 -0.512687 0
M  V30 8909 C 863.643 1.56692 0.434332 0
M  V30 8910 O 864.827 1.85094 0.35674 0
M  V30 8911 C 861.954 3.37738 0.255139 0
M  V30 8912 C 861 4.21673 -0.639883 0
M  V30 8913 S 861.833 4.92474 -2.10308 0
M  V30 8914 C 862.989 6.11275 -1.34512 0
M  V30 8915 H 863.222 2.63896 -1.36918 0
M  V30 8916 H 860.755 1.31176 -0.814387 0
M  V30 8917 H 862.713 4.04624 0.692067 0
M  V30 8918 H 861.374 2.94689 1.08707 0
M  V30 8919 H 860.567 5.03977 -0.0483821 0
M  V30 8920 H 860.169 3.59988 -1.01414 0
M  V30 8921 H 862.461 6.7466 -0.619721 0
M  V30 8922 H 863.404 6.74864 -2.14393 0
M  V30 8923 H 863.812 5.58026 -0.852506 0
M  V30 8924 N 863.21 0.781244 1.36873 0
M  V30 8925 C 864.487 0.274217 1.93668 0
M  V30 8926 C 864.867 -1.2323 1.71399 0
M  V30 8927 O 864.215 -2.01993 1.06822 0
M  V30 8928 C 864.425 0.657939 3.42742 0
M  V30 8929 C 865.773 0.63307 4.19854 0
M  V30 8930 O 866.797 0.597909 3.51146 0
M  V30 8931 O 865.656 0.668636 5.42394 0
M  V30 8932 H 862.75 0.0658059 0.824378 0
M  V30 8933 H 865.296 0.863238 1.46104 0
M  V30 8934 H 864.068 1.69728 3.52573 0
M  V30 8935 H 863.691 0.0423678 3.97577 0
M  V30 8936 N 864.689 -1.48329 0.532571 0
M  V30 8937 C 866.105 -1.58458 0.190605 0
M  V30 8938 C 866.305 -1.53427 -1.30623 0
M  V30 8939 O 865.361 -1.4247 -2.08467 0
M  V30 8940 C 866.674 -2.89989 0.79543 0
M  V30 8941 C 868.222 -3.03523 0.7644 0
M  V30 8942 C 868.697 -4.37718 1.34785 0
M  V30 8943 N 870.188 -4.44292 1.30993 0
M  V30 8944 C 870.923 -5.4664 1.73124 0
M  V30 8945 N 870.419 -6.5593 2.22997 0
M  V30 8946 N 872.212 -5.37538 1.64346 0
M  V30 8947 H 864.363 -1.49842 1.50537 0
M  V30 8948 H 866.626 -0.71164 0.626316 0
M  V30 8949 H 866.332 -2.99333 1.84642 0
M  V30 8950 H 866.206 -3.76203 0.27403 0
M  V30 8951 H 868.593 -2.93789 -0.277831 0
M  V30 8952 H 868.674 -2.18912 1.3233 0
M  V30 8953 H 868.318 -4.48206 2.38902 0
M  V30 8954 H 868.248 -5.21019 0.764609 0
M  V30 8955 H 870.739 -3.65897 0.944868 0
M  V30 8956 H 871.052 -7.30167 2.53133 0
M  V30 8957 H 869.397 -6.56886 2.26992 0
M  V30 8958 H 872.588 -4.51052 1.25178 0
M  V30 8959 H 872.761 -6.17169 1.97501 0
M  V30 8960 N 866.167 -0.267825 -1.55308 0
M  V30 8961 C 867.583 0.0865107 -1.59365 0
M  V30 8962 C 867.783 1.55205 -1.28505 0
M  V30 8963 O 866.839 2.29978 -1.04241 0
M  V30 8964 C 868.152 -0.28155 -2.99379 0
M  V30 8965 C 869.7 -0.227565 -3.12172 0
M  V30 8966 C 870.175 -0.569959 -4.5444 0
M  V30 8967 N 871.666 -0.521238 -4.60258 0
M  V30 8968 C 872.401 -0.759061 -5.68354 0
M  V30 8969 N 871.897 -1.06112 -6.84626 0
M  V30 8970 N 873.69 -0.688351 -5.57869 0
M  V30 8971 H 865.841 -1.22332 -1.73633 0
M  V30 8972 H 868.104 -0.493703 -0.809297 0
M  V30 8973 H 867.81 -1.3005 -3.26772 0
M  V30 8974 H 867.684 0.381192 -3.75269 0
M  V30 8975 H 870.071 0.782093 -2.84548 0
M  V30 8976 H 870.152 -0.924461 -2.38511 0
M  V30 8977 H 869.796 -1.57727 -4.82788 0
M  V30 8978 H 869.726 0.148646 -5.2639 0
M  V30 8979 H 872.217 -0.297359 -3.76728 0
M  V30 8980 H 872.53 -1.22945 -7.62958 0
M  V30 8981 H 870.875 -1.09881 -6.86259 0
M  V30 8982 H 874.066 -0.452268 -4.6591 0
M  V30 8983 H 874.239 -0.877081 -6.42037 0
M  V30 8984 N 867.645 1.57599 0.00500368 0
M  V30 8985 C 868.885 1.92205 0.695456 0
M  V30 8986 C 869.249 0.868894 1.71214 0
M  V30 8987 O 870.45 1.10004 2.4526 0
M  V30 8988 C 868.721 3.31882 1.32625 0
M  V30 8989 S 870.28 3.88364 2.04252 0
M  V30 8990 H 867.098 0.672826 0.22984 0
M  V30 8991 H 869.7 1.95435 -0.0504824 0
M  V30 8992 H 868.404 4.06375 0.573396 0
M  V30 8993 H 867.935 3.32013 2.11023 0
M  V30 8994 H 869.95 3.69035 3.31704 0
M  V30 8995 N 869.123 -0.277682 1.55134 0
M  V30 8996 C 870.369 -1.0114 1.7578 0
M  V30 8997 C 870.702 -1.86109 0.554719 0
M  V30 8998 O 869.977 -1.89275 -0.447813 0
M  V30 8999 C 870.26 -1.89789 3.06027 0
M  V30 9000 C 870.113 -1.07844 4.3668 0
M  V30 9001 C 871.432 -2.88577 3.32282 0
M  V30 9002 H 868.551 -0.366277 0.639539 0
M  V30 9003 H 871.193 -0.284155 1.87863 0
M  V30 9004 H 869.343 -2.51796 2.95856 0
M  V30 9005 H 871.015 -0.479432 4.58802 0
M  V30 9006 H 869.258 -0.381764 4.32117 0
M  V30 9007 H 869.929 -1.73179 5.24131 0
M  V30 9008 H 872.405 -2.36702 3.42215 0
M  V30 9009 H 871.281 -3.47749 4.2469 0
M  V30 9010 H 871.542 -3.63458 2.51696 0
M  V30 9011 N 870.601 -1.47988 -0.541979 0
M  V30 9012 C 871.831 -1.58804 -1.32155 0
M  V30 9013 C 872.239 -0.242893 -1.87634 0
M  V30 9014 O 871.582 0.776239 -1.66494 0
M  V30 9015 C 871.644 -2.56567 -2.51821 0
M  V30 9016 C 871.308 -4.01915 -2.17517 0
M  V30 9017 C 872.305 -4.89954 -1.73901 0
M  V30 9018 C 869.99 -4.47365 -2.28408 0
M  V30 9019 C 871.984 -6.21467 -1.41625 0
M  V30 9020 C 869.671 -5.78902 -1.95745 0
M  V30 9021 C 870.669 -6.65775 -1.52423 0
M  V30 9022 O 870.357 -7.94866 -1.20183 0
M  V30 9023 H 870.089 -0.538536 -0.408601 0
M  V30 9024 H 872.643 -1.94446 -0.661818 0
M  V30 9025 H 870.873 -2.16023 -3.20735 0
M  V30 9026 H 872.562 -2.57347 -3.13891 0
M  V30 9027 H 873.328 -4.56082 -1.64966 0
M  V30 9028 H 869.207 -3.79942 -2.61084 0
M  V30 9029 H 872.751 -6.8923 -1.07738 0
M  V30 9030 H 868.648 -6.12311 -2.04316 0
M  V30 9031 H 869.416 -8.07509 -1.33683 0
M  V30 9032 N 872.079 0.78992 -1.36375 0
M  V30 9033 C 873.309 1.57644 -1.33536 0
M  V30 9034 C 873.717 1.89007 0.0855075 0
M  V30 9035 O 873.06 1.50547 1.05267 0
M  V30 9036 C 873.122 2.92424 -2.09113 0
M  V30 9037 C 872.786 2.83793 -3.58205 0
M  V30 9038 C 873.783 2.56072 -4.52464 0
M  V30 9039 C 871.468 3.02386 -4.01084 0
M  V30 9040 C 873.462 2.47044 -5.87578 0
M  V30 9041 C 871.149 2.9298 -5.36289 0
M  V30 9042 C 872.147 2.65347 -6.29349 0
M  V30 9043 O 871.835 2.55935 -7.62071 0
M  V30 9044 H 871.567 0.495639 -0.459694 0
M  V30 9045 H 874.121 0.988354 -1.80058 0
M  V30 9046 H 872.351 3.53282 -1.57254 0
M  V30 9047 H 874.04 3.53693 -1.99139 0
M  V30 9048 H 874.806 2.4141 -4.2065 0
M  V30 9049 H 870.685 3.229 -3.29023 0
M  V30 9050 H 874.229 2.25396 -6.60184 0
M  V30 9051 H 870.126 3.07204 -5.67711 0
M  V30 9052 H 870.894 2.7142 -7.72187 0
M  V30 9053 N 873.557 1.20646 1.01402 0
M  V30 9054 C 874.973 0.961866 1.27359 0
M  V30 9055 C 875.173 -0.357083 1.98311 0
M  V30 9056 O 874.229 -1.08498 2.28001 0
M  V30 9057 C 875.542 2.14627 2.10609 0
M  V30 9058 C 877.09 2.18753 2.23866 0
M  V30 9059 C 877.565 3.36686 3.10494 0
M  V30 9060 N 879.056 3.36716 3.18083 0
M  V30 9061 C 879.791 4.24615 3.85343 0
M  V30 9062 N 879.287 5.22697 4.54708 0
M  V30 9063 N 881.08 4.12449 3.81893 0
M  V30 9064 H 873.231 2.05481 0.537721 0
M  V30 9065 H 875.494 0.899292 0.299963 0
M  V30 9066 H 875.2 3.10159 1.65814 0
M  V30 9067 H 875.074 2.12935 3.11349 0
M  V30 9068 H 877.461 1.23782 2.67885 0
M  V30 9069 H 877.542 2.24492 1.22626 0
M  V30 9070 H 877.186 4.31945 2.67181 0
M  V30 9071 H 877.116 3.28185 4.11828 0
M  V30 9072 H 879.607 2.65728 2.68695 0
M  V30 9073 H 879.92 5.86087 5.03708 0
M  V30 9074 H 878.265 5.26631 4.53525 0
M  V30 9075 H 881.456 3.35091 3.26851 0
M  V30 9076 H 881.629 4.81162 4.34035 0
M  V30 9077 N 875.035 -1.20752 1.01276 0
M  V30 9078 C 875.982 -2.234 0.579732 0
M  V30 9079 C 876.952 -1.61256 -0.398206 0
M  V30 9080 O 878.137 -1.8845 -0.29851 0
M  V30 9081 C 875.277 -3.45008 -0.0797006 0
M  V30 9082 C 874.39 -4.21597 0.942343 0
M  V30 9083 C 873.525 -5.30591 0.254364 0
M  V30 9084 C 872.564 -5.98919 1.26343 0
M  V30 9085 N 871.701 -6.99511 0.602384 0
M  V30 9086 H 876.541 -2.59801 1.45971 0
M  V30 9087 H 874.078 -1.27663 0.730787 0
M  V30 9088 H 876.036 -4.1444 -0.479125 0
M  V30 9089 H 874.666 -3.09312 -0.923354 0
M  V30 9090 H 873.718 -3.51268 1.45996 0
M  V30 9091 H 875.03 -4.68576 1.70992 0
M  V30 9092 H 874.184 -6.06368 -0.200763 0
M  V30 9093 H 872.923 -4.84639 -0.545553 0
M  V30 9094 H 871.928 -5.21906 1.72898 0
M  V30 9095 H 873.153 -6.46957 2.06456 0
M  V30 9096 H 871.099 -6.55759 -0.177734 0
M  V30 9097 H 871.016 -7.44597 1.30809 0
M  V30 9098 H 872.284 -7.79313 0.17072 0
M  V30 9099 N 876.513 -0.788492 -1.36457 0
M  V30 9100 C 877.924 -0.423742 -1.81828 0
M  V30 9101 C 878.275 1.05221 -1.65599 0
M  V30 9102 O 877.4 1.8163 -1.17641 0
M  V30 9103 C 877.995 -0.762354 -3.30112 0
M  V30 9104 C 876.554 -0.450445 -3.73695 0
M  V30 9105 C 875.701 -0.997482 -2.58738 0
M  V30 9106 H 878.652 -0.981718 -1.24692 0
M  V30 9107 H 878.673 -0.0531136 -3.80463 0
M  V30 9108 H 878.185 -1.83662 -3.41891 0
M  V30 9109 H 876.286 0.615829 -3.67476 0
M  V30 9110 H 876.399 -0.970408 -4.69169 0
M  V30 9111 H 874.763 -0.420761 -2.51201 0
M  V30 9112 H 875.546 -2.07749 -2.73304 0
M  V30 9113 N 877.991 1.48044 -0.54043 0
M  V30 9114 C 878.921 2.32597 0.205178 0
M  V30 9115 C 879.902 1.42748 0.925041 0
M  V30 9116 O 881.087 1.71624 0.908784 0
M  V30 9117 C 878.217 3.24175 1.24612 0
M  V30 9118 C 877.171 4.23131 0.64376 0
M  V30 9119 C 876.497 5.03915 1.78812 0
M  V30 9120 C 877.797 5.20831 -0.39144 0
M  V30 9121 H 879.491 2.95184 -0.500676 0
M  V30 9122 H 877.037 1.41948 -0.242225 0
M  V30 9123 H 878.99 3.82158 1.77576 0
M  V30 9124 H 877.714 2.59608 1.98169 0
M  V30 9125 H 876.373 3.66349 0.135554 0
M  V30 9126 H 876.021 4.35765 2.51232 0
M  V30 9127 H 875.721 5.709 1.39094 0
M  V30 9128 H 877.245 5.64753 2.32134 0
M  V30 9129 H 878.659 5.73277 0.0515064 0
M  V30 9130 H 877.056 5.95926 -0.706569 0
M  V30 9131 H 878.126 4.6733 -1.29345 0
M  V30 9132 N 879.47 0.276058 1.55163 0
M  V30 9133 C 880.4 -0.604633 2.25536 0
M  V30 9134 C 881.381 -1.15813 1.24585 0
M  V30 9135 O 882.566 -1.1921 1.53306 0
M  V30 9136 C 879.696 -1.78836 2.97716 0
M  V30 9137 C 878.65 -1.36635 4.05604 0
M  V30 9138 C 877.976 -2.63325 4.65364 0
M  V30 9139 C 879.276 -0.515858 5.19746 0
M  V30 9140 H 880.97 -0.0177483 2.99395 0
M  V30 9141 H 878.516 -0.00709627 1.43998 0
M  V30 9142 H 880.469 -2.41036 3.45658 0
M  V30 9143 H 879.193 -2.40109 2.21394 0
M  V30 9144 H 877.852 -0.767541 3.58475 0
M  V30 9145 H 877.5 -3.22858 3.85709 0
M  V30 9146 H 877.2 -2.358 5.38212 0
M  V30 9147 H 878.724 -3.26372 5.16056 0
M  V30 9148 H 880.138 -1.04289 5.63735 0
M  V30 9149 H 878.535 -0.335449 5.99162 0
M  V30 9150 H 879.605 0.465137 4.82664 0
M  V30 9151 N 880.948 -1.576 0.00335426 0
M  V30 9152 C 881.858 -2.12067 -1.00322 0
M  V30 9153 C 882.874 -1.06672 -1.37467 0
M  V30 9154 O 884.05 -1.38592 -1.46131 0
M  V30 9155 C 881.115 -2.61593 -2.27531 0
M  V30 9156 C 880.176 -3.81602 -1.96668 0
M  V30 9157 C 879.409 -4.28756 -3.17811 0
M  V30 9158 O 879.632 -3.75222 -4.2961 0
M  V30 9159 O 878.566 -5.20877 -3.01613 0
M  V30 9160 H 882.392 -2.98299 -0.570199 0
M  V30 9161 H 879.977 -1.47835 -0.215682 0
M  V30 9162 H 881.859 -2.93631 -3.02256 0
M  V30 9163 H 880.534 -1.78457 -2.70065 0
M  V30 9164 H 879.441 -3.54531 -1.19408 0
M  V30 9165 H 880.774 -4.65822 -1.58968 0
M  V30 9166 N 882.426 0.269451 -1.5528 0
M  V30 9167 C 883.651 1.02299 -1.80415 0
M  V30 9168 C 884.076 1.7902 -0.577363 0
M  V30 9169 O 883.434 1.75018 0.473125 0
M  V30 9170 C 883.482 1.95445 -3.0304 0
M  V30 9171 O 882.586 3.04271 -2.78375 0
M  V30 9172 H 881.927 0.292289 -0.596207 0
M  V30 9173 H 884.457 0.297282 -2.02429 0
M  V30 9174 H 884.467 2.37333 -3.31869 0
M  V30 9175 H 883.142 1.39017 -3.91978 0
M  V30 9176 H 881.719 2.66673 -2.60653 0
M  V30 9177 N 883.904 1.48273 0.534124 0
M  V30 9178 C 885.152 1.55771 1.28762 0
M  V30 9179 C 885.473 0.231575 1.9362 0
M  V30 9180 O 884.743 -0.746533 1.81118 0
M  V30 9181 H 883.323 0.573851 0.47823 0
M  V30 9182 H 885.985 1.84712 0.621888 0
M  V30 9183 H 885.081 2.33657 2.06908 0
M  V30 9184 N 885.382 -0.782676 1.36792 0
M  V30 9185 C 886.61 -1.57162 1.34565 0
M  V30 9186 C 887.025 -1.88664 -0.0715501 0
M  V30 9187 O 886.382 -1.50633 -1.03033 0
M  V30 9188 C 886.433 -2.88854 2.1736 0
M  V30 9189 O 886.154 -2.58707 3.53557 0
M  V30 9190 C 887.655 -3.83132 2.2299 0
M  V30 9191 H 884.875 -0.487245 0.461338 0
M  V30 9192 H 887.419 -0.970905 1.79982 0
M  V30 9193 H 885.574 -3.45377 1.7548 0
M  V30 9194 H 885.988 -3.42961 3.96835 0
M  V30 9195 H 887.462 -4.72575 2.85266 0
M  V30 9196 H 887.939 -4.21472 1.23524 0
M  V30 9197 H 888.545 -3.32541 2.65135 0
M  V30 9198 N 886.86 -1.21182 -1.00761 0
M  V30 9199 C 887.79 -0.992773 -2.11344 0
M  V30 9200 C 888.771 0.0813618 -1.69905 0
M  V30 9201 O 889.956 -0.0779503 -1.94043 0
M  V30 9202 C 887.086 -0.553826 -3.42856 0
M  V30 9203 C 886.04 -1.57223 -3.98077 0
M  V30 9204 C 885.366 -0.989605 -5.25463 0
M  V30 9205 C 886.666 -2.95839 -4.30438 0
M  V30 9206 H 888.36 -1.91766 -2.29927 0
M  V30 9207 H 885.906 -0.923426 -1.10494 0
M  V30 9208 H 887.859 -0.387771 -4.19612 0
M  V30 9209 H 886.583 0.406702 -3.24058 0
M  V30 9210 H 885.242 -1.7258 -3.23437 0
M  V30 9211 H 884.89 -0.0208743 -5.02996 0
M  V30 9212 H 884.59 -1.66984 -5.63374 0
M  V30 9213 H 886.114 -0.834815 -6.04866 0
M  V30 9214 H 887.528 -2.8394 -4.98047 0
M  V30 9215 H 885.925 -3.60851 -4.79486 0
M  V30 9216 H 886.995 -3.46882 -3.38823 0
M  V30 9217 N 888.338 1.20213 -1.01915 0
M  V30 9218 C 889.586 1.89272 -0.708552 0
M  V30 9219 C 889.907 1.79394 0.76438 0
M  V30 9220 O 889.177 1.198 1.54999 0
M  V30 9221 H 887.757 0.700628 -0.259094 0
M  V30 9222 H 890.419 1.45985 -1.29129 0
M  V30 9223 H 889.515 2.95841 -0.994215 0
M  V30 9224 N 889.816 0.795718 1.36037 0
M  V30 9225 C 891.044 0.383153 2.03321 0
M  V30 9226 C 891.459 -1.00246 1.59988 0
M  V30 9227 O 890.816 -1.64406 0.792265 0
M  V30 9228 C 890.867 0.444467 3.58757 0
M  V30 9229 O 890.588 1.77544 4.00512 0
M  V30 9230 C 892.089 0.0233291 4.43294 0
M  V30 9231 H 889.309 0.157061 0.652359 0
M  V30 9232 H 891.853 1.07632 1.73884 0
M  V30 9233 H 890.008 -0.200341 3.86882 0
M  V30 9234 H 890.422 1.73065 4.95125 0
M  V30 9235 H 891.896 0.117361 5.51875 0
M  V30 9236 H 892.373 -1.03007 4.2695 0
M  V30 9237 H 892.979 0.64087 4.20444 0
M  V30 9238 N 891.294 -1.47756 0.548274 0
M  V30 9239 C 892.241 -2.29893 -0.204408 0
M  V30 9240 C 893.211 -1.38509 -0.916761 0
M  V30 9241 O 894.396 -1.67472 -0.91421 0
M  V30 9242 C 891.536 -3.22282 -1.23403 0
M  V30 9243 C 890.649 -4.28753 -0.528654 0
M  V30 9244 C 889.784 -5.08303 -1.54279 0
M  V30 9245 C 888.823 -6.06557 -0.821893 0
M  V30 9246 N 887.96 -6.79098 -1.78243 0
M  V30 9247 H 892.8 -2.93739 0.502163 0
M  V30 9248 H 890.337 -1.44793 0.259471 0
M  V30 9249 H 892.295 -3.74262 -1.84348 0
M  V30 9250 H 890.925 -2.6032 -1.90875 0
M  V30 9251 H 889.977 -3.79899 0.195132 0
M  V30 9252 H 891.289 -4.98787 0.0365066 0
M  V30 9253 H 890.443 -5.64388 -2.22602 0
M  V30 9254 H 889.182 -4.3815 -2.14186 0
M  V30 9255 H 888.187 -5.49659 -0.12469 0
M  V30 9256 H 889.412 -6.78715 -0.228685 0
M  V30 9257 H 887.358 -6.11682 -2.37025 0
M  V30 9258 H 887.275 -7.4527 -1.26919 0
M  V30 9259 H 888.543 -7.39762 -2.45709 0
M  V30 9260 N 892.772 -0.284283 -1.55015 0
M  V30 9261 C 894.02 0.329212 -1.99401 0
M  V30 9262 C 894.341 1.55687 -1.17416 0
M  V30 9263 O 893.611 1.94087 -0.265937 0
M  V30 9264 H 892.191 0.12463 -0.73653 0
M  V30 9265 H 894.853 -0.391743 -1.90922 0
M  V30 9266 H 893.949 0.61278 -3.06025 0
M  V30 9267 N 894.251 1.57596 -0.0117121 0
M  V30 9268 C 895.199 2.1029 0.994035 0
M  V30 9269 C 896.193 1.02549 1.34833 0
M  V30 9270 O 897.399 1.21003 1.3326 0
M  V30 9271 H 893.774 0.671624 0.338268 0
M  V30 9272 H 895.745 2.93761 0.524147 0
M  V30 9273 C 894.494 2.63099 2.27319 0
M  V30 9274 H 893.817 3.45642 2.00927 0
M  V30 9275 H 895.257 3.03635 2.95942 0
M  V30 9276 C 893.716 1.55044 2.99104 0
M  V30 9277 O 894.246 0.940127 3.90544 0
M  V30 9278 N 892.452 1.27506 2.61133 0
M  V30 9279 H 891.999 1.77322 1.86855 0
M  V30 9280 H 891.957 0.554292 3.09475 0
M  V30 9281 N 895.729 -0.261212 1.5542 0
M  V30 9282 C 896.975 -0.992699 1.76843 0
M  V30 9283 C 897.308 -1.8551 0.574428 0
M  V30 9284 O 896.583 -1.89739 -0.427713 0
M  V30 9285 C 896.866 -1.86532 3.08022 0
M  V30 9286 C 896.719 -1.03206 4.378 0
M  V30 9287 C 898.038 -2.85036 3.35324 0
M  V30 9288 H 895.157 -0.359473 0.643388 0
M  V30 9289 H 897.799 -0.264214 1.88154 0
M  V30 9290 H 895.949 -2.48644 2.9851 0
M  V30 9291 H 897.621 -0.430743 4.59285 0
M  V30 9292 H 895.864 -0.335911 4.32497 0
M  V30 9293 H 896.535 -1.6761 5.25938 0
M  V30 9294 H 899.011 -2.3306 3.44706 0
M  V30 9295 H 897.887 -3.43226 4.28354 0
M  V30 9296 H 898.148 -3.60768 2.55537 0
M  V30 9297 N 897.207 -1.48554 -0.526253 0
M  V30 9298 C 898.139 -1.59446 -1.6465 0
M  V30 9299 C 899.152 -0.478525 -1.55608 0
M  V30 9300 O 900.341 -0.74953 -1.62001 0
M  V30 9301 C 897.441 -1.51164 -3.03319 0
M  V30 9302 C 896.614 -2.77861 -3.37805 0
M  V30 9303 C 895.673 -2.62982 -4.5577 0
M  V30 9304 O 894.699 -3.36876 -4.58806 0
M  V30 9305 N 895.901 -1.72847 -5.5417 0
M  V30 9306 H 898.666 -2.56055 -1.55743 0
M  V30 9307 H 896.227 -1.45325 -0.713606 0
M  V30 9308 H 898.219 -1.389 -3.80117 0
M  V30 9309 H 896.789 -0.625147 -3.06285 0
M  V30 9310 H 896.009 -3.04663 -2.50149 0
M  V30 9311 H 897.297 -3.61908 -3.57632 0
M  V30 9312 H 896.695 -1.12022 -5.54498 0
M  V30 9313 H 895.252 -1.6652 -6.3017 0
M  V30 9314 N 898.685 0.775411 -1.37205 0
M  V30 9315 C 899.931 1.53611 -1.32407 0
M  V30 9316 C 900.264 1.9398 0.0924103 0
M  V30 9317 O 899.539 1.63791 1.04893 0
M  V30 9318 C 899.822 2.80367 -2.25979 0
M  V30 9319 C 899.675 2.46275 -3.76389 0
M  V30 9320 C 900.994 3.82277 -2.18064 0
M  V30 9321 H 898.113 0.557278 -0.482297 0
M  V30 9322 H 900.755 0.889826 -1.67875 0
M  V30 9323 H 898.905 3.35515 -1.95862 0
M  V30 9324 H 900.577 1.9707 -4.17087 0
M  V30 9325 H 898.82 1.79023 -3.95137 0
M  V30 9326 H 899.491 3.36868 -4.37291 0
M  V30 9327 H 901.967 3.36613 -2.44604 0
M  V30 9328 H 900.843 4.68696 -2.85684 0
M  V30 9329 H 901.104 4.26272 -1.17239 0
M  V30 9330 N 900.163 1.21714 1.00117 0
M  V30 9331 C 901.409 1.03823 1.74208 0
M  V30 9332 C 901.742 -0.426733 1.89454 0
M  V30 9333 O 901.017 -1.31658 1.43166 0
M  V30 9334 C 901.3 1.74047 3.15246 0
M  V30 9335 C 901.153 3.28087 3.077 0
M  V30 9336 C 902.472 1.48614 4.14249 0
M  V30 9337 H 899.591 0.378573 0.632338 0
M  V30 9338 H 902.233 1.49942 1.16694 0
M  V30 9339 H 900.383 1.3484 3.64349 0
M  V30 9340 H 902.055 3.76686 2.6628 0
M  V30 9341 H 900.298 3.58191 2.44707 0
M  V30 9342 H 900.969 3.72392 4.07466 0
M  V30 9343 H 903.445 1.82656 3.73866 0
M  V30 9344 H 902.321 2.00257 5.11066 0
M  V30 9345 H 902.582 0.416957 4.40129 0
M  V30 9346 N 901.641 -1.19671 1.02551 0
M  V30 9347 C 902.89 -1.88591 0.715272 0
M  V30 9348 C 903.203 -1.80274 -0.758982 0
M  V30 9349 O 904.409 -2.44413 -1.18213 0
M  V30 9350 C 902.865 -3.38264 1.22905 0
M  V30 9351 C 902.473 -3.55146 2.73084 0
M  V30 9352 C 904.217 -4.12683 0.994649 0
M  V30 9353 C 902.124 -4.98693 3.17897 0
M  V30 9354 H 901.054 -0.706326 0.263857 0
M  V30 9355 H 903.705 -1.35322 1.23936 0
M  V30 9356 H 902.087 -3.9091 0.632892 0
M  V30 9357 H 903.261 -3.12845 3.38326 0
M  V30 9358 H 901.576 -2.94112 2.94766 0
M  V30 9359 H 904.173 -5.18536 1.30478 0
M  V30 9360 H 904.516 -4.16243 -0.0686466 0
M  V30 9361 H 905.049 -3.66164 1.55464 0
M  V30 9362 H 901.788 -5.00293 4.23542 0
M  V30 9363 H 901.308 -5.4177 2.57381 0
M  V30 9364 H 902.987 -5.67327 3.11045 0
M  V30 9365 N 903.119 -0.802921 -1.35613 0
M  V30 9366 C 904.53 -0.443004 -1.81368 0
M  V30 9367 C 904.881 1.03459 -1.66706 0
M  V30 9368 O 904.006 1.80372 -1.19561 0
M  V30 9369 C 904.601 -0.797324 -3.29284 0
M  V30 9370 C 903.16 -0.490055 -3.73196 0
M  V30 9371 C 902.307 -1.02487 -2.57666 0
M  V30 9372 H 905.258 -0.994888 -1.23643 0
M  V30 9373 H 905.279 -0.0934638 -3.80385 0
M  V30 9374 H 904.791 -1.87278 -3.39924 0
M  V30 9375 H 902.892 0.576818 -3.68108 0
M  V30 9376 H 903.005 -1.02012 -4.68114 0
M  V30 9377 H 901.369 -0.44738 -2.5074 0
M  V30 9378 H 902.152 -2.10636 -2.71085 0
M  V30 9379 N 904.597 1.47463 -0.556102 0
M  V30 9380 C 905.844 2.02475 -0.0316337 0
M  V30 9381 C 906.172 1.43057 1.31777 0
M  V30 9382 O 905.427 0.575376 1.87051 0
M  V30 9383 C 905.726 3.57224 0.112126 0
M  V30 9384 C 905.392 4.35557 -1.16624 0
M  V30 9385 C 904.054 4.56678 -1.51654 0
M  V30 9386 C 906.406 4.8074 -2.01342 0
M  V30 9387 C 903.734 5.20231 -2.7125 0
M  V30 9388 C 906.086 5.45613 -3.2014 0
M  V30 9389 C 904.75 5.64967 -3.55484 0
M  V30 9390 H 904.02 0.74091 -0.0115756 0
M  V30 9391 H 906.667 1.77148 -0.727392 0
M  V30 9392 H 904.972 3.81538 0.890842 0
M  V30 9393 H 906.669 3.97438 0.533261 0
M  V30 9394 H 903.259 4.19395 -0.883489 0
M  V30 9395 H 907.443 4.64201 -1.75587 0
M  V30 9396 H 902.699 5.3341 -2.98804 0
M  V30 9397 H 906.873 5.79587 -3.86073 0
M  V30 9398 H 904.5 6.13984 -4.4825 0
M  V30 9399 N 906.075 0.2925 1.54862 0
M  V30 9400 C 907.005 -0.580677 2.26165 0
M  V30 9401 C 907.986 -1.14485 1.25806 0
M  V30 9402 O 909.171 -1.17577 1.54562 0
M  V30 9403 C 906.301 -1.75668 2.99596 0
M  V30 9404 C 905.255 -1.32325 4.07031 0
M  V30 9405 C 904.581 -2.58374 4.68131 0
M  V30 9406 C 905.881 -0.460703 5.20264 0
M  V30 9407 H 907.575 0.0140075 2.99397 0
M  V30 9408 H 905.121 0.00817706 1.43998 0
M  V30 9409 H 907.074 -2.37356 3.48195 0
M  V30 9410 H 905.798 -2.37747 2.23928 0
M  V30 9411 H 904.457 -0.729477 3.59269 0
M  V30 9412 H 904.105 -3.18749 3.89112 0
M  V30 9413 H 903.805 -2.30078 5.40683 0
M  V30 9414 H 905.329 -3.2088 5.19489 0
M  V30 9415 H 906.743 -0.983037 5.64809 0
M  V30 9416 H 905.14 -0.271881 5.99484 0
M  V30 9417 H 906.21 0.516304 4.82143 0
M  V30 9418 N 907.553 -1.57587 0.0200696 0
M  V30 9419 C 908.781 -1.95718 -0.670964 0
M  V30 9420 C 909.196 -0.896081 -1.6618 0
M  V30 9421 O 908.553 0.123037 -1.82085 0
M  V30 9422 C 908.604 -3.33904 -1.38529 0
M  V30 9423 O 908.325 -4.35943 -0.434167 0
M  V30 9424 C 909.826 -3.86614 -2.16898 0
M  V30 9425 H 907.046 -0.644819 -0.185606 0
M  V30 9426 H 909.59 -2.04354 0.0771495 0
M  V30 9427 H 907.745 -3.26515 -2.08487 0
M  V30 9428 H 908.159 -5.16001 -0.940378 0
M  V30 9429 H 909.633 -4.85673 -2.62346 0
M  V30 9430 H 910.11 -3.20379 -3.00423 0
M  V30 9431 H 910.716 -3.97243 -1.51916 0
M  V30 9432 N 909.032 0.252966 -1.55557 0
M  V30 9433 C 909.942 1.33472 -1.92931 0
M  V30 9434 C 910.958 1.52983 -0.828985 0
M  V30 9435 O 912.134 1.66723 -1.12984 0
M  V30 9436 C 909.199 2.6704 -2.21112 0
M  V30 9437 C 908.26 2.56103 -3.44542 0
M  V30 9438 C 907.493 3.83302 -3.71369 0
M  V30 9439 O 907.716 4.84907 -3.00368 0
M  V30 9440 O 906.65 3.823 -4.64898 0
M  V30 9441 H 910.476 1.04768 -2.85057 0
M  V30 9442 H 908.061 0.453208 -1.4236 0
M  V30 9443 H 909.943 3.45981 -2.40572 0
M  V30 9444 H 908.618 2.95489 -1.32166 0
M  V30 9445 H 907.525 1.7547 -3.30396 0
M  V30 9446 H 908.858 2.32601 -4.33772 0
M  V30 9447 N 910.51 1.48831 0.518367 0
M  V30 9448 C 911.735 1.61379 1.30275 0
M  V30 9449 C 912.16 0.278571 1.86026 0
M  V30 9450 O 911.518 -0.751427 1.64995 0
M  V30 9451 C 911.566 2.67225 2.42122 0
M  V30 9452 O 910.67 2.25192 3.45489 0
M  V30 9453 H 910.011 0.540742 0.385349 0
M  V30 9454 H 912.541 1.949 0.622498 0
M  V30 9455 H 912.551 2.88859 2.8814 0
M  V30 9456 H 911.226 3.64155 2.00907 0
M  V30 9457 H 909.803 2.13819 3.05509 0
M  V30 9458 N 911.988 -0.768124 1.37614 0
M  V30 9459 C 913.218 -1.555 1.36027 0
M  V30 9460 C 913.626 -1.89119 -0.0554273 0
M  V30 9461 O 912.969 -1.52203 -1.02859 0
M  V30 9462 C 913.031 -2.8906 2.13739 0
M  V30 9463 C 912.695 -2.78058 3.62674 0
M  V30 9464 C 913.692 -2.48841 4.5648 0
M  V30 9465 C 911.377 -2.95966 4.05844 0
M  V30 9466 C 913.371 -2.37665 5.91434 0
M  V30 9467 C 911.058 -2.84411 5.40882 0
M  V30 9468 C 912.056 -2.55301 6.33491 0
M  V30 9469 O 911.744 -2.43779 7.66046 0
M  V30 9470 H 911.476 -0.488263 0.467521 0
M  V30 9471 H 914.03 -0.959583 1.81607 0
M  V30 9472 H 912.26 -3.50735 1.62854 0
M  V30 9473 H 913.949 -3.5048 2.04741 0
M  V30 9474 H 914.715 -2.34687 4.24437 0
M  V30 9475 H 910.594 -3.17625 3.34119 0
M  V30 9476 H 914.138 -2.14865 6.63686 0
M  V30 9477 H 910.035 -2.98134 5.72527 0
M  V30 9478 H 910.803 -2.59101 7.76408 0
M  V30 9479 N 913.466 -1.22244 -0.994698 0
M  V30 9480 C 914.691 -1.07299 -1.77487 0
M  V30 9481 C 915.116 0.372302 -1.84379 0
M  V30 9482 O 914.474 1.2689 -1.29494 0
M  V30 9483 C 914.522 -1.68675 -3.18718 0
M  V30 9484 O 913.626 -0.939202 -4.01563 0
M  V30 9485 H 912.967 -0.376979 -0.546611 0
M  V30 9486 H 915.497 -1.62003 -1.24965 0
M  V30 9487 H 915.507 -1.73324 -3.69354 0
M  V30 9488 H 914.182 -2.73849 -3.13017 0
M  V30 9489 H 912.759 -0.968583 -3.60101 0
M  V30 9490 N 914.944 1.19125 -1.03184 0
M  V30 9491 C 916.169 1.93379 -0.749628 0
M  V30 9492 C 916.594 1.75153 0.685785 0
M  V30 9493 O 915.952 1.05579 1.47386 0
M  V30 9494 C 916 3.43101 -1.1097 0
M  V30 9495 O 915.104 4.11758 -0.230053 0
M  V30 9496 H 914.445 0.603605 -0.276689 0
M  V30 9497 H 916.975 1.51116 -1.37931 0
M  V30 9498 H 916.985 3.93778 -1.06785 0
M  V30 9499 H 915.66 3.55688 -2.15544 0
M  V30 9500 H 914.237 3.7143 -0.330748 0
M  V30 9501 N 916.422 0.810101 1.35185 0
M  V30 9502 C 917.647 0.40364 2.03434 0
M  V30 9503 C 918.072 -0.97857 1.60641 0
M  V30 9504 O 917.43 -1.63435 0.784779 0
M  V30 9505 C 917.478 0.499154 3.57129 0
M  V30 9506 O 916.582 -0.486039 4.09526 0
M  V30 9507 H 915.923 0.168049 0.642383 0
M  V30 9508 H 918.453 1.09696 1.72708 0
M  V30 9509 H 918.463 0.370236 4.06317 0
M  V30 9510 H 917.138 1.50733 3.87624 0
M  V30 9511 H 915.715 -0.31707 3.7155 0
M  V30 9512 N 917.9 -1.47166 0.563914 0
M  V30 9513 C 918.832 -2.28165 -0.217583 0
M  V30 9514 C 919.845 -1.37405 -0.873134 0
M  V30 9515 O 921.034 -1.6217 -0.745857 0
M  V30 9516 C 918.134 -3.11873 -1.32621 0
M  V30 9517 C 917.307 -4.30637 -0.766177 0
M  V30 9518 C 916.366 -4.95889 -1.76014 0
M  V30 9519 O 915.392 -5.54071 -1.3036 0
M  V30 9520 N 916.594 -4.91191 -3.09373 0
M  V30 9521 H 919.359 -2.95876 0.477256 0
M  V30 9522 H 916.92 -1.5687 0.40043 0
M  V30 9523 H 918.912 -3.52392 -1.99003 0
M  V30 9524 H 917.482 -2.46361 -1.92419 0
M  V30 9525 H 916.702 -3.94129 0.0745998 0
M  V30 9526 H 917.99 -5.07442 -0.371472 0
M  V30 9527 H 917.388 -4.45133 -3.49104 0
M  V30 9528 H 915.945 -5.35708 -3.71295 0
M  V30 9529 N 919.378 -0.300708 -1.54705 0
M  V30 9530 C 920.655 0.361757 -1.92226 0
M  V30 9531 C 921.035 1.71714 -1.2279 0
M  V30 9532 O 920.383 2.2559 -0.363542 0
M  V30 9533 C 920.593 0.476699 -3.45729 0
M  V30 9534 C 921.941 0.7477 -4.17965 0
M  V30 9535 O 922.965 0.560521 -3.51762 0
M  V30 9536 O 921.824 1.10724 -5.35166 0
M  V30 9537 H 918.918 0.202213 -0.801897 0
M  V30 9538 H 921.464 -0.348746 -1.66078 0
M  V30 9539 H 920.236 -0.476132 -3.88392 0
M  V30 9540 H 919.859 1.23568 -3.77911 0
M  V30 9541 N 920.856 1.57574 -0.0284266 0
M  V30 9542 C 922.267 1.79585 0.510502 0
M  V30 9543 C 922.618 0.938625 1.72291 0
M  V30 9544 O 921.743 0.14884 2.15888 0
M  V30 9545 C 922.338 3.25703 0.932912 0
M  V30 9546 C 920.897 3.48711 1.41696 0
M  V30 9547 C 920.044 2.74665 0.381356 0
M  V30 9548 H 922.995 1.56647 -0.254464 0
M  V30 9549 H 923.016 3.35376 1.79731 0
M  V30 9550 H 922.528 3.88067 0.0503036 0
M  V30 9551 H 920.629 2.91597 2.31952 0
M  V30 9552 H 920.742 4.57423 1.42481 0
M  V30 9553 H 919.106 2.40123 0.8493 0
M  V30 9554 H 919.889 3.39745 -0.492775 0
M  V30 9555 N 922.334 -0.244713 1.55689 0
M  V30 9556 C 923.745 -0.813603 1.6804 0
M  V30 9557 C 924.096 -1.85936 0.626281 0
M  V30 9558 O 923.221 -2.15206 -0.227038 0
M  V30 9559 C 923.816 -1.48252 3.04642 0
M  V30 9560 C 922.375 -1.99908 3.18926 0
M  V30 9561 C 921.522 -0.850958 2.6392 0
M  V30 9562 H 924.473 -0.0204805 1.58687 0
M  V30 9563 H 924.494 -2.35062 2.99209 0
M  V30 9564 H 924.006 -0.721164 3.81341 0
M  V30 9565 H 922.107 -2.78918 2.47054 0
M  V30 9566 H 922.22 -2.19497 4.25862 0
M  V30 9567 H 920.584 -1.25206 2.21801 0
M  V30 9568 H 921.367 -0.10265 3.43146 0
M  V30 9569 N 923.813 -1.49104 -0.510467 0
M  V30 9570 C 924.723 -1.67792 -1.6396 0
M  V30 9571 C 925.739 -0.560454 -1.64727 0
M  V30 9572 O 926.915 -0.833985 -1.83321 0
M  V30 9573 C 923.98 -1.73154 -3.00364 0
M  V30 9574 C 923.041 -2.9667 -3.10299 0
M  V30 9575 C 922.274 -3.01767 -4.40196 0
M  V30 9576 O 922.497 -2.1472 -5.28443 0
M  V30 9577 O 921.431 -3.94137 -4.54906 0
M  V30 9578 H 925.257 -2.63428 -1.51126 0
M  V30 9579 H 922.842 -1.32734 -0.685719 0
M  V30 9580 H 924.724 -1.79089 -3.81451 0
M  V30 9581 H 923.399 -0.806952 -3.1348 0
M  V30 9582 H 922.306 -2.96257 -2.28435 0
M  V30 9583 H 923.639 -3.88578 -3.02106 0
M  V30 9584 N 925.291 0.760815 -1.38019 0
M  V30 9585 C 926.238 1.8744 -1.34666 0
M  V30 9586 C 927.208 1.64762 -0.210386 0
M  V30 9587 O 928.393 1.86528 -0.401479 0
M  V30 9588 C 925.533 3.24648 -1.17037 0
M  V30 9589 C 924.646 3.59206 -2.3999 0
M  V30 9590 C 923.781 4.8568 -2.15148 0
M  V30 9591 C 922.82 5.13002 -3.3391 0
M  V30 9592 N 921.957 6.30668 -3.08549 0
M  V30 9593 H 926.797 1.8964 -2.29871 0
M  V30 9594 H 924.334 0.927004 -1.14215 0
M  V30 9595 H 926.292 4.03814 -1.04834 0
M  V30 9596 H 924.922 3.21793 -0.254758 0
M  V30 9597 H 923.974 2.74939 -2.62893 0
M  V30 9598 H 925.286 3.75328 -3.28527 0
M  V30 9599 H 924.44 5.72773 -2.00039 0
M  V30 9600 H 923.179 4.71682 -1.23965 0
M  V30 9601 H 922.184 4.2438 -3.49545 0
M  V30 9602 H 923.409 5.28901 -4.25958 0
M  V30 9603 H 921.355 6.18008 -2.20006 0
M  V30 9604 H 921.272 6.47257 -3.90633 0
M  V30 9605 H 922.54 7.20669 -2.9708 0
M  V30 9606 N 926.769 1.22769 0.988202 0
M  V30 9607 C 927.994 1.08239 1.76915 0
M  V30 9608 C 928.419 -0.362519 1.84574 0
M  V30 9609 O 927.777 -1.26202 1.30165 0
M  V30 9610 C 927.825 1.70363 3.17819 0
M  V30 9611 O 926.929 0.960484 4.01059 0
M  V30 9612 H 926.27 0.379872 0.544604 0
M  V30 9613 H 928.8 1.62663 1.24104 0
M  V30 9614 H 928.81 1.7528 3.6843 0
M  V30 9615 H 927.485 2.75505 3.1156 0
M  V30 9616 H 926.062 0.987667 3.59582 0
M  V30 9617 N 928.247 -1.18576 1.03814 0
M  V30 9618 C 929.496 -1.87822 0.735235 0
M  V30 9619 C 929.809 -1.81069 -0.739819 0
M  V30 9620 O 931.015 -2.45654 -1.15614 0
M  V30 9621 C 929.471 -3.36941 1.26486 0
M  V30 9622 C 929.079 -3.5223 2.76836 0
M  V30 9623 C 930.823 -4.11604 1.03836 0
M  V30 9624 C 928.73 -4.95294 3.23169 0
M  V30 9625 H 927.66 -0.703487 0.271333 0
M  V30 9626 H 930.311 -1.34 1.25365 0
M  V30 9627 H 928.693 -3.90217 0.674318 0
M  V30 9628 H 929.867 -3.09239 3.41625 0
M  V30 9629 H 928.182 -2.90969 2.97869 0
M  V30 9630 H 930.779 -5.17123 1.3597 0
M  V30 9631 H 931.122 -4.16293 -0.0244945 0
M  V30 9632 H 931.655 -3.64494 1.59338 0
M  V30 9633 H 928.394 -4.95772 4.28824 0
M  V30 9634 H 927.914 -5.3901 2.63113 0
M  V30 9635 H 929.593 -5.63996 3.17045 0
M  V30 9636 N 929.725 -0.817259 -1.34754 0
M  V30 9637 C 931.136 -0.462215 -1.80888 0
M  V30 9638 C 931.487 1.01685 -1.67794 0
M  V30 9639 O 930.612 1.79094 -1.21468 0
M  V30 9640 C 931.207 -0.832204 -3.2842 0
M  V30 9641 C 929.766 -0.52961 -3.72655 0
M  V30 9642 C 928.913 -1.05214 -2.56564 0
M  V30 9643 H 931.864 -1.00795 -1.22581 0
M  V30 9644 H 931.885 -0.133804 -3.80265 0
M  V30 9645 H 931.397 -1.90873 -3.37919 0
M  V30 9646 H 929.498 0.537743 -3.68699 0
M  V30 9647 H 929.611 -1.06971 -4.67005 0
M  V30 9648 H 927.975 -0.473949 -2.50251 0
M  V30 9649 H 928.758 -2.135 -2.68836 0
M  V30 9650 N 931.203 1.46865 -0.571711 0
M  V30 9651 C 932.452 2.01636 -0.050881 0
M  V30 9652 C 932.765 1.45001 1.31279 0
M  V30 9653 O 933.971 1.91523 1.92435 0
M  V30 9654 C 932.427 3.59877 -0.0404114 0
M  V30 9655 C 932.035 4.25506 -1.40172 0
M  V30 9656 C 933.779 4.22346 0.42705 0
M  V30 9657 C 931.686 5.75795 -1.34958 0
M  V30 9658 H 930.616 0.753846 -0.0152514 0
M  V30 9659 H 933.267 1.68711 -0.721723 0
M  V30 9660 H 931.649 3.89829 0.696374 0
M  V30 9661 H 932.823 4.07178 -2.15737 0
M  V30 9662 H 931.138 3.75086 -1.8083 0
M  V30 9663 H 933.735 5.32499 0.484688 0
M  V30 9664 H 934.078 3.9052 1.44222 0
M  V30 9665 H 934.611 3.9698 -0.255326 0
M  V30 9666 H 931.35 6.12265 -2.3412 0
M  V30 9667 H 930.87 5.96419 -0.635962 0
M  V30 9668 H 932.549 6.38294 -1.05779 0
M  V30 9669 N 932.681 0.308908 1.54543 0
M  V30 9670 C 933.921 -0.298811 2.02204 0
M  V30 9671 C 934.285 -1.50484 1.19242 0
M  V30 9672 O 935.486 -2.18445 1.56637 0
M  V30 9673 C 933.757 -0.638849 3.51644 0
M  V30 9674 S 935.316 -1.22831 4.21258 0
M  V30 9675 H 932.134 -0.0912638 0.705118 0
M  V30 9676 H 934.736 0.438622 1.90516 0
M  V30 9677 H 933.44 0.24726 4.09654 0
M  V30 9678 H 932.971 -1.40687 3.67384 0
M  V30 9679 H 934.986 -2.51579 4.27694 0
M  V30 9680 N 934.159 -1.57557 0.0367827 0
M  V30 9681 C 935.387 -1.96419 -0.650168 0
M  V30 9682 C 935.802 -0.913656 -1.6522 0
M  V30 9683 O 935.159 0.103718 -1.82205 0
M  V30 9684 C 935.21 -3.35355 -1.3498 0
M  V30 9685 O 934.931 -4.36379 -0.387905 0
M  V30 9686 C 936.432 -3.88892 -2.12786 0
M  V30 9687 H 933.652 -0.646751 -0.178756 0
M  V30 9688 H 936.196 -2.04261 0.0988197 0
M  V30 9689 H 934.351 -3.28708 -2.05012 0
M  V30 9690 H 934.765 -5.16969 -0.885596 0
M  V30 9691 H 936.239 -4.88428 -2.5718 0
M  V30 9692 H 936.716 -3.23547 -2.97008 0
M  V30 9693 H 937.322 -3.98831 -1.47694 0
M  V30 9694 N 935.637 0.236453 -1.55816 0
M  V30 9695 C 936.567 1.29639 -1.94206 0
M  V30 9696 C 937.548 1.49667 -0.808319 0
M  V30 9697 O 938.733 1.621 -1.06945 0
M  V30 9698 C 935.863 2.64914 -2.24584 0
M  V30 9699 C 934.817 2.59565 -3.40308 0
M  V30 9700 C 934.143 3.98732 -3.56254 0
M  V30 9701 C 935.443 2.15642 -4.75706 0
M  V30 9702 H 937.137 0.977552 -2.82992 0
M  V30 9703 H 934.683 0.468804 -1.36155 0
M  V30 9704 H 936.636 3.39209 -2.50031 0
M  V30 9705 H 935.36 2.98455 -1.32636 0
M  V30 9706 H 934.019 1.87728 -3.14887 0
M  V30 9707 H 933.667 4.29556 -2.61707 0
M  V30 9708 H 933.367 3.96039 -4.34082 0
M  V30 9709 H 934.891 4.74711 -3.84033 0
M  V30 9710 H 936.305 2.79673 -5.00456 0
M  V30 9711 H 934.702 2.24039 -5.56711 0
M  V30 9712 H 935.772 1.10831 -4.72064 0
M  V30 9713 N 937.115 1.49373 0.502552 0
M  V30 9714 C 938.062 1.65927 1.60427 0
M  V30 9715 C 939.032 0.500768 1.58371 0
M  V30 9716 O 940.217 0.727606 1.76382 0
M  V30 9717 C 937.357 1.73043 2.9858 0
M  V30 9718 C 936.47 3.00187 3.10663 0
M  V30 9719 C 935.605 2.98292 4.3954 0
M  V30 9720 C 934.644 4.20022 4.4525 0
M  V30 9721 N 933.781 4.16046 5.65553 0
M  V30 9722 H 938.621 2.59998 1.45619 0
M  V30 9723 H 936.158 1.28912 0.708519 0
M  V30 9724 H 938.116 1.7515 3.78653 0
M  V30 9725 H 936.746 0.824397 3.12095 0
M  V30 9726 H 935.798 3.07699 2.23663 0
M  V30 9727 H 937.11 3.9018 3.10742 0
M  V30 9728 H 936.264 2.98953 5.27932 0
M  V30 9729 H 935.003 2.06075 4.42023 0
M  V30 9730 H 934.008 4.19607 3.5526 0
M  V30 9731 H 935.233 5.13431 4.44484 0
M  V30 9732 H 933.179 3.26665 5.68881 0
M  V30 9733 H 933.096 4.99773 5.67242 0
M  V30 9734 H 934.364 4.20807 6.56156 0
M  V30 9735 N 938.594 -0.753485 1.38421 0
M  V30 9736 C 939.542 -1.8886 1.35774 0
M  V30 9737 C 940.536 -1.67639 0.243608 0
M  V30 9738 O 941.742 -1.75206 0.412649 0
M  V30 9739 H 938.117 -0.62137 0.42356 0
M  V30 9740 H 940.088 -1.88209 2.3156 0
M  V30 9741 C 938.837 -3.26344 1.19979 0
M  V30 9742 H 938.16 -3.43259 2.04971 0
M  V30 9743 H 939.6 -4.06015 1.22181 0
M  V30 9744 C 938.059 -3.36771 -0.0932867 0
M  V30 9745 O 938.589 -3.8718 -1.07027 0
M  V30 9746 N 936.795 -2.90212 -0.150154 0
M  V30 9747 H 936.342 -2.4938 0.645562 0
M  V30 9748 H 936.3 -2.97569 -1.0149 0
M  V30 9749 N 940.072 -1.23292 -0.981677 0
M  V30 9750 C 941.319 -1.06424 -1.72279 0
M  V30 9751 C 941.647 0.399055 -1.90362 0
M  V30 9752 O 940.902 1.31181 -1.45224 0
M  V30 9753 C 941.201 -1.73339 -3.12551 0
M  V30 9754 C 940.867 -3.23256 -3.14351 0
M  V30 9755 C 939.529 -3.64159 -3.14549 0
M  V30 9756 C 941.881 -4.1916 -3.09765 0
M  V30 9757 C 939.209 -4.99428 -3.07877 0
M  V30 9758 C 941.561 -5.54419 -3.04635 0
M  V30 9759 C 940.225 -5.94688 -3.03154 0
M  V30 9760 H 939.495 -0.389434 -0.630415 0
M  V30 9761 H 942.142 -1.53208 -1.1489 0
M  V30 9762 H 940.447 -1.18911 -3.73319 0
M  V30 9763 H 942.144 -1.57767 -3.68661 0
M  V30 9764 H 938.734 -2.90693 -3.14953 0
M  V30 9765 H 942.918 -3.88569 -3.08753 0
M  V30 9766 H 938.174 -5.29844 -3.05083 0
M  V30 9767 H 942.348 -6.28448 -3.00043 0
M  V30 9768 H 939.975 -6.99468 -2.97739 0
M  V30 9769 N 941.55 1.18024 -1.04442 0
M  V30 9770 C 942.961 1.69749 -0.777312 0
M  V30 9771 C 943.312 1.83234 0.701399 0
M  V30 9772 O 942.437 1.51452 1.54568 0
M  V30 9773 C 943.032 3.08321 -1.40441 0
M  V30 9774 C 941.591 3.57243 -1.18553 0
M  V30 9775 C 940.738 2.33695 -1.49271 0
M  V30 9776 H 943.689 1.02647 -1.21035 0
M  V30 9777 H 943.71 3.71787 -0.809628 0
M  V30 9778 H 943.222 2.98474 -2.48062 0
M  V30 9779 H 941.323 3.72379 -0.128221 0
M  V30 9780 H 941.436 4.40451 -1.88519 0
M  V30 9781 H 939.8 2.37792 -0.912526 0
M  V30 9782 H 940.583 2.26464 -2.5801 0
M  V30 9783 N 943.028 0.824394 1.34319 0
M  V30 9784 C 943.976 0.235628 2.31403 0
M  V30 9785 C 944.97 -0.624443 1.57471 0
M  V30 9786 O 946.176 -0.515618 1.72457 0
M  V30 9787 H 942.551 0.0574537 0.749802 0
M  V30 9788 H 944.522 1.06925 2.78585 0
M  V30 9789 C 943.271 -0.586617 3.42716 0
M  V30 9790 H 942.594 0.0658669 3.99746 0
M  V30 9791 H 944.034 -0.964661 4.1288 0
M  V30 9792 C 942.493 -1.75957 2.87299 0
M  V30 9793 O 943.023 -2.8578 2.82299 0
M  V30 9794 N 941.229 -1.57678 2.44102 0
M  V30 9795 H 940.776 -0.683436 2.48369 0
M  V30 9796 H 940.734 -2.36311 2.07375 0
M  V30 9797 N 944.506 -1.46559 0.579492 0
M  V30 9798 C 945.469 -2.28739 -0.145371 0
M  V30 9799 C 946.469 -1.38211 -0.821854 0
M  V30 9800 O 947.659 -1.6062 -0.674302 0
M  V30 9801 C 944.791 -3.18507 -1.21515 0
M  V30 9802 H 945.984 -2.94301 0.576786 0
M  V30 9803 H 943.537 -1.52616 0.337327 0
M  V30 9804 H 944.272 -2.57685 -1.96899 0
M  V30 9805 H 944.057 -3.85157 -0.734616 0
M  V30 9806 H 945.547 -3.80369 -1.72363 0
M  V30 9807 N 945.984 -0.3171 -1.54377 0
M  V30 9808 C 947.233 0.288271 -1.99629 0
M  V30 9809 C 947.546 1.53754 -1.2091 0
M  V30 9810 O 948.752 2.2185 -1.56508 0
M  V30 9811 C 947.208 0.564188 -3.5545 0
M  V30 9812 C 946.816 -0.667659 -4.42997 0
M  V30 9813 C 948.56 1.12987 -4.09187 0
M  V30 9814 C 946.467 -0.364003 -5.90279 0
M  V30 9815 H 945.397 0.111492 -0.745711 0
M  V30 9816 H 948.048 -0.428317 -1.78431 0
M  V30 9817 H 946.43 1.34079 -3.72611 0
M  V30 9818 H 947.604 -1.44335 -4.37612 0
M  V30 9819 H 945.919 -1.1531 -4.00116 0
M  V30 9820 H 948.516 1.37157 -5.1681 0
M  V30 9821 H 948.859 2.07722 -3.60773 0
M  V30 9822 H 949.392 0.414595 -3.95634 0
M  V30 9823 H 946.131 -1.28035 -6.42874 0
M  V30 9824 H 945.651 0.374102 -5.98632 0
M  V30 9825 H 947.33 0.0285433 -6.46994 0
M  V30 9826 N 947.462 1.57535 -0.0451378 0
M  V30 9827 C 948.372 2.14653 0.946646 0
M  V30 9828 C 949.388 1.10279 1.3459 0
M  V30 9829 O 950.564 1.42417 1.42405 0
M  V30 9830 C 947.629 2.67533 2.20515 0
M  V30 9831 C 946.69 3.86682 1.86481 0
M  V30 9832 C 945.923 4.37031 3.06332 0
M  V30 9833 O 946.146 3.86481 4.1951 0
M  V30 9834 O 945.08 5.28691 2.87697 0
M  V30 9835 H 948.906 2.99706 0.49091 0
M  V30 9836 H 946.491 1.48355 0.17641 0
M  V30 9837 H 948.373 3.01542 2.94365 0
M  V30 9838 H 947.048 1.85554 2.65238 0
M  V30 9839 H 945.955 3.57573 1.09966 0
M  V30 9840 H 947.288 4.69873 1.46562 0
M  V30 9841 N 948.94 -0.228186 1.55939 0
M  V30 9842 C 949.89 -1.28607 1.88267 0
M  V30 9843 C 950.874 -1.42606 0.745139 0
M  V30 9844 O 952.066 -1.45533 1.00743 0
M  V30 9845 C 949.195 -2.63783 2.19712 0
M  V30 9846 C 948.281 -2.53712 3.3984 0
M  V30 9847 N 948.672 -2.13287 4.58631 0
M  V30 9848 C 946.97 -2.84686 3.43322 0
M  V30 9849 C 947.671 -2.14305 5.40785 0
M  V30 9850 N 946.647 -2.54536 4.80325 0
M  V30 9851 H 950.449 -0.964307 2.7763 0
M  V30 9852 H 947.963 -0.436769 1.56416 0
M  V30 9853 H 949.96 -3.40152 2.41044 0
M  V30 9854 H 948.62 -2.9681 1.31657 0
M  V30 9855 H 949.631 -1.84525 4.83912 0
M  V30 9856 H 946.308 -3.22129 2.65592 0
M  V30 9857 H 947.698 -1.85231 6.45863 0
M  V30 9858 N 950.418 -1.49637 -0.494624 0
M  V30 9859 C 951.646 -1.63164 -1.2722 0
M  V30 9860 C 952.061 -0.305552 -1.86311 0
M  V30 9861 O 951.418 0.709758 -1.68133 0
M  V30 9862 C 951.469 -2.70524 -2.39789 0
M  V30 9863 O 951.19 -3.97991 -1.83126 0
M  V30 9864 C 952.691 -2.94814 -3.31058 0
M  V30 9865 H 949.911 -0.54912 -0.385627 0
M  V30 9866 H 952.455 -1.95711 -0.593081 0
M  V30 9867 H 950.61 -2.40738 -3.03519 0
M  V30 9868 H 951.024 -4.57179 -2.57075 0
M  V30 9869 H 952.498 -3.73653 -4.06309 0
M  V30 9870 H 952.975 -2.04974 -3.88436 0
M  V30 9871 H 953.581 -3.26042 -2.73088 0
M  V30 9872 N 951.896 0.746133 -1.38819 0
M  V30 9873 C 952.826 1.87344 -1.39372 0
M  V30 9874 C 953.807 1.68123 -0.258583 0
M  V30 9875 O 954.992 1.88606 -0.462769 0
M  V30 9876 C 952.122 3.24962 -1.22543 0
M  V30 9877 C 951.076 3.58799 -2.33339 0
M  V30 9878 C 950.402 4.95235 -2.01609 0
M  V30 9879 C 951.702 3.62911 -3.75624 0
M  V30 9880 H 953.396 1.87138 -2.33709 0
M  V30 9881 H 950.942 0.898937 -1.12495 0
M  V30 9882 H 952.895 4.03488 -1.21554 0
M  V30 9883 H 951.619 3.25667 -0.246707 0
M  V30 9884 H 950.278 2.82596 -2.33527 0
M  V30 9885 H 949.926 4.92508 -1.02202 0
M  V30 9886 H 949.626 5.18843 -2.75819 0
M  V30 9887 H 951.15 5.76131 -2.02251 0
M  V30 9888 H 952.564 4.31535 -3.77426 0
M  V30 9889 H 950.961 3.98031 -4.491 0
M  V30 9890 H 952.031 2.62967 -4.07402 0
M  V30 9891 N 953.375 1.23811 0.975125 0
M  V30 9892 C 954.307 0.981779 2.07108 0
M  V30 9893 C 955.32 -0.0461211 1.62735 0
M  V30 9894 O 956.509 0.190039 1.77486 0
M  V30 9895 C 953.609 0.458364 3.35786 0
M  V30 9896 C 952.782 1.54767 4.09104 0
M  V30 9897 C 951.841 1.0282 5.16057 0
M  V30 9898 O 950.867 1.71831 5.42644 0
M  V30 9899 N 952.069 -0.141243 5.80328 0
M  V30 9900 H 954.834 1.92537 2.29673 0
M  V30 9901 H 952.395 1.1474 1.14221 0
M  V30 9902 H 954.387 0.0957686 4.04587 0
M  V30 9903 H 952.957 -0.390768 3.10148 0
M  V30 9904 H 952.177 2.08279 3.34684 0
M  V30 9905 H 953.465 2.28006 4.54853 0
M  V30 9906 H 952.863 -0.718382 5.6112 0
M  V30 9907 H 951.42 -0.445052 6.50279 0
M  V30 9908 N 954.853 -1.17469 1.05066 0
M  V30 9909 C 956.099 -1.88225 0.7709 0
M  V30 9910 C 956.454 -1.7943 -0.694452 0
M  V30 9911 O 955.747 -1.19059 -1.50118 0
M  V30 9912 C 955.941 -3.37211 1.18421 0
M  V30 9913 C 955.77 -3.60508 2.68819 0
M  V30 9914 C 954.54 -3.77303 3.36111 0
M  V30 9915 C 956.738 -3.60258 3.6704 0
M  V30 9916 N 954.72 -3.88433 4.75387 0
M  V30 9917 C 956.091 -3.77223 4.92039 0
M  V30 9918 C 958.146 -3.43401 3.60527 0
M  V30 9919 C 956.849 -3.79075 6.11305 0
M  V30 9920 C 958.875 -3.46541 4.79232 0
M  V30 9921 C 958.237 -3.64013 6.03054 0
M  V30 9922 H 954.336 -0.706941 0.334303 0
M  V30 9923 H 956.92 -1.41029 1.34235 0
M  V30 9924 H 955.091 -3.83079 0.640724 0
M  V30 9925 H 956.823 -3.95578 0.854411 0
M  V30 9926 H 953.578 -3.77105 2.86512 0
M  V30 9927 H 954.002 -3.97797 5.47802 0
M  V30 9928 H 958.644 -3.28831 2.65762 0
M  V30 9929 H 956.362 -3.92431 7.06416 0
M  V30 9930 H 959.948 -3.34758 4.75845 0
M  V30 9931 H 958.828 -3.66345 6.93369 0
M  V30 9932 N 956.331 -0.831506 -1.3388 0
M  V30 9933 C 957.294 -0.264773 -2.27666 0
M  V30 9934 C 958.294 0.562273 -1.50649 0
M  V30 9935 O 959.484 0.377131 -1.70069 0
M  V30 9936 C 956.616 0.627814 -3.35069 0
M  V30 9937 H 957.809 -1.09225 -2.79303 0
M  V30 9938 H 955.362 -0.604021 -1.44157 0
M  V30 9939 H 956.097 1.47802 -2.88661 0
M  V30 9940 H 955.882 0.0361552 -3.92083 0
M  V30 9941 H 957.372 1.01786 -4.05005 0
M  V30 9942 N 957.809 1.4625 -0.587256 0
M  V30 9943 C 959.225 1.57641 -0.249284 0
M  V30 9944 C 959.425 1.58169 1.24839 0
M  V30 9945 O 958.481 1.50109 2.03036 0
M  V30 9946 C 959.794 2.86837 -0.902509 0
M  V30 9947 C 961.342 3.00476 -0.876524 0
M  V30 9948 C 961.817 4.32414 -1.50938 0
M  V30 9949 N 963.308 4.39124 -1.47392 0
M  V30 9950 C 964.043 5.39838 -1.93293 0
M  V30 9951 N 963.539 6.47202 -2.47188 0
M  V30 9952 N 965.332 5.31068 -1.84183 0
M  V30 9953 H 957.483 1.44151 -1.55994 0
M  V30 9954 H 959.746 0.687905 -0.652297 0
M  V30 9955 H 959.452 2.92274 -1.95624 0
M  V30 9956 H 959.326 3.74927 -0.413466 0
M  V30 9957 H 961.713 2.94618 0.168601 0
M  V30 9958 H 961.794 2.1385 -1.40363 0
M  V30 9959 H 961.438 4.3903 -2.55372 0
M  V30 9960 H 961.368 5.17823 -0.957455 0
M  V30 9961 H 963.859 3.62138 -1.08002 0
M  V30 9962 H 964.172 7.20269 -2.80058 0
M  V30 9963 H 962.517 6.48009 -2.51216 0
M  V30 9964 H 965.708 4.46095 -1.41833 0
M  V30 9965 H 965.881 6.09414 -2.2027 0
M  V30 9966 N 959.287 0.325282 1.54207 0
M  V30 9967 C 960.564 -0.33113 1.92777 0
M  V30 9968 C 960.944 -1.69739 1.25506 0
M  V30 9969 O 960.292 -2.24983 0.399385 0
M  V30 9970 C 960.502 -0.421636 3.46444 0
M  V30 9971 C 961.85 -0.681111 4.19101 0
M  V30 9972 O 962.874 -0.504488 3.52609 0
M  V30 9973 O 961.733 -1.02196 5.3686 0
M  V30 9974 H 958.827 -0.18943 0.805013 0
M  V30 9975 H 961.373 0.375123 1.65502 0
M  V30 9976 H 960.145 0.537862 3.87586 0
M  V30 9977 H 959.768 -1.1754 3.79829 0
M  V30 9978 N 960.765 -1.57509 0.0534917 0
M  V30 9979 C 961.675 -2.15152 -0.935249 0
M  V30 9980 C 962.691 -1.10991 -1.34003 0
M  V30 9981 O 963.867 -1.43171 -1.41648 0
M  V30 9982 C 960.932 -2.68699 -2.19093 0
M  V30 9983 C 959.993 -3.87666 -1.84428 0
M  V30 9984 C 959.226 -4.3865 -3.0401 0
M  V30 9985 O 959.449 -3.887 -4.17455 0
M  V30 9986 O 958.383 -5.30209 -2.84889 0
M  V30 9987 H 962.209 -2.99962 -0.475009 0
M  V30 9988 H 959.794 -1.48446 -0.16854 0
M  V30 9989 H 961.676 -3.03098 -2.92762 0
M  V30 9990 H 960.351 -1.86958 -2.6425 0
M  V30 9991 H 959.258 -3.58151 -1.08068 0
M  V30 9992 H 960.591 -4.70643 -1.44068 0
M  V30 9993 N 962.243 0.219913 -1.56058 0
M  V30 9994 C 963.49 0.944064 -1.79147 0
M  V30 9995 C 963.818 1.84268 -0.622531 0
M  V30 9996 O 963.073 1.91713 0.393013 0
M  V30 9997 C 963.372 1.81293 -3.08006 0
M  V30 9998 C 963.038 1.0674 -4.38084 0
M  V30 9999 C 961.7 0.86147 -4.73426 0
M  V30 10000 C 964.052 0.541049 -5.18384 0
M  V30 10001 C 961.38 0.117307 -5.86583 0
M  V30 10002 C 963.732 -0.189779 -6.32315 0
M  V30 10003 C 962.396 -0.406951 -6.66258 0
M  V30 10004 H 961.666 0.345458 -0.655546 0
M  V30 10005 H 964.313 0.212121 -1.90322 0
M  V30 10006 H 962.618 2.61278 -2.9196 0
M  V30 10007 H 964.315 2.3754 -3.23072 0
M  V30 10008 H 960.905 1.23789 -4.10334 0
M  V30 10009 H 965.089 0.687617 -4.91514 0
M  V30 10010 H 960.345 -0.0611651 -6.11369 0
M  V30 10011 H 964.519 -0.605134 -6.93766 0
M  V30 10012 H 962.146 -0.985511 -7.53785 0
M  V30 10013 N 963.721 1.49897 0.486681 0
M  V30 10014 C 964.631 1.70379 1.6127 0
M  V30 10015 C 965.647 0.58659 1.63814 0
M  V30 10016 O 966.823 0.863044 1.81971 0
M  V30 10017 C 963.888 1.77911 2.97571 0
M  V30 10018 C 962.949 3.01569 3.0554 0
M  V30 10019 C 962.182 3.08732 4.35339 0
M  V30 10020 O 962.405 2.23099 5.2496 0
M  V30 10021 O 961.339 4.01325 4.48578 0
M  V30 10022 H 965.165 2.65799 1.46916 0
M  V30 10023 H 962.75 1.33808 0.664516 0
M  V30 10024 H 964.632 1.85135 3.78554 0
M  V30 10025 H 963.307 0.856722 3.12157 0
M  V30 10026 H 962.214 2.99854 2.23693 0
M  V30 10027 H 963.547 3.93335 2.95886 0
M  V30 10028 N 965.199 -0.738761 1.39212 0
M  V30 10029 C 966.447 -1.49529 1.35962 0
M  V30 10030 C 966.768 -1.94948 -0.0450152 0
M  V30 10031 O 966.038 -1.68717 -0.995552 0
M  V30 10032 H 964.618 -0.554692 0.500326 0
M  V30 10033 H 967.28 -0.877255 1.74041 0
M  V30 10034 H 966.376 -2.37919 2.01993 0
M  V30 10035 N 966.677 -1.24326 -0.968545 0
M  V30 10036 C 967.607 -1.05951 -2.08079 0
M  V30 10037 C 968.588 0.0272666 -1.70078 0
M  V30 10038 O 969.773 -0.139644 -1.93697 0
M  V30 10039 C 966.903 -0.662623 -3.4092 0
M  V30 10040 C 965.857 -1.69807 -3.92873 0
M  V30 10041 C 965.183 -1.15628 -5.22048 0
M  V30 10042 C 966.483 -3.09383 -4.20808 0
M  V30 10043 H 968.177 -1.98984 -2.23709 0
M  V30 10044 H 965.723 -0.958112 -1.075 0
M  V30 10045 H 967.676 -0.521071 -4.18166 0
M  V30 10046 H 966.4 0.303399 -3.25188 0
M  V30 10047 H 965.059 -1.82783 -3.17783 0
M  V30 10048 H 964.707 -0.180888 -5.02675 0
M  V30 10049 H 964.407 -1.84822 -5.57776 0
M  V30 10050 H 965.931 -1.02683 -6.01904 0
M  V30 10051 H 967.345 -2.99642 -4.88761 0
M  V30 10052 H 965.742 -3.75923 -4.67763 0
M  V30 10053 H 966.812 -3.57486 -3.27616 0
M  V30 10054 N 968.156 1.1691 -1.05688 0
M  V30 10055 C 969.403 1.87292 -0.76993 0
M  V30 10056 C 969.731 1.81339 0.703295 0
M  V30 10057 O 968.986 1.21959 1.5305 0
M  V30 10058 C 969.285 3.36578 -1.20207 0
M  V30 10059 C 968.951 3.62732 -2.67836 0
M  V30 10060 C 967.613 3.69579 -3.08163 0
M  V30 10061 C 969.965 3.73803 -3.63209 0
M  V30 10062 C 967.293 3.84992 -4.42717 0
M  V30 10063 C 969.645 3.90735 -4.97503 0
M  V30 10064 C 968.309 3.95823 -5.37476 0
M  V30 10065 H 967.579 0.68535 -0.281737 0
M  V30 10066 H 970.226 1.38274 -1.32486 0
M  V30 10067 H 968.531 3.87687 -0.566222 0
M  V30 10068 H 970.228 3.89409 -0.957183 0
M  V30 10069 H 966.818 3.58031 -2.35609 0
M  V30 10070 H 971.002 3.67829 -3.3319 0
M  V30 10071 H 966.258 3.87181 -4.73182 0
M  V30 10072 H 970.432 3.98243 -5.71293 0
M  V30 10073 H 968.059 4.07518 -6.41742 0
M  V30 10074 N 969.634 0.838594 1.33437 0
M  V30 10075 C 970.581 0.269609 2.2922 0
M  V30 10076 C 971.551 -0.614429 1.54318 0
M  V30 10077 O 972.736 -0.552756 1.82618 0
M  V30 10078 C 969.876 -0.549527 3.40697 0
M  V30 10079 C 968.989 0.358502 4.3051 0
M  V30 10080 C 968.124 -0.471709 5.29101 0
M  V30 10081 C 967.163 0.434728 6.10554 0
M  V30 10082 N 966.3 -0.357339 7.0119 0
M  V30 10083 H 971.14 1.09172 2.77282 0
M  V30 10084 H 968.677 0.549832 1.36438 0
M  V30 10085 H 970.635 -1.03992 4.04032 0
M  V30 10086 H 969.265 -1.33661 2.93828 0
M  V30 10087 H 968.317 0.967204 3.67899 0
M  V30 10088 H 969.629 1.05483 4.87519 0
M  V30 10089 H 968.783 -1.02594 5.97963 0
M  V30 10090 H 967.522 -1.20147 4.72669 0
M  V30 10091 H 966.527 1.00097 5.40611 0
M  V30 10092 H 967.752 1.16285 6.6907 0
M  V30 10093 H 965.698 -1.07049 6.47207 0
M  V30 10094 H 965.615 0.280277 7.5548 0
M  V30 10095 H 966.883 -0.893814 7.74359 0
M  V30 10096 N 971.112 -1.45937 0.595003 0
M  V30 10097 C 972.044 -2.28575 -0.169137 0
M  V30 10098 C 973.057 -1.39226 -0.843792 0
M  V30 10099 O 974.246 -1.63716 -0.711291 0
M  V30 10100 C 971.346 -3.14616 -1.25976 0
M  V30 10101 C 970.519 -4.32166 -0.67466 0
M  V30 10102 C 969.578 -4.99511 -1.65456 0
M  V30 10103 O 968.604 -5.56712 -1.18578 0
M  V30 10104 N 969.806 -4.97643 -2.98885 0
M  V30 10105 H 972.571 -2.94797 0.539908 0
M  V30 10106 H 970.132 -1.55985 0.433614 0
M  V30 10107 H 972.124 -3.56534 -1.91483 0
M  V30 10108 H 970.694 -2.50387 -1.8715 0
M  V30 10109 H 969.914 -3.93882 0.158184 0
M  V30 10110 H 971.202 -5.08116 -0.263753 0
M  V30 10111 H 970.6 -4.52438 -3.39583 0
M  V30 10112 H 969.157 -5.43463 -3.59848 0
M  V30 10113 N 972.59 -0.333456 -1.54032 0
M  V30 10114 C 974.001 0.15256 -1.86076 0
M  V30 10115 C 974.352 1.50819 -1.25492 0
M  V30 10116 O 973.477 2.08903 -0.564665 0
M  V30 10117 C 974.072 0.283599 -3.37611 0
M  V30 10118 C 972.631 0.713841 -3.69569 0
M  V30 10119 C 971.778 -0.158515 -2.76847 0
M  V30 10120 H 974.729 -0.553404 -1.48738 0
M  V30 10121 H 974.75 1.11284 -3.63863 0
M  V30 10122 H 974.262 -0.703193 -3.81676 0
M  V30 10123 H 972.363 1.71002 -3.31042 0
M  V30 10124 H 972.476 0.510731 -4.7637 0
M  V30 10125 H 970.84 0.367531 -2.52034 0
M  V30 10126 H 971.623 -1.14226 -3.2374 0
M  V30 10127 N 974.068 1.57479 -0.061844 0
M  V30 10128 C 975.031 2.1104 0.894127 0
M  V30 10129 C 976.031 1.03227 1.23292 0
M  V30 10130 O 977.221 1.29256 1.16784 0
M  V30 10131 C 974.353 2.6035 2.20069 0
M  V30 10132 H 975.546 2.96807 0.429619 0
M  V30 10133 H 973.099 1.55181 0.18672 0
M  V30 10134 H 973.834 1.78008 2.71079 0
M  V30 10135 H 973.619 3.39146 1.9678 0
M  V30 10136 H 975.109 3.019 2.88525 0
M  V30 10137 N 975.546 -0.211634 1.56173 0
M  V30 10138 C 976.456 -1.2831 1.96402 0
M  V30 10139 C 977.472 -1.50731 0.869254 0
M  V30 10140 O 978.648 -1.63669 1.17365 0
M  V30 10141 C 975.713 -2.61084 2.28114 0
M  V30 10142 C 974.774 -2.46879 3.51211 0
M  V30 10143 C 974.007 -3.73321 3.81401 0
M  V30 10144 O 974.23 -4.76773 3.13119 0
M  V30 10145 O 973.164 -3.69839 4.74871 0
M  V30 10146 H 976.99 -0.971733 2.87734 0
M  V30 10147 H 974.575 -0.415305 1.43512 0
M  V30 10148 H 976.457 -3.39481 2.49661 0
M  V30 10149 H 975.132 -2.91881 1.39954 0
M  V30 10150 H 974.039 -1.66648 3.34932 0
M  V30 10151 H 975.372 -2.21018 4.39786 0
M  V30 10152 N 977.024 -1.50153 -0.478725 0
M  V30 10153 C 977.972 -1.68975 -1.59844 0
M  V30 10154 C 978.966 -0.555591 -1.6003 0
M  V30 10155 O 980.172 -0.735875 -1.64271 0
M  V30 10156 H 976.547 -0.533211 -0.530274 0
M  V30 10157 H 978.518 -2.62917 -1.41128 0
M  V30 10158 C 977.267 -1.79409 -2.97838 0
M  V30 10159 H 976.59 -2.66066 -2.98411 0
M  V30 10160 H 978.03 -1.96606 -3.75662 0
M  V30 10161 C 976.489 -0.543927 -3.3248 0
M  V30 10162 O 977.019 0.320376 -4.0042 0
M  V30 10163 N 975.225 -0.400217 -2.87831 0
M  V30 10164 H 974.772 -1.10458 -2.32716 0
M  V30 10165 H 974.73 0.435111 -3.11375 0
M  V30 10166 N 978.502 0.731368 -1.39602 0
M  V30 10167 C 979.748 1.49321 -1.37227 0
M  V30 10168 C 980.081 1.94176 0.0306502 0
M  V30 10169 O 979.356 1.67046 0.996294 0
M  V30 10170 C 979.639 2.73035 -2.34784 0
M  V30 10171 C 979.492 2.34176 -3.84033 0
M  V30 10172 C 980.811 3.75146 -2.30116 0
M  V30 10173 H 977.93 0.541652 -0.499783 0
M  V30 10174 H 980.572 0.835968 -1.70621 0
M  V30 10175 H 978.722 3.29114 -2.06437 0
M  V30 10176 H 980.394 1.83701 -4.23145 0
M  V30 10177 H 978.637 1.66361 -4.00633 0
M  V30 10178 H 979.308 3.22786 -4.47787 0
M  V30 10179 H 981.784 3.28661 -2.55189 0
M  V30 10180 H 980.66 4.5937 -3.00451 0
M  V30 10181 H 980.921 4.22326 -1.30741 0
M  V30 10182 N 979.98 1.24838 0.961938 0
M  V30 10183 C 980.928 1.0436 2.07874 0
M  V30 10184 C 981.922 -0.0232531 1.69384 0
M  V30 10185 O 983.128 0.131773 1.79517 0
M  V30 10186 H 979.503 0.320492 0.680286 0
M  V30 10187 H 981.474 1.99055 2.22306 0
M  V30 10188 C 980.223 0.671246 3.41159 0
M  V30 10189 H 979.546 1.48395 3.7124 0
M  V30 10190 H 980.986 0.567608 4.20184 0
M  V30 10191 C 979.445 -0.622124 3.31106 0
M  V30 10192 O 979.975 -1.66627 3.65511 0
M  V30 10193 N 978.181 -0.605009 2.84232 0
M  V30 10194 H 977.728 0.245052 2.56432 0
M  V30 10195 H 977.686 -1.47056 2.77888 0
M  V30 10196 N 981.458 -1.16348 1.06306 0
M  V30 10197 C 982.39 -2.20316 0.631929 0
M  V30 10198 C 983.403 -1.59819 -0.310133 0
M  V30 10199 O 984.592 -1.78213 -0.101103 0
M  V30 10200 C 981.692 -3.3877 -0.0937645 0
M  V30 10201 C 980.865 -4.28826 0.861816 0
M  V30 10202 C 979.924 -5.25908 0.175346 0
M  V30 10203 O 978.95 -5.63363 0.813039 0
M  V30 10204 N 980.152 -5.70307 -1.08305 0
M  V30 10205 H 982.917 -2.57925 1.52626 0
M  V30 10206 H 980.478 -1.31358 0.946392 0
M  V30 10207 H 982.47 -4.00759 -0.563412 0
M  V30 10208 H 981.04 -2.99666 -0.889904 0
M  V30 10209 H 980.26 -3.64098 1.51083 0
M  V30 10210 H 981.548 -4.85875 1.51007 0
M  V30 10211 H 980.946 -5.4197 -1.62127 0
M  V30 10212 H 979.503 -6.34387 -1.49656 0
M  V30 10213 N 982.937 -0.845659 -1.3299 0
M  V30 10214 C 984.167 -0.457686 -2.01467 0
M  V30 10215 C 984.575 0.947664 -1.63756 0
M  V30 10216 O 983.918 1.62841 -0.850213 0
M  V30 10217 C 983.98 -0.506589 -3.55913 0
M  V30 10218 C 983.644 -1.86924 -4.17023 0
M  V30 10219 C 984.641 -2.83344 -4.35904 0
M  V30 10220 C 982.326 -2.16394 -4.53298 0
M  V30 10221 C 984.32 -4.07391 -4.90216 0
M  V30 10222 C 982.007 -3.40695 -5.07316 0
M  V30 10223 C 983.005 -4.3601 -5.25722 0
M  V30 10224 O 982.693 -5.58112 -5.7859 0
M  V30 10225 H 982.425 -0.179258 -0.651799 0
M  V30 10226 H 984.979 -1.14172 -1.70745 0
M  V30 10227 H 983.209 0.234253 -3.8599 0
M  V30 10228 H 984.898 -0.135487 -4.05674 0
M  V30 10229 H 985.664 -2.61879 -4.08221 0
M  V30 10230 H 981.543 -1.42994 -4.38262 0
M  V30 10231 H 985.087 -4.81796 -5.04498 0
M  V30 10232 H 980.984 -3.62014 -5.3443 0
M  V30 10233 H 981.752 -5.59946 -5.96995 0
M  V30 10234 N 984.415 1.45619 -0.602734 0
M  V30 10235 C 985.345 2.33258 0.106342 0
M  V30 10236 C 986.326 1.46543 0.863664 0
M  V30 10237 O 987.511 1.75324 0.835175 0
M  V30 10238 C 984.641 3.29168 1.10751 0
M  V30 10239 C 983.595 4.25481 0.463717 0
M  V30 10240 C 982.921 5.11046 1.57278 0
M  V30 10241 C 984.221 5.18702 -0.61199 0
M  V30 10242 H 985.915 2.92795 -0.625423 0
M  V30 10243 H 983.461 1.40793 -0.302213 0
M  V30 10244 H 985.414 3.89346 1.61208 0
M  V30 10245 H 984.138 2.6778 1.8698 0
M  V30 10246 H 982.797 3.66595 -0.0199496 0
M  V30 10247 H 982.445 4.46029 2.32524 0
M  V30 10248 H 982.145 5.76286 1.14755 0
M  V30 10249 H 983.669 5.74091 2.07972 0
M  V30 10250 H 985.083 5.72979 -0.191686 0
M  V30 10251 H 983.48 5.92393 -0.958686 0
M  V30 10252 H 984.55 4.61424 -1.4905 0
M  V30 10253 N 985.893 0.34162 1.53853 0
M  V30 10254 C 987.121 -0.256929 2.05299 0
M  V30 10255 C 987.536 -1.44366 1.21671 0
M  V30 10256 O 986.893 -1.80758 0.251584 0
M  V30 10257 C 986.944 -0.673854 3.55164 0
M  V30 10258 O 986.665 0.465687 4.35618 0
M  V30 10259 C 988.166 -1.33332 4.22773 0
M  V30 10260 H 985.386 -0.0499445 0.669139 0
M  V30 10261 H 987.93 0.493048 1.98467 0
M  V30 10262 H 986.085 -1.37378 3.62224 0
M  V30 10263 H 986.499 0.133723 5.2433 0
M  V30 10264 H 987.973 -1.57582 5.29029 0
M  V30 10265 H 988.45 -2.28628 3.75001 0
M  V30 10266 H 989.056 -0.675489 4.19901 0
M  V30 10267 N 987.371 -1.57444 0.0701946 0
M  V30 10268 C 988.648 -1.84826 -0.6402 0
M  V30 10269 C 989.028 -0.962344 -1.87889 0
M  V30 10270 O 988.376 -0.0282209 -2.28483 0
M  V30 10271 C 988.586 -3.34976 -0.979382 0
M  V30 10272 C 989.934 -4.02448 -1.35355 0
M  V30 10273 O 990.958 -3.39713 -1.07116 0
M  V30 10274 O 989.817 -5.13096 -1.88136 0
M  V30 10275 H 986.911 -0.763494 -0.317813 0
M  V30 10276 H 989.457 -1.69399 0.101004 0
M  V30 10277 H 988.229 -3.91173 -0.0995576 0
M  V30 10278 H 987.852 -3.5566 -1.7774 0
M  V30 10279 N 988.849 0.203349 -1.56283 0
M  V30 10280 C 990.26 0.768764 -1.70138 0
M  V30 10281 C 990.611 1.8421 -0.675358 0
M  V30 10282 O 989.736 2.15732 0.1699 0
M  V30 10283 C 990.331 1.40123 -3.08466 0
M  V30 10284 C 988.89 1.91382 -3.24114 0
M  V30 10285 C 988.037 0.780685 -2.66084 0
M  V30 10286 H 990.988 -0.0215997 -1.58685 0
M  V30 10287 H 991.009 2.27046 -3.05336 0
M  V30 10288 H 990.521 0.619805 -3.83119 0
M  V30 10289 H 988.622 2.7227 -2.54362 0
M  V30 10290 H 988.735 2.08128 -4.31531 0
M  V30 10291 H 987.099 1.19281 -2.25042 0
M  V30 10292 H 987.882 0.0116351 -3.43298 0
M  V30 10293 N 990.327 1.50405 0.470755 0
M  V30 10294 C 991.274 1.69293 1.56871 0
M  V30 10295 C 992.244 0.534248 1.57274 0
M  V30 10296 O 993.429 0.764855 1.74799 0
M  V30 10297 C 990.569 1.79338 2.94842 0
M  V30 10298 C 989.682 3.06709 3.04226 0
M  V30 10299 C 988.817 3.07548 4.33114 0
M  V30 10300 C 987.856 4.29372 4.36241 0
M  V30 10301 N 986.993 4.27949 5.56601 0
M  V30 10302 H 991.833 2.63029 1.40071 0
M  V30 10303 H 989.37 1.30386 0.681016 0
M  V30 10304 H 991.328 1.83143 3.74853 0
M  V30 10305 H 989.958 0.890411 3.10277 0
M  V30 10306 H 989.01 3.12374 2.17086 0
M  V30 10307 H 990.322 3.96684 3.02396 0
M  V30 10308 H 989.476 3.10084 5.21472 0
M  V30 10309 H 988.215 2.15404 4.37553 0
M  V30 10310 H 987.22 4.27048 3.4628 0
M  V30 10311 H 988.445 5.22743 4.33493 0
M  V30 10312 H 986.391 3.38658 5.61824 0
M  V30 10313 H 986.308 5.11692 5.56513 0
M  V30 10314 H 987.576 4.34631 6.47083 0
M  V30 10315 N 991.805 -0.723954 1.39988 0
M  V30 10316 C 993.052 -1.48371 1.37812 0
M  V30 10317 C 993.38 -1.94487 -0.0223285 0
M  V30 10318 O 992.635 -1.67906 -1.00529 0
M  V30 10319 C 992.934 -2.73004 2.30659 0
M  V30 10320 C 992.6 -2.45698 3.78078 0
M  V30 10321 C 991.262 -2.37961 4.18244 0
M  V30 10322 C 993.614 -2.22601 4.71273 0
M  V30 10323 C 990.942 -2.05183 5.49652 0
M  V30 10324 C 993.294 -1.91339 6.0297 0
M  V30 10325 C 991.958 -1.82078 6.42187 0
M  V30 10326 H 991.228 -0.542929 0.504291 0
M  V30 10327 H 993.875 -0.829986 1.72579 0
M  V30 10328 H 992.18 -3.43174 1.89048 0
M  V30 10329 H 993.877 -3.31068 2.26263 0
M  V30 10330 H 990.467 -2.52603 3.46251 0
M  V30 10331 H 994.651 -2.2754 4.41066 0
M  V30 10332 H 989.907 -1.96544 5.78948 0
M  V30 10333 H 994.081 -1.72479 6.74703 0
M  V30 10334 H 991.708 -1.56446 7.43928 0
M  V30 10335 N 993.283 -1.25346 -0.955304 0
M  V30 10336 C 994.529 -1.10218 -1.70235 0
M  V30 10337 C 994.862 0.356124 -1.90907 0
M  V30 10338 O 994.137 1.26253 -1.47954 0
M  V30 10339 C 994.42 -1.85627 -3.08569 0
M  V30 10340 C 994.273 -3.39281 -2.95311 0
M  V30 10341 C 995.592 -1.63886 -4.08448 0
M  V30 10342 H 992.711 -0.401781 -0.617852 0
M  V30 10343 H 995.353 -1.5417 -1.11048 0
M  V30 10344 H 993.503 -1.48269 -3.59094 0
M  V30 10345 H 995.175 -3.8631 -2.52116 0
M  V30 10346 H 993.418 -3.67027 -2.31244 0
M  V30 10347 H 994.089 -3.87258 -3.93364 0
M  V30 10348 H 996.565 -1.96406 -3.6683 0
M  V30 10349 H 995.441 -2.19087 -5.03281 0
M  V30 10350 H 995.702 -0.580021 -4.38279 0
M  V30 10351 N 994.761 1.15782 -1.06922 0
M  V30 10352 C 995.671 2.24008 -0.696948 0
M  V30 10353 C 996.687 1.71569 0.289862 0
M  V30 10354 O 997.863 2.00929 0.137585 0
M  V30 10355 C 994.928 3.46568 -0.0957895 0
M  V30 10356 C 993.989 4.14017 -1.13528 0
M  V30 10357 C 993.222 5.30725 -0.562713 0
M  V30 10358 O 993.445 5.66992 0.62259 0
M  V30 10359 O 992.379 5.87572 -1.30549 0
M  V30 10360 H 996.205 2.58174 -1.59938 0
M  V30 10361 H 993.79 1.2342 -0.841889 0
M  V30 10362 H 995.672 4.20731 0.237407 0
M  V30 10363 H 994.347 3.14161 0.780027 0
M  V30 10364 H 993.254 3.41795 -1.52076 0
M  V30 10365 H 994.587 4.50493 -1.98285 0
M  V30 10366 N 996.239 0.8527 1.3254 0
M  V30 10367 C 997.655 0.542298 1.50104 0
M  V30 10368 C 997.855 -0.927465 1.78886 0
M  V30 10369 O 996.911 -1.7106 1.85728 0
M  V30 10370 C 998.224 1.4276 2.64651 0
M  V30 10371 C 999.772 1.42782 2.78536 0
M  V30 10372 C 1000.25 2.29828 3.9616 0
M  V30 10373 N 1001.74 2.27613 4.03418 0
M  V30 10374 C 1002.47 2.91696 4.93661 0
M  V30 10375 N 1001.97 3.64883 5.88925 0
M  V30 10376 N 1003.76 2.81094 4.86768 0
M  V30 10377 H 995.913 1.80395 1.12123 0
M  V30 10378 H 998.176 0.770394 0.552446 0
M  V30 10379 H 997.882 2.47266 2.50105 0
M  V30 10380 H 997.756 1.11358 3.60388 0
M  V30 10381 H 1000.14 0.390417 2.92506 0
M  V30 10382 H 1000.22 1.78198 1.83519 0
M  V30 10383 H 999.868 3.33635 3.82949 0
M  V30 10384 H 999.798 1.91746 4.9045 0
M  V30 10385 H 1002.29 1.74402 3.3525 0
M  V30 10386 H 1002.6 4.10952 6.54476 0
M  V30 10387 H 1000.95 3.68991 5.88957 0
M  V30 10388 H 1004.14 2.23469 4.11314 0
M  V30 10389 H 1004.31 3.31318 5.56895 0
M  V30 10390 N 997.718 -1.45297 0.610449 0
M  V30 10391 C 998.946 -2.0659 0.113211 0
M  V30 10392 C 999.361 -1.4546 -1.20361 0
M  V30 10393 O 998.718 -0.569823 -1.73376 0
M  V30 10394 C 998.769 -3.61488 -0.0298411 0
M  V30 10395 O 998.49 -4.20336 1.23488 0
M  V30 10396 C 999.991 -4.39772 -0.558202 0
M  V30 10397 H 997.211 -0.667322 0.0701555 0
M  V30 10398 H 999.755 -1.86497 0.838993 0
M  V30 10399 H 997.91 -3.80913 -0.705963 0
M  V30 10400 H 998.324 -5.13545 1.0664 0
M  V30 10401 H 999.798 -5.48648 -0.607375 0
M  V30 10402 H 1000.27 -4.09755 -1.58107 0
M  V30 10403 H 1000.88 -4.25217 0.0839704 0
M  V30 10404 N 999.196 -0.349774 -1.5367 0
M  V30 10405 C 1000.13 0.496338 -2.28164 0
M  V30 10406 C 1001.11 1.09737 -1.29968 0
M  V30 10407 O 1002.29 1.11759 -1.58819 0
M  V30 10408 C 999.422 1.64428 -3.0591 0
M  V30 10409 C 998.376 1.17127 -4.11661 0
M  V30 10410 C 997.702 2.40822 -4.77398 0
M  V30 10411 C 999.002 0.267293 -5.21616 0
M  V30 10412 H 1000.7 -0.125117 -2.99138 0
M  V30 10413 H 998.242 -0.0616152 -1.43868 0
M  V30 10414 H 1000.19 2.2427 -3.56765 0
M  V30 10415 H 998.919 2.29272 -2.32598 0
M  V30 10416 H 997.578 0.595634 -3.61729 0
M  V30 10417 H 997.226 3.04088 -4.00674 0
M  V30 10418 H 996.926 2.09852 -5.48849 0
M  V30 10419 H 998.45 3.01378 -5.3104 0
M  V30 10420 H 999.864 0.772734 -5.68068 0
M  V30 10421 H 998.261 0.0491991 -6.0008 0
M  V30 10422 H 999.331 -0.694892 -4.79895 0
M  V30 10423 N 1000.67 1.57404 -0.0785433 0
M  V30 10424 C 1002.09 1.57158 0.2781 0
M  V30 10425 C 1002.29 1.08847 1.69572 0
M  V30 10426 O 1001.35 0.757407 2.40873 0
M  V30 10427 C 1002.66 3.00589 0.0816067 0
M  V30 10428 C 1004.21 3.12637 0.150627 0
M  V30 10429 C 1004.68 4.57997 -0.0176685 0
M  V30 10430 N 1006.17 4.63185 0.0377145 0
M  V30 10431 C 1006.91 5.7336 -0.0679907 0
M  V30 10432 N 1006.4 6.92426 -0.227598 0
M  V30 10433 N 1008.2 5.62099 -0.0104424 0
M  V30 10434 H 1000.35 1.87121 -1.00496 0
M  V30 10435 H 1002.61 0.862937 -0.392484 0
M  V30 10436 H 1002.32 3.40072 -0.896869 0
M  V30 10437 H 1002.19 3.67931 0.831046 0
M  V30 10438 H 1004.58 2.73037 1.11959 0
M  V30 10439 H 1004.66 2.4792 -0.630028 0
M  V30 10440 H 1004.3 4.98288 -0.983431 0
M  V30 10441 H 1004.23 5.20754 0.782475 0
M  V30 10442 H 1006.72 3.77564 0.159208 0
M  V30 10443 H 1007.04 7.72217 -0.300217 0
M  V30 10444 H 1005.38 6.94502 -0.263049 0
M  V30 10445 H 1008.57 4.67964 0.112999 0
M  V30 10446 H 1008.75 6.47928 -0.0962747 0
M  V30 10447 N 1002.15 -0.195058 1.56388 0
M  V30 10448 C 1003.08 -1.24444 1.97575 0
M  V30 10449 C 1004.06 -1.47471 0.847717 0
M  V30 10450 O 1005.25 -1.59208 1.11205 0
M  V30 10451 C 1002.38 -2.58866 2.31529 0
M  V30 10452 C 1001.33 -2.50451 3.47071 0
M  V30 10453 C 1000.66 -3.89146 3.667 0
M  V30 10454 C 1001.96 -2.02953 4.81256 0
M  V30 10455 H 1003.65 -0.902178 2.85484 0
M  V30 10456 H 1001.2 -0.43254 1.3735 0
M  V30 10457 H 1003.15 -3.3246 2.58936 0
M  V30 10458 H 1001.87 -2.94833 1.40502 0
M  V30 10459 H 1000.53 -1.79313 3.19754 0
M  V30 10460 H 1000.18 -4.22466 2.73004 0
M  V30 10461 H 999.882 -3.84391 4.44429 0
M  V30 10462 H 1001.41 -4.64363 3.96484 0
M  V30 10463 H 1002.82 -2.66306 5.07695 0
M  V30 10464 H 1001.22 -2.092 5.62455 0
M  V30 10465 H 1002.29 -0.982757 4.74837 0
M  V30 10466 N 1003.63 -1.50653 -0.462772 0
M  V30 10467 C 1004.59 -1.69561 -1.54213 0
M  V30 10468 C 1005.59 -0.566106 -1.50505 0
M  V30 10469 O 1006.78 -0.833273 -1.52978 0
M  V30 10470 C 1003.91 -1.72856 -2.93826 0
M  V30 10471 H 1005.11 -2.65867 -1.38761 0
M  V30 10472 H 1002.66 -1.40259 -0.689728 0
M  V30 10473 H 1003.4 -0.78273 -3.14712 0
M  V30 10474 H 1003.18 -2.54919 -2.97924 0
M  V30 10475 H 1004.67 -1.89411 -3.72174 0
M  V30 10476 N 1005.11 0.71652 -1.4037 0
M  V30 10477 C 1006.36 1.47347 -1.38324 0
M  V30 10478 C 1006.68 1.94995 0.0139949 0
M  V30 10479 O 1005.95 1.7028 0.968585 0
M  V30 10480 H 1004.53 0.546662 -0.509087 0
M  V30 10481 H 1007.19 0.849455 -1.75415 0
M  V30 10482 H 1006.29 2.34675 -2.05752 0
M  V30 10483 N 1006.59 1.25851 0.948643 0
M  V30 10484 C 1007.81 1.13711 1.72851 0
M  V30 10485 C 1008.23 -0.308471 1.86263 0
M  V30 10486 O 1007.59 -1.21175 1.36465 0
M  V30 10487 C 1007.64 1.79271 3.13918 0
M  V30 10488 O 1007.36 3.18179 3.01154 0
M  V30 10489 C 1008.86 1.72988 4.08154 0
M  V30 10490 H 1006.08 0.396334 0.541443 0
M  V30 10491 H 1008.62 1.66329 1.18974 0
M  V30 10492 H 1006.78 1.30609 3.64719 0
M  V30 10493 H 1007.19 3.50507 3.90186 0
M  V30 10494 H 1008.67 2.2351 5.04725 0
M  V30 10495 H 1009.14 0.694866 4.33668 0
M  V30 10496 H 1009.75 2.21166 3.63271 0
M  V30 10497 N 1008.06 -1.15214 1.07534 0
M  V30 10498 C 1009 -2.19634 0.655261 0
M  V30 10499 C 1010.01 -1.60139 -0.293165 0
M  V30 10500 O 1011.2 -1.78311 -0.0821957 0
M  V30 10501 C 1008.3 -3.38851 -0.0578281 0
M  V30 10502 C 1007.47 -4.27888 0.90725 0
M  V30 10503 C 1006.53 -5.25692 0.231115 0
M  V30 10504 O 1005.56 -5.62469 0.872746 0
M  V30 10505 N 1006.76 -5.71424 -1.0225 0
M  V30 10506 H 1009.52 -2.56292 1.55353 0
M  V30 10507 H 1007.08 -1.30347 0.960271 0
M  V30 10508 H 1009.08 -4.01334 -0.520874 0
M  V30 10509 H 1007.65 -3.00593 -0.858071 0
M  V30 10510 H 1006.87 -3.62475 1.54937 0
M  V30 10511 H 1008.15 -4.84246 1.56151 0
M  V30 10512 H 1007.55 -5.43659 -1.56369 0
M  V30 10513 H 1006.11 -6.35938 -1.42919 0
M  V30 10514 N 1009.54 -0.859717 -1.32086 0
M  V30 10515 C 1010.95 -0.519529 -1.79326 0
M  V30 10516 C 1011.3 0.96295 -1.70944 0
M  V30 10517 O 1010.43 1.75139 -1.27104 0
M  V30 10518 C 1011.02 -0.936267 -3.25606 0
M  V30 10519 C 1009.58 -0.647899 -3.70782 0
M  V30 10520 C 1008.73 -1.13323 -2.53087 0
M  V30 10521 H 1011.68 -1.04643 -1.19312 0
M  V30 10522 H 1011.7 -0.254714 -3.79646 0
M  V30 10523 H 1011.21 -2.01527 -3.31675 0
M  V30 10524 H 1009.32 0.420172 -3.70223 0
M  V30 10525 H 1009.43 -1.21774 -4.63366 0
M  V30 10526 H 1007.79 -0.553325 -2.48617 0
M  V30 10527 H 1008.58 -2.21945 -2.61907 0
M  V30 10528 N 1011.02 1.44971 -0.618145 0
M  V30 10529 C 1011.95 2.33357 0.0815955 0
M  V30 10530 C 1012.93 1.47451 0.848072 0
M  V30 10531 O 1014.12 1.762 0.816532 0
M  V30 10532 C 1011.25 3.30324 1.07253 0
M  V30 10533 C 1010.2 4.25948 0.418563 0
M  V30 10534 C 1009.53 5.12685 1.51849 0
M  V30 10535 C 1010.83 5.18024 -0.66697 0
M  V30 10536 H 1012.52 2.92115 -0.656442 0
M  V30 10537 H 1010.07 1.40465 -0.317129 0
M  V30 10538 H 1012.02 3.91033 1.57069 0
M  V30 10539 H 1010.74 2.69748 1.8413 0
M  V30 10540 H 1009.4 3.66553 -0.0588308 0
M  V30 10541 H 1009.05 4.4847 2.2778 0
M  V30 10542 H 1008.75 5.7747 1.08637 0
M  V30 10543 H 1010.27 5.76264 2.01871 0
M  V30 10544 H 1011.69 5.72744 -0.252448 0
M  V30 10545 H 1010.09 5.91343 -1.02146 0
M  V30 10546 H 1011.16 4.59817 -1.53936 0
M  V30 10547 N 1012.5 0.357919 1.53482 0
M  V30 10548 C 1013.41 -0.500273 2.29204 0
M  V30 10549 C 1014.42 -1.09936 1.3487 0
M  V30 10550 O 1015.6 -1.11195 1.67921 0
M  V30 10551 C 1012.67 -1.62828 3.06085 0
M  V30 10552 C 1011.73 -1.05751 4.16071 0
M  V30 10553 C 1010.96 -2.13176 4.89277 0
M  V30 10554 O 1011.18 -3.34153 4.62274 0
M  V30 10555 O 1010.12 -1.76663 5.7539 0
M  V30 10556 H 1013.94 0.115696 3.0348 0
M  V30 10557 H 1011.53 0.122527 1.48897 0
M  V30 10558 H 1013.41 -2.28427 3.54117 0
M  V30 10559 H 1012.08 -2.22979 2.34653 0
M  V30 10560 H 1010.99 -0.365642 3.72309 0
M  V30 10561 H 1012.32 -0.500661 4.89647 0
M  V30 10562 N 1013.98 -1.5736 0.0868897 0
M  V30 10563 C 1015.22 -1.94341 -0.579598 0
M  V30 10564 C 1015.56 -0.968238 -1.68341 0
M  V30 10565 O 1014.83 8.29649e-05 -1.945 0
M  V30 10566 C 1015.11 -3.41497 -1.14245 0
M  V30 10567 C 1014.97 -4.49778 -0.044255 0
M  V30 10568 C 1016.29 -3.89788 -2.04336 0
M  V30 10569 H 1013.4 -0.70668 -0.20922 0
M  V30 10570 H 1016.05 -1.89359 0.15593 0
M  V30 10571 H 1014.2 -3.45873 -1.76929 0
M  V30 10572 H 1015.87 -4.57517 0.58959 0
M  V30 10573 H 1014.11 -4.293 0.623207 0
M  V30 10574 H 1014.78 -5.4992 -0.478749 0
M  V30 10575 H 1017.26 -3.87513 -1.51569 0
M  V30 10576 H 1016.13 -4.93335 -2.40648 0
M  V30 10577 H 1016.4 -3.28603 -2.95757 0
M  V30 10578 N 1015.45 0.186762 -1.56489 0
M  V30 10579 C 1016.38 1.23395 -1.98232 0
M  V30 10580 C 1017.37 1.4702 -0.855526 0
M  V30 10581 O 1018.55 1.58616 -1.12048 0
M  V30 10582 C 1015.68 2.57635 -2.32898 0
M  V30 10583 C 1014.63 2.48607 -3.48394 0
M  V30 10584 C 1013.96 3.87196 -3.68759 0
M  V30 10585 C 1015.26 2.00398 -4.82325 0
M  V30 10586 H 1016.95 0.887026 -2.85958 0
M  V30 10587 H 1014.5 0.42525 -1.37578 0
M  V30 10588 H 1016.45 3.31082 -2.60696 0
M  V30 10589 H 1015.18 2.94084 -1.42064 0
M  V30 10590 H 1013.84 1.77615 -3.207 0
M  V30 10591 H 1013.48 4.21012 -2.75241 0
M  V30 10592 H 1013.18 3.82029 -4.46462 0
M  V30 10593 H 1014.71 4.62253 -3.98941 0
M  V30 10594 H 1016.12 2.6361 -5.091 0
M  V30 10595 H 1014.52 2.06214 -5.63556 0
M  V30 10596 H 1015.59 0.957562 -4.75351 0
M  V30 10597 N 1016.93 1.50896 0.454776 0
M  V30 10598 C 1017.84 1.73762 1.5762 0
M  V30 10599 C 1018.86 0.621206 1.62533 0
M  V30 10600 O 1020.03 0.901449 1.801 0
M  V30 10601 C 1017.1 1.84183 2.9373 0
M  V30 10602 C 1016.16 3.07982 2.99075 0
M  V30 10603 C 1015.39 3.17896 4.28693 0
M  V30 10604 O 1015.62 2.34184 5.20109 0
M  V30 10605 O 1014.55 4.10749 4.39964 0
M  V30 10606 H 1018.38 2.68856 1.41245 0
M  V30 10607 H 1015.96 1.35187 0.635984 0
M  V30 10608 H 1017.84 1.93123 3.74542 0
M  V30 10609 H 1016.52 0.922742 3.10269 0
M  V30 10610 H 1015.43 3.04531 2.17282 0
M  V30 10611 H 1016.76 3.99523 2.87476 0
M  V30 10612 N 1018.41 -0.709066 1.40748 0
M  V30 10613 C 1019.37 -1.80485 1.41272 0
M  V30 10614 C 1020.37 -1.57872 0.305463 0
M  V30 10615 O 1021.56 -1.64793 0.564691 0
M  V30 10616 C 1018.7 -3.1867 1.21087 0
M  V30 10617 H 1019.89 -1.81417 2.38805 0
M  V30 10618 H 1017.44 -0.915356 1.26692 0
M  V30 10619 H 1018.18 -3.23385 0.243406 0
M  V30 10620 H 1017.96 -3.36484 2.01299 0
M  V30 10621 H 1019.45 -3.98685 1.24257 0
M  V30 10622 N 1019.89 -1.26353 -0.941956 0
M  V30 10623 C 1021.14 -1.12017 -1.69056 0
M  V30 10624 C 1021.47 0.335856 -1.91274 0
M  V30 10625 O 1020.74 1.24677 -1.49285 0
M  V30 10626 C 1021.03 -1.88889 -3.06583 0
M  V30 10627 C 1020.88 -3.42394 -2.91696 0
M  V30 10628 C 1022.2 -1.68209 -4.06686 0
M  V30 10629 H 1019.32 -0.408311 -0.613556 0
M  V30 10630 H 1021.96 -1.55339 -1.09407 0
M  V30 10631 H 1020.11 -1.5207 -3.57501 0
M  V30 10632 H 1021.78 -3.88962 -2.48005 0
M  V30 10633 H 1020.02 -3.69459 -2.27338 0
M  V30 10634 H 1020.7 -3.91408 -3.89235 0
M  V30 10635 H 1023.17 -2.00286 -3.64726 0
M  V30 10636 H 1022.05 -2.24412 -5.00929 0
M  V30 10637 H 1022.31 -0.626474 -4.37639 0
M  V30 10638 N 1021.37 1.14642 -1.08144 0
M  V30 10639 C 1022.3 2.19283 -0.6669 0
M  V30 10640 C 1023.31 1.60292 0.284668 0
M  V30 10641 O 1024.5 1.78352 0.0727383 0
M  V30 10642 C 1021.6 3.38877 0.0398572 0
M  V30 10643 C 1020.77 4.274 -0.929929 0
M  V30 10644 C 1019.83 5.25562 -0.258991 0
M  V30 10645 O 1018.86 5.61999 -0.902563 0
M  V30 10646 N 1020.06 5.71958 0.992177 0
M  V30 10647 H 1022.83 2.55464 -1.5671 0
M  V30 10648 H 1020.39 1.29836 -0.96717 0
M  V30 10649 H 1022.38 4.01605 0.499583 0
M  V30 10650 H 1020.95 3.01043 0.842118 0
M  V30 10651 H 1020.17 3.61649 -1.56857 0
M  V30 10652 H 1021.46 4.83411 -1.58717 0
M  V30 10653 H 1020.86 5.44481 1.53484 0
M  V30 10654 H 1019.41 6.36687 1.39544 0
M  V30 10655 N 1022.85 0.866709 1.31628 0
M  V30 10656 C 1024.26 0.558188 1.49521 0
M  V30 10657 C 1024.46 -0.90844 1.7986 0
M  V30 10658 O 1023.52 -1.6908 1.87531 0
M  V30 10659 C 1024.83 1.45559 2.63122 0
M  V30 10660 C 1026.38 1.45728 2.77006 0
M  V30 10661 C 1026.85 2.34017 3.937 0
M  V30 10662 N 1028.34 2.31879 4.00982 0
M  V30 10663 C 1029.08 2.96915 4.90539 0
M  V30 10664 N 1028.58 3.71109 5.85021 0
M  V30 10665 N 1030.37 2.86241 4.83759 0
M  V30 10666 H 1022.52 1.81574 1.10203 0
M  V30 10667 H 1024.78 0.77621 0.544244 0
M  V30 10668 H 1024.49 2.49904 2.47469 0
M  V30 10669 H 1024.36 1.15174 3.59186 0
M  V30 10670 H 1026.75 0.421419 2.92075 0
M  V30 10671 H 1026.83 1.80134 1.81619 0
M  V30 10672 H 1026.47 3.37678 3.79389 0
M  V30 10673 H 1026.4 1.96937 4.88388 0
M  V30 10674 H 1028.9 1.77948 3.33381 0
M  V30 10675 H 1029.21 4.1787 6.5008 0
M  V30 10676 H 1027.55 3.75217 5.8501 0
M  V30 10677 H 1030.74 2.27819 4.08921 0
M  V30 10678 H 1030.92 3.37206 5.5335 0
M  V30 10679 N 1024.32 -1.44642 0.625825 0
M  V30 10680 C 1025.55 -2.06971 0.133373 0
M  V30 10681 C 1025.97 -1.46421 -1.18078 0
M  V30 10682 O 1025.33 -0.563676 -1.72315 0
M  V30 10683 C 1025.38 -3.6059 0.0265097 0
M  V30 10684 O 1024.48 -3.99615 -1.01889 0
M  V30 10685 H 1023.82 -0.658873 0.0823568 0
M  V30 10686 H 1026.35 -1.85601 0.861002 0
M  V30 10687 H 1026.36 -4.07663 -0.1658 0
M  V30 10688 H 1025.04 -4.04043 0.985986 0
M  V30 10689 H 1023.62 -3.64183 -0.801577 0
M  V30 10690 N 1025.8 -0.366053 -1.5329 0
M  V30 10691 C 1026.73 0.47211 -2.28677 0
M  V30 10692 C 1027.71 1.08353 -1.31125 0
M  V30 10693 O 1028.9 1.10069 -1.59995 0
M  V30 10694 C 1026.03 1.61174 -3.07637 0
M  V30 10695 C 1024.98 1.12755 -4.12881 0
M  V30 10696 C 1024.31 2.35745 -4.79925 0
M  V30 10697 C 1025.61 0.211954 -5.2187 0
M  V30 10698 H 1027.3 -0.156838 -2.98989 0
M  V30 10699 H 1024.85 -0.0768709 -1.43795 0
M  V30 10700 H 1026.8 2.20473 -3.59123 0
M  V30 10701 H 1025.52 2.26793 -2.35016 0
M  V30 10702 H 1024.18 0.557234 -3.6234 0
M  V30 10703 H 1023.83 2.99821 -4.03877 0
M  V30 10704 H 1023.53 2.04019 -5.51044 0
M  V30 10705 H 1025.06 2.95729 -5.34207 0
M  V30 10706 H 1026.47 0.71244 -5.68856 0
M  V30 10707 H 1024.87 -0.0144501 -6.00098 0
M  V30 10708 H 1025.94 -0.745753 -4.79131 0
M  V30 10709 N 1027.28 1.57312 -0.0952337 0
M  V30 10710 C 1028.53 1.94646 0.569284 0
M  V30 10711 C 1028.86 0.977152 1.67825 0
M  V30 10712 O 1028.13 0.0102318 1.94497 0
M  V30 10713 C 1028.42 3.42098 1.12433 0
M  V30 10714 C 1028.27 4.49795 0.0204016 0
M  V30 10715 C 1029.59 3.90866 2.02266 0
M  V30 10716 H 1026.71 0.707779 0.205469 0
M  V30 10717 H 1029.35 1.89274 -0.16597 0
M  V30 10718 H 1027.5 3.46807 1.75092 0
M  V30 10719 H 1029.17 4.57198 -0.613845 0
M  V30 10720 H 1027.41 4.28964 -0.645965 0
M  V30 10721 H 1028.09 5.50166 0.449579 0
M  V30 10722 H 1030.56 3.88311 1.49512 0
M  V30 10723 H 1029.44 4.94604 2.38029 0
M  V30 10724 H 1029.7 3.30167 2.9401 0
M  V30 10725 N 1028.76 -0.17846 1.56586 0
M  V30 10726 C 1029.69 -1.22342 1.98884 0
M  V30 10727 C 1030.67 -1.46564 0.86331 0
M  V30 10728 O 1031.85 -1.58019 1.12887 0
M  V30 10729 C 1028.98 -2.56396 2.34261 0
M  V30 10730 C 1027.94 -2.46756 3.49708 0
M  V30 10731 C 1027.26 -3.85235 3.70807 0
M  V30 10732 C 1028.56 -1.97838 4.83381 0
M  V30 10733 H 1030.26 -0.871848 2.86425 0
M  V30 10734 H 1027.8 -0.417948 1.37801 0
M  V30 10735 H 1029.76 -3.29695 2.62448 0
M  V30 10736 H 1028.48 -2.93327 1.43621 0
M  V30 10737 H 1027.14 -1.75912 3.21637 0
M  V30 10738 H 1026.79 -4.19547 2.7747 0
M  V30 10739 H 1026.49 -3.79655 4.48481 0
M  V30 10740 H 1028.01 -4.60131 4.01387 0
M  V30 10741 H 1029.43 -2.60906 5.10491 0
M  V30 10742 H 1027.82 -2.03223 5.64642 0
M  V30 10743 H 1028.89 -0.932339 4.75852 0
M  V30 10744 N 1030.24 -1.51135 -0.446768 0
M  V30 10745 C 1031.17 -1.67949 -1.55967 0
M  V30 10746 C 1032.18 -0.560337 -1.52853 0
M  V30 10747 O 1033.37 -0.83435 -1.578 0
M  V30 10748 C 1030.47 -1.6703 -2.9488 0
M  V30 10749 C 1029.64 -2.95377 -3.22601 0
M  V30 10750 C 1028.7 -2.86772 -4.4119 0
M  V30 10751 O 1027.73 -3.60722 -4.40304 0
M  V30 10752 N 1028.93 -2.01979 -5.44228 0
M  V30 10753 H 1031.69 -2.63951 -1.41951 0
M  V30 10754 H 1029.26 -1.48903 -0.635569 0
M  V30 10755 H 1031.25 -1.58854 -3.7222 0
M  V30 10756 H 1029.82 -0.786623 -3.02541 0
M  V30 10757 H 1029.04 -3.17494 -2.33647 0
M  V30 10758 H 1030.33 -3.80356 -3.37945 0
M  V30 10759 H 1029.72 -1.41257 -5.4778 0
M  V30 10760 H 1028.28 -1.99689 -6.20457 0
M  V30 10761 N 1031.71 0.701592 -1.41122 0
M  V30 10762 C 1033.13 1.01143 -1.23459 0
M  V30 10763 C 1033.33 2.01144 -0.11968 0
M  V30 10764 O 1032.39 2.47132 0.517889 0
M  V30 10765 C 1033.7 1.54179 -2.58165 0
M  V30 10766 C 1035.25 1.66093 -2.65296 0
M  V30 10767 C 1035.72 2.22532 -4.00304 0
M  V30 10768 N 1037.21 2.299 -4.0212 0
M  V30 10769 C 1037.95 2.74584 -5.0338 0
M  V30 10770 N 1037.44 3.18917 -6.15032 0
M  V30 10771 N 1039.24 2.74094 -4.90743 0
M  V30 10772 H 1031.39 0.0390087 -2.12364 0
M  V30 10773 H 1033.65 0.0798848 -0.944628 0
M  V30 10774 H 1033.36 0.881587 -3.40472 0
M  V30 10775 H 1033.23 2.52488 -2.80231 0
M  V30 10776 H 1035.62 2.31227 -1.83352 0
M  V30 10777 H 1035.7 0.663461 -2.47046 0
M  V30 10778 H 1035.34 1.58016 -4.82694 0
M  V30 10779 H 1035.27 3.2302 -4.15891 0
M  V30 10780 H 1037.76 1.98607 -3.21502 0
M  V30 10781 H 1038.08 3.5162 -6.88174 0
M  V30 10782 H 1036.42 3.1684 -6.18577 0
M  V30 10783 H 1039.61 2.38804 -4.02604 0
M  V30 10784 H 1039.79 3.086 -5.69798 0
M  V30 10785 N 1033.19 1.2685 0.935242 0
M  V30 10786 C 1034.6 1.11569 1.49697 0
M  V30 10787 C 1034.95 -0.301952 1.93863 0
M  V30 10788 O 1034.08 -1.19408 1.80473 0
M  V30 10789 C 1034.67 2.01918 2.72056 0
M  V30 10790 C 1033.23 1.90765 3.24477 0
M  V30 10791 C 1032.38 1.94918 1.97237 0
M  V30 10792 H 1035.33 1.39853 0.750116 0
M  V30 10793 H 1035.35 1.57056 3.46574 0
M  V30 10794 H 1034.86 3.05088 2.39881 0
M  V30 10795 H 1032.96 0.905521 3.61429 0
M  V30 10796 H 1033.08 2.76611 3.91182 0
M  V30 10797 H 1031.44 1.39046 2.13397 0
M  V30 10798 H 1032.22 2.99729 1.67385 0
M  V30 10799 N 1034.67 -1.14067 1.0875 0
M  V30 10800 C 1035.6 -2.18926 0.67852 0
M  V30 10801 C 1036.62 -1.60441 -0.276163 0
M  V30 10802 O 1037.8 -1.78388 -0.0632788 0
M  V30 10803 C 1034.9 -3.38893 -0.0218852 0
M  V30 10804 C 1034.08 -4.26901 0.952582 0
M  V30 10805 C 1033.14 -5.25418 0.286859 0
M  V30 10806 O 1032.16 -5.61512 0.932354 0
M  V30 10807 N 1033.36 -5.72476 -0.961831 0
M  V30 10808 H 1036.13 -2.54629 1.58063 0
M  V30 10809 H 1033.69 -1.29321 0.974042 0
M  V30 10810 H 1035.68 -4.01864 -0.478278 0
M  V30 10811 H 1034.25 -3.01486 -0.826141 0
M  V30 10812 H 1033.47 -3.60812 1.58772 0
M  V30 10813 H 1034.76 -4.82563 1.61279 0
M  V30 10814 H 1034.16 -5.45287 -1.50594 0
M  V30 10815 H 1032.72 -6.37418 -1.36166 0
M  V30 10816 N 1036.15 -0.873678 -1.31166 0
M  V30 10817 C 1037.38 -0.501043 -2.00742 0
M  V30 10818 C 1037.79 0.907477 -1.65561 0
M  V30 10819 O 1037.15 1.59507 -0.886771 0
M  V30 10820 C 1037.2 -0.652877 -3.55556 0
M  V30 10821 O 1036.92 -2.00593 -3.89479 0
M  V30 10822 C 1038.42 -0.281742 -4.42404 0
M  V30 10823 H 1035.64 -0.194829 -0.642092 0
M  V30 10824 H 1038.19 -1.17587 -1.67313 0
M  V30 10825 H 1036.34 -0.0255627 -3.87392 0
M  V30 10826 H 1036.75 -2.01638 -4.84193 0
M  V30 10827 H 1038.23 -0.43892 -5.50252 0
M  V30 10828 H 1038.71 0.779389 -4.32229 0
M  V30 10829 H 1039.31 -0.88491 -4.15992 0
M  V30 10830 N 1037.63 1.44308 -0.633487 0
M  V30 10831 C 1038.87 2.02863 -0.14765 0
M  V30 10832 C 1039.23 1.48956 1.21778 0
M  V30 10833 O 1038.52 0.664997 1.7969 0
M  V30 10834 C 1038.71 3.57316 -0.0773886 0
M  V30 10835 C 1038.54 4.26208 -1.43446 0
M  V30 10836 C 1037.31 4.63087 -2.02184 0
M  V30 10837 C 1039.51 4.56501 -2.36879 0
M  V30 10838 N 1037.49 5.16957 -3.31102 0
M  V30 10839 C 1038.86 5.11479 -3.50413 0
M  V30 10840 C 1040.92 4.38454 -2.35929 0
M  V30 10841 C 1039.62 5.50311 -4.63196 0
M  V30 10842 C 1041.65 4.78336 -3.47777 0
M  V30 10843 C 1041.01 5.3343 -4.60035 0
M  V30 10844 H 1037.11 0.775835 -0.0980038 0
M  V30 10845 H 1039.69 1.75767 -0.837495 0
M  V30 10846 H 1037.86 3.84019 0.581743 0
M  V30 10847 H 1039.6 4.02541 0.417494 0
M  V30 10848 H 1036.35 4.47482 -1.55103 0
M  V30 10849 H 1036.78 5.48366 -3.97019 0
M  V30 10850 H 1041.42 3.9515 -1.50387 0
M  V30 10851 H 1039.14 5.92568 -5.49444 0
M  V30 10852 H 1042.72 4.66084 -3.4822 0
M  V30 10853 H 1041.6 5.63719 -5.45151 0
M  V30 10854 N 1039.1 0.374177 1.53094 0
M  V30 10855 C 1040.07 -0.455999 2.24618 0
M  V30 10856 C 1041.07 -1.00269 1.25709 0
M  V30 10857 O 1042.26 -0.887077 1.49922 0
M  V30 10858 C 1039.39 -1.63822 2.98957 0
M  V30 10859 H 1040.58 0.169986 2.99418 0
M  V30 10860 H 1038.14 0.126015 1.55791 0
M  V30 10861 H 1038.87 -2.30205 2.28421 0
M  V30 10862 H 1038.66 -1.25308 3.71538 0
M  V30 10863 H 1040.15 -2.22633 3.53305 0
M  V30 10864 N 1040.58 -1.57259 0.103575 0
M  V30 10865 C 1041.86 -1.86143 -0.600852 0
M  V30 10866 C 1042.24 -1.00198 -1.85805 0
M  V30 10867 O 1041.59 -0.0766791 -2.28371 0
M  V30 10868 C 1041.8 -3.36978 -0.908108 0
M  V30 10869 C 1043.15 -4.05228 -1.26788 0
M  V30 10870 O 1044.17 -3.41908 -0.998859 0
M  V30 10871 O 1043.03 -5.16971 -1.7721 0
M  V30 10872 H 1040.12 -0.770064 -0.301547 0
M  V30 10873 H 1042.67 -1.69147 0.136914 0
M  V30 10874 H 1041.44 -3.91296 -0.0165615 0
M  V30 10875 H 1041.06 -3.5935 -1.70156 0
M  V30 10876 N 1042.06 0.170153 -1.56679 0
M  V30 10877 C 1043.3 0.893073 -1.83857 0
M  V30 10878 C 1043.66 1.79378 -0.684661 0
M  V30 10879 O 1044.87 2.55439 -0.836926 0
M  V30 10880 C 1043.14 1.66679 -3.16153 0
M  V30 10881 S 1044.7 2.43831 -3.64818 0
M  V30 10882 H 1041.51 0.299091 -0.645031 0
M  V30 10883 H 1044.12 0.154628 -1.94888 0
M  V30 10884 H 1042.82 0.996152 -3.98127 0
M  V30 10885 H 1042.35 2.44658 -3.08068 0
M  V30 10886 H 1044.37 3.68555 -3.32237 0
M  V30 10887 N 1043.54 1.5137 0.438746 0
M  V30 10888 C 1044.78 1.64211 1.19006 0
M  V30 10889 C 1045.12 0.356607 1.90898 0
M  V30 10890 O 1044.39 -0.643722 1.83539 0
M  V30 10891 C 1044.68 2.8445 2.20817 0
M  V30 10892 C 1044.53 4.22972 1.53018 0
M  V30 10893 C 1045.85 3.00207 3.21813 0
M  V30 10894 H 1042.97 0.597628 0.431288 0
M  V30 10895 H 1045.61 1.8385 0.479487 0
M  V30 10896 H 1043.76 2.67836 2.81418 0
M  V30 10897 H 1045.43 4.5125 0.957654 0
M  V30 10898 H 1043.67 4.25736 0.832556 0
M  V30 10899 H 1044.34 5.03094 2.27158 0
M  V30 10900 H 1046.82 3.15522 2.71266 0
M  V30 10901 H 1045.7 3.85904 3.90345 0
M  V30 10902 H 1045.96 2.12216 3.87836 0
M  V30 10903 N 1045.02 -0.694098 1.41492 0
M  V30 10904 C 1046.24 -1.48286 1.44288 0
M  V30 10905 C 1046.66 -1.88737 0.0485783 0
M  V30 10906 O 1046.02 -1.56881 -0.932449 0
M  V30 10907 C 1046.07 -2.74446 2.3529 0
M  V30 10908 O 1045.79 -2.35698 3.69294 0
M  V30 10909 C 1047.29 -3.68175 2.46905 0
M  V30 10910 H 1044.51 -0.45692 0.491391 0
M  V30 10911 H 1047.05 -0.854477 1.85793 0
M  V30 10912 H 1045.21 -3.33518 1.9709 0
M  V30 10913 H 1045.62 -3.17029 4.17843 0
M  V30 10914 H 1047.1 -4.53476 3.14743 0
M  V30 10915 H 1047.57 -4.12763 1.50078 0
M  V30 10916 H 1048.18 -3.15006 2.85747 0
M  V30 10917 N 1046.49 -1.27344 -0.928501 0
M  V30 10918 C 1047.74 -1.14813 -1.67897 0
M  V30 10919 C 1048.1 0.303129 -1.89997 0
M  V30 10920 O 1047.39 1.21844 -1.47867 0
M  V30 10921 C 1047.58 -1.86439 -3.04918 0
M  V30 10922 C 1047.41 -3.38381 -2.96189 0
M  V30 10923 C 1046.18 -4.07698 -2.98514 0
M  V30 10924 C 1048.38 -4.3437 -2.75367 0
M  V30 10925 N 1046.36 -5.46215 -2.80218 0
M  V30 10926 C 1047.73 -5.60149 -2.65768 0
M  V30 10927 C 1049.79 -4.2447 -2.60249 0
M  V30 10928 C 1048.49 -6.77157 -2.42593 0
M  V30 10929 C 1050.52 -5.41198 -2.3845 0
M  V30 10930 C 1049.88 -6.65933 -2.29593 0
M  V30 10931 H 1045.98 -0.47499 -0.621215 0
M  V30 10932 H 1048.56 -1.60802 -1.09776 0
M  V30 10933 H 1046.73 -1.42907 -3.61154 0
M  V30 10934 H 1048.46 -1.6642 -3.68899 0
M  V30 10935 H 1045.22 -3.59158 -3.08711 0
M  V30 10936 H 1045.64 -6.18985 -2.74203 0
M  V30 10937 H 1050.29 -3.28756 -2.65856 0
M  V30 10938 H 1048 -7.72955 -2.35725 0
M  V30 10939 H 1051.59 -5.35417 -2.27639 0
M  V30 10940 H 1050.47 -7.54732 -2.12952 0
M  V30 10941 N 1047.97 1.13488 -1.09353 0
M  V30 10942 C 1048.94 2.17066 -0.735863 0
M  V30 10943 C 1049.94 1.59086 0.234181 0
M  V30 10944 O 1051.13 1.74196 0.012463 0
M  V30 10945 C 1048.26 3.40786 -0.0880975 0
M  V30 10946 H 1049.45 2.50221 -1.65316 0
M  V30 10947 H 1047 1.28304 -0.89263 0
M  V30 10948 H 1047.74 3.1322 0.840462 0
M  V30 10949 H 1047.52 3.8414 -0.786073 0
M  V30 10950 H 1049.01 4.17342 0.146775 0
M  V30 10951 N 1049.45 0.880621 1.30701 0
M  V30 10952 C 1050.69 0.503519 1.98101 0
M  V30 10953 C 1051.06 -0.929075 1.68024 0
M  V30 10954 O 1052.26 -1.41208 2.28722 0
M  V30 10955 C 1050.53 0.765652 3.49102 0
M  V30 10956 S 1052.09 0.490001 4.36056 0
M  V30 10957 H 1048.9 0.187522 0.685825 0
M  V30 10958 H 1051.51 1.13895 1.58897 0
M  V30 10959 H 1050.21 1.80688 3.68484 0
M  V30 10960 H 1049.74 0.117616 3.93224 0
M  V30 10961 H 1051.76 -0.673236 4.91612 0
M  V30 10962 N 1050.93 -1.4397 0.641131 0
M  V30 10963 C 1051.88 -2.2786 -0.079879 0
M  V30 10964 C 1052.86 -1.39227 -0.80651 0
M  V30 10965 O 1054.06 -1.62956 -0.690969 0
M  V30 10966 C 1051.18 -3.26722 -1.05394 0
M  V30 10967 C 1050.27 -4.22842 -0.326411 0
M  V30 10968 N 1050.66 -5.016 0.650464 0
M  V30 10969 C 1048.96 -4.42349 -0.569507 0
M  V30 10970 C 1049.66 -5.71563 1.08121 0
M  V30 10971 N 1048.64 -5.41991 0.417932 0
M  V30 10972 H 1052.44 -2.86163 0.669906 0
M  V30 10973 H 1049.95 -1.55528 0.467433 0
M  V30 10974 H 1051.95 -3.85588 -1.58517 0
M  V30 10975 H 1050.61 -2.69979 -1.80392 0
M  V30 10976 H 1051.62 -5.07581 1.0287 0
M  V30 10977 H 1048.3 -3.96693 -1.30159 0
M  V30 10978 H 1049.69 -6.44805 1.88883 0
M  V30 10979 N 1052.41 -0.382291 -1.52893 0
M  V30 10980 C 1053.36 0.473026 -2.23039 0
M  V30 10981 C 1054.34 1.0353 -1.23168 0
M  V30 10982 O 1055.53 0.962566 -1.48538 0
M  V30 10983 C 1052.66 1.60349 -3.03551 0
M  V30 10984 C 1051.75 1.05329 -4.10812 0
M  V30 10985 N 1052.14 0.22746 -5.05288 0
M  V30 10986 C 1050.44 1.32648 -4.25818 0
M  V30 10987 C 1051.14 -0.0757032 -5.81651 0
M  V30 10988 N 1050.11 0.526387 -5.41045 0
M  V30 10989 H 1053.92 -0.164541 -2.93439 0
M  V30 10990 H 1051.43 -0.191211 -1.6127 0
M  V30 10991 H 1053.43 2.22858 -3.52335 0
M  V30 10992 H 1052.09 2.24394 -2.34685 0
M  V30 10993 H 1053.1 -0.134714 -5.17725 0
M  V30 10994 H 1049.78 1.96849 -3.6818 0
M  V30 10995 H 1051.17 -0.744375 -6.67764 0
M  V30 10996 N 1053.89 1.57202 -0.111913 0
M  V30 10997 C 1055.13 1.96035 0.542393 0
M  V30 10998 C 1055.49 0.993925 1.64739 0
M  V30 10999 O 1054.78 0.0227369 1.91587 0
M  V30 11000 C 1054.97 3.39152 1.12741 0
M  V30 11001 C 1054.8 4.49628 0.0806232 0
M  V30 11002 C 1053.57 5.04095 -0.348737 0
M  V30 11003 C 1055.77 5.09546 -0.697655 0
M  V30 11004 N 1053.75 5.98141 -1.38204 0
M  V30 11005 C 1055.12 5.99468 -1.58234 0
M  V30 11006 C 1057.18 4.92229 -0.749324 0
M  V30 11007 C 1055.88 6.7393 -2.51418 0
M  V30 11008 C 1057.91 5.67366 -1.66884 0
M  V30 11009 C 1057.27 6.56968 -2.54112 0
M  V30 11010 H 1053.37 0.763672 0.168311 0
M  V30 11011 H 1055.95 1.93687 -0.198387 0
M  V30 11012 H 1054.12 3.42161 1.83794 0
M  V30 11013 H 1055.86 3.65125 1.74546 0
M  V30 11014 H 1052.61 4.73581 0.042288 0
M  V30 11015 H 1053.03 6.49868 -1.8974 0
M  V30 11016 H 1057.68 4.22706 -0.0890808 0
M  V30 11017 H 1055.39 7.42704 -3.18459 0
M  V30 11018 H 1058.98 5.55974 -1.71417 0
M  V30 11019 H 1057.86 7.1409 -3.24107 0
M  V30 11020 N 1055.36 -0.161842 1.56767 0
M  V30 11021 C 1056.31 -1.20506 1.93552 0
M  V30 11022 C 1057.3 -1.39317 0.804952 0
M  V30 11023 O 1058.49 -1.41129 1.06825 0
M  V30 11024 C 1055.62 -2.54227 2.30702 0
M  V30 11025 C 1054.7 -2.3907 3.50295 0
M  V30 11026 N 1055.1 -1.93642 4.67265 0
M  V30 11027 C 1053.39 -2.69868 3.55088 0
M  V30 11028 C 1054.09 -1.91175 5.49388 0
M  V30 11029 N 1053.07 -2.33935 4.90689 0
M  V30 11030 H 1056.87 -0.845687 2.8147 0
M  V30 11031 H 1054.39 -0.370034 1.58128 0
M  V30 11032 H 1056.38 -3.29623 2.55254 0
M  V30 11033 H 1055.04 -2.90959 1.44128 0
M  V30 11034 H 1056.05 -1.63834 4.91303 0
M  V30 11035 H 1052.73 -3.10574 2.79016 0
M  V30 11036 H 1054.12 -1.57671 6.53138 0
M  V30 11037 N 1056.84 -1.516 -0.430713 0
M  V30 11038 C 1058.07 -1.68414 -1.20185 0
M  V30 11039 C 1058.48 -0.384297 -1.84847 0
M  V30 11040 O 1057.84 0.637808 -1.70992 0
M  V30 11041 C 1057.89 -2.80451 -2.28099 0
M  V30 11042 O 1057.61 -4.05399 -1.66081 0
M  V30 11043 C 1059.11 -3.0859 -3.18256 0
M  V30 11044 H 1056.33 -0.564982 -0.361989 0
M  V30 11045 H 1058.88 -1.9805 -0.50954 0
M  V30 11046 H 1057.03 -2.53395 -2.93036 0
M  V30 11047 H 1057.45 -4.67671 -2.37453 0
M  V30 11048 H 1058.92 -3.9055 -3.90096 0
M  V30 11049 H 1059.4 -2.21264 -3.79393 0
M  V30 11050 H 1060 -3.37331 -2.59014 0
M  V30 11051 N 1058.32 0.686584 -1.41858 0
M  V30 11052 C 1059.25 1.81202 -1.40352 0
M  V30 11053 C 1060.26 1.5993 -0.304322 0
M  V30 11054 O 1061.45 1.69267 -0.566643 0
M  V30 11055 C 1058.55 3.18116 -1.16856 0
M  V30 11056 C 1057.73 3.66339 -2.38987 0
M  V30 11057 C 1056.79 4.8195 -2.11212 0
M  V30 11058 O 1055.81 4.93102 -2.84323 0
M  V30 11059 N 1057.01 5.69829 -1.10793 0
M  V30 11060 H 1059.78 1.82983 -2.37355 0
M  V30 11061 H 1057.34 0.869244 -1.36586 0
M  V30 11062 H 1059.33 3.93097 -0.962125 0
M  V30 11063 H 1057.9 3.11306 -0.284186 0
M  V30 11064 H 1057.12 2.82166 -2.75274 0
M  V30 11065 H 1058.41 3.95297 -3.2034 0
M  V30 11066 H 1057.81 5.63459 -0.503012 0
M  V30 11067 H 1056.36 6.44671 -0.961379 0
M  V30 11068 N 1059.8 1.27835 0.921735 0
M  V30 11069 C 1061.03 1.17182 1.70153 0
M  V30 11070 C 1061.44 -0.273207 1.87217 0
M  V30 11071 O 1060.78 -1.19729 1.39322 0
M  V30 11072 C 1060.84 1.78969 3.11786 0
M  V30 11073 C 1060.5 3.28179 3.18037 0
M  V30 11074 C 1061.5 4.24729 2.99835 0
M  V30 11075 C 1059.19 3.68995 3.40805 0
M  V30 11076 C 1061.18 5.60071 3.04301 0
M  V30 11077 C 1058.87 5.04465 3.44904 0
M  V30 11078 C 1059.87 5.99813 3.2667 0
M  V30 11079 O 1059.55 7.32813 3.30515 0
M  V30 11080 H 1059.29 0.408079 0.538932 0
M  V30 11081 H 1061.84 1.69326 1.16266 0
M  V30 11082 H 1060.07 1.2131 3.6718 0
M  V30 11083 H 1061.76 1.62946 3.71757 0
M  V30 11084 H 1062.52 3.94533 2.8208 0
M  V30 11085 H 1058.4 2.9525 3.54045 0
M  V30 11086 H 1061.95 6.34471 2.89987 0
M  V30 11087 H 1057.84 5.34315 3.62185 0
M  V30 11088 H 1058.61 7.41338 3.4693 0
M  V30 11089 N 1061.28 -1.12907 1.09954 0
M  V30 11090 C 1062.5 -1.88679 0.861099 0
M  V30 11091 C 1062.93 -1.78853 -0.582499 0
M  V30 11092 O 1062.28 -1.13992 -1.4098 0
M  V30 11093 C 1062.33 -3.36047 1.30785 0
M  V30 11094 O 1061.44 -4.09716 0.469728 0
M  V30 11095 H 1060.78 -0.586447 0.31141 0
M  V30 11096 H 1063.31 -1.42818 1.46507 0
M  V30 11097 H 1063.32 -3.86882 1.29562 0
M  V30 11098 H 1061.99 -3.42516 2.35914 0
M  V30 11099 H 1060.57 -3.6887 0.54674 0
M  V30 11100 N 1062.75 -0.88754 -1.30232 0
M  V30 11101 C 1063.7 -0.345765 -2.30016 0
M  V30 11102 C 1064.7 0.5486 -1.60271 0
M  V30 11103 O 1065.9 0.43275 -1.74721 0
M  V30 11104 H 1062.28 -0.0931623 -0.746207 0
M  V30 11105 H 1064.25 -1.20095 -2.73166 0
M  V30 11106 C 1063 0.422435 -3.45124 0
M  V30 11107 H 1062.32 -0.256516 -3.98976 0
M  V30 11108 H 1063.76 0.766572 -4.17013 0
M  V30 11109 C 1062.22 1.62049 -2.95367 0
M  V30 11110 O 1062.75 2.71985 -2.95613 0
M  V30 11111 N 1060.95 1.45852 -2.51347 0
M  V30 11112 H 1060.5 0.564158 -2.51346 0
M  V30 11113 H 1060.46 2.26148 -2.18413 0
M  V30 11114 N 1064.23 1.43628 -0.648757 0
M  V30 11115 C 1065.18 2.32529 0.057536 0
M  V30 11116 C 1066.17 1.48358 0.817699 0
M  V30 11117 O 1067.38 1.64595 0.728605 0
M  V30 11118 H 1063.76 0.75107 0.037388 0
M  V30 11119 H 1065.73 2.89829 -0.710062 0
M  V30 11120 C 1064.48 3.32605 1.01336 0
M  V30 11121 H 1063.8 3.97395 0.437855 0
M  V30 11122 H 1065.24 3.97453 1.47672 0
M  V30 11123 C 1063.7 2.62865 2.10722 0
M  V30 11124 O 1064.23 2.4408 3.19042 0
M  V30 11125 N 1062.43 2.22312 1.87152 0
M  V30 11126 H 1061.98 2.3779 0.990644 0
M  V30 11127 H 1061.94 1.75979 2.60536 0
M  V30 11128 N 1065.71 0.390394 1.52688 0
M  V30 11129 C 1066.96 -0.192697 2.00777 0
M  V30 11130 C 1067.27 -1.4781 1.28108 0
M  V30 11131 O 1068.48 -2.1413 1.66914 0
M  V30 11132 C 1066.93 -0.393955 3.57737 0
M  V30 11133 C 1066.54 0.878259 4.39307 0
M  V30 11134 C 1068.29 -0.933352 4.14112 0
M  V30 11135 C 1066.19 0.645218 5.8787 0
M  V30 11136 H 1065.12 -0.0757862 0.750182 0
M  V30 11137 H 1067.77 0.512961 1.76184 0
M  V30 11138 H 1066.16 -1.16149 3.78583 0
M  V30 11139 H 1067.33 1.65049 4.30227 0
M  V30 11140 H 1065.65 1.34269 3.94158 0
M  V30 11141 H 1068.24 -1.12343 5.22765 0
M  V30 11142 H 1068.59 -1.90272 3.70273 0
M  V30 11143 H 1069.12 -0.225361 3.97161 0
M  V30 11144 H 1065.86 1.58562 6.36033 0
M  V30 11145 H 1065.38 -0.0880609 5.99735 0
M  V30 11146 H 1067.06 0.280178 6.46393 0
M  V30 11147 N 1067.19 -1.57141 0.120249 0
M  V30 11148 C 1068.6 -1.5784 -0.236335 0
M  V30 11149 C 1068.8 -1.13304 -1.66626 0
M  V30 11150 O 1067.86 -0.821004 -2.3878 0
M  V30 11151 C 1069.17 -3.007 -0.00188211 0
M  V30 11152 C 1070.72 -3.12927 -0.0676838 0
M  V30 11153 C 1071.2 -4.57789 0.139092 0
M  V30 11154 N 1072.69 -4.63122 0.085104 0
M  V30 11155 C 1073.42 -5.72978 0.219983 0
M  V30 11156 N 1072.92 -6.91579 0.411102 0
M  V30 11157 N 1074.71 -5.61874 0.159469 0
M  V30 11158 H 1066.86 -1.84391 1.05422 0
M  V30 11159 H 1069.13 -0.852228 0.415225 0
M  V30 11160 H 1068.83 -3.37575 0.986718 0
M  V30 11161 H 1068.71 -3.70005 -0.733203 0
M  V30 11162 H 1071.09 -2.75909 -1.04681 0
M  V30 11163 H 1071.17 -2.46162 0.695538 0
M  V30 11164 H 1070.82 -4.95506 1.1152 0
M  V30 11165 H 1070.75 -5.22646 -0.644131 0
M  V30 11166 H 1073.24 -3.77854 -0.0590479 0
M  V30 11167 H 1073.55 -7.71149 0.504851 0
M  V30 11168 H 1071.9 -6.9356 0.447091 0
M  V30 11169 H 1075.09 -4.68099 0.0111131 0
M  V30 11170 H 1075.26 -6.47445 0.268028 0
M  V30 11171 N 1068.67 0.153526 -1.5685 0
M  V30 11172 C 1069.6 1.2147 -1.94365 0
M  V30 11173 C 1070.61 1.39532 -0.838726 0
M  V30 11174 O 1071.8 1.39219 -1.11715 0
M  V30 11175 C 1068.9 2.5806 -2.19677 0
M  V30 11176 C 1068.07 2.61062 -3.50949 0
M  V30 11177 C 1067.13 3.79144 -3.64878 0
M  V30 11178 O 1066.16 3.64319 -4.37333 0
M  V30 11179 N 1067.36 4.96333 -3.01054 0
M  V30 11180 H 1070.13 0.895889 -2.85996 0
M  V30 11181 H 1067.69 0.343147 -1.58222 0
M  V30 11182 H 1069.68 3.35553 -2.26243 0
M  V30 11183 H 1068.25 2.8226 -1.34343 0
M  V30 11184 H 1067.47 1.69533 -3.55882 0
M  V30 11185 H 1068.76 2.60094 -4.37297 0
M  V30 11186 H 1068.15 5.1128 -2.42093 0
M  V30 11187 H 1066.71 5.71625 -3.13191 0
M  V30 11188 N 1070.14 1.51827 0.422667 0
M  V30 11189 C 1071.07 1.77152 1.52117 0
M  V30 11190 C 1072.06 0.621895 1.58324 0
M  V30 11191 O 1073.24 0.866118 1.73816 0
M  V30 11192 C 1070.37 1.90991 2.90068 0
M  V30 11193 C 1069.32 3.06516 2.98717 0
M  V30 11194 C 1068.65 3.05559 4.38791 0
M  V30 11195 C 1069.95 4.46223 2.71445 0
M  V30 11196 H 1071.64 2.69135 1.31175 0
M  V30 11197 H 1069.19 1.29507 0.629607 0
M  V30 11198 H 1071.14 2.07291 3.6689 0
M  V30 11199 H 1069.87 0.956688 3.12274 0
M  V30 11200 H 1068.53 2.89945 2.24338 0
M  V30 11201 H 1068.17 2.07985 4.57986 0
M  V30 11202 H 1067.87 3.83144 4.45505 0
M  V30 11203 H 1069.4 3.23971 5.17566 0
M  V30 11204 H 1070.81 4.63069 3.37994 0
M  V30 11205 H 1069.21 5.25623 2.89552 0
M  V30 11206 H 1070.28 4.5525 1.6696 0
M  V30 11207 N 1071.62 -0.679052 1.4222 0
M  V30 11208 C 1072.55 -1.80481 1.48152 0
M  V30 11209 C 1073.53 -1.66698 0.338502 0
M  V30 11210 O 1074.72 -1.86183 0.552228 0
M  V30 11211 C 1071.85 -3.18746 1.37908 0
M  V30 11212 C 1070.8 -3.47258 2.50192 0
M  V30 11213 C 1070.13 -4.85052 2.25008 0
M  V30 11214 C 1071.43 -3.44576 3.92511 0
M  V30 11215 H 1073.12 -1.75774 2.42371 0
M  V30 11216 H 1070.67 -0.844241 1.16656 0
M  V30 11217 H 1072.62 -3.97229 1.40666 0
M  V30 11218 H 1071.35 -3.24119 0.401806 0
M  V30 11219 H 1070 -2.71133 2.46744 0
M  V30 11220 H 1069.65 -4.8707 1.25584 0
M  V30 11221 H 1069.35 -5.05092 3.00259 0
M  V30 11222 H 1070.88 -5.65825 2.29508 0
M  V30 11223 H 1072.29 -4.13036 3.97585 0
M  V30 11224 H 1070.69 -3.76151 4.67579 0
M  V30 11225 H 1071.76 -2.4323 4.19484 0
M  V30 11226 N 1073.1 -1.28322 -0.914942 0
M  V30 11227 C 1074.05 -1.08788 -2.00373 0
M  V30 11228 C 1075.03 -0.0118996 -1.60896 0
M  V30 11229 O 1076.23 -0.231902 -1.75474 0
M  V30 11230 C 1073.36 -0.750508 -3.34996 0
M  V30 11231 C 1072.44 -1.86527 -3.80879 0
M  V30 11232 N 1072.83 -3.10672 -3.99145 0
M  V30 11233 C 1071.13 -1.75485 -4.10026 0
M  V30 11234 C 1071.83 -3.833 -4.37557 0
M  V30 11235 N 1070.81 -3.11141 -4.45749 0
M  V30 11236 H 1074.61 -2.02984 -2.12544 0
M  V30 11237 H 1072.12 -1.19224 -1.1027 0
M  V30 11238 H 1074.12 -0.591644 -4.1268 0
M  V30 11239 H 1072.78 0.183696 -3.2418 0
M  V30 11240 H 1073.79 -3.46295 -3.85097 0
M  V30 11241 H 1070.47 -0.89234 -4.07852 0
M  V30 11242 H 1071.86 -4.90061 -4.59662 0
M  V30 11243 N 1074.58 1.12322 -1.10551 0
M  V30 11244 C 1075.53 2.20166 -0.750317 0
M  V30 11245 C 1076.52 1.67484 0.254066 0
M  V30 11246 O 1077.73 1.79637 0.114309 0
M  V30 11247 H 1074.1 0.717642 -0.22471 0
M  V30 11248 H 1076.07 2.47378 -1.66873 0
M  V30 11249 C 1074.82 3.47126 -0.199651 0
M  V30 11250 H 1074.14 3.88011 -0.963735 0
M  V30 11251 H 1075.58 4.23999 0.0108033 0
M  V30 11252 C 1074.04 3.19526 1.06792 0
M  V30 11253 O 1074.57 3.39368 2.14923 0
M  V30 11254 N 1072.78 2.73324 0.987032 0
M  V30 11255 H 1072.33 2.57378 0.106997 0
M  V30 11256 H 1072.28 2.55234 1.83584 0
M  V30 11257 N 1076.06 0.894434 1.2976 0
M  V30 11258 C 1077.3 0.517669 1.95771 0
M  V30 11259 C 1077.63 -0.935028 1.70551 0
M  V30 11260 O 1076.89 -1.67722 1.00835 0
M  V30 11261 C 1077.19 0.750307 3.49435 0
M  V30 11262 C 1076.85 2.17955 3.94723 0
M  V30 11263 C 1075.51 2.57036 4.068 0
M  V30 11264 C 1077.87 3.11053 4.18205 0
M  V30 11265 C 1075.19 3.88406 4.39724 0
M  V30 11266 C 1077.55 4.41966 4.52602 0
M  V30 11267 C 1076.21 4.80927 4.62888 0
M  V30 11268 H 1075.48 0.189428 0.716378 0
M  V30 11269 H 1078.13 1.13209 1.54454 0
M  V30 11270 H 1076.43 0.0529242 3.91764 0
M  V30 11271 H 1078.13 0.438251 3.98598 0
M  V30 11272 H 1074.72 1.86622 3.85837 0
M  V30 11273 H 1078.9 2.82076 4.08347 0
M  V30 11274 H 1074.16 4.18321 4.4589 0
M  V30 11275 H 1078.33 5.14134 4.69722 0
M  V30 11276 H 1075.96 5.82759 4.88156 0
M  V30 11277 N 1077.53 -1.43282 0.656365 0
M  V30 11278 C 1078.95 -1.85012 0.250475 0
M  V30 11279 C 1079.3 -1.54944 -1.20361 0
M  V30 11280 O 1078.42 -0.999983 -1.9191 0
M  V30 11281 C 1079.02 -3.35827 0.447815 0
M  V30 11282 C 1077.58 -3.76277 0.0962151 0
M  V30 11283 C 1076.72 -2.66988 0.749168 0
M  V30 11284 H 1079.67 -1.3339 0.85982 0
M  V30 11285 H 1079.69 -3.7927 -0.305726 0
M  V30 11286 H 1079.21 -3.5768 1.5062 0
M  V30 11287 H 1077.31 -3.60035 -0.959449 0
M  V30 11288 H 1077.42 -4.76227 0.523875 0
M  V30 11289 H 1075.78 -2.54048 0.18212 0
M  V30 11290 H 1076.57 -2.91669 1.81064 0
M  V30 11291 N 1079.01 -0.398486 -1.52479 0
M  V30 11292 C 1080.42 0.0735015 -1.86555 0
M  V30 11293 C 1080.78 1.45361 -1.31775 0
M  V30 11294 O 1079.9 2.0632 -0.652759 0
M  V30 11295 C 1080.5 0.140152 -3.3851 0
M  V30 11296 C 1079.05 0.556451 -3.72264 0
M  V30 11297 C 1078.2 -0.275792 -2.75925 0
M  V30 11298 H 1081.15 -0.615991 -1.46257 0
M  V30 11299 H 1081.17 0.957507 -3.68255 0
M  V30 11300 H 1080.69 -0.864442 -3.7835 0
M  V30 11301 H 1078.79 1.56808 -3.37997 0
M  V30 11302 H 1078.9 0.308227 -4.78107 0
M  V30 11303 H 1077.26 0.260304 -2.53366 0
M  V30 11304 H 1078.05 -1.27854 -3.18604 0
M  V30 11305 N 1080.49 1.57075 -0.12858 0
M  V30 11306 C 1081.77 1.87075 0.571162 0
M  V30 11307 C 1082.15 1.03141 1.84188 0
M  V30 11308 O 1081.5 0.113001 2.2822 0
M  V30 11309 C 1081.71 3.3838 0.854383 0
M  V30 11310 C 1083.05 4.07194 1.20326 0
M  V30 11311 O 1084.08 3.43454 0.944338 0
M  V30 11312 O 1082.94 5.19725 1.68963 0
M  V30 11313 H 1080.03 0.774764 0.289258 0
M  V30 11314 H 1082.58 1.68908 -0.163806 0
M  V30 11315 H 1081.35 3.91273 -0.0456925 0
M  V30 11316 H 1080.97 3.62012 1.64418 0
M  V30 11317 N 1081.97 -0.145205 1.5693 0
M  V30 11318 C 1082.9 -1.20438 1.95006 0
M  V30 11319 C 1083.91 -1.39085 0.846114 0
M  V30 11320 O 1085.1 -1.38625 1.12452 0
M  V30 11321 C 1082.2 -2.56892 2.21043 0
M  V30 11322 C 1081.38 -2.59197 3.52329 0
M  V30 11323 C 1080.44 -3.77204 3.66884 0
M  V30 11324 O 1079.46 -3.61995 4.39259 0
M  V30 11325 N 1080.66 -4.9473 3.03682 0
M  V30 11326 H 1083.43 -0.880709 2.86467 0
M  V30 11327 H 1080.99 -0.334751 1.58401 0
M  V30 11328 H 1082.98 -3.34349 2.2802 0
M  V30 11329 H 1081.55 -2.81544 1.35838 0
M  V30 11330 H 1080.77 -1.67644 3.56776 0
M  V30 11331 H 1082.06 -2.57771 4.3867 0
M  V30 11332 H 1081.46 -5.09989 2.44801 0
M  V30 11333 H 1080.01 -5.69956 3.16218 0
M  V30 11334 N 1083.45 -1.52049 -0.414609 0
M  V30 11335 C 1084.38 -1.77956 -1.51175 0
M  V30 11336 C 1085.36 -0.630282 -1.57992 0
M  V30 11337 O 1086.54 -0.875324 -1.73354 0
M  V30 11338 C 1083.67 -1.92527 -2.89051 0
M  V30 11339 C 1082.63 -3.08096 -2.97087 0
M  V30 11340 C 1081.95 -3.07882 -4.37164 0
M  V30 11341 C 1083.25 -4.47656 -2.69075 0
M  V30 11342 H 1084.95 -2.69827 -1.29746 0
M  V30 11343 H 1082.49 -1.29839 -0.62273 0
M  V30 11344 H 1084.45 -2.09234 -3.65786 0
M  V30 11345 H 1083.17 -0.973235 -3.11762 0
M  V30 11346 H 1081.83 -2.91131 -2.22797 0
M  V30 11347 H 1081.48 -2.10411 -4.56877 0
M  V30 11348 H 1081.18 -3.85501 -4.43467 0
M  V30 11349 H 1082.7 -3.26712 -5.15841 0
M  V30 11350 H 1084.12 -4.64855 -3.35534 0
M  V30 11351 H 1082.51 -5.27151 -2.8676 0
M  V30 11352 H 1083.58 -4.56129 -1.64544 0
M  V30 11353 N 1084.93 0.6715 -1.42579 0
M  V30 11354 C 1086.15 1.45972 -1.46628 0
M  V30 11355 C 1086.57 1.88636 -0.0785986 0
M  V30 11356 O 1085.93 1.58345 0.907372 0
M  V30 11357 C 1085.98 2.70668 -2.39627 0
M  V30 11358 O 1085.7 2.29793 -3.72997 0
M  V30 11359 C 1087.2 3.64201 -2.52731 0
M  V30 11360 H 1084.42 0.449044 -0.498598 0
M  V30 11361 H 1086.96 0.824811 -1.87129 0
M  V30 11362 H 1085.12 3.3034 -2.02371 0
M  V30 11363 H 1085.53 3.10341 -4.22834 0
M  V30 11364 H 1087.01 4.48412 -3.21918 0
M  V30 11365 H 1087.48 4.10323 -1.56626 0
M  V30 11366 H 1088.09 3.1042 -2.90722 0
M  V30 11367 N 1086.4 1.28806 0.908124 0
M  V30 11368 C 1087.63 1.19271 1.69674 0
M  V30 11369 C 1088.05 -0.244403 1.86505 0
M  V30 11370 O 1087.41 -1.17668 1.37927 0
M  V30 11371 C 1087.46 1.9023 3.06341 0
M  V30 11372 O 1086.56 1.2136 3.94139 0
M  V30 11373 H 1085.9 0.413738 0.519343 0
M  V30 11374 H 1088.43 1.70227 1.13508 0
M  V30 11375 H 1088.44 1.98356 3.56537 0
M  V30 11376 H 1087.12 2.94762 2.93408 0
M  V30 11377 H 1085.7 1.21435 3.52573 0
M  V30 11378 N 1087.88 -1.11734 1.11145 0
M  V30 11379 C 1089.11 -1.87755 0.881062 0
M  V30 11380 C 1089.53 -1.79461 -0.563496 0
M  V30 11381 O 1088.89 -1.15481 -1.39763 0
M  V30 11382 C 1088.94 -3.34641 1.34342 0
M  V30 11383 O 1088.04 -4.09195 0.513157 0
M  V30 11384 H 1087.38 -0.583111 0.317613 0
M  V30 11385 H 1089.91 -1.41256 1.48013 0
M  V30 11386 H 1089.92 -3.85486 1.33658 0
M  V30 11387 H 1088.6 -3.39994 2.39534 0
M  V30 11388 H 1087.17 -3.68269 0.585833 0
M  V30 11389 N 1089.36 -0.901303 -1.29284 0
M  V30 11390 C 1090.61 -0.527 -1.95108 0
M  V30 11391 C 1090.93 0.930065 -1.71391 0
M  V30 11392 O 1090.2 1.65601 -1.04658 0
M  V30 11393 H 1088.78 -0.191903 -0.721929 0
M  V30 11394 H 1091.44 -1.14795 -1.57506 0
M  V30 11395 H 1090.54 -0.710945 -3.03895 0
M  V30 11396 N 1090.84 1.42931 -0.663954 0
M  V30 11397 C 1091.8 2.29197 0.0117626 0
M  V30 11398 C 1092.8 1.42767 0.739875 0
M  V30 11399 O 1093.99 1.64278 0.579509 0
M  V30 11400 C 1091.12 3.2505 1.02738 0
M  V30 11401 H 1092.32 2.90438 -0.747391 0
M  V30 11402 H 1089.87 1.5039 -0.425733 0
M  V30 11403 H 1090.6 2.68726 1.8154 0
M  V30 11404 H 1090.39 3.88785 0.508809 0
M  V30 11405 H 1091.88 3.89771 1.49893 0
M  V30 11406 N 1092.32 0.406567 1.52266 0
M  V30 11407 C 1093.73 -0.063607 1.86592 0
M  V30 11408 C 1094.08 -1.4466 1.32544 0
M  V30 11409 O 1093.2 -2.05971 0.663692 0
M  V30 11410 C 1093.8 -0.122198 3.3858 0
M  V30 11411 C 1092.36 -0.536701 3.72554 0
M  V30 11412 C 1091.5 0.290422 2.75775 0
M  V30 11413 H 1094.45 0.623738 1.45929 0
M  V30 11414 H 1094.48 -0.937964 3.68758 0
M  V30 11415 H 1093.99 0.884495 3.77887 0
M  V30 11416 H 1092.09 -1.55013 3.38824 0
M  V30 11417 H 1092.2 -0.282867 4.78264 0
M  V30 11418 H 1090.57 -0.246864 2.53501 0
M  V30 11419 H 1091.35 1.29541 3.17921 0
M  V30 11420 N 1093.79 -1.57004 0.136909 0
M  V30 11421 C 1095.04 -1.95797 -0.516711 0
M  V30 11422 C 1095.37 -1.02123 -1.65533 0
M  V30 11423 O 1094.62 -0.0484835 -1.9564 0
M  V30 11424 C 1094.92 -3.40903 -1.07331 0
M  V30 11425 C 1094.59 -4.50867 -0.0541941 0
M  V30 11426 C 1093.25 -4.80669 0.225988 0
M  V30 11427 C 1095.6 -5.17264 0.639361 0
M  V30 11428 C 1092.93 -5.74177 1.2057 0
M  V30 11429 C 1095.28 -6.11827 1.60783 0
M  V30 11430 C 1093.95 -6.40012 1.89581 0
M  V30 11431 H 1093.22 -0.716471 -0.189078 0
M  V30 11432 H 1095.86 -1.90213 0.221605 0
M  V30 11433 H 1094.17 -3.43268 -1.88876 0
M  V30 11434 H 1095.87 -3.6824 -1.58745 0
M  V30 11435 H 1092.46 -4.27666 -0.282754 0
M  V30 11436 H 1096.64 -4.9438 0.436085 0
M  V30 11437 H 1091.9 -5.94312 1.43538 0
M  V30 11438 H 1096.07 -6.62354 2.15081 0
M  V30 11439 H 1093.7 -7.12274 2.65649 0
M  V30 11440 N 1095.27 0.136881 -1.57004 0
M  V30 11441 C 1096.52 0.844147 -1.85056 0
M  V30 11442 C 1096.87 1.78328 -0.722278 0
M  V30 11443 O 1096.17 1.89557 0.279059 0
M  V30 11444 C 1096.36 1.64711 -3.17183 0
M  V30 11445 C 1096.19 0.787229 -4.42756 0
M  V30 11446 C 1094.96 0.448938 -5.03302 0
M  V30 11447 C 1097.16 0.112947 -5.14176 0
M  V30 11448 N 1095.14 -0.423481 -6.12438 0
M  V30 11449 C 1096.51 -0.619195 -6.169 0
M  V30 11450 C 1098.57 0.0346687 -4.97888 0
M  V30 11451 C 1097.27 -1.42224 -7.05099 0
M  V30 11452 C 1099.29 -0.755143 -5.86559 0
M  V30 11453 C 1098.66 -1.47553 -6.88772 0
M  V30 11454 H 1094.76 0.286398 -0.727668 0
M  V30 11455 H 1097.34 0.108903 -1.94395 0
M  V30 11456 H 1095.51 2.35352 -3.08972 0
M  V30 11457 H 1097.24 2.29833 -3.33105 0
M  V30 11458 H 1094 0.787068 -4.67014 0
M  V30 11459 H 1094.42 -0.851013 -6.7163 0
M  V30 11460 H 1099.06 0.577271 -4.18841 0
M  V30 11461 H 1096.78 -1.97606 -7.83567 0
M  V30 11462 H 1100.37 -0.817835 -5.76023 0
M  V30 11463 H 1099.25 -2.07687 -7.56198 0
M  V30 11464 N 1096.75 1.52266 0.40654 0
M  V30 11465 C 1097.98 1.70598 1.17945 0
M  V30 11466 C 1098.4 0.415793 1.83447 0
M  V30 11467 O 1097.76 -0.626968 1.70114 0
M  V30 11468 C 1097.81 2.84449 2.21633 0
M  V30 11469 O 1096.91 2.50199 3.27833 0
M  V30 11470 H 1096.25 0.567837 0.344177 0
M  V30 11471 H 1098.78 1.98981 0.476211 0
M  V30 11472 H 1098.79 3.09436 2.65919 0
M  V30 11473 H 1097.47 3.78055 1.73341 0
M  V30 11474 H 1096.04 2.35892 2.88807 0
M  V30 11475 N 1098.23 -0.663929 1.42933 0
M  V30 11476 C 1099.48 -1.42111 1.43697 0
M  V30 11477 C 1099.8 -1.94913 0.0583858 0
M  V30 11478 O 1099.07 -1.73757 -0.904719 0
M  V30 11479 H 1097.65 -0.527391 0.529026 0
M  V30 11480 H 1100.31 -0.783766 1.78446 0
M  V30 11481 H 1099.41 -2.26877 2.1432 0
M  V30 11482 N 1099.71 -1.29285 -0.901281 0
M  V30 11483 C 1101.12 -1.15499 -1.46686 0
M  V30 11484 C 1101.47 0.250446 -1.94595 0
M  V30 11485 O 1100.59 1.14581 -1.83576 0
M  V30 11486 C 1101.19 -2.0906 -2.66607 0
M  V30 11487 C 1099.75 -1.99301 -3.19306 0
M  V30 11488 C 1098.89 -2.00079 -1.91999 0
M  V30 11489 H 1101.85 -1.41793 -0.712773 0
M  V30 11490 H 1101.87 -1.6619 -3.42288 0
M  V30 11491 H 1101.38 -3.11341 -2.31707 0
M  V30 11492 H 1099.48 -1.00103 -3.58901 0
M  V30 11493 H 1099.59 -2.86885 -3.8371 0
M  V30 11494 H 1097.96 -1.44655 -2.09636 0
M  V30 11495 H 1098.74 -3.04061 -1.59379 0
M  V30 11496 N 1101.18 1.11143 -1.11736 0
M  V30 11497 C 1102.13 2.17274 -0.778513 0
M  V30 11498 C 1103.1 1.64186 0.251405 0
M  V30 11499 O 1104.29 1.90373 0.127629 0
M  V30 11500 C 1101.43 3.44324 -0.231246 0
M  V30 11501 C 1100.54 4.114 -1.31809 0
M  V30 11502 C 1099.67 5.26146 -0.73104 0
M  V30 11503 C 1098.71 5.85112 -1.79752 0
M  V30 11504 N 1097.85 6.91247 -1.22973 0
M  V30 11505 H 1102.69 2.45603 -1.68769 0
M  V30 11506 H 1100.23 1.20565 -0.842759 0
M  V30 11507 H 1102.19 4.1707 0.104045 0
M  V30 11508 H 1100.82 3.16369 0.641119 0
M  V30 11509 H 1099.87 3.36697 -1.77029 0
M  V30 11510 H 1101.18 4.51278 -2.12485 0
M  V30 11511 H 1100.33 6.05713 -0.345987 0
M  V30 11512 H 1099.07 4.87583 0.107 0
M  V30 11513 H 1098.08 5.0422 -2.19185 0
M  V30 11514 H 1099.3 6.25741 -2.63865 0
M  V30 11515 H 1097.25 6.54696 -0.41339 0
M  V30 11516 H 1097.17 7.29796 -1.97316 0
M  V30 11517 H 1098.43 7.74611 -0.87167 0
M  V30 11518 N 1102.66 0.908147 1.28804 0
M  V30 11519 C 1104.08 0.605474 1.47669 0
M  V30 11520 C 1104.28 -0.850759 1.82659 0
M  V30 11521 O 1103.33 -1.63029 1.92816 0
M  V30 11522 C 1104.65 1.53856 2.58358 0
M  V30 11523 C 1106.2 1.54467 2.7223 0
M  V30 11524 C 1106.67 2.46424 3.86056 0
M  V30 11525 N 1108.16 2.44519 3.93402 0
M  V30 11526 C 1108.9 3.12371 4.80845 0
M  V30 11527 N 1108.39 3.89533 5.72919 0
M  V30 11528 N 1110.19 3.01486 4.74407 0
M  V30 11529 H 1102.34 1.84988 1.04371 0
M  V30 11530 H 1104.6 0.793132 0.519274 0
M  V30 11531 H 1104.31 2.57651 2.39393 0
M  V30 11532 H 1104.18 1.26543 3.5534 0
M  V30 11533 H 1106.57 0.514127 2.90587 0
M  V30 11534 H 1106.65 1.85821 1.75796 0
M  V30 11535 H 1106.29 3.49577 3.68454 0
M  V30 11536 H 1106.22 2.12375 4.81876 0
M  V30 11537 H 1108.71 1.88464 3.27551 0
M  V30 11538 H 1109.03 4.3834 6.36457 0
M  V30 11539 H 1107.37 3.93639 5.72777 0
M  V30 11540 H 1110.56 2.40713 4.01466 0
M  V30 11541 H 1110.73 3.5464 5.42342 0
M  V30 11542 N 1104.14 -1.42577 0.671525 0
M  V30 11543 C 1105.38 -2.03455 0.196271 0
M  V30 11544 C 1105.74 -1.51934 -1.17389 0
M  V30 11545 O 1106.95 -2.04577 -1.74361 0
M  V30 11546 C 1105.22 -3.56687 0.225624 0
M  V30 11547 S 1106.78 -4.38434 -0.179107 0
M  V30 11548 H 1103.59 -0.706371 0.0809995 0
M  V30 11549 H 1106.2 -1.74375 0.883948 0
M  V30 11550 H 1104.9 -3.91684 1.22524 0
M  V30 11551 H 1104.43 -3.90436 -0.481994 0
M  V30 11552 H 1106.45 -4.75646 -1.41332 0
M  V30 11553 N 1105.62 -0.414636 -1.52048 0
M  V30 11554 C 1107.03 0.0537107 -1.86623 0
M  V30 11555 C 1107.38 1.43955 -1.3331 0
M  V30 11556 O 1106.51 2.05616 -0.674606 0
M  V30 11557 C 1107.1 0.104241 -3.3864 0
M  V30 11558 C 1105.66 0.516936 -3.72833 0
M  V30 11559 C 1104.81 -0.305042 -2.75617 0
M  V30 11560 H 1107.76 -0.631469 -1.45596 0
M  V30 11561 H 1107.78 0.918395 -3.6925 0
M  V30 11562 H 1107.29 -0.904523 -3.77412 0
M  V30 11563 H 1105.39 1.53214 -3.39641 0
M  V30 11564 H 1105.5 0.2575 -4.78408 0
M  V30 11565 H 1103.87 0.233416 -2.53628 0
M  V30 11566 H 1104.65 -1.31226 -3.1723 0
M  V30 11567 N 1107.1 1.56929 -0.145233 0
M  V30 11568 C 1108.05 2.13246 0.806846 0
M  V30 11569 C 1109.03 1.05984 1.21063 0
M  V30 11570 O 1110.22 1.32165 1.17734 0
M  V30 11571 C 1107.35 2.75622 2.04663 0
M  V30 11572 C 1106.44 3.90006 1.66603 0
M  V30 11573 N 1106.83 4.95946 0.993545 0
M  V30 11574 C 1105.13 4.0068 1.95886 0
M  V30 11575 C 1105.83 5.76032 0.810087 0
M  V30 11576 N 1104.8 5.26739 1.34339 0
M  V30 11577 H 1108.61 2.92527 0.283806 0
M  V30 11578 H 1106.12 1.62302 0.0563676 0
M  V30 11579 H 1108.12 3.14329 2.73867 0
M  V30 11580 H 1106.78 1.97815 2.57487 0
M  V30 11581 H 1107.79 5.13748 0.654508 0
M  V30 11582 H 1104.46 3.33946 2.50572 0
M  V30 11583 H 1105.85 6.71315 0.280209 0
M  V30 11584 N 1108.58 -0.128553 1.57075 0
M  V30 11585 C 1109.99 -0.686713 1.73612 0
M  V30 11586 C 1110.34 -1.80778 0.762478 0
M  V30 11587 O 1109.46 -2.16297 -0.0667779 0
M  V30 11588 C 1110.06 -1.25246 3.148 0
M  V30 11589 C 1108.62 -1.757 3.32876 0
M  V30 11590 C 1107.76 -0.652844 2.69506 0
M  V30 11591 H 1110.71 0.0972859 1.58402 0
M  V30 11592 H 1110.74 -2.1222 3.15821 0
M  V30 11593 H 1110.25 -0.436308 3.8564 0
M  V30 11594 H 1108.35 -2.59824 2.67063 0
M  V30 11595 H 1108.46 -1.87302 4.4097 0
M  V30 11596 H 1106.83 -1.08408 2.30477 0
M  V30 11597 H 1107.61 0.15217 3.42963 0
M  V30 11598 N 1110.05 -1.5248 -0.398459 0
M  V30 11599 C 1110.98 -1.79549 -1.49279 0
M  V30 11600 C 1111.96 -0.647004 -1.57315 0
M  V30 11601 O 1113.15 -0.893661 -1.72416 0
M  V30 11602 C 1110.28 -1.95582 -2.86993 0
M  V30 11603 C 1109.23 -3.1123 -2.93803 0
M  V30 11604 C 1108.56 -3.12501 -4.33874 0
M  V30 11605 C 1109.86 -4.50485 -2.64312 0
M  V30 11606 H 1111.55 -2.71187 -1.26877 0
M  V30 11607 H 1109.1 -1.30492 -0.608924 0
M  V30 11608 H 1111.05 -2.13102 -3.63546 0
M  V30 11609 H 1109.78 -1.00625 -3.10712 0
M  V30 11610 H 1108.44 -2.93477 -2.19697 0
M  V30 11611 H 1108.08 -2.15245 -4.54619 0
M  V30 11612 H 1107.78 -3.90183 -4.39353 0
M  V30 11613 H 1109.31 -3.32164 -5.12347 0
M  V30 11614 H 1110.72 -4.68387 -3.30585 0
M  V30 11615 H 1109.12 -5.30163 -2.81153 0
M  V30 11616 H 1110.19 -4.57848 -1.59696 0
M  V30 11617 N 1111.53 0.65634 -1.43283 0
M  V30 11618 C 1112.76 1.44408 -1.48168 0
M  V30 11619 C 1113.17 1.88542 -0.0986016 0
M  V30 11620 O 1112.53 1.59298 0.890527 0
M  V30 11621 C 1112.58 2.68111 -2.42484 0
M  V30 11622 O 1112.3 2.25824 -3.75413 0
M  V30 11623 C 1113.8 3.61499 -2.56579 0
M  V30 11624 H 1111.02 0.443731 -0.503333 0
M  V30 11625 H 1113.57 0.804917 -1.87993 0
M  V30 11626 H 1111.72 3.28175 -2.05863 0
M  V30 11627 H 1112.14 3.05839 -4.26102 0
M  V30 11628 H 1113.61 4.44972 -3.26655 0
M  V30 11629 H 1114.09 4.08639 -1.60969 0
M  V30 11630 H 1114.69 3.07319 -2.93998 0
M  V30 11631 N 1113.01 1.29761 0.894412 0
M  V30 11632 C 1114.26 1.18039 1.64539 0
M  V30 11633 C 1114.58 -0.26697 1.92659 0
M  V30 11634 O 1113.84 -1.20865 1.53916 0
M  V30 11635 C 1114.14 1.94458 2.99868 0
M  V30 11636 C 1113.8 3.44143 2.91336 0
M  V30 11637 C 1112.47 3.84963 2.88716 0
M  V30 11638 C 1114.82 4.39503 2.80154 0
M  V30 11639 C 1112.15 5.19451 2.72741 0
M  V30 11640 C 1114.5 5.74088 2.65718 0
M  V30 11641 C 1113.16 6.14159 2.61467 0
M  V30 11642 H 1112.43 0.431936 0.60209 0
M  V30 11643 H 1115.08 1.60758 1.04063 0
M  V30 11644 H 1113.38 1.44346 3.64241 0
M  V30 11645 H 1115.08 1.82788 3.56917 0
M  V30 11646 H 1111.67 3.11699 2.9418 0
M  V30 11647 H 1115.86 4.08915 2.81251 0
M  V30 11648 H 1111.11 5.49602 2.67858 0
M  V30 11649 H 1115.29 6.47625 2.56038 0
M  V30 11650 H 1112.91 7.18317 2.48847 0
M  V30 11651 N 1114.49 -1.10549 1.12324 0
M  V30 11652 C 1115.76 -1.78968 0.789287 0
M  V30 11653 C 1116.14 -1.984 -0.721156 0
M  V30 11654 O 1115.49 -1.5761 -1.65443 0
M  V30 11655 C 1115.7 -3.12044 1.563 0
M  V30 11656 C 1117.05 -3.86939 1.74825 0
M  V30 11657 O 1118.07 -3.21761 1.52802 0
M  V30 11658 O 1116.93 -5.0392 2.11488 0
M  V30 11659 H 1114.03 -0.775617 0.286962 0
M  V30 11660 H 1116.57 -1.17209 1.2272 0
M  V30 11661 H 1115.35 -2.93313 2.59005 0
M  V30 11662 H 1114.97 -3.81521 1.11926 0
M  V30 11663 N 1115.97 -0.914965 -1.28321 0
M  V30 11664 C 1117.21 -0.549562 -1.95212 0
M  V30 11665 C 1117.54 0.904658 -1.71842 0
M  V30 11666 O 1116.82 1.64354 -1.04009 0
M  V30 11667 C 1117.1 -0.860927 -3.49657 0
M  V30 11668 C 1116.96 -2.36797 -3.82423 0
M  V30 11669 C 1118.27 -0.357926 -4.38642 0
M  V30 11670 H 1115.39 -0.201136 -0.709023 0
M  V30 11671 H 1118.04 -1.14443 -1.51667 0
M  V30 11672 H 1116.19 -0.354665 -3.86878 0
M  V30 11673 H 1117.86 -2.94494 -3.55065 0
M  V30 11674 H 1116.1 -2.82245 -3.29424 0
M  V30 11675 H 1116.77 -2.53637 -4.90278 0
M  V30 11676 H 1119.25 -0.791636 -4.085 0
M  V30 11677 H 1118.12 -0.604855 -5.45557 0
M  V30 11678 H 1118.38 0.741775 -4.35833 0
M  V30 11679 N 1117.44 1.42219 -0.679077 0
M  V30 11680 C 1118.39 2.32599 0.00820028 0
M  V30 11681 C 1119.39 1.50059 0.786046 0
M  V30 11682 O 1120.59 1.66103 0.693528 0
M  V30 11683 H 1116.97 0.751694 0.0214483 0
M  V30 11684 H 1118.94 2.88257 -0.77138 0
M  V30 11685 C 1117.69 3.3468 0.942581 0
M  V30 11686 H 1117.01 3.98234 0.353463 0
M  V30 11687 H 1118.45 4.00496 1.39208 0
M  V30 11688 C 1116.91 2.67275 2.05099 0
M  V30 11689 O 1117.44 2.50793 3.13793 0
M  V30 11690 N 1115.64 2.26232 1.82394 0
M  V30 11691 H 1115.19 2.39838 0.939983 0
M  V30 11692 H 1115.15 1.81465 2.56744 0
M  V30 11693 N 1118.92 0.422693 1.51826 0
M  V30 11694 C 1119.87 -0.41063 2.28947 0
M  V30 11695 C 1120.86 -1.03389 1.34191 0
M  V30 11696 O 1122.07 -0.970533 1.51594 0
M  V30 11697 H 1118.44 -0.151219 0.736639 0
M  V30 11698 H 1120.42 0.260859 2.97258 0
M  V30 11699 C 1119.16 -1.50758 3.13317 0
M  V30 11700 H 1118.49 -1.03734 3.86108 0
M  V30 11701 H 1119.93 -2.0642 3.7036 0
M  V30 11702 C 1118.39 -2.48261 2.27746 0
M  V30 11703 O 1118.92 -3.52462 1.92701 0
M  V30 11704 N 1117.12 -2.18795 1.91251 0
M  V30 11705 H 1116.67 -1.34088 2.1995 0
M  V30 11706 H 1116.63 -2.84276 1.34293 0
M  V30 11707 N 1120.4 -1.5685 0.153553 0
M  V30 11708 C 1121.81 -1.83074 -0.36618 0
M  V30 11709 C 1122.16 -1.07257 -1.64288 0
M  V30 11710 O 1121.29 -0.319925 -2.14022 0
M  V30 11711 C 1121.88 -3.32086 -0.671142 0
M  V30 11712 C 1120.44 -3.58868 -1.13537 0
M  V30 11713 C 1119.59 -2.76827 -0.161887 0
M  V30 11714 H 1122.54 -1.54129 0.378139 0
M  V30 11715 H 1122.56 -3.48598 -1.52512 0
M  V30 11716 H 1122.07 -3.8724 0.258234 0
M  V30 11717 H 1120.17 -3.09107 -2.08047 0
M  V30 11718 H 1120.29 -4.67299 -1.05682 0
M  V30 11719 H 1118.65 -2.46112 -0.6558 0
M  V30 11720 H 1119.43 -3.34755 0.761195 0
M  V30 11721 N 1121.88 0.120221 -1.57141 0
M  V30 11722 C 1122.81 1.14876 -2.03287 0
M  V30 11723 C 1123.79 1.43259 -0.917112 0
M  V30 11724 O 1124.97 1.53721 -1.18674 0
M  V30 11725 C 1122.1 2.47525 -2.43616 0
M  V30 11726 C 1121.06 2.33607 -3.58625 0
M  V30 11727 C 1120.38 3.71207 -3.84849 0
M  V30 11728 C 1121.68 1.79761 -4.90391 0
M  V30 11729 H 1123.38 0.764943 -2.89463 0
M  V30 11730 H 1120.92 0.366516 -1.39258 0
M  V30 11731 H 1122.88 3.19728 -2.74504 0
M  V30 11732 H 1121.6 2.87794 -1.54409 0
M  V30 11733 H 1120.26 1.63853 -3.27945 0
M  V30 11734 H 1119.91 4.0896 -2.9285 0
M  V30 11735 H 1119.61 3.62749 -4.62263 0
M  V30 11736 H 1121.13 4.44917 -4.18188 0
M  V30 11737 H 1122.55 2.4178 -5.19822 0
M  V30 11738 H 1120.94 1.82126 -5.71795 0
M  V30 11739 H 1122.01 0.755087 -4.78985 0
M  V30 11740 N 1123.36 1.52689 0.390367 0
M  V30 11741 C 1124.31 1.73751 1.4763 0
M  V30 11742 C 1125.29 0.591572 1.4963 0
M  V30 11743 O 1126.48 0.849354 1.5529 0
M  V30 11744 C 1123.61 1.90855 2.85358 0
M  V30 11745 C 1122.7 3.11377 2.87933 0
M  V30 11746 N 1123.09 4.33751 2.6018 0
M  V30 11747 C 1121.39 3.11594 3.19101 0
M  V30 11748 C 1122.09 5.15346 2.69803 0
M  V30 11749 N 1121.06 4.51002 3.03476 0
M  V30 11750 H 1124.87 2.65994 1.24997 0
M  V30 11751 H 1122.38 1.50977 0.598301 0
M  V30 11752 H 1124.38 2.04065 3.63542 0
M  V30 11753 H 1123.04 0.998241 3.08974 0
M  V30 11754 H 1124.05 4.61907 2.34227 0
M  V30 11755 H 1120.72 2.30368 3.48191 0
M  V30 11756 H 1122.11 6.22892 2.51902 0
M  V30 11757 N 1124.83 -0.648732 1.43629 0
M  V30 11758 C 1125.76 -1.77298 1.51947 0
M  V30 11759 C 1126.75 -1.65942 0.373785 0
M  V30 11760 O 1127.93 -1.8497 0.591596 0
M  V30 11761 C 1125.06 -3.15749 1.44638 0
M  V30 11762 C 1124.01 -3.41872 2.57502 0
M  V30 11763 C 1123.34 -4.8017 2.35246 0
M  V30 11764 C 1124.64 -3.36173 3.99731 0
M  V30 11765 H 1126.33 -1.70594 2.46045 0
M  V30 11766 H 1123.88 -0.819306 1.1842 0
M  V30 11767 H 1125.83 -3.94156 1.4906 0
M  V30 11768 H 1124.56 -3.23194 0.470466 0
M  V30 11769 H 1123.22 -2.65838 2.5244 0
M  V30 11770 H 1122.86 -4.84297 1.35887 0
M  V30 11771 H 1122.56 -4.9861 3.10906 0
M  V30 11772 H 1124.09 -5.6083 2.41459 0
M  V30 11773 H 1125.5 -4.0451 4.06257 0
M  V30 11774 H 1123.9 -3.66148 4.75453 0
M  V30 11775 H 1124.97 -2.34277 4.24549 0
M  V30 11776 N 1126.31 -1.30234 -0.887518 0
M  V30 11777 C 1127.59 -1.09572 -1.62029 0
M  V30 11778 C 1127.97 0.355877 -2.08079 0
M  V30 11779 O 1127.32 1.34692 -1.84582 0
M  V30 11780 C 1127.53 -2.0943 -2.79177 0
M  V30 11781 C 1128.88 -2.4101 -3.4957 0
M  V30 11782 O 1129.9 -2.0772 -2.89363 0
M  V30 11783 O 1128.76 -2.97943 -4.5814 0
M  V30 11784 H 1125.85 -0.420648 -0.712028 0
M  V30 11785 H 1128.4 -1.41651 -0.934517 0
M  V30 11786 H 1127.17 -3.07149 -2.42436 0
M  V30 11787 H 1126.79 -1.78154 -3.55453 0
M  V30 11788 N 1127.79 1.09952 -1.12909 0
M  V30 11789 C 1129.02 1.8552 -0.909163 0
M  V30 11790 C 1129.43 1.81173 0.545253 0
M  V30 11791 O 1128.77 1.20223 1.38896 0
M  V30 11792 C 1128.83 3.34693 -1.31228 0
M  V30 11793 C 1128.5 3.62794 -2.77902 0
M  V30 11794 C 1129.49 3.58973 -3.76078 0
M  V30 11795 C 1127.18 3.91311 -3.1493 0
M  V30 11796 C 1129.17 3.83271 -5.09296 0
M  V30 11797 C 1126.86 4.15265 -4.48328 0
M  V30 11798 C 1127.86 4.11236 -5.4532 0
M  V30 11799 O 1127.55 4.34576 -6.76313 0
M  V30 11800 H 1127.28 0.59303 -0.324486 0
M  V30 11801 H 1129.83 1.39878 -1.5041 0
M  V30 11802 H 1128.06 3.81016 -0.660573 0
M  V30 11803 H 1129.75 3.9166 -1.06569 0
M  V30 11804 H 1130.52 3.36974 -3.48817 0
M  V30 11805 H 1126.4 3.93575 -2.40041 0
M  V30 11806 H 1129.94 3.80041 -5.84991 0
M  V30 11807 H 1125.84 4.36743 -4.75316 0
M  V30 11808 H 1126.61 4.52065 -6.82334 0
M  V30 11809 N 1129.27 0.921757 1.27833 0
M  V30 11810 C 1130.51 0.559906 1.94918 0
M  V30 11811 C 1130.85 -0.895532 1.72319 0
M  V30 11812 O 1130.12 -1.638 1.04879 0
M  V30 11813 C 1130.41 0.879458 3.49196 0
M  V30 11814 C 1130.26 2.38821 3.81162 0
M  V30 11815 C 1131.58 0.381183 4.38446 0
M  V30 11816 H 1128.7 0.204893 0.707946 0
M  V30 11817 H 1131.34 1.15246 1.51058 0
M  V30 11818 H 1129.49 0.375177 3.86684 0
M  V30 11819 H 1131.16 2.96373 3.53498 0
M  V30 11820 H 1129.4 2.83988 3.27923 0
M  V30 11821 H 1130.07 2.56234 4.88926 0
M  V30 11822 H 1132.55 0.813289 4.08075 0
M  V30 11823 H 1131.43 0.633778 5.45229 0
M  V30 11824 H 1131.69 -0.718651 4.3622 0
M  V30 11825 N 1130.75 -1.41857 0.686609 0
M  V30 11826 C 1131.68 -2.28174 -0.0347358 0
M  V30 11827 C 1132.66 -1.41732 -0.796928 0
M  V30 11828 O 1133.84 -1.71165 -0.789607 0
M  V30 11829 C 1130.97 -3.21801 -1.0565 0
M  V30 11830 C 1130.01 -4.24727 -0.388523 0
M  V30 11831 S 1130.85 -5.28508 0.862546 0
M  V30 11832 C 1132 -6.25701 -0.157849 0
M  V30 11833 H 1132.24 -2.89005 0.697381 0
M  V30 11834 H 1129.77 -1.46861 0.476562 0
M  V30 11835 H 1131.73 -3.76278 -1.64089 0
M  V30 11836 H 1130.39 -2.60082 -1.76114 0
M  V30 11837 H 1129.58 -4.90471 -1.15991 0
M  V30 11838 H 1129.18 -3.73799 0.122567 0
M  V30 11839 H 1131.48 -6.6987 -1.01393 0
M  V30 11840 H 1132.42 -7.06569 0.465437 0
M  V30 11841 H 1132.83 -5.62204 -0.508614 0
M  V30 11842 N 1132.22 -0.430739 -1.51599 0
M  V30 11843 C 1133.19 0.372319 -2.26156 0
M  V30 11844 C 1134.19 0.955338 -1.29344 0
M  V30 11845 O 1135.38 0.830823 -1.53111 0
M  V30 11846 C 1132.51 1.52613 -3.04831 0
M  V30 11847 H 1133.7 -0.280996 -2.98581 0
M  V30 11848 H 1131.26 -0.183749 -1.55216 0
M  V30 11849 H 1131.99 2.21569 -2.36807 0
M  V30 11850 H 1131.78 1.11433 -3.75932 0
M  V30 11851 H 1133.27 2.09366 -3.61325 0
M  V30 11852 N 1133.7 1.56767 -0.161869 0
M  V30 11853 C 1134.67 2.16299 0.758104 0
M  V30 11854 C 1135.67 1.10859 1.16478 0
M  V30 11855 O 1136.86 1.36422 1.08327 0
M  V30 11856 C 1133.99 2.73819 2.03067 0
M  V30 11857 H 1135.18 2.98938 0.239992 0
M  V30 11858 H 1132.73 1.56054 0.0876532 0
M  V30 11859 H 1133.47 1.94887 2.59209 0
M  V30 11860 H 1133.25 3.50974 1.74813 0
M  V30 11861 H 1134.74 3.19638 2.68741 0
M  V30 11862 N 1135.18 -0.111886 1.57202 0
M  V30 11863 C 1136.14 -1.12101 1.99915 0
M  V30 11864 C 1137.14 -1.33906 0.890272 0
M  V30 11865 O 1138.33 -1.30303 1.15615 0
M  V30 11866 C 1135.47 -2.47392 2.34543 0
M  V30 11867 H 1136.66 -0.753736 2.90274 0
M  V30 11868 H 1134.21 -0.35641 1.52182 0
M  V30 11869 H 1134.95 -2.89026 1.47086 0
M  V30 11870 H 1134.73 -2.32917 3.15423 0
M  V30 11871 H 1136.22 -3.20004 2.68304 0
M  V30 11872 N 1136.66 -1.52894 -0.382264 0
M  V30 11873 C 1137.61 -1.78799 -1.48774 0
M  V30 11874 C 1138.6 -0.65624 -1.56173 0
M  V30 11875 O 1139.81 -0.838856 -1.59258 0
M  V30 11876 H 1136.18 -0.565855 -0.49529 0
M  V30 11877 H 1138.15 -2.7136 -1.24122 0
M  V30 11878 C 1136.9 -1.97987 -2.85826 0
M  V30 11879 H 1136.22 -2.84505 -2.80886 0
M  V30 11880 H 1137.66 -2.20099 -3.62398 0
M  V30 11881 C 1136.12 -0.75427 -3.28348 0
M  V30 11882 O 1136.65 0.0650749 -4.01647 0
M  V30 11883 N 1134.86 -0.582457 -2.84703 0
M  V30 11884 H 1134.41 -1.25034 -2.2522 0
M  V30 11885 H 1134.36 0.236208 -3.13511 0
M  V30 11886 N 1138.14 0.641106 -1.43971 0
M  V30 11887 C 1139.07 1.76489 -1.52885 0
M  V30 11888 C 1140.05 1.65742 -0.38258 0
M  V30 11889 O 1141.23 1.84653 -0.601397 0
M  V30 11890 C 1138.36 3.14977 -1.4631 0
M  V30 11891 C 1137.32 3.40502 -2.59311 0
M  V30 11892 C 1136.64 4.78916 -2.37789 0
M  V30 11893 C 1137.94 3.34048 -4.01509 0
M  V30 11894 H 1139.64 1.69286 -2.46946 0
M  V30 11895 H 1137.18 0.813015 -1.18853 0
M  V30 11896 H 1139.14 3.9336 -1.51149 0
M  V30 11897 H 1137.86 3.2294 -0.487599 0
M  V30 11898 H 1136.52 2.64495 -2.53846 0
M  V30 11899 H 1136.17 4.8357 -1.38454 0
M  V30 11900 H 1135.87 4.96954 -3.13545 0
M  V30 11901 H 1137.39 5.59541 -2.4443 0
M  V30 11902 H 1138.81 4.0235 -4.08396 0
M  V30 11903 H 1137.2 3.63622 -4.77388 0
M  V30 11904 H 1138.27 2.32022 -4.25786 0
M  V30 11905 N 1139.62 1.30703 0.880598 0
M  V30 11906 C 1140.86 1.19778 1.63277 0
M  V30 11907 C 1141.19 -0.246521 1.92931 0
M  V30 11908 O 1140.45 -1.19226 1.55189 0
M  V30 11909 C 1140.74 1.97628 2.97789 0
M  V30 11910 C 1140.41 3.47213 2.87669 0
M  V30 11911 C 1139.07 3.88004 2.84617 0
M  V30 11912 C 1141.42 4.4245 2.75477 0
M  V30 11913 C 1138.75 5.22315 2.67216 0
M  V30 11914 C 1141.1 5.76874 2.59614 0
M  V30 11915 C 1139.77 6.16898 2.54939 0
M  V30 11916 H 1139.04 0.438298 0.597475 0
M  V30 11917 H 1141.69 1.61853 1.02352 0
M  V30 11918 H 1139.99 1.48201 3.6269 0
M  V30 11919 H 1141.69 1.86563 3.54958 0
M  V30 11920 H 1138.28 3.14802 2.90857 0
M  V30 11921 H 1142.46 4.11875 2.76899 0
M  V30 11922 H 1137.72 5.52412 2.62014 0
M  V30 11923 H 1141.89 6.50304 2.49155 0
M  V30 11924 H 1139.52 7.20916 2.41214 0
M  V30 11925 N 1141.09 -1.09351 1.1349 0
M  V30 11926 C 1142.06 -2.14185 0.815919 0
M  V30 11927 C 1143.06 -1.59845 -0.174976 0
M  V30 11928 O 1144.25 -1.74122 0.0521971 0
M  V30 11929 C 1141.38 -3.40224 0.214517 0
M  V30 11930 H 1142.57 -2.43913 1.74489 0
M  V30 11931 H 1140.12 -1.24902 0.939634 0
M  V30 11932 H 1140.86 -3.16123 -0.723634 0
M  V30 11933 H 1140.64 -3.80958 0.928102 0
M  V30 11934 H 1142.13 -4.17599 0.00821999 0
M  V30 11935 N 1142.57 -0.928524 -1.27343 0
M  V30 11936 C 1143.5 -0.385563 -2.25934 0
M  V30 11937 C 1144.52 0.484178 -1.55433 0
M  V30 11938 O 1145.71 0.296668 -1.76017 0
M  V30 11939 C 1142.81 0.466116 -3.35679 0
M  V30 11940 C 1141.98 -0.384523 -4.35707 0
M  V30 11941 C 1141.04 0.404644 -5.24642 0
M  V30 11942 O 1140.06 -0.187943 -5.6889 0
M  V30 11943 N 1141.27 1.70426 -5.54919 0
M  V30 11944 H 1144.03 -1.23306 -2.73159 0
M  V30 11945 H 1141.59 -0.796039 -1.40978 0
M  V30 11946 H 1143.58 1.00115 -3.92121 0
M  V30 11947 H 1142.15 1.21437 -2.88048 0
M  V30 11948 H 1141.37 -1.10085 -3.78517 0
M  V30 11949 H 1142.66 -0.966033 -4.99545 0
M  V30 11950 H 1142.06 2.20802 -5.20829 0
M  V30 11951 H 1140.62 2.1858 -6.14057 0
M  V30 11952 N 1144.05 1.41491 -0.694123 0
M  V30 11953 C 1145.28 2.05579 -0.233466 0
M  V30 11954 C 1145.69 1.5223 1.11675 0
M  V30 11955 O 1145.05 0.669937 1.69759 0
M  V30 11956 C 1145.1 3.61047 -0.180967 0
M  V30 11957 O 1144.82 4.12421 -1.47785 0
M  V30 11958 C 1146.32 4.42278 0.300853 0
M  V30 11959 H 1143.54 0.662097 -0.108943 0
M  V30 11960 H 1146.09 1.81288 -0.946299 0
M  V30 11961 H 1144.24 3.84381 0.482678 0
M  V30 11962 H 1144.66 5.06454 -1.364 0
M  V30 11963 H 1146.13 5.51256 0.286464 0
M  V30 11964 H 1146.61 4.18276 1.33948 0
M  V30 11965 H 1147.21 4.24004 -0.331741 0
M  V30 11966 N 1145.53 0.438773 1.51369 0
M  V30 11967 C 1146.76 -0.125665 2.06217 0
M  V30 11968 C 1147.17 -1.36887 1.30609 0
M  V30 11969 O 1146.51 -1.80149 0.359433 0
M  V30 11970 C 1146.57 -0.511846 3.55838 0
M  V30 11971 C 1146.23 0.624755 4.52709 0
M  V30 11972 C 1147.23 1.49731 4.97872 0
M  V30 11973 C 1144.92 0.805895 4.95793 0
M  V30 11974 C 1146.91 2.53569 5.84792 0
M  V30 11975 C 1144.6 1.84755 5.82502 0
M  V30 11976 C 1145.6 2.71083 6.269 0
M  V30 11977 O 1145.28 3.7346 7.11887 0
M  V30 11978 H 1145.02 -0.0107227 0.675915 0
M  V30 11979 H 1147.57 0.617071 1.95912 0
M  V30 11980 H 1145.8 -1.30731 3.63932 0
M  V30 11981 H 1147.49 -1.0076 3.93195 0
M  V30 11982 H 1148.25 1.36891 4.65281 0
M  V30 11983 H 1144.13 0.14352 4.60777 0
M  V30 11984 H 1147.68 3.20984 6.19367 0
M  V30 11985 H 1143.57 1.97614 6.14507 0
M  V30 11986 H 1144.34 3.70058 7.30068 0
M  V30 11987 N 1147.01 -1.56678 0.170181 0
M  V30 11988 C 1148.25 -1.9646 -0.474125 0
M  V30 11989 C 1148.57 -1.05719 -1.63855 0
M  V30 11990 O 1147.84 -0.123316 -1.95511 0
M  V30 11991 H 1146.42 -0.725446 -0.178149 0
M  V30 11992 H 1149.09 -1.93276 0.251099 0
M  V30 11993 H 1148.18 -3.00726 -0.834894 0
M  V30 11994 N 1148.48 0.103547 -1.57259 0
M  V30 11995 C 1149.41 1.12714 -2.04494 0
M  V30 11996 C 1150.39 1.42278 -0.932255 0
M  V30 11997 O 1151.58 1.52453 -1.20298 0
M  V30 11998 C 1148.71 2.44927 -2.46228 0
M  V30 11999 C 1147.66 2.2979 -3.61082 0
M  V30 12000 C 1146.99 3.67105 -3.88765 0
M  V30 12001 C 1148.29 1.7455 -4.9227 0
M  V30 12002 H 1149.98 0.734198 -2.90258 0
M  V30 12003 H 1147.53 0.351725 -1.39638 0
M  V30 12004 H 1149.48 3.16798 -2.77879 0
M  V30 12005 H 1148.21 2.8614 -1.57453 0
M  V30 12006 H 1146.87 1.60366 -3.29664 0
M  V30 12007 H 1146.51 4.05831 -2.97171 0
M  V30 12008 H 1146.21 3.57825 -4.66084 0
M  V30 12009 H 1147.74 4.40456 -4.22884 0
M  V30 12010 H 1149.15 2.36253 -5.22358 0
M  V30 12011 H 1147.55 1.76051 -5.73695 0
M  V30 12012 H 1148.62 0.704242 -4.79759 0
M  V30 12013 N 1149.96 1.53094 0.37415 0
M  V30 12014 C 1151.19 1.72758 1.13852 0
M  V30 12015 C 1151.6 0.452638 1.83294 0
M  V30 12016 O 1150.96 -0.573906 1.73241 0
M  V30 12017 C 1151.01 2.88724 2.17534 0
M  V30 12018 O 1150.73 4.11284 1.5092 0
M  V30 12019 C 1152.23 3.2019 3.06584 0
M  V30 12020 H 1149.45 0.578028 0.340771 0
M  V30 12021 H 1152 1.99805 0.435683 0
M  V30 12022 H 1150.15 2.64096 2.83429 0
M  V30 12023 H 1150.57 4.76162 2.19932 0
M  V30 12024 H 1152.04 4.04759 3.75332 0
M  V30 12025 H 1152.52 2.35193 3.70919 0
M  V30 12026 H 1153.12 3.46712 2.46315 0
M  V30 12027 N 1151.44 -0.633461 1.44309 0
M  V30 12028 C 1152.69 -1.39031 1.46679 0
M  V30 12029 C 1153.01 -1.94745 0.0997165 0
M  V30 12030 O 1152.28 -1.75637 -0.867659 0
M  V30 12031 H 1150.86 -0.516051 0.540093 0
M  V30 12032 H 1153.52 -0.745739 1.80069 0
M  V30 12033 H 1152.62 -2.2228 2.19085 0
M  V30 12034 N 1152.92 -1.31168 -0.873655 0
M  V30 12035 C 1154.14 -1.23728 -1.66452 0
M  V30 12036 C 1154.57 0.194869 -1.87088 0
M  V30 12037 O 1153.93 1.1397 -1.40998 0
M  V30 12038 C 1153.97 -1.98285 -3.0119 0
M  V30 12039 O 1153.08 -1.31767 -3.90783 0
M  V30 12040 H 1152.42 -0.427362 -0.508191 0
M  V30 12041 H 1154.95 -1.73176 -1.08955 0
M  V30 12042 H 1154.96 -2.0774 -3.51153 0
M  V30 12043 H 1153.63 -3.02437 -2.8549 0
M  V30 12044 H 1152.21 -1.3074 -3.4923 0
M  V30 12045 N 1154.4 1.08748 -1.14068 0
M  V30 12046 C 1155.33 2.1544 -0.782199 0
M  V30 12047 C 1156.34 1.61575 0.199301 0
M  V30 12048 O 1157.53 1.78487 -0.0219044 0
M  V30 12049 C 1154.63 3.38611 -0.13983 0
M  V30 12050 C 1153.8 4.2187 -1.15518 0
M  V30 12051 C 1152.86 5.23451 -0.537216 0
M  V30 12052 O 1151.89 5.56424 -1.1992 0
M  V30 12053 N 1153.09 5.76413 0.6876 0
M  V30 12054 H 1155.86 2.46798 -1.70032 0
M  V30 12055 H 1153.42 1.24527 -1.03463 0
M  V30 12056 H 1155.41 4.03688 0.285999 0
M  V30 12057 H 1153.98 3.05084 0.681357 0
M  V30 12058 H 1153.2 3.52825 -1.75806 0
M  V30 12059 H 1154.49 4.74318 -1.84119 0
M  V30 12060 H 1153.88 5.51851 1.24406 0
M  V30 12061 H 1152.44 6.43189 1.05599 0
M  V30 12062 N 1155.87 0.935264 1.26849 0
M  V30 12063 C 1157.15 0.497797 1.8916 0
M  V30 12064 C 1157.53 -1.02441 1.84578 0
M  V30 12065 O 1156.88 -1.88185 1.29609 0
M  V30 12066 C 1157.09 1.05244 3.32753 0
M  V30 12067 C 1158.44 1.11751 4.0963 0
M  V30 12068 O 1159.46 1.0026 3.41799 0
M  V30 12069 O 1158.32 1.29548 5.30923 0
M  V30 12070 H 1155.41 0.161322 0.811113 0
M  V30 12071 H 1157.96 1.02744 1.35062 0
M  V30 12072 H 1156.73 2.09617 3.30419 0
M  V30 12073 H 1156.36 0.504889 3.94381 0
M  V30 12074 N 1157.35 -1.41121 0.701616 0
M  V30 12075 C 1158.77 -1.55162 0.373766 0
M  V30 12076 C 1158.97 -1.6759 -1.11875 0
M  V30 12077 O 1158.02 -1.65768 -1.90465 0
M  V30 12078 C 1159.34 -2.78758 1.12759 0
M  V30 12079 C 1160.89 -2.92561 1.11253 0
M  V30 12080 C 1161.36 -4.19052 1.84822 0
M  V30 12081 N 1162.85 -4.26023 1.81821 0
M  V30 12082 C 1163.59 -5.22771 2.3558 0
M  V30 12083 N 1163.08 -6.25512 2.97836 0
M  V30 12084 N 1164.88 -5.14752 2.25802 0
M  V30 12085 H 1157.03 -1.31299 1.66956 0
M  V30 12086 H 1159.29 -0.633894 0.704898 0
M  V30 12087 H 1159 -2.75804 2.18231 0
M  V30 12088 H 1158.87 -3.70456 0.710095 0
M  V30 12089 H 1161.26 -2.95026 0.0660506 0
M  V30 12090 H 1161.34 -2.0202 1.56913 0
M  V30 12091 H 1160.98 -4.17349 2.89452 0
M  V30 12092 H 1160.91 -5.08577 1.36592 0
M  V30 12093 H 1163.4 -3.52411 1.36438 0
M  V30 12094 H 1163.72 -6.95736 3.36409 0
M  V30 12095 H 1162.06 -6.25997 3.01916 0
M  V30 12096 H 1165.25 -4.33414 1.76833 0
M  V30 12097 H 1165.42 -5.89983 2.68001 0
M  V30 12098 N 1158.83 -0.446794 -1.51134 0
M  V30 12099 C 1159.79 0.348311 -2.26538 0
M  V30 12100 C 1160.79 0.941566 -1.3035 0
M  V30 12101 O 1161.98 0.814537 -1.53984 0
M  V30 12102 C 1159.12 1.49371 -3.06433 0
M  V30 12103 H 1160.31 -0.312648 -2.98266 0
M  V30 12104 H 1157.86 -0.200201 -1.55013 0
M  V30 12105 H 1158.6 2.19045 -2.39144 0
M  V30 12106 H 1158.38 1.07439 -3.77093 0
M  V30 12107 H 1159.87 2.05522 -3.63525 0
M  V30 12108 N 1160.31 1.56586 -0.178487 0
M  V30 12109 C 1161.27 2.17091 0.73512 0
M  V30 12110 C 1162.27 1.12088 1.15295 0
M  V30 12111 O 1163.46 1.37563 1.06874 0
M  V30 12112 C 1160.59 2.75957 2.00151 0
M  V30 12113 H 1161.79 2.99176 0.208272 0
M  V30 12114 H 1159.34 1.56138 0.0710967 0
M  V30 12115 H 1160.07 1.97626 2.57127 0
M  V30 12116 H 1159.86 3.52809 1.7108 0
M  V30 12117 H 1161.35 3.2247 2.65335 0
M  V30 12118 N 1161.79 -0.095206 1.57312 0
M  V30 12119 C 1163.03 -0.799903 1.86358 0
M  V30 12120 C 1163.37 -1.78386 0.767593 0
M  V30 12121 O 1162.64 -1.93201 -0.224439 0
M  V30 12122 C 1162.92 -1.52875 3.26039 0
M  V30 12123 C 1162.78 -0.562781 4.46265 0
M  V30 12124 C 1164.1 -2.47935 3.63616 0
M  V30 12125 H 1161.21 -0.289339 0.677829 0
M  V30 12126 H 1163.86 -0.0635369 1.89894 0
M  V30 12127 H 1162.01 -2.15645 3.23156 0
M  V30 12128 H 1163.68 0.0579068 4.61264 0
M  V30 12129 H 1161.92 0.123847 4.33623 0
M  V30 12130 H 1162.59 -1.10989 5.40727 0
M  V30 12131 H 1165.07 -1.95257 3.67442 0
M  V30 12132 H 1163.94 -2.95948 4.62283 0
M  V30 12133 H 1164.21 -3.31687 2.92294 0
M  V30 12134 N 1163.26 -1.53291 -0.366026 0
M  V30 12135 C 1164.23 -1.79025 -1.43117 0
M  V30 12136 C 1165.23 -0.660676 -1.46601 0
M  V30 12137 O 1166.42 -0.928875 -1.47369 0
M  V30 12138 C 1163.55 -1.91192 -2.82238 0
M  V30 12139 H 1164.74 -2.74154 -1.21572 0
M  V30 12140 H 1162.3 -1.44361 -0.599132 0
M  V30 12141 H 1163.03 -0.98129 -3.09097 0
M  V30 12142 H 1162.82 -2.7335 -2.81109 0
M  V30 12143 H 1164.31 -2.12696 -3.59375 0
M  V30 12144 N 1164.74 0.6258 -1.44643 0
M  V30 12145 C 1165.97 1.41233 -1.51198 0
M  V30 12146 C 1166.39 1.88291 -0.138572 0
M  V30 12147 O 1165.74 1.61151 0.856537 0
M  V30 12148 C 1165.79 2.62908 -2.48117 0
M  V30 12149 O 1165.51 2.1781 -3.80119 0
M  V30 12150 C 1167.02 3.55976 -2.6419 0
M  V30 12151 H 1164.24 0.432954 -0.512632 0
M  V30 12152 H 1166.78 0.76486 -1.89658 0
M  V30 12153 H 1164.93 3.23735 -2.12778 0
M  V30 12154 H 1165.35 2.96732 -4.32493 0
M  V30 12155 H 1166.82 4.37943 -3.3602 0
M  V30 12156 H 1167.3 4.05133 -1.696 0
M  V30 12157 H 1167.91 3.01014 -3.00451 0
M  V30 12158 N 1166.22 1.31629 0.866686 0
M  V30 12159 C 1167.47 1.21503 1.61998 0
M  V30 12160 C 1167.8 -0.226044 1.93182 0
M  V30 12161 O 1167.05 -1.17573 1.56445 0
M  V30 12162 C 1167.35 2.00775 2.95676 0
M  V30 12163 C 1167.02 3.50245 2.83971 0
M  V30 12164 C 1165.68 3.91 2.80485 0
M  V30 12165 C 1168.03 4.45347 2.70769 0
M  V30 12166 C 1165.36 5.25119 2.61661 0
M  V30 12167 C 1167.71 5.79595 2.53481 0
M  V30 12168 C 1166.37 6.19567 2.48381 0
M  V30 12169 H 1165.64 0.44461 0.592792 0
M  V30 12170 H 1168.29 1.62929 1.00629 0
M  V30 12171 H 1166.6 1.52039 3.61097 0
M  V30 12172 H 1168.29 1.90318 3.52959 0
M  V30 12173 H 1164.88 3.17869 2.87502 0
M  V30 12174 H 1169.07 4.14789 2.72514 0
M  V30 12175 H 1164.32 5.5516 2.5614 0
M  V30 12176 H 1168.5 6.5291 2.42243 0
M  V30 12177 H 1166.12 7.23434 2.33554 0
M  V30 12178 N 1167.7 -1.08142 1.14644 0
M  V30 12179 C 1168.63 -2.17139 0.858667 0
M  V30 12180 C 1169.61 -1.69064 -0.187452 0
M  V30 12181 O 1170.8 -1.94151 -0.0435458 0
M  V30 12182 C 1167.93 -3.45648 0.33834 0
M  V30 12183 C 1166.88 -4.07129 1.32021 0
M  V30 12184 C 1166.21 -5.30623 0.659075 0
M  V30 12185 C 1167.51 -4.48095 2.68343 0
M  V30 12186 H 1169.2 -2.41468 1.77012 0
M  V30 12187 H 1166.75 -1.16052 0.852523 0
M  V30 12188 H 1168.7 -4.21216 0.124611 0
M  V30 12189 H 1167.42 -3.2088 -0.608553 0
M  V30 12190 H 1166.08 -3.33596 1.52016 0
M  V30 12191 H 1165.73 -5.02142 -0.293711 0
M  V30 12192 H 1165.43 -5.72714 1.31427 0
M  V30 12193 H 1166.95 -6.08903 0.454933 0
M  V30 12194 H 1168.37 -5.14828 2.5224 0
M  V30 12195 H 1166.76 -5.01113 3.30161 0
M  V30 12196 H 1167.83 -3.59852 3.25015 0
M  V30 12197 N 1169.18 -0.941978 -1.26351 0
M  V30 12198 C 1170.11 -0.409504 -2.25512 0
M  V30 12199 C 1171.12 0.467665 -1.55938 0
M  V30 12200 O 1172.31 0.277982 -1.76322 0
M  V30 12201 C 1169.41 0.430487 -3.36155 0
M  V30 12202 C 1168.58 -0.430714 -4.35274 0
M  V30 12203 C 1167.64 0.348976 -5.25042 0
M  V30 12204 O 1166.67 -0.24827 -5.68658 0
M  V30 12205 N 1167.87 1.64531 -5.56695 0
M  V30 12206 H 1170.64 -1.26196 -2.71836 0
M  V30 12207 H 1168.2 -0.810947 -1.40126 0
M  V30 12208 H 1170.19 0.959501 -3.93161 0
M  V30 12209 H 1168.76 1.18375 -2.8932 0
M  V30 12210 H 1167.98 -1.14093 -3.77328 0
M  V30 12211 H 1169.27 -1.01896 -4.98492 0
M  V30 12212 H 1168.67 2.15266 -5.23142 0
M  V30 12213 H 1167.22 2.12055 -6.16341 0
M  V30 12214 N 1170.66 1.40747 -0.709091 0
M  V30 12215 C 1171.88 2.05841 -0.253816 0
M  V30 12216 C 1172.31 1.53056 1.09341 0
M  V30 12217 O 1171.66 0.663181 1.68735 0
M  V30 12218 C 1171.71 3.59822 -0.236699 0
M  V30 12219 O 1170.82 4.04876 0.784168 0
M  V30 12220 H 1170.16 0.65295 -0.120631 0
M  V30 12221 H 1172.69 1.80266 -0.967749 0
M  V30 12222 H 1172.7 4.07936 -0.0721616 0
M  V30 12223 H 1171.37 3.97608 -1.21988 0
M  V30 12224 H 1169.95 3.68237 0.587884 0
M  V30 12225 N 1172.13 0.454803 1.50895 0
M  V30 12226 C 1173.38 -0.105927 2.02523 0
M  V30 12227 C 1173.71 -1.40825 1.33724 0
M  V30 12228 O 1172.99 -1.89038 0.457683 0
M  V30 12229 C 1173.27 -0.306635 3.58792 0
M  V30 12230 C 1173.12 1.01556 4.38185 0
M  V30 12231 C 1174.44 -1.06858 4.2693 0
M  V30 12232 H 1171.56 -0.0370232 0.736069 0
M  V30 12233 H 1174.2 0.597215 1.8037 0
M  V30 12234 H 1172.35 -0.905563 3.77799 0
M  V30 12235 H 1174.03 1.64981 4.30789 0
M  V30 12236 H 1172.27 1.61608 4.02574 0
M  V30 12237 H 1172.94 0.828959 5.4574 0
M  V30 12238 H 1175.42 -0.561086 4.123 0
M  V30 12239 H 1174.29 -1.1778 5.36115 0
M  V30 12240 H 1174.55 -2.10111 3.8898 0
M  V30 12241 N 1173.61 -1.56489 0.186789 0
M  V30 12242 C 1174.54 -2.15911 -0.769104 0
M  V30 12243 C 1175.56 -1.11872 -1.18273 0
M  V30 12244 O 1176.75 -1.38999 -1.1199 0
M  V30 12245 C 1173.85 -2.69957 -2.04882 0
M  V30 12246 C 1173.02 -3.98812 -1.79631 0
M  V30 12247 C 1172.08 -4.37767 -2.9197 0
M  V30 12248 O 1171.1 -5.0535 -2.61935 0
M  V30 12249 N 1172.31 -4.0059 -4.20128 0
M  V30 12250 H 1175.07 -2.98561 -0.261007 0
M  V30 12251 H 1172.63 -1.61899 0.00453357 0
M  V30 12252 H 1174.62 -2.93006 -2.79158 0
M  V30 12253 H 1173.19 -1.91808 -2.46837 0
M  V30 12254 H 1172.41 -3.8398 -0.891776 0
M  V30 12255 H 1173.7 -4.82939 -1.60148 0
M  V30 12256 H 1173.1 -3.46213 -4.47385 0
M  V30 12257 H 1171.66 -4.28608 -4.91059 0
M  V30 12258 N 1175.09 0.086862 -1.5736 0
M  V30 12259 C 1176.34 0.790008 -1.8678 0
M  V30 12260 C 1176.67 1.77977 -0.777042 0
M  V30 12261 O 1175.94 1.93317 0.21419 0
M  V30 12262 C 1176.23 1.51143 -3.26845 0
M  V30 12263 C 1176.08 0.539106 -4.46558 0
M  V30 12264 C 1177.4 2.46003 -3.64926 0
M  V30 12265 H 1174.52 0.285741 -0.679354 0
M  V30 12266 H 1177.16 0.0534655 -1.89925 0
M  V30 12267 H 1175.31 2.13928 -3.24295 0
M  V30 12268 H 1176.98 -0.0823679 -4.61226 0
M  V30 12269 H 1175.22 -0.146842 -4.33551 0
M  V30 12270 H 1175.9 1.0812 -5.41308 0
M  V30 12271 H 1178.37 1.93306 -3.68473 0
M  V30 12272 H 1177.25 2.93493 -4.63846 0
M  V30 12273 H 1177.51 3.30133 -2.94049 0
M  V30 12274 N 1176.57 1.53483 0.357892 0
M  V30 12275 C 1177.98 1.61641 0.934289 0
M  V30 12276 C 1178.33 0.488655 1.90017 0
M  V30 12277 O 1177.45 -0.38378 2.1297 0
M  V30 12278 C 1178.05 2.92987 1.7013 0
M  V30 12279 C 1176.61 3.03456 2.22692 0
M  V30 12280 C 1175.76 2.56992 1.04165 0
M  V30 12281 H 1178.71 1.58112 0.136452 0
M  V30 12282 H 1178.73 2.81221 2.5631 0
M  V30 12283 H 1178.24 3.75047 0.998056 0
M  V30 12284 H 1176.34 2.25999 2.96235 0
M  V30 12285 H 1176.45 4.08673 2.50046 0
M  V30 12286 H 1174.82 2.12052 1.41088 0
M  V30 12287 H 1175.6 3.41477 0.353272 0
M  V30 12288 N 1178.05 -0.61812 1.44973 0
M  V30 12289 C 1178.96 -1.7579 1.55355 0
M  V30 12290 C 1179.97 -1.68384 0.438512 0
M  V30 12291 O 1181.15 -1.88928 0.697715 0
M  V30 12292 C 1178.21 -3.1222 1.50729 0
M  V30 12293 C 1177.27 -3.3116 2.73188 0
M  V30 12294 C 1176.51 -4.61082 2.68774 0
M  V30 12295 O 1176.73 -5.42728 1.75507 0
M  V30 12296 O 1175.66 -4.82506 3.59821 0
M  V30 12297 H 1179.49 -1.69983 2.51674 0
M  V30 12298 H 1177.07 -0.780934 1.27365 0
M  V30 12299 H 1178.96 -3.93524 1.5072 0
M  V30 12300 H 1177.63 -3.18541 0.575587 0
M  V30 12301 H 1176.54 -2.49485 2.78762 0
M  V30 12302 H 1177.87 -3.29709 3.65449 0
M  V30 12303 N 1179.52 -1.32087 -0.859693 0
M  V30 12304 C 1180.77 -1.2236 -1.61351 0
M  V30 12305 C 1181.1 0.215796 -1.93299 0
M  V30 12306 O 1180.35 1.16742 -1.57066 0
M  V30 12307 C 1180.65 -2.0234 -2.94607 0
M  V30 12308 C 1180.32 -3.51746 -2.82109 0
M  V30 12309 C 1178.98 -3.92482 -2.78408 0
M  V30 12310 C 1181.33 -4.46776 -2.68403 0
M  V30 12311 C 1178.66 -5.265 -2.58873 0
M  V30 12312 C 1181.01 -5.80931 -2.50404 0
M  V30 12313 C 1179.68 -6.20875 -2.45092 0
M  V30 12314 H 1178.95 -0.447748 -0.590426 0
M  V30 12315 H 1181.59 -1.63461 -0.997637 0
M  V30 12316 H 1179.9 -1.53952 -3.60286 0
M  V30 12317 H 1181.6 -1.92187 -3.51945 0
M  V30 12318 H 1178.19 -3.19389 -2.85812 0
M  V30 12319 H 1182.37 -4.16228 -2.70311 0
M  V30 12320 H 1177.63 -5.5651 -2.53192 0
M  V30 12321 H 1181.8 -6.54185 -2.38777 0
M  V30 12322 H 1179.43 -7.24662 -2.29714 0
M  V30 12323 N 1181 1.07532 -1.15215 0
M  V30 12324 C 1182.23 1.83817 -0.949687 0
M  V30 12325 C 1182.64 1.82004 0.501991 0
M  V30 12326 O 1182 1.23014 1.34811 0
M  V30 12327 C 1182.05 3.30978 -1.45382 0
M  V30 12328 O 1181.77 3.32844 -2.84863 0
M  V30 12329 C 1183.27 4.24037 -1.29257 0
M  V30 12330 H 1180.49 0.58 -0.337404 0
M  V30 12331 H 1183.04 1.35752 -1.52944 0
M  V30 12332 H 1181.19 3.76399 -0.916638 0
M  V30 12333 H 1181.61 4.24773 -3.07682 0
M  V30 12334 H 1183.08 5.25371 -1.69379 0
M  V30 12335 H 1183.56 4.38563 -0.236519 0
M  V30 12336 H 1184.16 3.8445 -1.81874 0
M  V30 12337 N 1182.48 0.948665 1.2585 0
M  V30 12338 C 1183.89 0.641829 1.75321 0
M  V30 12339 C 1184.24 -0.842903 1.77171 0
M  V30 12340 O 1183.37 -1.65967 1.38867 0
M  V30 12341 C 1183.96 1.15835 3.18383 0
M  V30 12342 C 1182.52 0.901784 3.65438 0
M  V30 12343 C 1181.67 1.30489 2.44679 0
M  V30 12344 H 1184.62 1.12614 1.1182 0
M  V30 12345 H 1184.64 0.515639 3.7699 0
M  V30 12346 H 1184.15 2.23897 3.17004 0
M  V30 12347 H 1182.25 -0.164135 3.72238 0
M  V30 12348 H 1182.37 1.53405 4.53876 0
M  V30 12349 H 1180.73 0.723278 2.44215 0
M  V30 12350 H 1181.51 2.3946 2.45996 0
M  V30 12351 N 1183.96 -1.40369 0.716545 0
M  V30 12352 C 1184.91 -2.3071 0.0645944 0
M  V30 12353 C 1185.88 -1.48239 -0.749294 0
M  V30 12354 O 1187.06 -1.76975 -0.713045 0
M  V30 12355 C 1184.2 -3.34456 -0.850478 0
M  V30 12356 C 1183.31 -4.31992 -0.0259594 0
M  V30 12357 C 1182.45 -5.22806 -0.940599 0
M  V30 12358 C 1181.49 -6.12001 -0.110228 0
M  V30 12359 N 1180.62 -6.9523 -0.979796 0
M  V30 12360 H 1185.46 -2.85896 0.840682 0
M  V30 12361 H 1183 -1.40789 0.426258 0
M  V30 12362 H 1184.96 -3.93177 -1.39528 0
M  V30 12363 H 1183.59 -2.8077 -1.59274 0
M  V30 12364 H 1182.64 -3.75045 0.636036 0
M  V30 12365 H 1183.95 -4.94971 0.616883 0
M  V30 12366 H 1183.11 -5.86463 -1.5539 0
M  V30 12367 H 1181.85 -4.60104 -1.61726 0
M  V30 12368 H 1180.85 -5.47373 0.516001 0
M  V30 12369 H 1182.08 -6.76763 0.562944 0
M  V30 12370 H 1180.02 -6.35115 -1.64209 0
M  V30 12371 H 1179.94 -7.54978 -0.393012 0
M  V30 12372 H 1181.21 -7.63335 -1.57924 0
M  V30 12373 N 1185.44 -0.462799 -1.50652 0
M  V30 12374 C 1186.66 0.0952726 -2.07181 0
M  V30 12375 C 1187.09 1.33479 -1.32533 0
M  V30 12376 O 1186.44 1.77473 -0.370564 0
M  V30 12377 C 1186.49 0.370592 -3.58691 0
M  V30 12378 O 1185.6 1.4526 -3.85971 0
M  V30 12379 H 1184.94 -0.00932702 -0.663934 0
M  V30 12380 H 1187.47 -0.651458 -1.93951 0
M  V30 12381 H 1187.48 0.613551 -4.0336 0
M  V30 12382 H 1186.15 -0.535219 -4.12442 0
M  V30 12383 H 1184.73 1.1976 -3.53146 0
M  V30 12384 N 1186.91 1.56388 -0.195085 0
M  V30 12385 C 1188.16 1.97189 0.44281 0
M  V30 12386 C 1188.48 1.08312 1.62153 0
M  V30 12387 O 1187.75 0.154404 1.95291 0
M  V30 12388 H 1186.33 0.728188 0.166585 0
M  V30 12389 H 1189 1.92852 -0.281815 0
M  V30 12390 H 1188.09 3.02016 0.786945 0
M  V30 12391 N 1188.39 -0.0785156 1.57404 0
M  V30 12392 C 1189.64 -0.780092 1.87196 0
M  V30 12393 C 1189.97 -1.77562 0.78647 0
M  V30 12394 O 1189.25 -1.93428 -0.203935 0
M  V30 12395 C 1189.53 -1.49408 3.27642 0
M  V30 12396 C 1189.38 -0.515416 4.46837 0
M  V30 12397 C 1190.7 -2.44064 3.66225 0
M  V30 12398 H 1187.82 -0.282134 0.680859 0
M  V30 12399 H 1190.46 -0.0433926 1.8995 0
M  V30 12400 H 1188.61 -2.12205 3.25425 0
M  V30 12401 H 1190.28 0.106827 4.61176 0
M  V30 12402 H 1188.53 0.169832 4.33467 0
M  V30 12403 H 1189.2 -1.05247 5.41874 0
M  V30 12404 H 1191.67 -1.91349 3.69493 0
M  V30 12405 H 1190.55 -2.91029 4.65396 0
M  V30 12406 H 1190.81 -3.28569 2.95796 0
M  V30 12407 N 1189.87 -1.5367 -0.349747 0
M  V30 12408 C 1190.82 -1.81223 -1.42922 0
M  V30 12409 C 1191.79 -0.657536 -1.52531 0
M  V30 12410 O 1192.97 -0.90134 -1.68168 0
M  V30 12411 C 1190.11 -2.022 -2.79659 0
M  V30 12412 C 1189.23 -3.29915 -2.78891 0
M  V30 12413 C 1188.36 -3.40993 -4.07305 0
M  V30 12414 C 1187.4 -4.6268 -4.00741 0
M  V30 12415 N 1186.54 -4.70826 -5.20833 0
M  V30 12416 H 1191.38 -2.73328 -1.18727 0
M  V30 12417 H 1188.91 -1.35386 -0.57525 0
M  V30 12418 H 1190.87 -2.12351 -3.59114 0
M  V30 12419 H 1189.5 -1.13416 -3.0222 0
M  V30 12420 H 1188.55 -3.28637 -1.91577 0
M  V30 12421 H 1189.87 -4.19459 -2.69917 0
M  V30 12422 H 1189.02 -3.50542 -4.95182 0
M  V30 12423 H 1187.76 -2.49493 -4.19052 0
M  V30 12424 H 1186.76 -4.53215 -3.11249 0
M  V30 12425 H 1187.99 -5.55538 -3.90582 0
M  V30 12426 H 1185.93 -3.82233 -5.33136 0
M  V30 12427 H 1185.85 -5.54297 -5.14092 0
M  V30 12428 H 1187.12 -4.84677 -6.10499 0
M  V30 12429 N 1191.35 0.610423 -1.45298 0
M  V30 12430 C 1192.6 1.36558 -1.48441 0
M  V30 12431 C 1192.91 1.95173 -0.129137 0
M  V30 12432 O 1194.12 2.71473 -0.0381956 0
M  V30 12433 C 1192.57 2.47349 -2.61431 0
M  V30 12434 C 1192.18 1.95158 -4.03258 0
M  V30 12435 C 1193.92 3.24383 -2.73817 0
M  V30 12436 C 1191.83 3.03414 -5.07635 0
M  V30 12437 H 1190.76 0.513253 -0.552347 0
M  V30 12438 H 1193.41 0.654535 -1.7143 0
M  V30 12439 H 1191.79 3.21125 -2.31721 0
M  V30 12440 H 1192.97 1.2811 -4.42634 0
M  V30 12441 H 1191.28 1.30878 -3.95297 0
M  V30 12442 H 1193.88 4.05123 -3.48969 0
M  V30 12443 H 1194.22 3.75205 -1.80352 0
M  V30 12444 H 1194.76 2.57705 -3.03039 0
M  V30 12445 H 1191.5 2.57512 -6.028 0
M  V30 12446 H 1191.02 3.69039 -4.72833 0
M  V30 12447 H 1192.69 3.67844 -5.32259 0
M  V30 12448 N 1192.83 1.32541 0.852676 0
M  V30 12449 C 1193.78 1.18224 1.94954 0
M  V30 12450 C 1194.76 0.0886514 1.60656 0
M  V30 12451 O 1195.95 0.315359 1.74168 0
M  V30 12452 C 1193.08 0.909484 3.31034 0
M  V30 12453 C 1192.17 2.04486 3.71546 0
M  V30 12454 N 1192.56 3.29362 3.83868 0
M  V30 12455 C 1190.86 1.94848 4.01186 0
M  V30 12456 C 1191.56 4.0374 4.18771 0
M  V30 12457 N 1190.53 3.32054 4.30396 0
M  V30 12458 H 1194.34 2.12893 2.02617 0
M  V30 12459 H 1191.85 1.24349 1.04456 0
M  V30 12460 H 1193.85 0.787865 4.09388 0
M  V30 12461 H 1192.51 -0.0288163 3.24687 0
M  V30 12462 H 1193.52 3.64274 3.68137 0
M  V30 12463 H 1190.19 1.08591 4.0313 0
M  V30 12464 H 1191.58 5.11434 4.35757 0
M  V30 12465 N 1194.3 -1.0692 1.15784 0
M  V30 12466 C 1195.55 -1.79866 0.936815 0
M  V30 12467 C 1195.88 -1.867 -0.534477 0
M  V30 12468 O 1195.16 -1.35395 -1.39637 0
M  V30 12469 C 1195.44 -3.24691 1.55717 0
M  V30 12470 C 1195.29 -3.25975 3.09936 0
M  V30 12471 C 1196.61 -4.22076 1.24658 0
M  V30 12472 H 1193.73 -0.652971 0.341756 0
M  V30 12473 H 1196.37 -1.25085 1.43016 0
M  V30 12474 H 1194.52 -3.7147 1.13763 0
M  V30 12475 H 1196.2 -2.87405 3.60827 0
M  V30 12476 H 1194.44 -2.64808 3.43597 0
M  V30 12477 H 1195.11 -4.28114 3.48458 0
M  V30 12478 H 1197.59 -3.83709 1.60956 0
M  V30 12479 H 1196.46 -5.21691 1.70675 0
M  V30 12480 H 1196.72 -4.41794 0.164341 0
M  V30 12481 N 1195.78 -0.955326 -1.25345 0
M  V30 12482 C 1197.01 -0.627233 -1.97688 0
M  V30 12483 C 1197.43 0.793973 -1.70522 0
M  V30 12484 O 1196.79 1.537 -0.961556 0
M  V30 12485 C 1196.84 -0.892969 -3.49369 0
M  V30 12486 O 1195.94 0.0278871 -4.12391 0
M  V30 12487 H 1195.28 -0.238402 -0.619726 0
M  V30 12488 H 1197.81 -1.28211 -1.59446 0
M  V30 12489 H 1197.82 -0.819517 -3.99685 0
M  V30 12490 H 1196.5 -1.92879 -3.6847 0
M  V30 12491 H 1195.08 -0.0978295 -3.72772 0
M  V30 12492 N 1197.26 1.39987 -0.723979 0
M  V30 12493 C 1198.54 1.94637 -0.1939 0
M  V30 12494 C 1198.92 1.66156 1.30212 0
M  V30 12495 O 1198.27 0.983783 2.06238 0
M  V30 12496 C 1198.48 3.4517 -0.515652 0
M  V30 12497 C 1199.82 4.22113 -0.458919 0
M  V30 12498 O 1200.85 3.53318 -0.452198 0
M  V30 12499 O 1199.71 5.44695 -0.443783 0
M  V30 12500 H 1196.8 0.826394 -0.0316615 0
M  V30 12501 H 1199.35 1.49548 -0.802085 0
M  V30 12502 H 1198.12 3.5929 -1.55004 0
M  V30 12503 H 1197.74 3.97413 0.122067 0
M  V30 12504 N 1198.74 0.470782 1.50404 0
M  V30 12505 C 1199.67 -0.359838 2.26358 0
M  V30 12506 C 1200.68 -0.95735 1.31676 0
M  V30 12507 O 1201.87 -0.84581 1.57189 0
M  V30 12508 C 1198.97 -1.51864 3.02969 0
M  V30 12509 C 1198.15 -1.03397 4.25003 0
M  V30 12510 C 1197.21 -2.06679 4.83911 0
M  V30 12511 O 1196.23 -1.64754 5.44835 0
M  V30 12512 N 1197.43 -3.39484 4.70883 0
M  V30 12513 H 1200.2 0.291299 2.98281 0
M  V30 12514 H 1197.76 0.301549 1.59067 0
M  V30 12515 H 1199.75 -2.2065 3.39258 0
M  V30 12516 H 1198.32 -2.07448 2.33846 0
M  V30 12517 H 1197.54 -0.172012 3.93825 0
M  V30 12518 H 1198.83 -0.68807 5.04126 0
M  V30 12519 H 1198.23 -3.76256 4.22431 0
M  V30 12520 H 1196.78 -4.04068 5.11441 0
M  V30 12521 N 1200.22 -1.56282 0.203376 0
M  V30 12522 C 1201.13 -2.23086 -0.725922 0
M  V30 12523 C 1202.14 -1.23258 -1.22814 0
M  V30 12524 O 1203.32 -1.5602 -1.27357 0
M  V30 12525 C 1200.38 -2.88358 -1.92485 0
M  V30 12526 C 1199.45 -4.03479 -1.46639 0
M  V30 12527 C 1198.68 -4.65629 -2.60816 0
M  V30 12528 O 1198.9 -4.2672 -3.78506 0
M  V30 12529 O 1197.84 -5.54949 -2.33056 0
M  V30 12530 H 1201.66 -3.03124 -0.18694 0
M  V30 12531 H 1199.25 -1.49377 -0.0262829 0
M  V30 12532 H 1201.13 -3.29623 -2.62539 0
M  V30 12533 H 1199.8 -2.11294 -2.45228 0
M  V30 12534 H 1198.71 -3.66821 -0.734396 0
M  V30 12535 H 1200.04 -4.82232 -0.985535 0
M  V30 12536 N 1201.7 0.070167 -1.57444 0
M  V30 12537 C 1202.63 1.08351 -2.06839 0
M  V30 12538 C 1203.61 1.40269 -0.962224 0
M  V30 12539 O 1204.79 1.49867 -1.23505 0
M  V30 12540 C 1201.92 2.39649 -2.51368 0
M  V30 12541 C 1200.88 2.22079 -3.65875 0
M  V30 12542 C 1200.2 3.58776 -3.96464 0
M  V30 12543 C 1201.5 1.64069 -4.95862 0
M  V30 12544 H 1203.2 0.672465 -2.9175 0
M  V30 12545 H 1200.74 0.322027 -1.40353 0
M  V30 12546 H 1202.69 3.10833 -2.84537 0
M  V30 12547 H 1201.42 2.82736 -1.63487 0
M  V30 12548 H 1200.08 1.53337 -3.32992 0
M  V30 12549 H 1199.73 3.99436 -3.05712 0
M  V30 12550 H 1199.43 3.47859 -4.7357 0
M  V30 12551 H 1200.95 4.31387 -4.32131 0
M  V30 12552 H 1202.36 2.2512 -5.27251 0
M  V30 12553 H 1200.76 1.63843 -5.773 0
M  V30 12554 H 1201.83 0.60232 -4.81145 0
M  V30 12555 N 1203.17 1.53854 0.341593 0
M  V30 12556 C 1204.11 1.78295 1.44027 0
M  V30 12557 C 1205.12 0.664303 1.4863 0
M  V30 12558 O 1206.31 0.941073 1.51678 0
M  V30 12559 C 1203.41 1.86947 2.82673 0
M  V30 12560 C 1202.58 3.16898 3.01487 0
M  V30 12561 C 1201.64 3.16483 4.20386 0
M  V30 12562 O 1200.67 3.90197 4.14409 0
M  V30 12563 N 1201.87 2.3899 5.29022 0
M  V30 12564 H 1204.63 2.73102 1.23431 0
M  V30 12565 H 1202.19 1.52928 0.531483 0
M  V30 12566 H 1204.19 1.84118 3.60392 0
M  V30 12567 H 1202.76 0.993169 2.96403 0
M  V30 12568 H 1201.98 3.32835 2.11221 0
M  V30 12569 H 1203.26 4.02733 3.1094 0
M  V30 12570 H 1202.66 1.78657 5.36748 0
M  V30 12571 H 1201.22 2.41957 6.05227 0
M  V30 12572 N 1204.65 -0.602709 1.4562 0
M  V30 12573 C 1205.88 -1.39299 1.53657 0
M  V30 12574 C 1206.3 -1.87315 0.171632 0
M  V30 12575 O 1205.66 -1.60423 -0.844639 0
M  V30 12576 C 1205.71 -2.57021 2.52928 0
M  V30 12577 O 1204.81 -3.57812 2.05047 0
M  V30 12578 H 1204.15 -0.41567 0.517798 0
M  V30 12579 H 1206.68 -0.73304 1.91018 0
M  V30 12580 H 1206.69 -3.04202 2.71892 0
M  V30 12581 H 1205.37 -2.21422 3.52058 0
M  V30 12582 H 1203.94 -3.17247 1.95981 0
M  V30 12583 N 1206.13 -1.32992 -0.845635 0
M  V30 12584 C 1207.09 -1.22607 -1.9365 0
M  V30 12585 C 1208.09 -0.146812 -1.60128 0
M  V30 12586 O 1209.28 -0.397863 -1.69596 0
M  V30 12587 C 1206.41 -0.887677 -3.2914 0
M  V30 12588 H 1207.61 -2.19563 -2.04285 0
M  V30 12589 H 1205.16 -1.16952 -1.03691 0
M  V30 12590 H 1205.9 0.0796777 -3.24202 0
M  V30 12591 H 1205.68 -1.66808 -3.54849 0
M  V30 12592 H 1207.17 -0.83958 -4.09073 0
M  V30 12593 N 1207.61 1.06304 -1.1635 0
M  V30 12594 C 1208.56 2.15879 -0.865967 0
M  V30 12595 C 1209.55 1.68595 0.164929 0
M  V30 12596 O 1210.76 1.7999 0.0189271 0
M  V30 12597 H 1207.13 0.704721 -0.262435 0
M  V30 12598 H 1209.1 2.38185 -1.79751 0
M  V30 12599 C 1207.85 3.4558 -0.383374 0
M  V30 12600 H 1207.17 3.82356 -1.16806 0
M  V30 12601 H 1208.61 4.2346 -0.213964 0
M  V30 12602 C 1207.07 3.24738 0.897044 0
M  V30 12603 O 1207.6 3.50284 1.96632 0
M  V30 12604 N 1205.81 2.78172 0.840761 0
M  V30 12605 H 1205.36 2.57583 -0.029584 0
M  V30 12606 H 1205.31 2.64606 1.69797 0
M  V30 12607 N 1209.09 0.96196 1.24836 0
M  V30 12608 C 1210.05 0.492443 2.23847 0
M  V30 12609 C 1211.05 -0.40788 1.55541 0
M  V30 12610 O 1212.24 -0.204143 1.73 0
M  V30 12611 C 1209.37 -0.287578 3.39685 0
M  V30 12612 H 1210.56 1.36767 2.66899 0
M  V30 12613 H 1208.12 0.745967 1.3735 0
M  V30 12614 H 1208.85 -1.18015 3.02064 0
M  V30 12615 H 1208.64 0.358431 3.90458 0
M  V30 12616 H 1210.13 -0.605297 4.1319 0
M  V30 12617 N 1210.56 -1.39601 0.731392 0
M  V30 12618 C 1211.79 -2.05411 0.286532 0
M  V30 12619 C 1212.21 -1.54777 -1.06892 0
M  V30 12620 O 1211.57 -0.689942 -1.67659 0
M  V30 12621 C 1211.62 -3.594 0.293914 0
M  V30 12622 O 1210.72 -4.06072 -0.719657 0
M  V30 12623 H 1210.06 -0.650949 0.131004 0
M  V30 12624 H 1212.59 -1.78703 0.996305 0
M  V30 12625 H 1212.6 -4.0777 0.137052 0
M  V30 12626 H 1211.28 -3.95617 1.28298 0
M  V30 12627 H 1209.86 -3.69125 -0.529226 0
M  V30 12628 N 1212.04 -0.478751 -1.50152 0
M  V30 12629 C 1213.29 0.073694 -2.02666 0
M  V30 12630 C 1213.62 1.38679 -1.35947 0
M  V30 12631 O 1212.9 1.88286 -0.4877 0
M  V30 12632 C 1213.18 0.249516 -3.59235 0
M  V30 12633 C 1213.03 -1.08514 -4.36514 0
M  V30 12634 C 1214.35 1.00053 -4.28576 0
M  V30 12635 H 1211.47 0.0253082 -0.736565 0
M  V30 12636 H 1214.11 -0.625834 -1.79397 0
M  V30 12637 H 1212.26 0.845343 -3.79192 0
M  V30 12638 H 1213.93 -1.71814 -4.28109 0
M  V30 12639 H 1212.18 -1.67992 -3.99952 0
M  V30 12640 H 1212.85 -0.915676 -5.44352 0
M  V30 12641 H 1215.32 0.495422 -4.1314 0
M  V30 12642 H 1214.2 1.09236 -5.37921 0
M  V30 12643 H 1214.46 2.03896 -3.92274 0
M  V30 12644 N 1213.52 1.56172 -0.211661 0
M  V30 12645 C 1214.8 1.8984 0.471195 0
M  V30 12646 C 1215.18 1.1276 1.78461 0
M  V30 12647 O 1214.53 0.233817 2.27301 0
M  V30 12648 C 1214.74 3.42434 0.673814 0
M  V30 12649 C 1216.08 4.13 0.985719 0
M  V30 12650 O 1217.11 3.47977 0.760953 0
M  V30 12651 O 1215.97 5.2795 1.41176 0
M  V30 12652 H 1213.06 0.789008 0.247782 0
M  V30 12653 H 1215.61 1.67802 -0.25311 0
M  V30 12654 H 1214.38 3.90481 -0.253034 0
M  V30 12655 H 1214 3.70218 1.44997 0
M  V30 12656 N 1215 -0.0618163 1.57479 0
M  V30 12657 C 1216.28 -0.792636 1.7882 0
M  V30 12658 C 1216.66 -1.95283 0.801724 0
M  V30 12659 O 1216 -2.27917 -0.163095 0
M  V30 12660 C 1216.21 -1.25629 3.25605 0
M  V30 12661 C 1217.56 -1.68561 3.89708 0
M  V30 12662 O 1218.59 -1.35171 3.29556 0
M  V30 12663 O 1217.44 -2.30417 4.95551 0
M  V30 12664 H 1214.54 -0.380595 0.734218 0
M  V30 12665 H 1217.08 -0.0411205 1.6965 0
M  V30 12666 H 1215.86 -0.426582 3.88968 0
M  V30 12667 H 1215.48 -2.06882 3.39537 0
M  V30 12668 N 1216.48 -1.54033 -0.333429 0
M  V30 12669 C 1217.7 -1.76031 -1.09672 0
M  V30 12670 C 1218.13 -0.502844 -1.81254 0
M  V30 12671 O 1217.48 0.54509 -1.72912 0
M  V30 12672 C 1217.53 -2.947 -2.07809 0
M  V30 12673 O 1216.64 -2.65555 -3.15522 0
M  V30 12674 H 1215.98 -0.583611 -0.316692 0
M  V30 12675 H 1218.51 -2.01026 -0.380732 0
M  V30 12676 H 1218.52 -3.21771 -2.50853 0
M  V30 12677 H 1217.19 -3.85895 -1.55106 0
M  V30 12678 H 1215.77 -2.49403 -2.77223 0
M  V30 12679 N 1217.95 0.594978 -1.45938 0
M  V30 12680 C 1219.37 0.917069 -1.30622 0
M  V30 12681 C 1219.57 1.99702 -0.268554 0
M  V30 12682 O 1218.63 2.50293 0.333146 0
M  V30 12683 C 1219.94 1.34604 -2.68891 0
M  V30 12684 C 1221.49 1.45957 -2.76886 0
M  V30 12685 C 1221.96 1.92225 -4.15708 0
M  V30 12686 N 1223.45 1.99439 -4.18065 0
M  V30 12687 C 1224.19 2.36488 -5.22361 0
M  V30 12688 N 1223.68 2.72416 -6.36994 0
M  V30 12689 N 1225.48 2.36936 -5.09723 0
M  V30 12690 H 1217.63 -0.118625 -2.12068 0
M  V30 12691 H 1219.89 0.00959453 -0.947951 0
M  V30 12692 H 1219.6 0.626605 -3.46073 0
M  V30 12693 H 1219.47 2.31006 -2.98188 0
M  V30 12694 H 1221.86 2.16989 -1.99999 0
M  V30 12695 H 1221.94 0.47838 -2.51287 0
M  V30 12696 H 1221.58 1.21775 -4.93085 0
M  V30 12697 H 1221.51 2.9128 -4.38707 0
M  V30 12698 H 1224 1.74212 -3.35349 0
M  V30 12699 H 1224.32 2.99604 -7.1236 0
M  V30 12700 H 1222.66 2.70083 -6.40375 0
M  V30 12701 H 1225.85 2.08282 -4.19209 0
M  V30 12702 H 1226.03 2.65483 -5.9112 0
M  V30 12703 N 1219.43 1.33438 0.838571 0
M  V30 12704 C 1220.36 1.26344 1.96365 0
M  V30 12705 C 1221.34 0.143956 1.6949 0
M  V30 12706 O 1222.53 0.333779 1.9131 0
M  V30 12707 C 1219.66 1.0022 3.32526 0
M  V30 12708 C 1218.61 2.08466 3.73799 0
M  V30 12709 C 1217.94 1.67555 5.07769 0
M  V30 12710 C 1219.24 3.50144 3.87552 0
M  V30 12711 H 1220.93 2.20478 2.02558 0
M  V30 12712 H 1218.48 1.06139 0.973168 0
M  V30 12713 H 1220.43 0.939068 4.10803 0
M  V30 12714 H 1219.16 0.0252514 3.2659 0
M  V30 12715 H 1217.81 2.13822 2.97785 0
M  V30 12716 H 1217.46 0.685619 4.98305 0
M  V30 12717 H 1217.16 2.39993 5.36356 0
M  V30 12718 H 1218.69 1.62708 5.88522 0
M  V30 12719 H 1220.1 3.47287 4.56141 0
M  V30 12720 H 1218.5 4.21069 4.27575 0
M  V30 12721 H 1219.57 3.88628 2.89994 0
M  V30 12722 N 1220.91 -1.05686 1.16912 0
M  V30 12723 C 1221.82 -2.16824 0.8958 0
M  V30 12724 C 1222.84 -1.73482 -0.134215 0
M  V30 12725 O 1224.01 -2.01352 0.0438776 0
M  V30 12726 C 1221.08 -3.44298 0.407427 0
M  V30 12727 C 1220.14 -4.02114 1.50342 0
M  V30 12728 C 1219.37 -5.23503 1.03826 0
M  V30 12729 O 1219.59 -5.70295 -0.109579 0
M  V30 12730 O 1218.53 -5.73432 1.8292 0
M  V30 12731 H 1222.35 -2.42725 1.82533 0
M  V30 12732 H 1219.94 -1.15339 0.949589 0
M  V30 12733 H 1221.82 -4.21159 0.142356 0
M  V30 12734 H 1220.5 -3.19908 -0.494009 0
M  V30 12735 H 1219.4 -3.26715 1.82231 0
M  V30 12736 H 1220.74 -4.30811 2.38039 0
M  V30 12737 N 1222.39 -0.968567 -1.24324 0
M  V30 12738 C 1223.3 -0.50703 -2.29055 0
M  V30 12739 C 1224.31 0.432431 -1.68541 0
M  V30 12740 O 1225.49 0.30526 -1.99073 0
M  V30 12741 C 1222.56 0.194589 -3.46153 0
M  V30 12742 C 1221.62 -0.784805 -4.22066 0
M  V30 12743 C 1220.85 -0.116574 -5.33573 0
M  V30 12744 O 1221.07 1.09492 -5.59792 0
M  V30 12745 O 1220.01 -0.809171 -5.96436 0
M  V30 12746 H 1223.83 -1.3777 -2.70653 0
M  V30 12747 H 1221.42 -0.735645 -1.30033 0
M  V30 12748 H 1223.3 0.588684 -4.17268 0
M  V30 12749 H 1221.97 1.04021 -3.06531 0
M  V30 12750 H 1220.88 -1.22938 -3.53323 0
M  V30 12751 H 1222.21 -1.59887 -4.65507 0
M  V30 12752 N 1223.87 1.39211 -0.738786 0
M  V30 12753 C 1224.8 2.33209 -0.11647 0
M  V30 12754 C 1225.78 1.54108 0.720056 0
M  V30 12755 O 1226.96 1.82486 0.664264 0
M  V30 12756 C 1224.09 3.38226 0.78872 0
M  V30 12757 C 1223.05 4.27963 0.0560636 0
M  V30 12758 C 1222.37 5.2371 1.07852 0
M  V30 12759 C 1223.67 5.10508 -1.1036 0
M  V30 12760 H 1225.37 2.85501 -0.901649 0
M  V30 12761 H 1222.91 1.37272 -0.435032 0
M  V30 12762 H 1224.87 4.02938 1.23364 0
M  V30 12763 H 1223.59 2.84382 1.60606 0
M  V30 12764 H 1222.25 3.64735 -0.369274 0
M  V30 12765 H 1221.9 4.66161 1.88953 0
M  V30 12766 H 1221.6 5.846 0.593048 0
M  V30 12767 H 1223.12 5.91299 1.52307 0
M  V30 12768 H 1224.53 5.68544 -0.736943 0
M  V30 12769 H 1222.93 5.80558 -1.51895 0
M  V30 12770 H 1224 4.45117 -1.92352 0
M  V30 12771 N 1225.34 0.486708 1.49896 0
M  V30 12772 C 1226.29 -0.299294 2.28851 0
M  V30 12773 C 1227.26 -0.973251 1.346 0
M  V30 12774 O 1228.45 -0.982678 1.63548 0
M  V30 12775 C 1225.59 -1.36624 3.16904 0
M  V30 12776 C 1224.7 -0.705492 4.262 0
M  V30 12777 C 1223.83 -1.75165 5.01488 0
M  V30 12778 C 1222.87 -1.072 6.0264 0
M  V30 12779 N 1222.01 -2.06172 6.71147 0
M  V30 12780 H 1226.85 0.380272 2.95564 0
M  V30 12781 H 1224.39 0.199377 1.45743 0
M  V30 12782 H 1226.35 -1.99666 3.66319 0
M  V30 12783 H 1224.98 -2.01476 2.52205 0
M  V30 12784 H 1224.03 0.0378757 3.80381 0
M  V30 12785 H 1225.34 -0.169774 4.98511 0
M  V30 12786 H 1224.49 -2.45749 5.547 0
M  V30 12787 H 1223.23 -2.3212 4.28919 0
M  V30 12788 H 1222.24 -0.351868 5.48673 0
M  V30 12789 H 1223.46 -0.509139 6.77189 0
M  V30 12790 H 1221.41 -2.62115 6.01358 0
M  V30 12791 H 1221.33 -1.57627 7.39385 0
M  V30 12792 H 1222.59 -2.76088 7.28969 0
M  V30 12793 N 1226.82 -1.56058 0.219941 0
M  V30 12794 C 1227.79 -2.18964 -0.677303 0
M  V30 12795 C 1228.79 -1.15105 -1.12283 0
M  V30 12796 O 1229.98 -1.40348 -1.03189 0
M  V30 12797 C 1227.11 -2.81167 -1.92764 0
M  V30 12798 H 1228.3 -2.99623 -0.128877 0
M  V30 12799 H 1225.85 -1.56272 -0.0296744 0
M  V30 12800 H 1226.59 -2.04374 -2.51797 0
M  V30 12801 H 1226.37 -3.5722 -1.61666 0
M  V30 12802 H 1227.86 -3.29391 -2.56693 0
M  V30 12803 N 1228.3 0.053464 -1.57509 0
M  V30 12804 C 1229.53 0.761533 -1.92375 0
M  V30 12805 C 1229.94 1.70179 -0.817585 0
M  V30 12806 O 1229.3 1.81313 0.207843 0
M  V30 12807 C 1229.35 1.53954 -3.27078 0
M  V30 12808 O 1229.07 0.637054 -4.33443 0
M  V30 12809 C 1230.57 2.34697 -3.76075 0
M  V30 12810 H 1227.79 0.215483 -0.635459 0
M  V30 12811 H 1230.34 0.0182624 -2.04492 0
M  V30 12812 H 1228.49 2.23492 -3.16434 0
M  V30 12813 H 1228.91 1.18006 -5.11053 0
M  V30 12814 H 1230.38 2.84716 -4.72906 0
M  V30 12815 H 1230.86 3.15041 -3.06016 0
M  V30 12816 H 1231.46 1.70281 -3.89724 0
M  V30 12817 N 1229.78 1.54207 0.325255 0
M  V30 12818 C 1230.71 1.86467 1.40543 0
M  V30 12819 C 1231.69 0.721324 1.54048 0
M  V30 12820 O 1232.88 0.974905 1.67956 0
M  V30 12821 C 1230.01 2.09052 2.77335 0
M  V30 12822 C 1228.96 3.24893 2.78619 0
M  V30 12823 C 1228.29 3.32846 4.1847 0
M  V30 12824 C 1229.59 4.62582 2.42518 0
M  V30 12825 H 1231.28 2.76932 1.13794 0
M  V30 12826 H 1228.83 1.33248 0.545971 0
M  V30 12827 H 1230.78 2.30204 3.52964 0
M  V30 12828 H 1229.5 1.15335 3.05558 0
M  V30 12829 H 1228.16 3.03625 2.05444 0
M  V30 12830 H 1227.81 2.3669 4.43832 0
M  V30 12831 H 1227.51 4.10701 4.20237 0
M  V30 12832 H 1229.03 3.56231 4.95915 0
M  V30 12833 H 1230.45 4.83627 3.07861 0
M  V30 12834 H 1228.84 5.42974 2.55538 0
M  V30 12835 H 1229.91 4.64946 1.3767 0
M  V30 12836 N 1231.26 -0.58723 1.46251 0
M  V30 12837 C 1232.67 -1.16933 1.45546 0
M  V30 12838 C 1233.02 -1.9524 0.193879 0
M  V30 12839 O 1232.14 -2.04652 -0.70332 0
M  V30 12840 C 1232.74 -2.12723 2.63693 0
M  V30 12841 C 1231.3 -2.66267 2.66043 0
M  V30 12842 C 1230.45 -1.42051 2.38153 0
M  V30 12843 H 1233.4 -0.375411 1.54196 0
M  V30 12844 H 1233.42 -2.96111 2.38953 0
M  V30 12845 H 1232.93 -1.55703 3.55497 0
M  V30 12846 H 1231.03 -3.2717 1.783 0
M  V30 12847 H 1231.14 -3.0931 3.65874 0
M  V30 12848 H 1229.51 -1.71707 1.88119 0
M  V30 12849 H 1230.29 -0.868675 3.32128 0
M  V30 12850 N 1232.74 -1.33881 -0.831482 0
M  V30 12851 C 1233.96 -1.28961 -1.62431 0
M  V30 12852 C 1234.39 0.135249 -1.87613 0
M  V30 12853 O 1233.74 1.09426 -1.44553 0
M  V30 12854 C 1233.79 -2.07767 -2.94729 0
M  V30 12855 O 1232.9 -1.44133 -3.86393 0
M  V30 12856 H 1232.24 -0.443313 -0.494337 0
M  V30 12857 H 1234.77 -1.76555 -1.0339 0
M  V30 12858 H 1234.78 -2.18806 -3.44366 0
M  V30 12859 H 1233.45 -3.11367 -2.75724 0
M  V30 12860 H 1232.03 -1.41784 -3.44894 0
M  V30 12861 N 1234.21 1.05064 -1.1747 0
M  V30 12862 C 1235.62 1.59547 -0.969628 0
M  V30 12863 C 1235.98 1.90153 0.483332 0
M  V30 12864 O 1235.1 1.68415 1.35887 0
M  V30 12865 C 1235.7 2.89877 -1.75377 0
M  V30 12866 C 1234.25 3.41013 -1.59332 0
M  V30 12867 C 1233.4 2.1473 -1.7546 0
M  V30 12868 H 1236.35 0.878595 -1.3216 0
M  V30 12869 H 1236.37 3.59834 -1.23691 0
M  V30 12870 H 1235.89 2.67569 -2.8112 0
M  V30 12871 H 1233.99 3.68355 -0.560827 0
M  V30 12872 H 1234.1 4.15512 -2.38509 0
M  V30 12873 H 1232.46 2.25553 -1.18313 0
M  V30 12874 H 1233.25 1.9489 -2.82618 0
M  V30 12875 N 1235.69 0.975146 1.23809 0
M  V30 12876 C 1236.97 0.557725 1.8748 0
M  V30 12877 C 1237.35 -0.965164 1.87744 0
M  V30 12878 O 1236.7 -1.83966 1.35531 0
M  V30 12879 C 1236.91 1.15777 3.29236 0
M  V30 12880 C 1238.25 1.24726 4.05868 0
M  V30 12881 O 1239.28 1.11084 3.38436 0
M  V30 12882 O 1238.14 1.46373 5.26533 0
M  V30 12883 H 1235.23 0.187045 0.80557 0
M  V30 12884 H 1237.78 1.06989 1.31725 0
M  V30 12885 H 1236.55 2.20023 3.23583 0
M  V30 12886 H 1236.17 0.630103 3.92575 0
M  V30 12887 N 1237.17 -1.38817 0.746158 0
M  V30 12888 C 1238.12 -2.30521 0.113517 0
M  V30 12889 C 1239.09 -1.49795 -0.717682 0
M  V30 12890 O 1240.27 -1.78448 -0.675345 0
M  V30 12891 C 1237.41 -3.36185 -0.779343 0
M  V30 12892 C 1236.52 -4.3195 0.0656784 0
M  V30 12893 C 1235.66 -5.24684 -0.829492 0
M  V30 12894 C 1234.7 -6.12097 0.0196112 0
M  V30 12895 N 1233.84 -6.97152 -0.832107 0
M  V30 12896 H 1238.68 -2.84048 0.901136 0
M  V30 12897 H 1236.21 -1.39853 0.456025 0
M  V30 12898 H 1238.17 -3.96048 -1.31156 0
M  V30 12899 H 1236.8 -2.84085 -1.53282 0
M  V30 12900 H 1235.85 -3.73611 0.715445 0
M  V30 12901 H 1237.16 -4.93551 0.721735 0
M  V30 12902 H 1236.32 -5.89627 -1.42915 0
M  V30 12903 H 1235.06 -4.63431 -1.5193 0
M  V30 12904 H 1234.06 -5.46156 0.631991 0
M  V30 12905 H 1235.29 -6.75416 0.706369 0
M  V30 12906 H 1233.23 -6.38456 -1.507 0
M  V30 12907 H 1233.15 -7.55642 -0.232782 0
M  V30 12908 H 1234.42 -7.66513 -1.41697 0
M  V30 12909 N 1238.65 -0.49465 -1.49636 0
M  V30 12910 C 1239.58 0.276606 -2.31856 0
M  V30 12911 C 1240.56 0.968499 -1.39836 0
M  V30 12912 O 1241.74 0.96113 -1.68748 0
M  V30 12913 C 1238.87 1.34522 -3.20189 0
M  V30 12914 C 1237.83 0.773571 -4.20951 0
M  V30 12915 C 1237.15 1.94223 -4.98178 0
M  V30 12916 C 1238.45 -0.231096 -5.21788 0
M  V30 12917 H 1240.15 -0.409668 -2.96584 0
M  V30 12918 H 1237.69 -0.198461 -1.42626 0
M  V30 12919 H 1239.65 1.89244 -3.76517 0
M  V30 12920 H 1238.37 2.06059 -2.53392 0
M  V30 12921 H 1237.03 0.248144 -3.65759 0
M  V30 12922 H 1236.68 2.64514 -4.27834 0
M  V30 12923 H 1236.38 1.56584 -5.66353 0
M  V30 12924 H 1237.9 2.49391 -5.57348 0
M  V30 12925 H 1239.32 0.227768 -5.72847 0
M  V30 12926 H 1237.71 -0.522984 -5.97817 0
M  V30 12927 H 1238.78 -1.14914 -4.71087 0
M  V30 12928 N 1240.13 1.55939 -0.228214 0
M  V30 12929 C 1241.54 1.84612 0.278417 0
M  V30 12930 C 1241.89 1.14973 1.58983 0
M  V30 12931 O 1241.01 0.421673 2.12252 0
M  V30 12932 C 1241.61 3.3491 0.511935 0
M  V30 12933 C 1240.17 3.63876 0.962861 0
M  V30 12934 C 1239.31 2.77284 0.0296246 0
M  V30 12935 H 1242.26 1.52149 -0.451245 0
M  V30 12936 H 1242.29 3.55477 1.35707 0
M  V30 12937 H 1241.8 3.85567 -0.442697 0
M  V30 12938 H 1239.9 3.18682 1.93062 0
M  V30 12939 H 1240.01 4.71809 0.832659 0
M  V30 12940 H 1238.38 2.48961 0.53763 0
M  V30 12941 H 1239.16 3.30742 -0.920044 0
M  V30 12942 N 1241.6 -0.0451101 1.57535 0
M  V30 12943 C 1242.85 -0.737654 1.88157 0
M  V30 12944 C 1243.17 -1.76743 0.823817 0
M  V30 12945 O 1242.44 -1.95366 -0.144503 0
M  V30 12946 H 1241.02 -0.275431 0.694368 0
M  V30 12947 H 1243.69 -0.0148651 1.94894 0
M  V30 12948 H 1242.78 -1.23726 2.86528 0
M  V30 12949 N 1243.08 -1.54377 -0.317073 0
M  V30 12950 C 1244.33 -1.72893 -1.05424 0
M  V30 12951 C 1244.66 -0.506082 -1.87801 0
M  V30 12952 O 1243.91 0.51213 -1.8888 0
M  V30 12953 C 1244.21 -2.96066 -2.00199 0
M  V30 12954 C 1243.88 -4.30551 -1.33927 0
M  V30 12955 C 1242.54 -4.67112 -1.15584 0
M  V30 12956 C 1244.89 -5.13986 -0.864158 0
M  V30 12957 C 1242.22 -5.84701 -0.483892 0
M  V30 12958 C 1244.57 -6.32264 -0.206006 0
M  V30 12959 C 1243.24 -6.67499 -0.0104849 0
M  V30 12960 H 1242.51 -0.63266 -0.385776 0
M  V30 12961 H 1245.15 -1.88623 -0.330722 0
M  V30 12962 H 1243.46 -2.7505 -2.79024 0
M  V30 12963 H 1245.15 -3.07586 -2.57278 0
M  V30 12964 H 1241.74 -4.0179 -1.49207 0
M  V30 12965 H 1245.93 -4.86252 -0.993635 0
M  V30 12966 H 1241.18 -6.10555 -0.32127 0
M  V30 12967 H 1245.36 -6.96192 0.170108 0
M  V30 12968 H 1242.99 -7.58472 0.512209 0
M  V30 12969 N 1244.56 0.579466 -1.4656 0
M  V30 12970 C 1245.51 1.68829 -1.5737 0
M  V30 12971 C 1246.48 1.60759 -0.417825 0
M  V30 12972 O 1247.66 1.79923 -0.635001 0
M  V30 12973 C 1244.8 3.07166 -1.573 0
M  V30 12974 C 1243.92 3.25837 -2.83645 0
M  V30 12975 C 1243.05 4.54441 -2.75057 0
M  V30 12976 C 1242.09 4.66467 -3.96327 0
M  V30 12977 N 1241.23 5.86401 -3.86107 0
M  V30 12978 H 1246.07 1.58928 -2.52083 0
M  V30 12979 H 1243.6 0.774526 -1.25058 0
M  V30 12980 H 1245.56 3.8724 -1.55245 0
M  V30 12981 H 1244.19 3.15956 -0.661166 0
M  V30 12982 H 1243.24 2.39345 -2.95666 0
M  V30 12983 H 1244.56 3.30591 -3.73512 0
M  V30 12984 H 1243.71 5.42748 -2.71126 0
M  V30 12985 H 1242.45 4.52131 -1.82836 0
M  V30 12986 H 1241.45 3.76577 -4.00587 0
M  V30 12987 H 1242.68 4.70554 -4.89649 0
M  V30 12988 H 1240.62 5.85082 -2.96673 0
M  V30 12989 H 1240.54 5.92437 -4.69632 0
M  V30 12990 H 1241.81 6.7713 -3.86155 0
M  V30 12991 N 1246.04 1.3432 0.824371 0
M  V30 12992 C 1246.97 1.2012 1.94027 0
M  V30 12993 C 1247.95 0.0931808 1.62333 0
M  V30 12994 O 1249.13 0.258069 1.86725 0
M  V30 12995 C 1246.26 0.845628 3.27974 0
M  V30 12996 C 1245.31 1.9632 3.7863 0
M  V30 12997 S 1246.14 3.57642 3.98563 0
M  V30 12998 C 1247.3 3.24124 5.35439 0
M  V30 12999 H 1247.53 2.14579 2.05775 0
M  V30 13000 H 1245.06 1.1933 0.979783 0
M  V30 13001 H 1247.02 0.647266 4.05365 0
M  V30 13002 H 1245.68 -0.0805948 3.13997 0
M  V30 13003 H 1244.87 1.66812 4.75594 0
M  V30 13004 H 1244.48 2.11897 3.08181 0
M  V30 13005 H 1246.77 2.75848 6.188 0
M  V30 13006 H 1247.71 4.20222 5.69929 0
M  V30 13007 H 1248.12 2.60343 5.00881 0
M  V30 13008 N 1247.52 -1.0444 1.18026 0
M  V30 13009 C 1248.75 -1.80971 0.996642 0
M  V30 13010 C 1249.15 -1.83568 -0.458192 0
M  V30 13011 O 1248.5 -1.26713 -1.33002 0
M  V30 13012 C 1248.56 -3.28051 1.47048 0
M  V30 13013 C 1248.22 -3.49122 2.94895 0
M  V30 13014 C 1249.22 -3.40621 3.92777 0
M  V30 13015 C 1246.91 -3.7584 3.33241 0
M  V30 13016 C 1248.9 -3.58535 5.27002 0
M  V30 13017 C 1246.59 -3.93402 4.6763 0
M  V30 13018 C 1247.58 -3.84749 5.6432 0
M  V30 13019 O 1247.27 -4.01813 6.96277 0
M  V30 13020 H 1247 -0.576873 0.352411 0
M  V30 13021 H 1249.56 -1.32542 1.56913 0
M  V30 13022 H 1247.79 -3.77431 0.841609 0
M  V30 13023 H 1249.48 -3.8613 1.25135 0
M  V30 13024 H 1250.24 -3.19948 3.64497 0
M  V30 13025 H 1246.12 -3.81674 2.58545 0
M  V30 13026 H 1249.67 -3.51698 6.02457 0
M  V30 13027 H 1245.56 -4.13568 4.95613 0
M  V30 13028 H 1246.33 -4.18995 7.03126 0
M  V30 13029 N 1248.99 -0.981699 -1.2329 0
M  V30 13030 C 1250.41 -0.688087 -1.73558 0
M  V30 13031 C 1250.76 0.795633 -1.79344 0
M  V30 13032 O 1249.88 1.62227 -1.43218 0
M  V30 13033 C 1250.48 -1.24235 -3.152 0
M  V30 13034 C 1249.04 -0.998356 -3.62918 0
M  V30 13035 C 1248.18 -1.3693 -2.41134 0
M  V30 13036 H 1251.13 -1.15539 -1.08795 0
M  V30 13037 H 1251.15 -0.61541 -3.7549 0
M  V30 13038 H 1250.67 -2.32223 -3.10957 0
M  V30 13039 H 1248.77 0.0653847 -3.72543 0
M  V30 13040 H 1248.88 -1.65385 -4.49649 0
M  V30 13041 H 1247.24 -0.787773 -2.42211 0
M  V30 13042 H 1248.03 -2.45898 -2.39561 0
M  V30 13043 N 1250.47 1.3842 -0.753509 0
M  V30 13044 C 1251.72 1.99359 -0.306416 0
M  V30 13045 C 1252.03 1.60492 1.11811 0
M  V30 13046 O 1253.24 2.14401 1.66567 0
M  V30 13047 C 1251.7 3.56453 -0.496895 0
M  V30 13048 C 1251.3 4.04272 -1.9305 0
M  V30 13049 C 1253.05 4.24351 -0.11251 0
M  V30 13050 C 1250.96 5.54007 -2.06955 0
M  V30 13051 H 1249.89 0.745812 -0.110818 0
M  V30 13052 H 1252.54 1.58185 -0.930039 0
M  V30 13053 H 1250.92 3.95515 0.195912 0
M  V30 13054 H 1252.09 3.765 -2.65677 0
M  V30 13055 H 1250.41 3.49098 -2.26979 0
M  V30 13056 H 1253 5.34344 -0.195161 0
M  V30 13057 H 1253.35 4.05668 0.934849 0
M  V30 13058 H 1253.88 3.90528 -0.757168 0
M  V30 13059 H 1250.62 5.77594 -3.09944 0
M  V30 13060 H 1250.14 5.83522 -1.38788 0
M  V30 13061 H 1251.82 6.19704 -1.85945 0
M  V30 13062 N 1251.95 0.502579 1.49372 0
M  V30 13063 C 1253.23 -0.104472 1.95321 0
M  V30 13064 C 1253.61 -1.53975 1.44412 0
M  V30 13065 O 1252.96 -2.18804 0.658566 0
M  V30 13066 C 1253.17 -0.0154833 3.48997 0
M  V30 13067 C 1254.51 -0.188615 4.24181 0
M  V30 13068 O 1255.54 -0.090595 3.56085 0
M  V30 13069 O 1254.4 -0.390068 5.45106 0
M  V30 13070 H 1251.49 -0.0944325 0.821591 0
M  V30 13071 H 1254.04 0.565229 1.6001 0
M  V30 13072 H 1252.81 0.985383 3.7869 0
M  V30 13073 H 1252.43 -0.72526 3.90929 0
M  V30 13074 N 1253.43 -1.55816 0.23648 0
M  V30 13075 C 1254.68 -1.98686 -0.391146 0
M  V30 13076 C 1255 -1.12443 -1.58703 0
M  V30 13077 O 1254.26 -0.172805 -1.94936 0
M  V30 13078 C 1254.56 -3.47039 -0.85434 0
M  V30 13079 C 1254.22 -4.50299 0.232651 0
M  V30 13080 C 1252.89 -4.78259 0.531218 0
M  V30 13081 C 1255.24 -5.1215 0.967027 0
M  V30 13082 C 1252.57 -5.65347 1.56842 0
M  V30 13083 C 1254.92 -6.00363 1.99367 0
M  V30 13084 C 1253.58 -6.2666 2.299 0
M  V30 13085 H 1252.85 -0.727045 -0.14313 0
M  V30 13086 H 1255.5 -1.88419 0.342125 0
M  V30 13087 H 1253.8 -3.54585 -1.66663 0
M  V30 13088 H 1255.5 -3.7759 -1.35005 0
M  V30 13089 H 1252.09 -4.28599 -0.0102014 0
M  V30 13090 H 1256.27 -4.90606 0.749609 0
M  V30 13091 H 1251.53 -5.83981 1.81043 0
M  V30 13092 H 1255.7 -6.47335 2.56769 0
M  V30 13093 H 1253.33 -6.93938 3.1041 0
M  V30 13094 N 1254.91 0.036755 -1.57557 0
M  V30 13095 C 1255.82 1.05687 -2.09446 0
M  V30 13096 C 1256.83 1.40137 -1.03139 0
M  V30 13097 O 1258.01 1.49611 -1.34828 0
M  V30 13098 C 1255.07 2.34114 -2.55717 0
M  V30 13099 C 1254.13 2.06316 -3.76473 0
M  V30 13100 C 1253.37 3.2862 -4.20529 0
M  V30 13101 O 1253.59 4.3902 -3.64167 0
M  V30 13102 O 1252.52 3.14772 -5.13033 0
M  V30 13103 H 1256.35 0.64593 -2.96751 0
M  V30 13104 H 1253.94 0.253235 -1.47238 0
M  V30 13105 H 1255.82 3.09631 -2.85844 0
M  V30 13106 H 1254.49 2.74519 -1.71526 0
M  V30 13107 H 1253.4 1.28392 -3.51378 0
M  V30 13108 H 1254.73 1.70772 -4.61625 0
M  V30 13109 N 1256.39 1.54543 0.308881 0
M  V30 13110 C 1257.33 1.84949 1.38067 0
M  V30 13111 C 1258.3 0.697746 1.50734 0
M  V30 13112 O 1259.49 0.94561 1.65719 0
M  V30 13113 C 1256.63 2.09544 2.74199 0
M  V30 13114 C 1255.74 3.37193 2.70046 0
M  V30 13115 C 1254.88 3.51672 3.98121 0
M  V30 13116 C 1253.91 4.73143 3.88333 0
M  V30 13117 N 1253.05 4.84469 5.08167 0
M  V30 13118 H 1257.89 2.76379 1.11438 0
M  V30 13119 H 1255.43 1.36863 0.539153 0
M  V30 13120 H 1257.39 2.21798 3.53358 0
M  V30 13121 H 1256.02 1.21389 2.99106 0
M  V30 13122 H 1255.07 3.33601 1.82796 0
M  V30 13123 H 1256.38 4.26468 2.58701 0
M  V30 13124 H 1255.53 3.63548 4.85714 0
M  V30 13125 H 1254.27 2.60516 4.1229 0
M  V30 13126 H 1253.28 4.61308 2.99124 0
M  V30 13127 H 1254.5 5.65698 3.75716 0
M  V30 13128 H 1252.45 3.96234 5.22814 0
M  V30 13129 H 1252.37 5.67733 4.99215 0
M  V30 13130 H 1253.63 5.00693 5.97434 0
M  V30 13131 N 1257.86 -0.571685 1.46866 0
M  V30 13132 C 1259.14 -1.33216 1.43223 0
M  V30 13133 C 1259.52 -2.1075 0.121495 0
M  V30 13134 O 1258.87 -2.10157 -0.897003 0
M  V30 13135 C 1259.08 -2.24888 2.66882 0
M  V30 13136 C 1260.43 -2.86369 3.13493 0
M  V30 13137 O 1261.45 -2.35197 2.67509 0
M  V30 13138 O 1260.31 -3.79342 3.93398 0
M  V30 13139 H 1257.4 -0.599106 0.570089 0
M  V30 13140 H 1259.95 -0.591788 1.59047 0
M  V30 13141 H 1258.72 -1.67099 3.53827 0
M  V30 13142 H 1258.34 -3.06246 2.53573 0
M  V30 13143 N 1259.34 -1.34755 -0.817236 0
M  V30 13144 C 1260.62 -1.18007 -1.55993 0
M  V30 13145 C 1261 0.245079 -2.09673 0
M  V30 13146 O 1260.35 1.24718 -1.91462 0
M  V30 13147 C 1260.56 -2.23934 -2.67684 0
M  V30 13148 C 1261.9 -2.59201 -3.36303 0
M  V30 13149 O 1262.93 -2.22767 -2.77945 0
M  V30 13150 O 1261.79 -3.21809 -4.41702 0
M  V30 13151 H 1258.88 -0.4578 -0.688729 0
M  V30 13152 H 1261.43 -1.46405 -0.858117 0
M  V30 13153 H 1260.2 -3.19568 -2.25813 0
M  V30 13154 H 1259.82 -1.96745 -3.4551 0
M  V30 13155 N 1260.82 1.03812 -1.18578 0
M  V30 13156 C 1262.1 1.74062 -0.892288 0
M  V30 13157 C 1262.48 2.02267 0.604256 0
M  V30 13158 O 1261.82 1.66988 1.55972 0
M  V30 13159 C 1262.03 3.024 -1.74228 0
M  V30 13160 C 1263.38 3.76088 -1.97087 0
M  V30 13161 O 1264.41 3.12305 -1.71302 0
M  V30 13162 O 1263.27 4.90732 -2.40509 0
M  V30 13163 H 1260.36 0.757567 -0.331695 0
M  V30 13164 H 1262.91 1.09855 -1.29345 0
M  V30 13165 H 1261.68 2.77713 -2.75665 0
M  V30 13166 H 1261.3 3.74346 -1.3398 0
M  V30 13167 N 1262.3 0.988223 1.22768 0
M  V30 13168 C 1263.52 0.679426 1.95955 0
M  V30 13169 C 1263.95 -0.748483 1.72567 0
M  V30 13170 O 1263.31 -1.51097 1.00197 0
M  V30 13171 C 1263.35 0.985284 3.46878 0
M  V30 13172 O 1262.46 0.0814607 4.1232 0
M  V30 13173 H 1261.8 0.254749 0.613188 0
M  V30 13174 H 1264.33 1.32393 1.55991 0
M  V30 13175 H 1264.34 0.925198 3.97371 0
M  V30 13176 H 1263.01 2.02581 3.63227 0
M  V30 13177 H 1261.59 0.196629 3.72381 0
M  V30 13178 N 1263.78 -1.38018 0.760839 0
M  V30 13179 C 1264.72 -2.32251 0.127425 0
M  V30 13180 C 1265.72 -1.54387 -0.69722 0
M  V30 13181 O 1266.92 -1.69864 -0.595505 0
M  V30 13182 H 1263.3 -0.751666 0.0224141 0
M  V30 13183 H 1265.27 -2.8327 0.93813 0
M  V30 13184 C 1264.02 -3.39606 -0.745849 0
M  V30 13185 H 1263.34 -3.99618 -0.120679 0
M  V30 13186 H 1264.78 -4.07931 -1.15621 0
M  V30 13187 C 1263.24 -2.78778 -1.89167 0
M  V30 13188 O 1263.77 -2.68661 -2.98637 0
M  V30 13189 N 1261.98 -2.36481 -1.68894 0
M  V30 13190 H 1261.52 -2.4491 -0.798551 0
M  V30 13191 H 1261.48 -1.96126 -2.45728 0
M  V30 13192 N 1265.25 -0.510493 -1.49103 0
M  V30 13193 C 1266.5 0.0306436 -2.02477 0
M  V30 13194 C 1266.83 1.36113 -1.38937 0
M  V30 13195 O 1266.08 1.88731 -0.517584 0
M  V30 13196 C 1266.38 0.221921 -3.5671 0
M  V30 13197 C 1266.05 -1.03176 -4.38937 0
M  V30 13198 C 1264.71 -1.37539 -4.61125 0
M  V30 13199 C 1267.06 -1.86464 -4.86704 0
M  V30 13200 C 1264.39 -2.55124 -5.28326 0
M  V30 13201 C 1266.74 -3.03211 -5.55199 0
M  V30 13202 C 1265.41 -3.37943 -5.75631 0
M  V30 13203 H 1264.68 0.0112133 -0.740915 0
M  V30 13204 H 1267.32 -0.672574 -1.79301 0
M  V30 13205 H 1265.63 1.00775 -3.78618 0
M  V30 13206 H 1267.33 0.655223 -3.95611 0
M  V30 13207 H 1263.92 -0.754105 -4.21914 0
M  V30 13208 H 1268.1 -1.61229 -4.69381 0
M  V30 13209 H 1263.36 -2.8226 -5.42346 0
M  V30 13210 H 1267.53 -3.68068 -5.91185 0
M  V30 13211 H 1265.16 -4.29158 -6.27477 0
M  V30 13212 N 1266.73 1.55688 -0.24474 0
M  V30 13213 C 1267.68 2.17946 0.669596 0
M  V30 13214 C 1268.67 1.13468 1.14078 0
M  V30 13215 O 1269.86 1.39385 1.09091 0
M  V30 13216 C 1266.99 2.8808 1.86721 0
M  V30 13217 C 1266.07 3.99811 1.41463 0
M  V30 13218 N 1266.46 5.01261 0.676131 0
M  V30 13219 C 1264.76 4.12327 1.70008 0
M  V30 13220 C 1265.46 5.80017 0.442113 0
M  V30 13221 N 1264.44 5.34216 1.00569 0
M  V30 13222 H 1268.24 2.93739 0.0971953 0
M  V30 13223 H 1265.75 1.62332 -0.0469646 0
M  V30 13224 H 1267.75 3.31109 2.53322 0
M  V30 13225 H 1266.41 2.13789 2.44385 0
M  V30 13226 H 1267.42 5.1687 0.326459 0
M  V30 13227 H 1264.1 3.49206 2.28827 0
M  V30 13228 H 1265.49 6.71739 -0.14729 0
M  V30 13229 N 1268.21 -0.0283989 1.57574 0
M  V30 13230 C 1269.14 -1.06191 2.01987 0
M  V30 13231 C 1270.12 -1.35131 0.90434 0
M  V30 13232 O 1271.3 -1.47777 1.17023 0
M  V30 13233 C 1268.43 -2.39646 2.39348 0
M  V30 13234 C 1267.48 -2.26558 3.6135 0
M  V30 13235 S 1268.31 -1.61839 5.10459 0
M  V30 13236 C 1269.47 -2.96783 5.51063 0
M  V30 13237 H 1269.7 -0.683625 2.89333 0
M  V30 13238 H 1267.23 -0.238394 1.52548 0
M  V30 13239 H 1269.19 -3.16394 2.61544 0
M  V30 13240 H 1267.85 -2.74622 1.52452 0
M  V30 13241 H 1267.04 -3.25079 3.85149 0
M  V30 13242 H 1266.65 -1.57954 3.39008 0
M  V30 13243 H 1268.94 -3.93111 5.51788 0
M  V30 13244 H 1269.88 -2.77716 6.51367 0
M  V30 13245 H 1270.29 -2.99386 4.78569 0
M  V30 13246 N 1269.69 -1.54705 -0.300681 0
M  V30 13247 C 1270.96 -1.6468 -1.05546 0
M  V30 13248 C 1271.34 -0.495292 -2.05207 0
M  V30 13249 O 1270.69 0.507944 -2.22783 0
M  V30 13250 C 1270.9 -3.02702 -1.73703 0
M  V30 13251 C 1272.25 -3.59527 -2.25888 0
M  V30 13252 O 1273.27 -3.05156 -1.83735 0
M  V30 13253 O 1272.13 -4.54727 -3.03126 0
M  V30 13254 H 1269.23 -0.667769 -0.487867 0
M  V30 13255 H 1271.77 -1.6705 -0.298743 0
M  V30 13256 H 1270.55 -3.7795 -1.01338 0
M  V30 13257 H 1270.17 -3.0411 -2.5613 0
M  V30 13258 N 1271.17 0.563888 -1.47167 0
M  V30 13259 C 1272.41 1.32136 -1.53448 0
M  V30 13260 C 1272.74 1.9353 -0.19396 0
M  V30 13261 O 1272 1.78038 0.812456 0
M  V30 13262 C 1272.3 2.45678 -2.59571 0
M  V30 13263 C 1271.96 2.02157 -4.03043 0
M  V30 13264 C 1270.62 1.90003 -4.421 0
M  V30 13265 C 1272.98 1.68846 -4.93093 0
M  V30 13266 C 1270.3 1.42825 -5.6905 0
M  V30 13267 C 1272.66 1.2314 -6.20499 0
M  V30 13268 C 1271.32 1.09578 -6.58444 0
M  V30 13269 H 1270.59 0.483519 -0.561507 0
M  V30 13270 H 1273.24 0.633042 -1.80734 0
M  V30 13271 H 1271.54 3.20037 -2.26017 0
M  V30 13272 H 1273.24 3.03871 -2.61655 0
M  V30 13273 H 1269.83 2.12557 -3.7218 0
M  V30 13274 H 1274.01 1.77111 -4.63622 0
M  V30 13275 H 1269.27 1.30983 -5.97205 0
M  V30 13276 H 1273.44 0.964247 -6.89692 0
M  V30 13277 H 1271.07 0.727975 -7.56706 0
M  V30 13278 N 1272.64 1.35187 0.810078 0
M  V30 13279 C 1273.89 1.27602 1.56207 0
M  V30 13280 C 1274.21 -0.148621 1.95035 0
M  V30 13281 O 1275.41 -0.346721 2.69277 0
M  V30 13282 C 1273.87 2.23759 2.81886 0
M  V30 13283 C 1273.48 3.71549 2.5031 0
M  V30 13284 C 1275.22 2.25109 3.59898 0
M  V30 13285 C 1273.13 4.5954 3.7226 0
M  V30 13286 H 1272.06 0.474078 0.586316 0
M  V30 13287 H 1274.71 1.6043 0.890759 0
M  V30 13288 H 1273.09 1.83898 3.5071 0
M  V30 13289 H 1274.26 4.20025 1.89515 0
M  V30 13290 H 1272.58 3.72773 1.85551 0
M  V30 13291 H 1275.18 2.88066 4.50469 0
M  V30 13292 H 1275.52 1.25387 3.96968 0
M  V30 13293 H 1276.05 2.63481 2.98031 0
M  V30 13294 H 1272.79 5.60246 3.403 0
M  V30 13295 H 1272.31 4.15792 4.32293 0
M  V30 13296 H 1273.99 4.74789 4.39528 0
M  V30 13297 N 1274.12 -1.03182 1.19127 0
M  V30 13298 C 1275.37 -1.76794 0.993563 0
M  V30 13299 C 1275.7 -1.88306 -0.474809 0
M  V30 13300 O 1274.98 -1.39769 -1.35258 0
M  V30 13301 C 1275.26 -3.19573 1.65968 0
M  V30 13302 C 1275.11 -3.1595 3.2015 0
M  V30 13303 C 1276.43 -4.17897 1.38023 0
M  V30 13304 H 1273.55 -0.641768 0.362357 0
M  V30 13305 H 1276.19 -1.20472 1.46924 0
M  V30 13306 H 1274.34 -3.67663 1.25524 0
M  V30 13307 H 1276.01 -2.7578 3.69788 0
M  V30 13308 H 1274.26 -2.53743 3.51848 0
M  V30 13309 H 1274.93 -4.16811 3.61901 0
M  V30 13310 H 1277.4 -3.78394 1.73082 0
M  V30 13311 H 1276.28 -5.15997 1.87186 0
M  V30 13312 H 1276.54 -4.41048 0.304812 0
M  V30 13313 N 1275.6 -0.99472 -1.22242 0
M  V30 13314 C 1276.56 -0.551619 -2.22463 0
M  V30 13315 C 1277.56 0.366498 -1.56568 0
M  V30 13316 O 1278.75 0.158204 -1.7348 0
M  V30 13317 C 1275.89 0.197416 -3.40328 0
M  V30 13318 H 1277.08 -1.43795 -2.63179 0
M  V30 13319 H 1274.63 -0.782121 -1.35324 0
M  V30 13320 H 1275.37 1.09965 -3.05087 0
M  V30 13321 H 1275.15 -0.461829 -3.89371 0
M  V30 13322 H 1276.64 0.495534 -4.1465 0
M  V30 13323 N 1277.08 1.37613 -0.768148 0
M  V30 13324 C 1278.04 2.28653 -0.158283 0
M  V30 13325 C 1279.04 1.47862 0.631936 0
M  V30 13326 O 1280.23 1.68124 0.456055 0
M  V30 13327 C 1277.36 3.31776 0.783435 0
M  V30 13328 H 1278.56 2.84094 -0.960772 0
M  V30 13329 H 1276.11 1.46818 -0.536116 0
M  V30 13330 H 1276.84 2.81452 1.61106 0
M  V30 13331 H 1276.63 3.91488 0.219016 0
M  V30 13332 H 1278.12 3.99816 1.20568 0
M  V30 13333 N 1278.56 0.518393 1.4883 0
M  V30 13334 C 1279.78 -0.0183131 2.07392 0
M  V30 13335 C 1280.21 -1.28468 1.37396 0
M  V30 13336 O 1279.56 -1.75975 0.436177 0
M  V30 13337 C 1279.61 -0.237211 3.59819 0
M  V30 13338 O 1278.72 -1.30835 3.91096 0
M  V30 13339 H 1278.06 0.0339621 0.663131 0
M  V30 13340 H 1280.59 0.722993 1.914 0
M  V30 13341 H 1280.6 -0.463424 4.0536 0
M  V30 13342 H 1279.27 0.687925 4.10171 0
M  V30 13343 H 1277.85 -1.06571 3.57347 0
M  V30 13344 N 1280.03 -1.55556 0.252993 0
M  V30 13345 C 1280.98 -2.23035 -0.660161 0
M  V30 13346 C 1281.98 -1.21994 -1.17532 0
M  V30 13347 O 1283.18 -1.39989 -1.13151 0
M  V30 13348 H 1279.56 -0.715516 -0.23139 0
M  V30 13349 H 1281.53 -2.98323 -0.0679506 0
M  V30 13350 C 1280.28 -2.94817 -1.84332 0
M  V30 13351 H 1279.6 -3.72342 -1.45607 0
M  V30 13352 H 1281.04 -3.45386 -2.45936 0
M  V30 13353 C 1279.5 -1.99033 -2.71822 0
M  V30 13354 O 1280.03 -1.5273 -3.71533 0
M  V30 13355 N 1278.24 -1.66004 -2.38518 0
M  V30 13356 H 1277.78 -2.03853 -1.57485 0
M  V30 13357 H 1277.74 -1.02183 -2.97331 0
M  V30 13358 N 1281.51 0.0200419 -1.57587 0
M  V30 13359 C 1282.44 1.01715 -2.10181 0
M  V30 13360 C 1283.42 1.37136 -1.00636 0
M  V30 13361 O 1284.61 1.45862 -1.2821 0
M  V30 13362 C 1281.74 2.31531 -2.58865 0
M  V30 13363 C 1280.69 2.10327 -3.72755 0
M  V30 13364 C 1280.02 3.45981 -4.07678 0
M  V30 13365 C 1281.32 1.4821 -5.0083 0
M  V30 13366 H 1283.01 0.579307 -2.93742 0
M  V30 13367 H 1280.56 0.277211 -1.41307 0
M  V30 13368 H 1282.51 3.01623 -2.94281 0
M  V30 13369 H 1281.24 2.77392 -1.72399 0
M  V30 13370 H 1279.89 1.42665 -3.37701 0
M  V30 13371 H 1279.54 3.89508 -3.18265 0
M  V30 13372 H 1279.24 3.32616 -4.84397 0
M  V30 13373 H 1280.77 4.17421 -4.45637 0
M  V30 13374 H 1282.18 2.08232 -5.34146 0
M  V30 13375 H 1280.58 1.45393 -5.82221 0
M  V30 13376 H 1281.65 0.448942 -4.82817 0
M  V30 13377 N 1282.99 1.54862 0.292472 0
M  V30 13378 C 1284.41 1.46267 0.638611 0
M  V30 13379 C 1284.61 0.660824 1.90356 0
M  V30 13380 O 1283.66 0.171909 2.51914 0
M  V30 13381 C 1284.98 2.90309 0.783675 0
M  V30 13382 C 1286.52 3.00404 0.879004 0
M  V30 13383 C 1287 4.4566 1.056 0
M  V30 13384 N 1288.49 4.49406 1.122 0
M  V30 13385 C 1289.22 5.5899 1.2774 0
M  V30 13386 N 1288.72 6.78482 1.40123 0
M  V30 13387 N 1290.51 5.46695 1.30696 0
M  V30 13388 H 1282.66 2.0546 -0.538521 0
M  V30 13389 H 1284.93 0.930879 -0.179354 0
M  V30 13390 H 1284.63 3.5162 -0.0750437 0
M  V30 13391 H 1284.51 3.38215 1.67004 0
M  V30 13392 H 1286.89 2.39201 1.7282 0
M  V30 13393 H 1286.98 2.55781 -0.0315624 0
M  V30 13394 H 1286.62 5.07459 0.211535 0
M  V30 13395 H 1286.55 4.87921 1.98092 0
M  V30 13396 H 1289.04 3.63322 1.03948 0
M  V30 13397 H 1289.35 7.57752 1.5176 0
M  V30 13398 H 1287.7 6.81331 1.37163 0
M  V30 13399 H 1290.89 4.52288 1.20638 0
M  V30 13400 H 1291.06 6.32146 1.42463 0
M  V30 13401 N 1284.47 -0.556076 1.47464 0
M  V30 13402 C 1285.43 -1.64515 1.59586 0
M  V30 13403 C 1286.43 -1.53751 0.470881 0
M  V30 13404 O 1287.62 -1.57889 0.735979 0
M  V30 13405 C 1284.75 -3.0406 1.54143 0
M  V30 13406 H 1285.95 -1.55116 2.56669 0
M  V30 13407 H 1283.5 -0.776087 1.35671 0
M  V30 13408 H 1284.23 -3.18991 0.584395 0
M  V30 13409 H 1284.02 -3.13282 2.3579 0
M  V30 13410 H 1285.51 -3.8329 1.65766 0
M  V30 13411 N 1285.95 -1.35615 -0.802897 0
M  V30 13412 C 1286.86 -1.3096 -1.94645 0
M  V30 13413 C 1287.87 -0.213909 -1.7268 0
M  V30 13414 O 1289.05 -0.443932 -1.96446 0
M  V30 13415 C 1286.11 -1.08483 -3.2929 0
M  V30 13416 C 1285.18 -2.27401 -3.64126 0
M  V30 13417 C 1284.41 -2.05987 -4.92347 0
M  V30 13418 O 1284.63 -1.02819 -5.61057 0
M  V30 13419 O 1283.57 -2.93439 -5.25526 0
M  V30 13420 H 1287.39 -2.27209 -2.01519 0
M  V30 13421 H 1284.98 -1.16024 -0.941214 0
M  V30 13422 H 1286.86 -0.978118 -4.09891 0
M  V30 13423 H 1285.53 -0.152885 -3.23339 0
M  V30 13424 H 1284.44 -2.43638 -2.83886 0
M  V30 13425 H 1285.77 -3.19055 -3.74786 0
M  V30 13426 N 1287.43 1.02549 -1.19673 0
M  V30 13427 C 1288.37 2.13015 -0.934209 0
M  V30 13428 C 1289.37 1.69035 0.111208 0
M  V30 13429 O 1290.57 1.79959 -0.0383449 0
M  V30 13430 H 1286.95 0.696015 -0.284722 0
M  V30 13431 H 1288.92 2.32346 -1.87238 0
M  V30 13432 C 1287.67 3.44185 -0.493124 0
M  V30 13433 H 1286.99 3.78447 -1.28911 0
M  V30 13434 H 1288.43 4.22565 -0.348577 0
M  V30 13435 C 1286.89 3.27427 0.793277 0
M  V30 13436 O 1287.42 3.56362 1.85388 0
M  V30 13437 N 1285.63 2.80706 0.751837 0
M  V30 13438 H 1285.17 2.57359 -0.111517 0
M  V30 13439 H 1285.13 2.69874 1.61292 0
M  V30 13440 N 1288.9 1.00119 1.21713 0
M  V30 13441 C 1290.13 0.699416 1.94401 0
M  V30 13442 C 1290.54 -0.741376 1.7407 0
M  V30 13443 O 1289.88 -1.51286 1.04203 0
M  V30 13444 C 1289.95 0.935875 3.47105 0
M  V30 13445 C 1289.61 2.36276 3.91181 0
M  V30 13446 C 1290.61 3.34276 3.9819 0
M  V30 13447 C 1288.29 2.6994 4.23601 0
M  V30 13448 C 1290.29 4.6401 4.37005 0
M  V30 13449 C 1287.97 3.99891 4.62094 0
M  V30 13450 C 1288.97 4.96737 4.68766 0
M  V30 13451 O 1288.66 6.24364 5.06384 0
M  V30 13452 H 1288.39 0.257233 0.625146 0
M  V30 13453 H 1290.95 1.34098 1.55585 0
M  V30 13454 H 1289.18 0.237133 3.85972 0
M  V30 13455 H 1290.86 0.628075 4.01011 0
M  V30 13456 H 1291.63 3.09603 3.73324 0
M  V30 13457 H 1287.51 1.95257 4.17607 0
M  V30 13458 H 1291.05 5.39601 4.42128 0
M  V30 13459 H 1286.95 4.2435 4.86412 0
M  V30 13460 H 1287.72 6.28424 5.24429 0
M  V30 13461 N 1290.38 -1.37203 0.775435 0
M  V30 13462 C 1291.66 -1.93783 0.266005 0
M  V30 13463 C 1292.04 -1.70875 -1.23956 0
M  V30 13464 O 1291.39 -1.05965 -2.02444 0
M  V30 13465 C 1291.6 -3.43018 0.643404 0
M  V30 13466 C 1292.94 -4.20119 0.615267 0
M  V30 13467 O 1293.97 -3.51396 0.583018 0
M  V30 13468 O 1292.83 -5.42673 0.645637 0
M  V30 13469 H 1289.92 -0.824649 0.0623107 0
M  V30 13470 H 1292.47 -1.46468 0.857036 0
M  V30 13471 H 1291.24 -3.5329 1.68232 0
M  V30 13472 H 1290.86 -3.97592 0.0255138 0
M  V30 13473 N 1291.86 -0.526279 -1.48553 0
M  V30 13474 C 1293.11 0.0111473 -2.01697 0
M  V30 13475 C 1293.42 1.35675 -1.40895 0
M  V30 13476 O 1294.63 1.98233 -1.85515 0
M  V30 13477 C 1293.08 0.0702721 -3.59831 0
M  V30 13478 C 1292.69 -1.27022 -4.29616 0
M  V30 13479 C 1294.44 0.556722 -4.20834 0
M  V30 13480 C 1292.34 -1.17188 -5.79673 0
M  V30 13481 H 1291.27 0.00793697 -0.753958 0
M  V30 13482 H 1293.92 -0.669503 -1.70851 0
M  V30 13483 H 1292.31 0.81592 -3.87503 0
M  V30 13484 H 1293.48 -2.03114 -4.1362 0
M  V30 13485 H 1291.79 -1.69211 -3.80469 0
M  V30 13486 H 1294.39 0.648205 -5.30756 0
M  V30 13487 H 1294.73 1.56163 -3.859 0
M  V30 13488 H 1295.27 -0.133132 -3.97577 0
M  V30 13489 H 1292.01 -2.15182 -6.19174 0
M  V30 13490 H 1291.53 -0.452259 -5.98093 0
M  V30 13491 H 1293.21 -0.861011 -6.41245 0
M  V30 13492 N 1293.34 1.5542 -0.261239 0
M  V30 13493 C 1294.75 1.85161 0.239195 0
M  V30 13494 C 1295.1 1.18319 1.56509 0
M  V30 13495 O 1294.22 0.4666 2.1131 0
M  V30 13496 C 1294.82 3.3592 0.440781 0
M  V30 13497 C 1293.38 3.65837 0.885461 0
M  V30 13498 C 1292.53 2.77285 -0.0291982 0
M  V30 13499 H 1295.48 1.51158 -0.483417 0
M  V30 13500 H 1295.5 3.58276 1.28136 0
M  V30 13501 H 1295.01 3.84541 -0.524382 0
M  V30 13502 H 1293.11 3.22705 1.86259 0
M  V30 13503 H 1293.22 4.73469 0.732394 0
M  V30 13504 H 1291.59 2.50045 0.484701 0
M  V30 13505 H 1292.37 3.28716 -0.989992 0
M  V30 13506 N 1294.82 -0.0116844 1.57596 0
M  V30 13507 C 1296.04 -0.713924 1.94725 0
M  V30 13508 C 1296.47 -1.67157 0.862565 0
M  V30 13509 O 1295.82 -1.80401 -0.180308 0
M  V30 13510 C 1295.87 -1.43214 3.30941 0
M  V30 13511 O 1294.98 -2.5461 3.24419 0
M  V30 13512 H 1294.32 -0.190772 0.636005 0
M  V30 13513 H 1296.85 0.0380247 2.04565 0
M  V30 13514 H 1296.86 -1.79819 3.66237 0
M  V30 13515 H 1295.53 -0.729906 4.09445 0
M  V30 13516 H 1294.11 -2.20419 3.00782 0
M  V30 13517 N 1296.29 -1.55015 -0.284256 0
M  V30 13518 C 1297.26 -1.8636 -1.33426 0
M  V30 13519 C 1298.26 -0.737457 -1.42892 0
M  V30 13520 O 1299.45 -1.00569 -1.42238 0
M  V30 13521 C 1296.58 -2.05884 -2.71707 0
M  V30 13522 H 1297.77 -2.80212 -1.06869 0
M  V30 13523 H 1295.32 -1.47334 -0.521767 0
M  V30 13524 H 1296.06 -1.14376 -3.03461 0
M  V30 13525 H 1295.84 -2.87867 -2.66224 0
M  V30 13526 H 1297.33 -2.31447 -3.47595 0
M  V30 13527 N 1297.77 0.548248 -1.47757 0
M  V30 13528 C 1299.05 1.3092 -1.45325 0
M  V30 13529 C 1299.43 2.1053 -0.155008 0
M  V30 13530 O 1298.78 2.11558 0.863455 0
M  V30 13531 C 1298.99 2.20614 -2.70426 0
M  V30 13532 C 1300.33 2.81345 -3.18009 0
M  V30 13533 O 1301.36 2.30911 -2.71216 0
M  V30 13534 O 1300.22 3.73036 -3.99383 0
M  V30 13535 H 1297.31 0.58996 -0.579548 0
M  V30 13536 H 1299.86 0.56641 -1.59968 0
M  V30 13537 H 1298.63 1.61449 -3.56441 0
M  V30 13538 H 1298.25 3.02173 -2.58413 0
M  V30 13539 N 1299.25 1.36039 0.795694 0
M  V30 13540 C 1300.67 1.16315 1.09284 0
M  V30 13541 C 1300.87 -0.017024 2.01493 0
M  V30 13542 O 1299.92 -0.684316 2.4305 0
M  V30 13543 C 1301.23 2.47113 1.71335 0
M  V30 13544 C 1302.78 2.5342 1.83705 0
M  V30 13545 C 1303.26 3.84289 2.49171 0
M  V30 13546 N 1304.75 3.856 2.56645 0
M  V30 13547 C 1305.48 4.83597 3.08094 0
M  V30 13548 N 1304.98 5.91985 3.59897 0
M  V30 13549 N 1306.77 4.71023 3.06748 0
M  V30 13550 H 1298.92 2.11611 0.182957 0
M  V30 13551 H 1301.19 0.937035 0.143771 0
M  V30 13552 H 1300.89 3.33708 1.11049 0
M  V30 13553 H 1300.77 2.62461 2.70914 0
M  V30 13554 H 1303.15 1.67247 2.43131 0
M  V30 13555 H 1303.23 2.41977 0.829495 0
M  V30 13556 H 1302.88 4.70865 1.90391 0
M  V30 13557 H 1302.81 3.93025 3.50484 0
M  V30 13558 H 1305.3 3.07291 2.19956 0
M  V30 13559 H 1305.61 6.6274 3.97487 0
M  V30 13560 H 1303.96 5.95662 3.58066 0
M  V30 13561 H 1307.15 3.8548 2.65561 0
M  V30 13562 H 1307.32 5.47555 3.46536 0
M  V30 13563 N 1300.73 -1.01913 1.20215 0
M  V30 13564 C 1301.68 -2.08774 0.916367 0
M  V30 13565 C 1302.66 -1.60431 -0.122796 0
M  V30 13566 O 1303.85 -1.76799 0.0842336 0
M  V30 13567 C 1300.98 -3.40102 0.467517 0
M  V30 13568 C 1300.07 -3.95153 1.53997 0
M  V30 13569 N 1300.46 -4.23745 2.76178 0
M  V30 13570 C 1298.76 -4.23274 1.40554 0
M  V30 13571 C 1299.46 -4.681 3.45336 0
M  V30 13572 N 1298.44 -4.70224 2.72745 0
M  V30 13573 H 1302.24 -2.28786 1.84484 0
M  V30 13574 H 1299.75 -1.19861 1.09577 0
M  V30 13575 H 1301.75 -4.16184 0.244195 0
M  V30 13576 H 1300.41 -3.21505 -0.454358 0
M  V30 13577 H 1301.42 -4.12728 3.12852 0
M  V30 13578 H 1298.1 -4.1389 0.547877 0
M  V30 13579 H 1299.49 -4.99063 4.49873 0
M  V30 13580 N 1302.21 -1.00763 -1.2118 0
M  V30 13581 C 1303.15 -0.570257 -2.23644 0
M  V30 13582 C 1304.12 0.405039 -1.61086 0
M  V30 13583 O 1305.31 0.306496 -1.88322 0
M  V30 13584 C 1302.45 0.094325 -3.44971 0
M  V30 13585 C 1301.56 -0.924463 -4.21993 0
M  V30 13586 C 1300.7 -0.231869 -5.30694 0
M  V30 13587 C 1299.74 -1.23803 -5.99449 0
M  V30 13588 N 1298.87 -0.572725 -6.9976 0
M  V30 13589 H 1303.71 -1.44869 -2.60417 0
M  V30 13590 H 1301.25 -0.725369 -1.27972 0
M  V30 13591 H 1303.21 0.496689 -4.14233 0
M  V30 13592 H 1301.84 0.936457 -3.08918 0
M  V30 13593 H 1300.89 -1.44505 -3.51884 0
M  V30 13594 H 1302.2 -1.69004 -4.69296 0
M  V30 13595 H 1301.36 0.226465 -6.06277 0
M  V30 13596 H 1300.09 0.566092 -4.84403 0
M  V30 13597 H 1299.1 -1.70684 -5.22635 0
M  V30 13598 H 1300.32 -2.03711 -6.47826 0
M  V30 13599 H 1298.27 0.205531 -6.55678 0
M  V30 13600 H 1298.19 -1.27651 -7.45145 0
M  V30 13601 H 1299.46 -0.137683 -7.79378 0
M  V30 13602 N 1303.68 1.3679 -0.7827 0
M  V30 13603 C 1304.91 2.04206 -0.362571 0
M  V30 13604 C 1305.33 1.58637 1.01074 0
M  V30 13605 O 1304.69 0.751692 1.64983 0
M  V30 13606 C 1304.74 3.58062 -0.4271 0
M  V30 13607 O 1303.84 4.08463 0.56845 0
M  V30 13608 H 1303.19 0.645638 -0.155073 0
M  V30 13609 H 1305.72 1.74883 -1.06194 0
M  V30 13610 H 1305.73 4.0698 -0.288298 0
M  V30 13611 H 1304.4 3.90582 -1.42893 0
M  V30 13612 H 1302.98 3.70835 0.391863 0
M  V30 13613 N 1305.16 0.53415 1.48272 0
M  V30 13614 C 1306.11 -0.226335 2.29688 0
M  V30 13615 C 1307.08 -0.929937 1.37628 0
M  V30 13616 O 1308.26 -0.930149 1.66592 0
M  V30 13617 C 1305.4 -1.26472 3.2109 0
M  V30 13618 C 1304.52 -0.569542 4.28229 0
M  V30 13619 C 1303.65 -1.59122 5.06807 0
M  V30 13620 C 1302.69 -0.879734 6.05745 0
M  V30 13621 N 1301.83 -1.84715 6.77366 0
M  V30 13622 H 1306.67 0.474111 2.94204 0
M  V30 13623 H 1304.21 0.245643 1.45034 0
M  V30 13624 H 1306.16 -1.87911 3.72485 0
M  V30 13625 H 1304.79 -1.9335 2.58487 0
M  V30 13626 H 1303.85 0.158872 3.80068 0
M  V30 13627 H 1305.16 -0.0110904 4.98799 0
M  V30 13628 H 1304.31 -2.27977 5.62238 0
M  V30 13629 H 1303.05 -2.18357 4.36086 0
M  V30 13630 H 1302.06 -0.177134 5.49515 0
M  V30 13631 H 1303.28 -0.293439 6.78466 0
M  V30 13632 H 1301.23 -2.42851 6.09393 0
M  V30 13633 H 1301.14 -1.34025 7.44025 0
M  V30 13634 H 1302.41 -2.52756 7.37384 0
M  V30 13635 N 1306.64 -1.55279 0.269478 0
M  V30 13636 C 1307.57 -2.25278 -0.614188 0
M  V30 13637 C 1308.55 -1.24092 -1.1634 0
M  V30 13638 O 1309.74 -1.52799 -1.19858 0
M  V30 13639 C 1306.87 -2.96956 -1.80096 0
M  V30 13640 C 1305.82 -4.05021 -1.38353 0
M  V30 13641 C 1305.15 -4.64244 -2.65295 0
M  V30 13642 C 1306.45 -5.19523 -0.537886 0
M  V30 13643 H 1308.14 -2.99385 -0.0304397 0
M  V30 13644 H 1305.69 -1.43994 -0.0132004 0
M  V30 13645 H 1307.64 -3.44633 -2.42499 0
M  V30 13646 H 1306.36 -2.20374 -2.41045 0
M  V30 13647 H 1305.02 -3.58146 -0.78273 0
M  V30 13648 H 1304.67 -3.84337 -3.2449 0
M  V30 13649 H 1304.37 -5.37208 -2.38079 0
M  V30 13650 H 1305.89 -5.14668 -3.28557 0
M  V30 13651 H 1307.31 -5.63287 -1.06677 0
M  V30 13652 H 1305.71 -5.99014 -0.360845 0
M  V30 13653 H 1306.78 -4.82857 0.444672 0
M  V30 13654 N 1308.12 0.00332656 -1.576 0
M  V30 13655 C 1309.37 0.688044 -1.89602 0
M  V30 13656 C 1309.68 1.75121 -0.871316 0
M  V30 13657 O 1310.89 2.49032 -1.08144 0
M  V30 13658 C 1309.34 1.27494 -3.36561 0
M  V30 13659 C 1308.95 0.246771 -4.4732 0
M  V30 13660 C 1310.69 1.93804 -3.77677 0
M  V30 13661 C 1308.6 0.843471 -5.85354 0
M  V30 13662 H 1307.53 0.260747 -0.707479 0
M  V30 13663 H 1310.18 -0.0566727 -1.83412 0
M  V30 13664 H 1308.56 2.07022 -3.37577 0
M  V30 13665 H 1309.74 -0.523668 -4.57815 0
M  V30 13666 H 1308.05 -0.3157 -4.15202 0
M  V30 13667 H 1310.65 2.39347 -4.78139 0
M  V30 13668 H 1310.99 2.7672 -3.11017 0
M  V30 13669 H 1311.53 1.21015 -3.78946 0
M  V30 13670 H 1308.27 0.0531655 -6.55478 0
M  V30 13671 H 1307.79 1.58315 -5.7853 0
M  V30 13672 H 1309.46 1.34311 -6.32906 0
M  V30 13673 N 1309.6 1.55164 0.276031 0
M  V30 13674 C 1310.56 1.87065 1.32436 0
M  V30 13675 C 1311.56 0.745024 1.42499 0
M  V30 13676 O 1312.75 1.01321 1.41702 0
M  V30 13677 C 1309.88 2.07322 2.70611 0
M  V30 13678 H 1311.07 2.80775 1.05382 0
M  V30 13679 H 1308.63 1.47609 0.513947 0
M  V30 13680 H 1309.36 1.15983 3.0285 0
M  V30 13681 H 1309.15 2.89275 2.64693 0
M  V30 13682 H 1310.64 2.33287 3.46362 0
M  V30 13683 N 1311.07 -0.540404 1.48045 0
M  V30 13684 C 1312.32 -1.29422 1.55224 0
M  V30 13685 C 1312.64 -1.93716 0.223365 0
M  V30 13686 O 1311.91 -1.808 -0.754204 0
M  V30 13687 H 1310.49 -0.480658 0.571819 0
M  V30 13688 H 1313.16 -0.629712 1.84447 0
M  V30 13689 H 1312.25 -2.07897 2.32777 0
M  V30 13690 N 1312.55 -1.36459 -0.788468 0
M  V30 13691 C 1313.5 -1.30863 -1.90115 0
M  V30 13692 C 1314.47 -0.177148 -1.65153 0
M  V30 13693 O 1315.65 -0.363817 -1.87299 0
M  V30 13694 C 1312.79 -1.10473 -3.2694 0
M  V30 13695 C 1311.91 -2.32704 -3.63968 0
M  V30 13696 C 1311.04 -2.05319 -4.89916 0
M  V30 13697 C 1310.08 -3.23506 -5.19625 0
M  V30 13698 N 1309.22 -2.9578 -6.36756 0
M  V30 13699 H 1314.06 -2.26003 -1.94233 0
M  V30 13700 H 1311.6 -1.12324 -0.949827 0
M  V30 13701 H 1313.55 -0.966773 -4.05844 0
M  V30 13702 H 1312.18 -0.189873 -3.22241 0
M  V30 13703 H 1311.24 -2.573 -2.8018 0
M  V30 13704 H 1312.55 -3.20899 -3.81871 0
M  V30 13705 H 1311.7 -1.88459 -5.76687 0
M  V30 13706 H 1310.44 -1.14437 -4.74084 0
M  V30 13707 H 1309.45 -3.40924 -4.31336 0
M  V30 13708 H 1310.67 -4.15216 -5.37376 0
M  V30 13709 H 1308.62 -2.0751 -6.22315 0
M  V30 13710 H 1308.53 -3.77513 -6.54996 0
M  V30 13711 H 1309.8 -2.825 -7.26508 0
M  V30 13712 N 1314.03 1.01274 -1.20754 0
M  V30 13713 C 1315.28 1.74342 -1.01428 0
M  V30 13714 C 1315.59 1.90265 0.453708 0
M  V30 13715 O 1316.8 2.60465 0.76618 0
M  V30 13716 C 1315.25 3.13588 -1.76609 0
M  V30 13717 C 1314.86 3.05664 -3.27526 0
M  V30 13718 C 1316.61 3.9084 -1.65664 0
M  V30 13719 C 1314.51 4.39942 -3.95228 0
M  V30 13720 H 1313.44 0.653619 -0.375897 0
M  V30 13721 H 1316.09 1.13214 -1.44412 0
M  V30 13722 H 1314.48 3.75281 -1.26413 0
M  V30 13723 H 1315.65 2.53256 -3.84965 0
M  V30 13724 H 1313.97 2.41904 -3.38927 0
M  V30 13725 H 1316.56 4.9019 -2.13583 0
M  V30 13726 H 1316.91 4.11754 -0.61351 0
M  V30 13727 H 1317.44 3.35783 -2.13294 0
M  V30 13728 H 1314.18 4.24229 -4.9971 0
M  V30 13729 H 1313.7 4.92342 -3.42578 0
M  V30 13730 H 1315.38 5.08771 -3.99701 0
M  V30 13731 N 1315.51 1.01404 1.20644 0
M  V30 13732 C 1316.76 0.697244 1.89265 0
M  V30 13733 C 1317.07 -0.776149 1.79542 0
M  V30 13734 O 1318.28 -1.2054 2.43274 0
M  V30 13735 C 1316.73 1.19672 3.39421 0
M  V30 13736 C 1316.34 2.69683 3.57736 0
M  V30 13737 C 1318.09 0.955225 4.13613 0
M  V30 13738 C 1315.99 3.13124 5.01704 0
M  V30 13739 H 1314.92 0.257105 0.708811 0
M  V30 13740 H 1317.57 1.22639 1.36499 0
M  V30 13741 H 1315.96 0.595562 3.91496 0
M  V30 13742 H 1317.13 3.35326 3.16059 0
M  V30 13743 H 1315.44 2.91946 2.96911 0
M  V30 13744 H 1318.04 1.25524 5.19757 0
M  V30 13745 H 1318.38 -0.108362 4.16159 0
M  V30 13746 H 1318.92 1.51962 3.67631 0
M  V30 13747 H 1315.66 4.18748 5.04311 0
M  V30 13748 H 1315.18 2.522 5.44201 0
M  V30 13749 H 1316.86 3.05617 5.70269 0
M  V30 13750 N 1316.99 -1.36373 0.789944 0
M  V30 13751 C 1318.4 -1.81783 0.425677 0
M  V30 13752 C 1318.75 -1.65711 -1.05045 0
M  V30 13753 O 1317.87 -1.17835 -1.81505 0
M  V30 13754 C 1318.47 -3.3003 0.765866 0
M  V30 13755 C 1317.03 -3.73647 0.454421 0
M  V30 13756 C 1316.18 -2.58632 1.00023 0
M  V30 13757 H 1319.13 -1.24587 0.983044 0
M  V30 13758 H 1319.15 -3.80457 0.0571624 0
M  V30 13759 H 1318.66 -3.41696 1.84026 0
M  V30 13760 H 1316.76 -3.67541 -0.611918 0
M  V30 13761 H 1316.87 -4.69066 0.975401 0
M  V30 13762 H 1315.24 -2.51156 0.423434 0
M  V30 13763 H 1316.02 -2.73083 2.0804 0
M  V30 13764 N 1318.47 -0.542005 -1.47987 0
M  V30 13765 C 1319.43 0.203537 -2.28294 0
M  V30 13766 C 1320.43 0.856762 -1.36074 0
M  V30 13767 O 1321.62 0.71496 -1.58852 0
M  V30 13768 C 1318.75 1.29581 -3.15312 0
M  V30 13769 H 1319.94 -0.501701 -2.95674 0
M  V30 13770 H 1317.5 -0.298378 -1.53426 0
M  V30 13771 H 1318.23 2.03393 -2.5259 0
M  V30 13772 H 1318.02 0.832398 -3.83163 0
M  V30 13773 H 1319.51 1.81988 -3.75859 0
M  V30 13774 N 1319.94 1.55134 -0.277709 0
M  V30 13775 C 1321.19 1.98831 0.338982 0
M  V30 13776 C 1321.51 1.16958 1.56781 0
M  V30 13777 O 1322.71 1.50811 2.25762 0
M  V30 13778 C 1321.17 3.53899 0.654465 0
M  V30 13779 C 1320.78 4.44553 -0.554703 0
M  V30 13780 C 1322.52 4.06179 1.23364 0
M  V30 13781 C 1320.43 5.91014 -0.213663 0
M  V30 13782 H 1319.36 0.742632 0.130434 0
M  V30 13783 H 1322.01 1.79463 -0.382768 0
M  V30 13784 H 1320.39 3.69078 1.43519 0
M  V30 13785 H 1321.56 4.41143 -1.33151 0
M  V30 13786 H 1319.88 4.02921 -1.0509 0
M  V30 13787 H 1322.48 5.13152 1.50265 0
M  V30 13788 H 1322.82 3.5537 2.16836 0
M  V30 13789 H 1323.35 3.9445 0.515147 0
M  V30 13790 H 1320.09 6.45924 -1.11633 0
M  V30 13791 H 1319.61 5.97486 0.526329 0
M  V30 13792 H 1321.29 6.46712 0.19319 0
M  V30 13793 N 1321.42 0.00503138 1.57599 0
M  V30 13794 C 1322.38 -0.969628 2.0768 0
M  V30 13795 C 1323.38 -1.26933 0.987148 0
M  V30 13796 O 1324.57 -1.21368 1.24962 0
M  V30 13797 C 1321.71 -2.29312 2.52247 0
M  V30 13798 H 1322.9 -0.536342 2.95065 0
M  V30 13799 H 1320.45 -0.242543 1.54407 0
M  V30 13800 H 1321.19 -2.7732 1.6812 0
M  V30 13801 H 1320.97 -2.08878 3.31832 0
M  V30 13802 H 1322.46 -2.99221 2.91302 0
M  V30 13803 N 1322.9 -1.55308 -0.267798 0
M  V30 13804 C 1324.13 -1.80191 -1.01681 0
M  V30 13805 C 1324.54 -0.57783 -1.7974 0
M  V30 13806 O 1323.9 0.4532 -1.76783 0
M  V30 13807 C 1323.95 -3.03023 -1.97127 0
M  V30 13808 O 1323.67 -4.20704 -1.22229 0
M  V30 13809 C 1325.17 -3.40549 -2.83798 0
M  V30 13810 H 1322.39 -0.60013 -0.300142 0
M  V30 13811 H 1324.94 -2.02332 -0.297007 0
M  V30 13812 H 1323.09 -2.82993 -2.64563 0
M  V30 13813 H 1323.51 -4.90181 -1.86608 0
M  V30 13814 H 1324.98 -4.29653 -3.46557 0
M  V30 13815 H 1325.46 -2.60186 -3.53836 0
M  V30 13816 H 1326.06 -3.62856 -2.21846 0
M  V30 13817 N 1324.38 0.532545 -1.4833 0
M  V30 13818 C 1325.61 1.31331 -1.59874 0
M  V30 13819 C 1326.02 1.87028 -0.258037 0
M  V30 13820 O 1325.38 1.66272 0.752317 0
M  V30 13821 C 1325.43 2.46596 -2.64334 0
M  V30 13822 O 1325.15 1.93195 -3.93201 0
M  V30 13823 C 1326.65 3.38454 -2.86294 0
M  V30 13824 H 1323.87 0.399476 -0.539129 0
M  V30 13825 H 1326.41 0.642696 -1.94138 0
M  V30 13826 H 1324.57 3.09548 -2.32936 0
M  V30 13827 H 1324.98 2.68627 -4.50489 0
M  V30 13828 H 1326.46 4.15687 -3.63192 0
M  V30 13829 H 1326.93 3.93526 -1.95022 0
M  V30 13830 H 1327.54 2.81297 -3.18986 0
M  V30 13831 N 1325.86 1.36875 0.78122 0
M  V30 13832 C 1327.08 1.34732 1.57019 0
M  V30 13833 C 1327.5 -0.0695423 1.88672 0
M  V30 13834 O 1326.86 -1.02873 1.50743 0
M  V30 13835 C 1326.91 2.17668 2.88623 0
M  V30 13836 O 1326.63 3.53832 2.5833 0
M  V30 13837 C 1328.13 2.23398 3.82895 0
M  V30 13838 H 1325.35 0.461857 0.486754 0
M  V30 13839 H 1327.89 1.80086 0.968989 0
M  V30 13840 H 1326.05 1.75848 3.4519 0
M  V30 13841 H 1326.46 3.972 3.42538 0
M  V30 13842 H 1327.94 2.85769 4.72271 0
M  V30 13843 H 1328.41 1.23972 4.2134 0
M  V30 13844 H 1329.02 2.65489 3.32258 0
M  V30 13845 N 1327.33 -1.00632 1.21289 0
M  V30 13846 C 1328.3 -2.07543 0.972548 0
M  V30 13847 C 1329.3 -1.60703 -0.0559244 0
M  V30 13848 O 1330.49 -1.73255 0.181213 0
M  V30 13849 C 1327.62 -3.37696 0.466297 0
M  V30 13850 H 1328.81 -2.30298 1.92101 0
M  V30 13851 H 1326.36 -1.17588 1.02969 0
M  V30 13852 H 1327.1 -3.2062 -0.487148 0
M  V30 13853 H 1326.88 -3.73024 1.20813 0
M  V30 13854 H 1328.37 -4.16388 0.317962 0
M  V30 13855 N 1328.81 -1.02043 -1.20104 0
M  V30 13856 C 1329.77 -0.598682 -2.21243 0
M  V30 13857 C 1330.77 0.333205 -1.5731 0
M  V30 13858 O 1331.96 0.12137 -1.73777 0
M  V30 13859 C 1329.1 0.125183 -3.4067 0
M  V30 13860 H 1330.29 -1.49345 -2.60069 0
M  V30 13861 H 1327.84 -0.810649 -1.33634 0
M  V30 13862 H 1328.58 1.03469 -3.07351 0
M  V30 13863 H 1328.36 -0.544316 -3.88304 0
M  V30 13864 H 1329.85 0.407469 -4.15607 0
M  V30 13865 N 1330.29 1.35952 -0.797165 0
M  V30 13866 C 1331.54 1.99327 -0.373695 0
M  V30 13867 C 1331.87 1.63111 1.05396 0
M  V30 13868 O 1331.14 0.889736 1.72956 0
M  V30 13869 C 1331.43 3.5593 -0.54641 0
M  V30 13870 C 1331.28 4.01975 -2.01832 0
M  V30 13871 C 1332.6 4.40087 0.0337694 0
M  V30 13872 H 1329.72 0.724107 -0.137254 0
M  V30 13873 H 1332.36 1.61248 -1.00495 0
M  V30 13874 H 1330.51 3.88499 -0.00903959 0
M  V30 13875 H 1332.18 3.79859 -2.61735 0
M  V30 13876 H 1330.43 3.5323 -2.51815 0
M  V30 13877 H 1331.1 5.109 -2.09009 0
M  V30 13878 H 1333.57 4.13923 -0.425039 0
M  V30 13879 H 1332.45 5.48775 -0.117054 0
M  V30 13880 H 1332.71 4.27504 1.12661 0
M  V30 13881 N 1331.77 0.549846 1.47697 0
M  V30 13882 C 1333.01 0.0230845 2.02787 0
M  V30 13883 C 1333.35 -1.32035 1.42409 0
M  V30 13884 O 1332.62 -1.85745 0.576978 0
M  V30 13885 C 1332.91 -0.0778363 3.60016 0
M  V30 13886 C 1332.76 1.29217 4.3084 0
M  V30 13887 C 1334.08 -0.794909 4.32862 0
M  V30 13888 H 1331.2 0.00986307 0.736934 0
M  V30 13889 H 1333.84 0.710714 1.76207 0
M  V30 13890 H 1331.99 -0.663464 3.82793 0
M  V30 13891 H 1333.66 1.92044 4.19424 0
M  V30 13892 H 1331.9 1.86883 3.91481 0
M  V30 13893 H 1332.57 1.17435 5.39364 0
M  V30 13894 H 1335.05 -0.297743 4.15033 0
M  V30 13895 H 1333.93 -0.834466 5.4252 0
M  V30 13896 H 1334.19 -1.84948 4.01555 0
M  V30 13897 N 1333.25 -1.54984 0.285932 0
M  V30 13898 C 1334.49 -1.99436 -0.32709 0
M  V30 13899 C 1334.82 -1.17582 -1.55562 0
M  V30 13900 O 1334.09 -0.268002 -1.94058 0
M  V30 13901 H 1332.67 -0.736662 -0.123846 0
M  V30 13902 H 1335.33 -1.90881 0.393774 0
M  V30 13903 H 1334.42 -3.0609 -0.609523 0
M  V30 13904 N 1334.72 -0.0133892 -1.57594 0
M  V30 13905 C 1335.65 0.972341 -2.12292 0
M  V30 13906 C 1336.64 1.34971 -1.03522 0
M  V30 13907 O 1337.82 1.4311 -1.31275 0
M  V30 13908 C 1334.95 2.25988 -2.63717 0
M  V30 13909 C 1333.9 2.02373 -3.77133 0
M  V30 13910 C 1333.23 3.37256 -4.14925 0
M  V30 13911 C 1334.53 1.37553 -5.03861 0
M  V30 13912 H 1336.22 0.516869 -2.94905 0
M  V30 13913 H 1333.77 0.247176 -1.41863 0
M  V30 13914 H 1335.72 2.95313 -3.00613 0
M  V30 13915 H 1334.45 2.73672 -1.78244 0
M  V30 13916 H 1333.11 1.3547 -3.40651 0
M  V30 13917 H 1332.75 3.82669 -3.26456 0
M  V30 13918 H 1332.45 3.22267 -4.91343 0
M  V30 13919 H 1333.98 4.07875 -4.5439 0
M  V30 13920 H 1335.39 1.96855 -5.38443 0
M  V30 13921 H 1333.79 1.33011 -5.85174 0
M  V30 13922 H 1334.86 0.346429 -4.83661 0
M  V30 13923 N 1336.2 1.55448 0.259558 0
M  V30 13924 C 1337.45 1.76948 0.990816 0
M  V30 13925 C 1337.78 0.576401 1.85449 0
M  V30 13926 O 1337.06 -0.425693 1.89784 0
M  V30 13927 C 1337.34 3.08221 1.86204 0
M  V30 13928 C 1337.19 4.37909 1.0274 0
M  V30 13929 C 1338.51 3.35627 2.84679 0
M  V30 13930 H 1335.63 0.64377 0.358788 0
M  V30 13931 H 1338.27 1.88182 0.262211 0
M  V30 13932 H 1336.42 2.98775 2.48326 0
M  V30 13933 H 1338.09 4.5933 0.425855 0
M  V30 13934 H 1336.34 4.32533 0.331308 0
M  V30 13935 H 1337.01 5.26116 1.6705 0
M  V30 13936 H 1339.48 3.44954 2.32693 0
M  V30 13937 H 1338.36 4.28719 3.42769 0
M  V30 13938 H 1338.62 2.55921 3.60496 0
M  V30 13939 N 1337.68 -0.524672 1.4861 0
M  V30 13940 C 1338.92 -1.29064 1.58499 0
M  V30 13941 C 1339.28 -1.90294 0.255378 0
M  V30 13942 O 1340.49 -2.6782 0.229289 0
M  V30 13943 C 1338.76 -2.34693 2.69544 0
M  V30 13944 S 1340.32 -3.20944 2.99233 0
M  V30 13945 H 1337.13 -0.438948 0.559326 0
M  V30 13946 H 1339.74 -0.597119 1.86158 0
M  V30 13947 H 1338.44 -1.88199 3.64704 0
M  V30 13948 H 1337.97 -3.08745 2.43804 0
M  V30 13949 H 1339.99 -4.34883 2.38937 0
M  V30 13950 N 1339.16 -1.37287 -0.77395 0
M  V30 13951 C 1340.09 -1.35569 -1.90114 0
M  V30 13952 C 1341.07 -0.224658 -1.6861 0
M  V30 13953 O 1342.25 -0.424676 -1.895 0
M  V30 13954 C 1339.38 -1.15971 -3.27365 0
M  V30 13955 C 1338.34 -2.26063 -3.63427 0
M  V30 13956 C 1337.66 -1.9159 -4.99197 0
M  V30 13957 C 1338.96 -3.68236 -3.70405 0
M  V30 13958 H 1340.66 -2.29891 -1.91808 0
M  V30 13959 H 1338.2 -1.10661 -0.92142 0
M  V30 13960 H 1340.16 -1.134 -4.05855 0
M  V30 13961 H 1338.88 -0.181043 -3.26098 0
M  V30 13962 H 1337.54 -2.27786 -2.87244 0
M  V30 13963 H 1337.19 -0.922586 -4.94467 0
M  V30 13964 H 1336.89 -2.65309 -5.24294 0
M  V30 13965 H 1338.41 -1.90602 -5.80089 0
M  V30 13966 H 1339.83 -3.68655 -4.39052 0
M  V30 13967 H 1338.22 -4.4099 -4.06999 0
M  V30 13968 H 1339.29 -4.02021 -2.71122 0
M  V30 13969 N 1340.64 0.999871 -1.21821 0
M  V30 13970 C 1341.55 2.12303 -0.99823 0
M  V30 13971 C 1342.56 1.73924 0.0512923 0
M  V30 13972 O 1343.74 2.00914 -0.139895 0
M  V30 13973 C 1340.8 3.41962 -0.571232 0
M  V30 13974 C 1339.86 3.94483 -1.69356 0
M  V30 13975 C 1339.1 5.17954 -1.28685 0
M  V30 13976 O 1339.32 5.70168 -0.162641 0
M  V30 13977 O 1338.25 5.64051 -2.10071 0
M  V30 13978 H 1342.08 2.3374 -1.93905 0
M  V30 13979 H 1339.67 1.10677 -1.00354 0
M  V30 13980 H 1341.55 4.20001 -0.343134 0
M  V30 13981 H 1340.22 3.21901 0.340814 0
M  V30 13982 H 1339.13 3.17648 -1.97612 0
M  V30 13983 H 1340.46 4.18964 -2.58322 0
M  V30 13984 N 1342.11 1.02678 1.19562 0
M  V30 13985 C 1343.04 0.626359 2.24942 0
M  V30 13986 C 1344.03 -0.363612 1.66168 0
M  V30 13987 O 1345.21 -0.246793 1.92625 0
M  V30 13988 C 1342.34 -0.0257912 3.4729 0
M  V30 13989 C 1341.29 0.886237 4.18724 0
M  V30 13990 C 1340.62 0.0993081 5.34608 0
M  V30 13991 C 1341.92 2.19901 4.73752 0
M  V30 13992 H 1343.61 1.50729 2.58691 0
M  V30 13993 H 1341.16 0.726195 1.24348 0
M  V30 13994 H 1343.11 -0.317545 4.20202 0
M  V30 13995 H 1341.84 -0.941511 3.12735 0
M  V30 13996 H 1340.5 1.16215 3.47692 0
M  V30 13997 H 1340.14 -0.81838 4.96298 0
M  V30 13998 H 1339.84 0.706776 5.83334 0
M  V30 13999 H 1341.37 -0.185754 6.10317 0
M  V30 14000 H 1342.78 1.96892 5.3843 0
M  V30 14001 H 1341.18 2.75821 5.32956 0
M  V30 14002 H 1342.25 2.85509 3.91934 0
M  V30 14003 N 1343.59 -1.35528 0.804364 0
M  V30 14004 C 1344.82 -2.02779 0.395517 0
M  V30 14005 C 1345.23 -1.60764 -0.997572 0
M  V30 14006 O 1344.57 -0.799737 -1.65378 0
M  V30 14007 C 1344.64 -3.57302 0.396904 0
M  V30 14008 C 1344.3 -4.22574 1.74012 0
M  V30 14009 C 1345.3 -4.44411 2.69806 0
M  V30 14010 C 1342.98 -4.59738 2.02352 0
M  V30 14011 C 1344.98 -5.02511 3.92124 0
M  V30 14012 C 1342.66 -5.17553 3.24934 0
M  V30 14013 C 1343.66 -5.38881 4.19638 0
M  V30 14014 O 1343.35 -5.95478 5.40056 0
M  V30 14015 H 1343.08 -0.657003 0.15913 0
M  V30 14016 H 1345.63 -1.74176 1.08867 0
M  V30 14017 H 1343.86 -3.85087 -0.352836 0
M  V30 14018 H 1345.55 -4.05899 0.0106754 0
M  V30 14019 H 1346.32 -4.16081 2.49202 0
M  V30 14020 H 1342.2 -4.42452 1.2945 0
M  V30 14021 H 1345.74 -5.19075 4.66055 0
M  V30 14022 H 1341.64 -5.4531 3.45409 0
M  V30 14023 H 1342.41 -6.13931 5.41323 0
M  V30 14024 N 1345.07 -0.557671 -1.47404 0
M  V30 14025 C 1346.02 0.189765 -2.30019 0
M  V30 14026 C 1346.99 0.907923 -1.3909 0
M  V30 14027 O 1348.17 0.903528 -1.68051 0
M  V30 14028 C 1345.31 1.21348 -3.23061 0
M  V30 14029 C 1344.43 0.501343 -4.29081 0
M  V30 14030 C 1343.56 1.51039 -5.09275 0
M  V30 14031 C 1342.6 0.783254 -6.07068 0
M  V30 14032 N 1341.74 1.73916 -6.80219 0
M  V30 14033 H 1346.58 -0.520856 -2.93413 0
M  V30 14034 H 1344.11 -0.268686 -1.44625 0
M  V30 14035 H 1346.07 1.81961 -3.75428 0
M  V30 14036 H 1344.7 1.89213 -2.61531 0
M  V30 14037 H 1343.75 -0.219317 -3.79767 0
M  V30 14038 H 1345.07 -0.0682656 -4.98753 0
M  V30 14039 H 1344.22 2.19004 -5.65793 0
M  V30 14040 H 1342.96 2.11392 -4.39505 0
M  V30 14041 H 1341.96 0.0896883 -5.49727 0
M  V30 14042 H 1343.19 0.185464 -6.78847 0
M  V30 14043 H 1341.14 2.33125 -6.13179 0
M  V30 14044 H 1341.05 1.22171 -7.46063 0
M  V30 14045 H 1342.32 2.40993 -7.41311 0
M  V30 14046 N 1346.55 1.54831 -0.294147 0
M  V30 14047 C 1347.8 2.00298 0.317605 0
M  V30 14048 C 1348.13 1.18228 1.54064 0
M  V30 14049 O 1347.4 0.257034 1.92794 0
M  V30 14050 C 1347.69 3.53602 0.680991 0
M  V30 14051 C 1347.54 4.46416 -0.550711 0
M  V30 14052 C 1348.86 4.13379 1.51016 0
M  V30 14053 H 1345.98 0.728135 0.113965 0
M  V30 14054 H 1348.62 1.85636 -0.404883 0
M  V30 14055 H 1346.77 3.66227 1.29654 0
M  V30 14056 H 1348.44 4.45707 -1.18922 0
M  V30 14057 H 1346.68 4.17294 -1.18524 0
M  V30 14058 H 1347.36 5.51423 -0.252412 0
M  V30 14059 H 1349.83 4.04148 0.99012 0
M  V30 14060 H 1348.71 5.20818 1.73321 0
M  V30 14061 H 1348.97 3.64817 2.49722 0
M  V30 14062 N 1348.03 0.0217466 1.57585 0
M  V30 14063 C 1349.27 -0.659463 1.91778 0
M  V30 14064 C 1349.61 -1.72201 0.897801 0
M  V30 14065 O 1348.88 -1.94333 -0.080509 0
M  V30 14066 C 1349.16 -1.28269 3.36481 0
M  V30 14067 C 1349.02 -0.230201 4.49211 0
M  V30 14068 C 1350.34 -2.20279 3.81005 0
M  V30 14069 H 1347.46 -0.238263 0.697424 0
M  V30 14070 H 1350.1 0.0774967 1.89842 0
M  V30 14071 H 1348.25 -1.9108 3.38262 0
M  V30 14072 H 1349.92 0.399901 4.59563 0
M  V30 14073 H 1348.16 0.445157 4.3151 0
M  V30 14074 H 1348.83 -0.705732 5.4747 0
M  V30 14075 H 1351.31 -1.67463 3.80914 0
M  V30 14076 H 1350.19 -2.60842 4.82962 0
M  V30 14077 H 1350.45 -3.09092 3.16093 0
M  V30 14078 N 1349.51 -1.55583 -0.251311 0
M  V30 14079 C 1350.44 -1.86388 -1.33387 0
M  V30 14080 C 1351.45 -0.749829 -1.44504 0
M  V30 14081 O 1352.64 -1.0279 -1.45933 0
M  V30 14082 C 1349.74 -2.0311 -2.71293 0
M  V30 14083 C 1348.91 -3.33937 -2.82498 0
M  V30 14084 C 1347.97 -3.40455 -4.01219 0
M  V30 14085 O 1347 -4.13695 -3.90954 0
M  V30 14086 N 1348.2 -2.69427 -5.14188 0
M  V30 14087 H 1350.96 -2.79834 -1.07298 0
M  V30 14088 H 1348.53 -1.55766 -0.441418 0
M  V30 14089 H 1350.52 -2.04817 -3.49045 0
M  V30 14090 H 1349.09 -1.16429 -2.90109 0
M  V30 14091 H 1348.31 -3.44584 -1.91456 0
M  V30 14092 H 1349.6 -4.20176 -2.86931 0
M  V30 14093 H 1348.99 -2.09647 -5.25419 0
M  V30 14094 H 1347.55 -2.76832 -5.90091 0
M  V30 14095 N 1350.98 0.516783 -1.48886 0
M  V30 14096 C 1352.23 1.26936 -1.57263 0
M  V30 14097 C 1352.55 1.93337 -0.254156 0
M  V30 14098 O 1351.82 1.81977 0.725345 0
M  V30 14099 H 1350.4 0.4715 -0.579393 0
M  V30 14100 H 1353.06 0.600289 -1.85425 0
M  V30 14101 H 1352.16 2.04167 -2.36055 0
M  V30 14102 N 1352.46 1.37696 0.766659 0
M  V30 14103 C 1353.41 1.30383 1.87041 0
M  V30 14104 C 1354.4 0.190643 1.59767 0
M  V30 14105 O 1355.59 0.425485 1.7181 0
M  V30 14106 C 1352.72 1.11817 3.2458 0
M  V30 14107 C 1351.8 2.27701 3.57789 0
M  V30 14108 N 1352.19 3.53108 3.62144 0
M  V30 14109 C 1350.49 2.19967 3.87983 0
M  V30 14110 C 1351.19 4.29555 3.92247 0
M  V30 14111 N 1350.17 3.58754 4.08408 0
M  V30 14112 H 1353.97 2.25348 1.88668 0
M  V30 14113 H 1351.48 1.30741 0.963362 0
M  V30 14114 H 1353.48 1.04663 4.03548 0
M  V30 14115 H 1352.14 0.177731 3.24213 0
M  V30 14116 H 1353.15 3.86949 3.44225 0
M  V30 14117 H 1349.83 1.34009 3.95408 0
M  V30 14118 H 1351.22 5.38112 4.0235 0
M  V30 14119 N 1353.94 -0.993397 1.22349 0
M  V30 14120 C 1355.36 -1.25708 0.983345 0
M  V30 14121 C 1355.56 -1.98888 -0.323372 0
M  V30 14122 O 1354.61 -2.2981 -1.04612 0
M  V30 14123 C 1355.92 -2.06935 2.1817 0
M  V30 14124 C 1357.47 -2.20121 2.22521 0
M  V30 14125 C 1357.95 -3.04735 3.41907 0
M  V30 14126 N 1359.44 -3.12322 3.42066 0
M  V30 14127 C 1360.17 -3.78081 4.31095 0
M  V30 14128 N 1359.67 -4.45771 5.3034 0
M  V30 14129 N 1361.46 -3.74837 4.18872 0
M  V30 14130 H 1353.61 -0.502767 2.06364 0
M  V30 14131 H 1355.88 -0.284656 0.904254 0
M  V30 14132 H 1355.58 -1.60525 3.12929 0
M  V30 14133 H 1355.46 -3.0769 2.18189 0
M  V30 14134 H 1357.84 -2.65745 1.28311 0
M  V30 14135 H 1357.92 -1.18798 2.26541 0
M  V30 14136 H 1357.57 -2.59811 4.36418 0
M  V30 14137 H 1357.5 -4.06198 3.35128 0
M  V30 14138 H 1359.99 -2.64146 2.7025 0
M  V30 14139 H 1360.3 -4.93687 5.94553 0
M  V30 14140 H 1358.65 -4.44521 5.34253 0
M  V30 14141 H 1361.84 -3.21116 3.40591 0
M  V30 14142 H 1362.01 -4.25806 4.8846 0
M  V30 14143 N 1355.42 -1.03311 -1.19015 0
M  V30 14144 C 1356.35 -0.575655 -2.21853 0
M  V30 14145 C 1357.36 0.350705 -1.58978 0
M  V30 14146 O 1358.55 0.146425 -1.77898 0
M  V30 14147 C 1355.65 0.179949 -3.38422 0
M  V30 14148 C 1354.82 -0.752403 -4.3088 0
M  V30 14149 C 1353.88 -0.0414484 -5.26184 0
M  V30 14150 O 1352.91 -0.669403 -5.6525 0
M  V30 14151 N 1354.11 1.22783 -5.67366 0
M  V30 14152 H 1356.88 -1.46013 -2.61726 0
M  V30 14153 H 1354.44 -0.912655 -1.33724 0
M  V30 14154 H 1356.43 0.66522 -3.99195 0
M  V30 14155 H 1355 0.965879 -2.97304 0
M  V30 14156 H 1354.22 -1.41768 -3.67825 0
M  V30 14157 H 1355.51 -1.38592 -4.89561 0
M  V30 14158 H 1354.91 1.75867 -5.37668 0
M  V30 14159 H 1353.46 1.65752 -6.30372 0
M  V30 14160 N 1356.9 1.35099 -0.81154 0
M  V30 14161 C 1357.83 2.32264 -0.239925 0
M  V30 14162 C 1358.81 1.57708 0.637354 0
M  V30 14163 O 1359.99 1.85751 0.566598 0
M  V30 14164 C 1357.12 3.41931 0.608325 0
M  V30 14165 C 1356.08 4.27659 -0.170869 0
M  V30 14166 C 1355.4 5.28691 0.799398 0
M  V30 14167 C 1356.7 5.0394 -1.37266 0
M  V30 14168 H 1358.4 2.8032 -1.05172 0
M  V30 14169 H 1355.94 1.34773 -0.507185 0
M  V30 14170 H 1357.89 4.08911 1.01832 0
M  V30 14171 H 1356.62 2.92496 1.45306 0
M  V30 14172 H 1355.28 3.62265 -0.562094 0
M  V30 14173 H 1354.93 4.75521 1.63977 0
M  V30 14174 H 1354.63 5.86921 0.282331 0
M  V30 14175 H 1356.15 5.98542 1.20749 0
M  V30 14176 H 1357.56 5.63838 -1.03728 0
M  V30 14177 H 1355.96 5.7169 -1.82456 0
M  V30 14178 H 1357.03 4.34295 -2.15676 0
M  V30 14179 N 1358.37 0.56548 1.47106 0
M  V30 14180 C 1359.65 -0.0215358 1.95588 0
M  V30 14181 C 1360.03 -1.47712 1.50813 0
M  V30 14182 O 1359.38 -2.15814 0.750776 0
M  V30 14183 C 1359.59 0.132552 3.48748 0
M  V30 14184 C 1360.94 -0.00853591 4.24599 0
M  V30 14185 O 1361.96 0.0605142 3.56149 0
M  V30 14186 O 1360.82 -0.158519 5.4627 0
M  V30 14187 H 1357.91 -0.0595011 0.824857 0
M  V30 14188 H 1360.46 0.632586 1.57469 0
M  V30 14189 H 1359.23 1.14511 3.7417 0
M  V30 14190 H 1358.85 -0.558801 3.93654 0
M  V30 14191 N 1359.85 -1.54672 0.302354 0
M  V30 14192 C 1361.08 -2.05041 -0.311891 0
M  V30 14193 C 1361.5 -1.17814 -1.46634 0
M  V30 14194 O 1360.86 -0.182517 -1.80379 0
M  V30 14195 C 1360.91 -3.52831 -0.744489 0
M  V30 14196 O 1360.01 -3.68621 -1.84913 0
M  V30 14197 H 1359.35 -0.661255 -0.0603102 0
M  V30 14198 H 1361.88 -1.99711 0.444593 0
M  V30 14199 H 1361.89 -3.94708 -1.03293 0
M  V30 14200 H 1360.57 -4.1578 0.0999976 0
M  V30 14201 H 1359.15 -3.38649 -1.56113 0
M  V30 14202 N 1361.33 -0.0301034 -1.57571 0
M  V30 14203 C 1362.56 0.657533 -1.95857 0
M  V30 14204 C 1362.97 1.66138 -0.905244 0
M  V30 14205 O 1362.31 1.83299 0.12134 0
M  V30 14206 C 1362.37 1.41946 -3.3029 0
M  V30 14207 C 1362.04 0.573834 -4.53383 0
M  V30 14208 C 1363.03 -0.151282 -5.1968 0
M  V30 14209 C 1360.72 0.510947 -4.99695 0
M  V30 14210 C 1362.71 -0.927947 -6.30609 0
M  V30 14211 C 1360.4 -0.269422 -6.10506 0
M  V30 14212 C 1361.4 -0.987575 -6.75822 0
M  V30 14213 O 1361.09 -1.75515 -7.84506 0
M  V30 14214 H 1360.82 0.1861 -0.649879 0
M  V30 14215 H 1363.37 -0.0864526 -2.05218 0
M  V30 14216 H 1361.6 2.20861 -3.17423 0
M  V30 14217 H 1363.29 1.9953 -3.53472 0
M  V30 14218 H 1364.06 -0.112036 -4.84871 0
M  V30 14219 H 1359.94 1.05949 -4.4866 0
M  V30 14220 H 1363.48 -1.48901 -6.81524 0
M  V30 14221 H 1359.38 -0.310381 -6.44753 0
M  V30 14222 H 1360.15 -1.67503 -8.01177 0
M  V30 14223 N 1362.81 1.55714 0.243056 0
M  V30 14224 C 1363.76 1.90638 1.30099 0
M  V30 14225 C 1364.73 0.761049 1.47639 0
M  V30 14226 O 1365.91 1.01505 1.61559 0
M  V30 14227 C 1363.05 2.20985 2.65065 0
M  V30 14228 C 1362.16 3.48343 2.55501 0
M  V30 14229 C 1361.3 3.68241 3.82847 0
M  V30 14230 C 1360.34 4.89187 3.67916 0
M  V30 14231 N 1359.47 5.05586 4.87162 0
M  V30 14232 H 1364.31 2.80857 0.996155 0
M  V30 14233 H 1361.85 1.39027 0.480619 0
M  V30 14234 H 1363.81 2.36585 3.43632 0
M  V30 14235 H 1362.44 1.33966 2.93689 0
M  V30 14236 H 1361.49 3.41054 1.68483 0
M  V30 14237 H 1362.8 4.37057 2.4038 0
M  V30 14238 H 1361.96 3.83822 4.69857 0
M  V30 14239 H 1360.7 2.77768 4.00869 0
M  V30 14240 H 1359.7 4.7358 2.79289 0
M  V30 14241 H 1360.93 5.81124 3.51385 0
M  V30 14242 H 1358.87 4.18051 5.05538 0
M  V30 14243 H 1358.79 5.88395 4.74686 0
M  V30 14244 H 1360.06 5.25582 5.7566 0
M  V30 14245 N 1364.29 -0.50888 1.49158 0
M  V30 14246 C 1365.23 -1.63216 1.6572 0
M  V30 14247 C 1366.23 -1.61117 0.523236 0
M  V30 14248 O 1367.43 -1.6572 0.702629 0
M  V30 14249 H 1363.81 -0.540909 0.522419 0
M  V30 14250 H 1365.78 -1.46397 2.6002 0
M  V30 14251 C 1364.53 -3.01393 1.73372 0
M  V30 14252 H 1363.85 -3.03711 2.6 0
M  V30 14253 H 1365.29 -3.79547 1.88998 0
M  V30 14254 C 1363.75 -3.33509 0.47683 0
M  V30 14255 O 1364.28 -3.99694 -0.400986 0
M  V30 14256 N 1362.49 -2.88579 0.342145 0
M  V30 14257 H 1362.03 -2.34894 1.05747 0
M  V30 14258 H 1361.99 -3.10435 -0.497757 0
M  V30 14259 N 1365.76 -1.381 -0.759346 0
M  V30 14260 C 1367.01 -1.33727 -1.5153 0
M  V30 14261 C 1367.33 0.0739504 -1.9486 0
M  V30 14262 O 1366.6 1.02049 -1.67221 0
M  V30 14263 H 1365.18 -0.492037 -0.562058 0
M  V30 14264 H 1367.85 -1.72719 -0.902995 0
M  V30 14265 H 1366.94 -1.98439 -2.40891 0
M  V30 14266 N 1367.24 0.986894 -1.22875 0
M  V30 14267 C 1368.49 1.72729 -1.05693 0
M  V30 14268 C 1368.82 1.90191 0.407121 0
M  V30 14269 O 1368.07 1.44667 1.31796 0
M  V30 14270 C 1368.37 3.13283 -1.72012 0
M  V30 14271 C 1368.04 3.15719 -3.2192 0
M  V30 14272 C 1366.7 3.1609 -3.62823 0
M  V30 14273 C 1369.05 3.11539 -4.17843 0
M  V30 14274 C 1366.38 3.09991 -4.98119 0
M  V30 14275 C 1368.73 3.06982 -5.53123 0
M  V30 14276 C 1367.4 3.05672 -5.93397 0
M  V30 14277 H 1366.67 0.63206 -0.386758 0
M  V30 14278 H 1369.31 1.15538 -1.52719 0
M  V30 14279 H 1367.62 3.7382 -1.17327 0
M  V30 14280 H 1369.31 3.69326 -1.56203 0
M  V30 14281 H 1365.9 3.16183 -2.89355 0
M  V30 14282 H 1370.09 3.10397 -3.87256 0
M  V30 14283 H 1365.34 3.07326 -5.28546 0
M  V30 14284 H 1369.52 3.02705 -6.27171 0
M  V30 14285 H 1367.15 3.00701 -6.982 0
M  V30 14286 N 1368.72 1.0394 1.18466 0
M  V30 14287 C 1369.65 0.650182 2.24265 0
M  V30 14288 C 1370.63 -0.345968 1.66545 0
M  V30 14289 O 1371.82 -0.226348 1.92876 0
M  V30 14290 C 1368.95 0.0110451 3.47298 0
M  V30 14291 C 1367.9 0.930599 4.17761 0
M  V30 14292 C 1367.23 0.156005 5.34472 0
M  V30 14293 C 1368.53 2.24913 4.71393 0
M  V30 14294 H 1370.22 1.53465 2.57078 0
M  V30 14295 H 1367.77 0.739343 1.23571 0
M  V30 14296 H 1369.72 -0.272959 4.20515 0
M  V30 14297 H 1368.44 -0.908288 3.13716 0
M  V30 14298 H 1367.1 1.19897 3.4644 0
M  V30 14299 H 1366.75 -0.765695 4.97138 0
M  V30 14300 H 1366.45 0.768606 5.82551 0
M  V30 14301 H 1367.97 -0.121011 6.1048 0
M  V30 14302 H 1369.39 2.02592 5.36311 0
M  V30 14303 H 1367.79 2.81459 5.30001 0
M  V30 14304 H 1368.86 2.8965 3.88884 0
M  V30 14305 N 1370.2 -1.34667 0.818693 0
M  V30 14306 C 1371.15 -2.31501 0.225816 0
M  V30 14307 C 1372.14 -1.57205 -0.631112 0
M  V30 14308 O 1373.35 -1.72237 -0.522924 0
M  V30 14309 H 1369.72 -0.750039 0.0542747 0
M  V30 14310 H 1371.69 -2.79036 1.05743 0
M  V30 14311 C 1370.44 -3.42464 -0.60114 0
M  V30 14312 H 1369.76 -3.9977 0.0489207 0
M  V30 14313 H 1371.2 -4.12468 -0.982154 0
M  V30 14314 C 1369.66 -2.86551 -1.77173 0
M  V30 14315 O 1370.19 -2.81085 -2.86974 0
M  V30 14316 N 1368.4 -2.43432 -1.58712 0
M  V30 14317 H 1367.95 -2.48077 -0.693958 0
M  V30 14318 H 1367.9 -2.06371 -2.37188 0
M  V30 14319 N 1371.68 -0.573274 -1.46804 0
M  V30 14320 C 1372.61 0.153316 -2.32996 0
M  V30 14321 C 1373.59 0.893013 -1.44773 0
M  V30 14322 O 1374.77 0.870329 -1.73606 0
M  V30 14323 C 1371.9 1.1736 -3.2687 0
M  V30 14324 C 1370.86 0.549347 -4.2446 0
M  V30 14325 C 1370.18 1.67542 -5.07773 0
M  V30 14326 C 1371.48 -0.50736 -5.1983 0
M  V30 14327 H 1373.18 -0.566305 -2.93995 0
M  V30 14328 H 1370.72 -0.273785 -1.41373 0
M  V30 14329 H 1372.68 1.6902 -3.86019 0
M  V30 14330 H 1371.4 1.92337 -2.63958 0
M  V30 14331 H 1370.06 0.0539142 -3.6656 0
M  V30 14332 H 1369.71 2.41463 -4.41253 0
M  V30 14333 H 1369.41 1.26343 -5.73856 0
M  V30 14334 H 1370.93 2.19496 -5.69784 0
M  V30 14335 H 1372.34 -0.0762061 -5.73249 0
M  V30 14336 H 1370.74 -0.839139 -5.94204 0
M  V30 14337 H 1371.81 -1.39723 -4.64333 0
M  V30 14338 N 1373.15 1.5451 -0.310553 0
M  V30 14339 C 1374.12 2.2254 0.548489 0
M  V30 14340 C 1375.12 1.21456 1.05381 0
M  V30 14341 O 1376.31 1.46126 0.948311 0
M  V30 14342 C 1373.44 2.91927 1.76043 0
M  V30 14343 H 1374.63 2.99865 -0.0460306 0
M  V30 14344 H 1372.19 1.56179 -0.061487 0
M  V30 14345 H 1372.92 2.18706 2.39454 0
M  V30 14346 H 1372.71 3.66038 1.40564 0
M  V30 14347 H 1374.2 3.43797 2.37051 0
M  V30 14348 N 1374.63 0.0384594 1.57553 0
M  V30 14349 C 1375.56 -0.938444 2.13812 0
M  V30 14350 C 1376.54 -1.33307 1.05657 0
M  V30 14351 O 1377.73 -1.41003 1.33535 0
M  V30 14352 C 1374.86 -2.21764 2.67279 0
M  V30 14353 C 1373.81 -1.96347 3.80305 0
M  V30 14354 C 1373.14 -3.30612 4.20238 0
M  V30 14355 C 1374.44 -1.2952 5.05986 0
M  V30 14356 H 1376.13 -0.469887 2.9569 0
M  V30 14357 H 1373.68 -0.224576 1.42238 0
M  V30 14358 H 1375.63 -2.90493 3.05273 0
M  V30 14359 H 1374.36 -2.70802 1.82576 0
M  V30 14360 H 1373.02 -1.30033 3.42764 0
M  V30 14361 H 1372.66 -3.77427 3.32502 0
M  V30 14362 H 1372.36 -3.14409 4.96408 0
M  V30 14363 H 1373.89 -4.00594 4.60822 0
M  V30 14364 H 1375.3 -1.88264 5.41507 0
M  V30 14365 H 1373.7 -1.23685 5.87216 0
M  V30 14366 H 1374.77 -0.269439 4.84151 0
M  V30 14367 N 1376.11 -1.55841 -0.234795 0
M  V30 14368 C 1377.52 -1.68555 -0.802886 0
M  V30 14369 C 1377.87 -0.638107 -1.85533 0
M  V30 14370 O 1377 0.21333 -2.15346 0
M  V30 14371 C 1377.59 -3.0558 -1.46309 0
M  V30 14372 C 1376.15 -3.20192 -1.97874 0
M  V30 14373 C 1375.3 -2.64457 -0.834136 0
M  V30 14374 H 1378.25 -1.58697 -0.0103759 0
M  V30 14375 H 1378.27 -3.007 -2.33152 0
M  V30 14376 H 1377.78 -3.81792 -0.696868 0
M  V30 14377 H 1375.88 -2.48825 -2.77339 0
M  V30 14378 H 1376 -4.27251 -2.1678 0
M  V30 14379 H 1374.36 -2.22593 -1.23791 0
M  V30 14380 H 1375.14 -3.43205 -0.0807988 0
M  V30 14381 N 1377.59 0.500963 -1.49426 0
M  V30 14382 C 1378.84 1.25509 -1.58915 0
M  V30 14383 C 1379.16 1.92534 -0.275868 0
M  V30 14384 O 1378.42 1.81324 0.736212 0
M  V30 14385 C 1378.72 2.34448 -2.69757 0
M  V30 14386 C 1378.38 1.8488 -4.11254 0
M  V30 14387 C 1377.05 1.71081 -4.49761 0
M  V30 14388 C 1379.4 1.4778 -4.9981 0
M  V30 14389 C 1376.73 1.18561 -5.74596 0
M  V30 14390 C 1379.08 0.967118 -6.25164 0
M  V30 14391 C 1377.74 0.815523 -6.62499 0
M  V30 14392 H 1377.01 0.459268 -0.58151 0
M  V30 14393 H 1379.66 0.555817 -1.83256 0
M  V30 14394 H 1377.96 3.10163 -2.39387 0
M  V30 14395 H 1379.66 2.925 -2.74308 0
M  V30 14396 H 1376.25 1.9658 -3.8086 0
M  V30 14397 H 1380.44 1.57288 -4.70717 0
M  V30 14398 H 1375.69 1.05536 -6.02223 0
M  V30 14399 H 1379.87 0.670857 -6.93161 0
M  V30 14400 H 1377.49 0.406375 -7.59113 0
M  V30 14401 N 1379.07 1.38501 0.752011 0
M  V30 14402 C 1380.31 1.34795 1.51118 0
M  V30 14403 C 1380.64 -0.0615084 1.94403 0
M  V30 14404 O 1379.9 -1.03892 1.65846 0
M  V30 14405 C 1380.2 2.25111 2.77596 0
M  V30 14406 C 1379.86 3.73052 2.53265 0
M  V30 14407 C 1378.52 4.13365 2.46339 0
M  V30 14408 C 1380.88 4.66692 2.32051 0
M  V30 14409 C 1378.2 5.45406 2.16216 0
M  V30 14410 C 1380.56 5.98992 2.03448 0
M  V30 14411 C 1379.22 6.38388 1.94979 0
M  V30 14412 H 1378.49 0.49325 0.552979 0
M  V30 14413 H 1381.14 1.70872 0.864588 0
M  V30 14414 H 1379.44 1.82096 3.46913 0
M  V30 14415 H 1381.14 2.19547 3.3556 0
M  V30 14416 H 1377.73 3.41091 2.59528 0
M  V30 14417 H 1381.91 4.36392 2.3638 0
M  V30 14418 H 1377.17 5.7487 2.08168 0
M  V30 14419 H 1381.34 6.71091 1.86037 0
M  V30 14420 H 1378.97 7.40625 1.71402 0
M  V30 14421 N 1380.55 -0.980364 1.23396 0
M  V30 14422 C 1381.79 -1.71826 1.06397 0
M  V30 14423 C 1382.11 -1.90854 -0.399958 0
M  V30 14424 O 1381.38 -1.47721 -1.28668 0
M  V30 14425 H 1379.96 -0.636669 0.390719 0
M  V30 14426 H 1382.63 -1.18008 1.55113 0
M  V30 14427 H 1381.72 -2.7078 1.55192 0
M  V30 14428 N 1382.02 -1.04567 -1.17913 0
M  V30 14429 C 1383.27 -0.752023 -1.88018 0
M  V30 14430 C 1383.6 0.720567 -1.8066 0
M  V30 14431 O 1382.85 1.54207 -1.20493 0
M  V30 14432 C 1383.15 -1.1699 -3.3771 0
M  V30 14433 C 1382.82 -2.64363 -3.65271 0
M  V30 14434 C 1381.48 -3.04622 -3.72503 0
M  V30 14435 C 1383.83 -3.59626 -3.77251 0
M  V30 14436 C 1381.16 -4.39023 -3.89199 0
M  V30 14437 C 1383.51 -4.93752 -3.95465 0
M  V30 14438 C 1382.18 -5.33675 -4.00933 0
M  V30 14439 H 1381.45 -0.275185 -0.688008 0
M  V30 14440 H 1384.09 -1.31161 -1.39532 0
M  V30 14441 H 1382.4 -0.529202 -3.8821 0
M  V30 14442 H 1384.1 -0.919981 -3.90304 0
M  V30 14443 H 1380.69 -2.32182 -3.60263 0
M  V30 14444 H 1384.87 -3.29665 -3.70992 0
M  V30 14445 H 1380.13 -4.69466 -3.91679 0
M  V30 14446 H 1384.3 -5.67467 -4.03676 0
M  V30 14447 H 1381.93 -6.37825 -4.13623 0
M  V30 14448 N 1383.5 1.34231 -0.825823 0
M  V30 14449 C 1384.73 2.02949 -0.427354 0
M  V30 14450 C 1385.15 1.61772 0.959755 0
M  V30 14451 O 1384.51 0.803799 1.62508 0
M  V30 14452 C 1384.56 3.56522 -0.540799 0
M  V30 14453 O 1383.66 4.10065 0.438213 0
M  V30 14454 H 1383 0.640378 -0.175535 0
M  V30 14455 H 1385.53 1.71416 -1.11704 0
M  V30 14456 H 1385.54 4.05857 -0.41763 0
M  V30 14457 H 1384.22 3.85839 -1.55246 0
M  V30 14458 H 1382.79 3.71894 0.273687 0
M  V30 14459 N 1384.98 0.581051 1.46498 0
M  V30 14460 C 1385.89 -0.155669 2.34083 0
M  V30 14461 C 1386.91 -0.887728 1.49651 0
M  V30 14462 O 1388.08 -0.851284 1.82524 0
M  V30 14463 C 1385.15 -1.15752 3.26806 0
M  V30 14464 C 1384.21 -0.43031 4.27138 0
M  V30 14465 C 1383.44 -1.38443 5.15431 0
M  V30 14466 O 1383.66 -2.62084 5.06624 0
M  V30 14467 O 1382.6 -0.89592 5.95195 0
M  V30 14468 H 1386.42 0.56341 2.98428 0
M  V30 14469 H 1384.01 0.341466 1.45445 0
M  V30 14470 H 1385.89 -1.73523 3.84015 0
M  V30 14471 H 1384.57 -1.85809 2.65059 0
M  V30 14472 H 1383.47 0.1892 3.73621 0
M  V30 14473 H 1384.81 0.229263 4.91666 0
M  V30 14474 N 1386.46 -1.54343 0.318742 0
M  V30 14475 C 1387.87 -1.85922 -0.170309 0
M  V30 14476 C 1388.22 -1.24047 -1.52009 0
M  V30 14477 O 1387.34 -0.544705 -2.09432 0
M  V30 14478 C 1387.94 -3.37325 -0.315802 0
M  V30 14479 C 1386.5 -3.68871 -0.749073 0
M  V30 14480 C 1385.65 -2.76985 0.13209 0
M  V30 14481 H 1388.6 -1.4926 0.539185 0
M  V30 14482 H 1388.62 -3.62784 -1.14751 0
M  V30 14483 H 1388.13 -3.8233 0.66674 0
M  V30 14484 H 1386.23 -3.29396 -1.74153 0
M  V30 14485 H 1386.34 -4.75861 -0.556164 0
M  V30 14486 H 1384.71 -2.51672 -0.391564 0
M  V30 14487 H 1385.49 -3.24815 1.11131 0
M  V30 14488 N 1387.94 -0.0468143 -1.5753 0
M  V30 14489 C 1388.87 0.927092 -2.14306 0
M  V30 14490 C 1389.85 1.32745 -1.06362 0
M  V30 14491 O 1391.03 1.40293 -1.34281 0
M  V30 14492 C 1388.16 2.20343 -2.68452 0
M  V30 14493 C 1387.12 1.94328 -3.81341 0
M  V30 14494 C 1386.44 3.28379 -4.21985 0
M  V30 14495 C 1387.74 1.26835 -5.06666 0
M  V30 14496 H 1389.44 0.454199 -2.95935 0
M  V30 14497 H 1386.98 0.217029 -1.42355 0
M  V30 14498 H 1388.93 2.8887 -3.0681 0
M  V30 14499 H 1387.66 2.6983 -1.84009 0
M  V30 14500 H 1386.32 1.28214 -3.43448 0
M  V30 14501 H 1385.97 3.75658 -3.34499 0
M  V30 14502 H 1385.67 3.11772 -4.98068 0
M  V30 14503 H 1387.19 3.98145 -4.6294 0
M  V30 14504 H 1388.6 1.85389 -5.42498 0
M  V30 14505 H 1387 1.20569 -5.87863 0
M  V30 14506 H 1388.07 0.243759 -4.84287 0
M  V30 14507 N 1389.41 1.55964 0.226527 0
M  V30 14508 C 1390.38 1.91184 1.26418 0
M  V30 14509 C 1391.38 0.789982 1.40057 0
M  V30 14510 O 1392.57 1.05778 1.38407 0
M  V30 14511 C 1389.7 2.15826 2.63878 0
M  V30 14512 H 1390.89 2.83986 0.963956 0
M  V30 14513 H 1388.45 1.49169 0.466726 0
M  V30 14514 H 1389.18 1.2556 2.99007 0
M  V30 14515 H 1388.97 2.97549 2.55356 0
M  V30 14516 H 1390.46 2.44188 3.38765 0
M  V30 14517 N 1390.89 -0.493031 1.4969 0
M  V30 14518 C 1391.86 -1.57598 1.6642 0
M  V30 14519 C 1392.86 -1.51615 0.535668 0
M  V30 14520 O 1394.05 -1.54626 0.802283 0
M  V30 14521 C 1391.18 -2.97249 1.66901 0
M  V30 14522 H 1392.37 -1.4409 2.63017 0
M  V30 14523 H 1389.92 -0.717846 1.3884 0
M  V30 14524 H 1390.66 -3.16225 0.719164 0
M  V30 14525 H 1390.44 -3.02999 2.48865 0
M  V30 14526 H 1391.93 -3.75914 1.81874 0
M  V30 14527 N 1392.37 -1.38898 -0.744656 0
M  V30 14528 C 1393.78 -1.31789 -1.32244 0
M  V30 14529 C 1394.13 0.0222208 -1.96187 0
M  V30 14530 O 1393.26 0.924328 -1.95666 0
M  V30 14531 C 1393.85 -2.38674 -2.40458 0
M  V30 14532 C 1392.41 -2.35116 -2.93935 0
M  V30 14533 C 1391.56 -2.21069 -1.67403 0
M  V30 14534 H 1394.51 -1.49126 -0.54287 0
M  V30 14535 H 1394.53 -2.04905 -3.20615 0
M  V30 14536 H 1394.04 -3.36197 -1.9389 0
M  V30 14537 H 1392.14 -1.41201 -3.44809 0
M  V30 14538 H 1392.26 -3.29602 -3.47706 0
M  V30 14539 H 1390.62 -1.68074 -1.91372 0
M  V30 14540 H 1391.4 -3.20547 -1.229 0
M  V30 14541 N 1393.85 0.973806 -1.23914 0
M  V30 14542 C 1395.26 1.24128 -1.00322 0
M  V30 14543 C 1395.46 1.99378 0.29169 0
M  V30 14544 O 1394.52 2.31445 1.00943 0
M  V30 14545 C 1395.83 2.03438 -2.21435 0
M  V30 14546 C 1397.38 2.16553 -2.25995 0
M  V30 14547 C 1397.86 2.99257 -3.46712 0
M  V30 14548 N 1399.35 3.0684 -3.46992 0
M  V30 14549 C 1400.08 3.71174 -4.37055 0
M  V30 14550 N 1399.58 4.37277 -5.37364 0
M  V30 14551 N 1401.37 3.68126 -4.24782 0
M  V30 14552 H 1393.52 0.469872 -2.07138 0
M  V30 14553 H 1395.79 0.270234 -0.908668 0
M  V30 14554 H 1395.49 1.55527 -3.15443 0
M  V30 14555 H 1395.37 3.0418 -2.23057 0
M  V30 14556 H 1397.75 2.6367 -1.32522 0
M  V30 14557 H 1397.83 1.15179 -2.28402 0
M  V30 14558 H 1397.48 2.52835 -4.40496 0
M  V30 14559 H 1397.41 4.00815 -3.41547 0
M  V30 14560 H 1399.9 2.59813 -2.74419 0
M  V30 14561 H 1400.21 4.84166 -6.02331 0
M  V30 14562 H 1398.56 4.35965 -5.41257 0
M  V30 14563 H 1401.75 3.15657 -3.45656 0
M  V30 14564 H 1401.92 4.17981 -4.95173 0
M  V30 14565 N 1395.33 1.05191 1.17357 0
M  V30 14566 C 1396.28 0.623047 2.19322 0
M  V30 14567 C 1397.26 -0.340467 1.57257 0
M  V30 14568 O 1398.45 -0.157698 1.76296 0
M  V30 14569 C 1395.58 -0.000731889 3.433 0
M  V30 14570 C 1394.67 0.986608 4.12464 0
M  V30 14571 N 1395.06 2.158 4.57454 0
M  V30 14572 C 1393.36 0.815082 4.38489 0
M  V30 14573 C 1394.06 2.78262 5.10828 0
M  V30 14574 N 1393.03 2.0606 5.03031 0
M  V30 14575 H 1396.84 1.51555 2.5181 0
M  V30 14576 H 1394.35 0.922048 1.33686 0
M  V30 14577 H 1396.35 -0.325738 4.15625 0
M  V30 14578 H 1395.01 -0.888627 3.12304 0
M  V30 14579 H 1396.02 2.53634 4.51542 0
M  V30 14580 H 1392.69 -0.021765 4.17494 0
M  V30 14581 H 1394.08 3.77599 5.55759 0
M  V30 14582 N 1396.8 -1.33791 0.83293 0
M  V30 14583 C 1397.74 -2.28148 0.219336 0
M  V30 14584 C 1398.75 -1.51477 -0.596529 0
M  V30 14585 O 1399.94 -1.73377 -0.424571 0
M  V30 14586 C 1397.04 -3.31373 -0.710305 0
M  V30 14587 C 1396.21 -4.37352 0.0649215 0
M  V30 14588 C 1395.27 -5.20279 -0.78716 0
M  V30 14589 O 1394.3 -5.68741 -0.228511 0
M  V30 14590 N 1395.5 -5.40973 -2.10544 0
M  V30 14591 H 1398.26 -2.81443 1.03004 0
M  V30 14592 H 1395.82 -1.46421 0.690831 0
M  V30 14593 H 1397.82 -3.83752 -1.28517 0
M  V30 14594 H 1396.39 -2.78398 -1.42173 0
M  V30 14595 H 1395.61 -3.85553 0.821144 0
M  V30 14596 H 1396.89 -5.05271 0.598199 0
M  V30 14597 H 1396.29 -5.03291 -2.58292 0
M  V30 14598 H 1394.85 -5.96432 -2.62893 0
M  V30 14599 N 1398.28 -0.588812 -1.46187 0
M  V30 14600 C 1399.51 -0.0824104 -2.06436 0
M  V30 14601 C 1399.92 1.23054 -1.43716 0
M  V30 14602 O 1399.26 1.7562 -0.538825 0
M  V30 14603 C 1399.33 0.151307 -3.59181 0
M  V30 14604 C 1398.99 -1.07697 -4.44129 0
M  V30 14605 C 1399.99 -1.99053 -4.80285 0
M  V30 14606 C 1397.67 -1.30053 -4.85172 0
M  V30 14607 C 1399.67 -3.11108 -5.56319 0
M  V30 14608 C 1397.35 -2.42412 -5.60963 0
M  V30 14609 C 1398.35 -3.32769 -5.96451 0
M  V30 14610 O 1398.04 -4.43175 -6.70709 0
M  V30 14611 H 1397.77 -0.0573231 -0.673565 0
M  V30 14612 H 1400.32 -0.811012 -1.88711 0
M  V30 14613 H 1398.55 0.934591 -3.75236 0
M  V30 14614 H 1400.24 0.606973 -4.01336 0
M  V30 14615 H 1401.01 -1.83 -4.4915 0
M  V30 14616 H 1396.89 -0.606295 -4.56996 0
M  V30 14617 H 1400.43 -3.81659 -5.83937 0
M  V30 14618 H 1396.33 -2.58426 -5.91512 0
M  V30 14619 H 1397.1 -4.4162 -6.8914 0
M  V30 14620 N 1399.76 1.54172 -0.326923 0
M  V30 14621 C 1400.99 2.04747 0.276107 0
M  V30 14622 C 1401.4 1.20251 1.4607 0
M  V30 14623 O 1400.74 0.226753 1.82295 0
M  V30 14624 C 1400.8 3.51143 0.770651 0
M  V30 14625 C 1400.47 4.56066 -0.292079 0
M  V30 14626 C 1401.46 5.07487 -1.12928 0
M  V30 14627 C 1399.15 5.00358 -0.441232 0
M  V30 14628 C 1401.14 6.01767 -2.10133 0
M  V30 14629 C 1398.83 5.94452 -1.4167 0
M  V30 14630 C 1399.83 6.45042 -2.24521 0
M  V30 14631 O 1399.52 7.37288 -3.20409 0
M  V30 14632 H 1399.25 0.673322 0.0601144 0
M  V30 14633 H 1401.8 1.99899 -0.472176 0
M  V30 14634 H 1400.03 3.53399 1.5699 0
M  V30 14635 H 1401.72 3.84775 1.2924 0
M  V30 14636 H 1402.49 4.74044 -1.02505 0
M  V30 14637 H 1398.37 4.60593 0.193767 0
M  V30 14638 H 1401.91 6.41178 -2.74839 0
M  V30 14639 H 1397.81 6.27311 -1.52155 0
M  V30 14640 H 1398.58 7.55171 -3.15687 0
M  V30 14641 N 1401.24 0.0551678 1.57503 0
M  V30 14642 C 1402.19 -0.935665 2.12951 0
M  V30 14643 C 1403.18 -1.31954 1.06229 0
M  V30 14644 O 1404.39 -1.29873 1.24632 0
M  V30 14645 H 1400.76 -0.319618 0.680697 0
M  V30 14646 H 1402.73 -0.442937 2.95094 0
M  V30 14647 C 1401.48 -2.19977 2.69268 0
M  V30 14648 H 1400.8 -1.91319 3.51051 0
M  V30 14649 H 1402.24 -2.87456 3.11681 0
M  V30 14650 C 1400.7 -2.94714 1.63233 0
M  V30 14651 O 1401.23 -3.87803 1.04747 0
M  V30 14652 N 1399.44 -2.57518 1.34659 0
M  V30 14653 H 1398.99 -1.81894 1.82407 0
M  V30 14654 H 1398.94 -3.07829 0.639425 0
M  V30 14655 N 1402.72 -1.56081 -0.218252 0
M  V30 14656 C 1403.65 -1.89176 -1.29403 0
M  V30 14657 C 1404.66 -0.780312 -1.42881 0
M  V30 14658 O 1405.85 -1.05863 -1.4372 0
M  V30 14659 C 1402.95 -2.08818 -2.66923 0
M  V30 14660 C 1402.12 -3.39854 -2.75351 0
M  V30 14661 C 1401.18 -3.48889 -3.93908 0
M  V30 14662 O 1400.21 -4.21894 -3.82091 0
M  V30 14663 N 1401.41 -2.80273 -5.08357 0
M  V30 14664 H 1404.18 -2.82047 -1.01338 0
M  V30 14665 H 1401.74 -1.56667 -0.408278 0
M  V30 14666 H 1403.73 -2.12175 -3.44622 0
M  V30 14667 H 1402.3 -1.22557 -2.87574 0
M  V30 14668 H 1401.52 -3.48568 -1.84104 0
M  V30 14669 H 1402.81 -4.26168 -2.77954 0
M  V30 14670 H 1402.2 -2.20744 -5.20854 0
M  V30 14671 H 1400.76 -2.89286 -5.84086 0
M  V30 14672 N 1404.2 0.485086 -1.49949 0
M  V30 14673 C 1405.11 1.61089 -1.70551 0
M  V30 14674 C 1406.12 1.63752 -0.588333 0
M  V30 14675 O 1407.3 1.81879 -0.86498 0
M  V30 14676 C 1404.36 2.97382 -1.78227 0
M  V30 14677 C 1403.42 3.05219 -3.01894 0
M  V30 14678 C 1402.66 4.35011 -3.09195 0
M  V30 14679 O 1402.88 5.24722 -2.23658 0
M  V30 14680 O 1401.81 4.48151 -4.01802 0
M  V30 14681 H 1405.64 1.46633 -2.65956 0
M  V30 14682 H 1403.22 0.663091 -1.33879 0
M  V30 14683 H 1405.11 3.78356 -1.85538 0
M  V30 14684 H 1403.78 3.12066 -0.860043 0
M  V30 14685 H 1402.69 2.23373 -3.00092 0
M  V30 14686 H 1404.02 2.95467 -3.93649 0
M  V30 14687 N 1405.67 1.39291 0.737279 0
M  V30 14688 C 1406.92 1.37597 1.49795 0
M  V30 14689 C 1407.27 -0.0289024 1.92378 0
M  V30 14690 O 1406.57 -0.994964 1.63741 0
M  V30 14691 C 1406.76 2.28043 2.75193 0
M  V30 14692 C 1406.59 3.77184 2.44871 0
M  V30 14693 C 1405.36 4.46123 2.37281 0
M  V30 14694 C 1407.56 4.69219 2.10565 0
M  V30 14695 N 1405.54 5.80612 1.99406 0
M  V30 14696 C 1406.91 5.92342 1.83115 0
M  V30 14697 C 1408.97 4.57263 1.97014 0
M  V30 14698 C 1407.67 7.04845 1.4348 0
M  V30 14699 C 1409.7 5.69686 1.58781 0
M  V30 14700 C 1409.06 6.9188 1.32215 0
M  V30 14701 H 1405.16 0.558776 0.547077 0
M  V30 14702 H 1407.74 1.74821 0.857065 0
M  V30 14703 H 1405.91 1.92981 3.37065 0
M  V30 14704 H 1407.64 2.17358 3.41376 0
M  V30 14705 H 1404.4 3.99535 2.543 0
M  V30 14706 H 1404.82 6.51779 1.83068 0
M  V30 14707 H 1409.46 3.63329 2.16222 0
M  V30 14708 H 1407.18 7.98682 1.23013 0
M  V30 14709 H 1410.77 5.62422 1.48905 0
M  V30 14710 H 1409.65 7.77397 1.03073 0
M  V30 14711 N 1407.15 -0.967221 1.24429 0
M  V30 14712 C 1408.38 -1.7452 1.11133 0
M  V30 14713 C 1408.79 -1.85785 -0.336087 0
M  V30 14714 O 1408.15 -1.34652 -1.23188 0
M  V30 14715 C 1408.2 -3.16544 1.74591 0
M  V30 14716 O 1407.92 -3.05845 3.13673 0
M  V30 14717 C 1409.42 -4.10677 1.6691 0
M  V30 14718 H 1406.64 -0.547267 0.388253 0
M  V30 14719 H 1409.19 -1.2143 1.64545 0
M  V30 14720 H 1407.34 -3.66618 1.2518 0
M  V30 14721 H 1407.76 -3.95346 3.44676 0
M  V30 14722 H 1409.23 -5.07987 2.15992 0
M  V30 14723 H 1409.71 -4.34652 0.630411 0
M  V30 14724 H 1410.31 -3.66514 2.15749 0
M  V30 14725 N 1408.63 -1.05812 -1.16797 0
M  V30 14726 C 1409.56 -0.685778 -2.23202 0
M  V30 14727 C 1410.54 0.319428 -1.67074 0
M  V30 14728 O 1411.73 0.195635 -1.93212 0
M  V30 14729 C 1408.86 -0.0662958 -3.47237 0
M  V30 14730 C 1407.81 -0.996943 -4.16227 0
M  V30 14731 C 1407.14 -0.241015 -5.34157 0
M  V30 14732 C 1408.44 -2.32384 -4.67755 0
M  V30 14733 H 1410.13 -1.57535 -2.54604 0
M  V30 14734 H 1407.68 -0.758909 -1.22379 0
M  V30 14735 H 1409.63 0.206024 -4.20896 0
M  V30 14736 H 1408.35 0.858263 -3.15121 0
M  V30 14737 H 1407.01 -1.25393 -3.44488 0
M  V30 14738 H 1406.66 0.686508 -4.98293 0
M  V30 14739 H 1406.36 -0.861188 -5.81255 0
M  V30 14740 H 1407.88 0.0238739 -6.10595 0
M  V30 14741 H 1409.3 -2.11099 -5.3302 0
M  V30 14742 H 1407.69 -2.89855 -5.25456 0
M  V30 14743 H 1408.76 -2.958 -3.84227 0
M  V30 14744 N 1410.11 1.33347 -0.840014 0
M  V30 14745 C 1411.35 1.98447 -0.446154 0
M  V30 14746 C 1411.71 1.65334 0.984 0
M  V30 14747 O 1411 0.923523 1.67874 0
M  V30 14748 C 1411.2 3.52239 -0.605173 0
M  V30 14749 C 1411.02 4.00295 -2.04923 0
M  V30 14750 C 1409.79 4.28079 -2.68471 0
M  V30 14751 C 1411.99 4.16431 -3.0181 0
M  V30 14752 N 1409.97 4.62283 -4.0394 0
M  V30 14753 C 1411.35 4.54008 -4.22229 0
M  V30 14754 C 1413.4 3.98724 -2.982 0
M  V30 14755 C 1412.1 4.75727 -5.39515 0
M  V30 14756 C 1414.13 4.21619 -4.14718 0
M  V30 14757 C 1413.49 4.59499 -5.33892 0
M  V30 14758 H 1409.59 0.752797 -0.211707 0
M  V30 14759 H 1412.17 1.61443 -1.08832 0
M  V30 14760 H 1410.35 3.88399 0.00719937 0
M  V30 14761 H 1412.08 4.04288 -0.182645 0
M  V30 14762 H 1408.83 4.1961 -2.196 0
M  V30 14763 H 1409.26 4.83594 -4.73779 0
M  V30 14764 H 1413.9 3.68553 -2.07193 0
M  V30 14765 H 1411.62 5.04759 -6.31066 0
M  V30 14766 H 1415.2 4.09437 -4.13343 0
M  V30 14767 H 1414.08 4.76863 -6.22553 0
M  V30 14768 N 1411.59 0.596556 1.45873 0
M  V30 14769 C 1412.86 0.0199562 1.9559 0
M  V30 14770 C 1413.24 -1.44479 1.53912 0
M  V30 14771 O 1412.59 -2.14173 0.796384 0
M  V30 14772 C 1412.8 0.206497 3.48389 0
M  V30 14773 C 1414.15 0.0815298 4.24522 0
M  V30 14774 O 1415.17 0.136045 3.5594 0
M  V30 14775 O 1414.03 -0.0426117 5.46483 0
M  V30 14776 H 1411.13 -0.0419913 0.825933 0
M  V30 14777 H 1413.67 0.665846 1.56092 0
M  V30 14778 H 1412.44 1.22422 3.71656 0
M  V30 14779 H 1412.07 -0.475175 3.9475 0
M  V30 14780 N 1413.06 -1.53996 0.335095 0
M  V30 14781 C 1414.48 -1.59591 -0.0171422 0
M  V30 14782 C 1414.68 -1.35132 -1.49471 0
M  V30 14783 O 1413.74 -1.14141 -2.25229 0
M  V30 14784 C 1415.05 -2.97872 0.411443 0
M  V30 14785 C 1416.6 -3.10887 0.363072 0
M  V30 14786 C 1417.07 -4.51532 0.766995 0
M  V30 14787 N 1418.56 -4.57557 0.72085 0
M  V30 14788 C 1419.3 -5.64516 1.00544 0
M  V30 14789 N 1418.79 -6.79365 1.35777 0
M  V30 14790 N 1420.59 -5.54349 0.930243 0
M  V30 14791 H 1412.74 -1.68151 1.29766 0
M  V30 14792 H 1415 -0.787067 0.528422 0
M  V30 14793 H 1414.71 -3.20809 1.44134 0
M  V30 14794 H 1414.58 -3.76571 -0.217678 0
M  V30 14795 H 1416.97 -2.87679 -0.657642 0
M  V30 14796 H 1417.05 -2.34266 1.02728 0
M  V30 14797 H 1416.69 -4.75474 1.78568 0
M  V30 14798 H 1416.62 -5.26539 0.0803511 0
M  V30 14799 H 1419.11 -3.75079 0.460867 0
M  V30 14800 H 1419.43 -7.56891 1.55999 0
M  V30 14801 H 1417.77 -6.80833 1.39614 0
M  V30 14802 H 1420.96 -4.63503 0.654402 0
M  V30 14803 H 1421.14 -6.37616 1.15539 0
M  V30 14804 N 1414.54 -0.0635198 -1.57472 0
M  V30 14805 C 1415.79 0.607484 -1.93173 0
M  V30 14806 C 1416.12 1.70117 -0.942897 0
M  V30 14807 O 1415.37 1.95653 0.042832 0
M  V30 14808 C 1415.67 1.23117 -3.35525 0
M  V30 14809 C 1415.34 0.264457 -4.50124 0
M  V30 14810 C 1414 -0.00151762 -4.812 0
M  V30 14811 C 1416.35 -0.39737 -5.19683 0
M  V30 14812 C 1413.68 -0.936547 -5.79177 0
M  V30 14813 C 1416.03 -1.32067 -6.18661 0
M  V30 14814 C 1414.69 -1.59519 -6.48159 0
M  V30 14815 H 1413.96 0.222294 -0.706871 0
M  V30 14816 H 1416.61 -0.132633 -1.9104 0
M  V30 14817 H 1414.92 2.04684 -3.34084 0
M  V30 14818 H 1416.61 1.7575 -3.60434 0
M  V30 14819 H 1413.2 0.481945 -4.25882 0
M  V30 14820 H 1417.39 -0.20499 -4.95876 0
M  V30 14821 H 1412.64 -1.15658 -6.00361 0
M  V30 14822 H 1416.82 -1.83949 -6.71666 0
M  V30 14823 H 1414.44 -2.32134 -7.23891 0
M  V30 14824 N 1416.02 1.56195 0.209972 0
M  V30 14825 C 1416.93 1.96539 1.28101 0
M  V30 14826 C 1417.95 0.870858 1.50639 0
M  V30 14827 O 1419.12 1.17539 1.63544 0
M  V30 14828 C 1416.19 2.28392 2.60841 0
M  V30 14829 C 1415.25 3.51474 2.46505 0
M  V30 14830 C 1414.48 3.81798 3.72915 0
M  V30 14831 O 1414.7 3.13627 4.76439 0
M  V30 14832 O 1413.64 4.75264 3.69334 0
M  V30 14833 H 1417.46 2.87838 0.968671 0
M  V30 14834 H 1415.05 1.43556 0.413777 0
M  V30 14835 H 1416.93 2.50022 3.39215 0
M  V30 14836 H 1415.61 1.40264 2.91732 0
M  V30 14837 H 1414.51 3.35109 1.66292 0
M  V30 14838 H 1415.85 4.40021 2.2055 0
M  V30 14839 N 1417.5 -0.477127 1.50204 0
M  V30 14840 C 1418.74 -1.23147 1.6113 0
M  V30 14841 C 1419.08 -1.91743 0.307909 0
M  V30 14842 O 1418.35 -1.81841 -0.690223 0
M  V30 14843 C 1418.63 -2.27985 2.78738 0
M  V30 14844 C 1418.49 -1.63733 4.18941 0
M  V30 14845 C 1419.81 -3.29349 2.9192 0
M  V30 14846 H 1416.93 -0.446358 0.586459 0
M  V30 14847 H 1419.57 -0.52612 1.8257 0
M  V30 14848 H 1417.72 -2.88143 2.60588 0
M  V30 14849 H 1419.39 -1.07218 4.48667 0
M  V30 14850 H 1417.63 -0.940634 4.23479 0
M  V30 14851 H 1418.3 -2.39888 4.9715 0
M  V30 14852 H 1420.78 -2.79208 3.08516 0
M  V30 14853 H 1419.66 -4.0004 3.75845 0
M  V30 14854 H 1419.92 -3.93111 2.02278 0
M  V30 14855 N 1418.98 -1.3968 -0.729882 0
M  V30 14856 C 1419.91 -1.34713 -1.85432 0
M  V30 14857 C 1420.92 -0.254999 -1.60791 0
M  V30 14858 O 1422.11 -0.514324 -1.7093 0
M  V30 14859 C 1419.21 -1.07019 -3.21559 0
M  V30 14860 C 1418.38 -2.27609 -3.73515 0
M  V30 14861 C 1417.44 -1.96292 -4.88217 0
M  V30 14862 O 1416.47 -2.69025 -5.01612 0
M  V30 14863 N 1417.67 -0.932181 -5.72967 0
M  V30 14864 H 1420.44 -2.31616 -1.90195 0
M  V30 14865 H 1418 -1.33849 -0.910834 0
M  V30 14866 H 1419.99 -0.84079 -3.9587 0
M  V30 14867 H 1418.56 -0.188323 -3.12032 0
M  V30 14868 H 1417.78 -2.66468 -2.90497 0
M  V30 14869 H 1419.07 -3.08033 -4.04961 0
M  V30 14870 H 1418.46 -0.329507 -5.6474 0
M  V30 14871 H 1417.02 -0.762684 -6.47322 0
M  V30 14872 N 1420.45 0.960609 -1.2494 0
M  V30 14873 C 1421.7 1.70111 -1.09117 0
M  V30 14874 C 1422.02 1.91466 0.369544 0
M  V30 14875 O 1421.29 1.49749 1.26302 0
M  V30 14876 H 1419.87 0.630372 -0.400799 0
M  V30 14877 H 1422.54 1.15525 -1.56971 0
M  V30 14878 H 1421.63 2.68277 -1.5948 0
M  V30 14879 N 1421.93 1.0643 1.16234 0
M  V30 14880 C 1422.86 0.697605 2.22836 0
M  V30 14881 C 1423.84 -0.310563 1.67241 0
M  V30 14882 O 1425.03 -0.185385 1.93313 0
M  V30 14883 C 1422.16 0.0847097 3.47197 0
M  V30 14884 C 1421.11 1.019 4.15693 0
M  V30 14885 C 1420.44 0.269339 5.34021 0
M  V30 14886 C 1421.74 2.34861 4.66516 0
M  V30 14887 H 1423.43 1.58883 2.53765 0
M  V30 14888 H 1420.98 0.765388 1.21975 0
M  V30 14889 H 1422.93 -0.1837 4.20999 0
M  V30 14890 H 1421.66 -0.84154 3.15572 0
M  V30 14891 H 1420.31 1.27218 3.43818 0
M  V30 14892 H 1419.96 -0.660072 4.9865 0
M  V30 14893 H 1419.66 0.892001 5.8079 0
M  V30 14894 H 1421.19 0.00850775 6.10599 0
M  V30 14895 H 1422.6 2.13922 5.31893 0
M  V30 14896 H 1421 2.92637 5.23912 0
M  V30 14897 H 1422.07 2.97834 3.82653 0
M  V30 14898 N 1423.41 -1.329 0.847073 0
M  V30 14899 C 1424.34 -2.27903 0.243522 0
M  V30 14900 C 1425.36 -1.52101 -0.58043 0
M  V30 14901 O 1426.54 -1.73818 -0.406158 0
M  V30 14902 C 1423.64 -3.32107 -0.675118 0
M  V30 14903 C 1422.82 -4.37258 0.111305 0
M  V30 14904 C 1421.88 -5.21085 -0.731933 0
M  V30 14905 O 1420.9 -5.68951 -0.168176 0
M  V30 14906 N 1422.1 -5.43175 -2.04794 0
M  V30 14907 H 1424.87 -2.80335 1.05983 0
M  V30 14908 H 1422.43 -1.4568 0.706322 0
M  V30 14909 H 1424.42 -3.85093 -1.2444 0
M  V30 14910 H 1422.99 -2.79891 -1.39212 0
M  V30 14911 H 1422.21 -3.8466 0.861991 0
M  V30 14912 H 1423.5 -5.04608 0.651756 0
M  V30 14913 H 1422.9 -5.06002 -2.5294 0
M  V30 14914 H 1421.46 -5.99186 -2.56552 0
M  V30 14915 N 1424.89 -0.604284 -1.45555 0
M  V30 14916 C 1426.3 -0.183613 -1.85795 0
M  V30 14917 C 1426.65 1.25869 -1.50504 0
M  V30 14918 O 1425.78 1.9539 -0.930148 0
M  V30 14919 C 1426.37 -0.326455 -3.37224 0
M  V30 14920 C 1424.93 0.0394987 -3.76379 0
M  V30 14921 C 1424.08 -0.65243 -2.69516 0
M  V30 14922 H 1427.03 -0.811173 -1.36403 0
M  V30 14923 H 1427.05 0.442258 -3.77921 0
M  V30 14924 H 1426.56 -1.37627 -3.62878 0
M  V30 14925 H 1424.66 1.08862 -3.56342 0
M  V30 14926 H 1424.77 -0.35185 -4.77806 0
M  V30 14927 H 1423.14 -0.0904148 -2.54539 0
M  V30 14928 H 1423.92 -1.70432 -2.98007 0
M  V30 14929 N 1426.37 1.53816 -0.343257 0
M  V30 14930 C 1427.31 2.26505 0.529002 0
M  V30 14931 C 1428.31 1.28639 1.1022 0
M  V30 14932 O 1429.51 1.46348 1.04797 0
M  V30 14933 H 1425.89 0.727789 0.189279 0
M  V30 14934 H 1427.86 2.98211 -0.106096 0
M  V30 14935 C 1426.61 3.05062 1.6683 0
M  V30 14936 H 1425.93 3.80198 1.23651 0
M  V30 14937 H 1427.37 3.59138 2.2538 0
M  V30 14938 C 1425.83 2.14543 2.59756 0
M  V30 14939 O 1426.36 1.74132 3.61996 0
M  V30 14940 N 1424.57 1.79628 2.28434 0
M  V30 14941 H 1424.11 2.12688 1.45332 0
M  V30 14942 H 1424.07 1.19345 2.90868 0
M  V30 14943 N 1427.84 0.0718701 1.57436 0
M  V30 14944 C 1429.09 -0.596052 1.9311 0
M  V30 14945 C 1429.41 -1.70146 0.952652 0
M  V30 14946 O 1428.68 -1.959 0.000812941 0
M  V30 14947 H 1427.26 -0.223165 0.712886 0
M  V30 14948 H 1429.93 0.129744 1.94468 0
M  V30 14949 H 1429.02 -1.02132 2.94916 0
M  V30 14950 N 1429.32 -1.56304 -0.201686 0
M  V30 14951 C 1430.23 -1.97215 -1.27057 0
M  V30 14952 C 1431.25 -0.878834 -1.50175 0
M  V30 14953 O 1432.42 -1.18405 -1.62918 0
M  V30 14954 C 1429.49 -2.29772 -2.59626 0
M  V30 14955 C 1428.55 -3.52776 -2.44637 0
M  V30 14956 C 1427.78 -3.83771 -3.70885 0
M  V30 14957 O 1428.01 -3.16149 -4.7477 0
M  V30 14958 O 1426.94 -4.77216 -3.66808 0
M  V30 14959 H 1430.77 -2.88347 -0.953393 0
M  V30 14960 H 1428.35 -1.43773 -0.406158 0
M  V30 14961 H 1430.23 -2.51817 -3.37885 0
M  V30 14962 H 1428.91 -1.41809 -2.90984 0
M  V30 14963 H 1427.82 -3.35986 -1.64512 0
M  V30 14964 H 1429.15 -4.41184 -2.18214 0
M  V30 14965 N 1430.8 0.469154 -1.50455 0
M  V30 14966 C 1431.71 1.59271 -1.7225 0
M  V30 14967 C 1432.73 1.63119 -0.605668 0
M  V30 14968 O 1433.9 1.80952 -0.884222 0
M  V30 14969 C 1430.97 2.95475 -1.81372 0
M  V30 14970 C 1430.03 3.02 -3.05114 0
M  V30 14971 C 1429.26 4.31707 -3.13791 0
M  V30 14972 O 1429.48 5.2232 -2.29211 0
M  V30 14973 O 1428.42 4.43864 -4.06532 0
M  V30 14974 H 1432.24 1.43804 -2.67496 0
M  V30 14975 H 1429.83 0.648855 -1.34574 0
M  V30 14976 H 1431.71 3.76367 -1.89541 0
M  V30 14977 H 1430.39 3.11136 -0.893094 0
M  V30 14978 H 1429.29 2.20178 -3.02444 0
M  V30 14979 H 1430.63 2.91275 -3.96761 0
M  V30 14980 N 1432.28 1.40065 0.722464 0
M  V30 14981 C 1433.21 1.34182 1.84582 0
M  V30 14982 C 1434.19 0.213339 1.61194 0
M  V30 14983 O 1435.37 0.395867 1.84296 0
M  V30 14984 C 1432.5 1.08658 3.20798 0
M  V30 14985 C 1431.55 2.23865 3.63024 0
M  V30 14986 S 1432.38 3.86221 3.70936 0
M  V30 14987 C 1433.54 3.62948 5.09921 0
M  V30 14988 H 1433.77 2.29251 1.89291 0
M  V30 14989 H 1431.3 1.26269 0.888568 0
M  V30 14990 H 1433.26 0.946172 3.99447 0
M  V30 14991 H 1431.92 0.152542 3.13729 0
M  V30 14992 H 1431.11 2.01631 4.6191 0
M  V30 14993 H 1430.72 2.34174 2.91614 0
M  V30 14994 H 1433.01 3.20989 5.96634 0
M  V30 14995 H 1433.95 4.6134 5.37188 0
M  V30 14996 H 1434.36 2.9678 4.8019 0
M  V30 14997 N 1433.76 -0.95397 1.25448 0
M  V30 14998 C 1434.99 -1.73331 1.12977 0
M  V30 14999 C 1435.4 -1.86131 -0.316364 0
M  V30 15000 O 1434.76 -1.35951 -1.21753 0
M  V30 15001 C 1434.81 -3.14675 1.77938 0
M  V30 15002 O 1434.53 -3.025 3.16899 0
M  V30 15003 C 1436.03 -4.08884 1.71256 0
M  V30 15004 H 1433.25 -0.543118 0.394036 0
M  V30 15005 H 1435.79 -1.19678 1.65823 0
M  V30 15006 H 1433.95 -3.6527 1.29062 0
M  V30 15007 H 1434.36 -3.91668 3.4885 0
M  V30 15008 H 1435.84 -5.05668 2.21368 0
M  V30 15009 H 1436.31 -4.33959 0.676476 0
M  V30 15010 H 1436.92 -3.64205 2.19624 0
M  V30 15011 N 1435.24 -1.07045 -1.15668 0
M  V30 15012 C 1436.17 -0.709413 -2.22463 0
M  V30 15013 C 1437.15 0.30169 -1.67403 0
M  V30 15014 O 1438.33 0.175131 -1.93409 0
M  V30 15015 C 1435.46 -0.103121 -3.47147 0
M  V30 15016 C 1434.42 -1.04103 -4.15146 0
M  V30 15017 C 1433.74 -0.297656 -5.33871 0
M  V30 15018 C 1435.04 -2.37332 -4.65264 0
M  V30 15019 H 1436.74 -1.60227 -2.52918 0
M  V30 15020 H 1434.28 -0.771846 -1.21567 0
M  V30 15021 H 1436.23 0.161371 -4.21091 0
M  V30 15022 H 1434.96 0.824792 -3.16014 0
M  V30 15023 H 1433.62 -1.2904 -3.43139 0
M  V30 15024 H 1433.27 0.633618 -4.98993 0
M  V30 15025 H 1432.97 -0.922789 -5.80309 0
M  V30 15026 H 1434.49 -0.0408892 -6.10586 0
M  V30 15027 H 1435.9 -2.1674 -5.30751 0
M  V30 15028 H 1434.3 -2.95412 -5.22352 0
M  V30 15029 H 1435.37 -2.99859 -3.81068 0
M  V30 15030 N 1436.71 1.32449 -0.85411 0
M  V30 15031 C 1437.66 2.2889 -0.296341 0
M  V30 15032 C 1438.63 1.55024 0.596378 0
M  V30 15033 O 1439.82 1.8325 0.531406 0
M  V30 15034 C 1436.96 3.41315 0.509729 0
M  V30 15035 C 1436.07 4.30062 -0.40872 0
M  V30 15036 C 1435.2 5.29616 0.409928 0
M  V30 15037 C 1434.24 6.10005 -0.505953 0
M  V30 15038 N 1433.38 7.01559 0.275483 0
M  V30 15039 H 1438.22 2.75989 -1.12401 0
M  V30 15040 H 1435.76 1.35787 -0.565717 0
M  V30 15041 H 1437.71 4.05218 0.992697 0
M  V30 15042 H 1436.34 2.95367 1.30223 0
M  V30 15043 H 1435.4 3.66745 -1.01007 0
M  V30 15044 H 1436.71 4.86255 -1.11165 0
M  V30 15045 H 1435.86 5.99119 0.956083 0
M  V30 15046 H 1434.6 4.74039 1.14623 0
M  V30 15047 H 1433.61 5.39406 -1.064 0
M  V30 15048 H 1434.83 6.67667 -1.24086 0
M  V30 15049 H 1432.78 6.48412 0.994887 0
M  V30 15050 H 1432.69 7.55102 -0.368426 0
M  V30 15051 H 1433.96 7.75349 0.803382 0
M  V30 15052 N 1438.19 0.611994 1.45232 0
M  V30 15053 C 1439.12 -0.142449 2.28757 0
M  V30 15054 C 1440.14 -0.827486 1.40202 0
M  V30 15055 O 1441.33 -0.692136 1.64535 0
M  V30 15056 C 1438.43 -1.22296 3.16065 0
M  V30 15057 C 1437.6 -0.624178 4.32924 0
M  V30 15058 C 1436.66 -1.59615 5.01408 0
M  V30 15059 O 1435.68 -1.12073 5.58058 0
M  V30 15060 N 1436.89 -2.93057 5.01097 0
M  V30 15061 H 1439.65 0.574276 2.94147 0
M  V30 15062 H 1437.21 0.451789 1.55469 0
M  V30 15063 H 1439.2 -1.87309 3.58744 0
M  V30 15064 H 1437.77 -1.84215 2.52554 0
M  V30 15065 H 1436.99 0.204141 3.93671 0
M  V30 15066 H 1438.28 -0.204435 5.08389 0
M  V30 15067 H 1437.68 -3.3428 4.5637 0
M  V30 15068 H 1436.24 -3.53481 5.47626 0
M  V30 15069 N 1439.67 -1.53632 0.351409 0
M  V30 15070 C 1440.92 -2.0104 -0.242687 0
M  V30 15071 C 1441.24 -1.23906 -1.49925 0
M  V30 15072 O 1440.5 -0.316927 -1.93117 0
M  V30 15073 C 1440.8 -3.5242 -0.594561 0
M  V30 15074 C 1440.46 -4.47333 0.566031 0
M  V30 15075 C 1439.13 -4.73001 0.884515 0
M  V30 15076 C 1441.48 -5.03566 1.34426 0
M  V30 15077 C 1438.81 -5.52156 1.98346 0
M  V30 15078 C 1441.16 -5.8392 2.43351 0
M  V30 15079 C 1439.82 -6.0788 2.7575 0
M  V30 15080 H 1439.09 -0.735659 -0.0888056 0
M  V30 15081 H 1441.74 -1.85362 0.480948 0
M  V30 15082 H 1440.04 -3.65971 -1.39902 0
M  V30 15083 H 1441.74 -3.86565 -1.06625 0
M  V30 15084 H 1438.33 -4.27494 0.307751 0
M  V30 15085 H 1442.52 -4.83694 1.11146 0
M  V30 15086 H 1437.77 -5.68942 2.23863 0
M  V30 15087 H 1441.95 -6.26505 3.04079 0
M  V30 15088 H 1439.57 -6.69001 3.61029 0
M  V30 15089 N 1441.15 -0.0802183 -1.57396 0
M  V30 15090 C 1442.08 0.881426 -2.16225 0
M  V30 15091 C 1443.06 1.30459 -1.09154 0
M  V30 15092 O 1444.24 1.37413 -1.37227 0
M  V30 15093 C 1441.37 2.14599 -2.73065 0
M  V30 15094 C 1440.33 1.86195 -3.85377 0
M  V30 15095 C 1439.65 3.19354 -4.28856 0
M  V30 15096 C 1440.95 1.16059 -5.09242 0
M  V30 15097 H 1442.65 0.391325 -2.96832 0
M  V30 15098 H 1440.19 0.186785 -1.42783 0
M  V30 15099 H 1442.15 2.82297 -3.12868 0
M  V30 15100 H 1440.87 2.65866 -1.89691 0
M  V30 15101 H 1439.53 1.209 -3.46091 0
M  V30 15102 H 1439.18 3.68479 -3.42392 0
M  V30 15103 H 1438.88 3.01137 -5.04569 0
M  V30 15104 H 1440.4 3.88235 -4.71281 0
M  V30 15105 H 1441.82 1.7384 -5.46308 0
M  V30 15106 H 1440.21 1.08072 -5.90288 0
M  V30 15107 H 1441.28 0.14098 -4.84695 0
M  V30 15108 N 1442.63 1.56409 0.193394 0
M  V30 15109 C 1443.9 1.71559 0.93951 0
M  V30 15110 C 1444.28 0.635478 2.01308 0
M  V30 15111 O 1443.63 -0.353267 2.25753 0
M  V30 15112 C 1443.84 3.13948 1.52438 0
M  V30 15113 C 1445.19 3.74234 2.00585 0
M  V30 15114 O 1446.21 3.17088 1.62277 0
M  V30 15115 O 1445.07 4.74529 2.71081 0
M  V30 15116 H 1442.17 0.69979 0.440707 0
M  V30 15117 H 1444.71 1.68711 0.182957 0
M  V30 15118 H 1443.48 3.84033 0.750613 0
M  V30 15119 H 1443.11 3.21032 2.34572 0
M  V30 15120 N 1444.1 -0.461169 1.50702 0
M  V30 15121 C 1445.33 -1.23375 1.65717 0
M  V30 15122 C 1445.74 -1.86047 0.343992 0
M  V30 15123 O 1445.08 -1.70447 -0.68508 0
M  V30 15124 C 1445.15 -2.3758 2.69808 0
M  V30 15125 C 1444.81 -1.95467 4.13088 0
M  V30 15126 C 1445.81 -1.47154 4.9864 0
M  V30 15127 C 1443.49 -2.03885 4.5906 0
M  V30 15128 C 1445.49 -1.07815 6.28215 0
M  V30 15129 C 1443.17 -1.64157 5.88639 0
M  V30 15130 C 1444.17 -1.16201 6.73043 0
M  V30 15131 O 1443.86 -0.770282 8.00201 0
M  V30 15132 H 1443.59 -0.378885 0.559841 0
M  V30 15133 H 1446.15 -0.555712 1.9774 0
M  V30 15134 H 1444.38 -3.08586 2.33049 0
M  V30 15135 H 1446.06 -2.99517 2.73942 0
M  V30 15136 H 1446.83 -1.40064 4.64335 0
M  V30 15137 H 1442.71 -2.40159 3.93503 0
M  V30 15138 H 1446.25 -0.703139 6.94047 0
M  V30 15139 H 1442.15 -1.70909 6.22463 0
M  V30 15140 H 1442.92 -0.898254 8.13556 0
M  V30 15141 N 1445.58 -1.40446 -0.715026 0
M  V30 15142 C 1446.83 -1.38754 -1.47491 0
M  V30 15143 C 1447.16 0.0099443 -1.94497 0
M  V30 15144 O 1446.41 0.99458 -1.68543 0
M  V30 15145 C 1446.71 -2.32392 -2.7153 0
M  V30 15146 C 1446.38 -3.79635 -2.43286 0
M  V30 15147 C 1445.04 -4.19751 -2.35293 0
M  V30 15148 C 1447.39 -4.72681 -2.19596 0
M  V30 15149 C 1444.72 -5.50947 -2.01679 0
M  V30 15150 C 1447.07 -6.04176 -1.87495 0
M  V30 15151 C 1445.73 -6.43333 -1.77985 0
M  V30 15152 H 1445 -0.507738 -0.539706 0
M  V30 15153 H 1447.65 -1.73104 -0.81898 0
M  V30 15154 H 1445.96 -1.91229 -3.41963 0
M  V30 15155 H 1447.65 -2.28366 -3.29621 0
M  V30 15156 H 1444.24 -3.47852 -2.50393 0
M  V30 15157 H 1448.43 -4.42506 -2.24727 0
M  V30 15158 H 1443.68 -5.80187 -1.92854 0
M  V30 15159 H 1447.86 -6.75788 -1.68179 0
M  V30 15160 H 1445.48 -7.44909 -1.51706 0
M  V30 15161 N 1447.06 0.947303 -1.25952 0
M  V30 15162 C 1448.01 2.04511 -1.06976 0
M  V30 15163 C 1448.98 1.66084 0.023347 0
M  V30 15164 O 1450.16 1.9032 -0.135247 0
M  V30 15165 C 1447.3 3.37878 -0.70232 0
M  V30 15166 C 1446.41 3.89379 -1.87105 0
M  V30 15167 C 1445.55 5.11104 -1.44728 0
M  V30 15168 C 1444.59 5.54852 -2.58469 0
M  V30 15169 N 1443.73 6.67784 -2.16817 0
M  V30 15170 H 1448.57 2.20075 -2.00925 0
M  V30 15171 H 1446.1 1.07837 -1.00048 0
M  V30 15172 H 1448.06 4.14542 -0.470199 0
M  V30 15173 H 1446.69 3.22179 0.20019 0
M  V30 15174 H 1445.74 3.09169 -2.21627 0
M  V30 15175 H 1447.05 4.17789 -2.72496 0
M  V30 15176 H 1446.21 5.95208 -1.17525 0
M  V30 15177 H 1444.95 4.84426 -0.564191 0
M  V30 15178 H 1443.95 4.69308 -2.86409 0
M  V30 15179 H 1445.18 5.83534 -3.47368 0
M  V30 15180 H 1443.12 6.428 -1.30934 0
M  V30 15181 H 1443.04 6.95749 -2.95753 0
M  V30 15182 H 1444.31 7.55278 -1.92809 0
M  V30 15183 N 1448.54 1.07657 1.15099 0
M  V30 15184 C 1449.77 0.822825 1.89835 0
M  V30 15185 C 1450.18 -0.624281 1.7818 0
M  V30 15186 O 1449.54 -1.42844 1.13587 0
M  V30 15187 C 1449.59 1.22598 3.40076 0
M  V30 15188 O 1449.31 2.61631 3.51398 0
M  V30 15189 C 1450.81 1.00199 4.31828 0
M  V30 15190 H 1448.03 0.297288 0.601549 0
M  V30 15191 H 1450.58 1.43384 1.45813 0
M  V30 15192 H 1448.73 0.65923 3.8175 0
M  V30 15193 H 1449.14 2.78163 4.44664 0
M  V30 15194 H 1450.62 1.33355 5.35649 0
M  V30 15195 H 1451.1 -0.0614865 4.39157 0
M  V30 15196 H 1451.7 1.5538 3.959 0
M  V30 15197 N 1450.02 -1.31994 0.861122 0
M  V30 15198 C 1450.93 -2.32495 0.313555 0
M  V30 15199 C 1451.94 -1.64331 -0.571966 0
M  V30 15200 O 1453.12 -1.9582 -0.470794 0
M  V30 15201 C 1450.18 -3.43311 -0.483603 0
M  V30 15202 C 1449.24 -4.27153 0.428825 0
M  V30 15203 C 1448.48 -5.32676 -0.330383 0
M  V30 15204 O 1448.7 -5.48665 -1.55957 0
M  V30 15205 O 1447.63 -6.01116 0.307174 0
M  V30 15206 H 1451.46 -2.81234 1.14636 0
M  V30 15207 H 1449.05 -1.35734 0.624239 0
M  V30 15208 H 1450.93 -4.10877 -0.935831 0
M  V30 15209 H 1449.6 -2.9675 -1.2931 0
M  V30 15210 H 1448.51 -3.62372 0.929366 0
M  V30 15211 H 1449.84 -4.77255 1.20368 0
M  V30 15212 N 1451.49 -0.619688 -1.44906 0
M  V30 15213 C 1452.44 0.113696 -2.27716 0
M  V30 15214 C 1453.43 0.82709 -1.38015 0
M  V30 15215 O 1454.62 0.715083 -1.61912 0
M  V30 15216 C 1451.75 1.10233 -3.25121 0
M  V30 15217 C 1450.84 0.389147 -4.22311 0
M  V30 15218 N 1451.23 -0.575929 -5.0251 0
M  V30 15219 C 1449.52 0.635112 -4.41455 0
M  V30 15220 C 1450.23 -0.996243 -5.73105 0
M  V30 15221 N 1449.2 -0.337427 -5.42552 0
M  V30 15222 H 1453 -0.627351 -2.87126 0
M  V30 15223 H 1450.52 -0.444293 -1.56204 0
M  V30 15224 H 1452.51 1.64223 -3.83192 0
M  V30 15225 H 1451.17 1.8438 -2.67272 0
M  V30 15226 H 1452.19 -0.953232 -5.09052 0
M  V30 15227 H 1448.86 1.36033 -3.94717 0
M  V30 15228 H 1450.25 -1.7929 -6.47537 0
M  V30 15229 N 1452.97 1.53444 -0.359552 0
M  V30 15230 C 1453.92 2.25544 0.48977 0
M  V30 15231 C 1454.89 1.25982 1.08248 0
M  V30 15232 O 1456.07 1.54751 1.1161 0
M  V30 15233 C 1453.21 3.04358 1.62666 0
M  V30 15234 C 1452.33 4.18801 1.0597 0
M  V30 15235 C 1451.46 4.85069 2.1652 0
M  V30 15236 C 1450.5 5.91554 1.57259 0
M  V30 15237 N 1449.64 6.51537 2.61617 0
M  V30 15238 H 1454.48 2.97709 -0.13158 0
M  V30 15239 H 1452.02 1.469 -0.0767056 0
M  V30 15240 H 1453.97 3.48324 2.29623 0
M  V30 15241 H 1452.6 2.34459 2.21876 0
M  V30 15242 H 1451.66 3.79364 0.280599 0
M  V30 15243 H 1452.97 4.95341 0.586383 0
M  V30 15244 H 1452.12 5.32187 2.9131 0
M  V30 15245 H 1450.86 4.07988 2.67202 0
M  V30 15246 H 1449.87 5.43803 0.809818 0
M  V30 15247 H 1451.09 6.70552 1.07409 0
M  V30 15248 H 1449.04 5.77312 3.11523 0
M  V30 15249 H 1448.95 7.23599 2.18954 0
M  V30 15250 H 1450.22 7.03306 3.36127 0
M  V30 15251 N 1454.45 0.0885642 1.57351 0
M  V30 15252 C 1455.38 -0.869946 2.16689 0
M  V30 15253 C 1456.36 -1.29878 1.09844 0
M  V30 15254 O 1457.55 -1.36684 1.37954 0
M  V30 15255 C 1454.68 -2.13148 2.74199 0
M  V30 15256 C 1453.63 -1.84149 3.86359 0
M  V30 15257 C 1452.96 -3.17075 4.30543 0
M  V30 15258 C 1454.26 -1.13357 5.09851 0
M  V30 15259 H 1455.95 -0.375578 2.97035 0
M  V30 15260 H 1453.5 -0.17921 1.42881 0
M  V30 15261 H 1455.45 -2.80634 3.14361 0
M  V30 15262 H 1454.17 -2.64856 1.91098 0
M  V30 15263 H 1452.83 -1.19063 3.46727 0
M  V30 15264 H 1452.48 -3.66658 3.44342 0
M  V30 15265 H 1452.18 -2.98457 5.06159 0
M  V30 15266 H 1453.7 -3.85731 4.73333 0
M  V30 15267 H 1455.12 -1.70941 5.47222 0
M  V30 15268 H 1453.52 -1.0494 5.90853 0
M  V30 15269 H 1454.59 -0.115273 4.84763 0
M  V30 15270 N 1455.93 -1.56509 -0.185096 0
M  V30 15271 C 1456.84 -1.98552 -1.24958 0
M  V30 15272 C 1457.85 -0.894713 -1.49234 0
M  V30 15273 O 1459.03 -1.20126 -1.61653 0
M  V30 15274 C 1456.1 -2.32513 -2.57175 0
M  V30 15275 C 1455.16 -3.55351 -2.40882 0
M  V30 15276 C 1454.39 -3.87683 -3.66794 0
M  V30 15277 O 1454.61 -3.21167 -4.7139 0
M  V30 15278 O 1453.55 -4.8108 -3.61726 0
M  V30 15279 H 1457.37 -2.89342 -0.922756 0
M  V30 15280 H 1454.96 -1.44196 -0.390887 0
M  V30 15281 H 1456.84 -2.55387 -3.35195 0
M  V30 15282 H 1455.51 -1.44888 -2.89464 0
M  V30 15283 H 1454.42 -3.37712 -1.60939 0
M  V30 15284 H 1455.75 -4.43474 -2.13522 0
M  V30 15285 N 1457.41 0.45317 -1.50944 0
M  V30 15286 C 1458.66 1.20076 -1.62064 0
M  V30 15287 C 1458.97 1.92709 -0.335034 0
M  V30 15288 O 1460.17 2.69543 -0.32538 0
M  V30 15289 C 1458.63 2.18283 -2.86148 0
M  V30 15290 C 1458.24 1.5137 -4.21653 0
M  V30 15291 C 1459.98 2.93572 -3.0662 0
M  V30 15292 C 1457.89 2.47968 -5.36904 0
M  V30 15293 H 1456.82 0.451894 -0.603579 0
M  V30 15294 H 1459.47 0.46937 -1.77396 0
M  V30 15295 H 1457.85 2.94789 -2.64415 0
M  V30 15296 H 1459.03 0.805295 -4.53709 0
M  V30 15297 H 1457.34 0.882935 -4.06931 0
M  V30 15298 H 1459.94 3.65903 -3.89897 0
M  V30 15299 H 1460.28 3.54003 -2.1906 0
M  V30 15300 H 1460.81 2.24175 -3.28619 0
M  V30 15301 H 1457.55 1.92249 -6.26674 0
M  V30 15302 H 1457.07 3.16907 -5.09244 0
M  V30 15303 H 1458.75 3.09428 -5.6821 0
M  V30 15304 N 1458.88 1.40823 0.707568 0
M  V30 15305 C 1460.11 1.42866 1.49656 0
M  V30 15306 C 1460.53 0.0305663 1.88775 0
M  V30 15307 O 1459.88 -0.947376 1.55984 0
M  V30 15308 C 1459.94 2.32661 2.76679 0
M  V30 15309 O 1459.66 3.67028 2.39211 0
M  V30 15310 C 1461.16 2.4338 3.70514 0
M  V30 15311 H 1458.38 0.487009 0.461588 0
M  V30 15312 H 1460.92 1.84969 0.872167 0
M  V30 15313 H 1459.08 1.93898 3.35384 0
M  V30 15314 H 1459.49 4.14799 3.21002 0
M  V30 15315 H 1460.96 3.10401 4.56459 0
M  V30 15316 H 1461.44 1.46132 4.14176 0
M  V30 15317 H 1462.05 2.82728 3.17718 0
M  V30 15318 N 1460.36 -0.94061 1.26453 0
M  V30 15319 C 1461.3 -2.03945 1.0238 0
M  V30 15320 C 1462.27 -1.62518 -0.051622 0
M  V30 15321 O 1463.46 -1.88281 0.09091 0
M  V30 15322 C 1460.58 -3.34197 0.550464 0
M  V30 15323 C 1459.63 -3.94596 1.61853 0
M  V30 15324 S 1460.46 -4.28803 3.20762 0
M  V30 15325 C 1461.62 -5.62154 2.75198 0
M  V30 15326 H 1461.85 -2.24051 1.95419 0
M  V30 15327 H 1459.39 -1.08207 1.10139 0
M  V30 15328 H 1461.34 -4.09516 0.284031 0
M  V30 15329 H 1460 -3.12034 -0.359649 0
M  V30 15330 H 1459.2 -4.8855 1.23835 0
M  V30 15331 H 1458.8 -3.25812 1.83637 0
M  V30 15332 H 1461.09 -6.40889 2.19697 0
M  V30 15333 H 1462.03 -6.05057 3.67847 0
M  V30 15334 H 1462.44 -5.22058 2.14745 0
M  V30 15335 N 1461.84 -1.08266 -1.14527 0
M  V30 15336 C 1462.77 -0.732968 -2.21698 0
M  V30 15337 C 1463.75 0.283917 -1.67714 0
M  V30 15338 O 1464.94 0.154607 -1.93584 0
M  V30 15339 C 1462.07 -0.139935 -3.47018 0
M  V30 15340 C 1461.02 -1.08501 -4.14019 0
M  V30 15341 C 1460.35 -0.354263 -5.33525 0
M  V30 15342 C 1461.65 -2.42254 -4.62721 0
M  V30 15343 H 1463.34 -1.629 -2.51205 0
M  V30 15344 H 1460.89 -0.784696 -1.20742 0
M  V30 15345 H 1462.84 0.1167 -4.21238 0
M  V30 15346 H 1461.56 0.791228 -3.16871 0
M  V30 15347 H 1460.22 -1.32672 -3.41751 0
M  V30 15348 H 1459.87 0.580658 -4.99637 0
M  V30 15349 H 1459.57 -0.984287 -5.79297 0
M  V30 15350 H 1461.09 -0.105648 -6.10509 0
M  V30 15351 H 1462.51 -2.22357 -5.28422 0
M  V30 15352 H 1460.91 -3.00935 -5.1919 0
M  V30 15353 H 1461.98 -3.03884 -3.77866 0
M  V30 15354 N 1463.32 1.31536 -0.86811 0
M  V30 15355 C 1464.54 2.01487 -0.491705 0
M  V30 15356 C 1464.97 1.64744 0.907803 0
M  V30 15357 O 1464.33 0.855093 1.59868 0
M  V30 15358 C 1464.38 3.54621 -0.65395 0
M  V30 15359 O 1463.48 4.11252 0.307532 0
M  V30 15360 H 1462.82 0.634469 -0.195819 0
M  V30 15361 H 1465.35 1.67775 -1.17101 0
M  V30 15362 H 1465.36 4.04323 -0.546539 0
M  V30 15363 H 1464.04 3.80704 -1.67443 0
M  V30 15364 H 1462.61 3.72577 0.155233 0
M  V30 15365 N 1464.8 0.627364 1.44575 0
M  V30 15366 C 1465.73 -0.118179 2.28895 0
M  V30 15367 C 1466.74 -0.812569 1.41071 0
M  V30 15368 O 1467.93 -0.674646 1.6526 0
M  V30 15369 C 1465.03 -1.18937 3.17344 0
M  V30 15370 C 1464.2 -0.578226 4.33561 0
M  V30 15371 C 1463.26 -1.54288 5.03072 0
M  V30 15372 O 1462.29 -1.06148 5.59215 0
M  V30 15373 N 1463.49 -2.87725 5.04177 0
M  V30 15374 H 1466.26 0.605442 2.93521 0
M  V30 15375 H 1463.82 0.468253 1.54981 0
M  V30 15376 H 1465.81 -1.83494 3.60711 0
M  V30 15377 H 1464.38 -1.81526 2.54494 0
M  V30 15378 H 1463.6 0.245883 3.93432 0
M  V30 15379 H 1464.89 -0.150502 5.08577 0
M  V30 15380 H 1464.29 -3.29421 4.5989 0
M  V30 15381 H 1462.84 -3.47653 5.51344 0
M  V30 15382 N 1466.28 -1.53251 0.367684 0
M  V30 15383 C 1467.52 -2.00889 -0.220914 0
M  V30 15384 C 1467.84 -1.25662 -1.4911 0
M  V30 15385 O 1467.11 -0.370491 -1.92365 0
M  V30 15386 H 1465.69 -0.742191 -0.0846233 0
M  V30 15387 H 1468.36 -1.88525 0.494402 0
M  V30 15388 H 1467.45 -3.08891 -0.446414 0
M  V30 15389 N 1467.75 -0.0969077 -1.57302 0
M  V30 15390 C 1469 0.567212 -1.94706 0
M  V30 15391 C 1469.33 1.67721 -0.978937 0
M  V30 15392 O 1468.61 1.94496 -0.0123016 0
M  V30 15393 C 1468.89 1.12069 -3.42217 0
M  V30 15394 C 1468.74 0.015615 -4.49797 0
M  V30 15395 C 1470.06 2.0185 -3.91081 0
M  V30 15396 H 1467.18 0.204716 -0.707997 0
M  V30 15397 H 1469.82 -0.167984 -1.89256 0
M  V30 15398 H 1467.97 1.74723 -3.46993 0
M  V30 15399 H 1469.65 -0.61871 -4.57132 0
M  V30 15400 H 1467.89 -0.650529 -4.28895 0
M  V30 15401 H 1468.56 0.443724 -5.50214 0
M  V30 15402 H 1471.04 1.49098 -3.8847 0
M  V30 15403 H 1469.91 2.37502 -4.94858 0
M  V30 15404 H 1470.17 2.93659 -3.3048 0
M  V30 15405 N 1469.23 1.56605 0.176793 0
M  V30 15406 C 1470.46 1.8617 0.91408 0
M  V30 15407 C 1470.88 0.68262 1.75277 0
M  V30 15408 O 1470.24 -0.368391 1.77518 0
M  V30 15409 C 1470.29 3.14109 1.7711 0
M  V30 15410 O 1469.39 2.95947 2.87209 0
M  V30 15411 H 1468.73 0.612507 0.25638 0
M  V30 15412 H 1471.26 2.03837 0.176586 0
M  V30 15413 H 1471.27 3.45373 2.17213 0
M  V30 15414 H 1469.95 3.9954 1.15502 0
M  V30 15415 H 1468.52 2.76024 2.50729 0
M  V30 15416 N 1470.71 -0.445159 1.51182 0
M  V30 15417 C 1471.64 -1.55943 1.66604 0
M  V30 15418 C 1472.62 -1.54272 0.513703 0
M  V30 15419 O 1473.8 -1.73514 0.736548 0
M  V30 15420 C 1470.93 -2.94528 1.67245 0
M  V30 15421 C 1469.98 -3.14255 2.88351 0
M  V30 15422 S 1470.81 -2.91385 4.49283 0
M  V30 15423 C 1471.97 -4.32265 4.52656 0
M  V30 15424 H 1472.2 -1.42627 2.60854 0
M  V30 15425 H 1469.73 -0.634314 1.40769 0
M  V30 15426 H 1471.69 -3.74414 1.68299 0
M  V30 15427 H 1470.35 -3.05214 0.741856 0
M  V30 15428 H 1469.54 -4.1556 2.85177 0
M  V30 15429 H 1469.15 -2.42182 2.84998 0
M  V30 15430 H 1471.44 -5.25338 4.27816 0
M  V30 15431 H 1472.38 -4.40474 5.54426 0
M  V30 15432 H 1472.79 -4.15555 3.82066 0
M  V30 15433 N 1472.19 -1.41197 -0.700089 0
M  V30 15434 C 1473.12 -1.45456 -1.8266 0
M  V30 15435 C 1474.1 -0.313719 -1.67182 0
M  V30 15436 O 1475.28 -0.524528 -1.86982 0
M  V30 15437 C 1472.41 -1.33161 -3.20758 0
M  V30 15438 C 1471.37 -2.4501 -3.50933 0
M  V30 15439 C 1470.69 -2.17782 -4.88339 0
M  V30 15440 C 1471.99 -3.87352 -3.50365 0
M  V30 15441 H 1473.69 -2.39735 -1.79353 0
M  V30 15442 H 1471.23 -1.1539 -0.861465 0
M  V30 15443 H 1473.19 -1.34754 -3.99274 0
M  V30 15444 H 1471.91 -0.353646 -3.2468 0
M  V30 15445 H 1470.57 -2.42692 -2.74766 0
M  V30 15446 H 1470.22 -1.1834 -4.88881 0
M  V30 15447 H 1469.92 -2.92728 -5.09494 0
M  V30 15448 H 1471.44 -2.21083 -5.6917 0
M  V30 15449 H 1472.86 -3.9141 -4.18893 0
M  V30 15450 H 1471.25 -4.61944 -3.83051 0
M  V30 15451 H 1472.32 -4.15827 -2.4943 0
M  V30 15452 N 1473.67 0.933891 -1.2695 0
M  V30 15453 C 1474.9 1.71263 -1.15553 0
M  V30 15454 C 1475.3 1.86948 0.291059 0
M  V30 15455 O 1474.65 1.38173 1.21053 0
M  V30 15456 C 1474.71 3.13479 -1.75986 0
M  V30 15457 C 1474.37 3.21154 -3.2513 0
M  V30 15458 C 1475.37 3.03874 -4.21849 0
M  V30 15459 C 1473.05 3.44311 -3.65726 0
M  V30 15460 C 1475.05 3.09631 -5.57142 0
M  V30 15461 C 1472.74 3.49702 -5.01151 0
M  V30 15462 C 1473.73 3.32379 -5.96668 0
M  V30 15463 O 1473.42 3.37493 -7.29626 0
M  V30 15464 H 1473.15 0.542801 -0.402918 0
M  V30 15465 H 1475.71 1.17877 -1.68209 0
M  V30 15466 H 1473.94 3.6832 -1.178 0
M  V30 15467 H 1475.63 3.73295 -1.59391 0
M  V30 15468 H 1476.39 2.85832 -3.91823 0
M  V30 15469 H 1472.27 3.56847 -2.91859 0
M  V30 15470 H 1475.82 2.96028 -6.31675 0
M  V30 15471 H 1471.71 3.67267 -5.30835 0
M  V30 15472 H 1472.48 3.53988 -7.37994 0
M  V30 15473 N 1475.14 1.08871 1.13951 0
M  V30 15474 C 1476.37 0.843055 1.89492 0
M  V30 15475 C 1476.79 -0.599539 1.78289 0
M  V30 15476 O 1476.15 -1.42062 1.12642 0
M  V30 15477 C 1476.2 1.27572 3.3728 0
M  V30 15478 O 1475.3 0.430611 4.10146 0
M  V30 15479 H 1474.64 0.3058 0.589391 0
M  V30 15480 H 1477.17 1.45137 1.44209 0
M  V30 15481 H 1477.18 1.25864 3.88101 0
M  V30 15482 H 1475.86 2.32635 3.44751 0
M  V30 15483 H 1474.44 0.511516 3.69375 0
M  V30 15484 N 1476.62 -1.31073 0.875073 0
M  V30 15485 C 1477.87 -1.96518 0.488549 0
M  V30 15486 C 1478.2 -1.69144 -0.960243 0
M  V30 15487 O 1477.45 -0.983344 -1.69201 0
M  V30 15488 C 1477.75 -3.50511 0.698351 0
M  V30 15489 C 1477.42 -3.97915 2.12071 0
M  V30 15490 C 1476.08 -4.10571 2.50968 0
M  V30 15491 C 1478.43 -4.22777 3.0481 0
M  V30 15492 C 1475.76 -4.45442 3.81836 0
M  V30 15493 C 1478.11 -4.59114 4.35198 0
M  V30 15494 C 1476.77 -4.69977 4.74002 0
M  V30 15495 H 1476.04 -0.719111 0.178773 0
M  V30 15496 H 1478.69 -1.56117 1.10904 0
M  V30 15497 H 1477 -3.918 -0.00523937 0
M  V30 15498 H 1478.69 -3.99205 0.379031 0
M  V30 15499 H 1475.28 -3.88565 1.80874 0
M  V30 15500 H 1479.47 -4.12489 2.75983 0
M  V30 15501 H 1474.72 -4.52051 4.11655 0
M  V30 15502 H 1478.9 -4.77303 5.07105 0
M  V30 15503 H 1476.52 -4.96753 5.75448 0
M  V30 15504 N 1478.1 -0.635022 -1.4424 0
M  V30 15505 C 1479.35 -0.141067 -2.02008 0
M  V30 15506 C 1479.68 1.23849 -1.49973 0
M  V30 15507 O 1478.93 1.83666 -0.675673 0
M  V30 15508 C 1479.23 -0.081191 -3.57308 0
M  V30 15509 C 1478.9 -1.40004 -4.28614 0
M  V30 15510 C 1477.56 -1.76125 -4.4781 0
M  V30 15511 C 1479.91 -2.27041 -4.6915 0
M  V30 15512 C 1477.24 -2.98982 -5.04804 0
M  V30 15513 C 1479.59 -3.49173 -5.27504 0
M  V30 15514 C 1478.25 -3.85512 -5.44919 0
M  V30 15515 H 1477.52 -0.05162 -0.7392 0
M  V30 15516 H 1480.17 -0.822112 -1.72955 0
M  V30 15517 H 1478.48 0.68324 -3.85797 0
M  V30 15518 H 1480.17 0.317584 -3.9974 0
M  V30 15519 H 1476.76 -1.10897 -4.14005 0
M  V30 15520 H 1480.95 -2.0043 -4.54028 0
M  V30 15521 H 1476.2 -3.27208 -5.16473 0
M  V30 15522 H 1480.38 -4.16847 -5.57864 0
M  V30 15523 H 1478 -4.80793 -5.88848 0
M  V30 15524 N 1479.58 1.53054 -0.375806 0
M  V30 15525 C 1480.51 2.22437 0.509628 0
M  V30 15526 C 1481.49 1.22005 1.07488 0
M  V30 15527 O 1482.67 1.50944 1.12907 0
M  V30 15528 C 1479.8 2.92707 1.70412 0
M  V30 15529 C 1478.85 4.07296 1.26538 0
M  V30 15530 S 1479.68 5.34877 0.258143 0
M  V30 15531 C 1480.84 6.08664 1.45873 0
M  V30 15532 H 1481.07 2.97193 -0.0795937 0
M  V30 15533 H 1478.6 1.53569 -0.159942 0
M  V30 15534 H 1480.56 3.33805 2.38924 0
M  V30 15535 H 1479.22 2.17655 2.26462 0
M  V30 15536 H 1478.41 4.55516 2.15687 0
M  V30 15537 H 1478.02 3.68142 0.659356 0
M  V30 15538 H 1480.31 6.34016 2.38808 0
M  V30 15539 H 1481.25 7.00748 1.01772 0
M  V30 15540 H 1481.66 5.3925 1.66942 0
M  V30 15541 N 1481.06 0.105248 1.57248 0
M  V30 15542 C 1482.47 -0.422304 1.81861 0
M  V30 15543 C 1482.82 -1.67508 1.02154 0
M  V30 15544 O 1481.94 -2.14905 0.253961 0
M  V30 15545 C 1482.54 -0.772943 3.29865 0
M  V30 15546 C 1481.1 -1.24519 3.55207 0
M  V30 15547 C 1480.24 -0.246936 2.76198 0
M  V30 15548 H 1483.2 0.330565 1.55219 0
M  V30 15549 H 1483.22 -1.6316 3.43743 0
M  V30 15550 H 1482.73 0.139033 3.87851 0
M  V30 15551 H 1480.83 -2.17453 3.02564 0
M  V30 15552 H 1480.94 -1.20001 4.63828 0
M  V30 15553 H 1479.31 -0.731171 2.43979 0
M  V30 15554 H 1480.09 0.657896 3.36937 0
M  V30 15555 N 1482.53 -1.56697 -0.168486 0
M  V30 15556 C 1483.5 -1.95744 -1.19235 0
M  V30 15557 C 1484.5 -0.841419 -1.37028 0
M  V30 15558 O 1485.69 -1.10842 -1.34386 0
M  V30 15559 C 1482.82 -2.25471 -2.55686 0
M  V30 15560 H 1484.01 -2.87368 -0.857892 0
M  V30 15561 H 1481.57 -1.50798 -0.411041 0
M  V30 15562 H 1482.3 -1.36571 -2.94141 0
M  V30 15563 H 1482.09 -3.06822 -2.44137 0
M  V30 15564 H 1483.58 -2.56593 -3.29469 0
M  V30 15565 N 1484.01 0.437135 -1.51416 0
M  V30 15566 C 1484.98 1.51313 -1.72154 0
M  V30 15567 C 1485.98 1.49523 -0.59157 0
M  V30 15568 O 1487.17 1.51541 -0.859118 0
M  V30 15569 C 1484.3 2.9085 -1.77818 0
M  V30 15570 H 1485.49 1.34229 -2.68184 0
M  V30 15571 H 1483.04 0.665822 -1.41409 0
M  V30 15572 H 1483.78 3.13338 -0.836033 0
M  V30 15573 H 1483.56 2.93554 -2.59939 0
M  V30 15574 H 1485.05 3.68905 -1.957 0
M  V30 15575 N 1485.49 1.41566 0.692592 0
M  V30 15576 C 1486.44 1.43648 1.80648 0
M  V30 15577 C 1487.41 0.290497 1.6354 0
M  V30 15578 O 1488.59 0.491979 1.84348 0
M  V30 15579 C 1485.73 1.32733 3.18553 0
M  V30 15580 C 1484.85 2.57224 3.47073 0
M  V30 15581 C 1483.98 2.38581 4.74608 0
M  V30 15582 C 1483.02 3.58534 4.96105 0
M  V30 15583 N 1482.16 3.38942 6.14868 0
M  V30 15584 H 1487 2.38847 1.78203 0
M  V30 15585 H 1484.53 1.186 0.870193 0
M  V30 15586 H 1486.49 1.24405 3.9822 0
M  V30 15587 H 1485.12 0.411407 3.20168 0
M  V30 15588 H 1484.17 2.7599 2.6179 0
M  V30 15589 H 1485.49 3.46443 3.58858 0
M  V30 15590 H 1484.64 2.27738 5.62335 0
M  V30 15591 H 1483.38 1.46824 4.65074 0
M  V30 15592 H 1482.38 3.69828 4.06826 0
M  V30 15593 H 1483.61 4.51248 5.07496 0
M  V30 15594 H 1481.55 2.49887 6.06541 0
M  V30 15595 H 1481.47 4.21737 6.27434 0
M  V30 15596 H 1482.74 3.31877 7.05321 0
M  V30 15597 N 1486.97 -0.927146 1.27443 0
M  V30 15598 C 1487.9 -2.04483 1.12735 0
M  V30 15599 C 1488.88 -1.70076 0.0286662 0
M  V30 15600 O 1490.06 -1.93133 0.203252 0
M  V30 15601 C 1487.19 -3.38557 0.774352 0
M  V30 15602 C 1486.15 -3.87078 1.82632 0
M  V30 15603 C 1485.47 -5.17964 1.32729 0
M  V30 15604 C 1486.77 -4.10409 3.23051 0
M  V30 15605 H 1488.47 -2.17046 2.06231 0
M  V30 15606 H 1486.01 -1.04292 0.992937 0
M  V30 15607 H 1487.97 -4.16227 0.658273 0
M  V30 15608 H 1486.69 -3.26009 -0.196321 0
M  V30 15609 H 1485.35 -3.11602 1.93132 0
M  V30 15610 H 1485 -5.01808 0.346059 0
M  V30 15611 H 1484.7 -5.51398 2.03061 0
M  V30 15612 H 1486.22 -5.98203 1.22416 0
M  V30 15613 H 1487.64 -4.78646 3.15549 0
M  V30 15614 H 1486.03 -4.5515 3.91099 0
M  V30 15615 H 1487.1 -3.15685 3.68064 0
M  V30 15616 N 1488.45 -1.09474 -1.13372 0
M  V30 15617 C 1489.39 -0.73458 -2.18798 0
M  V30 15618 C 1490.36 0.284433 -1.63647 0
M  V30 15619 O 1491.55 0.165958 -1.90077 0
M  V30 15620 C 1488.69 -0.161826 -3.4472 0
M  V30 15621 C 1487.8 -1.23494 -4.13973 0
M  V30 15622 C 1486.94 -0.624886 -5.27512 0
M  V30 15623 C 1485.98 -1.67927 -5.88614 0
M  V30 15624 N 1485.11 -1.09021 -6.93584 0
M  V30 15625 H 1489.95 -1.63787 -2.48954 0
M  V30 15626 H 1487.49 -0.818297 -1.22239 0
M  V30 15627 H 1489.45 0.188053 -4.16776 0
M  V30 15628 H 1488.08 0.70473 -3.15013 0
M  V30 15629 H 1487.13 -1.70209 -3.40196 0
M  V30 15630 H 1488.44 -2.0335 -4.55467 0
M  V30 15631 H 1487.6 -0.22388 -6.06287 0
M  V30 15632 H 1486.33 0.205214 -4.87268 0
M  V30 15633 H 1485.34 -2.08982 -5.08534 0
M  V30 15634 H 1486.56 -2.51204 -6.3093 0
M  V30 15635 H 1484.51 -0.281401 -6.55396 0
M  V30 15636 H 1484.43 -1.82573 -7.33623 0
M  V30 15637 H 1485.7 -0.715428 -7.7621 0
M  V30 15638 N 1489.92 1.30607 -0.882012 0
M  V30 15639 C 1490.83 2.31967 -0.350503 0
M  V30 15640 C 1491.85 1.6522 0.54575 0
M  V30 15641 O 1493.03 1.96544 0.439581 0
M  V30 15642 C 1490.09 3.44037 0.428924 0
M  V30 15643 C 1489.15 4.26417 -0.496727 0
M  V30 15644 C 1488.39 5.33135 0.245597 0
M  V30 15645 O 1488.61 5.51077 1.47209 0
M  V30 15646 O 1487.54 6.00551 -0.402767 0
M  V30 15647 H 1491.37 2.79374 -1.19095 0
M  V30 15648 H 1488.95 1.34723 -0.645754 0
M  V30 15649 H 1490.84 4.12314 0.870346 0
M  V30 15650 H 1489.51 2.9877 1.24573 0
M  V30 15651 H 1488.42 3.60848 -0.986899 0
M  V30 15652 H 1489.75 4.7528 -1.27945 0
M  V30 15653 N 1491.4 0.642663 1.43901 0
M  V30 15654 C 1492.82 0.309286 1.56575 0
M  V30 15655 C 1493.02 -1.18709 1.6282 0
M  V30 15656 O 1492.07 -1.97157 1.57751 0
M  V30 15657 C 1493.39 1.01136 2.83182 0
M  V30 15658 C 1494.94 0.9906 2.96911 0
M  V30 15659 C 1495.41 1.67336 4.26336 0
M  V30 15660 N 1496.9 1.6405 4.33177 0
M  V30 15661 C 1497.64 2.13762 5.32065 0
M  V30 15662 N 1497.13 2.71716 6.37293 0
M  V30 15663 N 1498.93 2.04323 5.23649 0
M  V30 15664 H 1491.08 1.61384 1.38091 0
M  V30 15665 H 1493.34 0.678084 0.6625 0
M  V30 15666 H 1493.05 2.0664 2.84592 0
M  V30 15667 H 1492.92 0.556304 3.73075 0
M  V30 15668 H 1495.31 -0.0559997 2.95047 0
M  V30 15669 H 1495.39 1.48425 2.08335 0
M  V30 15670 H 1495.03 2.71947 4.2896 0
M  V30 15671 H 1494.96 1.15445 5.1379 0
M  V30 15672 H 1497.45 1.21749 3.57751 0
M  V30 15673 H 1497.77 3.07352 7.09052 0
M  V30 15674 H 1496.11 2.75772 6.37946 0
M  V30 15675 H 1499.3 1.5876 4.40355 0
M  V30 15676 H 1499.47 2.43376 6.0056 0
M  V30 15677 N 1492.88 -1.52852 0.383918 0
M  V30 15678 C 1493.81 -2.29213 -0.44539 0
M  V30 15679 C 1494.79 -1.3238 -1.06815 0
M  V30 15680 O 1495.98 -1.61269 -1.08194 0
M  V30 15681 C 1493.11 -3.09497 -1.57573 0
M  V30 15682 C 1492.06 -4.14168 -1.07928 0
M  V30 15683 C 1491.39 -4.82644 -2.30128 0
M  V30 15684 C 1492.69 -5.22082 -0.151035 0
M  V30 15685 H 1494.38 -2.98786 0.19172 0
M  V30 15686 H 1491.93 -1.43695 0.0936471 0
M  V30 15687 H 1493.88 -3.61672 -2.16267 0
M  V30 15688 H 1492.6 -2.37647 -2.24034 0
M  V30 15689 H 1491.26 -3.62966 -0.514909 0
M  V30 15690 H 1490.91 -4.07348 -2.95087 0
M  V30 15691 H 1490.61 -5.53388 -1.97574 0
M  V30 15692 H 1492.14 -5.37621 -2.89475 0
M  V30 15693 H 1493.55 -5.69649 -0.646003 0
M  V30 15694 H 1491.95 -6.00041 0.0844833 0
M  V30 15695 H 1493.02 -4.78228 0.801618 0
M  V30 15696 N 1494.36 -0.113586 -1.5719 0
M  V30 15697 C 1495.64 0.588987 -1.86522 0
M  V30 15698 C 1496.02 1.85163 -1.01379 0
M  V30 15699 O 1495.36 2.28318 -0.0912188 0
M  V30 15700 C 1495.57 0.886633 -3.3755 0
M  V30 15701 C 1496.92 1.24206 -4.06027 0
M  V30 15702 O 1497.95 0.977068 -3.42537 0
M  V30 15703 O 1496.81 1.73914 -5.18089 0
M  V30 15704 H 1493.9 0.296637 -0.771968 0
M  V30 15705 H 1496.45 -0.147681 -1.69056 0
M  V30 15706 H 1495.22 -0.00835421 -3.91299 0
M  V30 15707 H 1494.84 1.67865 -3.60426 0
M  V30 15708 N 1495.84 1.56784 0.160173 0
M  V30 15709 C 1496.77 1.93848 1.22293 0
M  V30 15710 C 1497.78 0.832803 1.39886 0
M  V30 15711 O 1498.97 1.11124 1.39692 0
M  V30 15712 C 1496.07 2.18581 2.58989 0
M  V30 15713 C 1495.24 3.49839 2.62548 0
M  V30 15714 C 1494.3 3.63268 3.80687 0
M  V30 15715 O 1493.33 4.35785 3.6617 0
M  V30 15716 N 1494.53 2.98948 4.97605 0
M  V30 15717 H 1497.3 2.85614 0.908004 0
M  V30 15718 H 1494.86 1.58075 0.349851 0
M  V30 15719 H 1496.85 2.24819 3.36509 0
M  V30 15720 H 1495.42 1.33145 2.82827 0
M  V30 15721 H 1494.64 3.5516 1.7104 0
M  V30 15722 H 1495.93 4.3619 2.61945 0
M  V30 15723 H 1495.33 2.39924 5.12302 0
M  V30 15724 H 1493.88 3.10765 5.72947 0
M  V30 15725 N 1497.32 -0.429099 1.51646 0
M  V30 15726 C 1498.73 -1.00868 1.57107 0
M  V30 15727 C 1499.08 -1.9209 0.399483 0
M  V30 15728 O 1498.2 -2.10948 -0.482709 0
M  V30 15729 C 1498.8 -1.83612 2.84732 0
M  V30 15730 C 1497.36 -2.36605 2.92737 0
M  V30 15731 C 1496.5 -1.1604 2.51853 0
M  V30 15732 H 1499.45 -0.21006 1.57304 0
M  V30 15733 H 1499.48 -2.69149 2.68959 0
M  V30 15734 H 1498.99 -1.17192 3.69983 0
M  V30 15735 H 1497.09 -3.06455 2.11934 0
M  V30 15736 H 1497.2 -2.68838 3.96564 0
M  V30 15737 H 1495.57 -1.50826 2.0524 0
M  V30 15738 H 1496.35 -0.51218 3.39458 0
M  V30 15739 N 1498.79 -1.41931 -0.685074 0
M  V30 15740 C 1499.73 -1.39028 -1.8096 0
M  V30 15741 C 1500.7 -0.256001 -1.60572 0
M  V30 15742 O 1501.89 -0.44459 -1.83182 0
M  V30 15743 C 1499.02 -1.17125 -3.17804 0
M  V30 15744 C 1498.06 -2.33411 -3.56961 0
M  V30 15745 S 1498.89 -3.9592 -3.60565 0
M  V30 15746 C 1500.05 -3.7634 -5.00119 0
M  V30 15747 H 1500.28 -2.34189 -1.83146 0
M  V30 15748 H 1497.82 -1.2858 -0.854778 0
M  V30 15749 H 1499.77 -1.05175 -3.96798 0
M  V30 15750 H 1498.44 -0.235668 -3.13215 0
M  V30 15751 H 1497.63 -2.13807 -4.56402 0
M  V30 15752 H 1497.23 -2.41823 -2.85303 0
M  V30 15753 H 1499.52 -3.36695 -5.87914 0
M  V30 15754 H 1500.47 -4.7542 -5.24768 0
M  V30 15755 H 1500.87 -3.09407 -4.72152 0
M  V30 15756 N 1500.27 0.920374 -1.27933 0
M  V30 15757 C 1501.5 1.70275 -1.17533 0
M  V30 15758 C 1501.91 1.86904 0.266903 0
M  V30 15759 O 1501.27 1.39131 1.18105 0
M  V30 15760 C 1501.32 3.09847 -1.86219 0
M  V30 15761 O 1501.04 2.93992 -3.24808 0
M  V30 15762 C 1502.54 4.042 -1.82037 0
M  V30 15763 H 1499.76 0.53248 -0.408297 0
M  V30 15764 H 1502.31 1.1524 -1.68938 0
M  V30 15765 H 1500.46 3.61719 -1.38701 0
M  V30 15766 H 1500.88 3.82281 -3.59112 0
M  V30 15767 H 1502.35 4.99621 -2.34697 0
M  V30 15768 H 1502.83 4.32013 -0.791295 0
M  V30 15769 H 1503.43 3.58254 -2.29203 0
M  V30 15770 N 1501.75 1.10074 1.1279 0
M  V30 15771 C 1502.66 0.758458 2.22001 0
M  V30 15772 C 1503.68 -0.242438 1.72303 0
M  V30 15773 O 1504.85 -0.0821223 2.01233 0
M  V30 15774 C 1501.92 0.191326 3.46172 0
M  V30 15775 C 1500.98 1.24902 4.10729 0
M  V30 15776 C 1500.21 0.708857 5.28972 0
M  V30 15777 O 1500.43 -0.465993 5.68493 0
M  V30 15778 O 1499.37 1.46703 5.83748 0
M  V30 15779 H 1503.19 1.66997 2.53665 0
M  V30 15780 H 1500.78 0.875604 1.21052 0
M  V30 15781 H 1502.66 -0.121292 4.21225 0
M  V30 15782 H 1501.34 -0.693094 3.16193 0
M  V30 15783 H 1500.24 1.61444 3.37471 0
M  V30 15784 H 1501.58 2.10632 4.44854 0
M  V30 15785 N 1503.23 -1.30138 0.888926 0
M  V30 15786 C 1504.48 -1.95265 0.5054 0
M  V30 15787 C 1504.79 -1.70925 -0.950998 0
M  V30 15788 O 1506 -2.30069 -1.44155 0
M  V30 15789 C 1504.45 -3.49647 0.852937 0
M  V30 15790 C 1504.06 -3.82802 2.32737 0
M  V30 15791 C 1505.8 -4.21067 0.538801 0
M  V30 15792 C 1503.71 -5.30379 2.61633 0
M  V30 15793 H 1502.64 -0.730882 0.185278 0
M  V30 15794 H 1505.29 -1.48027 1.08444 0
M  V30 15795 H 1503.67 -3.9548 0.202937 0
M  V30 15796 H 1504.85 -3.47866 3.02202 0
M  V30 15797 H 1503.16 -3.24495 2.60944 0
M  V30 15798 H 1505.76 -5.2967 0.731676 0
M  V30 15799 H 1506.1 -4.13014 -0.522039 0
M  V30 15800 H 1506.64 -3.8093 1.14617 0
M  V30 15801 H 1503.37 -5.43486 3.66473 0
M  V30 15802 H 1502.89 -5.66601 1.96782 0
M  V30 15803 H 1504.57 -5.97856 2.47339 0
M  V30 15804 N 1504.71 -0.650285 -1.43559 0
M  V30 15805 C 1505.95 -0.162725 -2.02146 0
M  V30 15806 C 1506.28 1.21911 -1.51166 0
M  V30 15807 O 1505.56 1.81329 -0.703563 0
M  V30 15808 C 1505.84 -0.170356 -3.59697 0
M  V30 15809 C 1505.7 -1.5859 -4.20915 0
M  V30 15810 C 1507.01 0.494831 -4.37309 0
M  V30 15811 H 1504.13 -0.0606055 -0.734504 0
M  V30 15812 H 1506.78 -0.830411 -1.70892 0
M  V30 15813 H 1504.93 0.39819 -3.86454 0
M  V30 15814 H 1506.6 -2.20481 -4.05199 0
M  V30 15815 H 1504.84 -2.13407 -3.77677 0
M  V30 15816 H 1505.51 -1.54312 -5.29992 0
M  V30 15817 H 1507.99 0.0111281 -4.16099 0
M  V30 15818 H 1506.86 0.458753 -5.4698 0
M  V30 15819 H 1507.12 1.56846 -4.13342 0
M  V30 15820 N 1506.18 1.52647 -0.392018 0
M  V30 15821 C 1507.41 2.06511 0.191815 0
M  V30 15822 C 1507.83 1.26162 1.39516 0
M  V30 15823 O 1507.19 0.287373 1.79008 0
M  V30 15824 C 1507.24 3.56571 0.537512 0
M  V30 15825 O 1506.34 3.78774 1.63106 0
M  V30 15826 H 1505.68 0.663647 0.0216546 0
M  V30 15827 H 1508.21 1.96779 -0.560274 0
M  V30 15828 H 1508.22 4.00059 0.801044 0
M  V30 15829 H 1506.9 4.14489 -0.342239 0
M  V30 15830 H 1505.48 3.47175 1.36103 0
M  V30 15831 N 1507.66 0.121921 1.57128 0
M  V30 15832 C 1509.08 -0.234655 1.57866 0
M  V30 15833 C 1509.28 -1.66506 1.13482 0
M  V30 15834 O 1508.33 -2.38692 0.823544 0
M  V30 15835 C 1509.65 0.00131784 3.007 0
M  V30 15836 C 1511.2 -0.0643537 3.12934 0
M  V30 15837 C 1511.67 0.143964 4.57774 0
M  V30 15838 N 1513.16 0.0900323 4.63112 0
M  V30 15839 C 1513.9 0.22608 5.72954 0
M  V30 15840 N 1513.39 0.418461 6.91535 0
M  V30 15841 N 1515.19 0.165449 5.61856 0
M  V30 15842 H 1507.34 1.05618 1.84279 0
M  V30 15843 H 1509.6 0.416132 0.851785 0
M  V30 15844 H 1509.31 0.99031 3.3747 0
M  V30 15845 H 1509.18 -0.729266 3.70083 0
M  V30 15846 H 1511.57 -1.04387 2.7602 0
M  V30 15847 H 1511.65 0.698157 2.46088 0
M  V30 15848 H 1511.29 1.12047 4.95387 0
M  V30 15849 H 1511.22 -0.638569 5.22714 0
M  V30 15850 H 1513.71 -0.0550269 3.7786 0
M  V30 15851 H 1514.03 0.513057 7.71095 0
M  V30 15852 H 1512.37 0.454471 6.93512 0
M  V30 15853 H 1515.56 0.0160945 4.68097 0
M  V30 15854 H 1515.73 0.274917 6.47417 0
M  V30 15855 N 1509.14 -1.56867 -0.151857 0
M  V30 15856 C 1510.39 -1.83353 -0.866566 0
M  V30 15857 C 1510.72 -0.702784 -1.81038 0
M  V30 15858 O 1509.99 0.293944 -1.92266 0
M  V30 15859 C 1510.28 -3.20316 -1.64529 0
M  V30 15860 C 1510.13 -4.43946 -0.723297 0
M  V30 15861 C 1511.45 -3.54441 -2.60882 0
M  V30 15862 H 1508.57 -0.666957 -0.313588 0
M  V30 15863 H 1511.21 -1.89541 -0.131954 0
M  V30 15864 H 1509.36 -3.15172 -2.27154 0
M  V30 15865 H 1511.03 -4.61173 -0.10842 0
M  V30 15866 H 1509.28 -4.33788 -0.0325582 0
M  V30 15867 H 1509.95 -5.36374 -1.3041 0
M  V30 15868 H 1512.42 -3.60164 -2.08377 0
M  V30 15869 H 1511.3 -4.51314 -3.12422 0
M  V30 15870 H 1511.56 -2.80146 -3.42009 0
M  V30 15871 N 1510.62 0.421051 -1.51871 0
M  V30 15872 C 1511.84 1.19568 -1.69465 0
M  V30 15873 C 1512.27 1.83835 -0.398269 0
M  V30 15874 O 1511.63 1.69508 0.643172 0
M  V30 15875 C 1511.67 2.24337 -2.82321 0
M  V30 15876 O 1510.78 3.30205 -2.47059 0
M  V30 15877 H 1510.12 0.349579 -0.564527 0
M  V30 15878 H 1512.65 0.495177 -1.98517 0
M  V30 15879 H 1512.66 2.6886 -3.06885 0
M  V30 15880 H 1511.33 1.76941 -3.76384 0
M  V30 15881 H 1509.91 2.91045 -2.33125 0
M  V30 15882 N 1512.1 1.42293 0.677538 0
M  V30 15883 C 1513.04 1.45556 1.79114 0
M  V30 15884 C 1514.01 0.307826 1.63223 0
M  V30 15885 O 1515.2 0.511504 1.83816 0
M  V30 15886 C 1512.34 1.36104 3.17127 0
M  V30 15887 C 1511.45 2.60891 3.44325 0
M  V30 15888 C 1510.59 2.43601 4.72051 0
M  V30 15889 C 1509.63 3.63775 4.92274 0
M  V30 15890 N 1508.76 3.45444 6.11239 0
M  V30 15891 H 1513.6 2.40723 1.7566 0
M  V30 15892 H 1511.14 1.19517 0.857565 0
M  V30 15893 H 1513.1 1.28622 3.96878 0
M  V30 15894 H 1511.73 0.445342 3.19713 0
M  V30 15895 H 1510.78 2.78751 2.58848 0
M  V30 15896 H 1512.09 3.50229 3.55163 0
M  V30 15897 H 1511.25 2.33689 5.59888 0
M  V30 15898 H 1509.98 1.51748 4.63491 0
M  V30 15899 H 1508.99 3.74122 4.0288 0
M  V30 15900 H 1510.21 4.56605 5.02681 0
M  V30 15901 H 1508.16 2.56306 6.03857 0
M  V30 15902 H 1508.08 4.28368 6.22926 0
M  V30 15903 H 1509.35 3.39339 7.01762 0
M  V30 15904 N 1513.57 -0.913576 1.28419 0
M  V30 15905 C 1514.99 -1.192 1.0613 0
M  V30 15906 C 1515.19 -2.00542 -0.196232 0
M  V30 15907 O 1514.25 -2.35998 -0.897853 0
M  V30 15908 C 1515.56 -1.92642 2.30889 0
M  V30 15909 C 1517.11 -2.05524 2.3607 0
M  V30 15910 C 1517.58 -2.82374 3.60595 0
M  V30 15911 N 1519.07 -2.89935 3.61236 0
M  V30 15912 C 1519.81 -3.49899 4.54266 0
M  V30 15913 N 1519.3 -4.11141 5.57615 0
M  V30 15914 N 1521.1 -3.4744 4.41862 0
M  V30 15915 H 1513.25 -0.370509 2.09143 0
M  V30 15916 H 1515.51 -0.226573 0.920526 0
M  V30 15917 H 1515.22 -1.40299 3.22504 0
M  V30 15918 H 1515.09 -2.93191 2.37316 0
M  V30 15919 H 1517.48 -2.57047 1.44951 0
M  V30 15920 H 1517.56 -1.0415 2.33637 0
M  V30 15921 H 1517.2 -2.3153 4.52058 0
M  V30 15922 H 1517.13 -3.84063 3.60282 0
M  V30 15923 H 1519.62 -2.46424 2.86502 0
M  V30 15924 H 1519.94 -4.54877 6.24746 0
M  V30 15925 H 1518.28 -4.09645 5.61441 0
M  V30 15926 H 1521.47 -2.98806 3.60323 0
M  V30 15927 H 1521.65 -3.9388 5.14551 0
M  V30 15928 N 1515.05 -1.1067 -1.12204 0
M  V30 15929 C 1516 -0.757745 -2.18007 0
M  V30 15930 C 1516.97 0.26706 -1.63939 0
M  V30 15931 O 1518.15 0.145789 -1.90242 0
M  V30 15932 C 1515.29 -0.198379 -3.44529 0
M  V30 15933 C 1514.41 -1.27878 -4.12639 0
M  V30 15934 C 1513.54 -0.6808 -5.26819 0
M  V30 15935 C 1512.58 -1.74161 -5.868 0
M  V30 15936 N 1511.72 -1.16372 -6.92389 0
M  V30 15937 H 1516.56 -1.66418 -2.47202 0
M  V30 15938 H 1514.1 -0.831216 -1.21364 0
M  V30 15939 H 1516.05 0.143838 -4.16952 0
M  V30 15940 H 1514.68 0.671279 -3.15743 0
M  V30 15941 H 1513.74 -1.73808 -3.38371 0
M  V30 15942 H 1515.05 -2.08169 -4.53285 0
M  V30 15943 H 1514.2 -0.288172 -6.06015 0
M  V30 15944 H 1512.94 0.153521 -4.87458 0
M  V30 15945 H 1511.95 -2.14364 -5.06289 0
M  V30 15946 H 1513.17 -2.57882 -6.28231 0
M  V30 15947 H 1511.12 -0.350899 -6.55061 0
M  V30 15948 H 1511.03 -1.90344 -7.31646 0
M  V30 15949 H 1512.3 -0.797715 -7.75407 0
M  V30 15950 N 1516.53 1.29665 -0.895815 0
M  V30 15951 C 1517.46 2.30268 -0.387151 0
M  V30 15952 C 1518.44 1.61442 0.535768 0
M  V30 15953 O 1519.63 1.88978 0.447321 0
M  V30 15954 C 1516.76 3.45107 0.389639 0
M  V30 15955 C 1515.71 4.25706 -0.442498 0
M  V30 15956 C 1515.04 5.32704 0.461552 0
M  V30 15957 C 1516.34 4.9419 -1.69036 0
M  V30 15958 H 1518.03 2.73064 -1.22786 0
M  V30 15959 H 1515.58 1.31274 -0.591869 0
M  V30 15960 H 1517.53 4.14559 0.756203 0
M  V30 15961 H 1516.25 3.01145 1.2641 0
M  V30 15962 H 1514.91 3.57957 -0.791343 0
M  V30 15963 H 1514.56 4.84987 1.33403 0
M  V30 15964 H 1514.26 5.87529 -0.0915006 0
M  V30 15965 H 1515.78 6.05009 0.824395 0
M  V30 15966 H 1517.2 5.561 -1.39376 0
M  V30 15967 H 1515.6 5.5893 -2.18444 0
M  V30 15968 H 1516.67 4.19699 -2.42859 0
M  V30 15969 N 1518.01 0.657889 1.43212 0
M  V30 15970 C 1519.26 0.172845 2.0136 0
M  V30 15971 C 1519.58 -1.21911 1.52193 0
M  V30 15972 O 1518.85 -1.81529 0.736492 0
M  V30 15973 H 1517.43 0.0609091 0.744513 0
M  V30 15974 H 1520.09 0.850605 1.75359 0
M  V30 15975 H 1519.19 0.161062 3.11684 0
M  V30 15976 N 1519.49 -1.52437 0.400108 0
M  V30 15977 C 1520.9 -1.5952 0.0505611 0
M  V30 15978 C 1521.1 -1.4135 -1.43606 0
M  V30 15979 O 1520.16 -1.23591 -2.20185 0
M  V30 15980 C 1521.47 -2.95859 0.537411 0
M  V30 15981 C 1523.02 -3.09067 0.494603 0
M  V30 15982 C 1523.49 -4.47873 0.957815 0
M  V30 15983 N 1524.99 -4.54087 0.914267 0
M  V30 15984 C 1525.72 -5.59744 1.24397 0
M  V30 15985 N 1525.22 -6.72995 1.64469 0
M  V30 15986 N 1527.01 -5.49905 1.16452 0
M  V30 15987 H 1519.16 -1.62496 1.36781 0
M  V30 15988 H 1521.42 -0.763947 0.561328 0
M  V30 15989 H 1521.13 -3.14407 1.57611 0
M  V30 15990 H 1521 -3.77156 -0.0577652 0
M  V30 15991 H 1523.39 -2.90209 -0.535035 0
M  V30 15992 H 1523.47 -2.29698 1.12572 0
M  V30 15993 H 1523.12 -4.67473 1.98574 0
M  V30 15994 H 1523.05 -5.25724 0.303602 0
M  V30 15995 H 1525.54 -3.72787 0.619536 0
M  V30 15996 H 1525.85 -7.49594 1.87961 0
M  V30 15997 H 1524.19 -6.74298 1.68364 0
M  V30 15998 H 1527.39 -4.60311 0.850401 0
M  V30 15999 H 1527.56 -6.32142 1.42478 0
M  V30 16000 N 1520.96 -0.130252 -1.57061 0
M  V30 16001 C 1521.91 0.827158 -2.12467 0
M  V30 16002 C 1522.9 1.22069 -1.04824 0
M  V30 16003 O 1524.09 1.1899 -1.31036 0
M  V30 16004 C 1521.22 2.07284 -2.73657 0
M  V30 16005 C 1520.31 1.70317 -3.88398 0
M  V30 16006 N 1520.7 1.04082 -4.94975 0
M  V30 16007 C 1518.99 1.99701 -3.98793 0
M  V30 16008 C 1519.7 0.865016 -5.75232 0
M  V30 16009 N 1518.67 1.39359 -5.25433 0
M  V30 16010 H 1522.47 0.311706 -2.92242 0
M  V30 16011 H 1519.99 0.0718523 -1.62241 0
M  V30 16012 H 1521.98 2.76854 -3.11701 0
M  V30 16013 H 1520.64 2.59363 -1.95349 0
M  V30 16014 H 1521.66 0.703501 -5.131 0
M  V30 16015 H 1518.33 2.53747 -3.3154 0
M  V30 16016 H 1519.72 0.344255 -6.71018 0
M  V30 16017 N 1522.44 1.56945 0.143535 0
M  V30 16018 C 1523.69 1.8381 0.856831 0
M  V30 16019 C 1524.02 0.712375 1.80662 0
M  V30 16020 O 1523.3 -0.283743 1.92419 0
M  V30 16021 C 1523.58 3.21184 1.62828 0
M  V30 16022 C 1523.43 4.44324 0.699744 0
M  V30 16023 C 1524.75 3.5582 2.58999 0
M  V30 16024 H 1521.87 0.668611 0.310046 0
M  V30 16025 H 1524.51 1.89609 0.1219 0
M  V30 16026 H 1522.66 3.16372 2.2548 0
M  V30 16027 H 1524.34 4.61224 0.0839619 0
M  V30 16028 H 1522.58 4.33799 0.0095529 0
M  V30 16029 H 1523.25 5.37058 1.27564 0
M  V30 16030 H 1525.73 3.61264 2.06464 0
M  V30 16031 H 1524.6 4.52964 3.10024 0
M  V30 16032 H 1524.86 2.81956 3.40519 0
M  V30 16033 N 1523.92 -0.412991 1.52093 0
M  V30 16034 C 1525.34 -0.751324 1.40809 0
M  V30 16035 C 1525.54 -1.94951 0.509543 0
M  V30 16036 O 1524.59 -2.52486 -0.026132 0
M  V30 16037 C 1525.91 -1.00888 2.8327 0
M  V30 16038 C 1527.45 -1.11183 2.92587 0
M  V30 16039 C 1527.93 -1.40217 4.36008 0
M  V30 16040 N 1529.42 -1.4709 4.39225 0
M  V30 16041 C 1530.16 -1.71174 5.47254 0
M  V30 16042 N 1529.65 -1.92887 6.65407 0
M  V30 16043 N 1531.44 -1.73157 5.34765 0
M  V30 16044 H 1523.6 0.375774 2.0905 0
M  V30 16045 H 1525.86 0.105817 0.942076 0
M  V30 16046 H 1525.56 -0.200872 3.51126 0
M  V30 16047 H 1525.44 -1.93008 3.2408 0
M  V30 16048 H 1527.83 -1.91043 2.24915 0
M  V30 16049 H 1527.91 -0.169078 2.55241 0
M  V30 16050 H 1527.55 -0.608754 5.04239 0
M  V30 16051 H 1527.48 -2.35737 4.70888 0
M  V30 16052 H 1529.97 -1.32114 3.54054 0
M  V30 16053 H 1530.28 -2.10704 7.43521 0
M  V30 16054 H 1528.63 -1.9016 6.68479 0
M  V30 16055 H 1531.82 -1.55728 4.41437 0
M  V30 16056 H 1531.99 -1.91587 6.1903 0
M  V30 16057 N 1525.4 -1.4265 -0.669982 0
M  V30 16058 C 1526.36 -1.46196 -1.7652 0
M  V30 16059 C 1527.36 -0.348884 -1.5697 0
M  V30 16060 O 1528.55 -0.609921 -1.63174 0
M  V30 16061 C 1525.68 -1.29829 -3.1521 0
M  V30 16062 H 1526.88 -2.43718 -1.74762 0
M  V30 16063 H 1524.43 -1.29168 -0.88007 0
M  V30 16064 H 1525.17 -0.332493 -3.22591 0
M  V30 16065 H 1524.95 -2.10501 -3.30804 0
M  V30 16066 H 1526.44 -1.35205 -3.95107 0
M  V30 16067 N 1526.88 0.906753 -1.28902 0
M  V30 16068 C 1527.81 2.02663 -1.15974 0
M  V30 16069 C 1528.79 1.70009 -0.0557202 0
M  V30 16070 O 1529.97 1.92786 -0.233952 0
M  V30 16071 C 1527.1 3.37283 -0.828115 0
M  V30 16072 C 1526.06 3.84123 -1.88767 0
M  V30 16073 C 1525.38 5.15787 -1.40953 0
M  V30 16074 C 1526.68 4.05217 -3.2954 0
M  V30 16075 H 1528.38 2.13738 -2.09658 0
M  V30 16076 H 1525.92 1.02699 -1.0094 0
M  V30 16077 H 1527.88 4.15127 -0.724408 0
M  V30 16078 H 1526.6 3.2628 0.14443 0
M  V30 16079 H 1525.26 3.0849 -1.98065 0
M  V30 16080 H 1524.91 5.01194 -0.425848 0
M  V30 16081 H 1524.61 5.48098 -2.11807 0
M  V30 16082 H 1526.13 5.9618 -1.31918 0
M  V30 16083 H 1527.55 4.73565 -3.23124 0
M  V30 16084 H 1525.94 4.48871 -3.9829 0
M  V30 16085 H 1527.01 3.0979 -3.73039 0
M  V30 16086 N 1528.36 1.11264 1.11616 0
M  V30 16087 C 1529.6 0.861639 1.83585 0
M  V30 16088 C 1529.93 -0.611221 1.8433 0
M  V30 16089 O 1529.21 -1.45116 1.29505 0
M  V30 16090 C 1529.49 1.42157 3.30852 0
M  V30 16091 C 1529.35 2.96192 3.38512 0
M  V30 16092 C 1530.66 1.07099 4.2687 0
M  V30 16093 H 1527.78 0.314464 0.666545 0
M  V30 16094 H 1530.43 1.37722 1.30892 0
M  V30 16095 H 1528.58 0.983054 3.75857 0
M  V30 16096 H 1530.25 3.48634 3.0208 0
M  V30 16097 H 1528.49 3.32353 2.7879 0
M  V30 16098 H 1529.16 3.30457 4.42156 0
M  V30 16099 H 1531.64 1.44952 3.90036 0
M  V30 16100 H 1530.51 1.48957 5.28302 0
M  V30 16101 H 1530.77 -0.018482 4.42096 0
M  V30 16102 N 1529.83 -1.29188 0.902679 0
M  V30 16103 C 1530.76 -2.3006 0.399357 0
M  V30 16104 C 1531.74 -1.61724 -0.527199 0
M  V30 16105 O 1532.93 -1.89213 -0.437293 0
M  V30 16106 C 1530.06 -3.45309 -0.371331 0
M  V30 16107 C 1529.01 -4.25466 0.465068 0
M  V30 16108 C 1528.34 -5.32941 -0.433295 0
M  V30 16109 C 1529.64 -4.93287 1.71655 0
M  V30 16110 H 1531.33 -2.72409 1.24233 0
M  V30 16111 H 1528.88 -1.30958 0.598822 0
M  V30 16112 H 1530.83 -4.14955 -0.734207 0
M  V30 16113 H 1529.56 -3.01811 -1.24811 0
M  V30 16114 H 1528.22 -3.57532 0.810315 0
M  V30 16115 H 1527.86 -4.85688 -1.3083 0
M  V30 16116 H 1527.56 -5.87472 0.122657 0
M  V30 16117 H 1529.09 -6.05438 -0.792298 0
M  V30 16118 H 1530.5 -5.55353 1.42323 0
M  V30 16119 H 1528.9 -5.57763 2.21405 0
M  V30 16120 H 1529.97 -4.18406 2.45081 0
M  V30 16121 N 1531.31 -0.665475 -1.42861 0
M  V30 16122 C 1532.22 0.018927 -2.34592 0
M  V30 16123 C 1533.24 0.798967 -1.54572 0
M  V30 16124 O 1534.41 0.743419 -1.87177 0
M  V30 16125 C 1531.48 0.965013 -3.32999 0
M  V30 16126 C 1530.54 0.180544 -4.2892 0
M  V30 16127 C 1529.77 1.08157 -5.22626 0
M  V30 16128 O 1530 2.32101 -5.21043 0
M  V30 16129 O 1528.93 0.54738 -5.99406 0
M  V30 16130 H 1532.76 -0.736444 -2.94636 0
M  V30 16131 H 1530.34 -0.425684 -1.43207 0
M  V30 16132 H 1532.22 1.50839 -3.93479 0
M  V30 16133 H 1530.9 1.7004 -2.75442 0
M  V30 16134 H 1529.8 -0.40671 -3.71883 0
M  V30 16135 H 1531.14 -0.515529 -4.89493 0
M  V30 16136 N 1532.79 1.52222 -0.408187 0
M  V30 16137 C 1533.72 2.29892 0.408868 0
M  V30 16138 C 1534.7 1.34063 1.04695 0
M  V30 16139 O 1535.89 1.6297 1.05615 0
M  V30 16140 C 1533.02 3.11964 1.52629 0
M  V30 16141 C 1531.97 4.15833 1.01326 0
M  V30 16142 C 1531.3 4.86244 2.2242 0
M  V30 16143 C 1532.6 5.22256 0.0679573 0
M  V30 16144 H 1534.29 2.98443 -0.23923 0
M  V30 16145 H 1531.84 1.43528 -0.116496 0
M  V30 16146 H 1533.79 3.65067 2.10486 0
M  V30 16147 H 1532.51 2.41181 2.20225 0
M  V30 16148 H 1531.17 3.63739 0.4571 0
M  V30 16149 H 1530.82 4.11991 2.88569 0
M  V30 16150 H 1530.52 5.56461 1.88746 0
M  V30 16151 H 1532.04 5.42159 2.80885 0
M  V30 16152 H 1533.46 5.70604 0.555295 0
M  V30 16153 H 1531.85 5.9983 -0.179934 0
M  V30 16154 H 1532.92 4.76892 -0.877599 0
M  V30 16155 N 1534.27 0.138579 1.5699 0
M  V30 16156 C 1535.51 -0.517479 1.97741 0
M  V30 16157 C 1535.87 -1.62587 1.02125 0
M  V30 16158 O 1537.07 -2.3422 1.31888 0
M  V30 16159 C 1535.34 -1.01841 3.42583 0
M  V30 16160 S 1536.9 -1.68025 4.05355 0
M  V30 16161 H 1533.72 -0.167594 0.690965 0
M  V30 16162 H 1536.32 0.2283 1.94162 0
M  V30 16163 H 1535.03 -0.200832 4.09908 0
M  V30 16164 H 1534.56 -1.79901 3.49856 0
M  V30 16165 H 1536.57 -2.96708 3.97717 0
M  V30 16166 N 1535.75 -1.57019 -0.13521 0
M  V30 16167 C 1536.99 -1.85801 -0.851896 0
M  V30 16168 C 1537.35 -0.724449 -1.77808 0
M  V30 16169 O 1538.55 -0.893619 -2.53511 0
M  V30 16170 C 1536.82 -3.19788 -1.59595 0
M  V30 16171 S 1538.38 -3.70159 -2.35644 0
M  V30 16172 H 1535.2 -0.651534 -0.284649 0
M  V30 16173 H 1537.8 -1.95184 -0.111177 0
M  V30 16174 H 1536.5 -4.00247 -0.907221 0
M  V30 16175 H 1536.04 -3.13441 -2.37735 0
M  V30 16176 H 1538.05 -3.40364 -3.61063 0
M  V30 16177 N 1537.22 0.404919 -1.52309 0
M  V30 16178 C 1538.17 1.51412 -1.7657 0
M  V30 16179 C 1539.17 1.5713 -0.632983 0
M  V30 16180 O 1540.37 1.60486 -0.815121 0
M  V30 16181 H 1536.75 0.503636 -0.55844 0
M  V30 16182 H 1538.72 1.28137 -2.69488 0
M  V30 16183 C 1537.47 2.88733 -1.93722 0
M  V30 16184 H 1536.79 2.85078 -2.80304 0
M  V30 16185 H 1538.23 3.65626 -2.14695 0
M  V30 16186 C 1536.69 3.29431 -0.705444 0
M  V30 16187 O 1537.22 4.01506 0.124693 0
M  V30 16188 N 1535.43 2.85536 -0.540128 0
M  V30 16189 H 1534.97 2.27052 -1.21677 0
M  V30 16190 H 1534.93 3.13126 0.282723 0
M  V30 16191 N 1538.7 1.43003 0.662408 0
M  V30 16192 C 1539.98 1.34613 1.41911 0
M  V30 16193 C 1540.36 -0.0105336 2.11097 0
M  V30 16194 O 1539.71 -1.02667 2.04137 0
M  V30 16195 C 1539.92 2.52297 2.41137 0
M  V30 16196 C 1541.27 2.94972 3.05412 0
M  V30 16197 O 1542.29 2.52277 2.51465 0
M  V30 16198 O 1541.15 3.68906 4.03201 0
M  V30 16199 H 1538.24 0.531508 0.633583 0
M  V30 16200 H 1540.79 1.55035 0.690088 0
M  V30 16201 H 1539.56 3.42685 1.88898 0
M  V30 16202 H 1539.18 2.33926 3.21503 0
M  V30 16203 N 1540.18 -0.899904 1.29381 0
M  V30 16204 C 1541.09 -2.03699 1.16378 0
M  V30 16205 C 1542.11 -1.73782 0.0870792 0
M  V30 16206 O 1543.28 -1.99167 0.299109 0
M  V30 16207 C 1540.35 -3.36341 0.841166 0
M  V30 16208 C 1539.41 -3.79778 2.00168 0
M  V30 16209 C 1538.64 -5.0609 1.69437 0
M  V30 16210 O 1538.86 -5.67073 0.615212 0
M  V30 16211 O 1537.8 -5.45574 2.54229 0
M  V30 16212 H 1541.62 -2.17592 2.11866 0
M  V30 16213 H 1539.21 -1.02353 1.08831 0
M  V30 16214 H 1541.09 -4.15946 0.675803 0
M  V30 16215 H 1539.77 -3.23591 -0.0839376 0
M  V30 16216 H 1538.67 -3.00941 2.22229 0
M  V30 16217 H 1540.01 -3.97111 2.90798 0
M  V30 16218 N 1541.66 -1.11854 -1.11024 0
M  V30 16219 C 1542.88 -0.892999 -1.8719 0
M  V30 16220 C 1543.31 0.552058 -1.79816 0
M  V30 16221 O 1542.67 1.39025 -1.16369 0
M  V30 16222 C 1542.71 -1.3647 -3.33779 0
M  V30 16223 O 1541.82 -0.539202 -4.0886 0
M  V30 16224 H 1541.16 -0.321319 -0.581076 0
M  V30 16225 H 1543.69 -1.4891 -1.4031 0
M  V30 16226 H 1543.7 -1.3611 -3.84627 0
M  V30 16227 H 1542.37 -2.41694 -3.38462 0
M  V30 16228 H 1540.95 -0.60927 -3.67889 0
M  V30 16229 N 1543.14 1.28707 -0.909517 0
M  V30 16230 C 1544.38 1.94768 -0.539413 0
M  V30 16231 C 1544.71 1.7198 0.919133 0
M  V30 16232 O 1543.98 1.0571 1.64931 0
M  V30 16233 H 1542.56 0.720693 -0.196496 0
M  V30 16234 H 1545.22 1.56772 -1.15795 0
M  V30 16235 H 1544.31 3.03436 -0.730281 0
M  V30 16236 N 1544.61 0.673042 1.42506 0
M  V30 16237 C 1545.52 -0.00648572 2.34599 0
M  V30 16238 C 1546.54 -0.790758 1.54994 0
M  V30 16239 O 1547.72 -0.733482 1.87569 0
M  V30 16240 C 1544.78 -0.94734 3.33506 0
M  V30 16241 C 1543.84 -0.157795 4.2901 0
M  V30 16242 C 1543.08 -1.05384 5.23192 0
M  V30 16243 O 1543.3 -2.29334 5.22266 0
M  V30 16244 O 1542.23 -0.515584 5.99688 0
M  V30 16245 H 1546.06 0.752059 2.94241 0
M  V30 16246 H 1543.64 0.433272 1.42979 0
M  V30 16247 H 1545.53 -1.4875 3.94273 0
M  V30 16248 H 1544.2 -1.68577 2.7634 0
M  V30 16249 H 1543.11 0.426426 3.71662 0
M  V30 16250 H 1544.44 0.54148 4.89212 0
M  V30 16251 N 1546.09 -1.52004 0.416254 0
M  V30 16252 C 1547.37 -1.94403 -0.216103 0
M  V30 16253 C 1547.75 -1.35362 -1.61989 0
M  V30 16254 O 1547.1 -0.532242 -2.22215 0
M  V30 16255 C 1547.31 -3.48336 -0.215225 0
M  V30 16256 C 1548.66 -4.22406 -0.431109 0
M  V30 16257 O 1549.68 -3.54982 -0.294271 0
M  V30 16258 O 1548.54 -5.4198 -0.70145 0
M  V30 16259 H 1545.63 -0.814838 -0.141306 0
M  V30 16260 H 1548.18 -1.62983 0.472712 0
M  V30 16261 H 1546.95 -3.83709 0.767004 0
M  V30 16262 H 1546.57 -3.86137 -0.947841 0
M  V30 16263 N 1547.57 -0.146903 -1.56914 0
M  V30 16264 C 1548.82 0.504981 -1.96412 0
M  V30 16265 C 1549.15 1.64522 -1.0318 0
M  V30 16266 O 1548.42 1.94359 -0.0741728 0
M  V30 16267 C 1548.71 1.01125 -3.45609 0
M  V30 16268 C 1548.56 -0.127493 -4.49619 0
M  V30 16269 C 1549.88 1.89306 -3.97305 0
M  V30 16270 H 1547 0.182088 -0.714152 0
M  V30 16271 H 1549.64 -0.22811 -1.88626 0
M  V30 16272 H 1547.79 1.63595 -3.52376 0
M  V30 16273 H 1549.46 -0.763829 -4.54932 0
M  V30 16274 H 1547.71 -0.786649 -4.26608 0
M  V30 16275 H 1548.38 0.268453 -5.51347 0
M  V30 16276 H 1550.85 1.36664 -3.93017 0
M  V30 16277 H 1549.73 2.21638 -5.02163 0
M  V30 16278 H 1549.99 2.82996 -3.39655 0
M  V30 16279 N 1549.05 1.57088 0.126881 0
M  V30 16280 C 1549.96 2.03053 1.17502 0
M  V30 16281 C 1550.97 0.949484 1.45811 0
M  V30 16282 O 1552.15 1.26043 1.57083 0
M  V30 16283 C 1549.22 2.41897 2.48368 0
M  V30 16284 C 1548.28 3.64047 2.27527 0
M  V30 16285 C 1547.51 4.01029 3.52153 0
M  V30 16286 O 1547.73 3.38441 4.59145 0
M  V30 16287 O 1546.67 4.94174 3.43622 0
M  V30 16288 H 1550.49 2.92568 0.814733 0
M  V30 16289 H 1548.08 1.45547 0.3371 0
M  V30 16290 H 1549.96 2.67652 3.25485 0
M  V30 16291 H 1548.63 1.55531 2.83887 0
M  V30 16292 H 1547.54 3.43452 1.48294 0
M  V30 16293 H 1548.87 4.51093 1.96916 0
M  V30 16294 N 1550.53 -0.396836 1.52522 0
M  V30 16295 C 1551.77 -1.14432 1.67431 0
M  V30 16296 C 1552.11 -1.89842 0.409115 0
M  V30 16297 O 1551.38 -1.85244 -0.592863 0
M  V30 16298 C 1551.66 -2.12889 2.90431 0
M  V30 16299 C 1551.52 -1.41295 4.27031 0
M  V30 16300 C 1552.84 -3.13412 3.08967 0
M  V30 16301 H 1549.95 -0.414643 0.609295 0
M  V30 16302 H 1552.6 -0.428604 1.85103 0
M  V30 16303 H 1550.75 -2.73924 2.75495 0
M  V30 16304 H 1552.42 -0.832848 4.53719 0
M  V30 16305 H 1550.66 -0.714834 4.2787 0
M  V30 16306 H 1551.33 -2.13198 5.09167 0
M  V30 16307 H 1553.81 -2.62462 3.22883 0
M  V30 16308 H 1552.68 -3.79555 3.96522 0
M  V30 16309 H 1552.95 -3.81836 2.22831 0
M  V30 16310 N 1552.01 -1.43353 -0.654814 0
M  V30 16311 C 1553.42 -1.39933 -1.23595 0
M  V30 16312 C 1553.77 -0.102592 -1.95932 0
M  V30 16313 O 1552.89 0.798021 -2.01148 0
M  V30 16314 C 1553.49 -2.53483 -2.24793 0
M  V30 16315 C 1552.05 -2.53333 -2.78387 0
M  V30 16316 C 1551.19 -2.31268 -1.53005 0
M  V30 16317 H 1554.14 -1.52277 -0.446932 0
M  V30 16318 H 1554.17 -2.2488 -3.06935 0
M  V30 16319 H 1553.68 -3.47847 -1.72116 0
M  V30 16320 H 1551.78 -1.62844 -3.35131 0
M  V30 16321 H 1551.89 -3.51047 -3.26041 0
M  V30 16322 H 1550.26 -1.79905 -1.80295 0
M  V30 16323 H 1551.04 -3.27714 -1.02266 0
M  V30 16324 N 1553.48 0.89303 -1.29857 0
M  V30 16325 C 1554.71 1.675 -1.20943 0
M  V30 16326 C 1555.12 1.87779 0.231435 0
M  V30 16327 O 1554.46 1.41955 1.16596 0
M  V30 16328 C 1554.53 3.07722 -1.8587 0
M  V30 16329 C 1554.19 3.10647 -3.35182 0
M  V30 16330 C 1555.19 2.903 -4.31303 0
M  V30 16331 C 1552.87 3.32501 -3.76495 0
M  V30 16332 C 1554.87 2.91749 -5.66711 0
M  V30 16333 C 1552.55 3.33581 -5.12022 0
M  V30 16334 C 1553.55 3.13228 -6.06941 0
M  V30 16335 O 1553.24 3.14109 -7.39994 0
M  V30 16336 H 1552.97 0.529708 -0.419982 0
M  V30 16337 H 1555.53 1.12466 -1.71874 0
M  V30 16338 H 1553.76 3.64386 -1.29459 0
M  V30 16339 H 1555.44 3.68035 -1.71187 0
M  V30 16340 H 1556.21 2.73221 -4.00718 0
M  V30 16341 H 1552.09 3.47381 -3.03064 0
M  V30 16342 H 1555.63 2.75782 -6.40773 0
M  V30 16343 H 1551.53 3.50193 -5.4225 0
M  V30 16344 H 1552.3 3.3033 -7.48882 0
M  V30 16345 N 1554.96 1.12442 1.10429 0
M  V30 16346 C 1556.21 0.881062 1.82661 0
M  V30 16347 C 1556.54 -0.591636 1.84968 0
M  V30 16348 O 1555.82 -1.43734 1.31037 0
M  V30 16349 C 1556.1 1.45658 3.29326 0
M  V30 16350 C 1555.95 2.99766 3.35352 0
M  V30 16351 C 1557.27 1.1162 4.2571 0
M  V30 16352 H 1554.39 0.321516 0.663172 0
M  V30 16353 H 1557.03 1.39102 1.29424 0
M  V30 16354 H 1555.18 1.02286 3.74793 0
M  V30 16355 H 1556.85 3.51818 2.98365 0
M  V30 16356 H 1555.1 3.35292 2.75249 0
M  V30 16357 H 1555.77 3.35128 4.38627 0
M  V30 16358 H 1558.24 1.49081 3.88477 0
M  V30 16359 H 1557.12 1.54552 5.26692 0
M  V30 16360 H 1557.38 0.0284093 4.42091 0
M  V30 16361 N 1556.44 -1.28223 0.91633 0
M  V30 16362 C 1557.86 -1.47281 0.614864 0
M  V30 16363 C 1558.06 -1.83197 -0.839111 0
M  V30 16364 O 1557.11 -1.9385 -1.61798 0
M  V30 16365 C 1558.42 -2.57373 1.55498 0
M  V30 16366 C 1559.97 -2.71241 1.56197 0
M  V30 16367 C 1560.45 -3.84479 2.48877 0
M  V30 16368 N 1561.94 -3.91837 2.47019 0
M  V30 16369 C 1562.67 -4.78846 3.15427 0
M  V30 16370 N 1562.17 -5.70427 3.93173 0
M  V30 16371 N 1563.96 -4.72478 3.04501 0
M  V30 16372 H 1556.11 -1.03191 1.85649 0
M  V30 16373 H 1558.38 -0.514213 0.796422 0
M  V30 16374 H 1558.08 -2.37747 2.5917 0
M  V30 16375 H 1557.96 -3.54527 1.28803 0
M  V30 16376 H 1560.34 -2.90254 0.532619 0
M  V30 16377 H 1560.42 -1.74609 1.86937 0
M  V30 16378 H 1560.07 -3.6622 3.51916 0
M  V30 16379 H 1560 -4.80514 2.15439 0
M  V30 16380 H 1562.49 -3.26344 1.90546 0
M  V30 16381 H 1562.8 -6.33653 4.42384 0
M  V30 16382 H 1561.15 -5.70259 3.97278 0
M  V30 16383 H 1564.34 -3.99925 2.43265 0
M  V30 16384 H 1564.51 -5.40073 3.58086 0
M  V30 16385 N 1557.92 -0.68059 -1.42147 0
M  V30 16386 C 1559.15 -0.213529 -2.05494 0
M  V30 16387 C 1559.56 1.13665 -1.51251 0
M  V30 16388 O 1558.9 1.71838 -0.649422 0
M  V30 16389 C 1558.96 -0.0774256 -3.59417 0
M  V30 16390 C 1558.62 -1.35724 -4.3638 0
M  V30 16391 C 1559.62 -2.29195 -4.66654 0
M  V30 16392 C 1557.31 -1.60645 -4.75918 0
M  V30 16393 C 1559.3 -3.45858 -5.35407 0
M  V30 16394 C 1556.99 -2.77597 -5.44411 0
M  V30 16395 C 1557.99 -3.70027 -5.74081 0
M  V30 16396 O 1557.67 -4.84933 -6.41167 0
M  V30 16397 H 1557.41 -0.100043 -0.668556 0
M  V30 16398 H 1559.96 -0.929384 -1.83171 0
M  V30 16399 H 1558.19 0.694062 -3.8042 0
M  V30 16400 H 1559.88 0.350509 -4.04384 0
M  V30 16401 H 1560.64 -2.11194 -4.36603 0
M  V30 16402 H 1556.52 -0.8957 -4.52215 0
M  V30 16403 H 1560.07 -4.18023 -5.58483 0
M  V30 16404 H 1555.96 -2.95521 -5.73879 0
M  V30 16405 H 1556.73 -4.84552 -6.5966 0
M  V30 16406 N 1559.4 1.51781 -0.424309 0
M  V30 16407 C 1560.62 2.06387 0.145548 0
M  V30 16408 C 1561.04 1.29299 1.37576 0
M  V30 16409 O 1560.4 0.348952 1.79133 0
M  V30 16410 C 1560.45 3.58288 0.48083 0
M  V30 16411 O 1560.17 4.32463 -0.700546 0
M  V30 16412 C 1561.67 4.29364 1.10278 0
M  V30 16413 H 1558.89 0.67086 0.0136908 0
M  V30 16414 H 1561.43 1.95511 -0.599639 0
M  V30 16415 H 1559.59 3.69122 1.17591 0
M  V30 16416 H 1560 5.22839 -0.417035 0
M  V30 16417 H 1561.48 5.36776 1.28747 0
M  V30 16418 H 1561.95 3.86815 2.08017 0
M  V30 16419 H 1562.56 4.2294 0.447458 0
M  V30 16420 N 1560.87 0.155222 1.56834 0
M  V30 16421 C 1562.12 -0.493831 1.95561 0
M  V30 16422 C 1562.44 -1.65468 1.04305 0
M  V30 16423 O 1563.64 -2.36891 1.32646 0
M  V30 16424 C 1562.1 -0.929923 3.47679 0
M  V30 16425 C 1561.71 0.204447 4.47533 0
M  V30 16426 C 1563.45 -1.5483 3.95257 0
M  V30 16427 C 1561.36 -0.250375 5.9087 0
M  V30 16428 H 1560.29 -0.188258 0.73012 0
M  V30 16429 H 1562.94 0.240883 1.81912 0
M  V30 16430 H 1561.32 -1.72014 3.56689 0
M  V30 16431 H 1562.49 0.981535 4.50225 0
M  V30 16432 H 1560.81 0.731756 4.0992 0
M  V30 16433 H 1563.41 -1.90036 4.9979 0
M  V30 16434 H 1563.75 -2.44031 3.37275 0
M  V30 16435 H 1564.28 -0.822828 3.89197 0
M  V30 16436 H 1561.02 0.606461 6.52689 0
M  V30 16437 H 1560.54 -0.993164 5.9152 0
M  V30 16438 H 1562.22 -0.699645 6.43206 0
M  V30 16439 N 1562.35 -1.57153 -0.118549 0
M  V30 16440 C 1563.77 -1.52458 -0.472096 0
M  V30 16441 C 1563.97 -0.868289 -1.81832 0
M  V30 16442 O 1563.02 -0.450817 -2.48443 0
M  V30 16443 C 1564.34 -2.9722 -0.456175 0
M  V30 16444 C 1565.88 -3.08312 -0.539694 0
M  V30 16445 C 1566.36 -4.54635 -0.554158 0
M  V30 16446 N 1567.85 -4.59091 -0.615584 0
M  V30 16447 C 1568.59 -5.69724 -0.64823 0
M  V30 16448 N 1568.08 -6.89852 -0.638494 0
M  V30 16449 N 1569.87 -5.57833 -0.691272 0
M  V30 16450 H 1562.03 -1.98202 0.76353 0
M  V30 16451 H 1564.29 -0.905179 0.281699 0
M  V30 16452 H 1563.99 -3.48608 0.465364 0
M  V30 16453 H 1563.87 -3.5468 -1.28381 0
M  V30 16454 H 1566.26 -2.56926 -1.45165 0
M  V30 16455 H 1566.34 -2.53845 0.315638 0
M  V30 16456 H 1565.98 -5.06667 0.353759 0
M  V30 16457 H 1565.91 -5.06914 -1.42638 0
M  V30 16458 H 1568.4 -3.72624 -0.629253 0
M  V30 16459 H 1568.71 -7.69925 -0.66604 0
M  V30 16460 H 1567.06 -6.92354 -0.605912 0
M  V30 16461 H 1570.25 -4.62893 -0.696244 0
M  V30 16462 H 1570.42 -6.44063 -0.713246 0
M  V30 16463 O 1563.87 0.262871 -1.59346 0
M  V30 16464 H 1564.56 0.90732 -1.71136 0
M  V30 END ATOM
M  V30 BEGIN BOND
M  V30 END BOND
M  V30 END CTAB
M  END
$$$$
