drugbank_target|O05935 2-oxo-1,2-dihydroquinoline 8-monooxygenase, oxygenase component (DB04745)
 OpenBabel12092120303D

  0  0  0     0  0            999 V3000
M  V30 BEGIN CTAB
M  V30 COUNTS 7098 7206 0 0 0
M  V30 BEGIN ATOM
M  V30 1 H -0.908 1.98254 -0.117106 0
M  V30 2 N 0 1.576 0 0
M  V30 3 C 0.933 2.03868 1.02534 0
M  V30 4 C 1.911 0.928543 1.3348 0
M  V30 5 O 3.095 1.19667 1.45644 0
M  V30 6 C 0.222 2.43627 2.35294 0
M  V30 7 C -0.732 3.65373 2.2001 0
M  V30 8 S 0.101 5.13292 1.52614 0
M  V30 9 C 1.257 5.56322 2.86805 0
M  V30 10 H 1.49 2.90518 0.631377 0
M  V30 11 H -0.977 1.52953 0.210867 0
M  V30 12 H 0.981 2.67203 3.11629 0
M  V30 13 H -0.358 1.57376 2.7183 0
M  V30 14 H -1.165 3.90944 3.18086 0
M  V30 15 H -1.563 3.418 1.51819 0
M  V30 16 H 0.729 5.58782 3.83104 0
M  V30 17 H 1.672 6.56266 2.65933 0
M  V30 18 H 2.08 4.83886 2.90714 0
M  V30 19 N 1.4781 -0.272755 1.55222 0
M  V30 20 C 2.7031 -1.02683 1.80197 0
M  V30 21 C 3.1281 -1.79142 0.573551 0
M  V30 22 O 2.4861 -1.74917 -0.476849 0
M  V30 23 C 2.5341 -1.9609 3.02624 0
M  V30 24 O 1.6381 -3.04863 2.77727 0
M  V30 25 H 0.9791 -0.293557 0.595584 0
M  V30 26 H 3.5091 -0.30159 2.02365 0
M  V30 27 H 3.5191 -2.38039 3.31363 0
M  V30 28 H 2.1941 -1.39851 3.91682 0
M  V30 29 H 0.7711 -2.67228 2.60084 0
M  V30 30 N 2.9562 -1.48159 -0.537278 0
M  V30 31 C 4.2332 -1.46291 -1.29839 0
M  V30 32 C 4.6132 -0.170613 -2.10409 0
M  V30 33 O 3.9612 0.847746 -2.12192 0
M  V30 34 C 4.1712 -2.72055 -2.18603 0
M  V30 35 C 5.5192 -3.20087 -2.7898 0
M  V30 36 O 6.5432 -2.72921 -2.28894 0
M  V30 37 O 5.4022 -4.02138 -3.70064 0
M  V30 38 H 2.4962 -0.583906 -0.585647 0
M  V30 39 H 5.0422 -1.60384 -0.554534 0
M  V30 40 H 3.8142 -3.57628 -1.58801 0
M  V30 41 H 3.4372 -2.60646 -3.00249 0
M  V30 42 N 4.4343 0.785586 -1.36625 0
M  V30 43 C 5.3663 1.90711 -1.2713 0
M  V30 44 C 6.3793 1.61688 -0.189986 0
M  V30 45 O 7.5683 1.72864 -0.445014 0
M  V30 46 C 4.6683 3.25611 -0.939713 0
M  V30 47 C 3.8413 3.82385 -2.12369 0
M  V30 48 C 2.9003 4.95732 -1.76456 0
M  V30 49 O 1.9263 5.12047 -2.48589 0
M  V30 50 N 3.1283 5.76258 -0.700492 0
M  V30 51 H 5.8933 1.99376 -2.23762 0
M  V30 52 H 3.4543 0.964041 -1.30069 0
M  V30 53 H 5.4463 3.98937 -0.680554 0
M  V30 54 H 4.0163 3.12538 -0.0624074 0
M  V30 55 H 3.2363 3.01001 -2.54543 0
M  V30 56 H 4.5243 4.17047 -2.9146 0
M  V30 57 H 3.9223 5.65609 -0.101624 0
M  V30 58 H 2.4793 6.4987 -0.501165 0
M  V30 59 N 5.9124 1.20967 1.01018 0
M  V30 60 C 7.3234 1.02319 1.56165 0
M  V30 61 C 7.6744 -0.418546 1.91684 0
M  V30 62 O 6.7994 -1.30096 1.72928 0
M  V30 63 C 7.3944 1.85109 2.8376 0
M  V30 64 C 5.9534 1.70809 3.35412 0
M  V30 65 C 5.1004 1.82643 2.08655 0
M  V30 66 H 8.0514 1.35065 0.833255 0
M  V30 67 H 8.0724 1.35827 3.55431 0
M  V30 68 H 7.5844 2.90035 2.57878 0
M  V30 69 H 5.6854 0.685464 3.66241 0
M  V30 70 H 5.7984 2.52467 4.07182 0
M  V30 71 H 4.1624 1.25896 2.21409 0
M  V30 72 H 4.9454 2.89066 1.85191 0
M  V30 73 N 7.3905 -1.2043 1.01659 0
M  V30 74 C 8.6395 -1.89118 0.701237 0
M  V30 75 C 8.9525 -1.79705 -0.772358 0
M  V30 76 O 10.1585 -2.43528 -1.20026 0
M  V30 77 C 8.6145 -3.39168 1.20388 0
M  V30 78 C 8.2225 -3.57166 2.70438 0
M  V30 79 C 9.9665 -4.1341 0.963953 0
M  V30 80 C 7.8735 -5.01042 3.14183 0
M  V30 81 H 6.8035 -0.708267 0.2586 0
M  V30 82 H 9.4545 -1.36239 1.22927 0
M  V30 83 H 7.8365 -3.91369 0.603824 0
M  V30 84 H 9.0105 -3.15351 3.35992 0
M  V30 85 H 7.3255 -2.96294 2.92572 0
M  V30 86 H 9.9225 -5.19491 1.26621 0
M  V30 87 H 10.2655 -4.16181 -0.099578 0
M  V30 88 H 10.7985 -3.67309 1.52738 0
M  V30 89 H 7.5375 -5.03426 4.19812 0
M  V30 90 H 7.0575 -5.43668 2.53348 0
M  V30 91 H 8.7365 -5.69623 3.0682 0
M  V30 92 N 8.8686 -0.792821 -1.36206 0
M  V30 93 C 10.1176 -0.363353 -1.984 0
M  V30 94 C 10.4306 1.07172 -1.63626 0
M  V30 95 O 11.6366 1.60362 -2.19081 0
M  V30 96 C 10.0926 -0.59872 -3.54885 0
M  V30 97 C 9.7006 -2.04543 -3.9858 0
M  V30 98 C 11.4446 -0.233926 -4.23855 0
M  V30 99 C 9.3516 -2.22727 -5.47856 0
M  V30 100 H 8.2816 -0.13212 -0.742334 0
M  V30 101 H 10.9326 -0.974935 -1.55458 0
M  V30 102 H 9.3146 0.0826222 -3.95914 0
M  V30 103 H 10.4886 -2.76345 -3.68741 0
M  V30 104 H 8.8036 -2.36879 -3.42458 0
M  V30 105 H 11.4006 -0.348027 -5.33566 0
M  V30 106 H 11.7436 0.818351 -4.08177 0
M  V30 107 H 12.2766 -0.868639 -3.882 0
M  V30 108 H 9.0156 -3.2635 -5.68486 0
M  V30 109 H 8.5356 -1.55434 -5.7931 0
M  V30 110 H 10.2146 -2.03607 -6.14128 0
M  V30 111 N 10.3467 1.47872 -0.545128 0
M  V30 112 C 11.7627 1.5829 -0.204032 0
M  V30 113 C 11.9627 1.54529 1.29317 0
M  V30 114 O 11.0187 1.44232 2.07252 0
M  V30 115 C 12.3317 2.89304 -0.819987 0
M  V30 116 C 13.8797 3.02864 -0.790105 0
M  V30 117 C 14.3547 4.3656 -1.38491 0
M  V30 118 N 15.8457 4.43165 -1.34755 0
M  V30 119 C 16.5807 5.45153 -1.77753 0
M  V30 120 N 16.0767 6.54016 -2.2855 0
M  V30 121 N 17.8697 5.36125 -1.68897 0
M  V30 122 H 10.0207 1.4856 -1.51802 0
M  V30 123 H 12.2837 0.706305 -0.632327 0
M  V30 124 H 11.9897 2.97757 -1.87173 0
M  V30 125 H 11.8637 3.75957 -0.305915 0
M  V30 126 H 14.2507 2.94014 0.252913 0
M  V30 127 H 14.3317 2.17782 -1.34181 0
M  V30 128 H 13.9757 4.46164 -2.42693 0
M  V30 129 H 13.9057 5.20353 -0.808754 0
M  V30 130 H 16.3967 3.65083 -0.975855 0
M  V30 131 H 16.7097 7.27994 -2.59314 0
M  V30 132 H 15.0547 6.54938 -2.32553 0
M  V30 133 H 18.2457 4.49975 -1.28998 0
M  V30 134 H 18.4187 6.15472 -2.02726 0
M  V30 135 N 11.8248 0.280983 1.55075 0
M  V30 136 C 13.2408 -0.0729964 1.59433 0
M  V30 137 C 13.4408 -1.5411 1.29817 0
M  V30 138 O 12.4968 -2.29086 1.06187 0
M  V30 139 C 13.8098 0.306921 2.9913 0
M  V30 140 C 15.3578 0.254023 3.11968 0
M  V30 141 C 15.8328 0.608467 4.5394 0
M  V30 142 N 17.3238 0.560241 4.59799 0
M  V30 143 C 18.0588 0.80722 5.6769 0
M  V30 144 N 17.5548 1.11912 6.83701 0
M  V30 145 N 19.3478 0.735623 5.57266 0
M  V30 146 H 11.4988 1.238 1.7259 0
M  V30 147 H 13.7618 0.500547 0.805082 0
M  V30 148 H 13.4678 1.32816 3.25657 0
M  V30 149 H 13.3418 -0.349363 3.75579 0
M  V30 150 H 15.7288 -0.75794 2.852 0
M  V30 151 H 15.8098 0.944649 2.37718 0
M  V30 152 H 15.4538 1.61814 4.81434 0
M  V30 153 H 15.3838 -0.104013 5.26497 0
M  V30 154 H 17.8748 0.329288 3.76463 0
M  V30 155 H 18.1878 1.29409 7.61888 0
M  V30 156 H 16.5328 1.15695 6.85303 0
M  V30 157 H 19.7238 0.491752 4.6551 0
M  V30 158 H 19.8968 0.931482 6.4127 0
M  V30 159 N 13.3029 -1.57598 0.00835791 0
M  V30 160 C 14.7189 -1.55764 -0.347822 0
M  V30 161 C 14.9189 -1.01186 -1.74252 0
M  V30 162 O 13.9749 -0.649371 -2.44007 0
M  V30 163 C 15.2879 -2.99927 -0.215407 0
M  V30 164 C 16.8359 -3.11656 -0.289725 0
M  V30 165 C 17.3109 -4.57621 -0.18634 0
M  V30 166 N 18.8019 -4.62557 -0.243978 0
M  V30 167 C 19.5369 -5.73094 -0.18745 0
M  V30 168 N 19.0329 -6.92753 -0.0810331 0
M  V30 169 N 20.8259 -5.61588 -0.239925 0
M  V30 170 H 12.9769 -1.91411 0.92062 0
M  V30 171 H 15.2399 -0.879562 0.353659 0
M  V30 172 H 14.9459 -3.43729 0.744512 0
M  V30 173 H 14.8199 -3.63865 -0.994097 0
M  V30 174 H 17.2069 -2.67779 -1.24009 0
M  V30 175 H 17.2879 -2.5048 0.51898 0
M  V30 176 H 16.9319 -5.02174 0.760519 0
M  V30 177 H 16.8619 -5.16752 -1.01364 0
M  V30 178 H 19.3529 -3.76481 -0.327217 0
M  V30 179 H 19.6659 -7.72787 -0.0440241 0
M  V30 180 H 18.0109 -6.94984 -0.0465419 0
M  V30 181 H 21.2019 -4.66996 -0.321317 0
M  V30 182 H 21.3749 -6.47714 -0.192407 0
M  V30 183 N 14.781 0.264519 -1.55364 0
M  V30 184 C 15.713 1.34965 -1.85248 0
M  V30 185 C 16.726 1.45136 -0.737525 0
M  V30 186 O 17.915 1.46801 -1.01547 0
M  V30 187 C 15.015 2.73008 -2.00797 0
M  V30 188 C 14.188 2.85324 -3.31525 0
M  V30 189 C 13.247 4.04097 -3.37034 0
M  V30 190 O 12.273 3.94455 -4.10358 0
M  V30 191 N 13.475 5.16458 -2.65049 0
M  V30 192 H 16.24 1.09672 -2.78913 0
M  V30 193 H 13.801 0.454635 -1.55386 0
M  V30 194 H 15.793 3.50772 -2.01844 0
M  V30 195 H 14.363 2.91087 -1.1396 0
M  V30 196 H 13.583 1.94377 -3.42945 0
M  V30 197 H 14.871 2.9049 -4.17724 0
M  V30 198 H 14.269 5.27181 -2.05175 0
M  V30 199 H 12.826 5.92422 -2.71809 0
M  V30 200 N 16.2591 1.48442 0.529413 0
M  V30 201 C 17.5051 1.5672 1.28711 0
M  V30 202 C 17.8381 0.2406 1.92704 0
M  V30 203 O 17.1131 -0.753454 1.79313 0
M  V30 204 C 17.3961 2.70587 2.37603 0
M  V30 205 C 17.2491 4.12953 1.78297 0
M  V30 206 C 18.5681 2.80212 3.39366 0
M  V30 207 H 15.6871 0.570474 0.466613 0
M  V30 208 H 18.3291 1.80617 0.589706 0
M  V30 209 H 16.4791 2.50342 2.97088 0
M  V30 210 H 18.1511 4.44639 1.22858 0
M  V30 211 H 16.3941 4.19927 1.0883 0
M  V30 212 H 17.0651 4.88448 2.57144 0
M  V30 213 H 19.5411 2.98553 2.89836 0
M  V30 214 H 18.4171 3.61611 4.12951 0
M  V30 215 H 18.6781 1.88393 3.99951 0
M  V30 216 N 17.7372 -0.778329 1.37039 0
M  V30 217 C 18.6842 -1.89139 1.32269 0
M  V30 218 C 19.6542 -1.65017 0.189387 0
M  V30 219 O 20.8392 -1.87024 0.377693 0
M  V30 220 C 17.9792 -3.26112 1.12894 0
M  V30 221 C 17.0922 -3.62233 2.35396 0
M  V30 222 C 16.2272 -4.8838 2.08946 0
M  V30 223 C 15.2662 -5.17212 3.2735 0
M  V30 224 N 14.4032 -6.34546 3.00492 0
M  V30 225 H 19.2432 -1.92552 2.27437 0
M  V30 226 H 16.7802 -0.941473 1.13025 0
M  V30 227 H 18.7382 -4.05116 0.996835 0
M  V30 228 H 17.3682 -3.22091 0.213758 0
M  V30 229 H 16.4202 -2.78265 2.5937 0
M  V30 230 H 17.7322 -3.79481 3.23721 0
M  V30 231 H 16.8862 -5.75274 1.92729 0
M  V30 232 H 15.6252 -4.73222 1.17949 0
M  V30 233 H 14.6302 -4.28796 3.44113 0
M  V30 234 H 15.8552 -5.34283 4.19188 0
M  V30 235 H 13.8012 -6.20759 2.12118 0
M  V30 236 H 13.7182 -6.52179 3.82358 0
M  V30 237 H 14.9862 -7.24394 2.87879 0
M  V30 238 N 19.2153 -1.21501 -1.00376 0
M  V30 239 C 20.4433 -1.059 -1.77744 0
M  V30 240 C 20.8583 0.391125 -1.84704 0
M  V30 241 O 20.2153 1.27133 -1.30933 0
M  V30 242 C 20.2663 -1.65111 -3.21591 0
M  V30 243 O 19.9873 -3.0445 -3.15027 0
M  V30 244 C 21.4883 -1.54637 -4.15454 0
M  V30 245 H 18.7083 -0.371825 -0.558558 0
M  V30 246 H 21.2523 -1.60865 -1.26264 0
M  V30 247 H 19.4073 -1.14235 -3.70175 0
M  V30 248 H 19.8213 -3.3278 -4.0541 0
M  V30 249 H 21.2953 -2.00808 -5.14179 0
M  V30 250 H 21.7723 -0.501022 -4.36333 0
M  V30 251 H 22.3783 -2.04767 -3.72761 0
M  V30 252 N 20.6934 1.19889 -1.02296 0
M  V30 253 C 21.9414 1.89046 -0.714558 0
M  V30 254 C 22.2624 1.79636 0.758681 0
M  V30 255 O 21.5324 1.20292 1.54618 0
M  V30 256 H 20.1124 0.699802 -0.261317 0
M  V30 257 H 22.7744 1.45574 -1.29592 0
M  V30 258 H 21.8704 2.95524 -1.0036 0
M  V30 259 N 22.1715 0.800033 1.35784 0
M  V30 260 C 23.4205 0.37387 1.98205 0
M  V30 261 C 23.7335 -1.06302 1.64193 0
M  V30 262 O 24.9395 -1.59198 2.19928 0
M  V30 263 C 23.3955 0.617532 3.54562 0
M  V30 264 C 23.0035 2.06654 3.9749 0
M  V30 265 C 24.7475 0.256401 4.23725 0
M  V30 266 C 22.6545 2.2563 5.46667 0
M  V30 267 H 21.5845 0.136055 0.741623 0
M  V30 268 H 24.2355 0.983166 1.54939 0
M  V30 269 H 22.6175 -0.0616248 3.95952 0
M  V30 270 H 23.7915 2.78296 3.67271 0
M  V30 271 H 22.1065 2.38691 3.41197 0
M  V30 272 H 24.7035 0.376318 5.33374 0
M  V30 273 H 25.0465 -0.796692 4.08606 0
M  V30 274 H 25.5795 0.889214 3.87734 0
M  V30 275 H 22.3185 3.2936 5.66747 0
M  V30 276 H 21.8385 1.58504 5.78478 0
M  V30 277 H 23.5175 2.06861 6.1304 0
M  V30 278 N 23.6496 -1.47581 0.552962 0
M  V30 279 C 24.8746 -2.07378 0.0300593 0
M  V30 280 C 25.2996 -1.40355 -1.25229 0
M  V30 281 O 24.6576 -0.477099 -1.7491 0
M  V30 282 C 24.7056 -3.60274 -0.153231 0
M  V30 283 O 23.8096 -3.94041 -1.21678 0
M  V30 284 H 23.1506 -0.662158 0.0494182 0
M  V30 285 H 25.6806 -1.89662 0.767434 0
M  V30 286 H 25.6906 -4.0633 -0.368761 0
M  V30 287 H 24.3656 -4.08455 0.783397 0
M  V30 288 H 22.9426 -3.59735 -0.982079 0
M  V30 289 N 25.1277 -0.289203 -1.54924 0
M  V30 290 C 26.4047 0.376032 -1.91951 0
M  V30 291 C 26.7847 1.72622 -1.21511 0
M  V30 292 O 26.1327 2.25853 -0.346767 0
M  V30 293 C 26.3427 0.502378 -3.45365 0
M  V30 294 C 27.6907 0.778741 -4.17398 0
M  V30 295 O 28.7147 0.586647 -3.51336 0
M  V30 296 O 27.5737 1.14698 -5.34328 0
M  V30 297 H 24.6677 0.208167 -0.800372 0
M  V30 298 H 27.2137 -0.336394 -1.66332 0
M  V30 299 H 25.9857 -0.447255 -3.88736 0
M  V30 300 H 25.6087 1.26373 -3.76982 0
M  V30 301 N 26.6058 1.57591 -0.0167156 0
M  V30 302 C 27.5688 2.08393 0.954204 0
M  V30 303 C 28.5688 0.996531 1.26198 0
M  V30 304 O 29.7588 1.25858 1.20438 0
M  V30 305 C 26.8908 2.5394 2.27436 0
M  V30 306 H 28.0838 2.95455 0.514451 0
M  V30 307 H 25.6368 1.54582 0.231089 0
M  V30 308 H 26.3718 1.70171 2.76066 0
M  V30 309 H 26.1568 3.33371 2.06412 0
M  V30 310 H 27.6468 2.93512 2.97053 0
M  V30 311 N 28.0839 -0.256276 1.55502 0
M  V30 312 C 29.4999 -0.604325 1.47716 0
M  V30 313 C 29.6999 -1.88763 0.705039 0
M  V30 314 O 28.7559 -2.51445 0.230613 0
M  V30 315 C 30.0689 -0.715756 2.92057 0
M  V30 316 C 31.6169 -0.808706 3.02372 0
M  V30 317 C 32.0919 -0.951777 4.48001 0
M  V30 318 N 33.5829 -1.01688 4.519 0
M  V30 319 C 34.3179 -1.14668 5.61817 0
M  V30 320 N 33.8139 -1.24261 6.81565 0
M  V30 321 N 35.6069 -1.1791 5.49594 0
M  V30 322 H 27.7579 0.586291 2.04148 0
M  V30 323 H 30.0209 0.201015 0.926443 0
M  V30 324 H 29.7269 0.157027 3.51349 0
M  V30 325 H 29.6009 -1.59071 3.42018 0
M  V30 326 H 31.9879 -1.67195 2.43166 0
M  V30 327 H 32.0689 0.0912063 2.55637 0
M  V30 328 H 31.7129 -0.0931291 5.07815 0
M  V30 329 H 31.6429 -1.86659 4.92408 0
M  V30 330 H 34.1339 -0.954468 3.65648 0
M  V30 331 H 34.4469 -1.34046 7.61086 0
M  V30 332 H 32.7919 -1.21236 6.84344 0
M  V30 333 H 35.9829 -1.10057 4.54978 0
M  V30 334 H 36.1559 -1.27681 6.35296 0
M  V30 335 N 29.562 -1.4872 -0.521534 0
M  V30 336 C 30.525 -1.63379 -1.60748 0
M  V30 337 C 31.525 -0.50661 -1.52611 0
M  V30 338 O 32.715 -0.772601 -1.5613 0
M  V30 339 C 29.847 -1.61192 -3.00383 0
M  V30 340 H 31.04 -2.60217 -1.49087 0
M  V30 341 H 28.593 -1.37444 -0.744235 0
M  V30 342 H 29.328 -0.65863 -3.17541 0
M  V30 343 H 29.113 -2.43032 -3.07698 0
M  V30 344 H 30.603 -1.7466 -3.7932 0
M  V30 345 N 31.0401 0.771051 -1.3745 0
M  V30 346 C 31.9881 1.90574 -1.33358 0
M  V30 347 C 32.9821 1.67936 -0.22224 0
M  V30 348 O 34.1881 1.75717 -0.390304 0
M  V30 349 H 30.5631 0.626714 -0.415612 0
M  V30 350 H 32.5341 1.91142 -2.29144 0
M  V30 351 C 31.2831 3.27845 -1.15813 0
M  V30 352 H 30.6061 3.45842 -2.00583 0
M  V30 353 H 32.0461 4.07538 -1.17 0
M  V30 354 C 30.5051 3.36625 0.136165 0
M  V30 355 O 31.0351 3.85785 1.11949 0
M  V30 356 N 29.2411 2.89997 0.187099 0
M  V30 357 H 28.7881 2.50182 -0.613753 0
M  V30 358 H 28.7461 2.96252 1.05272 0
M  V30 359 N 32.5182 1.22032 0.997298 0
M  V30 360 C 33.4662 0.983634 2.10778 0
M  V30 361 C 34.4602 -0.0717564 1.69248 0
M  V30 362 O 35.6662 0.080304 1.79821 0
M  V30 363 H 32.0412 0.300877 0.689186 0
M  V30 364 H 34.0122 1.92606 2.27916 0
M  V30 365 C 32.7612 0.57326 3.42942 0
M  V30 366 H 32.0842 1.37702 3.75338 0
M  V30 367 H 33.5242 0.447031 4.21637 0
M  V30 368 C 31.9832 -0.7167 3.29188 0
M  V30 369 O 32.5132 -1.77027 3.60589 0
M  V30 370 N 30.7192 -0.686167 2.82383 0
M  V30 371 H 30.2662 0.171507 2.57028 0
M  V30 372 H 30.2242 -1.54955 2.73562 0
M  V30 373 N 33.9963 -1.19345 1.0293 0
M  V30 374 C 34.9593 -2.20793 0.615069 0
M  V30 375 C 35.9593 -1.57553 -0.321533 0
M  V30 376 O 37.1493 -1.73862 -0.108483 0
M  V30 377 C 34.2813 -3.40754 -0.0999222 0
M  V30 378 H 35.4743 -2.58955 1.51269 0
M  V30 379 H 33.0273 -1.3303 0.820534 0
M  V30 380 H 33.7623 -3.0811 -1.01187 0
M  V30 381 H 33.5473 -3.87889 0.57309 0
M  V30 382 H 35.0373 -4.15898 -0.376645 0
M  V30 383 N 35.4744 -0.807222 -1.35358 0
M  V30 384 C 36.4214 -0.216037 -2.29787 0
M  V30 385 C 37.3914 0.650278 -1.52842 0
M  V30 386 O 38.5764 0.595227 -1.81278 0
M  V30 387 C 35.7164 0.628893 -3.39321 0
M  V30 388 C 34.8294 -0.257927 -4.31229 0
M  V30 389 C 33.9644 0.595069 -5.27856 0
M  V30 390 C 33.0034 -0.292111 -6.11403 0
M  V30 391 N 32.1404 0.520895 -7.00165 0
M  V30 392 H 36.9804 -1.02671 -2.79755 0
M  V30 393 H 34.5174 -0.517839 -1.37684 0
M  V30 394 H 36.4754 1.13393 -4.01494 0
M  V30 395 H 35.1054 1.40482 -2.90628 0
M  V30 396 H 34.1574 -0.881076 -3.70056 0
M  V30 397 H 35.4694 -0.940759 -4.89848 0
M  V30 398 H 34.6234 1.16522 -5.95405 0
M  V30 399 H 33.3624 1.31146 -4.69736 0
M  V30 400 H 32.3674 -0.874525 -5.428 0
M  V30 401 H 33.5924 -1.00638 -6.71602 0
M  V30 402 H 31.5384 1.22125 -6.44532 0
M  V30 403 H 31.4554 -0.103877 -7.55929 0
M  V30 404 H 32.7234 1.0743 -7.72062 0
M  V30 405 N 36.9525 1.47285 -0.560781 0
M  V30 406 C 38.1805 2.06855 -0.0430262 0
M  V30 407 C 38.5955 1.41291 1.25229 0
M  V30 408 O 37.9525 0.510648 1.7521 0
M  V30 409 C 38.0035 3.61178 0.152518 0
M  V30 410 O 37.7245 4.24285 -1.0915 0
M  V30 411 C 39.2255 4.37624 0.707145 0
M  V30 412 H 36.4455 0.669319 -0.0474652 0
M  V30 413 H 38.9895 1.89237 -0.77521 0
M  V30 414 H 37.1445 3.78298 0.834843 0
M  V30 415 H 37.5585 5.16868 -0.891482 0
M  V30 416 H 39.0325 5.46271 0.793244 0
M  V30 417 H 39.5095 4.04152 1.71923 0
M  V30 418 H 40.1155 4.25257 0.0604027 0
M  V30 419 N 38.4306 0.297415 1.54768 0
M  V30 420 C 39.3626 -0.613881 2.20826 0
M  V30 421 C 40.3756 -1.10032 1.19987 0
M  V30 422 O 41.5646 -1.01839 1.46598 0
M  V30 423 C 38.6646 -1.852 2.83821 0
M  V30 424 C 37.8376 -1.50865 4.10559 0
M  V30 425 C 36.8966 -2.60154 4.57391 0
M  V30 426 O 35.9226 -2.25398 5.2267 0
M  V30 427 N 37.1246 -3.90629 4.29406 0
M  V30 428 H 39.8896 -0.048389 2.99661 0
M  V30 429 H 37.4506 0.11946 1.61459 0
M  V30 430 H 39.4426 -2.57652 3.12086 0
M  V30 431 H 38.0126 -2.32597 2.08847 0
M  V30 432 H 37.2326 -0.616925 3.89343 0
M  V30 433 H 38.5206 -1.25458 4.9309 0
M  V30 434 H 37.9186 -4.21677 3.77101 0
M  V30 435 H 36.4756 -4.59391 4.62388 0
M  V30 436 N 39.9087 -1.5758 0.0250728 0
M  V30 437 C 41.1337 -1.96337 -0.668317 0
M  V30 438 C 41.5587 -0.901314 -1.651 0
M  V30 439 O 40.9167 0.138187 -1.80773 0
M  V30 440 C 40.9647 -3.34191 -1.35457 0
M  V30 441 O 40.0687 -3.30269 -2.46974 0
M  V30 442 H 39.4097 -0.640281 -0.175887 0
M  V30 443 H 41.9397 -2.0442 0.0857224 0
M  V30 444 H 41.9497 -3.70331 -1.71228 0
M  V30 445 H 40.6247 -4.11036 -0.634218 0
M  V30 446 H 39.2017 -3.05841 -2.13344 0
M  V30 447 N 41.3868 0.248026 -1.55636 0
M  V30 448 C 42.3188 1.32993 -1.8667 0
M  V30 449 C 43.3318 1.44345 -0.752877 0
M  V30 450 O 44.5208 1.45715 -1.03098 0
M  V30 451 C 41.6208 2.70863 -2.03682 0
M  V30 452 C 40.7938 2.81792 -3.34532 0
M  V30 453 C 39.8528 4.005 -3.41301 0
M  V30 454 O 38.8788 3.9008 -4.14519 0
M  V30 455 N 40.0808 5.13618 -2.70512 0
M  V30 456 H 42.8458 1.06707 -2.8006 0
M  V30 457 H 40.4068 0.438129 -1.55859 0
M  V30 458 H 42.3988 3.48612 -2.05553 0
M  V30 459 H 40.9688 2.89862 -1.17041 0
M  V30 460 H 40.1888 1.90729 -3.44987 0
M  V30 461 H 41.4768 2.86043 -4.20781 0
M  V30 462 H 40.8748 5.24975 -2.10755 0
M  V30 463 H 39.4318 5.89505 -2.78077 0
M  V30 464 N 42.8649 1.48995 0.513639 0
M  V30 465 C 44.0949 1.61297 1.291 0
M  V30 466 C 44.5029 0.278656 1.87137 0
M  V30 467 O 43.8459 -0.744325 1.67945 0
M  V30 468 C 43.9079 2.61326 2.46879 0
M  V30 469 C 43.5719 4.05993 2.09807 0
M  V30 470 C 44.5689 4.93183 1.64519 0
M  V30 471 C 42.2539 4.51642 2.19829 0
M  V30 472 C 44.2479 6.24056 1.2974 0
M  V30 473 C 41.9349 5.82532 1.84662 0
M  V30 474 C 42.9329 6.68562 1.3969 0
M  V30 475 O 42.6209 7.97014 1.04992 0
M  V30 476 H 42.3529 0.546236 0.39825 0
M  V30 477 H 44.9069 1.95673 0.62459 0
M  V30 478 H 43.1369 2.22104 3.16554 0
M  V30 479 H 44.8259 2.6329 3.08923 0
M  V30 480 H 45.5919 4.59147 1.56233 0
M  V30 481 H 41.4709 3.84855 2.53786 0
M  V30 482 H 45.0149 6.91161 0.945659 0
M  V30 483 H 40.9119 6.16099 1.92594 0
M  V30 484 H 41.6799 8.09913 1.18249 0
M  V30 485 N 44.343 -0.763751 1.37857 0
M  V30 486 C 45.275 -1.88664 1.30148 0
M  V30 487 C 46.288 -1.61365 0.215685 0
M  V30 488 O 47.477 -1.72134 0.472459 0
M  V30 489 C 44.577 -3.24075 0.991396 0
M  V30 490 C 43.75 -3.78958 2.18426 0
M  V30 491 C 42.809 -4.92862 1.8432 0
M  V30 492 O 41.835 -5.08027 2.56704 0
M  V30 493 N 43.037 -5.75071 0.792081 0
M  V30 494 H 45.802 -1.95791 2.26905 0
M  V30 495 H 43.363 -0.943226 1.31586 0
M  V30 496 H 45.355 -3.97804 0.743935 0
M  V30 497 H 43.925 -3.12399 0.112122 0
M  V30 498 H 43.145 -2.96913 2.59299 0
M  V30 499 H 44.433 -4.12357 2.98058 0
M  V30 500 H 43.831 -5.65375 0.191595 0
M  V30 501 H 42.388 -6.48991 0.60449 0
M  V30 502 N 45.8211 -1.22559 -0.990812 0
M  V30 503 C 47.2321 -1.04791 -1.54518 0
M  V30 504 C 47.5831 0.387998 -1.92325 0
M  V30 505 O 46.7081 1.27328 -1.74976 0
M  V30 506 C 47.3031 -1.896 -2.80779 0
M  V30 507 C 45.8621 -1.76124 -3.32652 0
M  V30 508 C 45.0091 -1.8594 -2.05722 0
M  V30 509 H 47.9601 -1.36374 -0.811662 0
M  V30 510 H 47.9811 -1.41464 -3.53225 0
M  V30 511 H 47.4931 -2.94101 -2.53231 0
M  V30 512 H 45.5941 -0.743643 -3.65104 0
M  V30 513 H 45.7071 -2.58913 -4.03114 0
M  V30 514 H 44.0711 -1.29403 -2.19379 0
M  V30 515 H 44.8541 -2.91976 -1.80568 0
M  V30 516 N 47.2992 1.18797 -1.03562 0
M  V30 517 C 48.5292 1.92319 -0.754773 0
M  V30 518 C 48.9372 1.7612 0.691248 0
M  V30 519 O 48.2802 1.08491 1.48241 0
M  V30 520 C 48.3422 3.44284 -1.03484 0
M  V30 521 C 48.0062 3.84258 -2.47376 0
M  V30 522 C 49.0032 3.88459 -3.45537 0
M  V30 523 C 46.6882 4.15701 -2.81954 0
M  V30 524 C 48.6822 4.23545 -4.76328 0
M  V30 525 C 46.3692 4.50458 -4.12954 0
M  V30 526 C 47.3672 4.54356 -5.09951 0
M  V30 527 O 47.0552 4.88305 -6.38603 0
M  V30 528 H 46.7872 0.617527 -0.275021 0
M  V30 529 H 49.3412 1.51683 -1.38497 0
M  V30 530 H 47.5712 3.85135 -0.347513 0
M  V30 531 H 49.2602 3.99049 -0.7426 0
M  V30 532 H 50.0262 3.6431 -3.20162 0
M  V30 533 H 45.9052 4.11847 -2.0713 0
M  V30 534 H 49.4492 4.26502 -5.52035 0
M  V30 535 H 45.3462 4.74067 -4.38099 0
M  V30 536 H 46.1142 5.06227 -6.43177 0
M  V30 537 N 48.7773 0.814389 1.34928 0
M  V30 538 C 49.7243 0.22822 2.29669 0
M  V30 539 C 50.6943 -0.642164 1.53184 0
M  V30 540 O 51.8793 -0.585605 1.81591 0
M  V30 541 C 49.0193 -0.61089 3.3965 0
M  V30 542 C 48.1323 0.280792 4.31086 0
M  V30 543 C 47.2673 -0.567067 5.28165 0
M  V30 544 C 46.3063 0.324531 6.11239 0
M  V30 545 N 45.4433 -0.483756 7.00431 0
M  V30 546 H 50.2833 1.04153 2.79206 0
M  V30 547 H 47.8203 0.525133 1.37407 0
M  V30 548 H 49.7783 -1.11263 4.0209 0
M  V30 549 H 48.4083 -1.38939 2.91369 0
M  V30 550 H 47.4603 0.900688 3.69583 0
M  V30 551 H 48.7723 0.966723 4.89342 0
M  V30 552 H 47.9263 -1.13363 5.96015 0
M  V30 553 H 46.6653 -1.28654 4.70425 0
M  V30 554 H 45.6703 0.903298 5.42329 0
M  V30 555 H 46.8953 1.04198 6.71059 0
M  V30 556 H 44.8413 -1.18706 6.45171 0
M  V30 557 H 44.7583 0.143965 7.55863 0
M  V30 558 H 46.0263 -1.03334 7.7262 0
M  V30 559 N 50.2554 -1.46986 0.568584 0
M  V30 560 C 51.5324 -1.95592 -0.0174074 0
M  V30 561 C 51.9124 -1.51124 -1.47393 0
M  V30 562 O 51.2604 -0.755329 -2.15655 0
M  V30 563 C 51.4704 -3.48719 0.139913 0
M  V30 564 C 52.8184 -4.246 0.000426376 0
M  V30 565 O 53.8424 -3.56135 0.0680316 0
M  V30 566 O 52.7014 -5.46302 -0.146988 0
M  V30 567 H 49.7954 -0.82498 -0.0577599 0
M  V30 568 H 52.3414 -1.57335 0.635909 0
M  V30 569 H 51.1134 -3.73927 1.15301 0
M  V30 570 H 50.7364 -3.93771 -0.550491 0
M  V30 571 N 51.7335 -0.305618 -1.54608 0
M  V30 572 C 52.6965 0.555591 -2.22364 0
M  V30 573 C 53.6965 1.05768 -1.21119 0
M  V30 574 O 54.8865 0.952972 -1.45822 0
M  V30 575 C 52.0185 1.76974 -2.91364 0
M  V30 576 H 53.2115 -0.0364572 -2.99878 0
M  V30 577 H 50.7645 -0.0565007 -1.56198 0
M  V30 578 H 51.4995 2.40151 -2.17941 0
M  V30 579 H 51.2845 1.41732 -3.65588 0
M  V30 580 H 52.7745 2.38148 -3.43038 0
M  V30 581 N 53.2116 1.57565 -0.0334293 0
M  V30 582 C 54.1746 2.09393 0.932048 0
M  V30 583 C 55.1746 1.00986 1.25134 0
M  V30 584 O 56.3646 1.27129 1.19096 0
M  V30 585 C 53.4966 2.56338 2.2473 0
M  V30 586 H 54.6896 2.95984 0.483085 0
M  V30 587 H 52.2426 1.54819 0.21468 0
M  V30 588 H 52.9776 1.7309 2.74245 0
M  V30 589 H 52.7626 3.35542 2.02865 0
M  V30 590 H 54.2526 2.96646 2.93923 0
M  V30 591 N 54.6897 -0.239769 1.55765 0
M  V30 592 C 55.9357 -0.963942 1.79108 0
M  V30 593 C 56.2907 -1.82689 0.60352 0
M  V30 594 O 55.5837 -1.87313 -0.403033 0
M  V30 595 C 55.7777 -1.852 3.05672 0
M  V30 596 C 55.6067 -1.07651 4.36625 0
M  V30 597 C 54.3767 -0.778738 4.99263 0
M  V30 598 C 56.5747 -0.45062 5.12322 0
M  V30 599 N 54.5567 0.0200708 6.13897 0
M  V30 600 C 55.9277 0.212429 6.19636 0
M  V30 601 C 57.9827 -0.361806 4.96584 0
M  V30 602 C 56.6857 0.955772 7.12922 0
M  V30 603 C 58.7117 0.368023 5.90254 0
M  V30 604 C 58.0737 1.01968 6.96981 0
M  V30 605 H 54.1727 -0.333601 0.707272 0
M  V30 606 H 56.7567 -0.236425 1.93259 0
M  V30 607 H 54.9277 -2.55149 2.92837 0
M  V30 608 H 56.6597 -2.51228 3.1728 0
M  V30 609 H 53.4147 -1.09229 4.60832 0
M  V30 610 H 53.8387 0.407777 6.75771 0
M  V30 611 H 58.4807 -0.851286 4.14141 0
M  V30 612 H 56.1987 1.45683 7.9486 0
M  V30 613 H 59.7847 0.437504 5.80153 0
M  V30 614 H 58.6647 1.5754 7.68213 0
M  V30 615 N 56.1678 -1.49265 -0.50573 0
M  V30 616 C 57.4158 -1.582 -1.25766 0
M  V30 617 C 57.7368 -0.268482 -1.93143 0
M  V30 618 O 57.0068 0.711833 -1.8251 0
M  V30 619 H 55.5868 -0.582873 -0.467191 0
M  V30 620 H 58.2488 -1.85865 -0.586525 0
M  V30 621 H 57.3448 -2.37563 -2.02412 0
M  V30 622 N 57.6459 0.756429 -1.3826 0
M  V30 623 C 58.8929 1.51547 -1.34312 0
M  V30 624 C 59.2209 1.94382 0.0677144 0
M  V30 625 O 58.4759 1.65514 1.04421 0
M  V30 626 C 58.7749 2.78313 -2.24224 0
M  V30 627 C 58.4409 2.54455 -3.72241 0
M  V30 628 C 57.1029 2.47657 -4.12576 0
M  V30 629 C 59.4549 2.3354 -4.65949 0
M  V30 630 C 56.7829 2.17956 -5.44713 0
M  V30 631 C 59.1349 2.05359 -5.9834 0
M  V30 632 C 57.7989 1.97016 -6.37762 0
M  V30 633 H 57.0689 0.55455 -0.491482 0
M  V30 634 H 59.7159 0.870039 -1.70595 0
M  V30 635 H 58.0209 3.47492 -1.80987 0
M  V30 636 H 59.7179 3.36259 -2.18474 0
M  V30 637 H 56.3079 2.60616 -3.40261 0
M  V30 638 H 60.4919 2.37772 -4.35635 0
M  V30 639 H 55.7479 2.10003 -5.74203 0
M  V30 640 H 59.9219 1.88179 -6.70494 0
M  V30 641 H 57.5489 1.73766 -7.40074 0
M  V30 642 N 59.124 1.23083 0.984299 0
M  V30 643 C 60.373 1.05466 1.71929 0
M  V30 644 C 60.686 -0.409211 1.91272 0
M  V30 645 O 61.892 -0.705226 2.62181 0
M  V30 646 C 60.348 1.83874 3.09384 0
M  V30 647 C 59.956 3.34566 2.97943 0
M  V30 648 C 61.7 1.74734 3.8687 0
M  V30 649 C 59.607 4.05381 4.30605 0
M  V30 650 H 58.537 0.391039 0.644674 0
M  V30 651 H 61.188 1.47013 1.09815 0
M  V30 652 H 59.57 1.35131 3.72231 0
M  V30 653 H 60.744 3.90767 2.44209 0
M  V30 654 H 59.059 3.44476 2.33934 0
M  V30 655 H 61.656 2.24957 4.85076 0
M  V30 656 H 61.999 0.709372 4.10212 0
M  V30 657 H 62.532 2.21067 3.30717 0
M  V30 658 H 59.271 5.09467 4.1246 0
M  V30 659 H 58.791 3.53967 4.84218 0
M  V30 660 H 60.47 4.11458 4.99311 0
M  V30 661 N 60.6021 -1.18246 1.0419 0
M  V30 662 C 61.5501 -2.23968 0.627792 0
M  V30 663 C 62.5441 -1.65828 -0.346019 0
M  V30 664 O 63.7501 -1.78733 -0.213175 0
M  V30 665 H 60.1251 -0.728939 0.184802 0
M  V30 666 H 62.0961 -2.56202 1.52981 0
M  V30 667 C 60.8451 -3.47699 0.00796591 0
M  V30 668 H 60.1681 -3.92734 0.748347 0
M  V30 669 H 61.6081 -4.23294 -0.24455 0
M  V30 670 C 60.0671 -3.13153 -1.24246 0
M  V30 671 O 60.5971 -3.27003 -2.33307 0
M  V30 672 N 58.8031 -2.67467 -1.13622 0
M  V30 673 H 58.3501 -2.56396 -0.248734 0
M  V30 674 H 58.3081 -2.44724 -1.97377 0
M  V30 675 N 62.0802 -0.821533 -1.34494 0
M  V30 676 C 63.0302 -0.214793 -2.26986 0
M  V30 677 C 64.0142 0.620125 -1.4847 0
M  V30 678 O 65.2062 0.474933 -1.70509 0
M  V30 679 C 62.3352 0.623566 -3.37589 0
M  V30 680 C 61.4212 -0.221904 -4.23519 0
M  V30 681 N 61.8122 -1.29223 -4.89014 0
M  V30 682 C 60.1102 -0.00600922 -4.46 0
M  V30 683 C 60.8112 -1.80965 -5.52835 0
M  V30 684 N 59.7872 -1.11376 -5.32068 0
M  V30 685 H 63.5892 -1.03354 -2.75128 0
M  V30 686 H 61.1032 -0.6642 -1.48196 0
M  V30 687 H 63.1002 1.0744 -4.02818 0
M  V30 688 H 61.7602 1.44049 -2.90998 0
M  V30 689 H 62.7712 -1.67502 -4.90065 0
M  V30 690 H 59.4482 0.77886 -4.10171 0
M  V30 691 H 60.8382 -2.70502 -6.15043 0
M  V30 692 N 63.5583 1.46682 -0.576371 0
M  V30 693 C 64.8043 2.03287 -0.0679305 0
M  V30 694 C 65.1593 1.44063 1.27529 0
M  V30 695 O 64.4523 0.593973 1.82161 0
M  V30 696 C 64.6463 3.57345 0.062886 0
M  V30 697 C 64.4753 4.31509 -1.26611 0
M  V30 698 C 63.2453 4.70664 -1.83856 0
M  V30 699 C 65.4433 4.65444 -2.18783 0
M  V30 700 N 63.4253 5.29552 -3.10561 0
M  V30 701 C 64.7963 5.24835 -3.30072 0
M  V30 702 C 66.8513 4.47375 -2.18542 0
M  V30 703 C 65.5543 5.68063 -4.41244 0
M  V30 704 C 67.5803 4.91614 -3.28739 0
M  V30 705 C 66.9423 5.51071 -4.38748 0
M  V30 706 H 63.0413 0.779083 -0.0674836 0
M  V30 707 H 65.6253 1.78918 -0.767877 0
M  V30 708 H 63.7963 3.8144 0.731988 0
M  V30 709 H 65.5283 4.00592 0.575134 0
M  V30 710 H 62.2833 4.53224 -1.37424 0
M  V30 711 H 62.7073 5.63523 -3.75195 0
M  V30 712 H 67.3493 4.00747 -1.34765 0
M  V30 713 H 65.0673 6.13672 -5.25768 0
M  V30 714 H 68.6533 4.79389 -3.29662 0
M  V30 715 H 67.5333 5.84678 -5.22611 0
M  V30 716 N 65.0364 0.313813 1.54444 0
M  V30 717 C 66.2664 -0.293491 2.04505 0
M  V30 718 C 66.6744 -1.47086 1.19005 0
M  V30 719 O 66.0174 -1.82481 0.211257 0
M  V30 720 C 66.0794 -0.800455 3.50475 0
M  V30 721 C 65.7434 0.253322 4.56297 0
M  V30 722 C 66.7404 1.08612 5.08428 0
M  V30 723 C 64.4254 0.398708 5.00715 0
M  V30 724 C 66.4194 2.05013 6.0353 0
M  V30 725 C 64.1064 1.36614 5.95634 0
M  V30 726 C 65.1044 2.19033 6.46926 0
M  V30 727 O 64.7924 3.14134 7.39983 0
M  V30 728 H 64.5244 -0.0658325 0.672787 0
M  V30 729 H 67.0784 0.455177 2.00293 0
M  V30 730 H 65.3084 -1.59987 3.52053 0
M  V30 731 H 66.9974 -1.32504 3.83663 0
M  V30 732 H 67.7634 0.984736 4.74898 0
M  V30 733 H 63.6424 -0.23289 4.60411 0
M  V30 734 H 67.1864 2.69382 6.4349 0
M  V30 735 H 63.0834 1.4682 6.28581 0
M  V30 736 H 63.8514 3.0926 7.57826 0
M  V30 737 N 66.5145 -1.57545 0.0417849 0
M  V30 738 C 67.9255 -1.80011 -0.495259 0
M  V30 739 C 68.2765 -0.953199 -1.71489 0
M  V30 740 O 67.4015 -0.167138 -2.15754 0
M  V30 741 C 67.9965 -3.26482 -0.905265 0
M  V30 742 C 66.5555 -3.499 -1.38734 0
M  V30 743 C 65.7025 -2.74979 -0.358056 0
M  V30 744 H 68.6535 -1.56425 0.267736 0
M  V30 745 H 68.6745 -3.36887 -1.76882 0
M  V30 746 H 68.1865 -3.88096 -0.017401 0
M  V30 747 H 66.2875 -2.93553 -2.29471 0
M  V30 748 H 66.4005 -4.58615 -1.38598 0
M  V30 749 H 64.7645 -2.40834 -0.828912 0
M  V30 750 H 65.5475 -3.39315 0.521561 0
M  V30 751 N 67.9926 0.231505 -1.5589 0
M  V30 752 C 68.9556 1.27028 -1.90779 0
M  V30 753 C 69.9556 1.40308 -0.785507 0
M  V30 754 O 71.1456 1.38744 -1.05336 0
M  V30 755 C 68.2776 2.64566 -2.14983 0
M  V30 756 H 69.4706 0.973017 -2.83677 0
M  V30 757 H 67.0236 0.471486 -1.49019 0
M  V30 758 H 67.7586 2.99406 -1.24604 0
M  V30 759 H 67.5436 2.56305 -2.96732 0
M  V30 760 H 69.0336 3.39543 -2.43105 0
M  V30 761 N 69.4707 1.49531 0.497807 0
M  V30 762 C 70.4007 1.6935 1.60757 0
M  V30 763 C 71.3817 0.542218 1.61227 0
M  V30 764 O 72.5667 0.778417 1.77917 0
M  V30 765 C 69.6967 1.76298 2.99226 0
M  V30 766 C 68.6507 2.91248 3.13622 0
M  V30 767 C 67.9767 2.83312 4.53474 0
M  V30 768 C 69.2767 4.3214 2.93346 0
M  V30 769 H 70.9707 2.62263 1.44425 0
M  V30 770 H 68.5167 1.26208 0.693367 0
M  V30 771 H 70.4697 1.88749 3.76765 0
M  V30 772 H 69.1937 0.799871 3.16654 0
M  V30 773 H 67.8527 2.78404 2.38509 0
M  V30 774 H 67.5007 1.84902 4.67782 0
M  V30 775 H 67.2007 3.60465 4.64046 0
M  V30 776 H 68.7247 2.97775 5.33069 0
M  V30 777 H 70.1387 4.45649 3.60652 0
M  V30 778 H 68.5357 5.1054 3.15387 0
M  V30 779 H 69.6057 4.46363 1.89441 0
M  V30 780 N 70.9488 -0.749086 1.3866 0
M  V30 781 C 72.1958 -1.50833 1.35114 0
M  V30 782 C 72.5238 -1.94415 -0.0574049 0
M  V30 783 O 71.7788 -1.66065 -1.03541 0
M  V30 784 C 72.0778 -2.7712 2.25697 0
M  V30 785 C 71.7438 -2.52477 3.73585 0
M  V30 786 C 70.4058 -2.45466 4.13884 0
M  V30 787 C 72.7578 -2.31066 4.67181 0
M  V30 788 C 70.0858 -2.15064 5.45861 0
M  V30 789 C 72.4378 -2.02183 5.9942 0
M  V30 790 C 71.1018 -1.93631 6.38798 0
M  V30 791 H 70.3718 -0.551936 0.494416 0
M  V30 792 H 73.0188 -0.860979 1.71054 0
M  V30 793 H 71.3238 -3.46528 1.82827 0
M  V30 794 H 73.0208 -3.35096 2.20254 0
M  V30 795 H 69.6108 -2.58807 3.41638 0
M  V30 796 H 73.7948 -2.35459 4.3689 0
M  V30 797 H 69.0508 -2.06954 5.75308 0
M  V30 798 H 73.2248 -1.8462 6.71482 0
M  V30 799 H 70.8518 -1.69839 7.40985 0
M  V30 800 N 72.4269 -1.23603 -0.977757 0
M  V30 801 C 73.6549 -1.09646 -1.75458 0
M  V30 802 C 74.0699 0.351859 -1.85492 0
M  V30 803 O 73.4269 1.24327 -1.336 0
M  V30 804 C 73.4779 -1.71895 -3.18016 0
M  V30 805 O 73.1989 -3.11063 -3.08498 0
M  V30 806 C 74.6999 -1.63415 -4.12081 0
M  V30 807 H 71.9199 -0.38359 -0.550545 0
M  V30 808 H 74.4639 -1.63507 -1.22824 0
M  V30 809 H 72.6189 -1.22061 -3.67668 0
M  V30 810 H 73.0329 -3.41305 -3.9826 0
M  V30 811 H 74.5069 -2.11669 -5.09804 0
M  V30 812 H 74.9839 -0.593462 -4.35172 0
M  V30 813 H 75.5899 -2.12628 -3.68334 0
M  V30 814 N 73.905 1.17692 -1.04816 0
M  V30 815 C 74.855 2.1952 -0.616042 0
M  V30 816 C 75.839 1.57147 0.345485 0
M  V30 817 O 77.031 1.76245 0.163325 0
M  V30 818 C 74.16 3.43298 0.0116917 0
M  V30 819 C 73.246 4.12777 -0.973435 0
M  V30 820 N 73.637 4.5814 -2.14339 0
M  V30 821 C 71.935 4.38747 -0.80108 0
M  V30 822 C 72.636 5.11713 -2.7663 0
M  V30 823 N 71.612 5.03686 -2.04453 0
M  V30 824 H 75.414 2.52293 -1.5075 0
M  V30 825 H 72.928 1.3398 -0.917776 0
M  V30 826 H 74.925 4.15519 0.339006 0
M  V30 827 H 73.585 3.12018 0.898593 0
M  V30 828 H 74.596 4.52349 -2.52191 0
M  V30 829 H 71.273 4.17485 0.0350934 0
M  V30 830 H 72.663 5.56962 -3.75823 0
M  V30 831 N 75.3831 0.828654 1.34056 0
M  V30 832 C 76.2931 0.256725 2.33191 0
M  V30 833 C 77.3091 -0.611898 1.62886 0
M  V30 834 O 78.4851 -0.51844 1.94613 0
M  V30 835 C 75.5501 -0.567238 3.42028 0
M  V30 836 C 74.6111 0.324458 4.28072 0
M  V30 837 C 73.8441 -0.460274 5.31712 0
M  V30 838 O 74.0671 -1.693 5.44696 0
M  V30 839 O 73.0011 0.160391 6.01686 0
M  V30 840 H 76.8271 1.07739 2.83947 0
M  V30 841 H 74.4121 0.59093 1.37217 0
M  V30 842 H 76.2941 -1.03582 4.08471 0
M  V30 843 H 74.9691 -1.36513 2.93506 0
M  V30 844 H 73.8761 0.840659 3.64532 0
M  V30 845 H 75.2091 1.08685 4.8005 0
M  V30 846 N 76.8612 -1.46375 0.584142 0
M  V30 847 C 77.7912 -2.33103 -0.136037 0
M  V30 848 C 78.7722 -1.45431 -0.882255 0
M  V30 849 O 79.9572 -1.74246 -0.857434 0
M  V30 850 C 77.0872 -3.27731 -1.14933 0
M  V30 851 C 76.0412 -4.24855 -0.517862 0
M  V30 852 C 75.3672 -5.09001 -1.63773 0
M  V30 853 C 76.6672 -5.19439 0.545886 0
M  V30 854 H 78.3612 -2.93568 0.588086 0
M  V30 855 H 75.9072 -1.41166 0.284259 0
M  V30 856 H 77.8602 -3.87261 -1.66153 0
M  V30 857 H 76.5842 -2.65377 -1.90375 0
M  V30 858 H 75.2432 -3.6659 -0.0267361 0
M  V30 859 H 74.8912 -4.43031 -2.38185 0
M  V30 860 H 74.5912 -5.74777 -1.22085 0
M  V30 861 H 76.1152 -5.71396 -2.15266 0
M  V30 862 H 77.5292 -5.73177 0.118704 0
M  V30 863 H 75.9262 -5.93566 0.88317 0
M  V30 864 H 76.9962 -4.63285 1.43162 0
M  V30 865 N 78.3393 -0.321999 -1.54275 0
M  V30 866 C 79.2493 0.553631 -2.27974 0
M  V30 867 C 80.2653 1.13054 -1.32268 0
M  V30 868 O 81.4413 1.15084 -1.6528 0
M  V30 869 C 78.5063 1.69927 -3.02201 0
M  V30 870 C 77.5673 1.15433 -4.1349 0
M  V30 871 C 76.8003 2.24537 -4.84168 0
M  V30 872 O 77.0233 3.44852 -4.5435 0
M  V30 873 O 75.9573 1.90044 -5.7111 0
M  V30 874 H 79.7833 -0.0448345 -3.03667 0
M  V30 875 H 77.3683 -0.0877418 -1.49142 0
M  V30 876 H 79.2503 2.3663 -3.48689 0
M  V30 877 H 77.9253 2.28395 -2.29385 0
M  V30 878 H 76.8323 0.452436 -3.71354 0
M  V30 879 H 78.1653 0.614805 -4.88345 0
M  V30 880 N 79.8174 1.5752 -0.0501392 0
M  V30 881 C 80.7274 2.14952 0.939827 0
M  V30 882 C 81.7434 1.10706 1.34239 0
M  V30 883 O 82.9194 1.42869 1.41952 0
M  V30 884 C 79.9844 2.68232 2.19665 0
M  V30 885 C 79.0454 3.87272 1.85253 0
M  V30 886 C 78.2784 4.38002 3.04943 0
M  V30 887 O 78.5014 3.87811 4.18281 0
M  V30 888 O 77.4354 5.29602 2.86017 0
M  V30 889 H 81.2614 2.9986 0.481392 0
M  V30 890 H 78.8464 1.4841 0.171699 0
M  V30 891 H 80.7284 3.02475 2.93406 0
M  V30 892 H 79.4034 1.86395 2.64648 0
M  V30 893 H 78.3104 3.5792 1.0883 0
M  V30 894 H 79.6434 4.70336 1.4507 0
M  V30 895 N 81.2955 -0.223234 1.56011 0
M  V30 896 C 82.5725 -0.972108 1.69733 0
M  V30 897 C 82.9525 -2.02485 0.59691 0
M  V30 898 O 82.3005 -2.25037 -0.396324 0
M  V30 899 C 82.5105 -1.58407 3.10979 0
M  V30 900 C 83.8585 -2.07696 3.70334 0
M  V30 901 O 84.8825 -1.68304 3.1393 0
M  V30 902 O 83.7415 -2.80096 4.69264 0
M  V30 903 H 80.8355 -0.453993 0.691245 0
M  V30 904 H 83.3815 -0.215149 1.68331 0
M  V30 905 H 82.1535 -0.823831 3.82529 0
M  V30 906 H 81.7765 -2.40661 3.16493 0
M  V30 907 N 82.7736 -1.49793 -0.48987 0
M  V30 908 C 83.7056 -1.63413 -1.60713 0
M  V30 909 C 84.7186 -0.516329 -1.54395 0
M  V30 910 O 85.9076 -0.788812 -1.60125 0
M  V30 911 C 83.0076 -1.58516 -2.99543 0
M  V30 912 C 82.1806 -2.86016 -3.30928 0
M  V30 913 C 81.2396 -2.74018 -4.49222 0
M  V30 914 O 80.2656 -3.47964 -4.50455 0
M  V30 915 N 81.4676 -1.86309 -5.4979 0
M  V30 916 H 84.2326 -2.59777 -1.49452 0
M  V30 917 H 81.7936 -1.47022 -0.677955 0
M  V30 918 H 83.7856 -1.48128 -3.76617 0
M  V30 919 H 82.3556 -0.69965 -3.0467 0
M  V30 920 H 81.5756 -3.10672 -2.42645 0
M  V30 921 H 82.8636 -3.70521 -3.487 0
M  V30 922 H 82.2616 -1.2551 -5.51601 0
M  V30 923 H 80.8186 -1.81837 -6.25922 0
M  V30 924 N 84.2517 0.741722 -1.39055 0
M  V30 925 C 85.4977 1.50336 -1.36113 0
M  V30 926 C 85.8307 1.94148 0.0450796 0
M  V30 927 O 85.1057 1.66301 1.00868 0
M  V30 928 C 85.3887 2.74773 -2.32749 0
M  V30 929 C 85.2417 2.37023 -3.82283 0
M  V30 930 C 86.5607 3.76846 -2.27322 0
M  V30 931 H 83.6797 0.545351 -0.495743 0
M  V30 932 H 86.3217 0.848624 -1.69995 0
M  V30 933 H 84.4717 3.30639 -2.03986 0
M  V30 934 H 86.1437 1.8684 -4.21768 0
M  V30 935 H 84.3867 1.69334 -3.99385 0
M  V30 936 H 85.0577 3.26104 -4.45376 0
M  V30 937 H 87.5337 3.30548 -2.5274 0
M  V30 938 H 86.4097 4.6159 -2.97028 0
M  V30 939 H 86.6707 4.23286 -1.27599 0
M  V30 940 N 85.7298 1.2412 0.971189 0
M  V30 941 C 86.6618 0.988349 2.06795 0
M  V30 942 C 87.6748 -0.0409541 1.62748 0
M  V30 943 O 88.8638 0.195673 1.77424 0
M  V30 944 C 85.9638 0.469023 3.35639 0
M  V30 945 C 85.1368 1.56065 4.08611 0
M  V30 946 C 84.1958 1.04458 5.15728 0
M  V30 947 O 83.2218 1.73553 5.42096 0
M  V30 948 N 84.4238 -0.122817 5.8037 0
M  V30 949 H 87.1888 1.93265 2.29061 0
M  V30 950 H 84.7498 1.15102 1.13856 0
M  V30 951 H 86.7418 0.108613 4.04554 0
M  V30 952 H 85.3118 -0.380919 3.1027 0
M  V30 953 H 84.5318 2.09341 3.34021 0
M  V30 954 H 85.8198 2.29449 4.54126 0
M  V30 955 H 85.2178 -0.700563 5.61345 0
M  V30 956 H 83.7748 -0.424404 6.50417 0
M  V30 957 N 87.2079 -1.17134 1.05439 0
M  V30 958 C 88.4559 -1.87085 0.764429 0
M  V30 959 C 88.7769 -1.81584 -0.710787 0
M  V30 960 O 88.0469 -1.24349 -1.51374 0
M  V30 961 H 86.6269 -0.692627 0.279779 0
M  V30 962 H 89.2889 -1.42087 1.33406 0
M  V30 963 H 88.3849 -2.92759 1.0816 0
M  V30 964 N 88.686 -0.835752 -1.33615 0
M  V30 965 C 89.935 -0.426289 -1.97144 0
M  V30 966 C 90.248 1.01912 -1.66953 0
M  V30 967 O 91.454 1.53311 -2.24072 0
M  V30 968 C 89.91 -0.711321 -3.52801 0
M  V30 969 C 89.518 -2.1712 -3.91871 0
M  V30 970 C 91.262 -0.368654 -4.22896 0
M  V30 971 C 89.169 -2.40044 -5.40493 0
M  V30 972 H 88.099 -0.15567 -0.737755 0
M  V30 973 H 90.75 -1.0239 -1.52278 0
M  V30 974 H 89.132 -0.0433766 -3.95976 0
M  V30 975 H 90.306 -2.87936 -3.59763 0
M  V30 976 H 88.621 -2.47654 -3.34749 0
M  V30 977 H 91.218 -0.517601 -5.32189 0
M  V30 978 H 91.561 0.688078 -4.10574 0
M  V30 979 H 92.094 -0.991702 -3.8524 0
M  V30 980 H 88.833 -3.44271 -5.57815 0
M  V30 981 H 88.353 -1.73785 -5.74072 0
M  V30 982 H 90.032 -2.23042 -6.0734 0
M  V30 983 N 90.1641 1.46063 -0.591896 0
M  V30 984 C 91.0961 2.28539 0.174001 0
M  V30 985 C 92.1091 1.39047 0.846753 0
M  V30 986 O 93.2981 1.63564 0.714774 0
M  V30 987 C 90.3981 3.14347 1.26645 0
M  V30 988 C 89.5711 4.32021 0.683856 0
M  V30 989 C 88.6301 4.99157 1.66518 0
M  V30 990 O 87.6561 5.56458 1.19763 0
M  V30 991 N 88.8581 4.97005 2.99943 0
M  V30 992 H 91.6231 2.94911 -0.533633 0
M  V30 993 H 89.1841 1.56077 -0.430294 0
M  V30 994 H 91.1761 3.56125 1.92242 0
M  V30 995 H 89.7461 2.49988 1.87682 0
M  V30 996 H 88.9661 3.93915 -0.1498 0
M  V30 997 H 90.2541 5.08059 0.274567 0
M  V30 998 H 89.6521 4.51714 3.40545 0
M  V30 999 H 88.2091 5.42696 3.61004 0
M  V30 1000 N 91.6422 0.330177 1.54103 0
M  V30 1001 C 92.8912 -0.271336 1.99867 0
M  V30 1002 C 93.2042 -1.52723 1.22209 0
M  V30 1003 O 94.4102 -2.20515 1.58383 0
M  V30 1004 C 92.8662 -0.534032 3.55916 0
M  V30 1005 C 92.4742 0.705193 4.42415 0
M  V30 1006 C 94.2182 -1.09514 4.1013 0
M  V30 1007 C 92.1252 0.414035 5.89949 0
M  V30 1008 H 91.0552 -0.105166 0.74663 0
M  V30 1009 H 93.7062 0.443429 1.78062 0
M  V30 1010 H 92.0882 -1.30915 3.73734 0
M  V30 1011 H 93.2622 1.4804 4.36372 0
M  V30 1012 H 91.5772 1.18698 3.99124 0
M  V30 1013 H 94.1742 -1.3277 5.17954 0
M  V30 1014 H 94.5172 -2.04656 3.62521 0
M  V30 1015 H 95.0502 -0.381038 3.95971 0
M  V30 1016 H 91.7892 1.33481 6.41766 0
M  V30 1017 H 91.3092 -0.323336 5.98928 0
M  V30 1018 H 92.9882 0.0263105 6.46995 0
M  V30 1019 N 93.1203 -1.57491 0.0584922 0
M  V30 1020 C 94.3603 -1.94851 -0.617458 0
M  V30 1021 C 94.7243 -0.937165 -1.67575 0
M  V30 1022 O 95.9253 -1.19795 -2.40629 0
M  V30 1023 C 94.1963 -3.36955 -1.19147 0
M  V30 1024 S 95.7553 -3.96277 -1.8844 0
M  V30 1025 H 92.5733 -0.681539 -0.202547 0
M  V30 1026 H 95.1753 -1.95073 0.129176 0
M  V30 1027 H 93.8793 -4.08355 -0.409215 0
M  V30 1028 H 93.4103 -3.40245 -1.97476 0
M  V30 1029 H 95.4253 -3.82099 -3.16568 0
M  V30 1030 N 94.5984 0.214957 -1.56127 0
M  V30 1031 C 95.8464 0.936518 -1.79091 0
M  V30 1032 C 96.1674 1.84606 -0.628148 0
M  V30 1033 O 95.4374 1.92664 0.35462 0
M  V30 1034 H 94.0174 0.3488 -0.660566 0
M  V30 1035 H 96.6794 0.22523 -1.93594 0
M  V30 1036 H 95.7754 1.53943 -2.71492 0
M  V30 1037 N 96.0765 1.50051 0.48192 0
M  V30 1038 C 97.3225 1.60736 1.2366 0
M  V30 1039 C 97.6555 0.301786 1.91841 0
M  V30 1040 O 96.9305 -0.696025 1.8162 0
M  V30 1041 C 97.2135 2.78009 2.28874 0
M  V30 1042 C 97.0665 4.18416 1.65069 0
M  V30 1043 C 98.3855 2.90867 3.30279 0
M  V30 1044 H 95.5045 0.585031 0.448228 0
M  V30 1045 H 98.1465 1.82402 0.531946 0
M  V30 1046 H 96.2965 2.59667 2.88973 0
M  V30 1047 H 97.9685 4.48322 1.0865 0
M  V30 1048 H 96.2115 4.23177 0.954148 0
M  V30 1049 H 96.8825 4.96381 2.41474 0
M  V30 1050 H 99.3585 3.07623 2.80191 0
M  V30 1051 H 98.2345 3.74566 4.01238 0
M  V30 1052 H 98.4955 2.01021 3.93755 0
M  V30 1053 N 97.5546 -0.734337 1.39446 0
M  V30 1054 C 98.9656 -1.31264 1.32766 0
M  V30 1055 C 99.3166 -1.96198 -0.00767497 0
M  V30 1056 O 98.4416 -1.96346 -0.909796 0
M  V30 1057 C 99.0366 -2.38682 2.4045 0
M  V30 1058 C 97.5956 -2.92184 2.37288 0
M  V30 1059 C 96.7426 -1.6576 2.22304 0
M  V30 1060 H 99.6936 -0.531799 1.49525 0
M  V30 1061 H 99.7146 -3.19087 2.07276 0
M  V30 1062 H 99.2266 -1.91392 3.37625 0
M  V30 1063 H 97.3276 -3.43752 1.43754 0
M  V30 1064 H 97.4406 -3.45253 3.3217 0
M  V30 1065 H 95.8046 -1.9012 1.69489 0
M  V30 1066 H 96.5876 -1.20521 3.21449 0
M  V30 1067 N 99.0327 -1.24633 -0.964593 0
M  V30 1068 C 100.282 -1.08188 -1.7023 0
M  V30 1069 C 100.595 0.37873 -1.91898 0
M  V30 1070 O 101.801 0.663427 -2.6327 0
M  V30 1071 C 100.257 -1.88773 -3.06419 0
M  V30 1072 C 99.8647 -3.39263 -2.92582 0
M  V30 1073 C 101.609 -1.80867 -3.84041 0
M  V30 1074 C 99.5157 -4.1218 -4.24101 0
M  V30 1075 H 98.4457 -0.401245 -0.638372 0
M  V30 1076 H 101.097 -1.48742 -1.07462 0
M  V30 1077 H 99.4787 -1.41035 -3.70034 0
M  V30 1078 H 100.653 -3.94603 -2.37961 0
M  V30 1079 H 98.9677 -3.48154 -2.28424 0
M  V30 1080 H 101.565 -2.32646 -4.81435 0
M  V30 1081 H 101.908 -0.774543 -4.09031 0
M  V30 1082 H 102.441 -2.26301 -3.27159 0
M  V30 1083 H 99.1797 -5.15965 -4.04303 0
M  V30 1084 H 98.6997 -3.61626 -4.78526 0
M  V30 1085 H 100.379 -4.19349 -4.92702 0
M  V30 1086 N 100.511 1.16574 -1.06058 0
M  V30 1087 C 101.757 1.87324 -0.777022 0
M  V30 1088 C 102.09 1.81351 0.694645 0
M  V30 1089 O 101.365 1.22753 1.50871 0
M  V30 1090 C 101.648 3.36991 -1.26922 0
M  V30 1091 C 101.501 3.51667 -2.80447 0
M  V30 1092 C 102.82 4.3131 -0.87521 0
M  V30 1093 H 99.9388 0.680191 -0.28374 0
M  V30 1094 H 102.581 1.37036 -1.3161 0
M  V30 1095 H 100.731 3.79949 -0.81063 0
M  V30 1096 H 102.403 3.17664 -3.34495 0
M  V30 1097 H 100.646 2.93656 -3.19294 0
M  V30 1098 H 101.317 4.56766 -3.0995 0
M  V30 1099 H 103.793 3.9624 -1.27014 0
M  V30 1100 H 102.669 5.34545 -1.2471 0
M  V30 1101 H 102.93 4.41552 0.220071 0
M  V30 1102 N 101.989 0.842826 1.3317 0
M  V30 1103 C 102.919 0.294028 2.31641 0
M  V30 1104 C 103.9 -0.600401 1.59151 0
M  V30 1105 O 105.085 -0.523124 1.87022 0
M  V30 1106 C 102.215 -0.528416 3.43257 0
M  V30 1107 C 101.169 0.27056 4.27144 0
M  V30 1108 C 100.495 -0.675881 5.30411 0
M  V30 1109 C 101.795 1.48981 5.00602 0
M  V30 1110 H 103.489 1.11681 2.77791 0
M  V30 1111 H 101.035 0.538478 1.33553 0
M  V30 1112 H 102.988 -0.922674 4.11175 0
M  V30 1113 H 101.712 -1.38445 2.95805 0
M  V30 1114 H 100.371 0.646427 3.60856 0
M  V30 1115 H 100.019 -1.52842 4.79216 0
M  V30 1116 H 99.7189 -0.145374 5.8742 0
M  V30 1117 H 101.243 -1.06757 6.01195 0
M  V30 1118 H 102.657 1.16849 5.61266 0
M  V30 1119 H 101.054 1.95739 5.6728 0
M  V30 1120 H 102.124 2.25746 4.29147 0
M  V30 1121 N 103.467 -1.45747 0.599634 0
M  V30 1122 C 104.883 -1.57424 0.26264 0
M  V30 1123 C 105.083 -1.59222 -1.23493 0
M  V30 1124 O 104.139 -1.51825 -2.01756 0
M  V30 1125 C 105.452 -2.86061 0.926795 0
M  V30 1126 C 107 -2.99722 0.901967 0
M  V30 1127 C 107.475 -4.31119 1.54598 0
M  V30 1128 N 108.966 -4.37858 1.5111 0
M  V30 1129 C 109.701 -5.3818 1.97863 0
M  V30 1130 N 109.197 -6.45083 2.52666 0
M  V30 1131 N 110.99 -5.29487 1.88679 0
M  V30 1132 H 103.141 -1.42823 1.57211 0
M  V30 1133 H 105.404 -0.68235 0.658105 0
M  V30 1134 H 105.11 -2.90605 1.98095 0
M  V30 1135 H 104.984 -3.74563 0.445238 0
M  V30 1136 H 107.371 -2.9475 -0.143617 0
M  V30 1137 H 107.452 -2.12652 1.42171 0
M  V30 1138 H 107.096 -4.36849 2.59085 0
M  V30 1139 H 107.026 -5.16992 1.00132 0
M  V30 1140 H 109.517 -3.61209 1.11068 0
M  V30 1141 H 109.83 -7.17869 2.86155 0
M  V30 1142 H 108.175 -6.45856 2.56701 0
M  V30 1143 H 111.366 -4.44877 1.4561 0
M  V30 1144 H 111.539 -6.07524 2.25429 0
M  V30 1145 N 104.945 -0.338344 -1.53925 0
M  V30 1146 C 106.361 0.0137736 -1.59594 0
M  V30 1147 C 106.561 1.49186 -1.35447 0
M  V30 1148 O 105.617 2.24987 -1.14616 0
M  V30 1149 C 106.93 -0.41773 -2.97784 0
M  V30 1150 C 108.478 -0.369633 -3.1081 0
M  V30 1151 C 108.953 -0.776524 -4.51369 0
M  V30 1152 N 110.444 -0.730506 -4.57403 0
M  V30 1153 C 111.179 -1.01736 -5.64303 0
M  V30 1154 N 110.675 -1.3721 -6.79077 0
M  V30 1155 N 112.468 -0.941942 -5.54151 0
M  V30 1156 H 104.619 -1.3012 -1.67876 0
M  V30 1157 H 106.882 -0.530082 -0.78595 0
M  V30 1158 H 106.588 -1.44811 -3.20504 0
M  V30 1159 H 106.462 0.209729 -3.76616 0
M  V30 1160 H 108.849 0.651568 -2.87817 0
M  V30 1161 H 108.93 -1.03223 -2.34049 0
M  V30 1162 H 108.574 -1.79571 -4.75096 0
M  V30 1163 H 108.504 -0.0914649 -5.26521 0
M  V30 1164 H 110.995 -0.468783 -3.74981 0
M  V30 1165 H 111.308 -1.57597 -7.5656 0
M  V30 1166 H 109.653 -1.4105 -6.80536 0
M  V30 1167 H 112.844 -0.664184 -4.63364 0
M  V30 1168 H 113.017 -1.16884 -6.37371 0
M  V30 1169 N 106.423 1.57458 -0.0668435 0
M  V30 1170 C 107.669 1.93587 0.6043 0
M  V30 1171 C 108.002 0.946722 1.69561 0
M  V30 1172 O 107.277 -0.0248516 1.94484 0
M  V30 1173 C 107.56 3.40014 1.18585 0
M  V30 1174 C 107.413 4.49685 0.101529 0
M  V30 1175 C 108.732 3.87154 2.09284 0
M  V30 1176 H 105.851 0.703958 0.218202 0
M  V30 1177 H 108.493 1.89542 -0.131804 0
M  V30 1178 H 106.643 3.43592 1.81319 0
M  V30 1179 H 108.315 4.5823 -0.531279 0
M  V30 1180 H 106.558 4.30059 -0.568487 0
M  V30 1181 H 107.229 5.49266 0.54874 0
M  V30 1182 H 109.705 3.85551 1.56491 0
M  V30 1183 H 108.581 4.90231 2.46911 0
M  V30 1184 H 108.842 3.2481 2.99918 0
M  V30 1185 N 107.901 -0.206675 1.56239 0
M  V30 1186 C 108.849 -1.27571 1.94495 0
M  V30 1187 C 109.843 -1.47737 0.828862 0
M  V30 1188 O 111.049 -1.48735 1.0138 0
M  V30 1189 H 107.424 -0.428029 0.6183 0
M  V30 1190 H 109.395 -0.925961 2.8367 0
M  V30 1191 C 108.144 -2.61568 2.29079 0
M  V30 1192 H 107.467 -2.46863 3.14482 0
M  V30 1193 H 108.907 -3.35144 2.5972 0
M  V30 1194 C 107.366 -3.17695 1.12123 0
M  V30 1195 O 107.896 -3.99801 0.390153 0
M  V30 1196 N 106.102 -2.76276 0.901097 0
M  V30 1197 H 105.649 -2.09613 1.49733 0
M  V30 1198 H 105.607 -3.1417 0.120319 0
M  V30 1199 N 109.379 -1.50304 -0.473955 0
M  V30 1200 C 110.627 -1.60832 -1.22382 0
M  V30 1201 C 110.948 -0.30939 -1.9253 0
M  V30 1202 O 110.218 0.67296 -1.83978 0
M  V30 1203 H 108.798 -0.592652 -0.454723 0
M  V30 1204 H 111.46 -1.87068 -0.546968 0
M  V30 1205 H 110.556 -2.41803 -1.97327 0
M  V30 1206 N 110.857 0.726932 -1.39834 0
M  V30 1207 C 111.804 1.841 -1.39197 0
M  V30 1208 C 112.774 1.642 -0.250502 0
M  V30 1209 O 113.959 1.85494 -0.446846 0
M  V30 1210 C 111.099 3.21697 -1.24919 0
M  V30 1211 C 110.212 3.53247 -2.48678 0
M  V30 1212 C 109.347 4.80289 -2.26928 0
M  V30 1213 C 108.386 5.04707 -3.4632 0
M  V30 1214 N 107.523 6.22956 -3.23836 0
M  V30 1215 H 112.363 1.83979 -2.34427 0
M  V30 1216 H 109.9 0.898876 -1.16442 0
M  V30 1217 H 111.858 4.01137 -1.1465 0
M  V30 1218 H 110.488 3.21076 -0.333153 0
M  V30 1219 H 109.54 2.68447 -2.69519 0
M  V30 1220 H 110.852 3.67205 -3.37582 0
M  V30 1221 H 110.006 5.67725 -2.13947 0
M  V30 1222 H 108.745 4.68519 -1.35431 0
M  V30 1223 H 107.75 4.1573 -3.5979 0
M  V30 1224 H 108.975 5.18357 -4.38729 0
M  V30 1225 H 106.921 6.12459 -2.35011 0
M  V30 1226 H 106.838 6.37539 -4.063 0
M  V30 1227 H 108.106 7.1321 -3.14566 0
M  V30 1228 N 112.336 1.25143 0.95797 0
M  V30 1229 C 113.582 1.09855 1.70469 0
M  V30 1230 C 113.915 -0.360187 1.90831 0
M  V30 1231 O 113.19 -1.26568 1.47685 0
M  V30 1232 C 113.473 1.8497 3.08963 0
M  V30 1233 C 113.326 3.38652 2.96032 0
M  V30 1234 C 114.645 1.63016 4.08795 0
M  V30 1235 H 111.764 0.400465 0.618706 0
M  V30 1236 H 114.406 1.53933 1.11376 0
M  V30 1237 H 112.556 1.47505 3.59409 0
M  V30 1238 H 114.228 3.85772 2.52938 0
M  V30 1239 H 112.471 3.66534 2.32025 0
M  V30 1240 H 113.142 3.8642 3.94187 0
M  V30 1241 H 115.618 1.95625 3.67247 0
M  V30 1242 H 114.494 2.18015 5.03747 0
M  V30 1243 H 114.755 0.570692 4.38401 0
M  V30 1244 N 113.814 -1.1601 1.06675 0
M  V30 1245 C 115.061 -1.86633 0.785781 0
M  V30 1246 C 115.389 -1.81929 -0.687896 0
M  V30 1247 O 114.644 -1.23253 -1.52011 0
M  V30 1248 C 114.943 -3.35547 1.23057 0
M  V30 1249 C 114.609 -3.60448 2.70902 0
M  V30 1250 C 113.271 -3.66954 3.11285 0
M  V30 1251 C 115.623 -3.7071 3.66365 0
M  V30 1252 C 112.951 -3.81225 4.45965 0
M  V30 1253 C 115.303 -3.86503 5.00797 0
M  V30 1254 C 113.967 -3.91252 5.40813 0
M  V30 1255 H 113.237 -0.682937 0.287538 0
M  V30 1256 H 115.884 -1.37146 1.33654 0
M  V30 1257 H 114.189 -3.87193 0.59907 0
M  V30 1258 H 115.886 -3.88583 0.990163 0
M  V30 1259 H 112.476 -3.56021 2.38636 0
M  V30 1260 H 116.66 -3.64991 3.36296 0
M  V30 1261 H 111.916 -3.83155 4.76447 0
M  V30 1262 H 116.09 -3.93385 5.74649 0
M  V30 1263 H 113.717 -4.02062 6.45174 0
M  V30 1264 N 115.292 -0.849877 -1.32721 0
M  V30 1265 C 116.255 -0.296122 -2.27279 0
M  V30 1266 C 117.255 0.541458 -1.5141 0
M  V30 1267 O 118.445 0.353658 -1.70572 0
M  V30 1268 C 115.577 0.581579 -3.35902 0
M  V30 1269 H 116.77 -1.13064 -2.77771 0
M  V30 1270 H 114.323 -0.62383 -1.43311 0
M  V30 1271 H 115.058 1.43809 -2.9067 0
M  V30 1272 H 114.843 -0.0178814 -3.92096 0
M  V30 1273 H 116.333 0.961951 -4.0637 0
M  V30 1274 N 116.77 1.45427 -0.607355 0
M  V30 1275 C 117.7 2.3329 0.0989352 0
M  V30 1276 C 118.681 1.46816 0.859007 0
M  V30 1277 O 119.866 1.75588 0.829604 0
M  V30 1278 C 116.996 3.29518 1.09705 0
M  V30 1279 C 115.95 4.25626 0.450206 0
M  V30 1280 C 115.276 5.11542 1.55655 0
M  V30 1281 C 116.576 5.18505 -0.628455 0
M  V30 1282 H 118.27 2.92595 -0.634716 0
M  V30 1283 H 115.816 1.40696 -0.306681 0
M  V30 1284 H 117.769 3.89855 1.59971 0
M  V30 1285 H 116.493 2.68372 1.86129 0
M  V30 1286 H 115.152 3.66586 -0.0315886 0
M  V30 1287 H 114.8 4.46765 2.31107 0
M  V30 1288 H 114.5 5.76647 1.12925 0
M  V30 1289 H 116.024 5.74748 2.06148 0
M  V30 1290 H 117.438 5.72916 -0.209877 0
M  V30 1291 H 115.835 5.92085 -0.977489 0
M  V30 1292 H 116.905 4.60948 -1.50514 0
M  V30 1293 N 118.248 0.346503 1.53744 0
M  V30 1294 C 119.195 -0.508914 2.25119 0
M  V30 1295 C 120.165 -1.09315 1.25058 0
M  V30 1296 O 121.35 -1.12921 1.53797 0
M  V30 1297 C 118.49 -1.65246 3.02965 0
M  V30 1298 C 117.603 -1.09525 4.17886 0
M  V30 1299 C 116.738 -2.20634 4.83212 0
M  V30 1300 C 115.777 -1.62279 5.90196 0
M  V30 1301 N 114.914 -2.67143 6.49291 0
M  V30 1302 H 119.754 0.106283 2.9781 0
M  V30 1303 H 117.291 0.0642227 1.4696 0
M  V30 1304 H 119.249 -2.32574 3.4636 0
M  V30 1305 H 117.879 -2.2386 2.32565 0
M  V30 1306 H 116.931 -0.312818 3.79112 0
M  V30 1307 H 118.243 -0.628444 4.94825 0
M  V30 1308 H 117.397 -2.95821 5.29693 0
M  V30 1309 H 116.136 -2.70659 4.05703 0
M  V30 1310 H 115.141 -0.855989 5.43096 0
M  V30 1311 H 116.366 -1.13102 6.69615 0
M  V30 1312 H 114.312 -3.16417 5.74645 0
M  V30 1313 H 114.229 -2.25093 7.21713 0
M  V30 1314 H 115.497 -3.4209 7.00425 0
M  V30 1315 N 119.726 -1.57421 0.075193 0
M  V30 1316 C 121.003 -1.85029 -0.634329 0
M  V30 1317 C 121.383 -0.968305 -1.87582 0
M  V30 1318 O 120.731 -0.0354749 -2.28472 0
M  V30 1319 C 120.941 -3.35286 -0.968742 0
M  V30 1320 C 122.289 -4.02875 -1.34077 0
M  V30 1321 O 123.313 -3.40051 -1.06037 0
M  V30 1322 O 122.172 -5.13691 -1.86506 0
M  V30 1323 H 119.266 -0.7645 -0.315387 0
M  V30 1324 H 121.812 -1.69366 0.106382 0
M  V30 1325 H 120.584 -3.91203 -0.0871376 0
M  V30 1326 H 120.207 -3.56223 -1.7661 0
M  V30 1327 N 121.204 0.198386 -1.56346 0
M  V30 1328 C 122.136 1.26987 -1.90806 0
M  V30 1329 C 123.149 1.41877 -0.798419 0
M  V30 1330 O 124.338 1.42362 -1.07682 0
M  V30 1331 C 121.438 2.64246 -2.12196 0
M  V30 1332 C 120.611 2.71007 -3.43328 0
M  V30 1333 C 119.67 3.89439 -3.5387 0
M  V30 1334 O 118.696 3.76695 -4.26719 0
M  V30 1335 N 119.898 5.04752 -2.86715 0
M  V30 1336 H 122.663 0.977433 -2.83313 0
M  V30 1337 H 120.224 0.388322 -1.57174 0
M  V30 1338 H 122.216 3.41896 -2.1654 0
M  V30 1339 H 120.786 2.85992 -1.26204 0
M  V30 1340 H 120.006 1.79657 -3.50881 0
M  V30 1341 H 121.294 2.72512 -4.29668 0
M  V30 1342 H 120.692 5.18004 -2.2735 0
M  V30 1343 H 119.249 5.8036 -2.96691 0
M  V30 1344 N 122.682 1.50554 0.465978 0
M  V30 1345 C 123.922 1.63439 1.22747 0
M  V30 1346 C 124.286 0.329822 1.89146 0
M  V30 1347 O 125.487 0.334161 2.66715 0
M  V30 1348 C 123.758 2.78542 2.2394 0
M  V30 1349 S 125.317 3.11591 3.0896 0
M  V30 1350 H 122.135 0.576113 0.416672 0
M  V30 1351 H 124.737 1.88357 0.523641 0
M  V30 1352 H 123.441 3.71805 1.7375 0
M  V30 1353 H 122.972 2.55726 2.98944 0
M  V30 1354 H 124.987 2.55811 4.25176 0
M  V30 1355 N 124.16 -0.719506 1.40217 0
M  V30 1356 C 125.09 -1.8465 1.42922 0
M  V30 1357 C 126.071 -1.67599 0.29062 0
M  V30 1358 O 127.256 -1.87688 0.498677 0
M  V30 1359 C 124.386 -3.22565 1.28722 0
M  V30 1360 C 123.34 -3.54281 2.40144 0
M  V30 1361 C 122.666 -4.91298 2.11023 0
M  V30 1362 C 123.966 -3.55676 3.82481 0
M  V30 1363 H 125.66 -1.82644 2.37237 0
M  V30 1364 H 123.206 -0.877305 1.1419 0
M  V30 1365 H 125.159 -4.01095 1.29232 0
M  V30 1366 H 123.883 -3.25137 0.308811 0
M  V30 1367 H 122.542 -2.78088 2.38877 0
M  V30 1368 H 122.19 -4.90468 1.11582 0
M  V30 1369 H 121.89 -5.13485 2.8567 0
M  V30 1370 H 123.414 -5.72166 2.13209 0
M  V30 1371 H 124.828 -4.24254 3.85592 0
M  V30 1372 H 123.225 -3.89388 4.56614 0
M  V30 1373 H 124.295 -2.55144 4.12346 0
M  V30 1374 N 125.638 -1.25649 -0.95132 0
M  V30 1375 C 126.588 -1.03004 -2.03406 0
M  V30 1376 C 127.572 0.034187 -1.60864 0
M  V30 1377 O 128.764 -0.181549 -1.76066 0
M  V30 1378 C 125.893 -0.654255 -3.37008 0
M  V30 1379 C 124.979 -1.75542 -3.86065 0
M  V30 1380 N 125.37 -2.99113 -4.07879 0
M  V30 1381 C 123.668 -1.63669 -4.14884 0
M  V30 1382 C 124.369 -3.70611 -4.48356 0
M  V30 1383 N 123.345 -2.98247 -4.54477 0
M  V30 1384 H 127.147 -1.96813 -2.1827 0
M  V30 1385 H 124.661 -1.16017 -1.13639 0
M  V30 1386 H 126.658 -0.473206 -4.14206 0
M  V30 1387 H 125.318 0.276468 -3.23521 0
M  V30 1388 H 126.329 -3.35124 -3.94857 0
M  V30 1389 H 123.006 -0.775161 -4.10241 0
M  V30 1390 H 124.396 -4.76695 -4.73509 0
M  V30 1391 N 127.117 1.15442 -1.07289 0
M  V30 1392 C 128.533 1.38201 -0.798288 0
M  V30 1393 C 128.733 1.92429 0.597769 0
M  V30 1394 O 127.789 2.12962 1.3566 0
M  V30 1395 C 129.102 2.35357 -1.87156 0
M  V30 1396 C 130.65 2.49021 -1.89624 0
M  V30 1397 C 131.125 3.49468 -2.96034 0
M  V30 1398 N 132.616 3.57003 -2.95132 0
M  V30 1399 C 133.351 4.34543 -3.74112 0
M  V30 1400 N 132.847 5.15421 -4.6294 0
M  V30 1401 N 134.64 4.29625 -3.62462 0
M  V30 1402 H 126.791 0.78584 -1.97328 0
M  V30 1403 H 129.054 0.408065 -0.855679 0
M  V30 1404 H 128.76 2.02626 -2.87464 0
M  V30 1405 H 128.634 3.35129 -1.73114 0
M  V30 1406 H 131.021 2.81051 -0.899687 0
M  V30 1407 H 131.102 1.4925 -2.07745 0
M  V30 1408 H 130.746 3.18173 -3.95889 0
M  V30 1409 H 130.676 4.48992 -2.75161 0
M  V30 1410 H 133.167 2.99276 -2.30743 0
M  V30 1411 H 133.48 5.7183 -5.19837 0
M  V30 1412 H 131.825 5.14729 -4.66989 0
M  V30 1413 H 135.016 3.65505 -2.92444 0
M  V30 1414 H 135.189 4.89807 -4.24256 0
M  V30 1415 N 128.595 0.856903 1.32268 0
M  V30 1416 C 129.843 0.460474 1.96784 0
M  V30 1417 C 130.164 -0.987701 1.68135 0
M  V30 1418 O 129.434 -1.69058 0.989765 0
M  V30 1419 H 128.014 0.167289 0.728027 0
M  V30 1420 H 130.676 1.09383 1.61312 0
M  V30 1421 H 129.772 0.60739 3.06133 0
M  V30 1422 N 130.073 -1.45103 0.615059 0
M  V30 1423 C 131.319 -2.02483 0.113347 0
M  V30 1424 C 131.652 -1.48146 -1.25564 0
M  V30 1425 O 130.927 -0.659104 -1.82992 0
M  V30 1426 C 131.21 -3.60005 0.0825278 0
M  V30 1427 C 131.063 -4.2466 1.48271 0
M  V30 1428 C 132.382 -4.35972 -0.601401 0
M  V30 1429 H 129.501 -0.735764 0.0426632 0
M  V30 1430 H 132.143 -1.72868 0.788461 0
M  V30 1431 H 130.293 -3.85367 -0.492378 0
M  V30 1432 H 131.965 -4.10458 2.10527 0
M  V30 1433 H 130.208 -3.82772 2.04127 0
M  V30 1434 H 130.879 -5.336 1.41332 0
M  V30 1435 H 133.355 -4.15947 -0.112666 0
M  V30 1436 H 132.231 -5.45697 -0.592097 0
M  V30 1437 H 132.492 -4.09391 -1.66887 0
M  V30 1438 N 131.551 -0.354651 -1.53558 0
M  V30 1439 C 132.967 -0.00315426 -1.596 0
M  V30 1440 C 133.167 1.47741 -1.37021 0
M  V30 1441 O 132.223 2.23759 -1.16996 0
M  V30 1442 C 133.536 -0.44929 -2.97325 0
M  V30 1443 C 135.084 -0.402578 -3.104 0
M  V30 1444 C 135.559 -0.824355 -4.5052 0
M  V30 1445 N 137.05 -0.778979 -4.56603 0
M  V30 1446 C 137.785 -1.07715 -5.63192 0
M  V30 1447 N 137.281 -1.44405 -6.77583 0
M  V30 1448 N 139.074 -1.00066 -5.53121 0
M  V30 1449 H 131.225 -1.31893 -1.66487 0
M  V30 1450 H 133.488 -0.538388 -0.780284 0
M  V30 1451 H 133.194 -1.48202 -3.1895 0
M  V30 1452 H 133.068 0.169772 -3.76818 0
M  V30 1453 H 135.455 0.621004 -2.88492 0
M  V30 1454 H 135.536 -1.05699 -2.32941 0
M  V30 1455 H 135.18 -1.846 -4.73165 0
M  V30 1456 H 135.11 -0.147304 -5.26394 0
M  V30 1457 H 137.601 -0.508528 -3.74463 0
M  V30 1458 H 137.914 -1.65612 -7.54846 0
M  V30 1459 H 136.259 -1.4826 -6.79002 0
M  V30 1460 H 139.45 -0.713293 -4.62633 0
M  V30 1461 H 139.623 -1.23638 -6.36096 0
M  V30 1462 N 133.029 1.57378 -0.0835403 0
M  V30 1463 C 133.959 2.1641 0.87686 0
M  V30 1464 C 134.94 1.09429 1.30228 0
M  V30 1465 O 136.125 1.37516 1.37124 0
M  V30 1466 C 133.255 2.73517 2.14022 0
M  V30 1467 C 132.209 3.85769 1.85381 0
M  V30 1468 C 131.535 4.29529 3.18448 0
M  V30 1469 C 132.835 5.09486 1.14984 0
M  V30 1470 H 134.529 2.96914 0.385059 0
M  V30 1471 H 132.075 1.42823 0.18377 0
M  V30 1472 H 134.028 3.13463 2.81636 0
M  V30 1473 H 132.752 1.90252 2.65465 0
M  V30 1474 H 131.411 3.46345 1.20169 0
M  V30 1475 H 131.059 3.43169 3.67755 0
M  V30 1476 H 130.759 5.05204 3.00071 0
M  V30 1477 H 132.283 4.72099 3.8724 0
M  V30 1478 H 133.697 5.46674 1.72687 0
M  V30 1479 H 132.094 5.90515 1.06826 0
M  V30 1480 H 133.164 4.84724 0.130749 0
M  V30 1481 N 134.507 -0.190092 1.56449 0
M  V30 1482 C 135.732 -0.929864 1.85387 0
M  V30 1483 C 136.157 -1.7585 0.667704 0
M  V30 1484 O 135.515 -1.77198 -0.383459 0
M  V30 1485 C 135.563 -1.79773 3.12593 0
M  V30 1486 O 134.667 -2.89713 2.93496 0
M  V30 1487 H 134.008 -0.261574 0.610307 0
M  V30 1488 H 136.538 -0.193896 2.03679 0
M  V30 1489 H 136.548 -2.20139 3.43515 0
M  V30 1490 H 135.223 -1.18892 3.98544 0
M  V30 1491 H 133.8 -2.53065 2.73884 0
M  V30 1492 N 135.985 -1.50799 -0.457987 0
M  V30 1493 C 136.895 -1.73426 -1.57989 0
M  V30 1494 C 137.911 -0.617745 -1.62665 0
M  V30 1495 O 139.087 -0.897614 -1.80291 0
M  V30 1496 C 136.152 -1.83557 -2.94122 0
M  V30 1497 C 135.213 -3.07345 -2.99729 0
M  V30 1498 C 134.446 -3.16983 -4.29368 0
M  V30 1499 O 134.669 -2.33077 -5.20607 0
M  V30 1500 O 133.603 -4.09812 -4.40837 0
M  V30 1501 H 137.429 -2.68555 -1.41817 0
M  V30 1502 H 135.014 -1.35052 -0.638859 0
M  V30 1503 H 136.896 -1.92326 -3.74952 0
M  V30 1504 H 135.571 -0.916137 -3.10465 0
M  V30 1505 H 134.478 -3.04068 -2.1793 0
M  V30 1506 H 135.811 -3.9891 -2.88326 0
M  V30 1507 N 137.463 0.71206 -1.40597 0
M  V30 1508 C 138.41 1.82613 -1.41142 0
M  V30 1509 C 139.38 1.63925 -0.267903 0
M  V30 1510 O 140.565 1.85009 -0.466495 0
M  V30 1511 C 137.705 3.20354 -1.28324 0
M  V30 1512 C 136.818 3.50589 -2.52411 0
M  V30 1513 C 135.953 4.77855 -2.32009 0
M  V30 1514 C 134.992 5.01005 -3.51654 0
M  V30 1515 N 134.129 6.19487 -3.30425 0
M  V30 1516 H 138.969 1.81482 -2.36365 0
M  V30 1517 H 136.506 0.886475 -1.17388 0
M  V30 1518 H 138.464 3.99899 -1.18899 0
M  V30 1519 H 137.094 3.20705 -0.367189 0
M  V30 1520 H 136.146 2.65573 -2.72351 0
M  V30 1521 H 137.458 3.63604 -3.41458 0
M  V30 1522 H 136.612 5.65424 -2.19956 0
M  V30 1523 H 135.351 4.67056 -1.40392 0
M  V30 1524 H 134.356 4.1189 -3.64179 0
M  V30 1525 H 135.581 5.13674 -4.44202 0
M  V30 1526 H 133.527 6.09932 -2.41494 0
M  V30 1527 H 133.444 6.33194 -4.13039 0
M  V30 1528 H 134.712 7.09834 -3.22113 0
M  V30 1529 N 138.941 1.26152 0.944643 0
M  V30 1530 C 140.352 1.10454 1.50522 0
M  V30 1531 C 140.703 -0.31635 1.93633 0
M  V30 1532 O 139.828 -1.20746 1.79581 0
M  V30 1533 C 140.423 1.99891 2.73549 0
M  V30 1534 C 138.982 1.88348 3.25886 0
M  V30 1535 C 138.129 1.93447 1.9868 0
M  V30 1536 H 141.08 1.39292 0.760489 0
M  V30 1537 H 141.101 1.54477 3.47732 0
M  V30 1538 H 140.613 3.03297 2.42141 0
M  V30 1539 H 138.714 0.878636 3.62092 0
M  V30 1540 H 138.827 2.73696 3.93227 0
M  V30 1541 H 137.191 1.37456 2.14425 0
M  V30 1542 H 137.974 2.98476 1.69607 0
M  V30 1543 N 140.419 -1.14872 1.07899 0
M  V30 1544 C 141.647 -1.89661 0.82683 0
M  V30 1545 C 142.062 -1.78312 -0.620519 0
M  V30 1546 O 141.419 -1.13888 -1.42604 0
M  V30 1547 C 141.47 -3.39817 1.23316 0
M  V30 1548 O 141.191 -3.50845 2.62372 0
M  V30 1549 C 142.692 -4.31615 1.0111 0
M  V30 1550 H 139.912 -0.60092 0.298557 0
M  V30 1551 H 142.456 -1.4551 1.43691 0
M  V30 1552 H 140.611 -3.8161 0.667286 0
M  V30 1553 H 141.025 -4.44076 2.79101 0
M  V30 1554 H 142.499 -5.35367 1.34486 0
M  V30 1555 H 142.976 -4.39169 -0.0522168 0
M  V30 1556 H 143.582 -3.95572 1.56215 0
M  V30 1557 N 141.898 -0.863906 -1.31812 0
M  V30 1558 C 143.138 -0.47825 -1.98726 0
M  V30 1559 C 143.502 0.950397 -1.66828 0
M  V30 1560 O 144.703 1.44109 -2.26905 0
M  V30 1561 C 142.974 -0.721134 -3.50049 0
M  V30 1562 S 144.533 -0.434432 -4.36644 0
M  V30 1563 H 141.351 -0.178773 -0.688158 0
M  V30 1564 H 143.953 -1.11862 -1.60334 0
M  V30 1565 H 142.657 -1.75981 -3.70755 0
M  V30 1566 H 142.188 -0.0675315 -3.93342 0
M  V30 1567 H 144.203 0.735786 -4.90714 0
M  V30 1568 N 143.376 1.44774 -0.622745 0
M  V30 1569 C 144.623 2.02121 -0.1239 0
M  V30 1570 C 144.951 1.48915 1.25118 0
M  V30 1571 O 144.206 0.660045 1.84233 0
M  V30 1572 C 144.505 3.57364 -0.0508323 0
M  V30 1573 C 144.171 4.29787 -1.36358 0
M  V30 1574 C 142.833 4.4929 -1.72314 0
M  V30 1575 C 145.185 4.71062 -2.23048 0
M  V30 1576 C 142.513 5.07325 -2.94682 0
M  V30 1577 C 144.865 5.30452 -3.44679 0
M  V30 1578 C 143.529 5.48175 -3.80868 0
M  V30 1579 H 142.799 0.739612 -0.0453381 0
M  V30 1580 H 145.446 1.73648 -0.807389 0
M  V30 1581 H 143.751 3.85202 0.715991 0
M  V30 1582 H 145.448 3.99456 0.351533 0
M  V30 1583 H 142.038 4.14932 -1.07375 0
M  V30 1584 H 146.222 4.55715 -1.96565 0
M  V30 1585 H 141.478 5.19235 -3.22809 0
M  V30 1586 H 145.652 5.61385 -4.12092 0
M  V30 1587 H 143.279 5.92912 -4.75773 0
M  V30 1588 N 144.854 0.36279 1.53368 0
M  V30 1589 C 146.082 -0.228613 2.05633 0
M  V30 1590 C 146.497 -1.42676 1.23649 0
M  V30 1591 O 145.854 -1.80394 0.27647 0
M  V30 1592 C 145.905 -0.624845 3.56059 0
M  V30 1593 O 145.626 0.525675 4.34935 0
M  V30 1594 C 147.127 -1.27493 4.24571 0
M  V30 1595 H 144.347 -0.0407183 0.669763 0
M  V30 1596 H 146.891 0.520352 1.97769 0
M  V30 1597 H 145.046 -1.32373 3.64083 0
M  V30 1598 H 145.46 0.205969 5.24095 0
M  V30 1599 H 146.934 -1.50277 5.31151 0
M  V30 1600 H 147.411 -2.23439 3.78116 0
M  V30 1601 H 148.017 -0.617558 4.20792 0
M  V30 1602 N 146.332 -1.57332 0.0918853 0
M  V30 1603 C 147.279 -2.13847 -0.868211 0
M  V30 1604 C 148.249 -1.05618 -1.28196 0
M  V30 1605 O 149.434 -1.33387 -1.36427 0
M  V30 1606 C 146.574 -2.72062 -2.12312 0
M  V30 1607 C 145.687 -3.94514 -1.7602 0
M  V30 1608 C 144.822 -4.40903 -2.96273 0
M  V30 1609 C 143.861 -5.55953 -2.56092 0
M  V30 1610 N 142.998 -5.97209 -3.69169 0
M  V30 1611 H 147.838 -2.95575 -0.379406 0
M  V30 1612 H 145.375 -1.46048 -0.175606 0
M  V30 1613 H 147.333 -3.03931 -2.858 0
M  V30 1614 H 145.963 -1.93068 -2.58698 0
M  V30 1615 H 145.015 -3.68979 -0.925135 0
M  V30 1616 H 146.327 -4.7802 -1.42472 0
M  V30 1617 H 145.481 -4.74539 -3.78018 0
M  V30 1618 H 144.22 -3.56291 -3.33029 0
M  V30 1619 H 143.225 -5.21948 -1.72773 0
M  V30 1620 H 144.45 -6.42311 -2.20484 0
M  V30 1621 H 142.396 -5.15543 -4.05649 0
M  V30 1622 H 142.313 -6.75504 -3.39456 0
M  V30 1623 H 143.581 -6.35475 -4.51434 0
M  V30 1624 N 147.81 0.181792 -1.56548 0
M  V30 1625 C 149.035 0.920019 -1.85877 0
M  V30 1626 C 149.46 1.75494 -0.677021 0
M  V30 1627 O 148.818 1.77399 0.374056 0
M  V30 1628 C 148.866 1.78112 -3.13542 0
M  V30 1629 O 147.97 2.88152 -2.95029 0
M  V30 1630 H 147.311 0.258334 -0.611686 0
M  V30 1631 H 149.841 0.183092 -2.03779 0
M  V30 1632 H 149.851 2.18314 -3.44678 0
M  V30 1633 H 148.526 1.16777 -3.99169 0
M  V30 1634 H 147.103 2.51609 -2.75222 0
M  V30 1635 N 149.288 1.51039 0.449983 0
M  V30 1636 C 150.516 1.66869 1.2232 0
M  V30 1637 C 150.931 0.360727 1.85322 0
M  V30 1638 O 150.288 -0.659531 1.70166 0
M  V30 1639 C 150.339 2.77524 2.31652 0
M  V30 1640 O 150.06 4.03252 1.7123 0
M  V30 1641 C 151.561 3.04512 3.2216 0
M  V30 1642 H 148.781 0.560326 0.369155 0
M  V30 1643 H 151.325 1.97385 0.534719 0
M  V30 1644 H 149.48 2.49642 2.96239 0
M  V30 1645 H 149.894 4.64609 2.43389 0
M  V30 1646 H 151.368 3.85551 3.95038 0
M  V30 1647 H 151.845 2.16415 3.8218 0
M  V30 1648 H 152.451 3.34005 2.63288 0
M  V30 1649 N 150.766 -0.704594 1.40972 0
M  V30 1650 C 152.015 -1.46018 1.39146 0
M  V30 1651 C 152.328 -1.956 0.000589254 0
M  V30 1652 O 153.534 -2.71137 -0.1403 0
M  V30 1653 C 151.99 -2.63996 2.4461 0
M  V30 1654 C 151.598 -2.21238 3.89561 0
M  V30 1655 C 153.342 -3.41677 2.51907 0
M  V30 1656 C 151.249 -3.3612 4.86598 0
M  V30 1657 H 150.179 -0.548444 0.517422 0
M  V30 1658 H 152.83 -0.765784 1.66757 0
M  V30 1659 H 151.212 -3.3566 2.10115 0
M  V30 1660 H 152.386 -1.56923 4.33257 0
M  V30 1661 H 150.701 -1.56574 3.85841 0
M  V30 1662 H 153.298 -4.27182 3.2159 0
M  V30 1663 H 153.641 -3.86247 1.55303 0
M  V30 1664 H 154.174 -2.77064 2.85448 0
M  V30 1665 H 150.913 -2.96572 5.84573 0
M  V30 1666 H 150.433 -3.99315 4.47557 0
M  V30 1667 H 152.112 -4.02029 5.06934 0
M  V30 1668 N 152.244 -1.26651 -0.937939 0
M  V30 1669 C 153.469 -1.15279 -1.72411 0
M  V30 1670 C 153.894 0.287866 -1.85884 0
M  V30 1671 O 153.252 1.20855 -1.35143 0
M  V30 1672 C 153.3 -1.83028 -3.10698 0
M  V30 1673 O 152.404 -1.12128 -3.96864 0
M  V30 1674 H 151.745 -0.401504 -0.528858 0
M  V30 1675 H 154.275 -1.67531 -1.1745 0
M  V30 1676 H 154.285 -1.89981 -3.6107 0
M  V30 1677 H 152.96 -2.87833 -3.00208 0
M  V30 1678 H 151.537 -1.13173 -3.55312 0
M  V30 1679 N 153.722 1.14298 -1.08507 0
M  V30 1680 C 154.962 1.87016 -0.824894 0
M  V30 1681 C 155.326 1.81099 0.637735 0
M  V30 1682 O 156.527 2.48963 1.01345 0
M  V30 1683 C 154.798 3.31584 -1.33368 0
M  V30 1684 S 156.357 4.21903 -1.20596 0
M  V30 1685 H 153.175 0.645259 -0.2986 0
M  V30 1686 H 155.777 1.37822 -1.38656 0
M  V30 1687 H 154.481 3.33439 -2.39262 0
M  V30 1688 H 154.012 3.85836 -0.767734 0
M  V30 1689 H 156.027 4.95971 -0.150891 0
M  V30 1690 N 155.201 0.870884 1.31352 0
M  V30 1691 C 156.447 0.492314 1.97352 0
M  V30 1692 C 156.802 -0.945174 1.67583 0
M  V30 1693 O 156.095 -1.65674 0.962423 0
M  V30 1694 C 156.289 0.687157 3.50732 0
M  V30 1695 C 156.118 2.14203 3.95407 0
M  V30 1696 C 154.888 2.78382 4.21701 0
M  V30 1697 C 157.086 3.1144 4.09279 0
M  V30 1698 N 155.068 4.14611 4.52737 0
M  V30 1699 C 156.439 4.32702 4.44037 0
M  V30 1700 C 158.494 3.07418 3.91661 0
M  V30 1701 C 157.197 5.50463 4.63015 0
M  V30 1702 C 159.223 4.24438 4.11833 0
M  V30 1703 C 158.585 5.44463 4.46923 0
M  V30 1704 H 154.684 0.229206 0.747655 0
M  V30 1705 H 157.268 1.12568 1.5886 0
M  V30 1706 H 155.439 0.083384 3.8831 0
M  V30 1707 H 157.171 0.276883 4.03752 0
M  V30 1708 H 153.926 2.29326 4.14375 0
M  V30 1709 H 154.35 4.84928 4.72413 0
M  V30 1710 H 158.992 2.15732 3.6362 0
M  V30 1711 H 156.71 6.42666 4.89904 0
M  V30 1712 H 160.296 4.2278 3.99685 0
M  V30 1713 H 159.176 6.33504 4.62214 0
M  V30 1714 N 156.679 -1.44442 0.630414 0
M  V30 1715 C 157.909 -2.06115 0.141465 0
M  V30 1716 C 158.317 -1.47179 -1.1889 0
M  V30 1717 O 157.66 -0.588873 -1.74006 0
M  V30 1718 C 157.722 -3.59467 -0.0484355 0
M  V30 1719 C 157.386 -4.40864 1.20366 0
M  V30 1720 C 158.383 -4.74391 2.12719 0
M  V30 1721 C 156.068 -4.8125 1.43887 0
M  V30 1722 C 158.062 -5.47186 3.26904 0
M  V30 1723 C 155.749 -5.53795 2.5837 0
M  V30 1724 C 156.747 -5.86682 3.49705 0
M  V30 1725 O 156.435 -6.57749 4.62191 0
M  V30 1726 H 156.167 -0.671648 0.0765792 0
M  V30 1727 H 158.721 -1.86312 0.864695 0
M  V30 1728 H 156.951 -3.77758 -0.826803 0
M  V30 1729 H 158.64 -4.02909 -0.491849 0
M  V30 1730 H 159.406 -4.43728 1.95781 0
M  V30 1731 H 155.285 -4.55073 0.736853 0
M  V30 1732 H 158.829 -5.72773 3.98217 0
M  V30 1733 H 154.726 -5.83872 2.75251 0
M  V30 1734 H 155.494 -6.76217 4.61164 0
M  V30 1735 N 158.157 -0.370918 -1.53173 0
M  V30 1736 C 159.107 0.489588 -2.22681 0
M  V30 1737 C 160.091 1.04442 -1.22395 0
M  V30 1738 O 161.283 0.973578 -1.47819 0
M  V30 1739 C 158.412 1.626 -3.02351 0
M  V30 1740 C 157.498 1.08379 -4.10018 0
M  V30 1741 N 157.889 0.265004 -5.05105 0
M  V30 1742 C 156.187 1.35809 -4.2482 0
M  V30 1743 C 156.888 -0.0324755 -5.81691 0
M  V30 1744 N 155.864 0.566581 -5.40639 0
M  V30 1745 H 159.666 -0.142729 -2.93553 0
M  V30 1746 H 157.18 -0.179221 -1.61408 0
M  V30 1747 H 159.177 2.2547 -3.50669 0
M  V30 1748 H 157.837 2.26132 -2.33011 0
M  V30 1749 H 158.848 -0.0962352 -5.17811 0
M  V30 1750 H 155.525 1.9958 -3.66707 0
M  V30 1751 H 156.915 -0.69473 -6.68299 0
M  V30 1752 N 159.635 1.57281 -0.100228 0
M  V30 1753 C 160.883 1.94153 0.561157 0
M  V30 1754 C 161.204 0.983157 1.68401 0
M  V30 1755 O 160.474 0.0361132 1.95867 0
M  V30 1756 H 159.054 0.716791 0.210283 0
M  V30 1757 H 161.716 1.94202 -0.164765 0
M  V30 1758 H 160.812 2.96709 0.968008 0
M  V30 1759 N 161.113 -0.173488 1.56642 0
M  V30 1760 C 162.36 -0.890465 1.81871 0
M  V30 1761 C 162.688 -1.82339 0.67696 0
M  V30 1762 O 161.943 -1.92795 -0.335926 0
M  V30 1763 C 162.242 -1.72069 3.13252 0
M  V30 1764 C 161.908 -0.936878 4.41059 0
M  V30 1765 C 160.57 -0.720545 4.75775 0
M  V30 1766 C 162.922 -0.386919 5.19762 0
M  V30 1767 C 160.25 0.0568829 5.86672 0
M  V30 1768 C 162.602 0.37741 6.31473 0
M  V30 1769 C 161.266 0.604563 6.64757 0
M  V30 1770 H 160.536 -0.325844 0.665512 0
M  V30 1771 H 163.183 -0.155527 1.90867 0
M  V30 1772 H 161.488 -2.52496 2.99588 0
M  V30 1773 H 163.185 -2.27844 3.29982 0
M  V30 1774 H 159.775 -1.11553 4.13828 0
M  V30 1775 H 163.959 -0.541398 4.93338 0
M  V30 1776 H 159.215 0.242635 6.10918 0
M  V30 1777 H 163.389 0.810825 6.91664 0
M  V30 1778 H 161.016 1.20885 7.50527 0
M  V30 1779 N 162.591 -1.51276 -0.441967 0
M  V30 1780 C 163.819 -1.67516 -1.21434 0
M  V30 1781 C 164.234 -0.37055 -1.85128 0
M  V30 1782 O 163.591 0.650498 -1.70513 0
M  V30 1783 C 163.642 -2.78748 -2.30177 0
M  V30 1784 O 163.363 -4.04154 -1.69089 0
M  V30 1785 C 164.864 -3.06217 -3.20541 0
M  V30 1786 H 162.084 -0.562276 -0.366178 0
M  V30 1787 H 164.628 -1.97666 -0.524244 0
M  V30 1788 H 162.783 -2.5121 -2.94911 0
M  V30 1789 H 163.197 -4.65894 -2.40922 0
M  V30 1790 H 164.671 -3.8764 -3.92987 0
M  V30 1791 H 165.148 -2.18439 -3.81026 0
M  V30 1792 H 165.754 -3.35397 -2.61513 0
M  V30 1793 N 164.069 0.697108 -1.41344 0
M  V30 1794 C 165.316 1.45714 -1.40619 0
M  V30 1795 C 165.644 1.94494 -0.0147907 0
M  V30 1796 O 164.899 1.69794 0.973066 0
M  V30 1797 C 165.198 2.68553 -2.35826 0
M  V30 1798 C 164.864 2.38438 -3.82698 0
M  V30 1799 C 163.526 2.29936 -4.22709 0
M  V30 1800 C 165.878 2.13567 -4.75435 0
M  V30 1801 C 163.206 1.94656 -5.53467 0
M  V30 1802 C 165.558 1.79797 -6.06511 0
M  V30 1803 C 164.222 1.69789 -6.45545 0
M  V30 1804 H 163.492 0.533206 -0.51456 0
M  V30 1805 H 166.139 0.796901 -1.74131 0
M  V30 1806 H 164.444 3.39503 -1.95563 0
M  V30 1807 H 166.141 3.2669 -2.32539 0
M  V30 1808 H 162.731 2.4595 -3.51008 0
M  V30 1809 H 166.915 2.19082 -4.45328 0
M  V30 1810 H 162.171 1.8546 -5.82593 0
M  V30 1811 H 166.345 1.59572 -6.77872 0
M  V30 1812 H 163.972 1.4222 -7.46778 0
M  V30 1813 N 165.547 1.27147 0.931209 0
M  V30 1814 C 166.824 1.0401 1.65654 0
M  V30 1815 C 167.204 -0.426297 2.06751 0
M  V30 1816 O 166.552 -1.40879 1.79904 0
M  V30 1817 C 166.762 1.99834 2.86125 0
M  V30 1818 C 168.11 2.29007 3.57549 0
M  V30 1819 O 169.134 1.97779 2.96246 0
M  V30 1820 O 167.993 2.82222 4.67989 0
M  V30 1821 H 165.087 0.396239 0.725895 0
M  V30 1822 H 167.633 1.38397 0.982056 0
M  V30 1823 H 166.405 2.98744 2.52721 0
M  V30 1824 H 166.028 1.65987 3.61295 0
M  V30 1825 N 167.025 -1.13721 1.09112 0
M  V30 1826 C 167.955 -2.21148 0.749385 0
M  V30 1827 C 168.936 -1.6792 -0.271475 0
M  V30 1828 O 170.121 -1.93693 -0.140251 0
M  V30 1829 C 167.251 -3.46905 0.165659 0
M  V30 1830 C 166.205 -4.13203 1.11567 0
M  V30 1831 C 165.531 -5.33248 0.393809 0
M  V30 1832 C 166.831 -4.60912 2.45678 0
M  V30 1833 H 168.525 -2.4999 1.64758 0
M  V30 1834 H 166.071 -1.20156 0.793626 0
M  V30 1835 H 168.024 -4.21313 -0.085466 0
M  V30 1836 H 166.748 -3.17449 -0.767714 0
M  V30 1837 H 165.407 -3.40758 1.35202 0
M  V30 1838 H 165.055 -5.00054 -0.543599 0
M  V30 1839 H 164.755 -5.78552 1.02721 0
M  V30 1840 H 166.279 -6.10413 0.150908 0
M  V30 1841 H 167.693 -5.26759 2.26269 0
M  V30 1842 H 166.09 -5.16944 3.04776 0
M  V30 1843 H 167.16 -3.75603 3.06677 0
M  V30 1844 N 168.503 -0.877838 -1.30888 0
M  V30 1845 C 169.413 -0.343096 -2.32078 0
M  V30 1846 C 170.429 0.551022 -1.65045 0
M  V30 1847 O 171.605 0.445854 -1.96403 0
M  V30 1848 C 168.67 0.439905 -3.43898 0
M  V30 1849 C 167.731 -0.483111 -4.26573 0
M  V30 1850 C 166.964 0.262616 -5.33053 0
M  V30 1851 O 167.187 1.48967 -5.50604 0
M  V30 1852 O 166.121 -0.383593 -6.00676 0
M  V30 1853 H 169.947 -1.18203 -2.79753 0
M  V30 1854 H 167.532 -0.64145 -1.34929 0
M  V30 1855 H 169.414 0.883504 -4.12034 0
M  V30 1856 H 168.089 1.25526 -2.98371 0
M  V30 1857 H 166.996 -0.975374 -3.61161 0
M  V30 1858 H 168.329 -1.26427 -4.75686 0
M  V30 1859 N 169.982 1.44106 -0.638065 0
M  V30 1860 C 171.21 2.06336 -0.152615 0
M  V30 1861 C 171.625 1.47731 1.17563 0
M  V30 1862 O 170.982 0.602806 1.72257 0
M  V30 1863 C 171.033 3.61479 -0.0391491 0
M  V30 1864 O 170.754 4.17903 -1.31487 0
M  V30 1865 C 172.255 4.40757 0.474176 0
M  V30 1866 H 169.475 0.665862 -0.0828776 0
M  V30 1867 H 172.019 1.84862 -0.87443 0
M  V30 1868 H 170.174 3.82191 0.633142 0
M  V30 1869 H 170.588 5.11416 -1.16421 0
M  V30 1870 H 172.062 5.49707 0.502562 0
M  V30 1871 H 172.539 4.12697 1.50258 0
M  V30 1872 H 173.145 4.24979 -0.165102 0
M  V30 1873 N 171.46 0.379036 1.52974 0
M  V30 1874 C 172.708 -0.206014 2.01047 0
M  V30 1875 C 173.029 -1.48175 1.26765 0
M  V30 1876 O 172.299 -1.92085 0.384743 0
M  V30 1877 H 170.879 -0.0791184 0.742798 0
M  V30 1878 H 173.541 0.508366 1.88153 0
M  V30 1879 H 172.637 -0.423501 3.09213 0
M  V30 1880 N 172.938 -1.57226 0.108567 0
M  V30 1881 C 173.885 -2.14756 -0.845481 0
M  V30 1882 C 174.855 -1.06971 -1.27068 0
M  V30 1883 O 176.04 -1.34827 -1.35005 0
M  V30 1884 C 173.18 -2.74298 -2.09415 0
M  V30 1885 C 172.293 -3.96358 -1.71826 0
M  V30 1886 C 171.428 -4.44021 -2.9158 0
M  V30 1887 C 170.467 -5.58637 -2.50181 0
M  V30 1888 N 169.604 -6.01091 -3.62814 0
M  V30 1889 H 174.444 -2.95961 -0.348035 0
M  V30 1890 H 171.981 -1.46226 -0.160106 0
M  V30 1891 H 173.939 -3.06945 -2.82561 0
M  V30 1892 H 172.569 -1.95801 -2.56636 0
M  V30 1893 H 171.621 -3.69939 -0.885947 0
M  V30 1894 H 172.933 -4.79504 -1.37394 0
M  V30 1895 H 172.087 -4.78522 -3.72963 0
M  V30 1896 H 170.826 -3.59803 -3.29231 0
M  V30 1897 H 169.831 -5.23751 -1.67228 0
M  V30 1898 H 171.056 -6.44613 -2.13659 0
M  V30 1899 H 169.002 -5.19817 -4.00158 0
M  V30 1900 H 168.919 -6.79066 -3.32273 0
M  V30 1901 H 170.187 -6.40227 -4.44668 0
M  V30 1902 N 174.416 0.165178 -1.56732 0
M  V30 1903 C 175.346 1.20651 -1.99914 0
M  V30 1904 C 176.327 1.45827 -0.875705 0
M  V30 1905 O 177.512 1.57057 -1.14223 0
M  V30 1906 C 174.642 2.54401 -2.36427 0
M  V30 1907 C 173.596 2.43782 -3.51787 0
M  V30 1908 C 172.922 3.82078 -3.7406 0
M  V30 1909 C 174.222 1.93732 -4.85041 0
M  V30 1910 H 175.916 0.847534 -2.87154 0
M  V30 1911 H 173.462 0.40625 -1.38151 0
M  V30 1912 H 175.415 3.27458 -2.65234 0
M  V30 1913 H 174.139 2.92098 -1.46103 0
M  V30 1914 H 172.798 1.73178 -3.23117 0
M  V30 1915 H 172.446 4.17179 -2.81017 0
M  V30 1916 H 172.146 3.7584 -4.51684 0
M  V30 1917 H 173.67 4.56712 -4.05274 0
M  V30 1918 H 175.084 2.56569 -5.12684 0
M  V30 1919 H 173.481 1.98428 -5.66345 0
M  V30 1920 H 174.551 0.891962 -4.76626 0
M  V30 1921 N 175.894 1.51508 0.433938 0
M  V30 1922 C 177.14 1.64588 1.18484 0
M  V30 1923 C 177.473 0.362666 1.90784 0
M  V30 1924 O 176.748 -0.637892 1.83742 0
M  V30 1925 C 177.031 2.85149 2.19913 0
M  V30 1926 C 176.884 4.23456 1.51674 0
M  V30 1927 C 178.203 3.01227 3.20858 0
M  V30 1928 H 175.322 0.598994 0.429389 0
M  V30 1929 H 177.964 1.84002 0.473647 0
M  V30 1930 H 176.114 2.68729 2.80566 0
M  V30 1931 H 177.786 4.51552 0.943322 0
M  V30 1932 H 176.029 4.25998 0.819035 0
M  V30 1933 H 176.7 5.03812 2.2556 0
M  V30 1934 H 179.176 3.16382 2.70263 0
M  V30 1935 H 178.052 3.87141 3.89118 0
M  V30 1936 H 178.313 2.13447 3.8716 0
M  V30 1937 N 177.372 -0.689602 1.41712 0
M  V30 1938 C 178.6 -1.47827 1.44758 0
M  V30 1939 C 179.015 -1.88721 0.0545703 0
M  V30 1940 O 178.372 -1.57176 -0.927463 0
M  V30 1941 C 178.423 -2.73698 2.3616 0
M  V30 1942 O 178.144 -2.34524 3.7004 0
M  V30 1943 C 179.645 -3.67389 2.48072 0
M  V30 1944 H 176.865 -0.455357 0.49284 0
M  V30 1945 H 179.409 -0.848574 1.86063 0
M  V30 1946 H 177.564 -3.32891 1.98148 0
M  V30 1947 H 177.978 -3.15701 4.18847 0
M  V30 1948 H 179.452 -4.52475 3.16181 0
M  V30 1949 H 179.929 -4.12284 1.51388 0
M  V30 1950 H 180.535 -3.14097 2.86746 0
M  V30 1951 N 178.85 -1.27639 -0.924453 0
M  V30 1952 C 180.099 -1.13549 -1.66702 0
M  V30 1953 C 180.412 0.317487 -1.93006 0
M  V30 1954 O 181.618 0.579333 -2.65247 0
M  V30 1955 C 180.074 -1.98426 -3.00259 0
M  V30 1956 C 179.682 -3.484 -2.81641 0
M  V30 1957 C 181.426 -1.92993 -3.78092 0
M  V30 1958 C 179.333 -4.25464 -4.10773 0
M  V30 1959 H 178.263 -0.421351 -0.625283 0
M  V30 1960 H 180.914 -1.52085 -1.02676 0
M  V30 1961 H 179.296 -1.52736 -3.6536 0
M  V30 1962 H 180.47 -4.01973 -2.25287 0
M  V30 1963 H 178.785 -3.55245 -2.17232 0
M  V30 1964 H 181.382 -2.47844 -4.7379 0
M  V30 1965 H 181.725 -0.904281 -4.0636 0
M  V30 1966 H 182.258 -2.36595 -3.19793 0
M  V30 1967 H 178.997 -5.28566 -3.87683 0
M  V30 1968 H 178.517 -3.76667 -4.66779 0
M  V30 1969 H 180.196 -4.34812 -4.79111 0
M  V30 1970 N 180.328 1.1314 -1.09713 0
M  V30 1971 C 181.574 1.84757 -0.836224 0
M  V30 1972 C 181.907 1.8347 0.636598 0
M  V30 1973 O 181.182 1.27491 1.46889 0
M  V30 1974 C 181.465 3.32782 -1.37578 0
M  V30 1975 C 181.318 3.42567 -2.91493 0
M  V30 1976 C 182.637 4.28307 -1.01198 0
M  V30 1977 H 179.756 0.67082 -0.305236 0
M  V30 1978 H 182.398 1.3278 -1.35903 0
M  V30 1979 H 180.548 3.77177 -0.931097 0
M  V30 1980 H 182.22 3.06862 -3.44432 0
M  V30 1981 H 180.463 2.83349 -3.28475 0
M  V30 1982 H 181.134 4.46674 -3.24324 0
M  V30 1983 H 183.61 3.91999 -1.39556 0
M  V30 1984 H 182.486 5.30307 -1.41653 0
M  V30 1985 H 182.747 4.42029 0.0794833 0
M  V30 1986 N 181.806 0.884767 1.30421 0
M  V30 1987 C 182.769 0.356277 2.26414 0
M  V30 1988 C 183.769 -0.501124 1.52792 0
M  V30 1989 O 184.959 -0.30831 1.7145 0
M  V30 1990 C 182.091 -0.492316 3.37326 0
M  V30 1991 H 183.284 1.20389 2.74675 0
M  V30 1992 H 180.837 0.661607 1.41607 0
M  V30 1993 H 181.572 -1.36052 2.94381 0
M  V30 1994 H 181.357 0.121832 3.91911 0
M  V30 1995 H 182.847 -0.853871 4.08777 0
M  V30 1996 N 183.284 -1.43765 0.645699 0
M  V30 1997 C 184.232 -2.32516 -0.0624849 0
M  V30 1998 C 185.226 -1.48183 -0.820855 0
M  V30 1999 O 186.432 -1.64439 -0.732106 0
M  V30 2000 H 182.807 -0.750989 -0.0389864 0
M  V30 2001 H 184.778 -2.89979 0.703892 0
M  V30 2002 C 183.527 -3.32389 -1.02044 0
M  V30 2003 H 182.85 -3.97301 -0.446312 0
M  V30 2004 H 184.29 -3.97138 -1.48517 0
M  V30 2005 C 182.749 -2.62416 -2.11281 0
M  V30 2006 O 183.279 -2.434 -3.19561 0
M  V30 2007 N 181.485 -2.21913 -1.87624 0
M  V30 2008 H 181.032 -2.37578 -0.995703 0
M  V30 2009 H 180.99 -1.75424 -2.6091 0
M  V30 2010 N 184.763 -0.387143 -1.52771 0
M  V30 2011 C 186.174 0.0873634 -1.86495 0
M  V30 2012 C 186.525 1.46336 -1.30691 0
M  V30 2013 O 185.65 2.068 -0.637409 0
M  V30 2014 C 186.245 0.165305 -3.38396 0
M  V30 2015 C 184.804 0.584101 -3.7184 0
M  V30 2016 C 183.951 -0.255279 -2.76122 0
M  V30 2017 H 186.902 -0.605104 -1.46711 0
M  V30 2018 H 186.923 0.984848 -3.67534 0
M  V30 2019 H 186.435 -0.836301 -3.78982 0
M  V30 2020 H 184.536 1.59315 -3.36823 0
M  V30 2021 H 184.649 0.343749 -4.77865 0
M  V30 2022 H 183.013 0.279126 -2.53166 0
M  V30 2023 H 183.796 -1.25482 -3.19545 0
M  V30 2024 N 186.241 1.57166 -0.116904 0
M  V30 2025 C 187.151 2.18745 0.847812 0
M  V30 2026 C 188.167 1.163 1.29423 0
M  V30 2027 O 189.343 1.48761 1.35765 0
M  V30 2028 C 186.408 2.77307 2.0809 0
M  V30 2029 C 185.469 3.94781 1.68661 0
M  V30 2030 C 184.702 4.50541 2.86091 0
M  V30 2031 O 184.925 4.05202 4.01456 0
M  V30 2032 O 183.859 5.41256 2.63298 0
M  V30 2033 H 187.685 3.01632 0.353778 0
M  V30 2034 H 185.27 1.49005 0.108599 0
M  V30 2035 H 187.152 3.14647 2.80313 0
M  V30 2036 H 185.827 1.97452 2.56504 0
M  V30 2037 H 184.734 3.62214 0.935518 0
M  V30 2038 H 186.067 4.76065 1.24991 0
M  V30 2039 N 187.719 -0.156864 1.56817 0
M  V30 2040 C 188.996 -0.899244 1.73704 0
M  V30 2041 C 189.376 -1.99771 0.682254 0
M  V30 2042 O 188.724 -2.26515 -0.300522 0
M  V30 2043 C 188.934 -1.45075 3.17418 0
M  V30 2044 C 190.282 -1.91802 3.7881 0
M  V30 2045 O 191.306 -1.54838 3.20786 0
M  V30 2046 O 190.165 -2.5994 4.80722 0
M  V30 2047 H 187.259 -0.424267 0.709878 0
M  V30 2048 H 189.805 -0.143561 1.69092 0
M  V30 2049 H 188.577 -0.660846 3.85679 0
M  V30 2050 H 188.2 -2.27021 3.26416 0
M  V30 2051 N 189.197 -1.51736 -0.425897 0
M  V30 2052 C 190.144 -1.73875 -1.51776 0
M  V30 2053 C 191.114 -0.580702 -1.55618 0
M  V30 2054 O 192.299 -0.81641 -1.72451 0
M  V30 2055 C 189.439 -1.88012 -2.89388 0
M  V30 2056 C 188.552 -3.15606 -2.94986 0
M  V30 2057 C 187.687 -3.20271 -4.23793 0
M  V30 2058 C 186.726 -4.42134 -4.23302 0
M  V30 2059 N 185.863 -4.44284 -5.43651 0
M  V30 2060 H 190.703 -2.67071 -1.32201 0
M  V30 2061 H 188.24 -1.32351 -0.642008 0
M  V30 2062 H 190.198 -1.9419 -3.69251 0
M  V30 2063 H 188.828 -0.98213 -3.07496 0
M  V30 2064 H 187.88 -3.18681 -2.07717 0
M  V30 2065 H 189.192 -4.05486 -2.90486 0
M  V30 2066 H 188.346 -3.25428 -5.12036 0
M  V30 2067 H 187.085 -2.28299 -4.30965 0
M  V30 2068 H 186.09 -4.3714 -3.3345 0
M  V30 2069 H 187.315 -5.35382 -4.17783 0
M  V30 2070 H 185.261 -3.55188 -5.51523 0
M  V30 2071 H 185.178 -5.27988 -5.41078 0
M  V30 2072 H 186.446 -4.53649 -6.33895 0
M  V30 2073 N 190.675 0.682077 -1.42076 0
M  V30 2074 C 191.605 1.80796 -1.47767 0
M  V30 2075 C 192.586 1.6677 -0.334954 0
M  V30 2076 O 193.771 1.863 -0.548264 0
M  V30 2077 C 190.901 3.19038 -1.37229 0
M  V30 2078 C 189.855 3.47789 -2.49453 0
M  V30 2079 C 189.181 4.8553 -2.23975 0
M  V30 2080 C 190.481 3.45411 -3.91776 0
M  V30 2081 H 192.175 1.7629 -2.41997 0
M  V30 2082 H 189.721 0.846721 -1.16476 0
M  V30 2083 H 191.674 3.97528 -1.39821 0
M  V30 2084 H 190.398 3.24204 -0.394907 0
M  V30 2085 H 189.057 2.71657 -2.46166 0
M  V30 2086 H 188.705 4.87337 -1.24547 0
M  V30 2087 H 188.405 5.0573 -2.99184 0
M  V30 2088 H 189.929 5.66312 -2.28304 0
M  V30 2089 H 191.343 4.13882 -3.96705 0
M  V30 2090 H 189.74 3.77145 -4.66778 0
M  V30 2091 H 190.81 2.44122 -4.18966 0
M  V30 2092 N 192.153 1.28127 0.917671 0
M  V30 2093 C 193.402 1.14432 1.66097 0
M  V30 2094 C 193.715 -0.307247 1.93172 0
M  V30 2095 O 194.921 -0.565259 2.65551 0
M  V30 2096 C 193.377 2.00015 2.99202 0
M  V30 2097 C 192.985 3.49889 2.79789 0
M  V30 2098 C 194.729 1.94996 3.77064 0
M  V30 2099 C 192.636 4.27636 4.08511 0
M  V30 2100 H 191.566 0.424662 0.62304 0
M  V30 2101 H 194.217 1.52628 1.01868 0
M  V30 2102 H 192.599 1.54672 3.64544 0
M  V30 2103 H 193.773 4.03162 2.23152 0
M  V30 2104 H 192.088 3.56392 2.15345 0
M  V30 2105 H 194.685 2.50354 4.72469 0
M  V30 2106 H 195.028 0.925819 4.05875 0
M  V30 2107 H 195.561 2.38287 3.18534 0
M  V30 2108 H 192.3 5.30615 3.84874 0
M  V30 2109 H 191.82 3.79137 4.64774 0
M  V30 2110 H 193.499 4.37346 4.76799 0
M  V30 2111 N 193.631 -1.12557 1.10312 0
M  V30 2112 C 194.879 -1.83675 0.843091 0
M  V30 2113 C 195.2 -1.84435 -0.633131 0
M  V30 2114 O 194.47 -1.30657 -1.45964 0
M  V30 2115 H 193.05 -0.680138 0.308904 0
M  V30 2116 H 195.712 -1.36301 1.39313 0
M  V30 2117 H 194.808 -2.87908 1.2048 0
M  V30 2118 N 195.109 -0.891671 -1.2995 0
M  V30 2119 C 196.337 -0.52866 -2.00032 0
M  V30 2120 C 196.752 0.884574 -1.66795 0
M  V30 2121 O 196.109 1.5827 -0.908669 0
M  V30 2122 C 196.16 -0.701814 -3.54622 0
M  V30 2123 O 195.881 -2.05942 -3.86678 0
M  V30 2124 C 197.382 -0.342683 -4.41973 0
M  V30 2125 H 194.602 -0.203659 -0.639347 0
M  V30 2126 H 197.146 -1.19881 -1.65677 0
M  V30 2127 H 195.301 -0.0789468 -3.8732 0
M  V30 2128 H 195.715 -2.08291 -4.81368 0
M  V30 2129 H 197.189 -0.514709 -5.49595 0
M  V30 2130 H 197.666 0.71975 -4.33262 0
M  V30 2131 H 198.272 -0.942154 -4.14733 0
M  V30 2132 N 196.587 1.43421 -0.653314 0
M  V30 2133 C 197.815 2.06163 -0.174491 0
M  V30 2134 C 198.23 1.48969 1.1599 0
M  V30 2135 O 197.587 0.621042 1.71608 0
M  V30 2136 C 197.638 3.61417 -0.0774865 0
M  V30 2137 O 197.359 4.16485 -1.35912 0
M  V30 2138 C 198.86 4.41235 0.427402 0
M  V30 2139 H 196.08 0.664946 -0.0899353 0
M  V30 2140 H 198.624 1.83924 -0.893988 0
M  V30 2141 H 196.779 3.82841 0.59257 0
M  V30 2142 H 197.193 5.10153 -1.21839 0
M  V30 2143 H 198.667 5.5021 0.44423 0
M  V30 2144 H 199.144 4.14268 1.45873 0
M  V30 2145 H 199.75 4.2478 -0.210167 0
M  V30 2146 N 198.065 0.39524 1.52563 0
M  V30 2147 C 199.313 -0.184678 2.01254 0
M  V30 2148 C 199.634 -1.46822 1.28329 0
M  V30 2149 O 198.904 -1.91666 0.405094 0
M  V30 2150 H 197.484 -0.0712355 0.743596 0
M  V30 2151 H 200.146 0.528293 1.87603 0
M  V30 2152 H 199.242 -0.390681 3.09645 0
M  V30 2153 N 199.544 -1.57102 0.125237 0
M  V30 2154 C 200.79 -1.95697 -0.532035 0
M  V30 2155 C 201.123 -1.009 -1.6593 0
M  V30 2156 O 200.398 -0.047347 -1.94442 0
M  V30 2157 C 200.681 -3.44181 -1.05884 0
M  V30 2158 C 200.534 -4.49752 0.0654392 0
M  V30 2159 C 201.853 -3.94655 -1.9477 0
M  V30 2160 H 198.972 -0.711571 -0.191925 0
M  V30 2161 H 201.614 -1.88923 0.20206 0
M  V30 2162 H 199.764 -3.50085 -1.68442 0
M  V30 2163 H 201.436 -4.55943 0.700982 0
M  V30 2164 H 199.679 -4.27653 0.727709 0
M  V30 2165 H 200.35 -5.50924 -0.344505 0
M  V30 2166 H 202.826 -3.91094 -1.42074 0
M  V30 2167 H 201.702 -4.99057 -2.28546 0
M  V30 2168 H 201.963 -3.35718 -2.87656 0
M  V30 2169 N 201.022 0.148545 -1.56898 0
M  V30 2170 C 202.25 0.876389 -1.87422 0
M  V30 2171 C 202.665 1.74809 -0.713256 0
M  V30 2172 O 202.022 1.79725 0.317025 0
M  V30 2173 C 202.073 1.73438 -3.17178 0
M  V30 2174 O 201.794 0.897809 -4.28802 0
M  V30 2175 C 203.295 2.56993 -3.61205 0
M  V30 2176 H 200.515 0.253489 -0.621277 0
M  V30 2177 H 203.059 0.141798 -2.04008 0
M  V30 2178 H 201.214 2.42205 -3.0235 0
M  V30 2179 H 201.628 1.48672 -5.02988 0
M  V30 2180 H 203.102 3.12773 -4.54838 0
M  V30 2181 H 203.579 3.32958 -2.86419 0
M  V30 2182 H 204.185 1.9352 -3.78722 0
M  V30 2183 N 202.5 1.5196 0.417844 0
M  V30 2184 C 203.728 1.69426 1.18753 0
M  V30 2185 C 204.143 0.399955 1.84515 0
M  V30 2186 O 203.5 -0.623288 1.71527 0
M  V30 2187 C 203.551 2.82375 2.25714 0
M  V30 2188 O 203.272 4.06793 1.62638 0
M  V30 2189 C 204.773 3.11277 3.15628 0
M  V30 2190 H 201.993 0.568031 0.357186 0
M  V30 2191 H 204.537 1.98475 0.49273 0
M  V30 2192 H 202.692 2.5587 2.90877 0
M  V30 2193 H 203.106 4.69667 2.3348 0
M  V30 2194 H 204.58 3.93843 3.86771 0
M  V30 2195 H 205.057 2.24473 3.77503 0
M  V30 2196 H 205.663 3.39515 2.56144 0
M  V30 2197 N 203.978 -0.674533 1.42435 0
M  V30 2198 C 205.208 -1.46071 1.46105 0
M  V30 2199 C 205.616 -1.89067 0.0709605 0
M  V30 2200 O 204.959 -1.58731 -0.924677 0
M  V30 2201 C 205.021 -2.74145 2.32561 0
M  V30 2202 C 204.685 -2.53224 3.8043 0
M  V30 2203 C 205.682 -2.17809 4.72075 0
M  V30 2204 C 203.367 -2.6821 4.24698 0
M  V30 2205 C 205.361 -1.97648 6.05982 0
M  V30 2206 C 203.048 -2.47665 5.58664 0
M  V30 2207 C 204.046 -2.12437 6.49122 0
M  V30 2208 O 203.734 -1.9209 7.80613 0
M  V30 2209 H 203.466 -0.455959 0.499076 0
M  V30 2210 H 206.02 -0.836193 1.87609 0
M  V30 2211 H 204.25 -3.3908 1.85908 0
M  V30 2212 H 205.939 -3.36028 2.27683 0
M  V30 2213 H 206.705 -2.05826 4.39159 0
M  V30 2214 H 202.584 -2.94609 3.54579 0
M  V30 2215 H 206.128 -1.70075 6.7655 0
M  V30 2216 H 202.025 -2.59244 5.91154 0
M  V30 2217 H 202.793 -2.06686 7.91974 0
M  V30 2218 N 205.456 -1.28612 -0.910864 0
M  V30 2219 C 206.867 -1.14406 -1.47541 0
M  V30 2220 C 207.218 0.264901 -1.94403 0
M  V30 2221 O 206.343 1.15942 -1.82719 0
M  V30 2222 C 206.938 -2.07073 -2.68153 0
M  V30 2223 C 205.497 -1.96923 -3.20778 0
M  V30 2224 C 204.644 -1.98646 -1.93481 0
M  V30 2225 H 207.595 -1.41259 -0.723291 0
M  V30 2226 H 207.616 -1.63642 -3.43514 0
M  V30 2227 H 207.128 -3.09611 -2.34015 0
M  V30 2228 H 205.229 -0.97433 -3.59635 0
M  V30 2229 H 205.342 -2.84026 -3.85832 0
M  V30 2230 H 203.706 -1.43093 -2.10705 0
M  V30 2231 H 204.489 -3.02868 -1.61634 0
M  V30 2232 N 206.934 1.1197 -1.10907 0
M  V30 2233 C 208.18 1.8386 -0.855773 0
M  V30 2234 C 208.513 1.84134 0.617103 0
M  V30 2235 O 207.788 1.29041 1.45529 0
M  V30 2236 C 208.071 3.31305 -1.411 0
M  V30 2237 C 207.924 3.39456 -2.9511 0
M  V30 2238 C 209.243 4.2721 -1.05736 0
M  V30 2239 H 206.362 0.667545 -0.312334 0
M  V30 2240 H 209.004 1.31331 -1.37303 0
M  V30 2241 H 207.154 3.76169 -0.97105 0
M  V30 2242 H 208.826 3.03191 -3.47668 0
M  V30 2243 H 207.069 2.79849 -3.31462 0
M  V30 2244 H 207.74 4.43209 -3.29044 0
M  V30 2245 H 210.216 3.90497 -1.43706 0
M  V30 2246 H 209.092 5.28775 -1.47269 0
M  V30 2247 H 209.353 4.42088 0.0325958 0
M  V30 2248 N 208.412 0.89855 1.29475 0
M  V30 2249 C 209.362 0.346767 2.25348 0
M  V30 2250 C 210.346 -0.532509 1.51833 0
M  V30 2251 O 211.538 -0.374714 1.72988 0
M  V30 2252 C 208.667 -0.425681 3.40651 0
M  V30 2253 C 207.753 0.46845 4.21505 0
M  V30 2254 N 208.144 1.57514 4.80648 0
M  V30 2255 C 206.442 0.26603 4.45206 0
M  V30 2256 C 207.143 2.12889 5.41344 0
M  V30 2257 N 206.119 1.42208 5.24669 0
M  V30 2258 H 209.921 1.19219 2.68634 0
M  V30 2259 H 207.435 0.749473 1.44072 0
M  V30 2260 H 209.432 -0.837716 4.08397 0
M  V30 2261 H 208.092 -1.26838 2.98902 0
M  V30 2262 H 209.103 1.95789 4.79465 0
M  V30 2263 H 205.78 -0.538394 4.14014 0
M  V30 2264 H 207.17 3.05901 5.98226 0
M  V30 2265 N 209.89 -1.43072 0.660911 0
M  V30 2266 C 210.8 -2.34585 -0.0264163 0
M  V30 2267 C 211.816 -1.54316 -0.803898 0
M  V30 2268 O 212.992 -1.86939 -0.749391 0
M  V30 2269 C 210.057 -3.32689 -0.975639 0
M  V30 2270 C 209.118 -4.2886 -0.194236 0
M  V30 2271 C 208.351 -5.22278 -1.09825 0
M  V30 2272 O 208.574 -5.20299 -2.33763 0
M  V30 2273 O 207.508 -5.99228 -0.566513 0
M  V30 2274 H 211.334 -2.94869 0.727034 0
M  V30 2275 H 208.919 -1.43342 0.42111 0
M  V30 2276 H 210.801 -3.92995 -1.52094 0
M  V30 2277 H 209.476 -2.74898 -1.70918 0
M  V30 2278 H 208.383 -3.72011 0.394835 0
M  V30 2279 H 209.716 -4.89655 0.499899 0
M  V30 2280 N 211.368 -0.403325 -1.52352 0
M  V30 2281 C 212.614 0.174605 -2.02047 0
M  V30 2282 C 212.947 1.45282 -1.28867 0
M  V30 2283 O 212.222 1.90483 -0.393257 0
M  V30 2284 C 212.505 0.428238 -3.57545 0
M  V30 2285 C 212.358 -0.866248 -4.4138 0
M  V30 2286 C 213.677 1.21287 -4.23057 0
M  V30 2287 H 210.796 0.0619851 -0.734389 0
M  V30 2288 H 213.438 -0.53565 -1.82293 0
M  V30 2289 H 211.588 1.03327 -3.74507 0
M  V30 2290 H 213.26 -1.50265 -4.3614 0
M  V30 2291 H 211.503 -1.47851 -4.07827 0
M  V30 2292 H 212.174 -0.643249 -5.48239 0
M  V30 2293 H 214.65 0.700703 -4.10158 0
M  V30 2294 H 213.526 1.35909 -5.31808 0
M  V30 2295 H 213.787 2.23193 -3.81625 0
M  V30 2296 N 212.846 1.57033 -0.133567 0
M  V30 2297 C 213.794 2.17348 0.828412 0
M  V30 2298 C 214.788 1.12671 1.26498 0
M  V30 2299 O 215.994 1.30947 1.23502 0
M  V30 2300 H 212.369 0.695775 0.285309 0
M  V30 2301 H 214.34 2.96935 0.295372 0
M  V30 2302 C 213.089 2.79893 2.06289 0
M  V30 2303 H 212.412 3.60147 1.73592 0
M  V30 2304 H 213.852 3.25615 2.71572 0
M  V30 2305 C 212.311 1.77713 2.86216 0
M  V30 2306 O 212.841 1.23937 3.82103 0
M  V30 2307 N 211.047 1.47321 2.50489 0
M  V30 2308 H 210.594 1.91243 1.7258 0
M  V30 2309 H 210.552 0.79199 3.04261 0
M  V30 2310 N 214.325 -0.140222 1.56975 0
M  V30 2311 C 215.573 -0.850005 1.83356 0
M  V30 2312 C 215.894 -1.81399 0.71551 0
M  V30 2313 O 215.164 -1.94136 -0.262294 0
M  V30 2314 H 213.744 -0.316886 0.676456 0
M  V30 2315 H 216.406 -0.132608 1.94448 0
M  V30 2316 H 215.502 -1.40814 2.78528 0
M  V30 2317 N 215.803 -1.52179 -0.40978 0
M  V30 2318 C 216.736 -1.70196 -1.52015 0
M  V30 2319 C 217.714 -0.549542 -1.53032 0
M  V30 2320 O 218.898 -0.776815 -1.71749 0
M  V30 2321 C 216.025 -1.74069 -2.90547 0
M  V30 2322 C 215.071 -2.95601 -3.07445 0
M  V30 2323 S 215.904 -4.55956 -2.80827 0
M  V30 2324 C 217.06 -4.62614 -4.21591 0
M  V30 2325 H 217.293 -2.64109 -1.36504 0
M  V30 2326 H 214.826 -1.4221 -0.601312 0
M  V30 2327 H 216.784 -1.76985 -3.70387 0
M  V30 2328 H 215.445 -0.812835 -3.034 0
M  V30 2329 H 214.638 -2.94791 -4.08796 0
M  V30 2330 H 214.24 -2.90569 -2.35469 0
M  V30 2331 H 216.532 -4.39951 -5.15218 0
M  V30 2332 H 217.475 -5.64548 -4.27424 0
M  V30 2333 H 217.883 -3.91654 -4.06531 0
M  V30 2334 N 217.281 0.66697 -1.42791 0
M  V30 2335 C 218.53 1.42278 -1.42968 0
M  V30 2336 C 218.843 1.9553 -0.0524489 0
M  V30 2337 O 220.049 2.71414 0.068363 0
M  V30 2338 C 218.505 2.57418 -2.51524 0
M  V30 2339 C 218.113 2.10832 -3.9529 0
M  V30 2340 C 219.857 3.34878 -2.60877 0
M  V30 2341 C 217.764 3.23101 -4.95338 0
M  V30 2342 H 216.694 0.534533 -0.531781 0
M  V30 2343 H 219.345 0.721302 -1.68729 0
M  V30 2344 H 217.727 3.29971 -2.18941 0
M  V30 2345 H 218.901 1.4538 -4.37266 0
M  V30 2346 H 217.216 1.46289 -3.89857 0
M  V30 2347 H 219.813 4.18505 -3.32802 0
M  V30 2348 H 220.156 3.81993 -1.6549 0
M  V30 2349 H 220.689 2.69398 -2.92693 0
M  V30 2350 H 217.428 2.80969 -5.9223 0
M  V30 2351 H 216.948 3.87309 -4.57987 0
M  V30 2352 H 218.627 3.88447 -5.17415 0
M  V30 2353 N 218.759 1.29093 0.90403 0
M  V30 2354 C 220.006 1.16813 1.65411 0
M  V30 2355 C 220.334 -0.28128 1.92455 0
M  V30 2356 O 219.589 -1.22006 1.53013 0
M  V30 2357 C 219.888 1.92224 3.01305 0
M  V30 2358 C 219.554 3.41968 2.93885 0
M  V30 2359 C 218.216 3.82807 2.91569 0
M  V30 2360 C 220.568 4.37409 2.83413 0
M  V30 2361 C 217.896 5.1741 2.76594 0
M  V30 2362 C 220.248 5.72097 2.69977 0
M  V30 2363 C 218.912 6.12199 2.66024 0
M  V30 2364 H 218.182 0.42745 0.605283 0
M  V30 2365 H 220.829 1.59981 1.05254 0
M  V30 2366 H 219.134 1.41635 3.65304 0
M  V30 2367 H 220.831 1.80131 3.58265 0
M  V30 2368 H 217.421 3.09504 2.96488 0
M  V30 2369 H 221.605 4.06813 2.84283 0
M  V30 2370 H 216.861 5.47596 2.71935 0
M  V30 2371 H 221.035 6.45704 2.60844 0
M  V30 2372 H 218.662 7.16448 2.54178 0
M  V30 2373 N 220.237 -1.11381 1.11499 0
M  V30 2374 C 221.483 -1.83403 0.865512 0
M  V30 2375 C 221.816 -1.84459 -0.607329 0
M  V30 2376 O 221.091 -1.29811 -1.44842 0
M  V30 2377 C 221.374 -3.30552 1.42855 0
M  V30 2378 C 221.227 -3.37886 2.96906 0
M  V30 2379 C 222.546 -4.26643 1.08 0
M  V30 2380 H 219.665 -0.665879 0.31587 0
M  V30 2381 H 222.307 -1.30601 1.37998 0
M  V30 2382 H 220.457 -3.75648 0.990985 0
M  V30 2383 H 222.129 -3.01343 3.49271 0
M  V30 2384 H 220.372 -2.78088 3.32941 0
M  V30 2385 H 221.043 -4.41458 3.31389 0
M  V30 2386 H 223.519 -3.89729 1.45775 0
M  V30 2387 H 222.395 -5.27986 1.50072 0
M  V30 2388 H 222.656 -4.42099 -0.00915037 0
M  V30 2389 N 221.715 -0.905404 -1.28997 0
M  V30 2390 C 222.962 -0.534248 -1.95325 0
M  V30 2391 C 223.29 0.920535 -1.71337 0
M  V30 2392 O 222.545 1.66861 -1.02254 0
M  V30 2393 C 222.844 -0.779906 -3.48787 0
M  V30 2394 C 222.51 -2.21293 -3.92861 0
M  V30 2395 C 221.172 -2.60475 -4.04606 0
M  V30 2396 C 223.524 -3.14587 -4.15553 0
M  V30 2397 C 220.852 -3.9212 -4.36416 0
M  V30 2398 C 223.204 -4.45787 -4.48839 0
M  V30 2399 C 221.868 -4.84834 -4.58794 0
M  V30 2400 H 221.138 -0.195495 -0.714747 0
M  V30 2401 H 223.785 -1.14514 -1.53488 0
M  V30 2402 H 222.09 -0.0861365 -3.91705 0
M  V30 2403 H 223.787 -0.472029 -3.98212 0
M  V30 2404 H 220.377 -1.89887 -3.84241 0
M  V30 2405 H 224.561 -2.85528 -4.0594 0
M  V30 2406 H 219.817 -4.22086 -4.42327 0
M  V30 2407 H 223.991 -5.18098 -4.65346 0
M  V30 2408 H 221.618 -5.86877 -4.83197 0
M  V30 2409 N 223.193 1.4272 -0.668489 0
M  V30 2410 C 224.439 2.01923 -0.188419 0
M  V30 2411 C 224.772 1.52704 1.19979 0
M  V30 2412 O 224.047 0.726566 1.8042 0
M  V30 2413 C 224.33 3.59451 -0.216085 0
M  V30 2414 C 224.183 4.18864 -1.6393 0
M  V30 2415 C 225.502 4.37903 0.439179 0
M  V30 2416 H 222.621 0.733674 -0.0699412 0
M  V30 2417 H 225.263 1.69822 -0.852076 0
M  V30 2418 H 223.413 3.86929 0.349012 0
M  V30 2419 H 225.085 4.02362 -2.25616 0
M  V30 2420 H 223.328 3.74933 -2.18193 0
M  V30 2421 H 223.999 5.27987 -1.61039 0
M  V30 2422 H 226.475 4.16079 -0.0417878 0
M  V30 2423 H 225.351 5.47519 0.389157 0
M  V30 2424 H 225.612 4.15303 1.51577 0
M  V30 2425 N 224.671 0.411399 1.52136 0
M  V30 2426 C 226.087 0.0623865 1.59478 0
M  V30 2427 C 226.287 -1.42554 1.4241 0
M  V30 2428 O 225.343 -2.19263 1.2522 0
M  V30 2429 C 226.656 0.559331 2.95452 0
M  V30 2430 C 228.204 0.517503 3.08692 0
M  V30 2431 C 228.679 0.990994 4.4715 0
M  V30 2432 N 230.17 0.947908 4.53397 0
M  V30 2433 C 230.905 1.28544 5.58806 0
M  V30 2434 N 230.401 1.69454 6.71757 0
M  V30 2435 N 232.194 1.20526 5.49026 0
M  V30 2436 H 224.345 1.37982 1.61477 0
M  V30 2437 H 226.608 0.566977 0.759764 0
M  V30 2438 H 226.314 1.59938 3.1323 0
M  V30 2439 H 226.188 -0.0298014 3.77188 0
M  V30 2440 H 228.575 -0.513505 2.90598 0
M  V30 2441 H 228.656 1.14272 2.28857 0
M  V30 2442 H 228.3 2.02034 4.65988 0
M  V30 2443 H 228.23 0.34257 5.25485 0
M  V30 2444 H 230.721 0.647157 3.72317 0
M  V30 2445 H 231.034 1.93513 7.48179 0
M  V30 2446 H 229.379 1.73359 6.73032 0
M  V30 2447 H 232.57 0.884505 4.59667 0
M  V30 2448 H 232.743 1.47161 6.31069 0
M  V30 2449 N 226.149 -1.5696 0.141893 0
M  V30 2450 C 227.059 -2.20066 -0.812905 0
M  V30 2451 C 228.075 -1.18344 -1.27557 0
M  V30 2452 O 229.251 -1.50902 -1.33381 0
M  V30 2453 C 226.316 -2.80583 -2.03652 0
M  V30 2454 C 225.377 -3.97414 -1.62359 0
M  V30 2455 C 224.61 -4.55036 -2.78887 0
M  V30 2456 O 224.833 -4.11538 -3.94959 0
M  V30 2457 O 223.767 -5.45376 -2.54653 0
M  V30 2458 H 227.593 -3.02157 -0.305746 0
M  V30 2459 H 225.178 -1.49159 -0.0848799 0
M  V30 2460 H 227.06 -3.19067 -2.75272 0
M  V30 2461 H 225.735 -2.01508 -2.5333 0
M  V30 2462 H 224.642 -3.63656 -0.877775 0
M  V30 2463 H 225.975 -4.77994 -1.17401 0
M  V30 2464 N 227.627 0.131896 -1.57047 0
M  V30 2465 C 228.904 0.871495 -1.75112 0
M  V30 2466 C 229.284 1.9866 -0.713949 0
M  V30 2467 O 228.632 2.26965 0.264447 0
M  V30 2468 C 228.842 1.40007 -3.19686 0
M  V30 2469 C 230.19 1.85752 -3.81813 0
M  V30 2470 O 231.214 1.49715 -3.23209 0
M  V30 2471 O 230.073 2.5226 -4.84796 0
M  V30 2472 H 227.167 0.412919 -0.716538 0
M  V30 2473 H 229.713 0.116641 -1.69299 0
M  V30 2474 H 228.485 0.599404 -3.86682 0
M  V30 2475 H 228.108 2.218 -3.29986 0
M  V30 2476 N 229.106 1.52395 0.401703 0
M  V30 2477 C 230.383 1.57387 1.16141 0
M  V30 2478 C 230.763 0.359359 2.08019 0
M  V30 2479 O 230.111 -0.65326 2.18963 0
M  V30 2480 C 230.321 2.90631 1.93221 0
M  V30 2481 C 231.669 3.43904 2.49028 0
M  V30 2482 O 232.693 2.92421 2.03393 0
M  V30 2483 O 231.552 4.33823 3.32356 0
M  V30 2484 H 228.646 0.634262 0.530698 0
M  V30 2485 H 231.192 1.64725 0.407883 0
M  V30 2486 H 229.964 3.70473 1.25958 0
M  V30 2487 H 229.587 2.8662 2.75563 0
M  V30 2488 N 230.584 -0.659388 1.43143 0
M  V30 2489 C 231.831 -1.41935 1.44433 0
M  V30 2490 C 232.159 -1.94387 0.0663522 0
M  V30 2491 O 231.414 -1.72314 -0.927706 0
M  V30 2492 C 231.713 -2.62206 2.42864 0
M  V30 2493 C 231.379 -2.28208 3.88886 0
M  V30 2494 C 230.041 -2.18647 4.28657 0
M  V30 2495 C 232.393 -2.00887 4.8093 0
M  V30 2496 C 229.721 -1.79914 5.58433 0
M  V30 2497 C 232.073 -1.63653 6.11065 0
M  V30 2498 C 230.737 -1.52614 6.49819 0
M  V30 2499 H 230.007 -0.519376 0.528517 0
M  V30 2500 H 232.654 -0.750453 1.76183 0
M  V30 2501 H 230.959 -3.34199 2.04495 0
M  V30 2502 H 232.656 -3.2041 2.41119 0
M  V30 2503 H 229.246 -2.36557 3.57406 0
M  V30 2504 H 233.43 -2.07198 4.5098 0
M  V30 2505 H 228.686 -1.69948 5.87305 0
M  V30 2506 H 232.86 -1.41543 6.81864 0
M  V30 2507 H 230.487 -1.22371 7.50286 0
M  V30 2508 N 232.062 -1.29571 -0.897171 0
M  V30 2509 C 233.473 -1.15964 -1.46319 0
M  V30 2510 C 233.824 0.244267 -1.94674 0
M  V30 2511 O 232.949 1.13998 -1.83939 0
M  V30 2512 C 233.544 -2.09906 -2.65942 0
M  V30 2513 C 232.103 -2.00314 -3.18671 0
M  V30 2514 C 231.25 -2.00687 -1.91363 0
M  V30 2515 H 234.201 -1.42019 -0.708268 0
M  V30 2516 H 234.222 -1.67276 -3.41759 0
M  V30 2517 H 233.734 -3.12075 -2.30718 0
M  V30 2518 H 231.835 -1.01242 -3.58582 0
M  V30 2519 H 231.948 -2.88102 -3.82798 0
M  V30 2520 H 230.312 -1.45319 -2.09175 0
M  V30 2521 H 231.095 -3.04566 -1.58413 0
M  V30 2522 N 233.54 1.10788 -1.12088 0
M  V30 2523 C 234.817 1.79136 -0.785476 0
M  V30 2524 C 235.197 1.98246 0.725377 0
M  V30 2525 O 234.545 1.57258 1.65778 0
M  V30 2526 C 234.755 3.12375 -1.55636 0
M  V30 2527 C 236.103 3.8731 -1.74001 0
M  V30 2528 O 237.127 3.22085 -1.52117 0
M  V30 2529 O 235.986 5.04369 -2.10415 0
M  V30 2530 H 233.08 0.776226 -0.285311 0
M  V30 2531 H 235.626 1.1747 -1.2247 0
M  V30 2532 H 234.398 2.93863 -2.5838 0
M  V30 2533 H 234.021 3.81758 -1.11114 0
M  V30 2534 N 235.018 0.912232 1.28515 0
M  V30 2535 C 235.928 0.404506 2.31086 0
M  V30 2536 C 236.944 -0.50707 1.66448 0
M  V30 2537 O 238.12 -0.393624 1.97516 0
M  V30 2538 C 235.185 -0.348572 3.44943 0
M  V30 2539 C 234.246 0.59604 4.25142 0
M  V30 2540 C 233.479 -0.121194 5.33562 0
M  V30 2541 O 233.702 -1.34317 5.5436 0
M  V30 2542 O 232.636 0.542716 5.99448 0
M  V30 2543 H 236.462 1.25579 2.76521 0
M  V30 2544 H 234.047 0.676998 1.33181 0
M  V30 2545 H 235.929 -0.77395 4.14232 0
M  V30 2546 H 234.604 -1.17571 3.01594 0
M  V30 2547 H 233.511 1.07079 3.58448 0
M  V30 2548 H 234.844 1.38995 4.72167 0
M  V30 2549 N 236.496 -1.42363 0.676048 0
M  V30 2550 C 237.773 -1.95183 0.127726 0
M  V30 2551 C 238.153 -1.61641 -1.35777 0
M  V30 2552 O 237.501 -0.913216 -2.09458 0
M  V30 2553 C 237.711 -3.46721 0.398199 0
M  V30 2554 C 239.059 -4.23427 0.315383 0
M  V30 2555 O 240.083 -3.54649 0.332016 0
M  V30 2556 O 238.942 -5.45888 0.25865 0
M  V30 2557 H 236.036 -0.826992 0.00359427 0
M  V30 2558 H 238.582 -1.52184 0.750864 0
M  V30 2559 H 237.354 -3.64344 1.4272 0
M  V30 2560 H 236.977 -3.96769 -0.256885 0
M  V30 2561 N 237.974 -0.419461 -1.51915 0
M  V30 2562 C 239.22 0.153166 -2.02221 0
M  V30 2563 C 239.553 1.43907 -1.30401 0
M  V30 2564 O 238.828 1.90055 -0.413438 0
M  V30 2565 C 239.111 0.390291 -3.57979 0
M  V30 2566 C 238.964 -0.913014 -4.40436 0
M  V30 2567 C 240.283 1.16794 -4.2432 0
M  V30 2568 H 237.402 0.0541924 -0.735005 0
M  V30 2569 H 240.044 -0.554955 -1.81715 0
M  V30 2570 H 238.194 0.993491 -3.75582 0
M  V30 2571 H 239.866 -1.54882 -4.34522 0
M  V30 2572 H 238.109 -1.52168 -4.06236 0
M  V30 2573 H 238.78 -0.701361 -5.47526 0
M  V30 2574 H 241.256 0.657161 -4.10878 0
M  V30 2575 H 240.132 1.3026 -5.3322 0
M  V30 2576 H 240.393 2.19132 -3.83971 0
M  V30 2577 N 239.452 1.56882 -0.150215 0
M  V30 2578 C 240.863 1.82995 0.370076 0
M  V30 2579 C 241.214 1.06907 1.64515 0
M  V30 2580 O 240.339 0.315369 2.1409 0
M  V30 2581 C 240.934 3.31942 0.678208 0
M  V30 2582 C 239.493 3.58625 1.14301 0
M  V30 2583 C 238.64 2.76792 0.167778 0
M  V30 2584 H 241.591 1.54209 -0.374858 0
M  V30 2585 H 241.612 3.48272 1.53254 0
M  V30 2586 H 241.124 3.87294 -0.249991 0
M  V30 2587 H 239.225 3.08664 2.08704 0
M  V30 2588 H 239.338 4.67073 1.06676 0
M  V30 2589 H 237.702 2.45972 0.661037 0
M  V30 2590 H 238.485 3.34916 -0.754069 0
M  V30 2591 N 240.93 -0.123565 1.57115 0
M  V30 2592 C 242.341 -0.681198 1.73829 0
M  V30 2593 C 242.692 -1.80535 0.768214 0
M  V30 2594 O 241.817 -2.16317 -0.0599103 0
M  V30 2595 C 242.412 -1.24246 3.15196 0
M  V30 2596 C 240.971 -1.74643 3.33432 0
M  V30 2597 C 240.118 -0.644284 2.69711 0
M  V30 2598 H 243.069 0.102315 1.5837 0
M  V30 2599 H 243.09 -2.11216 3.16493 0
M  V30 2600 H 242.602 -0.424062 3.85776 0
M  V30 2601 H 240.703 -2.58974 2.67886 0
M  V30 2602 H 240.816 -1.85902 4.41562 0
M  V30 2603 H 239.18 -1.07676 2.3082 0
M  V30 2604 H 239.963 0.163058 3.42913 0
M  V30 2605 N 242.408 -1.52605 -0.393616 0
M  V30 2606 C 243.338 -1.80022 -1.48709 0
M  V30 2607 C 244.319 -0.651995 -1.57108 0
M  V30 2608 O 245.504 -0.89913 -1.72132 0
M  V30 2609 C 242.634 -1.96492 -2.86371 0
M  V30 2610 C 241.588 -3.12161 -2.92813 0
M  V30 2611 C 240.914 -3.13877 -4.3288 0
M  V30 2612 C 242.214 -4.51322 -2.6288 0
M  V30 2613 H 243.908 -2.71589 -1.26015 0
M  V30 2614 H 241.454 -1.30684 -0.604778 0
M  V30 2615 H 243.407 -2.14255 -3.62867 0
M  V30 2616 H 242.131 -1.01611 -3.10391 0
M  V30 2617 H 240.79 -2.94173 -2.18764 0
M  V30 2618 H 240.438 -2.16687 -4.53933 0
M  V30 2619 H 240.138 -3.91576 -4.38112 0
M  V30 2620 H 241.662 -3.33789 -5.1129 0
M  V30 2621 H 243.076 -4.69435 -3.29096 0
M  V30 2622 H 241.473 -5.31053 -2.79468 0
M  V30 2623 H 242.543 -4.58353 -1.58242 0
M  V30 2624 N 243.887 0.651787 -1.4349 0
M  V30 2625 C 244.85 1.74647 -1.48429 0
M  V30 2626 C 245.85 1.56513 -0.368817 0
M  V30 2627 O 247.04 1.62385 -0.630623 0
M  V30 2628 C 244.172 3.13533 -1.33827 0
M  V30 2629 H 245.365 1.71649 -2.4592 0
M  V30 2630 H 242.918 0.863573 -1.30277 0
M  V30 2631 H 243.653 3.22142 -0.37349 0
M  V30 2632 H 243.438 3.28101 -2.14691 0
M  V30 2633 H 244.928 3.93356 -1.40218 0
M  V30 2634 N 245.365 1.30045 0.890287 0
M  V30 2635 C 246.315 1.12592 1.9826 0
M  V30 2636 C 247.299 0.0426021 1.60844 0
M  V30 2637 O 248.491 0.265346 1.75 0
M  V30 2638 C 245.62 0.814301 3.33503 0
M  V30 2639 C 244.706 1.93761 3.7725 0
M  V30 2640 N 245.097 3.18232 3.93143 0
M  V30 2641 C 243.395 1.83277 4.06602 0
M  V30 2642 C 244.096 3.9158 4.30163 0
M  V30 2643 N 243.072 3.19591 4.3973 0
M  V30 2644 H 246.874 2.07003 2.08631 0
M  V30 2645 H 244.388 1.21307 1.07974 0
M  V30 2646 H 246.385 0.67029 4.11476 0
M  V30 2647 H 245.045 -0.121797 3.24471 0
M  V30 2648 H 246.056 3.53581 3.78419 0
M  V30 2649 H 242.733 0.97001 4.06075 0
M  V30 2650 H 244.123 4.98744 4.50226 0
M  V30 2651 N 246.843 -1.10192 1.12674 0
M  V30 2652 C 248.12 -1.78717 0.794965 0
M  V30 2653 C 248.5 -1.98628 -0.714853 0
M  V30 2654 O 247.848 -1.58135 -1.64941 0
M  V30 2655 C 248.058 -3.11546 1.5729 0
M  V30 2656 C 249.406 -3.86382 1.76052 0
M  V30 2657 O 250.43 -3.21274 1.53823 0
M  V30 2658 O 249.289 -5.03246 2.13087 0
M  V30 2659 H 246.383 -0.774702 0.289423 0
M  V30 2660 H 248.929 -1.16819 1.23091 0
M  V30 2661 H 247.701 -2.92489 2.59935 0
M  V30 2662 H 247.324 -3.81164 1.13137 0
M  V30 2663 N 248.321 -0.919034 -1.28029 0
M  V30 2664 C 249.251 -0.428581 -2.29533 0
M  V30 2665 C 250.232 0.50659 -1.62381 0
M  V30 2666 O 251.417 0.413195 -1.89753 0
M  V30 2667 C 248.547 0.327388 -3.45753 0
M  V30 2668 C 247.501 -0.519137 -4.2484 0
M  V30 2669 C 246.827 0.365486 -5.33449 0
M  V30 2670 C 248.127 -1.77914 -4.91064 0
M  V30 2671 H 249.821 -1.27687 -2.70807 0
M  V30 2672 H 247.367 -0.615428 -1.30186 0
M  V30 2673 H 249.32 0.681378 -4.15855 0
M  V30 2674 H 248.044 1.20963 -3.03374 0
M  V30 2675 H 246.703 -0.855717 -3.56473 0
M  V30 2676 H 246.351 1.24642 -4.87312 0
M  V30 2677 H 246.051 -0.197356 -5.87268 0
M  V30 2678 H 247.575 0.715241 -6.06396 0
M  V30 2679 H 248.989 -1.49374 -5.53498 0
M  V30 2680 H 247.386 -2.2848 -5.54903 0
M  V30 2681 H 248.456 -2.50382 -4.15255 0
M  V30 2682 N 249.799 1.42003 -0.683588 0
M  V30 2683 C 251.21 1.84501 -0.285736 0
M  V30 2684 C 251.561 1.57213 1.17382 0
M  V30 2685 O 250.686 1.03642 1.89966 0
M  V30 2686 C 251.281 3.34912 -0.511821 0
M  V30 2687 C 249.84 3.76025 -0.168005 0
M  V30 2688 C 248.987 2.6551 -0.799983 0
M  V30 2689 H 251.938 1.31724 -0.885119 0
M  V30 2690 H 251.959 3.79784 0.233292 0
M  V30 2691 H 251.471 3.54741 -1.57418 0
M  V30 2692 H 249.572 3.61801 0.890567 0
M  V30 2693 H 249.685 4.75141 -0.614661 0
M  V30 2694 H 248.049 2.53654 -0.230568 0
M  V30 2695 H 248.832 2.8816 -1.86597 0
M  V30 2696 N 251.277 0.427512 1.51691 0
M  V30 2697 C 252.524 -0.142229 2.02 0
M  V30 2698 C 252.852 -1.43566 1.31221 0
M  V30 2699 O 252.107 -1.91298 0.412744 0
M  V30 2700 C 252.406 -0.418249 3.54944 0
M  V30 2701 C 252.072 0.788187 4.43958 0
M  V30 2702 C 250.734 1.11906 4.68007 0
M  V30 2703 C 253.086 1.59347 4.96244 0
M  V30 2704 C 250.414 2.25608 5.41588 0
M  V30 2705 C 252.766 2.7214 5.71072 0
M  V30 2706 C 251.43 3.05692 5.93387 0
M  V30 2707 H 250.7 -0.0520451 0.73917 0
M  V30 2708 H 253.347 0.572697 1.82736 0
M  V30 2709 H 251.652 -1.21496 3.72486 0
M  V30 2710 H 253.349 -0.872339 3.91397 0
M  V30 2711 H 249.939 0.520344 4.2543 0
M  V30 2712 H 254.123 1.35106 4.77556 0
M  V30 2713 H 249.379 2.51929 5.57083 0
M  V30 2714 H 253.553 3.34914 6.10578 0
M  V30 2715 H 251.18 3.9391 6.50184 0
M  V30 2716 N 252.755 -1.56801 0.158532 0
M  V30 2717 C 254.171 -1.5837 -0.197774 0
M  V30 2718 C 254.371 -1.17334 -1.63814 0
M  V30 2719 O 253.427 -0.878988 -2.36707 0
M  V30 2720 C 254.74 -3.00615 0.0714459 0
M  V30 2721 C 256.288 -3.12999 0.00864533 0
M  V30 2722 C 256.763 -4.57313 0.250685 0
M  V30 2723 N 258.254 -4.62777 0.198014 0
M  V30 2724 C 258.989 -5.72271 0.359642 0
M  V30 2725 N 258.485 -6.90371 0.579625 0
M  V30 2726 N 260.278 -5.61318 0.296438 0
M  V30 2727 H 252.429 -1.81765 1.09887 0
M  V30 2728 H 254.692 -0.841849 0.435884 0
M  V30 2729 H 254.398 -3.35068 1.06874 0
M  V30 2730 H 254.272 -3.71683 -0.642757 0
M  V30 2731 H 256.659 -2.7838 -0.979217 0
M  V30 2732 H 256.74 -2.44393 0.755359 0
M  V30 2733 H 256.384 -4.92639 1.2357 0
M  V30 2734 H 256.314 -5.24061 -0.516489 0
M  V30 2735 H 258.805 -3.77885 0.0331115 0
M  V30 2736 H 259.118 -7.69689 0.69275 0
M  V30 2737 H 257.463 -6.92264 0.616087 0
M  V30 2738 H 260.654 -4.67932 0.125258 0
M  V30 2739 H 260.827 -6.46599 0.425831 0
M  V30 2740 N 254.233 0.115231 -1.57178 0
M  V30 2741 C 255.48 0.822351 -1.8505 0
M  V30 2742 C 255.808 1.79701 -0.744168 0
M  V30 2743 O 255.063 1.93909 0.26414 0
M  V30 2744 C 255.362 1.60324 -3.19423 0
M  V30 2745 C 255.028 0.772536 -4.44233 0
M  V30 2746 C 253.69 0.543468 -4.78121 0
M  V30 2747 C 256.042 0.193746 -5.2084 0
M  V30 2748 C 253.37 -0.274583 -5.86057 0
M  V30 2749 C 255.722 -0.611517 -6.29637 0
M  V30 2750 C 254.386 -0.850867 -6.62055 0
M  V30 2751 H 253.656 0.30092 -0.677147 0
M  V30 2752 H 256.303 0.0845802 -1.91313 0
M  V30 2753 H 254.608 2.41203 -3.08753 0
M  V30 2754 H 256.305 2.1544 -3.38211 0
M  V30 2755 H 252.895 0.96117 -4.17683 0
M  V30 2756 H 257.079 0.357926 -4.95008 0
M  V30 2757 H 252.335 -0.469206 -6.09597 0
M  V30 2758 H 256.509 -1.06697 -6.88178 0
M  V30 2759 H 254.136 -1.48657 -7.45523 0
M  V30 2760 N 255.711 1.52812 0.385517 0
M  V30 2761 C 257.122 1.5993 0.963293 0
M  V30 2762 C 257.473 0.454302 1.90868 0
M  V30 2763 O 256.598 -0.422132 2.12243 0
M  V30 2764 C 257.193 2.89871 1.75387 0
M  V30 2765 C 255.752 2.99389 2.28129 0
M  V30 2766 C 254.899 2.55071 1.08783 0
M  V30 2767 H 257.85 1.5784 0.164948 0
M  V30 2768 H 257.871 2.76553 2.61341 0
M  V30 2769 H 257.383 3.73186 1.06554 0
M  V30 2770 H 255.484 2.20619 3.00263 0
M  V30 2771 H 255.597 4.04096 2.57377 0
M  V30 2772 H 253.961 2.09473 1.4489 0
M  V30 2773 H 254.744 3.40785 0.414807 0
M  V30 2774 N 257.189 -0.644168 1.43834 0
M  V30 2775 C 258.099 -1.78563 1.52159 0
M  V30 2776 C 259.115 -1.69147 0.408069 0
M  V30 2777 O 260.291 -1.90156 0.663524 0
M  V30 2778 C 257.356 -3.14888 1.45073 0
M  V30 2779 C 256.417 -3.36034 2.6717 0
M  V30 2780 C 255.65 -4.65855 2.60413 0
M  V30 2781 O 255.873 -5.45805 1.65689 0
M  V30 2782 O 254.807 -4.88918 3.5106 0
M  V30 2783 H 258.633 -1.74494 2.48567 0
M  V30 2784 H 256.218 -0.80378 1.25935 0
M  V30 2785 H 258.1 -3.96179 1.43597 0
M  V30 2786 H 256.775 -3.19528 0.518037 0
M  V30 2787 H 255.682 -2.54472 2.74217 0
M  V30 2788 H 257.015 -3.36247 3.59442 0
M  V30 2789 N 258.668 -1.30515 -0.883378 0
M  V30 2790 C 260.084 -1.08881 -1.16692 0
M  V30 2791 C 260.284 0.149409 -2.00945 0
M  V30 2792 O 259.34 0.84257 -2.38027 0
M  V30 2793 C 260.653 -2.35319 -1.87204 0
M  V30 2794 C 262.201 -2.40799 -1.99962 0
M  V30 2795 C 262.676 -3.67083 -2.73887 0
M  V30 2796 N 264.167 -3.679 -2.81432 0
M  V30 2797 C 264.902 -4.62303 -3.3921 0
M  V30 2798 N 264.398 -5.67052 -3.98025 0
M  V30 2799 N 266.191 -4.49845 -3.3704 0
M  V30 2800 H 258.342 -2.09951 -0.321633 0
M  V30 2801 H 260.605 -0.92556 -0.205043 0
M  V30 2802 H 260.311 -3.25689 -1.3274 0
M  V30 2803 H 260.185 -2.44089 -2.87577 0
M  V30 2804 H 262.572 -1.50907 -2.53597 0
M  V30 2805 H 262.653 -2.36003 -0.98673 0
M  V30 2806 H 262.297 -4.57334 -2.20925 0
M  V30 2807 H 262.227 -3.69141 -3.75556 0
M  V30 2808 H 264.718 -2.92171 -2.39676 0
M  V30 2809 H 265.031 -6.35184 -4.40183 0
M  V30 2810 H 263.376 -5.70842 -3.96439 0
M  V30 2811 H 266.567 -3.67194 -2.90321 0
M  V30 2812 H 266.74 -5.23597 -3.81772 0
M  V30 2813 N 260.146 1.09593 -1.13257 0
M  V30 2814 C 261.371 1.8604 -0.916732 0
M  V30 2815 C 261.796 1.80504 0.529146 0
M  V30 2816 O 261.154 1.18127 1.37534 0
M  V30 2817 C 261.202 3.32017 -1.40703 0
M  V30 2818 O 260.306 4.08141 -0.591153 0
M  V30 2819 H 259.647 0.576943 -0.328683 0
M  V30 2820 H 262.177 1.38405 -1.50682 0
M  V30 2821 H 262.187 3.82865 -1.4099 0
M  V30 2822 H 260.862 3.35361 -2.45979 0
M  V30 2823 H 259.439 3.67084 -0.656005 0
M  V30 2824 N 261.624 0.925811 1.2754 0
M  V30 2825 C 262.534 0.428993 2.30644 0
M  V30 2826 C 263.55 -0.489387 1.66976 0
M  V30 2827 O 264.726 -0.372653 1.97922 0
M  V30 2828 C 261.791 -0.311967 3.45294 0
M  V30 2829 C 260.852 0.641098 4.24486 0
M  V30 2830 C 260.085 -0.0645955 5.33661 0
M  V30 2831 O 260.308 -1.28429 5.55754 0
M  V30 2832 O 259.242 0.606265 5.98839 0
M  V30 2833 H 263.068 1.28504 2.75173 0
M  V30 2834 H 260.653 0.691086 1.32455 0
M  V30 2835 H 262.535 -0.729972 4.15029 0
M  V30 2836 H 261.21 -1.14365 3.02824 0
M  V30 2837 H 260.117 1.10874 3.57292 0
M  V30 2838 H 261.45 1.43995 4.70666 0
M  V30 2839 N 263.102 -1.41638 0.69111 0
M  V30 2840 C 264.034 -2.29194 -0.0161523 0
M  V30 2841 C 265.047 -1.44549 -0.748955 0
M  V30 2842 O 266.236 -1.681 -0.6004 0
M  V30 2843 C 263.336 -3.22325 -1.0469 0
M  V30 2844 C 262.509 -4.35706 -0.384621 0
M  V30 2845 C 261.568 -5.09443 -1.31737 0
M  V30 2846 O 260.594 -5.63386 -0.811451 0
M  V30 2847 N 261.796 -5.16487 -2.64993 0
M  V30 2848 H 264.561 -2.90534 0.735523 0
M  V30 2849 H 262.122 -1.52742 0.53679 0
M  V30 2850 H 264.114 -3.68522 -1.67252 0
M  V30 2851 H 262.684 -2.62323 -1.70015 0
M  V30 2852 H 261.904 -3.91948 0.420804 0
M  V30 2853 H 263.192 -5.08743 0.0760765 0
M  V30 2854 H 262.59 -4.741 -3.08619 0
M  V30 2855 H 261.147 -5.66276 -3.22761 0
M  V30 2856 N 264.58 -0.43555 -1.51462 0
M  V30 2857 C 265.827 0.131514 -2.02072 0
M  V30 2858 C 266.155 1.42868 -1.31981 0
M  V30 2859 O 265.41 1.91076 -0.422883 0
M  V30 2860 C 265.709 0.39942 -3.55161 0
M  V30 2861 C 265.375 -0.81172 -4.43533 0
M  V30 2862 C 264.037 -1.14387 -4.67407 0
M  V30 2863 C 266.389 -1.61976 -4.95392 0
M  V30 2864 C 263.717 -2.28477 -5.40384 0
M  V30 2865 C 266.069 -2.75164 -5.6962 0
M  V30 2866 C 264.733 -3.08835 -5.91758 0
M  V30 2867 H 264.003 0.0481244 -0.739436 0
M  V30 2868 H 266.65 -0.58238 -1.8243 0
M  V30 2869 H 264.955 1.19519 -3.73125 0
M  V30 2870 H 266.652 0.85157 -3.91854 0
M  V30 2871 H 263.242 -0.542898 -4.25148 0
M  V30 2872 H 267.426 -1.37637 -4.76833 0
M  V30 2873 H 262.682 -2.5488 -5.55739 0
M  V30 2874 H 266.856 -3.38147 -6.08793 0
M  V30 2875 H 264.483 -3.97353 -6.48086 0
M  V30 2876 N 266.058 1.56714 -0.166846 0
M  V30 2877 C 267.469 1.83378 0.350646 0
M  V30 2878 C 267.82 1.08646 1.63372 0
M  V30 2879 O 266.945 0.338058 2.13743 0
M  V30 2880 C 267.54 3.32643 0.642963 0
M  V30 2881 C 266.099 3.59818 1.10491 0
M  V30 2882 C 265.246 2.76954 0.138411 0
M  V30 2883 H 268.197 1.53803 -0.391193 0
M  V30 2884 H 268.218 3.49878 1.49551 0
M  V30 2885 H 267.73 3.87007 -0.291055 0
M  V30 2886 H 265.831 3.1086 2.05418 0
M  V30 2887 H 265.944 4.68178 1.01716 0
M  V30 2888 H 264.308 2.4666 0.634911 0
M  V30 2889 H 265.091 3.34097 -0.789549 0
M  V30 2890 N 267.536 -0.106894 1.57237 0
M  V30 2891 C 268.486 -1.1366 1.9765 0
M  V30 2892 C 269.47 -1.36416 0.853203 0
M  V30 2893 O 270.662 -1.37305 1.11697 0
M  V30 2894 C 267.791 -2.46 2.39455 0
M  V30 2895 C 266.877 -2.26668 3.58445 0
M  V30 2896 N 267.268 -1.77176 4.73754 0
M  V30 2897 C 265.566 -2.57279 3.64312 0
M  V30 2898 C 266.267 -1.71836 5.5574 0
M  V30 2899 N 265.243 -2.16623 4.98573 0
M  V30 2900 H 269.045 -0.74669 2.84256 0
M  V30 2901 H 266.559 -0.314483 1.59326 0
M  V30 2902 H 268.556 -3.2049 2.6663 0
M  V30 2903 H 267.216 -2.85738 1.54219 0
M  V30 2904 H 268.227 -1.46545 4.96734 0
M  V30 2905 H 264.904 -3.00622 2.89711 0
M  V30 2906 H 266.294 -1.34723 6.58255 0
M  V30 2907 N 269.014 -1.53014 -0.377408 0
M  V30 2908 C 270.425 -1.60438 -0.954798 0
M  V30 2909 C 270.776 -0.464418 -1.90624 0
M  V30 2910 O 269.901 0.41087 -2.12464 0
M  V30 2911 C 270.496 -2.90797 -1.73847 0
M  V30 2912 C 269.055 -3.00595 -2.26538 0
M  V30 2913 C 268.202 -2.55645 -1.07429 0
M  V30 2914 H 271.153 -1.57926 -0.156575 0
M  V30 2915 H 271.174 -2.77935 -2.5987 0
M  V30 2916 H 270.686 -3.73746 -1.04574 0
M  V30 2917 H 268.787 -2.22208 -2.99089 0
M  V30 2918 H 268.9 -4.05456 -2.5523 0
M  V30 2919 H 267.264 -2.10239 -1.43777 0
M  V30 2920 H 268.047 -3.41 -0.396728 0
M  V30 2921 N 270.492 0.636531 -1.44174 0
M  V30 2922 C 271.422 1.76003 -1.53444 0
M  V30 2923 C 272.403 1.65619 -0.387841 0
M  V30 2924 O 273.588 1.84461 -0.607257 0
M  V30 2925 C 270.718 3.14511 -1.4731 0
M  V30 2926 C 269.672 3.39677 -2.60391 0
M  V30 2927 C 268.998 4.78159 -2.39308 0
M  V30 2928 C 270.298 3.32772 -4.02567 0
M  V30 2929 H 271.992 1.68501 -2.47483 0
M  V30 2930 H 269.538 0.809237 -1.19111 0
M  V30 2931 H 271.491 3.92878 -1.52397 0
M  V30 2932 H 270.215 3.22783 -0.49785 0
M  V30 2933 H 268.874 2.63688 -2.54684 0
M  V30 2934 H 268.522 4.83128 -1.39988 0
M  V30 2935 H 268.222 4.95956 -3.15122 0
M  V30 2936 H 269.746 5.58762 -2.46205 0
M  V30 2937 H 271.16 4.01051 -4.09672 0
M  V30 2938 H 269.557 3.62104 -4.7854 0
M  V30 2939 H 270.627 2.30669 -4.2652 0
M  V30 2940 N 271.97 1.30982 0.876444 0
M  V30 2941 C 273.216 1.21484 1.63136 0
M  V30 2942 C 273.571 -0.226339 1.91064 0
M  V30 2943 O 272.864 -1.15788 1.52656 0
M  V30 2944 C 273.058 1.98572 2.9716 0
M  V30 2945 C 272.887 3.50039 2.82317 0
M  V30 2946 C 271.657 4.19393 2.81847 0
M  V30 2947 C 273.855 4.45111 2.57644 0
M  V30 2948 N 271.837 5.57061 2.57985 0
M  V30 2949 C 273.208 5.70402 2.42986 0
M  V30 2950 C 275.263 4.3461 2.42937 0
M  V30 2951 C 273.966 6.8638 2.15115 0
M  V30 2952 C 275.992 5.50365 2.16454 0
M  V30 2953 C 275.354 6.74642 2.02578 0
M  V30 2954 H 271.453 0.499632 0.601575 0
M  V30 2955 H 274.037 1.65094 1.03209 0
M  V30 2956 H 272.208 1.5734 3.55104 0
M  V30 2957 H 273.94 1.81146 3.61895 0
M  V30 2958 H 270.695 3.71303 2.93991 0
M  V30 2959 H 271.119 6.29529 2.49043 0
M  V30 2960 H 275.761 3.39199 2.52396 0
M  V30 2961 H 273.479 7.81824 2.04394 0
M  V30 2962 H 277.065 5.44154 2.05884 0
M  V30 2963 H 275.945 7.62699 1.82374 0
M  V30 2964 N 273.449 -1.08991 1.13837 0
M  V30 2965 C 274.86 -1.62746 0.914917 0
M  V30 2966 C 275.211 -1.88403 -0.547594 0
M  V30 2967 O 274.336 -1.63706 -1.41525 0
M  V30 2968 C 274.931 -2.95662 1.65437 0
M  V30 2969 C 273.49 -3.46225 1.47666 0
M  V30 2970 C 272.637 -2.20562 1.6807 0
M  V30 2971 H 275.588 -0.922946 1.29102 0
M  V30 2972 H 275.609 -3.63825 1.11407 0
M  V30 2973 H 275.121 -2.76956 2.71877 0
M  V30 2974 H 273.222 -3.70046 0.435478 0
M  V30 2975 H 273.335 -4.23368 2.24268 0
M  V30 2976 H 271.699 -2.29439 1.10589 0
M  V30 2977 H 272.482 -2.0437 2.7584 0
M  V30 2978 N 274.927 -0.932562 -1.27047 0
M  V30 2979 C 276.152 -0.591474 -1.98787 0
M  V30 2980 C 276.577 0.824601 -1.69062 0
M  V30 2981 O 275.935 1.5541 -0.933677 0
M  V30 2982 C 275.983 -0.829808 -3.50922 0
M  V30 2983 O 275.087 0.102266 -4.12273 0
M  V30 2984 H 274.428 -0.227185 -0.623926 0
M  V30 2985 H 276.958 -1.25314 -1.61733 0
M  V30 2986 H 276.968 -0.747292 -4.01098 0
M  V30 2987 H 275.643 -1.86201 -3.7189 0
M  V30 2988 H 274.22 -0.0305761 -3.72887 0
M  V30 2989 N 276.405 1.4127 -0.698611 0
M  V30 2990 C 277.63 2.06024 -0.238512 0
M  V30 2991 C 278.055 1.5224 1.10475 0
M  V30 2992 O 277.413 0.650623 1.69223 0
M  V30 2993 C 277.461 3.59988 -0.209952 0
M  V30 2994 O 276.565 4.04282 0.814235 0
M  V30 2995 H 275.906 0.653829 -0.115775 0
M  V30 2996 H 278.436 1.8098 -0.954326 0
M  V30 2997 H 278.446 4.07979 -0.0418436 0
M  V30 2998 H 277.121 3.98503 -1.1903 0
M  V30 2999 H 275.698 3.6779 0.615234 0
M  V30 3000 N 277.883 0.443576 1.51229 0
M  V30 3001 C 279.294 -0.0180867 1.86691 0
M  V30 3002 C 279.645 -1.41384 1.36033 0
M  V30 3003 O 278.77 -2.04291 0.713722 0
M  V30 3004 C 279.365 -0.039597 3.38777 0
M  V30 3005 C 277.924 -0.445692 3.73752 0
M  V30 3006 C 277.071 0.357584 2.74985 0
M  V30 3007 H 280.022 0.659138 1.44364 0
M  V30 3008 H 280.043 -0.847761 3.70936 0
M  V30 3009 H 279.555 0.976382 3.75617 0
M  V30 3010 H 277.656 -1.46704 3.42503 0
M  V30 3011 H 277.769 -0.166155 4.78812 0
M  V30 3012 H 276.133 -0.184973 2.54027 0
M  V30 3013 H 276.916 1.37256 3.14668 0
M  V30 3014 N 279.361 -1.56624 0.175154 0
M  V30 3015 C 280.586 -2.01813 -0.478137 0
M  V30 3016 C 281.011 -1.05457 -1.55757 0
M  V30 3017 O 280.369 -0.0347439 -1.81267 0
M  V30 3018 C 280.417 -3.45581 -1.02987 0
M  V30 3019 O 279.521 -3.52305 -2.14371 0
M  V30 3020 H 278.862 -0.65413 -0.114059 0
M  V30 3021 H 281.392 -2.02673 0.280173 0
M  V30 3022 H 281.402 -3.84965 -1.35151 0
M  V30 3023 H 280.077 -4.1521 -0.239556 0
M  V30 3024 H 278.654 -3.24783 -1.83222 0
M  V30 3025 N 280.839 0.0985539 -1.57292 0
M  V30 3026 C 282.085 0.803867 -1.86188 0
M  V30 3027 C 282.418 1.78549 -0.763794 0
M  V30 3028 O 281.693 1.93153 0.22855 0
M  V30 3029 C 281.976 1.53568 -3.25713 0
M  V30 3030 C 281.829 0.572277 -4.46145 0
M  V30 3031 C 283.148 2.48708 -3.63087 0
M  V30 3032 H 280.267 0.290781 -0.677211 0
M  V30 3033 H 282.909 0.0675783 -1.8988 0
M  V30 3034 H 281.059 2.16332 -3.22696 0
M  V30 3035 H 282.731 -0.0480894 -4.61275 0
M  V30 3036 H 280.974 -0.114618 -4.33649 0
M  V30 3037 H 281.645 1.12139 -5.40489 0
M  V30 3038 H 284.121 1.96039 -3.67026 0
M  V30 3039 H 282.997 2.96932 -4.61652 0
M  V30 3040 H 283.258 3.32309 -2.91588 0
M  V30 3041 N 282.317 1.53212 0.369288 0
M  V30 3042 C 283.247 1.82365 1.45826 0
M  V30 3043 C 284.228 0.676907 1.56051 0
M  V30 3044 O 285.413 0.926401 1.70679 0
M  V30 3045 C 282.543 2.01023 2.83208 0
M  V30 3046 C 281.497 3.1678 2.8781 0
M  V30 3047 C 280.823 3.20724 4.27832 0
M  V30 3048 C 282.123 4.55447 2.55667 0
M  V30 3049 H 283.817 2.73559 1.21678 0
M  V30 3050 H 281.363 1.3163 0.583911 0
M  V30 3051 H 283.316 2.20001 3.59413 0
M  V30 3052 H 282.04 1.06536 3.08736 0
M  V30 3053 H 280.699 2.97616 2.14056 0
M  V30 3054 H 280.347 2.23882 4.50429 0
M  V30 3055 H 280.047 3.98496 4.31827 0
M  V30 3056 H 281.571 3.41881 5.05915 0
M  V30 3057 H 282.985 4.74611 3.21586 0
M  V30 3058 H 281.382 5.35432 2.70984 0
M  V30 3059 H 282.452 4.60812 1.5093 0
M  V30 3060 N 283.795 -0.628877 1.44509 0
M  V30 3061 C 285.072 -1.38733 1.37886 0
M  V30 3062 C 285.452 -2.11065 0.0387008 0
M  V30 3063 O 284.8 -2.06476 -0.97878 0
M  V30 3064 C 285.01 -2.35188 2.57852 0
M  V30 3065 C 286.358 -2.9845 3.02014 0
M  V30 3066 O 287.382 -2.45513 2.58073 0
M  V30 3067 O 286.241 -3.94487 3.78209 0
M  V30 3068 H 283.335 -0.621015 0.54614 0
M  V30 3069 H 285.881 -0.653744 1.56602 0
M  V30 3070 H 284.653 -1.80855 3.46998 0
M  V30 3071 H 284.276 -3.1596 2.4136 0
M  V30 3072 N 285.273 -1.31445 -0.869486 0
M  V30 3073 C 286.55 -1.11795 -1.60503 0
M  V30 3074 C 286.93 0.327168 -2.08549 0
M  V30 3075 O 286.278 1.32135 -1.8642 0
M  V30 3076 C 286.488 -2.13258 -2.76265 0
M  V30 3077 C 287.836 -2.45805 -3.46215 0
M  V30 3078 O 288.86 -2.11688 -2.86473 0
M  V30 3079 O 287.719 -3.04228 -4.5399 0
M  V30 3080 H 284.813 -0.430421 -0.706163 0
M  V30 3081 H 287.359 -1.42925 -0.914907 0
M  V30 3082 H 286.131 -3.10461 -2.3818 0
M  V30 3083 H 285.754 -1.83035 -3.52964 0
M  V30 3084 N 286.751 1.08385 -1.14413 0
M  V30 3085 C 287.699 2.17406 -0.826888 0
M  V30 3086 C 288.693 1.6827 0.195312 0
M  V30 3087 O 289.899 1.79927 0.0513892 0
M  V30 3088 H 286.274 0.70934 -0.249681 0
M  V30 3089 H 288.245 2.41388 -1.75426 0
M  V30 3090 C 286.994 3.46215 -0.320979 0
M  V30 3091 H 286.317 3.84401 -1.0989 0
M  V30 3092 H 287.757 4.23777 -0.137549 0
M  V30 3093 C 286.216 3.23067 0.955472 0
M  V30 3094 O 286.746 3.4668 2.02918 0
M  V30 3095 N 284.952 2.7661 0.890798 0
M  V30 3096 H 284.499 2.57594 0.0168815 0
M  V30 3097 H 284.457 2.61501 1.74542 0
M  V30 3098 N 288.23 0.939286 1.26551 0
M  V30 3099 C 289.193 0.451987 2.24699 0
M  V30 3100 C 290.193 -0.435869 1.5478 0
M  V30 3101 O 291.383 -0.235314 1.72603 0
M  V30 3102 C 288.515 -0.348801 3.39111 0
M  V30 3103 H 289.708 1.3193 2.69322 0
M  V30 3104 H 287.261 0.721072 1.38673 0
M  V30 3105 H 287.996 -1.23444 2.99887 0
M  V30 3106 H 287.781 0.287945 3.91041 0
M  V30 3107 H 289.271 -0.679726 4.12031 0
M  V30 3108 N 289.708 -1.40897 0.706093 0
M  V30 3109 C 290.954 -2.01352 0.241889 0
M  V30 3110 C 291.287 -1.55832 -1.15888 0
M  V30 3111 O 290.562 -0.774145 -1.7843 0
M  V30 3112 C 290.845 -3.58752 0.311311 0
M  V30 3113 C 290.698 -4.1437 1.74978 0
M  V30 3114 C 292.017 -4.38914 -0.322922 0
M  V30 3115 H 289.136 -0.731562 0.0893687 0
M  V30 3116 H 291.778 -1.67504 0.896802 0
M  V30 3117 H 289.928 -3.87718 -0.246302 0
M  V30 3118 H 291.6 -3.96239 2.36205 0
M  V30 3119 H 289.843 -3.69016 2.28057 0
M  V30 3120 H 290.514 -5.23532 1.74981 0
M  V30 3121 H 292.99 -4.15822 0.152089 0
M  V30 3122 H 291.866 -5.48358 -0.243855 0
M  V30 3123 H 292.127 -4.19176 -1.40513 0
M  V30 3124 N 291.186 -0.45159 -1.50991 0
M  V30 3125 C 292.432 0.110237 -2.025 0
M  V30 3126 C 292.765 1.41109 -1.33424 0
M  V30 3127 O 292.04 1.89135 -0.453659 0
M  V30 3128 C 292.323 0.314271 -3.58726 0
M  V30 3129 C 292.176 -1.00623 -4.38401 0
M  V30 3130 C 293.495 1.07767 -4.26702 0
M  V30 3131 H 290.614 0.0385897 -0.735989 0
M  V30 3132 H 293.256 -0.593374 -1.80497 0
M  V30 3133 H 291.406 0.913601 -3.77605 0
M  V30 3134 H 293.078 -1.64064 -4.31139 0
M  V30 3135 H 291.321 -1.6075 -4.02917 0
M  V30 3136 H 291.992 -0.817341 -5.45915 0
M  V30 3137 H 294.468 0.56986 -4.12179 0
M  V30 3138 H 293.344 1.18921 -5.35863 0
M  V30 3139 H 293.605 2.10939 -3.88532 0
M  V30 3140 N 292.664 1.56529 -0.183458 0
M  V30 3141 C 293.614 2.1515 0.754605 0
M  V30 3142 C 294.598 1.08904 1.18443 0
M  V30 3143 O 295.79 1.34997 1.14476 0
M  V30 3144 C 292.919 2.80531 1.97881 0
M  V30 3145 C 292.005 3.93952 1.57043 0
M  V30 3146 N 292.396 4.98221 0.87231 0
M  V30 3147 C 290.694 4.05338 1.86057 0
M  V30 3148 C 291.395 5.77836 0.669377 0
M  V30 3149 N 290.371 5.29858 1.21454 0
M  V30 3150 H 294.173 2.93132 0.212387 0
M  V30 3151 H 291.687 1.62391 0.0167725 0
M  V30 3152 H 293.684 3.20914 2.6612 0
M  V30 3153 H 292.344 2.04035 2.52586 0
M  V30 3154 H 293.355 5.15191 0.529033 0
M  V30 3155 H 290.032 3.39957 2.42354 0
M  V30 3156 H 291.422 6.71799 0.116422 0
M  V30 3157 N 294.142 -0.090211 1.57342 0
M  V30 3158 C 295.39 -0.791241 1.85967 0
M  V30 3159 C 295.711 -1.7903 0.772859 0
M  V30 3160 O 294.981 -1.94872 -0.200398 0
M  V30 3161 H 293.561 -0.295205 0.686195 0
M  V30 3162 H 296.223 -0.0706782 1.94772 0
M  V30 3163 H 295.319 -1.31882 2.82867 0
M  V30 3164 N 295.62 -1.53406 -0.361157 0
M  V30 3165 C 296.553 -1.74946 -1.46524 0
M  V30 3166 C 297.531 -0.59795 -1.51206 0
M  V30 3167 O 298.715 -0.831062 -1.69191 0
M  V30 3168 C 295.842 -1.83224 -2.84863 0
M  V30 3169 C 294.888 -3.05233 -2.97885 0
M  V30 3170 S 295.721 -4.6466 -2.66179 0
M  V30 3171 C 296.877 -4.75793 -4.06659 0
M  V30 3172 H 297.11 -2.68319 -1.28033 0
M  V30 3173 H 294.643 -1.44051 -0.555764 0
M  V30 3174 H 296.601 -1.88679 -3.64569 0
M  V30 3175 H 295.262 -0.908948 -3.00661 0
M  V30 3176 H 294.455 -3.07648 -3.9921 0
M  V30 3177 H 294.057 -2.97913 -2.26106 0
M  V30 3178 H 296.349 -4.5612 -5.0096 0
M  V30 3179 H 297.292 -5.7786 -4.09247 0
M  V30 3180 H 297.7 -4.04389 -3.93865 0
M  V30 3181 N 297.098 0.621204 -1.44841 0
M  V30 3182 C 298.048 1.72663 -1.48901 0
M  V30 3183 C 299.032 1.56964 -0.353702 0
M  V30 3184 O 300.224 1.66532 -0.599669 0
M  V30 3185 C 297.353 3.11381 -1.44557 0
M  V30 3186 C 296.439 3.32514 -2.6324 0
M  V30 3187 N 296.83 3.23969 -3.8843 0
M  V30 3188 C 295.128 3.63343 -2.58647 0
M  V30 3189 C 295.829 3.46062 -4.67564 0
M  V30 3190 N 294.805 3.69407 -3.98797 0
M  V30 3191 H 298.607 1.64529 -2.43531 0
M  V30 3192 H 296.121 0.82401 -1.39942 0
M  V30 3193 H 298.118 3.90667 -1.4555 0
M  V30 3194 H 296.778 3.20674 -0.509731 0
M  V30 3195 H 297.789 3.02669 -4.20252 0
M  V30 3196 H 294.466 3.79556 -1.73906 0
M  V30 3197 H 295.856 3.44963 -5.76585 0
M  V30 3198 N 298.576 1.31904 0.862503 0
M  V30 3199 C 299.992 1.10724 1.14945 0
M  V30 3200 C 300.192 -0.117421 2.01158 0
M  V30 3201 O 299.248 -0.804595 2.39338 0
M  V30 3202 C 300.561 2.38267 1.83437 0
M  V30 3203 C 302.109 2.43949 1.96106 0
M  V30 3204 C 302.584 3.71394 2.68013 0
M  V30 3205 N 304.075 3.72331 2.75543 0
M  V30 3206 C 304.81 4.67641 3.31812 0
M  V30 3207 N 304.306 5.73313 3.88953 0
M  V30 3208 N 306.099 4.5515 3.29841 0
M  V30 3209 H 298.25 2.10436 0.288191 0
M  V30 3210 H 300.513 0.928705 0.190292 0
M  V30 3211 H 300.219 3.27759 1.27542 0
M  V30 3212 H 300.093 2.48633 2.83657 0
M  V30 3213 H 302.48 1.54922 2.51164 0
M  V30 3214 H 302.561 2.37543 0.949059 0
M  V30 3215 H 302.205 4.60791 2.13621 0
M  V30 3216 H 302.135 3.75069 3.69636 0
M  V30 3217 H 304.626 2.95947 2.34997 0
M  V30 3218 H 304.939 6.42107 4.30022 0
M  V30 3219 H 303.284 5.77077 3.87308 0
M  V30 3220 H 306.475 3.71766 2.84443 0
M  V30 3221 H 306.648 5.29604 3.73394 0
M  V30 3222 N 300.054 -1.07777 1.14986 0
M  V30 3223 C 301.282 -1.84018 0.945773 0
M  V30 3224 C 301.697 -1.81897 -0.505863 0
M  V30 3225 O 301.054 -1.22726 -1.35072 0
M  V30 3226 C 301.105 -3.31287 1.44677 0
M  V30 3227 O 300.826 -3.33449 2.84154 0
M  V30 3228 C 302.327 -4.24311 1.28355 0
M  V30 3229 H 299.547 -0.580716 0.336169 0
M  V30 3230 H 302.091 -1.36077 1.52654 0
M  V30 3231 H 300.246 -3.76594 0.908625 0
M  V30 3232 H 300.66 -4.25427 3.06777 0
M  V30 3233 H 302.134 -5.2573 1.68261 0
M  V30 3234 H 302.611 -4.38612 0.227184 0
M  V30 3235 H 303.217 -3.84836 1.81056 0
M  V30 3236 N 301.532 -0.945985 -1.26051 0
M  V30 3237 C 302.78 -0.594941 -1.93145 0
M  V30 3238 C 303.101 0.86953 -1.7454 0
M  V30 3239 O 302.371 1.61838 -1.10387 0
M  V30 3240 H 300.951 -0.217044 -0.714773 0
M  V30 3241 H 303.613 -1.20235 -1.53393 0
M  V30 3242 H 302.709 -0.816835 -3.01221 0
M  V30 3243 N 303.011 1.40521 -0.713556 0
M  V30 3244 C 304.258 2.00923 -0.25219 0
M  V30 3245 C 304.586 1.56571 1.15395 0
M  V30 3246 O 303.841 0.775874 1.79663 0
M  V30 3247 C 304.14 3.56317 -0.278 0
M  V30 3248 C 303.806 4.20246 -1.63415 0
M  V30 3249 C 302.468 4.37422 -2.00538 0
M  V30 3250 C 304.82 4.55923 -2.52554 0
M  V30 3251 C 302.148 4.87558 -3.2635 0
M  V30 3252 C 304.5 5.07458 -3.77716 0
M  V30 3253 C 303.164 5.22843 -4.14959 0
M  V30 3254 H 302.434 0.735231 -0.0922829 0
M  V30 3255 H 305.081 1.68161 -0.916188 0
M  V30 3256 H 303.386 3.88976 0.469567 0
M  V30 3257 H 305.083 4.00883 0.0967819 0
M  V30 3258 H 301.673 4.07263 -1.33546 0
M  V30 3259 H 305.857 4.42291 -2.25149 0
M  V30 3260 H 301.113 4.97654 -3.55176 0
M  V30 3261 H 305.287 5.34041 -4.4696 0
M  V30 3262 H 302.914 5.61454 -5.12516 0
M  V30 3263 N 304.489 0.459591 1.5075 0
M  V30 3264 C 305.737 -0.0991532 2.01857 0
M  V30 3265 C 306.058 -1.41247 1.34441 0
M  V30 3266 O 305.328 -1.89775 0.486022 0
M  V30 3267 H 303.908 -0.039633 0.745948 0
M  V30 3268 H 306.57 0.607387 1.85194 0
M  V30 3269 H 305.666 -0.258998 3.11023 0
M  V30 3270 N 305.967 -1.56429 0.191757 0
M  V30 3271 C 306.915 -2.20273 -0.747174 0
M  V30 3272 C 307.909 -1.17288 -1.22229 0
M  V30 3273 O 309.115 -1.35441 -1.18557 0
M  V30 3274 H 305.49 -0.705885 -0.259289 0
M  V30 3275 H 307.461 -2.97826 -0.184963 0
M  V30 3276 C 306.21 -2.87356 -1.95759 0
M  V30 3277 H 305.533 -3.66341 -1.60106 0
M  V30 3278 H 306.973 -3.3547 -2.59299 0
M  V30 3279 C 305.432 -1.88213 -2.79423 0
M  V30 3280 O 305.962 -1.38033 -3.7724 0
M  V30 3281 N 304.168 -1.56516 -2.44849 0
M  V30 3282 H 303.715 -1.97516 -1.65364 0
M  V30 3283 H 303.673 -0.904369 -3.01112 0
M  V30 3284 N 307.445 0.0818655 -1.57387 0
M  V30 3285 C 308.691 0.778884 -1.87896 0
M  V30 3286 C 309.046 1.75692 -0.784229 0
M  V30 3287 O 308.339 1.90417 0.212567 0
M  V30 3288 C 308.533 1.53513 -3.22752 0
M  V30 3289 C 308.362 0.631838 -4.45239 0
M  V30 3290 C 307.132 0.272571 -5.04564 0
M  V30 3291 C 309.33 -0.0670191 -5.14256 0
M  V30 3292 N 307.312 -0.637498 -6.10581 0
M  V30 3293 C 308.683 -0.834653 -6.14356 0
M  V30 3294 C 310.738 -0.139551 -4.97704 0
M  V30 3295 C 309.441 -1.66806 -6.99691 0
M  V30 3296 C 311.467 -0.959903 -5.83558 0
M  V30 3297 C 310.829 -1.71561 -6.83188 0
M  V30 3298 H 306.928 0.260764 -0.737242 0
M  V30 3299 H 309.512 0.0408227 -1.94657 0
M  V30 3300 H 307.683 2.24398 -3.17018 0
M  V30 3301 H 309.415 2.18038 -3.40942 0
M  V30 3302 H 306.17 0.62319 -4.69482 0
M  V30 3303 H 306.594 -1.08548 -6.68241 0
M  V30 3304 H 311.236 0.430376 -4.20604 0
M  V30 3305 H 308.954 -2.249 -7.76174 0
M  V30 3306 H 312.54 -1.01887 -5.72809 0
M  V30 3307 H 311.42 -2.34017 -7.48469 0
M  V30 3308 N 308.923 1.53595 0.353017 0
M  V30 3309 C 310.339 1.43648 0.695516 0
M  V30 3310 C 310.539 0.585617 1.92802 0
M  V30 3311 O 309.595 0.0729223 2.52395 0
M  V30 3312 C 310.908 2.8701 0.896991 0
M  V30 3313 C 312.456 2.96723 0.996209 0
M  V30 3314 C 312.931 4.41173 1.23007 0
M  V30 3315 N 314.422 4.44657 1.29749 0
M  V30 3316 C 315.157 5.53547 1.49577 0
M  V30 3317 N 314.653 6.72461 1.66639 0
M  V30 3318 N 316.446 5.41145 1.52048 0
M  V30 3319 H 308.597 2.07415 -0.457481 0
M  V30 3320 H 310.86 0.9372 -0.142687 0
M  V30 3321 H 310.566 3.51644 0.0629938 0
M  V30 3322 H 310.44 3.31401 1.80148 0
M  V30 3323 H 312.827 2.32235 1.82074 0
M  V30 3324 H 312.908 2.55707 0.0688331 0
M  V30 3325 H 312.552 5.06238 0.410505 0
M  V30 3326 H 312.482 4.79772 2.17086 0
M  V30 3327 H 314.973 3.58963 1.18126 0
M  V30 3328 H 315.286 7.51214 1.81378 0
M  V30 3329 H 313.631 6.75423 1.63794 0
M  V30 3330 H 316.822 4.47205 1.38294 0
M  V30 3331 H 316.995 6.26068 1.67159 0
M  V30 3332 N 310.401 -0.613514 1.45168 0
M  V30 3333 C 311.65 -1.36874 1.4815 0
M  V30 3334 C 311.963 -1.952 0.124982 0
M  V30 3335 O 313.169 -2.71481 0.0324176 0
M  V30 3336 C 311.625 -2.47905 2.60904 0
M  V30 3337 C 311.233 -1.96016 4.02842 0
M  V30 3338 C 312.977 -3.24965 2.73126 0
M  V30 3339 C 310.884 -3.04494 5.06988 0
M  V30 3340 H 309.814 -0.514428 0.551253 0
M  V30 3341 H 312.465 -0.658182 1.7129 0
M  V30 3342 H 310.847 -3.21618 2.31037 0
M  V30 3343 H 312.021 -1.29051 4.4236 0
M  V30 3344 H 310.336 -1.31719 3.95018 0
M  V30 3345 H 312.933 -4.05865 3.48106 0
M  V30 3346 H 313.276 -3.75588 1.79553 0
M  V30 3347 H 313.809 -2.5835 3.0249 0
M  V30 3348 H 310.548 -2.58795 6.0225 0
M  V30 3349 H 310.068 -3.70044 4.72046 0
M  V30 3350 H 311.747 -3.68976 5.31475 0
M  V30 3351 N 311.879 -1.3236 -0.855495 0
M  V30 3352 C 312.842 -1.21164 -1.94556 0
M  V30 3353 C 313.842 -0.134908 -1.60233 0
M  V30 3354 O 315.032 -0.385249 -1.69887 0
M  V30 3355 C 312.164 -0.863192 -3.29791 0
M  V30 3356 H 313.357 -2.18038 -2.05911 0
M  V30 3357 H 310.91 -1.16179 -1.04557 0
M  V30 3358 H 311.645 0.103769 -3.24134 0
M  V30 3359 H 311.43 -1.64166 -3.56078 0
M  V30 3360 H 312.92 -0.809156 -4.09686 0
M  V30 3361 N 313.357 1.07166 -1.15556 0
M  V30 3362 C 314.597 1.81391 -0.94216 0
M  V30 3363 C 314.961 1.84788 0.521272 0
M  V30 3364 O 316.162 2.54904 0.85307 0
M  V30 3365 C 314.433 3.22431 -1.54185 0
M  V30 3366 S 315.992 4.13379 -1.47183 0
M  V30 3367 H 312.81 0.624963 -0.339031 0
M  V30 3368 H 315.412 1.28725 -1.4714 0
M  V30 3369 H 314.116 3.17548 -2.59984 0
M  V30 3370 H 313.647 3.80172 -1.01156 0
M  V30 3371 H 315.662 4.94007 -0.466004 0
M  V30 3372 N 314.835 0.952656 1.25548 0
M  V30 3373 C 315.745 0.47782 2.29682 0
M  V30 3374 C 316.761 -0.453859 1.67977 0
M  V30 3375 O 317.937 -0.330587 1.98668 0
M  V30 3376 C 315.002 -0.238655 3.45878 0
M  V30 3377 C 314.063 0.730994 4.23031 0
M  V30 3378 C 313.296 0.0486165 5.33678 0
M  V30 3379 O 313.519 -1.16612 5.58353 0
M  V30 3380 O 312.453 0.733152 5.97418 0
M  V30 3381 H 316.279 1.34312 2.72386 0
M  V30 3382 H 313.864 0.719026 1.30959 0
M  V30 3383 H 315.746 -0.641774 4.16484 0
M  V30 3384 H 314.421 -1.07916 3.05181 0
M  V30 3385 H 313.328 1.18428 3.5486 0
M  V30 3386 H 314.661 1.53946 4.67506 0
M  V30 3387 N 316.313 -1.40141 0.720998 0
M  V30 3388 C 317.261 -2.3252 0.0608547 0
M  V30 3389 C 318.255 -1.52326 -0.741152 0
M  V30 3390 O 319.461 -1.68089 -0.643911 0
M  V30 3391 H 315.836 -0.751999 0.000876664 0
M  V30 3392 H 317.807 -2.8584 0.856614 0
M  V30 3393 C 316.556 -3.37331 -0.842809 0
M  V30 3394 H 315.879 -3.99108 -0.235084 0
M  V30 3395 H 317.319 -4.04452 -1.27257 0
M  V30 3396 C 315.778 -2.73246 -1.97074 0
M  V30 3397 O 316.308 -2.59998 -3.06209 0
M  V30 3398 N 314.514 -2.31547 -1.75597 0
M  V30 3399 H 314.061 -2.42522 -0.868368 0
M  V30 3400 H 314.019 -1.89007 -2.51244 0
M  V30 3401 N 317.792 -0.46758 -1.50504 0
M  V30 3402 C 319.04 0.0884469 -2.01906 0
M  V30 3403 C 319.361 1.40532 -1.35188 0
M  V30 3404 O 318.631 1.89515 -0.496079 0
M  V30 3405 H 317.211 0.0356765 -0.746148 0
M  V30 3406 H 319.873 -0.6172 -1.84869 0
M  V30 3407 H 318.969 0.2425 -3.11156 0
M  V30 3408 N 319.27 1.56325 -0.20005 0
M  V30 3409 C 320.517 1.97719 0.437411 0
M  V30 3410 C 320.845 1.08709 1.61284 0
M  V30 3411 O 320.1 0.127261 1.95286 0
M  V30 3412 C 320.399 3.4495 0.935103 0
M  V30 3413 C 320.065 4.5072 -0.12749 0
M  V30 3414 C 318.727 4.79368 -0.419451 0
M  V30 3415 C 321.079 5.14268 -0.847231 0
M  V30 3416 C 318.407 5.68854 -1.43604 0
M  V30 3417 C 320.759 6.04852 -1.85301 0
M  V30 3418 C 319.423 6.31855 -2.15211 0
M  V30 3419 H 318.693 0.723507 0.16006 0
M  V30 3420 H 321.34 1.89166 -0.298056 0
M  V30 3421 H 319.645 3.50599 1.74894 0
M  V30 3422 H 321.342 3.74337 1.43781 0
M  V30 3423 H 317.932 4.28458 0.11023 0
M  V30 3424 H 322.116 4.92222 -0.634901 0
M  V30 3425 H 317.372 5.88047 -1.67364 0
M  V30 3426 H 321.546 6.53152 -2.41591 0
M  V30 3427 H 319.173 7.00994 -2.94129 0
M  V30 3428 N 320.748 -0.0735177 1.57428 0
M  V30 3429 C 322.025 -0.805903 1.78226 0
M  V30 3430 C 322.405 -1.95874 0.787189 0
M  V30 3431 O 321.753 -2.2779 -0.180029 0
M  V30 3432 C 321.963 -1.28045 3.24662 0
M  V30 3433 C 323.311 -1.71453 3.88444 0
M  V30 3434 O 324.335 -1.37616 3.28543 0
M  V30 3435 O 323.194 -2.34093 4.93825 0
M  V30 3436 H 320.288 -0.386041 0.73137 0
M  V30 3437 H 322.834 -0.0537269 1.69615 0
M  V30 3438 H 321.606 -0.455476 3.8864 0
M  V30 3439 H 321.229 -2.094 3.37991 0
M  V30 3440 N 322.226 -1.5378 -0.344866 0
M  V30 3441 C 323.174 -1.82373 -1.4437 0
M  V30 3442 C 324.168 -0.694128 -1.54526 0
M  V30 3443 O 325.374 -0.877442 -1.57165 0
M  V30 3444 H 321.749 -0.577765 -0.481344 0
M  V30 3445 H 323.72 -2.74306 -1.17468 0
M  V30 3446 C 322.469 -2.04898 -2.80913 0
M  V30 3447 H 321.792 -2.9127 -2.73865 0
M  V30 3448 H 323.232 -2.28871 -3.56923 0
M  V30 3449 C 321.691 -0.834116 -3.26411 0
M  V30 3450 O 322.221 -0.0328885 -4.01687 0
M  V30 3451 N 320.427 -0.65171 -2.83198 0
M  V30 3452 H 319.974 -1.30489 -2.22104 0
M  V30 3453 H 319.932 0.159686 -3.13994 0
M  V30 3454 N 323.704 0.605807 -1.45491 0
M  V30 3455 C 324.667 1.69836 -1.5391 0
M  V30 3456 C 325.667 1.55261 -0.418424 0
M  V30 3457 O 326.857 1.60296 -0.681965 0
M  V30 3458 C 323.989 3.09117 -1.43734 0
M  V30 3459 H 325.182 1.63738 -2.51257 0
M  V30 3460 H 322.735 0.821689 -1.32959 0
M  V30 3461 H 323.47 3.20791 -0.475788 0
M  V30 3462 H 323.255 3.21104 -2.25021 0
M  V30 3463 H 324.745 3.88696 -1.52661 0
M  V30 3464 N 325.182 1.32811 0.848464 0
M  V30 3465 C 326.132 1.18842 1.94578 0
M  V30 3466 C 327.116 0.0937517 1.60627 0
M  V30 3467 O 328.308 0.320887 1.74067 0
M  V30 3468 C 325.437 0.91999 3.30743 0
M  V30 3469 C 324.523 2.05665 3.70894 0
M  V30 3470 N 324.914 3.30579 3.8282 0
M  V30 3471 C 323.212 1.9612 4.00566 0
M  V30 3472 C 323.913 4.05067 4.17487 0
M  V30 3473 N 322.889 3.33419 4.2934 0
M  V30 3474 H 326.691 2.13536 2.0194 0
M  V30 3475 H 324.205 1.2468 1.0406 0
M  V30 3476 H 326.202 0.800859 4.09136 0
M  V30 3477 H 324.862 -0.0185076 3.24695 0
M  V30 3478 H 325.873 3.65441 3.66978 0
M  V30 3479 H 322.55 1.09871 4.02784 0
M  V30 3480 H 323.94 5.12815 4.34131 0
M  V30 3481 N 326.66 -1.06551 1.16123 0
M  V30 3482 C 327.909 -1.78687 0.935622 0
M  V30 3483 C 328.222 -1.88056 -0.538001 0
M  V30 3484 O 329.428 -2.56794 -0.88143 0
M  V30 3485 C 327.884 -3.21143 1.62466 0
M  V30 3486 C 327.492 -3.19949 3.13587 0
M  V30 3487 C 329.236 -3.9783 1.48092 0
M  V30 3488 C 327.143 -4.57108 3.75241 0
M  V30 3489 H 326.073 -0.669712 0.346412 0
M  V30 3490 H 328.724 -1.19534 1.39226 0
M  V30 3491 H 327.106 -3.80539 1.09572 0
M  V30 3492 H 328.28 -2.70151 3.73303 0
M  V30 3493 H 326.595 -2.5676 3.27816 0
M  V30 3494 H 329.192 -4.99217 1.91538 0
M  V30 3495 H 329.535 -4.14078 0.429507 0
M  V30 3496 H 330.068 -3.4495 1.98127 0
M  V30 3497 H 326.807 -4.46065 4.80319 0
M  V30 3498 H 326.327 -5.07111 3.20309 0
M  V30 3499 H 328.006 -5.26069 3.76644 0
M  V30 3500 N 328.138 -0.959301 -1.25041 0
M  V30 3501 C 329.068 -0.501388 -2.28053 0
M  V30 3502 C 330.049 0.454673 -1.63911 0
M  V30 3503 O 331.234 0.352618 -1.90972 0
M  V30 3504 C 328.364 0.217224 -3.4662 0
M  V30 3505 C 327.318 -0.654034 -4.22973 0
M  V30 3506 C 326.644 0.195589 -5.34342 0
M  V30 3507 C 327.944 -1.93447 -4.85155 0
M  V30 3508 H 329.638 -1.36238 -2.66608 0
M  V30 3509 H 327.184 -0.656534 -1.28163 0
M  V30 3510 H 329.137 0.548732 -4.17812 0
M  V30 3511 H 327.861 1.1125 -3.07068 0
M  V30 3512 H 326.52 -0.968693 -3.5357 0
M  V30 3513 H 326.168 1.09076 -4.91031 0
M  V30 3514 H 325.868 -0.384091 -5.86343 0
M  V30 3515 H 327.392 0.521958 -6.08365 0
M  V30 3516 H 328.806 -1.66908 -5.48466 0
M  V30 3517 H 327.203 -2.46018 -5.47353 0
M  V30 3518 H 328.273 -2.63466 -4.07079 0
M  V30 3519 N 329.616 1.39756 -0.72842 0
M  V30 3520 C 330.862 2.00942 -0.273892 0
M  V30 3521 C 331.195 1.57656 1.13394 0
M  V30 3522 O 330.47 0.802434 1.77176 0
M  V30 3523 C 330.753 3.58211 -0.368346 0
M  V30 3524 C 330.606 4.11534 -1.81548 0
M  V30 3525 C 331.925 4.39372 0.253054 0
M  V30 3526 H 329.044 0.730047 -0.100996 0
M  V30 3527 H 331.686 1.66056 -0.923337 0
M  V30 3528 H 329.836 3.88061 0.184588 0
M  V30 3529 H 331.508 3.92431 -2.42478 0
M  V30 3530 H 329.751 3.65341 -2.33898 0
M  V30 3531 H 330.422 5.20682 -1.83288 0
M  V30 3532 H 332.898 4.15527 -0.218224 0
M  V30 3533 H 331.774 5.48677 0.156585 0
M  V30 3534 H 332.035 4.21358 1.33826 0
M  V30 3535 N 331.094 0.475555 1.50254 0
M  V30 3536 C 332.044 -0.335025 2.25525 0
M  V30 3537 C 333.028 -0.957625 1.29299 0
M  V30 3538 O 334.22 -0.869436 1.54175 0
M  V30 3539 C 331.349 -1.41385 3.12834 0
M  V30 3540 C 330.435 -0.798762 4.1651 0
M  V30 3541 N 330.826 0.0835815 5.05731 0
M  V30 3542 C 329.124 -1.06221 4.33166 0
M  V30 3543 C 329.825 0.433113 5.80085 0
M  V30 3544 N 328.801 -0.1928 5.43258 0
M  V30 3545 H 332.603 0.344612 2.91873 0
M  V30 3546 H 330.117 0.289986 1.5979 0
M  V30 3547 H 332.114 -2.00777 3.65368 0
M  V30 3548 H 330.774 -2.09543 2.48036 0
M  V30 3549 H 331.785 0.452715 5.15918 0
M  V30 3550 H 328.462 -1.73844 3.79585 0
M  V30 3551 H 329.852 1.15346 6.61925 0
M  V30 3552 N 332.573 -1.56217 0.208337 0
M  V30 3553 C 333.52 -2.19699 -0.707192 0
M  V30 3554 C 334.49 -1.14836 -1.20008 0
M  V30 3555 O 335.675 -1.4314 -1.26157 0
M  V30 3556 C 332.815 -2.87061 -1.91546 0
M  V30 3557 C 331.928 -4.06483 -1.46271 0
M  V30 3558 C 331.063 -4.61665 -2.62752 0
M  V30 3559 C 330.102 -5.73417 -2.14147 0
M  V30 3560 N 329.239 -6.22948 -3.23853 0
M  V30 3561 H 334.079 -2.97575 -0.159111 0
M  V30 3562 H 331.616 -1.46948 -0.0667874 0
M  V30 3563 H 333.574 -3.24294 -2.62468 0
M  V30 3564 H 332.204 -2.11725 -2.43664 0
M  V30 3565 H 331.256 -3.74825 -0.648886 0
M  V30 3566 H 332.568 -4.87271 -1.06622 0
M  V30 3567 H 331.722 -5.01272 -3.41776 0
M  V30 3568 H 330.461 -3.80013 -3.05682 0
M  V30 3569 H 329.466 -5.33326 -1.33581 0
M  V30 3570 H 330.691 -6.56897 -1.72232 0
M  V30 3571 H 328.637 -5.44213 -3.6629 0
M  V30 3572 H 328.554 -6.98823 -2.88414 0
M  V30 3573 H 329.822 -6.6721 -4.03052 0
M  V30 3574 N 334.051 0.0651679 -1.57465 0
M  V30 3575 C 335.328 0.79644 -1.78651 0
M  V30 3576 C 335.708 1.95454 -0.797566 0
M  V30 3577 O 335.056 2.27882 0.167946 0
M  V30 3578 C 335.266 1.26322 -3.25337 0
M  V30 3579 C 336.614 1.6939 -3.89348 0
M  V30 3580 O 337.638 1.35872 -3.29268 0
M  V30 3581 O 336.497 2.31471 -4.95059 0
M  V30 3582 H 333.591 0.382157 -0.733407 0
M  V30 3583 H 336.137 0.0447311 -1.69641 0
M  V30 3584 H 334.909 0.434859 -3.88876 0
M  V30 3585 H 334.532 2.07604 -3.39096 0
M  V30 3586 N 335.529 1.53961 0.336706 0
M  V30 3587 C 336.477 1.83136 1.43401 0
M  V30 3588 C 337.471 0.702313 1.54156 0
M  V30 3589 O 338.677 0.885765 1.56698 0
M  V30 3590 H 335.052 0.580309 0.478273 0
M  V30 3591 H 337.023 2.74925 1.16012 0
M  V30 3592 C 335.772 2.06385 2.79822 0
M  V30 3593 H 335.095 2.92718 2.72316 0
M  V30 3594 H 336.535 2.30761 3.55704 0
M  V30 3595 C 334.994 0.851414 3.25964 0
M  V30 3596 O 335.524 0.0541904 4.01663 0
M  V30 3597 N 333.73 0.66672 2.82848 0
M  V30 3598 H 333.277 1.31665 2.21409 0
M  V30 3599 H 333.235 -0.143032 3.14074 0
M  V30 3600 N 337.007 -0.598083 1.45811 0
M  V30 3601 C 338.235 -1.38322 1.53866 0
M  V30 3602 C 338.65 -1.87992 0.174479 0
M  V30 3603 O 338.007 -1.62756 -0.825627 0
M  V30 3604 C 338.058 -2.58125 2.53089 0
M  V30 3605 O 337.779 -2.10516 3.84206 0
M  V30 3606 C 339.28 -3.50869 2.70935 0
M  V30 3607 H 336.5 -0.423093 0.520801 0
M  V30 3608 H 339.044 -0.728527 1.91083 0
M  V30 3609 H 337.199 -3.19615 2.18917 0
M  V30 3610 H 337.613 -2.88425 4.38077 0
M  V30 3611 H 339.087 -4.31451 3.44317 0
M  V30 3612 H 339.564 -4.01822 1.77301 0
M  V30 3613 H 340.17 -2.95225 3.06141 0
M  V30 3614 N 338.485 -1.33259 -0.841409 0
M  V30 3615 C 339.734 -1.23921 -1.59143 0
M  V30 3616 C 340.047 0.1941 -1.94635 0
M  V30 3617 O 341.253 0.409474 -2.68394 0
M  V30 3618 C 339.709 -2.17119 -2.87032 0
M  V30 3619 C 339.317 -3.65606 -2.58914 0
M  V30 3620 C 341.061 -2.16648 -3.65053 0
M  V30 3621 C 338.968 -4.50726 -3.82884 0
M  V30 3622 H 337.898 -0.460264 -0.597221 0
M  V30 3623 H 340.549 -1.58307 -0.927959 0
M  V30 3624 H 338.931 -1.75663 -3.54906 0
M  V30 3625 H 340.105 -4.15487 -1.99267 0
M  V30 3626 H 338.42 -3.68341 -1.942 0
M  V30 3627 H 341.017 -2.77474 -4.57069 0
M  V30 3628 H 341.36 -1.16088 -3.99787 0
M  V30 3629 H 341.893 -2.56453 -3.041 0
M  V30 3630 H 338.632 -5.52151 -3.53283 0
M  V30 3631 H 338.152 -4.0559 -4.41879 0
M  V30 3632 H 339.831 -4.64401 -4.50489 0
M  V30 3633 N 339.963 1.05934 -1.16686 0
M  V30 3634 C 341.209 1.79065 -0.95203 0
M  V30 3635 C 341.542 1.87147 0.518629 0
M  V30 3636 O 340.817 1.36574 1.38484 0
M  V30 3637 C 341.1 3.23359 -1.58464 0
M  V30 3638 C 340.953 3.23336 -3.12689 0
M  V30 3639 C 342.272 4.21004 -1.28232 0
M  V30 3640 H 339.391 0.65005 -0.34728 0
M  V30 3641 H 342.033 1.23868 -1.44072 0
M  V30 3642 H 340.183 3.70493 -1.16908 0
M  V30 3643 H 341.855 2.84336 -3.6325 0
M  V30 3644 H 340.098 2.61886 -3.4583 0
M  V30 3645 H 340.769 4.25144 -3.52075 0
M  V30 3646 H 343.245 3.8233 -1.64203 0
M  V30 3647 H 342.121 5.20225 -1.75092 0
M  V30 3648 H 342.382 4.41639 -0.201791 0
M  V30 3649 N 341.441 0.965919 1.2453 0
M  V30 3650 C 342.391 0.465731 2.23193 0
M  V30 3651 C 343.375 -0.451277 1.54442 0
M  V30 3652 O 344.567 -0.282489 1.74731 0
M  V30 3653 C 341.696 -0.244511 3.42428 0
M  V30 3654 C 340.782 0.691222 4.18429 0
M  V30 3655 N 341.173 1.82771 4.71623 0
M  V30 3656 C 339.471 0.501649 4.4317 0
M  V30 3657 C 340.172 2.41285 5.29298 0
M  V30 3658 N 339.148 1.69819 5.16394 0
M  V30 3659 H 342.95 1.33291 2.61937 0
M  V30 3660 H 340.464 0.824789 1.39896 0
M  V30 3661 H 342.461 -0.620056 4.12263 0
M  V30 3662 H 341.121 -1.10815 3.05205 0
M  V30 3663 H 342.132 2.20929 4.68413 0
M  V30 3664 H 338.809 -0.318177 4.16286 0
M  V30 3665 H 340.199 3.37181 5.8117 0
M  V30 3666 N 342.919 -1.39368 0.735821 0
M  V30 3667 C 343.882 -2.2896 0.104874 0
M  V30 3668 C 344.882 -1.46347 -0.666274 0
M  V30 3669 O 346.072 -1.67014 -0.49517 0
M  V30 3670 C 343.204 -3.29857 -0.860656 0
M  V30 3671 H 344.397 -2.86259 0.894205 0
M  V30 3672 H 341.95 -1.48029 0.501704 0
M  V30 3673 H 342.685 -2.77615 -1.67631 0
M  V30 3674 H 342.47 -3.9087 -0.310327 0
M  V30 3675 H 343.96 -3.96893 -1.29867 0
M  V30 3676 N 344.397 -0.483516 -1.5 0
M  V30 3677 C 345.33 0.350427 -2.25493 0
M  V30 3678 C 346.308 0.985549 -1.29328 0
M  V30 3679 O 347.492 1.01906 -1.58579 0
M  V30 3680 C 344.619 1.49202 -3.04066 0
M  V30 3681 C 343.665 0.973036 -4.15252 0
M  V30 3682 S 344.498 -0.122237 -5.3536 0
M  V30 3683 C 345.654 1.02294 -6.17484 0
M  V30 3684 H 345.887 -0.290381 -2.95878 0
M  V30 3685 H 343.42 -0.268562 -1.52046 0
M  V30 3686 H 345.378 2.14623 -3.49925 0
M  V30 3687 H 344.039 2.10438 -2.33183 0
M  V30 3688 H 343.232 1.82804 -4.69679 0
M  V30 3689 H 342.834 0.396335 -3.71894 0
M  V30 3690 H 345.126 1.93195 -6.49371 0
M  V30 3691 H 346.069 0.517664 -7.06205 0
M  V30 3692 H 346.477 1.28238 -5.49741 0
M  V30 3693 N 345.875 1.56104 -0.216619 0
M  V30 3694 C 347.152 1.89988 0.465165 0
M  V30 3695 C 347.532 1.13326 1.78102 0
M  V30 3696 O 346.88 0.241033 2.27225 0
M  V30 3697 C 347.09 3.42646 0.662939 0
M  V30 3698 C 348.438 4.13311 0.972602 0
M  V30 3699 O 349.462 3.48217 0.749901 0
M  V30 3700 O 348.321 5.28396 1.39499 0
M  V30 3701 H 345.415 0.78979 0.245276 0
M  V30 3702 H 347.961 1.67721 -0.258436 0
M  V30 3703 H 346.733 3.90399 -0.26543 0
M  V30 3704 H 346.356 3.70677 1.43821 0
M  V30 3705 N 347.353 -0.0568162 1.57498 0
M  V30 3706 C 348.599 -0.748893 1.89111 0
M  V30 3707 C 348.954 -1.74422 0.81208 0
M  V30 3708 O 348.247 -1.90731 -0.182247 0
M  V30 3709 C 348.441 -1.48359 3.25153 0
M  V30 3710 C 348.27 -0.560924 4.46188 0
M  V30 3711 C 347.04 -0.192264 5.04934 0
M  V30 3712 C 349.238 0.148824 5.14085 0
M  V30 3713 N 347.22 0.734555 6.0949 0
M  V30 3714 C 348.591 0.932286 6.12951 0
M  V30 3715 C 350.646 0.218713 4.97419 0
M  V30 3716 C 349.349 1.77917 6.96949 0
M  V30 3717 C 351.375 1.05262 5.81957 0
M  V30 3718 C 350.737 1.82409 6.80372 0
M  V30 3719 H 346.836 -0.249002 0.741298 0
M  V30 3720 H 349.42 -0.00984926 1.94698 0
M  V30 3721 H 347.591 -2.19326 3.20547 0
M  V30 3722 H 349.323 -2.12586 3.44368 0
M  V30 3723 H 346.078 -0.548421 4.70414 0
M  V30 3724 H 346.502 1.19165 6.6643 0
M  V30 3725 H 351.144 -0.363407 4.21235 0
M  V30 3726 H 348.862 2.3722 7.72497 0
M  V30 3727 H 352.448 1.10987 5.71116 0
M  V30 3728 H 351.328 2.45895 7.44651 0
M  V30 3729 N 348.832 -1.54138 -0.328536 0
M  V30 3730 C 350.078 -1.7236 -1.06865 0
M  V30 3731 C 350.411 -0.493231 -1.87832 0
M  V30 3732 O 349.686 0.5098 -1.877 0
M  V30 3733 C 349.969 -2.99621 -1.99747 0
M  V30 3734 C 349.822 -4.32899 -1.22143 0
M  V30 3735 C 351.141 -3.22615 -2.99345 0
M  V30 3736 H 348.26 -0.627151 -0.387105 0
M  V30 3737 H 350.902 -1.86827 -0.345767 0
M  V30 3738 H 349.052 -2.87418 -2.61387 0
M  V30 3739 H 350.724 -4.56978 -0.630017 0
M  V30 3740 H 348.967 -4.30628 -0.523628 0
M  V30 3741 H 349.638 -5.18154 -1.90318 0
M  V30 3742 H 352.114 -3.34248 -2.47826 0
M  V30 3743 H 350.99 -4.13027 -3.61524 0
M  V30 3744 H 351.251 -2.3961 -3.71536 0
M  V30 3745 N 350.31 0.590341 -1.46126 0
M  V30 3746 C 351.24 1.71032 -1.58966 0
M  V30 3747 C 352.221 1.64302 -0.440335 0
M  V30 3748 O 353.406 1.82436 -0.665634 0
M  V30 3749 C 350.536 3.09665 -1.57241 0
M  V30 3750 C 349.49 3.31221 -2.71066 0
M  V30 3751 C 348.816 4.70303 -2.54399 0
M  V30 3752 C 350.116 3.19796 -4.1295 0
M  V30 3753 H 351.81 1.60543 -2.52718 0
M  V30 3754 H 349.356 0.770933 -1.21625 0
M  V30 3755 H 351.309 3.87831 -1.64819 0
M  V30 3756 H 350.033 3.21036 -0.600289 0
M  V30 3757 H 348.692 2.55452 -2.62944 0
M  V30 3758 H 348.34 4.78429 -1.55288 0
M  V30 3759 H 348.04 4.85679 -3.30741 0
M  V30 3760 H 349.564 5.50647 -2.63857 0
M  V30 3761 H 350.978 3.87815 -4.22223 0
M  V30 3762 H 349.375 3.46696 -4.89818 0
M  V30 3763 H 350.445 2.16983 -4.33643 0
M  V30 3764 N 351.788 1.33704 0.83433 0
M  V30 3765 C 353.199 1.22813 1.4062 0
M  V30 3766 C 353.55 -0.151107 1.95617 0
M  V30 3767 O 352.675 -1.05092 1.89168 0
M  V30 3768 C 353.27 2.22355 2.55624 0
M  V30 3769 C 351.829 2.1529 3.08751 0
M  V30 3770 C 350.976 2.09589 1.8157 0
M  V30 3771 H 353.927 1.45236 0.639702 0
M  V30 3772 H 353.948 1.83391 3.33389 0
M  V30 3773 H 353.46 3.22728 2.15566 0
M  V30 3774 H 351.561 1.18235 3.53343 0
M  V30 3775 H 351.674 3.06038 3.68616 0
M  V30 3776 H 350.038 1.55134 2.02004 0
M  V30 3777 H 350.821 3.11777 1.43701 0
M  V30 3778 N 353.266 -1.05314 1.17247 0
M  V30 3779 C 354.196 -2.1498 0.911362 0
M  V30 3780 C 355.177 -1.69471 -0.146169 0
M  V30 3781 O 356.362 -1.942 0.003812 0
M  V30 3782 C 353.492 -3.4472 0.422528 0
M  V30 3783 C 352.446 -4.03789 1.4191 0
M  V30 3784 C 351.772 -5.28858 0.788274 0
M  V30 3785 C 353.072 -4.41418 2.7919 0
M  V30 3786 H 354.766 -2.3708 1.82848 0
M  V30 3787 H 352.312 -1.13938 0.880569 0
M  V30 3788 H 354.265 -4.20787 0.227289 0
M  V30 3789 H 352.989 -3.22269 -0.530123 0
M  V30 3790 H 351.648 -3.2979 1.60106 0
M  V30 3791 H 351.296 -5.02709 -0.171173 0
M  V30 3792 H 350.996 -5.69338 1.45353 0
M  V30 3793 H 352.52 -6.07612 0.603282 0
M  V30 3794 H 353.934 -5.08524 2.64719 0
M  V30 3795 H 352.331 -4.92913 3.42282 0
M  V30 3796 H 353.401 -3.51819 3.33693 0
M  V30 3797 N 354.744 -0.972509 -1.24016 0
M  V30 3798 C 355.992 -0.635776 -1.91839 0
M  V30 3799 C 356.313 0.832312 -1.76345 0
M  V30 3800 O 355.583 1.5946 -1.13795 0
M  V30 3801 H 354.163 -0.232157 -0.710009 0
M  V30 3802 H 356.825 -1.23462 -1.50809 0
M  V30 3803 H 355.921 -0.880545 -2.99421 0
M  V30 3804 N 356.222 1.38976 -0.743202 0
M  V30 3805 C 357.152 2.33171 -0.123873 0
M  V30 3806 C 358.133 1.54336 0.71516 0
M  V30 3807 O 359.318 1.82696 0.658467 0
M  V30 3808 C 356.448 3.38474 0.777978 0
M  V30 3809 C 355.402 4.27979 0.0424758 0
M  V30 3810 C 354.728 5.2405 1.06189 0
M  V30 3811 C 356.028 5.10155 -1.1198 0
M  V30 3812 H 357.722 2.85213 -0.910709 0
M  V30 3813 H 355.268 1.37133 -0.439388 0
M  V30 3814 H 357.221 4.03328 1.22084 0
M  V30 3815 H 355.945 2.84891 1.59702 0
M  V30 3816 H 354.604 3.64616 -0.380853 0
M  V30 3817 H 354.252 4.66758 1.87472 0
M  V30 3818 H 353.952 5.84785 0.574485 0
M  V30 3819 H 355.476 5.9178 1.50428 0
M  V30 3820 H 356.89 5.68307 -0.75499 0
M  V30 3821 H 355.287 5.80073 -1.53738 0
M  V30 3822 H 356.357 4.44504 -1.93764 0
M  V30 3823 N 357.7 0.491464 1.49741 0
M  V30 3824 C 358.63 -0.28154 2.31796 0
M  V30 3825 C 359.611 -0.971473 1.3963 0
M  V30 3826 O 360.796 -0.964719 1.68543 0
M  V30 3827 C 357.926 -1.35203 3.19902 0
M  V30 3828 C 356.88 -0.782529 4.20786 0
M  V30 3829 C 356.206 -1.95283 4.97764 0
M  V30 3830 C 357.506 0.21999 5.21837 0
M  V30 3831 H 359.2 0.403355 2.96671 0
M  V30 3832 H 356.746 0.195425 1.42668 0
M  V30 3833 H 358.699 -1.90045 3.76113 0
M  V30 3834 H 357.423 -2.06598 2.52953 0
M  V30 3835 H 356.082 -0.255928 3.65706 0
M  V30 3836 H 355.73 -2.65423 4.2727 0
M  V30 3837 H 355.43 -1.57789 5.66018 0
M  V30 3838 H 356.954 -2.50577 5.56816 0
M  V30 3839 H 358.368 -0.23996 5.72798 0
M  V30 3840 H 356.765 0.51026 5.97927 0
M  V30 3841 H 357.835 1.13911 4.7133 0
M  V30 3842 N 359.178 -1.55987 0.224894 0
M  V30 3843 C 360.589 -1.84553 -0.282345 0
M  V30 3844 C 360.94 -1.14634 -1.59227 0
M  V30 3845 O 360.065 -0.417155 -2.12341 0
M  V30 3846 C 360.66 -3.348 -0.519062 0
M  V30 3847 C 359.219 -3.63671 -0.970604 0
M  V30 3848 C 358.366 -2.77277 -0.0355261 0
M  V30 3849 H 361.317 -1.52245 0.448006 0
M  V30 3850 H 361.338 -3.55187 -1.36463 0
M  V30 3851 H 360.85 -3.8566 0.43449 0
M  V30 3852 H 358.951 -3.1827 -1.9374 0
M  V30 3853 H 359.064 -4.71631 -0.842698 0
M  V30 3854 H 357.428 -2.48846 -0.542927 0
M  V30 3855 H 358.211 -3.30937 0.913003 0
M  V30 3856 N 360.656 0.0484629 -1.57525 0
M  V30 3857 C 361.884 0.755421 -1.92616 0
M  V30 3858 C 362.299 1.69919 -0.822984 0
M  V30 3859 O 361.656 1.81378 0.202085 0
M  V30 3860 C 361.707 1.52915 -3.27566 0
M  V30 3861 O 361.428 0.62329 -4.33644 0
M  V30 3862 C 362.929 2.33502 -3.76818 0
M  V30 3863 H 360.149 0.213465 -0.63614 0
M  V30 3864 H 362.693 0.0117698 -2.04497 0
M  V30 3865 H 360.848 2.22486 -3.17142 0
M  V30 3866 H 361.262 1.16383 -5.11425 0
M  V30 3867 H 362.736 2.83214 -4.73808 0
M  V30 3868 H 363.213 3.14068 -3.07014 0
M  V30 3869 H 363.819 1.69043 -3.90262 0
M  V30 3870 N 362.134 1.5431 0.320358 0
M  V30 3871 C 363.359 1.76954 1.08175 0
M  V30 3872 C 363.784 0.518193 1.80821 0
M  V30 3873 O 363.142 -0.530411 1.73368 0
M  V30 3874 C 363.19 2.96451 2.05303 0
M  V30 3875 O 362.294 2.68221 3.13259 0
M  V30 3876 H 361.635 0.586275 0.311733 0
M  V30 3877 H 364.165 2.01342 0.363676 0
M  V30 3878 H 364.175 3.23887 2.48116 0
M  V30 3879 H 362.85 3.87196 1.51829 0
M  V30 3880 H 361.427 2.51744 2.75099 0
M  V30 3881 N 363.613 -0.582584 1.46437 0
M  V30 3882 C 364.89 -1.34276 1.4223 0
M  V30 3883 C 365.27 -2.10835 0.10583 0
M  V30 3884 O 364.618 -2.09485 -0.912596 0
M  V30 3885 C 364.828 -2.26865 2.65204 0
M  V30 3886 C 366.176 -2.88691 3.11356 0
M  V30 3887 O 367.2 -2.37178 2.65753 0
M  V30 3888 O 366.059 -3.82255 3.90568 0
M  V30 3889 H 363.153 -0.603326 0.565621 0
M  V30 3890 H 365.699 -0.603591 1.58603 0
M  V30 3891 H 364.471 -1.69724 3.52576 0
M  V30 3892 H 364.094 -3.08122 2.5129 0
M  V30 3893 N 365.091 -1.34144 -0.827227 0
M  V30 3894 C 366.368 -1.16844 -1.56865 0
M  V30 3895 C 366.748 0.260654 -2.09485 0
M  V30 3896 O 366.096 1.26138 -1.9053 0
M  V30 3897 C 366.306 -2.21939 -2.6934 0
M  V30 3898 C 367.654 -2.56695 -3.3822 0
M  V30 3899 O 368.678 -2.20695 -2.79593 0
M  V30 3900 O 367.537 -3.18518 -4.44082 0
M  V30 3901 H 364.631 -0.452669 -0.692112 0
M  V30 3902 H 367.177 -1.45763 -0.868973 0
M  V30 3903 H 365.949 -3.17882 -2.28182 0
M  V30 3904 H 365.572 -1.94172 -3.46962 0
M  V30 3905 N 366.569 1.04691 -1.17803 0
M  V30 3906 C 367.809 1.79352 -0.980423 0
M  V30 3907 C 368.173 1.85853 0.481958 0
M  V30 3908 O 369.374 2.56656 0.798809 0
M  V30 3909 C 367.645 3.19088 -1.6099 0
M  V30 3910 S 369.204 4.10164 -1.55918 0
M  V30 3911 H 366.022 0.617631 -0.352211 0
M  V30 3912 H 368.624 1.25575 -1.49837 0
M  V30 3913 H 367.328 3.11962 -2.66661 0
M  V30 3914 H 366.859 3.77941 -1.09197 0
M  V30 3915 H 368.874 4.92907 -0.570685 0
M  V30 3916 N 368.047 0.979072 1.23499 0
M  V30 3917 C 369.296 0.642751 1.91185 0
M  V30 3918 C 369.609 -0.827253 1.77245 0
M  V30 3919 O 370.815 -1.27458 2.39722 0
M  V30 3920 C 369.271 1.09901 3.42709 0
M  V30 3921 C 368.879 2.59327 3.65313 0
M  V30 3922 C 370.623 0.836371 4.16179 0
M  V30 3923 C 368.53 2.98627 5.10467 0
M  V30 3924 H 367.46 0.236698 0.715884 0
M  V30 3925 H 370.111 1.1868 1.39955 0
M  V30 3926 H 368.493 0.48319 3.93041 0
M  V30 3927 H 369.667 3.26136 3.25533 0
M  V30 3928 H 367.982 2.83323 3.05151 0
M  V30 3929 H 370.579 1.10586 5.23139 0
M  V30 3930 H 370.922 -0.227509 4.15678 0
M  V30 3931 H 371.455 1.41371 3.71832 0
M  V30 3932 H 368.194 4.04133 5.16098 0
M  V30 3933 H 367.714 2.3651 5.51201 0
M  V30 3934 H 369.393 2.89159 5.78788 0
M  V30 3935 N 369.525 -1.3858 0.750561 0
M  V30 3936 C 370.488 -2.28836 0.129152 0
M  V30 3937 C 371.488 -1.47045 -0.650714 0
M  V30 3938 O 372.678 -1.6753 -0.477428 0
M  V30 3939 C 369.81 -3.30751 -0.825622 0
M  V30 3940 H 371.003 -2.85294 0.924516 0
M  V30 3941 H 368.556 -1.47489 0.517376 0
M  V30 3942 H 369.291 -2.79378 -1.64677 0
M  V30 3943 H 369.076 -3.91177 -0.268852 0
M  V30 3944 H 370.566 -3.98249 -1.2565 0
M  V30 3945 N 371.003 -0.499398 -1.49478 0
M  V30 3946 C 372.249 0.0457576 -2.02748 0
M  V30 3947 C 372.582 1.36793 -1.37846 0
M  V30 3948 O 371.857 1.87596 -0.513601 0
M  V30 3949 C 372.14 0.199986 -3.59544 0
M  V30 3950 C 371.993 -1.1452 -4.34977 0
M  V30 3951 C 373.312 0.94137 -4.29914 0
M  V30 3952 H 370.431 0.0151552 -0.736844 0
M  V30 3953 H 373.073 -0.650498 -1.78518 0
M  V30 3954 H 371.223 0.793007 -3.8032 0
M  V30 3955 H 372.895 -1.77697 -4.25701 0
M  V30 3956 H 371.138 -1.73488 -3.97598 0
M  V30 3957 H 371.809 -0.990607 -5.43039 0
M  V30 3958 H 374.285 0.43844 -4.13784 0
M  V30 3959 H 373.161 1.01812 -5.39375 0
M  V30 3960 H 373.422 1.98471 -3.95046 0
M  V30 3961 N 372.481 1.55866 -0.233164 0
M  V30 3962 C 373.727 1.98897 0.395959 0
M  V30 3963 C 374.06 1.12091 1.58585 0
M  V30 3964 O 373.335 0.181182 1.93654 0
M  V30 3965 C 373.618 3.50658 0.819224 0
M  V30 3966 C 373.471 4.48233 -0.375109 0
M  V30 3967 C 374.79 4.07135 1.67121 0
M  V30 3968 H 371.909 0.723102 0.142451 0
M  V30 3969 H 374.551 1.87082 -0.331725 0
M  V30 3970 H 372.701 3.60857 1.43925 0
M  V30 3971 H 374.373 4.50031 -1.01341 0
M  V30 3972 H 372.616 4.21624 -1.02058 0
M  V30 3973 H 373.287 5.51988 -0.0358328 0
M  V30 3974 H 375.763 3.99952 1.14795 0
M  V30 3975 H 374.639 5.13615 1.93625 0
M  V30 3976 H 374.9 3.54736 2.63846 0
M  V30 3977 N 373.959 -0.0401083 1.57549 0
M  V30 3978 C 374.869 -1.06133 2.0922 0
M  V30 3979 C 375.885 -1.40356 1.0284 0
M  V30 3980 O 377.061 -1.49897 1.34509 0
M  V30 3981 C 374.126 -2.34658 2.55218 0
M  V30 3982 C 373.187 -2.07117 3.76033 0
M  V30 3983 C 372.42 -3.29514 4.19829 0
M  V30 3984 O 372.643 -4.39794 3.63232 0
M  V30 3985 O 371.577 -3.15863 5.12362 0
M  V30 3986 H 375.403 -0.652244 2.96613 0
M  V30 3987 H 372.988 -0.256368 1.47184 0
M  V30 3988 H 374.87 -3.10239 2.85184 0
M  V30 3989 H 373.545 -2.74883 1.70941 0
M  V30 3990 H 372.452 -1.29139 3.51104 0
M  V30 3991 H 373.785 -1.71754 4.61261 0
M  V30 3992 N 375.437 -1.54477 -0.31217 0
M  V30 3993 C 376.714 -1.63891 -1.06767 0
M  V30 3994 C 377.094 -0.480028 -2.0557 0
M  V30 3995 O 376.442 0.524487 -2.22399 0
M  V30 3996 C 376.652 -3.01402 -1.75948 0
M  V30 3997 C 378 -3.57838 -2.28554 0
M  V30 3998 O 379.024 -3.03782 -1.85998 0
M  V30 3999 O 377.883 -4.52462 -3.06497 0
M  V30 4000 H 374.977 -0.664125 -0.492816 0
M  V30 4001 H 377.523 -1.66823 -0.311149 0
M  V30 4002 H 376.295 -3.77187 -1.04144 0
M  V30 4003 H 375.918 -3.02199 -2.58383 0
M  V30 4004 N 376.915 0.57481 -1.46744 0
M  V30 4005 C 378.192 1.3352 -1.4294 0
M  V30 4006 C 378.572 2.10775 -0.117009 0
M  V30 4007 O 377.92 2.09966 0.901474 0
M  V30 4008 C 378.13 2.25456 -2.66403 0
M  V30 4009 C 379.478 2.87035 -3.12883 0
M  V30 4010 O 380.502 2.35766 -2.67007 0
M  V30 4011 O 379.361 3.80179 -3.92589 0
M  V30 4012 H 376.455 0.600318 -0.568812 0
M  V30 4013 H 379.001 0.595171 -1.58921 0
M  V30 4014 H 377.773 1.67851 -3.53471 0
M  V30 4015 H 377.396 3.06785 -2.52921 0
M  V30 4016 N 378.394 1.34581 0.820102 0
M  V30 4017 C 379.671 1.17675 1.56244 0
M  V30 4018 C 380.051 -0.249541 2.0962 0
M  V30 4019 O 379.399 -1.25125 1.91196 0
M  V30 4020 C 379.609 2.23364 2.6816 0
M  V30 4021 C 380.957 2.58485 3.36854 0
M  V30 4022 O 381.981 2.22175 2.78418 0
M  V30 4023 O 380.84 3.20868 4.42386 0
M  V30 4024 H 377.934 0.456333 0.689702 0
M  V30 4025 H 380.48 1.46222 0.861231 0
M  V30 4026 H 379.252 3.19087 2.26493 0
M  V30 4027 H 378.875 1.96009 3.45928 0
M  V30 4028 N 379.872 -1.04064 1.18357 0
M  V30 4029 C 381.12 -1.76915 0.977013 0
M  V30 4030 C 381.441 -1.88624 -0.494577 0
M  V30 4031 O 380.711 -1.41125 -1.3587 0
M  V30 4032 H 379.291 -0.65535 0.358504 0
M  V30 4033 H 381.953 -1.25592 1.49039 0
M  V30 4034 H 381.049 -2.78178 1.41504 0
M  V30 4035 N 381.35 -0.985608 -1.22978 0
M  V30 4036 C 382.761 -0.693593 -1.73338 0
M  V30 4037 C 383.112 0.789935 -1.79595 0
M  V30 4038 O 382.237 1.61771 -1.43733 0
M  V30 4039 C 382.832 -1.25235 -3.14804 0
M  V30 4040 C 381.391 -1.00987 -3.626 0
M  V30 4041 C 380.538 -1.37695 -2.40698 0
M  V30 4042 H 383.489 -1.15884 -1.08428 0
M  V30 4043 H 383.51 -0.627329 -3.75293 0
M  V30 4044 H 383.022 -2.33209 -3.10218 0
M  V30 4045 H 381.123 0.0535565 -3.72562 0
M  V30 4046 H 381.236 -1.66812 -4.49122 0
M  V30 4047 H 379.6 -0.795459 -2.4196 0
M  V30 4048 H 380.383 -2.46657 -2.38779 0
M  V30 4049 N 382.828 1.3818 -0.7579 0
M  V30 4050 C 383.775 2.30416 -0.133057 0
M  V30 4051 C 384.745 1.50398 0.704957 0
M  V30 4052 O 385.93 1.79014 0.660192 0
M  V30 4053 C 383.07 3.36834 0.750813 0
M  V30 4054 C 382.183 4.31879 -0.102297 0
M  V30 4055 C 381.318 5.25368 0.784979 0
M  V30 4056 C 380.357 6.12058 -0.0715046 0
M  V30 4057 N 379.494 6.97832 0.772972 0
M  V30 4058 H 384.334 2.83274 -0.925186 0
M  V30 4059 H 381.871 1.39461 -0.467866 0
M  V30 4060 H 383.829 3.97145 1.27794 0
M  V30 4061 H 382.459 2.85374 1.50868 0
M  V30 4062 H 381.511 3.72991 -0.747095 0
M  V30 4063 H 382.823 4.92921 -0.763552 0
M  V30 4064 H 381.977 5.90818 1.37911 0
M  V30 4065 H 380.716 4.64703 1.47996 0
M  V30 4066 H 379.721 5.456 -0.678272 0
M  V30 4067 H 380.946 6.74793 -0.763606 0
M  V30 4068 H 378.892 6.3971 1.45282 0
M  V30 4069 H 378.809 7.55812 0.168709 0
M  V30 4070 H 380.077 7.67687 1.35194 0
M  V30 4071 N 384.306 0.507319 1.49211 0
M  V30 4072 C 385.554 -0.0348839 2.0207 0
M  V30 4073 C 385.875 -1.36898 1.38866 0
M  V30 4074 O 385.145 -1.88133 0.546151 0
M  V30 4075 H 383.725 -0.0158812 0.746831 0
M  V30 4076 H 386.387 0.665998 1.83168 0
M  V30 4077 H 385.483 -0.159917 3.1169 0
M  V30 4078 N 385.784 -1.5574 0.241426 0
M  V30 4079 C 386.717 -2.17168 -0.700935 0
M  V30 4080 C 387.695 -1.12206 -1.1768 0
M  V30 4081 O 388.879 -1.40565 -1.25593 0
M  V30 4082 C 386.006 -2.76796 -1.95196 0
M  V30 4083 C 385.052 -3.94764 -1.61442 0
M  V30 4084 S 385.885 -5.30613 -0.72182 0
M  V30 4085 C 387.041 -5.93691 -1.98197 0
M  V30 4086 H 387.274 -2.96761 -0.178882 0
M  V30 4087 H 384.807 -1.54378 0.0259299 0
M  V30 4088 H 386.765 -3.11787 -2.67019 0
M  V30 4089 H 385.426 -1.9716 -2.44514 0
M  V30 4090 H 384.619 -4.35057 -2.54443 0
M  V30 4091 H 384.221 -3.61022 -0.976672 0
M  V30 4092 H 386.513 -6.10874 -2.92983 0
M  V30 4093 H 387.456 -6.89258 -1.62262 0
M  V30 4094 H 387.864 -5.22709 -2.13156 0
M  V30 4095 N 387.262 0.0317525 -1.57568 0
M  V30 4096 C 388.195 1.06621 -2.0176 0
M  V30 4097 C 389.173 1.35323 -0.901462 0
M  V30 4098 O 390.357 1.48025 -1.16708 0
M  V30 4099 C 387.484 2.40155 -2.38837 0
M  V30 4100 C 386.53 2.27327 -3.60867 0
M  V30 4101 S 387.363 1.62925 -5.10113 0
M  V30 4102 C 388.519 2.97955 -5.5043 0
M  V30 4103 H 388.752 0.689781 -2.89187 0
M  V30 4104 H 386.285 0.24164 -1.52497 0
M  V30 4105 H 388.243 3.1695 -2.6087 0
M  V30 4106 H 386.904 2.74946 -1.51867 0
M  V30 4107 H 386.097 3.25898 -3.84456 0
M  V30 4108 H 385.699 1.58675 -3.38671 0
M  V30 4109 H 387.991 3.94285 -5.5095 0
M  V30 4110 H 388.934 2.79102 -6.50775 0
M  V30 4111 H 389.342 3.00404 -4.77931 0
M  V30 4112 N 388.74 1.54641 0.303973 0
M  V30 4113 C 389.672 1.81754 1.39636 0
M  V30 4114 C 390.685 0.70035 1.46966 0
M  V30 4115 O 391.874 0.97778 1.49338 0
M  V30 4116 C 388.974 1.93785 2.7803 0
M  V30 4117 C 388.147 3.24156 2.93669 0
M  V30 4118 C 387.206 3.26641 4.12544 0
M  V30 4119 O 386.232 4.00187 4.04771 0
M  V30 4120 N 387.434 2.5182 5.23036 0
M  V30 4121 H 390.199 2.76031 1.16734 0
M  V30 4122 H 387.76 1.54178 0.494033 0
M  V30 4123 H 389.752 1.92852 3.55795 0
M  V30 4124 H 388.322 1.06515 2.93893 0
M  V30 4125 H 387.542 3.37887 2.03042 0
M  V30 4126 H 388.83 4.10195 3.01027 0
M  V30 4127 H 388.228 1.91692 5.32232 0
M  V30 4128 H 386.785 2.56644 5.99147 0
M  V30 4129 N 390.218 -0.567019 1.47046 0
M  V30 4130 C 391.464 -1.32434 1.54379 0
M  V30 4131 C 391.819 -1.91365 0.199276 0
M  V30 4132 O 391.112 -1.74378 -0.793915 0
M  V30 4133 C 391.306 -2.4623 2.59047 0
M  V30 4134 C 391.135 -1.98448 4.03545 0
M  V30 4135 C 389.905 -1.82741 4.71098 0
M  V30 4136 C 392.103 -1.53477 4.90866 0
M  V30 4137 N 390.085 -1.29196 6.00151 0
M  V30 4138 C 391.456 -1.1163 6.09868 0
M  V30 4139 C 393.511 -1.41438 4.77388 0
M  V30 4140 C 392.214 -0.589425 7.16881 0
M  V30 4141 C 394.24 -0.901528 5.84488 0
M  V30 4142 C 393.602 -0.492932 7.02673 0
M  V30 4143 H 389.701 -0.477005 0.61967 0
M  V30 4144 H 392.285 -0.643856 1.83746 0
M  V30 4145 H 390.456 -3.11821 2.31564 0
M  V30 4146 H 392.188 -3.13213 2.56281 0
M  V30 4147 H 388.943 -2.05162 4.26855 0
M  V30 4148 H 389.367 -1.0454 6.6888 0
M  V30 4149 H 394.009 -1.71643 3.86392 0
M  V30 4150 H 391.727 -0.274994 8.07632 0
M  V30 4151 H 395.313 -0.812071 5.76105 0
M  V30 4152 H 394.193 -0.102227 7.84133 0
M  V30 4153 N 391.696 -1.35014 -0.812953 0
M  V30 4154 C 392.626 -1.30069 -1.93919 0
M  V30 4155 C 393.607 -0.176275 -1.69184 0
M  V30 4156 O 394.792 -0.370227 -1.90638 0
M  V30 4157 C 391.922 -1.06547 -3.30552 0
M  V30 4158 C 390.876 -2.15561 -3.69753 0
M  V30 4159 C 390.202 -1.77214 -5.04479 0
M  V30 4160 C 391.502 -3.57476 -3.808 0
M  V30 4161 H 393.196 -2.24303 -1.98314 0
M  V30 4162 H 390.742 -1.07977 -0.952736 0
M  V30 4163 H 392.695 -1.01729 -4.08937 0
M  V30 4164 H 391.419 -0.0875719 -3.26483 0
M  V30 4165 H 390.078 -2.19466 -2.9365 0
M  V30 4166 H 389.726 -0.780589 -4.96906 0
M  V30 4167 H 389.426 -2.50184 -5.31678 0
M  V30 4168 H 390.95 -1.7391 -5.8531 0
M  V30 4169 H 392.364 -3.55929 -4.4943 0
M  V30 4170 H 390.761 -4.29152 -4.19462 0
M  V30 4171 H 391.831 -3.94091 -2.82525 0
M  V30 4172 N 393.175 1.03435 -1.18907 0
M  V30 4173 C 394.422 1.76743 -0.988334 0
M  V30 4174 C 394.75 1.88447 0.481441 0
M  V30 4175 O 394.005 1.39383 1.37371 0
M  V30 4176 C 394.304 3.19792 -1.59586 0
M  V30 4177 C 393.97 3.28108 -3.09283 0
M  V30 4178 C 392.632 3.30084 -3.5014 0
M  V30 4179 C 394.984 3.27696 -4.05296 0
M  V30 4180 C 392.312 3.29299 -4.85571 0
M  V30 4181 C 394.664 3.28451 -5.4065 0
M  V30 4182 C 393.328 3.28723 -5.80946 0
M  V30 4183 H 392.598 0.64675 -0.361657 0
M  V30 4184 H 395.245 1.21442 -1.48068 0
M  V30 4185 H 393.55 3.78136 -1.02568 0
M  V30 4186 H 395.247 3.75171 -1.41589 0
M  V30 4187 H 391.837 3.27294 -2.76725 0
M  V30 4188 H 396.021 3.25354 -3.74778 0
M  V30 4189 H 391.277 3.2783 -5.16079 0
M  V30 4190 H 395.451 3.27082 -6.14809 0
M  V30 4191 H 393.078 3.27868 -6.85862 0
M  V30 4192 N 394.653 0.992116 1.22453 0
M  V30 4193 C 395.881 0.685944 1.95198 0
M  V30 4194 C 396.296 -0.749233 1.73297 0
M  V30 4195 O 395.653 -1.50549 1.03156 0
M  V30 4196 C 395.704 0.981395 3.47924 0
M  V30 4197 O 395.425 2.36018 3.6909 0
M  V30 4198 C 396.926 0.692815 4.37853 0
M  V30 4199 H 394.146 0.253821 0.621141 0
M  V30 4200 H 396.69 1.32668 1.55626 0
M  V30 4201 H 394.845 0.386481 3.85467 0
M  V30 4202 H 395.259 2.45884 4.63294 0
M  V30 4203 H 396.733 0.949818 5.43767 0
M  V30 4204 H 397.21 -0.373181 4.37612 0
M  V30 4205 H 397.816 1.26874 4.05935 0
M  V30 4206 N 396.131 -1.37776 0.765217 0
M  V30 4207 C 397.408 -1.93975 0.251596 0
M  V30 4208 C 397.788 -1.69949 -1.25222 0
M  V30 4209 O 397.136 -1.04457 -2.03226 0
M  V30 4210 C 397.346 -3.43487 0.617895 0
M  V30 4211 C 398.694 -4.20564 0.584029 0
M  V30 4212 O 399.718 -3.5182 0.556888 0
M  V30 4213 O 398.577 -5.43138 0.605291 0
M  V30 4214 H 395.671 -0.82509 0.0561806 0
M  V30 4215 H 398.217 -1.47101 0.846128 0
M  V30 4216 H 396.989 -3.5453 1.65602 0
M  V30 4217 H 396.612 -3.976 -0.00403411 0
M  V30 4218 N 397.609 -0.515225 -1.4894 0
M  V30 4219 C 398.556 0.255567 -2.29381 0
M  V30 4220 C 399.526 0.947387 -1.36432 0
M  V30 4221 O 400.711 0.951288 -1.65394 0
M  V30 4222 C 397.851 1.30551 -3.19453 0
M  V30 4223 C 396.964 0.624029 -4.27469 0
M  V30 4224 C 396.099 1.65563 -5.0474 0
M  V30 4225 C 395.138 0.956802 -6.04576 0
M  V30 4226 N 394.275 1.93326 -6.74959 0
M  V30 4227 H 399.115 -0.436607 -2.94784 0
M  V30 4228 H 396.652 -0.227154 -1.45336 0
M  V30 4229 H 398.61 1.92639 -3.70062 0
M  V30 4230 H 397.24 1.96626 -2.56004 0
M  V30 4231 H 396.292 -0.110459 -3.8024 0
M  V30 4232 H 397.604 0.0746092 -4.98744 0
M  V30 4233 H 396.758 2.35119 -5.59289 0
M  V30 4234 H 395.497 2.23893 -4.3327 0
M  V30 4235 H 394.502 0.247097 -5.49244 0
M  V30 4236 H 395.727 0.379814 -6.78037 0
M  V30 4237 H 393.673 2.50591 -6.06251 0
M  V30 4238 H 393.59 1.43489 -7.42258 0
M  V30 4239 H 394.858 2.62126 -7.34105 0
M  V30 4240 N 399.087 1.5561 -0.249682 0
M  V30 4241 C 400.333 2.00044 0.367952 0
M  V30 4242 C 400.688 1.1349 1.55363 0
M  V30 4243 O 399.981 0.191079 1.90645 0
M  V30 4244 C 400.175 3.4775 0.824887 0
M  V30 4245 C 400.004 4.48596 -0.314973 0
M  V30 4246 C 398.774 4.99077 -0.790555 0
M  V30 4247 C 400.972 5.0144 -1.14291 0
M  V30 4248 N 398.954 5.83675 -1.90254 0
M  V30 4249 C 400.325 5.83236 -2.10322 0
M  V30 4250 C 402.38 4.83736 -1.17916 0
M  V30 4251 C 401.083 6.49217 -3.09692 0
M  V30 4252 C 403.109 5.50497 -2.16117 0
M  V30 4253 C 402.471 6.32084 -3.10884 0
M  V30 4254 H 398.57 0.775512 0.100522 0
M  V30 4255 H 401.154 1.91193 -0.367896 0
M  V30 4256 H 399.325 3.56994 1.53002 0
M  V30 4257 H 401.057 3.79056 1.4177 0
M  V30 4258 H 397.812 4.72119 -0.374218 0
M  V30 4259 H 398.236 6.30671 -2.46137 0
M  V30 4260 H 402.878 4.20286 -0.460352 0
M  V30 4261 H 400.596 7.11832 -3.8252 0
M  V30 4262 H 404.182 5.38752 -2.19631 0
M  V30 4263 H 403.062 6.82832 -3.8563 0
M  V30 4264 N 400.565 -0.0233959 1.57583 0
M  V30 4265 C 401.528 -1.00693 2.05897 0
M  V30 4266 C 402.528 -1.28693 0.964092 0
M  V30 4267 O 403.718 -1.23602 1.22753 0
M  V30 4268 C 400.85 -2.33825 2.4807 0
M  V30 4269 H 402.043 -0.589476 2.9405 0
M  V30 4270 H 399.596 -0.270354 1.53944 0
M  V30 4271 H 400.331 -2.80307 1.6309 0
M  V30 4272 H 400.116 -2.1483 3.2801 0
M  V30 4273 H 401.606 -3.04426 2.85857 0
M  V30 4274 N 402.043 -1.548 -0.295768 0
M  V30 4275 C 403.454 -1.65274 -0.868411 0
M  V30 4276 C 403.805 -0.56481 -1.87894 0
M  V30 4277 O 402.93 0.29767 -2.14343 0
M  V30 4278 C 403.525 -2.99603 -1.58188 0
M  V30 4279 C 402.084 -3.12181 -2.10286 0
M  V30 4280 C 401.231 -2.6098 -0.93727 0
M  V30 4281 H 404.182 -1.58534 -0.0726422 0
M  V30 4282 H 404.203 -2.91319 -2.44772 0
M  V30 4283 H 403.715 -3.78764 -0.846151 0
M  V30 4284 H 401.816 -2.3775 -2.8689 0
M  V30 4285 H 401.929 -4.18415 -2.33379 0
M  V30 4286 H 400.293 -2.17564 -1.32431 0
M  V30 4287 H 401.076 -3.42623 -0.215414 0
M  V30 4288 N 403.521 0.559213 -1.47345 0
M  V30 4289 C 404.767 1.31843 -1.54095 0
M  V30 4290 C 405.1 1.93149 -0.201726 0
M  V30 4291 O 404.375 1.77759 0.789428 0
M  V30 4292 C 404.658 2.43006 -2.65744 0
M  V30 4293 C 404.511 1.86581 -4.09277 0
M  V30 4294 C 405.83 3.44943 -2.73318 0
M  V30 4295 H 402.949 0.478012 -0.560957 0
M  V30 4296 H 405.591 0.625977 -1.79392 0
M  V30 4297 H 403.741 3.02072 -2.44305 0
M  V30 4298 H 405.413 1.31792 -4.42073 0
M  V30 4299 H 403.656 1.17268 -4.17649 0
M  V30 4300 H 404.327 2.66933 -4.83168 0
M  V30 4301 H 406.803 2.95793 -2.92653 0
M  V30 4302 H 405.679 4.20153 -3.53218 0
M  V30 4303 H 405.94 4.03665 -1.80296 0
M  V30 4304 N 404.999 1.35443 0.805782 0
M  V30 4305 C 405.929 1.31095 1.93226 0
M  V30 4306 C 406.91 0.185244 1.69088 0
M  V30 4307 O 408.095 0.380332 1.90439 0
M  V30 4308 C 405.225 1.08299 3.29983 0
M  V30 4309 C 404.179 2.17519 3.68605 0
M  V30 4310 C 403.505 1.79887 5.03532 0
M  V30 4311 C 404.805 3.5949 3.78898 0
M  V30 4312 H 406.499 2.25352 1.97122 0
M  V30 4313 H 404.045 1.0848 0.946996 0
M  V30 4314 H 405.998 1.03897 4.08391 0
M  V30 4315 H 404.722 0.104885 3.26432 0
M  V30 4316 H 403.381 2.2102 2.92482 0
M  V30 4317 H 403.029 0.80693 4.96485 0
M  V30 4318 H 402.729 2.53001 5.30344 0
M  V30 4319 H 404.253 1.77011 5.84379 0
M  V30 4320 H 405.667 3.58307 4.47536 0
M  V30 4321 H 404.064 4.31371 4.1718 0
M  V30 4322 H 405.134 3.95584 2.80431 0
M  V30 4323 N 406.477 -1.02803 1.19454 0
M  V30 4324 C 407.387 -2.14575 0.948408 0
M  V30 4325 C 408.403 -1.73757 -0.091871 0
M  V30 4326 O 409.579 -2.01185 0.0929654 0
M  V30 4327 C 406.644 -3.43202 0.491265 0
M  V30 4328 C 405.705 -3.98328 1.60103 0
M  V30 4329 C 404.938 -5.20816 1.16561 0
M  V30 4330 O 405.161 -5.70392 0.0295238 0
M  V30 4331 O 404.095 -5.68801 1.96849 0
M  V30 4332 H 407.921 -2.38202 1.88397 0
M  V30 4333 H 405.506 -1.12989 0.977433 0
M  V30 4334 H 407.388 -4.20687 0.245015 0
M  V30 4335 H 406.063 -3.21018 -0.415851 0
M  V30 4336 H 404.97 -3.22174 1.90144 0
M  V30 4337 H 406.303 -4.24879 2.48473 0
M  V30 4338 N 407.956 -0.998596 -1.21925 0
M  V30 4339 C 408.904 -0.546641 -2.26085 0
M  V30 4340 C 409.898 0.405576 -1.64473 0
M  V30 4341 O 411.104 0.277471 -1.77849 0
M  V30 4342 H 407.479 -0.158403 -0.735127 0
M  V30 4343 H 409.45 -1.43645 -2.61551 0
M  V30 4344 C 408.199 0.117388 -3.47502 0
M  V30 4345 H 407.522 -0.606277 -3.95176 0
M  V30 4346 H 408.962 0.396993 -4.22137 0
M  V30 4347 C 407.421 1.35455 -3.0847 0
M  V30 4348 O 407.951 2.44944 -3.18379 0
M  V30 4349 N 406.157 1.23191 -2.63196 0
M  V30 4350 H 405.704 0.341006 -2.55333 0
M  V30 4351 H 405.662 2.06071 -2.37449 0
M  V30 4352 N 409.434 1.37368 -0.772513 0
M  V30 4353 C 410.366 2.28899 -0.117502 0
M  V30 4354 C 411.379 1.4867 0.663405 0
M  V30 4355 O 412.568 1.71314 0.501372 0
M  V30 4356 C 409.668 3.2788 0.857192 0
M  V30 4357 C 408.841 4.37207 0.129938 0
M  V30 4358 C 407.9 5.16257 1.01811 0
M  V30 4359 O 406.926 5.67159 0.481601 0
M  V30 4360 N 408.128 5.31058 2.3443 0
M  V30 4361 H 410.893 2.85752 -0.903662 0
M  V30 4362 H 408.454 1.49353 -0.62493 0
M  V30 4363 H 410.446 3.77647 1.45482 0
M  V30 4364 H 409.016 2.7179 1.54432 0
M  V30 4365 H 408.236 3.88827 -0.648605 0
M  V30 4366 H 409.524 5.07434 -0.372559 0
M  V30 4367 H 408.922 4.91287 2.80452 0
M  V30 4368 H 407.479 5.84131 2.89197 0
M  V30 4369 N 410.912 0.523116 1.48665 0
M  V30 4370 C 411.822 -0.247406 2.33292 0
M  V30 4371 C 412.838 -0.945769 1.46052 0
M  V30 4372 O 414.014 -0.922253 1.79043 0
M  V30 4373 C 411.079 -1.28487 3.22012 0
M  V30 4374 C 410.14 -0.597592 4.2512 0
M  V30 4375 C 409.373 -1.58563 5.09601 0
M  V30 4376 O 409.596 -2.81763 4.95949 0
M  V30 4377 O 408.53 -1.12879 5.91221 0
M  V30 4378 H 412.356 0.445869 3.00409 0
M  V30 4379 H 409.941 0.284128 1.46673 0
M  V30 4380 H 411.823 -1.88459 3.7691 0
M  V30 4381 H 410.498 -1.96068 2.57564 0
M  V30 4382 H 409.405 0.0424407 3.74076 0
M  V30 4383 H 410.738 0.0361517 4.92187 0
M  V30 4384 N 412.39 -1.55475 0.257931 0
M  V30 4385 C 413.32 -2.24815 -0.630912 0
M  V30 4386 C 414.301 -1.23224 -1.17259 0
M  V30 4387 O 415.486 -1.51904 -1.20991 0
M  V30 4388 C 412.616 -2.95609 -1.82298 0
M  V30 4389 C 411.57 -4.03982 -1.41359 0
M  V30 4390 C 410.896 -4.6226 -2.68738 0
M  V30 4391 C 412.196 -5.19109 -0.57648 0
M  V30 4392 H 413.89 -2.99354 -0.0526878 0
M  V30 4393 H 411.436 -1.4398 -0.023901 0
M  V30 4394 H 413.389 -3.42822 -2.45054 0
M  V30 4395 H 412.113 -2.18577 -2.42676 0
M  V30 4396 H 410.772 -3.57555 -0.809324 0
M  V30 4397 H 410.42 -3.81915 -3.27338 0
M  V30 4398 H 410.12 -5.35424 -2.42065 0
M  V30 4399 H 411.644 -5.12212 -3.32372 0
M  V30 4400 H 413.058 -5.62479 -1.10861 0
M  V30 4401 H 411.455 -5.98729 -0.405351 0
M  V30 4402 H 412.525 -4.83174 0.408776 0
M  V30 4403 N 413.868 0.0150385 -1.57593 0
M  V30 4404 C 415.116 0.701613 -1.8953 0
M  V30 4405 C 415.437 1.75139 -0.857396 0
M  V30 4406 O 414.707 1.95607 0.107194 0
M  V30 4407 H 413.287 0.26213 -0.699498 0
M  V30 4408 H 415.949 -0.0223304 -1.94887 0
M  V30 4409 H 415.045 1.18236 -2.88837 0
M  V30 4410 N 415.346 1.54954 0.287554 0
M  V30 4411 C 416.276 1.89839 1.35954 0
M  V30 4412 C 417.257 0.758675 1.52244 0
M  V30 4413 O 418.442 1.01557 1.65529 0
M  V30 4414 C 415.572 2.15753 2.72154 0
M  V30 4415 C 414.526 3.3159 2.70614 0
M  V30 4416 C 413.852 3.42952 4.10229 0
M  V30 4417 C 415.152 4.68359 2.31165 0
M  V30 4418 H 416.846 2.79625 1.07007 0
M  V30 4419 H 414.392 1.3454 0.513316 0
M  V30 4420 H 416.345 2.38743 3.47246 0
M  V30 4421 H 415.069 1.22752 3.02654 0
M  V30 4422 H 413.728 3.08545 1.97979 0
M  V30 4423 H 413.376 2.47443 4.37928 0
M  V30 4424 H 413.076 4.20826 4.10097 0
M  V30 4425 H 414.6 3.68218 4.87081 0
M  V30 4426 H 416.014 4.9099 2.95976 0
M  V30 4427 H 414.411 5.49044 2.42221 0
M  V30 4428 H 415.481 4.68165 1.26291 0
M  V30 4429 N 416.824 -0.551391 1.4764 0
M  V30 4430 C 417.771 -1.65796 1.60563 0
M  V30 4431 C 418.741 -1.59932 0.448428 0
M  V30 4432 O 419.926 -1.78679 0.669222 0
M  V30 4433 C 417.066 -3.04108 1.63133 0
M  V30 4434 C 416.179 -3.20365 2.89811 0
M  V30 4435 C 415.314 -4.49109 2.8368 0
M  V30 4436 C 414.353 -4.58819 4.05156 0
M  V30 4437 N 413.49 -5.78926 3.97227 0
M  V30 4438 H 418.33 -1.54088 2.5507 0
M  V30 4439 H 415.867 -0.75052 1.26513 0
M  V30 4440 H 417.825 -3.84207 1.62606 0
M  V30 4441 H 416.455 -3.14637 0.721341 0
M  V30 4442 H 415.507 -2.33659 3.00179 0
M  V30 4443 H 416.819 -3.23402 3.79753 0
M  V30 4444 H 415.973 -5.37475 2.81434 0
M  V30 4445 H 414.712 -4.4856 1.91431 0
M  V30 4446 H 413.717 -3.68864 4.077 0
M  V30 4447 H 414.942 -4.61124 4.98539 0
M  V30 4448 H 412.888 -5.79314 3.07785 0
M  V30 4449 H 412.805 -5.83367 4.80853 0
M  V30 4450 H 414.073 -6.69637 3.99007 0
M  V30 4451 N 418.302 -1.35869 -0.798587 0
M  V30 4452 C 419.548 -1.2978 -1.55836 0
M  V30 4453 C 419.881 0.125322 -1.93795 0
M  V30 4454 O 419.156 1.07658 -1.61987 0
M  V30 4455 C 419.439 -2.21188 -2.84162 0
M  V30 4456 C 419.292 -3.72155 -2.52628 0
M  V30 4457 C 420.611 -2.11545 -3.85923 0
M  V30 4458 H 417.73 -0.472769 -0.565383 0
M  V30 4459 H 420.372 -1.66341 -0.918192 0
M  V30 4460 H 418.522 -1.90139 -3.38791 0
M  V30 4461 H 420.194 -4.13682 -2.04121 0
M  V30 4462 H 418.437 -3.92042 -1.85704 0
M  V30 4463 H 419.108 -4.31511 -3.44242 0
M  V30 4464 H 421.584 -2.38855 -3.40716 0
M  V30 4465 H 420.46 -2.77688 -4.73477 0
M  V30 4466 H 420.721 -1.09987 -4.282 0
M  V30 4467 N 419.78 1.02168 -1.19998 0
M  V30 4468 C 420.69 2.14069 -0.959774 0
M  V30 4469 C 421.706 1.73804 0.082655 0
M  V30 4470 O 422.882 2.01133 -0.103633 0
M  V30 4471 C 419.947 3.42936 -0.509459 0
M  V30 4472 C 419.008 3.97474 -1.62213 0
M  V30 4473 C 418.241 5.2019 -1.19321 0
M  V30 4474 O 418.464 5.70369 -0.0597726 0
M  V30 4475 O 417.398 5.67749 -1.99863 0
M  V30 4476 H 421.224 2.37199 -1.89658 0
M  V30 4477 H 418.809 1.12469 -0.983411 0
M  V30 4478 H 420.691 4.20551 -0.267322 0
M  V30 4479 H 419.366 3.21234 0.398821 0
M  V30 4480 H 418.273 3.21161 -1.9185 0
M  V30 4481 H 419.606 4.23555 -2.50723 0
M  V30 4482 N 421.258 1.00505 1.21394 0
M  V30 4483 C 422.506 0.686415 1.90086 0
M  V30 4484 C 422.827 -0.785264 1.7849 0
M  V30 4485 O 422.097 -1.56387 1.17983 0
M  V30 4486 H 420.677 0.2509 0.703604 0
M  V30 4487 H 423.339 1.27417 1.47482 0
M  V30 4488 H 422.435 0.959621 2.96981 0
M  V30 4489 N 422.737 -1.36956 0.779787 0
M  V30 4490 C 423.667 -2.32761 0.185651 0
M  V30 4491 C 424.648 -1.56177 -0.673989 0
M  V30 4492 O 425.833 -1.84378 -0.609797 0
M  V30 4493 C 422.963 -3.40418 -0.687964 0
M  V30 4494 C 421.917 -4.27941 0.0710102 0
M  V30 4495 C 421.243 -5.26681 -0.922573 0
M  V30 4496 C 422.543 -5.07006 1.25467 0
M  V30 4497 H 424.237 -2.82698 0.986008 0
M  V30 4498 H 421.783 -1.3592 0.475592 0
M  V30 4499 H 423.736 -4.06423 -1.11348 0
M  V30 4500 H 422.46 -2.89025 -1.52093 0
M  V30 4501 H 421.119 -3.63478 0.47739 0
M  V30 4502 H 420.767 -4.71565 -1.7503 0
M  V30 4503 H 420.467 -5.86103 -0.419237 0
M  V30 4504 H 421.991 -5.9556 -1.34686 0
M  V30 4505 H 423.405 -5.66105 0.905401 0
M  V30 4506 H 421.802 -5.75793 1.69063 0
M  V30 4507 H 422.872 -4.3921 2.05481 0
M  V30 4508 N 424.215 -0.530993 -1.48385 0
M  V30 4509 C 425.162 0.231223 -2.29639 0
M  V30 4510 C 426.132 0.932864 -1.37429 0
M  V30 4511 O 427.317 0.933692 -1.66394 0
M  V30 4512 C 424.457 1.27155 -3.2082 0
M  V30 4513 C 423.57 0.578655 -4.28107 0
M  V30 4514 C 422.705 1.602 -5.06467 0
M  V30 4515 C 421.744 0.892625 -6.05556 0
M  V30 4516 N 420.881 1.86157 -6.76971 0
M  V30 4517 H 425.721 -0.467848 -2.94305 0
M  V30 4518 H 423.258 -0.242556 -1.45086 0
M  V30 4519 H 425.216 1.88703 -3.72085 0
M  V30 4520 H 423.846 1.939 -2.58075 0
M  V30 4521 H 422.898 -0.150782 -3.80101 0
M  V30 4522 H 424.21 0.0217065 -4.98795 0
M  V30 4523 H 423.364 2.29173 -5.61751 0
M  V30 4524 H 422.103 2.19285 -4.35621 0
M  V30 4525 H 421.108 0.188829 -5.49476 0
M  V30 4526 H 422.333 0.307878 -6.78402 0
M  V30 4527 H 420.279 2.44147 -6.08875 0
M  V30 4528 H 420.196 1.35608 -7.43738 0
M  V30 4529 H 421.464 2.54325 -7.36844 0
M  V30 4530 N 425.693 1.55336 -0.266172 0
M  V30 4531 C 426.941 1.99003 0.35246 0
M  V30 4532 C 427.262 1.15591 1.57047 0
M  V30 4533 O 426.532 0.243268 1.94384 0
M  V30 4534 H 425.112 0.735025 0.133217 0
M  V30 4535 H 427.774 1.91367 -0.369434 0
M  V30 4536 H 426.87 3.05289 0.648453 0
M  V30 4537 N 427.171 -0.0066808 1.57599 0
M  V30 4538 C 428.587 -0.36267 1.55425 0
M  V30 4539 C 428.787 -1.75209 0.995187 0
M  V30 4540 O 427.843 -2.44616 0.626058 0
M  V30 4541 C 429.156 -0.244017 2.99708 0
M  V30 4542 C 430.704 -0.319451 3.11366 0
M  V30 4543 C 431.179 -0.229998 4.57422 0
M  V30 4544 N 432.67 -0.288105 4.62303 0
M  V30 4545 C 433.405 -0.242127 5.72889 0
M  V30 4546 N 432.901 -0.147133 6.92644 0
M  V30 4547 N 434.694 -0.293502 5.61333 0
M  V30 4548 H 426.845 0.902314 1.92281 0
M  V30 4549 H 429.108 0.34525 0.882896 0
M  V30 4550 H 428.814 0.711678 3.44424 0
M  V30 4551 H 428.688 -1.02877 3.629 0
M  V30 4552 H 431.075 -1.26559 2.66584 0
M  V30 4553 H 431.156 0.495055 2.50964 0
M  V30 4554 H 430.8 0.712566 5.02877 0
M  V30 4555 H 430.73 -1.0629 5.15761 0
M  V30 4556 H 433.221 -0.363126 3.76151 0
M  V30 4557 H 433.534 -0.117763 7.7271 0
M  V30 4558 H 431.879 -0.112857 6.94908 0
M  V30 4559 H 435.07 -0.365864 4.66668 0
M  V30 4560 H 435.243 -0.254204 6.47501 0
M  V30 4561 N 428.649 -1.55105 -0.279332 0
M  V30 4562 C 429.599 -1.83937 -1.34727 0
M  V30 4563 C 430.583 -0.69785 -1.44979 0
M  V30 4564 O 431.775 -0.95904 -1.48766 0
M  V30 4565 C 428.904 -2.1092 -2.70864 0
M  V30 4566 C 427.99 -3.31314 -2.64748 0
M  V30 4567 N 428.381 -4.51371 -2.2825 0
M  V30 4568 C 426.679 -3.33777 -2.95819 0
M  V30 4569 C 427.38 -5.33447 -2.31969 0
M  V30 4570 N 426.356 -4.71697 -2.7019 0
M  V30 4571 H 430.158 -2.74309 -1.05506 0
M  V30 4572 H 427.672 -1.54896 -0.487959 0
M  V30 4573 H 429.669 -2.2973 -3.47893 0
M  V30 4574 H 428.329 -1.21828 -3.00979 0
M  V30 4575 H 429.34 -4.77584 -2.00335 0
M  V30 4576 H 426.017 -2.54858 -3.30687 0
M  V30 4577 H 427.407 -6.39424 -2.06365 0
M  V30 4578 N 430.127 0.543554 -1.4793 0
M  V30 4579 C 431.357 1.32324 -1.58663 0
M  V30 4580 C 431.765 1.8766 -0.240896 0
M  V30 4581 O 431.108 1.66411 0.778011 0
M  V30 4582 C 431.17 2.52094 -2.56299 0
M  V30 4583 C 430.834 2.17944 -4.01683 0
M  V30 4584 C 431.831 1.74422 -4.89768 0
M  V30 4585 C 429.516 2.28884 -4.47121 0
M  V30 4586 C 431.51 1.42287 -6.21316 0
M  V30 4587 C 429.197 1.96361 -5.78693 0
M  V30 4588 C 430.195 1.53132 -6.65612 0
M  V30 4589 O 429.883 1.21029 -7.94737 0
M  V30 4590 H 429.615 0.409174 -0.538101 0
M  V30 4591 H 432.169 0.663887 -1.94375 0
M  V30 4592 H 430.399 3.20965 -2.15681 0
M  V30 4593 H 432.088 3.14165 -2.57012 0
M  V30 4594 H 432.854 1.65452 -4.55907 0
M  V30 4595 H 428.733 2.61488 -3.79664 0
M  V30 4596 H 432.277 1.08472 -6.89115 0
M  V30 4597 H 428.174 2.04967 -6.12094 0
M  V30 4598 H 428.942 1.34543 -8.07366 0
M  V30 4599 N 431.605 1.3629 0.791371 0
M  V30 4600 C 433.021 1.16661 1.08914 0
M  V30 4601 C 433.221 -0.0106266 2.01497 0
M  V30 4602 O 432.277 -0.676596 2.43266 0
M  V30 4603 C 433.59 2.47656 1.70549 0
M  V30 4604 C 435.138 2.54002 1.82899 0
M  V30 4605 C 435.613 3.85078 2.47949 0
M  V30 4606 N 437.104 3.86413 2.5542 0
M  V30 4607 C 437.839 4.84572 3.06557 0
M  V30 4608 N 437.335 5.93124 3.58016 0
M  V30 4609 N 439.128 4.71994 3.05251 0
M  V30 4610 H 431.279 2.11668 0.176238 0
M  V30 4611 H 433.542 0.937486 0.140796 0
M  V30 4612 H 433.248 3.34059 1.09989 0
M  V30 4613 H 433.122 2.63319 2.70079 0
M  V30 4614 H 435.509 1.68018 2.42598 0
M  V30 4615 H 435.59 2.42239 0.821808 0
M  V30 4616 H 435.234 4.71467 1.88895 0
M  V30 4617 H 435.164 3.94135 3.49235 0
M  V30 4618 H 437.655 3.07988 2.18979 0
M  V30 4619 H 437.968 6.63999 3.95381 0
M  V30 4620 H 436.313 5.96796 3.56173 0
M  V30 4621 H 439.504 3.86321 2.64336 0
M  V30 4622 H 439.677 5.48653 3.44796 0
M  V30 4623 N 433.083 -1.0153 1.20538 0
M  V30 4624 C 434.311 -1.78746 1.04199 0
M  V30 4625 C 434.726 -1.84323 -0.408733 0
M  V30 4626 O 434.083 -1.29714 -1.28377 0
M  V30 4627 C 434.134 -3.23152 1.62035 0
M  V30 4628 O 433.855 -3.17918 3.0143 0
M  V30 4629 C 435.356 -4.16911 1.50666 0
M  V30 4630 H 432.576 -0.56208 0.366479 0
M  V30 4631 H 435.12 -1.27794 1.59653 0
M  V30 4632 H 433.275 -3.71248 1.10697 0
M  V30 4633 H 433.689 -4.08567 3.28897 0
M  V30 4634 H 435.163 -5.16072 1.95892 0
M  V30 4635 H 435.64 -4.36791 0.459363 0
M  V30 4636 H 436.246 -3.74698 2.01201 0
M  V30 4637 N 434.561 -1.01147 -1.20859 0
M  V30 4638 C 435.786 -0.716698 -1.94623 0
M  V30 4639 C 436.211 0.715415 -1.73964 0
M  V30 4640 O 435.569 1.49157 -1.03062 0
M  V30 4641 C 435.617 -1.0513 -3.44935 0
M  V30 4642 O 434.721 -0.160131 -4.12089 0
M  V30 4643 H 434.062 -0.266404 -0.608214 0
M  V30 4644 H 436.592 -1.35346 -1.53436 0
M  V30 4645 H 436.602 -1.00086 -3.95533 0
M  V30 4646 H 435.277 -2.09475 -3.59295 0
M  V30 4647 H 433.854 -0.267657 -3.71938 0
M  V30 4648 N 436.039 1.36541 -0.78704 0
M  V30 4649 C 437.285 1.99599 -0.358872 0
M  V30 4650 C 437.618 1.62323 1.06606 0
M  V30 4651 O 436.893 0.876858 1.73613 0
M  V30 4652 C 437.176 3.56327 -0.519944 0
M  V30 4653 C 437.029 4.03464 -1.98839 0
M  V30 4654 C 438.348 4.4005 0.0664737 0
M  V30 4655 H 435.467 0.725107 -0.131869 0
M  V30 4656 H 438.109 1.6199 -0.992936 0
M  V30 4657 H 436.259 3.88495 0.0198321 0
M  V30 4658 H 437.931 3.81793 -2.58905 0
M  V30 4659 H 436.174 3.55092 -2.49183 0
M  V30 4660 H 436.845 5.12439 -2.05207 0
M  V30 4661 H 439.321 4.14228 -0.394267 0
M  V30 4662 H 438.197 5.48847 -0.0762682 0
M  V30 4663 H 438.458 4.26655 1.15835 0
M  V30 4664 N 437.518 0.538854 1.48102 0
M  V30 4665 C 438.764 0.00801365 2.02798 0
M  V30 4666 C 439.097 -1.3309 1.41424 0
M  V30 4667 O 438.372 -1.86169 0.563158 0
M  V30 4668 C 438.655 -0.104589 3.59948 0
M  V30 4669 C 438.508 1.26012 4.31788 0
M  V30 4670 C 439.827 -0.827055 4.32259 0
M  V30 4671 H 436.946 0.00438624 0.736987 0
M  V30 4672 H 439.588 0.6976 1.7673 0
M  V30 4673 H 437.738 -0.691893 3.82289 0
M  V30 4674 H 439.41 1.88922 4.2084 0
M  V30 4675 H 437.653 1.83968 3.92859 0
M  V30 4676 H 438.324 1.13424 5.40221 0
M  V30 4677 H 440.8 -0.328578 4.14801 0
M  V30 4678 H 439.676 -0.87476 5.41885 0
M  V30 4679 H 439.937 -1.87927 4.0017 0
M  V30 4680 N 438.996 -1.55193 0.274407 0
M  V30 4681 C 439.926 -2.25471 -0.607032 0
M  V30 4682 C 440.907 -1.24461 -1.15946 0
M  V30 4683 O 442.092 -1.53179 -1.19373 0
M  V30 4684 C 439.222 -2.97526 -1.79153 0
M  V30 4685 C 438.176 -4.05459 -1.37067 0
M  V30 4686 C 437.502 -4.65084 -2.6382 0
M  V30 4687 C 438.802 -5.19691 -0.521389 0
M  V30 4688 H 440.496 -2.99393 -0.0209343 0
M  V30 4689 H 438.042 -1.43997 -0.00862866 0
M  V30 4690 H 439.995 -3.45402 -2.41404 0
M  V30 4691 H 438.719 -2.21138 -2.40344 0
M  V30 4692 H 437.378 -3.58393 -0.771355 0
M  V30 4693 H 437.026 -3.85365 -3.23268 0
M  V30 4694 H 436.726 -5.37961 -2.36372 0
M  V30 4695 H 438.25 -5.15708 -3.26921 0
M  V30 4696 H 439.664 -5.63623 -1.04889 0
M  V30 4697 H 438.061 -5.99126 -0.341825 0
M  V30 4698 H 439.131 -4.82713 0.46 0
M  V30 4699 N 440.474 -0.00167713 -1.576 0
M  V30 4700 C 441.885 0.54091 -1.78693 0
M  V30 4701 C 442.236 1.7386 -0.909247 0
M  V30 4702 O 441.361 2.16109 -0.112176 0
M  V30 4703 C 441.956 0.98806 -3.24072 0
M  V30 4704 C 440.515 1.47594 -3.46256 0
M  V30 4705 C 439.662 0.42792 -2.73978 0
M  V30 4706 H 442.613 -0.22784 -1.57056 0
M  V30 4707 H 442.634 1.85398 -3.32277 0
M  V30 4708 H 442.146 0.116164 -3.87926 0
M  V30 4709 H 440.247 2.36868 -2.87618 0
M  V30 4710 H 440.36 1.50225 -4.54939 0
M  V30 4711 H 438.724 0.889934 -2.38647 0
M  V30 4712 H 439.507 -0.435038 -3.40532 0
M  V30 4713 N 441.952 1.55251 0.271103 0
M  V30 4714 C 443.2 1.75599 1.00047 0
M  V30 4715 C 443.521 0.561188 1.8675 0
M  V30 4716 O 442.791 -0.423846 1.9126 0
M  V30 4717 H 441.371 0.647562 0.372387 0
M  V30 4718 H 444.033 1.92656 0.294876 0
M  V30 4719 H 443.129 2.65766 1.6363 0
M  V30 4720 N 443.43 -0.535701 1.48216 0
M  V30 4721 C 444.676 -1.29375 1.56173 0
M  V30 4722 C 445.009 -1.92804 0.232429 0
M  V30 4723 O 444.284 -1.78992 -0.761048 0
M  V30 4724 C 444.567 -2.38747 2.69577 0
M  V30 4725 C 444.42 -1.80046 4.12193 0
M  V30 4726 C 445.739 -3.40551 2.78771 0
M  V30 4727 H 442.858 -0.469027 0.568491 0
M  V30 4728 H 445.5 -0.597358 1.80365 0
M  V30 4729 H 443.65 -2.98147 2.4908 0
M  V30 4730 H 445.322 -1.24742 4.44114 0
M  V30 4731 H 443.565 -1.10609 4.19462 0
M  V30 4732 H 444.236 -2.59212 4.87353 0
M  V30 4733 H 446.712 -2.91099 2.97322 0
M  V30 4734 H 445.588 -4.1448 3.59857 0
M  V30 4735 H 445.849 -4.00746 1.86696 0
M  V30 4736 N 444.908 -1.36708 -0.784132 0
M  V30 4737 C 445.838 -1.34153 -1.91116 0
M  V30 4738 C 446.819 -0.212121 -1.68772 0
M  V30 4739 O 448.004 -0.410581 -1.8981 0
M  V30 4740 C 445.134 -1.13535 -3.28218 0
M  V30 4741 C 444.088 -2.23356 -3.65097 0
M  V30 4742 C 443.414 -1.87875 -5.00607 0
M  V30 4743 C 444.714 -3.65473 -3.73131 0
M  V30 4744 H 446.408 -2.28459 -1.93512 0
M  V30 4745 H 443.954 -1.09973 -0.929618 0
M  V30 4746 H 445.907 -1.10381 -4.06687 0
M  V30 4747 H 444.631 -0.156804 -3.26223 0
M  V30 4748 H 443.29 -2.25645 -2.88929 0
M  V30 4749 H 442.938 -0.885814 -4.95139 0
M  V30 4750 H 442.638 -2.61406 -5.26252 0
M  V30 4751 H 444.162 -1.86286 -5.81489 0
M  V30 4752 H 445.576 -3.65382 -4.41779 0
M  V30 4753 H 443.973 -4.37953 -4.10265 0
M  V30 4754 H 445.043 -3.99995 -2.74102 0
M  V30 4755 N 446.386 1.0089 -1.21074 0
M  V30 4756 C 447.319 2.09279 -0.909806 0
M  V30 4757 C 448.297 1.61986 0.141145 0
M  V30 4758 O 449.481 1.88495 0.0130332 0
M  V30 4759 C 446.608 3.36723 -0.365374 0
M  V30 4760 C 445.654 4.02919 -1.39852 0
M  V30 4761 S 446.487 4.45835 -2.96633 0
M  V30 4762 C 447.643 5.76471 -2.43786 0
M  V30 4763 H 447.876 2.34484 -1.82769 0
M  V30 4764 H 445.409 1.14115 -1.04006 0
M  V30 4765 H 447.367 4.10459 -0.0578203 0
M  V30 4766 H 446.028 3.09577 0.531136 0
M  V30 4767 H 445.221 4.94634 -0.967117 0
M  V30 4768 H 444.823 3.35441 -1.65395 0
M  V30 4769 H 447.115 6.52027 -1.84029 0
M  V30 4770 H 448.058 6.24418 -3.33928 0
M  V30 4771 H 448.466 5.33104 -1.85636 0
M  V30 4772 N 447.864 1.01787 1.20321 0
M  V30 4773 C 449.11 0.708985 1.90003 0
M  V30 4774 C 449.443 -0.759572 1.78729 0
M  V30 4775 O 448.718 -1.55198 1.17234 0
M  V30 4776 C 449.001 1.1469 3.41348 0
M  V30 4777 C 448.854 2.67586 3.61549 0
M  V30 4778 C 450.173 0.71915 4.34185 0
M  V30 4779 H 447.292 0.259034 0.689978 0
M  V30 4780 H 449.934 1.26584 1.41692 0
M  V30 4781 H 448.084 0.673128 3.82624 0
M  V30 4782 H 449.756 3.22826 3.29517 0
M  V30 4783 H 447.999 3.085 3.04976 0
M  V30 4784 H 448.67 2.93281 4.67643 0
M  V30 4785 H 451.146 1.12647 4.00562 0
M  V30 4786 H 450.022 1.05358 5.38694 0
M  V30 4787 H 450.283 -0.379111 4.40472 0
M  V30 4788 N 449.342 -1.36122 0.79427 0
M  V30 4789 C 450.252 -2.33769 0.197296 0
M  V30 4790 C 451.268 -1.61276 -0.653153 0
M  V30 4791 O 452.444 -1.9323 -0.5678 0
M  V30 4792 C 449.509 -3.40474 -0.654098 0
M  V30 4793 C 448.57 -4.28759 0.215411 0
M  V30 4794 C 447.803 -5.30368 -0.595443 0
M  V30 4795 O 448.026 -5.40211 -1.83107 0
M  V30 4796 O 446.96 -6.019 0.00721351 0
M  V30 4797 H 450.786 -2.86597 1.00478 0
M  V30 4798 H 448.371 -1.38676 0.555818 0
M  V30 4799 H 450.253 -4.05703 -1.13944 0
M  V30 4800 H 448.928 -2.89937 -1.43938 0
M  V30 4801 H 447.835 -3.66554 0.747615 0
M  V30 4802 H 449.168 -4.82661 0.964332 0
M  V30 4803 N 450.82 -0.546701 -1.47814 0
M  V30 4804 C 451.768 0.220048 -2.31557 0
M  V30 4805 C 452.762 0.919472 -1.42275 0
M  V30 4806 O 453.968 0.841953 -1.59095 0
M  V30 4807 H 450.343 0.0898334 -0.746615 0
M  V30 4808 H 452.314 -0.505589 -2.94086 0
M  V30 4809 C 451.063 1.24353 -3.24702 0
M  V30 4810 H 450.386 0.714758 -3.93359 0
M  V30 4811 H 451.826 1.75112 -3.8615 0
M  V30 4812 C 450.285 2.28593 -2.47481 0
M  V30 4813 O 450.815 3.35334 -2.21165 0
M  V30 4814 N 449.021 2.02244 -2.08676 0
M  V30 4815 H 448.568 1.15455 -2.30278 0
M  V30 4816 H 448.526 2.72207 -1.57323 0
M  V30 4817 N 452.299 1.55045 -0.282633 0
M  V30 4818 C 453.545 2.0078 0.325436 0
M  V30 4819 C 453.9 1.1676 1.52921 0
M  V30 4820 O 453.193 0.231475 1.90197 0
M  V30 4821 C 453.387 3.49422 0.750938 0
M  V30 4822 C 453.216 4.47827 -0.410056 0
M  V30 4823 C 451.986 4.97288 -0.896239 0
M  V30 4824 C 454.184 4.98903 -1.24902 0
M  V30 4825 N 452.166 5.79508 -2.02591 0
M  V30 4826 C 453.537 5.78644 -2.22646 0
M  V30 4827 C 455.592 4.81126 -1.2815 0
M  V30 4828 C 454.295 6.42502 -3.23393 0
M  V30 4829 C 456.321 5.45789 -2.27745 0
M  V30 4830 C 455.683 6.25348 -3.24222 0
M  V30 4831 H 451.782 0.77747 0.08405 0
M  V30 4832 H 454.366 1.90369 -0.408368 0
M  V30 4833 H 452.537 3.60159 1.45395 0
M  V30 4834 H 454.269 3.81978 1.33698 0
M  V30 4835 H 451.024 4.71219 -0.474277 0
M  V30 4836 H 451.448 6.25308 -2.59459 0
M  V30 4837 H 456.09 4.19215 -0.549397 0
M  V30 4838 H 453.808 7.03558 -3.97533 0
M  V30 4839 H 457.394 5.33972 -2.31009 0
M  V30 4840 H 456.274 6.74498 -4.00027 0
M  V30 4841 N 453.777 0.010035 1.57597 0
M  V30 4842 C 455.188 -0.531426 1.78977 0
M  V30 4843 C 455.539 -1.73375 0.918454 0
M  V30 4844 O 454.664 -2.16047 0.123635 0
M  V30 4845 C 455.259 -0.97086 3.24592 0
M  V30 4846 C 453.818 -1.45756 3.47033 0
M  V30 4847 C 452.965 -0.413384 2.74201 0
M  V30 4848 H 455.916 0.236166 1.56933 0
M  V30 4849 H 455.937 -1.83633 3.33255 0
M  V30 4850 H 455.449 -0.0955893 3.87982 0
M  V30 4851 H 453.55 -2.35339 2.88871 0
M  V30 4852 H 453.663 -1.4781 4.55729 0
M  V30 4853 H 452.027 -0.877266 2.39115 0
M  V30 4854 H 452.81 0.453092 3.40297 0
M  V30 4855 N 455.255 -1.55392 -0.262866 0
M  V30 4856 C 456.165 -1.92077 -1.34698 0
M  V30 4857 C 457.181 -0.819227 -1.53508 0
M  V30 4858 O 458.357 -1.11921 -1.67439 0
M  V30 4859 C 455.422 -2.19407 -2.68443 0
M  V30 4860 C 454.483 -3.42905 -2.58292 0
M  V30 4861 C 453.716 -3.68921 -3.85659 0
M  V30 4862 O 453.939 -2.97275 -4.8681 0
M  V30 4863 O 452.873 -4.62455 -3.85252 0
M  V30 4864 H 456.699 -2.84384 -1.06581 0
M  V30 4865 H 454.284 -1.42069 -0.462264 0
M  V30 4866 H 456.166 -2.38365 -3.47506 0
M  V30 4867 H 454.841 -1.30282 -2.96325 0
M  V30 4868 H 453.748 -3.29272 -1.7757 0
M  V30 4869 H 455.081 -4.32282 -2.35358 0
M  V30 4870 N 456.733 0.527833 -1.48498 0
M  V30 4871 C 457.643 1.65907 -1.65867 0
M  V30 4872 C 458.659 1.6537 -0.541192 0
M  V30 4873 O 459.835 1.84282 -0.812534 0
M  V30 4874 C 456.9 3.02364 -1.69637 0
M  V30 4875 C 455.961 3.1374 -2.93028 0
M  V30 4876 C 455.194 4.43688 -2.96609 0
M  V30 4877 O 455.417 5.30913 -2.08538 0
M  V30 4878 O 454.351 4.59475 -3.88802 0
M  V30 4879 H 458.177 1.5419 -2.61647 0
M  V30 4880 H 455.762 0.701163 -1.31924 0
M  V30 4881 H 457.644 3.83515 -1.74625 0
M  V30 4882 H 456.319 3.14401 -0.770312 0
M  V30 4883 H 455.226 2.31877 -2.93571 0
M  V30 4884 H 456.559 3.06621 -3.85026 0
M  V30 4885 N 458.211 1.37122 0.776871 0
M  V30 4886 C 459.161 1.28989 1.88005 0
M  V30 4887 C 460.145 0.178765 1.59904 0
M  V30 4888 O 461.337 0.412705 1.72121 0
M  V30 4889 C 458.466 1.09402 3.25402 0
M  V30 4890 C 457.552 2.25036 3.59471 0
M  V30 4891 N 457.943 3.50407 3.64759 0
M  V30 4892 C 456.241 2.17078 3.89607 0
M  V30 4893 C 456.942 4.26628 3.95428 0
M  V30 4894 N 455.918 3.55709 4.11062 0
M  V30 4895 H 459.72 2.2394 1.90337 0
M  V30 4896 H 457.234 1.30021 0.973052 0
M  V30 4897 H 459.231 1.01661 4.04315 0
M  V30 4898 H 457.891 0.153632 3.24336 0
M  V30 4899 H 458.902 3.8438 3.47091 0
M  V30 4900 H 455.579 1.31067 3.96393 0
M  V30 4901 H 456.969 5.35107 4.06338 0
M  V30 4902 N 459.689 -1.00246 1.21608 0
M  V30 4903 C 460.935 -1.74319 1.03638 0
M  V30 4904 C 461.268 -1.89408 -0.428749 0
M  V30 4905 O 460.543 -1.43026 -1.3181 0
M  V30 4906 C 460.826 -3.15431 1.73711 0
M  V30 4907 C 460.679 -3.08049 3.27759 0
M  V30 4908 C 461.998 -4.14407 1.48173 0
M  V30 4909 H 459.117 -0.632741 0.377899 0
M  V30 4910 H 461.759 -1.16853 1.49818 0
M  V30 4911 H 459.909 -3.64493 1.34452 0
M  V30 4912 H 461.581 -2.66681 3.76403 0
M  V30 4913 H 459.824 -2.45088 3.57931 0
M  V30 4914 H 460.495 -4.07862 3.71958 0
M  V30 4915 H 462.971 -3.74061 1.82258 0
M  V30 4916 H 461.847 -5.11279 1.99713 0
M  V30 4917 H 462.108 -4.40174 0.412273 0
M  V30 4918 N 461.167 -1.02423 -1.1978 0
M  V30 4919 C 462.413 -0.719051 -1.89625 0
M  V30 4920 C 462.746 0.750083 -1.7913 0
M  V30 4921 O 462.021 1.54574 -1.18056 0
M  V30 4922 C 462.304 -1.16499 -3.40735 0
M  V30 4923 C 462.157 -2.695 -3.60125 0
M  V30 4924 C 463.476 -0.742166 -4.33797 0
M  V30 4925 H 460.595 -0.26269 -0.688595 0
M  V30 4926 H 463.237 -1.27333 -1.41018 0
M  V30 4927 H 461.387 -0.69341 -3.82262 0
M  V30 4928 H 463.059 -3.24569 -3.278 0
M  V30 4929 H 461.302 -3.10113 -3.03336 0
M  V30 4930 H 461.973 -2.95757 -4.66081 0
M  V30 4931 H 464.449 -1.1477 -3.99959 0
M  V30 4932 H 463.325 -1.08213 -5.38127 0
M  V30 4933 H 463.586 0.355747 -4.40666 0
M  V30 4934 N 462.645 1.35699 -0.801477 0
M  V30 4935 C 463.577 2.28598 -0.166028 0
M  V30 4936 C 464.59 1.50044 0.631721 0
M  V30 4937 O 465.779 1.72339 0.464921 0
M  V30 4938 C 462.879 3.29625 0.787451 0
M  V30 4939 C 462.052 4.37384 0.037171 0
M  V30 4940 C 461.111 5.183 0.908375 0
M  V30 4941 O 460.137 5.68053 0.361189 0
M  V30 4942 N 461.339 5.35912 2.23112 0
M  V30 4943 H 464.104 2.83771 -0.964071 0
M  V30 4944 H 461.665 1.47994 -0.656469 0
M  V30 4945 H 463.657 3.80648 1.37439 0
M  V30 4946 H 462.227 2.75004 1.48632 0
M  V30 4947 H 461.447 3.87364 -0.730935 0
M  V30 4948 H 462.735 5.0653 -0.480109 0
M  V30 4949 H 462.133 4.97125 2.69968 0
M  V30 4950 H 460.69 5.90133 2.76741 0
M  V30 4951 N 464.123 0.554532 1.47522 0
M  V30 4952 C 465.353 0.0342074 2.06572 0
M  V30 4953 C 465.761 -1.26375 1.40805 0
M  V30 4954 O 465.104 -1.7683 0.49769 0
M  V30 4955 C 465.166 -0.235096 3.5873 0
M  V30 4956 C 464.83 0.973024 4.46521 0
M  V30 4957 C 465.827 1.8779 4.848 0
M  V30 4958 C 463.512 1.18694 4.88075 0
M  V30 4959 C 465.506 2.98039 5.63428 0
M  V30 4960 C 463.193 2.29254 5.66468 0
M  V30 4961 C 464.191 3.18757 6.04055 0
M  V30 4962 O 463.879 4.27401 6.8087 0
M  V30 4963 H 463.611 0.041587 0.67472 0
M  V30 4964 H 466.165 0.766748 1.90552 0
M  V30 4965 H 464.395 -1.02191 3.72953 0
M  V30 4966 H 466.084 -0.700477 3.9981 0
M  V30 4967 H 466.85 1.72467 4.53299 0
M  V30 4968 H 462.729 0.49947 4.58286 0
M  V30 4969 H 466.273 3.67926 5.92685 0
M  V30 4970 H 462.17 2.4455 5.97382 0
M  V30 4971 H 462.938 4.25415 6.9926 0
M  V30 4972 N 465.601 -1.54893 0.290851 0
M  V30 4973 C 466.511 -2.26812 -0.59945 0
M  V30 4974 C 467.527 -1.29963 -1.15696 0
M  V30 4975 O 468.703 -1.62928 -1.18391 0
M  V30 4976 C 465.768 -2.98716 -1.75982 0
M  V30 4977 C 464.829 -4.1108 -1.2374 0
M  V30 4978 C 464.062 -4.79546 -2.34246 0
M  V30 4979 O 464.285 -4.47309 -3.53936 0
M  V30 4980 O 463.219 -5.67165 -2.01512 0
M  V30 4981 H 467.045 -3.03696 -0.0163561 0
M  V30 4982 H 464.63 -1.49289 0.0576755 0
M  V30 4983 H 466.512 -3.43851 -2.43607 0
M  V30 4984 H 465.187 -2.24737 -2.3297 0
M  V30 4985 H 464.094 -3.70367 -0.527163 0
M  V30 4986 H 465.427 -4.87007 -0.71307 0
M  V30 4987 N 467.08 -0.0183926 -1.57589 0
M  V30 4988 C 468.326 0.657813 -1.92469 0
M  V30 4989 C 468.681 1.70349 -0.894375 0
M  V30 4990 O 467.974 1.91384 0.0910389 0
M  V30 4991 C 468.168 1.32676 -3.31861 0
M  V30 4992 C 467.997 0.347403 -4.48356 0
M  V30 4993 C 466.767 -0.0488653 -5.05276 0
M  V30 4994 C 468.965 -0.393931 -5.12789 0
M  V30 4995 N 466.947 -1.02451 -6.05291 0
M  V30 4996 C 468.318 -1.22367 -6.07804 0
M  V30 4997 C 470.373 -0.455789 -4.95809 0
M  V30 4998 C 469.076 -2.10966 -6.87667 0
M  V30 4999 C 471.102 -1.32908 -5.76272 0
M  V30 5000 C 470.464 -2.14662 -6.70894 0
M  V30 5001 H 466.563 0.21335 -0.752334 0
M  V30 5002 H 469.147 -0.0830547 -1.94523 0
M  V30 5003 H 467.318 2.03782 -3.30647 0
M  V30 5004 H 469.05 1.95913 -3.54119 0
M  V30 5005 H 465.805 0.323356 -4.72495 0
M  V30 5006 H 466.229 -1.50826 -6.59985 0
M  V30 5007 H 470.871 0.162017 -4.22489 0
M  V30 5008 H 468.589 -2.73807 -7.603 0
M  V30 5009 H 472.175 -1.38109 -5.6517 0
M  V30 5010 H 471.055 -2.81143 -7.32071 0
M  V30 5011 N 468.558 1.5553 0.254621 0
M  V30 5012 C 469.788 1.80784 1.00004 0
M  V30 5013 C 470.196 0.59071 1.79742 0
M  V30 5014 O 469.539 -0.449988 1.78103 0
M  V30 5015 C 469.601 2.99268 1.99196 0
M  V30 5016 C 469.265 4.35595 1.38224 0
M  V30 5017 C 470.262 5.13884 0.788611 0
M  V30 5018 C 467.947 4.82281 1.40393 0
M  V30 5019 C 469.941 6.37004 0.224783 0
M  V30 5020 C 467.628 6.05351 0.836243 0
M  V30 5021 C 468.626 6.82551 0.24769 0
M  V30 5022 O 468.314 8.03297 -0.311249 0
M  V30 5023 H 468.046 0.60565 0.300274 0
M  V30 5024 H 470.6 2.03411 0.285143 0
M  V30 5025 H 468.83 2.72377 2.74496 0
M  V30 5026 H 470.519 3.11682 2.60018 0
M  V30 5027 H 471.285 4.78938 0.764423 0
M  V30 5028 H 467.164 4.22189 1.85142 0
M  V30 5029 H 470.708 6.97203 -0.235235 0
M  V30 5030 H 466.605 6.39776 0.857733 0
M  V30 5031 H 467.373 8.1825 -0.20237 0
M  V30 5032 N 470.036 -0.519951 1.48776 0
M  V30 5033 C 471.282 -1.27711 1.57536 0
M  V30 5034 C 471.615 -1.92547 0.252866 0
M  V30 5035 O 470.89 -1.7979 -0.742021 0
M  V30 5036 C 471.173 -2.35875 2.72094 0
M  V30 5037 C 471.026 -1.75664 4.1408 0
M  V30 5038 C 472.345 -3.37575 2.82367 0
M  V30 5039 H 469.464 -0.462971 0.573434 0
M  V30 5040 H 472.106 -0.578194 1.80989 0
M  V30 5041 H 470.256 -2.95488 2.52228 0
M  V30 5042 H 471.928 -1.20025 4.45412 0
M  V30 5043 H 470.171 -1.06154 4.20611 0
M  V30 5044 H 470.842 -2.54029 4.90075 0
M  V30 5045 H 473.318 -2.87929 3.00393 0
M  V30 5046 H 472.194 -4.1064 3.64233 0
M  V30 5047 H 472.455 -3.98743 1.90936 0
M  V30 5048 N 471.514 -1.37532 -0.769588 0
M  V30 5049 C 472.925 -1.29382 -1.346 0
M  V30 5050 C 473.276 0.0576039 -1.96115 0
M  V30 5051 O 472.401 0.95947 -1.93967 0
M  V30 5052 C 472.996 -2.34298 -2.44724 0
M  V30 5053 C 471.555 -2.29776 -2.98128 0
M  V30 5054 C 470.702 -2.18013 -1.71364 0
M  V30 5055 H 473.653 -1.48123 -0.56968 0
M  V30 5056 H 473.674 -1.99089 -3.24259 0
M  V30 5057 H 473.186 -3.32645 -1.99922 0
M  V30 5058 H 471.287 -1.34959 -3.47299 0
M  V30 5059 H 471.4 -3.23276 -3.53595 0
M  V30 5060 H 469.764 -1.64595 -1.94372 0
M  V30 5061 H 470.547 -3.18278 -1.28662 0
M  V30 5062 N 472.992 0.995999 -1.22138 0
M  V30 5063 C 474.241 1.72928 -1.03821 0
M  V30 5064 C 474.554 1.90872 0.427444 0
M  V30 5065 O 475.76 2.61496 0.730212 0
M  V30 5066 C 474.216 3.11124 -1.80913 0
M  V30 5067 C 473.824 3.01122 -3.31707 0
M  V30 5068 C 475.568 3.8852 -1.71035 0
M  V30 5069 C 473.475 4.34453 -4.01253 0
M  V30 5070 H 472.405 0.648376 -0.384869 0
M  V30 5071 H 475.056 1.11213 -1.45959 0
M  V30 5072 H 473.438 3.73503 -1.31573 0
M  V30 5073 H 474.612 2.47926 -3.88419 0
M  V30 5074 H 472.927 2.3721 -3.42228 0
M  V30 5075 H 475.524 4.872 -2.20318 0
M  V30 5076 H 475.867 4.1087 -0.670196 0
M  V30 5077 H 476.4 3.32812 -2.17902 0
M  V30 5078 H 473.139 4.17303 -5.05508 0
M  V30 5079 H 472.659 4.87574 -3.49331 0
M  V30 5080 H 474.338 5.03215 -4.06674 0
M  V30 5081 N 474.47 1.03057 1.19235 0
M  V30 5082 C 475.698 0.747697 1.92917 0
M  V30 5083 C 476.113 -0.69372 1.75593 0
M  V30 5084 O 475.47 -1.47191 1.07894 0
M  V30 5085 C 475.521 1.09159 3.44625 0
M  V30 5086 O 475.242 2.47641 3.61394 0
M  V30 5087 C 476.743 0.831763 4.35427 0
M  V30 5088 H 473.963 0.273453 0.612751 0
M  V30 5089 H 476.507 1.37552 1.51327 0
M  V30 5090 H 474.662 0.508919 3.84043 0
M  V30 5091 H 475.076 2.60499 4.55237 0
M  V30 5092 H 476.55 1.12233 5.4047 0
M  V30 5093 H 477.027 -0.233769 4.38577 0
M  V30 5094 H 477.633 1.39725 4.01693 0
M  V30 5095 N 475.948 -1.35272 0.808662 0
M  V30 5096 C 477.225 -1.93077 0.313181 0
M  V30 5097 C 477.605 -1.73847 -1.19752 0
M  V30 5098 O 476.953 -1.1087 -1.998 0
M  V30 5099 C 477.163 -3.41347 0.726859 0
M  V30 5100 C 478.511 -4.18493 0.717532 0
M  V30 5101 O 479.535 -3.4987 0.668535 0
M  V30 5102 O 478.394 -5.40937 0.777779 0
M  V30 5103 H 475.488 -0.822885 0.0824018 0
M  V30 5104 H 478.034 -1.44335 0.892499 0
M  V30 5105 H 476.806 -3.49082 1.76797 0
M  V30 5106 H 476.429 -3.97411 0.122461 0
M  V30 5107 N 477.426 -0.562348 -1.47226 0
M  V30 5108 C 478.703 0.0256985 -1.95583 0
M  V30 5109 C 479.083 1.48032 -1.50498 0
M  V30 5110 O 478.431 2.15973 -0.746181 0
M  V30 5111 C 478.641 -0.125129 -3.48776 0
M  V30 5112 C 479.989 0.0175728 -4.24596 0
M  V30 5113 O 481.013 -0.0529341 -3.56161 0
M  V30 5114 O 479.872 0.170145 -5.46235 0
M  V30 5115 H 476.966 0.0612565 -0.824728 0
M  V30 5116 H 479.512 -0.629233 -1.57603 0
M  V30 5117 H 478.284 -1.13715 -3.74412 0
M  V30 5118 H 477.907 0.567178 -3.93534 0
M  V30 5119 N 478.904 1.54736 -0.299062 0
M  V30 5120 C 480.132 2.04512 0.313447 0
M  V30 5121 C 480.547 1.17643 1.47667 0
M  V30 5122 O 479.904 0.20164 1.81383 0
M  V30 5123 C 479.955 3.53171 0.771542 0
M  V30 5124 O 479.676 4.36736 -0.345379 0
M  V30 5125 C 481.177 4.18936 1.4494 0
M  V30 5126 H 478.397 0.667507 0.0683784 0
M  V30 5127 H 480.941 1.99752 -0.438129 0
M  V30 5128 H 479.096 3.58298 1.47314 0
M  V30 5129 H 479.51 5.24499 0.0109219 0
M  V30 5130 H 480.984 5.24482 1.72111 0
M  V30 5131 H 481.461 3.68554 2.38883 0
M  V30 5132 H 482.067 4.17879 0.791028 0
M  V30 5133 N 480.382 0.0267497 1.57577 0
M  V30 5134 C 481.332 -0.965003 2.06571 0
M  V30 5135 C 482.316 -1.28694 0.965746 0
M  V30 5136 O 483.508 -1.27345 1.22932 0
M  V30 5137 C 480.637 -2.24821 2.59443 0
M  V30 5138 C 479.723 -1.95474 3.76365 0
M  V30 5139 N 480.114 -1.36387 4.87065 0
M  V30 5140 C 478.412 -2.25478 3.84806 0
M  V30 5141 C 479.113 -1.24119 5.68304 0
M  V30 5142 N 478.089 -1.7359 5.15138 0
M  V30 5143 H 481.891 -0.503095 2.89562 0
M  V30 5144 H 479.405 -0.178322 1.61418 0
M  V30 5145 H 481.402 -2.9674 2.92833 0
M  V30 5146 H 480.062 -2.7164 1.77881 0
M  V30 5147 H 481.073 -1.03919 5.07367 0
M  V30 5148 H 477.75 -2.74987 3.14147 0
M  V30 5149 H 479.14 -0.784504 6.67304 0
M  V30 5150 N 481.861 -1.55662 -0.24637 0
M  V30 5151 C 482.771 -1.93495 -1.32653 0
M  V30 5152 C 483.787 -0.835462 -1.5263 0
M  V30 5153 O 484.963 -1.1369 -1.66242 0
M  V30 5154 C 482.028 -2.22242 -2.66101 0
M  V30 5155 C 481.089 -3.45625 -2.54641 0
M  V30 5156 C 480.322 -3.72991 -3.81724 0
M  V30 5157 O 480.545 -3.02421 -4.8363 0
M  V30 5158 O 479.479 -4.66515 -3.80325 0
M  V30 5159 H 483.305 -2.85498 -1.03559 0
M  V30 5160 H 480.89 -1.42551 -0.44717 0
M  V30 5161 H 482.772 -2.42037 -3.44958 0
M  V30 5162 H 481.447 -1.33417 -2.94926 0
M  V30 5163 H 480.354 -3.31136 -1.74067 0
M  V30 5164 H 481.687 -4.34754 -2.3076 0
M  V30 5165 N 483.339 0.512053 -1.4905 0
M  V30 5166 C 484.569 1.28928 -1.61434 0
M  V30 5167 C 484.977 1.87107 -0.280647 0
M  V30 5168 O 484.32 1.68024 0.742537 0
M  V30 5169 C 484.382 2.466 -2.61588 0
M  V30 5170 C 484.046 2.09375 -4.06216 0
M  V30 5171 C 485.043 1.63994 -4.93358 0
M  V30 5172 C 482.728 2.19348 -4.51876 0
M  V30 5173 C 484.722 1.29076 -6.24194 0
M  V30 5174 C 482.409 1.84041 -5.82728 0
M  V30 5175 C 483.407 1.38978 -6.68711 0
M  V30 5176 O 483.095 1.04144 -7.97126 0
M  V30 5177 H 482.827 0.397668 -0.546659 0
M  V30 5178 H 485.381 0.622507 -1.9574 0
M  V30 5179 H 483.611 3.16318 -2.22441 0
M  V30 5180 H 485.3 3.08642 -2.63619 0
M  V30 5181 H 486.066 1.55744 -4.59313 0
M  V30 5182 H 481.945 2.53376 -3.85125 0
M  V30 5183 H 485.489 0.938303 -6.91261 0
M  V30 5184 H 481.386 1.91938 -6.16304 0
M  V30 5185 H 482.154 1.17387 -8.10039 0
M  V30 5186 N 484.817 1.37938 0.762283 0
M  V30 5187 C 486.063 1.34873 1.52253 0
M  V30 5188 C 486.418 -0.0635972 1.92295 0
M  V30 5189 O 485.711 -1.02434 1.61919 0
M  V30 5190 C 485.905 2.23042 2.79261 0
M  V30 5191 C 485.734 3.72706 2.51635 0
M  V30 5192 C 484.504 4.41771 2.45289 0
M  V30 5193 C 486.702 4.65345 2.18994 0
M  V30 5194 N 484.684 5.76921 2.09846 0
M  V30 5195 C 486.055 5.88943 1.9377 0
M  V30 5196 C 488.11 4.53636 2.0523 0
M  V30 5197 C 486.813 7.02142 1.5617 0
M  V30 5198 C 488.839 5.6673 1.69031 0
M  V30 5199 C 488.201 6.89383 1.44673 0
M  V30 5200 H 484.3 0.548818 0.557067 0
M  V30 5201 H 486.884 1.73247 0.888458 0
M  V30 5202 H 485.055 1.8687 3.40491 0
M  V30 5203 H 486.787 2.11165 3.45241 0
M  V30 5204 H 483.542 3.94883 2.61465 0
M  V30 5205 H 483.966 6.4837 1.94794 0
M  V30 5206 H 488.608 3.5937 2.2274 0
M  V30 5207 H 486.326 7.96334 1.37399 0
M  V30 5208 H 489.912 5.59645 1.59026 0
M  V30 5209 H 488.792 7.75411 1.17079 0
M  V30 5210 N 486.295 -0.989507 1.22664 0
M  V30 5211 C 487.205 -2.11449 1.01619 0
M  V30 5212 C 488.221 -1.73962 -0.036545 0
M  V30 5213 O 489.397 -2.00788 0.156924 0
M  V30 5214 C 486.462 -3.41465 0.600204 0
M  V30 5215 C 485.523 -3.93033 1.72695 0
M  V30 5216 C 484.756 -5.16844 1.33071 0
M  V30 5217 O 484.979 -5.7001 0.210975 0
M  V30 5218 O 483.913 -5.6225 2.14845 0
M  V30 5219 H 487.739 -2.32088 1.9588 0
M  V30 5220 H 485.324 -1.09823 1.01289 0
M  V30 5221 H 487.206 -4.19695 0.37873 0
M  V30 5222 H 485.881 -3.22178 -0.313511 0
M  V30 5223 H 484.788 -3.15961 2.00298 0
M  V30 5224 H 486.121 -4.16758 2.61865 0
M  V30 5225 N 487.773 -1.03688 -1.18687 0
M  V30 5226 C 489.022 -0.733235 -1.879 0
M  V30 5227 C 489.335 0.741745 -1.8099 0
M  V30 5228 O 490.541 1.15875 -2.4553 0
M  V30 5229 C 488.997 -1.26127 -3.37076 0
M  V30 5230 C 488.605 -2.76461 -3.52524 0
M  V30 5231 C 490.349 -1.03398 -4.11715 0
M  V30 5232 C 488.256 -3.22642 -4.95637 0
M  V30 5233 H 487.186 -0.270584 -0.703776 0
M  V30 5234 H 489.837 -1.25222 -1.34133 0
M  V30 5235 H 488.219 -0.670165 -3.90288 0
M  V30 5236 H 489.393 -3.41296 -3.09602 0
M  V30 5237 H 487.708 -2.97559 -2.91286 0
M  V30 5238 H 490.305 -1.3542 -5.17267 0
M  V30 5239 H 490.648 0.0289246 -4.1629 0
M  V30 5240 H 491.181 -1.5895 -3.64664 0
M  V30 5241 H 487.92 -4.28296 -4.96228 0
M  V30 5242 H 487.44 -2.62539 -5.39289 0
M  V30 5243 H 489.119 -3.16444 -5.64333 0
M  V30 5244 N 489.251 1.34841 -0.815825 0
M  V30 5245 C 490.181 2.32187 -0.247298 0
M  V30 5246 C 491.162 1.5791 0.632344 0
M  V30 5247 O 492.347 1.8593 0.560698 0
M  V30 5248 C 489.477 3.42122 0.597466 0
M  V30 5249 C 488.431 4.27602 -0.184446 0
M  V30 5250 C 487.757 5.28942 0.782609 0
M  V30 5251 C 489.057 5.03502 -1.38865 0
M  V30 5252 H 490.751 2.79985 -1.06061 0
M  V30 5253 H 488.297 1.34611 -0.511461 0
M  V30 5254 H 490.25 4.09232 1.00533 0
M  V30 5255 H 488.974 2.92956 1.44376 0
M  V30 5256 H 487.633 3.62085 -0.573592 0
M  V30 5257 H 487.281 4.7604 1.62466 0
M  V30 5258 H 486.981 5.87008 0.263695 0
M  V30 5259 H 488.505 5.98922 1.18848 0
M  V30 5260 H 489.919 5.63506 -1.05518 0
M  V30 5261 H 488.316 5.71108 -1.8427 0
M  V30 5262 H 489.386 4.33608 -2.17054 0
M  V30 5263 N 490.729 0.570148 1.46925 0
M  V30 5264 C 491.975 0.0510284 2.02736 0
M  V30 5265 C 492.308 -1.3006 1.44215 0
M  V30 5266 O 491.583 -1.84932 0.602521 0
M  V30 5267 C 491.866 -0.028215 3.60089 0
M  V30 5268 C 491.719 1.35142 4.29018 0
M  V30 5269 C 493.038 -0.735181 4.33916 0
M  V30 5270 H 490.157 0.0200178 0.736728 0
M  V30 5271 H 492.799 0.73493 1.75211 0
M  V30 5272 H 490.949 -0.610648 3.83671 0
M  V30 5273 H 492.621 1.97806 4.16738 0
M  V30 5274 H 490.864 1.9226 3.88868 0
M  V30 5275 H 491.535 1.24857 5.37694 0
M  V30 5276 H 494.011 -0.240519 4.15404 0
M  V30 5277 H 492.887 -0.759622 5.43618 0
M  V30 5278 H 493.148 -1.79397 4.04066 0
M  V30 5279 N 492.207 -1.54576 0.307264 0
M  V30 5280 C 493.623 -1.59534 -0.0459251 0
M  V30 5281 C 493.823 -1.32414 -1.51884 0
M  V30 5282 O 492.879 -1.1006 -2.27251 0
M  V30 5283 C 494.192 -2.98566 0.357649 0
M  V30 5284 C 495.74 -3.11491 0.306937 0
M  V30 5285 C 496.215 -4.52842 0.685427 0
M  V30 5286 N 497.706 -4.58782 0.638203 0
M  V30 5287 C 498.441 -5.66238 0.903458 0
M  V30 5288 N 497.937 -6.81703 1.23501 0
M  V30 5289 N 499.73 -5.55937 0.830102 0
M  V30 5290 H 491.881 -1.70464 1.26712 0
M  V30 5291 H 494.144 -0.79647 0.514139 0
M  V30 5292 H 493.85 -3.23356 1.38325 0
M  V30 5293 H 493.724 -3.76117 -0.285565 0
M  V30 5294 H 496.111 -2.86446 -0.709424 0
M  V30 5295 H 496.192 -2.36081 0.984861 0
M  V30 5296 H 495.836 -4.78618 1.69963 0
M  V30 5297 H 495.766 -5.26598 -0.0146346 0
M  V30 5298 H 498.257 -3.75849 0.393138 0
M  V30 5299 H 498.57 -7.59582 1.42322 0
M  V30 5300 H 496.915 -6.8324 1.27311 0
M  V30 5301 H 500.106 -4.64608 0.570693 0
M  V30 5302 H 500.279 -6.39597 1.04019 0
M  V30 5303 N 493.685 -0.035106 -1.57561 0
M  V30 5304 C 494.931 0.64318 -1.92331 0
M  V30 5305 C 495.264 1.71434 -0.912368 0
M  V30 5306 O 494.539 1.94395 0.0640303 0
M  V30 5307 C 494.822 1.25411 -3.37556 0
M  V30 5308 C 494.675 0.192109 -4.4939 0
M  V30 5309 C 495.994 2.17041 -3.82859 0
M  V30 5310 H 493.113 0.232341 -0.699419 0
M  V30 5311 H 495.755 -0.0935889 -1.89769 0
M  V30 5312 H 493.905 1.88205 -3.39869 0
M  V30 5313 H 495.577 -0.438849 -4.59208 0
M  V30 5314 H 493.82 -0.481725 -4.31117 0
M  V30 5315 H 494.491 0.659292 -5.48049 0
M  V30 5316 H 496.967 1.64228 -3.8232 0
M  V30 5317 H 495.843 2.56738 -4.85157 0
M  V30 5318 H 496.104 3.06401 -3.18702 0
M  V30 5319 N 495.163 1.55791 0.238111 0
M  V30 5320 C 496.403 1.79801 0.972163 0
M  V30 5321 C 496.767 0.606027 1.82185 0
M  V30 5322 O 497.968 0.725079 2.58836 0
M  V30 5323 C 496.239 3.08608 1.80266 0
M  V30 5324 S 497.798 3.53872 2.59461 0
M  V30 5325 H 494.616 0.631418 0.326852 0
M  V30 5326 H 497.218 1.94031 0.239212 0
M  V30 5327 H 495.922 3.93419 1.1683 0
M  V30 5328 H 495.453 2.9714 2.57821 0
M  V30 5329 H 497.468 3.15899 3.82651 0
M  V30 5330 N 496.642 -0.504142 1.49319 0
M  V30 5331 C 498.053 -1.08572 1.51885 0
M  V30 5332 C 498.404 -1.93842 0.303255 0
M  V30 5333 O 497.529 -2.0828 -0.58724 0
M  V30 5334 C 498.124 -1.97574 2.75227 0
M  V30 5335 C 496.683 -2.509 2.80581 0
M  V30 5336 C 495.83 -1.28447 2.45757 0
M  V30 5337 H 498.781 -0.288194 1.56061 0
M  V30 5338 H 498.802 -2.82219 2.55211 0
M  V30 5339 H 498.314 -1.35486 3.63683 0
M  V30 5340 H 496.415 -3.16636 1.96398 0
M  V30 5341 H 496.528 -2.88268 3.82673 0
M  V30 5342 H 494.892 -1.60868 1.97468 0
M  V30 5343 H 495.675 -0.68072 3.36483 0
M  V30 5344 N 498.12 -1.38341 -0.754957 0
M  V30 5345 C 499.348 -1.37704 -1.54419 0
M  V30 5346 C 499.763 0.0335243 -1.8877 0
M  V30 5347 O 499.12 0.999773 -1.52679 0
M  V30 5348 C 499.171 -2.23136 -2.84416 0
M  V30 5349 O 498.892 -3.58697 -2.51531 0
M  V30 5350 C 500.393 -2.30664 -3.78562 0
M  V30 5351 H 497.613 -0.471061 -0.477852 0
M  V30 5352 H 500.157 -1.81902 -0.934446 0
M  V30 5353 H 498.312 -1.82403 -3.41772 0
M  V30 5354 H 498.726 -4.03665 -3.34896 0
M  V30 5355 H 500.2 -2.9473 -4.66732 0
M  V30 5356 H 500.677 -1.3199 -4.18898 0
M  V30 5357 H 501.283 -2.71781 -3.27131 0
M  V30 5358 N 499.598 0.982988 -1.23187 0
M  V30 5359 C 500.875 1.69814 -0.970707 0
M  V30 5360 C 501.255 2.04811 0.511424 0
M  V30 5361 O 500.603 1.73924 1.48198 0
M  V30 5362 C 500.813 2.94143 -1.87831 0
M  V30 5363 C 502.161 3.66712 -2.14026 0
M  V30 5364 O 503.185 3.04171 -1.8536 0
M  V30 5365 O 502.044 4.79258 -2.62629 0
M  V30 5366 H 499.138 0.741659 -0.365884 0
M  V30 5367 H 501.684 1.03844 -1.34218 0
M  V30 5368 H 500.456 2.64858 -2.88038 0
M  V30 5369 H 500.079 3.6785 -1.50905 0
M  V30 5370 N 501.076 1.04316 1.18135 0
M  V30 5371 C 501.986 0.646876 2.25505 0
M  V30 5372 C 503.002 -0.328008 1.7088 0
M  V30 5373 O 504.178 -0.182309 2.00573 0
M  V30 5374 C 501.243 0.0185664 3.46695 0
M  V30 5375 C 500.304 1.04277 4.16443 0
M  V30 5376 C 499.537 0.444352 5.31847 0
M  V30 5377 O 499.76 -0.748735 5.65465 0
M  V30 5378 O 498.694 1.17428 5.90334 0
M  V30 5379 H 502.52 1.54147 2.61672 0
M  V30 5380 H 500.105 0.814188 1.25265 0
M  V30 5381 H 501.987 -0.331068 4.20097 0
M  V30 5382 H 500.662 -0.849814 3.12346 0
M  V30 5383 H 499.569 1.44425 3.45098 0
M  V30 5384 H 500.902 1.882 4.54798 0
M  V30 5385 N 502.554 -1.34406 0.822964 0
M  V30 5386 C 503.831 -1.92733 0.333641 0
M  V30 5387 C 504.211 -1.75107 -1.17901 0
M  V30 5388 O 503.559 -1.12983 -1.98613 0
M  V30 5389 C 503.769 -3.40557 0.763023 0
M  V30 5390 C 505.117 -4.17709 0.761879 0
M  V30 5391 O 506.141 -3.49141 0.705606 0
M  V30 5392 O 505 -5.40082 0.835109 0
M  V30 5393 H 502.094 -0.821964 0.0911249 0
M  V30 5394 H 504.64 -1.4338 0.907757 0
M  V30 5395 H 503.412 -3.47187 1.8049 0
M  V30 5396 H 503.035 -3.97259 0.164605 0
M  V30 5397 N 504.032 -0.577932 -1.46621 0
M  V30 5398 C 505.448 -0.239242 -1.57797 0
M  V30 5399 C 505.648 1.25843 -1.57371 0
M  V30 5400 O 504.704 2.03988 -1.48813 0
M  V30 5401 C 506.017 -0.884227 -2.87405 0
M  V30 5402 C 507.565 -0.857373 -3.01028 0
M  V30 5403 C 508.04 -1.48181 -4.33366 0
M  V30 5404 N 509.531 -1.44593 -4.40053 0
M  V30 5405 C 510.266 -1.89852 -5.41058 0
M  V30 5406 N 509.762 -2.43062 -6.48762 0
M  V30 5407 N 511.555 -1.80797 -5.3223 0
M  V30 5408 H 503.706 -1.55073 -1.45142 0
M  V30 5409 H 505.969 -0.647903 -0.692044 0
M  V30 5410 H 505.675 -1.93759 -2.93514 0
M  V30 5411 H 505.549 -0.389585 -3.75183 0
M  V30 5412 H 507.936 0.187357 -2.94505 0
M  V30 5413 H 508.017 -1.38999 -2.14739 0
M  V30 5414 H 507.661 -2.52572 -4.40647 0
M  V30 5415 H 507.591 -0.924464 -5.18422 0
M  V30 5416 H 510.082 -1.05694 -3.62819 0
M  V30 5417 H 510.395 -2.75466 -7.22038 0
M  V30 5418 H 508.74 -2.47085 -6.49595 0
M  V30 5419 H 511.931 -1.38989 -4.46989 0
M  V30 5420 H 512.104 -2.16385 -6.10804 0
M  V30 5421 N 505.51 1.54411 -0.315457 0
M  V30 5422 C 506.457 2.24048 0.554166 0
M  V30 5423 C 507.427 1.2283 1.11812 0
M  V30 5424 O 508.612 1.51491 1.15997 0
M  V30 5425 C 505.752 2.99574 1.71316 0
M  V30 5426 C 504.865 4.15594 1.17922 0
M  V30 5427 C 504 4.78669 2.30324 0
M  V30 5428 C 503.039 5.86807 1.74137 0
M  V30 5429 N 502.176 6.43777 2.8017 0
M  V30 5430 H 507.016 2.97964 -0.0462602 0
M  V30 5431 H 504.553 1.47059 -0.0346009 0
M  V30 5432 H 506.511 3.41604 2.39505 0
M  V30 5433 H 505.141 2.28008 2.285 0
M  V30 5434 H 504.193 3.78404 0.389136 0
M  V30 5435 H 505.505 4.93459 0.728012 0
M  V30 5436 H 504.659 5.23626 3.06433 0
M  V30 5437 H 503.398 4.00168 2.78778 0
M  V30 5438 H 502.403 5.41261 0.965236 0
M  V30 5439 H 503.628 6.67201 1.2657 0
M  V30 5440 H 501.574 5.68153 3.2793 0
M  V30 5441 H 501.491 7.17031 2.39588 0
M  V30 5442 H 502.759 6.9339 3.56132 0
M  V30 5443 N 506.988 0.0434614 1.5754 0
M  V30 5444 C 507.935 -0.93356 2.11077 0
M  V30 5445 C 508.905 -1.31383 1.01626 0
M  V30 5446 O 510.09 -1.40465 1.29129 0
M  V30 5447 C 507.23 -2.20578 2.65404 0
M  V30 5448 C 506.343 -1.88068 3.88914 0
M  V30 5449 C 505.478 -3.09691 4.31584 0
M  V30 5450 C 504.517 -2.73067 5.47815 0
M  V30 5451 N 503.654 -3.87359 5.85574 0
M  V30 5452 H 508.494 -0.470118 2.94268 0
M  V30 5453 H 506.031 -0.220434 1.45439 0
M  V30 5454 H 507.989 -2.95011 2.94999 0
M  V30 5455 H 506.619 -2.64513 1.85021 0
M  V30 5456 H 505.671 -1.03816 3.6596 0
M  V30 5457 H 506.983 -1.57104 4.73413 0
M  V30 5458 H 506.137 -3.92431 4.62691 0
M  V30 5459 H 504.876 -3.43827 3.45882 0
M  V30 5460 H 503.881 -1.88742 5.16388 0
M  V30 5461 H 505.106 -2.40131 6.35227 0
M  V30 5462 H 503.052 -4.21311 5.02825 0
M  V30 5463 H 502.969 -3.60068 6.64746 0
M  V30 5464 H 504.237 -4.70761 6.21292 0
M  V30 5465 N 508.466 -1.55915 -0.229846 0
M  V30 5466 C 509.713 -1.78542 -0.955452 0
M  V30 5467 C 510.041 -0.610785 -1.84661 0
M  V30 5468 O 509.296 0.405213 -1.91459 0
M  V30 5469 C 509.595 -3.06845 -1.8325 0
M  V30 5470 C 509.261 -4.37395 -1.09528 0
M  V30 5471 C 507.923 -4.72868 -0.891598 0
M  V30 5472 C 510.275 -5.18029 -0.574046 0
M  V30 5473 C 507.603 -5.86496 -0.154655 0
M  V30 5474 C 509.955 -6.32423 0.149513 0
M  V30 5475 C 508.619 -6.66504 0.364519 0
M  V30 5476 H 507.889 -0.653333 -0.349625 0
M  V30 5477 H 510.536 -1.90183 -0.224235 0
M  V30 5478 H 508.841 -2.90291 -2.63132 0
M  V30 5479 H 510.538 -3.21553 -2.39592 0
M  V30 5480 H 507.128 -4.09538 -1.26399 0
M  V30 5481 H 511.312 -4.91066 -0.718899 0
M  V30 5482 H 506.568 -6.11396 0.0222356 0
M  V30 5483 H 510.742 -6.94137 0.560947 0
M  V30 5484 H 508.369 -7.54397 0.937495 0
M  V30 5485 N 509.944 0.496216 -1.49584 0
M  V30 5486 C 510.876 1.61404 -1.62731 0
M  V30 5487 C 511.889 1.54613 -0.50978 0
M  V30 5488 O 513.078 1.60458 -0.782017 0
M  V30 5489 C 510.178 3.00212 -1.57245 0
M  V30 5490 C 509.351 3.32138 -2.84611 0
M  V30 5491 C 508.41 4.5038 -2.72112 0
M  V30 5492 O 507.436 4.51926 -3.46051 0
M  V30 5493 N 508.638 5.50575 -1.83977 0
M  V30 5494 H 511.403 1.50552 -2.59141 0
M  V30 5495 H 508.964 0.684182 -1.46733 0
M  V30 5496 H 510.956 3.77241 -1.4653 0
M  V30 5497 H 509.526 3.04964 -0.686729 0
M  V30 5498 H 508.746 2.4396 -3.09641 0
M  V30 5499 H 510.034 3.50268 -3.69039 0
M  V30 5500 H 509.432 5.52128 -1.23171 0
M  V30 5501 H 507.989 6.26687 -1.79182 0
M  V30 5502 N 511.423 1.38739 0.74761 0
M  V30 5503 C 512.653 1.3832 1.53464 0
M  V30 5504 C 513.061 -0.0273464 1.8918 0
M  V30 5505 O 512.404 -1.00588 1.53713 0
M  V30 5506 C 512.466 2.18007 2.85855 0
M  V30 5507 C 512.13 3.66762 2.72644 0
M  V30 5508 C 513.127 4.60124 2.42037 0
M  V30 5509 C 510.812 4.10193 2.89909 0
M  V30 5510 C 512.806 5.94897 2.28859 0
M  V30 5511 C 510.493 5.45045 2.7635 0
M  V30 5512 C 511.491 6.37211 2.45869 0
M  V30 5513 O 511.179 7.69581 2.3238 0
M  V30 5514 H 510.911 0.474718 0.481268 0
M  V30 5515 H 513.465 1.83012 0.932518 0
M  V30 5516 H 511.695 1.68043 3.48279 0
M  V30 5517 H 513.384 2.09921 3.47402 0
M  V30 5518 H 514.15 4.27874 2.28361 0
M  V30 5519 H 510.029 3.38797 3.1263 0
M  V30 5520 H 513.573 6.66802 2.04989 0
M  V30 5521 H 509.47 5.76889 2.89601 0
M  V30 5522 H 510.238 7.80169 2.47546 0
M  V30 5523 N 512.901 -0.976442 1.23707 0
M  V30 5524 C 514.317 -1.24341 1.00058 0
M  V30 5525 C 514.517 -1.99315 -0.295932 0
M  V30 5526 O 513.573 -2.3123 -1.01435 0
M  V30 5527 C 514.886 -2.03909 2.21001 0
M  V30 5528 C 516.434 -2.17034 2.25534 0
M  V30 5529 C 516.909 -2.99994 3.46075 0
M  V30 5530 N 518.4 -3.07578 3.46338 0
M  V30 5531 C 519.135 -3.72104 4.36264 0
M  V30 5532 N 518.631 -4.3842 5.36432 0
M  V30 5533 N 520.424 -3.69029 4.23998 0
M  V30 5534 H 512.575 -0.47428 2.07037 0
M  V30 5535 H 514.838 -0.272167 0.908091 0
M  V30 5536 H 514.544 -1.56198 3.15111 0
M  V30 5537 H 514.418 -3.04654 2.22409 0
M  V30 5538 H 516.805 -2.63951 1.31961 0
M  V30 5539 H 516.886 -1.15664 2.28156 0
M  V30 5540 H 516.53 -2.53772 4.39957 0
M  V30 5541 H 516.46 -4.01541 3.40694 0
M  V30 5542 H 518.951 -2.60397 2.73865 0
M  V30 5543 H 519.264 -4.85447 6.013 0
M  V30 5544 H 517.609 -4.37116 5.40328 0
M  V30 5545 H 520.8 -3.16392 3.44984 0
M  V30 5546 H 520.973 -4.19034 4.94282 0
M  V30 5547 N 514.379 -1.04941 -1.1758 0
M  V30 5548 C 515.609 -0.777166 -1.91425 0
M  V30 5549 C 516.017 0.670647 -1.76915 0
M  V30 5550 O 515.36 1.46965 -1.10213 0
M  V30 5551 C 515.422 -1.07495 -3.43052 0
M  V30 5552 C 515.086 -2.51844 -3.81345 0
M  V30 5553 C 516.083 -3.50047 -3.844 0
M  V30 5554 C 513.768 -2.86787 -4.12382 0
M  V30 5555 C 515.762 -4.81239 -4.17957 0
M  V30 5556 C 513.449 -4.18182 -4.45608 0
M  V30 5557 C 514.447 -5.15219 -4.48373 0
M  V30 5558 O 514.135 -6.44258 -4.80819 0
M  V30 5559 H 513.867 -0.282209 -0.614275 0
M  V30 5560 H 516.421 -1.40258 -1.50056 0
M  V30 5561 H 514.651 -0.392437 -3.84704 0
M  V30 5562 H 516.34 -0.78912 -3.98155 0
M  V30 5563 H 517.106 -3.24391 -3.60548 0
M  V30 5564 H 512.985 -2.11922 -4.09402 0
M  V30 5565 H 516.529 -5.56974 -4.2003 0
M  V30 5566 H 512.426 -4.43602 -4.68922 0
M  V30 5567 H 513.194 -6.49041 -4.98686 0
M  V30 5568 N 515.857 1.33968 -0.830081 0
M  V30 5569 C 517.134 1.92554 -0.343858 0
M  V30 5570 C 517.514 1.7573 1.16971 0
M  V30 5571 O 516.862 1.14035 1.98011 0
M  V30 5572 C 517.072 3.40147 -0.781073 0
M  V30 5573 C 518.42 4.17299 -0.78402 0
M  V30 5574 O 519.444 3.48762 -0.724112 0
M  V30 5575 O 518.303 5.39631 -0.863739 0
M  V30 5576 H 515.397 0.821469 -0.0954827 0
M  V30 5577 H 517.943 1.42897 -0.915348 0
M  V30 5578 H 516.715 3.46225 -1.82329 0
M  V30 5579 H 516.338 3.97166 -0.18567 0
M  V30 5580 N 517.335 0.585699 1.46312 0
M  V30 5581 C 518.285 -0.166813 2.27389 0
M  V30 5582 C 519.269 -0.859076 1.36047 0
M  V30 5583 O 520.461 -0.752678 1.60199 0
M  V30 5584 C 517.59 -1.17791 3.2246 0
M  V30 5585 C 516.676 -0.487605 4.21288 0
M  V30 5586 N 517.067 0.45849 5.03718 0
M  V30 5587 C 515.365 -0.737971 4.39852 0
M  V30 5588 C 516.066 0.862213 5.75275 0
M  V30 5589 N 515.042 0.210707 5.43191 0
M  V30 5590 H 518.844 0.560167 2.88512 0
M  V30 5591 H 516.358 0.407715 1.57199 0
M  V30 5592 H 518.355 -1.73122 3.79255 0
M  V30 5593 H 517.015 -1.90568 2.62896 0
M  V30 5594 H 518.026 0.834163 5.11138 0
M  V30 5595 H 514.703 -1.45209 3.91434 0
M  V30 5596 H 516.093 1.64128 6.51546 0
M  V30 5597 N 518.813 -1.54241 0.323641 0
M  V30 5598 C 519.746 -2.20579 -0.584833 0
M  V30 5599 C 520.724 -1.18286 -1.11567 0
M  V30 5600 O 521.908 -1.47025 -1.17966 0
M  V30 5601 C 519.035 -2.86754 -1.80249 0
M  V30 5602 C 518.081 -4.02767 -1.4029 0
M  V30 5603 S 518.914 -5.33693 -0.439539 0
M  V30 5604 C 520.07 -6.03362 -1.66448 0
M  V30 5605 H 520.303 -2.97292 -0.0213238 0
M  V30 5606 H 517.836 -1.54024 0.107726 0
M  V30 5607 H 519.794 -3.25503 -2.50116 0
M  V30 5608 H 518.455 -2.09844 -2.33719 0
M  V30 5609 H 517.648 -4.47933 -2.31024 0
M  V30 5610 H 517.25 -3.65692 -0.783928 0
M  V30 5611 H 519.542 -6.25546 -2.6019 0
M  V30 5612 H 520.485 -6.9689 -1.25498 0
M  V30 5613 H 520.893 -5.33273 -1.85149 0
M  V30 5614 N 520.291 -0.0518155 -1.57515 0
M  V30 5615 C 521.521 0.63048 -1.96745 0
M  V30 5616 C 521.929 1.64875 -0.928054 0
M  V30 5617 O 521.272 1.83449 0.0960678 0
M  V30 5618 C 521.334 1.37381 -3.32215 0
M  V30 5619 C 520.998 0.511298 -4.54131 0
M  V30 5620 C 521.995 -0.222884 -5.19422 0
M  V30 5621 C 519.68 0.442035 -5.00351 0
M  V30 5622 C 521.674 -1.01476 -6.2927 0
M  V30 5623 C 519.361 -0.35353 -6.10077 0
M  V30 5624 C 520.359 -1.08062 -6.74397 0
M  V30 5625 O 520.047 -1.8631 -7.82013 0
M  V30 5626 H 519.779 0.177126 -0.652382 0
M  V30 5627 H 522.333 -0.114726 -2.05079 0
M  V30 5628 H 520.563 2.16466 -3.20436 0
M  V30 5629 H 522.252 1.9464 -3.56188 0
M  V30 5630 H 523.018 -0.178846 -4.8467 0
M  V30 5631 H 518.897 0.997562 -4.50077 0
M  V30 5632 H 522.441 -1.58279 -6.79407 0
M  V30 5633 H 518.338 -0.399205 -6.44264 0
M  V30 5634 H 519.106 -1.78528 -7.98793 0
M  V30 5635 N 521.769 1.56035 0.221574 0
M  V30 5636 C 522.716 1.92413 1.27459 0
M  V30 5637 C 523.686 0.781323 1.46576 0
M  V30 5638 O 524.871 1.03721 1.60145 0
M  V30 5639 C 522.011 2.24617 2.61995 0
M  V30 5640 C 521.124 3.51831 2.50677 0
M  V30 5641 C 520.259 3.73482 3.77736 0
M  V30 5642 C 519.298 4.94211 3.6114 0
M  V30 5643 N 518.435 5.12252 4.80148 0
M  V30 5644 H 523.275 2.82203 0.957355 0
M  V30 5645 H 520.812 1.39676 0.461415 0
M  V30 5646 H 522.77 2.41298 3.40339 0
M  V30 5647 H 521.4 1.38 2.91815 0
M  V30 5648 H 520.452 3.43343 1.63767 0
M  V30 5649 H 521.764 4.40328 2.34334 0
M  V30 5650 H 520.918 3.9026 4.64523 0
M  V30 5651 H 519.657 2.83266 3.97003 0
M  V30 5652 H 518.662 4.77384 2.72736 0
M  V30 5653 H 519.887 5.85912 3.43343 0
M  V30 5654 H 517.833 4.24978 4.99729 0
M  V30 5655 H 517.75 5.94881 4.66532 0
M  V30 5656 H 519.018 5.33465 5.68362 0
M  V30 5657 N 523.247 -0.488276 1.49845 0
M  V30 5658 C 524.658 -1.06955 1.53028 0
M  V30 5659 C 525.009 -1.9351 0.323797 0
M  V30 5660 O 524.134 -2.08891 -0.565116 0
M  V30 5661 C 524.729 -1.94643 2.77307 0
M  V30 5662 C 523.288 -2.4791 2.83227 0
M  V30 5663 C 522.435 -1.25833 2.47106 0
M  V30 5664 H 525.386 -0.271626 1.56358 0
M  V30 5665 H 525.407 -2.79496 2.5819 0
M  V30 5666 H 524.919 -1.31621 3.65099 0
M  V30 5667 H 523.02 -3.14535 1.99745 0
M  V30 5668 H 523.133 -2.84193 3.85709 0
M  V30 5669 H 521.497 -1.58764 1.99163 0
M  V30 5670 H 522.28 -0.644993 3.37186 0
M  V30 5671 N 524.725 -1.39134 -0.740242 0
M  V30 5672 C 525.655 -1.40165 -1.86751 0
M  V30 5673 C 526.636 -0.265708 -1.68012 0
M  V30 5674 O 527.821 -0.47076 -1.88408 0
M  V30 5675 C 524.951 -1.2392 -3.2444 0
M  V30 5676 C 523.905 -2.34858 -3.57807 0
M  V30 5677 C 523.231 -2.03707 -4.94376 0
M  V30 5678 C 524.531 -3.77159 -3.61315 0
M  V30 5679 H 526.225 -2.345 -1.86145 0
M  V30 5680 H 523.771 -1.12875 -0.89416 0
M  V30 5681 H 525.724 -1.23263 -4.02969 0
M  V30 5682 H 524.448 -0.26051 -3.25559 0
M  V30 5683 H 523.107 -2.34723 -2.81604 0
M  V30 5684 H 522.755 -1.04289 -4.9207 0
M  V30 5685 H 522.455 -2.78016 -5.17669 0
M  V30 5686 H 523.979 -2.04691 -5.75268 0
M  V30 5687 H 525.393 -3.79252 -4.29931 0
M  V30 5688 H 523.79 -4.50784 -3.96124 0
M  V30 5689 H 524.86 -4.08513 -2.61238 0
M  V30 5690 N 526.204 0.969867 -1.24223 0
M  V30 5691 C 527.444 1.72754 -1.0925 0
M  V30 5692 C 527.808 1.88541 0.362787 0
M  V30 5693 O 529.009 2.61217 0.633969 0
M  V30 5694 C 527.28 3.08204 -1.80957 0
M  V30 5695 S 528.839 3.99418 -1.81688 0
M  V30 5696 H 525.657 0.593981 -0.390778 0
M  V30 5697 H 528.259 1.15792 -1.5752 0
M  V30 5698 H 526.963 2.94372 -2.85961 0
M  V30 5699 H 526.494 3.70232 -1.33012 0
M  V30 5700 H 528.509 4.8828 -0.883001 0
M  V30 5701 N 527.682 1.05563 1.17022 0
M  V30 5702 C 528.612 0.681026 2.23348 0
M  V30 5703 C 529.593 -0.322983 1.67005 0
M  V30 5704 O 530.778 -0.199746 1.9317 0
M  V30 5705 C 527.908 0.0589053 3.4725 0
M  V30 5706 C 526.862 0.988082 4.16438 0
M  V30 5707 C 526.188 0.229646 5.34207 0
M  V30 5708 C 527.488 2.31388 4.68249 0
M  V30 5709 H 529.182 1.56993 2.54938 0
M  V30 5710 H 526.728 0.756302 1.2254 0
M  V30 5711 H 528.681 -0.214982 4.20851 0
M  V30 5712 H 527.405 -0.864968 3.14938 0
M  V30 5713 H 526.064 1.24659 3.44754 0
M  V30 5714 H 525.712 -0.697111 4.98146 0
M  V30 5715 H 525.412 0.848815 5.81437 0
M  V30 5716 H 526.936 -0.0368694 6.10589 0
M  V30 5717 H 528.35 2.09964 5.33468 0
M  V30 5718 H 526.747 2.88736 5.26072 0
M  V30 5719 H 527.817 2.94982 3.84855 0
M  V30 5720 N 529.16 -1.33526 0.837174 0
M  V30 5721 C 530.11 -2.2672 0.241269 0
M  V30 5722 C 531.094 -1.49183 -0.602756 0
M  V30 5723 O 532.286 -1.71052 -0.455002 0
M  V30 5724 C 529.415 -3.38294 -0.584125 0
M  V30 5725 C 528.501 -4.23231 0.271315 0
M  V30 5726 N 528.892 -4.87473 1.34922 0
M  V30 5727 C 527.19 -4.45962 0.0580589 0
M  V30 5728 C 527.891 -5.50685 1.87405 0
M  V30 5729 N 526.867 -5.30732 1.17578 0
M  V30 5730 H 530.669 -2.73903 1.06558 0
M  V30 5731 H 528.183 -1.47411 0.68145 0
M  V30 5732 H 530.18 -4.04044 -1.02731 0
M  V30 5733 H 528.84 -2.9266 -1.40643 0
M  V30 5734 H 529.851 -4.88077 1.7321 0
M  V30 5735 H 526.528 -4.11052 -0.730938 0
M  V30 5736 H 527.918 -6.11845 2.77661 0
M  V30 5737 N 530.638 -0.59345 -1.46 0
M  V30 5738 C 531.886 -0.082988 -2.0193 0
M  V30 5739 C 532.207 1.28569 -1.46612 0
M  V30 5740 O 531.477 1.84629 -0.654909 0
M  V30 5741 H 530.057 -0.0276882 -0.746487 0
M  V30 5742 H 532.719 -0.771657 -1.78973 0
M  V30 5743 H 531.815 -0.022079 -3.12092 0
M  V30 5744 N 532.116 1.54067 -0.331816 0
M  V30 5745 C 533.363 2.00715 0.268269 0
M  V30 5746 C 533.691 1.21986 1.51491 0
M  V30 5747 O 532.946 0.292309 1.93505 0
M  V30 5748 C 533.245 3.51634 0.639392 0
M  V30 5749 C 532.911 4.48018 -0.509019 0
M  V30 5750 C 531.573 4.74089 -0.824209 0
M  V30 5751 C 533.925 5.05237 -1.28003 0
M  V30 5752 C 531.253 5.54637 -1.91298 0
M  V30 5753 C 533.605 5.86972 -2.35895 0
M  V30 5754 C 532.269 6.11342 -2.67987 0
M  V30 5755 H 531.539 0.734469 0.0981667 0
M  V30 5756 H 534.186 1.8596 -0.457304 0
M  V30 5757 H 532.491 3.6416 1.44551 0
M  V30 5758 H 534.188 3.85175 1.11539 0
M  V30 5759 H 530.778 4.27851 -0.253287 0
M  V30 5760 H 534.962 4.8507 -1.04978 0
M  V30 5761 H 530.218 5.71747 -2.16599 0
M  V30 5762 H 534.392 6.30327 -2.96076 0
M  V30 5763 H 532.019 6.73544 -3.5248 0
M  V30 5764 N 533.594 0.0601682 1.57485 0
M  V30 5765 C 534.542 -0.928899 2.13247 0
M  V30 5766 C 535.536 -1.31616 1.06647 0
M  V30 5767 O 536.742 -1.29476 1.25043 0
M  V30 5768 H 533.117 -0.317455 0.681708 0
M  V30 5769 H 535.088 -0.433566 2.95233 0
M  V30 5770 C 533.837 -2.19121 2.69965 0
M  V30 5771 H 533.16 -1.90204 3.51657 0
M  V30 5772 H 534.6 -2.86465 3.12592 0
M  V30 5773 C 533.059 -2.94195 1.64168 0
M  V30 5774 O 533.589 -3.87468 1.05978 0
M  V30 5775 N 531.795 -2.57089 1.35476 0
M  V30 5776 H 531.342 -1.81314 1.82984 0
M  V30 5777 H 531.3 -3.07624 0.649196 0
M  V30 5778 N 535.072 -1.5615 -0.213296 0
M  V30 5779 C 536.349 -1.70349 -0.961281 0
M  V30 5780 C 536.729 -0.609791 -2.02101 0
M  V30 5781 O 536.077 0.381987 -2.25285 0
M  V30 5782 C 536.287 -3.11982 -1.56424 0
M  V30 5783 C 537.635 -3.71649 -2.05334 0
M  V30 5784 O 538.659 -3.14995 -1.66302 0
M  V30 5785 O 537.518 -4.71038 -2.77102 0
M  V30 5786 H 534.612 -0.694121 -0.449582 0
M  V30 5787 H 537.158 -1.68464 -0.204426 0
M  V30 5788 H 535.93 -3.83046 -0.799457 0
M  V30 5789 H 535.553 -3.18019 -2.38641 0
M  V30 5790 N 536.55 0.480323 -1.50102 0
M  V30 5791 C 537.775 1.26126 -1.64642 0
M  V30 5792 C 538.2 1.85257 -0.325823 0
M  V30 5793 O 537.558 1.66854 0.709194 0
M  V30 5794 C 537.606 2.35243 -2.73301 0
M  V30 5795 O 536.71 3.39646 -2.33911 0
M  V30 5796 H 536.051 0.371463 -0.550374 0
M  V30 5797 H 538.581 0.572696 -1.96421 0
M  V30 5798 H 538.591 2.80695 -2.96098 0
M  V30 5799 H 537.266 1.91574 -3.6915 0
M  V30 5800 H 535.843 2.99969 -2.21525 0
M  V30 5801 N 538.028 1.39524 0.732853 0
M  V30 5802 C 539.305 1.27373 1.48444 0
M  V30 5803 C 539.685 -0.115725 2.10783 0
M  V30 5804 O 539.033 -1.12713 1.98766 0
M  V30 5805 C 539.243 2.39966 2.53412 0
M  V30 5806 C 540.591 2.79384 3.19733 0
M  V30 5807 O 541.615 2.39431 2.63725 0
M  V30 5808 O 540.474 3.48353 4.21085 0
M  V30 5809 H 537.568 0.499272 0.659285 0
M  V30 5810 H 540.114 1.51403 0.766496 0
M  V30 5811 H 538.886 3.32845 2.05742 0
M  V30 5812 H 538.509 2.17612 3.32762 0
M  V30 5813 N 539.506 -0.963266 1.24736 0
M  V30 5814 C 540.436 -2.07628 1.06832 0
M  V30 5815 C 541.417 -1.70088 -0.0200566 0
M  V30 5816 O 542.602 -1.93636 0.147854 0
M  V30 5817 C 539.732 -3.40636 0.677069 0
M  V30 5818 C 538.686 -3.9215 1.71471 0
M  V30 5819 C 538.012 -5.21553 1.1784 0
M  V30 5820 C 539.312 -4.19493 3.11164 0
M  V30 5821 H 541.006 -2.22864 1.9993 0
M  V30 5822 H 538.552 -1.07093 0.96266 0
M  V30 5823 H 540.505 -4.17941 0.538792 0
M  V30 5824 H 539.229 -3.25313 -0.289612 0
M  V30 5825 H 537.888 -3.17005 1.84128 0
M  V30 5826 H 537.536 -5.02593 0.202195 0
M  V30 5827 H 537.236 -5.56988 1.87185 0
M  V30 5828 H 538.76 -6.01463 1.05233 0
M  V30 5829 H 540.174 -4.87487 3.01711 0
M  V30 5830 H 538.571 -4.66165 3.77902 0
M  V30 5831 H 539.641 -3.26097 3.58871 0
M  V30 5832 N 540.985 -1.06182 -1.16461 0
M  V30 5833 C 542.215 -0.797425 -1.9059 0
M  V30 5834 C 542.623 0.651845 -1.77616 0
M  V30 5835 O 541.966 1.45788 -1.11766 0
M  V30 5836 C 542.028 -1.11128 -3.41893 0
M  V30 5837 C 541.692 -2.55874 -3.78652 0
M  V30 5838 C 542.689 -3.54104 -3.80665 0
M  V30 5839 C 540.374 -2.91144 -4.09317 0
M  V30 5840 C 542.368 -4.85645 -4.12829 0
M  V30 5841 C 540.055 -4.22885 -4.41148 0
M  V30 5842 C 541.053 -5.19945 -4.42883 0
M  V30 5843 O 540.741 -6.49322 -4.73959 0
M  V30 5844 H 540.473 -0.288709 -0.611247 0
M  V30 5845 H 543.027 -1.41841 -1.4856 0
M  V30 5846 H 541.257 -0.433217 -3.84266 0
M  V30 5847 H 542.946 -0.831306 -3.97296 0
M  V30 5848 H 543.712 -3.28197 -3.57088 0
M  V30 5849 H 539.591 -2.16252 -4.07131 0
M  V30 5850 H 543.135 -5.61398 -4.14099 0
M  V30 5851 H 539.032 -4.48551 -4.6419 0
M  V30 5852 H 539.8 -6.54294 -4.91774 0
M  V30 5853 N 542.463 1.3308 -0.844243 0
M  V30 5854 C 543.426 2.27403 -0.286485 0
M  V30 5855 C 544.426 1.51179 0.547872 0
M  V30 5856 O 545.616 1.70421 0.360886 0
M  V30 5857 C 542.748 3.35653 0.595813 0
M  V30 5858 H 543.941 2.78248 -1.11885 0
M  V30 5859 H 541.494 1.43574 -0.617749 0
M  V30 5860 H 542.229 2.90058 1.4504 0
M  V30 5861 H 542.014 3.921 -0.00125994 0
M  V30 5862 H 543.504 4.05958 0.979168 0
M  V30 5863 N 543.941 0.601185 1.45683 0
M  V30 5864 C 545.357 0.264315 1.57396 0
M  V30 5865 C 545.557 -1.23324 1.59353 0
M  V30 5866 O 544.613 -2.01594 1.52039 0
M  V30 5867 C 545.926 0.929839 2.85962 0
M  V30 5868 C 547.474 0.905156 2.99626 0
M  V30 5869 C 547.949 1.55057 4.30954 0
M  V30 5870 N 549.44 1.51576 4.37697 0
M  V30 5871 C 550.175 1.98436 5.37969 0
M  V30 5872 N 549.671 2.53352 6.44813 0
M  V30 5873 N 551.464 1.89242 5.29286 0
M  V30 5874 H 543.615 1.57363 1.42656 0
M  V30 5875 H 545.878 0.658831 0.681649 0
M  V30 5876 H 545.584 1.98404 2.90394 0
M  V30 5877 H 545.458 0.449224 3.74515 0
M  V30 5878 H 547.845 -0.14048 2.94765 0
M  V30 5879 H 547.926 1.42397 2.12501 0
M  V30 5880 H 547.57 2.5955 4.36573 0
M  V30 5881 H 547.5 1.00682 5.16886 0
M  V30 5882 H 549.991 1.11452 3.61091 0
M  V30 5883 H 550.304 2.86918 7.17564 0
M  V30 5884 H 548.649 2.57388 6.45582 0
M  V30 5885 H 551.84 1.46083 4.44722 0
M  V30 5886 H 552.013 2.26075 6.07284 0
M  V30 5887 N 545.419 -1.53889 0.339982 0
M  V30 5888 C 546.329 -2.28604 -0.526988 0
M  V30 5889 C 547.345 -1.33578 -1.11503 0
M  V30 5890 O 548.521 -1.66612 -1.13148 0
M  V30 5891 C 545.586 -3.04164 -1.66389 0
M  V30 5892 C 544.647 -4.14809 -1.10599 0
M  V30 5893 C 543.88 -4.86756 -2.18871 0
M  V30 5894 O 544.103 -4.58343 -3.39526 0
M  V30 5895 O 543.037 -5.73289 -1.83366 0
M  V30 5896 H 546.863 -3.03594 0.0802707 0
M  V30 5897 H 544.448 -1.4903 0.105141 0
M  V30 5898 H 546.33 -3.51427 -2.32544 0
M  V30 5899 H 545.005 -2.32035 -2.25703 0
M  V30 5900 H 543.912 -3.71857 -0.409067 0
M  V30 5901 H 545.245 -4.89029 -0.557771 0
M  V30 5902 N 546.897 -0.0685191 -1.57451 0
M  V30 5903 C 547.86 0.885173 -2.11417 0
M  V30 5904 C 548.86 1.22853 -1.03748 0
M  V30 5905 O 550.05 1.16235 -1.2975 0
M  V30 5906 C 547.182 2.18964 -2.61281 0
M  V30 5907 H 548.375 0.417034 -2.96986 0
M  V30 5908 H 545.928 0.18014 -1.55258 0
M  V30 5909 H 546.663 2.70321 -1.79156 0
M  V30 5910 H 546.448 1.9534 -3.39977 0
M  V30 5911 H 547.938 2.87242 -3.0312 0
M  V30 5912 N 548.375 1.56261 0.205012 0
M  V30 5913 C 549.308 1.88797 1.28183 0
M  V30 5914 C 550.286 0.747018 1.44424 0
M  V30 5915 O 551.47 0.997039 1.59973 0
M  V30 5916 C 548.597 2.10949 2.64987 0
M  V30 5917 C 547.643 3.33649 2.6567 0
M  V30 5918 S 548.476 4.89078 2.18088 0
M  V30 5919 C 549.632 5.14286 3.56736 0
M  V30 5920 H 549.865 2.79837 1.00393 0
M  V30 5921 H 547.398 1.48911 0.408042 0
M  V30 5922 H 549.356 2.24395 3.4374 0
M  V30 5923 H 548.017 1.20678 2.89993 0
M  V30 5924 H 547.21 3.46245 3.66239 0
M  V30 5925 H 546.812 3.19146 1.94992 0
M  V30 5926 H 549.104 5.04198 4.52537 0
M  V30 5927 H 550.047 6.16096 3.49043 0
M  V30 5928 H 550.455 4.41957 3.51189 0
M  V30 5929 N 549.853 -0.472356 1.50355 0
M  V30 5930 C 550.785 -1.58795 1.65278 0
M  V30 5931 C 551.798 -1.53782 0.534313 0
M  V30 5932 O 552.987 -1.59193 0.807446 0
M  V30 5933 C 550.087 -2.97672 1.62001 0
M  V30 5934 C 549.26 -3.27568 2.89859 0
M  V30 5935 C 548.319 -4.45993 2.79242 0
M  V30 5936 O 547.345 -4.46364 3.53197 0
M  V30 5937 N 548.547 -5.47578 1.92713 0
M  V30 5938 H 551.312 -1.46411 2.61503 0
M  V30 5939 H 548.873 -0.660751 1.47803 0
M  V30 5940 H 550.865 -3.74862 1.52513 0
M  V30 5941 H 549.435 -3.03832 0.735159 0
M  V30 5942 H 548.655 -2.39003 3.13483 0
M  V30 5943 H 549.943 -3.44352 3.74565 0
M  V30 5944 H 549.341 -5.50099 1.31939 0
M  V30 5945 H 547.898 -6.23757 1.8913 0
M  V30 5946 N 551.331 -1.39911 -0.725443 0
M  V30 5947 C 552.279 -1.39552 -1.86086 0
M  V30 5948 C 553.273 -0.277334 -1.67114 0
M  V30 5949 O 554.479 -0.447865 -1.74339 0
M  V30 5950 H 550.854 -0.435993 -0.612711 0
M  V30 5951 H 552.825 -2.35305 -1.83505 0
M  V30 5952 C 551.574 -1.26529 -3.2386 0
M  V30 5953 H 550.897 -2.11845 -3.3906 0
M  V30 5954 H 552.337 -1.30336 -4.03471 0
M  V30 5955 C 550.796 0.0254168 -3.3689 0
M  V30 5956 O 551.326 0.992048 -3.89257 0
M  V30 5957 N 549.532 0.0916528 -2.90455 0
M  V30 5958 H 549.079 -0.695675 -2.48028 0
M  V30 5959 H 549.037 0.954745 -2.99553 0
M  V30 5960 N 552.809 0.956637 -1.25245 0
M  V30 5961 C 554.056 1.701 -1.09874 0
M  V30 5962 C 554.384 1.91128 0.36062 0
M  V30 5963 O 553.639 1.47837 1.28229 0
M  V30 5964 C 553.938 3.08996 -1.79601 0
M  V30 5965 C 553.604 3.07774 -3.29523 0
M  V30 5966 C 552.266 3.07149 -3.70423 0
M  V30 5967 C 554.618 3.01257 -4.25316 0
M  V30 5968 C 551.946 2.97752 -5.0553 0
M  V30 5969 C 554.298 2.93403 -5.60444 0
M  V30 5970 C 552.962 2.91111 -6.00675 0
M  V30 5971 H 552.232 0.62244 -0.402056 0
M  V30 5972 H 554.879 1.1178 -1.55491 0
M  V30 5973 H 553.184 3.70848 -1.26408 0
M  V30 5974 H 554.881 3.65407 -1.65162 0
M  V30 5975 H 551.471 3.09032 -2.9698 0
M  V30 5976 H 555.655 3.00861 -3.9471 0
M  V30 5977 H 550.911 2.94346 -5.35883 0
M  V30 5978 H 555.085 2.87321 -6.34366 0
M  V30 5979 H 552.712 2.83586 -7.05325 0
M  V30 5980 N 554.287 1.06798 1.15896 0
M  V30 5981 C 555.517 0.807522 1.90165 0
M  V30 5982 C 555.925 -0.642417 1.7796 0
M  V30 5983 O 555.268 -1.45193 1.12537 0
M  V30 5984 C 555.33 1.12939 3.41299 0
M  V30 5985 C 554.994 2.57879 3.7729 0
M  V30 5986 C 555.991 3.56118 3.78782 0
M  V30 5987 C 553.676 2.93311 4.07767 0
M  V30 5988 C 555.67 4.87827 4.10248 0
M  V30 5989 C 553.357 4.25219 4.38899 0
M  V30 5990 C 554.355 5.22287 4.4012 0
M  V30 5991 O 554.043 6.51826 4.70508 0
M  V30 5992 H 553.775 0.291946 0.609708 0
M  V30 5993 H 556.329 1.42627 1.47806 0
M  V30 5994 H 554.559 0.45359 3.84031 0
M  V30 5995 H 556.248 0.852363 3.9685 0
M  V30 5996 H 557.014 3.30086 3.55342 0
M  V30 5997 H 552.893 2.18409 4.05979 0
M  V30 5998 H 556.437 5.63586 4.11116 0
M  V30 5999 H 552.334 4.51006 4.61805 0
M  V30 6000 H 553.102 6.56893 4.88298 0
M  V30 6001 N 555.766 -1.3263 0.851289 0
M  V30 6002 C 556.996 -2.01271 0.466222 0
M  V30 6003 C 557.404 -1.64156 -0.940714 0
M  V30 6004 O 556.747 -0.857109 -1.62479 0
M  V30 6005 C 556.809 -3.55695 0.521672 0
M  V30 6006 C 556.473 -4.16227 1.88691 0
M  V30 6007 C 557.47 -4.34699 2.85189 0
M  V30 6008 C 555.155 -4.52377 2.18313 0
M  V30 6009 C 557.149 -4.88484 4.09465 0
M  V30 6010 C 554.836 -5.05868 3.42843 0
M  V30 6011 C 555.834 -5.23869 4.38235 0
M  V30 6012 O 555.522 -5.76218 5.6056 0
M  V30 6013 H 555.254 -0.651034 0.18202 0
M  V30 6014 H 557.808 -1.7026 1.14894 0
M  V30 6015 H 556.038 -3.86086 -0.217888 0
M  V30 6016 H 557.727 -4.05613 0.152682 0
M  V30 6017 H 558.493 -4.07107 2.63607 0
M  V30 6018 H 554.372 -4.37652 1.44851 0
M  V30 6019 H 557.916 -5.02451 4.83931 0
M  V30 6020 H 553.813 -5.32891 3.64277 0
M  V30 6021 H 554.581 -5.94616 5.62471 0
M  V30 6022 N 557.244 -0.608902 -1.45362 0
M  V30 6023 C 558.521 -0.0365378 -1.95566 0
M  V30 6024 C 558.901 1.43169 -1.55131 0
M  V30 6025 O 558.249 2.1349 -0.814513 0
M  V30 6026 C 558.459 -0.236026 -3.48201 0
M  V30 6027 C 559.807 -0.117518 -4.24437 0
M  V30 6028 O 560.831 -0.166217 -3.55812 0
M  V30 6029 O 559.69 -0.00372127 -5.465 0
M  V30 6030 H 556.784 0.0349874 -0.82626 0
M  V30 6031 H 559.33 -0.679055 -1.55521 0
M  V30 6032 H 558.102 -1.25569 -3.70605 0
M  V30 6033 H 557.725 0.441691 -3.95139 0
M  V30 6034 N 558.722 1.53707 -0.348139 0
M  V30 6035 C 559.97 2.00591 0.246478 0
M  V30 6036 C 560.291 1.23753 1.50699 0
M  V30 6037 O 559.561 0.345964 1.92821 0
M  V30 6038 H 558.141 0.741053 0.0940679 0
M  V30 6039 H 560.803 1.89139 -0.470354 0
M  V30 6040 H 559.899 3.08297 0.485714 0
M  V30 6041 N 560.2 0.0768682 1.57412 0
M  V30 6042 C 561.428 -0.59997 1.9801 0
M  V30 6043 C 561.843 -1.62842 0.955408 0
M  V30 6044 O 561.2 -1.8241 -0.057314 0
M  V30 6045 C 561.251 -1.26401 3.38681 0
M  V30 6046 O 560.972 -0.276723 4.37225 0
M  V30 6047 C 562.473 -2.0282 3.94182 0
M  V30 6048 H 559.693 -0.162239 0.651091 0
M  V30 6049 H 562.237 0.150771 2.03943 0
M  V30 6050 H 560.392 -1.96581 3.33819 0
M  V30 6051 H 560.806 -0.753744 5.19056 0
M  V30 6052 H 562.28 -2.44667 4.94815 0
M  V30 6053 H 562.757 -2.88678 3.31001 0
M  V30 6054 H 563.363 -1.37496 4.02461 0
M  V30 6055 N 561.678 -1.56367 -0.196722 0
M  V30 6056 C 562.926 -1.80172 -0.915554 0
M  V30 6057 C 563.247 -0.649649 -1.8386 0
M  V30 6058 O 562.517 0.332111 -1.93064 0
M  V30 6059 H 561.097 -0.664592 -0.341067 0
M  V30 6060 H 563.759 -1.93844 -0.202622 0
M  V30 6061 H 562.855 -2.7327 -1.50764 0
M  V30 6062 N 563.156 0.464375 -1.50603 0
M  V30 6063 C 564.402 1.21485 -1.63135 0
M  V30 6064 C 564.757 1.89538 -0.33063 0
M  V30 6065 O 564.05 1.79432 0.671903 0
M  V30 6066 C 564.244 2.278 -2.75394 0
M  V30 6067 C 564.073 1.70178 -4.16257 0
M  V30 6068 C 562.843 1.49854 -4.82568 0
M  V30 6069 C 565.041 1.19298 -5.00272 0
M  V30 6070 N 563.023 0.875458 -6.07626 0
M  V30 6071 C 564.394 0.693527 -6.16109 0
M  V30 6072 C 566.449 1.08216 -4.85998 0
M  V30 6073 C 565.152 0.0941808 -7.19238 0
M  V30 6074 C 567.178 0.496745 -5.8931 0
M  V30 6075 C 566.54 0.00770448 -7.044 0
M  V30 6076 H 562.639 0.433184 -0.651057 0
M  V30 6077 H 565.223 0.515748 -1.87745 0
M  V30 6078 H 563.394 2.95129 -2.52495 0
M  V30 6079 H 565.126 2.94814 -2.77249 0
M  V30 6080 H 561.881 1.75269 -4.39975 0
M  V30 6081 H 562.305 0.582135 -6.74493 0
M  V30 6082 H 566.947 1.44617 -3.97298 0
M  V30 6083 H 564.665 -0.28202 -8.07608 0
M  V30 6084 H 568.251 0.413275 -5.8033 0
M  V30 6085 H 567.131 -0.438188 -7.82975 0
M  V30 6086 N 564.634 1.40294 0.718013 0
M  V30 6087 C 565.911 1.2894 1.47084 0
M  V30 6088 C 566.291 -0.0933625 2.10893 0
M  V30 6089 O 565.639 -1.10598 1.99951 0
M  V30 6090 C 565.849 2.4264 2.50852 0
M  V30 6091 C 567.197 2.8276 3.16752 0
M  V30 6092 O 568.221 2.42215 2.61171 0
M  V30 6093 O 567.08 3.528 4.17366 0
M  V30 6094 H 564.174 0.506236 0.653952 0
M  V30 6095 H 566.72 1.52208 0.750394 0
M  V30 6096 H 565.492 3.35009 2.022 0
M  V30 6097 H 565.115 2.21129 3.30435 0
M  V30 6098 N 566.112 -0.949982 1.2575 0
M  V30 6099 C 567.389 -1.6718 1.01539 0
M  V30 6100 C 567.769 -2.06095 -0.456942 0
M  V30 6101 O 567.117 -1.77792 -1.43534 0
M  V30 6102 C 567.327 -2.8906 1.95564 0
M  V30 6103 C 568.675 -3.60909 2.23673 0
M  V30 6104 O 569.699 -2.9915 1.9336 0
M  V30 6105 O 568.558 -4.72127 2.75243 0
M  V30 6106 H 565.652 -0.731697 0.385419 0
M  V30 6107 H 568.198 -1.00249 1.36924 0
M  V30 6108 H 566.97 -2.57128 2.94959 0
M  V30 6109 H 566.593 -3.63719 1.60605 0
M  V30 6110 N 567.59 -1.07411 -1.15328 0
M  V30 6111 C 568.5 -0.706438 -2.23711 0
M  V30 6112 C 569.516 0.282586 -1.7169 0
M  V30 6113 O 570.692 0.129066 -2.00986 0
M  V30 6114 C 567.757 -0.11048 -3.46524 0
M  V30 6115 C 566.818 -1.15282 -4.13532 0
M  V30 6116 C 566.051 -0.585205 -5.30482 0
M  V30 6117 O 566.274 0.598549 -5.67251 0
M  V30 6118 O 565.208 -1.33039 -5.87013 0
M  V30 6119 H 569.034 -1.61031 -2.57493 0
M  V30 6120 H 566.619 -0.847113 -1.23062 0
M  V30 6121 H 568.501 0.21957 -4.20828 0
M  V30 6122 H 567.176 0.766703 -3.14489 0
M  V30 6123 H 566.083 -1.53523 -3.41147 0
M  V30 6124 H 567.416 -2.00192 -4.49649 0
M  V30 6125 N 569.068 1.32177 -0.85831 0
M  V30 6126 C 570 2.27688 -0.262835 0
M  V30 6127 C 571.013 1.52588 0.567513 0
M  V30 6128 O 572.202 1.74156 0.391407 0
M  V30 6129 C 569.302 3.32668 0.646937 0
M  V30 6130 C 568.475 4.37148 -0.148372 0
M  V30 6131 C 567.534 5.21686 0.687728 0
M  V30 6132 O 566.56 5.69074 0.119934 0
M  V30 6133 N 567.762 5.44892 2.00182 0
M  V30 6134 H 570.527 2.79426 -1.08356 0
M  V30 6135 H 568.088 1.45076 -0.718647 0
M  V30 6136 H 570.08 3.86134 1.2117 0
M  V30 6137 H 568.65 2.81061 1.36834 0
M  V30 6138 H 567.87 3.83915 -0.894572 0
M  V30 6139 H 569.158 5.04038 -0.694514 0
M  V30 6140 H 568.556 5.08128 2.4864 0
M  V30 6141 H 567.113 6.0134 2.51463 0
M  V30 6142 N 570.547 0.616602 1.45037 0
M  V30 6143 C 571.477 -0.0840787 2.33349 0
M  V30 6144 C 572.458 -0.849641 1.4736 0
M  V30 6145 O 573.643 -0.818407 1.76113 0
M  V30 6146 C 570.773 -1.07604 3.3021 0
M  V30 6147 C 569.727 -0.423096 4.25904 0
M  V30 6148 C 569.053 -1.52394 5.12523 0
M  V30 6149 C 570.353 0.661457 5.18095 0
M  V30 6150 H 572.047 0.653333 2.92185 0
M  V30 6151 H 569.593 0.315634 1.40498 0
M  V30 6152 H 571.546 -1.57485 3.90866 0
M  V30 6153 H 570.27 -1.84416 2.69552 0
M  V30 6154 H 568.929 0.05493 3.66559 0
M  V30 6155 H 568.577 -2.28257 4.48227 0
M  V30 6156 H 568.277 -1.09251 5.77354 0
M  V30 6157 H 569.801 -2.02485 5.76049 0
M  V30 6158 H 571.215 0.246353 5.7277 0
M  V30 6159 H 569.612 1.01517 5.91451 0
M  V30 6160 H 570.682 1.53446 4.59981 0
M  V30 6161 N 572.025 -1.5352 0.356285 0
M  V30 6162 C 573.271 -2.01414 -0.236653 0
M  V30 6163 C 573.604 -1.24339 -1.49176 0
M  V30 6164 O 572.879 -0.334496 -1.91602 0
M  V30 6165 C 573.162 -3.56059 -0.537982 0
M  V30 6166 C 573.015 -4.43835 0.730112 0
M  V30 6167 C 574.334 -4.19127 -1.34239 0
M  V30 6168 H 571.453 -0.732135 -0.0845386 0
M  V30 6169 H 574.095 -1.83854 0.479341 0
M  V30 6170 H 572.245 -3.71153 -1.14795 0
M  V30 6171 H 573.917 -4.40555 1.36782 0
M  V30 6172 H 572.16 -4.1218 1.3524 0
M  V30 6173 H 572.831 -5.49958 0.474358 0
M  V30 6174 H 575.307 -4.07809 -0.826498 0
M  V30 6175 H 574.183 -5.27378 -1.52198 0
M  V30 6176 H 574.444 -3.74581 -2.34822 0
M  V30 6177 N 573.503 -0.0852151 -1.57369 0
M  V30 6178 C 574.466 0.8627 -2.12344 0
M  V30 6179 C 575.466 1.21746 -1.05046 0
M  V30 6180 O 576.656 1.14852 -1.30976 0
M  V30 6181 C 573.788 2.1618 -2.63589 0
M  V30 6182 H 574.981 0.385511 -2.97412 0
M  V30 6183 H 572.534 0.163663 -1.55441 0
M  V30 6184 H 573.269 2.68406 -1.82013 0
M  V30 6185 H 573.054 1.91723 -3.4203 0
M  V30 6186 H 574.544 2.84011 -3.06149 0
M  V30 6187 N 574.981 1.5647 0.188427 0
M  V30 6188 C 576.209 1.85131 0.923803 0
M  V30 6189 C 576.624 0.668537 1.76567 0
M  V30 6190 O 575.981 -0.362662 1.7886 0
M  V30 6191 C 576.032 3.12661 1.81453 0
M  V30 6192 O 575.753 4.26378 1.00665 0
M  V30 6193 C 577.254 3.54548 2.66103 0
M  V30 6194 H 574.474 0.614624 0.269218 0
M  V30 6195 H 577.018 2.03581 0.193671 0
M  V30 6196 H 575.173 2.96088 2.49821 0
M  V30 6197 H 575.587 4.99041 1.61425 0
M  V30 6198 H 577.061 4.4673 3.24247 0
M  V30 6199 H 577.538 2.77853 3.40139 0
M  V30 6200 H 578.144 3.73674 2.03096 0
M  V30 6201 N 576.459 -0.456382 1.50847 0
M  V30 6202 C 577.736 -1.21739 1.53098 0
M  V30 6203 C 578.116 -2.09179 0.284132 0
M  V30 6204 O 577.464 -2.16466 -0.731773 0
M  V30 6205 C 577.674 -2.03573 2.83477 0
M  V30 6206 C 579.022 -2.61264 3.34703 0
M  V30 6207 O 580.046 -2.13802 2.84898 0
M  V30 6208 O 578.905 -3.47779 4.21559 0
M  V30 6209 H 575.999 -0.553219 0.614718 0
M  V30 6210 H 578.545 -0.467003 1.63148 0
M  V30 6211 H 577.317 -1.39232 3.65691 0
M  V30 6212 H 576.94 -2.85716 2.76499 0
M  V30 6213 N 577.937 -1.40673 -0.710563 0
M  V30 6214 C 579.186 -1.38525 -1.46607 0
M  V30 6215 C 579.499 0.0077024 -1.95598 0
M  V30 6216 O 580.705 0.151792 -2.71075 0
M  V30 6217 C 579.161 -2.43489 -2.6503 0
M  V30 6218 C 578.769 -3.88619 -2.22888 0
M  V30 6219 C 580.513 -2.50456 -3.42742 0
M  V30 6220 C 578.42 -4.85168 -3.3818 0
M  V30 6221 H 577.35 -0.515092 -0.550632 0
M  V30 6222 H 580.001 -1.66431 -0.772846 0
M  V30 6223 H 578.383 -2.0869 -3.36548 0
M  V30 6224 H 579.557 -4.32588 -1.58758 0
M  V30 6225 H 577.872 -3.85174 -1.58208 0
M  V30 6226 H 580.469 -3.19776 -4.28541 0
M  V30 6227 H 580.812 -1.53665 -3.86902 0
M  V30 6228 H 581.345 -2.84271 -2.78271 0
M  V30 6229 H 578.084 -5.8331 -2.99047 0
M  V30 6230 H 577.604 -4.4586 -4.01209 0
M  V30 6231 H 579.283 -5.05225 -4.04174 0
M  V30 6232 N 579.415 0.9433 -1.26252 0
M  V30 6233 C 580.64 1.72898 -1.14547 0
M  V30 6234 C 581.065 1.85761 0.295743 0
M  V30 6235 O 580.423 1.3463 1.21427 0
M  V30 6236 C 580.471 3.11471 -1.8171 0
M  V30 6237 O 579.575 3.97336 -1.10445 0
M  V30 6238 H 578.916 0.530555 -0.399259 0
M  V30 6239 H 581.446 1.18159 -1.67032 0
M  V30 6240 H 581.456 3.61872 -1.88449 0
M  V30 6241 H 580.131 3.01425 -2.86558 0
M  V30 6242 H 578.708 3.55788 -1.11666 0
M  V30 6243 N 580.893 1.08022 1.14757 0
M  V30 6244 C 582.304 0.829144 1.67279 0
M  V30 6245 C 582.655 -0.644721 1.85305 0
M  V30 6246 O 581.78 -1.49838 1.56133 0
M  V30 6247 C 582.375 1.49855 3.03857 0
M  V30 6248 C 580.934 1.29482 3.53428 0
M  V30 6249 C 580.081 1.56386 2.28995 0
M  V30 6250 H 583.032 1.24134 0.988762 0
M  V30 6251 H 583.053 0.923572 3.69121 0
M  V30 6252 H 582.565 2.57123 2.90705 0
M  V30 6253 H 580.666 0.242669 3.71809 0
M  V30 6254 H 580.779 2.01974 4.34446 0
M  V30 6255 H 579.143 0.985217 2.34874 0
M  V30 6256 H 579.926 2.64851 2.18423 0
M  V30 6257 N 582.371 -1.3172 0.865308 0
M  V30 6258 C 583.62 -1.96145 0.470098 0
M  V30 6259 C 583.933 -1.69182 -0.981674 0
M  V30 6260 O 585.139 -2.27431 -1.48281 0
M  V30 6261 C 583.595 -3.51129 0.789732 0
M  V30 6262 C 583.203 -3.86938 2.25795 0
M  V30 6263 C 584.947 -4.2197 0.462765 0
M  V30 6264 C 582.854 -5.35012 2.52024 0
M  V30 6265 H 581.784 -0.734105 0.172065 0
M  V30 6266 H 584.435 -1.49959 1.05757 0
M  V30 6267 H 582.817 -3.95781 0.131571 0
M  V30 6268 H 583.991 -3.5326 2.95879 0
M  V30 6269 H 582.306 -3.29149 2.55049 0
M  V30 6270 H 584.903 -5.30904 0.636019 0
M  V30 6271 H 585.246 -4.12005 -0.59645 0
M  V30 6272 H 585.779 -3.82936 1.07727 0
M  V30 6273 H 582.518 -5.50008 3.56611 0
M  V30 6274 H 582.038 -5.70058 1.8653 0
M  V30 6275 H 583.717 -6.0222 2.36515 0
M  V30 6276 N 583.85 -0.624285 -1.44708 0
M  V30 6277 C 585.077 -0.132919 -2.06473 0
M  V30 6278 C 585.493 1.18967 -1.46602 0
M  V30 6279 O 584.85 1.72824 -0.586341 0
M  V30 6280 C 584.901 -0.00465418 -3.615 0
M  V30 6281 O 584.622 -1.27494 -4.19138 0
M  V30 6282 C 586.123 0.516213 -4.40284 0
M  V30 6283 H 583.343 -0.0765201 -0.666623 0
M  V30 6284 H 585.887 -0.856751 -1.85688 0
M  V30 6285 H 584.042 0.669583 -3.8157 0
M  V30 6286 H 584.456 -1.11536 -5.12504 0
M  V30 6287 H 585.93 0.554994 -5.49203 0
M  V30 6288 H 586.407 1.5419 -4.11245 0
M  V30 6289 H 587.013 -0.124542 -4.25118 0
M  V30 6290 N 585.328 1.53329 -0.364422 0
M  V30 6291 C 586.574 2.02222 0.21855 0
M  V30 6292 C 586.929 1.24702 1.46517 0
M  V30 6293 O 586.222 0.331969 1.88702 0
M  V30 6294 C 586.416 3.52911 0.564661 0
M  V30 6295 C 586.245 4.45023 -0.646862 0
M  V30 6296 C 585.015 4.91838 -1.15858 0
M  V30 6297 C 587.213 4.91581 -1.51172 0
M  V30 6298 N 585.195 5.67955 -2.33025 0
M  V30 6299 C 586.566 5.66028 -2.53006 0
M  V30 6300 C 588.621 4.73656 -1.53473 0
M  V30 6301 C 587.324 6.24457 -3.56996 0
M  V30 6302 C 589.35 5.3295 -2.56356 0
M  V30 6303 C 588.712 6.07282 -3.56914 0
M  V30 6304 H 584.811 0.780832 0.0427199 0
M  V30 6305 H 587.395 1.87937 -0.508704 0
M  V30 6306 H 585.566 3.6736 1.26099 0
M  V30 6307 H 587.298 3.88528 1.13262 0
M  V30 6308 H 584.053 4.68043 -0.723393 0
M  V30 6309 H 584.477 6.10675 -2.92241 0
M  V30 6310 H 589.119 4.15714 -0.770842 0
M  V30 6311 H 586.837 6.81496 -4.34268 0
M  V30 6312 H 590.423 5.20976 -2.58989 0
M  V30 6313 H 589.303 6.52345 -4.35218 0
M  V30 6314 N 586.806 0.0935595 1.57322 0
M  V30 6315 C 588.222 -0.263091 1.57417 0
M  V30 6316 C 588.422 -1.68526 1.1046 0
M  V30 6317 O 587.478 -2.40139 0.780357 0
M  V30 6318 C 588.791 -0.0529201 3.00653 0
M  V30 6319 C 590.339 -0.120788 3.12767 0
M  V30 6320 C 590.814 0.0613707 4.57959 0
M  V30 6321 N 592.305 0.00648534 4.632 0
M  V30 6322 C 593.04 0.122699 5.73269 0
M  V30 6323 N 592.536 0.29366 6.92177 0
M  V30 6324 N 594.329 0.0640787 5.62063 0
M  V30 6325 H 586.48 1.02277 1.86154 0
M  V30 6326 H 588.743 0.4007 0.859153 0
M  V30 6327 H 588.449 0.929279 3.39201 0
M  V30 6328 H 588.323 -0.795899 3.68708 0
M  V30 6329 H 590.71 -1.09349 2.74093 0
M  V30 6330 H 590.791 0.653656 2.47307 0
M  V30 6331 H 590.435 1.03093 4.97327 0
M  V30 6332 H 590.365 -0.732748 5.21477 0
M  V30 6333 H 592.856 -0.123173 3.77699 0
M  V30 6334 H 593.169 0.37389 7.71895 0
M  V30 6335 H 591.514 0.329307 6.94219 0
M  V30 6336 H 594.705 -0.0683396 4.6805 0
M  V30 6337 H 594.878 0.158097 6.47807 0
M  V30 6338 N 588.284 -1.56567 -0.180126 0
M  V30 6339 C 589.231 -1.95725 -1.22313 0
M  V30 6340 C 590.201 -0.819911 -1.44453 0
M  V30 6341 O 591.386 -1.07931 -1.57339 0
M  V30 6342 C 588.526 -2.31484 -2.55947 0
M  V30 6343 C 587.639 -3.58354 -2.4126 0
M  V30 6344 C 586.774 -3.83366 -3.67701 0
M  V30 6345 C 585.813 -5.03612 -3.47909 0
M  V30 6346 N 584.95 -5.24802 -4.66398 0
M  V30 6347 H 589.79 -2.84642 -0.882198 0
M  V30 6348 H 587.327 -1.4085 -0.42422 0
M  V30 6349 H 589.285 -2.50237 -3.33822 0
M  V30 6350 H 587.915 -1.45689 -2.88053 0
M  V30 6351 H 586.967 -3.47565 -1.54606 0
M  V30 6352 H 588.279 -4.46386 -2.22577 0
M  V30 6353 H 587.433 -4.02439 -4.54013 0
M  V30 6354 H 586.172 -2.93692 -3.89353 0
M  V30 6355 H 585.177 -4.84447 -2.59983 0
M  V30 6356 H 586.402 -5.94809 -3.27688 0
M  V30 6357 H 584.348 -4.38079 -4.88286 0
M  V30 6358 H 584.265 -6.07041 -4.50596 0
M  V30 6359 H 585.533 -5.48346 -5.54019 0
M  V30 6360 N 589.762 0.448376 -1.51087 0
M  V30 6361 C 590.692 1.55102 -1.74544 0
M  V30 6362 C 591.673 1.59357 -0.594932 0
M  V30 6363 O 592.858 1.75261 -0.836491 0
M  V30 6364 C 589.988 2.93268 -1.86041 0
M  V30 6365 C 588.942 3.03877 -3.01402 0
M  V30 6366 C 588.268 4.43914 -2.98068 0
M  V30 6367 C 589.568 2.7898 -4.41551 0
M  V30 6368 H 591.262 1.35724 -2.66869 0
M  V30 6369 H 588.808 0.651498 -1.28419 0
M  V30 6370 H 590.761 3.70356 -2.01034 0
M  V30 6371 H 589.485 3.13853 -0.903548 0
M  V30 6372 H 588.144 2.29227 -2.86096 0
M  V30 6373 H 587.792 4.6145 -2.00182 0
M  V30 6374 H 587.492 4.51944 -3.75527 0
M  V30 6375 H 589.016 5.22991 -3.1514 0
M  V30 6376 H 590.43 3.45805 -4.57265 0
M  V30 6377 H 588.827 2.98431 -5.20633 0
M  V30 6378 H 589.897 1.74663 -4.5235 0
M  V30 6379 N 591.24 1.41047 0.703093 0
M  V30 6380 C 592.203 1.42036 1.79884 0
M  V30 6381 C 593.203 0.312153 1.57741 0
M  V30 6382 O 594.393 0.571672 1.64553 0
M  V30 6383 C 591.525 1.22437 3.18154 0
M  V30 6384 H 592.718 2.39572 1.80403 0
M  V30 6385 H 590.271 1.27079 0.909977 0
M  V30 6386 H 591.006 0.257112 3.23279 0
M  V30 6387 H 590.791 2.02723 3.35627 0
M  V30 6388 H 592.281 1.25946 3.98155 0
M  V30 6389 N 592.718 -0.936591 1.26751 0
M  V30 6390 C 593.943 -1.72288 1.15462 0
M  V30 6391 C 594.368 -1.85915 -0.285887 0
M  V30 6392 O 593.726 -1.35272 -1.20711 0
M  V30 6393 C 593.774 -3.10503 1.83359 0
M  V30 6394 O 592.878 -3.96745 1.1255 0
M  V30 6395 H 592.219 -0.52843 0.402067 0
M  V30 6396 H 594.749 -1.17271 1.67656 0
M  V30 6397 H 594.759 -3.60867 1.90365 0
M  V30 6398 H 593.434 -2.99901 2.88153 0
M  V30 6399 H 592.011 -3.55191 1.13551 0
M  V30 6400 N 594.196 -1.08629 -1.14182 0
M  V30 6401 C 595.612 -0.814363 -1.3726 0
M  V30 6402 C 595.812 0.575271 -1.93114 0
M  V30 6403 O 594.868 1.33165 -2.1453 0
M  V30 6404 C 596.181 -1.8989 -2.33157 0
M  V30 6405 C 597.729 -1.92518 -2.46791 0
M  V30 6406 C 598.204 -3.00092 -3.45989 0
M  V30 6407 N 599.695 -2.99279 -3.53534 0
M  V30 6408 C 600.43 -3.79158 -4.30147 0
M  V30 6409 N 599.926 -4.68923 -5.09983 0
M  V30 6410 N 601.719 -3.67451 -4.25366 0
M  V30 6411 H 593.87 -1.98232 -0.762758 0
M  V30 6412 H 596.133 -0.860383 -0.398051 0
M  V30 6413 H 595.839 -2.89809 -1.99257 0
M  V30 6414 H 595.713 -1.77013 -3.33086 0
M  V30 6415 H 598.1 -0.932425 -2.79982 0
M  V30 6416 H 598.181 -2.09473 -1.46816 0
M  V30 6417 H 597.825 -3.99575 -3.13532 0
M  V30 6418 H 597.755 -2.80382 -4.45751 0
M  V30 6419 H 600.246 -2.3422 -2.96563 0
M  V30 6420 H 600.559 -5.26475 -5.65724 0
M  V30 6421 H 598.904 -4.72964 -5.09244 0
M  V30 6422 H 602.095 -2.9669 -3.62067 0
M  V30 6423 H 602.268 -4.29944 -4.84822 0
M  V30 6424 N 595.674 1.31259 -0.872281 0
M  V30 6425 C 596.92 1.973 -0.494414 0
M  V30 6426 C 597.275 1.67684 0.94339 0
M  V30 6427 O 596.568 0.964186 1.65572 0
M  V30 6428 C 596.762 3.50659 -0.690889 0
M  V30 6429 C 596.591 3.95179 -2.14624 0
M  V30 6430 C 595.361 4.21405 -2.7883 0
M  V30 6431 C 597.559 4.08948 -3.11875 0
M  V30 6432 N 595.541 4.52295 -4.15093 0
M  V30 6433 C 596.912 4.43576 -4.33174 0
M  V30 6434 C 598.967 3.91334 -3.07835 0
M  V30 6435 C 597.67 4.62429 -5.50956 0
M  V30 6436 C 599.696 4.11381 -4.24876 0
M  V30 6437 C 599.058 4.46343 -5.44938 0
M  V30 6438 H 595.157 0.747411 -0.230002 0
M  V30 6439 H 597.741 1.58741 -1.12736 0
M  V30 6440 H 595.912 3.88301 -0.0875162 0
M  V30 6441 H 597.644 4.03722 -0.281179 0
M  V30 6442 H 594.399 4.14131 -2.29767 0
M  V30 6443 H 594.823 4.71897 -4.8543 0
M  V30 6444 H 599.465 3.6339 -2.16119 0
M  V30 6445 H 597.183 4.8922 -6.43187 0
M  V30 6446 H 600.769 3.99235 -4.23205 0
M  V30 6447 H 599.649 4.6154 -6.33996 0
M  V30 6448 N 597.152 0.631951 1.44375 0
M  V30 6449 C 598.1 -0.0846693 2.32446 0
M  V30 6450 C 599.094 -0.834957 1.47393 0
M  V30 6451 O 600.3 -0.747764 1.63733 0
M  V30 6452 H 596.675 -0.0461508 0.750583 0
M  V30 6453 H 598.646 0.67619 2.90638 0
M  V30 6454 C 597.395 -1.05211 3.314 0
M  V30 6455 H 596.718 -0.484203 3.96857 0
M  V30 6456 H 598.158 -1.523 3.95703 0
M  V30 6457 C 596.617 -2.13776 2.60387 0
M  V30 6458 O 597.147 -3.21869 2.4034 0
M  V30 6459 N 595.353 -1.89733 2.20113 0
M  V30 6460 H 594.9 -1.01833 2.36618 0
M  V30 6461 H 594.858 -2.62572 1.72926 0
M  V30 6462 N 598.631 -1.53133 0.372548 0
M  V30 6463 C 600.047 -1.59585 0.02178 0
M  V30 6464 C 600.247 -1.38736 -1.46132 0
M  V30 6465 O 599.303 -1.19599 -2.22379 0
M  V30 6466 C 600.616 -2.9678 0.483959 0
M  V30 6467 C 602.164 -3.09909 0.438775 0
M  V30 6468 C 602.639 -4.49527 0.876876 0
M  V30 6469 N 604.13 -4.55663 0.832214 0
M  V30 6470 C 604.865 -5.61896 1.14281 0
M  V30 6471 N 604.361 -6.75852 1.52303 0
M  V30 6472 N 606.154 -5.51916 1.06515 0
M  V30 6473 H 598.305 -1.64936 1.33827 0
M  V30 6474 H 600.568 -0.773947 0.547458 0
M  V30 6475 H 600.274 -3.17198 1.51915 0
M  V30 6476 H 600.148 -3.7699 -0.125784 0
M  V30 6477 H 602.535 -2.89197 -0.587294 0
M  V30 6478 H 602.616 -2.31691 1.0841 0
M  V30 6479 H 602.26 -4.70979 1.90109 0
M  V30 6480 H 602.19 -5.26186 0.208727 0
M  V30 6481 H 604.681 -3.73844 0.552195 0
M  V30 6482 H 604.994 -7.52862 1.7441 0
M  V30 6483 H 603.339 -6.77226 1.56175 0
M  V30 6484 H 606.53 -4.6177 0.767235 0
M  V30 6485 H 606.703 -6.34609 1.31053 0
M  V30 6486 N 600.109 -0.101901 -1.5727 0
M  V30 6487 C 601.357 0.559091 -1.94213 0
M  V30 6488 C 601.678 1.68297 -0.984948 0
M  V30 6489 O 600.948 1.95863 -0.0381975 0
M  V30 6490 H 599.528 0.20952 -0.717015 0
M  V30 6491 H 602.19 -0.166831 -1.94185 0
M  V30 6492 H 601.286 0.96485 -2.96811 0
M  V30 6493 N 601.587 1.56661 0.17182 0
M  V30 6494 C 602.836 1.81158 0.886831 0
M  V30 6495 C 603.149 0.679072 1.83434 0
M  V30 6496 O 604.355 0.808964 2.59168 0
M  V30 6497 C 602.811 3.20999 1.6275 0
M  V30 6498 C 602.419 4.42117 0.723652 0
M  V30 6499 C 604.163 3.5479 2.33076 0
M  V30 6500 C 602.07 5.7298 1.46452 0
M  V30 6501 H 601 0.675543 0.334899 0
M  V30 6502 H 603.651 1.82967 0.139765 0
M  V30 6503 H 602.033 3.13506 2.4193 0
M  V30 6504 H 603.207 4.60789 -0.0311485 0
M  V30 6505 H 601.522 4.16197 0.130063 0
M  V30 6506 H 604.119 4.49806 2.89099 0
M  V30 6507 H 604.462 2.79646 3.08389 0
M  V30 6508 H 604.995 3.63834 1.6084 0
M  V30 6509 H 601.734 6.51152 0.753729 0
M  V30 6510 H 601.254 5.58285 2.19266 0
M  V30 6511 H 602.933 6.14916 2.01214 0
M  V30 6512 N 603.065 -0.440357 1.51323 0
M  V30 6513 C 604.028 -1.51679 1.71832 0
M  V30 6514 C 605.028 -1.49648 0.588386 0
M  V30 6515 O 606.218 -1.51724 0.855891 0
M  V30 6516 C 603.35 -2.91228 1.77199 0
M  V30 6517 H 604.543 -1.34799 2.67898 0
M  V30 6518 H 602.096 -0.66883 1.41267 0
M  V30 6519 H 602.831 -3.13516 0.829363 0
M  V30 6520 H 602.616 -2.94107 2.59314 0
M  V30 6521 H 604.106 -3.69321 1.94915 0
M  V30 6522 N 604.543 -1.41418 -0.695603 0
M  V30 6523 C 605.49 -1.43264 -1.80954 0
M  V30 6524 C 606.46 -0.287016 -1.63601 0
M  V30 6525 O 607.645 -0.488054 -1.84452 0
M  V30 6526 C 604.785 -1.32054 -3.18835 0
M  V30 6527 C 603.898 -2.56485 -3.4762 0
M  V30 6528 C 603.033 -2.3757 -4.75115 0
M  V30 6529 C 602.072 -3.57477 -4.96867 0
M  V30 6530 N 601.209 -3.37632 -6.15588 0
M  V30 6531 H 606.049 -2.38467 -1.78711 0
M  V30 6532 H 603.586 -1.18415 -0.872715 0
M  V30 6533 H 605.544 -1.23558 -3.98484 0
M  V30 6534 H 604.174 -0.404592 -3.20254 0
M  V30 6535 H 603.226 -2.75432 -2.62376 0
M  V30 6536 H 604.538 -3.45678 -3.59594 0
M  V30 6537 H 603.692 -2.2654 -5.62818 0
M  V30 6538 H 602.431 -1.45834 -4.65386 0
M  V30 6539 H 601.436 -3.68961 -4.07612 0
M  V30 6540 H 602.661 -4.50167 -5.08455 0
M  V30 6541 H 600.607 -2.48596 -6.07072 0
M  V30 6542 H 600.524 -4.20401 -6.2833 0
M  V30 6543 H 601.792 -3.30375 -7.06026 0
M  V30 6544 N 606.021 0.929856 -1.27246 0
M  V30 6545 C 607.432 1.49223 -1.12203 0
M  V30 6546 C 607.783 1.93989 0.293731 0
M  V30 6547 O 606.908 1.80978 1.18642 0
M  V30 6548 C 607.503 2.71198 -2.0307 0
M  V30 6549 C 606.062 3.23666 -1.92139 0
M  V30 6550 C 605.209 1.96409 -1.95752 0
M  V30 6551 H 608.16 0.744181 -1.4017 0
M  V30 6552 H 608.181 3.45905 -1.58524 0
M  V30 6553 H 607.693 2.38585 -3.06102 0
M  V30 6554 H 605.794 3.61042 -0.920834 0
M  V30 6555 H 605.907 3.90006 -2.78267 0
M  V30 6556 H 604.271 2.12806 -1.39949 0
M  V30 6557 H 605.054 1.66113 -3.00436 0
M  V30 6558 N 607.499 1.09233 1.13605 0
M  V30 6559 C 608.747 0.825525 1.84471 0
M  V30 6560 C 609.068 -0.650702 1.83823 0
M  V30 6561 O 608.338 -1.47204 1.29259 0
M  V30 6562 H 606.918 0.3024 0.683054 0
M  V30 6563 H 609.58 1.38006 1.37624 0
M  V30 6564 H 608.676 1.17727 2.89045 0
M  V30 6565 N 608.977 -1.30795 0.87923 0
M  V30 6566 C 610.393 -1.48981 0.57243 0
M  V30 6567 C 610.593 -1.80719 -0.891236 0
M  V30 6568 O 609.649 -1.89136 -1.67283 0
M  V30 6569 C 610.962 -2.61721 1.48063 0
M  V30 6570 C 612.51 -2.75603 1.48365 0
M  V30 6571 C 612.985 -3.91449 2.37763 0
M  V30 6572 N 614.476 -3.98751 2.35695 0
M  V30 6573 C 615.211 -4.87684 3.01583 0
M  V30 6574 N 614.707 -5.81454 3.76674 0
M  V30 6575 N 616.5 -4.81005 2.90844 0
M  V30 6576 H 608.651 -1.08465 1.82617 0
M  V30 6577 H 610.914 -0.536813 0.781368 0
M  V30 6578 H 610.62 -2.45073 2.52254 0
M  V30 6579 H 610.494 -3.58071 1.18596 0
M  V30 6580 H 612.881 -2.9166 0.44927 0
M  V30 6581 H 612.962 -1.79891 1.81859 0
M  V30 6582 H 612.606 -3.76149 3.41283 0
M  V30 6583 H 612.536 -4.86487 2.01589 0
M  V30 6584 H 615.027 -3.31668 1.81121 0
M  V30 6585 H 615.34 -6.46063 4.24054 0
M  V30 6586 H 613.685 -5.81403 3.80782 0
M  V30 6587 H 616.876 -4.06728 2.31711 0
M  V30 6588 H 617.049 -5.50107 3.42471 0
M  V30 6589 N 610.455 -0.639598 -1.44038 0
M  V30 6590 C 611.703 -0.147188 -2.01563 0
M  V30 6591 C 612.024 1.2384 -1.50628 0
M  V30 6592 O 611.294 1.82452 -0.713316 0
M  V30 6593 H 609.874 -0.0514231 -0.745228 0
M  V30 6594 H 612.536 -0.828205 -1.76428 0
M  V30 6595 H 611.632 -0.121358 -3.11864 0
M  V30 6596 N 611.933 1.52934 -0.380664 0
M  V30 6597 C 613.179 2.01765 0.20458 0
M  V30 6598 C 613.512 1.26696 1.47179 0
M  V30 6599 O 612.787 0.364936 1.91046 0
M  V30 6600 C 613.07 3.56869 0.481269 0
M  V30 6601 C 612.923 4.42617 -0.800629 0
M  V30 6602 C 614.242 4.2121 1.27554 0
M  V30 6603 H 611.361 0.733388 0.0728803 0
M  V30 6604 H 614.003 1.83068 -0.50853 0
M  V30 6605 H 612.153 3.72932 1.08875 0
M  V30 6606 H 613.825 4.38323 -1.43773 0
M  V30 6607 H 612.068 4.09977 -1.4178 0
M  V30 6608 H 612.739 5.49134 -0.561791 0
M  V30 6609 H 615.215 4.09072 0.761514 0
M  V30 6610 H 614.091 5.29732 1.43788 0
M  V30 6611 H 614.352 3.78269 2.28833 0
M  V30 6612 N 613.412 0.11024 1.57214 0
M  V30 6613 C 614.375 -0.828808 2.1369 0
M  V30 6614 C 615.375 -1.20059 1.06969 0
M  V30 6615 O 616.565 -1.12754 1.32786 0
M  V30 6616 C 613.697 -2.11959 2.66994 0
M  V30 6617 H 614.89 -0.338146 2.97988 0
M  V30 6618 H 612.443 -0.138913 1.55681 0
M  V30 6619 H 613.178 -2.65476 1.8626 0
M  V30 6620 H 612.963 -1.86258 3.45037 0
M  V30 6621 H 614.453 -2.79105 3.10629 0
M  V30 6622 N 614.89 -1.56749 -0.16351 0
M  V30 6623 C 616.138 -1.82074 -0.87713 0
M  V30 6624 C 616.459 -0.688503 -1.82441 0
M  V30 6625 O 615.729 0.291085 -1.93725 0
M  V30 6626 H 614.309 -0.671677 -0.326893 0
M  V30 6627 H 616.971 -1.9423 -0.161459 0
M  V30 6628 H 616.067 -2.76407 -1.44934 0
M  V30 6629 N 616.368 0.432326 -1.51554 0
M  V30 6630 C 617.331 1.50765 -1.72634 0
M  V30 6631 C 618.331 1.49334 -0.596314 0
M  V30 6632 O 619.521 1.51268 -0.863925 0
M  V30 6633 C 616.653 2.90284 -1.7874 0
M  V30 6634 H 617.846 1.33377 -2.68609 0
M  V30 6635 H 615.399 0.661329 -1.4162 0
M  V30 6636 H 616.134 3.13071 -0.845977 0
M  V30 6637 H 615.919 2.92727 -2.6087 0
M  V30 6638 H 617.409 3.68282 -1.96871 0
M  V30 6639 N 617.846 1.41785 0.688094 0
M  V30 6640 C 619.092 1.41753 1.4503 0
M  V30 6641 C 619.425 0.0290745 1.94178 0
M  V30 6642 O 618.7 -0.944456 1.7003 0
M  V30 6643 C 618.983 2.43069 2.65686 0
M  V30 6644 C 618.836 3.91053 2.22256 0
M  V30 6645 C 620.155 2.41543 3.67893 0
M  V30 6646 H 617.274 0.516202 0.526027 0
M  V30 6647 H 619.916 1.73111 0.783105 0
M  V30 6648 H 618.066 2.1646 3.2261 0
M  V30 6649 H 619.738 4.28594 1.70602 0
M  V30 6650 H 617.981 4.05559 1.53963 0
M  V30 6651 H 618.652 4.57501 3.08863 0
M  V30 6652 H 621.128 2.65175 3.20658 0
M  V30 6653 H 620.004 3.14434 4.49914 0
M  V30 6654 H 620.265 1.43666 4.18106 0
M  V30 6655 N 619.324 -0.923095 1.27737 0
M  V30 6656 C 620.271 -2.02432 1.1086 0
M  V30 6657 C 621.241 -1.66098 0.00835195 0
M  V30 6658 O 622.426 -1.90027 0.171542 0
M  V30 6659 C 619.566 -3.36476 0.766671 0
M  V30 6660 C 618.679 -3.85737 1.94501 0
M  V30 6661 C 617.814 -5.08249 1.54455 0
M  V30 6662 C 616.853 -5.49818 2.6901 0
M  V30 6663 N 615.99 -6.63524 2.29521 0
M  V30 6664 H 620.83 -2.16201 2.05089 0
M  V30 6665 H 618.367 -1.05909 1.02087 0
M  V30 6666 H 620.325 -4.13569 0.549223 0
M  V30 6667 H 618.955 -3.22502 -0.13867 0
M  V30 6668 H 618.007 -3.04883 2.27487 0
M  V30 6669 H 619.319 -4.12513 2.80419 0
M  V30 6670 H 618.473 -5.92857 1.28862 0
M  V30 6671 H 617.212 -4.83261 0.656534 0
M  V30 6672 H 616.217 -4.63757 2.95313 0
M  V30 6673 H 617.442 -5.76799 3.5844 0
M  V30 6674 H 615.388 -6.40185 1.43177 0
M  V30 6675 H 615.305 -6.89978 3.08977 0
M  V30 6676 H 616.573 -7.51461 2.07187 0
M  V30 6677 N 620.802 -1.09834 -1.13024 0
M  V30 6678 C 622.079 -0.749225 -1.80682 0
M  V30 6679 C 622.459 0.765171 -1.96744 0
M  V30 6680 O 621.807 1.68912 -1.53886 0
M  V30 6681 C 622.017 -1.49311 -3.15448 0
M  V30 6682 C 623.365 -1.66162 -3.90737 0
M  V30 6683 O 624.389 -1.45597 -3.25085 0
M  V30 6684 O 623.248 -2.00211 -5.08505 0
M  V30 6685 H 620.342 -0.269614 -0.781817 0
M  V30 6686 H 622.888 -1.20078 -1.19914 0
M  V30 6687 H 621.66 -2.52407 -2.99009 0
M  V30 6688 H 621.283 -1.034 -3.8392 0
M  V30 6689 N 622.28 1.30327 -0.886154 0
M  V30 6690 C 623.508 2.00254 -0.520176 0
M  V30 6691 C 623.923 1.66419 0.891637 0
M  V30 6692 O 623.28 0.901951 1.58654 0
M  V30 6693 C 623.331 3.54916 -0.686775 0
M  V30 6694 O 623.052 3.87547 -2.04301 0
M  V30 6695 C 624.553 4.42115 -0.323945 0
M  V30 6696 H 621.773 0.640204 -0.200947 0
M  V30 6697 H 624.317 1.66183 -1.19178 0
M  V30 6698 H 622.472 3.8735 -0.0625273 0
M  V30 6699 H 622.886 4.82247 -2.06249 0
M  V30 6700 H 624.36 5.49808 -0.491407 0
M  V30 6701 H 624.837 4.32953 0.73811 0
M  V30 6702 H 625.443 4.15129 -0.924565 0
M  V30 6703 N 623.758 0.647228 1.43697 0
M  V30 6704 C 624.983 0.164083 2.0675 0
M  V30 6705 C 625.408 -1.15892 1.48158 0
M  V30 6706 O 624.766 -1.71459 0.589194 0
M  V30 6707 C 624.814 0.0800368 3.60511 0
M  V30 6708 O 623.918 -0.959453 4.01084 0
M  V30 6709 H 623.259 0.0921288 0.657578 0
M  V30 6710 H 625.789 0.88846 1.84303 0
M  V30 6711 H 625.799 -0.105263 4.07864 0
M  V30 6712 H 624.474 1.04586 4.02535 0
M  V30 6713 H 623.051 -0.747425 3.65333 0
M  V30 6714 N 625.236 -1.5273 0.388769 0
M  V30 6715 C 626.166 -2.29353 -0.438111 0
M  V30 6716 C 627.147 -1.32719 -1.06394 0
M  V30 6717 O 628.332 -1.61612 -1.07681 0
M  V30 6718 C 625.462 -3.09995 -1.56589 0
M  V30 6719 C 624.416 -4.14509 -1.06613 0
M  V30 6720 C 623.742 -4.83372 -2.28594 0
M  V30 6721 C 625.042 -5.22127 -0.134459 0
M  V30 6722 H 626.736 -2.98723 0.201206 0
M  V30 6723 H 624.282 -1.43665 0.0982089 0
M  V30 6724 H 626.235 -3.62357 -2.15118 0
M  V30 6725 H 624.959 -2.38357 -2.23279 0
M  V30 6726 H 623.618 -3.63128 -0.503383 0
M  V30 6727 H 623.266 -4.08283 -2.93792 0
M  V30 6728 H 622.966 -5.54012 -1.95817 0
M  V30 6729 H 624.49 -5.38538 -2.87766 0
M  V30 6730 H 625.904 -5.69851 -0.627914 0
M  V30 6731 H 624.301 -6.00011 0.103534 0
M  V30 6732 H 625.371 -4.77971 0.816798 0
M  V30 6733 N 626.714 -0.118576 -1.57153 0
M  V30 6734 C 627.963 0.539339 -1.94355 0
M  V30 6735 C 628.276 1.67858 -1.00415 0
M  V30 6736 O 629.482 2.39922 -1.27081 0
M  V30 6737 C 627.938 1.01082 -3.45414 0
M  V30 6738 C 627.546 -0.0999402 -4.47889 0
M  V30 6739 C 629.29 1.64013 -3.91535 0
M  V30 6740 C 627.197 0.388212 -5.90124 0
M  V30 6741 H 626.127 0.205247 -0.725527 0
M  V30 6742 H 628.778 -0.19836 -1.82425 0
M  V30 6743 H 627.16 1.80292 -3.52577 0
M  V30 6744 H 628.334 -0.876189 -4.52393 0
M  V30 6745 H 626.649 -0.635885 -4.11516 0
M  V30 6746 H 629.246 2.01649 -4.95219 0
M  V30 6747 H 629.589 2.51836 -3.31488 0
M  V30 6748 H 630.122 0.913439 -3.87171 0
M  V30 6749 H 626.861 -0.453963 -6.53926 0
M  V30 6750 H 626.381 1.13095 -5.89041 0
M  V30 6751 H 628.06 0.849574 -6.41398 0
M  V30 6752 N 628.193 1.56834 0.155195 0
M  V30 6753 C 629.44 1.82898 0.869179 0
M  V30 6754 C 629.768 0.698194 1.81537 0
M  V30 6755 O 629.023 -0.313404 1.93174 0
M  V30 6756 C 629.322 3.15239 1.68402 0
M  V30 6757 C 628.988 4.42123 0.885341 0
M  V30 6758 C 627.65 4.76583 0.664971 0
M  V30 6759 C 630.002 5.20178 0.326234 0
M  V30 6760 C 627.33 5.86566 -0.125346 0
M  V30 6761 C 629.682 6.3099 -0.45108 0
M  V30 6762 C 628.346 6.64006 -0.682102 0
M  V30 6763 H 627.616 0.66927 0.318055 0
M  V30 6764 H 630.263 1.91036 0.133241 0
M  V30 6765 H 628.568 3.02515 2.48982 0
M  V30 6766 H 630.265 3.32618 2.23978 0
M  V30 6767 H 626.855 4.15102 1.06716 0
M  V30 6768 H 631.039 4.93936 0.483787 0
M  V30 6769 H 626.295 6.10594 -0.313915 0
M  V30 6770 H 630.469 6.9067 -0.89149 0
M  V30 6771 H 628.096 7.49065 -1.29636 0
M  V30 6772 N 629.671 -0.424282 1.51781 0
M  V30 6773 C 630.618 -1.51591 1.74037 0
M  V30 6774 C 631.588 -1.55556 0.582358 0
M  V30 6775 O 632.773 -1.72364 0.818245 0
M  V30 6776 C 629.913 -2.89188 1.8832 0
M  V30 6777 C 629.026 -2.9465 3.1592 0
M  V30 6778 C 628.161 -4.23452 3.20721 0
M  V30 6779 C 627.2 -4.22831 4.42584 0
M  V30 6780 N 626.337 -5.43178 4.44862 0
M  V30 6781 H 631.177 -1.31917 2.67212 0
M  V30 6782 H 628.714 -0.640599 1.32419 0
M  V30 6783 H 630.672 -3.69044 1.94583 0
M  V30 6784 H 629.302 -3.07392 0.985402 0
M  V30 6785 H 628.354 -2.07378 3.18902 0
M  V30 6786 H 629.666 -2.90055 4.05795 0
M  V30 6787 H 628.82 -5.1169 3.25973 0
M  V30 6788 H 627.559 -4.30722 2.28757 0
M  V30 6789 H 626.564 -3.32984 4.37495 0
M  V30 6790 H 627.789 -4.17213 5.35826 0
M  V30 6791 H 625.735 -5.51145 3.55775 0
M  V30 6792 H 625.652 -5.40515 5.28563 0
M  V30 6793 H 626.92 -6.33412 4.54324 0
M  V30 6794 N 631.149 -1.42148 -0.680565 0
M  V30 6795 C 632.081 -1.41119 -1.80605 0
M  V30 6796 C 633.094 -0.311099 -1.598 0
M  V30 6797 O 634.283 -0.573813 -1.69026 0
M  V30 6798 C 631.383 -1.18204 -3.17618 0
M  V30 6799 C 630.556 -2.40537 -3.65322 0
M  V30 6800 C 629.615 -2.13254 -4.8105 0
M  V30 6801 O 628.641 -2.8641 -4.91892 0
M  V30 6802 N 629.843 -1.13208 -5.69354 0
M  V30 6803 H 632.608 -2.38128 -1.81975 0
M  V30 6804 H 630.169 -1.36953 -0.863446 0
M  V30 6805 H 632.161 -0.97878 -3.92686 0
M  V30 6806 H 630.731 -0.29738 -3.11182 0
M  V30 6807 H 629.951 -2.76468 -2.80996 0
M  V30 6808 H 631.239 -3.22012 -3.93936 0
M  V30 6809 H 630.637 -0.526893 -5.63241 0
M  V30 6810 H 629.194 -0.988699 -6.44258 0
M  V30 6811 N 632.627 0.916307 -1.28225 0
M  V30 6812 C 633.855 1.69901 -1.18073 0
M  V30 6813 C 634.27 1.86988 0.260968 0
M  V30 6814 O 633.627 1.39505 1.17663 0
M  V30 6815 C 633.678 3.09254 -1.87201 0
M  V30 6816 O 633.399 2.92959 -3.2574 0
M  V30 6817 C 634.9 4.0362 -1.83319 0
M  V30 6818 H 632.12 0.531181 -0.409985 0
M  V30 6819 H 634.664 1.14703 -1.69303 0
M  V30 6820 H 632.819 3.61277 -1.39848 0
M  V30 6821 H 633.233 3.81139 -3.60324 0
M  V30 6822 H 634.707 4.98873 -2.36282 0
M  V30 6823 H 635.184 4.3176 -0.805007 0
M  V30 6824 H 635.79 3.57524 -2.3034 0
M  V30 6825 N 634.105 1.10431 1.1244 0
M  V30 6826 C 635.068 0.756542 2.16354 0
M  V30 6827 C 636.068 -0.21899 1.59302 0
M  V30 6828 O 637.258 0.00415969 1.742 0
M  V30 6829 C 634.39 0.120612 3.40687 0
M  V30 6830 H 635.583 1.67696 2.48632 0
M  V30 6831 H 633.136 0.904832 1.27446 0
M  V30 6832 H 633.871 -0.810536 3.14008 0
M  V30 6833 H 633.656 0.822693 3.83372 0
M  V30 6834 H 635.146 -0.106945 4.17463 0
M  V30 6835 N 635.583 -1.29855 0.893053 0
M  V30 6836 C 636.86 -1.90694 0.435336 0
M  V30 6837 C 637.24 -1.8111 -1.08454 0
M  V30 6838 O 636.588 -1.23352 -1.92345 0
M  V30 6839 C 636.798 -3.36033 0.942472 0
M  V30 6840 C 638.146 -4.13083 0.982226 0
M  V30 6841 O 639.17 -3.4491 0.889686 0
M  V30 6842 O 638.029 -5.34896 1.12022 0
M  V30 6843 H 635.123 -0.815978 0.134567 0
M  V30 6844 H 637.669 -1.38367 0.982484 0
M  V30 6845 H 636.441 -3.37132 1.9864 0
M  V30 6846 H 636.064 -3.95828 0.374952 0
M  V30 6847 N 637.061 -0.65484 -1.43351 0
M  V30 6848 C 638.309 -0.168559 -2.01396 0
M  V30 6849 C 638.63 1.22235 -1.51933 0
M  V30 6850 O 637.9 1.81685 -0.732627 0
M  V30 6851 H 636.48 -0.0593244 -0.744641 0
M  V30 6852 H 639.142 -0.846871 -1.75539 0
M  V30 6853 H 638.238 -0.154428 -3.11718 0
M  V30 6854 N 638.539 1.52521 -0.396863 0
M  V30 6855 C 639.486 2.26671 0.434624 0
M  V30 6856 C 640.456 1.28584 1.05144 0
M  V30 6857 O 641.641 1.57426 1.07804 0
M  V30 6858 C 638.781 3.08234 1.55196 0
M  V30 6859 C 637.894 4.21261 0.957262 0
M  V30 6860 C 637.029 4.90205 2.04627 0
M  V30 6861 C 636.068 5.95213 1.42787 0
M  V30 6862 N 635.205 6.57723 2.45651 0
M  V30 6863 H 640.045 2.973 -0.204139 0
M  V30 6864 H 637.582 1.46669 -0.112505 0
M  V30 6865 H 639.54 3.53819 2.2106 0
M  V30 6866 H 638.17 2.398 2.16092 0
M  V30 6867 H 637.222 3.79935 0.188005 0
M  V30 6868 H 638.534 4.96624 0.465416 0
M  V30 6869 H 637.688 5.39133 2.78246 0
M  V30 6870 H 636.427 4.14383 2.57174 0
M  V30 6871 H 635.432 5.45616 0.676968 0
M  V30 6872 H 636.657 6.72972 0.910255 0
M  V30 6873 H 634.603 5.84737 2.97353 0
M  V30 6874 H 634.52 7.28723 2.01243 0
M  V30 6875 H 635.788 7.11293 3.18876 0
M  V30 6876 N 640.017 0.126909 1.57088 0
M  V30 6877 C 641.433 -0.229641 1.57939 0
M  V30 6878 C 641.633 -1.66145 1.1401 0
M  V30 6879 O 640.689 -2.3843 0.831119 0
M  V30 6880 C 642.002 0.0108648 3.00698 0
M  V30 6881 C 643.55 -0.054418 3.12953 0
M  V30 6882 C 644.025 0.158497 4.57726 0
M  V30 6883 N 645.516 0.104735 4.63082 0
M  V30 6884 C 646.251 0.24427 5.72879 0
M  V30 6885 N 645.747 0.440415 6.91399 0
M  V30 6886 N 647.54 0.183286 5.61801 0
M  V30 6887 H 639.691 1.06203 1.83942 0
M  V30 6888 H 641.954 0.418834 0.85046 0
M  V30 6889 H 641.66 1.00102 3.37154 0
M  V30 6890 H 641.534 -0.717512 3.70313 0
M  V30 6891 H 643.921 -1.0351 2.7635 0
M  V30 6892 H 644.002 0.705967 2.45865 0
M  V30 6893 H 643.646 1.13619 4.95028 0
M  V30 6894 H 643.576 -0.62197 5.22914 0
M  V30 6895 H 646.067 -0.0430298 3.77876 0
M  V30 6896 H 646.38 0.537536 7.70928 0
M  V30 6897 H 644.725 0.476488 6.93365 0
M  V30 6898 H 647.916 0.0309561 4.6809 0
M  V30 6899 H 648.089 0.295471 6.47326 0
M  V30 6900 N 641.495 -1.56914 -0.146875 0
M  V30 6901 C 642.906 -1.72799 -0.706928 0
M  V30 6902 C 643.257 -0.741329 -1.81656 0
M  V30 6903 O 642.382 0.0920162 -2.16204 0
M  V30 6904 C 642.977 -3.13317 -1.28911 0
M  V30 6905 C 641.536 -3.30803 -1.79573 0
M  V30 6906 C 640.683 -2.68725 -0.684252 0
M  V30 6907 H 643.634 -1.58504 0.0787931 0
M  V30 6908 H 643.655 -3.13323 -2.15891 0
M  V30 6909 H 643.167 -3.85104 -0.481284 0
M  V30 6910 H 641.268 -2.64012 -2.62923 0
M  V30 6911 H 641.381 -4.38754 -1.92436 0
M  V30 6912 H 639.745 -2.29196 -1.11091 0
M  V30 6913 H 640.528 -3.43117 0.112134 0
M  V30 6914 N 642.974 0.416227 -1.52004 0
M  V30 6915 C 644.222 1.16153 -1.65387 0
M  V30 6916 C 644.543 1.91208 -0.382669 0
M  V30 6917 O 643.813 1.86413 0.602231 0
M  V30 6918 H 642.393 0.431765 -0.60958 0
M  V30 6919 H 645.055 0.475151 -1.89019 0
M  V30 6920 H 644.151 1.87952 -2.4916 0
M  V30 6921 N 644.452 1.42507 0.673017 0
M  V30 6922 C 645.682 1.46261 1.45916 0
M  V30 6923 C 646.09 0.0729724 1.89059 0
M  V30 6924 O 645.433 -0.922987 1.58829 0
M  V30 6925 C 645.495 2.32853 2.73898 0
M  V30 6926 C 645.159 3.80699 2.52819 0
M  V30 6927 C 646.156 4.72307 2.17306 0
M  V30 6928 C 643.841 4.24983 2.67758 0
M  V30 6929 C 645.835 6.06192 1.97003 0
M  V30 6930 C 643.522 5.58927 2.4707 0
M  V30 6931 C 644.52 6.49348 2.11746 0
M  V30 6932 O 644.208 7.80817 1.91259 0
M  V30 6933 H 643.94 0.499561 0.455428 0
M  V30 6934 H 646.494 1.87697 0.834196 0
M  V30 6935 H 644.724 1.86268 3.38882 0
M  V30 6936 H 646.413 2.28041 3.35786 0
M  V30 6937 H 647.179 4.39378 2.05359 0
M  V30 6938 H 643.058 3.54893 2.94231 0
M  V30 6939 H 646.602 6.76731 1.69355 0
M  V30 6940 H 642.499 5.91429 2.58615 0
M  V30 6941 H 643.267 7.92194 2.05843 0
M  V30 6942 N 645.93 -0.909495 1.28709 0
M  V30 6943 C 646.877 -2.01245 1.13 0
M  V30 6944 C 647.847 -1.6608 0.0259684 0
M  V30 6945 O 649.032 -1.89835 0.191687 0
M  V30 6946 C 646.172 -3.35644 0.802315 0
M  V30 6947 C 645.285 -3.83653 1.98582 0
M  V30 6948 C 644.42 -5.06582 1.59837 0
M  V30 6949 C 643.459 -5.46934 2.74827 0
M  V30 6950 N 642.596 -6.61053 2.36546 0
M  V30 6951 H 647.436 -2.14013 2.0737 0
M  V30 6952 H 644.973 -1.0482 1.03205 0
M  V30 6953 H 646.931 -4.12963 0.593057 0
M  V30 6954 H 645.561 -3.22631 -0.104457 0
M  V30 6955 H 644.613 -3.02454 2.30708 0
M  V30 6956 H 645.925 -4.09515 2.84779 0
M  V30 6957 H 645.079 -5.91457 1.35143 0
M  V30 6958 H 643.818 -4.82537 0.707753 0
M  V30 6959 H 642.823 -4.60599 3.00215 0
M  V30 6960 H 644.048 -5.72965 3.64538 0
M  V30 6961 H 641.994 -6.3863 1.49959 0
M  V30 6962 H 641.911 -6.86662 3.16277 0
M  V30 6963 H 643.179 -7.49221 2.15146 0
M  V30 6964 N 647.408 -1.11026 -1.11852 0
M  V30 6965 C 648.654 -0.857729 -1.83768 0
M  V30 6966 C 648.987 0.615143 -1.842 0
M  V30 6967 O 648.262 1.45391 -1.29196 0
M  V30 6968 C 648.545 -1.41453 -3.31154 0
M  V30 6969 C 648.398 -2.95471 -3.39142 0
M  V30 6970 C 649.717 -1.0619 -4.27097 0
M  V30 6971 H 646.836 -0.313044 -0.667212 0
M  V30 6972 H 649.478 -1.37443 -1.31185 0
M  V30 6973 H 647.628 -0.975052 -3.76065 0
M  V30 6974 H 649.3 -3.4799 -3.02821 0
M  V30 6975 H 647.543 -3.31759 -2.79497 0
M  V30 6976 H 648.214 -3.29515 -4.42859 0
M  V30 6977 H 650.69 -1.44122 -3.90344 0
M  V30 6978 H 649.566 -1.47832 -5.28618 0
M  V30 6979 H 649.827 0.0278912 -4.42091 0
M  V30 6980 N 648.886 1.2938 -0.899927 0
M  V30 6981 C 649.796 2.31462 -0.382437 0
M  V30 6982 C 650.812 1.65956 0.522929 0
M  V30 6983 O 651.988 1.97131 0.412454 0
M  V30 6984 C 649.053 3.44595 0.381472 0
M  V30 6985 C 648.114 4.25692 -0.555444 0
M  V30 6986 C 647.347 5.33422 0.172102 0
M  V30 6987 O 647.57 5.53053 1.396 0
M  V30 6988 O 646.504 5.99939 -0.485491 0
M  V30 6989 H 650.33 2.77706 -1.22934 0
M  V30 6990 H 647.915 1.33821 -0.664259 0
M  V30 6991 H 649.797 4.13474 0.813442 0
M  V30 6992 H 648.472 3.00458 1.20443 0
M  V30 6993 H 647.379 3.59453 -1.03653 0
M  V30 6994 H 648.712 4.73471 -1.34483 0
M  V30 6995 N 650.364 0.662433 1.43002 0
M  V30 6996 C 651.296 -0.062326 2.29115 0
M  V30 6997 C 652.309 -0.777926 1.43011 0
M  V30 6998 O 653.498 -0.634146 1.66856 0
M  V30 6999 C 650.598 -1.11163 3.2015 0
M  V30 7000 C 649.771 -0.472327 4.34842 0
M  V30 7001 C 648.83 -1.41974 5.06685 0
M  V30 7002 O 647.856 -0.924795 5.61637 0
M  V30 7003 N 649.058 -2.75345 5.11043 0
M  V30 7004 H 651.823 0.676838 2.91957 0
M  V30 7005 H 649.384 0.505907 1.53793 0
M  V30 7006 H 651.376 -1.74643 3.65078 0
M  V30 7007 H 649.946 -1.75266 2.58845 0
M  V30 7008 H 649.166 0.341751 3.92716 0
M  V30 7009 H 650.454 -0.0264381 5.08793 0
M  V30 7010 H 649.852 -3.18108 4.67786 0
M  V30 7011 H 648.409 -3.34105 5.59658 0
M  V30 7012 N 651.842 -1.52309 0.404946 0
M  V30 7013 C 653.091 -2.00952 -0.173529 0
M  V30 7014 C 653.404 -1.29512 -1.46581 0
M  V30 7015 O 654.61 -1.6895 -2.12528 0
M  V30 7016 C 653.066 -3.58097 -0.359801 0
M  V30 7017 C 652.674 -4.38449 0.920138 0
M  V30 7018 C 654.418 -4.14984 -0.893794 0
M  V30 7019 C 652.325 -5.87227 0.701285 0
M  V30 7020 H 651.255 -0.750871 -0.0686244 0
M  V30 7021 H 653.906 -1.75687 0.529749 0
M  V30 7022 H 652.288 -3.79675 -1.12531 0
M  V30 7023 H 653.462 -4.28633 1.69147 0
M  V30 7024 H 651.777 -3.92859 1.38024 0
M  V30 7025 H 654.374 -5.23813 -1.0735 0
M  V30 7026 H 654.717 -3.72072 -1.8673 0
M  V30 7027 H 655.25 -3.97358 -0.187453 0
M  V30 7028 H 651.989 -6.34491 1.64624 0
M  V30 7029 H 651.509 -5.99792 -0.0308288 0
M  V30 7030 H 653.188 -6.46096 0.341846 0
M  V30 7031 N 653.32 -0.135238 -1.57019 0
M  V30 7032 C 654.267 0.808908 -2.1616 0
M  V30 7033 C 655.237 1.25234 -1.09113 0
M  V30 7034 O 656.422 1.32697 -1.37099 0
M  V30 7035 C 653.562 2.04729 -2.77813 0
M  V30 7036 C 652.675 1.65074 -3.99218 0
M  V30 7037 C 651.81 2.84002 -4.48906 0
M  V30 7038 C 650.849 2.40663 -5.62803 0
M  V30 7039 N 649.986 3.5256 -6.07162 0
M  V30 7040 H 654.826 0.297751 -2.96509 0
M  V30 7041 H 652.363 0.135264 -1.46477 0
M  V30 7042 H 654.321 2.7731 -3.11697 0
M  V30 7043 H 652.951 2.53275 -2.00128 0
M  V30 7044 H 652.003 0.823029 -3.7139 0
M  V30 7045 H 653.315 1.29236 -4.81767 0
M  V30 7046 H 652.469 3.64788 -4.84783 0
M  V30 7047 H 651.208 3.23076 -3.65339 0
M  V30 7048 H 650.213 1.58314 -5.26514 0
M  V30 7049 H 651.438 2.02687 -6.48147 0
M  V30 7050 H 649.384 3.91278 -5.26534 0
M  V30 7051 H 649.301 3.20699 -6.84608 0
M  V30 7052 H 650.569 4.33738 -6.47682 0
M  V30 7053 N 654.798 1.5699 0.138552 0
M  V30 7054 C 655.708 2.02174 1.19008 0
M  V30 7055 C 656.724 0.938622 1.46512 0
M  V30 7056 O 657.9 1.24872 1.58016 0
M  V30 7057 C 654.965 2.40045 2.50159 0
M  V30 7058 C 654.026 3.62346 2.30226 0
M  V30 7059 C 653.259 3.98401 3.55123 0
M  V30 7060 O 653.482 3.35019 4.61647 0
M  V30 7061 O 652.416 4.91606 3.47285 0
M  V30 7062 H 656.242 2.91954 0.836452 0
M  V30 7063 H 653.827 1.45293 0.347907 0
M  V30 7064 H 655.709 2.65225 3.27465 0
M  V30 7065 H 654.384 1.53417 2.85035 0
M  V30 7066 H 653.291 3.42341 1.50843 0
M  V30 7067 H 654.624 4.49617 2.00262 0
M  V30 7068 N 656.276 -0.40816 1.52223 0
M  V30 7069 C 657.553 -1.16807 1.56893 0
M  V30 7070 C 657.933 -2.08169 0.350537 0
M  V30 7071 O 657.281 -2.18684 -0.662536 0
M  V30 7072 C 657.491 -1.94451 2.8981 0
M  V30 7073 C 658.839 -2.50484 3.42845 0
M  V30 7074 O 659.863 -2.0463 2.91556 0
M  V30 7075 O 658.722 -3.34192 4.3241 0
M  V30 7076 H 655.816 -0.533382 0.632007 0
M  V30 7077 H 658.362 -0.414862 1.64551 0
M  V30 7078 H 657.134 -1.27527 3.69936 0
M  V30 7079 H 656.757 -2.76775 2.85449 0
M  V30 7080 N 657.755 -1.42862 -0.66545 0
M  V30 7081 C 658.705 -1.43521 -1.7716 0
M  V30 7082 C 659.689 -0.305267 -1.57978 0
M  V30 7083 O 660.881 -0.548176 -1.68297 0
M  V30 7084 C 658.01 -1.34914 -3.15679 0
M  V30 7085 C 657.096 -2.5289 -3.40452 0
M  V30 7086 N 657.487 -3.78284 -3.3576 0
M  V30 7087 C 655.785 -2.47351 -3.71124 0
M  V30 7088 C 656.486 -4.56701 -3.60276 0
M  V30 7089 N 655.462 -3.87249 -3.81496 0
M  V30 7090 H 659.264 -2.38357 -1.7194 0
M  V30 7091 H 656.778 -1.37342 -0.866653 0
M  V30 7092 H 658.775 -1.33468 -3.94958 0
M  V30 7093 H 657.435 -0.410881 -3.2209 0
M  V30 7094 H 658.446 -4.10746 -3.15448 0
M  V30 7095 H 655.123 -1.62152 -3.84725 0
M  V30 7096 H 656.513 -5.65704 -3.6253 0
M  V30 7097 O 659.272 0.808226 -1.39821 0
M  V30 7098 H 659.963 1.45282 -1.28112 0
M  V30 END ATOM
M  V30 BEGIN BOND
M  V30 END BOND
M  V30 END CTAB
M  END
$$$$
