drugbank_target|P80371 30S ribosomal protein S2 (DB08185)
 OpenBabel12092120483D

  0  0  0     0  0            999 V3000
M  V30 BEGIN CTAB
M  V30 COUNTS 4161 4198 0 0 0
M  V30 BEGIN ATOM
M  V30 1 H -0.908 1.98254 -0.117106 0
M  V30 2 N 0 1.576 0 0
M  V30 3 C 0.933 2.03868 1.02534 0
M  V30 4 C 1.911 0.928543 1.3348 0
M  V30 5 O 3.095 1.19667 1.45644 0
M  V30 6 C 0.222 2.43627 2.35294 0
M  V30 7 C -0.732 3.65373 2.2001 0
M  V30 8 S 0.101 5.13292 1.52614 0
M  V30 9 C 1.257 5.56322 2.86805 0
M  V30 10 H 1.49 2.90518 0.631377 0
M  V30 11 H -0.977 1.52953 0.210867 0
M  V30 12 H 0.981 2.67203 3.11629 0
M  V30 13 H -0.358 1.57376 2.7183 0
M  V30 14 H -1.165 3.90944 3.18086 0
M  V30 15 H -1.563 3.418 1.51819 0
M  V30 16 H 0.729 5.58782 3.83104 0
M  V30 17 H 1.672 6.56266 2.65933 0
M  V30 18 H 2.08 4.83886 2.90714 0
M  V30 19 N 1.4781 -0.272755 1.55222 0
M  V30 20 C 2.8891 -0.84378 1.66545 0
M  V30 21 C 3.2401 -1.87035 0.592641 0
M  V30 22 O 2.3651 -2.14761 -0.265818 0
M  V30 23 C 2.9601 -1.53723 3.01918 0
M  V30 24 C 1.5191 -2.05628 3.15268 0
M  V30 25 C 0.6661 -0.898424 2.62343 0
M  V30 26 H 3.6171 -0.0490998 1.58624 0
M  V30 27 H 3.6381 -2.40421 2.94921 0
M  V30 28 H 3.1501 -0.78983 3.79978 0
M  V30 29 H 1.2511 -2.83329 2.41983 0
M  V30 30 H 1.3641 -2.27142 4.21833 0
M  V30 31 H -0.2719 -1.29186 2.19506 0
M  V30 32 H 0.5111 -0.164528 3.42906 0
M  V30 33 N 2.9562 -1.48159 -0.537278 0
M  V30 34 C 4.2022 -1.56035 -1.29541 0
M  V30 35 C 4.5352 -0.230377 -1.92829 0
M  V30 36 O 3.8102 0.762952 -1.78911 0
M  V30 37 C 4.0932 -2.69323 -2.39034 0
M  V30 38 C 3.9462 -4.12002 -1.80485 0
M  V30 39 C 5.2652 -2.78408 -3.40847 0
M  V30 40 H 2.3842 -0.567992 -0.469632 0
M  V30 41 H 5.0262 -1.80302 -0.599277 0
M  V30 42 H 3.1762 -2.48763 -2.98412 0
M  V30 43 H 4.8482 -4.43981 -1.25215 0
M  V30 44 H 3.0912 -4.19344 -1.11055 0
M  V30 45 H 3.7622 -4.87077 -2.59731 0
M  V30 46 H 6.2382 -2.97012 -2.91416 0
M  V30 47 H 5.1142 -3.59416 -4.14863 0
M  V30 48 H 5.3752 -1.86269 -4.00944 0
M  V30 49 N 4.4343 0.785586 -1.36625 0
M  V30 50 C 5.3443 1.92964 -1.33425 0
M  V30 51 C 6.3603 1.72394 -0.235851 0
M  V30 52 O 7.5363 1.95866 -0.468878 0
M  V30 53 C 4.6013 3.27884 -1.12662 0
M  V30 54 C 3.6623 3.61204 -2.32013 0
M  V30 55 C 2.8953 4.89687 -2.12231 0
M  V30 56 O 3.1183 5.59704 -1.09945 0
M  V30 57 O 2.0523 5.21752 -3.00098 0
M  V30 58 H 5.8783 1.98613 -2.29753 0
M  V30 59 H 3.4633 0.926384 -1.17211 0
M  V30 60 H 5.3453 4.08614 -1.03016 0
M  V30 61 H 4.0203 3.23118 -0.193991 0
M  V30 62 H 2.9273 2.80765 -2.47228 0
M  V30 63 H 4.2603 3.70698 -3.23796 0
M  V30 64 N 5.9124 1.20967 1.01018 0
M  V30 65 C 7.1614 1.01796 1.74128 0
M  V30 66 C 7.4744 -0.449691 1.90361 0
M  V30 67 O 8.6804 -0.76068 2.60626 0
M  V30 68 C 7.1364 1.7727 3.13215 0
M  V30 69 C 6.7444 3.28171 3.04972 0
M  V30 70 C 8.4884 1.66489 3.90489 0
M  V30 71 C 6.3954 3.96156 4.39107 0
M  V30 72 H 5.3254 0.377276 0.652824 0
M  V30 73 H 7.9764 1.44651 1.12909 0
M  V30 74 H 6.3584 1.27205 3.75013 0
M  V30 75 H 7.5324 3.85499 2.52443 0
M  V30 76 H 5.8474 3.39437 2.41188 0
M  V30 77 H 8.4444 2.14617 4.89738 0
M  V30 78 H 8.7874 0.6222 4.11624 0
M  V30 79 H 9.3204 2.14003 3.35332 0
M  V30 80 H 6.0594 5.00604 4.23174 0
M  V30 81 H 5.5794 3.43617 4.91617 0
M  V30 82 H 7.2584 4.00774 5.07926 0
M  V30 83 N 7.3905 -1.2043 1.01659 0
M  V30 84 C 8.6185 -1.93777 0.725132 0
M  V30 85 C 9.0335 -1.74772 -0.714166 0
M  V30 86 O 8.3905 -1.06169 -1.4844 0
M  V30 87 C 8.4415 -3.45876 1.05129 0
M  V30 88 O 8.1625 -3.6426 2.43406 0
M  V30 89 C 9.6635 -4.36368 0.780891 0
M  V30 90 H 6.8835 -0.615901 0.266284 0
M  V30 91 H 9.4275 -1.52922 1.35776 0
M  V30 92 H 7.5825 -3.8461 0.464065 0
M  V30 93 H 7.9965 -4.58246 2.55169 0
M  V30 94 H 9.4705 -5.41743 1.05918 0
M  V30 95 H 9.9475 -4.38275 -0.284937 0
M  V30 96 H 10.5535 -4.03296 1.35027 0
M  V30 97 N 8.8686 -0.792821 -1.36206 0
M  V30 98 C 10.1146 -0.36733 -1.99446 0
M  V30 99 C 10.4476 1.05917 -1.62774 0
M  V30 100 O 9.7226 1.7324 -0.88421 0
M  V30 101 C 10.0056 -0.535044 -3.56103 0
M  V30 102 C 9.8586 -2.00548 -4.02617 0
M  V30 103 C 11.1776 0.0478191 -4.40074 0
M  V30 104 H 8.2966 -0.134941 -0.724541 0
M  V30 105 H 10.9386 -0.999794 -1.61568 0
M  V30 106 H 9.0886 0.00336329 -3.885 0
M  V30 107 H 10.7606 -2.60521 -3.80692 0
M  V30 108 H 9.0036 -2.50686 -3.54032 0
M  V30 109 H 9.6746 -2.07377 -5.11565 0
M  V30 110 H 12.1506 -0.411822 -4.14057 0
M  V30 111 H 11.0266 -0.0995336 -5.4881 0
M  V30 112 H 11.2876 1.14025 -4.27142 0
M  V30 113 N 10.3467 1.47872 -0.545128 0
M  V30 114 C 11.2937 2.29849 0.2093 0
M  V30 115 C 12.2637 1.38313 0.919707 0
M  V30 116 O 13.4487 1.67277 0.917772 0
M  V30 117 C 10.5887 3.22019 1.24088 0
M  V30 118 C 9.7017 4.2864 0.537778 0
M  V30 119 C 8.8367 5.07973 1.5536 0
M  V30 120 C 7.8757 6.06381 0.8348 0
M  V30 121 N 7.0127 6.78717 1.79688 0
M  V30 122 H 11.8527 2.93845 -0.49591 0
M  V30 123 H 9.3897 1.44848 -0.256389 0
M  V30 124 H 11.3477 3.73868 1.85144 0
M  V30 125 H 9.9777 2.59914 1.91428 0
M  V30 126 H 9.0297 3.7994 -0.187046 0
M  V30 127 H 10.3417 4.98793 -0.0258907 0
M  V30 128 H 9.4957 5.63912 2.23803 0
M  V30 129 H 8.2347 4.37693 2.15118 0
M  V30 130 H 7.2397 5.49631 0.136388 0
M  V30 131 H 8.4647 6.78665 0.24313 0
M  V30 132 H 6.4107 6.11177 2.38326 0
M  V30 133 H 6.3277 7.44998 1.28505 0
M  V30 134 H 7.5957 7.39237 2.47282 0
M  V30 135 N 11.8248 0.280983 1.55075 0
M  V30 136 C 12.7348 -0.61388 2.26426 0
M  V30 137 C 13.7508 -1.16521 1.29224 0
M  V30 138 O 14.9268 -1.19426 1.62171 0
M  V30 139 C 11.9918 -1.7788 2.9759 0
M  V30 140 C 11.0528 -1.26355 4.10284 0
M  V30 141 C 10.2858 -2.37295 4.78045 0
M  V30 142 O 10.5088 -3.56777 4.45047 0
M  V30 143 O 9.4428 -2.05119 5.65871 0
M  V30 144 H 13.2688 -0.0356932 3.03679 0
M  V30 145 H 10.8538 0.0481686 1.49322 0
M  V30 146 H 12.7358 -2.45791 3.42293 0
M  V30 147 H 11.4108 -2.34397 2.23249 0
M  V30 148 H 10.3178 -0.550735 3.70024 0
M  V30 149 H 11.6508 -0.744065 4.86543 0
M  V30 150 N 13.3029 -1.57598 0.00835791 0
M  V30 151 C 14.2329 -2.1198 -0.979113 0
M  V30 152 C 15.2139 -1.03091 -1.35301 0
M  V30 153 O 16.3989 -1.30818 -1.43528 0
M  V30 154 C 13.5289 -2.62995 -2.26828 0
M  V30 155 C 12.4829 -3.76485 -2.03576 0
M  V30 156 C 11.8089 -4.13846 -3.38579 0
M  V30 157 C 13.1089 -5.0342 -1.39161 0
M  V30 158 H 14.8029 -2.94738 -0.526281 0
M  V30 159 H 12.3489 -1.41783 -0.251704 0
M  V30 160 H 14.3019 -2.99669 -2.96271 0
M  V30 161 H 13.0259 -1.7737 -2.7424 0
M  V30 162 H 11.6849 -3.40217 -1.36557 0
M  V30 163 H 11.3329 -3.25232 -3.83709 0
M  V30 164 H 11.0329 -4.90312 -3.23834 0
M  V30 165 H 12.5569 -4.53086 -4.09323 0
M  V30 166 H 13.9709 -5.37812 -1.98573 0
M  V30 167 H 12.3679 -5.84746 -1.34878 0
M  V30 168 H 13.4379 -4.83548 -0.361868 0
M  V30 169 N 14.781 0.264519 -1.55364 0
M  V30 170 C 15.711 1.33121 -1.91836 0
M  V30 171 C 16.692 1.51101 -0.781192 0
M  V30 172 O 17.877 1.64003 -1.04003 0
M  V30 173 C 15.007 2.68921 -2.19769 0
M  V30 174 C 13.961 2.65661 -3.35571 0
M  V30 175 C 13.287 4.05093 -3.49004 0
M  V30 176 C 14.587 2.24187 -4.71739 0
M  V30 177 H 16.281 1.02844 -2.81182 0
M  V30 178 H 13.827 0.493286 -1.35287 0
M  V30 179 H 15.78 3.43663 -2.43872 0
M  V30 180 H 14.504 3.00799 -1.27231 0
M  V30 181 H 13.163 1.93377 -3.1145 0
M  V30 182 H 12.811 4.34206 -2.53917 0
M  V30 183 H 12.511 4.03804 -4.26868 0
M  V30 184 H 14.035 4.81561 -3.75408 0
M  V30 185 H 15.449 2.88654 -4.9533 0
M  V30 186 H 13.846 2.34044 -5.52579 0
M  V30 187 H 14.916 1.19327 -4.69988 0
M  V30 188 N 16.2591 1.48442 0.529413 0
M  V30 189 C 17.1691 1.6569 1.66084 0
M  V30 190 C 18.1851 0.539432 1.65427 0
M  V30 191 O 19.3611 0.810572 1.84368 0
M  V30 192 C 16.4261 1.69315 3.02545 0
M  V30 193 C 15.4871 2.92694 3.14052 0
M  V30 194 C 14.7201 2.96137 4.44003 0
M  V30 195 O 14.9431 2.07973 5.31134 0
M  V30 196 O 13.8771 3.88312 4.59888 0
M  V30 197 H 17.7031 2.61483 1.54469 0
M  V30 198 H 15.2881 1.3185 0.702567 0
M  V30 199 H 17.1701 1.74217 3.83701 0
M  V30 200 H 15.8451 0.766966 3.14483 0
M  V30 201 H 14.7521 2.93324 2.32189 0
M  V30 202 H 16.0851 3.84699 3.0703 0
M  V30 203 N 17.7372 -0.778329 1.37039 0
M  V30 204 C 18.7002 -1.87301 1.32102 0
M  V30 205 C 19.7002 -1.59198 0.226405 0
M  V30 206 O 20.8902 -1.67403 0.481861 0
M  V30 207 C 18.0222 -3.24309 1.05055 0
M  V30 208 H 19.2152 -1.93093 2.29467 0
M  V30 209 H 16.7682 -0.977358 1.21973 0
M  V30 210 H 17.5032 -3.24196 0.0819373 0
M  V30 211 H 17.2882 -3.46098 1.84279 0
M  V30 212 H 18.7782 -4.04382 1.04234 0
M  V30 213 N 19.2153 -1.21501 -1.00376 0
M  V30 214 C 20.4633 -1.03095 -1.73827 0
M  V30 215 C 20.7843 0.436341 -1.90055 0
M  V30 216 O 20.0543 1.31466 -1.45236 0
M  V30 217 H 18.6343 -0.378487 -0.644016 0
M  V30 218 H 21.2963 -1.52831 -1.20949 0
M  V30 219 H 20.3923 -1.49991 -2.73695 0
M  V30 220 N 20.6934 1.19889 -1.02296 0
M  V30 221 C 21.9394 1.89701 -0.717033 0
M  V30 222 C 22.2724 1.7905 0.751989 0
M  V30 223 O 21.5474 1.17891 1.547 0
M  V30 224 C 21.8304 3.40858 -1.16136 0
M  V30 225 C 21.6834 3.60411 -2.69117 0
M  V30 226 C 23.0024 4.33876 -0.737549 0
M  V30 227 H 20.1214 0.688874 -0.261957 0
M  V30 228 H 22.7634 1.41154 -1.27183 0
M  V30 229 H 20.9134 3.82335 -0.689342 0
M  V30 230 H 22.5854 3.28145 -3.2422 0
M  V30 231 H 20.8284 3.03665 -3.0979 0
M  V30 232 H 21.4994 4.66396 -2.95261 0
M  V30 233 H 23.9754 4.00081 -1.14344 0
M  V30 234 H 22.8514 5.38242 -1.0764 0
M  V30 235 H 23.1124 4.40628 0.360436 0
M  V30 236 N 22.1715 0.800033 1.35784 0
M  V30 237 C 23.1215 0.178654 2.27299 0
M  V30 238 C 24.1055 -0.643667 1.47464 0
M  V30 239 O 25.2975 -0.502 1.69732 0
M  V30 240 C 22.4265 -0.677194 3.36555 0
M  V30 241 C 21.5125 0.154497 4.23818 0
M  V30 242 N 21.9035 1.21427 4.91008 0
M  V30 243 C 20.2015 -0.0649462 4.45953 0
M  V30 244 C 20.9025 1.72147 5.55644 0
M  V30 245 N 19.8785 1.02897 5.33773 0
M  V30 246 H 23.6805 0.989637 2.76737 0
M  V30 247 H 21.1945 0.64054 1.49234 0
M  V30 248 H 23.1915 -1.13835 4.01058 0
M  V30 249 H 21.8515 -1.4866 2.8867 0
M  V30 250 H 22.8625 1.59684 4.92668 0
M  V30 251 H 19.5395 -0.844016 4.0888 0
M  V30 252 H 20.9295 2.60683 6.19269 0
M  V30 253 N 23.6496 -1.47581 0.552962 0
M  V30 254 C 24.8966 -2.02482 0.0273243 0
M  V30 255 C 25.2246 -1.42776 -1.32081 0
M  V30 256 O 24.4796 -0.571393 -1.87173 0
M  V30 257 C 24.7786 -3.57199 -0.119728 0
M  V30 258 C 24.4446 -4.35804 1.15697 0
M  V30 259 C 23.1066 -4.57 1.50681 0
M  V30 260 C 25.4586 -4.81167 2.00319 0
M  V30 261 C 22.7866 -5.20807 2.70142 0
M  V30 262 C 25.1386 -5.46293 3.18978 0
M  V30 263 C 23.8026 -5.65722 3.54281 0
M  V30 264 H 23.0726 -0.740933 0.00999866 0
M  V30 265 H 25.7196 -1.77302 0.72362 0
M  V30 266 H 24.0246 -3.81348 -0.89896 0
M  V30 267 H 25.7216 -3.97324 -0.541718 0
M  V30 268 H 22.3116 -4.19582 0.874561 0
M  V30 269 H 26.4956 -4.64574 1.74599 0
M  V30 270 H 21.7516 -5.34045 2.97668 0
M  V30 271 H 25.9256 -5.80407 3.84838 0
M  V30 272 H 23.5526 -6.14936 4.46942 0
M  V30 273 N 25.1277 -0.289203 -1.54924 0
M  V30 274 C 26.3757 0.322879 -1.99504 0
M  V30 275 C 26.6967 1.55313 -1.1791 0
M  V30 276 O 25.9667 1.94001 -0.272097 0
M  V30 277 H 24.5467 0.122291 -0.736922 0
M  V30 278 H 27.2087 -0.397802 -1.90797 0
M  V30 279 H 26.3047 0.603061 -3.06218 0
M  V30 280 N 26.6058 1.57591 -0.0167156 0
M  V30 281 C 27.5558 2.05953 0.978137 0
M  V30 282 C 28.5398 0.957532 1.29306 0
M  V30 283 O 29.7318 1.22119 1.28125 0
M  V30 284 C 26.8608 2.58006 2.26468 0
M  V30 285 C 25.9468 3.75113 1.97867 0
M  V30 286 N 26.3378 4.86187 1.39486 0
M  V30 287 C 24.6358 3.83363 2.27924 0
M  V30 288 C 25.3368 5.67502 1.27735 0
M  V30 289 N 24.3128 5.14023 1.76866 0
M  V30 290 H 28.1148 2.89236 0.521522 0
M  V30 291 H 25.6288 1.61301 0.188596 0
M  V30 292 H 27.6258 2.90937 2.98599 0
M  V30 293 H 26.2858 1.76148 2.72767 0
M  V30 294 H 27.2968 5.06695 1.07147 0
M  V30 295 H 23.9738 3.1239 2.76982 0
M  V30 296 H 25.3638 6.66791 0.826978 0
M  V30 297 N 28.0839 -0.256276 1.55502 0
M  V30 298 C 28.9939 -1.33882 1.92647 0
M  V30 299 C 30.0099 -1.53159 0.825727 0
M  V30 300 O 31.1859 -1.66963 1.12629 0
M  V30 301 C 28.2509 -2.6751 2.20543 0
M  V30 302 C 27.3119 -2.56836 3.43997 0
M  V30 303 C 26.5449 -3.84092 3.70553 0
M  V30 304 O 26.7679 -4.85545 2.99336 0
M  V30 305 O 25.7019 -3.83288 4.64084 0
M  V30 306 H 29.5279 -1.05374 2.84833 0
M  V30 307 H 27.1129 -0.456237 1.42263 0
M  V30 308 H 28.9949 -3.46492 2.39835 0
M  V30 309 H 27.6699 -2.9577 1.31536 0
M  V30 310 H 26.5769 -1.76172 3.30021 0
M  V30 311 H 27.9099 -2.33523 4.33275 0
M  V30 312 N 29.562 -1.4872 -0.521534 0
M  V30 313 C 30.978 -1.35028 -0.850855 0
M  V30 314 C 31.178 -0.367712 -1.98116 0
M  V30 315 O 30.234 0.208037 -2.51642 0
M  V30 316 C 31.547 -2.75263 -1.21041 0
M  V30 317 C 33.095 -2.83813 -1.31981 0
M  V30 318 C 33.57 -4.24769 -1.71276 0
M  V30 319 N 35.061 -4.27482 -1.78363 0
M  V30 320 C 35.796 -5.33494 -2.1017 0
M  V30 321 N 35.292 -6.49775 -2.40343 0
M  V30 322 N 37.085 -5.20894 -2.11248 0
M  V30 323 H 29.236 -2.11214 0.22413 0
M  V30 324 H 31.499 -0.947252 0.0376439 0
M  V30 325 H 31.205 -3.48765 -0.453415 0
M  V30 326 H 31.079 -3.09327 -2.15863 0
M  V30 327 H 33.466 -2.10561 -2.06756 0
M  V30 328 H 33.547 -2.53358 -0.352596 0
M  V30 329 H 33.191 -4.9854 -0.970588 0
M  V30 330 H 33.121 -4.52673 -2.69062 0
M  V30 331 H 35.612 -3.43611 -1.57288 0
M  V30 332 H 35.925 -7.26402 -2.63743 0
M  V30 333 H 34.27 -6.53035 -2.37844 0
M  V30 334 H 37.461 -4.29065 -1.87139 0
M  V30 335 H 37.634 -6.03612 -2.35704 0
M  V30 336 N 31.0401 0.771051 -1.3745 0
M  V30 337 C 31.9871 1.88435 -1.3327 0
M  V30 338 C 32.9571 1.64914 -0.198136 0
M  V30 339 O 34.1421 1.86821 -0.387606 0
M  V30 340 C 31.2821 3.25509 -1.14622 0
M  V30 341 C 30.3951 3.60979 -2.37314 0
M  V30 342 C 29.5301 4.87265 -2.11533 0
M  V30 343 C 28.5691 5.15469 -3.30088 0
M  V30 344 N 27.7061 6.32944 -3.03853 0
M  V30 345 H 32.5461 1.91344 -2.28455 0
M  V30 346 H 30.0831 0.935466 -1.13523 0
M  V30 347 H 32.0411 4.04582 -1.01831 0
M  V30 348 H 30.6711 3.21974 -0.230837 0
M  V30 349 H 29.7231 2.76885 -2.60842 0
M  V30 350 H 31.0351 3.77759 -3.25729 0
M  V30 351 H 30.1891 5.74244 -1.95777 0
M  V30 352 H 28.9281 4.7259 -1.20457 0
M  V30 353 H 27.9331 4.26966 -3.46382 0
M  V30 354 H 29.1581 5.32052 -4.22016 0
M  V30 355 H 27.1041 6.19625 -2.15407 0
M  V30 356 H 27.0211 6.50143 -3.85812 0
M  V30 357 H 28.2891 7.22857 -2.91716 0
M  V30 358 N 32.5182 1.22032 0.997298 0
M  V30 359 C 33.9342 0.979326 1.26021 0
M  V30 360 C 34.1342 -0.32972 1.98784 0
M  V30 361 O 33.1902 -1.05345 2.29475 0
M  V30 362 C 34.5032 2.17509 2.07631 0
M  V30 363 C 36.0512 2.21817 2.2083 0
M  V30 364 C 36.5262 3.40933 3.05825 0
M  V30 365 N 38.0172 3.41067 3.13412 0
M  V30 366 C 38.7522 4.29885 3.79455 0
M  V30 367 N 38.2482 5.28914 4.47462 0
M  V30 368 N 40.0412 4.17673 3.76173 0
M  V30 369 H 32.1922 2.06202 0.509352 0
M  V30 370 H 34.4552 0.90334 0.287541 0
M  V30 371 H 34.1612 3.12415 1.61524 0
M  V30 372 H 34.0352 2.17206 3.08385 0
M  V30 373 H 36.4222 1.27462 2.66153 0
M  V30 374 H 36.5032 2.2616 1.1952 0
M  V30 375 H 36.1472 4.35586 2.61203 0
M  V30 376 H 36.0772 3.33829 4.07266 0
M  V30 377 H 38.5682 2.69406 2.65007 0
M  V30 378 H 38.8812 5.92973 4.95583 0
M  V30 379 H 37.2262 5.32831 4.46224 0
M  V30 380 H 40.4172 3.39564 3.22202 0
M  V30 381 H 40.5902 4.87098 4.27363 0
M  V30 382 N 33.9963 -1.19345 1.0293 0
M  V30 383 C 35.2423 -1.89585 0.736824 0
M  V30 384 C 35.5973 -1.78148 -0.726703 0
M  V30 385 O 34.8903 -1.16332 -1.52242 0
M  V30 386 C 35.0843 -3.39292 1.12319 0
M  V30 387 C 34.9133 -3.65298 2.62273 0
M  V30 388 C 33.6833 -3.83304 3.29251 0
M  V30 389 C 35.8813 -3.6682 3.60482 0
M  V30 390 N 33.8633 -3.96944 4.68304 0
M  V30 391 C 35.2343 -3.86037 4.85155 0
M  V30 392 C 37.2893 -3.49848 3.54275 0
M  V30 393 C 35.9923 -3.9004 6.04369 0
M  V30 394 C 38.0183 -3.55129 4.72903 0
M  V30 395 C 37.3803 -3.74831 5.9639 0
M  V30 396 H 33.4793 -0.712856 0.321497 0
M  V30 397 H 36.0633 -1.43427 1.31669 0
M  V30 398 H 34.2343 -3.84172 0.571524 0
M  V30 399 H 35.9663 -3.97055 0.78292 0
M  V30 400 H 32.7213 -3.82211 2.79663 0
M  V30 401 H 33.1453 -4.07613 5.40538 0
M  V30 402 H 37.7873 -3.33572 2.59788 0
M  V30 403 H 35.5053 -4.05108 6.99223 0
M  V30 404 H 39.0913 -3.43287 4.69729 0
M  V30 405 H 37.9713 -3.78792 6.86649 0
M  V30 406 N 35.4744 -0.807222 -1.35358 0
M  V30 407 C 36.4224 -0.20614 -2.31685 0
M  V30 408 C 37.4164 0.644445 -1.56663 0
M  V30 409 O 38.6224 0.537538 -1.71786 0
M  V30 410 H 34.9974 -0.0479006 -0.750473 0
M  V30 411 H 36.9684 -1.03369 -2.79924 0
M  V30 412 C 35.7174 0.630212 -3.41941 0
M  V30 413 H 35.0404 -0.0149558 -3.99797 0
M  V30 414 H 36.4804 1.01716 -4.11619 0
M  V30 415 C 34.9394 1.79601 -2.85035 0
M  V30 416 O 35.4694 2.89351 -2.78637 0
M  V30 417 N 33.6754 1.60774 -2.42074 0
M  V30 418 H 33.2224 0.715009 -2.47478 0
M  V30 419 H 33.1804 2.38933 -2.04349 0
M  V30 420 N 36.9525 1.47285 -0.560781 0
M  V30 421 C 38.3635 1.86258 -0.128343 0
M  V30 422 C 38.7145 1.46699 1.30284 0
M  V30 423 O 37.8395 0.871698 1.98067 0
M  V30 424 C 38.4345 3.38044 -0.22614 0
M  V30 425 C 36.9935 3.76096 0.151283 0
M  V30 426 C 36.1405 2.71335 -0.572084 0
M  V30 427 H 39.0915 1.38752 -0.770297 0
M  V30 428 H 39.1125 3.76441 0.554322 0
M  V30 429 H 38.6245 3.66806 -1.26788 0
M  V30 430 H 36.7255 3.52951 1.19399 0
M  V30 431 H 36.8385 4.78641 -0.209765 0
M  V30 432 H 35.2025 2.54696 -0.0147653 0
M  V30 433 H 35.9855 3.02938 -1.61504 0
M  V30 434 N 38.4306 0.297415 1.54768 0
M  V30 435 C 39.3776 -0.580276 2.23386 0
M  V30 436 C 40.3476 -1.13238 1.21517 0
M  V30 437 O 41.5326 -1.17757 1.50126 0
M  V30 438 C 38.6726 -1.74801 2.97555 0
M  V30 439 C 37.7856 -1.22764 4.1419 0
M  V30 440 C 36.9206 -2.35895 4.75949 0
M  V30 441 C 35.9596 -1.80974 5.84735 0
M  V30 442 N 35.0966 -2.87664 6.40464 0
M  V30 443 H 39.9366 0.0114833 2.97998 0
M  V30 444 H 37.4736 0.0174361 1.4709 0
M  V30 445 H 39.4316 -2.43475 3.38786 0
M  V30 446 H 38.0616 -2.31145 2.25326 0
M  V30 447 H 37.1136 -0.433271 3.77924 0
M  V30 448 H 38.4256 -0.785551 4.92575 0
M  V30 449 H 37.5796 -3.12523 5.20014 0
M  V30 450 H 36.3186 -2.83429 3.96887 0
M  V30 451 H 35.3236 -1.02834 5.40097 0
M  V30 452 H 36.5486 -1.34348 6.65678 0
M  V30 453 H 34.4946 -3.34538 5.64287 0
M  V30 454 H 34.4116 -2.4794 7.14186 0
M  V30 455 H 35.6796 -3.642 6.89187 0
M  V30 456 N 39.9087 -1.5758 0.0250728 0
M  V30 457 C 41.1557 -1.91633 -0.654444 0
M  V30 458 C 41.4837 -0.901103 -1.72367 0
M  V30 459 O 40.7387 0.0905647 -1.9549 0
M  V30 460 C 41.0377 -3.32421 -1.31268 0
M  V30 461 C 40.7037 -4.49344 -0.374223 0
M  V30 462 C 39.3657 -4.8106 -0.115911 0
M  V30 463 C 41.7177 -5.20498 0.270432 0
M  V30 464 C 39.0457 -5.8129 0.79493 0
M  V30 465 C 41.3977 -6.21699 1.1693 0
M  V30 466 C 40.0617 -6.51859 1.43655 0
M  V30 467 H 39.3317 -0.701236 -0.239478 0
M  V30 468 H 41.9787 -1.91307 0.0859734 0
M  V30 469 H 40.2837 -3.28989 -2.12775 0
M  V30 470 H 41.9807 -3.56038 -1.84494 0
M  V30 471 H 38.5707 -4.24579 -0.58573 0
M  V30 472 H 42.7547 -4.96229 0.0839194 0
M  V30 473 H 38.0107 -6.03005 1.00973 0
M  V30 474 H 42.1847 -6.75955 1.67504 0
M  V30 475 H 39.8117 -7.2934 2.144 0
M  V30 476 N 41.3868 0.248026 -1.55636 0
M  V30 477 C 42.3498 1.29044 -1.89421 0
M  V30 478 C 43.3498 1.41134 -0.770581 0
M  V30 479 O 44.5398 1.39854 -1.03858 0
M  V30 480 C 41.6718 2.66831 -2.12165 0
M  V30 481 H 42.8648 1.00305 -2.82629 0
M  V30 482 H 40.4178 0.487265 -1.48511 0
M  V30 483 H 41.1528 3.00711 -1.21422 0
M  V30 484 H 40.9378 2.59438 -2.93997 0
M  V30 485 H 42.4278 3.42103 -2.3949 0
M  V30 486 N 42.8649 1.48995 0.513639 0
M  V30 487 C 44.2809 1.35478 0.843682 0
M  V30 488 C 44.4809 0.378213 1.97919 0
M  V30 489 O 43.5369 -0.194689 2.51748 0
M  V30 490 C 44.8499 2.75901 1.1958 0
M  V30 491 C 46.3979 2.84509 1.30474 0
M  V30 492 C 46.8729 4.25671 1.69021 0
M  V30 493 N 48.3639 4.28422 1.76094 0
M  V30 494 C 49.0989 5.34601 2.07338 0
M  V30 495 N 48.5949 6.5104 2.36894 0
M  V30 496 N 50.3879 5.22007 2.08483 0
M  V30 497 H 42.5389 2.11092 -0.235328 0
M  V30 498 H 44.8019 0.947039 -0.0426669 0
M  V30 499 H 44.5079 3.49001 0.434913 0
M  V30 500 H 44.3819 3.10467 2.1422 0
M  V30 501 H 46.7689 2.11655 2.05637 0
M  V30 502 H 46.8499 2.53542 0.339155 0
M  V30 503 H 46.4939 4.99048 0.944135 0
M  V30 504 H 46.4239 4.54094 2.66658 0
M  V30 505 H 48.9149 3.44441 1.55464 0
M  V30 506 H 49.2279 7.2779 2.59887 0
M  V30 507 H 47.5729 6.54287 2.34378 0
M  V30 508 H 50.7639 4.30051 1.84861 0
M  V30 509 H 50.9369 6.04854 2.325 0
M  V30 510 N 44.343 -0.763751 1.37857 0
M  V30 511 C 45.573 -1.55067 1.3652 0
M  V30 512 C 45.981 -1.89135 -0.0494227 0
M  V30 513 O 45.324 -1.52529 -1.02375 0
M  V30 514 C 45.386 -2.8838 2.14656 0
M  V30 515 C 45.05 -2.76905 3.63555 0
M  V30 516 C 46.047 -2.4739 4.57268 0
M  V30 517 C 43.732 -2.94676 4.06781 0
M  V30 518 C 45.726 -2.35786 5.92186 0
M  V30 519 C 43.413 -2.82692 5.41782 0
M  V30 520 C 44.411 -2.53289 6.34298 0
M  V30 521 O 44.099 -2.41345 7.66817 0
M  V30 522 H 43.831 -0.486776 0.469069 0
M  V30 523 H 46.385 -0.953812 1.81911 0
M  V30 524 H 44.615 -3.50217 1.63967 0
M  V30 525 H 46.304 -3.49828 2.05852 0
M  V30 526 H 47.07 -2.33339 4.2518 0
M  V30 527 H 42.949 -3.16563 3.35126 0
M  V30 528 H 46.493 -2.12757 6.64365 0
M  V30 529 H 42.39 -2.96314 5.7347 0
M  V30 530 H 43.158 -2.56634 7.77226 0
M  V30 531 N 45.8211 -1.22559 -0.990812 0
M  V30 532 C 47.0701 -1.04553 -1.72486 0
M  V30 533 C 47.3831 0.419349 -1.91052 0
M  V30 534 O 48.5891 0.719121 -2.61803 0
M  V30 535 C 47.0451 -1.82231 -3.10355 0
M  V30 536 C 46.6531 -3.32981 -2.99713 0
M  V30 537 C 48.3971 -1.7268 -3.87791 0
M  V30 538 C 46.3041 -4.03091 -4.32748 0
M  V30 539 H 45.2341 -0.387614 -0.646739 0
M  V30 540 H 47.8851 -1.46429 -1.10593 0
M  V30 541 H 46.2671 -1.33155 -3.72942 0
M  V30 542 H 47.4411 -3.89466 -2.46278 0
M  V30 543 H 45.7561 -3.43231 -2.35758 0
M  V30 544 H 48.3531 -2.22381 -4.86262 0
M  V30 545 H 48.6961 -0.687607 -4.10582 0
M  V30 546 H 49.2291 -2.1931 -3.31885 0
M  V30 547 H 45.9681 -5.07273 -4.15156 0
M  V30 548 H 45.4881 -3.51394 -4.86089 0
M  V30 549 H 47.1671 -4.08804 -5.01486 0
M  V30 550 N 47.2992 1.18797 -1.03562 0
M  V30 551 C 48.5292 1.92319 -0.754773 0
M  V30 552 C 48.9372 1.7612 0.691248 0
M  V30 553 O 48.2802 1.08491 1.48241 0
M  V30 554 C 48.3422 3.44284 -1.03484 0
M  V30 555 C 48.0062 3.84258 -2.47376 0
M  V30 556 C 49.0032 3.88459 -3.45537 0
M  V30 557 C 46.6882 4.15701 -2.81954 0
M  V30 558 C 48.6822 4.23545 -4.76328 0
M  V30 559 C 46.3692 4.50458 -4.12954 0
M  V30 560 C 47.3672 4.54356 -5.09951 0
M  V30 561 O 47.0552 4.88305 -6.38603 0
M  V30 562 H 46.7872 0.617527 -0.275021 0
M  V30 563 H 49.3412 1.51683 -1.38497 0
M  V30 564 H 47.5712 3.85135 -0.347513 0
M  V30 565 H 49.2602 3.99049 -0.7426 0
M  V30 566 H 50.0262 3.6431 -3.20162 0
M  V30 567 H 45.9052 4.11847 -2.0713 0
M  V30 568 H 49.4492 4.26502 -5.52035 0
M  V30 569 H 45.3462 4.74067 -4.38099 0
M  V30 570 H 46.1142 5.06227 -6.43177 0
M  V30 571 N 48.7773 0.814389 1.34928 0
M  V30 572 C 49.7403 0.235759 2.27984 0
M  V30 573 C 50.7403 -0.581412 1.49921 0
M  V30 574 O 51.9303 -0.398758 1.69575 0
M  V30 575 C 49.0623 -0.670433 3.34242 0
M  V30 576 H 50.2553 1.05659 2.80671 0
M  V30 577 H 47.8083 0.585614 1.44915 0
M  V30 578 H 48.5433 -1.51466 2.86755 0
M  V30 579 H 48.3283 -0.0860822 3.92005 0
M  V30 580 H 49.8183 -1.06935 4.03676 0
M  V30 581 N 50.2554 -1.46986 0.568584 0
M  V30 582 C 51.1654 -2.33942 -0.17555 0
M  V30 583 C 52.1814 -1.48891 -0.90041 0
M  V30 584 O 53.3574 -1.81794 -0.86676 0
M  V30 585 C 50.4224 -3.25811 -1.18524 0
M  V30 586 C 49.4834 -4.26757 -0.466582 0
M  V30 587 C 48.7164 -5.14236 -1.42817 0
M  V30 588 O 48.9394 -5.04379 -2.66379 0
M  V30 589 O 47.8734 -5.94412 -0.946453 0
M  V30 590 H 51.6994 -2.98896 0.538036 0
M  V30 591 H 49.2844 -1.4573 0.329097 0
M  V30 592 H 51.1664 -3.82527 -1.76779 0
M  V30 593 H 49.8414 -2.63471 -1.88055 0
M  V30 594 H 48.7484 -3.73769 0.157451 0
M  V30 595 H 50.0814 -4.91843 0.187485 0
M  V30 596 N 51.7335 -0.305618 -1.54608 0
M  V30 597 C 53.1495 0.0476228 -1.59529 0
M  V30 598 C 53.3495 1.52025 -1.32252 0
M  V30 599 O 52.4055 2.27368 -1.09818 0
M  V30 600 C 53.7185 -0.354471 -2.98603 0
M  V30 601 C 55.2665 -0.303622 -3.11524 0
M  V30 602 C 55.7415 -0.680608 -4.52915 0
M  V30 603 N 57.2325 -0.63332 -4.5885 0
M  V30 604 C 57.9675 -0.897432 -5.66334 0
M  V30 605 N 57.4635 -1.22775 -6.81834 0
M  V30 606 N 59.2565 -0.824186 -5.56025 0
M  V30 607 H 51.4075 -1.2653 -1.70599 0
M  V30 608 H 53.6705 -0.513291 -0.797017 0
M  V30 609 H 53.3765 -1.3798 -3.23503 0
M  V30 610 H 53.2505 0.289568 -3.76087 0
M  V30 611 H 55.6375 0.712472 -2.8637 0
M  V30 612 H 55.7185 -0.982348 -2.36185 0
M  V30 613 H 55.3625 -1.69453 -4.78799 0
M  V30 614 H 55.2925 0.0202385 -5.26596 0
M  V30 615 H 57.7835 -0.389138 -3.75891 0
M  V30 616 H 58.0965 -1.41513 -7.59733 0
M  V30 617 H 56.4415 -1.26583 -6.83375 0
M  V30 618 H 59.6325 -0.565748 -4.64669 0
M  V30 619 H 59.8055 -1.03338 -6.39707 0
M  V30 620 N 53.2116 1.57565 -0.0334293 0
M  V30 621 C 54.1596 2.1164 0.96496 0
M  V30 622 C 55.1536 1.04398 1.33407 0
M  V30 623 O 56.3596 1.22828 1.3158 0
M  V30 624 H 52.7346 0.676222 0.32898 0
M  V30 625 H 54.7056 2.94455 0.483614 0
M  V30 626 C 53.4546 2.66207 2.23672 0
M  V30 627 H 52.7776 3.48378 1.96145 0
M  V30 628 H 54.2176 3.07685 2.9173 0
M  V30 629 C 52.6766 1.59151 2.96939 0
M  V30 630 O 53.2066 0.993858 3.89211 0
M  V30 631 N 51.4126 1.31093 2.59351 0
M  V30 632 H 50.9596 1.7988 1.84393 0
M  V30 633 H 50.9176 0.596889 3.08682 0
M  V30 634 N 54.6897 -0.239769 1.55765 0
M  V30 635 C 55.9377 -0.964892 1.77579 0
M  V30 636 C 56.2587 -1.85582 0.598699 0
M  V30 637 O 55.5287 -1.92075 -0.385226 0
M  V30 638 H 54.1087 -0.359265 0.654933 0
M  V30 639 H 56.7707 -0.256001 1.93211 0
M  V30 640 H 55.8667 -1.58243 2.69009 0
M  V30 641 N 56.1678 -1.49265 -0.50573 0
M  V30 642 C 57.4168 -1.57761 -1.25675 0
M  V30 643 C 57.7298 -0.267371 -1.93764 0
M  V30 644 O 58.9358 -0.230827 -2.70517 0
M  V30 645 C 57.3918 -2.78332 -2.28165 0
M  V30 646 C 56.9998 -4.16096 -1.66037 0
M  V30 647 C 58.7438 -2.96155 -3.04125 0
M  V30 648 C 56.6508 -5.27895 -2.6661 0
M  V30 649 H 55.5808 -0.587391 -0.472745 0
M  V30 650 H 58.2318 -1.75644 -0.53118 0
M  V30 651 H 56.6138 -2.53934 -3.03865 0
M  V30 652 H 57.7878 -4.50612 -0.963622 0
M  V30 653 H 56.1028 -4.03591 -1.02484 0
M  V30 654 H 58.6998 -3.76849 -3.79327 0
M  V30 655 H 59.0428 -2.06534 -3.61455 0
M  V30 656 H 59.5758 -3.2057 -2.35541 0
M  V30 657 H 56.3148 -6.1956 -2.14068 0
M  V30 658 H 55.8348 -4.97839 -3.34539 0
M  V30 659 H 57.5138 -5.57031 -3.29129 0
M  V30 660 N 57.6459 0.756429 -1.3826 0
M  V30 661 C 58.5959 1.86069 -1.31766 0
M  V30 662 C 59.5799 1.59621 -0.202483 0
M  V30 663 O 60.7719 1.7149 -0.438211 0
M  V30 664 C 57.9009 3.23742 -1.1422 0
M  V30 665 C 56.9869 3.56091 -2.30348 0
M  V30 666 N 57.3779 3.59517 -3.55783 0
M  V30 667 C 55.6759 3.86341 -2.22838 0
M  V30 668 C 56.3769 3.89052 -4.32451 0
M  V30 669 N 55.3529 4.05736 -3.61772 0
M  V30 670 H 59.1549 1.86992 -2.26741 0
M  V30 671 H 56.6689 0.953643 -1.31451 0
M  V30 672 H 58.6659 4.02761 -1.07652 0
M  V30 673 H 57.3259 3.24073 -0.201763 0
M  V30 674 H 58.3369 3.41347 -3.89491 0
M  V30 675 H 55.0139 3.94404 -1.36937 0
M  V30 676 H 56.4039 3.98349 -5.4108 0
M  V30 677 N 59.124 1.23083 0.984299 0
M  V30 678 C 60.373 1.05466 1.71929 0
M  V30 679 C 60.686 -0.409211 1.91272 0
M  V30 680 O 61.892 -0.705226 2.62181 0
M  V30 681 C 60.348 1.83874 3.09384 0
M  V30 682 C 59.956 3.34566 2.97943 0
M  V30 683 C 61.7 1.74734 3.8687 0
M  V30 684 C 59.607 4.05381 4.30605 0
M  V30 685 H 58.537 0.391039 0.644674 0
M  V30 686 H 61.188 1.47013 1.09815 0
M  V30 687 H 59.57 1.35131 3.72231 0
M  V30 688 H 60.744 3.90767 2.44209 0
M  V30 689 H 59.059 3.44476 2.33934 0
M  V30 690 H 61.656 2.24957 4.85076 0
M  V30 691 H 61.999 0.709372 4.10212 0
M  V30 692 H 62.532 2.21067 3.30717 0
M  V30 693 H 59.271 5.09467 4.1246 0
M  V30 694 H 58.791 3.53967 4.84218 0
M  V30 695 H 60.47 4.11458 4.99311 0
M  V30 696 N 60.6021 -1.18246 1.0419 0
M  V30 697 C 61.8511 -1.87588 0.741194 0
M  V30 698 C 62.1641 -1.81303 -0.734066 0
M  V30 699 O 63.3701 -2.46019 -1.14834 0
M  V30 700 C 61.8261 -3.36538 1.27555 0
M  V30 701 C 61.4341 -3.51349 2.77953 0
M  V30 702 C 63.1781 -4.11273 1.05143 0
M  V30 703 C 61.0851 -4.94265 3.2474 0
M  V30 704 H 60.0151 -0.702622 0.273565 0
M  V30 705 H 62.6661 -1.33601 1.25789 0
M  V30 706 H 61.0481 -3.9 0.686703 0
M  V30 707 H 62.2221 -3.08153 3.42605 0
M  V30 708 H 60.5371 -2.90022 2.98791 0
M  V30 709 H 63.1341 -5.16689 1.37611 0
M  V30 710 H 63.4771 -4.16298 -0.0112774 0
M  V30 711 H 64.0101 -3.63987 1.60495 0
M  V30 712 H 60.7491 -4.94408 4.30396 0
M  V30 713 H 60.2691 -5.38172 2.64823 0
M  V30 714 H 61.9481 -5.62987 3.18834 0
M  V30 715 N 62.0802 -0.821533 -1.34494 0
M  V30 716 C 63.3572 -0.33159 -1.92769 0
M  V30 717 C 63.7372 1.18088 -1.74981 0
M  V30 718 O 63.0852 1.98733 -1.12772 0
M  V30 719 C 63.2952 -0.759398 -3.40638 0
M  V30 720 C 64.6432 -0.757433 -4.1779 0
M  V30 721 O 65.6672 -0.70189 -3.49216 0
M  V30 722 O 64.5262 -0.829361 -5.4017 0
M  V30 723 H 61.6202 -0.0902502 -0.822061 0
M  V30 724 H 64.1662 -0.906231 -1.43477 0
M  V30 725 H 62.9382 -1.8012 -3.47379 0
M  V30 726 H 62.5612 -0.160378 -3.97276 0
M  V30 727 N 63.5583 1.46682 -0.576371 0
M  V30 728 C 64.4883 2.33028 0.148397 0
M  V30 729 C 65.4693 1.44961 0.889956 0
M  V30 730 O 66.6543 1.73789 0.866662 0
M  V30 731 C 63.7843 3.27117 1.1667 0
M  V30 732 C 62.7383 4.24575 0.540386 0
M  V30 733 C 62.0643 5.08126 1.6647 0
M  V30 734 C 63.3643 5.19722 -0.518331 0
M  V30 735 H 65.0583 2.93875 -0.572509 0
M  V30 736 H 62.6043 1.41315 -0.276768 0
M  V30 737 H 64.5573 3.86374 1.68204 0
M  V30 738 H 63.2813 2.64364 1.9178 0
M  V30 739 H 61.9403 3.66571 0.0461769 0
M  V30 740 H 61.5883 4.41762 2.40531 0
M  V30 741 H 61.2883 5.74122 1.25131 0
M  V30 742 H 62.8123 5.70246 2.18293 0
M  V30 743 H 64.2263 5.73232 -0.0883058 0
M  V30 744 H 62.6233 5.94026 -0.851679 0
M  V30 745 H 63.6933 4.64037 -1.40703 0
M  V30 746 N 65.0364 0.313813 1.54444 0
M  V30 747 C 65.9684 -0.590425 2.21465 0
M  V30 748 C 66.9814 -1.08753 1.21147 0
M  V30 749 O 68.1704 -1.00278 1.4767 0
M  V30 750 C 65.2704 -1.82179 2.85769 0
M  V30 751 C 64.4434 -1.46502 4.12136 0
M  V30 752 C 63.5024 -2.55288 4.60124 0
M  V30 753 O 62.5284 -2.19842 5.25032 0
M  V30 754 N 63.7304 -3.86053 4.33525 0
M  V30 755 H 66.4954 -0.0166033 2.99695 0
M  V30 756 H 64.0564 0.136578 1.61323 0
M  V30 757 H 66.0484 -2.54328 3.14801 0
M  V30 758 H 64.6184 -2.30369 2.11303 0
M  V30 759 H 63.8384 -0.575595 3.89975 0
M  V30 760 H 65.1264 -1.20221 4.94393 0
M  V30 761 H 64.5244 -4.17654 3.81552 0
M  V30 762 H 63.0814 -4.54461 4.67235 0
M  V30 763 N 66.5145 -1.57545 0.0417849 0
M  V30 764 C 67.4615 -2.10977 -0.935805 0
M  V30 765 C 68.4315 -1.01486 -1.31491 0
M  V30 766 O 69.6165 -1.2898 -1.40602 0
M  V30 767 C 66.7565 -2.65169 -2.2086 0
M  V30 768 C 65.8695 -3.88714 -1.88482 0
M  V30 769 C 65.0045 -4.31254 -3.1015 0
M  V30 770 C 64.0435 -5.47524 -2.7365 0
M  V30 771 N 63.1805 -5.85162 -3.87982 0
M  V30 772 H 68.0205 -2.94218 -0.473249 0
M  V30 773 H 65.5575 -1.45415 -0.221981 0
M  V30 774 H 67.5155 -2.94685 -2.95325 0
M  V30 775 H 66.1455 -1.8474 -2.64709 0
M  V30 776 H 65.1975 -3.65849 -1.04205 0
M  V30 777 H 66.5095 -4.73245 -1.57608 0
M  V30 778 H 65.6635 -4.62273 -3.92923 0
M  V30 779 H 64.4025 -3.45516 -3.44195 0
M  V30 780 H 63.4075 -5.16187 -1.89291 0
M  V30 781 H 64.6325 -6.34971 -2.40807 0
M  V30 782 H 62.5785 -5.02377 -4.21846 0
M  V30 783 H 62.4955 -6.64362 -3.60775 0
M  V30 784 H 63.7635 -6.20791 -4.71422 0
M  V30 785 N 67.9926 0.231505 -1.5589 0
M  V30 786 C 69.2206 0.974505 -1.82513 0
M  V30 787 C 69.6356 1.78344 -0.619591 0
M  V30 788 O 68.9926 1.77792 0.411848 0
M  V30 789 C 69.0436 1.90007 -3.07538 0
M  V30 790 O 68.7646 1.12385 -4.2344 0
M  V30 791 C 70.2656 2.75779 -3.47075 0
M  V30 792 H 67.4856 0.286065 -0.606966 0
M  V30 793 H 70.0296 0.249739 -2.02969 0
M  V30 794 H 68.1846 2.57891 -2.89086 0
M  V30 795 H 68.5986 1.75125 -4.944 0
M  V30 796 H 70.0726 3.36443 -4.37619 0
M  V30 797 H 70.5496 3.47672 -2.68367 0
M  V30 798 H 71.1556 2.13323 -3.67931 0
M  V30 799 N 69.4707 1.49531 0.497807 0
M  V30 800 C 70.4037 1.61043 1.6168 0
M  V30 801 C 71.3817 0.459386 1.55976 0
M  V30 802 O 72.5657 0.675358 1.75986 0
M  V30 803 C 69.6927 1.56833 3.00202 0
M  V30 804 C 68.7387 2.77173 3.24156 0
M  V30 805 S 69.5717 4.38808 3.06933 0
M  V30 806 C 70.7277 4.37248 4.47845 0
M  V30 807 H 70.9607 2.55702 1.51671 0
M  V30 808 H 68.4937 1.38462 0.683201 0
M  V30 809 H 70.4517 1.55089 3.80076 0
M  V30 810 H 69.1127 0.634561 3.07623 0
M  V30 811 H 68.3057 2.70456 4.25288 0
M  V30 812 H 67.9077 2.76346 2.5201 0
M  V30 813 H 70.1997 4.09164 5.39992 0
M  V30 814 H 71.1427 5.38668 4.59612 0
M  V30 815 H 71.5507 3.67286 4.28674 0
M  V30 816 N 70.9488 -0.749086 1.3866 0
M  V30 817 C 71.8588 -1.89358 1.38494 0
M  V30 818 C 72.8748 -1.71708 0.281476 0
M  V30 819 O 74.0508 -1.94554 0.520643 0
M  V30 820 C 71.1158 -3.24782 1.21316 0
M  V30 821 C 70.1768 -3.54926 2.41508 0
M  V30 822 C 69.4098 -4.83888 2.2514 0
M  V30 823 O 69.6328 -5.56592 1.24746 0
M  V30 824 O 68.5668 -5.13612 3.13826 0
M  V30 825 H 72.3928 -1.92452 2.34938 0
M  V30 826 H 69.9778 -0.894981 1.19626 0
M  V30 827 H 71.8598 -4.05739 1.13814 0
M  V30 828 H 70.5348 -3.2249 0.279592 0
M  V30 829 H 69.4418 -2.74112 2.54585 0
M  V30 830 H 70.7748 -3.61983 3.3351 0
M  V30 831 N 72.4269 -1.23603 -0.977757 0
M  V30 832 C 73.3369 -1.03632 -2.1047 0
M  V30 833 C 74.3529 0.0199435 -1.73989 0
M  V30 834 O 75.5289 -0.176076 -2.00629 0
M  V30 835 C 72.5939 -0.63276 -3.40877 0
M  V30 836 C 71.6549 -1.76437 -3.91367 0
M  V30 837 C 70.8879 -1.37997 -5.15551 0
M  V30 838 O 71.1109 -0.265357 -5.69782 0
M  V30 839 O 70.0449 -2.20201 -5.60174 0
M  V30 840 H 73.8709 -1.98086 -2.30208 0
M  V30 841 H 71.4559 -1.02332 -1.08851 0
M  V30 842 H 73.3379 -0.418761 -4.19314 0
M  V30 843 H 72.0129 0.282754 -3.22463 0
M  V30 844 H 70.9199 -2.03304 -3.14036 0
M  V30 845 H 72.2529 -2.6583 -4.14241 0
M  V30 846 N 73.905 1.17692 -1.04816 0
M  V30 847 C 74.835 2.23777 -0.666791 0
M  V30 848 C 75.816 1.66796 0.33361 0
M  V30 849 O 77.001 1.93039 0.212042 0
M  V30 850 C 74.131 3.47281 -0.0367933 0
M  V30 851 C 73.085 4.17059 -0.961546 0
M  V30 852 C 72.411 5.34342 -0.195626 0
M  V30 853 C 73.711 4.69713 -2.28402 0
M  V30 854 H 75.405 2.55933 -1.55367 0
M  V30 855 H 72.951 1.23019 -0.748484 0
M  V30 856 H 74.904 4.20706 0.241775 0
M  V30 857 H 73.628 3.14381 0.885004 0
M  V30 858 H 72.287 3.45541 -1.22462 0
M  V30 859 H 71.935 4.97692 0.728816 0
M  V30 860 H 71.635 5.81966 -0.811775 0
M  V30 861 H 73.159 6.10553 0.0757473 0
M  V30 862 H 74.573 5.34794 -2.06563 0
M  V30 863 H 72.97 5.279 -2.8538 0
M  V30 864 H 74.04 3.86726 -2.92525 0
M  V30 865 N 75.3831 0.828654 1.34056 0
M  V30 866 C 76.2931 0.256725 2.33191 0
M  V30 867 C 77.3091 -0.611898 1.62886 0
M  V30 868 O 78.4851 -0.51844 1.94613 0
M  V30 869 C 75.5501 -0.567238 3.42028 0
M  V30 870 C 74.6111 0.324458 4.28072 0
M  V30 871 C 73.8441 -0.460274 5.31712 0
M  V30 872 O 74.0671 -1.693 5.44696 0
M  V30 873 O 73.0011 0.160391 6.01686 0
M  V30 874 H 76.8271 1.07739 2.83947 0
M  V30 875 H 74.4121 0.59093 1.37217 0
M  V30 876 H 76.2941 -1.03582 4.08471 0
M  V30 877 H 74.9691 -1.36513 2.93506 0
M  V30 878 H 73.8761 0.840659 3.64532 0
M  V30 879 H 75.2091 1.08685 4.8005 0
M  V30 880 N 76.8612 -1.46375 0.584142 0
M  V30 881 C 78.2772 -1.57694 0.245929 0
M  V30 882 C 78.4772 -1.57903 -1.25175 0
M  V30 883 O 77.5332 -1.49676 -2.03355 0
M  V30 884 C 78.8462 -2.87028 0.896402 0
M  V30 885 C 80.3942 -3.00662 0.870127 0
M  V30 886 C 80.8692 -4.32734 1.50017 0
M  V30 887 N 82.3602 -4.39436 1.46458 0
M  V30 888 C 83.0952 -5.40248 1.92144 0
M  V30 889 N 82.5912 -6.47726 2.4581 0
M  V30 890 N 84.3842 -5.31459 1.83052 0
M  V30 891 H 76.5352 -1.44483 1.55687 0
M  V30 892 H 78.7982 -0.689291 0.650831 0
M  V30 893 H 78.5042 -2.9269 1.95002 0
M  V30 894 H 78.3782 -3.75014 0.405486 0
M  V30 895 H 80.7652 -2.94581 -0.174871 0
M  V30 896 H 80.8462 -2.14148 1.39908 0
M  V30 897 H 80.4902 -4.39573 2.54437 0
M  V30 898 H 80.4202 -5.18025 0.946432 0
M  V30 899 H 82.9112 -3.62367 1.07231 0
M  V30 900 H 83.2242 -7.20863 2.78525 0
M  V30 901 H 81.5692 -6.48542 2.49836 0
M  V30 902 H 84.7602 -4.46396 1.40883 0
M  V30 903 H 84.9332 -6.09881 2.18973 0
M  V30 904 N 78.3393 -0.321999 -1.54275 0
M  V30 905 C 79.5673 0.283052 -2.04955 0
M  V30 906 C 79.9823 1.45904 -1.19823 0
M  V30 907 O 79.3393 1.81063 -0.228545 0
M  V30 908 C 79.3903 0.719028 -3.54277 0
M  V30 909 O 79.1113 -0.410175 -4.36176 0
M  V30 910 C 80.6123 1.38705 -4.21041 0
M  V30 911 H 77.8323 0.0584616 -0.668448 0
M  V30 912 H 80.3763 -0.467734 -1.99079 0
M  V30 913 H 78.5313 1.41979 -3.60445 0
M  V30 914 H 78.9453 -0.0669416 -5.24457 0
M  V30 915 H 80.4193 1.64306 -5.2698 0
M  V30 916 H 80.8963 2.33385 -3.72059 0
M  V30 917 H 81.5023 0.728906 -4.19007 0
M  V30 918 N 79.8174 1.5752 -0.0501392 0
M  V30 919 C 81.0644 1.9265 0.623874 0
M  V30 920 C 81.3924 0.928411 1.70912 0
M  V30 921 O 80.6474 -0.0594525 1.9561 0
M  V30 922 C 80.9464 3.34467 1.25963 0
M  V30 923 C 80.6124 4.49883 0.302689 0
M  V30 924 C 79.2744 4.81184 0.0393636 0
M  V30 925 C 81.6264 5.20002 -0.353205 0
M  V30 926 C 78.9544 5.79951 -0.887308 0
M  V30 927 C 81.3064 6.1976 -1.26806 0
M  V30 928 C 79.9704 6.49491 -1.54007 0
M  V30 929 H 79.2404 0.704957 0.228292 0
M  V30 930 H 81.8874 1.91146 -0.116398 0
M  V30 931 H 80.1924 3.32333 2.07514 0
M  V30 932 H 81.8894 3.58928 1.78806 0
M  V30 933 H 78.4794 4.25457 0.518109 0
M  V30 934 H 82.6634 4.96033 -0.162854 0
M  V30 935 H 77.9194 6.01322 -1.10553 0
M  V30 936 H 82.0934 6.73205 -1.78236 0
M  V30 937 H 79.7204 7.25837 -2.25976 0
M  V30 938 N 81.2955 -0.223234 1.56011 0
M  V30 939 C 82.7115 -0.572856 1.48965 0
M  V30 940 C 82.9115 -1.87225 0.74492 0
M  V30 941 O 81.9675 -2.50899 0.283896 0
M  V30 942 C 83.2805 -0.653646 2.9351 0
M  V30 943 C 84.8285 -0.744386 3.0402 0
M  V30 944 C 85.3035 -0.856535 4.49919 0
M  V30 945 N 86.7945 -0.9208 4.53955 0
M  V30 946 C 87.5295 -1.02726 5.64123 0
M  V30 947 N 87.0255 -1.09777 6.84047 0
M  V30 948 N 88.8185 -1.06226 5.51971 0
M  V30 949 H 80.9695 0.629462 2.02858 0
M  V30 950 H 83.2325 0.220621 0.921971 0
M  V30 951 H 82.9385 0.231518 3.50937 0
M  V30 952 H 82.8125 -1.51781 3.45315 0
M  V30 953 H 85.1995 -1.61999 2.46658 0
M  V30 954 H 85.2805 0.14541 2.55386 0
M  V30 955 H 84.9245 0.0146069 5.07898 0
M  V30 956 H 84.8545 -1.76172 4.96257 0
M  V30 957 H 87.3455 -0.876694 3.6759 0
M  V30 958 H 87.6585 -1.17872 7.63758 0
M  V30 959 H 86.0035 -1.06693 6.86762 0
M  V30 960 H 89.1945 -1.00382 4.5721 0
M  V30 961 H 89.3675 -1.14177 6.37862 0
M  V30 962 N 82.7736 -1.49793 -0.48987 0
M  V30 963 C 84.0206 -1.59841 -1.24327 0
M  V30 964 C 84.3486 -0.290135 -1.92324 0
M  V30 965 O 83.6036 0.722749 -1.81865 0
M  V30 966 C 83.9026 -2.71488 -2.32441 0
M  V30 967 C 83.5686 -4.12614 -1.81826 0
M  V30 968 C 82.2306 -4.51017 -1.67742 0
M  V30 969 C 84.5826 -5.00892 -1.4407 0
M  V30 970 C 81.9106 -5.75459 -1.14297 0
M  V30 971 C 84.2626 -6.25863 -0.920742 0
M  V30 972 C 82.9266 -6.63086 -0.766383 0
M  V30 973 H 82.1966 -0.584899 -0.454944 0
M  V30 974 H 84.8436 -1.83663 -0.542215 0
M  V30 975 H 83.1486 -2.4168 -3.0838 0
M  V30 976 H 84.8456 -2.76469 -2.90458 0
M  V30 977 H 81.4356 -3.82307 -1.93751 0
M  V30 978 H 85.6196 -4.7187 -1.53794 0
M  V30 979 H 80.8756 -6.02989 -1.01068 0
M  V30 980 H 85.0496 -6.9364 -0.619448 0
M  V30 981 H 82.6766 -7.59393 -0.350083 0
M  V30 982 N 84.2517 0.741722 -1.39055 0
M  V30 983 C 85.5007 1.49656 -1.35225 0
M  V30 984 C 85.8137 1.95533 0.0512708 0
M  V30 985 O 87.0197 2.7067 0.212138 0
M  V30 986 C 85.4757 2.70389 -2.37525 0
M  V30 987 C 85.0837 2.31489 -3.83558 0
M  V30 988 C 86.8277 3.48236 -2.42759 0
M  V30 989 C 84.7347 3.48903 -4.77515 0
M  V30 990 H 83.6647 0.56197 -0.502699 0
M  V30 991 H 86.3157 0.809727 -1.64668 0
M  V30 992 H 84.6977 3.41113 -2.01142 0
M  V30 993 H 85.8717 1.68354 -4.28945 0
M  V30 994 H 84.1867 1.66749 -3.81554 0
M  V30 995 H 86.7837 4.35558 -3.1015 0
M  V30 996 H 87.1267 3.90229 -1.45008 0
M  V30 997 H 87.6597 2.84535 -2.78002 0
M  V30 998 H 84.3987 3.11966 -5.76504 0
M  V30 999 H 83.9187 4.11041 -4.36813 0
M  V30 1000 H 85.5977 4.15328 -4.96096 0
M  V30 1001 N 85.7298 1.2412 0.971189 0
M  V30 1002 C 86.6398 1.04747 2.09917 0
M  V30 1003 C 87.6558 -0.0107162 1.73997 0
M  V30 1004 O 88.8318 0.186714 2.00533 0
M  V30 1005 C 85.8968 0.650828 3.40537 0
M  V30 1006 C 84.9578 1.7851 3.90426 0
M  V30 1007 C 84.1908 1.40729 5.14812 0
M  V30 1008 O 84.4138 0.29557 5.69634 0
M  V30 1009 O 83.3478 2.23168 5.58999 0
M  V30 1010 H 87.1738 1.99304 2.29154 0
M  V30 1011 H 84.7588 1.02908 1.08307 0
M  V30 1012 H 86.6408 0.440992 4.19086 0
M  V30 1013 H 85.3158 -0.265649 3.22608 0
M  V30 1014 H 84.2228 2.04966 3.12953 0
M  V30 1015 H 85.5558 2.68023 4.12825 0
M  V30 1016 N 87.2079 -1.17134 1.05439 0
M  V30 1017 C 88.4849 -1.83411 0.679699 0
M  V30 1018 C 88.8649 -1.9368 -0.839726 0
M  V30 1019 O 88.2129 -1.47325 -1.74664 0
M  V30 1020 C 88.4229 -3.20918 1.37159 0
M  V30 1021 C 89.7709 -3.96796 1.51123 0
M  V30 1022 O 90.7949 -3.30406 1.3308 0
M  V30 1023 O 89.6539 -5.15778 1.80651 0
M  V30 1024 H 86.7479 -0.79154 0.239569 0
M  V30 1025 H 89.2939 -1.24411 1.15413 0
M  V30 1026 H 88.0659 -3.08428 2.40807 0
M  V30 1027 H 87.6889 -3.87587 0.886674 0
M  V30 1028 N 88.686 -0.835752 -1.33615 0
M  V30 1029 C 89.616 -0.281739 -2.31794 0
M  V30 1030 C 90.597 0.608833 -1.58831 0
M  V30 1031 O 91.782 0.533035 -1.86741 0
M  V30 1032 C 88.912 0.546612 -3.42971 0
M  V30 1033 C 87.866 -0.247904 -4.27281 0
M  V30 1034 C 87.192 0.704001 -5.30045 0
M  V30 1035 C 88.492 -1.46324 -5.01385 0
M  V30 1036 H 90.186 -1.10206 -2.78379 0
M  V30 1037 H 87.732 -0.531388 -1.33837 0
M  V30 1038 H 89.685 0.944467 -4.1068 0
M  V30 1039 H 88.409 1.40011 -2.95067 0
M  V30 1040 H 87.068 -0.627281 -3.61194 0
M  V30 1041 H 86.716 1.55381 -4.78399 0
M  V30 1042 H 86.416 0.176524 -5.87335 0
M  V30 1043 H 87.94 1.09944 -6.0062 0
M  V30 1044 H 89.354 -1.13871 -5.61877 0
M  V30 1045 H 87.751 -1.92728 -5.6831 0
M  V30 1046 H 88.821 -2.23467 -4.30338 0
M  V30 1047 N 90.1641 1.46063 -0.591896 0
M  V30 1048 C 91.1271 2.28854 0.125973 0
M  V30 1049 C 92.1271 1.38903 0.810107 0
M  V30 1050 O 93.3171 1.61186 0.66066 0
M  V30 1051 C 90.4491 3.19526 1.1881 0
M  V30 1052 H 91.6421 2.93802 -0.601717 0
M  V30 1053 H 89.1951 1.52325 -0.350254 0
M  V30 1054 H 89.9301 2.59345 1.94707 0
M  V30 1055 H 89.7151 3.85766 0.701936 0
M  V30 1056 H 91.2051 3.81817 1.69132 0
M  V30 1057 N 91.6422 0.330177 1.54103 0
M  V30 1058 C 92.5752 -0.575477 2.20825 0
M  V30 1059 C 93.5532 -1.11064 1.18758 0
M  V30 1060 O 94.7372 -1.17341 1.47524 0
M  V30 1061 C 91.8642 -1.79032 2.87516 0
M  V30 1062 C 90.9102 -1.38581 4.03358 0
M  V30 1063 S 91.7432 -0.416911 5.33875 0
M  V30 1064 C 92.8992 -1.63889 6.04062 0
M  V30 1065 H 93.1322 -0.00872114 2.97299 0
M  V30 1066 H 90.6652 0.114254 1.53977 0
M  V30 1067 H 92.6232 -2.48734 3.2656 0
M  V30 1068 H 91.2842 -2.32827 2.10832 0
M  V30 1069 H 90.4772 -2.29123 4.48908 0
M  V30 1070 H 90.0792 -0.768419 3.66021 0
M  V30 1071 H 92.3712 -2.57536 6.26643 0
M  V30 1072 H 93.3142 -1.22542 6.97416 0
M  V30 1073 H 93.7222 -1.82887 5.34053 0
M  V30 1074 N 93.1203 -1.57491 0.0584922 0
M  V30 1075 C 94.5363 -1.56792 -0.298091 0
M  V30 1076 C 94.7363 -1.06679 -1.70944 0
M  V30 1077 O 93.7923 -0.726672 -2.41818 0
M  V30 1078 C 95.1053 -3.00461 -0.119879 0
M  V30 1079 C 96.6533 -3.1242 -0.190428 0
M  V30 1080 C 97.1283 -4.57982 -0.0406567 0
M  V30 1081 N 98.6193 -4.63099 -0.0966958 0
M  V30 1082 C 99.3543 -5.734 -0.00502943 0
M  V30 1083 N 98.8503 -6.9266 0.139402 0
M  V30 1084 N 100.643 -5.62067 -0.0611391 0
M  V30 1085 H 92.7943 -1.88386 0.98105 0
M  V30 1086 H 95.0573 -0.867865 0.381463 0
M  V30 1087 H 94.7633 -3.41187 0.85349 0
M  V30 1088 H 94.6373 -3.66843 -0.877833 0
M  V30 1089 H 97.0243 -2.71589 -1.15427 0
M  V30 1090 H 97.1053 -2.48702 0.598405 0
M  V30 1091 H 96.7493 -4.995 0.919897 0
M  V30 1092 H 96.6793 -5.19715 -0.848727 0
M  V30 1093 H 99.1703 -3.77331 -0.207277 0
M  V30 1094 H 99.4833 -7.72536 0.201855 0
M  V30 1095 H 97.8283 -6.94781 0.174586 0
M  V30 1096 H 101.019 -4.67782 -0.172583 0
M  V30 1097 H 101.192 -6.47999 0.0137562 0
M  V30 1098 N 94.5984 0.214957 -1.56127 0
M  V30 1099 C 95.8464 0.936518 -1.79091 0
M  V30 1100 C 96.1674 1.84606 -0.628148 0
M  V30 1101 O 95.4374 1.92664 0.35462 0
M  V30 1102 H 94.0174 0.3488 -0.660566 0
M  V30 1103 H 96.6794 0.22523 -1.93594 0
M  V30 1104 H 95.7754 1.53943 -2.71492 0
M  V30 1105 N 96.0765 1.50051 0.48192 0
M  V30 1106 C 97.3245 1.60181 1.23234 0
M  V30 1107 C 97.6455 0.299176 1.92691 0
M  V30 1108 O 96.9155 -0.682708 1.83619 0
M  V30 1109 H 95.4955 0.590232 0.457859 0
M  V30 1110 H 98.1575 1.86775 0.556881 0
M  V30 1111 H 97.2535 2.40753 1.98607 0
M  V30 1112 N 97.5546 -0.734337 1.39446 0
M  V30 1113 C 98.7826 -1.52358 1.39981 0
M  V30 1114 C 99.1976 -1.88799 -0.0054975 0
M  V30 1115 O 98.5546 -1.54146 -0.976998 0
M  V30 1116 C 98.6056 -2.81072 2.27333 0
M  V30 1117 O 98.3266 -2.46178 3.62392 0
M  V30 1118 C 99.8276 -3.75096 2.36259 0
M  V30 1119 H 97.0476 -0.470806 0.478103 0
M  V30 1120 H 99.5916 -0.907339 1.83269 0
M  V30 1121 H 97.7466 -3.39026 1.87457 0
M  V30 1122 H 98.1606 -3.28866 4.08592 0
M  V30 1123 H 99.6346 -4.62305 3.01626 0
M  V30 1124 H 100.112 -4.16892 1.38194 0
M  V30 1125 H 100.718 -3.23061 2.76608 0
M  V30 1126 N 99.0327 -1.24633 -0.964593 0
M  V30 1127 C 100.282 -1.08188 -1.7023 0
M  V30 1128 C 100.595 0.37873 -1.91898 0
M  V30 1129 O 101.801 0.663427 -2.6327 0
M  V30 1130 C 100.257 -1.88773 -3.06419 0
M  V30 1131 C 99.8647 -3.39263 -2.92582 0
M  V30 1132 C 101.609 -1.80867 -3.84041 0
M  V30 1133 C 99.5157 -4.1218 -4.24101 0
M  V30 1134 H 98.4457 -0.401245 -0.638372 0
M  V30 1135 H 101.097 -1.48742 -1.07462 0
M  V30 1136 H 99.4787 -1.41035 -3.70034 0
M  V30 1137 H 100.653 -3.94603 -2.37961 0
M  V30 1138 H 98.9677 -3.48154 -2.28424 0
M  V30 1139 H 101.565 -2.32646 -4.81435 0
M  V30 1140 H 101.908 -0.774543 -4.09031 0
M  V30 1141 H 102.441 -2.26301 -3.27159 0
M  V30 1142 H 99.1797 -5.15965 -4.04303 0
M  V30 1143 H 98.6997 -3.61626 -4.78526 0
M  V30 1144 H 100.379 -4.19349 -4.92702 0
M  V30 1145 N 100.511 1.16574 -1.06058 0
M  V30 1146 C 101.441 2.23057 -0.690488 0
M  V30 1147 C 102.422 1.67141 0.315901 0
M  V30 1148 O 103.607 1.93253 0.191556 0
M  V30 1149 C 100.737 3.47222 -0.073625 0
M  V30 1150 C 99.6908 4.16016 -1.00573 0
M  V30 1151 C 99.0168 5.34104 -0.252289 0
M  V30 1152 C 100.317 4.67264 -2.33371 0
M  V30 1153 H 102.011 2.54271 -1.58072 0
M  V30 1154 H 99.5568 1.22218 -0.76149 0
M  V30 1155 H 101.51 4.20939 0.19714 0
M  V30 1156 H 100.234 3.15302 0.85161 0
M  V30 1157 H 98.8928 3.44223 -1.2612 0
M  V30 1158 H 98.5408 4.98437 0.675988 0
M  V30 1159 H 98.2408 5.81072 -0.873455 0
M  V30 1160 H 99.7648 6.10599 0.0109857 0
M  V30 1161 H 101.179 5.32573 -2.12223 0
M  V30 1162 H 99.5758 5.24843 -2.90963 0
M  V30 1163 H 100.646 3.83602 -2.96611 0
M  V30 1164 N 101.989 0.842826 1.3317 0
M  V30 1165 C 103.236 0.440447 1.97652 0
M  V30 1166 C 103.564 -1.00123 1.6675 0
M  V30 1167 O 102.819 -1.7155 0.941761 0
M  V30 1168 C 103.118 0.612607 3.52111 0
M  V30 1169 C 102.784 2.02297 4.02972 0
M  V30 1170 C 101.446 2.40874 4.16573 0
M  V30 1171 C 103.798 2.94402 4.30089 0
M  V30 1172 C 101.126 3.70852 4.54627 0
M  V30 1173 C 103.478 4.23865 4.69597 0
M  V30 1174 C 102.142 4.62392 4.81404 0
M  V30 1175 H 101.412 0.161171 0.72326 0
M  V30 1176 H 104.059 1.07061 1.58777 0
M  V30 1177 H 102.364 -0.100849 3.9167 0
M  V30 1178 H 104.061 0.2815 4.00011 0
M  V30 1179 H 100.651 1.71338 3.92863 0
M  V30 1180 H 104.835 2.65835 4.19101 0
M  V30 1181 H 100.091 4.00501 4.61962 0
M  V30 1182 H 104.265 4.95306 4.89536 0
M  V30 1183 H 101.892 5.63154 5.10648 0
M  V30 1184 N 103.467 -1.45747 0.599634 0
M  V30 1185 C 104.713 -2.02592 0.0918643 0
M  V30 1186 C 105.046 -1.46806 -1.27128 0
M  V30 1187 O 104.321 -0.639658 -1.83681 0
M  V30 1188 C 104.604 -3.60073 0.0443398 0
M  V30 1189 C 104.457 -4.26208 1.43759 0
M  V30 1190 C 105.776 -4.35309 -0.647608 0
M  V30 1191 H 102.895 -0.736175 0.034857 0
M  V30 1192 H 105.537 -1.73694 0.770081 0
M  V30 1193 H 103.687 -3.84823 -0.533224 0
M  V30 1194 H 105.359 -4.12668 2.06162 0
M  V30 1195 H 103.602 -3.84916 2.00056 0
M  V30 1196 H 104.273 -5.35069 1.35665 0
M  V30 1197 H 106.749 -4.15805 -0.156776 0
M  V30 1198 H 105.625 -5.45038 -0.649942 0
M  V30 1199 H 105.886 -4.07598 -1.71219 0
M  V30 1200 N 104.945 -0.338344 -1.53925 0
M  V30 1201 C 106.193 0.259245 -2.0043 0
M  V30 1202 C 106.514 1.51484 -1.22791 0
M  V30 1203 O 105.784 1.93037 -0.33368 0
M  V30 1204 H 104.364 0.0987845 -0.740439 0
M  V30 1205 H 107.026 -0.458302 -1.89435 0
M  V30 1206 H 106.122 0.505334 -3.07982 0
M  V30 1207 N 106.423 1.57458 -0.0668435 0
M  V30 1208 C 107.651 1.97624 0.612565 0
M  V30 1209 C 108.066 0.94502 1.63447 0
M  V30 1210 O 107.423 -0.0689276 1.8237 0
M  V30 1211 C 107.474 3.37869 1.28555 0
M  V30 1212 O 107.195 4.3704 0.304557 0
M  V30 1213 C 108.696 3.92882 2.05325 0
M  V30 1214 H 105.916 0.650045 0.166381 0
M  V30 1215 H 108.46 2.04035 -0.137782 0
M  V30 1216 H 106.615 3.3256 1.98702 0
M  V30 1217 H 107.029 5.18565 0.786779 0
M  V30 1218 H 108.503 4.93247 2.47812 0
M  V30 1219 H 108.98 3.29156 2.9078 0
M  V30 1220 H 109.586 4.01577 1.40056 0
M  V30 1221 N 107.901 -0.206675 1.56239 0
M  V30 1222 C 108.848 -1.25617 1.93621 0
M  V30 1223 C 109.818 -1.45824 0.795274 0
M  V30 1224 O 111.003 -1.59148 1.05245 0
M  V30 1225 C 108.143 -2.59839 2.27107 0
M  V30 1226 C 107.256 -2.47308 3.54207 0
M  V30 1227 C 106.391 -3.74155 3.7707 0
M  V30 1228 C 105.43 -3.56407 4.97635 0
M  V30 1229 N 104.567 -4.75238 5.1681 0
M  V30 1230 H 109.407 -0.930383 2.83104 0
M  V30 1231 H 106.944 -0.448065 1.4011 0
M  V30 1232 H 108.902 -3.38021 2.44535 0
M  V30 1233 H 107.532 -2.90485 1.40778 0
M  V30 1234 H 106.584 -1.60483 3.4489 0
M  V30 1235 H 107.896 -2.30122 4.42544 0
M  V30 1236 H 107.05 -4.60778 3.94675 0
M  V30 1237 H 105.789 -3.94282 2.87042 0
M  V30 1238 H 104.794 -2.68168 4.79964 0
M  V30 1239 H 106.019 -3.37736 5.89161 0
M  V30 1240 H 103.965 -4.95651 4.29728 0
M  V30 1241 H 103.882 -4.60835 5.99306 0
M  V30 1242 H 105.15 -5.63246 5.38864 0
M  V30 1243 N 109.379 -1.50304 -0.473955 0
M  V30 1244 C 110.326 -1.68959 -1.57231 0
M  V30 1245 C 111.296 -0.530899 -1.57387 0
M  V30 1246 O 112.481 -0.761133 -1.74961 0
M  V30 1247 C 109.621 -1.7871 -2.95223 0
M  V30 1248 C 108.734 -3.06061 -3.04878 0
M  V30 1249 C 107.869 -3.06626 -4.33767 0
M  V30 1250 C 106.908 -4.28443 -4.37154 0
M  V30 1251 N 106.045 -4.26763 -5.5751 0
M  V30 1252 H 110.885 -2.6273 -1.40631 0
M  V30 1253 H 108.422 -1.30241 -0.683789 0
M  V30 1254 H 110.38 -1.82344 -3.75242 0
M  V30 1255 H 109.01 -0.883806 -3.10465 0
M  V30 1256 H 108.062 -3.11911 -2.17751 0
M  V30 1257 H 109.374 -3.96039 -3.0324 0
M  V30 1258 H 108.528 -3.08973 -5.22131 0
M  V30 1259 H 107.267 -2.14473 -4.3801 0
M  V30 1260 H 106.272 -4.2631 -3.47188 0
M  V30 1261 H 107.497 -5.2182 -4.34605 0
M  V30 1262 H 105.443 -3.37462 -5.62544 0
M  V30 1263 H 105.36 -5.10507 -5.57601 0
M  V30 1264 H 106.628 -4.33253 -6.48006 0
M  V30 1265 N 110.857 0.726932 -1.39834 0
M  V30 1266 C 111.789 1.85147 -1.35104 0
M  V30 1267 C 112.802 1.60736 -0.258392 0
M  V30 1268 O 113.991 1.70821 -0.517931 0
M  V30 1269 C 111.091 3.21332 -1.07697 0
M  V30 1270 C 110.264 3.73033 -2.28396 0
M  V30 1271 C 109.323 4.87802 -1.97322 0
M  V30 1272 O 108.349 5.01043 -2.70083 0
M  V30 1273 N 109.551 5.72768 -0.944273 0
M  V30 1274 H 112.316 1.89706 -2.32017 0
M  V30 1275 H 109.877 0.908006 -1.3404 0
M  V30 1276 H 111.869 3.95691 -0.849144 0
M  V30 1277 H 110.439 3.11992 -0.194909 0
M  V30 1278 H 109.659 2.89934 -2.6708 0
M  V30 1279 H 110.947 4.0431 -3.08887 0
M  V30 1280 H 110.345 5.64669 -0.341427 0
M  V30 1281 H 108.902 6.4716 -0.776346 0
M  V30 1282 N 112.336 1.25143 0.95797 0
M  V30 1283 C 113.299 1.05321 2.03569 0
M  V30 1284 C 114.299 0.007152 1.60798 0
M  V30 1285 O 115.489 0.24903 1.72411 0
M  V30 1286 C 112.621 0.598394 3.35607 0
M  V30 1287 H 113.814 2.00986 2.22586 0
M  V30 1288 H 111.367 1.07502 1.13459 0
M  V30 1289 H 112.102 -0.361014 3.22284 0
M  V30 1290 H 111.887 1.35351 3.67998 0
M  V30 1291 H 113.377 0.48104 4.1482 0
M  V30 1292 N 113.814 -1.1601 1.06675 0
M  V30 1293 C 114.746 -2.20115 0.638921 0
M  V30 1294 C 115.759 -1.59916 -0.305057 0
M  V30 1295 O 116.948 -1.78245 -0.0954446 0
M  V30 1296 C 114.048 -3.38798 -0.0830083 0
M  V30 1297 C 113.221 -4.2855 0.875426 0
M  V30 1298 C 112.28 -5.25849 0.192042 0
M  V30 1299 O 111.306 -5.63102 0.830921 0
M  V30 1300 N 112.508 -5.70648 -1.06493 0
M  V30 1301 H 115.273 -2.57439 1.53444 0
M  V30 1302 H 112.834 -1.31057 0.950557 0
M  V30 1303 H 114.826 -4.00936 -0.550685 0
M  V30 1304 H 113.396 -2.99947 -0.880386 0
M  V30 1305 H 112.616 -3.63617 1.52238 0
M  V30 1306 H 113.904 -4.85393 1.52548 0
M  V30 1307 H 113.302 -5.42482 -1.60405 0
M  V30 1308 H 111.859 -6.34859 -1.47641 0
M  V30 1309 N 115.292 -0.849877 -1.32721 0
M  V30 1310 C 116.569 -0.372405 -1.92022 0
M  V30 1311 C 116.949 1.1435 -1.77447 0
M  V30 1312 O 116.297 1.96296 -1.16962 0
M  V30 1313 C 116.507 -0.831482 -3.3895 0
M  V30 1314 C 117.855 -0.845882 -4.16089 0
M  V30 1315 O 118.879 -0.775806 -3.47649 0
M  V30 1316 O 117.738 -0.943753 -5.38289 0
M  V30 1317 H 114.832 -0.107667 -0.819961 0
M  V30 1318 H 117.378 -0.93646 -1.41522 0
M  V30 1319 H 116.15 -1.87448 -3.4348 0
M  V30 1320 H 115.773 -0.24461 -3.96847 0
M  V30 1321 N 116.77 1.45427 -0.607355 0
M  V30 1322 C 118.019 2.01452 -0.100036 0
M  V30 1323 C 118.332 1.48159 1.27704 0
M  V30 1324 O 119.538 1.96159 1.87707 0
M  V30 1325 C 117.994 3.59672 -0.128158 0
M  V30 1326 C 117.602 4.21962 -1.50507 0
M  V30 1327 C 119.346 4.23262 0.323932 0
M  V30 1328 C 117.253 5.72333 -1.48959 0
M  V30 1329 H 116.183 0.75325 -0.0336299 0
M  V30 1330 H 118.834 1.66901 -0.76265 0
M  V30 1331 H 117.216 3.91411 0.601105 0
M  V30 1332 H 118.39 4.01796 -2.25602 0
M  V30 1333 H 116.705 3.70565 -1.89923 0
M  V30 1334 H 119.302 5.33522 0.354691 0
M  V30 1335 H 119.645 3.93921 1.34656 0
M  V30 1336 H 120.178 3.96239 -0.352056 0
M  V30 1337 H 116.917 6.06373 -2.48981 0
M  V30 1338 H 116.437 5.94691 -0.781214 0
M  V30 1339 H 118.116 6.35525 -1.21313 0
M  V30 1340 N 118.248 0.346503 1.53744 0
M  V30 1341 C 119.494 -0.249473 2.0126 0
M  V30 1342 C 119.827 -1.49965 1.23386 0
M  V30 1343 O 119.102 -1.91811 0.32229 0
M  V30 1344 C 119.385 -0.560643 3.55709 0
M  V30 1345 C 119.238 0.701836 4.44291 0
M  V30 1346 C 120.557 -1.36905 4.18264 0
M  V30 1347 H 117.676 -0.0891987 0.731582 0
M  V30 1348 H 120.318 0.467624 1.84156 0
M  V30 1349 H 118.468 -1.17156 3.70414 0
M  V30 1350 H 120.14 1.33974 4.41417 0
M  V30 1351 H 118.383 1.32612 4.13033 0
M  V30 1352 H 119.054 0.43933 5.50249 0
M  V30 1353 H 121.53 -0.852448 4.07275 0
M  V30 1354 H 120.406 -1.55553 5.26398 0
M  V30 1355 H 120.667 -2.37203 3.73078 0
M  V30 1356 N 119.726 -1.57421 0.075193 0
M  V30 1357 C 121.142 -1.57099 -0.281444 0
M  V30 1358 C 121.342 -1.08486 -1.69803 0
M  V30 1359 O 120.398 -0.752279 -2.41033 0
M  V30 1360 C 121.711 -3.00571 -0.0880041 0
M  V30 1361 C 123.259 -3.12605 -0.157281 0
M  V30 1362 C 123.734 -4.57999 0.0079207 0
M  V30 1363 N 125.225 -4.63176 -0.0475725 0
M  V30 1364 C 125.96 -5.73373 0.0557876 0
M  V30 1365 N 125.456 -6.92473 0.21286 0
M  V30 1366 N 127.249 -5.621 -0.00152098 0
M  V30 1367 H 119.4 -1.87335 1.00098 0
M  V30 1368 H 121.663 -0.86377 0.390646 0
M  V30 1369 H 121.369 -3.40262 0.889629 0
M  V30 1370 H 121.243 -3.67754 -0.838875 0
M  V30 1371 H 123.63 -2.72798 -1.1254 0
M  V30 1372 H 123.711 -2.48053 0.62475 0
M  V30 1373 H 123.355 -4.98496 0.972824 0
M  V30 1374 H 123.285 -5.20586 -0.793556 0
M  V30 1375 H 125.776 -3.7753 -0.167244 0
M  V30 1376 H 126.089 -7.72279 0.283781 0
M  V30 1377 H 124.434 -6.94556 0.248267 0
M  V30 1378 H 127.625 -4.67938 -0.122958 0
M  V30 1379 H 127.798 -6.47948 0.0824844 0
M  V30 1380 N 121.204 0.198386 -1.56346 0
M  V30 1381 C 122.137 1.27381 -1.89339 0
M  V30 1382 C 123.115 1.44106 -0.753134 0
M  V30 1383 O 124.299 1.59549 -1.00381 0
M  V30 1384 C 121.426 2.6409 -2.12071 0
M  V30 1385 C 120.472 2.64253 -3.34772 0
M  V30 1386 S 121.305 2.16013 -4.89999 0
M  V30 1387 C 122.461 3.54553 -5.15794 0
M  V30 1388 H 122.694 0.992058 -2.8026 0
M  V30 1389 H 120.227 0.401726 -1.49082 0
M  V30 1390 H 122.185 3.42786 -2.2585 0
M  V30 1391 H 120.846 2.89478 -1.21906 0
M  V30 1392 H 120.039 3.64768 -3.47794 0
M  V30 1393 H 119.641 1.93637 -3.1997 0
M  V30 1394 H 121.933 4.50396 -5.06112 0
M  V30 1395 H 122.876 3.46428 -6.1757 0
M  V30 1396 H 123.284 3.49313 -4.43442 0
M  V30 1397 N 122.682 1.50554 0.465978 0
M  V30 1398 C 123.592 1.72585 1.58907 0
M  V30 1399 C 124.608 0.60911 1.6299 0
M  V30 1400 O 125.784 0.88804 1.80765 0
M  V30 1401 C 122.849 1.81995 2.95091 0
M  V30 1402 C 121.91 3.05751 3.01355 0
M  V30 1403 C 121.143 3.14702 4.31043 0
M  V30 1404 O 121.366 2.30313 5.21835 0
M  V30 1405 O 120.3 4.07468 4.43005 0
M  V30 1406 H 124.126 2.67799 1.43239 0
M  V30 1407 H 121.711 1.34711 0.646013 0
M  V30 1408 H 123.593 1.90335 3.75966 0
M  V30 1409 H 122.268 0.899659 3.10947 0
M  V30 1410 H 121.175 3.02908 2.19539 0
M  V30 1411 H 122.508 3.97375 2.90437 0
M  V30 1412 N 124.16 -0.719506 1.40217 0
M  V30 1413 C 125.123 -1.8153 1.39927 0
M  V30 1414 C 126.123 -1.58095 0.293723 0
M  V30 1415 O 127.313 -1.65209 0.552429 0
M  V30 1416 C 124.445 -3.19561 1.18716 0
M  V30 1417 H 125.638 -1.83186 2.37451 0
M  V30 1418 H 123.191 -0.924746 1.26008 0
M  V30 1419 H 123.926 -3.23557 0.219366 0
M  V30 1420 H 123.711 -3.3797 1.98793 0
M  V30 1421 H 125.201 -3.99598 1.21291 0
M  V30 1422 N 125.638 -1.25649 -0.95132 0
M  V30 1423 C 126.548 -1.08073 -2.08224 0
M  V30 1424 C 127.564 -0.0169666 -1.73992 0
M  V30 1425 O 128.74 -0.218593 -2.0021 0
M  V30 1426 C 125.805 -0.704922 -3.39458 0
M  V30 1427 C 124.866 -1.84699 -3.87537 0
M  V30 1428 C 124.099 -1.48902 -5.12508 0
M  V30 1429 O 124.322 -0.386156 -5.69091 0
M  V30 1430 O 123.256 -2.32033 -5.55378 0
M  V30 1431 H 127.082 -2.02924 -2.25954 0
M  V30 1432 H 124.667 -1.04618 -1.06656 0
M  V30 1433 H 126.549 -0.507609 -4.18332 0
M  V30 1434 H 125.224 0.214291 -3.2299 0
M  V30 1435 H 124.131 -2.09919 -3.09653 0
M  V30 1436 H 125.464 -2.74557 -4.08509 0
M  V30 1437 N 127.117 1.15442 -1.07289 0
M  V30 1438 C 128.533 1.38201 -0.798288 0
M  V30 1439 C 128.733 1.92429 0.597769 0
M  V30 1440 O 127.789 2.12962 1.3566 0
M  V30 1441 C 129.102 2.35357 -1.87156 0
M  V30 1442 C 130.65 2.49021 -1.89624 0
M  V30 1443 C 131.125 3.49468 -2.96034 0
M  V30 1444 N 132.616 3.57003 -2.95132 0
M  V30 1445 C 133.351 4.34543 -3.74112 0
M  V30 1446 N 132.847 5.15421 -4.6294 0
M  V30 1447 N 134.64 4.29625 -3.62462 0
M  V30 1448 H 126.791 0.78584 -1.97328 0
M  V30 1449 H 129.054 0.408065 -0.855679 0
M  V30 1450 H 128.76 2.02626 -2.87464 0
M  V30 1451 H 128.634 3.35129 -1.73114 0
M  V30 1452 H 131.021 2.81051 -0.899687 0
M  V30 1453 H 131.102 1.4925 -2.07745 0
M  V30 1454 H 130.746 3.18173 -3.95889 0
M  V30 1455 H 130.676 4.48992 -2.75161 0
M  V30 1456 H 133.167 2.99276 -2.30743 0
M  V30 1457 H 133.48 5.7183 -5.19837 0
M  V30 1458 H 131.825 5.14729 -4.66989 0
M  V30 1459 H 135.016 3.65505 -2.92444 0
M  V30 1460 H 135.189 4.89807 -4.24256 0
M  V30 1461 N 128.595 0.856903 1.32268 0
M  V30 1462 C 129.558 0.308171 2.27119 0
M  V30 1463 C 130.558 -0.533421 1.51695 0
M  V30 1464 O 131.748 -0.344607 1.70757 0
M  V30 1465 C 128.88 -0.563757 3.36206 0
M  V30 1466 H 130.073 1.14535 2.77167 0
M  V30 1467 H 127.626 0.631421 1.42978 0
M  V30 1468 H 128.361 -1.42266 2.91429 0
M  V30 1469 H 128.146 0.0386749 3.92081 0
M  V30 1470 H 129.636 -0.940386 4.06874 0
M  V30 1471 N 130.073 -1.45103 0.615059 0
M  V30 1472 C 131.321 -2.01784 0.112955 0
M  V30 1473 C 131.642 -1.48504 -1.26378 0
M  V30 1474 O 130.912 -0.682245 -1.83636 0
M  V30 1475 H 129.492 -0.745993 0.0387668 0
M  V30 1476 H 132.154 -1.77808 0.798141 0
M  V30 1477 H 131.25 -3.12025 0.0684069 0
M  V30 1478 N 131.551 -0.354651 -1.53558 0
M  V30 1479 C 132.484 0.540273 -2.21712 0
M  V30 1480 C 133.462 1.09161 -1.2051 0
M  V30 1481 O 134.646 1.14979 -1.49372 0
M  V30 1482 C 131.773 1.74435 -2.90328 0
M  V30 1483 C 130.819 1.32146 -4.05512 0
M  V30 1484 S 131.652 0.331924 -5.3447 0
M  V30 1485 C 132.808 1.54258 -6.06593 0
M  V30 1486 H 133.041 -0.0385776 -2.97275 0
M  V30 1487 H 130.574 -0.138736 -1.53775 0
M  V30 1488 H 132.532 2.43507 -3.30476 0
M  V30 1489 H 131.193 2.29444 -2.1451 0
M  V30 1490 H 130.386 2.21952 -4.52497 0
M  V30 1491 H 129.988 0.710091 -3.67197 0
M  V30 1492 H 132.28 2.47534 -6.30661 0
M  V30 1493 H 133.223 1.11431 -6.99277 0
M  V30 1494 H 133.631 1.74367 -5.36895 0
M  V30 1495 N 133.029 1.57378 -0.0835403 0
M  V30 1496 C 134.44 1.81261 0.447358 0
M  V30 1497 C 134.791 0.998331 1.68902 0
M  V30 1498 O 133.916 0.224282 2.15235 0
M  V30 1499 C 134.511 3.28767 0.818386 0
M  V30 1500 C 133.07 3.53455 1.29409 0
M  V30 1501 C 132.217 2.75831 0.285024 0
M  V30 1502 H 135.168 1.5566 -0.309115 0
M  V30 1503 H 135.189 3.41459 1.67887 0
M  V30 1504 H 134.701 3.88006 -0.0855019 0
M  V30 1505 H 132.802 2.99534 2.21608 0
M  V30 1506 H 132.915 4.62128 1.2639 0
M  V30 1507 H 131.279 2.42947 0.764767 0
M  V30 1508 H 132.062 3.37813 -0.611341 0
M  V30 1509 N 134.507 -0.190092 1.56449 0
M  V30 1510 C 135.737 -0.92443 1.84764 0
M  V30 1511 C 136.145 -1.77146 0.664529 0
M  V30 1512 O 135.488 -1.79812 -0.375957 0
M  V30 1513 C 135.55 -1.86651 3.07248 0
M  V30 1514 C 135.214 -1.20094 4.40938 0
M  V30 1515 C 136.211 -0.575445 5.16706 0
M  V30 1516 C 133.896 -1.2033 4.87674 0
M  V30 1517 C 135.89 0.0388111 6.37388 0
M  V30 1518 C 133.577 -0.585214 6.08291 0
M  V30 1519 C 134.575 0.0347578 6.82991 0
M  V30 1520 O 134.263 0.643147 8.01323 0
M  V30 1521 H 133.995 -0.274974 0.617548 0
M  V30 1522 H 136.549 -0.200788 2.04416 0
M  V30 1523 H 134.779 -2.62998 2.83494 0
M  V30 1524 H 136.468 -2.46907 3.22167 0
M  V30 1525 H 137.234 -0.565728 4.81689 0
M  V30 1526 H 133.113 -1.67526 4.29484 0
M  V30 1527 H 136.657 0.523329 6.95634 0
M  V30 1528 H 132.554 -0.592451 6.42775 0
M  V30 1529 H 133.322 0.540545 8.16713 0
M  V30 1530 N 135.985 -1.50799 -0.457987 0
M  V30 1531 C 137.231 -1.62683 -1.21088 0
M  V30 1532 C 137.564 -0.332268 -1.91336 0
M  V30 1533 O 136.839 0.667043 -1.82704 0
M  V30 1534 C 137.122 -2.81615 -2.24422 0
M  V30 1535 C 136.975 -4.20989 -1.58392 0
M  V30 1536 C 138.294 -2.96085 -3.2561 0
M  V30 1537 H 135.413 -0.592087 -0.438864 0
M  V30 1538 H 138.055 -1.83225 -0.50286 0
M  V30 1539 H 136.205 -2.64231 -2.84806 0
M  V30 1540 H 137.877 -4.49994 -1.01504 0
M  V30 1541 H 136.12 -4.24641 -0.886704 0
M  V30 1542 H 136.791 -5.0016 -2.33547 0
M  V30 1543 H 139.267 -3.12042 -2.75262 0
M  V30 1544 H 138.143 -3.80902 -3.95228 0
M  V30 1545 H 138.404 -2.0726 -3.90507 0
M  V30 1546 N 137.463 0.71206 -1.40597 0
M  V30 1547 C 138.411 1.84746 -1.41321 0
M  V30 1548 C 139.405 1.66842 -0.293268 0
M  V30 1549 O 140.611 1.73904 -0.464481 0
M  V30 1550 H 136.986 0.608522 -0.441819 0
M  V30 1551 H 138.957 1.81252 -2.37045 0
M  V30 1552 C 137.706 3.22638 -1.29614 0
M  V30 1553 H 137.029 3.37023 -2.15071 0
M  V30 1554 H 138.469 4.02209 -1.3418 0
M  V30 1555 C 136.928 3.36899 -0.00673121 0
M  V30 1556 O 137.458 3.90186 0.954859 0
M  V30 1557 N 135.664 2.9053 0.0639327 0
M  V30 1558 H 135.211 2.47353 -0.719311 0
M  V30 1559 H 135.169 3.0045 0.926118 0
M  V30 1560 N 138.941 1.26152 0.944643 0
M  V30 1561 C 139.873 1.03199 2.04652 0
M  V30 1562 C 140.886 -0.00642356 1.62799 0
M  V30 1563 O 142.075 0.233263 1.76969 0
M  V30 1564 C 139.175 0.540111 3.34568 0
M  V30 1565 C 138.348 1.64697 4.05208 0
M  V30 1566 C 137.407 1.15374 5.13396 0
M  V30 1567 O 136.433 1.85013 5.38293 0
M  V30 1568 N 137.635 0.00031529 5.805 0
M  V30 1569 H 140.4 1.9808 2.2491 0
M  V30 1570 H 137.961 1.17491 1.11389 0
M  V30 1571 H 139.953 0.194401 4.04233 0
M  V30 1572 H 138.523 -0.315021 3.11009 0
M  V30 1573 H 137.743 2.16379 3.29506 0
M  V30 1574 H 139.031 2.3903 4.49157 0
M  V30 1575 H 138.429 -0.581336 5.62705 0
M  V30 1576 H 136.986 -0.286346 6.51171 0
M  V30 1577 N 140.419 -1.14872 1.07899 0
M  V30 1578 C 141.835 -1.37776 0.805606 0
M  V30 1579 C 142.035 -1.92743 -0.587555 0
M  V30 1580 O 141.091 -2.13678 -1.34528 0
M  V30 1581 C 142.404 -2.34361 1.88402 0
M  V30 1582 C 143.952 -2.48012 1.90942 0
M  V30 1583 C 144.427 -3.47893 2.97883 0
M  V30 1584 N 145.918 -3.55433 2.97021 0
M  V30 1585 C 146.653 -4.32553 3.76412 0
M  V30 1586 N 146.149 -5.12959 4.65666 0
M  V30 1587 N 147.942 -4.27697 3.64735 0
M  V30 1588 H 140.093 -0.775365 1.97742 0
M  V30 1589 H 142.356 -0.403521 0.857831 0
M  V30 1590 H 142.062 -2.01098 2.88535 0
M  V30 1591 H 141.936 -3.34206 1.74889 0
M  V30 1592 H 144.323 -2.8057 0.914579 0
M  V30 1593 H 144.404 -1.48147 2.08534 0
M  V30 1594 H 144.048 -3.16069 3.97571 0
M  V30 1595 H 143.978 -4.47527 2.77538 0
M  V30 1596 H 146.469 -2.98048 2.32326 0
M  V30 1597 H 146.782 -5.69065 5.22862 0
M  V30 1598 H 145.127 -5.12245 4.69712 0
M  V30 1599 H 148.318 -3.63949 2.94378 0
M  V30 1600 H 148.491 -4.8755 4.26848 0
M  V30 1601 N 141.898 -0.863906 -1.31812 0
M  V30 1602 C 143.144 -0.481841 -1.9761 0
M  V30 1603 C 143.499 0.954048 -1.6708 0
M  V30 1604 O 142.792 1.66182 -0.953624 0
M  V30 1605 C 142.986 -0.668547 -3.51091 0
M  V30 1606 C 142.815 -2.12103 -3.96538 0
M  V30 1607 C 141.585 -2.76141 -4.23171 0
M  V30 1608 C 143.783 -3.09265 -4.10925 0
M  V30 1609 N 141.765 -4.12205 -4.54929 0
M  V30 1610 C 143.136 -4.30341 -4.46326 0
M  V30 1611 C 145.191 -3.05337 -3.93286 0
M  V30 1612 C 143.894 -5.48 -4.65928 0
M  V30 1613 C 145.92 -4.22248 -4.14078 0
M  V30 1614 C 145.282 -5.42085 -4.49804 0
M  V30 1615 H 141.381 -0.225238 -0.74886 0
M  V30 1616 H 143.965 -1.11723 -1.59455 0
M  V30 1617 H 142.136 -0.0627898 -3.88349 0
M  V30 1618 H 143.868 -0.255467 -4.03893 0
M  V30 1619 H 140.623 -2.27125 -4.15585 0
M  V30 1620 H 141.047 -4.82416 -4.74978 0
M  V30 1621 H 145.689 -2.138 -3.64759 0
M  V30 1622 H 143.407 -6.40059 -4.93305 0
M  V30 1623 H 146.993 -4.20654 -4.01922 0
M  V30 1624 H 145.873 -6.31044 -4.65567 0
M  V30 1625 N 143.376 1.44774 -0.622745 0
M  V30 1626 C 144.306 2.33382 0.0741861 0
M  V30 1627 C 145.287 1.47719 0.843387 0
M  V30 1628 O 146.472 1.76458 0.810934 0
M  V30 1629 C 143.602 3.30663 1.06204 0
M  V30 1630 C 142.556 4.26079 0.405037 0
M  V30 1631 C 141.882 5.13165 1.5022 0
M  V30 1632 C 143.182 5.1781 -0.683414 0
M  V30 1633 H 144.876 2.91905 -0.665713 0
M  V30 1634 H 142.422 1.40363 -0.321587 0
M  V30 1635 H 144.375 3.9153 1.55827 0
M  V30 1636 H 143.099 2.70331 1.83272 0
M  V30 1637 H 141.758 3.66532 -0.0704683 0
M  V30 1638 H 141.406 4.49191 2.26355 0
M  V30 1639 H 141.106 5.77812 1.06803 0
M  V30 1640 H 142.63 5.76902 2.00041 0
M  V30 1641 H 144.044 5.72661 -0.270631 0
M  V30 1642 H 142.441 5.91015 -1.04023 0
M  V30 1643 H 143.511 4.59326 -1.55395 0
M  V30 1644 N 144.854 0.36279 1.53368 0
M  V30 1645 C 146.102 -0.227326 2.00817 0
M  V30 1646 C 146.423 -1.49511 1.25186 0
M  V30 1647 O 145.693 -1.92482 0.364348 0
M  V30 1648 H 144.273 -0.0869923 0.741917 0
M  V30 1649 H 146.935 0.488381 1.88682 0
M  V30 1650 H 146.031 -0.456273 3.08747 0
M  V30 1651 N 146.332 -1.57332 0.0918853 0
M  V30 1652 C 147.58 -1.93853 -0.571446 0
M  V30 1653 C 147.901 -0.974212 -1.6892 0
M  V30 1654 O 147.171 -0.0257254 -1.95883 0
M  V30 1655 H 145.751 -0.715666 -0.214082 0
M  V30 1656 H 148.413 -1.94287 0.154464 0
M  V30 1657 H 147.509 -2.96191 -0.983729 0
M  V30 1658 N 147.81 0.181792 -1.56548 0
M  V30 1659 C 148.743 1.25366 -1.90679 0
M  V30 1660 C 149.721 1.43299 -0.768376 0
M  V30 1661 O 150.905 1.58475 -1.02068 0
M  V30 1662 C 148.032 2.61826 -2.1486 0
M  V30 1663 C 147.078 2.60688 -3.37556 0
M  V30 1664 S 147.911 2.10804 -4.92262 0
M  V30 1665 C 149.067 3.49062 -5.19525 0
M  V30 1666 H 149.3 0.962277 -2.81296 0
M  V30 1667 H 146.833 0.385892 -1.495 0
M  V30 1668 H 148.791 3.40371 -2.29473 0
M  V30 1669 H 147.452 2.88169 -1.24969 0
M  V30 1670 H 146.645 3.61058 -3.51643 0
M  V30 1671 H 146.247 1.90232 -3.22006 0
M  V30 1672 H 148.539 4.45003 -5.10861 0
M  V30 1673 H 149.482 3.39859 -6.2121 0
M  V30 1674 H 149.89 3.4459 -4.47122 0
M  V30 1675 N 149.288 1.51039 0.449983 0
M  V30 1676 C 150.218 1.74379 1.55288 0
M  V30 1677 C 151.199 0.593236 1.5942 0
M  V30 1678 O 152.384 0.834625 1.7535 0
M  V30 1679 C 149.514 1.85728 2.93466 0
M  V30 1680 C 148.468 3.01078 3.04197 0
M  V30 1681 C 147.794 2.97595 4.44231 0
M  V30 1682 C 149.094 4.41254 2.7945 0
M  V30 1683 H 150.788 2.66725 1.36008 0
M  V30 1684 H 148.334 1.2835 0.652864 0
M  V30 1685 H 150.287 2.0064 3.70569 0
M  V30 1686 H 149.011 0.900207 3.13949 0
M  V30 1687 H 147.67 2.85851 2.29531 0
M  V30 1688 H 147.318 1.99691 4.61663 0
M  V30 1689 H 147.018 3.75046 4.52343 0
M  V30 1690 H 148.542 3.14583 5.23326 0
M  V30 1691 H 149.956 4.56897 3.46292 0
M  V30 1692 H 148.353 5.20315 2.98985 0
M  V30 1693 H 149.423 4.52164 1.75144 0
M  V30 1694 N 150.766 -0.704594 1.40972 0
M  V30 1695 C 151.994 -1.49354 1.43182 0
M  V30 1696 C 152.409 -1.88768 0.0345508 0
M  V30 1697 O 151.766 -1.56184 -0.944081 0
M  V30 1698 C 151.817 -2.76187 2.33244 0
M  V30 1699 O 151.538 -2.38436 3.67532 0
M  V30 1700 C 153.039 -3.7 2.44162 0
M  V30 1701 H 150.259 -0.460559 0.487982 0
M  V30 1702 H 152.803 -0.868261 1.85153 0
M  V30 1703 H 150.958 -3.34974 1.94606 0
M  V30 1704 H 151.372 -3.20126 4.15475 0
M  V30 1705 H 152.846 -4.55803 3.11364 0
M  V30 1706 H 153.323 -4.13867 1.47006 0
M  V30 1707 H 153.929 -3.17121 2.83398 0
M  V30 1708 N 152.244 -1.26651 -0.937939 0
M  V30 1709 C 153.192 -1.08308 -2.05845 0
M  V30 1710 C 154.186 -0.0090757 -1.69398 0
M  V30 1711 O 155.392 -0.166007 -1.79233 0
M  V30 1712 H 151.767 -0.333416 -0.674046 0
M  V30 1713 H 153.738 -2.03261 -2.18467 0
M  V30 1714 C 152.487 -0.736229 -3.39816 0
M  V30 1715 H 151.81 -1.55453 -3.6834 0
M  V30 1716 H 153.25 -0.64769 -4.19024 0
M  V30 1717 C 151.709 0.558824 -3.32233 0
M  V30 1718 O 152.239 1.59621 -3.68624 0
M  V30 1719 N 150.445 0.550657 -2.85335 0
M  V30 1720 H 149.992 -0.293943 -2.55917 0
M  V30 1721 H 149.95 1.41726 -2.80644 0
M  V30 1722 N 153.722 1.14298 -1.08507 0
M  V30 1723 C 154.969 1.85359 -0.815373 0
M  V30 1724 C 155.297 1.83001 0.658865 0
M  V30 1725 O 154.552 1.25655 1.50031 0
M  V30 1726 C 154.851 3.33547 -1.28379 0
M  V30 1727 C 154.517 3.56093 -2.76602 0
M  V30 1728 C 153.179 3.61955 -3.17084 0
M  V30 1729 C 155.531 3.64834 -3.72217 0
M  V30 1730 C 152.859 3.74082 -4.51973 0
M  V30 1731 C 155.211 3.78487 -5.06883 0
M  V30 1732 C 153.875 3.82598 -5.46969 0
M  V30 1733 H 153.145 0.678276 -0.298366 0
M  V30 1734 H 155.792 1.35002 -1.35819 0
M  V30 1735 H 154.097 3.86191 -0.660593 0
M  V30 1736 H 155.794 3.86959 -1.05186 0
M  V30 1737 H 152.384 3.52179 -2.4427 0
M  V30 1738 H 156.568 3.59595 -3.42061 0
M  V30 1739 H 151.824 3.75527 -4.82483 0
M  V30 1740 H 155.998 3.84193 -5.80834 0
M  V30 1741 H 153.625 3.91747 -6.51489 0
M  V30 1742 N 155.201 0.870884 1.31352 0
M  V30 1743 C 156.148 0.325425 2.28494 0
M  V30 1744 C 157.118 -0.576615 1.5577 0
M  V30 1745 O 158.303 -0.508059 1.83911 0
M  V30 1746 C 155.443 -0.466283 3.41935 0
M  V30 1747 C 154.556 0.463378 4.29508 0
M  V30 1748 C 153.691 -0.342544 5.30094 0
M  V30 1749 C 152.73 0.583486 6.09313 0
M  V30 1750 N 151.867 -0.186244 7.01853 0
M  V30 1751 H 156.707 1.15901 2.74538 0
M  V30 1752 H 154.244 0.58294 1.35056 0
M  V30 1753 H 156.202 -0.941085 4.06447 0
M  V30 1754 H 154.832 -1.26456 2.97 0
M  V30 1755 H 153.884 1.05663 3.65431 0
M  V30 1756 H 155.196 1.1734 4.84802 0
M  V30 1757 H 154.35 -0.879816 6.00287 0
M  V30 1758 H 153.089 -1.08585 4.75458 0
M  V30 1759 H 152.094 1.13251 5.3801 0
M  V30 1760 H 153.319 1.32566 6.66035 0
M  V30 1761 H 151.265 -0.912348 6.49625 0
M  V30 1762 H 151.182 0.464422 7.54572 0
M  V30 1763 H 152.45 -0.704716 7.76308 0
M  V30 1764 N 156.679 -1.44442 0.630414 0
M  V30 1765 C 157.907 -2.06414 0.141671 0
M  V30 1766 C 158.322 -1.47105 -1.18345 0
M  V30 1767 O 157.679 -0.593662 -1.72574 0
M  V30 1768 C 157.73 -3.61494 0.0199784 0
M  V30 1769 O 157.451 -4.18594 1.29269 0
M  V30 1770 C 158.952 -4.40499 -0.497544 0
M  V30 1771 H 156.172 -0.666292 0.0793452 0
M  V30 1772 H 158.716 -1.85323 0.864614 0
M  V30 1773 H 156.871 -3.8185 -0.653402 0
M  V30 1774 H 157.285 -5.12026 1.13707 0
M  V30 1775 H 158.759 -5.49433 -0.531708 0
M  V30 1776 H 159.236 -4.11895 -1.52445 0
M  V30 1777 H 159.842 -4.25061 0.142562 0
M  V30 1778 N 158.157 -0.370918 -1.53173 0
M  V30 1779 C 159.406 0.218249 -2.00516 0
M  V30 1780 C 159.719 1.49429 -1.26215 0
M  V30 1781 O 160.925 2.16239 -1.64174 0
M  V30 1782 C 159.381 0.43948 -3.57207 0
M  V30 1783 C 158.989 -0.822244 -4.4039 0
M  V30 1784 C 160.733 0.986012 -4.1289 0
M  V30 1785 C 158.64 -0.570304 -5.88644 0
M  V30 1786 H 157.57 0.0853333 -0.749156 0
M  V30 1787 H 160.221 -0.490483 -1.76823 0
M  V30 1788 H 158.603 1.20961 -3.77074 0
M  V30 1789 H 159.777 -1.59557 -4.32294 0
M  V30 1790 H 158.092 -1.29238 -3.95836 0
M  V30 1791 H 160.689 1.18991 -5.21292 0
M  V30 1792 H 161.032 1.94972 -3.6782 0
M  V30 1793 H 161.565 0.27592 -3.96842 0
M  V30 1794 H 158.304 -1.50449 -6.38001 0
M  V30 1795 H 157.824 0.164427 -5.99575 0
M  V30 1796 H 159.503 -0.19784 -6.46697 0
M  V30 1797 N 159.635 1.57281 -0.100228 0
M  V30 1798 C 160.86 1.99302 0.573881 0
M  V30 1799 C 161.285 0.979059 1.60611 0
M  V30 1800 O 160.643 -0.0517803 1.81226 0
M  V30 1801 C 160.691 3.40274 1.19358 0
M  V30 1802 O 159.795 3.41676 2.30935 0
M  V30 1803 H 159.136 0.647944 0.145138 0
M  V30 1804 H 161.666 2.03779 -0.183156 0
M  V30 1805 H 161.676 3.78078 1.53365 0
M  V30 1806 H 160.351 4.13594 0.437385 0
M  V30 1807 H 158.928 3.15672 1.98509 0
M  V30 1808 N 161.113 -0.173488 1.56642 0
M  V30 1809 C 162.045 -1.23935 1.92802 0
M  V30 1810 C 163.058 -1.40589 0.820889 0
M  V30 1811 O 164.247 -1.40631 1.09933 0
M  V30 1812 C 161.347 -2.60837 2.16373 0
M  V30 1813 C 160.52 -2.6551 3.47596 0
M  V30 1814 C 159.579 -3.8376 3.60021 0
M  V30 1815 O 158.605 -3.69859 4.32658 0
M  V30 1816 N 159.807 -5.00127 2.94709 0
M  V30 1817 H 162.572 -0.932236 2.84832 0
M  V30 1818 H 160.133 -0.363268 1.57772 0
M  V30 1819 H 162.125 -3.38407 2.21952 0
M  V30 1820 H 160.695 -2.83948 1.30738 0
M  V30 1821 H 159.915 -1.74052 3.53694 0
M  V30 1822 H 161.203 -2.65641 4.33949 0
M  V30 1823 H 160.601 -5.14322 2.35563 0
M  V30 1824 H 159.158 -5.75567 3.05886 0
M  V30 1825 N 162.591 -1.51276 -0.441967 0
M  V30 1826 C 164.007 -1.39349 -0.778083 0
M  V30 1827 C 164.207 -0.472212 -1.95889 0
M  V30 1828 O 163.263 0.0743551 -2.5239 0
M  V30 1829 C 164.576 -2.81292 -1.0628 0
M  V30 1830 C 166.124 -2.9041 -1.16751 0
M  V30 1831 C 166.599 -4.33251 -1.48519 0
M  V30 1832 N 168.09 -4.36336 -1.55453 0
M  V30 1833 C 168.825 -5.43885 -1.81596 0
M  V30 1834 N 168.321 -6.61601 -2.05562 0
M  V30 1835 N 170.114 -5.3136 -1.8334 0
M  V30 1836 H 162.265 -2.09729 0.335774 0
M  V30 1837 H 164.528 -0.943925 0.0878028 0
M  V30 1838 H 164.234 -3.50678 -0.267905 0
M  V30 1839 H 164.108 -3.20334 -1.99163 0
M  V30 1840 H 166.495 -2.21225 -1.95304 0
M  V30 1841 H 166.576 -2.54871 -0.217801 0
M  V30 1842 H 166.22 -5.02984 -0.704958 0
M  V30 1843 H 166.15 -4.66299 -2.44689 0
M  V30 1844 H 168.641 -3.51466 -1.38853 0
M  V30 1845 H 168.954 -7.39361 -2.24867 0
M  V30 1846 H 167.299 -6.64725 -2.02894 0
M  V30 1847 H 170.49 -4.38382 -1.64132 0
M  V30 1848 H 170.663 -6.15258 -2.03377 0
M  V30 1849 N 164.069 0.697108 -1.41344 0
M  V30 1850 C 165.315 1.4593 -1.40827 0
M  V30 1851 C 165.648 1.94193 -0.0167098 0
M  V30 1852 O 164.923 1.69425 0.955263 0
M  V30 1853 C 165.206 2.67229 -2.41373 0
M  V30 1854 C 165.059 2.24741 -3.8963 0
M  V30 1855 C 166.378 3.69423 -2.39196 0
M  V30 1856 H 163.497 0.529303 -0.512842 0
M  V30 1857 H 166.139 0.794112 -1.72609 0
M  V30 1858 H 164.289 3.23982 -2.14401 0
M  V30 1859 H 165.961 1.73327 -4.27499 0
M  V30 1860 H 164.204 1.56542 -4.0457 0
M  V30 1861 H 164.875 3.1177 -4.55525 0
M  V30 1862 H 167.351 3.2234 -2.63128 0
M  V30 1863 H 166.227 4.51907 -3.11563 0
M  V30 1864 H 166.488 4.19012 -1.41001 0
M  V30 1865 N 165.547 1.27147 0.931209 0
M  V30 1866 C 166.497 1.06227 2.01742 0
M  V30 1867 C 167.481 -0.00859065 1.60898 0
M  V30 1868 O 168.673 0.209537 1.75755 0
M  V30 1869 C 165.802 0.707787 3.35924 0
M  V30 1870 C 164.888 1.81661 3.83223 0
M  V30 1871 N 165.279 3.05564 4.03069 0
M  V30 1872 C 163.577 1.70249 4.12227 0
M  V30 1873 C 164.278 3.77697 4.42403 0
M  V30 1874 N 163.254 3.0544 4.49675 0
M  V30 1875 H 167.056 2.00261 2.15111 0
M  V30 1876 H 164.57 1.1781 1.11779 0
M  V30 1877 H 166.567 0.539043 4.134 0
M  V30 1878 H 165.227 -0.224964 3.2392 0
M  V30 1879 H 166.238 3.41363 3.89476 0
M  V30 1880 H 162.915 0.840329 4.08956 0
M  V30 1881 H 164.305 4.84168 4.65866 0
M  V30 1882 N 167.025 -1.13721 1.09112 0
M  V30 1883 C 168.441 -1.36914 0.820174 0
M  V30 1884 C 168.641 -1.93356 -0.567079 0
M  V30 1885 O 167.697 -2.15093 -1.32255 0
M  V30 1886 C 169.01 -2.3235 1.90877 0
M  V30 1887 C 170.558 -2.45973 1.93562 0
M  V30 1888 C 171.033 -3.44714 3.01556 0
M  V30 1889 N 172.524 -3.52263 3.00775 0
M  V30 1890 C 173.259 -4.28536 3.80978 0
M  V30 1891 N 172.755 -5.07991 4.71081 0
M  V30 1892 N 174.548 -4.23804 3.69251 0
M  V30 1893 H 166.699 -0.754348 1.98553 0
M  V30 1894 H 168.962 -0.3944 0.862063 0
M  V30 1895 H 168.668 -1.98027 2.90651 0
M  V30 1896 H 168.542 -3.32332 1.78424 0
M  V30 1897 H 170.929 -2.79584 0.944286 0
M  V30 1898 H 171.01 -1.45926 2.10093 0
M  V30 1899 H 170.654 -3.11835 4.00901 0
M  V30 1900 H 170.584 -4.44558 2.82269 0
M  V30 1901 H 173.075 -2.95567 2.35475 0
M  V30 1902 H 173.388 -5.63487 5.28869 0
M  V30 1903 H 171.733 -5.07235 4.75119 0
M  V30 1904 H 174.924 -3.60806 2.98222 0
M  V30 1905 H 175.097 -4.82995 4.31995 0
M  V30 1906 N 168.503 -0.877838 -1.30888 0
M  V30 1907 C 169.433 -0.35534 -2.3078 0
M  V30 1908 C 170.414 0.557994 -1.60687 0
M  V30 1909 O 171.599 0.473355 -1.88343 0
M  V30 1910 C 168.729 0.437221 -3.44537 0
M  V30 1911 C 167.683 -0.383715 -4.26276 0
M  V30 1912 C 167.009 0.535014 -5.32017 0
M  V30 1913 C 168.309 -1.62201 -4.96476 0
M  V30 1914 H 170.003 -1.19007 -2.74732 0
M  V30 1915 H 167.549 -0.573698 -1.32078 0
M  V30 1916 H 169.502 0.813334 -4.13477 0
M  V30 1917 H 168.226 1.30553 -2.99372 0
M  V30 1918 H 166.885 -0.741874 -3.59015 0
M  V30 1919 H 166.533 1.40083 -4.831 0
M  V30 1920 H 166.233 -0.0104211 -5.87599 0
M  V30 1921 H 167.757 0.907799 -6.03814 0
M  V30 1922 H 169.171 -1.31689 -5.5797 0
M  V30 1923 H 167.568 -2.10711 -5.61891 0
M  V30 1924 H 168.638 -2.37044 -4.23011 0
M  V30 1925 N 169.982 1.44106 -0.638065 0
M  V30 1926 C 170.892 2.34513 0.0637334 0
M  V30 1927 C 171.908 1.53018 0.828346 0
M  V30 1928 O 173.084 1.85723 0.779036 0
M  V30 1929 C 170.149 3.31095 1.02844 0
M  V30 1930 C 169.21 4.28497 0.26244 0
M  V30 1931 C 168.443 5.20465 1.1812 0
M  V30 1932 O 168.666 5.16514 2.42011 0
M  V30 1933 O 167.6 5.98251 0.661774 0
M  V30 1934 H 171.426 2.95989 -0.68003 0
M  V30 1935 H 169.011 1.43994 -0.398252 0
M  V30 1936 H 170.893 3.90526 1.58327 0
M  V30 1937 H 169.568 2.72144 1.7527 0
M  V30 1938 H 168.475 3.72592 -0.335602 0
M  V30 1939 H 169.808 4.90388 -0.421936 0
M  V30 1940 N 171.46 0.379036 1.52974 0
M  V30 1941 C 172.37 -0.468639 2.29872 0
M  V30 1942 C 173.386 -1.08067 1.36373 0
M  V30 1943 O 174.562 -1.08871 1.69438 0
M  V30 1944 C 171.627 -1.58594 3.083 0
M  V30 1945 C 170.688 -1.00007 4.17489 0
M  V30 1946 C 169.921 -2.06413 4.92168 0
M  V30 1947 O 170.144 -3.27751 4.66835 0
M  V30 1948 O 169.078 -1.68717 5.7777 0
M  V30 1949 H 172.904 0.157508 3.03291 0
M  V30 1950 H 170.489 0.143035 1.48714 0
M  V30 1951 H 172.371 -2.23525 3.57232 0
M  V30 1952 H 171.046 -2.19724 2.37703 0
M  V30 1953 H 169.953 -0.314299 3.72777 0
M  V30 1954 H 171.286 -0.433135 4.90291 0
M  V30 1955 N 172.938 -1.57226 0.108567 0
M  V30 1956 C 173.868 -2.17778 -0.84232 0
M  V30 1957 C 174.849 -1.11487 -1.2847 0
M  V30 1958 O 176.034 -1.39681 -1.34918 0
M  V30 1959 C 173.164 -2.76888 -2.09644 0
M  V30 1960 C 172.118 -3.88669 -1.79221 0
M  V30 1961 C 171.444 -4.34541 -3.11574 0
M  V30 1962 C 172.744 -5.11251 -1.06864 0
M  V30 1963 H 174.438 -2.97489 -0.337774 0
M  V30 1964 H 171.984 -1.43097 -0.161025 0
M  V30 1965 H 173.937 -3.17904 -2.76614 0
M  V30 1966 H 172.661 -1.94451 -2.62405 0
M  V30 1967 H 171.32 -3.48213 -1.14644 0
M  V30 1968 H 170.968 -3.48977 -3.62249 0
M  V30 1969 H 170.668 -5.09914 -2.91996 0
M  V30 1970 H 172.192 -4.782 -3.7968 0
M  V30 1971 H 173.606 -5.49352 -1.63968 0
M  V30 1972 H 172.003 -5.9214 -0.974178 0
M  V30 1973 H 173.073 -4.8487 -0.0536168 0
M  V30 1974 N 174.416 0.165178 -1.56732 0
M  V30 1975 C 175.326 1.22423 -2.00125 0
M  V30 1976 C 176.342 1.48084 -0.913619 0
M  V30 1977 O 177.518 1.60112 -1.22172 0
M  V30 1978 C 174.583 2.54197 -2.35764 0
M  V30 1979 C 173.644 2.36343 -3.58386 0
M  V30 1980 C 172.877 3.61834 -3.92316 0
M  V30 1981 O 173.1 4.67267 -3.27135 0
M  V30 1982 O 172.034 3.55579 -4.85641 0
M  V30 1983 H 175.86 0.885886 -2.90492 0
M  V30 1984 H 173.445 0.372518 -1.44681 0
M  V30 1985 H 175.327 3.3192 -2.59629 0
M  V30 1986 H 174.002 2.87598 -1.48557 0
M  V30 1987 H 172.909 1.56632 -3.39731 0
M  V30 1988 H 174.242 2.07865 -4.46154 0
M  V30 1989 N 175.894 1.51508 0.433938 0
M  V30 1990 C 176.857 1.72473 1.50949 0
M  V30 1991 C 177.857 0.594725 1.49398 0
M  V30 1992 O 179.047 0.862315 1.5136 0
M  V30 1993 C 176.179 1.78431 2.90474 0
M  V30 1994 H 177.372 2.68467 1.33662 0
M  V30 1995 H 174.925 1.41549 0.662836 0
M  V30 1996 H 175.66 0.842645 3.13161 0
M  V30 1997 H 175.445 2.60558 2.93005 0
M  V30 1998 H 176.935 1.96479 3.68491 0
M  V30 1999 N 177.372 -0.689602 1.41712 0
M  V30 2000 C 178.302 -1.81577 1.46806 0
M  V30 2001 C 179.283 -1.66945 0.326105 0
M  V30 2002 O 180.468 -1.86588 0.538377 0
M  V30 2003 C 177.598 -3.19762 1.35535 0
M  V30 2004 C 176.552 -3.49107 2.47605 0
M  V30 2005 C 175.878 -4.86711 2.21397 0
M  V30 2006 C 177.178 -3.47483 3.89939 0
M  V30 2007 H 178.872 -1.7757 2.41058 0
M  V30 2008 H 176.418 -0.852887 1.16025 0
M  V30 2009 H 178.371 -3.98263 1.3771 0
M  V30 2010 H 177.095 -3.24409 0.377708 0
M  V30 2011 H 175.754 -2.72959 2.44722 0
M  V30 2012 H 175.402 -4.8799 1.21961 0
M  V30 2013 H 175.102 -5.0731 2.96497 0
M  V30 2014 H 176.626 -5.67515 2.25297 0
M  V30 2015 H 178.04 -4.1598 3.94505 0
M  V30 2016 H 176.437 -3.79615 4.64771 0
M  V30 2017 H 177.507 -2.46341 4.17665 0
M  V30 2018 N 178.85 -1.27639 -0.924453 0
M  V30 2019 C 180.097 -1.14167 -1.67249 0
M  V30 2020 C 180.425 0.311863 -1.91984 0
M  V30 2021 O 179.68 1.24425 -1.51053 0
M  V30 2022 C 179.979 -1.87407 -3.04325 0
M  V30 2023 C 179.645 -3.37249 -2.99289 0
M  V30 2024 C 178.307 -3.7812 -2.97622 0
M  V30 2025 C 180.659 -4.32845 -2.90336 0
M  V30 2026 C 177.987 -5.12944 -2.8479 0
M  V30 2027 C 180.339 -5.6773 -2.79045 0
M  V30 2028 C 179.003 -6.07889 -2.7573 0
M  V30 2029 H 178.273 -0.417766 -0.612007 0
M  V30 2030 H 180.92 -1.58286 -1.07786 0
M  V30 2031 H 179.225 -1.35805 -3.67511 0
M  V30 2032 H 180.922 -1.74408 -3.61086 0
M  V30 2033 H 177.512 -3.04748 -3.01374 0
M  V30 2034 H 181.696 -4.02239 -2.90719 0
M  V30 2035 H 176.952 -5.432 -2.80612 0
M  V30 2036 H 181.126 -6.41472 -2.71083 0
M  V30 2037 H 178.753 -7.12314 -2.65544 0
M  V30 2038 N 180.328 1.1314 -1.09713 0
M  V30 2039 C 181.291 2.16831 -0.742751 0
M  V30 2040 C 182.291 1.59159 0.229129 0
M  V30 2041 O 183.481 1.74199 0.00693237 0
M  V30 2042 C 180.613 3.40756 -0.0989168 0
M  V30 2043 H 181.806 2.49695 -1.66109 0
M  V30 2044 H 179.359 1.2802 -0.896699 0
M  V30 2045 H 180.094 3.13485 0.830514 0
M  V30 2046 H 179.879 3.83888 -0.798265 0
M  V30 2047 H 181.369 4.17386 0.133524 0
M  V30 2048 N 181.806 0.884767 1.30421 0
M  V30 2049 C 183.031 0.517288 2.00845 0
M  V30 2050 C 183.456 -0.886779 1.65885 0
M  V30 2051 O 182.814 -1.58768 0.875354 0
M  V30 2052 C 182.862 0.698994 3.5376 0
M  V30 2053 O 181.966 -0.255208 4.1161 0
M  V30 2054 H 181.307 0.203872 0.631927 0
M  V30 2055 H 183.837 1.19225 1.66272 0
M  V30 2056 H 183.847 0.597912 4.03595 0
M  V30 2057 H 182.522 1.72271 3.78544 0
M  V30 2058 H 181.099 -0.10784 3.72744 0
M  V30 2059 N 183.284 -1.43765 0.645699 0
M  V30 2060 C 184.695 -1.85193 0.236719 0
M  V30 2061 C 185.046 -1.54045 -1.21509 0
M  V30 2062 O 184.171 -0.985694 -1.92647 0
M  V30 2063 C 184.766 -3.36151 0.422845 0
M  V30 2064 C 183.325 -3.76338 0.0682492 0
M  V30 2065 C 182.472 -2.67538 0.729306 0
M  V30 2066 H 185.423 -1.34025 0.849883 0
M  V30 2067 H 185.444 -3.79032 -0.333904 0
M  V30 2068 H 184.956 -3.5879 1.47958 0
M  V30 2069 H 183.057 -3.59312 -0.986179 0
M  V30 2070 H 183.17 -4.76603 0.488469 0
M  V30 2071 H 181.534 -2.54176 0.163235 0
M  V30 2072 H 182.317 -2.93006 1.78892 0
M  V30 2073 N 184.763 -0.387143 -1.52771 0
M  V30 2074 C 185.673 0.456442 -2.30117 0
M  V30 2075 C 186.689 1.07342 -1.36944 0
M  V30 2076 O 187.865 1.07971 -1.70013 0
M  V30 2077 C 184.93 1.56957 -3.09136 0
M  V30 2078 C 183.991 0.977916 -4.18014 0
M  V30 2079 C 183.224 2.038 -4.93256 0
M  V30 2080 O 183.447 3.25271 -4.68567 0
M  V30 2081 O 182.381 1.6565 -5.78657 0
M  V30 2082 H 186.207 -0.17359 -3.03203 0
M  V30 2083 H 183.792 -0.150919 -1.48636 0
M  V30 2084 H 185.674 2.21628 -3.58412 0
M  V30 2085 H 184.349 2.18461 -2.38865 0
M  V30 2086 H 183.256 0.294525 -3.72939 0
M  V30 2087 H 184.589 0.407128 -4.90513 0
M  V30 2088 N 186.241 1.57166 -0.116904 0
M  V30 2089 C 187.49 1.94298 0.541407 0
M  V30 2090 C 187.803 1.00236 1.67964 0
M  V30 2091 O 189.009 1.26826 2.40057 0
M  V30 2092 C 187.465 3.45306 1.01449 0
M  V30 2093 C 187.073 4.47899 -0.0951738 0
M  V30 2094 C 188.817 3.91361 1.6443 0
M  V30 2095 C 186.724 5.90083 0.394491 0
M  V30 2096 H 185.654 0.725308 0.206019 0
M  V30 2097 H 188.305 1.82446 -0.196419 0
M  V30 2098 H 186.687 3.52385 1.80667 0
M  V30 2099 H 187.861 4.52486 -0.871374 0
M  V30 2100 H 186.176 4.11583 -0.631505 0
M  V30 2101 H 188.773 4.95004 2.02176 0
M  V30 2102 H 189.116 3.3122 2.52189 0
M  V30 2103 H 189.649 3.87073 0.917559 0
M  V30 2104 H 186.388 6.53974 -0.447004 0
M  V30 2105 H 185.908 5.88921 1.13722 0
M  V30 2106 H 187.587 6.41307 0.856399 0
M  V30 2107 N 187.719 -0.156864 1.56817 0
M  V30 2108 C 188.629 -1.2136 2.00771 0
M  V30 2109 C 189.645 -1.47598 0.921459 0
M  V30 2110 O 190.821 -1.59462 1.2302 0
M  V30 2111 C 187.886 -2.52943 2.37109 0
M  V30 2112 C 186.947 -2.34439 3.59634 0
M  V30 2113 C 186.18 -3.59748 3.94229 0
M  V30 2114 O 186.403 -4.65526 3.29609 0
M  V30 2115 O 185.337 -3.52998 4.8752 0
M  V30 2116 H 189.163 -0.870468 2.90958 0
M  V30 2117 H 186.748 -0.36484 1.44877 0
M  V30 2118 H 188.63 -3.30538 2.61386 0
M  V30 2119 H 187.305 -2.86806 1.5008 0
M  V30 2120 H 186.212 -1.54828 3.40557 0
M  V30 2121 H 187.545 -2.05496 4.4725 0
M  V30 2122 N 189.197 -1.51736 -0.425897 0
M  V30 2123 C 190.107 -1.76738 -1.54275 0
M  V30 2124 C 191.123 -0.65211 -1.61318 0
M  V30 2125 O 192.299 -0.935654 -1.78346 0
M  V30 2126 C 189.364 -1.89755 -2.90162 0
M  V30 2127 C 188.425 -3.13633 -2.93143 0
M  V30 2128 C 187.658 -3.2602 -4.22548 0
M  V30 2129 O 187.881 -2.44067 -5.15546 0
M  V30 2130 O 186.815 -4.19071 -4.32046 0
M  V30 2131 H 190.641 -2.71502 -1.36089 0
M  V30 2132 H 188.226 -1.36376 -0.610069 0
M  V30 2133 H 190.108 -2.00236 -3.70788 0
M  V30 2134 H 188.783 -0.981785 -3.08452 0
M  V30 2135 H 187.69 -3.08622 -2.11431 0
M  V30 2136 H 189.023 -4.04936 -2.798 0
M  V30 2137 N 190.675 0.682077 -1.42076 0
M  V30 2138 C 192.091 0.994324 -1.24841 0
M  V30 2139 C 192.291 2.0096 -0.147389 0
M  V30 2140 O 191.347 2.47822 0.483782 0
M  V30 2141 C 192.66 1.50607 -2.60265 0
M  V30 2142 C 194.208 1.62421 -2.6756 0
M  V30 2143 C 194.683 2.16994 -4.03333 0
M  V30 2144 N 196.174 2.24337 -4.0525 0
M  V30 2145 C 196.909 2.67621 -5.07116 0
M  V30 2146 N 196.405 3.1041 -6.19368 0
M  V30 2147 N 198.198 2.67305 -4.94474 0
M  V30 2148 H 190.349 0.00973908 -2.12398 0
M  V30 2149 H 192.612 0.0668593 -0.945639 0
M  V30 2150 H 192.318 0.834583 -3.41654 0
M  V30 2151 H 192.192 2.48602 -2.83684 0
M  V30 2152 H 194.579 2.28678 -1.86521 0
M  V30 2153 H 194.66 0.629352 -2.47937 0
M  V30 2154 H 194.304 1.51349 -4.84826 0
M  V30 2155 H 194.234 3.17258 -4.20304 0
M  V30 2156 H 196.725 1.94158 -3.24209 0
M  V30 2157 H 197.038 3.42103 -6.92954 0
M  V30 2158 H 195.383 3.08286 -6.22884 0
M  V30 2159 H 198.574 2.33233 -4.05857 0
M  V30 2160 H 198.747 3.00718 -5.73997 0
M  V30 2161 N 192.153 1.28127 0.917671 0
M  V30 2162 C 193.564 1.13622 1.48145 0
M  V30 2163 C 193.915 -0.275207 1.9426 0
M  V30 2164 O 193.04 -1.1691 1.82102 0
M  V30 2165 C 193.635 2.05648 2.69248 0
M  V30 2166 C 192.194 1.95219 3.21818 0
M  V30 2167 C 191.341 1.97618 1.94532 0
M  V30 2168 H 194.292 1.40874 0.730772 0
M  V30 2169 H 194.313 1.61818 3.44377 0
M  V30 2170 H 193.825 3.08365 2.35653 0
M  V30 2171 H 191.926 0.955244 3.60147 0
M  V30 2172 H 192.039 2.81976 3.87333 0
M  V30 2173 H 190.403 1.41973 2.11461 0
M  V30 2174 H 191.186 3.02007 1.63238 0
M  V30 2175 N 193.631 -1.12557 1.10312 0
M  V30 2176 C 194.578 -2.18247 0.750781 0
M  V30 2177 C 195.548 -1.63853 -0.272293 0
M  V30 2178 O 196.733 -1.90195 -0.151862 0
M  V30 2179 C 193.873 -3.44591 0.187379 0
M  V30 2180 C 192.986 -4.13046 1.2656 0
M  V30 2181 C 192.121 -5.27034 0.663978 0
M  V30 2182 C 191.16 -5.87353 1.72287 0
M  V30 2183 N 190.297 -6.92757 1.1416 0
M  V30 2184 H 195.137 -2.47732 1.65628 0
M  V30 2185 H 192.674 -1.21629 0.827337 0
M  V30 2186 H 194.632 -4.16904 -0.157148 0
M  V30 2187 H 193.262 -3.15527 -0.681355 0
M  V30 2188 H 192.314 -3.38924 1.72727 0
M  V30 2189 H 193.626 -4.53947 2.06721 0
M  V30 2190 H 192.78 -6.06104 0.268824 0
M  V30 2191 H 191.519 -4.87407 -0.169082 0
M  V30 2192 H 190.524 -5.06971 2.12746 0
M  V30 2193 H 191.749 -6.29051 2.55875 0
M  V30 2194 H 189.695 -6.5517 0.329984 0
M  V30 2195 H 189.612 -7.3225 1.88007 0
M  V30 2196 H 190.88 -7.75658 0.772956 0
M  V30 2197 N 195.109 -0.891671 -1.2995 0
M  V30 2198 C 196.056 -0.361736 -2.27948 0
M  V30 2199 C 197.026 0.551761 -1.56668 0
M  V30 2200 O 198.211 0.478736 -1.84696 0
M  V30 2201 C 195.351 0.411825 -3.42634 0
M  V30 2202 C 194.464 -0.531651 -4.28716 0
M  V30 2203 C 193.599 0.258167 -5.30572 0
M  V30 2204 C 192.638 -0.680349 -6.08307 0
M  V30 2205 N 191.775 0.0745613 -7.0206 0
M  V30 2206 H 196.615 -1.20254 -2.72659 0
M  V30 2207 H 194.152 -0.604352 -1.34112 0
M  V30 2208 H 196.11 0.876304 -4.07893 0
M  V30 2209 H 194.74 1.21715 -2.98974 0
M  V30 2210 H 193.792 -1.11463 -3.63703 0
M  V30 2211 H 195.104 -1.25038 -4.82874 0
M  V30 2212 H 194.258 0.784204 -6.0161 0
M  V30 2213 H 192.997 1.01008 -4.77126 0
M  V30 2214 H 192.002 -1.21796 -5.3614 0
M  V30 2215 H 193.227 -1.43145 -6.63842 0
M  V30 2216 H 191.173 0.808883 -6.50994 0
M  V30 2217 H 191.09 -0.584409 -7.53738 0
M  V30 2218 H 192.358 0.581123 -7.77331 0
M  V30 2219 N 196.587 1.43421 -0.653314 0
M  V30 2220 C 197.497 2.34568 0.0388565 0
M  V30 2221 C 198.513 1.53888 0.81207 0
M  V30 2222 O 199.689 1.86539 0.759294 0
M  V30 2223 C 196.754 3.32167 0.993269 0
M  V30 2224 C 195.815 4.28751 0.216977 0
M  V30 2225 C 195.048 5.21688 1.12593 0
M  V30 2226 O 195.271 5.19052 2.36519 0
M  V30 2227 O 194.205 5.98919 0.598284 0
M  V30 2228 H 198.031 2.95251 -0.711386 0
M  V30 2229 H 195.616 1.43564 -0.413502 0
M  V30 2230 H 197.498 3.92183 1.54176 0
M  V30 2231 H 196.173 2.73987 1.72374 0
M  V30 2232 H 195.08 3.72215 -0.375101 0
M  V30 2233 H 196.413 4.89913 -0.473924 0
M  V30 2234 N 198.065 0.39524 1.52563 0
M  V30 2235 C 198.997 -0.472201 2.24283 0
M  V30 2236 C 200.01 -1.02178 1.26742 0
M  V30 2237 O 201.199 -0.923097 1.52778 0
M  V30 2238 C 198.299 -1.66775 2.95024 0
M  V30 2239 C 197.472 -1.2445 4.19322 0
M  V30 2240 C 196.531 -2.30539 4.7301 0
M  V30 2241 O 195.557 -1.91702 5.35947 0
M  V30 2242 N 196.759 -3.6253 4.53379 0
M  V30 2243 H 199.524 0.142282 2.99362 0
M  V30 2244 H 197.085 0.2219 1.60372 0
M  V30 2245 H 199.077 -2.37283 3.27839 0
M  V30 2246 H 197.647 -2.18845 2.23217 0
M  V30 2247 H 196.867 -0.368069 3.92478 0
M  V30 2248 H 198.155 -0.938457 5.0007 0
M  V30 2249 H 197.553 -3.96841 4.03154 0
M  V30 2250 H 196.11 -4.29055 4.90668 0
M  V30 2251 N 199.544 -1.57102 0.125237 0
M  V30 2252 C 200.79 -1.95697 -0.532035 0
M  V30 2253 C 201.123 -1.009 -1.6593 0
M  V30 2254 O 200.398 -0.047347 -1.94442 0
M  V30 2255 C 200.681 -3.44181 -1.05884 0
M  V30 2256 C 200.534 -4.49752 0.0654392 0
M  V30 2257 C 201.853 -3.94655 -1.9477 0
M  V30 2258 H 198.972 -0.711571 -0.191925 0
M  V30 2259 H 201.614 -1.88923 0.20206 0
M  V30 2260 H 199.764 -3.50085 -1.68442 0
M  V30 2261 H 201.436 -4.55943 0.700982 0
M  V30 2262 H 199.679 -4.27653 0.727709 0
M  V30 2263 H 200.35 -5.50924 -0.344505 0
M  V30 2264 H 202.826 -3.91094 -1.42074 0
M  V30 2265 H 201.702 -4.99057 -2.28546 0
M  V30 2266 H 201.963 -3.35718 -2.87656 0
M  V30 2267 N 201.022 0.148545 -1.56898 0
M  V30 2268 C 202.438 0.501131 -1.51528 0
M  V30 2269 C 202.638 1.83458 -0.833399 0
M  V30 2270 O 201.694 2.49259 -0.40328 0
M  V30 2271 C 203.007 0.512864 -2.96294 0
M  V30 2272 C 204.555 0.598487 -3.07225 0
M  V30 2273 C 205.03 0.640897 -4.53494 0
M  V30 2274 N 206.521 0.703163 -4.57832 0
M  V30 2275 C 207.256 0.756935 -5.68382 0
M  V30 2276 N 206.752 0.770147 -6.88506 0
M  V30 2277 N 208.545 0.797698 -5.56411 0
M  V30 2278 H 200.696 -0.725532 -1.99624 0
M  V30 2279 H 202.959 -0.264358 -0.910395 0
M  V30 2280 H 202.665 -0.398691 -3.49433 0
M  V30 2281 H 202.539 1.35133 -3.52163 0
M  V30 2282 H 204.926 1.50046 -2.54106 0
M  V30 2283 H 205.007 -0.267093 -2.54402 0
M  V30 2284 H 204.651 -0.256915 -5.0725 0
M  V30 2285 H 204.581 1.52295 -5.04097 0
M  V30 2286 H 207.072 0.700314 -3.71354 0
M  V30 2287 H 207.385 0.812983 -7.68512 0
M  V30 2288 H 205.73 0.738049 -6.9107 0
M  V30 2289 H 208.921 0.784535 -4.61479 0
M  V30 2290 H 209.094 0.83614 -6.42583 0
M  V30 2291 N 202.5 1.5196 0.417844 0
M  V30 2292 C 203.43 1.77634 1.51554 0
M  V30 2293 C 204.411 0.626918 1.58126 0
M  V30 2294 O 205.596 0.871632 1.7354 0
M  V30 2295 C 202.726 1.91911 2.8946 0
M  V30 2296 C 201.68 3.07463 2.97743 0
M  V30 2297 C 201.006 3.06951 4.37819 0
M  V30 2298 C 202.306 4.47082 2.70027 0
M  V30 2299 H 204 2.6955 1.3032 0
M  V30 2300 H 201.546 1.29706 0.625492 0
M  V30 2301 H 203.499 2.08455 3.6623 0
M  V30 2302 H 202.223 0.966598 3.11969 0
M  V30 2303 H 200.882 2.90656 2.23416 0
M  V30 2304 H 200.53 2.09438 4.57323 0
M  V30 2305 H 200.23 3.84556 4.44286 0
M  V30 2306 H 201.754 3.25613 5.16535 0
M  V30 2307 H 203.168 4.6414 3.36522 0
M  V30 2308 H 201.565 5.2654 2.87881 0
M  V30 2309 H 202.635 4.55777 1.65514 0
M  V30 2310 N 203.978 -0.674533 1.42435 0
M  V30 2311 C 204.925 -1.78807 1.45934 0
M  V30 2312 C 205.895 -1.63157 0.311271 0
M  V30 2313 O 207.08 -1.83707 0.515383 0
M  V30 2314 C 204.22 -3.16839 1.36773 0
M  V30 2315 C 203.333 -3.43774 2.61617 0
M  V30 2316 C 202.468 -4.71536 2.44597 0
M  V30 2317 C 201.507 -4.91505 3.64814 0
M  V30 2318 N 200.644 -6.10508 3.46734 0
M  V30 2319 H 205.484 -1.75151 2.41093 0
M  V30 2320 H 203.021 -0.85504 1.19697 0
M  V30 2321 H 204.979 -3.96606 1.29459 0
M  V30 2322 H 203.609 -3.19619 0.452089 0
M  V30 2323 H 202.661 -2.58259 2.79297 0
M  V30 2324 H 203.973 -3.54423 3.50978 0
M  V30 2325 H 203.127 -5.59393 2.3487 0
M  V30 2326 H 201.866 -4.6317 1.52726 0
M  V30 2327 H 200.871 -4.0209 3.74972 0
M  V30 2328 H 202.096 -5.01716 4.57665 0
M  V30 2329 H 200.042 -6.03315 2.5758 0
M  V30 2330 H 199.959 -6.2202 4.29682 0
M  V30 2331 H 201.227 -7.01044 3.40819 0
M  V30 2332 N 205.456 -1.28612 -0.910864 0
M  V30 2333 C 206.406 -1.09423 -2.00026 0
M  V30 2334 C 207.39 -0.0170079 -1.60891 0
M  V30 2335 O 208.582 -0.237472 -1.754 0
M  V30 2336 C 205.711 -0.76114 -3.34756 0
M  V30 2337 C 204.797 -1.87735 -3.80285 0
M  V30 2338 N 205.188 -3.11938 -3.98156 0
M  V30 2339 C 203.486 -1.76786 -4.09467 0
M  V30 2340 C 204.187 -3.84687 -4.36338 0
M  V30 2341 N 203.163 -3.12555 -4.44759 0
M  V30 2342 H 206.965 -2.03658 -2.11898 0
M  V30 2343 H 204.479 -1.19573 -1.09891 0
M  V30 2344 H 206.476 -0.604743 -4.12491 0
M  V30 2345 H 205.136 0.173403 -3.24237 0
M  V30 2346 H 206.147 -3.47516 -3.83996 0
M  V30 2347 H 202.824 -0.905284 -4.07567 0
M  V30 2348 H 204.214 -4.91518 -4.58104 0
M  V30 2349 N 206.934 1.1197 -1.10907 0
M  V30 2350 C 207.844 2.21433 -0.774896 0
M  V30 2351 C 208.86 1.72478 0.229657 0
M  V30 2352 O 210.036 2.01288 0.0672008 0
M  V30 2353 C 207.101 3.4602 -0.216986 0
M  V30 2354 C 206.162 4.09791 -1.27944 0
M  V30 2355 C 205.395 5.28431 -0.748055 0
M  V30 2356 O 205.618 5.68823 0.423833 0
M  V30 2357 O 204.552 5.82644 -1.51027 0
M  V30 2358 H 208.378 2.5242 -1.68873 0
M  V30 2359 H 205.963 1.20399 -0.884555 0
M  V30 2360 H 207.845 4.21304 0.090059 0
M  V30 2361 H 206.52 3.16698 0.669633 0
M  V30 2362 H 205.427 3.36265 -1.63941 0
M  V30 2363 H 206.76 4.4328 -2.13925 0
M  V30 2364 N 208.412 0.89855 1.29475 0
M  V30 2365 C 209.342 0.39201 2.30186 0
M  V30 2366 C 210.323 -0.532359 1.61555 0
M  V30 2367 O 211.508 -0.443331 1.89072 0
M  V30 2368 C 208.638 -0.382353 3.45189 0
M  V30 2369 C 207.592 0.451483 4.25612 0
M  V30 2370 C 206.918 -0.450307 5.328 0
M  V30 2371 C 208.218 1.70079 4.93832 0
M  V30 2372 H 209.912 1.23362 2.72804 0
M  V30 2373 H 207.458 0.594638 1.31149 0
M  V30 2374 H 209.411 -0.747451 4.14718 0
M  V30 2375 H 208.135 -1.25774 3.01411 0
M  V30 2376 H 206.794 0.798897 3.57789 0
M  V30 2377 H 206.442 -1.32379 4.85268 0
M  V30 2378 H 206.142 0.103902 5.87508 0
M  V30 2379 H 207.666 -0.811623 6.05182 0
M  V30 2380 H 209.08 1.40549 5.55805 0
M  V30 2381 H 207.477 2.19623 5.58467 0
M  V30 2382 H 208.547 2.43744 4.19186 0
M  V30 2383 N 209.89 -1.43072 0.660911 0
M  V30 2384 C 210.8 -2.34585 -0.0264163 0
M  V30 2385 C 211.816 -1.54316 -0.803898 0
M  V30 2386 O 212.992 -1.86939 -0.749391 0
M  V30 2387 C 210.057 -3.32689 -0.975639 0
M  V30 2388 C 209.118 -4.2886 -0.194236 0
M  V30 2389 C 208.351 -5.22278 -1.09825 0
M  V30 2390 O 208.574 -5.20299 -2.33763 0
M  V30 2391 O 207.508 -5.99228 -0.566513 0
M  V30 2392 H 211.334 -2.94869 0.727034 0
M  V30 2393 H 208.919 -1.43342 0.42111 0
M  V30 2394 H 210.801 -3.92995 -1.52094 0
M  V30 2395 H 209.476 -2.74898 -1.70918 0
M  V30 2396 H 208.383 -3.72011 0.394835 0
M  V30 2397 H 209.716 -4.89655 0.499899 0
M  V30 2398 N 211.368 -0.403325 -1.52352 0
M  V30 2399 C 212.784 -0.0539281 -1.59509 0
M  V30 2400 C 212.984 1.43307 -1.41652 0
M  V30 2401 O 212.04 2.19924 -1.24056 0
M  V30 2402 C 213.353 -0.543654 -2.95745 0
M  V30 2403 C 214.901 -0.501125 -3.08962 0
M  V30 2404 C 215.376 -0.967267 -4.47669 0
M  V30 2405 N 216.867 -0.923849 -4.53893 0
M  V30 2406 C 217.602 -1.25578 -5.5948 0
M  V30 2407 N 217.098 -1.65889 -6.72646 0
M  V30 2408 N 218.891 -1.17613 -5.49658 0
M  V30 2409 H 211.042 -1.37123 -1.62206 0
M  V30 2410 H 213.305 -0.56294 -0.76276 0
M  V30 2411 H 213.011 -1.58275 -3.14073 0
M  V30 2412 H 212.885 0.0498042 -3.77167 0
M  V30 2413 H 215.272 0.528909 -2.90321 0
M  V30 2414 H 215.353 -1.13056 -2.2946 0
M  V30 2415 H 214.997 -1.9956 -4.67053 0
M  V30 2416 H 214.927 -0.314698 -5.25659 0
M  V30 2417 H 217.418 -0.627403 -3.72655 0
M  V30 2418 H 217.731 -1.89543 -7.49195 0
M  V30 2419 H 216.076 -1.69787 -6.73942 0
M  V30 2420 H 219.267 -0.860115 -4.6013 0
M  V30 2421 H 219.44 -1.43812 -6.3184 0
M  V30 2422 N 212.846 1.57033 -0.133567 0
M  V30 2423 C 213.776 2.1909 0.807567 0
M  V30 2424 C 214.757 1.13517 1.26681 0
M  V30 2425 O 215.942 1.41809 1.32679 0
M  V30 2426 C 213.072 2.80188 2.05212 0
M  V30 2427 C 212.026 3.91471 1.73015 0
M  V30 2428 C 211.352 4.39443 3.04622 0
M  V30 2429 C 212.652 5.12886 0.987168 0
M  V30 2430 H 214.346 2.97988 0.290403 0
M  V30 2431 H 211.892 1.43335 0.138239 0
M  V30 2432 H 213.845 3.22264 2.71521 0
M  V30 2433 H 212.569 1.98601 2.59278 0
M  V30 2434 H 211.228 3.49993 1.0909 0
M  V30 2435 H 210.876 3.54695 3.56651 0
M  V30 2436 H 210.576 5.14495 2.83847 0
M  V30 2437 H 212.1 4.8418 3.72024 0
M  V30 2438 H 213.514 5.51891 1.55208 0
M  V30 2439 H 211.911 5.93615 0.87985 0
M  V30 2440 H 212.981 4.84894 -0.0235286 0
M  V30 2441 N 214.325 -0.140222 1.56975 0
M  V30 2442 C 215.257 -1.19818 1.95388 0
M  V30 2443 C 216.27 -1.38816 0.850525 0
M  V30 2444 O 217.459 -1.38267 1.12891 0
M  V30 2445 C 214.559 -2.56189 2.21857 0
M  V30 2446 C 213.732 -2.58077 3.5315 0
M  V30 2447 C 212.791 -3.76037 3.6808 0
M  V30 2448 O 211.817 -3.60598 4.40406 0
M  V30 2449 N 213.019 -4.93763 3.05251 0
M  V30 2450 H 215.784 -0.871609 2.86746 0
M  V30 2451 H 213.345 -0.32972 1.58507 0
M  V30 2452 H 215.337 -3.33623 2.2908 0
M  V30 2453 H 213.907 -2.81111 1.36731 0
M  V30 2454 H 213.127 -1.6651 3.57307 0
M  V30 2455 H 214.415 -2.56377 4.39486 0
M  V30 2456 H 213.813 -5.09209 2.46419 0
M  V30 2457 H 212.37 -5.68949 3.18026 0
M  V30 2458 N 215.803 -1.52179 -0.40978 0
M  V30 2459 C 216.75 -1.75475 -1.49924 0
M  V30 2460 C 217.72 -0.597175 -1.54994 0
M  V30 2461 O 218.905 -0.834655 -1.71575 0
M  V30 2462 C 216.045 -1.9107 -2.87378 0
M  V30 2463 C 215.158 -3.18717 -2.91622 0
M  V30 2464 C 214.293 -3.24747 -4.20372 0
M  V30 2465 C 213.332 -4.46598 -4.18588 0
M  V30 2466 N 212.469 -4.50025 -5.38908 0
M  V30 2467 H 217.309 -2.68458 -1.29361 0
M  V30 2468 H 214.846 -1.33024 -0.627934 0
M  V30 2469 H 216.804 -1.98096 -3.6717 0
M  V30 2470 H 215.434 -1.01469 -3.06437 0
M  V30 2471 H 214.486 -3.20866 -2.04326 0
M  V30 2472 H 215.798 -4.08544 -2.86169 0
M  V30 2473 H 214.952 -3.30841 -5.08556 0
M  V30 2474 H 213.691 -2.32857 -4.28519 0
M  V30 2475 H 212.696 -4.40652 -3.28794 0
M  V30 2476 H 213.921 -5.39783 -4.12081 0
M  V30 2477 H 211.867 -3.61017 -5.47725 0
M  V30 2478 H 211.784 -5.33697 -5.35447 0
M  V30 2479 H 213.052 -4.60347 -6.29048 0
M  V30 2480 N 217.281 0.66697 -1.42791 0
M  V30 2481 C 218.511 1.45294 -1.46878 0
M  V30 2482 C 218.919 1.89027 -0.0809861 0
M  V30 2483 O 218.262 1.59219 0.916246 0
M  V30 2484 C 218.324 2.72908 -2.34012 0
M  V30 2485 C 217.988 2.51203 -3.81767 0
M  V30 2486 C 218.985 2.15302 -4.73224 0
M  V30 2487 C 216.67 2.65954 -4.26115 0
M  V30 2488 C 218.664 1.94431 -6.07022 0
M  V30 2489 C 216.351 2.44699 -5.59969 0
M  V30 2490 C 217.349 2.08992 -6.5024 0
M  V30 2491 O 217.037 1.87948 -7.81621 0
M  V30 2492 H 216.769 0.453306 -0.501487 0
M  V30 2493 H 219.323 0.826232 -1.88049 0
M  V30 2494 H 217.553 3.38089 -1.87703 0
M  V30 2495 H 219.242 3.34816 -2.29462 0
M  V30 2496 H 220.008 2.03495 -4.40244 0
M  V30 2497 H 215.887 2.92724 -3.56137 0
M  V30 2498 H 219.431 1.66484 -6.77443 0
M  V30 2499 H 215.328 2.56105 -5.9252 0
M  V30 2500 H 216.096 2.02483 -7.93059 0
M  V30 2501 N 218.759 1.29093 0.90403 0
M  V30 2502 C 219.689 1.16401 2.02418 0
M  V30 2503 C 220.67 0.0593085 1.69997 0
M  V30 2504 O 221.855 0.238021 1.92736 0
M  V30 2505 C 218.985 0.835233 3.37107 0
M  V30 2506 C 217.939 1.89578 3.83724 0
M  V30 2507 C 217.265 1.42041 5.15489 0
M  V30 2508 C 218.565 3.30394 4.04521 0
M  V30 2509 H 220.259 2.10109 2.13295 0
M  V30 2510 H 217.805 1.01157 1.02486 0
M  V30 2511 H 219.758 0.733169 4.14973 0
M  V30 2512 H 218.482 -0.137543 3.2631 0
M  V30 2513 H 217.141 1.98715 3.08071 0
M  V30 2514 H 216.789 0.436426 5.01103 0
M  V30 2515 H 216.489 2.12964 5.4765 0
M  V30 2516 H 218.013 1.33176 5.959 0
M  V30 2517 H 219.427 3.24123 4.72882 0
M  V30 2518 H 217.824 3.99237 4.48029 0
M  V30 2519 H 218.894 3.73692 3.09002 0
M  V30 2520 N 220.237 -1.11381 1.11499 0
M  V30 2521 C 221.462 -1.87475 0.887019 0
M  V30 2522 C 221.887 -1.79639 -0.557796 0
M  V30 2523 O 221.245 -1.15924 -1.39396 0
M  V30 2524 C 221.293 -3.34213 1.35403 0
M  V30 2525 O 220.397 -4.0903 0.526146 0
M  V30 2526 H 219.738 -0.582099 0.319463 0
M  V30 2527 H 222.268 -1.40785 1.48461 0
M  V30 2528 H 222.278 -3.8506 1.34881 0
M  V30 2529 H 220.953 -3.39232 2.40612 0
M  V30 2530 H 219.53 -3.68082 0.597522 0
M  V30 2531 N 221.715 -0.905404 -1.28997 0
M  V30 2532 C 222.963 -0.533192 -1.9494 0
M  V30 2533 C 223.284 0.924618 -1.71685 0
M  V30 2534 O 222.554 1.65268 -1.05183 0
M  V30 2535 H 221.134 -0.194194 -0.721317 0
M  V30 2536 H 223.796 -1.15294 -1.57141 0
M  V30 2537 H 222.892 -0.72059 -3.03667 0
M  V30 2538 N 223.193 1.4272 -0.668489 0
M  V30 2539 C 224.44 2.01624 -0.18814 0
M  V30 2540 C 224.768 1.5282 1.20317 0
M  V30 2541 O 224.023 0.718323 1.8204 0
M  V30 2542 C 224.322 3.57021 -0.164499 0
M  V30 2543 C 223.988 4.25232 -1.49962 0
M  V30 2544 C 222.65 4.4358 -1.8652 0
M  V30 2545 C 225.002 4.63727 -2.37921 0
M  V30 2546 C 222.33 4.97694 -3.10674 0
M  V30 2547 C 224.682 5.19218 -3.6138 0
M  V30 2548 C 223.346 5.3578 -3.98115 0
M  V30 2549 H 222.616 0.737795 -0.0688454 0
M  V30 2550 H 225.263 1.70991 -0.862225 0
M  V30 2551 H 223.568 3.87285 0.593079 0
M  V30 2552 H 225.265 4.00372 0.224271 0
M  V30 2553 H 221.855 4.11306 -1.20522 0
M  V30 2554 H 226.039 4.4923 -2.10964 0
M  V30 2555 H 221.295 5.08702 -3.39164 0
M  V30 2556 H 225.469 5.4799 -4.29743 0
M  V30 2557 H 223.096 5.77475 -4.94395 0
M  V30 2558 N 224.671 0.411399 1.52136 0
M  V30 2559 C 226.087 0.0623865 1.59478 0
M  V30 2560 C 226.287 -1.42554 1.4241 0
M  V30 2561 O 225.343 -2.19263 1.2522 0
M  V30 2562 C 226.656 0.559331 2.95452 0
M  V30 2563 C 228.204 0.517503 3.08692 0
M  V30 2564 C 228.679 0.990994 4.4715 0
M  V30 2565 N 230.17 0.947908 4.53397 0
M  V30 2566 C 230.905 1.28544 5.58806 0
M  V30 2567 N 230.401 1.69454 6.71757 0
M  V30 2568 N 232.194 1.20526 5.49026 0
M  V30 2569 H 224.345 1.37982 1.61477 0
M  V30 2570 H 226.608 0.566977 0.759764 0
M  V30 2571 H 226.314 1.59938 3.1323 0
M  V30 2572 H 226.188 -0.0298014 3.77188 0
M  V30 2573 H 228.575 -0.513505 2.90598 0
M  V30 2574 H 228.656 1.14272 2.28857 0
M  V30 2575 H 228.3 2.02034 4.65988 0
M  V30 2576 H 228.23 0.34257 5.25485 0
M  V30 2577 H 230.721 0.647157 3.72317 0
M  V30 2578 H 231.034 1.93513 7.48179 0
M  V30 2579 H 229.379 1.73359 6.73032 0
M  V30 2580 H 232.57 0.884505 4.59667 0
M  V30 2581 H 232.743 1.47161 6.31069 0
M  V30 2582 N 226.149 -1.5696 0.141893 0
M  V30 2583 C 227.079 -2.19516 -0.795936 0
M  V30 2584 C 228.06 -1.14187 -1.26077 0
M  V30 2585 O 229.245 -1.42511 -1.31925 0
M  V30 2586 C 226.375 -2.81272 -2.03723 0
M  V30 2587 C 225.329 -3.92384 -1.70936 0
M  V30 2588 C 224.655 -4.41052 -3.02287 0
M  V30 2589 C 225.955 -5.13403 -0.959954 0
M  V30 2590 H 227.649 -2.98138 -0.274596 0
M  V30 2591 H 225.195 -1.43406 -0.130636 0
M  V30 2592 H 227.148 -3.237 -2.69808 0
M  V30 2593 H 225.872 -1.99973 -2.58221 0
M  V30 2594 H 224.531 -3.50566 -1.07232 0
M  V30 2595 H 224.179 -3.56582 -3.54765 0
M  V30 2596 H 223.879 -5.15993 -2.81114 0
M  V30 2597 H 225.403 -4.86146 -3.69451 0
M  V30 2598 H 226.817 -5.52706 -1.52279 0
M  V30 2599 H 225.214 -5.94073 -0.848357 0
M  V30 2600 H 226.284 -4.84875 0.0492434 0
M  V30 2601 N 227.627 0.131896 -1.57047 0
M  V30 2602 C 228.557 1.16384 -2.02428 0
M  V30 2603 C 229.538 1.43936 -0.90644 0
M  V30 2604 O 230.723 1.54599 -1.17528 0
M  V30 2605 C 227.853 2.49328 -2.4177 0
M  V30 2606 C 226.807 2.36266 -3.56879 0
M  V30 2607 C 226.133 3.74057 -3.8208 0
M  V30 2608 C 227.433 1.834 -4.89042 0
M  V30 2609 H 229.127 0.786433 -2.88887 0
M  V30 2610 H 226.673 0.376855 -1.38981 0
M  V30 2611 H 228.626 3.21759 -2.7212 0
M  V30 2612 H 227.35 2.88934 -1.52266 0
M  V30 2613 H 226.009 1.66286 -3.26718 0
M  V30 2614 H 225.657 4.11125 -2.89803 0
M  V30 2615 H 225.357 3.66174 -4.59554 0
M  V30 2616 H 226.881 4.48012 -4.1487 0
M  V30 2617 H 228.295 2.45636 -5.18011 0
M  V30 2618 H 226.692 1.8637 -5.70426 0
M  V30 2619 H 227.762 0.790662 -4.7841 0
M  V30 2620 N 229.106 1.52395 0.401703 0
M  V30 2621 C 230.053 1.76268 1.48991 0
M  V30 2622 C 231.023 0.605386 1.54675 0
M  V30 2623 O 232.208 0.843742 1.7113 0
M  V30 2624 C 229.348 1.92592 2.86361 0
M  V30 2625 C 228.461 3.20259 2.89928 0
M  V30 2626 C 227.596 3.26972 4.18644 0
M  V30 2627 C 226.635 4.48812 4.16214 0
M  V30 2628 N 225.772 4.52877 5.36514 0
M  V30 2629 H 230.612 2.6914 1.27935 0
M  V30 2630 H 228.149 1.33355 0.620871 0
M  V30 2631 H 230.107 2.0004 3.66115 0
M  V30 2632 H 228.737 1.03093 3.05895 0
M  V30 2633 H 227.789 3.21945 2.02621 0
M  V30 2634 H 229.101 4.10056 2.83999 0
M  V30 2635 H 228.255 3.33533 5.06794 0
M  V30 2636 H 226.994 2.35126 4.27278 0
M  V30 2637 H 225.999 4.4239 3.26453 0
M  V30 2638 H 227.224 5.41961 4.09213 0
M  V30 2639 H 225.17 3.63917 5.45802 0
M  V30 2640 H 225.087 5.36529 5.32609 0
M  V30 2641 H 226.355 4.63676 6.26597 0
M  V30 2642 N 230.584 -0.659388 1.43143 0
M  V30 2643 C 232 -0.974337 1.26407 0
M  V30 2644 C 232.2 -2.007 0.179341 0
M  V30 2645 O 231.256 -2.4856 -0.444295 0
M  V30 2646 C 232.569 -1.46447 2.62628 0
M  V30 2647 C 234.117 -1.58144 2.7011 0
M  V30 2648 C 234.592 -2.1055 4.06734 0
M  V30 2649 N 236.083 -2.17861 4.08767 0
M  V30 2650 C 236.818 -2.59519 5.1131 0
M  V30 2651 N 236.314 -3.00518 6.24228 0
M  V30 2652 N 238.107 -2.59404 4.98664 0
M  V30 2653 H 230.258 0.0240528 2.12386 0
M  V30 2654 H 232.521 -0.0518065 0.946583 0
M  V30 2655 H 232.227 -0.780123 3.42939 0
M  V30 2656 H 232.101 -2.44058 2.87603 0
M  V30 2657 H 234.488 -2.25682 1.90136 0
M  V30 2658 H 234.569 -0.589828 2.48907 0
M  V30 2659 H 234.213 -1.43616 4.87172 0
M  V30 2660 H 234.143 -3.10531 4.25298 0
M  V30 2661 H 236.634 -1.88975 3.27257 0
M  V30 2662 H 236.947 -3.31036 6.98309 0
M  V30 2663 H 235.292 -2.98337 6.2771 0
M  V30 2664 H 238.483 -2.26747 4.09516 0
M  V30 2665 H 238.656 -2.91548 5.78709 0
M  V30 2666 N 232.062 -1.29571 -0.897171 0
M  V30 2667 C 232.992 -1.17473 -2.01798 0
M  V30 2668 C 233.973 -0.068323 -1.69963 0
M  V30 2669 O 235.158 -0.248239 -1.92607 0
M  V30 2670 C 232.288 -0.853099 -3.36659 0
M  V30 2671 C 231.242 -1.9161 -3.82713 0
M  V30 2672 C 230.568 -1.44773 -5.14728 0
M  V30 2673 C 231.868 -3.32535 -4.02763 0
M  V30 2674 H 233.562 -2.11237 -2.12177 0
M  V30 2675 H 231.108 -1.01699 -1.01948 0
M  V30 2676 H 233.061 -0.755165 -4.14578 0
M  V30 2677 H 231.785 0.120236 -3.26379 0
M  V30 2678 H 230.444 -2.00346 -3.07013 0
M  V30 2679 H 230.092 -0.462995 -5.00865 0
M  V30 2680 H 229.792 -2.15865 -5.46513 0
M  V30 2681 H 231.316 -1.36334 -5.95185 0
M  V30 2682 H 232.73 -3.26626 -4.71156 0
M  V30 2683 H 231.127 -4.01607 -4.45905 0
M  V30 2684 H 232.197 -3.75326 -3.07016 0
M  V30 2685 N 233.54 1.10788 -1.12088 0
M  V30 2686 C 234.951 1.64181 -0.88891 0
M  V30 2687 C 235.302 1.87508 0.577498 0
M  V30 2688 O 234.427 1.61434 1.44112 0
M  V30 2689 C 235.022 2.98257 -1.60712 0
M  V30 2690 C 233.581 3.4853 -1.42139 0
M  V30 2691 C 232.728 2.23208 -1.6454 0
M  V30 2692 H 235.679 0.943368 -1.27618 0
M  V30 2693 H 235.7 3.65552 -1.05604 0
M  V30 2694 H 235.212 2.81246 -2.67436 0
M  V30 2695 H 233.313 3.70692 -0.376552 0
M  V30 2696 H 233.426 4.26882 -2.17505 0
M  V30 2697 H 231.79 2.31169 -1.06925 0
M  V30 2698 H 232.573 2.08733 -2.72554 0
M  V30 2699 N 235.018 0.912232 1.28515 0
M  V30 2700 C 236.295 0.463597 1.90027 0
M  V30 2701 C 236.675 -1.05753 1.82701 0
M  V30 2702 O 236.023 -1.90492 1.26194 0
M  V30 2703 C 236.233 0.992253 3.34597 0
M  V30 2704 C 237.581 1.04344 4.11579 0
M  V30 2705 O 238.605 0.94079 3.43551 0
M  V30 2706 O 237.464 1.1995 5.33174 0
M  V30 2707 H 234.558 0.146666 0.813891 0
M  V30 2708 H 237.104 1.00292 1.36893 0
M  V30 2709 H 235.876 2.03623 3.34146 0
M  V30 2710 H 235.499 0.433672 3.95228 0
M  V30 2711 N 236.496 -1.42363 0.676048 0
M  V30 2712 C 237.459 -2.29199 0.00766941 0
M  V30 2713 C 238.459 -1.43389 -0.727745 0
M  V30 2714 O 239.649 -1.64764 -0.56556 0
M  V30 2715 C 236.781 -3.2591 -0.999785 0
M  V30 2716 H 237.974 -2.89794 0.771988 0
M  V30 2717 H 235.527 -1.50024 0.438468 0
M  V30 2718 H 236.262 -2.70256 -1.79255 0
M  V30 2719 H 236.047 -3.89202 -0.475829 0
M  V30 2720 H 237.537 -3.91028 -1.46583 0
M  V30 2721 N 237.974 -0.419461 -1.51915 0
M  V30 2722 C 239.223 0.154346 -2.01109 0
M  V30 2723 C 239.536 1.45338 -1.30905 0
M  V30 2724 O 240.742 2.10906 -1.7097 0
M  V30 2725 C 239.198 0.325615 -3.58424 0
M  V30 2726 C 238.806 -0.961934 -4.37551 0
M  V30 2727 C 240.55 0.854155 -4.15818 0
M  V30 2728 C 238.457 -0.757287 -5.86531 0
M  V30 2729 H 237.387 0.0614563 -0.751491 0
M  V30 2730 H 240.038 -0.54649 -1.75173 0
M  V30 2731 H 238.42 1.08903 -3.80731 0
M  V30 2732 H 239.594 -1.7323 -4.26999 0
M  V30 2733 H 237.909 -1.41766 -3.91524 0
M  V30 2734 H 240.506 1.02346 -5.24814 0
M  V30 2735 H 240.849 1.83172 -3.73837 0
M  V30 2736 H 241.382 0.149528 -3.97519 0
M  V30 2737 H 238.121 -1.70671 -6.32892 0
M  V30 2738 H 237.641 -0.0264061 -5.99794 0
M  V30 2739 H 239.32 -0.403482 -6.45741 0
M  V30 2740 N 239.452 1.56882 -0.150215 0
M  V30 2741 C 240.699 1.96228 0.500093 0
M  V30 2742 C 241.027 1.03522 1.64661 0
M  V30 2743 O 240.282 0.0650683 1.95592 0
M  V30 2744 C 240.581 3.41801 1.04437 0
M  V30 2745 C 240.247 4.50897 0.0159671 0
M  V30 2746 C 238.909 4.8046 -0.266731 0
M  V30 2747 C 241.261 5.16703 -0.683192 0
M  V30 2748 C 238.589 5.73135 -1.25434 0
M  V30 2749 C 240.941 6.10441 -1.65964 0
M  V30 2750 C 239.605 6.38382 -1.95 0
M  V30 2751 H 238.875 0.718048 0.182997 0
M  V30 2752 H 241.522 1.90019 -0.237724 0
M  V30 2753 H 239.827 3.44857 1.85959 0
M  V30 2754 H 241.524 3.69573 1.55618 0
M  V30 2755 H 238.114 4.27891 0.246485 0
M  V30 2756 H 242.298 4.93993 -0.477983 0
M  V30 2757 H 237.554 5.93074 -1.48571 0
M  V30 2758 H 241.728 6.60507 -2.20689 0
M  V30 2759 H 239.355 7.09996 -2.71679 0
M  V30 2760 N 240.93 -0.123565 1.57115 0
M  V30 2761 C 242.176 -0.833386 1.84885 0
M  V30 2762 C 242.509 -1.79742 0.735292 0
M  V30 2763 O 241.784 -1.92764 -0.25925 0
M  V30 2764 C 242.067 -1.5873 3.23228 0
M  V30 2765 C 241.92 -0.643183 4.45178 0
M  V30 2766 C 243.239 -2.54453 3.59085 0
M  V30 2767 H 240.358 -0.301518 0.6725 0
M  V30 2768 H 243 -0.097778 1.89748 0
M  V30 2769 H 241.15 -2.21438 3.19214 0
M  V30 2770 H 242.822 -0.0253015 4.61293 0
M  V30 2771 H 241.065 0.0456139 4.33776 0
M  V30 2772 H 241.736 -1.20724 5.38637 0
M  V30 2773 H 244.212 -2.01853 3.63861 0
M  V30 2774 H 243.088 -3.04238 4.5687 0
M  V30 2775 H 243.349 -3.36906 2.86264 0
M  V30 2776 N 242.408 -1.52605 -0.393616 0
M  V30 2777 C 243.654 -1.67672 -1.14079 0
M  V30 2778 C 243.987 -0.413121 -1.89755 0
M  V30 2779 O 243.262 0.588952 -1.85369 0
M  V30 2780 C 243.545 -2.9088 -2.12276 0
M  V30 2781 C 243.398 -4.27329 -1.40394 0
M  V30 2782 C 244.717 -3.09628 -3.12759 0
M  V30 2783 H 241.836 -0.610168 -0.413356 0
M  V30 2784 H 244.478 -1.85193 -0.424696 0
M  V30 2785 H 242.628 -2.76073 -2.73342 0
M  V30 2786 H 244.3 -4.53894 -0.82327 0
M  V30 2787 H 242.543 -4.2802 -0.705801 0
M  V30 2788 H 243.214 -5.09615 -2.12123 0
M  V30 2789 H 245.69 -3.23436 -2.61779 0
M  V30 2790 H 244.566 -3.97322 -3.78717 0
M  V30 2791 H 244.827 -2.23637 -3.81365 0
M  V30 2792 N 243.887 0.651787 -1.4349 0
M  V30 2793 C 245.164 1.40909 -1.35661 0
M  V30 2794 C 245.544 2.11099 -0.00511733 0
M  V30 2795 O 244.892 2.04892 1.0115 0
M  V30 2796 C 245.102 2.3926 -2.54078 0
M  V30 2797 C 246.45 3.03217 -2.97228 0
M  V30 2798 O 247.474 2.49588 -2.54135 0
M  V30 2799 O 246.333 4.00455 -3.71885 0
M  V30 2800 H 243.427 0.629625 -0.536191 0
M  V30 2801 H 245.973 0.678575 -1.55542 0
M  V30 2802 H 244.745 1.86352 -3.44076 0
M  V30 2803 H 244.368 3.1976 -2.36303 0
M  V30 2804 N 245.365 1.30045 0.890287 0
M  V30 2805 C 246.776 1.16738 1.45702 0
M  V30 2806 C 247.127 -0.233939 1.948 0
M  V30 2807 O 246.252 -1.13021 1.84541 0
M  V30 2808 C 246.847 2.11313 2.64825 0
M  V30 2809 C 245.406 2.02001 3.17604 0
M  V30 2810 C 244.553 2.01699 1.90296 0
M  V30 2811 H 247.504 1.42392 0.700726 0
M  V30 2812 H 247.525 1.69086 3.40867 0
M  V30 2813 H 247.037 3.13294 2.2906 0
M  V30 2814 H 245.138 1.03142 3.5804 0
M  V30 2815 H 245.251 2.90128 3.81264 0
M  V30 2816 H 243.615 1.46427 2.08402 0
M  V30 2817 H 244.398 3.05402 1.56795 0
M  V30 2818 N 246.843 -1.10192 1.12674 0
M  V30 2819 C 248.071 -1.85983 0.906527 0
M  V30 2820 C 248.486 -1.80783 -0.544333 0
M  V30 2821 O 247.843 -1.19834 -1.37645 0
M  V30 2822 C 247.894 -3.34281 1.37618 0
M  V30 2823 O 247.615 -3.39401 2.77017 0
M  V30 2824 C 249.116 -4.26938 1.19325 0
M  V30 2825 H 246.336 -0.587716 0.323775 0
M  V30 2826 H 248.88 -1.39284 1.49734 0
M  V30 2827 H 247.035 -3.78436 0.828539 0
M  V30 2828 H 247.449 -4.31838 2.97684 0
M  V30 2829 H 248.923 -5.29181 1.57071 0
M  V30 2830 H 249.4 -4.38995 0.134097 0
M  V30 2831 H 250.006 -3.8859 1.72852 0
M  V30 2832 N 248.321 -0.919034 -1.28029 0
M  V30 2833 C 249.268 -0.410005 -2.27129 0
M  V30 2834 C 250.238 0.518405 -1.57803 0
M  V30 2835 O 251.423 0.439451 -1.8567 0
M  V30 2836 C 248.563 0.339054 -3.4343 0
M  V30 2837 C 247.676 -0.622468 -4.27492 0
M  V30 2838 C 246.811 0.145567 -5.31001 0
M  V30 2839 C 245.85 -0.809226 -6.06727 0
M  V30 2840 N 244.987 -0.0743728 -7.02061 0
M  V30 2841 H 249.827 -1.26011 -2.70047 0
M  V30 2842 H 247.364 -0.632663 -1.328 0
M  V30 2843 H 249.322 0.789586 -4.0966 0
M  V30 2844 H 247.952 1.15346 -3.01488 0
M  V30 2845 H 247.004 -1.19153 -3.61257 0
M  V30 2846 H 248.316 -1.35252 -4.80113 0
M  V30 2847 H 247.47 0.656417 -6.03139 0
M  V30 2848 H 246.209 0.908643 -4.79161 0
M  V30 2849 H 245.214 -1.3314 -5.33436 0
M  V30 2850 H 246.439 -1.57194 -6.60656 0
M  V30 2851 H 244.385 0.670616 -6.52563 0
M  V30 2852 H 244.302 -0.744157 -7.52329 0
M  V30 2853 H 245.57 0.416109 -7.78389 0
M  V30 2854 N 249.799 1.42003 -0.683588 0
M  V30 2855 C 250.709 2.34597 -0.0109075 0
M  V30 2856 C 251.725 1.55576 0.779245 0
M  V30 2857 O 252.901 1.88107 0.719555 0
M  V30 2858 C 249.966 3.34199 0.922588 0
M  V30 2859 C 249.027 4.29115 0.125984 0
M  V30 2860 C 248.26 5.23959 1.01502 0
M  V30 2861 O 248.483 5.23952 2.25456 0
M  V30 2862 O 247.417 6.00053 0.47111 0
M  V30 2863 H 251.243 2.93675 -0.773853 0
M  V30 2864 H 248.828 1.42654 -0.443861 0
M  V30 2865 H 250.71 3.95365 1.45823 0
M  V30 2866 H 249.385 2.77582 1.66523 0
M  V30 2867 H 248.292 3.71335 -0.453969 0
M  V30 2868 H 249.625 4.88798 -0.577736 0
M  V30 2869 N 251.277 0.427512 1.51691 0
M  V30 2870 C 252.24 -0.377132 2.26076 0
M  V30 2871 C 253.24 -0.958089 1.29141 0
M  V30 2872 O 254.43 -0.83408 1.52934 0
M  V30 2873 C 251.562 -1.53262 3.04506 0
M  V30 2874 H 252.755 0.27464 2.9864 0
M  V30 2875 H 250.308 0.180445 1.55255 0
M  V30 2876 H 251.043 -2.22072 2.36335 0
M  V30 2877 H 250.828 -1.12232 3.75694 0
M  V30 2878 H 252.318 -2.10135 3.60878 0
M  V30 2879 N 252.755 -1.56801 0.158532 0
M  V30 2880 C 254.004 -1.95665 -0.489702 0
M  V30 2881 C 254.317 -1.04654 -1.65248 0
M  V30 2882 O 255.523 -1.33146 -2.3661 0
M  V30 2883 C 253.979 -3.47874 -0.922582 0
M  V30 2884 C 253.587 -4.47489 0.213893 0
M  V30 2885 C 255.331 -3.95583 -1.53996 0
M  V30 2886 C 253.238 -5.90921 -0.237903 0
M  V30 2887 H 252.168 -0.730516 -0.186716 0
M  V30 2888 H 254.819 -1.81861 0.244722 0
M  V30 2889 H 253.201 -3.57051 -1.71261 0
M  V30 2890 H 254.375 -4.50017 0.991036 0
M  V30 2891 H 252.69 -4.09764 0.740407 0
M  V30 2892 H 255.287 -5.0019 -1.8898 0
M  V30 2893 H 255.63 -3.37789 -2.43319 0
M  V30 2894 H 256.163 -3.8937 -0.814611 0
M  V30 2895 H 252.902 -6.52559 0.620236 0
M  V30 2896 H 252.422 -5.91729 -0.980676 0
M  V30 2897 H 254.101 -6.43352 -0.686067 0
M  V30 2898 N 254.233 0.115231 -1.57178 0
M  V30 2899 C 255.196 1.12526 -1.99676 0
M  V30 2900 C 256.196 1.34095 -0.88742 0
M  V30 2901 O 257.386 1.30548 -1.15337 0
M  V30 2902 C 254.518 2.4789 -2.34015 0
M  V30 2903 H 255.711 0.759912 -2.90113 0
M  V30 2904 H 253.264 0.359648 -1.52106 0
M  V30 2905 H 253.999 2.89339 -1.4647 0
M  V30 2906 H 253.784 2.33588 -3.14927 0
M  V30 2907 H 255.274 3.20575 -2.67622 0
M  V30 2908 N 255.711 1.52812 0.385517 0
M  V30 2909 C 256.957 1.68275 1.13188 0
M  V30 2910 C 257.29 0.423179 1.89533 0
M  V30 2911 O 256.565 -0.579113 1.85679 0
M  V30 2912 C 256.848 2.92001 2.1073 0
M  V30 2913 C 256.701 4.28067 1.38125 0
M  V30 2914 C 258.02 3.11283 3.11113 0
M  V30 2915 H 255.139 0.612352 0.410115 0
M  V30 2916 H 257.781 1.85415 0.414869 0
M  V30 2917 H 255.931 2.77519 2.71874 0
M  V30 2918 H 257.603 4.54324 0.799187 0
M  V30 2919 H 255.846 4.28388 0.683092 0
M  V30 2920 H 256.517 5.10733 2.09417 0
M  V30 2921 H 258.993 3.2482 2.6006 0
M  V30 2922 H 257.869 3.99325 3.76605 0
M  V30 2923 H 258.13 2.25656 3.80173 0
M  V30 2924 N 257.189 -0.644168 1.43834 0
M  V30 2925 C 258.605 -0.960875 1.27434 0
M  V30 2926 C 258.805 -2.00499 0.200618 0
M  V30 2927 O 257.861 -2.49018 -0.417906 0
M  V30 2928 C 259.174 -1.43653 2.64167 0
M  V30 2929 C 260.722 -1.55271 2.71772 0
M  V30 2930 C 261.197 -2.06224 4.08944 0
M  V30 2931 N 262.688 -2.13513 4.11055 0
M  V30 2932 C 263.423 -2.54081 5.14033 0
M  V30 2933 N 262.919 -2.9388 6.27381 0
M  V30 2934 N 264.712 -2.54101 5.01387 0
M  V30 2935 H 256.863 0.0465779 2.12349 0
M  V30 2936 H 259.126 -0.0417638 0.94708 0
M  V30 2937 H 258.832 -0.743706 3.43747 0
M  V30 2938 H 258.706 -2.40993 2.90176 0
M  V30 2939 H 261.093 -2.23653 1.92519 0
M  V30 2940 H 261.174 -0.563395 2.49519 0
M  V30 2941 H 260.818 -1.38441 4.88668 0
M  V30 2942 H 260.748 -3.06003 4.28567 0
M  V30 2943 H 263.239 -1.85493 3.29242 0
M  V30 2944 H 263.552 -3.2361 7.01781 0
M  V30 2945 H 261.897 -2.91663 6.30839 0
M  V30 2946 H 265.088 -2.22391 4.11898 0
M  V30 2947 H 265.261 -2.85394 5.81768 0
M  V30 2948 N 258.668 -1.30515 -0.883378 0
M  V30 2949 C 259.578 -1.18959 -2.02203 0
M  V30 2950 C 260.594 -0.109172 -1.73657 0
M  V30 2951 O 261.77 -0.324413 -1.9877 0
M  V30 2952 C 258.835 -0.883871 -3.35244 0
M  V30 2953 C 257.896 -2.04982 -3.77201 0
M  V30 2954 C 257.129 -1.75859 -5.03894 0
M  V30 2955 O 257.352 -0.687276 -5.66244 0
M  V30 2956 O 256.286 -2.61146 -5.42297 0
M  V30 2957 H 260.112 -2.14616 -2.1488 0
M  V30 2958 H 257.697 -1.10124 -1.0096 0
M  V30 2959 H 259.579 -0.728644 -4.15053 0
M  V30 2960 H 258.254 0.0427798 -3.23672 0
M  V30 2961 H 257.161 -2.26038 -2.9809 0
M  V30 2962 H 258.494 -2.95825 -3.93381 0
M  V30 2963 N 260.146 1.09593 -1.13257 0
M  V30 2964 C 261.109 2.14359 -0.811358 0
M  V30 2965 C 262.109 1.59808 0.178377 0
M  V30 2966 O 263.299 1.74132 -0.0484911 0
M  V30 2967 C 260.431 3.40269 -0.207276 0
M  V30 2968 H 261.624 2.44284 -1.73969 0
M  V30 2969 H 259.177 1.25102 -0.936973 0
M  V30 2970 H 259.912 3.15969 0.73036 0
M  V30 2971 H 259.697 3.81154 -0.919992 0
M  V30 2972 H 261.187 4.176 0.000667944 0
M  V30 2973 N 261.624 0.925811 1.2754 0
M  V30 2974 C 263.04 0.625767 1.46821 0
M  V30 2975 C 263.24 -0.825506 1.83814 0
M  V30 2976 O 262.296 -1.60356 1.95044 0
M  V30 2977 C 263.609 1.57402 2.56213 0
M  V30 2978 C 265.157 1.58204 2.70075 0
M  V30 2979 C 265.632 2.51721 3.82623 0
M  V30 2980 N 267.123 2.49917 3.89994 0
M  V30 2981 C 267.858 3.18968 4.76494 0
M  V30 2982 N 267.354 3.97391 5.67496 0
M  V30 2983 N 269.147 3.07996 4.70208 0
M  V30 2984 H 261.298 1.86409 1.01811 0
M  V30 2985 H 263.561 0.800213 0.508295 0
M  V30 2986 H 263.267 2.60925 2.35819 0
M  V30 2987 H 263.141 1.31428 3.53563 0
M  V30 2988 H 265.528 0.554124 2.89851 0
M  V30 2989 H 265.609 1.88226 1.73218 0
M  V30 2990 H 265.253 3.54622 3.63601 0
M  V30 2991 H 265.183 2.18996 4.78903 0
M  V30 2992 H 267.674 1.9296 3.24923 0
M  V30 2993 H 267.987 4.4707 6.30356 0
M  V30 2994 H 266.332 4.01495 5.67298 0
M  V30 2995 H 269.523 2.46223 3.9811 0
M  V30 2996 H 269.696 3.6208 5.37403 0
M  V30 2997 N 263.102 -1.41638 0.69111 0
M  V30 2998 C 264.049 -2.30789 0.0229705 0
M  V30 2999 C 265.019 -1.46863 -0.775911 0
M  V30 3000 O 266.204 -1.75661 -0.74485 0
M  V30 3001 C 263.344 -3.32868 -0.910666 0
M  V30 3002 C 262.457 -4.31875 -0.103874 0
M  V30 3003 C 261.592 -5.21024 -1.03475 0
M  V30 3004 C 260.631 -6.11702 -0.220598 0
M  V30 3005 N 259.768 -6.93349 -1.10504 0
M  V30 3006 H 264.608 -2.87366 0.788978 0
M  V30 3007 H 262.145 -1.41535 0.400794 0
M  V30 3008 H 264.103 -3.90596 -1.46597 0
M  V30 3009 H 262.733 -2.77851 -1.64312 0
M  V30 3010 H 261.785 -3.76131 0.568285 0
M  V30 3011 H 263.097 -4.96003 0.527504 0
M  V30 3012 H 262.251 -5.83565 -1.65943 0
M  V30 3013 H 260.99 -4.57112 -1.69999 0
M  V30 3014 H 259.995 -5.48215 0.417187 0
M  V30 3015 H 261.22 -6.77668 0.440784 0
M  V30 3016 H 259.166 -6.3205 -1.75638 0
M  V30 3017 H 259.083 -7.54146 -0.529125 0
M  V30 3018 H 260.351 -7.60362 -1.71667 0
M  V30 3019 N 264.58 -0.43555 -1.51462 0
M  V30 3020 C 265.51 0.367376 -2.30592 0
M  V30 3021 C 266.491 1.02263 -1.35928 0
M  V30 3022 O 267.676 1.02661 -1.64847 0
M  V30 3023 C 264.806 1.46983 -3.14664 0
M  V30 3024 C 263.76 0.938161 -4.17591 0
M  V30 3025 C 263.086 2.13622 -4.90173 0
M  V30 3026 C 264.386 -0.0261621 -5.22293 0
M  V30 3027 H 266.08 -0.292969 -2.97963 0
M  V30 3028 H 263.626 -0.14234 -1.43295 0
M  V30 3029 H 265.579 2.03873 -3.688 0
M  V30 3030 H 264.303 2.15843 -2.4511 0
M  V30 3031 H 262.962 0.391481 -3.64504 0
M  V30 3032 H 262.61 2.81098 -4.17124 0
M  V30 3033 H 262.31 1.78688 -5.59772 0
M  V30 3034 H 263.834 2.7107 -5.47132 0
M  V30 3035 H 265.248 0.452384 -5.71512 0
M  V30 3036 H 263.645 -0.287992 -5.99409 0
M  V30 3037 H 264.715 -0.963391 -4.75233 0
M  V30 3038 N 266.058 1.56714 -0.166846 0
M  V30 3039 C 267.305 1.96747 0.479252 0
M  V30 3040 C 267.633 1.05263 1.63554 0
M  V30 3041 O 266.888 0.0858098 1.95512 0
M  V30 3042 C 267.187 3.42889 1.00806 0
M  V30 3043 C 266.853 4.50889 -0.0318574 0
M  V30 3044 C 265.515 4.8015 -0.317675 0
M  V30 3045 C 267.867 5.15949 -0.737956 0
M  V30 3046 C 265.195 5.71772 -1.31506 0
M  V30 3047 C 267.547 6.08647 -1.72429 0
M  V30 3048 C 266.211 6.36277 -2.0176 0
M  V30 3049 H 265.481 0.719949 0.175371 0
M  V30 3050 H 268.128 1.89756 -0.257864 0
M  V30 3051 H 266.433 3.4681 1.82291 0
M  V30 3052 H 268.13 3.71203 1.51689 0
M  V30 3053 H 264.72 4.28128 0.201088 0
M  V30 3054 H 268.904 4.93458 -0.530351 0
M  V30 3055 H 264.16 5.91465 -1.54853 0
M  V30 3056 H 268.334 6.58129 -2.27682 0
M  V30 3057 H 265.961 7.07075 -2.79194 0
M  V30 3058 N 267.536 -0.106894 1.57237 0
M  V30 3059 C 268.785 -0.811163 1.8467 0
M  V30 3060 C 269.098 -1.80469 0.754342 0
M  V30 3061 O 270.304 -2.55601 0.915439 0
M  V30 3062 C 268.76 -1.49337 3.27454 0
M  V30 3063 C 268.368 -0.540217 4.44731 0
M  V30 3064 C 270.112 -2.18206 3.64124 0
M  V30 3065 C 268.019 -1.22634 5.78545 0
M  V30 3066 H 266.949 -0.306679 0.688813 0
M  V30 3067 H 269.6 -0.0639887 1.83388 0
M  V30 3068 H 267.982 -2.2876 3.23241 0
M  V30 3069 H 269.156 0.221659 4.60267 0
M  V30 3070 H 267.471 0.042146 4.16379 0
M  V30 3071 H 270.068 -2.70253 4.61376 0
M  V30 3072 H 270.411 -2.96562 2.92158 0
M  V30 3073 H 270.944 -1.45658 3.70174 0
M  V30 3074 H 267.683 -0.483832 6.53712 0
M  V30 3075 H 267.203 -1.95993 5.66874 0
M  V30 3076 H 268.882 -1.75615 6.2271 0
M  V30 3077 N 269.014 -1.53014 -0.377408 0
M  V30 3078 C 270.425 -1.60438 -0.954798 0
M  V30 3079 C 270.776 -0.464418 -1.90624 0
M  V30 3080 O 269.901 0.41087 -2.12464 0
M  V30 3081 C 270.496 -2.90797 -1.73847 0
M  V30 3082 C 269.055 -3.00595 -2.26538 0
M  V30 3083 C 268.202 -2.55645 -1.07429 0
M  V30 3084 H 271.153 -1.57926 -0.156575 0
M  V30 3085 H 271.174 -2.77935 -2.5987 0
M  V30 3086 H 270.686 -3.73746 -1.04574 0
M  V30 3087 H 268.787 -2.22208 -2.99089 0
M  V30 3088 H 268.9 -4.05456 -2.5523 0
M  V30 3089 H 267.264 -2.10239 -1.43777 0
M  V30 3090 H 268.047 -3.41 -0.396728 0
M  V30 3091 N 270.492 0.636531 -1.44174 0
M  V30 3092 C 271.738 1.39826 -1.4689 0
M  V30 3093 C 272.071 1.93947 -0.0990585 0
M  V30 3094 O 271.346 1.73325 0.882544 0
M  V30 3095 C 271.629 2.56751 -2.5249 0
M  V30 3096 C 271.482 2.08014 -3.98811 0
M  V30 3097 C 272.801 3.58946 -2.54649 0
M  V30 3098 H 269.92 0.507075 -0.53483 0
M  V30 3099 H 272.562 0.720188 -1.75822 0
M  V30 3100 H 270.712 3.14597 -2.2795 0
M  V30 3101 H 272.384 1.5504 -4.34466 0
M  V30 3102 H 270.627 1.39242 -4.10846 0
M  V30 3103 H 271.298 2.92169 -4.68339 0
M  V30 3104 H 273.774 3.1089 -2.76563 0
M  V30 3105 H 272.65 4.38286 -3.3045 0
M  V30 3106 H 272.911 4.12655 -1.58646 0
M  V30 3107 N 271.97 1.30982 0.876444 0
M  V30 3108 C 273.219 1.19658 1.62373 0
M  V30 3109 C 273.532 -0.245636 1.94052 0
M  V30 3110 O 274.738 -0.48049 2.67214 0
M  V30 3111 C 273.194 2.09433 2.92687 0
M  V30 3112 C 272.802 3.58613 2.68516 0
M  V30 3113 C 274.546 2.06893 3.70669 0
M  V30 3114 C 272.453 4.40416 3.94699 0
M  V30 3115 H 271.383 0.444268 0.609214 0
M  V30 3116 H 274.034 1.55791 0.969605 0
M  V30 3117 H 272.416 1.66191 3.59439 0
M  V30 3118 H 273.59 4.10058 2.10212 0
M  V30 3119 H 271.905 3.63063 2.03898 0
M  V30 3120 H 274.502 2.65258 4.64265 0
M  V30 3121 H 274.845 1.05448 4.02724 0
M  V30 3122 H 275.378 2.48301 3.10792 0
M  V30 3123 H 272.117 5.42591 3.67798 0
M  V30 3124 H 271.637 3.93731 4.52477 0
M  V30 3125 H 273.316 4.52294 4.62644 0
M  V30 3126 N 273.449 -1.08991 1.13837 0
M  V30 3127 C 274.412 -2.13925 0.822715 0
M  V30 3128 C 275.412 -1.599 -0.1699 0
M  V30 3129 O 276.602 -1.74104 0.0577251 0
M  V30 3130 C 273.734 -3.40155 0.225318 0
M  V30 3131 H 274.927 -2.43358 1.75262 0
M  V30 3132 H 272.48 -1.24603 0.943594 0
M  V30 3133 H 273.215 -3.16352 -0.713594 0
M  V30 3134 H 273 -3.80661 0.940193 0
M  V30 3135 H 274.49 -4.17594 0.0214784 0
M  V30 3136 N 274.927 -0.932562 -1.27047 0
M  V30 3137 C 275.857 -0.452902 -2.29066 0
M  V30 3138 C 276.838 0.489338 -1.62909 0
M  V30 3139 O 278.023 0.393046 -1.90181 0
M  V30 3140 C 275.153 0.290698 -3.46081 0
M  V30 3141 C 274.107 -0.564168 -4.24265 0
M  V30 3142 C 273.433 0.308886 -5.33807 0
M  V30 3143 C 274.733 -1.83112 -4.89149 0
M  V30 3144 H 276.427 -1.30552 -2.69437 0
M  V30 3145 H 273.973 -0.629201 -1.29526 0
M  V30 3146 H 275.926 0.637233 -4.16554 0
M  V30 3147 H 274.65 1.17738 -3.0464 0
M  V30 3148 H 273.309 -0.893477 -3.55545 0
M  V30 3149 H 272.957 1.19467 -4.88607 0
M  V30 3150 H 272.657 -0.259633 -5.87026 0
M  V30 3151 H 274.181 0.650884 -6.07121 0
M  V30 3152 H 275.595 -1.55236 -5.51883 0
M  V30 3153 H 273.992 -2.34353 -5.52448 0
M  V30 3154 H 275.062 -2.54772 -4.12576 0
M  V30 3155 N 276.405 1.4127 -0.698611 0
M  V30 3156 C 277.368 2.29158 -0.044132 0
M  V30 3157 C 278.368 1.44529 0.704841 0
M  V30 3158 O 279.558 1.65643 0.539276 0
M  V30 3159 C 276.69 3.27459 0.947809 0
M  V30 3160 H 277.883 2.88529 -0.817994 0
M  V30 3161 H 275.436 1.49307 -0.46228 0
M  V30 3162 H 276.171 2.73073 1.74933 0
M  V30 3163 H 275.956 3.8991 0.41385 0
M  V30 3164 H 277.446 3.93311 1.40344 0
M  V30 3165 N 277.883 0.443576 1.51229 0
M  V30 3166 C 279.16 -0.181038 1.9476 0
M  V30 3167 C 279.54 -1.59523 1.38259 0
M  V30 3168 O 278.888 -2.2122 0.572198 0
M  V30 3169 C 279.098 -0.152422 3.48667 0
M  V30 3170 C 280.446 -0.354923 4.23114 0
M  V30 3171 O 281.47 -0.230257 3.55455 0
M  V30 3172 O 280.329 -0.603674 5.43156 0
M  V30 3173 H 277.423 -0.1266 0.817252 0
M  V30 3174 H 279.969 0.502004 1.62105 0
M  V30 3175 H 278.741 0.836022 3.82265 0
M  V30 3176 H 278.364 -0.878107 3.87782 0
M  V30 3177 N 279.361 -1.56624 0.175154 0
M  V30 3178 C 280.589 -2.01374 -0.474971 0
M  V30 3179 C 281.004 -1.05537 -1.56548 0
M  V30 3180 O 280.361 -0.0568668 -1.82411 0
M  V30 3181 C 280.412 -3.45923 -1.04975 0
M  V30 3182 O 280.133 -4.381 -0.00276605 0
M  V30 3183 C 281.634 -4.06093 -1.77773 0
M  V30 3184 H 278.854 -0.659962 -0.121206 0
M  V30 3185 H 281.398 -2.02601 0.27801 0
M  V30 3186 H 279.553 -3.45458 -1.75321 0
M  V30 3187 H 279.967 -5.22753 -0.427681 0
M  V30 3188 H 281.441 -5.09147 -2.13245 0
M  V30 3189 H 281.918 -3.48405 -2.67414 0
M  V30 3190 H 282.524 -4.10272 -1.12059 0
M  V30 3191 N 280.839 0.0985539 -1.57292 0
M  V30 3192 C 282.116 0.834155 -1.76921 0
M  V30 3193 C 282.496 1.97101 -0.755928 0
M  V30 3194 O 281.844 2.27474 0.216245 0
M  V30 3195 C 282.054 1.33194 -3.22584 0
M  V30 3196 C 283.402 1.77611 -3.85668 0
M  V30 3197 O 284.426 1.42825 -3.26312 0
M  V30 3198 O 283.285 2.4192 -4.90038 0
M  V30 3199 H 280.379 0.397628 -0.725135 0
M  V30 3200 H 282.925 0.0807044 -1.69508 0
M  V30 3201 H 281.697 0.517248 -3.87866 0
M  V30 3202 H 281.32 2.1475 -3.34616 0
M  V30 3203 N 282.317 1.53212 0.369288 0
M  V30 3204 C 283.542 1.73423 1.1375 0
M  V30 3205 C 283.967 0.460404 1.82378 0
M  V30 3206 O 283.325 -0.585298 1.71592 0
M  V30 3207 C 283.373 2.89769 2.1463 0
M  V30 3208 O 282.477 2.58119 3.21634 0
M  V30 3209 H 281.818 0.576061 0.330227 0
M  V30 3210 H 284.348 2.00083 0.427547 0
M  V30 3211 H 284.358 3.15829 2.58294 0
M  V30 3212 H 283.033 3.8217 1.64071 0
M  V30 3213 H 281.61 2.42864 2.82969 0
M  V30 3214 N 283.795 -0.628877 1.44509 0
M  V30 3215 C 285.072 -1.38733 1.37886 0
M  V30 3216 C 285.452 -2.11065 0.0387008 0
M  V30 3217 O 284.8 -2.06476 -0.97878 0
M  V30 3218 C 285.01 -2.35188 2.57852 0
M  V30 3219 C 286.358 -2.9845 3.02014 0
M  V30 3220 O 287.382 -2.45513 2.58073 0
M  V30 3221 O 286.241 -3.94487 3.78209 0
M  V30 3222 H 283.335 -0.621015 0.54614 0
M  V30 3223 H 285.881 -0.653744 1.56602 0
M  V30 3224 H 284.653 -1.80855 3.46998 0
M  V30 3225 H 284.276 -3.1596 2.4136 0
M  V30 3226 N 285.273 -1.31445 -0.869486 0
M  V30 3227 C 286.684 -1.19042 -1.43826 0
M  V30 3228 C 287.035 0.202919 -1.95148 0
M  V30 3229 O 286.16 1.10071 -1.86315 0
M  V30 3230 C 286.755 -2.15499 -2.6143 0
M  V30 3231 C 285.314 -2.07028 -3.14351 0
M  V30 3232 C 284.461 -2.04701 -1.87063 0
M  V30 3233 H 287.412 -1.43489 -0.677984 0
M  V30 3234 H 287.433 -1.74488 -3.38134 0
M  V30 3235 H 286.945 -3.16899 -2.24046 0
M  V30 3236 H 285.046 -1.08825 -3.56354 0
M  V30 3237 H 285.159 -2.96157 -3.766 0
M  V30 3238 H 283.523 -1.49724 -2.06046 0
M  V30 3239 H 284.306 -3.07857 -1.51917 0
M  V30 3240 N 286.751 1.08385 -1.14413 0
M  V30 3241 C 288.028 1.77429 -0.823297 0
M  V30 3242 C 288.408 1.9974 0.683163 0
M  V30 3243 O 287.756 1.60739 1.62405 0
M  V30 3244 C 287.966 3.09004 -1.62227 0
M  V30 3245 C 289.314 3.83532 -1.82177 0
M  V30 3246 O 290.338 3.18786 -1.58915 0
M  V30 3247 O 289.197 4.99792 -2.21067 0
M  V30 3248 H 286.291 0.769999 -0.301712 0
M  V30 3249 H 288.837 1.14846 -1.24934 0
M  V30 3250 H 287.609 2.88316 -2.64555 0
M  V30 3251 H 287.232 3.79316 -1.19187 0
M  V30 3252 N 288.23 0.939286 1.26551 0
M  V30 3253 C 289.16 0.465044 2.28822 0
M  V30 3254 C 290.141 -0.480692 1.63167 0
M  V30 3255 O 291.326 -0.382955 1.90387 0
M  V30 3256 C 288.456 -0.27234 3.46231 0
M  V30 3257 C 287.41 0.58666 4.2396 0
M  V30 3258 C 286.736 -0.280573 5.33963 0
M  V30 3259 C 288.036 1.85704 4.88171 0
M  V30 3260 H 289.73 1.31979 2.68741 0
M  V30 3261 H 287.276 0.636061 1.29191 0
M  V30 3262 H 289.229 -0.615133 4.16886 0
M  V30 3263 H 287.953 -1.16121 3.0526 0
M  V30 3264 H 286.612 0.91232 3.55067 0
M  V30 3265 H 286.26 -1.16874 4.89234 0
M  V30 3266 H 285.96 0.29076 5.8688 0
M  V30 3267 H 287.484 -0.618678 6.07458 0
M  V30 3268 H 288.898 1.58161 5.51052 0
M  V30 3269 H 287.295 2.37279 5.51197 0
M  V30 3270 H 288.365 2.56957 4.11219 0
M  V30 3271 N 289.708 -1.40897 0.706093 0
M  V30 3272 C 290.954 -2.01352 0.241889 0
M  V30 3273 C 291.287 -1.55832 -1.15888 0
M  V30 3274 O 290.562 -0.774145 -1.7843 0
M  V30 3275 C 290.845 -3.58752 0.311311 0
M  V30 3276 C 290.698 -4.1437 1.74978 0
M  V30 3277 C 292.017 -4.38914 -0.322922 0
M  V30 3278 H 289.136 -0.731562 0.0893687 0
M  V30 3279 H 291.778 -1.67504 0.896802 0
M  V30 3280 H 289.928 -3.87718 -0.246302 0
M  V30 3281 H 291.6 -3.96239 2.36205 0
M  V30 3282 H 289.843 -3.69016 2.28057 0
M  V30 3283 H 290.514 -5.23532 1.74981 0
M  V30 3284 H 292.99 -4.15822 0.152089 0
M  V30 3285 H 291.866 -5.48358 -0.243855 0
M  V30 3286 H 292.127 -4.19176 -1.40513 0
M  V30 3287 N 291.186 -0.45159 -1.50991 0
M  V30 3288 C 292.463 0.170707 -1.94854 0
M  V30 3289 C 292.843 1.58788 -1.39103 0
M  V30 3290 O 292.191 2.20913 -0.583921 0
M  V30 3291 C 292.401 0.133929 -3.48743 0
M  V30 3292 C 293.749 0.33248 -4.23296 0
M  V30 3293 O 294.773 0.211403 -3.55572 0
M  V30 3294 O 293.632 0.57486 -5.43468 0
M  V30 3295 H 290.726 0.122264 -0.817912 0
M  V30 3296 H 293.272 -0.510594 -1.61836 0
M  V30 3297 H 292.044 -0.856283 -3.81816 0
M  V30 3298 H 291.667 0.857529 -3.88242 0
M  V30 3299 N 292.664 1.56529 -0.183458 0
M  V30 3300 C 293.894 2.01331 0.463612 0
M  V30 3301 C 294.302 1.06278 1.5653 0
M  V30 3302 O 293.645 0.0577976 1.83609 0
M  V30 3303 C 293.707 3.42547 1.09096 0
M  V30 3304 C 293.371 4.56817 0.129442 0
M  V30 3305 C 294.368 5.15734 -0.656807 0
M  V30 3306 C 292.053 5.02295 0.02174 0
M  V30 3307 C 294.047 6.1857 -1.53784 0
M  V30 3308 C 291.734 6.04978 -0.862864 0
M  V30 3309 C 292.732 6.62988 -1.64123 0
M  V30 3310 O 292.42 7.63677 -2.51103 0
M  V30 3311 H 292.152 0.664917 0.121907 0
M  V30 3312 H 294.706 2.034 -0.285954 0
M  V30 3313 H 292.936 3.37428 1.88889 0
M  V30 3314 H 294.625 3.71228 1.64148 0
M  V30 3315 H 295.391 4.81473 -0.583839 0
M  V30 3316 H 291.27 4.56847 0.617392 0
M  V30 3317 H 294.814 6.63777 -2.14583 0
M  V30 3318 H 290.711 6.38663 -0.93699 0
M  V30 3319 H 291.479 7.81049 -2.44753 0
M  V30 3320 N 294.142 -0.090211 1.57342 0
M  V30 3321 C 295.391 -0.791531 1.8552 0
M  V30 3322 C 295.704 -1.79659 0.773441 0
M  V30 3323 O 296.91 -2.54616 0.942497 0
M  V30 3324 C 295.366 -1.45856 3.2902 0
M  V30 3325 C 294.974 -0.493017 4.45279 0
M  V30 3326 C 296.718 -2.14332 3.66418 0
M  V30 3327 C 294.625 -1.16491 5.79814 0
M  V30 3328 H 293.555 -0.299356 0.692027 0
M  V30 3329 H 296.206 -0.0445343 1.83446 0
M  V30 3330 H 294.588 -2.25318 3.2565 0
M  V30 3331 H 295.762 0.270464 4.60006 0
M  V30 3332 H 294.077 0.0863061 4.16311 0
M  V30 3333 H 296.674 -2.65344 4.64216 0
M  V30 3334 H 297.017 -2.93447 2.95287 0
M  V30 3335 H 297.55 -1.41724 3.71698 0
M  V30 3336 H 294.289 -0.41447 6.54188 0
M  V30 3337 H 293.809 -1.8997 5.68921 0
M  V30 3338 H 295.488 -1.69001 6.24538 0
M  V30 3339 N 295.62 -1.53406 -0.361157 0
M  V30 3340 C 296.869 -1.69022 -1.10066 0
M  V30 3341 C 297.182 -0.450838 -1.90333 0
M  V30 3342 O 298.388 -0.487617 -2.67085 0
M  V30 3343 C 296.844 -2.98812 -2.00598 0
M  V30 3344 C 296.452 -4.30027 -1.25621 0
M  V30 3345 C 298.196 -3.23795 -2.74513 0
M  V30 3346 C 296.103 -5.50903 -2.1508 0
M  V30 3347 H 295.033 -0.629776 -0.414606 0
M  V30 3348 H 297.684 -1.79907 -0.361348 0
M  V30 3349 H 296.066 -2.8174 -2.78278 0
M  V30 3350 H 297.24 -4.57745 -0.529739 0
M  V30 3351 H 295.555 -4.11522 -0.635496 0
M  V30 3352 H 298.152 -4.11289 -3.41681 0
M  V30 3353 H 298.495 -2.40045 -3.40123 0
M  V30 3354 H 299.028 -3.41561 -2.03914 0
M  V30 3355 H 295.767 -6.37143 -1.54041 0
M  V30 3356 H 295.287 -5.27459 -2.85565 0
M  V30 3357 H 296.966 -5.85865 -2.74538 0
M  V30 3358 N 297.098 0.621204 -1.44841 0
M  V30 3359 C 298.509 1.20298 -1.42777 0
M  V30 3360 C 298.86 1.95639 -0.148259 0
M  V30 3361 O 297.985 2.02955 0.750892 0
M  V30 3362 C 298.58 2.1882 -2.58657 0
M  V30 3363 C 297.139 2.72403 -2.59756 0
M  V30 3364 C 296.286 1.4757 -2.34773 0
M  V30 3365 H 299.237 0.411297 -1.53278 0
M  V30 3366 H 299.258 3.01607 -2.31977 0
M  V30 3367 H 298.77 1.63957 -3.51766 0
M  V30 3368 H 296.871 3.31242 -1.70615 0
M  V30 3369 H 296.984 3.17765 -3.58556 0
M  V30 3370 H 295.348 1.76051 -1.8406 0
M  V30 3371 H 296.131 0.945954 -3.3001 0
M  V30 3372 N 298.576 1.31904 0.862503 0
M  V30 3373 C 299.824 1.21776 1.61292 0
M  V30 3374 C 300.145 -0.222413 1.93727 0
M  V30 3375 O 299.415 -1.1451 1.58947 0
M  V30 3376 H 297.995 0.447717 0.597962 0
M  V30 3377 H 300.657 1.65326 1.03215 0
M  V30 3378 H 299.753 1.7948 2.5533 0
M  V30 3379 N 300.054 -1.07777 1.14986 0
M  V30 3380 C 301.002 -2.16964 0.838406 0
M  V30 3381 C 301.996 -1.68372 -0.186386 0
M  V30 3382 O 303.202 -1.79951 -0.0418465 0
M  V30 3383 H 299.577 -0.708006 0.253439 0
M  V30 3384 H 301.548 -2.40454 1.76704 0
M  V30 3385 C 300.297 -3.4604 0.339335 0
M  V30 3386 H 299.62 -3.83813 1.11927 0
M  V30 3387 H 301.06 -4.23698 0.160021 0
M  V30 3388 C 299.519 -3.23569 -0.938325 0
M  V30 3389 O 300.049 -3.47752 -2.01077 0
M  V30 3390 N 298.255 -2.77079 -0.876117 0
M  V30 3391 H 297.802 -2.576 -0.00322037 0
M  V30 3392 H 297.76 -2.62422 -1.73153 0
M  V30 3393 N 301.532 -0.945985 -1.26051 0
M  V30 3394 C 302.809 -0.513816 -1.88731 0
M  V30 3395 C 303.189 1.00872 -1.8544 0
M  V30 3396 O 302.537 1.8708 -1.312 0
M  V30 3397 C 302.747 -1.08062 -3.31849 0
M  V30 3398 C 304.095 -1.1522 -4.08668 0
M  V30 3399 O 305.119 -1.03155 -3.40936 0
M  V30 3400 O 303.978 -1.34044 -5.29806 0
M  V30 3401 H 301.072 -0.168193 -0.809716 0
M  V30 3402 H 303.618 -1.03886 -1.34186 0
M  V30 3403 H 302.39 -2.1241 -3.2863 0
M  V30 3404 H 302.013 -0.538307 -3.93939 0
M  V30 3405 N 303.011 1.40521 -0.713556 0
M  V30 3406 C 304.288 1.94775 -0.17943 0
M  V30 3407 C 304.668 1.65184 1.31444 0
M  V30 3408 O 304.016 0.968429 2.06963 0
M  V30 3409 C 304.226 3.45543 -0.489986 0
M  V30 3410 C 305.574 4.22442 -0.427536 0
M  V30 3411 O 306.598 3.53644 -0.425929 0
M  V30 3412 O 305.457 5.4501 -0.403292 0
M  V30 3413 H 302.551 0.826606 -0.0255192 0
M  V30 3414 H 305.097 1.5014 -0.790949 0
M  V30 3415 H 303.869 3.60432 -1.5233 0
M  V30 3416 H 303.492 3.97311 0.151598 0
M  V30 3417 N 304.489 0.459591 1.5075 0
M  V30 3418 C 305.452 -0.329093 2.26825 0
M  V30 3419 C 306.452 -0.930481 1.31144 0
M  V30 3420 O 307.642 -0.801453 1.54669 0
M  V30 3421 C 304.774 -1.46768 3.07688 0
M  V30 3422 H 305.967 0.337924 2.9799 0
M  V30 3423 H 303.52 0.213336 1.54837 0
M  V30 3424 H 304.255 -2.17009 2.40993 0
M  V30 3425 H 304.04 -1.04238 3.77991 0
M  V30 3426 H 305.53 -2.02433 3.65254 0
M  V30 3427 N 305.967 -1.56429 0.191757 0
M  V30 3428 C 307.216 -1.9666 -0.448088 0
M  V30 3429 C 307.529 -1.08136 -1.62991 0
M  V30 3430 O 308.735 -1.38135 -2.33733 0
M  V30 3431 C 307.191 -3.49753 -0.848585 0
M  V30 3432 C 306.799 -4.46935 0.308764 0
M  V30 3433 C 308.543 -3.9876 -1.4557 0
M  V30 3434 C 306.45 -5.91293 -0.112506 0
M  V30 3435 H 305.38 -0.734312 -0.171179 0
M  V30 3436 H 308.031 -1.81301 0.283242 0
M  V30 3437 H 306.413 -3.60604 -1.63649 0
M  V30 3438 H 307.587 -4.47813 1.08627 0
M  V30 3439 H 305.902 -4.08102 0.827158 0
M  V30 3440 H 308.499 -5.04086 -1.78328 0
M  V30 3441 H 308.842 -3.42875 -2.36099 0
M  V30 3442 H 309.375 -3.9101 -0.731836 0
M  V30 3443 H 306.114 -6.51097 0.758514 0
M  V30 3444 H 305.634 -5.93676 -0.854941 0
M  V30 3445 H 307.313 -6.44663 -0.549448 0
M  V30 3446 N 307.445 0.0818655 -1.57387 0
M  V30 3447 C 308.861 0.436412 -1.53517 0
M  V30 3448 C 309.061 1.79758 -0.910459 0
M  V30 3449 O 308.117 2.47324 -0.508636 0
M  V30 3450 C 309.43 0.386734 -2.98203 0
M  V30 3451 C 310.978 0.467644 -3.09487 0
M  V30 3452 C 311.453 0.447978 -4.55804 0
M  V30 3453 N 312.944 0.508348 -4.60402 0
M  V30 3454 C 313.679 0.515184 -5.71081 0
M  V30 3455 N 313.175 0.477435 -6.91153 0
M  V30 3456 N 314.968 0.560988 -5.59294 0
M  V30 3457 H 307.119 -0.809546 -1.96367 0
M  V30 3458 H 309.382 -0.302733 -0.898363 0
M  V30 3459 H 309.088 -0.546539 -3.47427 0
M  V30 3460 H 308.962 1.20075 -3.57578 0
M  V30 3461 H 311.349 1.39134 -2.60242 0
M  V30 3462 H 311.43 -0.374753 -2.5304 0
M  V30 3463 H 311.074 -0.471826 -5.05704 0
M  V30 3464 H 311.004 1.30777 -5.10103 0
M  V30 3465 H 313.495 0.54218 -3.7399 0
M  V30 3466 H 313.808 0.486299 -7.71268 0
M  V30 3467 H 312.153 0.444278 -6.93579 0
M  V30 3468 H 315.344 0.5881 -4.64391 0
M  V30 3469 H 315.517 0.562846 -6.45551 0
M  V30 3470 N 308.923 1.53595 0.353017 0
M  V30 3471 C 310.148 1.7462 1.11904 0
M  V30 3472 C 310.573 0.479721 1.8188 0
M  V30 3473 O 309.931 -0.567066 1.72204 0
M  V30 3474 C 309.979 2.92029 2.11545 0
M  V30 3475 O 309.083 2.61516 3.18878 0
M  V30 3476 H 308.424 0.579531 0.324099 0
M  V30 3477 H 310.954 2.00525 0.406301 0
M  V30 3478 H 310.964 3.18551 2.5493 0
M  V30 3479 H 309.639 3.83888 1.60008 0
M  V30 3480 H 308.216 2.45852 2.80377 0
M  V30 3481 N 310.401 -0.613514 1.45168 0
M  V30 3482 C 311.65 -1.36874 1.4815 0
M  V30 3483 C 311.963 -1.952 0.124982 0
M  V30 3484 O 313.169 -2.71481 0.0324176 0
M  V30 3485 C 311.625 -2.47905 2.60904 0
M  V30 3486 C 311.233 -1.96016 4.02842 0
M  V30 3487 C 312.977 -3.24965 2.73126 0
M  V30 3488 C 310.884 -3.04494 5.06988 0
M  V30 3489 H 309.814 -0.514428 0.551253 0
M  V30 3490 H 312.465 -0.658182 1.7129 0
M  V30 3491 H 310.847 -3.21618 2.31037 0
M  V30 3492 H 312.021 -1.29051 4.4236 0
M  V30 3493 H 310.336 -1.31719 3.95018 0
M  V30 3494 H 312.933 -4.05865 3.48106 0
M  V30 3495 H 313.276 -3.75588 1.79553 0
M  V30 3496 H 313.809 -2.5835 3.0249 0
M  V30 3497 H 310.548 -2.58795 6.0225 0
M  V30 3498 H 310.068 -3.70044 4.72046 0
M  V30 3499 H 311.747 -3.68976 5.31475 0
M  V30 3500 N 311.879 -1.3236 -0.855495 0
M  V30 3501 C 312.811 -1.17052 -1.97057 0
M  V30 3502 C 313.824 -0.10574 -1.62456 0
M  V30 3503 O 315.013 -0.354619 -1.74942 0
M  V30 3504 C 312.113 -0.769305 -3.30053 0
M  V30 3505 C 311.286 -1.9222 -3.929 0
M  V30 3506 C 310.345 -1.50466 -5.04228 0
M  V30 3507 O 309.371 -2.21655 -5.24269 0
M  V30 3508 N 310.573 -0.400209 -5.79119 0
M  V30 3509 H 313.338 -2.13103 -2.1073 0
M  V30 3510 H 310.899 -1.24885 -1.0303 0
M  V30 3511 H 312.891 -0.472407 -4.01933 0
M  V30 3512 H 311.461 0.100025 -3.1244 0
M  V30 3513 H 310.681 -2.38563 -3.13817 0
M  V30 3514 H 311.969 -2.69403 -4.31624 0
M  V30 3515 H 311.367 0.192319 -5.65373 0
M  V30 3516 H 309.924 -0.162912 -6.51596 0
M  V30 3517 N 313.357 1.07166 -1.15556 0
M  V30 3518 C 314.287 2.16403 -0.877046 0
M  V30 3519 C 315.268 1.69217 0.173111 0
M  V30 3520 O 316.453 1.94181 0.027084 0
M  V30 3521 C 313.583 3.45349 -0.367632 0
M  V30 3522 C 312.537 4.05995 -1.35468 0
M  V30 3523 C 311.863 5.30045 -0.704038 0
M  V30 3524 C 313.163 4.45804 -2.72132 0
M  V30 3525 H 314.857 2.39959 -1.79053 0
M  V30 3526 H 312.403 1.15325 -0.862331 0
M  V30 3527 H 314.356 4.21095 -0.160317 0
M  V30 3528 H 313.08 3.21385 0.581326 0
M  V30 3529 H 311.739 3.32296 -1.54839 0
M  V30 3530 H 311.387 5.02373 0.251128 0
M  V30 3531 H 311.087 5.71579 -1.36277 0
M  V30 3532 H 312.611 6.08495 -0.50654 0
M  V30 3533 H 314.025 5.12671 -2.56595 0
M  V30 3534 H 312.422 4.98296 -3.34397 0
M  V30 3535 H 313.492 3.57083 -3.28054 0
M  V30 3536 N 314.835 0.952656 1.25548 0
M  V30 3537 C 316.084 0.602053 1.92505 0
M  V30 3538 C 316.397 -0.864663 1.75451 0
M  V30 3539 O 317.603 -1.32514 2.36965 0
M  V30 3540 C 316.059 1.02607 3.44963 0
M  V30 3541 C 315.667 2.51519 3.70732 0
M  V30 3542 C 317.411 0.747905 4.1786 0
M  V30 3543 C 315.318 2.87732 5.16686 0
M  V30 3544 H 314.248 0.22146 0.720744 0
M  V30 3545 H 316.899 1.15684 1.42441 0
M  V30 3546 H 315.281 0.399712 3.93978 0
M  V30 3547 H 316.455 3.19157 3.32378 0
M  V30 3548 H 314.77 2.76786 3.11092 0
M  V30 3549 H 317.367 0.994647 5.25367 0
M  V30 3550 H 317.71 -0.315629 4.15102 0
M  V30 3551 H 318.243 1.33452 3.74747 0
M  V30 3552 H 314.982 3.93095 5.24554 0
M  V30 3553 H 314.502 2.24765 5.56094 0
M  V30 3554 H 316.181 2.76817 5.84792 0
M  V30 3555 N 316.313 -1.40141 0.720998 0
M  V30 3556 C 317.243 -2.33339 0.0867621 0
M  V30 3557 C 318.224 -1.53178 -0.739622 0
M  V30 3558 O 319.409 -1.81625 -0.687449 0
M  V30 3559 C 316.539 -3.37194 -0.831728 0
M  V30 3560 C 315.493 -4.27857 -0.110558 0
M  V30 3561 C 314.819 -5.22294 -1.14513 0
M  V30 3562 C 316.119 -5.11872 1.0385 0
M  V30 3563 H 317.813 -2.86626 0.865219 0
M  V30 3564 H 315.359 -1.37814 0.417516 0
M  V30 3565 H 317.312 -4.01335 -1.28485 0
M  V30 3566 H 316.036 -2.82314 -1.64214 0
M  V30 3567 H 314.695 -3.65176 0.322797 0
M  V30 3568 H 314.343 -4.63717 -1.94874 0
M  V30 3569 H 314.043 -5.83797 -0.667446 0
M  V30 3570 H 315.567 -5.89312 -1.59824 0
M  V30 3571 H 316.981 -5.69436 0.664482 0
M  V30 3572 H 315.378 -5.82445 1.4449 0
M  V30 3573 H 316.448 -4.4753 1.86668 0
M  V30 3574 N 317.792 -0.46758 -1.50504 0
M  V30 3575 C 319.017 0.0886943 -2.0721 0
M  V30 3576 C 319.442 1.33057 -1.32956 0
M  V30 3577 O 318.8 1.77354 -0.376197 0
M  V30 3578 C 318.848 0.359202 -3.58806 0
M  V30 3579 O 317.952 1.44034 -3.8643 0
M  V30 3580 H 317.293 -0.0114349 -0.663902 0
M  V30 3581 H 319.823 -0.657613 -1.93744 0
M  V30 3582 H 319.833 0.600742 -4.03553 0
M  V30 3583 H 318.508 -0.548311 -4.1227 0
M  V30 3584 H 317.085 1.18638 -3.53524 0
M  V30 3585 N 319.27 1.56325 -0.20005 0
M  V30 3586 C 320.686 1.58839 0.155716 0
M  V30 3587 C 320.886 1.21636 1.60645 0
M  V30 3588 O 319.942 0.941437 2.34293 0
M  V30 3589 C 321.255 3.0032 -0.151124 0
M  V30 3590 C 322.803 3.12866 -0.0916284 0
M  V30 3591 C 323.278 4.56488 -0.371845 0
M  V30 3592 N 324.769 4.62089 -0.320641 0
M  V30 3593 C 325.504 5.71116 -0.511243 0
M  V30 3594 N 325 6.88592 -0.762461 0
M  V30 3595 N 326.793 5.60335 -0.445157 0
M  V30 3596 H 318.944 1.78788 -1.14668 0
M  V30 3597 H 321.207 0.829996 -0.458051 0
M  V30 3598 H 320.913 3.32117 -1.15721 0
M  V30 3599 H 320.787 3.73257 0.543986 0
M  V30 3600 H 323.174 2.80878 0.905065 0
M  V30 3601 H 323.255 2.42304 -0.81989 0
M  V30 3602 H 322.899 4.89189 -1.36588 0
M  V30 3603 H 322.829 5.25246 0.377362 0
M  V30 3604 H 325.32 3.77665 -0.13329 0
M  V30 3605 H 325.633 7.67581 -0.896576 0
M  V30 3606 H 323.978 6.90387 -0.799412 0
M  V30 3607 H 327.169 4.67436 -0.249278 0
M  V30 3608 H 327.342 6.45243 -0.597116 0
M  V30 3609 N 320.748 -0.0735177 1.57428 0
M  V30 3610 C 321.711 -1.07192 2.02589 0
M  V30 3611 C 322.711 -1.31695 0.922661 0
M  V30 3612 O 323.901 -1.27445 1.18758 0
M  V30 3613 C 321.033 -2.41599 2.40506 0
M  V30 3614 H 322.226 -0.682727 2.92025 0
M  V30 3615 H 319.779 -0.319193 1.53006 0
M  V30 3616 H 320.514 -2.85354 1.5409 0
M  V30 3617 H 320.299 -2.25156 3.21009 0
M  V30 3618 H 321.789 -3.13367 2.76027 0
M  V30 3619 N 322.226 -1.5378 -0.344866 0
M  V30 3620 C 323.472 -1.71216 -1.08687 0
M  V30 3621 C 323.805 -0.473281 -1.88345 0
M  V30 3622 O 323.08 0.52968 -1.87149 0
M  V30 3623 C 323.363 -2.97486 -2.02914 0
M  V30 3624 C 323.216 -4.31579 -1.26727 0
M  V30 3625 C 324.535 -3.19422 -3.0275 0
M  V30 3626 H 321.654 -0.62301 -0.393735 0
M  V30 3627 H 324.296 -1.8645 -0.365563 0
M  V30 3628 H 322.446 -2.84629 -2.64421 0
M  V30 3629 H 324.118 -4.56284 -0.67845 0
M  V30 3630 H 322.361 -4.30049 -0.569273 0
M  V30 3631 H 323.032 -5.16106 -1.95803 0
M  V30 3632 H 325.508 -3.316 -2.51357 0
M  V30 3633 H 324.384 -4.09169 -3.65885 0
M  V30 3634 H 324.645 -2.35656 -3.74057 0
M  V30 3635 N 323.704 0.605807 -1.45491 0
M  V30 3636 C 324.981 1.36522 -1.40075 0
M  V30 3637 C 325.361 2.10976 -0.0722744 0
M  V30 3638 O 324.709 2.08007 0.945808 0
M  V30 3639 C 324.919 2.31056 -2.61561 0
M  V30 3640 C 326.267 2.93608 -3.06724 0
M  V30 3641 O 327.291 2.41376 -2.61946 0
M  V30 3642 O 326.15 3.88421 -3.84437 0
M  V30 3643 H 323.244 0.612248 -0.555951 0
M  V30 3644 H 325.79 0.628747 -1.57623 0
M  V30 3645 H 324.562 1.75311 -3.49831 0
M  V30 3646 H 324.185 3.12081 -2.46356 0
M  V30 3647 N 325.182 1.32811 0.848464 0
M  V30 3648 C 326.112 1.24882 1.97299 0
M  V30 3649 C 327.093 0.131357 1.69592 0
M  V30 3650 O 328.278 0.319553 1.91553 0
M  V30 3651 C 325.408 0.97746 3.33261 0
M  V30 3652 C 324.362 2.05682 3.75338 0
M  V30 3653 C 323.688 1.63777 5.09 0
M  V30 3654 C 324.988 3.47254 3.90144 0
M  V30 3655 H 326.682 2.18966 2.04191 0
M  V30 3656 H 324.228 1.05413 0.981029 0
M  V30 3657 H 326.181 0.908513 4.1149 0
M  V30 3658 H 324.905 0.000980011 3.266 0
M  V30 3659 H 323.564 2.11603 2.99366 0
M  V30 3660 H 323.212 0.648569 4.98801 0
M  V30 3661 H 322.912 2.36 5.38124 0
M  V30 3662 H 324.436 1.5833 5.89715 0
M  V30 3663 H 325.85 3.43888 4.58709 0
M  V30 3664 H 324.247 4.1788 4.30693 0
M  V30 3665 H 325.317 3.86462 2.92874 0
M  V30 3666 N 326.66 -1.06551 1.16123 0
M  V30 3667 C 327.909 -1.78687 0.935622 0
M  V30 3668 C 328.222 -1.88056 -0.538001 0
M  V30 3669 O 329.428 -2.56794 -0.88143 0
M  V30 3670 C 327.884 -3.21143 1.62466 0
M  V30 3671 C 327.492 -3.19949 3.13587 0
M  V30 3672 C 329.236 -3.9783 1.48092 0
M  V30 3673 C 327.143 -4.57108 3.75241 0
M  V30 3674 H 326.073 -0.669712 0.346412 0
M  V30 3675 H 328.724 -1.19534 1.39226 0
M  V30 3676 H 327.106 -3.80539 1.09572 0
M  V30 3677 H 328.28 -2.70151 3.73303 0
M  V30 3678 H 326.595 -2.5676 3.27816 0
M  V30 3679 H 329.192 -4.99217 1.91538 0
M  V30 3680 H 329.535 -4.14078 0.429507 0
M  V30 3681 H 330.068 -3.4495 1.98127 0
M  V30 3682 H 326.807 -4.46065 4.80319 0
M  V30 3683 H 326.327 -5.07111 3.20309 0
M  V30 3684 H 328.006 -5.26069 3.76644 0
M  V30 3685 N 328.138 -0.959301 -1.25041 0
M  V30 3686 C 329.387 -0.612254 -1.92183 0
M  V30 3687 C 329.7 0.855347 -1.75907 0
M  V30 3688 O 330.906 1.31256 -2.37664 0
M  V30 3689 C 329.362 -1.04435 -3.44414 0
M  V30 3690 C 328.97 -2.53482 -3.69393 0
M  V30 3691 C 330.714 -0.770055 -4.17457 0
M  V30 3692 C 328.621 -2.90468 -5.15153 0
M  V30 3693 H 327.551 -0.225279 -0.719559 0
M  V30 3694 H 330.202 -1.16438 -1.41825 0
M  V30 3695 H 328.584 -0.4206 -3.9376 0
M  V30 3696 H 329.758 -3.20916 -3.30681 0
M  V30 3697 H 328.073 -2.78432 -3.0962 0
M  V30 3698 H 330.67 -1.02249 -5.24832 0
M  V30 3699 H 331.013 0.293611 -4.15263 0
M  V30 3700 H 331.546 -1.35437 -3.74034 0
M  V30 3701 H 328.285 -3.95871 -5.22462 0
M  V30 3702 H 327.805 -2.27711 -5.54894 0
M  V30 3703 H 329.484 -2.79914 -5.83315 0
M  V30 3704 N 329.616 1.39756 -0.72842 0
M  V30 3705 C 330.548 2.29157 -0.0446202 0
M  V30 3706 C 331.561 1.46484 0.710367 0
M  V30 3707 O 332.75 1.69632 0.55562 0
M  V30 3708 C 329.85 3.24987 0.961071 0
M  V30 3709 C 329.023 4.36572 0.268967 0
M  V30 3710 C 328.082 5.12756 1.18184 0
M  V30 3711 O 327.108 5.6534 0.661794 0
M  V30 3712 N 328.31 5.23331 2.51206 0
M  V30 3713 H 331.075 2.88482 -0.812295 0
M  V30 3714 H 328.636 1.51265 -0.577098 0
M  V30 3715 H 330.628 3.72827 1.57423 0
M  V30 3716 H 329.198 2.66739 1.63 0
M  V30 3717 H 328.418 3.90694 -0.524574 0
M  V30 3718 H 329.706 5.08363 -0.210934 0
M  V30 3719 H 329.104 4.82116 2.9594 0
M  V30 3720 H 327.661 5.74634 3.07634 0
M  V30 3721 N 331.094 0.475555 1.50254 0
M  V30 3722 C 332.057 -0.305016 2.27161 0
M  V30 3723 C 333.057 -0.916519 1.32123 0
M  V30 3724 O 334.247 -0.785003 1.5551 0
M  V30 3725 C 331.379 -1.43496 3.09227 0
M  V30 3726 H 332.572 0.369511 2.97615 0
M  V30 3727 H 330.125 0.229747 1.54602 0
M  V30 3728 H 330.86 -2.14441 2.43281 0
M  V30 3729 H 330.645 -1.00223 3.79075 0
M  V30 3730 H 332.135 -1.98548 3.67381 0
M  V30 3731 N 332.573 -1.56217 0.208337 0
M  V30 3732 C 333.989 -1.58919 -0.14729 0
M  V30 3733 C 334.189 -1.22486 -1.59998 0
M  V30 3734 O 333.245 -0.953849 -2.3379 0
M  V30 3735 C 334.558 -3.00236 0.167048 0
M  V30 3736 C 336.106 -3.12813 0.108219 0
M  V30 3737 C 336.581 -4.56284 0.396049 0
M  V30 3738 N 338.072 -4.61912 0.345142 0
M  V30 3739 C 338.807 -5.70837 0.541523 0
M  V30 3740 N 338.303 -6.88178 0.798968 0
M  V30 3741 N 340.096 -5.60091 0.474867 0
M  V30 3742 H 332.247 -1.78177 1.15614 0
M  V30 3743 H 334.51 -0.827555 0.462446 0
M  V30 3744 H 334.216 -3.31499 1.1748 0
M  V30 3745 H 334.09 -3.7354 -0.524184 0
M  V30 3746 H 336.477 -2.81354 -0.890157 0
M  V30 3747 H 336.558 -2.41866 0.832729 0
M  V30 3748 H 336.202 -4.88458 1.3918 0
M  V30 3749 H 336.132 -5.25439 -0.349502 0
M  V30 3750 H 338.623 -3.77589 0.153316 0
M  V30 3751 H 338.936 -7.67095 0.93727 0
M  V30 3752 H 337.281 -6.89953 0.836013 0
M  V30 3753 H 340.472 -4.67297 0.274064 0
M  V30 3754 H 340.645 -6.44917 0.631326 0
M  V30 3755 N 334.051 0.0651679 -1.57465 0
M  V30 3756 C 335.299 0.761555 -1.87202 0
M  V30 3757 C 335.62 1.77778 -0.801243 0
M  V30 3758 O 334.89 1.95166 0.16937 0
M  V30 3759 H 333.47 0.284251 -0.690804 0
M  V30 3760 H 336.132 0.0396827 -1.9486 0
M  V30 3761 H 335.228 1.27365 -2.84929 0
M  V30 3762 N 335.529 1.53961 0.336706 0
M  V30 3763 C 336.777 1.71197 1.07405 0
M  V30 3764 C 337.098 0.481475 1.88962 0
M  V30 3765 O 336.368 -0.504585 1.8929 0
M  V30 3766 H 334.948 0.631185 0.399517 0
M  V30 3767 H 337.61 1.91232 0.376323 0
M  V30 3768 H 336.706 2.58587 1.74755 0
M  V30 3769 N 337.007 -0.598083 1.45811 0
M  V30 3770 C 338.253 -1.35882 1.50545 0
M  V30 3771 C 338.586 -1.93616 0.150445 0
M  V30 3772 O 337.861 -1.75604 -0.83628 0
M  V30 3773 C 338.144 -2.49966 2.59208 0
M  V30 3774 C 337.997 -1.97367 4.04186 0
M  V30 3775 C 339.316 -3.52068 2.64076 0
M  V30 3776 H 336.435 -0.492717 0.548087 0
M  V30 3777 H 339.077 -0.673319 1.77669 0
M  V30 3778 H 337.227 -3.08443 2.3621 0
M  V30 3779 H 338.899 -1.43466 4.38423 0
M  V30 3780 H 337.142 -1.283 4.14393 0
M  V30 3781 H 337.813 -2.79649 4.75921 0
M  V30 3782 H 340.289 -3.03448 2.84708 0
M  V30 3783 H 339.165 -4.2937 3.41954 0
M  V30 3784 H 339.426 -4.08304 1.69531 0
M  V30 3785 N 338.485 -1.33259 -0.841409 0
M  V30 3786 C 339.731 -1.24757 -1.59886 0
M  V30 3787 C 340.064 0.186913 -1.93298 0
M  V30 3788 O 339.339 1.12757 -1.5848 0
M  V30 3789 C 339.622 -2.12036 -2.91055 0
M  V30 3790 C 339.475 -3.63929 -2.6434 0
M  V30 3791 C 340.794 -1.9916 -3.92458 0
M  V30 3792 H 337.913 -0.454542 -0.580138 0
M  V30 3793 H 340.555 -1.63335 -0.970647 0
M  V30 3794 H 338.705 -1.79265 -3.44669 0
M  V30 3795 H 340.377 -4.06978 -2.17178 0
M  V30 3796 H 338.62 -3.85935 -1.98082 0
M  V30 3797 H 339.291 -4.20341 -3.57796 0
M  V30 3798 H 341.767 -2.27895 -3.48143 0
M  V30 3799 H 340.643 -2.62484 -4.82072 0
M  V30 3800 H 340.904 -0.963082 -4.31482 0
M  V30 3801 N 339.963 1.05934 -1.16686 0
M  V30 3802 C 340.873 2.17014 -0.891183 0
M  V30 3803 C 341.889 1.73453 0.137907 0
M  V30 3804 O 343.065 2.01361 -0.039592 0
M  V30 3805 C 340.13 3.44384 -0.400099 0
M  V30 3806 C 339.191 4.02433 -1.49486 0
M  V30 3807 C 338.424 5.23723 -1.02711 0
M  V30 3808 O 338.647 5.7027 0.121716 0
M  V30 3809 O 337.581 5.7382 -1.81699 0
M  V30 3810 H 341.407 2.43113 -1.82015 0
M  V30 3811 H 338.992 1.15541 -0.947132 0
M  V30 3812 H 340.874 4.21189 -0.133392 0
M  V30 3813 H 339.549 3.19802 0.500817 0
M  V30 3814 H 338.456 3.27102 -1.81535 0
M  V30 3815 H 339.789 4.31317 -2.37121 0
M  V30 3816 N 341.441 0.965919 1.2453 0
M  V30 3817 C 342.852 0.665929 1.7442 0
M  V30 3818 C 343.203 -0.818407 1.78316 0
M  V30 3819 O 342.328 -1.64037 1.41141 0
M  V30 3820 C 342.923 1.20211 3.16757 0
M  V30 3821 C 341.482 0.952059 3.6416 0
M  V30 3822 C 340.629 1.33848 2.42858 0
M  V30 3823 H 343.58 1.14144 1.10258 0
M  V30 3824 H 343.601 0.567544 3.76244 0
M  V30 3825 H 343.113 2.28244 3.13889 0
M  V30 3826 H 341.214 -0.112821 3.72429 0
M  V30 3827 H 341.327 1.59645 4.51719 0
M  V30 3828 H 339.691 0.756864 2.43195 0
M  V30 3829 H 340.474 2.42827 2.42673 0
M  V30 3830 N 342.919 -1.39368 0.735821 0
M  V30 3831 C 344.144 -2.05319 0.293052 0
M  V30 3832 C 344.569 -1.55115 -1.064 0
M  V30 3833 O 343.927 -0.695261 -1.67439 0
M  V30 3834 C 343.975 -3.59305 0.305323 0
M  V30 3835 O 343.079 -4.06299 -0.706761 0
M  V30 3836 H 342.42 -0.650529 0.13307 0
M  V30 3837 H 344.95 -1.78386 1.00197 0
M  V30 3838 H 344.96 -4.07724 0.149997 0
M  V30 3839 H 343.635 -3.95207 1.29553 0
M  V30 3840 H 342.212 -3.69292 -0.517504 0
M  V30 3841 N 344.397 -0.483516 -1.5 0
M  V30 3842 C 345.808 -0.0314176 -1.86674 0
M  V30 3843 C 346.159 1.37728 -1.39733 0
M  V30 3844 O 345.284 2.02327 -0.767635 0
M  V30 3845 C 345.879 -0.0502376 -3.38763 0
M  V30 3846 C 344.438 0.346442 -3.74802 0
M  V30 3847 C 343.585 -0.430366 -2.7394 0
M  V30 3848 H 346.536 -0.697182 -1.42566 0
M  V30 3849 H 346.557 0.749116 -3.73053 0
M  V30 3850 H 346.069 -1.07563 -3.72897 0
M  V30 3851 H 344.17 1.37572 -3.46273 0
M  V30 3852 H 344.283 0.0391486 -4.79084 0
M  V30 3853 H 342.647 0.117557 -2.54429 0
M  V30 3854 H 343.43 -1.4555 -3.10918 0
M  V30 3855 N 345.875 1.56104 -0.216619 0
M  V30 3856 C 347.1 2.0301 0.424462 0
M  V30 3857 C 347.525 1.0955 1.52907 0
M  V30 3858 O 346.883 0.0827914 1.81111 0
M  V30 3859 C 346.931 3.4819 0.937883 0
M  V30 3860 O 346.035 3.57865 2.04955 0
M  V30 3861 H 345.376 0.656925 0.0966755 0
M  V30 3862 H 347.906 2.01859 -0.33381 0
M  V30 3863 H 347.916 3.88413 1.24897 0
M  V30 3864 H 346.591 4.15699 0.129387 0
M  V30 3865 H 345.168 3.29527 1.74546 0
M  V30 3866 N 347.353 -0.0568162 1.57498 0
M  V30 3867 C 348.583 -0.764515 1.91934 0
M  V30 3868 C 348.991 -1.70877 0.81227 0
M  V30 3869 O 348.334 -1.82351 -0.222213 0
M  V30 3870 C 348.396 -1.5994 3.21962 0
M  V30 3871 C 348.06 -0.822925 4.4953 0
M  V30 3872 C 349.057 -0.135464 5.19723 0
M  V30 3873 C 346.742 -0.785666 4.96117 0
M  V30 3874 C 348.736 0.578861 6.34766 0
M  V30 3875 C 346.423 -0.0675784 6.11063 0
M  V30 3876 C 347.421 0.613471 6.80239 0
M  V30 3877 O 347.109 1.31996 7.92989 0
M  V30 3878 H 346.841 -0.221647 0.63863 0
M  V30 3879 H 349.395 -0.0268218 2.05382 0
M  V30 3880 H 347.625 -2.38026 3.04763 0
M  V30 3881 H 349.314 -2.18715 3.41934 0
M  V30 3882 H 350.08 -0.155458 4.84751 0
M  V30 3883 H 345.959 -1.30524 4.42136 0
M  V30 3884 H 349.503 1.111 6.88696 0
M  V30 3885 H 345.4 -0.0455636 6.45484 0
M  V30 3886 H 346.168 1.23077 8.09194 0
M  V30 3887 N 348.832 -1.54138 -0.328536 0
M  V30 3888 C 349.795 -1.82462 -1.38709 0
M  V30 3889 C 350.795 -0.696229 -1.44946 0
M  V30 3890 O 351.985 -0.964535 -1.4506 0
M  V30 3891 C 349.117 -1.98018 -2.77492 0
M  V30 3892 H 350.31 -2.77037 -1.14851 0
M  V30 3893 H 347.863 -1.45779 -0.563751 0
M  V30 3894 H 348.598 -1.05637 -3.06613 0
M  V30 3895 H 348.383 -2.80124 -2.74359 0
M  V30 3896 H 349.873 -2.21396 -3.54081 0
M  V30 3897 N 350.31 0.590341 -1.46126 0
M  V30 3898 C 351.24 1.71032 -1.58966 0
M  V30 3899 C 352.221 1.64302 -0.440335 0
M  V30 3900 O 353.406 1.82436 -0.665634 0
M  V30 3901 C 350.536 3.09665 -1.57241 0
M  V30 3902 C 349.49 3.31221 -2.71066 0
M  V30 3903 C 348.816 4.70303 -2.54399 0
M  V30 3904 C 350.116 3.19796 -4.1295 0
M  V30 3905 H 351.81 1.60543 -2.52718 0
M  V30 3906 H 349.356 0.770933 -1.21625 0
M  V30 3907 H 351.309 3.87831 -1.64819 0
M  V30 3908 H 350.033 3.21036 -0.600289 0
M  V30 3909 H 348.692 2.55452 -2.62944 0
M  V30 3910 H 348.34 4.78429 -1.55288 0
M  V30 3911 H 348.04 4.85679 -3.30741 0
M  V30 3912 H 349.564 5.50647 -2.63857 0
M  V30 3913 H 350.978 3.87815 -4.22223 0
M  V30 3914 H 349.375 3.46696 -4.89818 0
M  V30 3915 H 350.445 2.16983 -4.33643 0
M  V30 3916 N 351.788 1.33704 0.83433 0
M  V30 3917 C 353.034 1.25603 1.59222 0
M  V30 3918 C 353.367 -0.176659 1.93395 0
M  V30 3919 O 352.642 -1.11915 1.59076 0
M  V30 3920 C 352.925 2.13576 2.89926 0
M  V30 3921 C 352.778 3.65326 2.62406 0
M  V30 3922 C 354.097 2.01238 3.91397 0
M  V30 3923 H 351.216 0.457613 0.577719 0
M  V30 3924 H 353.858 1.63848 0.961972 0
M  V30 3925 H 352.008 1.8109 3.43713 0
M  V30 3926 H 353.68 4.08124 2.15017 0
M  V30 3927 H 351.923 3.8698 1.96033 0
M  V30 3928 H 352.594 4.22232 3.55562 0
M  V30 3929 H 355.07 2.29738 3.46929 0
M  V30 3930 H 353.946 2.65036 4.80673 0
M  V30 3931 H 354.207 0.985951 4.30966 0
M  V30 3932 N 353.266 -1.05314 1.17247 0
M  V30 3933 C 354.198 -2.13023 0.845812 0
M  V30 3934 C 355.211 -1.62096 -0.151246 0
M  V30 3935 O 356.4 -1.78343 0.0748818 0
M  V30 3936 C 353.5 -3.38047 0.240292 0
M  V30 3937 C 352.673 -4.18255 1.27991 0
M  V30 3938 C 351.732 -5.21625 0.692375 0
M  V30 3939 O 350.758 -5.52619 1.36385 0
M  V30 3940 N 351.96 -5.78201 -0.516178 0
M  V30 3941 H 354.725 -2.41642 1.77283 0
M  V30 3942 H 352.286 -1.21401 1.07115 0
M  V30 3943 H 354.278 -4.04359 -0.16603 0
M  V30 3944 H 352.848 -3.06972 -0.590487 0
M  V30 3945 H 352.068 -3.47451 1.86203 0
M  V30 3946 H 353.356 -4.68643 1.98119 0
M  V30 3947 H 352.754 -5.55301 -1.07969 0
M  V30 3948 H 351.311 -6.4604 -0.86458 0
M  V30 3949 N 354.744 -0.972509 -1.24016 0
M  V30 3950 C 355.654 -0.5143 -2.28893 0
M  V30 3951 C 356.67 0.427078 -1.68677 0
M  V30 3952 O 357.846 0.298939 -1.99169 0
M  V30 3953 C 354.911 0.183598 -3.46214 0
M  V30 3954 C 353.972 -0.798202 -4.21814 0
M  V30 3955 C 353.205 -0.133514 -5.33533 0
M  V30 3956 O 353.428 1.07714 -5.60137 0
M  V30 3957 O 352.362 -0.828103 -5.96176 0
M  V30 3958 H 356.188 -1.38629 -2.70214 0
M  V30 3959 H 353.773 -0.739769 -1.29799 0
M  V30 3960 H 355.655 0.575433 -4.17453 0
M  V30 3961 H 354.33 1.03048 -3.0686 0
M  V30 3962 H 353.237 -1.24059 -3.52931 0
M  V30 3963 H 354.57 -1.61364 -4.64997 0
M  V30 3964 N 356.222 1.38976 -0.743202 0
M  V30 3965 C 357.185 2.28901 -0.117014 0
M  V30 3966 C 358.185 1.46698 0.658503 0
M  V30 3967 O 359.375 1.67274 0.486305 0
M  V30 3968 C 356.507 3.30309 0.84315 0
M  V30 3969 H 357.7 2.8578 -0.909373 0
M  V30 3970 H 355.253 1.47761 -0.509547 0
M  V30 3971 H 355.988 2.785 1.66157 0
M  V30 3972 H 355.773 3.91029 0.289594 0
M  V30 3973 H 357.263 3.97577 1.2776 0
M  V30 3974 N 357.7 0.491464 1.49741 0
M  V30 3975 C 358.61 -0.296835 2.32715 0
M  V30 3976 C 359.626 -0.976536 1.44013 0
M  V30 3977 O 360.802 -0.960023 1.77047 0
M  V30 3978 C 357.867 -1.35288 3.19215 0
M  V30 3979 C 356.928 -0.687632 4.23757 0
M  V30 3980 C 356.161 -1.69336 5.06123 0
M  V30 3981 O 356.384 -2.92219 4.89861 0
M  V30 3982 O 355.318 -1.25394 5.88693 0
M  V30 3983 H 359.144 0.382048 3.01287 0
M  V30 3984 H 356.729 0.252953 1.47243 0
M  V30 3985 H 358.611 -1.96411 3.72828 0
M  V30 3986 H 357.286 -2.01487 2.53347 0
M  V30 3987 H 356.193 -0.0369159 3.74082 0
M  V30 3988 H 357.526 -0.0682566 4.92153 0
M  V30 3989 N 359.178 -1.55987 0.224894 0
M  V30 3990 C 360.141 -2.19178 -0.670348 0
M  V30 3991 C 361.141 -1.15461 -1.11917 0
M  V30 3992 O 362.331 -1.40675 -1.02743 0
M  V30 3993 C 359.463 -2.81777 -1.9187 0
M  V30 3994 H 360.656 -2.99662 -0.119364 0
M  V30 3995 H 358.209 -1.5628 -0.0247128 0
M  V30 3996 H 358.944 -2.05172 -2.51147 0
M  V30 3997 H 358.729 -3.57732 -1.60531 0
M  V30 3998 H 360.219 -3.30205 -2.55645 0
M  V30 3999 N 360.656 0.0484629 -1.57525 0
M  V30 4000 C 361.884 0.755421 -1.92616 0
M  V30 4001 C 362.299 1.69919 -0.822984 0
M  V30 4002 O 361.656 1.81378 0.202085 0
M  V30 4003 C 361.707 1.52915 -3.27566 0
M  V30 4004 O 361.428 0.62329 -4.33644 0
M  V30 4005 C 362.929 2.33502 -3.76818 0
M  V30 4006 H 360.149 0.213465 -0.63614 0
M  V30 4007 H 362.693 0.0117698 -2.04497 0
M  V30 4008 H 360.848 2.22486 -3.17142 0
M  V30 4009 H 361.262 1.16383 -5.11425 0
M  V30 4010 H 362.736 2.83214 -4.73808 0
M  V30 4011 H 363.213 3.14068 -3.07014 0
M  V30 4012 H 363.819 1.69043 -3.90262 0
M  V30 4013 N 362.134 1.5431 0.320358 0
M  V30 4014 C 363.044 1.86946 1.41734 0
M  V30 4015 C 364.06 0.761689 1.56443 0
M  V30 4016 O 365.236 1.05629 1.71477 0
M  V30 4017 C 362.301 2.09293 2.76401 0
M  V30 4018 C 361.362 3.33082 2.70841 0
M  V30 4019 C 360.595 3.54353 3.99086 0
M  V30 4020 O 360.818 2.79002 4.97508 0
M  V30 4021 O 359.752 4.47838 4.0215 0
M  V30 4022 H 363.578 2.80232 1.17062 0
M  V30 4023 H 361.163 1.40255 0.514673 0
M  V30 4024 H 363.045 2.25303 3.56113 0
M  V30 4025 H 361.72 1.19194 3.00956 0
M  V30 4026 H 360.627 3.22454 1.89668 0
M  V30 4027 H 361.96 4.23249 2.5124 0
M  V30 4028 N 363.613 -0.582584 1.46437 0
M  V30 4029 C 364.841 -1.36682 1.55324 0
M  V30 4030 C 365.256 -1.87796 0.194409 0
M  V30 4031 O 364.613 -1.63623 -0.808318 0
M  V30 4032 C 364.664 -2.55426 2.55812 0
M  V30 4033 O 364.385 -2.0643 3.86417 0
M  V30 4034 C 365.886 -3.47976 2.74641 0
M  V30 4035 H 363.106 -0.417545 0.525259 0
M  V30 4036 H 365.65 -0.708219 1.91845 0
M  V30 4037 H 363.805 -3.17275 2.22295 0
M  V30 4038 H 364.219 -2.83762 4.41111 0
M  V30 4039 H 365.693 -4.27775 3.48874 0
M  V30 4040 H 366.17 -3.99919 1.81553 0
M  V30 4041 H 366.776 -2.91962 3.09255 0
M  V30 4042 N 365.091 -1.34144 -0.827227 0
M  V30 4043 C 366.502 -1.23557 -1.39966 0
M  V30 4044 C 366.853 0.140731 -1.95695 0
M  V30 4045 O 365.978 1.04087 -1.89723 0
M  V30 4046 C 366.573 -2.23708 -2.54441 0
M  V30 4047 C 365.132 -2.16924 -3.07605 0
M  V30 4048 C 364.279 -2.10549 -1.80456 0
M  V30 4049 H 367.23 -1.45573 -0.631991 0
M  V30 4050 H 367.251 -1.85157 -3.32411 0
M  V30 4051 H 366.763 -3.23866 -2.13851 0
M  V30 4052 H 364.864 -1.20107 -3.52711 0
M  V30 4053 H 364.977 -3.07988 -3.66988 0
M  V30 4054 H 363.341 -1.56203 -2.01178 0
M  V30 4055 H 364.124 -3.12535 -1.42046 0
M  V30 4056 N 366.569 1.04691 -1.17803 0
M  V30 4057 C 367.479 2.16057 -0.914151 0
M  V30 4058 C 368.495 1.73589 0.119503 0
M  V30 4059 O 369.671 2.01308 -0.0609468 0
M  V30 4060 C 366.736 3.4394 -0.436603 0
M  V30 4061 C 365.797 4.00825 -1.53746 0
M  V30 4062 C 365.03 5.22604 -1.0826 0
M  V30 4063 O 365.253 5.70367 0.0612244 0
M  V30 4064 O 364.187 5.7186 -1.87775 0
M  V30 4065 H 368.013 2.41169 -1.84584 0
M  V30 4066 H 365.598 1.1453 -0.959334 0
M  V30 4067 H 367.48 4.21024 -0.178057 0
M  V30 4068 H 366.155 3.20316 0.466869 0
M  V30 4069 H 365.062 3.25158 -1.84995 0
M  V30 4070 H 366.395 4.28778 -2.41683 0
M  V30 4071 N 368.047 0.979072 1.23499 0
M  V30 4072 C 369.295 0.645941 1.91499 0
M  V30 4073 C 369.616 -0.822948 1.76784 0
M  V30 4074 O 368.886 -1.58854 1.14639 0
M  V30 4075 H 367.466 0.235919 0.708767 0
M  V30 4076 H 370.128 1.2426 1.50152 0
M  V30 4077 H 369.224 0.896411 2.9895 0
M  V30 4078 N 369.525 -1.3858 0.750561 0
M  V30 4079 C 370.435 -2.34278 0.122825 0
M  V30 4080 C 371.451 -1.59116 -0.704131 0
M  V30 4081 O 372.627 -1.91326 -0.628987 0
M  V30 4082 C 369.692 -3.38221 -0.762086 0
M  V30 4083 C 368.753 -4.29227 0.078896 0
M  V30 4084 C 367.986 -5.28205 -0.763874 0
M  V30 4085 O 368.209 -5.34112 -2.00201 0
M  V30 4086 O 367.143 -6.01618 -0.18428 0
M  V30 4087 H 370.969 -2.89649 0.913088 0
M  V30 4088 H 368.554 -1.40374 0.511417 0
M  V30 4089 H 370.436 -4.01872 -1.26793 0
M  V30 4090 H 369.111 -2.85211 -1.5309 0
M  V30 4091 H 368.018 -3.68747 0.630621 0
M  V30 4092 H 369.351 -4.85484 0.810289 0
M  V30 4093 N 371.003 -0.499398 -1.49478 0
M  V30 4094 C 372.228 0.044722 -2.07352 0
M  V30 4095 C 372.653 1.30207 -1.35749 0
M  V30 4096 O 372.011 1.76516 -0.413732 0
M  V30 4097 C 372.059 0.283013 -3.59488 0
M  V30 4098 O 371.163 1.35804 -3.89398 0
M  V30 4099 H 370.504 -0.0255147 -0.66351 0
M  V30 4100 H 373.034 -0.698561 -1.92305 0
M  V30 4101 H 373.044 0.515007 -4.04737 0
M  V30 4102 H 371.719 -0.635636 -4.11014 0
M  V30 4103 H 370.296 1.11113 -3.55961 0
M  V30 4104 N 372.481 1.55866 -0.233164 0
M  V30 4105 C 373.391 2.24431 0.683217 0
M  V30 4106 C 374.407 1.2558 1.2044 0
M  V30 4107 O 375.583 1.58422 1.24356 0
M  V30 4108 C 372.648 2.91979 1.86947 0
M  V30 4109 C 371.709 4.06204 1.38912 0
M  V30 4110 C 370.942 4.70522 2.51883 0
M  V30 4111 O 371.165 4.33865 3.70293 0
M  V30 4112 O 370.099 5.59296 2.22423 0
M  V30 4113 H 373.925 3.03426 0.129059 0
M  V30 4114 H 371.51 1.494 -0.0022283 0
M  V30 4115 H 373.392 3.34573 2.56201 0
M  V30 4116 H 372.067 2.15935 2.41151 0
M  V30 4117 H 370.974 3.68155 0.664259 0
M  V30 4118 H 372.307 4.84025 0.893328 0
M  V30 4119 N 373.959 -0.0401083 1.57549 0
M  V30 4120 C 375.205 -0.734211 1.89043 0
M  V30 4121 C 375.538 -1.75591 0.829535 0
M  V30 4122 O 374.813 -1.93868 -0.156706 0
M  V30 4123 C 375.096 -1.41374 3.31188 0
M  V30 4124 C 374.949 -0.406299 4.47961 0
M  V30 4125 C 376.268 -2.35061 3.72068 0
M  V30 4126 H 373.387 -0.265447 0.687537 0
M  V30 4127 H 376.029 0.00294087 1.9 0
M  V30 4128 H 374.179 -2.04206 3.30503 0
M  V30 4129 H 375.851 0.219255 4.60779 0
M  V30 4130 H 374.094 0.275485 4.32924 0
M  V30 4131 H 374.765 -0.920022 5.44279 0
M  V30 4132 H 377.241 -1.82282 3.74049 0
M  V30 4133 H 376.117 -2.79593 4.72355 0
M  V30 4134 H 376.378 -3.21258 3.0372 0
M  V30 4135 N 375.437 -1.54477 -0.31217 0
M  V30 4136 C 376.347 -1.87695 -1.4074 0
M  V30 4137 C 377.363 -0.769975 -1.56036 0
M  V30 4138 O 378.539 -1.06537 -1.70915 0
M  V30 4139 C 375.604 -2.10755 -2.75287 0
M  V30 4140 C 374.665 -3.34514 -2.69071 0
M  V30 4141 C 373.898 -3.56465 -3.97201 0
M  V30 4142 O 374.121 -2.81637 -4.96021 0
M  V30 4143 O 373.055 -4.49964 -3.9977 0
M  V30 4144 H 376.881 -2.80849 -1.15574 0
M  V30 4145 H 374.466 -1.40526 -0.507228 0
M  V30 4146 H 376.348 -2.27188 -3.54913 0
M  V30 4147 H 375.023 -1.20788 -3.0032 0
M  V30 4148 H 373.93 -3.23456 -1.87955 0
M  V30 4149 H 375.263 -4.24575 -2.48992 0
M  V30 4150 N 376.915 0.57481 -1.46744 0
M  V30 4151 C 377.878 1.66533 -1.57478 0
M  V30 4152 C 378.878 1.54338 -0.451263 0
M  V30 4153 O 380.068 1.58814 -0.715813 0
M  V30 4154 C 377.2 3.05999 -1.50259 0
M  V30 4155 H 378.393 1.58372 -2.54673 0
M  V30 4156 H 375.946 0.793301 -1.34672 0
M  V30 4157 H 376.681 3.19709 -0.543725 0
M  V30 4158 H 376.466 3.16259 -2.31781 0
M  V30 4159 H 377.956 3.8537 -1.60872 0
M  V30 4160 O 378.432 1.44602 0.719209 0
M  V30 4161 H 379.123 1.36947 1.36986 0
M  V30 END ATOM
M  V30 BEGIN BOND
M  V30 END BOND
M  V30 END CTAB
M  END
$$$$
