drugbank_target|P21964 Catechol O-methyltransferase (DB00118; DB00323; DB00494; DB02105; DB02342; DB03336; DB03907; DB04820; DB07462; DB08049; DB11632)
 OpenBabel12092120043D

  0  0  0     0  0            999 V3000
M  V30 BEGIN CTAB
M  V30 COUNTS 4258 4303 0 0 0
M  V30 BEGIN ATOM
M  V30 1 H -0.908 1.98254 -0.117106 0
M  V30 2 N 0 1.576 0 0
M  V30 3 C 0.933 2.03868 1.02534 0
M  V30 4 C 1.911 0.928543 1.3348 0
M  V30 5 O 3.095 1.19667 1.45644 0
M  V30 6 C 0.222 2.43627 2.35294 0
M  V30 7 C -0.732 3.65373 2.2001 0
M  V30 8 S 0.101 5.13292 1.52614 0
M  V30 9 C 1.257 5.56322 2.86805 0
M  V30 10 H 1.49 2.90518 0.631377 0
M  V30 11 H -0.977 1.52953 0.210867 0
M  V30 12 H 0.981 2.67203 3.11629 0
M  V30 13 H -0.358 1.57376 2.7183 0
M  V30 14 H -1.165 3.90944 3.18086 0
M  V30 15 H -1.563 3.418 1.51819 0
M  V30 16 H 0.729 5.58782 3.83104 0
M  V30 17 H 1.672 6.56266 2.65933 0
M  V30 18 H 2.08 4.83886 2.90714 0
M  V30 19 N 1.4781 -0.272755 1.55222 0
M  V30 20 C 2.8891 -0.84378 1.66545 0
M  V30 21 C 3.2401 -1.87035 0.592641 0
M  V30 22 O 2.3651 -2.14761 -0.265818 0
M  V30 23 C 2.9601 -1.53723 3.01918 0
M  V30 24 C 1.5191 -2.05628 3.15268 0
M  V30 25 C 0.6661 -0.898424 2.62343 0
M  V30 26 H 3.6171 -0.0490998 1.58624 0
M  V30 27 H 3.6381 -2.40421 2.94921 0
M  V30 28 H 3.1501 -0.78983 3.79978 0
M  V30 29 H 1.2511 -2.83329 2.41983 0
M  V30 30 H 1.3641 -2.27142 4.21833 0
M  V30 31 H -0.2719 -1.29186 2.19506 0
M  V30 32 H 0.5111 -0.164528 3.42906 0
M  V30 33 N 2.9562 -1.48159 -0.537278 0
M  V30 34 C 3.8662 -1.64807 -1.6696 0
M  V30 35 C 4.8822 -0.530651 -1.65711 0
M  V30 36 O 6.0582 -0.800784 -1.84796 0
M  V30 37 C 3.1232 -1.67708 -3.03438 0
M  V30 38 C 2.1842 -2.91025 -3.156 0
M  V30 39 C 1.4172 -2.93778 -4.45567 0
M  V30 40 O 1.6402 -2.05153 -5.3223 0
M  V30 41 O 0.5742 -3.85868 -4.61941 0
M  V30 42 H 4.4002 -2.6066 -1.55853 0
M  V30 43 H 1.9852 -1.31475 -0.709549 0
M  V30 44 H 3.8672 -1.7218 -3.84619 0
M  V30 45 H 2.5422 -0.750278 -3.14885 0
M  V30 46 H 1.4492 -2.92089 -2.33741 0
M  V30 47 H 2.7822 -3.83065 -3.09066 0
M  V30 48 N 4.4343 0.785586 -1.36625 0
M  V30 49 C 5.3973 1.87999 -1.31107 0
M  V30 50 C 6.3973 1.59316 -0.217959 0
M  V30 51 O 7.5873 1.67656 -0.472977 0
M  V30 52 C 4.7193 3.24861 -1.03334 0
M  V30 53 H 5.9123 1.94307 -2.2844 0
M  V30 54 H 3.4653 0.983813 -1.21453 0
M  V30 55 H 4.2003 3.24235 -0.0647432 0
M  V30 56 H 3.9853 3.4707 -1.82441 0
M  V30 57 H 5.4753 4.04929 -1.02088 0
M  V30 58 N 5.9124 1.20967 1.01018 0
M  V30 59 C 7.3234 1.02319 1.56165 0
M  V30 60 C 7.6744 -0.418546 1.91684 0
M  V30 61 O 6.7994 -1.30096 1.72928 0
M  V30 62 C 7.3944 1.85109 2.8376 0
M  V30 63 C 5.9534 1.70809 3.35412 0
M  V30 64 C 5.1004 1.82643 2.08655 0
M  V30 65 H 8.0514 1.35065 0.833255 0
M  V30 66 H 8.0724 1.35827 3.55431 0
M  V30 67 H 7.5844 2.90035 2.57878 0
M  V30 68 H 5.6854 0.685464 3.66241 0
M  V30 69 H 5.7984 2.52467 4.07182 0
M  V30 70 H 4.1624 1.25896 2.21409 0
M  V30 71 H 4.9454 2.89066 1.85191 0
M  V30 72 N 7.3905 -1.2043 1.01659 0
M  V30 73 C 8.8015 -1.71517 0.737482 0
M  V30 74 C 9.1525 -1.81547 -0.743973 0
M  V30 75 O 8.2775 -1.47803 -1.58061 0
M  V30 76 C 8.8725 -3.11515 1.33206 0
M  V30 77 C 7.4315 -3.59912 1.10183 0
M  V30 78 C 6.5785 -2.37116 1.43776 0
M  V30 79 H 9.5295 -1.05444 1.18606 0
M  V30 80 H 9.5505 -3.73575 0.722636 0
M  V30 81 H 9.0625 -3.04182 2.41028 0
M  V30 82 H 7.1635 -3.72577 0.0412756 0
M  V30 83 H 7.2765 -4.44731 1.78188 0
M  V30 84 H 5.6405 -2.39857 0.856778 0
M  V30 85 H 6.4235 -2.32424 2.52654 0
M  V30 86 N 8.8686 -0.792821 -1.36206 0
M  V30 87 C 9.7986 -0.207853 -2.32573 0
M  V30 88 C 10.7796 0.659055 -1.56813 0
M  V30 89 O 11.9646 0.592176 -1.84951 0
M  V30 90 C 9.0946 0.655449 -3.41059 0
M  V30 91 C 8.0486 -0.111842 -4.27854 0
M  V30 92 C 7.3746 0.872274 -5.27537 0
M  V30 93 C 8.6746 -1.30299 -5.05786 0
M  V30 94 H 10.3686 -1.01294 -2.81744 0
M  V30 95 H 7.9146 -0.48854 -1.3546 0
M  V30 96 H 9.8676 1.07464 -4.07467 0
M  V30 97 H 8.5916 1.49328 -2.90463 0
M  V30 98 H 7.2506 -0.512053 -3.63006 0
M  V30 99 H 6.8986 1.70523 -4.73214 0
M  V30 100 H 6.5986 0.363291 -5.86476 0
M  V30 101 H 8.1226 1.28996 -5.96818 0
M  V30 102 H 9.5366 -0.959379 -5.65216 0
M  V30 103 H 7.9336 -1.7455 -5.74154 0
M  V30 104 H 9.0036 -2.09663 -4.37229 0
M  V30 105 N 10.3467 1.47872 -0.545128 0
M  V30 106 C 11.2767 2.32661 0.197793 0
M  V30 107 C 12.2577 1.43041 0.920504 0
M  V30 108 O 13.4427 1.71912 0.90333 0
M  V30 109 C 10.5727 3.24569 1.23582 0
M  V30 110 C 9.5267 4.23333 0.630323 0
M  V30 111 C 8.8527 5.0448 1.77211 0
M  V30 112 C 10.1527 5.20704 -0.407974 0
M  V30 113 H 11.8467 2.95024 -0.510045 0
M  V30 114 H 9.3927 1.4187 -0.246731 0
M  V30 115 H 11.3457 3.8272 1.76362 0
M  V30 116 H 10.0697 2.60236 1.97344 0
M  V30 117 H 8.7287 3.6639 0.123922 0
M  V30 118 H 8.3767 4.36561 2.49847 0
M  V30 119 H 8.0767 5.71339 1.37281 0
M  V30 120 H 9.6007 5.65487 2.3034 0
M  V30 121 H 11.0147 5.7329 0.033305 0
M  V30 122 H 9.4117 5.95699 -0.725486 0
M  V30 123 H 10.4817 4.66917 -1.30828 0
M  V30 124 N 11.8248 0.280983 1.55075 0
M  V30 125 C 12.7548 -0.597469 2.25727 0
M  V30 126 C 13.7358 -1.15417 1.24952 0
M  V30 127 O 14.9208 -1.18722 1.53684 0
M  V30 128 C 12.0508 -1.7789 2.98283 0
M  V30 129 C 11.0048 -1.35347 4.06036 0
M  V30 130 C 10.3308 -2.61846 4.66198 0
M  V30 131 C 11.6308 -0.499354 5.19907 0
M  V30 132 H 13.3248 -0.00824265 2.99399 0
M  V30 133 H 10.8708 -0.0025244 1.44 0
M  V30 134 H 12.8238 -2.39937 3.46422 0
M  V30 135 H 11.5478 -2.39405 2.22155 0
M  V30 136 H 10.2068 -0.756156 3.58717 0
M  V30 137 H 9.8548 -3.21632 3.86732 0
M  V30 138 H 9.5548 -2.3409 5.38958 0
M  V30 139 H 11.0788 -3.24732 5.1709 0
M  V30 140 H 12.4928 -1.02498 5.64063 0
M  V30 141 H 10.8898 -0.316424 5.99265 0
M  V30 142 H 11.9598 0.480459 4.82514 0
M  V30 143 N 13.3029 -1.57598 0.00835791 0
M  V30 144 C 14.2659 -2.07884 -0.965242 0
M  V30 145 C 15.2659 -0.989825 -1.26725 0
M  V30 146 O 16.4559 -1.25218 -1.21104 0
M  V30 147 C 13.5879 -2.52731 -2.28779 0
M  V30 148 H 14.7809 -2.95178 -0.530112 0
M  V30 149 H 12.3339 -1.54458 -0.239283 0
M  V30 150 H 13.0689 -1.68705 -2.76964 0
M  V30 151 H 12.8539 -3.32272 -2.08177 0
M  V30 152 H 14.3439 -2.91933 -2.98605 0
M  V30 153 N 14.781 0.264519 -1.55364 0
M  V30 154 C 15.744 1.31046 -1.88042 0
M  V30 155 C 16.744 1.41943 -0.755569 0
M  V30 156 O 17.934 1.40947 -1.02369 0
M  V30 157 C 15.066 2.69067 -2.09323 0
M  V30 158 H 16.259 1.03297 -2.81549 0
M  V30 159 H 13.812 0.502989 -1.47986 0
M  V30 160 H 14.547 3.01982 -1.18226 0
M  V30 161 H 14.332 2.62542 -2.91229 0
M  V30 162 H 15.822 3.44623 -2.35848 0
M  V30 163 N 16.2591 1.48442 0.529413 0
M  V30 164 C 17.5051 1.5672 1.28711 0
M  V30 165 C 17.8381 0.2406 1.92704 0
M  V30 166 O 17.1131 -0.753454 1.79313 0
M  V30 167 C 17.3961 2.70587 2.37603 0
M  V30 168 C 17.2491 4.12953 1.78297 0
M  V30 169 C 18.5681 2.80212 3.39366 0
M  V30 170 H 15.6871 0.570474 0.466613 0
M  V30 171 H 18.3291 1.80617 0.589706 0
M  V30 172 H 16.4791 2.50342 2.97088 0
M  V30 173 H 18.1511 4.44639 1.22858 0
M  V30 174 H 16.3941 4.19927 1.0883 0
M  V30 175 H 17.0651 4.88448 2.57144 0
M  V30 176 H 19.5411 2.98553 2.89836 0
M  V30 177 H 18.4171 3.61611 4.12951 0
M  V30 178 H 18.6781 1.88393 3.99951 0
M  V30 179 N 17.7372 -0.778329 1.37039 0
M  V30 180 C 18.6672 -1.90546 1.34962 0
M  V30 181 C 19.6482 -1.68681 0.219274 0
M  V30 182 O 20.8332 -1.89634 0.418624 0
M  V30 183 C 17.9632 -3.27734 1.14925 0
M  V30 184 C 16.9172 -3.64147 2.24902 0
M  V30 185 C 16.2432 -4.99806 1.89996 0
M  V30 186 C 17.5432 -3.71579 3.67051 0
M  V30 187 H 19.2372 -1.92541 2.29277 0
M  V30 188 H 16.7832 -0.924948 1.10366 0
M  V30 189 H 18.7362 -4.06215 1.12104 0
M  V30 190 H 17.4602 -3.26154 0.170631 0
M  V30 191 H 16.1192 -2.8797 2.26868 0
M  V30 192 H 15.7672 -4.94759 0.906796 0
M  V30 193 H 15.4672 -5.25139 2.63634 0
M  V30 194 H 16.9912 -5.80694 1.88749 0
M  V30 195 H 18.4052 -4.40227 3.67251 0
M  V30 196 H 16.8022 -4.08405 4.39688 0
M  V30 197 H 17.8722 -2.72404 4.01154 0
M  V30 198 N 19.2153 -1.21501 -1.00376 0
M  V30 199 C 20.1453 -0.999478 -2.11028 0
M  V30 200 C 21.1263 0.0759671 -1.6993 0
M  V30 201 O 22.3113 -0.0841106 -1.94018 0
M  V30 202 C 19.4413 -0.564709 -3.42678 0
M  V30 203 C 18.3953 -1.58486 -3.97576 0
M  V30 204 C 17.7213 -1.00628 -5.25146 0
M  V30 205 C 19.0213 -2.97204 -4.29496 0
M  V30 206 H 20.7153 -1.92495 -2.29317 0
M  V30 207 H 18.2613 -0.92693 -1.102 0
M  V30 208 H 20.2143 -0.401091 -4.19487 0
M  V30 209 H 18.9383 0.396411 -3.24185 0
M  V30 210 H 17.5973 -1.73606 -3.22888 0
M  V30 211 H 17.2453 -0.0368439 -5.02987 0
M  V30 212 H 16.9453 -1.68771 -5.62841 0
M  V30 213 H 18.4693 -0.854015 -6.04598 0
M  V30 214 H 19.8833 -2.8552 -4.97143 0
M  V30 215 H 18.2803 -3.62372 -4.78338 0
M  V30 216 H 19.3503 -3.47956 -3.3772 0
M  V30 217 N 20.6934 1.19889 -1.02296 0
M  V30 218 C 21.9414 1.89046 -0.714558 0
M  V30 219 C 22.2624 1.79636 0.758681 0
M  V30 220 O 21.5324 1.20292 1.54618 0
M  V30 221 H 20.1124 0.699802 -0.261317 0
M  V30 222 H 22.7744 1.45574 -1.29592 0
M  V30 223 H 21.8704 2.95524 -1.0036 0
M  V30 224 N 22.1715 0.800033 1.35784 0
M  V30 225 C 23.1015 0.220184 2.3246 0
M  V30 226 C 24.0825 -0.65073 1.57161 0
M  V30 227 O 25.2675 -0.582359 1.85263 0
M  V30 228 C 22.3975 -0.637353 3.41402 0
M  V30 229 C 21.3515 0.134531 4.27789 0
M  V30 230 C 20.6775 -0.844285 5.27992 0
M  V30 231 C 21.9775 1.32979 5.05088 0
M  V30 232 H 23.6715 1.02787 2.81203 0
M  V30 233 H 21.2175 0.495717 1.35199 0
M  V30 234 H 23.1705 -1.05302 4.08031 0
M  V30 235 H 21.8945 -1.47785 2.91251 0
M  V30 236 H 20.5535 0.531296 3.6273 0
M  V30 237 H 20.2015 -1.68011 4.74111 0
M  V30 238 H 19.9015 -0.332184 5.8666 0
M  V30 239 H 21.4255 -1.2583 5.97494 0
M  V30 240 H 22.8395 0.98934 5.64699 0
M  V30 241 H 21.2365 1.77593 5.7322 0
M  V30 242 H 22.3065 2.11978 4.36111 0
M  V30 243 N 23.6496 -1.47581 0.552962 0
M  V30 244 C 24.8956 -2.02782 0.0273648 0
M  V30 245 C 25.2286 -1.42687 -1.31734 0
M  V30 246 O 24.5036 -0.580897 -1.85623 0
M  V30 247 C 24.7866 -3.60031 -0.0702371 0
M  V30 248 C 24.6396 -4.30566 1.30126 0
M  V30 249 C 25.9586 -4.33028 -0.785771 0
M  V30 250 H 23.0776 -0.736912 0.0114185 0
M  V30 251 H 25.7196 -1.76056 0.714432 0
M  V30 252 H 23.8696 -3.82932 -0.655382 0
M  V30 253 H 25.5416 -4.19018 1.92929 0
M  V30 254 H 23.7846 -3.91086 1.87709 0
M  V30 255 H 24.4556 -5.39114 1.18573 0
M  V30 256 H 26.9316 -4.15095 -0.288982 0
M  V30 257 H 25.8076 -5.42695 -0.823013 0
M  V30 258 H 26.0686 -4.01945 -1.841 0
M  V30 259 N 25.1277 -0.289203 -1.54924 0
M  V30 260 C 26.0577 0.58549 -2.2604 0
M  V30 261 C 27.0387 1.14753 -1.25562 0
M  V30 262 O 28.2237 1.17906 -1.54311 0
M  V30 263 C 25.3537 1.76305 -2.99222 0
M  V30 264 C 24.3077 1.33191 -4.06748 0
M  V30 265 C 23.6337 2.5937 -4.6758 0
M  V30 266 C 24.9337 0.471775 -5.20165 0
M  V30 267 H 26.6277 -0.00763532 -2.99399 0
M  V30 268 H 24.1737 -0.00511229 -1.43999 0
M  V30 269 H 26.1267 2.38097 -3.47689 0
M  V30 270 H 24.8507 2.38223 -2.23422 0
M  V30 271 H 23.5097 0.737121 -3.59113 0
M  V30 272 H 23.1577 3.19576 -3.88433 0
M  V30 273 H 22.8577 2.31228 -5.40192 0
M  V30 274 H 24.3817 3.21985 -5.18804 0
M  V30 275 H 25.7957 0.995056 -5.64599 0
M  V30 276 H 24.1927 0.284639 -5.99425 0
M  V30 277 H 25.2627 -0.506041 -4.82252 0
M  V30 278 N 26.6058 1.57591 -0.0167156 0
M  V30 279 C 27.5358 2.12496 0.967858 0
M  V30 280 C 28.5168 1.03807 1.34752 0
M  V30 281 O 29.7018 1.31577 1.42833 0
M  V30 282 C 26.8318 2.64194 2.25431 0
M  V30 283 C 25.7858 3.77559 2.01576 0
M  V30 284 C 25.1118 4.15636 3.36379 0
M  V30 285 C 26.4118 5.04151 1.36489 0
M  V30 286 H 28.1058 2.95013 0.510643 0
M  V30 287 H 25.6518 1.41915 0.244181 0
M  V30 288 H 27.6048 3.01236 2.94678 0
M  V30 289 H 26.3288 1.78821 2.73296 0
M  V30 290 H 24.9878 3.40937 1.34751 0
M  V30 291 H 24.6358 3.27263 3.81979 0
M  V30 292 H 24.3358 4.92022 3.21229 0
M  V30 293 H 25.8598 4.5525 4.06915 0
M  V30 294 H 27.2738 5.38857 1.95718 0
M  V30 295 H 25.6708 5.85453 1.31776 0
M  V30 296 H 26.7408 4.83733 0.336219 0
M  V30 297 N 28.0839 -0.256276 1.55502 0
M  V30 298 C 29.3299 -0.987079 1.77157 0
M  V30 299 C 29.6629 -1.85327 0.580315 0
M  V30 300 O 28.9379 -1.89874 -0.421686 0
M  V30 301 C 29.2209 -1.85553 3.08613 0
M  V30 302 C 29.0739 -1.01816 4.38125 0
M  V30 303 C 30.3929 -2.8397 3.36228 0
M  V30 304 H 27.5119 -0.357428 0.644526 0
M  V30 305 H 30.1539 -0.258239 1.88237 0
M  V30 306 H 28.3039 -2.47695 2.99298 0
M  V30 307 H 29.9759 -0.416159 4.59419 0
M  V30 308 H 28.2189 -0.322178 4.32602 0
M  V30 309 H 28.8899 -1.65939 5.26468 0
M  V30 310 H 31.3659 -2.31964 3.45445 0
M  V30 311 H 30.2419 -3.41864 4.29442 0
M  V30 312 H 30.5029 -3.59955 2.56681 0
M  V30 313 N 29.562 -1.4872 -0.521534 0
M  V30 314 C 30.808 -1.574 -1.27879 0
M  V30 315 C 31.141 -0.250817 -1.92573 0
M  V30 316 O 30.416 0.743934 -1.79711 0
M  V30 317 C 30.699 -2.71843 -2.36164 0
M  V30 318 C 30.552 -4.13893 -1.76105 0
M  V30 319 C 31.871 -2.82008 -3.37875 0
M  V30 320 H 28.99 -0.572941 -0.463581 0
M  V30 321 H 31.632 -1.80927 -0.580119 0
M  V30 322 H 29.782 -2.51914 -2.95756 0
M  V30 323 H 31.454 -4.45284 -1.20499 0
M  V30 324 H 29.697 -4.20498 -1.06601 0
M  V30 325 H 30.368 -4.89804 -2.5455 0
M  V30 326 H 32.844 -3.00086 -2.88249 0
M  V30 327 H 31.72 -3.63796 -4.11028 0
M  V30 328 H 31.981 -1.90511 -3.98946 0
M  V30 329 N 31.0401 0.771051 -1.3745 0
M  V30 330 C 31.9701 1.89827 -1.3597 0
M  V30 331 C 32.9511 1.68562 -0.228216 0
M  V30 332 O 34.1361 1.8941 -0.428675 0
M  V30 333 C 31.2661 3.2712 -1.16662 0
M  V30 334 C 30.2201 3.6295 -2.2683 0
M  V30 335 C 29.5461 4.98791 -1.92644 0
M  V30 336 C 30.8461 3.69627 -3.69017 0
M  V30 337 H 32.5401 1.91323 -2.30295 0
M  V30 338 H 30.0861 0.919082 -1.10855 0
M  V30 339 H 32.0391 4.05615 -1.14256 0
M  V30 340 H 30.7631 3.26059 -0.187926 0
M  V30 341 H 29.4221 2.86763 -2.28392 0
M  V30 342 H 29.0701 4.94271 -0.933021 0
M  V30 343 H 28.7701 5.23733 -2.66416 0
M  V30 344 H 30.2941 5.79685 -1.91826 0
M  V30 345 H 31.7081 4.38273 -3.69581 0
M  V30 346 H 30.1051 4.06067 -4.41848 0
M  V30 347 H 31.1751 2.70273 -4.02592 0
M  V30 348 N 32.5182 1.22032 0.997298 0
M  V30 349 C 33.4482 1.01065 2.10495 0
M  V30 350 C 34.4292 -0.0669542 1.69968 0
M  V30 351 O 35.6142 0.0943987 1.9397 0
M  V30 352 C 32.7442 0.582874 3.42374 0
M  V30 353 C 31.6982 1.60592 3.96729 0
M  V30 354 C 31.0242 1.03412 5.24605 0
M  V30 355 C 32.3242 2.99478 4.27914 0
M  V30 356 H 34.0182 1.93708 2.28292 0
M  V30 357 H 31.5642 0.932761 1.09707 0
M  V30 358 H 33.5172 0.423332 4.19268 0
M  V30 359 H 32.2412 -0.379213 3.24391 0
M  V30 360 H 30.9002 1.75316 3.21963 0
M  V30 361 H 30.5482 0.063518 5.0296 0
M  V30 362 H 30.2482 1.71754 5.61938 0
M  V30 363 H 31.7722 0.886066 6.04137 0
M  V30 364 H 33.1862 2.88153 4.95622 0
M  V30 365 H 31.5832 3.64903 4.76409 0
M  V30 366 H 32.6532 3.49742 3.3587 0
M  V30 367 N 33.9963 -1.19345 1.0293 0
M  V30 368 C 34.9263 -2.2481 0.631105 0
M  V30 369 C 35.9073 -1.66245 -0.360104 0
M  V30 370 O 37.0923 -1.92677 -0.242726 0
M  V30 371 C 34.2223 -3.47295 -0.0184607 0
M  V30 372 C 33.1763 -4.18536 0.895073 0
M  V30 373 C 32.5023 -5.34586 0.110592 0
M  V30 374 C 33.8023 -4.73287 2.209 0
M  V30 375 H 35.4963 -2.58372 1.51275 0
M  V30 376 H 33.0423 -1.24194 0.728818 0
M  V30 377 H 34.9953 -4.20268 -0.308675 0
M  V30 378 H 33.7193 -3.12933 -0.934907 0
M  V30 379 H 32.3783 -3.47446 1.16949 0
M  V30 380 H 32.0263 -4.96469 -0.807902 0
M  V30 381 H 31.7263 -5.83183 0.719087 0
M  V30 382 H 33.2503 -6.10355 -0.172871 0
M  V30 383 H 34.6643 -5.38013 1.98028 0
M  V30 384 H 33.0613 -5.32373 2.76946 0
M  V30 385 H 34.1313 -3.91331 2.86336 0
M  V30 386 N 35.4744 -0.807222 -1.35358 0
M  V30 387 C 36.4044 -0.232509 -2.3234 0
M  V30 388 C 37.3854 0.642386 -1.57504 0
M  V30 389 O 38.5704 0.572526 -1.85569 0
M  V30 390 C 35.7004 0.619238 -3.41735 0
M  V30 391 C 34.6544 -0.157215 -4.27711 0
M  V30 392 C 33.9804 0.816273 -5.28433 0
M  V30 393 C 35.2804 -1.35656 -5.04376 0
M  V30 394 H 36.9744 -1.04276 -2.80654 0
M  V30 395 H 34.5204 -0.50288 -1.34934 0
M  V30 396 H 36.4734 1.03137 -4.08584 0
M  V30 397 H 35.1974 1.46239 -2.92031 0
M  V30 398 H 33.8564 -0.550525 -3.62443 0
M  V30 399 H 33.5044 1.65494 -4.74996 0
M  V30 400 H 33.2044 0.301067 -5.86828 0
M  V30 401 H 34.7284 1.22659 -5.98153 0
M  V30 402 H 36.1424 -1.01927 -5.64166 0
M  V30 403 H 34.5394 -1.8063 -5.7227 0
M  V30 404 H 35.6094 -2.14288 -4.34981 0
M  V30 405 N 36.9525 1.47285 -0.560781 0
M  V30 406 C 37.8825 2.32857 0.173105 0
M  V30 407 C 38.8635 1.44009 0.905281 0
M  V30 408 O 40.0485 1.7286 0.885046 0
M  V30 409 C 37.1785 3.25861 1.20133 0
M  V30 410 C 36.1325 4.23978 0.585388 0
M  V30 411 C 35.4585 5.06332 1.7185 0
M  V30 412 C 36.7585 5.20242 -0.463178 0
M  V30 413 H 38.4525 2.94466 -0.541307 0
M  V30 414 H 35.9985 1.41601 -0.261764 0
M  V30 415 H 37.9515 3.84569 1.72293 0
M  V30 416 H 36.6755 2.62315 1.94573 0
M  V30 417 H 35.3345 3.66501 0.085054 0
M  V30 418 H 34.9825 4.39186 2.45203 0
M  V30 419 H 34.6825 5.72762 1.31213 0
M  V30 420 H 36.2065 5.67899 2.24329 0
M  V30 421 H 37.6205 5.73293 -0.027502 0
M  V30 422 H 36.0175 5.94896 -0.788627 0
M  V30 423 H 37.0875 4.65504 -1.35773 0
M  V30 424 N 38.4306 0.297415 1.54768 0
M  V30 425 C 39.8466 -0.0560823 1.59501 0
M  V30 426 C 40.0466 -1.52725 1.31444 0
M  V30 427 O 39.1026 -2.27947 1.08611 0
M  V30 428 C 40.4156 0.338631 2.98787 0
M  V30 429 C 41.9636 0.287097 3.11681 0
M  V30 430 C 42.4386 0.656579 4.53269 0
M  V30 431 N 43.9296 0.608977 4.59179 0
M  V30 432 C 44.6646 0.867385 5.66802 0
M  V30 433 N 44.1606 1.19157 6.82476 0
M  V30 434 N 45.9536 0.794687 5.56454 0
M  V30 435 H 38.1046 1.25624 1.71267 0
M  V30 436 H 40.3676 0.509057 0.799728 0
M  V30 437 H 40.0736 1.36263 3.2423 0
M  V30 438 H 39.9476 -0.309508 3.75928 0
M  V30 439 H 42.3346 -0.727649 2.85988 0
M  V30 440 H 42.4156 0.969809 2.36703 0
M  V30 441 H 42.0596 1.66912 4.7969 0
M  V30 442 H 41.9896 -0.0481649 5.26578 0
M  V30 443 H 44.4806 0.369198 3.76092 0
M  V30 444 H 44.7936 1.37482 7.60473 0
M  V30 445 H 43.1386 1.22958 6.84037 0
M  V30 446 H 46.3296 0.541098 4.64962 0
M  V30 447 H 46.5026 0.999445 6.40246 0
M  V30 448 N 39.9087 -1.5758 0.0250728 0
M  V30 449 C 40.8587 -2.06468 -0.967201 0
M  V30 450 C 41.8427 -0.964376 -1.28797 0
M  V30 451 O 43.0347 -1.22797 -1.27475 0
M  V30 452 C 40.1637 -2.59203 -2.25097 0
M  V30 453 C 39.2497 -3.76157 -1.95874 0
M  V30 454 N 39.6407 -4.86919 -1.36905 0
M  V30 455 C 37.9387 -3.84566 -2.25887 0
M  V30 456 C 38.6397 -5.68172 -1.24724 0
M  V30 457 N 37.6157 -5.14953 -1.74138 0
M  V30 458 H 41.4177 -2.89508 -0.506176 0
M  V30 459 H 38.9317 -1.61399 -0.18004 0
M  V30 460 H 40.9287 -2.92517 -2.97052 0
M  V30 461 H 39.5887 -1.77592 -2.71829 0
M  V30 462 H 40.5997 -5.07256 -1.04459 0
M  V30 463 H 37.2767 -3.13854 -2.75321 0
M  V30 464 H 38.6667 -6.67221 -0.791605 0
M  V30 465 N 41.3868 0.248026 -1.55636 0
M  V30 466 C 42.6328 0.973427 -1.78594 0
M  V30 467 C 42.9878 1.83007 -0.593823 0
M  V30 468 O 42.2808 1.87097 0.412961 0
M  V30 469 C 42.4748 1.86819 -3.04686 0
M  V30 470 C 42.3038 1.09965 -4.36048 0
M  V30 471 C 41.0738 0.805204 -4.98843 0
M  V30 472 C 43.2718 0.477783 -5.12076 0
M  V30 473 N 41.2538 0.0124859 -6.13899 0
M  V30 474 C 42.6248 -0.179565 -6.1974 0
M  V30 475 C 44.6798 0.388136 -4.96385 0
M  V30 476 C 43.3828 -0.91795 -7.13419 0
M  V30 477 C 45.4088 -0.336716 -5.90441 0
M  V30 478 C 44.7708 -0.982705 -6.97511 0
M  V30 479 H 40.8698 0.337348 -0.705493 0
M  V30 480 H 43.4538 0.24667 -1.93131 0
M  V30 481 H 41.6248 2.56698 -2.9148 0
M  V30 482 H 43.3568 2.52907 -3.15944 0
M  V30 483 H 40.1118 1.11671 -4.60246 0
M  V30 484 H 40.5358 -0.371933 -6.75978 0
M  V30 485 H 45.1778 0.873237 -4.13684 0
M  V30 486 H 42.8958 -1.41466 -7.95621 0
M  V30 487 H 46.4818 -0.406731 -5.80377 0
M  V30 488 H 45.3618 -1.53464 -7.69037 0
M  V30 489 N 42.8649 1.48995 0.513639 0
M  V30 490 C 44.1129 1.57531 1.26604 0
M  V30 491 C 44.4339 0.258236 1.93283 0
M  V30 492 O 43.7039 -0.721502 1.8213 0
M  V30 493 H 42.2839 0.580387 0.470276 0
M  V30 494 H 44.9459 1.85552 0.596373 0
M  V30 495 H 44.0419 2.36486 2.03669 0
M  V30 496 N 44.343 -0.763751 1.37857 0
M  V30 497 C 45.589 -1.52396 1.3471 0
M  V30 498 C 45.944 -1.92288 -0.0656435 0
M  V30 499 O 45.237 -1.6181 -1.02606 0
M  V30 500 C 45.431 -2.79499 2.22745 0
M  V30 501 C 45.26 -2.52031 3.72438 0
M  V30 502 C 44.03 -2.45759 4.4151 0
M  V30 503 C 46.228 -2.19489 4.65112 0
M  V30 504 N 44.21 -2.1046 5.76697 0
M  V30 505 C 45.581 -1.94396 5.88736 0
M  V30 506 C 47.636 -2.05712 4.53417 0
M  V30 507 C 46.339 -1.56917 7.01975 0
M  V30 508 C 48.365 -1.69634 5.66549 0
M  V30 509 C 47.727 -1.45407 6.89229 0
M  V30 510 H 43.826 -0.55765 0.548225 0
M  V30 511 H 46.41 -0.890302 1.73152 0
M  V30 512 H 44.581 -3.4069 1.86507 0
M  V30 513 H 46.313 -3.45465 2.10798 0
M  V30 514 H 43.068 -2.61885 3.94605 0
M  V30 515 H 43.492 -1.95484 6.48163 0
M  V30 516 H 48.134 -2.23123 3.59133 0
M  V30 517 H 45.852 -1.38246 7.96187 0
M  V30 518 H 49.438 -1.59621 5.59475 0
M  V30 519 H 48.318 -1.17904 7.75286 0
M  V30 520 N 45.8211 -1.22559 -0.990812 0
M  V30 521 C 47.0691 -1.04933 -1.72724 0
M  V30 522 C 47.3901 0.416158 -1.90508 0
M  V30 523 O 46.6601 1.29918 -1.46622 0
M  V30 524 H 45.2401 -0.385296 -0.639965 0
M  V30 525 H 47.9021 -1.54105 -1.19322 0
M  V30 526 H 46.9981 -1.52886 -2.72089 0
M  V30 527 N 47.2992 1.18797 -1.03562 0
M  V30 528 C 48.2292 2.24472 -0.643019 0
M  V30 529 C 49.2102 1.66433 0.351283 0
M  V30 530 O 50.3952 1.92803 0.232505 0
M  V30 531 C 47.5252 3.473 4.24935e-05 0
M  V30 532 C 46.4792 4.18055 -0.917257 0
M  V30 533 C 45.8052 5.34519 -0.138941 0
M  V30 534 C 47.1052 4.72109 -2.23407 0
M  V30 535 H 48.7992 2.57566 -1.52643 0
M  V30 536 H 46.3452 1.23806 -0.735394 0
M  V30 537 H 48.2982 4.20426 0.286383 0
M  V30 538 H 47.0222 3.13424 0.918299 0
M  V30 539 H 45.6812 3.46821 -1.1879 0
M  V30 540 H 45.3292 4.96891 0.781562 0
M  V30 541 H 45.0292 5.82794 -0.750005 0
M  V30 542 H 46.5532 6.10438 0.1405 0
M  V30 543 H 47.9672 5.36955 -2.00879 0
M  V30 544 H 46.3642 5.30897 -2.79765 0
M  V30 545 H 47.4342 3.89807 -2.88407 0
M  V30 546 N 48.7773 0.814389 1.34928 0
M  V30 547 C 50.0173 0.404165 2.00364 0
M  V30 548 C 50.3813 -1.01166 1.63185 0
M  V30 549 O 51.5823 -1.52431 2.21401 0
M  V30 550 C 49.8533 0.590718 3.52484 0
M  V30 551 S 51.4123 0.272075 4.37956 0
M  V30 552 H 48.2303 0.15311 0.694319 0
M  V30 553 H 50.8323 1.05834 1.64376 0
M  V30 554 H 49.5363 1.62099 3.77031 0
M  V30 555 H 49.0673 -0.0785013 3.93322 0
M  V30 556 H 51.0823 -0.917405 4.87645 0
M  V30 557 N 50.2554 -1.46986 0.568584 0
M  V30 558 C 51.1854 -2.32946 -0.160753 0
M  V30 559 C 52.1664 -1.44487 -0.897631 0
M  V30 560 O 53.3514 -1.73327 -0.875867 0
M  V30 561 C 50.4814 -3.26494 -1.18403 0
M  V30 562 C 49.4354 -4.24282 -0.562895 0
M  V30 563 C 48.7614 -5.07236 -1.69163 0
M  V30 564 C 50.0614 -5.19989 0.490761 0
M  V30 565 H 51.7554 -2.94175 0.556916 0
M  V30 566 H 49.3014 -1.4146 0.26927 0
M  V30 567 H 51.2544 -3.85477 -1.70251 0
M  V30 568 H 49.9784 -2.63343 -1.93179 0
M  V30 569 H 48.6374 -3.66541 -0.0656164 0
M  V30 570 H 48.2854 -4.4048 -2.42871 0
M  V30 571 H 47.9854 -5.7345 -1.28174 0
M  V30 572 H 49.5094 -5.6908 -2.21314 0
M  V30 573 H 50.9234 -5.73271 0.0579047 0
M  V30 574 H 49.3204 -5.94469 0.820165 0
M  V30 575 H 50.3904 -4.64777 1.3824 0
M  V30 576 N 51.7335 -0.305618 -1.54608 0
M  V30 577 C 52.9825 0.303098 -1.9941 0
M  V30 578 C 53.2955 1.54648 -1.19764 0
M  V30 579 O 54.5015 2.23007 -1.54855 0
M  V30 580 C 52.9575 0.590588 -3.55021 0
M  V30 581 C 52.5655 -0.634719 -4.43481 0
M  V30 582 C 54.3095 1.16025 -4.08336 0
M  V30 583 C 52.2165 -0.320126 -5.90533 0
M  V30 584 H 51.1465 0.117031 -0.744862 0
M  V30 585 H 53.7975 -0.415045 -1.78745 0
M  V30 586 H 52.1795 1.36845 -3.71604 0
M  V30 587 H 53.3535 -1.41079 -4.38672 0
M  V30 588 H 51.6685 -1.12333 -4.00962 0
M  V30 589 H 54.2655 1.40994 -5.15776 0
M  V30 590 H 54.6085 2.10397 -3.5922 0
M  V30 591 H 55.1415 0.443985 -3.95315 0
M  V30 592 H 51.8805 -1.23254 -6.43808 0
M  V30 593 H 51.4005 0.418579 -5.98338 0
M  V30 594 H 53.0795 0.0766241 -6.46955 0
M  V30 595 N 53.2116 1.57565 -0.0334293 0
M  V30 596 C 54.4596 1.91598 0.642999 0
M  V30 597 C 54.7806 0.910847 1.7242 0
M  V30 598 O 54.0506 -0.0469931 1.95844 0
M  V30 599 H 52.6306 0.707228 0.240496 0
M  V30 600 H 55.2926 1.94726 -0.0822488 0
M  V30 601 H 54.3886 2.92336 1.09298 0
M  V30 602 N 54.6897 -0.239769 1.55765 0
M  V30 603 C 55.9357 -0.963942 1.79108 0
M  V30 604 C 56.2907 -1.82689 0.60352 0
M  V30 605 O 55.5837 -1.87313 -0.403033 0
M  V30 606 C 55.7777 -1.852 3.05672 0
M  V30 607 C 55.6067 -1.07651 4.36625 0
M  V30 608 C 54.3767 -0.778738 4.99263 0
M  V30 609 C 56.5747 -0.45062 5.12322 0
M  V30 610 N 54.5567 0.0200708 6.13897 0
M  V30 611 C 55.9277 0.212429 6.19636 0
M  V30 612 C 57.9827 -0.361806 4.96584 0
M  V30 613 C 56.6857 0.955772 7.12922 0
M  V30 614 C 58.7117 0.368023 5.90254 0
M  V30 615 C 58.0737 1.01968 6.96981 0
M  V30 616 H 54.1727 -0.333601 0.707272 0
M  V30 617 H 56.7567 -0.236425 1.93259 0
M  V30 618 H 54.9277 -2.55149 2.92837 0
M  V30 619 H 56.6597 -2.51228 3.1728 0
M  V30 620 H 53.4147 -1.09229 4.60832 0
M  V30 621 H 53.8387 0.407777 6.75771 0
M  V30 622 H 58.4807 -0.851286 4.14141 0
M  V30 623 H 56.1987 1.45683 7.9486 0
M  V30 624 H 59.7847 0.437504 5.80153 0
M  V30 625 H 58.6647 1.5754 7.68213 0
M  V30 626 N 56.1678 -1.49265 -0.50573 0
M  V30 627 C 57.1158 -1.66065 -1.62866 0
M  V30 628 C 58.1098 -0.526636 -1.61006 0
M  V30 629 O 59.3158 -0.706126 -1.65571 0
M  V30 630 H 55.6908 -0.52356 -0.539805 0
M  V30 631 H 57.6618 -2.60329 -1.45848 0
M  V30 632 C 56.4108 -1.74008 -3.01026 0
M  V30 633 H 55.7338 -2.6064 -3.03161 0
M  V30 634 H 57.1738 -1.89798 -3.79147 0
M  V30 635 C 55.6328 -0.483868 -3.33407 0
M  V30 636 O 56.1628 0.392548 -3.99777 0
M  V30 637 N 54.3688 -0.348236 -2.88506 0
M  V30 638 H 53.9158 -1.06242 -2.34671 0
M  V30 639 H 53.8738 0.491204 -3.10539 0
M  V30 640 N 57.6459 0.756429 -1.3826 0
M  V30 641 C 58.5559 1.9009 -1.37488 0
M  V30 642 C 59.5719 1.71855 -0.272366 0
M  V30 643 O 60.7479 1.94827 -0.510318 0
M  V30 644 C 57.8129 3.25421 -1.19592 0
M  V30 645 C 56.8739 3.56202 -2.39622 0
M  V30 646 C 56.1069 4.85075 -2.2257 0
M  V30 647 O 56.3299 5.57246 -1.21793 0
M  V30 648 O 55.2639 5.15269 -3.11098 0
M  V30 649 H 59.0899 1.93695 -2.33914 0
M  V30 650 H 56.6749 0.901313 -1.1915 0
M  V30 651 H 58.5569 4.06337 -1.11661 0
M  V30 652 H 57.2319 3.22634 -0.262486 0
M  V30 653 H 56.1389 2.75458 -2.53128 0
M  V30 654 H 57.4719 3.63747 -3.31586 0
M  V30 655 N 59.124 1.23083 0.984299 0
M  V30 656 C 60.371 1.06057 1.72505 0
M  V30 657 C 60.699 -0.403105 1.90277 0
M  V30 658 O 59.954 -1.3149 1.44944 0
M  V30 659 C 60.253 1.72673 3.1292 0
M  V30 660 C 59.919 3.22586 3.15038 0
M  V30 661 C 58.581 3.63489 3.15324 0
M  V30 662 C 60.933 4.185 3.10657 0
M  V30 663 C 58.261 4.98772 3.08939 0
M  V30 664 C 60.613 5.53769 3.05814 0
M  V30 665 C 59.277 5.94041 3.04419 0
M  V30 666 H 58.547 0.388091 0.631242 0
M  V30 667 H 61.194 1.52963 1.15215 0
M  V30 668 H 59.499 1.18116 3.73572 0
M  V30 669 H 61.196 1.56982 3.68996 0
M  V30 670 H 57.786 2.90022 3.15571 0
M  V30 671 H 61.97 3.87911 3.09579 0
M  V30 672 H 57.226 5.29193 3.0621 0
M  V30 673 H 61.4 6.27808 3.0138 0
M  V30 674 H 59.027 6.98833 2.99227 0
M  V30 675 N 60.6021 -1.18246 1.0419 0
M  V30 676 C 61.8511 -1.87588 0.741194 0
M  V30 677 C 62.1641 -1.81303 -0.734066 0
M  V30 678 O 63.3701 -2.46019 -1.14834 0
M  V30 679 C 61.8261 -3.36538 1.27555 0
M  V30 680 C 61.4341 -3.51349 2.77953 0
M  V30 681 C 63.1781 -4.11273 1.05143 0
M  V30 682 C 61.0851 -4.94265 3.2474 0
M  V30 683 H 60.0151 -0.702622 0.273565 0
M  V30 684 H 62.6661 -1.33601 1.25789 0
M  V30 685 H 61.0481 -3.9 0.686703 0
M  V30 686 H 62.2221 -3.08153 3.42605 0
M  V30 687 H 60.5371 -2.90022 2.98791 0
M  V30 688 H 63.1341 -5.16689 1.37611 0
M  V30 689 H 63.4771 -4.16298 -0.0112774 0
M  V30 690 H 64.0101 -3.63987 1.60495 0
M  V30 691 H 60.7491 -4.94408 4.30396 0
M  V30 692 H 60.2691 -5.38172 2.64823 0
M  V30 693 H 61.9481 -5.62987 3.18834 0
M  V30 694 N 62.0802 -0.821533 -1.34494 0
M  V30 695 C 63.0102 -0.257138 -2.3208 0
M  V30 696 C 63.9912 0.625645 -1.58176 0
M  V30 697 O 65.1762 0.552811 -1.86166 0
M  V30 698 C 62.3062 0.582958 -3.42372 0
M  V30 699 C 61.2602 -0.202571 -4.2752 0
M  V30 700 C 60.5862 0.760179 -5.29269 0
M  V30 701 C 61.8862 -1.40998 -5.02908 0
M  V30 702 H 63.5802 -1.07247 -2.79532 0
M  V30 703 H 61.1262 -0.517163 -1.34393 0
M  V30 704 H 63.0792 0.987972 -4.09655 0
M  V30 705 H 61.8032 1.43133 -2.93565 0
M  V30 706 H 60.4622 -0.588936 -3.61838 0
M  V30 707 H 60.1102 1.60447 -4.76724 0
M  V30 708 H 59.8102 0.238809 -5.87115 0
M  V30 709 H 61.3342 1.16308 -5.9942 0
M  V30 710 H 62.7482 -1.07905 -5.63054 0
M  V30 711 H 61.1452 -1.86689 -5.70322 0
M  V30 712 H 62.2152 -2.1889 -4.32684 0
M  V30 713 N 63.5583 1.46682 -0.576371 0
M  V30 714 C 64.4903 2.28341 0.198231 0
M  V30 715 C 65.5033 1.38141 0.861453 0
M  V30 716 O 66.6923 1.62797 0.732082 0
M  V30 717 C 63.7923 3.12986 1.29972 0
M  V30 718 C 62.9653 4.31271 0.729639 0
M  V30 719 C 62.0243 4.97363 1.71803 0
M  V30 720 O 61.0503 5.55156 1.25658 0
M  V30 721 N 62.2523 4.93796 3.05198 0
M  V30 722 H 65.0173 2.9546 -0.502324 0
M  V30 723 H 62.5783 1.56525 -0.413715 0
M  V30 724 H 64.5703 3.54066 1.96008 0
M  V30 725 H 63.1403 2.47984 1.90323 0
M  V30 726 H 62.3603 3.94052 -0.108012 0
M  V30 727 H 63.6483 5.07739 0.328438 0
M  V30 728 H 63.0463 4.48077 3.45317 0
M  V30 729 H 61.6033 5.38837 3.6674 0
M  V30 730 N 65.0364 0.313813 1.54444 0
M  V30 731 C 66.4474 -0.176243 1.85866 0
M  V30 732 C 66.7984 -1.52405 1.23561 0
M  V30 733 O 65.9234 -2.09605 0.538016 0
M  V30 734 C 66.5184 -0.32657 3.37222 0
M  V30 735 C 65.0774 -0.760846 3.6863 0
M  V30 736 C 64.2244 0.123247 2.77026 0
M  V30 737 H 67.1754 0.534418 1.49431 0
M  V30 738 H 67.1964 -1.15908 3.62416 0
M  V30 739 H 66.7084 0.654531 3.82541 0
M  V30 740 H 64.8094 -1.75204 3.28838 0
M  V30 741 H 64.9224 -0.571353 4.75681 0
M  V30 742 H 63.2864 -0.399597 2.51546 0
M  V30 743 H 64.0694 1.10094 3.25168 0
M  V30 744 N 66.5145 -1.57545 0.0417849 0
M  V30 745 C 67.7635 -1.91494 -0.633492 0
M  V30 746 C 68.0765 -0.921084 -1.72556 0
M  V30 747 O 69.2825 -1.15228 -2.45835 0
M  V30 748 C 67.7385 -3.40072 -1.17808 0
M  V30 749 C 67.3465 -4.47843 -0.118633 0
M  V30 750 C 69.0905 -3.8307 -1.82915 0
M  V30 751 C 66.9975 -5.87529 -0.675578 0
M  V30 752 H 65.9275 -0.714653 -0.24039 0
M  V30 753 H 68.5785 -1.83175 0.109148 0
M  V30 754 H 66.9605 -3.43364 -1.97274 0
M  V30 755 H 68.1345 -4.56128 0.654494 0
M  V30 756 H 66.4495 -4.14128 0.434414 0
M  V30 757 H 69.0465 -4.84794 -2.25563 0
M  V30 758 H 69.3895 -3.1881 -2.67705 0
M  V30 759 H 69.9225 -3.82255 -1.10119 0
M  V30 760 H 66.6615 -6.55362 0.134475 0
M  V30 761 H 66.1815 -5.82824 -1.4169 0
M  V30 762 H 67.8605 -6.36491 -1.1614 0
M  V30 763 N 67.9926 0.231505 -1.5589 0
M  V30 764 C 68.9426 1.29007 -1.87993 0
M  V30 765 C 69.9266 1.42764 -0.742102 0
M  V30 766 O 71.1186 1.45747 -1.00433 0
M  V30 767 C 68.2476 2.6425 -2.1915 0
M  V30 768 C 67.3336 2.54435 -3.39299 0
M  V30 769 N 67.7246 2.14262 -4.58176 0
M  V30 770 C 66.0226 2.85416 -3.42715 0
M  V30 771 C 66.7236 2.15455 -5.40328 0
M  V30 772 N 65.6996 2.55558 -4.79783 0
M  V30 773 H 69.5016 0.970213 -2.77424 0
M  V30 774 H 67.0156 0.440097 -1.56323 0
M  V30 775 H 69.0126 3.40665 -2.40319 0
M  V30 776 H 67.6726 2.9709 -1.31025 0
M  V30 777 H 68.6836 1.85554 -4.83518 0
M  V30 778 H 65.3606 3.22693 -2.64906 0
M  V30 779 H 66.7506 1.86605 -6.45467 0
M  V30 780 N 69.4707 1.49531 0.497807 0
M  V30 781 C 70.4187 1.66926 1.61983 0
M  V30 782 C 71.4127 0.535167 1.60724 0
M  V30 783 O 72.6187 0.714896 1.65195 0
M  V30 784 H 68.9937 0.526415 0.537021 0
M  V30 785 H 70.9647 2.61098 1.44465 0
M  V30 786 C 69.7137 1.75602 3.00099 0
M  V30 787 H 69.0367 2.62244 3.01775 0
M  V30 788 H 70.4767 1.91807 3.78135 0
M  V30 789 C 68.9357 0.501543 3.33146 0
M  V30 790 O 69.4657 -0.371342 3.9998 0
M  V30 791 N 67.6717 0.363531 2.88317 0
M  V30 792 H 67.2187 1.07485 2.34104 0
M  V30 793 H 67.1767 -0.474728 3.10795 0
M  V30 794 N 70.9488 -0.749086 1.3866 0
M  V30 795 C 71.8788 -1.8764 1.38973 0
M  V30 796 C 72.8598 -1.68178 0.255004 0
M  V30 797 O 74.0448 -1.88704 0.458754 0
M  V30 798 C 71.1748 -3.25222 1.21851 0
M  V30 799 C 70.1288 -3.59295 2.32575 0
M  V30 800 C 69.4548 -4.95663 2.00555 0
M  V30 801 C 70.7548 -3.63709 3.7485 0
M  V30 802 H 72.4488 -1.87635 2.3331 0
M  V30 803 H 69.9948 -0.901329 1.12303 0
M  V30 804 H 71.9478 -4.03746 1.20695 0
M  V30 805 H 70.6718 -3.25719 0.239775 0
M  V30 806 H 69.3308 -2.83093 2.32925 0
M  V30 807 H 68.9788 -4.92724 1.01154 0
M  V30 808 H 68.6788 -5.19429 2.74714 0
M  V30 809 H 70.2028 -5.7656 2.01024 0
M  V30 810 H 71.6168 -4.32338 3.76506 0
M  V30 811 H 70.0138 -3.98986 4.48252 0
M  V30 812 H 71.0838 -2.63834 4.06841 0
M  V30 813 N 72.4269 -1.23603 -0.977757 0
M  V30 814 C 73.3569 -1.04401 -2.0886 0
M  V30 815 C 74.3379 0.0399052 -1.70053 0
M  V30 816 O 75.5229 -0.125246 -1.93796 0
M  V30 817 C 72.6529 -0.637269 -3.41403 0
M  V30 818 C 71.6069 -1.66883 -3.94124 0
M  V30 819 C 70.9329 -1.11745 -5.22893 0
M  V30 820 C 72.2329 -3.06247 -4.23096 0
M  V30 821 H 73.9269 -1.97316 -2.25182 0
M  V30 822 H 71.4729 -0.950096 -1.08209 0
M  V30 823 H 73.4259 -0.48998 -4.18542 0
M  V30 824 H 72.1499 0.327557 -3.24953 0
M  V30 825 H 70.8089 -1.80416 -3.19133 0
M  V30 826 H 70.4569 -0.143527 -5.02795 0
M  V30 827 H 70.1569 -1.80672 -5.59134 0
M  V30 828 H 71.6809 -0.982067 -6.02651 0
M  V30 829 H 73.0949 -2.96001 -4.90975 0
M  V30 830 H 71.4919 -3.72436 -4.70544 0
M  V30 831 H 72.5619 -3.55041 -3.30263 0
M  V30 832 N 73.905 1.17692 -1.04816 0
M  V30 833 C 74.838 2.20436 -0.590173 0
M  V30 834 C 75.816 1.58115 0.379244 0
M  V30 835 O 77 1.86228 0.291762 0
M  V30 836 C 74.127 3.38424 0.136817 0
M  V30 837 C 73.173 4.19176 -0.787023 0
M  V30 838 S 74.006 4.84815 -2.27409 0
M  V30 839 C 75.162 6.06195 -1.55817 0
M  V30 840 H 75.395 2.58944 -1.46067 0
M  V30 841 H 72.928 1.28246 -0.859784 0
M  V30 842 H 74.886 4.06798 0.550076 0
M  V30 843 H 73.547 2.98312 0.983299 0
M  V30 844 H 72.74 5.03499 -0.224681 0
M  V30 845 H 72.342 3.56219 -1.13947 0
M  V30 846 H 74.634 6.72078 -0.855387 0
M  V30 847 H 75.577 6.6695 -2.37873 0
M  V30 848 H 75.985 5.54701 -1.04722 0
M  V30 849 N 75.3831 0.828654 1.34056 0
M  V30 850 C 76.6311 0.41863 1.97717 0
M  V30 851 C 76.9521 -1.02314 1.66002 0
M  V30 852 O 76.2221 -1.71119 0.953683 0
M  V30 853 H 74.8021 0.151809 0.731412 0
M  V30 854 H 77.4641 1.05936 1.63596 0
M  V30 855 H 76.5601 0.542318 3.07352 0
M  V30 856 N 76.8612 -1.46375 0.584142 0
M  V30 857 C 78.1382 -1.956 0.0033388 0
M  V30 858 C 78.5182 -1.52679 -1.45782 0
M  V30 859 O 77.8662 -0.77816 -2.14842 0
M  V30 860 C 78.0762 -3.48551 0.176891 0
M  V30 861 C 79.4242 -4.24576 0.0454609 0
M  V30 862 O 80.4482 -3.56043 0.105801 0
M  V30 863 O 79.3072 -5.46427 -0.0890376 0
M  V30 864 H 76.4012 -0.825547 -0.0490066 0
M  V30 865 H 78.9472 -1.56652 0.65256 0
M  V30 866 H 77.7192 -3.72683 1.1926 0
M  V30 867 H 77.3422 -3.94332 -0.508695 0
M  V30 868 N 78.3393 -0.321999 -1.54275 0
M  V30 869 C 79.5673 0.283052 -2.04955 0
M  V30 870 C 79.9823 1.45904 -1.19823 0
M  V30 871 O 79.3393 1.81063 -0.228545 0
M  V30 872 C 79.3903 0.719028 -3.54277 0
M  V30 873 O 79.1113 -0.410175 -4.36176 0
M  V30 874 C 80.6123 1.38705 -4.21041 0
M  V30 875 H 77.8323 0.0584616 -0.668448 0
M  V30 876 H 80.3763 -0.467734 -1.99079 0
M  V30 877 H 78.5313 1.41979 -3.60445 0
M  V30 878 H 78.9453 -0.0669416 -5.24457 0
M  V30 879 H 80.4193 1.64306 -5.2698 0
M  V30 880 H 80.8963 2.33385 -3.72059 0
M  V30 881 H 81.5023 0.728906 -4.19007 0
M  V30 882 N 79.8174 1.5752 -0.0501392 0
M  V30 883 C 80.7644 2.1147 0.924603 0
M  V30 884 C 81.7344 1.02182 1.30951 0
M  V30 885 O 82.9194 1.29723 1.39916 0
M  V30 886 C 80.0594 2.66337 2.19451 0
M  V30 887 C 79.1724 3.89708 1.86418 0
M  V30 888 C 78.3074 4.32893 3.07859 0
M  V30 889 C 77.3464 5.48967 2.70742 0
M  V30 890 N 76.4834 5.87211 3.84874 0
M  V30 891 H 81.3234 2.94465 0.457639 0
M  V30 892 H 78.8604 1.45531 0.214266 0
M  V30 893 H 80.8184 2.96247 2.93758 0
M  V30 894 H 79.4484 1.86141 2.63726 0
M  V30 895 H 78.5004 3.66396 1.02264 0
M  V30 896 H 79.8124 4.74074 1.55096 0
M  V30 897 H 78.9664 4.6435 3.90466 0
M  V30 898 H 77.7054 3.47336 3.42358 0
M  V30 899 H 76.7104 5.17183 1.86551 0
M  V30 900 H 77.9354 6.3624 2.37436 0
M  V30 901 H 75.8814 5.04607 4.19175 0
M  V30 902 H 75.7984 6.66266 3.57247 0
M  V30 903 H 77.0664 6.23282 4.68123 0
M  V30 904 N 81.2955 -0.223234 1.56011 0
M  V30 905 C 82.2055 -1.29766 1.95443 0
M  V30 906 C 83.2215 -1.51373 0.858028 0
M  V30 907 O 84.3975 -1.64536 1.16146 0
M  V30 908 C 81.4625 -2.62772 2.26167 0
M  V30 909 C 80.5235 -2.49482 3.49367 0
M  V30 910 C 79.7565 -3.76145 3.78616 0
M  V30 911 O 79.9795 -4.79087 3.09568 0
M  V30 912 O 78.9135 -3.73358 4.72109 0
M  V30 913 H 82.7395 -0.99309 2.87004 0
M  V30 914 H 80.3245 -0.425958 1.43199 0
M  V30 915 H 82.2065 -3.41327 2.47131 0
M  V30 916 H 80.8815 -2.92913 1.37781 0
M  V30 917 H 79.7885 -1.69133 3.33684 0
M  V30 918 H 81.1215 -2.2428 4.38131 0
M  V30 919 N 82.7736 -1.49793 -0.48987 0
M  V30 920 C 83.7056 -1.63413 -1.60713 0
M  V30 921 C 84.7186 -0.516329 -1.54395 0
M  V30 922 O 85.9076 -0.788812 -1.60125 0
M  V30 923 C 83.0076 -1.58516 -2.99543 0
M  V30 924 C 82.1806 -2.86016 -3.30928 0
M  V30 925 C 81.2396 -2.74018 -4.49222 0
M  V30 926 O 80.2656 -3.47964 -4.50455 0
M  V30 927 N 81.4676 -1.86309 -5.4979 0
M  V30 928 H 84.2326 -2.59777 -1.49452 0
M  V30 929 H 81.7936 -1.47022 -0.677955 0
M  V30 930 H 83.7856 -1.48128 -3.76617 0
M  V30 931 H 82.3556 -0.69965 -3.0467 0
M  V30 932 H 81.5756 -3.10672 -2.42645 0
M  V30 933 H 82.8636 -3.70521 -3.487 0
M  V30 934 H 82.2616 -1.2551 -5.51601 0
M  V30 935 H 80.8186 -1.81837 -6.25922 0
M  V30 936 N 84.2517 0.741722 -1.39055 0
M  V30 937 C 85.6677 1.04638 -1.20512 0
M  V30 938 C 85.8677 2.01405 -0.0620218 0
M  V30 939 O 84.9237 2.45547 0.588457 0
M  V30 940 C 86.2367 1.6151 -2.53643 0
M  V30 941 C 87.7847 1.73623 -2.6043 0
M  V30 942 C 88.2597 2.33906 -3.93767 0
M  V30 943 N 89.7507 2.41323 -3.9537 0
M  V30 944 C 90.4857 2.88888 -4.95309 0
M  V30 945 N 89.9817 3.36401 -6.05645 0
M  V30 946 N 91.7747 2.88037 -4.82692 0
M  V30 947 H 83.9257 0.0998155 -2.12165 0
M  V30 948 H 86.1887 0.106907 -0.941953 0
M  V30 949 H 85.8947 0.978739 -3.37807 0
M  V30 950 H 85.7687 2.60411 -2.72885 0
M  V30 951 H 88.1557 2.36384 -1.76655 0
M  V30 952 H 88.2367 0.733945 -2.45045 0
M  V30 953 H 87.8807 1.71776 -4.7797 0
M  V30 954 H 87.8107 3.34799 -4.06469 0
M  V30 955 H 90.3017 2.07734 -3.15682 0
M  V30 956 H 90.6147 3.71186 -6.77821 0
M  V30 957 H 88.9597 3.34427 -6.09248 0
M  V30 958 H 92.1507 2.50237 -3.95599 0
M  V30 959 H 92.3237 3.24792 -5.60726 0
M  V30 960 N 85.7298 1.2412 0.971189 0
M  V30 961 C 86.9788 1.07284 1.70801 0
M  V30 962 C 87.2918 -0.388902 1.91695 0
M  V30 963 O 88.4978 -0.677379 2.62914 0
M  V30 964 C 86.9538 1.87145 3.07416 0
M  V30 965 C 86.5618 3.37707 2.94377 0
M  V30 966 C 88.3058 1.78828 3.84995 0
M  V30 967 C 86.2128 4.09925 4.26281 0
M  V30 968 H 85.1428 0.397854 0.64049 0
M  V30 969 H 87.7938 1.4817 1.0825 0
M  V30 970 H 86.1758 1.39071 3.70777 0
M  V30 971 H 87.3498 3.93335 2.4005 0
M  V30 972 H 85.6648 3.46938 2.30267 0
M  V30 973 H 88.2618 2.30089 4.82662 0
M  V30 974 H 88.6048 0.75284 4.09436 0
M  V30 975 H 89.1378 2.24563 3.28354 0
M  V30 976 H 85.8768 5.13813 4.07033 0
M  V30 977 H 85.3968 3.59083 4.80437 0
M  V30 978 H 87.0758 4.1673 4.94919 0
M  V30 979 N 87.2079 -1.17134 1.05439 0
M  V30 980 C 88.1379 -2.2342 0.678649 0
M  V30 981 C 89.1189 -1.66971 -0.32476 0
M  V30 982 O 90.3039 -1.93149 -0.201802 0
M  V30 983 C 87.4339 -3.47256 0.0552099 0
M  V30 984 C 86.3879 -4.16543 0.98365 0
M  V30 985 C 85.7139 -5.34231 0.223961 0
M  V30 986 C 87.0139 -4.68495 2.3089 0
M  V30 987 H 88.7079 -2.55105 1.56722 0
M  V30 988 H 86.2539 -1.2262 0.754998 0
M  V30 989 H 88.2069 -4.20828 -0.21946 0
M  V30 990 H 86.9309 -3.14846 -0.868319 0
M  V30 991 H 85.5899 -3.44887 1.24293 0
M  V30 992 H 85.2379 -4.98071 -0.702412 0
M  V30 993 H 84.9379 -5.81527 0.842627 0
M  V30 994 H 86.4619 -6.10585 -0.0433671 0
M  V30 995 H 87.8759 -5.33691 2.09396 0
M  V30 996 H 86.2729 -5.26379 2.88176 0
M  V30 997 H 87.3429 -3.85169 2.94572 0
M  V30 998 N 88.686 -0.835752 -1.33615 0
M  V30 999 C 89.634 -0.255238 -2.31195 0
M  V30 1000 C 90.628 0.61107 -1.57995 0
M  V30 1001 O 91.834 0.500979 -1.72888 0
M  V30 1002 H 88.209 -0.0638085 -0.749288 0
M  V30 1003 H 90.18 -1.09283 -2.77669 0
M  V30 1004 C 88.929 0.55754 -3.43201 0
M  V30 1005 H 88.252 -0.0997553 -3.99676 0
M  V30 1006 H 89.692 0.929622 -4.13683 0
M  V30 1007 C 88.151 1.73515 -2.88781 0
M  V30 1008 O 88.681 2.83376 -2.84712 0
M  V30 1009 N 86.887 1.55603 -2.4543 0
M  V30 1010 H 86.434 0.662354 -2.48939 0
M  V30 1011 H 86.392 2.34545 -2.09371 0
M  V30 1012 N 90.1641 1.46063 -0.591896 0
M  V30 1013 C 91.1141 2.27458 0.157172 0
M  V30 1014 C 92.0981 1.3641 0.853301 0
M  V30 1015 O 93.2901 1.60517 0.74588 0
M  V30 1016 C 90.4191 3.22956 1.16423 0
M  V30 1017 C 89.5051 4.2149 0.469742 0
M  V30 1018 N 89.8961 5.03519 -0.479839 0
M  V30 1019 C 88.1941 4.40161 0.719319 0
M  V30 1020 C 88.8951 5.74904 -0.886591 0
M  V30 1021 N 87.8711 5.43097 -0.233731 0
M  V30 1022 H 91.6731 2.88272 -0.572392 0
M  V30 1023 H 89.1871 1.57024 -0.414375 0
M  V30 1024 H 91.1841 3.79986 1.71513 0
M  V30 1025 H 89.8441 2.63701 1.89451 0
M  V30 1026 H 90.8551 5.1078 -0.855823 0
M  V30 1027 H 87.5321 3.92046 1.43548 0
M  V30 1028 H 88.9221 6.50844 -1.66888 0
M  V30 1029 N 91.6422 0.330177 1.54103 0
M  V30 1030 C 92.8882 -0.270806 2.00984 0
M  V30 1031 C 93.2212 -1.51265 1.21789 0
M  V30 1032 O 92.4962 -1.92142 0.301927 0
M  V30 1033 C 92.7792 -0.598339 3.55094 0
M  V30 1034 C 92.6322 0.654674 4.4501 0
M  V30 1035 C 93.9512 -1.41334 4.16789 0
M  V30 1036 H 91.0702 -0.0969531 0.730595 0
M  V30 1037 H 93.7122 0.448066 1.84641 0
M  V30 1038 H 91.8622 -1.21078 3.69151 0
M  V30 1039 H 93.5342 1.29285 4.42813 0
M  V30 1040 H 91.7772 1.28224 4.14416 0
M  V30 1041 H 92.4482 0.380944 5.50684 0
M  V30 1042 H 94.9242 -0.895597 4.06347 0
M  V30 1043 H 93.8002 -1.61127 5.24718 0
M  V30 1044 H 94.0612 -2.41146 3.70541 0
M  V30 1045 N 93.1203 -1.57491 0.0584922 0
M  V30 1046 C 94.0503 -2.14988 -0.911178 0
M  V30 1047 C 95.0313 -1.07343 -1.31952 0
M  V30 1048 O 96.2163 -1.35318 -1.39294 0
M  V30 1049 C 93.3463 -2.70078 -2.18347 0
M  V30 1050 C 92.3003 -3.82771 -1.91495 0
M  V30 1051 C 91.6263 -4.24408 -3.25241 0
M  V30 1052 C 92.9263 -5.07592 -1.23075 0
M  V30 1053 H 94.6203 -2.96263 -0.432246 0
M  V30 1054 H 92.1663 -1.42512 -0.206469 0
M  V30 1055 H 94.1193 -3.08943 -2.86587 0
M  V30 1056 H 92.8433 -1.86005 -2.68458 0
M  V30 1057 H 91.5023 -3.44389 -1.25664 0
M  V30 1058 H 91.1503 -3.37275 -3.73168 0
M  V30 1059 H 90.8503 -5.00366 -3.08071 0
M  V30 1060 H 92.3743 -4.65879 -3.94701 0
M  V30 1061 H 93.7883 -5.43857 -1.81362 0
M  V30 1062 H 92.1853 -5.88741 -1.16207 0
M  V30 1063 H 93.2553 -4.84454 -0.207847 0
M  V30 1064 N 94.5984 0.214957 -1.56127 0
M  V30 1065 C 95.5304 1.29004 -1.89448 0
M  V30 1066 C 96.5434 1.42716 -0.783326 0
M  V30 1067 O 97.7324 1.43496 -1.06166 0
M  V30 1068 C 94.8324 2.66482 -2.09381 0
M  V30 1069 C 94.0054 2.74633 -3.40434 0
M  V30 1070 C 93.0644 3.9317 -3.49719 0
M  V30 1071 O 92.0904 3.812 -4.227 0
M  V30 1072 N 93.2924 5.07765 -2.81346 0
M  V30 1073 H 96.0574 1.00743 -2.82261 0
M  V30 1074 H 93.6184 0.40497 -1.56753 0
M  V30 1075 H 95.6104 3.44173 -2.12901 0
M  V30 1076 H 94.1804 2.87314 -1.23163 0
M  V30 1077 H 93.4004 1.83368 -3.48955 0
M  V30 1078 H 94.6884 2.77054 -4.26754 0
M  V30 1079 H 94.0864 5.20386 -2.21843 0
M  V30 1080 H 92.6434 5.83474 -2.90519 0
M  V30 1081 N 96.0765 1.50051 0.48192 0
M  V30 1082 C 97.0265 1.64512 1.5786 0
M  V30 1083 C 98.0105 0.500073 1.52932 0
M  V30 1084 O 99.2025 0.753964 1.60139 0
M  V30 1085 C 96.3315 1.73263 2.9637 0
M  V30 1086 C 95.4175 2.93409 3.06222 0
M  V30 1087 N 95.8085 4.17236 2.85915 0
M  V30 1088 C 94.1065 2.91742 3.37346 0
M  V30 1089 C 94.8075 4.981 3.00451 0
M  V30 1090 N 93.7835 4.3184 3.30174 0
M  V30 1091 H 97.5855 2.57955 1.40842 0
M  V30 1092 H 95.0995 1.47086 0.688439 0
M  V30 1093 H 97.0965 1.81724 3.75209 0
M  V30 1094 H 95.7565 0.809711 3.14442 0
M  V30 1095 H 96.7675 4.46909 2.6171 0
M  V30 1096 H 93.4445 2.08907 3.61475 0
M  V30 1097 H 94.8345 6.06532 2.89082 0
M  V30 1098 N 97.5546 -0.734337 1.39446 0
M  V30 1099 C 98.5176 -1.83004 1.37994 0
M  V30 1100 C 99.5176 -1.58397 0.276938 0
M  V30 1101 O 100.708 -1.65785 0.534875 0
M  V30 1102 C 97.8396 -3.20802 1.1532 0
M  V30 1103 H 99.0326 -1.85694 2.35494 0
M  V30 1104 H 96.5856 -0.938059 1.25021 0
M  V30 1105 H 97.3206 -3.23772 0.185036 0
M  V30 1106 H 97.1056 -3.4006 1.95197 0
M  V30 1107 H 98.5956 -4.00862 1.17046 0
M  V30 1108 N 99.0327 -1.24633 -0.964593 0
M  V30 1109 C 99.9427 -1.05859 -2.09359 0
M  V30 1110 C 100.959 0.00148855 -1.74 0
M  V30 1111 O 102.135 -0.197346 -2.00431 0
M  V30 1112 C 99.1997 -0.668879 -3.40187 0
M  V30 1113 C 98.2607 -1.80578 -3.89474 0
M  V30 1114 C 97.4937 -1.43457 -5.14058 0
M  V30 1115 O 97.7167 -0.325775 -5.69469 0
M  V30 1116 O 96.6507 -2.2613 -5.57807 0
M  V30 1117 H 100.477 -2.00516 -2.28094 0
M  V30 1118 H 98.0617 -1.03481 -1.0776 0
M  V30 1119 H 99.9437 -0.463211 -4.18846 0
M  V30 1120 H 98.6187 0.248536 -3.22744 0
M  V30 1121 H 97.5257 -2.06623 -3.11862 0
M  V30 1122 H 98.8587 -2.70208 -4.11398 0
M  V30 1123 N 100.511 1.16574 -1.06058 0
M  V30 1124 C 101.922 1.68662 -0.800632 0
M  V30 1125 C 102.273 1.84184 0.67608 0
M  V30 1126 O 101.398 1.53568 1.52466 0
M  V30 1127 C 101.993 3.06356 -1.44676 0
M  V30 1128 C 100.552 3.55575 -1.23465 0
M  V30 1129 C 99.6988 2.31616 -1.52477 0
M  V30 1130 H 102.65 1.00969 -1.22438 0
M  V30 1131 H 102.671 3.70636 -0.860788 0
M  V30 1132 H 102.183 2.95027 -2.52152 0
M  V30 1133 H 100.284 3.72167 -0.179527 0
M  V30 1134 H 100.397 4.37812 -1.94571 0
M  V30 1135 H 98.7608 2.36512 -0.945209 0
M  V30 1136 H 99.5438 2.22887 -2.61106 0
M  V30 1137 N 101.989 0.842826 1.3317 0
M  V30 1138 C 103.237 0.439577 1.97262 0
M  V30 1139 C 103.558 -1.00548 1.67078 0
M  V30 1140 O 102.828 -1.70098 0.971779 0
M  V30 1141 H 101.408 0.159558 0.72976 0
M  V30 1142 H 104.07 1.07665 1.62463 0
M  V30 1143 H 103.166 0.574886 3.0676 0
M  V30 1144 N 103.467 -1.45747 0.599634 0
M  V30 1145 C 104.415 -2.322 -0.136426 0
M  V30 1146 C 105.409 -1.45497 -0.867583 0
M  V30 1147 O 106.615 -1.62027 -0.78405 0
M  V30 1148 H 102.99 -0.749368 -0.0628588 0
M  V30 1149 H 104.961 -2.92072 0.611281 0
M  V30 1150 C 103.71 -3.28974 -1.12567 0
M  V30 1151 H 103.033 -3.9568 -0.572484 0
M  V30 1152 H 104.473 -3.92212 -1.61077 0
M  V30 1153 C 102.932 -2.55561 -2.19523 0
M  V30 1154 O 103.462 -2.33111 -3.27143 0
M  V30 1155 N 101.668 -2.15832 -1.94589 0
M  V30 1156 H 101.215 -2.3429 -1.07078 0
M  V30 1157 H 101.173 -1.67034 -2.66359 0
M  V30 1158 N 104.945 -0.338344 -1.53925 0
M  V30 1159 C 105.908 0.508299 -2.23493 0
M  V30 1160 C 106.908 1.03175 -1.23335 0
M  V30 1161 O 108.098 0.921826 -1.47811 0
M  V30 1162 C 105.23 1.70754 -2.95052 0
M  V30 1163 H 106.423 -0.100058 -2.99733 0
M  V30 1164 H 103.976 -0.0896198 -1.56043 0
M  V30 1165 H 104.711 2.35474 -2.22986 0
M  V30 1166 H 104.496 1.33946 -3.68512 0
M  V30 1167 H 105.986 2.30818 -3.48013 0
M  V30 1168 N 106.423 1.57458 -0.0668435 0
M  V30 1169 C 107.355 2.09413 0.931601 0
M  V30 1170 C 108.368 1.02522 1.26464 0
M  V30 1171 O 109.557 1.30049 1.22269 0
M  V30 1172 C 106.657 2.53537 2.24882 0
M  V30 1173 C 105.83 3.83944 2.09537 0
M  V30 1174 C 104.889 4.14214 3.2452 0
M  V30 1175 O 103.915 4.83891 2.9973 0
M  V30 1176 N 105.117 3.67367 4.49469 0
M  V30 1177 H 107.882 2.95699 0.488048 0
M  V30 1178 H 105.443 1.61462 0.119009 0
M  V30 1179 H 107.435 2.70853 3.00701 0
M  V30 1180 H 106.005 1.72415 2.60753 0
M  V30 1181 H 105.225 3.76057 1.18215 0
M  V30 1182 H 106.513 4.69312 1.96529 0
M  V30 1183 H 105.911 3.11068 4.72497 0
M  V30 1184 H 104.468 3.89891 5.2233 0
M  V30 1185 N 107.901 -0.206675 1.56239 0
M  V30 1186 C 109.126 -0.949474 1.8439 0
M  V30 1187 C 109.551 -1.76549 0.649016 0
M  V30 1188 O 108.909 -1.76782 -0.402231 0
M  V30 1189 C 108.957 -1.83078 3.10668 0
M  V30 1190 O 108.061 -2.9281 2.90407 0
M  V30 1191 H 107.402 -0.268033 0.607499 0
M  V30 1192 H 109.932 -0.215488 2.03462 0
M  V30 1193 H 109.942 -2.2377 3.41161 0
M  V30 1194 H 108.617 -1.23112 3.97261 0
M  V30 1195 H 107.194 -2.55956 2.71184 0
M  V30 1196 N 109.379 -1.50304 -0.473955 0
M  V30 1197 C 110.625 -1.61389 -1.22806 0
M  V30 1198 C 110.958 -0.311955 -1.91678 0
M  V30 1199 O 110.233 0.686384 -1.81986 0
M  V30 1200 C 110.516 -2.79219 -2.27396 0
M  V30 1201 C 110.369 -4.19286 -1.62848 0
M  V30 1202 C 111.688 -2.92614 -3.28732 0
M  V30 1203 H 108.807 -0.587399 -0.445119 0
M  V30 1204 H 111.449 -1.82681 -0.522265 0
M  V30 1205 H 109.599 -2.61195 -2.87592 0
M  V30 1206 H 111.271 -4.48892 -1.06271 0
M  V30 1207 H 109.514 -4.23677 -0.931693 0
M  V30 1208 H 110.185 -4.97655 -2.38838 0
M  V30 1209 H 112.661 -3.09105 -2.78556 0
M  V30 1210 H 111.537 -3.76688 -3.99246 0
M  V30 1211 H 111.798 -2.03107 -3.92683 0
M  V30 1212 N 110.857 0.726932 -1.39834 0
M  V30 1213 C 111.787 1.85405 -1.41941 0
M  V30 1214 C 112.768 1.67751 -0.281728 0
M  V30 1215 O 113.953 1.8795 -0.488717 0
M  V30 1216 C 111.083 3.23243 -1.2701 0
M  V30 1217 C 110.037 3.55549 -2.38262 0
M  V30 1218 C 109.363 4.9241 -2.08415 0
M  V30 1219 C 110.663 3.577 -3.80589 0
M  V30 1220 H 112.357 1.83899 -2.36266 0
M  V30 1221 H 109.903 0.883349 -1.13723 0
M  V30 1222 H 111.856 4.01775 -1.27103 0
M  V30 1223 H 110.58 3.25296 -0.291564 0
M  V30 1224 H 109.239 2.79351 -2.37399 0
M  V30 1225 H 108.887 4.91052 -1.0898 0
M  V30 1226 H 108.587 5.14992 -2.82943 0
M  V30 1227 H 110.111 5.73289 -2.10171 0
M  V30 1228 H 111.525 4.26293 -3.83337 0
M  V30 1229 H 109.922 3.91804 -4.54543 0
M  V30 1230 H 110.992 2.57328 -4.10987 0
M  V30 1231 N 112.336 1.25143 0.95797 0
M  V30 1232 C 113.246 1.06968 2.08794 0
M  V30 1233 C 114.262 0.00773911 1.73998 0
M  V30 1234 O 115.438 0.207972 2.00323 0
M  V30 1235 C 112.503 0.68691 3.39827 0
M  V30 1236 C 111.564 1.82641 3.88511 0
M  V30 1237 C 110.797 1.46181 5.1329 0
M  V30 1238 O 111.02 0.355971 5.69288 0
M  V30 1239 O 109.954 2.29085 5.566 0
M  V30 1240 H 113.78 2.01723 2.27027 0
M  V30 1241 H 111.365 1.04051 1.07209 0
M  V30 1242 H 113.247 0.485417 4.18595 0
M  V30 1243 H 111.922 -0.231417 3.22872 0
M  V30 1244 H 110.829 2.08274 3.10762 0
M  V30 1245 H 112.162 2.72386 4.09959 0
M  V30 1246 N 113.814 -1.1601 1.06675 0
M  V30 1247 C 114.777 -2.18724 0.685001 0
M  V30 1248 C 115.777 -1.58496 -0.271246 0
M  V30 1249 O 116.967 -1.74119 -0.0531156 0
M  V30 1250 C 114.099 -3.40899 0.00853648 0
M  V30 1251 H 115.292 -2.54011 1.59431 0
M  V30 1252 H 112.845 -1.30352 0.862441 0
M  V30 1253 H 113.58 -3.11173 -0.913337 0
M  V30 1254 H 113.365 -3.8587 0.696204 0
M  V30 1255 H 114.855 -4.16886 -0.24414 0
M  V30 1256 N 115.292 -0.849877 -1.32721 0
M  V30 1257 C 116.541 -0.447175 -1.96681 0
M  V30 1258 C 116.854 1.00135 -1.68025 0
M  V30 1259 O 118.06 1.50926 -2.25685 0
M  V30 1260 C 116.516 -0.7487 -3.52026 0
M  V30 1261 C 116.124 -2.21264 -3.89546 0
M  V30 1262 C 117.868 -0.413487 -4.22481 0
M  V30 1263 C 115.775 -2.45763 -5.37917 0
M  V30 1264 H 114.705 -0.163486 -0.736063 0
M  V30 1265 H 117.356 -1.03999 -1.51183 0
M  V30 1266 H 115.738 -0.0853727 -3.95908 0
M  V30 1267 H 116.912 -2.91736 -3.56689 0
M  V30 1268 H 115.227 -2.5119 -3.32103 0
M  V30 1269 H 117.824 -0.574017 -5.3161 0
M  V30 1270 H 118.167 0.644492 -4.11281 0
M  V30 1271 H 118.7 -1.03251 -3.84167 0
M  V30 1272 H 115.439 -3.50168 -5.54132 0
M  V30 1273 H 114.959 -1.79864 -5.72197 0
M  V30 1274 H 116.638 -2.29471 -6.0494 0
M  V30 1275 N 116.77 1.45427 -0.607355 0
M  V30 1276 C 118.047 1.9557 -0.0344566 0
M  V30 1277 C 118.427 1.54979 1.43334 0
M  V30 1278 O 117.775 0.812241 2.13576 0
M  V30 1279 C 117.985 3.48226 -0.232321 0
M  V30 1280 C 119.333 4.2445 -0.113001 0
M  V30 1281 O 120.357 3.55829 -0.162431 0
M  V30 1282 O 119.216 5.465 0.00209442 0
M  V30 1283 H 116.31 0.826222 0.0358667 0
M  V30 1284 H 118.856 1.55594 -0.6774 0
M  V30 1285 H 117.628 3.70739 -1.25174 0
M  V30 1286 H 117.251 3.95092 0.445896 0
M  V30 1287 N 118.248 0.346503 1.53744 0
M  V30 1288 C 119.476 -0.25041 2.05379 0
M  V30 1289 C 119.891 -1.43979 1.22129 0
M  V30 1290 O 119.248 -1.80677 0.257321 0
M  V30 1291 C 119.299 -0.662575 3.55376 0
M  V30 1292 O 119.02 0.479515 4.35468 0
M  V30 1293 C 120.521 -1.31989 4.23195 0
M  V30 1294 H 117.741 -0.0478198 0.669294 0
M  V30 1295 H 120.285 0.499346 1.9831 0
M  V30 1296 H 118.44 -1.36227 3.62658 0
M  V30 1297 H 118.854 0.15037 5.24284 0
M  V30 1298 H 120.328 -1.55902 5.29527 0
M  V30 1299 H 120.805 -2.27436 3.75725 0
M  V30 1300 H 121.411 -0.662154 4.20114 0
M  V30 1301 N 119.726 -1.57421 0.075193 0
M  V30 1302 C 120.956 -1.97659 -0.601203 0
M  V30 1303 C 121.364 -0.952427 -1.63479 0
M  V30 1304 O 120.707 0.0688241 -1.83571 0
M  V30 1305 C 120.769 -3.34218 -1.32434 0
M  V30 1306 C 120.433 -4.5484 -0.443826 0
M  V30 1307 C 121.43 -5.19034 0.299969 0
M  V30 1308 C 119.115 -5.00952 -0.367709 0
M  V30 1309 C 121.109 -6.27695 1.10807 0
M  V30 1310 C 118.796 -6.09484 0.444058 0
M  V30 1311 C 119.794 -6.72719 1.18061 0
M  V30 1312 O 119.482 -7.79161 1.97898 0
M  V30 1313 H 119.214 -0.65494 -0.167422 0
M  V30 1314 H 121.768 -2.04886 0.145157 0
M  V30 1315 H 119.998 -3.23615 -2.11685 0
M  V30 1316 H 121.687 -3.59038 -1.89331 0
M  V30 1317 H 122.453 -4.84351 0.250776 0
M  V30 1318 H 118.332 -4.51509 -0.930638 0
M  V30 1319 H 121.876 -6.76982 1.68347 0
M  V30 1320 H 117.773 -6.43601 0.494803 0
M  V30 1321 H 118.541 -7.96055 1.90367 0
M  V30 1322 N 121.204 0.198386 -1.56346 0
M  V30 1323 C 122.444 0.92609 -1.82217 0
M  V30 1324 C 122.808 1.80584 -0.652195 0
M  V30 1325 O 124.009 2.56907 -0.790716 0
M  V30 1326 C 122.28 1.72354 -3.13096 0
M  V30 1327 S 123.839 2.50371 -3.6036 0
M  V30 1328 H 120.657 0.310677 -0.639532 0
M  V30 1329 H 123.259 0.189755 -1.94577 0
M  V30 1330 H 121.963 1.0678 -3.96265 0
M  V30 1331 H 121.494 2.50175 -3.03605 0
M  V30 1332 H 123.509 3.74488 -3.25535 0
M  V30 1333 N 122.682 1.50554 0.465978 0
M  V30 1334 C 123.592 1.72585 1.58907 0
M  V30 1335 C 124.608 0.60911 1.6299 0
M  V30 1336 O 125.784 0.88804 1.80765 0
M  V30 1337 C 122.849 1.81995 2.95091 0
M  V30 1338 C 121.91 3.05751 3.01355 0
M  V30 1339 C 121.143 3.14702 4.31043 0
M  V30 1340 O 121.366 2.30313 5.21835 0
M  V30 1341 O 120.3 4.07468 4.43005 0
M  V30 1342 H 124.126 2.67799 1.43239 0
M  V30 1343 H 121.711 1.34711 0.646013 0
M  V30 1344 H 123.593 1.90335 3.75966 0
M  V30 1345 H 122.268 0.899659 3.10947 0
M  V30 1346 H 121.175 3.02908 2.19539 0
M  V30 1347 H 122.508 3.97375 2.90437 0
M  V30 1348 N 124.16 -0.719506 1.40217 0
M  V30 1349 C 125.092 -1.84428 1.36084 0
M  V30 1350 C 126.105 -1.60597 0.266913 0
M  V30 1351 O 127.294 -1.70544 0.526983 0
M  V30 1352 C 124.394 -3.20757 1.094 0
M  V30 1353 C 123.567 -3.71817 2.30372 0
M  V30 1354 C 122.626 -4.86748 1.99907 0
M  V30 1355 O 121.652 -4.99603 2.72737 0
M  V30 1356 N 122.854 -5.7226 0.974635 0
M  V30 1357 H 125.619 -1.88473 2.33019 0
M  V30 1358 H 123.18 -0.900885 1.3452 0
M  V30 1359 H 125.172 -3.95235 0.870116 0
M  V30 1360 H 123.742 -3.11884 0.211452 0
M  V30 1361 H 122.962 -2.88514 2.68614 0
M  V30 1362 H 124.25 -4.02666 3.11026 0
M  V30 1363 H 123.648 -5.6448 0.371368 0
M  V30 1364 H 122.205 -6.46739 0.810656 0
M  V30 1365 N 125.638 -1.25649 -0.95132 0
M  V30 1366 C 126.585 -1.06323 -2.04851 0
M  V30 1367 C 127.555 0.0286491 -1.66075 0
M  V30 1368 O 128.74 -0.12917 -1.90362 0
M  V30 1369 C 125.88 -0.691529 -3.381 0
M  V30 1370 C 124.993 -1.85861 -3.89974 0
M  V30 1371 C 124.128 -1.43096 -5.11563 0
M  V30 1372 C 123.167 -2.56696 -5.55674 0
M  V30 1373 N 122.304 -2.14684 -6.68472 0
M  V30 1374 H 127.144 -2.00222 -2.20715 0
M  V30 1375 H 124.681 -0.997027 -1.08156 0
M  V30 1376 H 126.639 -0.456963 -4.1469 0
M  V30 1377 H 125.269 0.210474 -3.22113 0
M  V30 1378 H 124.321 -2.20639 -3.09875 0
M  V30 1379 H 125.633 -2.71161 -4.18657 0
M  V30 1380 H 124.787 -1.15624 -5.9558 0
M  V30 1381 H 123.526 -0.548722 -4.84603 0
M  V30 1382 H 122.531 -2.84909 -4.7022 0
M  V30 1383 H 123.756 -3.45503 -5.8464 0
M  V30 1384 H 121.702 -1.28881 -6.43215 0
M  V30 1385 H 121.619 -2.9353 -6.96689 0
M  V30 1386 H 122.887 -1.90397 -7.5589 0
M  V30 1387 N 127.117 1.15442 -1.07289 0
M  V30 1388 C 128.027 2.23786 -0.704057 0
M  V30 1389 C 129.043 1.7166 0.284413 0
M  V30 1390 O 130.219 2.00972 0.131205 0
M  V30 1391 C 127.284 3.46535 -0.106792 0
M  V30 1392 C 126.345 4.13654 -1.14842 0
M  V30 1393 C 125.578 5.30544 -0.57956 0
M  V30 1394 O 125.801 5.67187 0.604585 0
M  V30 1395 O 124.735 5.87154 -1.32414 0
M  V30 1396 H 128.561 2.57664 -1.60757 0
M  V30 1397 H 126.146 1.23152 -0.845803 0
M  V30 1398 H 128.028 4.20804 0.224048 0
M  V30 1399 H 126.703 3.14407 0.770049 0
M  V30 1400 H 125.61 3.4131 -1.5316 0
M  V30 1401 H 126.943 4.49861 -1.99714 0
M  V30 1402 N 128.595 0.856903 1.32268 0
M  V30 1403 C 129.841 0.471355 1.97863 0
M  V30 1404 C 130.196 -0.962896 1.66572 0
M  V30 1405 O 129.489 -1.66686 0.944797 0
M  V30 1406 C 129.683 0.649919 3.51441 0
M  V30 1407 C 129.512 2.09997 3.97657 0
M  V30 1408 C 128.282 2.73893 4.2463 0
M  V30 1409 C 130.48 3.07081 4.1256 0
M  V30 1410 N 128.462 4.09786 4.57109 0
M  V30 1411 C 129.833 4.27968 4.48602 0
M  V30 1412 C 131.888 3.03247 3.949 0
M  V30 1413 C 130.591 5.45521 4.68827 0
M  V30 1414 C 132.617 4.20046 4.16311 0
M  V30 1415 C 131.979 5.39692 4.52672 0
M  V30 1416 H 128.078 0.221263 0.750044 0
M  V30 1417 H 130.662 1.10876 1.60045 0
M  V30 1418 H 128.833 0.0421938 3.88377 0
M  V30 1419 H 130.565 0.234044 4.04023 0
M  V30 1420 H 127.32 2.24918 4.16784 0
M  V30 1421 H 127.744 4.7989 4.7753 0
M  V30 1422 H 132.386 2.11863 3.65888 0
M  V30 1423 H 130.104 6.37434 4.96693 0
M  V30 1424 H 133.69 4.18517 4.04147 0
M  V30 1425 H 132.57 6.28566 4.68907 0
M  V30 1426 N 130.073 -1.45103 0.615059 0
M  V30 1427 C 131.036 -2.29025 -0.0895485 0
M  V30 1428 C 132.036 -1.40174 -0.787906 0
M  V30 1429 O 133.226 -1.62217 -0.634933 0
M  V30 1430 C 130.358 -3.21376 -1.13711 0
M  V30 1431 H 131.551 -2.92807 0.648382 0
M  V30 1432 H 129.104 -1.51749 0.374444 0
M  V30 1433 H 129.839 -2.6241 -1.90556 0
M  V30 1434 H 129.624 -3.86834 -0.640475 0
M  V30 1435 H 131.114 -3.84459 -1.63036 0
M  V30 1436 N 131.551 -0.354651 -1.53558 0
M  V30 1437 C 132.484 0.540273 -2.21712 0
M  V30 1438 C 133.462 1.09161 -1.2051 0
M  V30 1439 O 134.646 1.14979 -1.49372 0
M  V30 1440 C 131.773 1.74435 -2.90328 0
M  V30 1441 C 130.819 1.32146 -4.05512 0
M  V30 1442 S 131.652 0.331924 -5.3447 0
M  V30 1443 C 132.808 1.54258 -6.06593 0
M  V30 1444 H 133.041 -0.0385776 -2.97275 0
M  V30 1445 H 130.574 -0.138736 -1.53775 0
M  V30 1446 H 132.532 2.43507 -3.30476 0
M  V30 1447 H 131.193 2.29444 -2.1451 0
M  V30 1448 H 130.386 2.21952 -4.52497 0
M  V30 1449 H 129.988 0.710091 -3.67197 0
M  V30 1450 H 132.28 2.47534 -6.30661 0
M  V30 1451 H 133.223 1.11431 -6.99277 0
M  V30 1452 H 133.631 1.74367 -5.36895 0
M  V30 1453 N 133.029 1.57378 -0.0835403 0
M  V30 1454 C 133.977 2.14602 0.89714 0
M  V30 1455 C 134.971 1.08589 1.30018 0
M  V30 1456 O 136.177 1.26952 1.27606 0
M  V30 1457 H 132.552 0.686346 0.3073 0
M  V30 1458 H 134.523 2.95845 0.38969 0
M  V30 1459 C 133.272 2.73188 2.15089 0
M  V30 1460 H 132.595 3.54442 1.84962 0
M  V30 1461 H 134.035 3.1681 2.81793 0
M  V30 1462 C 132.494 1.68517 2.91725 0
M  V30 1463 O 133.024 1.11718 3.85852 0
M  V30 1464 N 131.23 1.39277 2.55049 0
M  V30 1465 H 130.777 1.85655 1.78577 0
M  V30 1466 H 130.735 0.694791 3.06627 0
M  V30 1467 N 134.507 -0.190092 1.56449 0
M  V30 1468 C 135.753 -0.911052 1.81184 0
M  V30 1469 C 136.086 -1.82699 0.658396 0
M  V30 1470 O 135.361 -1.91491 -0.340775 0
M  V30 1471 C 135.644 -1.72297 3.16205 0
M  V30 1472 C 135.497 -0.831419 4.42049 0
M  V30 1473 C 136.816 -2.69454 3.47969 0
M  V30 1474 H 133.935 -0.32977 0.659106 0
M  V30 1475 H 136.577 -0.178169 1.89163 0
M  V30 1476 H 134.727 -2.34778 3.09534 0
M  V30 1477 H 136.399 -0.220929 4.60771 0
M  V30 1478 H 134.642 -0.138406 4.33579 0
M  V30 1479 H 135.313 -1.43461 5.33032 0
M  V30 1480 H 137.789 -2.17104 3.54972 0
M  V30 1481 H 136.665 -3.23342 4.43555 0
M  V30 1482 H 136.926 -3.48744 2.71717 0
M  V30 1483 N 135.985 -1.50799 -0.457987 0
M  V30 1484 C 137.233 -1.62121 -1.2067 0
M  V30 1485 C 137.554 -0.329793 -1.92191 0
M  V30 1486 O 136.824 0.653409 -1.84682 0
M  V30 1487 H 135.404 -0.597441 -0.448411 0
M  V30 1488 H 138.066 -1.87637 -0.527096 0
M  V30 1489 H 137.162 -2.43882 -1.94751 0
M  V30 1490 N 137.463 0.71206 -1.40597 0
M  V30 1491 C 138.74 1.46536 -1.29563 0
M  V30 1492 C 139.12 2.10931 0.0844217 0
M  V30 1493 O 138.468 2.00418 1.0975 0
M  V30 1494 C 138.678 2.49821 -2.43701 0
M  V30 1495 C 140.026 3.15551 -2.841 0
M  V30 1496 O 141.05 2.60142 -2.4332 0
M  V30 1497 O 139.909 4.15867 -3.54566 0
M  V30 1498 H 137.003 0.651801 -0.509004 0
M  V30 1499 H 139.549 0.743935 -1.52524 0
M  V30 1500 H 138.321 2.00778 -3.35863 0
M  V30 1501 H 137.944 3.29495 -2.22528 0
M  V30 1502 N 138.941 1.26152 0.944643 0
M  V30 1503 C 139.888 1.07408 2.04285 0
M  V30 1504 C 140.858 -0.0198413 1.66088 0
M  V30 1505 O 142.043 0.139264 1.90291 0
M  V30 1506 C 139.183 0.70945 3.37729 0
M  V30 1507 C 138.296 1.87926 3.88983 0
M  V30 1508 C 137.431 1.45807 5.10797 0
M  V30 1509 C 136.47 2.5964 5.54305 0
M  V30 1510 N 135.607 2.18226 6.67324 0
M  V30 1511 H 140.447 2.01389 2.1965 0
M  V30 1512 H 137.984 1.00275 1.07626 0
M  V30 1513 H 139.942 0.478948 4.14442 0
M  V30 1514 H 138.572 -0.193389 3.2222 0
M  V30 1515 H 137.624 2.22279 3.08701 0
M  V30 1516 H 138.936 2.73377 4.17213 0
M  V30 1517 H 138.09 1.18781 5.94959 0
M  V30 1518 H 136.829 0.574414 4.84305 0
M  V30 1519 H 135.834 2.87399 4.68702 0
M  V30 1520 H 137.059 3.48599 5.828 0
M  V30 1521 H 135.005 1.3229 6.42523 0
M  V30 1522 H 134.922 2.97221 6.95123 0
M  V30 1523 H 136.19 1.94403 7.54869 0
M  V30 1524 N 140.419 -1.14872 1.07899 0
M  V30 1525 C 141.366 -2.19791 0.704319 0
M  V30 1526 C 142.336 -1.63238 -0.306987 0
M  V30 1527 O 143.521 -1.8983 -0.192171 0
M  V30 1528 C 140.661 -3.44911 0.114244 0
M  V30 1529 C 139.774 -4.15637 1.1777 0
M  V30 1530 C 138.909 -5.28324 0.552037 0
M  V30 1531 C 137.948 -5.90875 1.59789 0
M  V30 1532 N 137.085 -6.95022 0.994404 0
M  V30 1533 H 141.925 -2.5119 1.60336 0
M  V30 1534 H 139.462 -1.23356 0.801352 0
M  V30 1535 H 141.42 -4.16477 -0.245544 0
M  V30 1536 H 140.05 -3.14011 -0.74813 0
M  V30 1537 H 139.102 -3.42512 1.65499 0
M  V30 1538 H 140.414 -4.5823 1.97046 0
M  V30 1539 H 139.568 -6.06538 0.1402 0
M  V30 1540 H 138.307 -4.86939 -0.272431 0
M  V30 1541 H 137.312 -5.11369 2.01945 0
M  V30 1542 H 138.537 -6.34337 2.42474 0
M  V30 1543 H 136.483 -6.55722 0.190939 0
M  V30 1544 H 136.4 -7.36073 1.72432 0
M  V30 1545 H 137.668 -7.77123 0.608253 0
M  V30 1546 N 141.898 -0.863906 -1.31812 0
M  V30 1547 C 143.146 -0.470904 -1.96537 0
M  V30 1548 C 143.467 0.978771 -1.68657 0
M  V30 1549 O 142.737 1.6853 -0.998717 0
M  V30 1550 H 141.317 -0.171148 -0.72713 0
M  V30 1551 H 143.979 -1.10236 -1.60729 0
M  V30 1552 H 143.075 -0.623616 -3.05806 0
M  V30 1553 N 143.376 1.44774 -0.622745 0
M  V30 1554 C 144.323 2.30635 0.0871679 0
M  V30 1555 C 145.293 1.42994 0.845097 0
M  V30 1556 O 146.478 1.71907 0.827812 0
M  V30 1557 C 143.618 3.28144 1.06844 0
M  V30 1558 C 142.731 4.30888 0.309809 0
M  V30 1559 C 141.866 5.15494 1.28215 0
M  V30 1560 C 140.905 6.09953 0.512198 0
M  V30 1561 N 140.042 6.87287 1.43458 0
M  V30 1562 H 144.882 2.90803 -0.650974 0
M  V30 1563 H 142.419 1.43286 -0.33281 0
M  V30 1564 H 144.377 3.83157 1.65066 0
M  V30 1565 H 143.007 2.69695 1.77382 0
M  V30 1566 H 142.059 3.78414 -0.388181 0
M  V30 1567 H 143.371 4.97955 -0.290254 0
M  V30 1568 H 142.525 5.74983 1.93596 0
M  V30 1569 H 141.264 4.48481 1.91614 0
M  V30 1570 H 140.269 5.49581 -0.155151 0
M  V30 1571 H 141.494 6.78999 -0.116958 0
M  V30 1572 H 139.44 6.2295 2.05594 0
M  V30 1573 H 139.357 7.50763 0.888335 0
M  V30 1574 H 140.625 7.51306 2.07749 0
M  V30 1575 N 144.854 0.36279 1.53368 0
M  V30 1576 C 146.103 -0.22888 2.00397 0
M  V30 1577 C 146.416 -1.50096 1.25421 0
M  V30 1578 O 147.622 -2.17106 1.63025 0
M  V30 1579 C 146.078 -0.458417 3.56969 0
M  V30 1580 C 145.686 0.798877 4.4082 0
M  V30 1581 C 147.43 -1.00789 4.12361 0
M  V30 1582 C 145.337 0.539078 5.88938 0
M  V30 1583 H 144.267 -0.089305 0.748693 0
M  V30 1584 H 146.918 0.481099 1.77081 0
M  V30 1585 H 145.3 -1.22959 3.76427 0
M  V30 1586 H 146.474 1.57262 4.33134 0
M  V30 1587 H 144.789 1.27137 3.96516 0
M  V30 1588 H 147.386 -1.21754 5.20653 0
M  V30 1589 H 147.729 -1.9692 3.66781 0
M  V30 1590 H 148.262 -0.296961 3.9669 0
M  V30 1591 H 145.001 1.47064 6.3879 0
M  V30 1592 H 144.521 -0.196222 5.99479 0
M  V30 1593 H 146.2 0.163542 6.46793 0
M  V30 1594 N 146.332 -1.57332 0.0918853 0
M  V30 1595 C 147.578 -1.94524 -0.573425 0
M  V30 1596 C 147.911 -0.973578 -1.68033 0
M  V30 1597 O 147.186 -0.00609226 -1.94499 0
M  V30 1598 C 147.469 -3.41858 -1.13161 0
M  V30 1599 C 147.322 -4.4979 -0.0299747 0
M  V30 1600 C 148.641 -3.90435 -2.03098 0
M  V30 1601 H 145.76 -0.70734 -0.206975 0
M  V30 1602 H 148.402 -1.89309 0.161942 0
M  V30 1603 H 146.552 -3.46433 -1.7583 0
M  V30 1604 H 148.224 -4.57327 0.604112 0
M  V30 1605 H 146.467 -4.291 0.636833 0
M  V30 1606 H 147.138 -5.50069 -0.461287 0
M  V30 1607 H 149.614 -3.87992 -1.50338 0
M  V30 1608 H 148.49 -4.94097 -2.39081 0
M  V30 1609 H 148.751 -3.29541 -2.94712 0
M  V30 1610 N 147.81 0.181792 -1.56548 0
M  V30 1611 C 149.087 0.926765 -1.72251 0
M  V30 1612 C 149.467 2.00831 -0.650386 0
M  V30 1613 O 148.815 2.26008 0.336521 0
M  V30 1614 C 149.025 1.50106 -3.1507 0
M  V30 1615 C 150.373 1.97805 -3.75711 0
M  V30 1616 O 151.397 1.59922 -3.18282 0
M  V30 1617 O 150.256 2.67555 -4.76525 0
M  V30 1618 H 147.35 0.435506 -0.703039 0
M  V30 1619 H 149.896 0.170443 -1.68842 0
M  V30 1620 H 148.668 0.72212 -3.84579 0
M  V30 1621 H 148.291 2.32186 -3.22763 0
M  V30 1622 N 149.288 1.51039 0.449983 0
M  V30 1623 C 150.251 1.70863 1.5277 0
M  V30 1624 C 151.251 0.578846 1.5002 0
M  V30 1625 O 152.441 0.846213 1.52266 0
M  V30 1626 C 149.573 1.75341 2.9235 0
M  V30 1627 H 150.766 2.67034 1.36502 0
M  V30 1628 H 148.319 1.40838 0.677812 0
M  V30 1629 H 149.054 0.809383 3.14037 0
M  V30 1630 H 148.839 2.57436 2.95752 0
M  V30 1631 H 150.329 1.92559 3.70555 0
M  V30 1632 N 150.766 -0.704594 1.40972 0
M  V30 1633 C 152.012 -1.46675 1.40051 0
M  V30 1634 C 152.345 -1.94199 0.00641102 0
M  V30 1635 O 151.62 -1.68916 -0.964235 0
M  V30 1636 C 151.903 -2.68505 2.39952 0
M  V30 1637 C 151.756 -2.26805 3.88432 0
M  V30 1638 C 153.075 -3.70686 2.37233 0
M  V30 1639 H 150.194 -0.532015 0.510028 0
M  V30 1640 H 152.836 -0.803255 1.72185 0
M  V30 1641 H 150.986 -3.25114 2.1268 0
M  V30 1642 H 152.658 -1.75592 4.26574 0
M  V30 1643 H 150.901 -1.58685 4.03734 0
M  V30 1644 H 151.572 -3.14181 4.53866 0
M  V30 1645 H 154.048 -3.23731 2.61415 0
M  V30 1646 H 152.924 -4.53553 3.09162 0
M  V30 1647 H 153.185 -4.19754 1.38777 0
M  V30 1648 N 152.244 -1.26651 -0.937939 0
M  V30 1649 C 153.493 -1.11775 -1.67897 0
M  V30 1650 C 153.806 0.33794 -1.92659 0
M  V30 1651 O 155.012 0.607434 -2.64618 0
M  V30 1652 C 153.468 -1.9523 -3.02346 0
M  V30 1653 C 153.076 -3.45393 -2.8532 0
M  V30 1654 C 154.82 -1.88972 -3.80118 0
M  V30 1655 C 152.727 -4.21083 -4.15263 0
M  V30 1656 H 151.657 -0.414696 -0.629717 0
M  V30 1657 H 154.308 -1.50988 -1.04283 0
M  V30 1658 H 152.69 -1.48853 -3.66959 0
M  V30 1659 H 153.864 -3.99561 -2.29537 0
M  V30 1660 H 152.179 -3.52921 -2.20988 0
M  V30 1661 H 154.776 -2.42805 -4.76392 0
M  V30 1662 H 155.119 -0.86113 -4.07296 0
M  V30 1663 H 155.652 -2.33189 -3.22285 0
M  V30 1664 H 152.391 -5.24425 -3.93267 0
M  V30 1665 H 151.911 -3.71695 -4.70747 0
M  V30 1666 H 153.59 -4.29706 -4.83696 0
M  V30 1667 N 153.722 1.14298 -1.08507 0
M  V30 1668 C 154.654 2.1907 -0.673859 0
M  V30 1669 C 155.667 1.60381 0.279577 0
M  V30 1670 O 156.856 1.78374 0.0670754 0
M  V30 1671 C 153.956 3.38888 0.0290979 0
M  V30 1672 C 153.129 4.27103 -0.943494 0
M  V30 1673 C 152.188 5.25477 -0.275676 0
M  V30 1674 O 151.214 5.61709 -0.920401 0
M  V30 1675 N 152.416 5.7227 0.974013 0
M  V30 1676 H 155.181 2.54965 -1.57521 0
M  V30 1677 H 152.742 1.29528 -0.971287 0
M  V30 1678 H 154.734 4.01761 0.48683 0
M  V30 1679 H 153.304 3.01309 0.832555 0
M  V30 1680 H 152.524 3.61149 -1.58004 0
M  V30 1681 H 153.812 4.82905 -1.60251 0
M  V30 1682 H 153.21 5.44965 1.51755 0
M  V30 1683 H 151.767 6.37127 1.37522 0
M  V30 1684 N 155.201 0.870884 1.31352 0
M  V30 1685 C 156.111 0.330783 2.32256 0
M  V30 1686 C 157.127 -0.559767 1.6475 0
M  V30 1687 O 158.303 -0.456263 1.96164 0
M  V30 1688 C 155.368 -0.458137 3.4366 0
M  V30 1689 C 154.429 0.460482 4.26823 0
M  V30 1690 C 153.662 -0.290881 5.32907 0
M  V30 1691 O 153.885 -1.51885 5.49806 0
M  V30 1692 O 152.819 0.351732 6.00871 0
M  V30 1693 H 156.645 1.16718 2.80376 0
M  V30 1694 H 154.23 0.634285 1.35267 0
M  V30 1695 H 156.112 -0.905343 4.1156 0
M  V30 1696 H 154.787 -1.27106 2.97701 0
M  V30 1697 H 153.694 0.956207 3.61673 0
M  V30 1698 H 155.027 1.23903 4.7635 0
M  V30 1699 N 156.679 -1.44442 0.630414 0
M  V30 1700 C 157.629 -2.27794 -0.0968103 0
M  V30 1701 C 158.613 -1.38624 -0.816834 0
M  V30 1702 O 159.805 -1.62438 -0.70306 0
M  V30 1703 C 156.934 -3.25929 -1.07819 0
M  V30 1704 C 156.02 -4.22588 -0.357826 0
M  V30 1705 N 156.411 -5.0207 0.613169 0
M  V30 1706 C 154.709 -4.41914 -0.602365 0
M  V30 1707 C 155.41 -5.72351 1.03871 0
M  V30 1708 N 154.386 -5.42287 0.377642 0
M  V30 1709 H 158.188 -2.86653 0.648621 0
M  V30 1710 H 155.702 -1.55871 0.455862 0
M  V30 1711 H 157.699 -3.84399 -1.61378 0
M  V30 1712 H 156.359 -2.68631 -1.82393 0
M  V30 1713 H 157.37 -5.08331 0.990947 0
M  V30 1714 H 154.047 -3.95714 -1.33103 0
M  V30 1715 H 155.437 -6.4619 1.84086 0
M  V30 1716 N 158.157 -0.370918 -1.53173 0
M  V30 1717 C 159.089 0.507823 -2.23503 0
M  V30 1718 C 160.102 1.04182 -1.251 0
M  V30 1719 O 161.291 0.947286 -1.5129 0
M  V30 1720 C 158.391 1.71447 -2.92334 0
M  V30 1721 C 157.564 1.31105 -4.17289 0
M  V30 1722 C 156.623 2.38035 -4.69282 0
M  V30 1723 O 155.649 2.00204 -5.32829 0
M  V30 1724 N 156.851 3.69697 -4.47554 0
M  V30 1725 H 159.616 -0.0946382 -2.99551 0
M  V30 1726 H 157.177 -0.196358 -1.60705 0
M  V30 1727 H 159.169 2.42469 -3.24023 0
M  V30 1728 H 157.739 2.22368 -2.19707 0
M  V30 1729 H 156.959 0.430462 -3.91843 0
M  V30 1730 H 158.247 1.0179 -4.98514 0
M  V30 1731 H 157.645 4.03205 -3.9679 0
M  V30 1732 H 156.202 4.36807 -4.8378 0
M  V30 1733 N 159.635 1.57281 -0.100228 0
M  V30 1734 C 161.046 1.81725 0.428107 0
M  V30 1735 C 161.397 1.01619 1.67833 0
M  V30 1736 O 160.522 0.247098 2.14985 0
M  V30 1737 C 161.117 3.29617 0.78347 0
M  V30 1738 C 159.676 3.54808 1.25653 0
M  V30 1739 C 158.823 2.76118 0.255752 0
M  V30 1740 H 161.774 1.55324 -0.325608 0
M  V30 1741 H 161.795 3.4322 1.64256 0
M  V30 1742 H 161.307 3.87893 -0.12665 0
M  V30 1743 H 159.408 3.01868 2.18418 0
M  V30 1744 H 159.521 4.63443 1.21482 0
M  V30 1745 H 157.885 2.43745 0.738956 0
M  V30 1746 H 158.668 3.37145 -0.647136 0
M  V30 1747 N 161.113 -0.173488 1.56642 0
M  V30 1748 C 162.338 -0.910149 1.86363 0
M  V30 1749 C 162.763 -1.75132 0.686318 0
M  V30 1750 O 162.121 -1.77595 -0.364643 0
M  V30 1751 C 162.169 -1.76447 3.14482 0
M  V30 1752 O 161.273 -2.86584 2.96553 0
M  V30 1753 H 160.614 -0.255086 0.613047 0
M  V30 1754 H 163.144 -0.172283 2.03873 0
M  V30 1755 H 163.154 -2.16483 3.45831 0
M  V30 1756 H 161.829 -1.14658 3.99783 0
M  V30 1757 H 160.406 -2.50146 2.76553 0
M  V30 1758 N 162.591 -1.51276 -0.441967 0
M  V30 1759 C 163.837 -1.63958 -1.19355 0
M  V30 1760 C 164.17 -0.352543 -1.90973 0
M  V30 1761 O 163.445 0.647627 -1.83401 0
M  V30 1762 C 163.728 -2.83979 -2.21422 0
M  V30 1763 C 163.581 -4.22646 -1.53918 0
M  V30 1764 C 164.9 -2.99521 -3.22451 0
M  V30 1765 H 162.019 -0.596709 -0.432559 0
M  V30 1766 H 164.661 -1.83748 -0.483398 0
M  V30 1767 H 162.811 -2.67237 -2.81987 0
M  V30 1768 H 164.483 -4.51045 -0.967256 0
M  V30 1769 H 162.726 -4.25558 -0.841615 0
M  V30 1770 H 163.397 -5.02609 -2.28229 0
M  V30 1771 H 165.873 -3.14944 -2.71937 0
M  V30 1772 H 164.749 -3.85072 -3.91166 0
M  V30 1773 H 165.01 -2.11391 -3.88287 0
M  V30 1774 N 164.069 0.697108 -1.41344 0
M  V30 1775 C 164.999 1.82353 -1.45841 0
M  V30 1776 C 165.98 1.67115 -0.317247 0
M  V30 1777 O 167.165 1.86871 -0.528474 0
M  V30 1778 C 164.295 3.20476 -1.33838 0
M  V30 1779 C 163.249 3.50415 -2.4575 0
M  V30 1780 C 162.575 4.87878 -2.18813 0
M  V30 1781 C 163.875 3.49546 -3.88091 0
M  V30 1782 H 165.569 1.78846 -2.40113 0
M  V30 1783 H 163.115 0.859028 -1.15571 0
M  V30 1784 H 165.068 3.98988 -1.35596 0
M  V30 1785 H 163.792 3.24604 -0.360498 0
M  V30 1786 H 162.451 2.74253 -2.43271 0
M  V30 1787 H 162.099 4.8863 -1.19371 0
M  V30 1788 H 161.799 5.08875 -2.93803 0
M  V30 1789 H 163.323 5.68702 -2.22284 0
M  V30 1790 H 164.737 4.18066 -3.92293 0
M  V30 1791 H 163.134 3.82075 -4.62751 0
M  V30 1792 H 164.204 2.48552 -4.16353 0
M  V30 1793 N 165.547 1.27147 0.931209 0
M  V30 1794 C 166.477 1.12081 2.04842 0
M  V30 1795 C 167.458 0.0232364 1.70084 0
M  V30 1796 O 168.643 0.197085 1.93197 0
M  V30 1797 C 165.773 0.76354 3.38803 0
M  V30 1798 C 164.727 1.81396 3.87659 0
M  V30 1799 C 164.053 1.31075 5.18385 0
M  V30 1800 C 165.353 3.21739 4.11438 0
M  V30 1801 H 167.047 2.05537 2.17703 0
M  V30 1802 H 164.593 0.989603 1.04608 0
M  V30 1803 H 166.546 0.644982 4.16435 0
M  V30 1804 H 165.27 -0.206727 3.25945 0
M  V30 1805 H 163.929 1.92136 3.12217 0
M  V30 1806 H 163.577 0.330037 5.01916 0
M  V30 1807 H 163.277 2.013 5.52044 0
M  V30 1808 H 164.801 1.20506 5.98591 0
M  V30 1809 H 166.215 3.14019 4.79651 0
M  V30 1810 H 164.612 3.89644 4.56397 0
M  V30 1811 H 165.682 3.67054 3.16859 0
M  V30 1812 N 167.025 -1.13721 1.09112 0
M  V30 1813 C 167.935 -2.22638 0.73957 0
M  V30 1814 C 168.951 -1.72091 -0.257068 0
M  V30 1815 O 170.127 -2.01155 -0.0992154 0
M  V30 1816 C 167.192 -3.46322 0.16191 0
M  V30 1817 C 166.253 -4.11775 1.21408 0
M  V30 1818 C 165.486 -5.29555 0.663891 0
M  V30 1819 O 165.709 -5.68077 -0.514274 0
M  V30 1820 O 164.643 -5.84973 1.41738 0
M  V30 1821 H 168.469 -2.55074 1.64836 0
M  V30 1822 H 166.054 -1.21791 0.865289 0
M  V30 1823 H 167.936 -4.21107 -0.157073 0
M  V30 1824 H 166.611 -3.15593 -0.719932 0
M  V30 1825 H 165.518 -3.3883 1.58571 0
M  V30 1826 H 166.851 -4.46627 2.06845 0
M  V30 1827 N 168.503 -0.877838 -1.30888 0
M  V30 1828 C 169.433 -0.35534 -2.3078 0
M  V30 1829 C 170.414 0.557994 -1.60687 0
M  V30 1830 O 171.599 0.473355 -1.88343 0
M  V30 1831 C 168.729 0.437221 -3.44537 0
M  V30 1832 C 167.683 -0.383715 -4.26276 0
M  V30 1833 C 167.009 0.535014 -5.32017 0
M  V30 1834 C 168.309 -1.62201 -4.96476 0
M  V30 1835 H 170.003 -1.19007 -2.74732 0
M  V30 1836 H 167.549 -0.573698 -1.32078 0
M  V30 1837 H 169.502 0.813334 -4.13477 0
M  V30 1838 H 168.226 1.30553 -2.99372 0
M  V30 1839 H 166.885 -0.741874 -3.59015 0
M  V30 1840 H 166.533 1.40083 -4.831 0
M  V30 1841 H 166.233 -0.0104211 -5.87599 0
M  V30 1842 H 167.757 0.907799 -6.03814 0
M  V30 1843 H 169.171 -1.31689 -5.5797 0
M  V30 1844 H 167.568 -2.10711 -5.61891 0
M  V30 1845 H 168.638 -2.37044 -4.23011 0
M  V30 1846 N 169.982 1.44106 -0.638065 0
M  V30 1847 C 171.23 2.01579 -0.145043 0
M  V30 1848 C 171.551 1.50496 1.24 0
M  V30 1849 O 170.821 0.711374 1.82527 0
M  V30 1850 H 169.401 0.745282 -0.05063 0
M  V30 1851 H 172.063 1.76516 -0.826327 0
M  V30 1852 H 171.159 3.11877 -0.118039 0
M  V30 1853 N 171.46 0.379036 1.52974 0
M  V30 1854 C 172.423 -0.448865 2.24762 0
M  V30 1855 C 173.423 -0.998689 1.26027 0
M  V30 1856 O 174.613 -0.882313 1.50203 0
M  V30 1857 C 171.745 -1.62872 2.99476 0
M  V30 1858 H 172.938 0.179491 2.99362 0
M  V30 1859 H 170.491 0.13096 1.5575 0
M  V30 1860 H 171.226 -2.29479 2.29151 0
M  V30 1861 H 171.011 -1.24128 3.71934 0
M  V30 1862 H 172.501 -2.2151 3.5401 0
M  V30 1863 N 172.938 -1.57226 0.108567 0
M  V30 1864 C 174.168 -1.9889 -0.559142 0
M  V30 1865 C 174.576 -0.986889 -1.61422 0
M  V30 1866 O 173.919 0.0298705 -1.83676 0
M  V30 1867 C 173.981 -3.36952 -1.25315 0
M  V30 1868 C 173.645 -4.55679 -0.347248 0
M  V30 1869 C 174.642 -5.18281 0.409996 0
M  V30 1870 C 172.327 -5.0162 -0.261367 0
M  V30 1871 C 174.321 -6.25203 1.24096 0
M  V30 1872 C 172.008 -6.08405 0.573238 0
M  V30 1873 C 173.006 -6.70063 1.32304 0
M  V30 1874 O 172.694 -7.74788 2.14381 0
M  V30 1875 H 172.426 -0.658343 -0.153492 0
M  V30 1876 H 174.98 -2.04532 0.188584 0
M  V30 1877 H 173.21 -3.28032 -2.04773 0
M  V30 1878 H 174.899 -3.62974 -1.81673 0
M  V30 1879 H 175.665 -4.8371 0.353457 0
M  V30 1880 H 171.544 -4.53381 -0.834656 0
M  V30 1881 H 175.088 -6.73259 1.82669 0
M  V30 1882 H 170.985 -6.42406 0.631208 0
M  V30 1883 H 171.753 -7.91837 2.07209 0
M  V30 1884 N 174.416 0.165178 -1.56732 0
M  V30 1885 C 175.656 0.887231 -1.8414 0
M  V30 1886 C 176.02 1.79159 -0.690353 0
M  V30 1887 O 177.221 2.55172 -0.845032 0
M  V30 1888 C 175.492 1.65674 -3.16681 0
M  V30 1889 S 177.051 2.42671 -3.6559 0
M  V30 1890 H 173.869 0.297042 -0.645978 0
M  V30 1891 H 176.471 0.148439 -1.94936 0
M  V30 1892 H 175.175 0.983507 -3.98441 0
M  V30 1893 H 174.706 2.43679 -3.08843 0
M  V30 1894 H 176.721 3.67499 -3.33406 0
M  V30 1895 N 175.894 1.51508 0.433938 0
M  V30 1896 C 177.142 1.6402 1.18075 0
M  V30 1897 C 177.463 0.360328 1.91642 0
M  V30 1898 O 176.733 -0.623945 1.85698 0
M  V30 1899 H 175.313 0.6045 0.43885 0
M  V30 1900 H 177.975 1.88452 0.497178 0
M  V30 1901 H 177.071 2.46949 1.90847 0
M  V30 1902 N 177.372 -0.689602 1.41712 0
M  V30 1903 C 178.602 -1.47613 1.44548 0
M  V30 1904 C 179.01 -1.89132 0.0509034 0
M  V30 1905 O 178.353 -1.57741 -0.94146 0
M  V30 1906 C 178.415 -2.76596 2.2964 0
M  V30 1907 C 178.079 -2.57245 3.77722 0
M  V30 1908 C 179.076 -2.22804 4.69739 0
M  V30 1909 C 176.761 -2.727 4.2183 0
M  V30 1910 C 178.755 -2.04064 6.03851 0
M  V30 1911 C 176.442 -2.53576 5.56006 0
M  V30 1912 C 177.44 -2.1931 6.46832 0
M  V30 1913 O 177.128 -2.00359 7.78532 0
M  V30 1914 H 176.86 -0.461227 0.494212 0
M  V30 1915 H 179.414 -0.856045 1.86711 0
M  V30 1916 H 177.644 -3.41033 1.82301 0
M  V30 1917 H 179.333 -3.38424 2.24107 0
M  V30 1918 H 180.099 -2.10473 4.36951 0
M  V30 1919 H 175.978 -2.98353 3.51435 0
M  V30 1920 H 179.522 -1.77241 6.74708 0
M  V30 1921 H 175.419 -2.65499 5.88371 0
M  V30 1922 H 176.187 -2.15075 7.89737 0
M  V30 1923 N 178.85 -1.27639 -0.924453 0
M  V30 1924 C 180.075 -1.17101 -1.71179 0
M  V30 1925 C 180.5 0.268134 -1.86179 0
M  V30 1926 O 179.858 1.19415 -1.36418 0
M  V30 1927 C 179.906 -1.86313 -3.08739 0
M  V30 1928 O 179.01 -1.16331 -3.95652 0
M  V30 1929 H 178.351 -0.407091 -0.524569 0
M  V30 1930 H 180.881 -1.68767 -1.15666 0
M  V30 1931 H 180.891 -1.938 -3.59034 0
M  V30 1932 H 179.566 -2.91001 -2.97138 0
M  V30 1933 H 178.143 -1.16935 -3.54091 0
M  V30 1934 N 180.328 1.1314 -1.09713 0
M  V30 1935 C 181.291 2.16831 -0.742751 0
M  V30 1936 C 182.291 1.59159 0.229129 0
M  V30 1937 O 183.481 1.74199 0.00693237 0
M  V30 1938 C 180.613 3.40756 -0.0989168 0
M  V30 1939 H 181.806 2.49695 -1.66109 0
M  V30 1940 H 179.359 1.2802 -0.896699 0
M  V30 1941 H 180.094 3.13485 0.830514 0
M  V30 1942 H 179.879 3.83888 -0.798265 0
M  V30 1943 H 181.369 4.17386 0.133524 0
M  V30 1944 N 181.806 0.884767 1.30421 0
M  V30 1945 C 183.052 0.503851 1.96441 0
M  V30 1946 C 183.385 -0.944518 1.69684 0
M  V30 1947 O 182.66 -1.66737 1.00145 0
M  V30 1948 C 182.943 0.779085 3.51571 0
M  V30 1949 C 182.796 2.27807 3.87846 0
M  V30 1950 C 184.115 0.255452 4.39358 0
M  V30 1951 H 181.234 0.184533 0.713524 0
M  V30 1952 H 183.876 1.10872 1.54297 0
M  V30 1953 H 182.026 0.264274 3.876 0
M  V30 1954 H 183.698 2.86127 3.61841 0
M  V30 1955 H 181.941 2.74479 3.35922 0
M  V30 1956 H 182.612 2.42125 4.96064 0
M  V30 1957 H 185.088 0.696079 4.10236 0
M  V30 1958 H 183.964 0.477361 5.4682 0
M  V30 1959 H 184.225 -0.843293 4.33983 0
M  V30 1960 N 183.284 -1.43765 0.645699 0
M  V30 1961 C 184.7 -1.56509 0.312591 0
M  V30 1962 C 184.9 -1.6307 -1.18365 0
M  V30 1963 O 183.956 -1.58167 -1.96824 0
M  V30 1964 C 185.269 -2.82968 1.01733 0
M  V30 1965 C 186.817 -2.96701 0.996865 0
M  V30 1966 C 187.292 -4.25982 1.68236 0
M  V30 1967 N 188.783 -4.32829 1.64964 0
M  V30 1968 C 189.518 -5.31613 2.14885 0
M  V30 1969 N 189.014 -6.36718 2.73061 0
M  V30 1970 N 190.807 -5.23217 2.05428 0
M  V30 1971 H 182.958 -1.3775 1.61675 0
M  V30 1972 H 185.221 -0.661067 0.679481 0
M  V30 1973 H 184.927 -2.84156 2.0724 0
M  V30 1974 H 184.801 -3.72957 0.564177 0
M  V30 1975 H 187.188 -2.95058 -0.0497719 0
M  V30 1976 H 187.269 -2.08022 1.48865 0
M  V30 1977 H 186.913 -4.28386 2.72852 0
M  V30 1978 H 186.843 -5.13545 1.16529 0
M  V30 1979 H 189.334 -3.57493 1.22503 0
M  V30 1980 H 189.647 -7.08401 3.08848 0
M  V30 1981 H 187.992 -6.37362 2.77118 0
M  V30 1982 H 191.183 -4.40019 1.59689 0
M  V30 1983 H 191.356 -6.00045 2.44643 0
M  V30 1984 N 184.763 -0.387143 -1.52771 0
M  V30 1985 C 185.696 0.493123 -2.22808 0
M  V30 1986 C 186.674 1.0658 -1.22798 0
M  V30 1987 O 187.858 1.11785 -1.51777 0
M  V30 1988 C 184.985 1.68238 -2.93962 0
M  V30 1989 C 184.031 1.23515 -4.08223 0
M  V30 1990 S 184.864 0.21848 -5.35054 0
M  V30 1991 C 186.02 1.41357 -6.09729 0
M  V30 1992 H 186.253 -0.101625 -2.97126 0
M  V30 1993 H 183.786 -0.171323 -1.53447 0
M  V30 1994 H 185.744 2.36443 -3.35567 0
M  V30 1995 H 184.405 2.24842 -2.19328 0
M  V30 1996 H 183.598 2.12304 -4.57103 0
M  V30 1997 H 183.2 0.632044 -3.68621 0
M  V30 1998 H 185.492 2.34101 -6.3577 0
M  V30 1999 H 186.435 0.965736 -7.01484 0
M  V30 2000 H 186.843 1.6294 -5.40473 0
M  V30 2001 N 186.241 1.57166 -0.116904 0
M  V30 2002 C 187.204 2.14039 0.819742 0
M  V30 2003 C 188.204 1.07477 1.19605 0
M  V30 2004 O 189.394 1.33263 1.1219 0
M  V30 2005 C 186.526 2.67891 2.10826 0
M  V30 2006 H 187.719 2.98128 0.325511 0
M  V30 2007 H 185.272 1.55739 0.132312 0
M  V30 2008 H 186.007 1.87384 2.64685 0
M  V30 2009 H 185.792 3.45823 1.84793 0
M  V30 2010 H 187.282 3.11809 2.77785 0
M  V30 2011 N 187.719 -0.156864 1.56817 0
M  V30 2012 C 189.135 -0.50916 1.5126 0
M  V30 2013 C 189.335 -1.83897 0.823658 0
M  V30 2014 O 188.391 -2.49469 0.390055 0
M  V30 2015 C 189.704 -0.52857 2.96018 0
M  V30 2016 C 191.252 -0.614771 3.06903 0
M  V30 2017 C 191.727 -0.664938 4.53147 0
M  V30 2018 N 193.218 -0.727433 4.57452 0
M  V30 2019 C 193.953 -0.787067 5.67973 0
M  V30 2020 N 193.449 -0.806649 6.88088 0
M  V30 2021 N 195.242 -0.827195 5.5598 0
M  V30 2022 H 187.393 0.714935 2.00006 0
M  V30 2023 H 189.656 0.259526 0.911784 0
M  V30 2024 H 189.362 0.380154 3.49639 0
M  V30 2025 H 189.236 -1.36998 3.51442 0
M  V30 2026 H 191.623 -1.51392 2.53307 0
M  V30 2027 H 191.704 0.253597 2.5454 0
M  V30 2028 H 191.348 0.230011 5.07379 0
M  V30 2029 H 191.278 -1.54966 5.03282 0
M  V30 2030 H 193.769 -0.719998 3.70978 0
M  V30 2031 H 194.082 -0.853727 7.6807 0
M  V30 2032 H 192.427 -0.774687 6.90669 0
M  V30 2033 H 195.618 -0.808998 4.61056 0
M  V30 2034 H 195.791 -0.870206 6.4213 0
M  V30 2035 N 189.197 -1.51736 -0.425897 0
M  V30 2036 C 190.127 -1.76827 -1.52494 0
M  V30 2037 C 191.108 -0.618524 -1.58456 0
M  V30 2038 O 192.293 -0.862416 -1.74 0
M  V30 2039 C 189.423 -1.90374 -2.90474 0
M  V30 2040 C 188.377 -3.0588 -2.99369 0
M  V30 2041 C 187.703 -3.04625 -4.3944 0
M  V30 2042 C 189.003 -4.45644 -2.72394 0
M  V30 2043 H 190.697 -2.68855 -1.31748 0
M  V30 2044 H 188.243 -1.29372 -0.632362 0
M  V30 2045 H 190.196 -2.0651 -3.6733 0
M  V30 2046 H 188.92 -0.95004 -3.12477 0
M  V30 2047 H 187.579 -2.89467 -2.24954 0
M  V30 2048 H 187.227 -2.0701 -4.58428 0
M  V30 2049 H 186.927 -3.82195 -4.46319 0
M  V30 2050 H 188.451 -3.22869 -5.18255 0
M  V30 2051 H 189.865 -4.62348 -3.38979 0
M  V30 2052 H 188.262 -5.25006 -2.9067 0
M  V30 2053 H 189.332 -4.54893 -1.67929 0
M  V30 2054 N 190.675 0.682077 -1.42076 0
M  V30 2055 C 191.605 1.80796 -1.47767 0
M  V30 2056 C 192.586 1.6677 -0.334954 0
M  V30 2057 O 193.771 1.863 -0.548264 0
M  V30 2058 C 190.901 3.19038 -1.37229 0
M  V30 2059 C 189.855 3.47789 -2.49453 0
M  V30 2060 C 189.181 4.8553 -2.23975 0
M  V30 2061 C 190.481 3.45411 -3.91776 0
M  V30 2062 H 192.175 1.7629 -2.41997 0
M  V30 2063 H 189.721 0.846721 -1.16476 0
M  V30 2064 H 191.674 3.97528 -1.39821 0
M  V30 2065 H 190.398 3.24204 -0.394907 0
M  V30 2066 H 189.057 2.71657 -2.46166 0
M  V30 2067 H 188.705 4.87337 -1.24547 0
M  V30 2068 H 188.405 5.0573 -2.99184 0
M  V30 2069 H 189.929 5.66312 -2.28304 0
M  V30 2070 H 191.343 4.13882 -3.96705 0
M  V30 2071 H 189.74 3.77145 -4.66778 0
M  V30 2072 H 190.81 2.44122 -4.18966 0
M  V30 2073 N 192.153 1.28127 0.917671 0
M  V30 2074 C 193.378 1.18007 1.70555 0
M  V30 2075 C 193.803 -0.258257 1.86319 0
M  V30 2076 O 193.161 -1.1869 1.37049 0
M  V30 2077 C 193.209 1.87948 3.07746 0
M  V30 2078 O 192.313 1.18427 3.9503 0
M  V30 2079 H 191.654 0.409867 0.522403 0
M  V30 2080 H 194.184 1.69379 1.1477 0
M  V30 2081 H 194.194 1.95701 3.58001 0
M  V30 2082 H 192.869 2.92573 2.95591 0
M  V30 2083 H 191.446 1.18811 3.53466 0
M  V30 2084 N 193.631 -1.12557 1.10312 0
M  V30 2085 C 195.042 -1.65574 0.862678 0
M  V30 2086 C 195.393 -1.86566 -0.607256 0
M  V30 2087 O 194.518 -1.59121 -1.46662 0
M  V30 2088 C 195.113 -3.00776 1.55947 0
M  V30 2089 C 193.672 -3.50748 1.36576 0
M  V30 2090 C 192.819 -2.25797 1.60968 0
M  V30 2091 H 195.77 -0.963552 1.26101 0
M  V30 2092 H 195.791 -3.67185 0.997753 0
M  V30 2093 H 195.303 -2.85465 2.62928 0
M  V30 2094 H 193.404 -3.71245 0.317531 0
M  V30 2095 H 193.517 -4.30289 2.10686 0
M  V30 2096 H 191.881 -2.32841 1.03234 0
M  V30 2097 H 192.664 -2.13043 2.69198 0
M  V30 2098 N 195.109 -0.891671 -1.2995 0
M  V30 2099 C 196.357 -0.512486 -1.95494 0
M  V30 2100 C 196.678 0.942776 -1.70695 0
M  V30 2101 O 195.948 1.66374 -1.03424 0
M  V30 2102 H 194.528 -0.186533 -0.723336 0
M  V30 2103 H 197.19 -1.13621 -1.58355 0
M  V30 2104 H 196.286 -0.688342 -3.04415 0
M  V30 2105 N 196.587 1.43421 -0.653314 0
M  V30 2106 C 197.55 2.29182 0.0287951 0
M  V30 2107 C 198.55 1.42213 0.750465 0
M  V30 2108 O 199.74 1.63843 0.591701 0
M  V30 2109 C 196.872 3.24278 1.05151 0
M  V30 2110 H 198.065 2.90985 -0.725786 0
M  V30 2111 H 195.618 1.50702 -0.414545 0
M  V30 2112 H 196.353 2.6737 1.83532 0
M  V30 2113 H 196.138 3.88396 0.537687 0
M  V30 2114 H 197.628 3.88647 1.52786 0
M  V30 2115 N 198.065 0.39524 1.52563 0
M  V30 2116 C 199.481 0.0454682 1.59535 0
M  V30 2117 C 199.681 -1.44056 1.4089 0
M  V30 2118 O 198.737 -2.20579 1.22888 0
M  V30 2119 C 200.05 0.527963 2.96029 0
M  V30 2120 C 201.598 0.484733 3.09224 0
M  V30 2121 C 202.073 0.943512 4.48176 0
M  V30 2122 N 203.564 0.899765 4.54377 0
M  V30 2123 C 204.299 1.22609 5.60138 0
M  V30 2124 N 203.795 1.62319 6.73516 0
M  V30 2125 N 205.588 1.14696 5.50274 0
M  V30 2126 H 197.739 1.36261 1.62931 0
M  V30 2127 H 200.002 0.558887 0.765735 0
M  V30 2128 H 199.708 1.56607 3.14908 0
M  V30 2129 H 199.582 -0.0698056 3.77135 0
M  V30 2130 H 201.969 -0.544298 2.90037 0
M  V30 2131 H 202.05 1.11838 2.30056 0
M  V30 2132 H 201.694 1.9708 4.68104 0
M  V30 2133 H 201.624 0.286817 5.25818 0
M  V30 2134 H 204.115 0.607632 3.72983 0
M  V30 2135 H 204.428 1.85567 7.5019 0
M  V30 2136 H 202.773 1.66211 6.74833 0
M  V30 2137 H 205.964 0.835701 4.6058 0
M  V30 2138 H 206.137 1.40459 6.32594 0
M  V30 2139 N 199.544 -1.57102 0.125237 0
M  V30 2140 C 200.474 -2.18659 -0.819174 0
M  V30 2141 C 201.455 -1.12843 -1.27281 0
M  V30 2142 O 202.64 -1.41104 -1.33429 0
M  V30 2143 C 199.77 -2.79096 -2.06695 0
M  V30 2144 C 198.724 -3.90548 -1.75088 0
M  V30 2145 C 198.05 -4.37821 -3.06948 0
M  V30 2146 C 199.35 -5.12356 -1.01435 0
M  V30 2147 H 201.044 -2.9783 -0.306202 0
M  V30 2148 H 198.59 -1.4326 -0.145839 0
M  V30 2149 H 200.543 -3.2082 -2.73226 0
M  V30 2150 H 199.267 -1.97223 -2.60328 0
M  V30 2151 H 197.926 -3.49409 -1.10944 0
M  V30 2152 H 197.574 -3.52799 -3.58527 0
M  V30 2153 H 197.274 -5.12982 -2.86571 0
M  V30 2154 H 198.798 -4.822 -3.74587 0
M  V30 2155 H 200.212 -5.5106 -1.58132 0
M  V30 2156 H 198.609 -5.9314 -0.911319 0
M  V30 2157 H 199.679 -4.849 -0.00218681 0
M  V30 2158 N 201.022 0.148545 -1.56898 0
M  V30 2159 C 202.271 0.85984 -1.82454 0
M  V30 2160 C 202.584 1.82406 -0.706229 0
M  V30 2161 O 203.79 2.57938 -0.847349 0
M  V30 2162 C 202.246 1.57967 -3.2338 0
M  V30 2163 C 201.854 0.65794 -4.43142 0
M  V30 2164 C 203.598 2.27784 -3.58211 0
M  V30 2165 C 201.505 1.3793 -5.75091 0
M  V30 2166 H 200.435 0.324834 -0.68044 0
M  V30 2167 H 203.086 0.112588 -1.83154 0
M  V30 2168 H 201.468 2.37249 -3.17063 0
M  V30 2169 H 202.642 -0.0995497 -4.60692 0
M  V30 2170 H 200.957 0.0682643 -4.16344 0
M  V30 2171 H 203.554 2.8239 -4.54048 0
M  V30 2172 H 203.897 3.04204 -2.84193 0
M  V30 2173 H 204.43 1.55421 -3.66182 0
M  V30 2174 H 201.169 0.656982 -6.52199 0
M  V30 2175 H 200.689 2.10954 -5.61479 0
M  V30 2176 H 202.368 1.92063 -6.17835 0
M  V30 2177 N 202.5 1.5196 0.417844 0
M  V30 2178 C 203.728 1.69426 1.18753 0
M  V30 2179 C 204.143 0.399955 1.84515 0
M  V30 2180 O 203.5 -0.623288 1.71527 0
M  V30 2181 C 203.551 2.82375 2.25714 0
M  V30 2182 O 203.272 4.06793 1.62638 0
M  V30 2183 C 204.773 3.11277 3.15628 0
M  V30 2184 H 201.993 0.568031 0.357186 0
M  V30 2185 H 204.537 1.98475 0.49273 0
M  V30 2186 H 202.692 2.5587 2.90877 0
M  V30 2187 H 203.106 4.69667 2.3348 0
M  V30 2188 H 204.58 3.93843 3.86771 0
M  V30 2189 H 205.057 2.24473 3.77503 0
M  V30 2190 H 205.663 3.39515 2.56144 0
M  V30 2191 N 203.978 -0.674533 1.42435 0
M  V30 2192 C 205.227 -1.43034 1.42212 0
M  V30 2193 C 205.54 -1.95555 0.0420788 0
M  V30 2194 O 206.746 -2.71374 -0.0827558 0
M  V30 2195 C 205.202 -2.58748 2.50155 0
M  V30 2196 C 204.81 -2.12925 3.94166 0
M  V30 2197 C 206.554 -3.36257 2.59098 0
M  V30 2198 C 204.461 -3.25723 4.93618 0
M  V30 2199 H 203.391 -0.537345 0.528939 0
M  V30 2200 H 206.042 -0.73024 1.68344 0
M  V30 2201 H 204.424 -3.31128 2.17188 0
M  V30 2202 H 205.598 -1.47697 4.36488 0
M  V30 2203 H 203.913 -1.48354 3.89076 0
M  V30 2204 H 206.51 -4.20264 3.30578 0
M  V30 2205 H 206.853 -3.82866 1.63461 0
M  V30 2206 H 207.386 -2.70947 2.9126 0
M  V30 2207 H 204.125 -2.84105 5.90732 0
M  V30 2208 H 203.645 -3.89732 4.55926 0
M  V30 2209 H 205.324 -3.91186 5.15347 0
M  V30 2210 N 205.456 -1.28612 -0.910864 0
M  V30 2211 C 206.366 -1.14643 -2.0468 0
M  V30 2212 C 207.382 -0.0723121 -1.7385 0
M  V30 2213 O 208.558 -0.282178 -1.99413 0
M  V30 2214 C 205.623 -0.812561 -3.37044 0
M  V30 2215 C 204.684 -1.96935 -3.81465 0
M  V30 2216 C 203.917 -1.65131 -5.07511 0
M  V30 2217 O 204.14 -0.567013 -5.67575 0
M  V30 2218 O 203.074 -2.49585 -5.47714 0
M  V30 2219 H 206.9 -2.1001 -2.19384 0
M  V30 2220 H 204.485 -1.07958 -1.03274 0
M  V30 2221 H 206.367 -0.640441 -4.16505 0
M  V30 2222 H 205.042 0.111426 -3.23508 0
M  V30 2223 H 203.949 -2.19664 -3.02818 0
M  V30 2224 H 205.282 -2.87414 -3.99567 0
M  V30 2225 N 206.934 1.1197 -1.10907 0
M  V30 2226 C 208.183 1.82947 -0.849302 0
M  V30 2227 C 208.496 1.85275 0.627112 0
M  V30 2228 O 209.702 2.52296 1.00295 0
M  V30 2229 C 208.158 3.28529 -1.46959 0
M  V30 2230 C 207.766 3.34546 -2.97965 0
M  V30 2231 C 209.51 4.04443 -1.28942 0
M  V30 2232 C 207.417 4.74491 -3.53004 0
M  V30 2233 H 206.347 0.685477 -0.314065 0
M  V30 2234 H 208.998 1.2604 -1.33365 0
M  V30 2235 H 207.38 3.85333 -0.912917 0
M  V30 2236 H 208.554 2.87654 -3.59989 0
M  V30 2237 H 206.869 2.72108 -3.15192 0
M  V30 2238 H 209.466 5.07787 -1.67502 0
M  V30 2239 H 209.809 4.15656 -0.231456 0
M  V30 2240 H 210.342 3.5401 -1.81443 0
M  V30 2241 H 207.081 4.68474 -4.58489 0
M  V30 2242 H 206.601 5.21816 -2.9575 0
M  V30 2243 H 208.28 5.4344 -3.51115 0
M  V30 2244 N 208.412 0.89855 1.29475 0
M  V30 2245 C 209.36 0.365253 2.29714 0
M  V30 2246 C 210.354 -0.534993 1.6073 0
M  V30 2247 O 211.56 -0.417921 1.75081 0
M  V30 2248 H 207.935 0.0994853 0.74539 0
M  V30 2249 H 209.906 1.22406 2.72138 0
M  V30 2250 C 208.655 -0.393159 3.4547 0
M  V30 2251 H 207.978 0.290332 3.98744 0
M  V30 2252 H 209.418 -0.731189 4.17648 0
M  V30 2253 C 207.877 -1.59539 2.9673 0
M  V30 2254 O 208.407 -2.69469 2.97908 0
M  V30 2255 N 206.613 -1.43716 2.52575 0
M  V30 2256 H 206.16 -0.542828 2.51816 0
M  V30 2257 H 206.118 -2.24288 2.20323 0
M  V30 2258 N 209.89 -1.43072 0.660911 0
M  V30 2259 C 211.301 -1.84932 0.256348 0
M  V30 2260 C 211.652 -1.55325 -1.19868 0
M  V30 2261 O 210.777 -1.00607 -1.91591 0
M  V30 2262 C 211.372 -3.35684 0.458475 0
M  V30 2263 C 209.931 -3.76245 0.108161 0
M  V30 2264 C 209.078 -2.66749 0.757641 0
M  V30 2265 H 212.029 -1.33116 0.864051 0
M  V30 2266 H 212.05 -3.79365 -0.293683 0
M  V30 2267 H 211.562 -3.572 1.51755 0
M  V30 2268 H 209.663 -3.60338 -0.948014 0
M  V30 2269 H 209.776 -4.76058 0.538992 0
M  V30 2270 H 208.14 -2.53989 0.190185 0
M  V30 2271 H 208.923 -2.91092 1.81989 0
M  V30 2272 N 211.368 -0.403325 -1.52352 0
M  V30 2273 C 212.645 0.232611 -1.94212 0
M  V30 2274 C 213.025 1.63133 -1.33981 0
M  V30 2275 O 212.373 2.22659 -0.513344 0
M  V30 2276 C 212.583 0.244811 -3.4814 0
M  V30 2277 C 213.931 0.46698 -4.22024 0
M  V30 2278 O 214.955 0.324419 -3.5472 0
M  V30 2279 O 213.814 0.74747 -5.41364 0
M  V30 2280 H 210.908 0.148223 -0.813609 0
M  V30 2281 H 213.454 -0.458848 -1.63379 0
M  V30 2282 H 212.226 -0.734378 -3.84347 0
M  V30 2283 H 211.849 0.980611 -3.85318 0
M  V30 2284 N 212.846 1.57033 -0.133567 0
M  V30 2285 C 214.086 1.97575 0.523789 0
M  V30 2286 C 214.45 1.01605 1.62912 0
M  V30 2287 O 215.651 1.3114 2.3464 0
M  V30 2288 C 213.922 3.42256 1.02935 0
M  V30 2289 S 215.481 4.04817 1.69319 0
M  V30 2290 H 212.299 0.690427 0.169799 0
M  V30 2291 H 214.901 1.94234 -0.222101 0
M  V30 2292 H 213.605 4.09842 0.213917 0
M  V30 2293 H 213.136 3.4928 1.81017 0
M  V30 2294 H 215.151 3.96767 2.97977 0
M  V30 2295 N 214.325 -0.140222 1.56975 0
M  V30 2296 C 215.288 -1.15689 1.97861 0
M  V30 2297 C 216.288 -1.3549 0.865974 0
M  V30 2298 O 217.478 -1.32367 1.13246 0
M  V30 2299 C 214.61 -2.51582 2.30042 0
M  V30 2300 H 215.803 -0.805971 2.88867 0
M  V30 2301 H 213.356 -0.383801 1.51515 0
M  V30 2302 H 214.091 -2.91632 1.41849 0
M  V30 2303 H 213.876 -2.38569 3.11171 0
M  V30 2304 H 215.366 -3.24792 2.62488 0
M  V30 2305 N 215.803 -1.52179 -0.40978 0
M  V30 2306 C 216.766 -1.74853 -1.48186 0
M  V30 2307 C 217.766 -0.618417 -1.48433 0
M  V30 2308 O 218.956 -0.886286 -1.49969 0
M  V30 2309 C 216.088 -1.8303 -2.87598 0
M  V30 2310 H 217.281 -2.70559 -1.29374 0
M  V30 2311 H 214.834 -1.42586 -0.640233 0
M  V30 2312 H 215.569 -0.89236 -3.11781 0
M  V30 2313 H 215.354 -2.65187 -2.88822 0
M  V30 2314 H 216.844 -2.02316 -3.65319 0
M  V30 2315 N 217.281 0.66697 -1.42791 0
M  V30 2316 C 218.53 1.42278 -1.42968 0
M  V30 2317 C 218.843 1.9553 -0.0524489 0
M  V30 2318 O 220.049 2.71414 0.068363 0
M  V30 2319 C 218.505 2.57418 -2.51524 0
M  V30 2320 C 218.113 2.10832 -3.9529 0
M  V30 2321 C 219.857 3.34878 -2.60877 0
M  V30 2322 C 217.764 3.23101 -4.95338 0
M  V30 2323 H 216.694 0.534533 -0.531781 0
M  V30 2324 H 219.345 0.721302 -1.68729 0
M  V30 2325 H 217.727 3.29971 -2.18941 0
M  V30 2326 H 218.901 1.4538 -4.37266 0
M  V30 2327 H 217.216 1.46289 -3.89857 0
M  V30 2328 H 219.813 4.18505 -3.32802 0
M  V30 2329 H 220.156 3.81993 -1.6549 0
M  V30 2330 H 220.689 2.69398 -2.92693 0
M  V30 2331 H 217.428 2.80969 -5.9223 0
M  V30 2332 H 216.948 3.87309 -4.57987 0
M  V30 2333 H 218.627 3.88447 -5.17415 0
M  V30 2334 N 218.759 1.29093 0.90403 0
M  V30 2335 C 219.987 1.19689 1.68766 0
M  V30 2336 C 220.402 -0.243113 1.87228 0
M  V30 2337 O 219.759 -1.16326 1.40621 0
M  V30 2338 C 219.81 1.90144 3.07453 0
M  V30 2339 O 219.531 3.2852 2.89838 0
M  V30 2340 C 221.032 1.87162 4.01852 0
M  V30 2341 H 218.252 0.415035 0.527244 0
M  V30 2342 H 220.796 1.7039 1.13082 0
M  V30 2343 H 218.951 1.43289 3.59926 0
M  V30 2344 H 219.365 3.63944 3.77684 0
M  V30 2345 H 220.839 2.41032 4.96596 0
M  V30 2346 H 221.316 0.84617 4.30972 0
M  V30 2347 H 221.922 2.33741 3.5531 0
M  V30 2348 N 220.237 -1.11381 1.11499 0
M  V30 2349 C 221.169 -2.17207 0.731704 0
M  V30 2350 C 222.182 -1.61066 -0.236957 0
M  V30 2351 O 223.371 -1.78489 -0.0197591 0
M  V30 2352 C 220.471 -3.38846 0.0607624 0
M  V30 2353 C 219.644 -4.24451 1.0564 0
M  V30 2354 C 218.703 -5.24562 0.4149 0
M  V30 2355 O 217.729 -5.59071 1.069 0
M  V30 2356 N 218.931 -5.74651 -0.821943 0
M  V30 2357 H 221.696 -2.50699 1.64225 0
M  V30 2358 H 219.257 -1.26908 1.00529 0
M  V30 2359 H 221.249 -4.02911 -0.380139 0
M  V30 2360 H 219.819 -3.03411 -0.752376 0
M  V30 2361 H 219.039 -3.56833 1.67524 0
M  V30 2362 H 220.327 -4.78486 1.72998 0
M  V30 2363 H 219.725 -5.48797 -1.37252 0
M  V30 2364 H 218.282 -6.40549 -1.20582 0
M  V30 2365 N 221.715 -0.905404 -1.28997 0
M  V30 2366 C 223.131 -0.60233 -1.47798 0
M  V30 2367 C 223.331 0.854645 -1.82478 0
M  V30 2368 O 222.387 1.63439 -1.92468 0
M  V30 2369 C 223.7 -1.53306 -2.58685 0
M  V30 2370 C 225.248 -1.53887 -2.72558 0
M  V30 2371 C 225.723 -2.45602 -3.86579 0
M  V30 2372 N 227.214 -2.43681 -3.93921 0
M  V30 2373 C 227.949 -3.11347 -4.81509 0
M  V30 2374 N 227.445 -3.88313 -5.73746 0
M  V30 2375 N 229.238 -3.00476 -4.75048 0
M  V30 2376 H 221.389 -1.84765 -1.04764 0
M  V30 2377 H 223.652 -0.792025 -0.520961 0
M  V30 2378 H 223.358 -2.57141 -2.39941 0
M  V30 2379 H 223.232 -1.25787 -3.55609 0
M  V30 2380 H 225.619 -0.507941 -2.90696 0
M  V30 2381 H 225.7 -1.85447 -1.76191 0
M  V30 2382 H 225.344 -3.48792 -3.69197 0
M  V30 2383 H 225.274 -2.11349 -4.82327 0
M  V30 2384 H 227.765 -1.87767 -3.27951 0
M  V30 2385 H 228.078 -4.36985 -6.37389 0
M  V30 2386 H 226.423 -3.92419 -5.73614 0
M  V30 2387 H 229.614 -2.39858 -4.01977 0
M  V30 2388 H 229.787 -3.53485 -5.43095 0
M  V30 2389 N 223.193 1.4272 -0.668489 0
M  V30 2390 C 224.126 2.28111 0.0637898 0
M  V30 2391 C 225.104 1.40705 0.814912 0
M  V30 2392 O 226.288 1.70146 0.81134 0
M  V30 2393 C 223.415 3.20429 1.0974 0
M  V30 2394 C 222.461 4.24197 0.442579 0
M  V30 2395 S 223.294 5.29563 -0.795173 0
M  V30 2396 C 224.45 6.25449 0.237516 0
M  V30 2397 H 224.683 2.8987 -0.660521 0
M  V30 2398 H 222.216 1.47456 -0.457821 0
M  V30 2399 H 224.174 3.74158 1.68868 0
M  V30 2400 H 222.835 2.57818 1.79411 0
M  V30 2401 H 222.028 4.88954 1.22227 0
M  V30 2402 H 221.63 3.73925 -0.0749554 0
M  V30 2403 H 223.922 6.68524 1.09915 0
M  V30 2404 H 224.865 7.07104 -0.375421 0
M  V30 2405 H 225.273 5.61511 0.580167 0
M  V30 2406 N 224.671 0.411399 1.52136 0
M  V30 2407 C 225.917 -0.163888 2.02137 0
M  V30 2408 C 226.25 -1.44597 1.29636 0
M  V30 2409 O 225.525 -1.90272 0.403353 0
M  V30 2410 C 225.808 -0.40927 3.57767 0
M  V30 2411 C 225.661 0.889643 4.40914 0
M  V30 2412 C 226.98 -1.19042 4.23694 0
M  V30 2413 H 224.099 -0.0580896 0.734707 0
M  V30 2414 H 226.741 0.54531 1.82007 0
M  V30 2415 H 224.891 -1.0134 3.7505 0
M  V30 2416 H 226.563 1.52575 4.35337 0
M  V30 2417 H 224.806 1.50011 4.07037 0
M  V30 2418 H 225.477 0.672314 5.4789 0
M  V30 2419 H 227.953 -0.678942 4.10524 0
M  V30 2420 H 226.829 -1.33086 5.32522 0
M  V30 2421 H 227.09 -2.21166 3.82803 0
M  V30 2422 N 226.149 -1.5696 0.141893 0
M  V30 2423 C 227.426 -1.87553 -0.555281 0
M  V30 2424 C 227.806 -1.04699 -1.83306 0
M  V30 2425 O 227.154 -0.132346 -2.28116 0
M  V30 2426 C 227.364 -3.39093 -0.825664 0
M  V30 2427 C 228.712 -4.08199 -1.16869 0
M  V30 2428 O 229.736 -3.44242 -0.915185 0
M  V30 2429 O 228.595 -5.21139 -1.6455 0
M  V30 2430 H 225.689 -0.777188 -0.282679 0
M  V30 2431 H 228.235 -1.68763 0.17812 0
M  V30 2432 H 227.007 -3.91221 0.0788633 0
M  V30 2433 H 226.63 -3.63393 -1.61343 0
M  V30 2434 N 227.627 0.131896 -1.57047 0
M  V30 2435 C 228.874 0.841932 -1.84168 0
M  V30 2436 C 229.202 1.8048 -0.725066 0
M  V30 2437 O 228.457 1.93618 0.284692 0
M  V30 2438 C 228.756 1.63703 -3.17704 0
M  V30 2439 C 228.422 0.81961 -4.43388 0
M  V30 2440 C 227.084 0.594148 -4.77518 0
M  V30 2441 C 229.436 0.248977 -5.20605 0
M  V30 2442 C 226.764 -0.212409 -5.86315 0
M  V30 2443 C 229.116 -0.544701 -6.30251 0
M  V30 2444 C 227.78 -0.780599 -6.6292 0
M  V30 2445 H 227.05 0.308085 -0.673917 0
M  V30 2446 H 229.697 0.104867 -1.91213 0
M  V30 2447 H 228.002 2.44464 -3.06177 0
M  V30 2448 H 229.699 2.19015 -3.35907 0
M  V30 2449 H 226.289 1.00542 -4.16641 0
M  V30 2450 H 230.473 0.410408 -4.946 0
M  V30 2451 H 225.729 -0.404524 -6.1006 0
M  V30 2452 H 229.903 -0.993922 -6.89271 0
M  V30 2453 H 227.53 -1.40742 -7.47058 0
M  V30 2454 N 229.106 1.52395 0.401703 0
M  V30 2455 C 230.069 1.75636 1.47257 0
M  V30 2456 C 231.069 0.62628 1.48103 0
M  V30 2457 O 232.259 0.894227 1.49497 0
M  V30 2458 C 229.391 1.84553 2.86624 0
M  V30 2459 H 230.584 2.71241 1.27938 0
M  V30 2460 H 228.137 1.42923 0.632662 0
M  V30 2461 H 228.872 0.908882 3.11303 0
M  V30 2462 H 228.657 2.66715 2.87412 0
M  V30 2463 H 230.147 2.04251 3.64241 0
M  V30 2464 N 230.584 -0.659388 1.43143 0
M  V30 2465 C 231.832 -1.41654 1.44147 0
M  V30 2466 C 232.153 -1.94893 0.0645739 0
M  V30 2467 O 231.423 -1.74044 -0.899198 0
M  V30 2468 H 230.003 -0.525708 0.530697 0
M  V30 2469 H 232.665 -0.778097 1.78694 0
M  V30 2470 H 231.761 -2.26195 2.1504 0
M  V30 2471 N 232.062 -1.29571 -0.897171 0
M  V30 2472 C 233.308 -1.17863 -1.65034 0
M  V30 2473 C 233.641 0.268729 -1.92332 0
M  V30 2474 O 232.916 1.19378 -1.53555 0
M  V30 2475 C 233.199 -1.995 -2.99786 0
M  V30 2476 C 233.052 -3.5239 -2.79538 0
M  V30 2477 C 234.371 -1.82335 -4.00552 0
M  V30 2478 H 231.49 -0.429528 -0.598895 0
M  V30 2479 H 234.132 -1.59072 -1.03905 0
M  V30 2480 H 232.282 -1.64485 -3.51962 0
M  V30 2481 H 233.954 -3.97401 -2.34244 0
M  V30 2482 H 232.197 -3.77187 -2.14273 0
M  V30 2483 H 232.868 -4.04787 -3.75302 0
M  V30 2484 H 235.344 -2.12924 -3.57495 0
M  V30 2485 H 234.22 -2.41801 -4.92771 0
M  V30 2486 H 234.481 -0.779209 -4.35179 0
M  V30 2487 N 233.54 1.10788 -1.12088 0
M  V30 2488 C 234.487 2.17025 -0.785407 0
M  V30 2489 C 235.457 1.64265 0.246191 0
M  V30 2490 O 236.642 1.90412 0.121584 0
M  V30 2491 C 233.782 3.44249 -0.242177 0
M  V30 2492 C 232.895 4.1098 -1.33115 0
M  V30 2493 C 232.03 5.25911 -0.747741 0
M  V30 2494 C 231.069 5.84538 -1.81609 0
M  V30 2495 N 230.206 6.90853 -1.25167 0
M  V30 2496 H 235.046 2.45066 -1.69548 0
M  V30 2497 H 232.583 1.20297 -0.846582 0
M  V30 2498 H 234.541 4.17101 0.0908026 0
M  V30 2499 H 233.171 3.16571 0.631072 0
M  V30 2500 H 232.223 3.36133 -1.78097 0
M  V30 2501 H 233.535 4.50601 -2.13917 0
M  V30 2502 H 232.689 6.056 -0.365216 0
M  V30 2503 H 231.428 4.87614 0.0915188 0
M  V30 2504 H 230.433 5.03522 -2.20785 0
M  V30 2505 H 231.658 6.249 -2.6585 0
M  V30 2506 H 229.604 6.54562 -0.434174 0
M  V30 2507 H 229.521 7.29166 -1.99633 0
M  V30 2508 H 230.789 7.7433 -0.896259 0
M  V30 2509 N 235.018 0.912232 1.28515 0
M  V30 2510 C 236.295 0.463597 1.90027 0
M  V30 2511 C 236.675 -1.05753 1.82701 0
M  V30 2512 O 236.023 -1.90492 1.26194 0
M  V30 2513 C 236.233 0.992253 3.34597 0
M  V30 2514 C 237.581 1.04344 4.11579 0
M  V30 2515 O 238.605 0.94079 3.43551 0
M  V30 2516 O 237.464 1.1995 5.33174 0
M  V30 2517 H 234.558 0.146666 0.813891 0
M  V30 2518 H 237.104 1.00292 1.36893 0
M  V30 2519 H 235.876 2.03623 3.34146 0
M  V30 2520 H 235.499 0.433672 3.95228 0
M  V30 2521 N 236.496 -1.42363 0.676048 0
M  V30 2522 C 237.443 -2.308 -0.00150904 0
M  V30 2523 C 238.413 -1.46032 -0.791444 0
M  V30 2524 O 239.598 -1.74861 -0.76344 0
M  V30 2525 C 236.738 -3.31883 -0.945919 0
M  V30 2526 C 235.851 -4.31741 -0.149675 0
M  V30 2527 C 234.986 -5.19898 -1.08995 0
M  V30 2528 C 234.025 -6.11434 -0.285465 0
M  V30 2529 N 233.162 -6.92138 -1.17851 0
M  V30 2530 H 238.002 -2.88187 0.758455 0
M  V30 2531 H 235.539 -1.41952 0.38576 0
M  V30 2532 H 237.497 -3.89019 -1.50731 0
M  V30 2533 H 236.127 -2.76093 -1.6725 0
M  V30 2534 H 235.179 -3.76713 0.528359 0
M  V30 2535 H 236.491 -4.96534 0.474866 0
M  V30 2536 H 235.645 -5.81772 -1.72123 0
M  V30 2537 H 234.384 -4.55284 -1.74837 0
M  V30 2538 H 233.389 -5.48627 0.359018 0
M  V30 2539 H 234.614 -6.78097 0.368883 0
M  V30 2540 H 232.56 -6.30152 -1.82332 0
M  V30 2541 H 232.477 -7.53542 -0.609082 0
M  V30 2542 H 233.745 -7.58499 -1.79722 0
M  V30 2543 N 237.974 -0.419461 -1.51915 0
M  V30 2544 C 239.22 0.153166 -2.02221 0
M  V30 2545 C 239.553 1.43907 -1.30401 0
M  V30 2546 O 238.828 1.90055 -0.413438 0
M  V30 2547 C 239.111 0.390291 -3.57979 0
M  V30 2548 C 238.964 -0.913014 -4.40436 0
M  V30 2549 C 240.283 1.16794 -4.2432 0
M  V30 2550 H 237.402 0.0541924 -0.735005 0
M  V30 2551 H 240.044 -0.554955 -1.81715 0
M  V30 2552 H 238.194 0.993491 -3.75582 0
M  V30 2553 H 239.866 -1.54882 -4.34522 0
M  V30 2554 H 238.109 -1.52168 -4.06236 0
M  V30 2555 H 238.78 -0.701361 -5.47526 0
M  V30 2556 H 241.256 0.657161 -4.10878 0
M  V30 2557 H 240.132 1.3026 -5.3322 0
M  V30 2558 H 240.393 2.19132 -3.83971 0
M  V30 2559 N 239.452 1.56882 -0.150215 0
M  V30 2560 C 240.68 2.00593 0.506948 0
M  V30 2561 C 241.095 1.03033 1.58208 0
M  V30 2562 O 240.452 0.0278396 1.82479 0
M  V30 2563 C 240.503 3.44209 1.10465 0
M  V30 2564 O 240.224 4.3804 0.0724636 0
M  V30 2565 C 241.725 4.03214 1.84211 0
M  V30 2566 H 238.945 0.65795 0.13169 0
M  V30 2567 H 241.489 2.03018 -0.245743 0
M  V30 2568 H 239.644 3.42625 1.80795 0
M  V30 2569 H 240.058 5.22007 0.510793 0
M  V30 2570 H 241.532 5.0569 2.21318 0
M  V30 2571 H 242.009 3.44107 2.72923 0
M  V30 2572 H 242.615 4.08437 1.18572 0
M  V30 2573 N 240.93 -0.123565 1.57115 0
M  V30 2574 C 241.86 -1.15309 2.03042 0
M  V30 2575 C 242.841 -1.43454 0.914061 0
M  V30 2576 O 244.026 -1.53973 1.18347 0
M  V30 2577 C 241.156 -2.48043 2.43089 0
M  V30 2578 C 240.11 -2.3437 3.58127 0
M  V30 2579 C 239.436 -3.72026 3.84059 0
M  V30 2580 C 240.736 -1.80804 4.90007 0
M  V30 2581 H 242.43 -0.771102 2.893 0
M  V30 2582 H 239.976 -0.369479 1.39179 0
M  V30 2583 H 241.929 -3.20311 2.73823 0
M  V30 2584 H 240.653 -2.88122 1.53796 0
M  V30 2585 H 239.312 -1.64551 3.27595 0
M  V30 2586 H 238.96 -4.09582 2.91979 0
M  V30 2587 H 238.66 -3.63732 4.6149 0
M  V30 2588 H 240.184 -4.45806 4.1724 0
M  V30 2589 H 241.598 -2.42886 5.19307 0
M  V30 2590 H 239.995 -1.83343 5.71407 0
M  V30 2591 H 241.065 -0.76528 4.78823 0
M  V30 2592 N 242.408 -1.52605 -0.393616 0
M  V30 2593 C 243.654 -1.67672 -1.14079 0
M  V30 2594 C 243.987 -0.413121 -1.89755 0
M  V30 2595 O 243.262 0.588952 -1.85369 0
M  V30 2596 C 243.545 -2.9088 -2.12276 0
M  V30 2597 C 243.398 -4.27329 -1.40394 0
M  V30 2598 C 244.717 -3.09628 -3.12759 0
M  V30 2599 H 241.836 -0.610168 -0.413356 0
M  V30 2600 H 244.478 -1.85193 -0.424696 0
M  V30 2601 H 242.628 -2.76073 -2.73342 0
M  V30 2602 H 244.3 -4.53894 -0.82327 0
M  V30 2603 H 242.543 -4.2802 -0.705801 0
M  V30 2604 H 243.214 -5.09615 -2.12123 0
M  V30 2605 H 245.69 -3.23436 -2.61779 0
M  V30 2606 H 244.566 -3.97322 -3.78717 0
M  V30 2607 H 244.827 -2.23637 -3.81365 0
M  V30 2608 N 243.887 0.651787 -1.4349 0
M  V30 2609 C 245.133 1.41376 -1.45398 0
M  V30 2610 C 245.466 1.94041 -0.0784823 0
M  V30 2611 O 244.741 1.72379 0.900878 0
M  V30 2612 C 245.024 2.59414 -2.49752 0
M  V30 2613 C 244.877 2.12232 -3.96582 0
M  V30 2614 C 246.196 3.61626 -2.50827 0
M  V30 2615 H 243.315 0.512719 -0.529422 0
M  V30 2616 H 245.957 0.738796 -1.75048 0
M  V30 2617 H 244.107 3.16997 -2.246 0
M  V30 2618 H 245.779 1.59639 -4.32797 0
M  V30 2619 H 244.022 1.43592 -4.09346 0
M  V30 2620 H 244.693 2.9712 -4.65214 0
M  V30 2621 H 247.169 3.13805 -2.7325 0
M  V30 2622 H 246.045 4.41766 -3.25783 0
M  V30 2623 H 246.306 4.14314 -1.5426 0
M  V30 2624 N 245.365 1.30045 0.890287 0
M  V30 2625 C 246.613 1.18327 1.63839 0
M  V30 2626 C 246.934 -0.263455 1.93212 0
M  V30 2627 O 246.204 -1.17856 1.56482 0
M  V30 2628 H 244.784 0.434933 0.607324 0
M  V30 2629 H 247.446 1.631 1.06698 0
M  V30 2630 H 246.542 1.74024 2.59079 0
M  V30 2631 N 246.843 -1.10192 1.12674 0
M  V30 2632 C 247.806 -2.14786 0.799979 0
M  V30 2633 C 248.806 -1.59711 -0.18685 0
M  V30 2634 O 249.996 -1.74156 0.0392558 0
M  V30 2635 C 247.128 -3.40374 0.189228 0
M  V30 2636 H 248.321 -2.45203 1.72671 0
M  V30 2637 H 245.874 -1.25597 0.930326 0
M  V30 2638 H 246.609 -3.15577 -0.747107 0
M  V30 2639 H 246.394 -3.81637 0.899766 0
M  V30 2640 H 247.884 -4.17594 -0.0228143 0
M  V30 2641 N 248.321 -0.919034 -1.28029 0
M  V30 2642 C 249.546 -0.570357 -1.99403 0
M  V30 2643 C 249.971 0.842486 -1.68178 0
M  V30 2644 O 249.329 1.56391 -0.917141 0
M  V30 2645 C 249.377 -0.792541 -3.51783 0
M  V30 2646 O 248.481 0.145988 -4.12142 0
M  V30 2647 H 247.822 -0.220555 -0.6263 0
M  V30 2648 H 250.352 -1.23592 -1.63053 0
M  V30 2649 H 250.362 -0.704708 -4.01868 0
M  V30 2650 H 249.037 -1.82247 -3.73844 0
M  V30 2651 H 247.614 0.00897528 -3.72899 0
M  V30 2652 N 249.799 1.42003 -0.683588 0
M  V30 2653 C 250.731 2.29183 0.0283068 0
M  V30 2654 C 251.744 1.4415 0.756611 0
M  V30 2655 O 252.933 1.67779 0.609306 0
M  V30 2656 C 250.033 3.21765 1.06398 0
M  V30 2657 C 249.206 4.35496 0.407723 0
M  V30 2658 C 248.265 5.08737 1.34437 0
M  V30 2659 O 247.291 5.62948 0.841318 0
M  V30 2660 N 248.493 5.15075 2.67728 0
M  V30 2661 H 251.258 2.9092 -0.720105 0
M  V30 2662 H 248.819 1.53025 -0.528682 0
M  V30 2663 H 250.811 3.6763 1.69204 0
M  V30 2664 H 249.381 2.61418 1.71404 0
M  V30 2665 H 248.601 3.92165 -0.400012 0
M  V30 2666 H 249.889 5.08776 -0.0490956 0
M  V30 2667 H 249.287 4.72457 3.11129 0
M  V30 2668 H 247.844 5.64556 3.2576 0
M  V30 2669 N 251.277 0.427512 1.51691 0
M  V30 2670 C 252.554 -0.201684 1.94557 0
M  V30 2671 C 252.934 -1.60981 1.36559 0
M  V30 2672 O 252.282 -2.21814 0.548702 0
M  V30 2673 C 252.492 -0.189394 3.48486 0
M  V30 2674 C 253.84 -0.39978 4.22714 0
M  V30 2675 O 254.864 -0.267945 3.55191 0
M  V30 2676 O 253.723 -0.661249 5.42485 0
M  V30 2677 H 250.817 -0.135261 0.815864 0
M  V30 2678 H 253.363 0.484782 1.62628 0
M  V30 2679 H 252.135 0.795431 3.8313 0
M  V30 2680 H 251.758 -0.919187 3.86829 0
M  V30 2681 N 252.755 -1.56801 0.158532 0
M  V30 2682 C 254.004 -1.95665 -0.489702 0
M  V30 2683 C 254.317 -1.04654 -1.65248 0
M  V30 2684 O 255.523 -1.33146 -2.3661 0
M  V30 2685 C 253.979 -3.47874 -0.922582 0
M  V30 2686 C 253.587 -4.47489 0.213893 0
M  V30 2687 C 255.331 -3.95583 -1.53996 0
M  V30 2688 C 253.238 -5.90921 -0.237903 0
M  V30 2689 H 252.168 -0.730516 -0.186716 0
M  V30 2690 H 254.819 -1.81861 0.244722 0
M  V30 2691 H 253.201 -3.57051 -1.71261 0
M  V30 2692 H 254.375 -4.50017 0.991036 0
M  V30 2693 H 252.69 -4.09764 0.740407 0
M  V30 2694 H 255.287 -5.0019 -1.8898 0
M  V30 2695 H 255.63 -3.37789 -2.43319 0
M  V30 2696 H 256.163 -3.8937 -0.814611 0
M  V30 2697 H 252.902 -6.52559 0.620236 0
M  V30 2698 H 252.422 -5.91729 -0.980676 0
M  V30 2699 H 254.101 -6.43352 -0.686067 0
M  V30 2700 N 254.233 0.115231 -1.57178 0
M  V30 2701 C 255.482 0.820945 -1.84237 0
M  V30 2702 C 255.795 1.80866 -0.744761 0
M  V30 2703 O 257.001 2.56083 -0.901871 0
M  V30 2704 C 255.457 1.51072 -3.26658 0
M  V30 2705 C 255.065 0.563795 -4.44438 0
M  V30 2706 C 256.809 2.20134 -3.62962 0
M  V30 2707 C 254.716 1.25701 -5.77887 0
M  V30 2708 H 253.646 0.310328 -0.687177 0
M  V30 2709 H 256.297 0.0737134 -1.83352 0
M  V30 2710 H 254.679 2.30471 -3.22024 0
M  V30 2711 H 255.853 -0.197247 -4.60378 0
M  V30 2712 H 254.168 -0.0200638 -4.16395 0
M  V30 2713 H 256.765 2.72696 -4.59936 0
M  V30 2714 H 257.108 2.98107 -2.90582 0
M  V30 2715 H 257.641 1.47619 -3.69396 0
M  V30 2716 H 254.38 0.518493 -6.53446 0
M  V30 2717 H 253.9 1.98997 -5.65827 0
M  V30 2718 H 255.579 1.78915 -6.2177 0
M  V30 2719 N 255.711 1.52812 0.385517 0
M  V30 2720 C 257.122 1.5993 0.963293 0
M  V30 2721 C 257.473 0.454302 1.90868 0
M  V30 2722 O 256.598 -0.422132 2.12243 0
M  V30 2723 C 257.193 2.89871 1.75387 0
M  V30 2724 C 255.752 2.99389 2.28129 0
M  V30 2725 C 254.899 2.55071 1.08783 0
M  V30 2726 H 257.85 1.5784 0.164948 0
M  V30 2727 H 257.871 2.76553 2.61341 0
M  V30 2728 H 257.383 3.73186 1.06554 0
M  V30 2729 H 255.484 2.20619 3.00263 0
M  V30 2730 H 255.597 4.04096 2.57377 0
M  V30 2731 H 253.961 2.09473 1.4489 0
M  V30 2732 H 254.744 3.40785 0.414807 0
M  V30 2733 N 257.189 -0.644168 1.43834 0
M  V30 2734 C 258.121 -1.76955 1.45669 0
M  V30 2735 C 259.134 -1.58956 0.351666 0
M  V30 2736 O 260.323 -1.6751 0.616644 0
M  V30 2737 C 257.423 -3.14507 1.26248 0
M  V30 2738 C 256.596 -3.59083 2.49757 0
M  V30 2739 C 255.655 -4.75467 2.25427 0
M  V30 2740 O 254.681 -4.84444 2.98836 0
M  V30 2741 N 255.883 -5.66289 1.27661 0
M  V30 2742 H 258.648 -1.75856 2.42682 0
M  V30 2743 H 256.209 -0.828312 1.39106 0
M  V30 2744 H 258.201 -3.90067 1.0784 0
M  V30 2745 H 256.771 -3.10325 0.376478 0
M  V30 2746 H 255.991 -2.7387 2.8353 0
M  V30 2747 H 257.279 -3.85613 3.31934 0
M  V30 2748 H 256.677 -5.61718 0.670064 0
M  V30 2749 H 255.234 -6.41533 1.15234 0
M  V30 2750 N 258.668 -1.30515 -0.883378 0
M  V30 2751 C 259.598 -1.19607 -2.00541 0
M  V30 2752 C 260.579 -0.086346 -1.69881 0
M  V30 2753 O 261.764 -0.268654 -1.92333 0
M  V30 2754 C 258.894 -0.888758 -3.35736 0
M  V30 2755 C 257.848 -1.95659 -3.8066 0
M  V30 2756 C 257.174 -1.50224 -5.13164 0
M  V30 2757 C 258.474 -3.36788 -3.99213 0
M  V30 2758 H 260.168 -2.13476 -2.09925 0
M  V30 2759 H 257.714 -1.02775 -1.00863 0
M  V30 2760 H 259.667 -0.799094 -4.13754 0
M  V30 2761 H 258.391 0.0856125 -3.26488 0
M  V30 2762 H 257.05 -2.03591 -3.04871 0
M  V30 2763 H 256.698 -0.516092 -5.00345 0
M  V30 2764 H 256.398 -2.2165 -5.44192 0
M  V30 2765 H 257.922 -1.42639 -5.93706 0
M  V30 2766 H 259.336 -3.31605 -4.67665 0
M  V30 2767 H 257.733 -4.06314 -4.41621 0
M  V30 2768 H 258.803 -3.78561 -3.03017 0
M  V30 2769 N 260.146 1.09593 -1.13257 0
M  V30 2770 C 261.093 2.1618 -0.808381 0
M  V30 2771 C 262.063 1.64517 0.228754 0
M  V30 2772 O 263.248 1.9053 0.101381 0
M  V30 2773 C 260.388 3.43973 -0.278675 0
M  V30 2774 C 259.501 4.09545 -1.37466 0
M  V30 2775 C 258.636 5.25088 -0.803479 0
M  V30 2776 C 257.675 5.82579 -1.87799 0
M  V30 2777 N 256.812 6.89486 -1.32488 0
M  V30 2778 H 261.652 2.43254 -1.72138 0
M  V30 2779 H 259.189 1.19392 -0.859294 0
M  V30 2780 H 261.147 4.17174 0.0465583 0
M  V30 2781 H 259.777 3.17223 0.597459 0
M  V30 2782 H 258.829 3.34226 -1.81652 0
M  V30 2783 H 260.141 4.48307 -2.18684 0
M  V30 2784 H 259.295 6.05178 -0.429427 0
M  V30 2785 H 258.034 4.87684 0.0397956 0
M  V30 2786 H 257.039 5.01152 -2.26113 0
M  V30 2787 H 258.264 6.22045 -2.72463 0
M  V30 2788 H 256.21 6.54064 -0.503575 0
M  V30 2789 H 256.127 7.27007 -2.07355 0
M  V30 2790 H 257.395 7.73336 -0.978336 0
M  V30 2791 N 261.624 0.925811 1.2754 0
M  V30 2792 C 262.571 0.422045 2.26908 0
M  V30 2793 C 263.541 -0.510029 1.58076 0
M  V30 2794 O 264.726 -0.429599 1.85901 0
M  V30 2795 C 261.866 -0.320837 3.43605 0
M  V30 2796 C 260.979 0.64513 4.27156 0
M  V30 2797 C 260.114 -0.117405 5.3107 0
M  V30 2798 C 259.153 0.841391 6.0629 0
M  V30 2799 N 258.29 0.111604 7.02011 0
M  V30 2800 H 263.13 1.27441 2.69375 0
M  V30 2801 H 260.667 0.639697 1.32462 0
M  V30 2802 H 262.625 -0.76785 4.10073 0
M  V30 2803 H 261.255 -1.13745 3.02096 0
M  V30 2804 H 260.307 1.21067 3.6062 0
M  V30 2805 H 261.619 1.37797 4.79389 0
M  V30 2806 H 260.773 -0.624422 6.03478 0
M  V30 2807 H 259.512 -0.883219 4.79636 0
M  V30 2808 H 258.517 1.35967 5.32722 0
M  V30 2809 H 259.742 1.60696 6.59813 0
M  V30 2810 H 257.688 -0.635999 6.5291 0
M  V30 2811 H 257.605 0.784044 7.51923 0
M  V30 2812 H 258.873 -0.374823 7.78598 0
M  V30 2813 N 263.102 -1.41638 0.69111 0
M  V30 2814 C 264.049 -2.30789 0.0229705 0
M  V30 2815 C 265.019 -1.46863 -0.775911 0
M  V30 2816 O 266.204 -1.75661 -0.74485 0
M  V30 2817 C 263.344 -3.32868 -0.910666 0
M  V30 2818 C 262.457 -4.31875 -0.103874 0
M  V30 2819 C 261.592 -5.21024 -1.03475 0
M  V30 2820 C 260.631 -6.11702 -0.220598 0
M  V30 2821 N 259.768 -6.93349 -1.10504 0
M  V30 2822 H 264.608 -2.87366 0.788978 0
M  V30 2823 H 262.145 -1.41535 0.400794 0
M  V30 2824 H 264.103 -3.90596 -1.46597 0
M  V30 2825 H 262.733 -2.77851 -1.64312 0
M  V30 2826 H 261.785 -3.76131 0.568285 0
M  V30 2827 H 263.097 -4.96003 0.527504 0
M  V30 2828 H 262.251 -5.83565 -1.65943 0
M  V30 2829 H 260.99 -4.57112 -1.69999 0
M  V30 2830 H 259.995 -5.48215 0.417187 0
M  V30 2831 H 261.22 -6.77668 0.440784 0
M  V30 2832 H 259.166 -6.3205 -1.75638 0
M  V30 2833 H 259.083 -7.54146 -0.529125 0
M  V30 2834 H 260.351 -7.60362 -1.71667 0
M  V30 2835 N 264.58 -0.43555 -1.51462 0
M  V30 2836 C 265.81 0.130053 -2.0619 0
M  V30 2837 C 266.218 1.37164 -1.30317 0
M  V30 2838 O 265.561 1.80225 -0.355598 0
M  V30 2839 C 265.623 0.519418 -3.55728 0
M  V30 2840 C 265.287 -0.615119 -4.52841 0
M  V30 2841 C 266.284 -1.48671 -4.9819 0
M  V30 2842 C 263.969 -0.795341 -4.95963 0
M  V30 2843 C 265.963 -2.52324 -5.8533 0
M  V30 2844 C 263.65 -1.83514 -5.82894 0
M  V30 2845 C 264.648 -2.69748 -6.27475 0
M  V30 2846 O 264.336 -3.71944 -7.1268 0
M  V30 2847 H 264.068 0.0121612 -0.675891 0
M  V30 2848 H 266.622 -0.6129 -1.96043 0
M  V30 2849 H 264.852 1.31505 -3.63653 0
M  V30 2850 H 266.541 1.01597 -3.92979 0
M  V30 2851 H 267.307 -1.359 -4.65571 0
M  V30 2852 H 263.186 -0.133713 -4.60806 0
M  V30 2853 H 266.73 -3.19665 -6.20048 0
M  V30 2854 H 262.627 -1.96306 -6.14926 0
M  V30 2855 H 263.395 -3.68503 -7.30854 0
M  V30 2856 N 266.058 1.56714 -0.166846 0
M  V30 2857 C 267.335 1.88412 0.525373 0
M  V30 2858 C 267.715 1.07602 1.81618 0
M  V30 2859 O 267.063 0.168621 2.27877 0
M  V30 2860 C 267.273 3.40363 0.771613 0
M  V30 2861 C 268.621 4.10007 1.1036 0
M  V30 2862 O 269.645 3.45655 0.860304 0
M  V30 2863 O 268.504 5.2369 1.56239 0
M  V30 2864 H 265.598 0.781587 0.270278 0
M  V30 2865 H 268.144 1.68458 -0.204946 0
M  V30 2866 H 266.916 3.91046 -0.141093 0
M  V30 2867 H 266.539 3.65914 1.55541 0
M  V30 2868 N 267.536 -0.106894 1.57237 0
M  V30 2869 C 268.782 -0.81373 1.85759 0
M  V30 2870 C 269.115 -1.78952 0.754315 0
M  V30 2871 O 268.39 -1.93029 -0.23879 0
M  V30 2872 C 268.673 -1.55293 3.24894 0
M  V30 2873 C 268.526 -0.595929 4.45835 0
M  V30 2874 C 269.845 -2.5063 3.61763 0
M  V30 2875 H 266.964 -0.294369 0.67566 0
M  V30 2876 H 269.606 -0.0776472 1.89841 0
M  V30 2877 H 267.756 -2.1804 3.21544 0
M  V30 2878 H 269.428 0.0236262 4.61294 0
M  V30 2879 H 267.671 0.0916191 4.33703 0
M  V30 2880 H 268.342 -1.15004 5.39887 0
M  V30 2881 H 270.818 -1.97982 3.65981 0
M  V30 2882 H 269.694 -2.99376 4.60071 0
M  V30 2883 H 269.955 -3.3385 2.89821 0
M  V30 2884 N 269.014 -1.53014 -0.377408 0
M  V30 2885 C 270.291 -1.59215 -1.13622 0
M  V30 2886 C 270.671 -0.392407 -2.07421 0
M  V30 2887 O 270.019 0.618342 -2.19975 0
M  V30 2888 C 270.229 -2.93669 -1.88573 0
M  V30 2889 C 271.577 -3.47822 -2.43526 0
M  V30 2890 O 272.601 -2.9562 -1.98715 0
M  V30 2891 O 271.46 -4.39055 -3.25412 0
M  V30 2892 H 268.554 -0.642625 -0.52054 0
M  V30 2893 H 271.1 -1.65353 -0.381625 0
M  V30 2894 H 269.872 -3.7243 -1.20048 0
M  V30 2895 H 269.495 -2.90968 -2.70968 0
M  V30 2896 N 270.492 0.636531 -1.44174 0
M  V30 2897 C 271.72 1.42353 -1.50144 0
M  V30 2898 C 272.135 1.88389 -0.124575 0
M  V30 2899 O 271.492 1.6051 0.868489 0
M  V30 2900 C 271.543 2.64744 -2.46156 0
M  V30 2901 O 271.264 2.20629 -3.7849 0
M  V30 2902 C 272.765 3.57929 -2.61537 0
M  V30 2903 H 269.985 0.436752 -0.5094 0
M  V30 2904 H 272.529 0.778933 -1.89084 0
M  V30 2905 H 270.684 3.25307 -2.10366 0
M  V30 2906 H 271.098 2.99938 -4.30276 0
M  V30 2907 H 272.572 4.40428 -3.32757 0
M  V30 2908 H 273.049 4.06382 -1.66585 0
M  V30 2909 H 273.655 3.03238 -2.98206 0
M  V30 2910 N 271.97 1.30982 0.876444 0
M  V30 2911 C 272.9 1.20668 1.99903 0
M  V30 2912 C 273.881 0.095354 1.69833 0
M  V30 2913 O 275.066 0.27885 1.92188 0
M  V30 2914 C 272.196 0.90655 3.3526 0
M  V30 2915 C 271.15 1.97675 3.79617 0
M  V30 2916 C 270.476 1.52943 5.1236 0
M  V30 2917 C 271.776 3.389 3.97422 0
M  V30 2918 H 273.47 2.14586 2.0879 0
M  V30 2919 H 271.016 1.03308 1.00317 0
M  V30 2920 H 272.969 0.821025 4.13324 0
M  V30 2921 H 271.693 -0.0682969 3.26529 0
M  V30 2922 H 270.352 2.05205 3.03787 0
M  V30 2923 H 270 0.54262 5.00065 0
M  V30 2924 H 269.7 2.24532 5.43009 0
M  V30 2925 H 271.224 1.45786 5.92941 0
M  V30 2926 H 272.638 3.34081 4.659 0
M  V30 2927 H 271.035 4.0865 4.3946 0
M  V30 2928 H 272.105 3.80163 3.01006 0
M  V30 2929 N 273.449 -1.08991 1.13837 0
M  V30 2930 C 274.726 -1.77863 0.813876 0
M  V30 2931 C 275.106 -1.99375 -0.693746 0
M  V30 2932 O 274.454 -1.59875 -1.63255 0
M  V30 2933 C 274.664 -3.0986 1.60586 0
M  V30 2934 C 276.012 -3.84493 1.8014 0
M  V30 2935 O 277.036 -3.19624 1.57222 0
M  V30 2936 O 275.895 -5.00957 2.18413 0
M  V30 2937 H 272.989 -0.771589 0.297624 0
M  V30 2938 H 275.535 -1.15507 1.24323 0
M  V30 2939 H 274.307 -2.89715 2.63022 0
M  V30 2940 H 273.93 -3.79942 1.17173 0
M  V30 2941 N 274.927 -0.932562 -1.27047 0
M  V30 2942 C 275.86 -0.379774 -2.25018 0
M  V30 2943 C 276.838 0.526587 -1.53837 0
M  V30 2944 O 278.022 0.465992 -1.82649 0
M  V30 2945 C 275.149 0.455187 -3.35627 0
M  V30 2946 C 274.195 -0.388428 -4.24728 0
M  V30 2947 S 275.028 -1.80701 -5.04091 0
M  V30 2948 C 276.184 -0.979865 -6.18182 0
M  V30 2949 H 276.417 -1.2101 -2.71558 0
M  V30 2950 H 273.95 -0.735078 -1.35779 0
M  V30 2951 H 275.908 0.931052 -3.99802 0
M  V30 2952 H 274.569 1.26009 -2.87716 0
M  V30 2953 H 273.762 0.25089 -5.03375 0
M  V30 2954 H 273.364 -0.798649 -3.65373 0
M  V30 2955 H 275.656 -0.218115 -6.77149 0
M  V30 2956 H 276.599 -1.73951 -6.86401 0
M  V30 2957 H 277.007 -0.51973 -5.62102 0
M  V30 2958 N 276.405 1.4127 -0.698611 0
M  V30 2959 C 277.651 2.01478 -0.231207 0
M  V30 2960 C 277.984 1.55215 1.16713 0
M  V30 2961 O 277.259 0.764672 1.78838 0
M  V30 2962 C 277.542 3.58912 -0.292281 0
M  V30 2963 C 277.395 4.15293 -1.72778 0
M  V30 2964 C 278.714 4.38736 0.346194 0
M  V30 2965 H 275.833 0.732025 -0.0854878 0
M  V30 2966 H 278.475 1.67977 -0.887906 0
M  V30 2967 H 276.625 3.87582 0.26686 0
M  V30 2968 H 278.297 3.97486 -2.341 0
M  V30 2969 H 276.54 3.7022 -2.26096 0
M  V30 2970 H 277.211 5.24452 -1.72202 0
M  V30 2971 H 279.687 4.15897 -0.130035 0
M  V30 2972 H 278.563 5.48221 0.272932 0
M  V30 2973 H 278.824 4.18425 1.42734 0
M  V30 2974 N 277.883 0.443576 1.51229 0
M  V30 2975 C 279.13 -0.120796 2.02139 0
M  V30 2976 C 279.458 -1.42166 1.32736 0
M  V30 2977 O 278.713 -1.90849 0.43301 0
M  V30 2978 C 279.012 -0.380579 3.55368 0
M  V30 2979 C 278.678 0.83523 4.43097 0
M  V30 2980 C 277.34 1.16864 4.66794 0
M  V30 2981 C 279.692 1.64601 4.94526 0
M  V30 2982 C 277.02 2.31339 5.39165 0
M  V30 2983 C 279.372 2.78181 5.68153 0
M  V30 2984 C 278.036 3.11969 5.90112 0
M  V30 2985 H 277.306 -0.0442023 0.73968 0
M  V30 2986 H 279.953 0.592046 1.82118 0
M  V30 2987 H 278.258 -1.17538 3.73754 0
M  V30 2988 H 279.955 -0.830777 3.923 0
M  V30 2989 H 276.545 0.565437 4.24854 0
M  V30 2990 H 280.729 1.40163 4.76097 0
M  V30 2991 H 275.985 2.57823 5.5438 0
M  V30 2992 H 280.159 3.41371 6.06992 0
M  V30 2993 H 277.786 4.00784 6.45969 0
M  V30 2994 N 279.361 -1.56624 0.175154 0
M  V30 2995 C 280.291 -2.21155 -0.749195 0
M  V30 2996 C 281.272 -1.16836 -1.23626 0
M  V30 2997 O 282.457 -1.45277 -1.28873 0
M  V30 2998 C 279.587 -2.8553 -1.97711 0
M  V30 2999 C 278.541 -3.95921 -1.62575 0
M  V30 3000 C 277.867 -4.47365 -2.92864 0
M  V30 3001 C 279.167 -5.15323 -0.850838 0
M  V30 3002 H 280.861 -2.98653 -0.211295 0
M  V30 3003 H 278.407 -1.43651 -0.100188 0
M  V30 3004 H 280.36 -3.2935 -2.62881 0
M  V30 3005 H 279.084 -2.05406 -2.53921 0
M  V30 3006 H 277.743 -3.52762 -0.997719 0
M  V30 3007 H 277.391 -3.64027 -3.47122 0
M  V30 3008 H 277.091 -5.21839 -2.70106 0
M  V30 3009 H 278.615 -4.93873 -3.59056 0
M  V30 3010 H 280.029 -5.55812 -1.40521 0
M  V30 3011 H 278.426 -5.95739 -0.722154 0
M  V30 3012 H 279.496 -4.84661 0.152082 0
M  V30 3013 N 280.839 0.0985539 -1.57292 0
M  V30 3014 C 282.116 0.834155 -1.76921 0
M  V30 3015 C 282.496 1.97101 -0.755928 0
M  V30 3016 O 281.844 2.27474 0.216245 0
M  V30 3017 C 282.054 1.33194 -3.22584 0
M  V30 3018 C 283.402 1.77611 -3.85668 0
M  V30 3019 O 284.426 1.42825 -3.26312 0
M  V30 3020 O 283.285 2.4192 -4.90038 0
M  V30 3021 H 280.379 0.397628 -0.725135 0
M  V30 3022 H 282.925 0.0807044 -1.69508 0
M  V30 3023 H 281.697 0.517248 -3.87866 0
M  V30 3024 H 281.32 2.1475 -3.34616 0
M  V30 3025 N 282.317 1.53212 0.369288 0
M  V30 3026 C 283.267 1.75769 1.45222 0
M  V30 3027 C 284.251 0.612136 1.48801 0
M  V30 3028 O 285.443 0.870674 1.54105 0
M  V30 3029 C 282.572 1.94769 2.82701 0
M  V30 3030 C 281.658 3.15315 2.83615 0
M  V30 3031 N 282.049 4.37295 2.54178 0
M  V30 3032 C 280.347 3.15962 3.14776 0
M  V30 3033 C 281.048 5.19015 2.62675 0
M  V30 3034 N 280.024 4.55142 2.97232 0
M  V30 3035 H 283.826 2.67691 1.2132 0
M  V30 3036 H 281.34 1.51787 0.577438 0
M  V30 3037 H 283.337 2.09056 3.60696 0
M  V30 3038 H 281.997 1.04073 3.07569 0
M  V30 3039 H 283.008 4.65091 2.27839 0
M  V30 3040 H 279.685 2.35144 3.44983 0
M  V30 3041 H 281.075 6.26305 2.43294 0
M  V30 3042 N 283.795 -0.628877 1.44509 0
M  V30 3043 C 285.041 -1.38863 1.48623 0
M  V30 3044 C 285.396 -1.92038 0.117933 0
M  V30 3045 O 284.689 -1.70853 -0.86716 0
M  V30 3046 C 284.883 -2.56995 2.48371 0
M  V30 3047 C 284.712 -2.15385 3.94765 0
M  V30 3048 C 283.482 -2.02558 4.62924 0
M  V30 3049 C 285.68 -1.74158 4.83915 0
M  V30 3050 N 283.662 -1.54534 5.94132 0
M  V30 3051 C 285.033 -1.37396 6.04584 0
M  V30 3052 C 287.088 -1.61559 4.7096 0
M  V30 3053 C 285.791 -0.892948 7.13736 0
M  V30 3054 C 287.817 -1.14862 5.80139 0
M  V30 3055 C 287.179 -0.790516 6.9995 0
M  V30 3056 H 283.278 -0.502858 0.59888 0
M  V30 3057 H 285.862 -0.72121 1.8085 0
M  V30 3058 H 284.033 -3.21362 2.1813 0
M  V30 3059 H 285.765 -3.23801 2.42766 0
M  V30 3060 H 282.52 -2.23082 4.1777 0
M  V30 3061 H 282.944 -1.32815 6.63844 0
M  V30 3062 H 287.586 -1.87876 3.78764 0
M  V30 3063 H 285.304 -0.617291 8.05739 0
M  V30 3064 H 288.89 -1.05569 5.72142 0
M  V30 3065 H 287.77 -0.434713 7.82994 0
M  V30 3066 N 285.273 -1.31445 -0.869486 0
M  V30 3067 C 286.22 -1.19135 -1.97675 0
M  V30 3068 C 287.19 -0.0770266 -1.65921 0
M  V30 3069 O 288.375 -0.249972 -1.89155 0
M  V30 3070 C 285.515 -0.905149 -3.33018 0
M  V30 3071 C 284.628 -2.10285 -3.77365 0
M  V30 3072 C 283.763 -1.75339 -5.01427 0
M  V30 3073 C 282.802 -2.91515 -5.38224 0
M  V30 3074 N 281.939 -2.56762 -6.53466 0
M  V30 3075 H 286.779 -2.13853 -2.07535 0
M  V30 3076 H 284.316 -1.06379 -1.01597 0
M  V30 3077 H 286.274 -0.719765 -4.10944 0
M  V30 3078 H 284.904 0.00519624 -3.228 0
M  V30 3079 H 283.956 -2.39899 -2.95216 0
M  V30 3080 H 285.268 -2.97237 -4.00564 0
M  V30 3081 H 284.422 -1.53266 -5.87022 0
M  V30 3082 H 283.161 -0.855801 -4.80133 0
M  V30 3083 H 282.166 -3.14237 -4.51149 0
M  V30 3084 H 283.391 -3.81985 -5.61484 0
M  V30 3085 H 281.337 -1.69526 -6.33717 0
M  V30 3086 H 281.254 -3.37243 -6.76612 0
M  V30 3087 H 282.522 -2.38083 -7.42251 0
M  V30 3088 N 286.751 1.08385 -1.14413 0
M  V30 3089 C 288.028 1.77429 -0.823297 0
M  V30 3090 C 288.408 1.9974 0.683163 0
M  V30 3091 O 287.756 1.60739 1.62405 0
M  V30 3092 C 287.966 3.09004 -1.62227 0
M  V30 3093 C 289.314 3.83532 -1.82177 0
M  V30 3094 O 290.338 3.18786 -1.58915 0
M  V30 3095 O 289.197 4.99792 -2.21067 0
M  V30 3096 H 286.291 0.769999 -0.301712 0
M  V30 3097 H 288.837 1.14846 -1.24934 0
M  V30 3098 H 287.609 2.88316 -2.64555 0
M  V30 3099 H 287.232 3.79316 -1.19187 0
M  V30 3100 N 288.23 0.939286 1.26551 0
M  V30 3101 C 289.646 0.641304 1.46149 0
M  V30 3102 C 289.846 -0.805964 1.84679 0
M  V30 3103 O 288.902 -1.58278 1.96734 0
M  V30 3104 C 290.215 1.6011 2.54529 0
M  V30 3105 C 291.763 1.6106 2.68382 0
M  V30 3106 C 292.238 2.55765 3.79932 0
M  V30 3107 N 293.729 2.5404 3.87322 0
M  V30 3108 C 294.464 3.24004 4.73085 0
M  V30 3109 N 293.96 4.03388 5.63249 0
M  V30 3110 N 295.753 3.12965 4.66914 0
M  V30 3111 H 287.904 1.87478 0.998285 0
M  V30 3112 H 290.167 0.805559 0.499779 0
M  V30 3113 H 289.873 2.63412 2.33039 0
M  V30 3114 H 289.747 1.35171 3.52149 0
M  V30 3115 H 292.134 0.584835 2.89247 0
M  V30 3116 H 292.215 1.90053 1.71212 0
M  V30 3117 H 291.859 3.58458 3.5982 0
M  V30 3118 H 291.789 2.24063 4.76554 0
M  V30 3119 H 294.28 1.96396 3.22858 0
M  V30 3120 H 294.593 4.5373 6.25579 0
M  V30 3121 H 292.938 4.07489 5.63008 0
M  V30 3122 H 296.129 2.50432 3.95476 0
M  V30 3123 H 296.302 3.67759 5.33533 0
M  V30 3124 N 289.708 -1.40897 0.706093 0
M  V30 3125 C 290.938 -2.05075 0.250523 0
M  V30 3126 C 291.346 -1.53275 -1.10921 0
M  V30 3127 O 290.689 -0.680281 -1.7064 0
M  V30 3128 C 290.751 -3.59219 0.142178 0
M  V30 3129 C 290.415 -4.33864 1.43566 0
M  V30 3130 C 291.412 -4.62448 2.37566 0
M  V30 3131 C 289.097 -4.72946 1.69195 0
M  V30 3132 C 291.091 -5.29088 3.5545 0
M  V30 3133 C 288.778 -5.3932 2.87362 0
M  V30 3134 C 289.776 -5.6732 3.80312 0
M  V30 3135 O 289.464 -6.32325 4.96408 0
M  V30 3136 H 289.196 -0.666645 0.112074 0
M  V30 3137 H 291.75 -1.81467 0.962239 0
M  V30 3138 H 289.98 -3.81609 -0.6254 0
M  V30 3139 H 291.669 -4.0495 -0.277584 0
M  V30 3140 H 292.435 -4.32727 2.19027 0
M  V30 3141 H 288.314 -4.50527 0.977042 0
M  V30 3142 H 291.858 -5.50859 4.28018 0
M  V30 3143 H 287.755 -5.68461 3.05814 0
M  V30 3144 H 288.523 -6.50821 4.9636 0
M  V30 3145 N 291.186 -0.45159 -1.50991 0
M  V30 3146 C 292.116 0.342898 -2.30969 0
M  V30 3147 C 293.097 1.00815 -1.37005 0
M  V30 3148 O 294.282 1.00907 -1.65926 0
M  V30 3149 C 291.412 1.43637 -3.16205 0
M  V30 3150 C 290.366 0.893818 -4.18563 0
M  V30 3151 C 289.692 2.08411 -4.92411 0
M  V30 3152 C 290.992 -0.0815568 -5.22236 0
M  V30 3153 H 292.686 -0.324556 -2.97636 0
M  V30 3154 H 290.232 -0.157531 -1.43136 0
M  V30 3155 H 292.185 1.9995 -3.70942 0
M  V30 3156 H 290.909 2.13232 -2.47386 0
M  V30 3157 H 289.568 0.352798 -3.64898 0
M  V30 3158 H 289.216 2.76658 -4.20082 0
M  V30 3159 H 288.916 1.72741 -5.61636 0
M  V30 3160 H 290.44 2.65251 -5.49976 0
M  V30 3161 H 291.854 0.391742 -5.7196 0
M  V30 3162 H 290.251 -0.351551 -5.99069 0
M  V30 3163 H 291.321 -1.01374 -4.74185 0
M  V30 3164 N 292.664 1.56529 -0.183458 0
M  V30 3165 C 294.075 1.83739 0.331177 0
M  V30 3166 C 294.426 1.10373 1.62211 0
M  V30 3167 O 293.551 0.36071 2.13373 0
M  V30 3168 C 294.146 3.33306 0.607646 0
M  V30 3169 C 292.705 3.60969 1.06668 0
M  V30 3170 C 291.852 2.77086 0.109029 0
M  V30 3171 H 294.803 1.53379 -0.407484 0
M  V30 3172 H 294.824 3.51444 1.45832 0
M  V30 3173 H 294.336 3.86677 -0.332086 0
M  V30 3174 H 292.437 3.13021 2.0211 0
M  V30 3175 H 292.55 4.69231 0.967447 0
M  V30 3176 H 290.914 2.47319 0.608714 0
M  V30 3177 H 291.697 3.33241 -0.82494 0
M  V30 3178 N 294.142 -0.090211 1.57342 0
M  V30 3179 C 295.419 -0.824761 1.77361 0
M  V30 3180 C 295.799 -1.96698 0.76637 0
M  V30 3181 O 295.147 -2.27586 -0.204179 0
M  V30 3182 C 295.357 -1.31481 3.23286 0
M  V30 3183 C 296.705 -1.75563 3.86604 0
M  V30 3184 O 297.729 -1.41093 3.27065 0
M  V30 3185 O 296.588 -2.39317 4.91314 0
M  V30 3186 H 293.682 -0.393776 0.727234 0
M  V30 3187 H 296.228 -0.0717138 1.69548 0
M  V30 3188 H 295 -0.496671 3.88135 0
M  V30 3189 H 294.623 -2.12973 3.35751 0
M  V30 3190 N 295.62 -1.53406 -0.361157 0
M  V30 3191 C 296.848 -1.73717 -1.12383 0
M  V30 3192 C 297.263 -0.468161 -1.82904 0
M  V30 3193 O 296.62 0.559198 -1.73722 0
M  V30 3194 C 296.671 -2.90558 -2.15078 0
M  V30 3195 O 296.392 -4.12549 -1.47428 0
M  V30 3196 C 297.893 -3.22777 -3.03858 0
M  V30 3197 H 295.113 -0.580896 -0.335858 0
M  V30 3198 H 297.657 -2.00167 -0.418728 0
M  V30 3199 H 295.812 -2.66489 -2.8118 0
M  V30 3200 H 296.226 -4.78009 -2.15887 0
M  V30 3201 H 297.7 -4.07927 -3.71887 0
M  V30 3202 H 298.177 -2.38329 -3.68912 0
M  V30 3203 H 298.783 -3.48787 -2.43367 0
M  V30 3204 N 297.098 0.621204 -1.44841 0
M  V30 3205 C 298.028 1.74366 -1.55303 0
M  V30 3206 C 299.009 1.65199 -0.405385 0
M  V30 3207 O 300.194 1.83807 -0.626787 0
M  V30 3208 C 297.324 3.12931 -1.50637 0
M  V30 3209 C 296.278 3.36896 -2.63979 0
M  V30 3210 C 295.604 4.75594 -2.44366 0
M  V30 3211 C 296.904 3.28483 -4.06074 0
M  V30 3212 H 298.598 1.65867 -2.49256 0
M  V30 3213 H 296.144 0.796558 -1.19962 0
M  V30 3214 H 298.097 3.9124 -1.56555 0
M  V30 3215 H 296.821 3.22237 -0.532057 0
M  V30 3216 H 295.48 2.60972 -2.57467 0
M  V30 3217 H 295.128 4.81616 -1.45105 0
M  V30 3218 H 294.828 4.92586 -3.20364 0
M  V30 3219 H 296.352 5.5612 -2.52117 0
M  V30 3220 H 297.766 3.96684 -4.13902 0
M  V30 3221 H 296.163 3.57008 -4.82354 0
M  V30 3222 H 297.233 2.26133 -4.28943 0
M  V30 3223 N 298.576 1.31904 0.862503 0
M  V30 3224 C 299.506 1.22782 1.98612 0
M  V30 3225 C 300.487 0.113362 1.69722 0
M  V30 3226 O 301.672 0.299218 1.91881 0
M  V30 3227 C 298.802 0.942058 3.34279 0
M  V30 3228 C 297.756 2.0169 3.77499 0
M  V30 3229 C 297.082 1.58369 5.10709 0
M  V30 3230 C 298.382 3.43096 3.93805 0
M  V30 3231 H 300.076 2.16788 2.06502 0
M  V30 3232 H 297.622 1.04366 0.992154 0
M  V30 3233 H 299.575 0.864818 4.1243 0
M  V30 3234 H 298.299 -0.0336603 3.26583 0
M  V30 3235 H 296.958 2.08416 3.01593 0
M  V30 3236 H 296.606 0.595628 4.99461 0
M  V30 3237 H 296.306 2.30279 5.40597 0
M  V30 3238 H 297.83 1.52067 5.91361 0
M  V30 3239 H 299.244 3.39003 4.62331 0
M  V30 3240 H 297.641 4.13288 4.35101 0
M  V30 3241 H 298.711 3.83334 2.96957 0
M  V30 3242 N 300.054 -1.07777 1.14986 0
M  V30 3243 C 300.984 -2.16865 0.865557 0
M  V30 3244 C 301.965 -1.69123 -0.182083 0
M  V30 3245 O 303.15 -1.94164 -0.0373815 0
M  V30 3246 C 300.28 -3.45539 0.349313 0
M  V30 3247 C 299.234 -4.06708 1.33313 0
M  V30 3248 C 298.56 -5.30411 0.675918 0
M  V30 3249 C 299.86 -4.47241 2.69764 0
M  V30 3250 H 301.554 -2.40905 1.77778 0
M  V30 3251 H 299.1 -1.15781 0.856203 0
M  V30 3252 H 301.053 -4.21174 0.137983 0
M  V30 3253 H 299.777 -3.21072 -0.598362 0
M  V30 3254 H 298.436 -3.33112 1.53075 0
M  V30 3255 H 298.084 -5.02232 -0.277767 0
M  V30 3256 H 297.784 -5.72293 1.33244 0
M  V30 3257 H 299.308 -6.08755 0.474262 0
M  V30 3258 H 300.722 -5.14025 2.53873 0
M  V30 3259 H 299.119 -5.00062 3.3175 0
M  V30 3260 H 300.189 -3.58818 3.26156 0
M  V30 3261 N 301.532 -0.945985 -1.26051 0
M  V30 3262 C 302.442 -0.465633 -2.29933 0
M  V30 3263 C 303.458 0.462761 -1.67733 0
M  V30 3264 O 304.634 0.341118 -1.9849 0
M  V30 3265 C 301.699 0.256994 -3.45746 0
M  V30 3266 C 300.76 -0.708549 -4.23412 0
M  V30 3267 C 299.993 -0.0203135 -5.33696 0
M  V30 3268 O 300.216 1.19571 -5.57726 0
M  V30 3269 O 299.15 -0.701459 -5.97799 0
M  V30 3270 H 302.976 -1.32866 -2.73094 0
M  V30 3271 H 300.561 -0.712071 -1.31339 0
M  V30 3272 H 302.443 0.663852 -4.16138 0
M  V30 3273 H 301.118 1.09533 -3.04605 0
M  V30 3274 H 300.025 -1.16545 -3.55483 0
M  V30 3275 H 301.358 -1.51465 -4.68315 0
M  V30 3276 N 303.011 1.40521 -0.713556 0
M  V30 3277 C 303.921 2.34522 -0.0606667 0
M  V30 3278 C 304.937 1.57193 0.74607 0
M  V30 3279 O 306.113 1.89591 0.679493 0
M  V30 3280 C 303.178 3.36081 0.851491 0
M  V30 3281 C 302.239 4.29286 0.0349339 0
M  V30 3282 C 301.472 5.25994 0.903649 0
M  V30 3283 O 301.695 5.28616 2.14292 0
M  V30 3284 O 300.629 6.00918 0.343723 0
M  V30 3285 H 304.455 2.91968 -0.835972 0
M  V30 3286 H 302.04 1.41681 -0.47402 0
M  V30 3287 H 303.922 3.98369 1.37404 0
M  V30 3288 H 302.597 2.81052 1.60598 0
M  V30 3289 H 301.504 3.70289 -0.532633 0
M  V30 3290 H 302.837 4.87462 -0.681287 0
M  V30 3291 N 304.489 0.459591 1.5075 0
M  V30 3292 C 305.729 -0.09824 2.04164 0
M  V30 3293 C 306.093 -1.3801 1.33481 0
M  V30 3294 O 307.294 -2.01959 1.77387 0
M  V30 3295 C 305.565 -0.289467 3.56226 0
M  V30 3296 S 307.124 -0.807507 4.31306 0
M  V30 3297 H 303.942 -0.0213845 0.710678 0
M  V30 3298 H 306.544 0.624098 1.85271 0
M  V30 3299 H 305.248 0.649461 4.05229 0
M  V30 3300 H 304.779 -1.03825 3.79452 0
M  V30 3301 H 306.794 -2.0824 4.50389 0
M  V30 3302 N 305.967 -1.56429 0.191757 0
M  V30 3303 C 307.215 -1.97095 -0.447006 0
M  V30 3304 C 307.536 -1.07967 -1.62383 0
M  V30 3305 O 306.806 -0.150248 -1.95323 0
M  V30 3306 H 305.386 -0.727832 -0.168135 0
M  V30 3307 H 308.048 -1.92911 0.27771 0
M  V30 3308 H 307.144 -3.01848 -0.793371 0
M  V30 3309 N 307.445 0.0818655 -1.57387 0
M  V30 3310 C 308.375 1.09885 -2.06028 0
M  V30 3311 C 309.356 1.4098 -0.951774 0
M  V30 3312 O 310.541 1.50781 -1.22387 0
M  V30 3313 C 307.671 2.4151 -2.4958 0
M  V30 3314 C 306.625 2.24792 -3.64215 0
M  V30 3315 C 305.951 3.61712 -3.93787 0
M  V30 3316 C 307.251 1.67749 -4.94629 0
M  V30 3317 H 308.945 0.694128 -2.91243 0
M  V30 3318 H 306.491 0.332448 -1.4011 0
M  V30 3319 H 308.444 3.12939 -2.82219 0
M  V30 3320 H 307.168 2.83943 -1.61381 0
M  V30 3321 H 305.827 1.55807 -3.31843 0
M  V30 3322 H 305.475 4.01697 -3.02735 0
M  V30 3323 H 305.175 3.51368 -4.70971 0
M  V30 3324 H 306.699 4.34587 -4.28913 0
M  V30 3325 H 308.113 2.29032 -5.25564 0
M  V30 3326 H 306.51 1.68128 -5.76067 0
M  V30 3327 H 307.58 0.638059 -4.80684 0
M  V30 3328 N 308.923 1.53595 0.353017 0
M  V30 3329 C 309.853 1.83902 1.43883 0
M  V30 3330 C 310.834 0.693421 1.55324 0
M  V30 3331 O 312.019 0.944452 1.69687 0
M  V30 3332 C 309.149 2.04016 2.8106 0
M  V30 3333 C 308.103 3.19814 2.84434 0
M  V30 3334 C 307.429 3.25244 4.24406 0
M  V30 3335 C 308.729 4.58133 2.50822 0
M  V30 3336 H 310.423 2.74835 1.1877 0
M  V30 3337 H 307.969 1.32242 0.569917 0
M  V30 3338 H 309.922 2.238 3.57059 0
M  V30 3339 H 308.646 1.09804 3.07588 0
M  V30 3340 H 307.305 2.9987 2.10887 0
M  V30 3341 H 306.953 2.28646 4.48029 0
M  V30 3342 H 306.653 4.03054 4.27576 0
M  V30 3343 H 308.177 3.47228 5.0226 0
M  V30 3344 H 309.591 4.77995 3.16534 0
M  V30 3345 H 307.988 5.38276 2.6529 0
M  V30 3346 H 309.058 4.62387 1.46034 0
M  V30 3347 N 310.401 -0.613514 1.45168 0
M  V30 3348 C 311.817 -0.933629 1.29443 0
M  V30 3349 C 312.017 -2.00028 0.243101 0
M  V30 3350 O 311.073 -2.49848 -0.364992 0
M  V30 3351 C 312.386 -1.38018 2.67155 0
M  V30 3352 C 313.934 -1.49471 2.75004 0
M  V30 3353 C 314.409 -1.97503 4.13227 0
M  V30 3354 N 315.9 -2.04746 4.15491 0
M  V30 3355 C 316.635 -2.43121 5.19307 0
M  V30 3356 N 316.131 -2.80506 6.33473 0
M  V30 3357 N 317.924 -2.43408 5.06664 0
M  V30 3358 H 310.075 0.0916097 2.12202 0
M  V30 3359 H 312.338 -0.0216655 0.947752 0
M  V30 3360 H 312.044 -0.670625 3.45247 0
M  V30 3361 H 311.918 -2.34784 2.95222 0
M  V30 3362 H 314.305 -2.19519 1.9722 0
M  V30 3363 H 314.386 -0.510342 2.50657 0
M  V30 3364 H 314.03 -1.28045 4.91495 0
M  V30 3365 H 313.96 -2.96843 4.34962 0
M  V30 3366 H 316.451 -1.78468 3.33103 0
M  V30 3367 H 316.764 -3.08652 7.08487 0
M  V30 3368 H 315.109 -2.78216 6.36884 0
M  V30 3369 H 318.3 -2.13604 4.16523 0
M  V30 3370 H 318.473 -2.72989 5.87691 0
M  V30 3371 N 311.879 -1.3236 -0.855495 0
M  V30 3372 C 312.826 -1.21225 -1.964 0
M  V30 3373 C 313.796 -0.0946204 -1.6583 0
M  V30 3374 O 314.981 -0.27002 -1.8888 0
M  V30 3375 C 312.121 -0.940419 -3.32039 0
M  V30 3376 C 311.234 -2.14276 -3.75113 0
M  V30 3377 C 310.369 -1.80648 -4.9954 0
M  V30 3378 C 309.408 -2.97208 -5.35102 0
M  V30 3379 N 308.545 -2.63678 -6.50706 0
M  V30 3380 H 313.385 -2.16042 -2.05255 0
M  V30 3381 H 310.922 -1.07451 -1.00463 0
M  V30 3382 H 312.88 -0.763311 -4.10158 0
M  V30 3383 H 311.51 -0.0290413 -3.22787 0
M  V30 3384 H 310.562 -2.43017 -2.92655 0
M  V30 3385 H 311.874 -3.01468 -3.97389 0
M  V30 3386 H 311.028 -1.59484 -5.85363 0
M  V30 3387 H 309.767 -0.906678 -4.79198 0
M  V30 3388 H 308.772 -3.19004 -4.47791 0
M  V30 3389 H 309.997 -3.87918 -5.57401 0
M  V30 3390 H 307.943 -1.76238 -6.31883 0
M  V30 3391 H 307.86 -3.444 -6.72997 0
M  V30 3392 H 309.128 -2.45942 -7.39684 0
M  V30 3393 N 313.357 1.07166 -1.15556 0
M  V30 3394 C 314.605 1.79443 -0.929764 0
M  V30 3395 C 314.926 1.87246 0.544414 0
M  V30 3396 O 314.196 1.37473 1.39564 0
M  V30 3397 H 312.776 0.664625 -0.341003 0
M  V30 3398 H 315.438 1.29499 -1.45657 0
M  V30 3399 H 314.534 2.81832 -1.34079 0
M  V30 3400 N 314.835 0.952656 1.25548 0
M  V30 3401 C 316.063 0.623496 1.97282 0
M  V30 3402 C 316.478 -0.803987 1.70826 0
M  V30 3403 O 315.835 -1.53755 0.983147 0
M  V30 3404 C 315.886 0.870209 3.5087 0
M  V30 3405 O 315.607 2.24156 3.76412 0
M  V30 3406 C 317.108 0.553164 4.39835 0
M  V30 3407 H 314.328 0.233931 0.628902 0
M  V30 3408 H 316.872 1.27649 1.59768 0
M  V30 3409 H 315.027 0.263652 3.86502 0
M  V30 3410 H 315.441 2.31021 4.70882 0
M  V30 3411 H 316.915 0.776342 5.46513 0
M  V30 3412 H 317.392 -0.512215 4.36203 0
M  V30 3413 H 317.998 1.13896 4.09766 0
M  V30 3414 N 316.313 -1.40141 0.720998 0
M  V30 3415 C 317.559 -2.01084 0.263231 0
M  V30 3416 C 317.892 -1.57052 -1.14229 0
M  V30 3417 O 317.167 -0.793027 -1.77599 0
M  V30 3418 C 317.45 -3.58401 0.349344 0
M  V30 3419 C 317.303 -4.12491 1.79363 0
M  V30 3420 C 318.622 -4.39231 -0.276351 0
M  V30 3421 H 315.741 -0.730572 0.0971228 0
M  V30 3422 H 318.383 -1.66543 0.914518 0
M  V30 3423 H 316.533 -3.87958 -0.205165 0
M  V30 3424 H 318.205 -3.93711 2.40394 0
M  V30 3425 H 316.448 -3.66576 2.31958 0
M  V30 3426 H 317.119 -5.21646 1.80524 0
M  V30 3427 H 319.595 -4.15637 0.196184 0
M  V30 3428 H 318.471 -5.48586 -0.185681 0
M  V30 3429 H 318.732 -4.20643 -1.36059 0
M  V30 3430 N 317.792 -0.46758 -1.50504 0
M  V30 3431 C 318.722 0.318381 -2.31319 0
M  V30 3432 C 319.703 0.993564 -1.38066 0
M  V30 3433 O 320.888 0.991411 -1.66987 0
M  V30 3434 C 318.018 1.40275 -3.17711 0
M  V30 3435 C 316.972 0.849373 -4.19487 0
M  V30 3436 C 316.298 2.03177 -4.94594 0
M  V30 3437 C 317.598 -0.136942 -5.2212 0
M  V30 3438 H 319.292 -0.356106 -2.97275 0
M  V30 3439 H 316.838 -0.172703 -1.42961 0
M  V30 3440 H 318.791 1.96004 -3.73042 0
M  V30 3441 H 317.515 2.10596 -2.49634 0
M  V30 3442 H 316.174 0.314076 -3.65252 0
M  V30 3443 H 315.822 2.72187 -4.22993 0
M  V30 3444 H 315.522 1.66774 -5.63436 0
M  V30 3445 H 317.046 2.59403 -5.52759 0
M  V30 3446 H 318.46 0.331056 -5.72343 0
M  V30 3447 H 316.857 -0.41507 -5.98663 0
M  V30 3448 H 317.927 -1.06398 -4.73083 0
M  V30 3449 N 319.27 1.56325 -0.20005 0
M  V30 3450 C 320.2 2.22318 0.713916 0
M  V30 3451 C 321.181 1.18788 1.21752 0
M  V30 3452 O 322.366 1.47309 1.26545 0
M  V30 3453 C 319.496 2.88639 1.93144 0
M  V30 3454 C 318.45 3.98457 1.56255 0
M  V30 3455 C 317.776 4.51967 2.85709 0
M  V30 3456 C 319.076 5.16612 0.768747 0
M  V30 3457 H 320.77 2.98952 0.163755 0
M  V30 3458 H 318.316 1.43792 0.0773219 0
M  V30 3459 H 320.269 3.33491 2.57608 0
M  V30 3460 H 318.993 2.09419 2.50621 0
M  V30 3461 H 317.652 3.54305 0.941471 0
M  V30 3462 H 317.3 3.69503 3.41287 0
M  V30 3463 H 317 5.26071 2.6177 0
M  V30 3464 H 318.524 4.99523 3.51154 0
M  V30 3465 H 319.938 5.57977 1.3166 0
M  V30 3466 H 318.335 5.96812 0.627286 0
M  V30 3467 H 319.405 4.84358 -0.229168 0
M  V30 3468 N 320.748 -0.0735177 1.57428 0
M  V30 3469 C 321.711 -1.07192 2.02589 0
M  V30 3470 C 322.711 -1.31695 0.922661 0
M  V30 3471 O 323.901 -1.27445 1.18758 0
M  V30 3472 C 321.033 -2.41599 2.40506 0
M  V30 3473 H 322.226 -0.682727 2.92025 0
M  V30 3474 H 319.779 -0.319193 1.53006 0
M  V30 3475 H 320.514 -2.85354 1.5409 0
M  V30 3476 H 320.299 -2.25156 3.21009 0
M  V30 3477 H 321.789 -3.13367 2.76027 0
M  V30 3478 N 322.226 -1.5378 -0.344866 0
M  V30 3479 C 323.503 -1.61589 -1.10219 0
M  V30 3480 C 323.883 -0.436316 -2.06542 0
M  V30 3481 O 323.231 0.571543 -2.21237 0
M  V30 3482 C 323.441 -2.97602 -1.82301 0
M  V30 3483 C 324.789 -3.5291 -2.36093 0
M  V30 3484 O 325.813 -2.99768 -1.924 0
M  V30 3485 O 324.672 -4.45859 -3.16026 0
M  V30 3486 H 321.766 -0.653522 -0.506792 0
M  V30 3487 H 324.312 -1.66126 -0.346465 0
M  V30 3488 H 323.084 -3.74893 -1.12121 0
M  V30 3489 H 322.707 -2.9665 -2.64735 0
M  V30 3490 N 323.704 0.605807 -1.45491 0
M  V30 3491 C 324.652 1.73754 -1.54636 0
M  V30 3492 C 325.646 1.64207 -0.416219 0
M  V30 3493 O 326.852 1.69979 -0.592199 0
M  V30 3494 H 323.227 0.574073 -0.485741 0
M  V30 3495 H 325.198 1.63169 -2.49837 0
M  V30 3496 C 323.947 3.12135 -1.53189 0
M  V30 3497 H 323.27 3.20141 -2.39478 0
M  V30 3498 H 324.71 3.91147 -1.63645 0
M  V30 3499 C 323.169 3.35921 -0.256616 0
M  V30 3500 O 323.699 3.96194 0.662798 0
M  V30 3501 N 321.905 2.90204 -0.151751 0
M  V30 3502 H 321.452 2.41336 -0.90081 0
M  V30 3503 H 321.41 3.06492 0.700699 0
M  V30 3504 N 325.182 1.32811 0.848464 0
M  V30 3505 C 326.428 1.23907 1.60546 0
M  V30 3506 C 326.761 -0.197161 1.93197 0
M  V30 3507 O 326.036 -1.13596 1.5788 0
M  V30 3508 C 326.319 2.10489 2.92175 0
M  V30 3509 C 326.172 3.62522 2.66266 0
M  V30 3510 C 327.491 1.97075 3.93509 0
M  V30 3511 H 324.61 0.451459 0.58254 0
M  V30 3512 H 327.252 1.62818 0.979296 0
M  V30 3513 H 325.402 1.77434 3.45614 0
M  V30 3514 H 327.074 4.05821 2.19334 0
M  V30 3515 H 325.317 3.84879 2.00126 0
M  V30 3516 H 325.988 4.18437 3.6002 0
M  V30 3517 H 328.464 2.26045 3.49346 0
M  V30 3518 H 327.34 2.59923 4.83457 0
M  V30 3519 H 327.601 0.940186 4.31987 0
M  V30 3520 N 326.66 -1.06551 1.16123 0
M  V30 3521 C 327.909 -1.78687 0.935622 0
M  V30 3522 C 328.222 -1.88056 -0.538001 0
M  V30 3523 O 329.428 -2.56794 -0.88143 0
M  V30 3524 C 327.884 -3.21143 1.62466 0
M  V30 3525 C 327.492 -3.19949 3.13587 0
M  V30 3526 C 329.236 -3.9783 1.48092 0
M  V30 3527 C 327.143 -4.57108 3.75241 0
M  V30 3528 H 326.073 -0.669712 0.346412 0
M  V30 3529 H 328.724 -1.19534 1.39226 0
M  V30 3530 H 327.106 -3.80539 1.09572 0
M  V30 3531 H 328.28 -2.70151 3.73303 0
M  V30 3532 H 326.595 -2.5676 3.27816 0
M  V30 3533 H 329.192 -4.99217 1.91538 0
M  V30 3534 H 329.535 -4.14078 0.429507 0
M  V30 3535 H 330.068 -3.4495 1.98127 0
M  V30 3536 H 326.807 -4.46065 4.80319 0
M  V30 3537 H 326.327 -5.07111 3.20309 0
M  V30 3538 H 328.006 -5.26069 3.76644 0
M  V30 3539 N 328.138 -0.959301 -1.25041 0
M  V30 3540 C 329.378 -0.624343 -1.94631 0
M  V30 3541 C 329.742 0.82403 -1.73418 0
M  V30 3542 O 330.943 1.26881 -2.3697 0
M  V30 3543 C 329.214 -0.978805 -3.43736 0
M  V30 3544 S 330.773 -0.757127 -4.32219 0
M  V30 3545 H 327.591 -0.229327 -0.673001 0
M  V30 3546 H 330.193 -1.23447 -1.51595 0
M  V30 3547 H 328.897 -2.02997 -3.56679 0
M  V30 3548 H 328.428 -0.359117 -3.91757 0
M  V30 3549 H 330.443 0.369759 -4.9482 0
M  V30 3550 N 329.616 1.39756 -0.72842 0
M  V30 3551 C 331.027 1.83498 -0.344289 0
M  V30 3552 C 331.378 1.60868 1.12321 0
M  V30 3553 O 330.503 1.09634 1.86573 0
M  V30 3554 C 331.098 3.33114 -0.618112 0
M  V30 3555 C 329.657 3.753 -0.287549 0
M  V30 3556 C 328.804 2.62831 -0.884048 0
M  V30 3557 H 331.755 1.28842 -0.926578 0
M  V30 3558 H 331.776 3.80334 0.112349 0
M  V30 3559 H 331.288 3.49553 -1.68625 0
M  V30 3560 H 329.389 3.64451 0.775012 0
M  V30 3561 H 329.502 4.72945 -0.765512 0
M  V30 3562 H 327.866 2.52792 -0.311149 0
M  V30 3563 H 328.649 2.82078 -1.95671 0
M  V30 3564 N 331.094 0.475555 1.50254 0
M  V30 3565 C 332.342 -0.077738 2.0195 0
M  V30 3566 C 332.663 -1.39813 1.35931 0
M  V30 3567 O 331.933 -1.89249 0.506123 0
M  V30 3568 H 330.513 -0.031719 0.746326 0
M  V30 3569 H 333.175 0.626995 1.84539 0
M  V30 3570 H 332.271 -0.225995 3.11281 0
M  V30 3571 N 332.573 -1.56217 0.208337 0
M  V30 3572 C 333.536 -2.18455 -0.693557 0
M  V30 3573 C 334.536 -1.14268 -1.13135 0
M  V30 3574 O 335.726 -1.39577 -1.0423 0
M  V30 3575 C 332.858 -2.79727 -1.94848 0
M  V30 3576 H 334.051 -2.99519 -0.15114 0
M  V30 3577 H 331.604 -1.56245 -0.041287 0
M  V30 3578 H 332.339 -2.02497 -2.53309 0
M  V30 3579 H 332.124 -3.56009 -1.64316 0
M  V30 3580 H 333.614 -3.27475 -2.59133 0
M  V30 3581 N 334.051 0.0651679 -1.57465 0
M  V30 3582 C 335.462 0.616213 -1.76238 0
M  V30 3583 C 335.813 1.7756 -0.834689 0
M  V30 3584 O 334.938 2.1639 -0.0204156 0
M  V30 3585 C 335.533 1.12462 -3.1959 0
M  V30 3586 C 334.092 1.62147 -3.39684 0
M  V30 3587 C 333.239 0.543739 -2.71917 0
M  V30 3588 H 336.19 -0.161022 -1.57881 0
M  V30 3589 H 336.211 1.99324 -3.24114 0
M  V30 3590 H 335.723 0.280592 -3.87084 0
M  V30 3591 H 333.824 2.48854 -2.77313 0
M  V30 3592 H 333.937 1.69385 -4.48158 0
M  V30 3593 H 332.301 0.990352 -2.34657 0
M  V30 3594 H 333.084 -0.290216 -3.42071 0
M  V30 3595 N 335.529 1.53961 0.336706 0
M  V30 3596 C 336.806 1.62171 1.09361 0
M  V30 3597 C 337.186 0.447263 2.06307 0
M  V30 3598 O 336.534 -0.559802 2.21537 0
M  V30 3599 C 336.744 2.98565 1.80721 0
M  V30 3600 C 338.092 3.54157 2.34218 0
M  V30 3601 O 339.116 3.00784 1.90807 0
M  V30 3602 O 337.975 4.47528 3.13657 0
M  V30 3603 H 335.069 0.6562 0.503319 0
M  V30 3604 H 337.615 1.66307 0.33765 0
M  V30 3605 H 336.387 3.75482 1.10132 0
M  V30 3606 H 336.01 2.9805 2.63158 0
M  V30 3607 N 337.007 -0.598083 1.45811 0
M  V30 3608 C 338.254 -1.35681 1.50323 0
M  V30 3609 C 338.582 -1.9393 0.148739 0
M  V30 3610 O 337.837 -1.76094 -0.853787 0
M  V30 3611 C 338.136 -2.51669 2.53766 0
M  V30 3612 C 337.802 -2.11508 3.98215 0
M  V30 3613 C 336.464 -2.0027 4.37545 0
M  V30 3614 C 338.816 -1.80308 4.89018 0
M  V30 3615 C 336.144 -1.56067 5.65562 0
M  V30 3616 C 338.496 -1.37589 6.17456 0
M  V30 3617 C 337.16 -1.24916 6.55708 0
M  V30 3618 H 336.43 -0.496492 0.550069 0
M  V30 3619 H 339.077 -0.675052 1.79207 0
M  V30 3620 H 337.382 -3.25225 2.18486 0
M  V30 3621 H 339.079 -3.09895 2.54492 0
M  V30 3622 H 335.669 -2.21185 3.67117 0
M  V30 3623 H 339.853 -1.87884 4.59362 0
M  V30 3624 H 335.109 -1.44886 5.93985 0
M  V30 3625 H 339.283 -1.12495 6.87254 0
M  V30 3626 H 336.91 -0.904386 7.54801 0
M  V30 3627 N 338.485 -1.33259 -0.841409 0
M  V30 3628 C 339.415 -1.25926 -1.96634 0
M  V30 3629 C 340.396 -0.140349 -1.6952 0
M  V30 3630 O 341.581 -0.329707 -1.91381 0
M  V30 3631 C 338.711 -0.99512 -3.32738 0
M  V30 3632 C 337.665 -2.0767 -3.74242 0
M  V30 3633 C 336.991 -1.66474 -5.08125 0
M  V30 3634 C 338.291 -3.49318 -3.88297 0
M  V30 3635 H 339.985 -2.20046 -2.03027 0
M  V30 3636 H 337.531 -1.05931 -0.975425 0
M  V30 3637 H 339.484 -0.930323 -4.11002 0
M  V30 3638 H 338.208 -0.0183004 -3.26595 0
M  V30 3639 H 336.867 -2.13187 -2.98239 0
M  V30 3640 H 336.515 -0.675012 -4.9845 0
M  V30 3641 H 336.215 -2.3885 -5.36865 0
M  V30 3642 H 337.739 -1.61455 -5.88867 0
M  V30 3643 H 339.153 -3.46316 -4.56879 0
M  V30 3644 H 337.55 -4.20158 -4.28471 0
M  V30 3645 H 338.62 -3.8801 -2.9082 0
M  V30 3646 N 339.963 1.05934 -1.16686 0
M  V30 3647 C 340.926 2.11669 -0.879144 0
M  V30 3648 C 341.926 1.60294 0.127445 0
M  V30 3649 O 343.116 1.7389 -0.103865 0
M  V30 3650 C 340.248 3.39438 -0.315425 0
M  V30 3651 H 341.441 2.38626 -1.81653 0
M  V30 3652 H 338.994 1.22058 -0.976299 0
M  V30 3653 H 339.729 3.18132 0.629468 0
M  V30 3654 H 339.514 3.78034 -1.04079 0
M  V30 3655 H 341.004 4.17391 -0.132189 0
M  V30 3656 N 341.441 0.965919 1.2453 0
M  V30 3657 C 342.391 0.465731 2.23193 0
M  V30 3658 C 343.375 -0.451277 1.54442 0
M  V30 3659 O 344.567 -0.282489 1.74731 0
M  V30 3660 C 341.696 -0.244511 3.42428 0
M  V30 3661 C 340.782 0.691222 4.18429 0
M  V30 3662 N 341.173 1.82771 4.71623 0
M  V30 3663 C 339.471 0.501649 4.4317 0
M  V30 3664 C 340.172 2.41285 5.29298 0
M  V30 3665 N 339.148 1.69819 5.16394 0
M  V30 3666 H 342.95 1.33291 2.61937 0
M  V30 3667 H 340.464 0.824789 1.39896 0
M  V30 3668 H 342.461 -0.620056 4.12263 0
M  V30 3669 H 341.121 -1.10815 3.05205 0
M  V30 3670 H 342.132 2.20929 4.68413 0
M  V30 3671 H 338.809 -0.318177 4.16286 0
M  V30 3672 H 340.199 3.37181 5.8117 0
M  V30 3673 N 342.919 -1.39368 0.735821 0
M  V30 3674 C 344.165 -2.00794 0.284544 0
M  V30 3675 C 344.498 -1.58255 -1.12557 0
M  V30 3676 O 343.773 -0.811819 -1.76748 0
M  V30 3677 C 344.056 -3.58011 0.387337 0
M  V30 3678 C 343.909 -4.10566 1.83728 0
M  V30 3679 C 345.228 -4.395 -0.22975 0
M  V30 3680 H 342.347 -0.729501 0.104866 0
M  V30 3681 H 344.989 -1.65564 0.93213 0
M  V30 3682 H 343.139 -3.88154 -0.164006 0
M  V30 3683 H 344.811 -3.91139 2.44556 0
M  V30 3684 H 343.054 -3.64095 2.35833 0
M  V30 3685 H 343.725 -5.19702 1.86047 0
M  V30 3686 H 346.201 -4.15406 0.240257 0
M  V30 3687 H 345.077 -5.48752 -0.127485 0
M  V30 3688 H 345.338 -4.22062 -1.3159 0
M  V30 3689 N 344.397 -0.483516 -1.5 0
M  V30 3690 C 345.813 -0.138404 -1.58999 0
M  V30 3691 C 346.013 1.35597 -1.4905 0
M  V30 3692 O 345.069 2.13039 -1.35539 0
M  V30 3693 C 346.382 -0.699658 -2.92447 0
M  V30 3694 C 347.93 -0.664195 -3.05872 0
M  V30 3695 C 348.405 -1.20321 -4.41913 0
M  V30 3696 N 349.896 -1.16315 -4.48358 0
M  V30 3697 C 350.631 -1.55058 -5.52037 0
M  V30 3698 N 350.127 -2.01311 -6.62907 0
M  V30 3699 N 351.92 -1.46584 -5.42651 0
M  V30 3700 H 344.071 -1.45529 -1.5471 0
M  V30 3701 H 346.334 -0.60258 -0.731848 0
M  V30 3702 H 346.04 -1.747 -3.05242 0
M  V30 3703 H 345.914 -0.150194 -3.76901 0
M  V30 3704 H 348.301 0.374272 -2.92717 0
M  V30 3705 H 348.382 -1.25061 -2.23144 0
M  V30 3706 H 348.026 -2.24037 -4.55818 0
M  V30 3707 H 347.956 -0.592896 -5.23252 0
M  V30 3708 H 350.447 -0.824058 -3.68806 0
M  V30 3709 H 350.76 -2.2899 -7.38095 0
M  V30 3710 H 349.105 -2.05273 -6.63994 0
M  V30 3711 H 352.296 -1.10281 -4.54924 0
M  V30 3712 H 352.469 -1.77103 -6.23329 0
M  V30 3713 N 345.875 1.56104 -0.216619 0
M  V30 3714 C 347.123 1.97781 0.415593 0
M  V30 3715 C 347.444 1.10536 1.60645 0
M  V30 3716 O 346.714 0.181303 1.95059 0
M  V30 3717 H 345.294 0.730415 0.156534 0
M  V30 3718 H 347.956 1.92445 -0.308366 0
M  V30 3719 H 347.052 3.03072 0.74525 0
M  V30 3720 N 347.353 -0.0568162 1.57498 0
M  V30 3721 C 348.578 -0.769402 1.92601 0
M  V30 3722 C 349.003 -1.69559 0.814336 0
M  V30 3723 O 348.361 -1.79811 -0.231903 0
M  V30 3724 C 348.409 -1.52634 3.26704 0
M  V30 3725 O 347.513 -2.63797 3.16994 0
M  V30 3726 H 346.854 -0.208909 0.63028 0
M  V30 3727 H 349.384 -0.0205798 2.0459 0
M  V30 3728 H 349.394 -1.90234 3.60936 0
M  V30 3729 H 348.069 -0.846875 4.07186 0
M  V30 3730 H 346.646 -2.28943 2.94346 0
M  V30 3731 N 348.832 -1.54138 -0.328536 0
M  V30 3732 C 350.057 -1.76378 -1.09112 0
M  V30 3733 C 350.482 -0.508596 -1.81094 0
M  V30 3734 O 349.84 0.539598 -1.73084 0
M  V30 3735 C 349.888 -2.95358 -2.06872 0
M  V30 3736 O 348.992 -2.66556 -3.14677 0
M  V30 3737 H 348.333 -0.584614 -0.314838 0
M  V30 3738 H 350.863 -2.01146 -0.374348 0
M  V30 3739 H 350.873 -3.22566 -2.4983 0
M  V30 3740 H 349.548 -3.86385 -1.5388 0
M  V30 3741 H 348.125 -2.50282 -2.7643 0
M  V30 3742 N 350.31 0.590341 -1.46126 0
M  V30 3743 C 351.55 1.35995 -1.52593 0
M  V30 3744 C 351.914 1.91243 -0.170368 0
M  V30 3745 O 353.115 2.68576 -0.109775 0
M  V30 3746 C 351.386 2.46465 -2.58823 0
M  V30 3747 S 352.945 3.33953 -2.84641 0
M  V30 3748 H 349.763 0.463425 -0.53922 0
M  V30 3749 H 352.365 0.67944 -1.83314 0
M  V30 3750 H 351.069 2.04256 -3.5596 0
M  V30 3751 H 350.6 3.19297 -2.2981 0
M  V30 3752 H 352.615 4.45094 -2.19331 0
M  V30 3753 N 351.788 1.33704 0.83433 0
M  V30 3754 C 353.035 1.25417 1.58987 0
M  V30 3755 C 353.363 -0.178869 1.93676 0
M  V30 3756 O 352.618 -1.13723 1.59265 0
M  V30 3757 C 352.917 2.07926 2.90692 0
M  V30 3758 C 352.583 3.57066 2.75345 0
M  V30 3759 C 351.245 3.97724 2.70867 0
M  V30 3760 C 353.597 4.51817 2.59828 0
M  V30 3761 C 350.925 5.31344 2.48778 0
M  V30 3762 C 353.277 5.85604 2.39272 0
M  V30 3763 C 351.941 6.25439 2.33199 0
M  V30 3764 H 351.211 0.458934 0.581774 0
M  V30 3765 H 353.858 1.65335 0.966261 0
M  V30 3766 H 352.163 1.608 3.57282 0
M  V30 3767 H 353.86 1.98868 3.48213 0
M  V30 3768 H 350.45 3.24785 2.79665 0
M  V30 3769 H 354.634 4.21311 2.62319 0
M  V30 3770 H 349.89 5.61241 2.42526 0
M  V30 3771 H 354.064 6.58623 2.2625 0
M  V30 3772 H 351.691 7.28914 2.15843 0
M  V30 3773 N 353.266 -1.05314 1.17247 0
M  V30 3774 C 354.176 -2.16538 0.90268 0
M  V30 3775 C 355.192 -1.73523 -0.128707 0
M  V30 3776 O 356.368 -2.01337 0.0502701 0
M  V30 3777 C 353.433 -3.44167 0.418356 0
M  V30 3778 C 352.494 -4.01635 1.51618 0
M  V30 3779 C 351.727 -5.23171 1.05487 0
M  V30 3780 O 351.95 -5.70327 -0.0914715 0
M  V30 3781 O 350.884 -5.72848 1.8474 0
M  V30 3782 H 354.71 -2.42145 1.83302 0
M  V30 3783 H 352.295 -1.15037 0.953246 0
M  V30 3784 H 354.177 -4.21112 0.155726 0
M  V30 3785 H 352.852 -3.20063 -0.48385 0
M  V30 3786 H 351.759 -3.26135 1.83268 0
M  V30 3787 H 353.092 -4.30053 2.39405 0
M  V30 3788 N 354.744 -0.972509 -1.24016 0
M  V30 3789 C 355.984 -0.644951 -1.93958 0
M  V30 3790 C 356.348 0.80559 -1.74282 0
M  V30 3791 O 357.549 1.2436 -2.38302 0
M  V30 3792 C 355.82 -1.01521 -3.42678 0
M  V30 3793 S 357.379 -0.802927 -4.31391 0
M  V30 3794 H 354.197 -0.236452 -0.670531 0
M  V30 3795 H 356.799 -1.25048 -1.50277 0
M  V30 3796 H 355.503 -2.06769 -3.54506 0
M  V30 3797 H 355.034 -0.400648 -3.91355 0
M  V30 3798 H 357.049 0.317256 -4.95185 0
M  V30 3799 N 356.222 1.38976 -0.743202 0
M  V30 3800 C 357.45 2.04636 -0.30525 0
M  V30 3801 C 357.865 1.56044 1.06281 0
M  V30 3802 O 357.222 0.728921 1.67311 0
M  V30 3803 C 357.273 3.60193 -0.307177 0
M  V30 3804 O 356.994 4.06998 -1.62124 0
M  V30 3805 C 358.495 4.4306 0.145928 0
M  V30 3806 H 355.715 0.65788 -0.132041 0
M  V30 3807 H 358.259 1.77866 -1.00915 0
M  V30 3808 H 356.414 3.85835 0.347898 0
M  V30 3809 H 356.828 5.01371 -1.54036 0
M  V30 3810 H 358.302 5.51921 0.0934183 0
M  V30 3811 H 358.779 4.22706 1.19231 0
M  V30 3812 H 359.385 4.22584 -0.479886 0
M  V30 3813 N 357.7 0.491464 1.49741 0
M  V30 3814 C 358.65 -0.311086 2.25868 0
M  V30 3815 C 359.634 -0.943857 1.30308 0
M  V30 3816 O 360.826 -0.853035 1.55088 0
M  V30 3817 C 357.955 -1.38059 3.14316 0
M  V30 3818 C 357.041 -0.754541 4.17334 0
M  V30 3819 N 357.432 0.137216 5.05614 0
M  V30 3820 C 355.73 -1.01621 4.34269 0
M  V30 3821 C 356.431 0.494614 5.79593 0
M  V30 3822 N 355.407 -0.135169 5.43432 0
M  V30 3823 H 359.209 0.37555 2.91491 0
M  V30 3824 H 356.723 0.306917 1.59473 0
M  V30 3825 H 358.72 -1.96891 3.67477 0
M  V30 3826 H 357.38 -2.06901 2.50244 0
M  V30 3827 H 358.391 0.50741 5.15408 0
M  V30 3828 H 355.068 -1.69808 3.81407 0
M  V30 3829 H 356.458 1.2236 6.60665 0
M  V30 3830 N 359.178 -1.55987 0.224894 0
M  V30 3831 C 360.408 -2.02489 -0.41007 0
M  V30 3832 C 360.816 -1.10391 -1.53657 0
M  V30 3833 O 360.159 -0.106458 -1.83391 0
M  V30 3834 C 360.221 -3.45319 -0.999757 0
M  V30 3835 C 359.885 -4.56999 -0.00827976 0
M  V30 3836 C 360.882 -5.13812 0.793314 0
M  V30 3837 C 358.567 -5.02176 0.111442 0
M  V30 3838 C 360.561 -6.14276 1.7013 0
M  V30 3839 C 358.248 -6.02477 1.02296 0
M  V30 3840 C 359.246 -6.58403 1.81643 0
M  V30 3841 O 358.934 -7.56751 2.71262 0
M  V30 3842 H 358.666 -0.667915 -0.104235 0
M  V30 3843 H 361.22 -2.0257 0.339782 0
M  V30 3844 H 359.45 -3.42318 -1.79876 0
M  V30 3845 H 361.139 -3.7545 -1.54248 0
M  V30 3846 H 361.905 -4.79756 0.711288 0
M  V30 3847 H 357.784 -4.58323 -0.49605 0
M  V30 3848 H 361.328 -6.57854 2.32107 0
M  V30 3849 H 357.225 -6.35954 1.10599 0
M  V30 3850 H 357.993 -7.74286 2.65375 0
M  V30 3851 N 360.656 0.0484629 -1.57525 0
M  V30 3852 C 361.588 1.08222 -2.02041 0
M  V30 3853 C 362.601 1.33621 -0.930012 0
M  V30 3854 O 363.79 1.3145 -1.20761 0
M  V30 3855 C 360.89 2.42818 -2.36416 0
M  V30 3856 C 360.063 2.37049 -3.67596 0
M  V30 3857 C 359.122 3.53937 -3.89378 0
M  V30 3858 O 358.148 3.34308 -4.60681 0
M  V30 3859 N 359.35 4.75126 -3.3352 0
M  V30 3860 H 362.115 0.702946 -2.9134 0
M  V30 3861 H 359.676 0.236745 -1.6016 0
M  V30 3862 H 361.668 3.197 -2.48141 0
M  V30 3863 H 360.238 2.72661 -1.52888 0
M  V30 3864 H 359.458 1.45395 -3.66407 0
M  V30 3865 H 360.746 2.30318 -4.53686 0
M  V30 3866 H 360.144 4.93976 -2.75688 0
M  V30 3867 H 358.701 5.49439 -3.50656 0
M  V30 3868 N 362.134 1.5431 0.320358 0
M  V30 3869 C 363.359 1.76954 1.08175 0
M  V30 3870 C 363.784 0.518193 1.80821 0
M  V30 3871 O 363.142 -0.530411 1.73368 0
M  V30 3872 C 363.19 2.96451 2.05303 0
M  V30 3873 O 362.294 2.68221 3.13259 0
M  V30 3874 H 361.635 0.586275 0.311733 0
M  V30 3875 H 364.165 2.01342 0.363676 0
M  V30 3876 H 364.175 3.23887 2.48116 0
M  V30 3877 H 362.85 3.87196 1.51829 0
M  V30 3878 H 361.427 2.51744 2.75099 0
M  V30 3879 N 363.613 -0.582584 1.46437 0
M  V30 3880 C 364.86 -1.34079 1.51753 0
M  V30 3881 C 365.188 -1.93762 0.169299 0
M  V30 3882 O 364.443 -1.76989 -0.835062 0
M  V30 3883 C 364.742 -2.48964 2.56421 0
M  V30 3884 C 364.408 -2.07273 4.00436 0
M  V30 3885 C 363.07 -1.95618 4.39644 0
M  V30 3886 C 365.422 -1.75111 4.90903 0
M  V30 3887 C 362.75 -1.5006 5.67185 0
M  V30 3888 C 365.102 -1.31032 6.18881 0
M  V30 3889 C 363.766 -1.17954 6.56996 0
M  V30 3890 H 363.036 -0.49063 0.555304 0
M  V30 3891 H 365.683 -0.656007 1.79913 0
M  V30 3892 H 363.988 -3.22889 2.21923 0
M  V30 3893 H 365.685 -3.07178 2.57765 0
M  V30 3894 H 362.275 -2.17279 3.69443 0
M  V30 3895 H 366.459 -1.83001 4.61329 0
M  V30 3896 H 361.715 -1.38577 5.95488 0
M  V30 3897 H 365.889 -1.052 6.88408 0
M  V30 3898 H 363.516 -0.824279 7.55718 0
M  V30 3899 N 365.091 -1.34144 -0.827227 0
M  V30 3900 C 366.021 -1.28005 -1.95287 0
M  V30 3901 C 367.002 -0.158321 -1.69362 0
M  V30 3902 O 368.187 -0.349987 -1.9102 0
M  V30 3903 C 365.317 -1.03036 -3.31664 0
M  V30 3904 C 364.271 -2.11628 -3.72019 0
M  V30 3905 C 363.597 -1.71854 -5.0633 0
M  V30 3906 C 364.897 -3.53417 -3.8457 0
M  V30 3907 H 366.591 -2.22187 -2.00682 0
M  V30 3908 H 364.137 -1.0696 -0.964135 0
M  V30 3909 H 366.09 -0.973863 -4.09993 0
M  V30 3910 H 364.814 -0.0529391 -3.26557 0
M  V30 3911 H 363.473 -2.16339 -2.95961 0
M  V30 3912 H 363.121 -0.727841 -4.97706 0
M  V30 3913 H 362.821 -2.44531 -5.34302 0
M  V30 3914 H 364.345 -1.67692 -5.87122 0
M  V30 3915 H 365.759 -3.51142 -4.5318 0
M  V30 3916 H 364.156 -4.24679 -4.2399 0
M  V30 3917 H 365.226 -3.91072 -2.86689 0
M  V30 3918 N 366.569 1.04691 -1.17803 0
M  V30 3919 C 367.479 2.16057 -0.914151 0
M  V30 3920 C 368.495 1.73589 0.119503 0
M  V30 3921 O 369.671 2.01308 -0.0609468 0
M  V30 3922 C 366.736 3.4394 -0.436603 0
M  V30 3923 C 365.797 4.00825 -1.53746 0
M  V30 3924 C 365.03 5.22604 -1.0826 0
M  V30 3925 O 365.253 5.70367 0.0612244 0
M  V30 3926 O 364.187 5.7186 -1.87775 0
M  V30 3927 H 368.013 2.41169 -1.84584 0
M  V30 3928 H 365.598 1.1453 -0.959334 0
M  V30 3929 H 367.48 4.21024 -0.178057 0
M  V30 3930 H 366.155 3.20316 0.466869 0
M  V30 3931 H 365.062 3.25158 -1.84995 0
M  V30 3932 H 366.395 4.28778 -2.41683 0
M  V30 3933 N 368.047 0.979072 1.23499 0
M  V30 3934 C 369.277 0.664237 1.95631 0
M  V30 3935 C 369.685 -0.772653 1.72704 0
M  V30 3936 O 369.028 -1.53141 1.01457 0
M  V30 3937 C 369.09 0.873115 3.48736 0
M  V30 3938 C 368.754 2.29182 3.95379 0
M  V30 3939 C 369.751 3.2704 4.04155 0
M  V30 3940 C 367.436 2.62256 4.28401 0
M  V30 3941 C 369.43 4.56052 4.45304 0
M  V30 3942 C 367.117 3.91491 4.69231 0
M  V30 3943 C 368.115 4.88201 4.77649 0
M  V30 3944 O 367.803 6.15129 5.17563 0
M  V30 3945 H 367.535 0.245915 0.629684 0
M  V30 3946 H 370.089 1.3127 1.57979 0
M  V30 3947 H 368.319 0.167476 3.86337 0
M  V30 3948 H 370.008 0.555642 4.02079 0
M  V30 3949 H 370.774 3.02819 3.78848 0
M  V30 3950 H 366.653 1.87692 4.21061 0
M  V30 3951 H 370.197 5.31538 4.51789 0
M  V30 3952 H 366.094 4.15508 4.93987 0
M  V30 3953 H 366.862 6.18862 5.35679 0
M  V30 3954 N 369.525 -1.3858 0.750561 0
M  V30 3955 C 370.941 -1.53759 0.427824 0
M  V30 3956 C 371.141 -1.71401 -1.05943 0
M  V30 3957 O 370.197 -1.72331 -1.84549 0
M  V30 3958 C 371.51 -2.74642 1.22443 0
M  V30 3959 C 373.058 -2.88489 1.2142 0
M  V30 3960 C 373.533 -4.12329 1.9937 0
M  V30 3961 N 375.024 -4.194 1.96616 0
M  V30 3962 C 375.759 -5.14209 2.53727 0
M  V30 3963 N 375.255 -6.14709 3.19539 0
M  V30 3964 N 377.048 -5.06537 2.43673 0
M  V30 3965 H 369.199 -1.25377 1.71447 0
M  V30 3966 H 371.462 -0.608844 0.726645 0
M  V30 3967 H 371.168 -2.68 2.27747 0
M  V30 3968 H 371.042 -3.67745 0.839273 0
M  V30 3969 H 373.429 -2.94614 0.169232 0
M  V30 3970 H 373.51 -1.96406 1.63885 0
M  V30 3971 H 373.154 -4.06966 3.03877 0
M  V30 3972 H 373.084 -5.03486 1.54302 0
M  V30 3973 H 375.575 -3.47421 1.48684 0
M  V30 3974 H 375.888 -6.8354 3.60545 0
M  V30 3975 H 374.233 -6.1505 3.23633 0
M  V30 3976 H 377.424 -4.26962 1.91889 0
M  V30 3977 H 377.597 -5.80245 2.88479 0
M  V30 3978 N 371.003 -0.499398 -1.49478 0
M  V30 3979 C 371.913 0.284489 -2.32869 0
M  V30 3980 C 372.929 0.968885 -1.44529 0
M  V30 3981 O 374.105 0.95062 -1.77553 0
M  V30 3982 C 371.17 1.33594 -3.19928 0
M  V30 3983 C 370.231 0.665149 -4.24116 0
M  V30 3984 C 369.464 1.6665 -5.07014 0
M  V30 3985 O 369.687 2.89618 -4.91404 0
M  V30 3986 O 368.621 1.22271 -5.8935 0
M  V30 3987 H 372.447 -0.39802 -3.01081 0
M  V30 3988 H 370.032 -0.260758 -1.47107 0
M  V30 3989 H 371.914 1.94431 -3.73864 0
M  V30 3990 H 370.589 2.0014 -2.54412 0
M  V30 3991 H 369.496 0.0170769 -3.74096 0
M  V30 3992 H 370.829 0.0421555 -4.92182 0
M  V30 3993 N 372.481 1.55866 -0.233164 0
M  V30 3994 C 373.727 1.98897 0.395959 0
M  V30 3995 C 374.06 1.12091 1.58585 0
M  V30 3996 O 373.335 0.181182 1.93654 0
M  V30 3997 C 373.618 3.50658 0.819224 0
M  V30 3998 C 373.471 4.48233 -0.375109 0
M  V30 3999 C 374.79 4.07135 1.67121 0
M  V30 4000 H 371.909 0.723102 0.142451 0
M  V30 4001 H 374.551 1.87082 -0.331725 0
M  V30 4002 H 372.701 3.60857 1.43925 0
M  V30 4003 H 374.373 4.50031 -1.01341 0
M  V30 4004 H 372.616 4.21624 -1.02058 0
M  V30 4005 H 373.287 5.51988 -0.0358328 0
M  V30 4006 H 375.763 3.99952 1.14795 0
M  V30 4007 H 374.639 5.13615 1.93625 0
M  V30 4008 H 374.9 3.54736 2.63846 0
M  V30 4009 N 373.959 -0.0401083 1.57549 0
M  V30 4010 C 375.205 -0.734211 1.89043 0
M  V30 4011 C 375.538 -1.75591 0.829535 0
M  V30 4012 O 374.813 -1.93868 -0.156706 0
M  V30 4013 C 375.096 -1.41374 3.31188 0
M  V30 4014 C 374.949 -0.406299 4.47961 0
M  V30 4015 C 376.268 -2.35061 3.72068 0
M  V30 4016 H 373.387 -0.265447 0.687537 0
M  V30 4017 H 376.029 0.00294087 1.9 0
M  V30 4018 H 374.179 -2.04206 3.30503 0
M  V30 4019 H 375.851 0.219255 4.60779 0
M  V30 4020 H 374.094 0.275485 4.32924 0
M  V30 4021 H 374.765 -0.920022 5.44279 0
M  V30 4022 H 377.241 -1.82282 3.74049 0
M  V30 4023 H 376.117 -2.79593 4.72355 0
M  V30 4024 H 376.378 -3.21258 3.0372 0
M  V30 4025 N 375.437 -1.54477 -0.31217 0
M  V30 4026 C 376.714 -1.63891 -1.06767 0
M  V30 4027 C 377.094 -0.480028 -2.0557 0
M  V30 4028 O 376.442 0.524487 -2.22399 0
M  V30 4029 C 376.652 -3.01402 -1.75948 0
M  V30 4030 C 378 -3.57838 -2.28554 0
M  V30 4031 O 379.024 -3.03782 -1.85998 0
M  V30 4032 O 377.883 -4.52462 -3.06497 0
M  V30 4033 H 374.977 -0.664125 -0.492816 0
M  V30 4034 H 377.523 -1.66823 -0.311149 0
M  V30 4035 H 376.295 -3.77187 -1.04144 0
M  V30 4036 H 375.918 -3.02199 -2.58383 0
M  V30 4037 N 376.915 0.57481 -1.46744 0
M  V30 4038 C 378.163 1.33009 -1.52161 0
M  V30 4039 C 378.484 1.94185 -0.178092 0
M  V30 4040 O 377.754 1.7899 0.796196 0
M  V30 4041 H 376.334 0.493873 -0.560445 0
M  V30 4042 H 378.996 0.672589 -1.82927 0
M  V30 4043 H 378.092 2.13273 -2.27862 0
M  V30 4044 N 378.394 1.34581 0.820102 0
M  V30 4045 C 379.324 1.29038 1.94606 0
M  V30 4046 C 380.305 0.1673 1.69275 0
M  V30 4047 O 381.49 0.360112 1.90832 0
M  V30 4048 C 378.62 1.04793 3.31113 0
M  V30 4049 C 377.574 2.13597 3.70891 0
M  V30 4050 C 376.9 1.74537 5.05412 0
M  V30 4051 C 378.2 3.55451 3.8269 0
M  V30 4052 H 379.894 2.23248 1.99501 0
M  V30 4053 H 377.44 1.0747 0.958449 0
M  V30 4054 H 379.393 0.995592 4.0947 0
M  V30 4055 H 378.117 0.0702565 3.26524 0
M  V30 4056 H 376.776 2.17905 2.9481 0
M  V30 4057 H 376.424 0.754226 4.97313 0
M  V30 4058 H 376.124 2.47361 5.32997 0
M  V30 4059 H 377.648 1.70803 5.86224 0
M  V30 4060 H 379.062 3.5354 4.51312 0
M  V30 4061 H 377.459 4.26922 4.21732 0
M  V30 4062 H 378.529 3.92587 2.84611 0
M  V30 4063 N 379.872 -1.04064 1.18357 0
M  V30 4064 C 380.782 -2.15569 0.925596 0
M  V30 4065 C 381.798 -1.7365 -0.110295 0
M  V30 4066 O 382.974 -2.01273 0.0716218 0
M  V30 4067 C 380.039 -3.43704 0.454836 0
M  V30 4068 C 379.1 -4.00004 1.55869 0
M  V30 4069 C 378.333 -5.22023 1.1103 0
M  V30 4070 O 378.556 -5.70392 -0.0309756 0
M  V30 4071 O 377.49 -5.70856 1.90805 0
M  V30 4072 H 381.316 -2.40187 1.8586 0
M  V30 4073 H 378.901 -1.1402 0.965394 0
M  V30 4074 H 380.783 -4.20923 0.200382 0
M  V30 4075 H 379.458 -3.20559 -0.449876 0
M  V30 4076 H 378.365 -3.24172 1.86716 0
M  V30 4077 H 379.698 -4.2749 2.43953 0
M  V30 4078 N 381.35 -0.985608 -1.22978 0
M  V30 4079 C 382.297 -0.529825 -2.24636 0
M  V30 4080 C 383.267 0.434028 -1.60329 0
M  V30 4081 O 384.452 0.340414 -1.87739 0
M  V30 4082 C 381.592 0.156533 -3.44745 0
M  V30 4083 C 380.705 -0.848197 -4.23591 0
M  V30 4084 C 379.84 -0.136109 -5.31026 0
M  V30 4085 C 378.879 -1.1297 -6.01585 0
M  V30 4086 N 378.016 -0.446415 -7.00679 0
M  V30 4087 H 382.856 -1.40148 -2.62988 0
M  V30 4088 H 380.393 -0.702168 -1.29259 0
M  V30 4089 H 382.351 0.571324 -4.1327 0
M  V30 4090 H 380.981 0.992025 -3.07179 0
M  V30 4091 H 380.033 -1.38135 -3.54433 0
M  V30 4092 H 381.345 -1.60512 -4.72268 0
M  V30 4093 H 380.499 0.335784 -6.0577 0
M  V30 4094 H 379.238 0.653373 -4.83304 0
M  V30 4095 H 378.243 -1.6123 -5.25628 0
M  V30 4096 H 379.468 -1.91993 -6.51395 0
M  V30 4097 H 377.414 0.323763 -6.55201 0
M  V30 4098 H 377.331 -1.1419 -7.47326 0
M  V30 4099 H 378.599 0.00291697 -7.795 0
M  V30 4100 N 382.828 1.3818 -0.7579 0
M  V30 4101 C 383.791 2.28764 -0.141286 0
M  V30 4102 C 384.791 1.47388 0.642907 0
M  V30 4103 O 385.981 1.67781 0.468536 0
M  V30 4104 C 383.113 3.31184 0.808069 0
M  V30 4105 H 384.306 2.848 -0.939633 0
M  V30 4106 H 381.859 1.47212 -0.525191 0
M  V30 4107 H 382.594 2.80247 1.63193 0
M  V30 4108 H 382.379 3.91314 0.248104 0
M  V30 4109 H 383.869 3.98909 1.23536 0
M  V30 4110 N 384.306 0.507319 1.49211 0
M  V30 4111 C 385.555 -0.0368315 2.01666 0
M  V30 4112 C 385.868 -1.37459 1.39156 0
M  V30 4113 O 387.074 -2.00579 1.82976 0
M  V30 4114 C 385.53 -0.116089 3.59713 0
M  V30 4115 C 385.138 1.2154 4.31198 0
M  V30 4116 C 386.882 -0.610268 4.2009 0
M  V30 4117 C 384.789 1.09796 5.81119 0
M  V30 4118 H 383.719 -0.0175376 0.753796 0
M  V30 4119 H 386.37 0.647691 1.71689 0
M  V30 4120 H 384.752 -0.8652 3.86433 0
M  V30 4121 H 385.926 1.9783 4.16173 0
M  V30 4122 H 384.241 1.64352 3.82593 0
M  V30 4123 H 386.838 -0.715742 5.29888 0
M  V30 4124 H 387.181 -1.61064 3.8388 0
M  V30 4125 H 387.714 0.0824916 3.97714 0
M  V30 4126 H 384.453 2.0728 6.21864 0
M  V30 4127 H 383.973 0.376058 5.9862 0
M  V30 4128 H 385.652 0.779281 6.4229 0
M  V30 4129 N 385.784 -1.5574 0.241426 0
M  V30 4130 C 387.014 -2.02913 -0.38857 0
M  V30 4131 C 387.422 -1.12014 -1.52478 0
M  V30 4132 O 386.765 -0.125903 -1.83268 0
M  V30 4133 C 386.827 -3.4636 -0.963075 0
M  V30 4134 C 386.491 -4.56982 0.0401916 0
M  V30 4135 C 387.488 -5.12941 0.847766 0
M  V30 4136 C 385.173 -5.0203 0.164699 0
M  V30 4137 C 387.167 -6.12437 1.76636 0
M  V30 4138 C 384.854 -6.01358 1.0868 0
M  V30 4139 C 385.852 -6.5644 1.88616 0
M  V30 4140 O 385.54 -7.53831 2.79273 0
M  V30 4141 H 385.272 -0.668983 -0.0971452 0
M  V30 4142 H 387.826 -2.02198 0.361248 0
M  V30 4143 H 386.056 -3.44206 -1.76235 0
M  V30 4144 H 387.745 -3.77065 -1.50257 0
M  V30 4145 H 388.511 -4.78974 0.762133 0
M  V30 4146 H 384.39 -4.58824 -0.447411 0
M  V30 4147 H 387.934 -6.55355 2.39071 0
M  V30 4148 H 383.831 -6.34746 1.17338 0
M  V30 4149 H 384.599 -7.71428 2.73572 0
M  V30 4150 N 387.262 0.0317525 -1.57568 0
M  V30 4151 C 388.209 1.0332 -2.06382 0
M  V30 4152 C 389.179 1.36082 -0.952414 0
M  V30 4153 O 390.364 1.46466 -1.2228 0
M  V30 4154 C 387.504 2.32989 -2.54578 0
M  V30 4155 C 386.617 2.0641 -3.79498 0
M  V30 4156 C 385.752 3.2993 -4.16317 0
M  V30 4157 C 384.791 2.98893 -5.34162 0
M  V30 4158 N 383.928 4.14857 -5.66426 0
M  V30 4159 H 388.768 0.609982 -2.9169 0
M  V30 4160 H 386.305 0.289573 -1.44222 0
M  V30 4161 H 388.263 3.0875 -2.80587 0
M  V30 4162 H 386.893 2.73039 -1.7219 0
M  V30 4163 H 385.945 1.21158 -3.6059 0
M  V30 4164 H 387.257 1.79513 -4.65378 0
M  V30 4165 H 386.411 4.1406 -4.4344 0
M  V30 4166 H 385.15 3.59938 -3.29083 0
M  V30 4167 H 384.155 2.13164 -5.06795 0
M  V30 4168 H 385.38 2.70165 -6.23047 0
M  V30 4169 H 383.326 4.44821 -4.82151 0
M  V30 4170 H 383.243 3.91374 -6.4681 0
M  V30 4171 H 384.511 4.99868 -5.98124 0
M  V30 4172 N 388.74 1.54641 0.303973 0
M  V30 4173 C 389.988 1.73437 1.0375 0
M  V30 4174 C 390.309 0.521449 1.87899 0
M  V30 4175 O 389.579 -0.46432 1.90318 0
M  V30 4176 H 388.159 0.639518 0.386039 0
M  V30 4177 H 390.821 1.91988 0.335675 0
M  V30 4178 H 389.917 2.62235 1.69231 0
M  V30 4179 N 390.218 -0.567019 1.47046 0
M  V30 4180 C 391.629 -1.14916 1.47143 0
M  V30 4181 C 391.98 -1.94954 0.220767 0
M  V30 4182 O 391.105 -2.05602 -0.67505 0
M  V30 4183 C 391.7 -2.09069 2.666 0
M  V30 4184 C 390.259 -2.62575 2.69687 0
M  V30 4185 C 389.406 -1.38755 2.40088 0
M  V30 4186 H 392.357 -0.354126 1.54699 0
M  V30 4187 H 392.378 -2.92789 2.43011 0
M  V30 4188 H 391.89 -1.50789 3.57609 0
M  V30 4189 H 389.991 -3.24681 1.82792 0
M  V30 4190 H 390.104 -3.04239 3.70102 0
M  V30 4191 H 388.468 -1.69098 1.90468 0
M  V30 4192 H 389.251 -0.822822 3.33293 0
M  V30 4193 N 391.696 -1.35014 -0.812953 0
M  V30 4194 C 392.944 -1.27678 -1.56661 0
M  V30 4195 C 393.265 0.150359 -1.94419 0
M  V30 4196 O 392.535 1.08532 -1.63088 0
M  V30 4197 H 391.115 -0.469602 -0.580933 0
M  V30 4198 H 393.777 -1.69043 -0.970076 0
M  V30 4199 H 392.873 -1.88833 -2.48492 0
M  V30 4200 N 393.175 1.03435 -1.18907 0
M  V30 4201 C 394.4 1.80919 -1.01406 0
M  V30 4202 C 394.825 1.83055 0.432721 0
M  V30 4203 O 394.183 1.25252 1.31079 0
M  V30 4204 C 394.231 3.24091 -1.58105 0
M  V30 4205 O 393.335 4.04434 -0.806669 0
M  V30 4206 H 392.676 0.558709 -0.358803 0
M  V30 4207 H 395.206 1.30223 -1.57807 0
M  V30 4208 H 395.216 3.74853 -1.61087 0
M  V30 4209 H 393.891 3.21851 -2.6341 0
M  V30 4210 H 392.468 3.63091 -0.849666 0
M  V30 4211 N 394.653 0.992116 1.22453 0
M  V30 4212 C 395.563 0.55065 2.28046 0
M  V30 4213 C 396.579 -0.400189 1.69335 0
M  V30 4214 O 397.755 -0.267215 1.99619 0
M  V30 4215 C 394.82 -0.128496 3.46462 0
M  V30 4216 C 393.881 0.865208 4.20491 0
M  V30 4217 C 393.114 0.218377 5.33253 0
M  V30 4218 O 393.337 -0.987894 5.6178 0
M  V30 4219 O 392.271 0.922845 5.94783 0
M  V30 4220 H 396.097 1.4291 2.67975 0
M  V30 4221 H 393.682 0.760326 1.28606 0
M  V30 4222 H 395.564 -0.508947 4.18315 0
M  V30 4223 H 394.239 -0.981526 3.0846 0
M  V30 4224 H 393.146 1.29658 3.50913 0
M  V30 4225 H 394.479 1.68741 4.62371 0
M  V30 4226 N 396.131 -1.37776 0.765217 0
M  V30 4227 C 397.094 -2.28686 0.153416 0
M  V30 4228 C 398.094 -1.47727 -0.635081 0
M  V30 4229 O 399.284 -1.68027 -0.459632 0
M  V30 4230 C 396.416 -3.31608 -0.790495 0
M  V30 4231 H 397.609 -2.84297 0.954723 0
M  V30 4232 H 395.162 -1.46932 0.53299 0
M  V30 4233 H 395.897 -2.81109 -1.61705 0
M  V30 4234 H 395.682 -3.9144 -0.227348 0
M  V30 4235 H 397.172 -3.99559 -1.21419 0
M  V30 4236 N 397.609 -0.515225 -1.4894 0
M  V30 4237 C 398.857 0.0241671 -2.02086 0
M  V30 4238 C 399.178 1.3616 -1.3959 0
M  V30 4239 O 398.448 1.87841 -0.556121 0
M  V30 4240 H 397.028 0.0119203 -0.746905 0
M  V30 4241 H 399.69 -0.675702 -1.82812 0
M  V30 4242 H 398.786 0.143385 -3.1177 0
M  V30 4243 N 399.087 1.5561 -0.249682 0
M  V30 4244 C 400.498 1.84979 0.252949 0
M  V30 4245 C 400.849 1.17153 1.57384 0
M  V30 4246 O 399.974 0.450884 2.11651 0
M  V30 4247 C 400.569 3.35584 0.465732 0
M  V30 4248 C 399.128 3.65169 0.912624 0
M  V30 4249 C 398.275 2.77299 -0.00859085 0
M  V30 4250 H 401.226 1.51513 -0.47217 0
M  V30 4251 H 401.247 3.57313 1.30795 0
M  V30 4252 H 400.759 3.8492 -0.49579 0
M  V30 4253 H 398.86 3.21312 1.88652 0
M  V30 4254 H 398.973 4.72912 0.767559 0
M  V30 4255 H 397.337 2.49678 0.50327 0
M  V30 4256 H 398.12 3.29442 -0.965537 0
M  V30 4257 O 400.604 0.114399 1.61094 0
M  V30 4258 H 401.295 -0.485048 1.87529 0
M  V30 END ATOM
M  V30 BEGIN BOND
M  V30 END BOND
M  V30 END CTAB
M  END
$$$$
