2605
  -OEChem-10051720013D

 55 58  0     0  0  0  0  0  0999 V2000
   -0.3969    3.6076    0.1495 O   0  0  0  0  0  0  0  0  0  0  0  0
    7.2299   -1.6506    1.1039 O   0  0  0  0  0  0  0  0  0  0  0  0
    7.1354   -1.4613   -1.1592 O   0  0  0  0  0  0  0  0  0  0  0  0
   -2.7836   -2.0207   -0.2436 C   0  0  0  0  0  0  0  0  0  0  0  0
   -5.4264   -0.5383    0.1860 C   0  0  0  0  0  0  0  0  0  0  0  0
   -4.1021   -2.7062    0.1785 C   0  0  0  0  0  0  0  0  0  0  0  0
   -5.3207   -1.9783   -0.3632 C   0  0  0  0  0  0  0  0  0  0  0  0
   -2.8516   -0.4997   -0.0565 C   0  0  0  0  0  0  0  0  0  0  0  0
   -4.0758    0.1876    0.1342 C   0  0  0  0  0  0  0  0  0  0  0  0
   -2.4858   -2.3239   -1.7288 C   0  0  0  0  0  0  0  0  0  0  0  0
   -1.6656   -2.6580    0.6158 C   0  0  0  0  0  0  0  0  0  0  0  0
   -6.4990    0.1777   -0.6693 C   0  0  0  0  0  0  0  0  0  0  0  0
   -5.9157   -0.5694    1.6510 C   0  0  0  0  0  0  0  0  0  0  0  0
   -1.6575    0.2538   -0.1128 C   0  0  0  0  0  0  0  0  0  0  0  0
   -4.0407    1.5878    0.3203 C   0  0  0  0  0  0  0  0  0  0  0  0
   -1.6536    1.6372    0.0543 C   0  0  0  0  0  0  0  0  0  0  0  0
   -2.8462    2.3043    0.2796 C   0  0  0  0  0  0  0  0  0  0  0  0
   -0.4029    2.3769   -0.0031 C   0  0  0  0  0  0  0  0  0  0  0  0
    0.9122    1.7094   -0.2430 C   0  0  0  0  0  0  0  0  0  0  0  0
    1.6331    1.2675    0.8420 C   0  0  0  0  0  0  0  0  0  0  0  0
    1.3469    1.5645   -1.5365 C   0  0  0  0  0  0  0  0  0  0  0  0
    2.8712    0.6384    0.6330 C   0  0  0  0  0  0  0  0  0  0  0  0
    3.3490    0.4729   -0.6888 C   0  0  0  0  0  0  0  0  0  0  0  0
    2.5745    0.9414   -1.7627 C   0  0  0  0  0  0  0  0  0  0  0  0
    3.6453    0.1696    1.7071 C   0  0  0  0  0  0  0  0  0  0  0  0
    4.5870   -0.1564   -0.8976 C   0  0  0  0  0  0  0  0  0  0  0  0
    5.3432   -0.6156    0.1812 C   0  0  0  0  0  0  0  0  0  0  0  0
    4.8731   -0.4531    1.4811 C   0  0  0  0  0  0  0  0  0  0  0  0
    6.6234   -1.2650   -0.0522 C   0  0  0  0  0  0  0  0  0  0  0  0
   -4.1700   -2.7609    1.2724 H   0  0  0  0  0  0  0  0  0  0  0  0
   -4.1171   -3.7461   -0.1730 H   0  0  0  0  0  0  0  0  0  0  0  0
   -5.2767   -1.9659   -1.4596 H   0  0  0  0  0  0  0  0  0  0  0  0
   -6.2239   -2.5476   -0.1080 H   0  0  0  0  0  0  0  0  0  0  0  0
   -1.4991   -1.9499   -2.0265 H   0  0  0  0  0  0  0  0  0  0  0  0
   -2.4951   -3.4028   -1.9215 H   0  0  0  0  0  0  0  0  0  0  0  0
   -3.2171   -1.8571   -2.3976 H   0  0  0  0  0  0  0  0  0  0  0  0
   -1.7029   -3.7525    0.5569 H   0  0  0  0  0  0  0  0  0  0  0  0
   -0.6629   -2.3616    0.2907 H   0  0  0  0  0  0  0  0  0  0  0  0
   -1.7679   -2.3766    1.6705 H   0  0  0  0  0  0  0  0  0  0  0  0
   -6.7657    1.1620   -0.2705 H   0  0  0  0  0  0  0  0  0  0  0  0
   -6.1529    0.3211   -1.6997 H   0  0  0  0  0  0  0  0  0  0  0  0
   -7.4253   -0.4081   -0.7062 H   0  0  0  0  0  0  0  0  0  0  0  0
   -5.1767   -1.0224    2.3209 H   0  0  0  0  0  0  0  0  0  0  0  0
   -6.1128    0.4399    2.0312 H   0  0  0  0  0  0  0  0  0  0  0  0
   -6.8475   -1.1389    1.7446 H   0  0  0  0  0  0  0  0  0  0  0  0
   -0.7269   -0.2725   -0.3017 H   0  0  0  0  0  0  0  0  0  0  0  0
   -4.9550    2.1451    0.5080 H   0  0  0  0  0  0  0  0  0  0  0  0
   -2.8797    3.3806    0.4247 H   0  0  0  0  0  0  0  0  0  0  0  0
    1.2501    1.4033    1.8509 H   0  0  0  0  0  0  0  0  0  0  0  0
    0.7610    1.9209   -2.3782 H   0  0  0  0  0  0  0  0  0  0  0  0
    2.9217    0.8248   -2.7872 H   0  0  0  0  0  0  0  0  0  0  0  0
    3.2968    0.2863    2.7313 H   0  0  0  0  0  0  0  0  0  0  0  0
    4.9563   -0.2848   -1.9138 H   0  0  0  0  0  0  0  0  0  0  0  0
    5.4289   -0.7957    2.3494 H   0  0  0  0  0  0  0  0  0  0  0  0
    8.0924   -2.0868    0.9356 H   0  0  0  0  0  0  0  0  0  0  0  0
  1 18  2  0  0  0  0
  2 29  1  0  0  0  0
  2 55  1  0  0  0  0
  3 29  2  0  0  0  0
  4  6  1  0  0  0  0
  4  8  1  0  0  0  0
  4 10  1  0  0  0  0
  4 11  1  0  0  0  0
  5  7  1  0  0  0  0
  5  9  1  0  0  0  0
  5 12  1  0  0  0  0
  5 13  1  0  0  0  0
  6  7  1  0  0  0  0
  6 30  1  0  0  0  0
  6 31  1  0  0  0  0
  7 32  1  0  0  0  0
  7 33  1  0  0  0  0
  8  9  2  0  0  0  0
  8 14  1  0  0  0  0
  9 15  1  0  0  0  0
 10 34  1  0  0  0  0
 10 35  1  0  0  0  0
 10 36  1  0  0  0  0
 11 37  1  0  0  0  0
 11 38  1  0  0  0  0
 11 39  1  0  0  0  0
 12 40  1  0  0  0  0
 12 41  1  0  0  0  0
 12 42  1  0  0  0  0
 13 43  1  0  0  0  0
 13 44  1  0  0  0  0
 13 45  1  0  0  0  0
 14 16  2  0  0  0  0
 14 46  1  0  0  0  0
 15 17  2  0  0  0  0
 15 47  1  0  0  0  0
 16 17  1  0  0  0  0
 16 18  1  0  0  0  0
 17 48  1  0  0  0  0
 18 19  1  0  0  0  0
 19 20  2  0  0  0  0
 19 21  1  0  0  0  0
 20 22  1  0  0  0  0
 20 49  1  0  0  0  0
 21 24  2  0  0  0  0
 21 50  1  0  0  0  0
 22 23  2  0  0  0  0
 22 25  1  0  0  0  0
 23 24  1  0  0  0  0
 23 26  1  0  0  0  0
 24 51  1  0  0  0  0
 25 28  2  0  0  0  0
 25 52  1  0  0  0  0
 26 27  2  0  0  0  0
 26 53  1  0  0  0  0
 27 28  1  0  0  0  0
 27 29  1  0  0  0  0
 28 54  1  0  0  0  0
M  END
> <DATABASE_ID>
DB02741

> <DATABASE_NAME>
drugbank

> <ORIGINAL_SOURCE>
PUBCHEM

> <ORIGINAL_SOURCE_URL>
https://pubchem.ncbi.nlm.nih.gov/rest/pug/compound/inchikey/RWYREGSYPCNZTL-UHFFFAOYSA-N/SDF?record_type=3d

> <SMILES>
CC1(C)CCC(C)(C)C2=C1C=CC(=C2)C(=O)C1=CC2=C(C=C1)C=C(C=C2)C(O)=O

> <INCHI_IDENTIFIER>
InChI=1S/C26H26O3/c1-25(2)11-12-26(3,4)22-15-19(9-10-21(22)25)23(27)18-7-5-17-14-20(24(28)29)8-6-16(17)13-18/h5-10,13-15H,11-12H2,1-4H3,(H,28,29)

> <INCHI_KEY>
RWYREGSYPCNZTL-UHFFFAOYSA-N

> <FORMULA>
C26H26O3

> <MOLECULAR_WEIGHT>
386.4828

> <EXACT_MASS>
386.188194698

> <JCHEM_ACCEPTOR_COUNT>
3

> <JCHEM_AVERAGE_POLARIZABILITY>
44.76293406466041

> <JCHEM_BIOAVAILABILITY>
1

> <JCHEM_DONOR_COUNT>
1

> <JCHEM_FORMAL_CHARGE>
0

> <JCHEM_GHOSE_FILTER>
0

> <JCHEM_IUPAC>
6-(5,5,8,8-tetramethyl-5,6,7,8-tetrahydronaphthalene-2-carbonyl)naphthalene-2-carboxylic acid

> <ALOGPS_LOGP>
6.38

> <JCHEM_LOGP>
6.706045156666667

> <ALOGPS_LOGS>
-6.91

> <JCHEM_MDDR_LIKE_RULE>
0

> <JCHEM_NUMBER_OF_RINGS>
4

> <JCHEM_PHYSIOLOGICAL_CHARGE>
-1

> <JCHEM_PKA_STRONGEST_ACIDIC>
3.9882315569430715

> <JCHEM_PKA_STRONGEST_BASIC>
-7.455146103635045

> <JCHEM_POLAR_SURFACE_AREA>
54.37

> <JCHEM_REFRACTIVITY>
115.86949999999997

> <JCHEM_ROTATABLE_BOND_COUNT>
3

> <JCHEM_RULE_OF_FIVE>
0

> <ALOGPS_SOLUBILITY>
4.81e-05 g/l

> <JCHEM_TRADITIONAL_IUPAC>
6-(5,5,8,8-tetramethyl-6,7-dihydronaphthalene-2-carbonyl)naphthalene-2-carboxylic acid

> <JCHEM_VEBER_RULE>
0

> <DRUGBANK_ID>
DB02741

> <SECONDARY_ACCESSION_NUMBERS>
EXPT00233

> <DRUG_GROUPS>
experimental

> <GENERIC_NAME>
CD564

$$$$