drugbank_target|Q96EB6 NAD-dependent protein deacetylase sirtuin-1 (DB02709; DB13978; DB15493)
 OpenBabel12092120213D

  0  0  0     0  0            999 V3000
M  V30 BEGIN CTAB
M  V30 COUNTS 11255 11376 0 0 0
M  V30 BEGIN ATOM
M  V30 1 H -0.908 1.98254 -0.117106 0
M  V30 2 N 0 1.576 0 0
M  V30 3 C 0.933 2.03868 1.02534 0
M  V30 4 C 1.911 0.928543 1.3348 0
M  V30 5 O 3.095 1.19667 1.45644 0
M  V30 6 C 0.222 2.43627 2.35294 0
M  V30 7 C -0.732 3.65373 2.2001 0
M  V30 8 S 0.101 5.13292 1.52614 0
M  V30 9 C 1.257 5.56322 2.86805 0
M  V30 10 H 1.49 2.90518 0.631377 0
M  V30 11 H -0.977 1.52953 0.210867 0
M  V30 12 H 0.981 2.67203 3.11629 0
M  V30 13 H -0.358 1.57376 2.7183 0
M  V30 14 H -1.165 3.90944 3.18086 0
M  V30 15 H -1.563 3.418 1.51819 0
M  V30 16 H 0.729 5.58782 3.83104 0
M  V30 17 H 1.672 6.56266 2.65933 0
M  V30 18 H 2.08 4.83886 2.90714 0
M  V30 19 N 1.4781 -0.272755 1.55222 0
M  V30 20 C 2.4411 -1.32041 1.87344 0
M  V30 21 C 3.4411 -1.42342 0.74803 0
M  V30 22 O 4.6311 -1.41488 1.0162 0
M  V30 23 C 1.7631 -2.70173 2.07893 0
M  V30 24 H 2.9561 -1.04789 2.80997 0
M  V30 25 H 0.5091 -0.51083 1.47717 0
M  V30 26 H 1.2441 -3.02605 1.16622 0
M  V30 27 H 1.0291 -2.64082 2.89833 0
M  V30 28 H 2.5191 -3.45869 2.34017 0
M  V30 29 N 2.9562 -1.48159 -0.537278 0
M  V30 30 C 4.2332 -1.46291 -1.29839 0
M  V30 31 C 4.6132 -0.170613 -2.10409 0
M  V30 32 O 3.9612 0.847746 -2.12192 0
M  V30 33 C 4.1712 -2.72055 -2.18603 0
M  V30 34 C 5.5192 -3.20087 -2.7898 0
M  V30 35 O 6.5432 -2.72921 -2.28894 0
M  V30 36 O 5.4022 -4.02138 -3.70064 0
M  V30 37 H 2.4962 -0.583906 -0.585647 0
M  V30 38 H 5.0422 -1.60384 -0.554534 0
M  V30 39 H 3.8142 -3.57628 -1.58801 0
M  V30 40 H 3.4372 -2.60646 -3.00249 0
M  V30 41 N 4.4343 0.785586 -1.36625 0
M  V30 42 C 5.3443 1.92964 -1.33425 0
M  V30 43 C 6.3603 1.72394 -0.235851 0
M  V30 44 O 7.5363 1.95866 -0.468878 0
M  V30 45 C 4.6013 3.27884 -1.12662 0
M  V30 46 C 3.6623 3.61204 -2.32013 0
M  V30 47 C 2.8953 4.89687 -2.12231 0
M  V30 48 O 3.1183 5.59704 -1.09945 0
M  V30 49 O 2.0523 5.21752 -3.00098 0
M  V30 50 H 5.8783 1.98613 -2.29753 0
M  V30 51 H 3.4633 0.926384 -1.17211 0
M  V30 52 H 5.3453 4.08614 -1.03016 0
M  V30 53 H 4.0203 3.23118 -0.193991 0
M  V30 54 H 2.9273 2.80765 -2.47228 0
M  V30 55 H 4.2603 3.70698 -3.23796 0
M  V30 56 N 5.9124 1.20967 1.01018 0
M  V30 57 C 6.8754 0.965918 2.07853 0
M  V30 58 C 7.8754 -0.0610545 1.60684 0
M  V30 59 O 9.0654 0.175681 1.73312 0
M  V30 60 C 6.1974 0.455513 3.37843 0
M  V30 61 H 7.3904 1.91365 2.3091 0
M  V30 62 H 4.9434 1.02594 1.17916 0
M  V30 63 H 5.6784 -0.497381 3.20463 0
M  V30 64 H 5.4634 1.19622 3.73407 0
M  V30 65 H 6.9534 0.304667 4.16487 0
M  V30 66 N 7.3905 -1.2043 1.01659 0
M  V30 67 C 8.3535 -2.21433 0.591616 0
M  V30 68 C 9.3535 -1.57203 -0.338226 0
M  V30 69 O 10.5435 -1.73737 -0.126918 0
M  V30 70 C 7.6755 -3.40628 -0.136058 0
M  V30 71 H 8.8685 -2.60545 1.48514 0
M  V30 72 H 6.4215 -1.33893 0.806379 0
M  V30 73 H 7.1565 -3.07019 -1.04449 0
M  V30 74 H 6.9415 -3.88475 0.531917 0
M  V30 75 H 8.4315 -4.15475 -0.420735 0
M  V30 76 N 8.8686 -0.792821 -1.36206 0
M  V30 77 C 9.7986 -0.207853 -2.32573 0
M  V30 78 C 10.7796 0.659055 -1.56813 0
M  V30 79 O 11.9646 0.592176 -1.84951 0
M  V30 80 C 9.0946 0.655449 -3.41059 0
M  V30 81 C 8.0486 -0.111842 -4.27854 0
M  V30 82 C 7.3746 0.872274 -5.27537 0
M  V30 83 C 8.6746 -1.30299 -5.05786 0
M  V30 84 H 10.3686 -1.01294 -2.81744 0
M  V30 85 H 7.9146 -0.48854 -1.3546 0
M  V30 86 H 9.8676 1.07464 -4.07467 0
M  V30 87 H 8.5916 1.49328 -2.90463 0
M  V30 88 H 7.2506 -0.512053 -3.63006 0
M  V30 89 H 6.8986 1.70523 -4.73214 0
M  V30 90 H 6.5986 0.363291 -5.86476 0
M  V30 91 H 8.1226 1.28996 -5.96818 0
M  V30 92 H 9.5366 -0.959379 -5.65216 0
M  V30 93 H 7.9336 -1.7455 -5.74154 0
M  V30 94 H 9.0036 -2.09663 -4.37229 0
M  V30 95 N 10.3467 1.47872 -0.545128 0
M  V30 96 C 11.3097 2.28337 0.198717 0
M  V30 97 C 12.3097 1.36255 0.853888 0
M  V30 98 O 13.4997 1.59003 0.711606 0
M  V30 99 C 10.6317 3.15585 1.28915 0
M  V30 100 H 11.8247 2.95567 -0.507941 0
M  V30 101 H 9.3777 1.53362 -0.301616 0
M  V30 102 H 10.1127 2.53019 2.02859 0
M  V30 103 H 9.8977 3.83337 0.824309 0
M  V30 104 H 11.3877 3.76243 1.81194 0
M  V30 105 N 11.8248 0.280983 1.55075 0
M  V30 106 C 12.7548 -0.597469 2.25727 0
M  V30 107 C 13.7358 -1.15417 1.24952 0
M  V30 108 O 14.9208 -1.18722 1.53684 0
M  V30 109 C 12.0508 -1.7789 2.98283 0
M  V30 110 C 11.0048 -1.35347 4.06036 0
M  V30 111 C 10.3308 -2.61846 4.66198 0
M  V30 112 C 11.6308 -0.499354 5.19907 0
M  V30 113 H 13.3248 -0.00824265 2.99399 0
M  V30 114 H 10.8708 -0.0025244 1.44 0
M  V30 115 H 12.8238 -2.39937 3.46422 0
M  V30 116 H 11.5478 -2.39405 2.22155 0
M  V30 117 H 10.2068 -0.756156 3.58717 0
M  V30 118 H 9.8548 -3.21632 3.86732 0
M  V30 119 H 9.5548 -2.3409 5.38958 0
M  V30 120 H 11.0788 -3.24732 5.1709 0
M  V30 121 H 12.4928 -1.02498 5.64063 0
M  V30 122 H 10.8898 -0.316424 5.99265 0
M  V30 123 H 11.9598 0.480459 4.82514 0
M  V30 124 N 13.3029 -1.57598 0.00835791 0
M  V30 125 C 14.2349 -2.05811 -1.00868 0
M  V30 126 C 15.2479 -0.977579 -1.30182 0
M  V30 127 O 16.4369 -1.25421 -1.27011 0
M  V30 128 C 13.5369 -2.45016 -2.34137 0
M  V30 129 C 12.7099 -3.75903 -2.23643 0
M  V30 130 C 11.7689 -4.01884 -3.3967 0
M  V30 131 O 10.7949 -4.72433 -3.17483 0
M  V30 132 N 11.9969 -3.50432 -4.62793 0
M  V30 133 H 14.7619 -2.93684 -0.597458 0
M  V30 134 H 12.3229 -1.60909 -0.178852 0
M  V30 135 H 14.3149 -2.59506 -3.10546 0
M  V30 136 H 12.8849 -1.62618 -2.66972 0
M  V30 137 H 12.1049 -3.7141 -1.32091 0
M  V30 138 H 13.3929 -4.61695 -2.13812 0
M  V30 139 H 12.7909 -2.93317 -4.83716 0
M  V30 140 H 11.3479 -3.70236 -5.3644 0
M  V30 141 N 14.781 0.264519 -1.55364 0
M  V30 142 C 16.192 0.834936 -1.6699 0
M  V30 143 C 16.543 1.86718 -0.602552 0
M  V30 144 O 15.668 2.14899 0.254425 0
M  V30 145 C 16.263 1.5212 -3.02729 0
M  V30 146 C 14.822 2.03954 -3.16354 0
M  V30 147 C 13.969 0.884498 -2.62815 0
M  V30 148 H 16.92 0.0406869 -1.58648 0
M  V30 149 H 16.941 2.38853 -2.96191 0
M  V30 150 H 16.453 0.769668 -3.80392 0
M  V30 151 H 14.554 2.82041 -2.43482 0
M  V30 152 H 14.667 2.24902 -4.23032 0
M  V30 153 H 13.031 1.2802 -2.20188 0
M  V30 154 H 13.814 0.14634 -3.42988 0
M  V30 155 N 16.2591 1.48442 0.529413 0
M  V30 156 C 17.5071 1.56179 1.28267 0
M  V30 157 C 17.8281 0.237721 1.93546 0
M  V30 158 O 17.0981 -0.740779 1.81354 0
M  V30 159 H 15.6781 0.575367 0.476405 0
M  V30 160 H 18.3401 1.84909 0.61602 0
M  V30 161 H 17.4361 2.34312 2.06165 0
M  V30 162 N 17.7372 -0.778329 1.37039 0
M  V30 163 C 18.9852 -1.53361 1.31623 0
M  V30 164 C 19.3062 -1.94739 -0.100831 0
M  V30 165 O 18.5762 -1.65797 -1.04347 0
M  V30 166 H 17.1562 -0.568794 0.484234 0
M  V30 167 H 19.8182 -0.926742 1.71457 0
M  V30 168 H 18.9142 -2.43606 1.95096 0
M  V30 169 N 19.2153 -1.21501 -1.00376 0
M  V30 170 C 20.4403 -1.05977 -1.78279 0
M  V30 171 C 20.8653 0.385994 -1.84097 0
M  V30 172 O 20.2233 1.27849 -1.28547 0
M  V30 173 C 20.2713 -1.66302 -3.19963 0
M  V30 174 O 19.3753 -0.909333 -4.0225 0
M  V30 175 H 18.7163 -0.372906 -0.549397 0
M  V30 176 H 21.2463 -1.6107 -1.26165 0
M  V30 177 H 21.2563 -1.70574 -3.70632 0
M  V30 178 H 19.9313 -2.71515 -3.15043 0
M  V30 179 H 18.5083 -0.941795 -3.60811 0
M  V30 180 N 20.6934 1.19889 -1.02296 0
M  V30 181 C 22.1044 1.71124 -0.746568 0
M  V30 182 C 22.4554 1.81939 0.734335 0
M  V30 183 O 21.5804 1.48639 1.57275 0
M  V30 184 C 22.1754 3.10804 -1.34857 0
M  V30 185 C 20.7344 3.59323 -1.1209 0
M  V30 186 C 19.8814 2.3635 -1.45031 0
M  V30 187 H 22.8324 1.04813 -1.19163 0
M  V30 188 H 22.8534 3.73186 -0.742437 0
M  V30 189 H 22.3654 3.029 -2.42638 0
M  V30 190 H 20.4664 3.7255 -0.0610337 0
M  V30 191 H 20.5794 4.4378 -1.80544 0
M  V30 192 H 18.9434 2.39399 -0.869487 0
M  V30 193 H 19.7264 2.31081 -2.53883 0
M  V30 194 N 22.1715 0.800033 1.35784 0
M  V30 195 C 23.3965 0.388511 2.03729 0
M  V30 196 C 23.8215 -0.990481 1.5991 0
M  V30 197 O 23.1795 -1.64013 0.772612 0
M  V30 198 C 23.2275 0.4726 3.5749 0
M  V30 199 O 22.3315 -0.51646 4.09153 0
M  V30 200 H 21.6725 0.163271 0.643614 0
M  V30 201 H 24.2025 1.0841 1.73518 0
M  V30 202 H 24.2125 0.34003 4.06581 0
M  V30 203 H 22.8875 1.47848 3.88734 0
M  V30 204 H 21.4645 -0.344673 3.71304 0
M  V30 205 N 23.6496 -1.47581 0.552962 0
M  V30 206 C 24.6126 -2.28439 -0.186605 0
M  V30 207 C 25.6126 -1.36706 -0.84665 0
M  V30 208 O 26.8026 -1.59378 -0.703164 0
M  V30 209 C 23.9346 -3.16264 -1.2724 0
M  V30 210 H 25.1276 -2.95294 0.523609 0
M  V30 211 H 22.6806 -1.532 0.309745 0
M  V30 212 H 23.4156 -2.54091 -2.01514 0
M  V30 213 H 23.2006 -3.83769 -0.803968 0
M  V30 214 H 24.6906 -3.77198 -1.79196 0
M  V30 215 N 25.1277 -0.289203 -1.54924 0
M  V30 216 C 26.0907 0.579144 -2.21762 0
M  V30 217 C 27.0907 1.07047 -1.1999 0
M  V30 218 O 28.2807 0.968384 -1.44803 0
M  V30 219 C 25.4127 1.80055 -2.8947 0
M  V30 220 H 26.6057 -0.00464908 -2.999 0
M  V30 221 H 24.1587 -0.0399306 -1.56249 0
M  V30 222 H 24.8937 2.42449 -2.15381 0
M  V30 223 H 24.6787 1.45602 -3.64064 0
M  V30 224 H 26.1687 2.41773 -3.40493 0
M  V30 225 N 26.6058 1.57591 -0.0167156 0
M  V30 226 C 27.8538 1.90906 0.663285 0
M  V30 227 C 28.1748 0.892509 1.73376 0
M  V30 228 O 27.4448 -0.0677623 1.95783 0
M  V30 229 H 26.0248 0.704637 0.247983 0
M  V30 230 H 28.6868 1.94803 -0.0615909 0
M  V30 231 H 27.7828 2.9116 1.12393 0
M  V30 232 N 28.0839 -0.256276 1.55502 0
M  V30 233 C 29.0469 -1.30047 1.88734 0
M  V30 234 C 30.0469 -1.4154 0.763086 0
M  V30 235 O 31.2369 -1.40403 1.03115 0
M  V30 236 C 28.3689 -2.67953 2.10747 0
M  V30 237 H 29.5619 -1.01802 2.82093 0
M  V30 238 H 27.1149 -0.495134 1.4825 0
M  V30 239 H 27.8499 -3.01351 1.19825 0
M  V30 240 H 27.6349 -2.60993 2.92617 0
M  V30 241 H 29.1249 -3.43368 2.37673 0
M  V30 242 N 29.562 -1.4872 -0.521534 0
M  V30 243 C 30.839 -1.4766 -1.2828 0
M  V30 244 C 31.219 -0.19292 -2.10217 0
M  V30 245 O 30.567 0.825193 -2.13079 0
M  V30 246 C 30.777 -2.74358 -2.15705 0
M  V30 247 C 32.125 -3.23028 -2.75569 0
M  V30 248 O 33.149 -2.75333 -2.25987 0
M  V30 249 O 32.008 -4.0604 -3.65778 0
M  V30 250 H 29.102 -0.590085 -0.579421 0
M  V30 251 H 31.648 -1.60963 -0.537492 0
M  V30 252 H 30.42 -3.59292 -1.54999 0
M  V30 253 H 30.043 -2.63816 -2.97467 0
M  V30 254 N 31.0401 0.771051 -1.3745 0
M  V30 255 C 32.4561 1.07171 -1.18265 0
M  V30 256 C 32.6561 2.01491 -0.019287 0
M  V30 257 O 31.7121 2.44244 0.640408 0
M  V30 258 C 33.0251 1.66854 -2.50161 0
M  V30 259 C 34.5731 1.79109 -2.56689 0
M  V30 260 C 35.0481 2.42205 -3.88717 0
M  V30 261 N 36.5391 2.49655 -3.90162 0
M  V30 262 C 37.2741 2.9933 -4.8907 0
M  V30 263 N 36.7701 3.49172 -5.98374 0
M  V30 264 N 38.5631 2.9821 -4.76474 0
M  V30 265 H 30.7141 0.144796 -2.11906 0
M  V30 266 H 32.9771 0.126863 -0.939473 0
M  V30 267 H 32.6831 1.05017 -3.35655 0
M  V30 268 H 32.5571 2.6614 -2.673 0
M  V30 269 H 34.9441 2.40077 -1.71601 0
M  V30 270 H 35.0251 0.785757 -2.43433 0
M  V30 271 H 34.6691 1.81875 -4.74219 0
M  V30 272 H 34.5991 3.43345 -3.99276 0
M  V30 273 H 37.0901 2.14383 -3.11205 0
M  V30 274 H 37.4031 3.8548 -6.69795 0
M  V30 275 H 35.7481 3.47275 -6.02018 0
M  V30 276 H 38.9391 2.58572 -3.90203 0
M  V30 277 H 39.1121 3.36613 -5.53711 0
M  V30 278 N 32.5182 1.22032 0.997298 0
M  V30 279 C 33.4282 1.00271 2.12092 0
M  V30 280 C 34.4442 -0.047621 1.73935 0
M  V30 281 O 35.6202 0.144136 2.00884 0
M  V30 282 C 32.6852 0.578449 3.4184 0
M  V30 283 C 31.7462 1.70189 3.94125 0
M  V30 284 C 30.9792 1.29778 5.17681 0
M  V30 285 O 31.2022 0.174676 5.70132 0
M  V30 286 O 30.1362 2.11261 5.63607 0
M  V30 287 H 33.9622 1.94398 2.3333 0
M  V30 288 H 31.5472 1.00587 1.10465 0
M  V30 289 H 33.4292 0.351998 4.19927 0
M  V30 290 H 32.1042 -0.334019 3.21972 0
M  V30 291 H 31.0112 1.98282 3.1723 0
M  V30 292 H 32.3442 2.59206 4.18417 0
M  V30 293 N 33.9963 -1.19345 1.0293 0
M  V30 294 C 34.9593 -2.20793 0.615069 0
M  V30 295 C 35.9593 -1.57553 -0.321533 0
M  V30 296 O 37.1493 -1.73862 -0.108483 0
M  V30 297 C 34.2813 -3.40754 -0.0999222 0
M  V30 298 H 35.4743 -2.58955 1.51269 0
M  V30 299 H 33.0273 -1.3303 0.820534 0
M  V30 300 H 33.7623 -3.0811 -1.01187 0
M  V30 301 H 33.5473 -3.87889 0.57309 0
M  V30 302 H 35.0373 -4.15898 -0.376645 0
M  V30 303 N 35.4744 -0.807222 -1.35358 0
M  V30 304 C 36.4374 -0.223665 -2.28106 0
M  V30 305 C 37.4374 0.589354 -1.4961 0
M  V30 306 O 38.6274 0.407745 -1.69361 0
M  V30 307 C 35.7594 0.688149 -3.33882 0
M  V30 308 H 36.9524 -1.04169 -2.81227 0
M  V30 309 H 34.5054 -0.577921 -1.45223 0
M  V30 310 H 35.2404 1.52984 -2.85948 0
M  V30 311 H 35.0254 0.10687 -3.91954 0
M  V30 312 H 36.5154 1.09075 -4.03104 0
M  V30 313 N 36.9525 1.47285 -0.560781 0
M  V30 314 C 38.1775 2.07359 -0.0410566 0
M  V30 315 C 38.6025 1.41017 1.24483 0
M  V30 316 O 37.9605 0.486368 1.74654 0
M  V30 317 C 38.0085 3.6035 0.134123 0
M  V30 318 O 37.1125 3.94681 1.19587 0
M  V30 319 H 36.4535 0.661887 -0.0529291 0
M  V30 320 H 38.9835 1.89252 -0.777482 0
M  V30 321 H 38.9935 4.0652 0.347207 0
M  V30 322 H 37.6685 4.08034 -0.805047 0
M  V30 323 H 36.2455 3.60251 0.962987 0
M  V30 324 N 38.4306 0.297415 1.54768 0
M  V30 325 C 39.6556 -0.318435 2.04941 0
M  V30 326 C 40.0806 -1.4701 1.17345 0
M  V30 327 O 39.4386 -1.80436 0.176758 0
M  V30 328 C 39.4866 -0.755749 3.52592 0
M  V30 329 O 38.5906 -1.86088 3.68028 0
M  V30 330 H 37.9316 -0.062421 0.661059 0
M  V30 331 H 40.4616 0.438215 1.99852 0
M  V30 332 H 40.4716 -1.04552 3.94376 0
M  V30 333 H 39.1466 0.0867233 4.1581 0
M  V30 334 H 37.7236 -1.57193 3.38149 0
M  V30 335 N 39.9087 -1.5758 0.0250728 0
M  V30 336 C 41.3197 -1.79476 -0.514323 0
M  V30 337 C 41.6707 -0.934956 -1.72491 0
M  V30 338 O 40.7957 -0.144245 -2.15919 0
M  V30 339 C 41.3907 -3.25503 -0.939842 0
M  V30 340 C 39.9497 -3.48408 -1.42438 0
M  V30 341 C 39.0967 -2.74583 -0.387201 0
M  V30 342 H 42.0477 -1.567 0.25113 0
M  V30 343 H 42.0687 -3.34992 -1.80445 0
M  V30 344 H 41.5807 -3.88056 -0.0585628 0
M  V30 345 H 39.6817 -2.91103 -2.32572 0
M  V30 346 H 39.7947 -4.57119 -1.43455 0
M  V30 347 H 38.1587 -2.39942 -0.854409 0
M  V30 348 H 38.9417 -3.39849 0.485543 0
M  V30 349 N 41.3868 0.248026 -1.55636 0
M  V30 350 C 42.3498 1.29044 -1.89421 0
M  V30 351 C 43.3498 1.41134 -0.770581 0
M  V30 352 O 44.5398 1.39854 -1.03858 0
M  V30 353 C 41.6718 2.66831 -2.12165 0
M  V30 354 H 42.8648 1.00305 -2.82629 0
M  V30 355 H 40.4178 0.487265 -1.48511 0
M  V30 356 H 41.1528 3.00711 -1.21422 0
M  V30 357 H 40.9378 2.59438 -2.93997 0
M  V30 358 H 42.4278 3.42103 -2.3949 0
M  V30 359 N 42.8649 1.48995 0.513639 0
M  V30 360 C 44.1129 1.57531 1.26604 0
M  V30 361 C 44.4339 0.258236 1.93283 0
M  V30 362 O 43.7039 -0.721502 1.8213 0
M  V30 363 H 42.2839 0.580387 0.470276 0
M  V30 364 H 44.9459 1.85552 0.596373 0
M  V30 365 H 44.0419 2.36486 2.03669 0
M  V30 366 N 44.343 -0.763751 1.37857 0
M  V30 367 C 45.253 -1.90817 1.36478 0
M  V30 368 C 46.269 -1.71997 0.263248 0
M  V30 369 O 47.445 -1.95095 0.499979 0
M  V30 370 C 44.51 -3.2605 1.17864 0
M  V30 371 C 43.571 -3.57467 2.3773 0
M  V30 372 C 42.804 -4.86249 2.19995 0
M  V30 373 O 43.027 -5.57884 1.18836 0
M  V30 374 O 41.961 -5.16911 3.08361 0
M  V30 375 H 45.787 -1.94933 2.32884 0
M  V30 376 H 43.372 -0.907619 1.1867 0
M  V30 377 H 45.254 -4.06924 1.09504 0
M  V30 378 H 43.929 -3.22769 0.245372 0
M  V30 379 H 42.836 -2.76796 2.51664 0
M  V30 380 H 44.169 -3.655 3.29652 0
M  V30 381 N 45.8211 -1.22559 -0.990812 0
M  V30 382 C 47.2321 -1.04791 -1.54518 0
M  V30 383 C 47.5831 0.387998 -1.92325 0
M  V30 384 O 46.7081 1.27328 -1.74976 0
M  V30 385 C 47.3031 -1.896 -2.80779 0
M  V30 386 C 45.8621 -1.76124 -3.32652 0
M  V30 387 C 45.0091 -1.8594 -2.05722 0
M  V30 388 H 47.9601 -1.36374 -0.811662 0
M  V30 389 H 47.9811 -1.41464 -3.53225 0
M  V30 390 H 47.4931 -2.94101 -2.53231 0
M  V30 391 H 45.5941 -0.743643 -3.65104 0
M  V30 392 H 45.7071 -2.58913 -4.03114 0
M  V30 393 H 44.0711 -1.29403 -2.19379 0
M  V30 394 H 44.8541 -2.91976 -1.80568 0
M  V30 395 N 47.2992 1.18797 -1.03562 0
M  V30 396 C 48.2292 2.24472 -0.643019 0
M  V30 397 C 49.2102 1.66433 0.351283 0
M  V30 398 O 50.3952 1.92803 0.232505 0
M  V30 399 C 47.5252 3.473 4.24935e-05 0
M  V30 400 C 46.4792 4.18055 -0.917257 0
M  V30 401 C 45.8052 5.34519 -0.138941 0
M  V30 402 C 47.1052 4.72109 -2.23407 0
M  V30 403 H 48.7992 2.57566 -1.52643 0
M  V30 404 H 46.3452 1.23806 -0.735394 0
M  V30 405 H 48.2982 4.20426 0.286383 0
M  V30 406 H 47.0222 3.13424 0.918299 0
M  V30 407 H 45.6812 3.46821 -1.1879 0
M  V30 408 H 45.3292 4.96891 0.781562 0
M  V30 409 H 45.0292 5.82794 -0.750005 0
M  V30 410 H 46.5532 6.10438 0.1405 0
M  V30 411 H 47.9672 5.36955 -2.00879 0
M  V30 412 H 46.3642 5.30897 -2.79765 0
M  V30 413 H 47.4342 3.89807 -2.88407 0
M  V30 414 N 48.7773 0.814389 1.34928 0
M  V30 415 C 50.1933 0.499084 1.51596 0
M  V30 416 C 50.3933 -0.978319 1.76157 0
M  V30 417 O 49.4493 -1.76309 1.80752 0
M  V30 418 C 50.7623 1.35121 2.68631 0
M  V30 419 C 52.3103 1.34746 2.82511 0
M  V30 420 C 52.7853 2.18388 4.0258 0
M  V30 421 N 54.2763 2.15966 4.09772 0
M  V30 422 C 55.0113 2.77437 5.01813 0
M  V30 423 N 54.5073 3.47866 5.99134 0
M  V30 424 N 56.3003 2.67037 4.94619 0
M  V30 425 H 48.4513 1.7711 1.17243 0
M  V30 426 H 50.7143 0.754256 0.574284 0
M  V30 427 H 50.4203 2.40001 2.57085 0
M  V30 428 H 50.2943 1.00991 3.63429 0
M  V30 429 H 52.6813 0.30648 2.93504 0
M  V30 430 H 52.7623 1.72869 1.88547 0
M  V30 431 H 52.4063 3.2253 3.92347 0
M  V30 432 H 52.3363 1.77621 4.9574 0
M  V30 433 H 54.8273 1.64729 3.40107 0
M  V30 434 H 55.1403 3.92038 6.65977 0
M  V30 435 H 53.4853 3.51972 5.99284 0
M  V30 436 H 56.6763 2.11597 4.17546 0
M  V30 437 H 56.8493 3.15232 5.66156 0
M  V30 438 N 50.2554 -1.46986 0.568584 0
M  V30 439 C 51.2024 -2.30153 -0.172707 0
M  V30 440 C 52.1724 -1.39759 -0.897586 0
M  V30 441 O 53.3574 -1.68716 -0.891044 0
M  V30 442 C 50.4974 -3.23952 -1.1895 0
M  V30 443 C 49.6104 -4.29441 -0.469517 0
M  V30 444 C 48.7454 -5.1038 -1.47259 0
M  V30 445 C 47.7844 -6.07632 -0.738225 0
M  V30 446 N 46.9214 -6.8149 -1.68868 0
M  V30 447 H 51.7614 -2.93019 0.542596 0
M  V30 448 H 49.2984 -1.44422 0.279401 0
M  V30 449 H 51.2564 -3.76767 -1.79173 0
M  V30 450 H 49.8864 -2.62926 -1.87269 0
M  V30 451 H 48.9384 -3.79594 0.247467 0
M  V30 452 H 50.2504 -4.98689 0.105241 0
M  V30 453 H 49.4044 -5.67402 -2.14803 0
M  V30 454 H 48.1434 -4.4106 -2.08128 0
M  V30 455 H 47.1484 -5.49778 -0.0489293 0
M  V30 456 H 48.3734 -6.78966 -0.135129 0
M  V30 457 H 46.3194 -6.14891 -2.28573 0
M  V30 458 H 46.2364 -7.46948 -1.16636 0
M  V30 459 H 47.5044 -7.43078 -2.3549 0
M  V30 460 N 51.7335 -0.305618 -1.54608 0
M  V30 461 C 53.1495 0.0476228 -1.59529 0
M  V30 462 C 53.3495 1.52025 -1.32252 0
M  V30 463 O 52.4055 2.27368 -1.09818 0
M  V30 464 C 53.7185 -0.354471 -2.98603 0
M  V30 465 C 55.2665 -0.303622 -3.11524 0
M  V30 466 C 55.7415 -0.680608 -4.52915 0
M  V30 467 N 57.2325 -0.63332 -4.5885 0
M  V30 468 C 57.9675 -0.897432 -5.66334 0
M  V30 469 N 57.4635 -1.22775 -6.81834 0
M  V30 470 N 59.2565 -0.824186 -5.56025 0
M  V30 471 H 51.4075 -1.2653 -1.70599 0
M  V30 472 H 53.6705 -0.513291 -0.797017 0
M  V30 473 H 53.3765 -1.3798 -3.23503 0
M  V30 474 H 53.2505 0.289568 -3.76087 0
M  V30 475 H 55.6375 0.712472 -2.8637 0
M  V30 476 H 55.7185 -0.982348 -2.36185 0
M  V30 477 H 55.3625 -1.69453 -4.78799 0
M  V30 478 H 55.2925 0.0202385 -5.26596 0
M  V30 479 H 57.7835 -0.389138 -3.75891 0
M  V30 480 H 58.0965 -1.41513 -7.59733 0
M  V30 481 H 56.4415 -1.26583 -6.83375 0
M  V30 482 H 59.6325 -0.565748 -4.64669 0
M  V30 483 H 59.8055 -1.03338 -6.39707 0
M  V30 484 N 53.2116 1.57565 -0.0334293 0
M  V30 485 C 54.6226 1.79746 0.504798 0
M  V30 486 C 54.9736 0.944091 1.71992 0
M  V30 487 O 54.0986 0.155694 2.15839 0
M  V30 488 C 54.6936 3.25997 0.922567 0
M  V30 489 C 53.2526 3.49159 1.40588 0
M  V30 490 C 52.3996 2.74785 0.372633 0
M  V30 491 H 55.3506 1.56565 -0.259436 0
M  V30 492 H 55.3716 3.35945 1.78666 0
M  V30 493 H 54.8836 3.88081 0.0379825 0
M  V30 494 H 52.9846 2.92332 2.31025 0
M  V30 495 H 53.0976 4.57873 1.41028 0
M  V30 496 H 51.4616 2.40391 0.841672 0
M  V30 497 H 52.2446 3.39587 -0.503559 0
M  V30 498 N 54.6897 -0.239769 1.55765 0
M  V30 499 C 56.1057 -0.588624 1.48349 0
M  V30 500 C 56.3057 -1.88005 0.72502 0
M  V30 501 O 55.3617 -2.51186 0.257269 0
M  V30 502 C 56.6747 -0.68474 2.928 0
M  V30 503 C 58.2227 -0.77659 3.03213 0
M  V30 504 C 58.6977 -0.904207 4.48986 0
M  V30 505 N 60.1887 -0.968896 4.52953 0
M  V30 506 C 60.9237 -1.08703 5.63002 0
M  V30 507 N 60.4197 -1.17026 6.82845 0
M  V30 508 N 62.2127 -1.12074 5.50814 0
M  V30 509 H 54.3637 0.607911 2.03515 0
M  V30 510 H 56.6267 0.21083 0.924259 0
M  V30 511 H 56.3327 0.194284 3.51163 0
M  V30 512 H 56.2067 -1.55435 3.43686 0
M  V30 513 H 58.5937 -1.64606 2.44926 0
M  V30 514 H 58.6747 0.118315 2.55526 0
M  V30 515 H 58.3187 -0.0392633 5.07885 0
M  V30 516 H 58.2487 -1.81426 4.9436 0
M  V30 517 H 60.7397 -0.915633 3.6664 0
M  V30 518 H 61.0527 -1.25966 7.62465 0
M  V30 519 H 59.3977 -1.13971 6.85591 0
M  V30 520 H 62.5887 -1.05226 4.5612 0
M  V30 521 H 62.7617 -1.20936 6.36615 0
M  V30 522 N 56.1678 -1.49265 -0.50573 0
M  V30 523 C 57.5838 -1.35923 -0.836486 0
M  V30 524 C 57.7838 -0.388704 -1.97715 0
M  V30 525 O 56.8398 0.181336 -2.51848 0
M  V30 526 C 58.1528 -2.76531 -1.18115 0
M  V30 527 C 59.7008 -2.85197 -1.28964 0
M  V30 528 C 60.1758 -4.26561 -1.66761 0
M  V30 529 N 61.6668 -4.2935 -1.73819 0
M  V30 530 C 62.4018 -5.35693 -2.045 0
M  V30 531 N 61.8978 -6.52287 -2.33438 0
M  V30 532 N 63.6908 -5.23105 -2.05711 0
M  V30 533 H 55.8418 -2.10965 0.246519 0
M  V30 534 H 58.1048 -0.9468 0.0476887 0
M  V30 535 H 57.8108 -3.49226 -0.416398 0
M  V30 536 H 57.6848 -3.11599 -2.1257 0
M  V30 537 H 60.0718 -2.12742 -2.04511 0
M  V30 538 H 60.1528 -2.53718 -0.325704 0
M  V30 539 H 59.7968 -4.99541 -0.917656 0
M  V30 540 H 59.7268 -4.55502 -2.64246 0
M  V30 541 H 62.2178 -3.4526 -1.53635 0
M  V30 542 H 62.5308 -7.29158 -2.56024 0
M  V30 543 H 60.8758 -6.55521 -2.30905 0
M  V30 544 H 64.0668 -4.31026 -1.82577 0
M  V30 545 H 64.2398 -6.06078 -2.29289 0
M  V30 546 N 57.6459 0.756429 -1.3826 0
M  V30 547 C 58.9229 1.50584 -1.24835 0
M  V30 548 C 59.3029 2.10556 0.151485 0
M  V30 549 O 58.6509 1.96825 1.1607 0
M  V30 550 C 58.8609 2.57448 -2.3563 0
M  V30 551 C 60.2089 3.24429 -2.73917 0
M  V30 552 O 61.2329 2.67751 -2.34921 0
M  V30 553 O 60.0919 4.26937 -3.41156 0
M  V30 554 H 57.1859 0.667664 -0.48801 0
M  V30 555 H 59.7319 0.792083 -1.5008 0
M  V30 556 H 58.5039 2.11362 -3.29305 0
M  V30 557 H 58.1269 3.36408 -2.11933 0
M  V30 558 N 59.124 1.23083 0.984299 0
M  V30 559 C 60.372 1.05848 1.72165 0
M  V30 560 C 60.693 -0.406049 1.90726 0
M  V30 561 O 59.963 -1.29139 1.47309 0
M  V30 562 H 58.543 0.388685 0.637913 0
M  V30 563 H 61.205 1.54736 1.18503 0
M  V30 564 H 60.301 1.54327 2.71274 0
M  V30 565 N 60.6021 -1.18246 1.0419 0
M  V30 566 C 62.0131 -1.69914 0.773698 0
M  V30 567 C 62.3641 -1.83085 -0.705297 0
M  V30 568 O 61.4891 -1.51123 -1.5489 0
M  V30 569 C 62.0841 -3.08619 1.39784 0
M  V30 570 C 60.6431 -3.57494 1.17792 0
M  V30 571 C 59.7901 -2.34013 1.48773 0
M  V30 572 H 62.7411 -1.02904 1.20816 0
M  V30 573 H 62.7621 -3.71958 0.801714 0
M  V30 574 H 62.2741 -2.99001 2.47426 0
M  V30 575 H 60.3751 -3.72406 0.120295 0
M  V30 576 H 60.4881 -4.40852 1.87581 0
M  V30 577 H 58.8521 -2.37986 0.907463 0
M  V30 578 H 59.6351 -2.27013 2.57527 0
M  V30 579 N 62.0802 -0.821533 -1.34494 0
M  V30 580 C 63.3282 -0.408139 -1.97936 0
M  V30 581 C 63.6492 1.03193 -1.65457 0
M  V30 582 O 62.9192 1.71622 -0.944595 0
M  V30 583 H 61.4992 -0.147928 -0.732206 0
M  V30 584 H 64.1612 -1.05067 -1.64155 0
M  V30 585 H 63.2572 -0.52601 -3.07635 0
M  V30 586 N 63.5583 1.46682 -0.576371 0
M  V30 587 C 64.4883 2.33028 0.148397 0
M  V30 588 C 65.4693 1.44961 0.889956 0
M  V30 589 O 66.6543 1.73789 0.866662 0
M  V30 590 C 63.7843 3.27117 1.1667 0
M  V30 591 C 62.7383 4.24575 0.540386 0
M  V30 592 C 62.0643 5.08126 1.6647 0
M  V30 593 C 63.3643 5.19722 -0.518331 0
M  V30 594 H 65.0583 2.93875 -0.572509 0
M  V30 595 H 62.6043 1.41315 -0.276768 0
M  V30 596 H 64.5573 3.86374 1.68204 0
M  V30 597 H 63.2813 2.64364 1.9178 0
M  V30 598 H 61.9403 3.66571 0.0461769 0
M  V30 599 H 61.5883 4.41762 2.40531 0
M  V30 600 H 61.2883 5.74122 1.25131 0
M  V30 601 H 62.8123 5.70246 2.18293 0
M  V30 602 H 64.2263 5.73232 -0.0883058 0
M  V30 603 H 62.6233 5.94026 -0.851679 0
M  V30 604 H 63.6933 4.64037 -1.40703 0
M  V30 605 N 65.0364 0.313813 1.54444 0
M  V30 606 C 65.9464 -0.565714 2.27677 0
M  V30 607 C 66.9624 -1.13754 1.31666 0
M  V30 608 O 68.1384 -1.15959 1.64668 0
M  V30 609 C 65.2034 -1.71528 3.01296 0
M  V30 610 C 64.2644 -1.17624 4.12872 0
M  V30 611 C 63.4974 -2.27102 4.8297 0
M  V30 612 O 63.7204 -3.47256 4.52514 0
M  V30 613 O 62.6544 -1.9307 5.70094 0
M  V30 614 H 66.4804 0.0287296 3.03686 0
M  V30 615 H 64.0654 0.0798312 1.49187 0
M  V30 616 H 65.9474 -2.38476 3.4743 0
M  V30 617 H 64.6224 -2.29608 2.2817 0
M  V30 618 H 63.5294 -0.472124 3.71109 0
M  V30 619 H 64.8624 -0.640695 4.88012 0
M  V30 620 N 66.5145 -1.57545 0.0417849 0
M  V30 621 C 67.9305 -1.56467 -0.314704 0
M  V30 622 C 68.1305 -1.04859 -1.72066 0
M  V30 623 O 67.1865 -0.700983 -2.42575 0
M  V30 624 C 68.4995 -3.00317 -0.15174 0
M  V30 625 C 70.0475 -3.12201 -0.223553 0
M  V30 626 C 70.5225 -4.57913 -0.0892295 0
M  V30 627 N 72.0135 -4.6297 -0.145808 0
M  V30 628 C 72.7485 -5.73362 -0.0658459 0
M  V30 629 N 72.2445 -6.92769 0.0659282 0
M  V30 630 N 74.0375 -5.6197 -0.12075 0
M  V30 631 H 66.1885 -1.89416 0.961014 0
M  V30 632 H 68.4515 -0.871862 0.372237 0
M  V30 633 H 68.1575 -3.42073 0.817254 0
M  V30 634 H 68.0315 -3.65892 -0.916692 0
M  V30 635 H 70.4185 -2.70349 -1.18301 0
M  V30 636 H 70.4995 -2.49323 0.571994 0
M  V30 637 H 70.1435 -5.00448 0.866867 0
M  V30 638 H 70.0735 -5.18786 -0.903802 0
M  V30 639 H 72.5645 -3.7709 -0.247286 0
M  V30 640 H 72.8775 -7.72707 0.119905 0
M  V30 641 H 71.2225 -6.94927 0.100885 0
M  V30 642 H 74.4135 -4.67572 -0.222187 0
M  V30 643 H 74.5865 -6.47977 -0.0549735 0
M  V30 644 N 67.9926 0.231505 -1.5589 0
M  V30 645 C 69.2176 0.978689 -1.82856 0
M  V30 646 C 69.6426 1.77559 -0.620846 0
M  V30 647 O 69.0006 1.76119 0.430305 0
M  V30 648 C 69.0486 1.87997 -3.07716 0
M  V30 649 O 68.1526 2.97393 -2.85712 0
M  V30 650 H 67.4936 0.277663 -0.603158 0
M  V30 651 H 70.0236 0.24783 -2.03093 0
M  V30 652 H 70.0336 2.2917 -3.37558 0
M  V30 653 H 68.7086 1.29417 -3.95252 0
M  V30 654 H 67.2856 2.60238 -2.67078 0
M  V30 655 N 69.4707 1.49531 0.497807 0
M  V30 656 C 70.8817 1.52344 1.07927 0
M  V30 657 C 71.2327 0.311469 1.93712 0
M  V30 658 O 70.3577 -0.578405 2.08527 0
M  V30 659 C 70.9527 2.76062 1.96405 0
M  V30 660 C 69.5117 2.81643 2.49709 0
M  V30 661 C 68.6587 2.46299 1.27404 0
M  V30 662 H 71.6097 1.56182 0.281576 0
M  V30 663 H 71.6307 2.56405 2.81135 0
M  V30 664 H 71.1427 3.64254 1.33943 0
M  V30 665 H 69.2437 1.97739 3.15801 0
M  V30 666 H 69.3567 3.83891 2.86643 0
M  V30 667 H 67.7207 1.98148 1.60029 0
M  V30 668 H 68.5037 3.36769 0.66645 0
M  V30 669 N 70.9488 -0.749086 1.3866 0
M  V30 670 C 72.1968 -1.50535 1.34847 0
M  V30 671 C 72.5178 -1.94909 -0.0595016 0
M  V30 672 O 71.7878 -1.67973 -1.00806 0
M  V30 673 H 70.3678 -0.558395 0.49619 0
M  V30 674 H 73.0298 -0.890165 1.73384 0
M  V30 675 H 72.1258 -2.39413 2.00219 0
M  V30 676 N 72.4269 -1.23603 -0.977757 0
M  V30 677 C 73.3369 -1.03632 -2.1047 0
M  V30 678 C 74.3529 0.0199435 -1.73989 0
M  V30 679 O 75.5289 -0.176076 -2.00629 0
M  V30 680 C 72.5939 -0.63276 -3.40877 0
M  V30 681 C 71.6549 -1.76437 -3.91367 0
M  V30 682 C 70.8879 -1.37997 -5.15551 0
M  V30 683 O 71.1109 -0.265357 -5.69782 0
M  V30 684 O 70.0449 -2.20201 -5.60174 0
M  V30 685 H 73.8709 -1.98086 -2.30208 0
M  V30 686 H 71.4559 -1.02332 -1.08851 0
M  V30 687 H 73.3379 -0.418761 -4.19314 0
M  V30 688 H 72.0129 0.282754 -3.22463 0
M  V30 689 H 70.9199 -2.03304 -3.14036 0
M  V30 690 H 72.2529 -2.6583 -4.14241 0
M  V30 691 N 73.905 1.17692 -1.04816 0
M  V30 692 C 75.316 1.69501 -0.782698 0
M  V30 693 C 75.667 1.83456 0.695577 0
M  V30 694 O 74.792 1.51942 1.54086 0
M  V30 695 C 75.387 3.07874 -1.41419 0
M  V30 696 C 73.946 3.56864 -1.19686 0
M  V30 697 C 73.093 2.3322 -1.50012 0
M  V30 698 H 76.044 1.02262 -1.2136 0
M  V30 699 H 76.065 3.71528 -0.821428 0
M  V30 700 H 75.577 2.97685 -2.49009 0
M  V30 701 H 73.678 3.72337 -0.140043 0
M  V30 702 H 73.791 4.39851 -1.89916 0
M  V30 703 H 72.155 2.37501 -0.920071 0
M  V30 704 H 72.938 2.25644 -2.58727 0
M  V30 705 N 75.3831 0.828654 1.34056 0
M  V30 706 C 76.6311 0.41863 1.97717 0
M  V30 707 C 76.9521 -1.02314 1.66002 0
M  V30 708 O 76.2221 -1.71119 0.953683 0
M  V30 709 H 74.8021 0.151809 0.731412 0
M  V30 710 H 77.4641 1.05936 1.63596 0
M  V30 711 H 76.5601 0.542318 3.07352 0
M  V30 712 N 76.8612 -1.46375 0.584142 0
M  V30 713 C 78.1092 -2.01978 0.0701287 0
M  V30 714 C 78.4302 -1.4579 -1.295 0
M  V30 715 O 77.7002 -0.64314 -1.85042 0
M  V30 716 H 76.2802 -0.746648 0.0229345 0
M  V30 717 H 78.9422 -1.79461 0.760245 0
M  V30 718 H 78.0382 -3.121 0.0022064 0
M  V30 719 N 78.3393 -0.321999 -1.54275 0
M  V30 720 C 79.3023 0.531975 -2.22941 0
M  V30 721 C 80.3023 1.04478 -1.22234 0
M  V30 722 O 81.4923 0.937452 -1.46825 0
M  V30 723 C 78.6243 1.73874 -2.93224 0
M  V30 724 H 79.8173 -0.0682612 -2.99822 0
M  V30 725 H 77.3703 -0.0730644 -1.56129 0
M  V30 726 H 78.1053 2.37825 -2.20476 0
M  V30 727 H 77.8903 1.37847 -3.6707 0
M  V30 728 H 79.3803 2.34496 -3.45545 0
M  V30 729 N 79.8174 1.5752 -0.0501392 0
M  V30 730 C 80.7804 2.1037 0.909786 0
M  V30 731 C 81.7804 1.02308 1.24056 0
M  V30 732 O 82.9704 1.28385 1.17741 0
M  V30 733 C 80.1024 2.58708 2.21998 0
M  V30 734 H 81.2954 2.96479 0.451665 0
M  V30 735 H 78.8484 1.55038 0.198248 0
M  V30 736 H 79.5834 1.75989 2.72394 0
M  V30 737 H 79.3684 3.37675 1.99295 0
M  V30 738 H 80.8584 2.99747 2.9076 0
M  V30 739 N 81.2955 -0.223234 1.56011 0
M  V30 740 C 82.7065 -0.790368 1.69145 0
M  V30 741 C 83.0575 -1.85055 0.651845 0
M  V30 742 O 82.1825 -2.15498 -0.197359 0
M  V30 743 C 82.7775 -1.4404 3.06656 0
M  V30 744 C 81.3365 -1.95494 3.2165 0
M  V30 745 C 80.4835 -0.814506 2.65068 0
M  V30 746 H 83.4345 0.00139011 1.587 0
M  V30 747 H 83.4555 -2.30916 3.0242 0
M  V30 748 H 82.9675 -0.668543 3.82298 0
M  V30 749 H 81.0685 -2.75487 2.50874 0
M  V30 750 H 81.1815 -2.13607 4.28846 0
M  V30 751 H 79.5455 -1.22137 2.23505 0
M  V30 752 H 80.3285 -0.0553515 3.43255 0
M  V30 753 N 82.7736 -1.49793 -0.48987 0
M  V30 754 C 83.6836 -1.70036 -1.61632 0
M  V30 755 C 84.6996 -0.583102 -1.63939 0
M  V30 756 O 85.8756 -0.859169 -1.82154 0
M  V30 757 C 82.9406 -1.77277 -2.97949 0
M  V30 758 C 82.0016 -3.00918 -3.06181 0
M  V30 759 C 81.2346 -3.07804 -4.35996 0
M  V30 760 O 81.4576 -2.21982 -5.25433 0
M  V30 761 O 80.3916 -4.00369 -4.49431 0
M  V30 762 H 84.2176 -2.65486 -1.47482 0
M  V30 763 H 81.8026 -1.33666 -0.667362 0
M  V30 764 H 83.6846 -1.84329 -3.78947 0
M  V30 765 H 82.3596 -0.850076 -3.12339 0
M  V30 766 H 81.2666 -2.99377 -2.2433 0
M  V30 767 H 82.5996 -3.92704 -2.96723 0
M  V30 768 N 84.2517 0.741722 -1.39055 0
M  V30 769 C 85.6677 1.04638 -1.20512 0
M  V30 770 C 85.8677 2.01405 -0.0620218 0
M  V30 771 O 84.9237 2.45547 0.588457 0
M  V30 772 C 86.2367 1.6151 -2.53643 0
M  V30 773 C 87.7847 1.73623 -2.6043 0
M  V30 774 C 88.2597 2.33906 -3.93767 0
M  V30 775 N 89.7507 2.41323 -3.9537 0
M  V30 776 C 90.4857 2.88888 -4.95309 0
M  V30 777 N 89.9817 3.36401 -6.05645 0
M  V30 778 N 91.7747 2.88037 -4.82692 0
M  V30 779 H 83.9257 0.0998155 -2.12165 0
M  V30 780 H 86.1887 0.106907 -0.941953 0
M  V30 781 H 85.8947 0.978739 -3.37807 0
M  V30 782 H 85.7687 2.60411 -2.72885 0
M  V30 783 H 88.1557 2.36384 -1.76655 0
M  V30 784 H 88.2367 0.733945 -2.45045 0
M  V30 785 H 87.8807 1.71776 -4.7797 0
M  V30 786 H 87.8107 3.34799 -4.06469 0
M  V30 787 H 90.3017 2.07734 -3.15682 0
M  V30 788 H 90.6147 3.71186 -6.77821 0
M  V30 789 H 88.9597 3.34427 -6.09248 0
M  V30 790 H 92.1507 2.50237 -3.95599 0
M  V30 791 H 92.3237 3.24792 -5.60726 0
M  V30 792 N 85.7298 1.2412 0.971189 0
M  V30 793 C 86.6398 1.04747 2.09917 0
M  V30 794 C 87.6558 -0.0107162 1.73997 0
M  V30 795 O 88.8318 0.186714 2.00533 0
M  V30 796 C 85.8968 0.650828 3.40537 0
M  V30 797 C 84.9578 1.7851 3.90426 0
M  V30 798 C 84.1908 1.40729 5.14812 0
M  V30 799 O 84.4138 0.29557 5.69634 0
M  V30 800 O 83.3478 2.23168 5.58999 0
M  V30 801 H 87.1738 1.99304 2.29154 0
M  V30 802 H 84.7588 1.02908 1.08307 0
M  V30 803 H 86.6408 0.440992 4.19086 0
M  V30 804 H 85.3158 -0.265649 3.22608 0
M  V30 805 H 84.2228 2.04966 3.12953 0
M  V30 806 H 85.5558 2.68023 4.12825 0
M  V30 807 N 87.2079 -1.17134 1.05439 0
M  V30 808 C 88.4539 -1.87733 0.767077 0
M  V30 809 C 88.7869 -1.8098 -0.704253 0
M  V30 810 O 88.0619 -1.21951 -1.5152 0
M  V30 811 C 88.3449 -3.37659 1.25133 0
M  V30 812 C 88.1979 -3.53149 2.78578 0
M  V30 813 C 89.5169 -4.31768 0.852324 0
M  V30 814 H 86.6359 -0.681687 0.280129 0
M  V30 815 H 89.2779 -1.37732 1.30881 0
M  V30 816 H 87.4279 -3.80373 0.790469 0
M  V30 817 H 89.0999 -3.19434 3.32806 0
M  V30 818 H 87.3429 -2.95345 3.17732 0
M  V30 819 H 88.0139 -4.58403 3.07523 0
M  V30 820 H 90.4899 -3.96909 1.24911 0
M  V30 821 H 89.3659 -5.35199 1.21873 0
M  V30 822 H 89.6269 -4.41429 -0.243485 0
M  V30 823 N 88.686 -0.835752 -1.33615 0
M  V30 824 C 90.097 -0.487099 -1.80234 0
M  V30 825 C 90.448 0.993627 -1.69179 0
M  V30 826 O 89.573 1.77403 -1.23924 0
M  V30 827 C 90.168 -0.877385 -3.27242 0
M  V30 828 C 88.727 -0.580915 -3.7189 0
M  V30 829 C 87.874 -1.0874 -2.5509 0
M  V30 830 H 90.825 -1.02474 -1.2118 0
M  V30 831 H 90.846 -0.186195 -3.80044 0
M  V30 832 H 90.358 -1.95512 -3.35256 0
M  V30 833 H 88.459 0.486881 -3.69405 0
M  V30 834 H 88.572 -1.13396 -4.65487 0
M  V30 835 H 86.936 -0.508392 -2.49575 0
M  V30 836 H 87.719 -2.17184 -2.65868 0
M  V30 837 N 90.1641 1.46063 -0.591896 0
M  V30 838 C 91.1271 2.28854 0.125973 0
M  V30 839 C 92.1271 1.38903 0.810107 0
M  V30 840 O 93.3171 1.61186 0.66066 0
M  V30 841 C 90.4491 3.19526 1.1881 0
M  V30 842 H 91.6421 2.93802 -0.601717 0
M  V30 843 H 89.1951 1.52325 -0.350254 0
M  V30 844 H 89.9301 2.59345 1.94707 0
M  V30 845 H 89.7151 3.85766 0.701936 0
M  V30 846 H 91.2051 3.81817 1.69132 0
M  V30 847 N 91.6422 0.330177 1.54103 0
M  V30 848 C 92.6052 -0.520144 2.2322 0
M  V30 849 C 93.6052 -1.03828 1.22786 0
M  V30 850 O 94.7952 -0.929652 1.4732 0
M  V30 851 C 91.9272 -1.72317 2.94142 0
M  V30 852 H 93.1202 0.0841605 2.99782 0
M  V30 853 H 90.6732 0.0813433 1.56088 0
M  V30 854 H 91.4082 -2.36653 2.21734 0
M  V30 855 H 91.1932 -1.35898 3.67796 0
M  V30 856 H 92.6832 -2.3266 3.46784 0
M  V30 857 N 93.1203 -1.57491 0.0584922 0
M  V30 858 C 94.0833 -2.1085 -0.898617 0
M  V30 859 C 95.0833 -1.02964 -1.23511 0
M  V30 860 O 96.2733 -1.29007 -1.17059 0
M  V30 861 C 93.4053 -2.59881 -2.20623 0
M  V30 862 H 94.5983 -2.96715 -0.435936 0
M  V30 863 H 92.1513 -1.55141 -0.190023 0
M  V30 864 H 92.8863 -1.77431 -2.71457 0
M  V30 865 H 92.6713 -3.38727 -1.97501 0
M  V30 866 H 94.1613 -3.01285 -2.89166 0
M  V30 867 N 94.5984 0.214957 -1.56127 0
M  V30 868 C 96.0144 0.564948 -1.49267 0
M  V30 869 C 96.2144 1.86827 -0.754838 0
M  V30 870 O 95.2704 2.50745 -0.297198 0
M  V30 871 C 96.5834 0.638071 -2.93852 0
M  V30 872 C 98.1314 0.728253 -3.0441 0
M  V30 873 C 98.6064 0.832663 -4.50367 0
M  V30 874 N 100.097 0.896712 -4.54437 0
M  V30 875 C 100.832 0.997324 -5.6466 0
M  V30 876 N 100.328 1.06147 -6.8462 0
M  V30 877 N 102.121 1.03297 -5.52527 0
M  V30 878 H 94.2724 -0.640211 -2.02522 0
M  V30 879 H 96.5354 -0.225507 -0.920788 0
M  V30 880 H 96.2414 -0.250126 -3.50809 0
M  V30 881 H 96.1154 1.49947 -3.46115 0
M  V30 882 H 98.5024 1.60689 -2.47514 0
M  V30 883 H 98.5834 -0.158952 -2.55306 0
M  V30 884 H 98.2274 -0.0415417 -5.07883 0
M  V30 885 H 98.1574 1.73538 -4.97184 0
M  V30 886 H 100.648 0.857188 -3.6805 0
M  V30 887 H 100.961 1.1382 -7.64372 0
M  V30 888 H 99.3064 1.03049 -6.87318 0
M  V30 889 H 102.497 0.979558 -4.57736 0
M  V30 890 H 102.67 1.10793 -6.38458 0
M  V30 891 N 96.0765 1.50051 0.48192 0
M  V30 892 C 97.3245 1.60181 1.23234 0
M  V30 893 C 97.6455 0.299176 1.92691 0
M  V30 894 O 96.9155 -0.682708 1.83619 0
M  V30 895 H 95.4955 0.590232 0.457859 0
M  V30 896 H 98.1575 1.86775 0.556881 0
M  V30 897 H 97.2535 2.40753 1.98607 0
M  V30 898 N 97.5546 -0.734337 1.39446 0
M  V30 899 C 98.7946 -1.50655 1.38139 0
M  V30 900 C 99.1586 -1.91986 -0.0228701 0
M  V30 901 O 100.36 -2.68318 -0.160947 0
M  V30 902 C 98.6306 -2.71251 2.32718 0
M  V30 903 S 100.19 -3.60892 2.49605 0
M  V30 904 H 97.0076 -0.515315 0.489869 0
M  V30 905 H 99.6096 -0.860392 1.75549 0
M  V30 906 H 98.3136 -2.39027 3.33608 0
M  V30 907 H 97.8446 -3.40795 1.96526 0
M  V30 908 H 99.8596 -4.64899 1.73446 0
M  V30 909 N 99.0327 -1.24633 -0.964593 0
M  V30 910 C 100.444 -1.08045 -1.5226 0
M  V30 911 C 100.795 0.347116 -1.93105 0
M  V30 912 O 99.9197 1.23588 -1.77637 0
M  V30 913 C 100.515 -1.95514 -2.76695 0
M  V30 914 C 99.0737 -1.8314 -3.28841 0
M  V30 915 C 98.2207 -1.90262 -2.01732 0
M  V30 916 H 101.172 -1.38064 -0.782553 0
M  V30 917 H 101.193 -1.48925 -3.50145 0
M  V30 918 H 100.705 -2.99407 -2.46936 0
M  V30 919 H 98.8057 -0.82092 -3.63444 0
M  V30 920 H 98.9187 -2.67406 -3.97531 0
M  V30 921 H 97.2827 -1.34027 -2.16584 0
M  V30 922 H 98.0657 -2.9574 -1.74334 0
M  V30 923 N 100.511 1.16574 -1.06058 0
M  V30 924 C 101.759 1.86677 -0.77434 0
M  V30 925 C 102.08 1.81959 0.701147 0
M  V30 926 O 101.35 1.2515 1.50713 0
M  V30 927 H 99.9298 0.691134 -0.283449 0
M  V30 928 H 102.592 1.41378 -1.34158 0
M  V30 929 H 101.688 2.92181 -1.09711 0
M  V30 930 N 101.989 0.842826 1.3317 0
M  V30 931 C 102.952 0.284065 2.27433 0
M  V30 932 C 103.952 -0.54948 1.5112 0
M  V30 933 O 105.142 -0.362699 1.70382 0
M  V30 934 C 102.274 -0.599384 3.35589 0
M  V30 935 H 103.467 1.11589 2.78366 0
M  V30 936 H 101.02 0.616221 1.4364 0
M  V30 937 H 101.755 -1.45349 2.89904 0
M  V30 938 H 101.54 -0.00291266 3.921 0
M  V30 939 H 103.03 -0.983488 4.05854 0
M  V30 940 N 103.467 -1.45747 0.599634 0
M  V30 941 C 104.43 -2.28917 -0.113835 0
M  V30 942 C 105.43 -1.3933 -0.802729 0
M  V30 943 O 106.62 -1.61534 -0.652103 0
M  V30 944 C 103.752 -3.20152 -1.17114 0
M  V30 945 H 104.945 -2.93478 0.617289 0
M  V30 946 H 102.498 -1.52137 0.358327 0
M  V30 947 H 103.233 -2.60374 -1.93329 0
M  V30 948 H 103.018 -3.86133 -0.681468 0
M  V30 949 H 104.508 -3.82708 -1.67105 0
M  V30 950 N 104.945 -0.338344 -1.53925 0
M  V30 951 C 105.908 0.508299 -2.23493 0
M  V30 952 C 106.908 1.03175 -1.23335 0
M  V30 953 O 108.098 0.921826 -1.47811 0
M  V30 954 C 105.23 1.70754 -2.95052 0
M  V30 955 H 106.423 -0.100058 -2.99733 0
M  V30 956 H 103.976 -0.0896198 -1.56043 0
M  V30 957 H 104.711 2.35474 -2.22986 0
M  V30 958 H 104.496 1.33946 -3.68512 0
M  V30 959 H 105.986 2.30818 -3.48013 0
M  V30 960 N 106.423 1.57458 -0.0668435 0
M  V30 961 C 107.386 2.11323 0.887422 0
M  V30 962 C 108.386 1.03618 1.22964 0
M  V30 963 O 109.576 1.29626 1.16373 0
M  V30 964 C 106.708 2.61048 2.19242 0
M  V30 965 H 107.901 2.96942 0.420194 0
M  V30 966 H 105.454 1.55239 0.181793 0
M  V30 967 H 106.189 1.78868 2.70512 0
M  V30 968 H 105.974 3.39769 1.95702 0
M  V30 969 H 107.464 3.02814 2.87565 0
M  V30 970 N 107.901 -0.206675 1.56239 0
M  V30 971 C 108.864 -1.23976 1.92776 0
M  V30 972 C 109.864 -1.39041 0.807729 0
M  V30 973 O 111.054 -1.37051 1.0753 0
M  V30 974 C 108.186 -2.61112 2.19165 0
M  V30 975 H 109.379 -0.927764 2.85189 0
M  V30 976 H 106.932 -0.447718 1.4975 0
M  V30 977 H 107.667 -2.97386 1.29352 0
M  V30 978 H 107.452 -2.51552 3.00772 0
M  V30 979 H 108.942 -3.35633 2.48476 0
M  V30 980 N 109.379 -1.50304 -0.473955 0
M  V30 981 C 110.309 -1.71886 -1.58042 0
M  V30 982 C 111.29 -0.567799 -1.60344 0
M  V30 983 O 112.475 -0.806623 -1.76656 0
M  V30 984 C 109.605 -1.81036 -2.96384 0
M  V30 985 C 108.559 -2.962 -3.08949 0
M  V30 986 C 107.885 -2.9049 -4.48909 0
M  V30 987 C 109.185 -4.36752 -2.86434 0
M  V30 988 H 110.879 -2.64527 -1.40234 0
M  V30 989 H 108.425 -1.27295 -0.673201 0
M  V30 990 H 110.378 -1.94719 -3.73714 0
M  V30 991 H 109.102 -0.850147 -3.15341 0
M  V30 992 H 107.761 -2.82164 -2.3405 0
M  V30 993 H 107.409 -1.92321 -4.64781 0
M  V30 994 H 107.109 -3.67802 -4.58253 0
M  V30 995 H 108.633 -3.06218 -5.28264 0
M  V30 996 H 110.047 -4.5133 -3.53517 0
M  V30 997 H 108.444 -5.15493 -3.07225 0
M  V30 998 H 109.514 -4.49321 -1.82316 0
M  V30 999 N 110.857 0.726932 -1.39834 0
M  V30 1000 C 112.103 1.48771 -1.38704 0
M  V30 1001 C 112.458 1.92394 0.0146387 0
M  V30 1002 O 111.751 1.64474 0.982797 0
M  V30 1003 C 111.945 2.73495 -2.30077 0
M  V30 1004 C 111.774 2.42068 -3.78989 0
M  V30 1005 C 110.544 2.33966 -4.4787 0
M  V30 1006 C 112.742 2.0708 -4.70768 0
M  V30 1007 N 110.724 1.95095 -5.82075 0
M  V30 1008 C 112.095 1.78719 -5.93683 0
M  V30 1009 C 114.15 1.93618 -4.58712 0
M  V30 1010 C 112.853 1.3825 -7.05889 0
M  V30 1011 C 114.879 1.54553 -5.70848 0
M  V30 1012 C 114.241 1.27082 -6.92842 0
M  V30 1013 H 110.34 0.542919 -0.562817 0
M  V30 1014 H 112.924 0.84408 -1.75452 0
M  V30 1015 H 111.095 3.35625 -1.95474 0
M  V30 1016 H 112.827 3.39755 -2.19883 0
M  V30 1017 H 109.582 2.51331 -4.0141 0
M  V30 1018 H 110.006 1.7823 -6.53118 0
M  V30 1019 H 114.648 2.13522 -3.64922 0
M  V30 1020 H 112.366 1.17088 -7.99572 0
M  V30 1021 H 115.952 1.44731 -5.6351 0
M  V30 1022 H 114.832 0.973069 -7.78139 0
M  V30 1023 N 112.336 1.25143 0.95797 0
M  V30 1024 C 113.752 1.01892 1.22842 0
M  V30 1025 C 113.952 -0.266311 1.99732 0
M  V30 1026 O 113.008 -0.979913 2.3271 0
M  V30 1027 C 114.321 2.24004 2.00606 0
M  V30 1028 C 115.869 2.28731 2.13662 0
M  V30 1029 C 116.344 3.5049 2.94823 0
M  V30 1030 N 117.835 3.50866 3.02403 0
M  V30 1031 C 118.57 4.4174 3.65586 0
M  V30 1032 N 118.066 5.42882 4.30408 0
M  V30 1033 N 119.859 4.29429 3.62694 0
M  V30 1034 H 112.01 2.07718 0.443493 0
M  V30 1035 H 114.273 0.912031 0.258657 0
M  V30 1036 H 113.979 3.17395 1.51503 0
M  V30 1037 H 113.853 2.26907 3.01319 0
M  V30 1038 H 116.24 1.35865 2.61963 0
M  V30 1039 H 116.321 2.29848 1.12265 0
M  V30 1040 H 115.965 4.43676 2.47213 0
M  V30 1041 H 115.895 3.46617 3.96439 0
M  V30 1042 H 118.386 2.777 2.56302 0
M  V30 1043 H 118.699 6.0844 4.76467 0
M  V30 1044 H 117.044 5.46758 4.29047 0
M  V30 1045 H 120.235 3.49643 3.11236 0
M  V30 1046 H 120.408 5.00448 4.1165 0
M  V30 1047 N 113.814 -1.1601 1.06675 0
M  V30 1048 C 114.724 -2.24156 0.692179 0
M  V30 1049 C 115.74 -1.71507 -0.293513 0
M  V30 1050 O 116.916 -2.009 -0.141861 0
M  V30 1051 C 113.981 -3.46587 0.0884131 0
M  V30 1052 C 113.042 -4.14257 1.12646 0
M  V30 1053 C 112.275 -5.30844 0.551416 0
M  V30 1054 O 112.498 -5.66858 -0.634656 0
M  V30 1055 O 111.432 -5.87848 1.29298 0
M  V30 1056 H 115.258 -2.58513 1.59388 0
M  V30 1057 H 112.843 -1.23599 0.83926 0
M  V30 1058 H 114.725 -4.20679 -0.246361 0
M  V30 1059 H 113.4 -3.13994 -0.786712 0
M  V30 1060 H 112.307 -3.42118 1.51348 0
M  V30 1061 H 113.64 -4.50914 1.97325 0
M  V30 1062 N 115.292 -0.849877 -1.32721 0
M  V30 1063 C 116.255 -0.296122 -2.27279 0
M  V30 1064 C 117.255 0.541458 -1.5141 0
M  V30 1065 O 118.445 0.353658 -1.70572 0
M  V30 1066 C 115.577 0.581579 -3.35902 0
M  V30 1067 H 116.77 -1.13064 -2.77771 0
M  V30 1068 H 114.323 -0.62383 -1.43311 0
M  V30 1069 H 115.058 1.43809 -2.9067 0
M  V30 1070 H 114.843 -0.0178814 -3.92096 0
M  V30 1071 H 116.333 0.961951 -4.0637 0
M  V30 1072 N 116.77 1.45427 -0.607355 0
M  V30 1073 C 117.68 2.34325 0.113463 0
M  V30 1074 C 118.696 1.51226 0.860617 0
M  V30 1075 O 119.872 1.84029 0.818255 0
M  V30 1076 C 116.937 3.28839 1.09844 0
M  V30 1077 C 115.998 4.27844 0.353271 0
M  V30 1078 C 115.231 5.17842 1.29133 0
M  V30 1079 O 115.454 5.11264 2.52913 0
M  V30 1080 O 114.388 5.96713 0.788523 0
M  V30 1081 H 118.214 2.97364 -0.617094 0
M  V30 1082 H 115.799 1.44807 -0.367619 0
M  V30 1083 H 117.681 3.8708 1.66575 0
M  V30 1084 H 116.356 2.68365 1.81003 0
M  V30 1085 H 115.263 3.7322 -0.256494 0
M  V30 1086 H 116.596 4.91173 -0.317822 0
M  V30 1087 N 118.248 0.346503 1.53744 0
M  V30 1088 C 119.211 -0.496439 2.23759 0
M  V30 1089 C 120.211 -1.0252 1.2388 0
M  V30 1090 O 121.401 -0.913974 1.48297 0
M  V30 1091 C 118.533 -1.69187 2.95954 0
M  V30 1092 H 119.726 0.115952 2.99676 0
M  V30 1093 H 117.279 0.0978939 1.55993 0
M  V30 1094 H 118.014 -2.34288 2.24231 0
M  V30 1095 H 117.799 -1.31989 3.69217 0
M  V30 1096 H 119.289 -2.28969 3.49232 0
M  V30 1097 N 119.726 -1.57421 0.075193 0
M  V30 1098 C 120.636 -2.1642 -0.905511 0
M  V30 1099 C 121.652 -1.12828 -1.32461 0
M  V30 1100 O 122.828 -1.45109 -1.39661 0
M  V30 1101 C 119.893 -2.71693 -2.15369 0
M  V30 1102 C 118.954 -3.90171 -1.79068 0
M  V30 1103 C 118.187 -4.42798 -2.97936 0
M  V30 1104 O 118.41 -3.94416 -4.12058 0
M  V30 1105 O 117.344 -5.34085 -2.77555 0
M  V30 1106 H 121.17 -3.00588 -0.433626 0
M  V30 1107 H 118.755 -1.48664 -0.148067 0
M  V30 1108 H 120.637 -3.07104 -2.88557 0
M  V30 1109 H 119.312 -1.90582 -2.61649 0
M  V30 1110 H 118.219 -3.59606 -1.03122 0
M  V30 1111 H 119.552 -4.72584 -1.37569 0
M  V30 1112 N 121.204 0.198386 -1.56346 0
M  V30 1113 C 122.167 1.22952 -1.93431 0
M  V30 1114 C 123.167 1.38611 -0.815092 0
M  V30 1115 O 124.357 1.36479 -1.08255 0
M  V30 1116 C 121.489 2.59946 -2.20546 0
M  V30 1117 H 122.682 0.912626 -2.85677 0
M  V30 1118 H 120.235 0.43977 -1.49986 0
M  V30 1119 H 120.97 2.96696 -1.30927 0
M  V30 1120 H 120.755 2.49953 -3.02102 0
M  V30 1121 H 122.245 3.3431 -2.50253 0
M  V30 1122 N 122.682 1.50554 0.465978 0
M  V30 1123 C 123.645 1.69233 1.54574 0
M  V30 1124 C 124.645 0.562901 1.50626 0
M  V30 1125 O 125.835 0.830016 1.53155 0
M  V30 1126 C 122.967 1.7223 2.94193 0
M  V30 1127 H 124.16 2.65571 1.39327 0
M  V30 1128 H 121.713 1.40111 0.692711 0
M  V30 1129 H 122.448 0.77603 3.14878 0
M  V30 1130 H 122.233 2.54285 2.98466 0
M  V30 1131 H 123.723 1.88618 3.72576 0
M  V30 1132 N 124.16 -0.719506 1.40217 0
M  V30 1133 C 125.123 -1.8153 1.39927 0
M  V30 1134 C 126.123 -1.58095 0.293723 0
M  V30 1135 O 127.313 -1.65209 0.552429 0
M  V30 1136 C 124.445 -3.19561 1.18716 0
M  V30 1137 H 125.638 -1.83186 2.37451 0
M  V30 1138 H 123.191 -0.924746 1.26008 0
M  V30 1139 H 123.926 -3.23557 0.219366 0
M  V30 1140 H 123.711 -3.3797 1.98793 0
M  V30 1141 H 125.201 -3.99598 1.21291 0
M  V30 1142 N 125.638 -1.25649 -0.95132 0
M  V30 1143 C 126.601 -1.06399 -2.03007 0
M  V30 1144 C 127.601 -0.0156794 -1.60792 0
M  V30 1145 O 128.791 -0.25817 -1.72276 0
M  V30 1146 C 125.923 -0.616184 -3.35285 0
M  V30 1147 H 127.116 -2.02164 -2.21517 0
M  V30 1148 H 124.669 -1.08103 -1.12887 0
M  V30 1149 H 125.404 0.343917 -3.22471 0
M  V30 1150 H 125.189 -1.37301 -3.67275 0
M  V30 1151 H 126.679 -0.503032 -4.14559 0
M  V30 1152 N 127.117 1.15442 -1.07289 0
M  V30 1153 C 128.365 1.85845 -0.794096 0
M  V30 1154 C 128.686 1.82692 0.681809 0
M  V30 1155 O 127.956 1.26741 1.49377 0
M  V30 1156 H 126.536 0.688089 -0.290763 0
M  V30 1157 H 129.198 1.39947 -1.3565 0
M  V30 1158 H 128.294 2.91001 -1.12804 0
M  V30 1159 N 128.595 0.856903 1.32268 0
M  V30 1160 C 129.843 0.460474 1.96784 0
M  V30 1161 C 130.164 -0.987701 1.68135 0
M  V30 1162 O 129.434 -1.69058 0.989765 0
M  V30 1163 H 128.014 0.167289 0.728027 0
M  V30 1164 H 130.676 1.09383 1.61312 0
M  V30 1165 H 129.772 0.60739 3.06133 0
M  V30 1166 N 130.073 -1.45103 0.615059 0
M  V30 1167 C 130.983 -2.34382 -0.101034 0
M  V30 1168 C 131.999 -1.51681 -0.852585 0
M  V30 1169 O 133.175 -1.8446 -0.808484 0
M  V30 1170 C 130.24 -3.29417 -1.08099 0
M  V30 1171 C 129.301 -4.28025 -0.330577 0
M  V30 1172 C 128.534 -5.1852 -1.26385 0
M  V30 1173 O 128.757 -5.12598 -2.50198 0
M  V30 1174 O 127.691 -5.97122 -0.756866 0
M  V30 1175 H 131.517 -2.97033 0.632855 0
M  V30 1176 H 129.102 -1.4461 0.375293 0
M  V30 1177 H 130.984 -3.87958 -1.6452 0
M  V30 1178 H 129.659 -2.69321 -1.79577 0
M  V30 1179 H 128.566 -3.73078 0.276283 0
M  V30 1180 H 129.899 -4.90997 0.343866 0
M  V30 1181 N 131.551 -0.354651 -1.53558 0
M  V30 1182 C 132.483 0.5315 -2.22952 0
M  V30 1183 C 133.496 1.05503 -1.23988 0
M  V30 1184 O 134.685 0.963279 -1.50277 0
M  V30 1185 C 131.785 1.74538 -2.90499 0
M  V30 1186 C 130.958 1.35524 -4.15875 0
M  V30 1187 C 130.017 2.42999 -4.66731 0
M  V30 1188 O 129.043 2.05844 -5.30676 0
M  V30 1189 N 130.245 3.74423 -4.43608 0
M  V30 1190 H 133.01 -0.0628615 -2.99634 0
M  V30 1191 H 130.571 -0.179302 -1.60904 0
M  V30 1192 H 132.563 2.45892 -3.21433 0
M  V30 1193 H 131.133 2.24686 -2.17336 0
M  V30 1194 H 130.353 0.471998 -3.91364 0
M  V30 1195 H 131.641 1.07071 -4.97406 0
M  V30 1196 H 131.039 4.07391 -3.92491 0
M  V30 1197 H 129.596 4.41913 -4.7912 0
M  V30 1198 N 133.029 1.57378 -0.0835403 0
M  V30 1199 C 133.939 2.16897 0.894021 0
M  V30 1200 C 134.955 1.13528 1.31861 0
M  V30 1201 O 136.131 1.45848 1.3889 0
M  V30 1202 C 133.196 2.72831 2.13925 0
M  V30 1203 C 132.257 3.91115 1.76997 0
M  V30 1204 C 131.49 4.44371 2.95584 0
M  V30 1205 O 131.713 3.96596 4.09961 0
M  V30 1206 O 130.647 5.35549 2.74719 0
M  V30 1207 H 134.473 3.00814 0.417679 0
M  V30 1208 H 132.058 1.48741 0.140181 0
M  V30 1209 H 133.94 3.0863 2.86924 0
M  V30 1210 H 132.615 1.91967 2.60635 0
M  V30 1211 H 131.522 3.60148 1.01214 0
M  V30 1212 H 132.855 4.73307 1.3506 0
M  V30 1213 N 134.507 -0.190092 1.56449 0
M  V30 1214 C 135.47 -1.21925 1.9408 0
M  V30 1215 C 136.47 -1.38176 0.822431 0
M  V30 1216 O 137.66 -1.35903 1.08977 0
M  V30 1217 C 134.792 -2.58773 2.21922 0
M  V30 1218 H 135.985 -0.897464 2.86157 0
M  V30 1219 H 133.538 -0.43181 1.50217 0
M  V30 1220 H 134.273 -2.95998 1.32499 0
M  V30 1221 H 134.058 -2.48348 3.03424 0
M  V30 1222 H 135.548 -3.32978 2.52022 0
M  V30 1223 N 135.985 -1.50799 -0.457987 0
M  V30 1224 C 136.917 -1.66786 -1.57211 0
M  V30 1225 C 137.93 -0.548962 -1.53265 0
M  V30 1226 O 139.119 -0.8226 -1.58416 0
M  V30 1227 C 136.219 -1.64834 -2.96113 0
M  V30 1228 C 135.392 -2.92971 -3.24787 0
M  V30 1229 C 134.451 -2.83485 -4.43309 0
M  V30 1230 O 133.477 -3.5744 -4.42973 0
M  V30 1231 N 134.679 -1.97929 -5.45714 0
M  V30 1232 H 137.444 -2.62889 -1.43909 0
M  V30 1233 H 135.005 -1.48427 -0.646617 0
M  V30 1234 H 136.997 -1.56084 -3.7339 0
M  V30 1235 H 135.567 -0.764118 -3.03117 0
M  V30 1236 H 134.787 -3.15749 -2.36 0
M  V30 1237 H 136.075 -3.77834 -3.40762 0
M  V30 1238 H 135.473 -1.37182 -5.48815 0
M  V30 1239 H 134.03 -1.95073 -6.21924 0
M  V30 1240 N 137.463 0.71206 -1.40597 0
M  V30 1241 C 138.426 1.80785 -1.40888 0
M  V30 1242 C 139.426 1.57937 -0.302103 0
M  V30 1243 O 140.616 1.64913 -0.561182 0
M  V30 1244 C 137.748 3.18927 -1.20409 0
M  V30 1245 H 138.941 1.81924 -2.38419 0
M  V30 1246 H 136.494 0.91805 -1.26497 0
M  V30 1247 H 137.229 3.23436 -0.236522 0
M  V30 1248 H 137.014 3.36911 -2.00582 0
M  V30 1249 H 138.504 3.98949 -1.23408 0
M  V30 1250 N 138.941 1.26152 0.944643 0
M  V30 1251 C 140.169 1.14259 1.72489 0
M  V30 1252 C 140.584 -0.302555 1.8636 0
M  V30 1253 O 139.941 -1.20741 1.36849 0
M  V30 1254 C 139.992 1.80266 3.13347 0
M  V30 1255 O 139.713 3.19133 3.00143 0
M  V30 1256 C 141.214 1.74283 4.07603 0
M  V30 1257 H 138.434 0.398051 0.540181 0
M  V30 1258 H 140.978 1.66706 1.18446 0
M  V30 1259 H 139.133 1.31766 3.64303 0
M  V30 1260 H 139.547 3.51744 3.89071 0
M  V30 1261 H 141.021 2.25111 5.04013 0
M  V30 1262 H 141.498 0.708631 4.33446 0
M  V30 1263 H 142.104 2.22319 3.62567 0
M  V30 1264 N 140.419 -1.14872 1.07899 0
M  V30 1265 C 141.382 -2.17986 0.708161 0
M  V30 1266 C 142.382 -1.58775 -0.25442 0
M  V30 1267 O 143.572 -1.74166 -0.034645 0
M  V30 1268 C 140.704 -3.40871 0.0446929 0
M  V30 1269 H 141.897 -2.52306 1.62116 0
M  V30 1270 H 139.45 -1.2943 0.876218 0
M  V30 1271 H 140.185 -3.12124 -0.880281 0
M  V30 1272 H 139.97 -3.8511 0.737091 0
M  V30 1273 H 141.46 -4.17121 -0.19991 0
M  V30 1274 N 141.898 -0.863906 -1.31812 0
M  V30 1275 C 142.861 -0.320212 -2.26952 0
M  V30 1276 C 143.861 0.525369 -1.51975 0
M  V30 1277 O 145.051 0.335547 -1.70938 0
M  V30 1278 C 142.183 0.545919 -3.365 0
M  V30 1279 H 143.376 -1.16004 -2.76556 0
M  V30 1280 H 140.929 -0.638995 -1.42641 0
M  V30 1281 H 141.664 1.40718 -2.92179 0
M  V30 1282 H 141.449 -0.0594674 -3.92055 0
M  V30 1283 H 142.939 0.918796 -4.07367 0
M  V30 1284 N 143.376 1.44774 -0.622745 0
M  V30 1285 C 144.339 2.29069 0.0774015 0
M  V30 1286 C 145.339 1.4059 0.780461 0
M  V30 1287 O 146.529 1.62551 0.626322 0
M  V30 1288 C 143.661 3.21974 1.12006 0
M  V30 1289 H 144.854 2.92459 -0.663901 0
M  V30 1290 H 142.407 1.51548 -0.382486 0
M  V30 1291 H 143.142 2.63417 1.89162 0
M  V30 1292 H 142.927 3.87168 0.619951 0
M  V30 1293 H 144.417 3.85318 1.60995 0
M  V30 1294 N 144.854 0.36279 1.53368 0
M  V30 1295 C 146.102 -0.227326 2.00817 0
M  V30 1296 C 146.423 -1.49511 1.25186 0
M  V30 1297 O 145.693 -1.92482 0.364348 0
M  V30 1298 H 144.273 -0.0869923 0.741917 0
M  V30 1299 H 146.935 0.488381 1.88682 0
M  V30 1300 H 146.031 -0.456273 3.08747 0
M  V30 1301 N 146.332 -1.57332 0.0918853 0
M  V30 1302 C 147.242 -2.17368 -0.882505 0
M  V30 1303 C 148.258 -1.14226 -1.31257 0
M  V30 1304 O 149.434 -1.46582 -1.38115 0
M  V30 1305 C 146.499 -2.73962 -2.12476 0
M  V30 1306 C 145.56 -3.92048 -1.7492 0
M  V30 1307 C 144.793 -4.45933 -2.93223 0
M  V30 1308 O 145.016 -3.98764 -4.07852 0
M  V30 1309 O 143.95 -5.36999 -2.71875 0
M  V30 1310 H 147.776 -3.01031 -0.40172 0
M  V30 1311 H 145.361 -1.48813 -0.132291 0
M  V30 1312 H 147.243 -3.10147 -2.85283 0
M  V30 1313 H 145.918 -1.93347 -2.59613 0
M  V30 1314 H 144.825 -3.6068 -0.993025 0
M  V30 1315 H 146.158 -4.74017 -1.32548 0
M  V30 1316 N 147.81 0.181792 -1.56548 0
M  V30 1317 C 149.058 0.89832 -1.81038 0
M  V30 1318 C 149.379 1.83232 -0.667164 0
M  V30 1319 O 148.649 1.93372 0.313673 0
M  V30 1320 H 147.229 0.33471 -0.667816 0
M  V30 1321 H 149.891 0.184116 -1.94028 0
M  V30 1322 H 148.987 1.4815 -2.74696 0
M  V30 1323 N 149.288 1.51039 0.449983 0
M  V30 1324 C 150.565 1.53612 1.21089 0
M  V30 1325 C 150.945 0.292997 2.09057 0
M  V30 1326 O 150.293 -0.72259 2.16774 0
M  V30 1327 C 150.503 2.84337 2.0237 0
M  V30 1328 C 151.851 3.35807 2.59843 0
M  V30 1329 O 152.875 2.85802 2.12593 0
M  V30 1330 O 151.734 4.23029 3.45989 0
M  V30 1331 H 148.828 0.617057 0.550608 0
M  V30 1332 H 151.374 1.63344 0.460082 0
M  V30 1333 H 150.146 3.66278 1.37681 0
M  V30 1334 H 149.769 2.77708 2.84542 0
M  V30 1335 N 150.766 -0.704594 1.40972 0
M  V30 1336 C 151.714 -1.83994 1.42299 0
M  V30 1337 C 152.708 -1.66684 0.302111 0
M  V30 1338 O 153.914 -1.73655 0.473697 0
M  V30 1339 H 150.289 -0.606171 0.44504 0
M  V30 1340 H 152.26 -1.79992 2.38003 0
M  V30 1341 C 151.009 -3.21946 1.31323 0
M  V30 1342 H 150.332 -3.35878 2.16855 0
M  V30 1343 H 151.772 -4.01491 1.36311 0
M  V30 1344 C 150.231 -3.36891 0.0245977 0
M  V30 1345 O 150.761 -3.90687 -0.934153 0
M  V30 1346 N 148.967 -2.90559 -0.0485243 0
M  V30 1347 H 148.514 -2.46968 0.732419 0
M  V30 1348 H 148.472 -3.00937 -0.910171 0
M  V30 1349 N 152.244 -1.26651 -0.937939 0
M  V30 1350 C 153.492 -1.12165 -1.68118 0
M  V30 1351 C 153.813 0.334983 -1.92101 0
M  V30 1352 O 153.083 1.23583 -1.52 0
M  V30 1353 H 151.663 -0.412093 -0.623048 0
M  V30 1354 H 154.325 -1.59027 -1.12678 0
M  V30 1355 H 153.421 -1.64289 -2.6536 0
M  V30 1356 N 153.722 1.14298 -1.08507 0
M  V30 1357 C 155.133 1.66926 -0.836227 0
M  V30 1358 C 155.484 1.85576 0.63686 0
M  V30 1359 O 154.609 1.56767 1.49175 0
M  V30 1360 C 155.204 3.03219 -1.51142 0
M  V30 1361 C 153.763 3.52876 -1.30979 0
M  V30 1362 C 152.91 2.2833 -1.57356 0
M  V30 1363 H 155.861 0.983491 -1.24552 0
M  V30 1364 H 155.882 3.68726 -0.939211 0
M  V30 1365 H 155.394 2.89612 -2.58353 0
M  V30 1366 H 153.495 3.71703 -0.258429 0
M  V30 1367 H 153.608 4.33586 -2.03814 0
M  V30 1368 H 151.972 2.34454 -0.995164 0
M  V30 1369 H 152.755 2.17298 -2.65775 0
M  V30 1370 N 155.201 0.870884 1.31352 0
M  V30 1371 C 156.449 0.48132 1.96285 0
M  V30 1372 C 156.77 -0.969813 1.69173 0
M  V30 1373 O 156.04 -1.67998 1.00764 0
M  V30 1374 H 154.62 0.175002 0.726212 0
M  V30 1375 H 157.282 1.11087 1.60143 0
M  V30 1376 H 156.378 0.639825 3.05471 0
M  V30 1377 N 156.679 -1.44442 0.630414 0
M  V30 1378 C 157.609 -2.33418 -0.0618083 0
M  V30 1379 C 158.59 -1.48165 -0.835541 0
M  V30 1380 O 159.775 -1.76886 -0.801564 0
M  V30 1381 C 156.905 -3.31222 -1.04449 0
M  V30 1382 C 155.859 -4.26288 -0.382436 0
M  V30 1383 C 155.185 -5.13954 -1.47497 0
M  V30 1384 C 156.485 -5.1744 0.710865 0
M  V30 1385 H 158.179 -2.91548 0.681184 0
M  V30 1386 H 155.725 -1.40191 0.329026 0
M  V30 1387 H 157.678 -3.92351 -1.53748 0
M  V30 1388 H 156.402 -2.71299 -1.81836 0
M  V30 1389 H 155.061 -3.6649 0.0899054 0
M  V30 1390 H 154.709 -4.50385 -2.2397 0
M  V30 1391 H 154.409 -5.7837 -1.03737 0
M  V30 1392 H 155.933 -5.77955 -1.96979 0
M  V30 1393 H 157.347 -5.72509 0.300996 0
M  V30 1394 H 155.744 -5.90455 1.07156 0
M  V30 1395 H 156.814 -4.58496 1.57829 0
M  V30 1396 N 158.157 -0.370918 -1.53173 0
M  V30 1397 C 159.089 0.507823 -2.23503 0
M  V30 1398 C 160.102 1.04182 -1.251 0
M  V30 1399 O 161.291 0.947286 -1.5129 0
M  V30 1400 C 158.391 1.71447 -2.92334 0
M  V30 1401 C 157.564 1.31105 -4.17289 0
M  V30 1402 C 156.623 2.38035 -4.69282 0
M  V30 1403 O 155.649 2.00204 -5.32829 0
M  V30 1404 N 156.851 3.69697 -4.47554 0
M  V30 1405 H 159.616 -0.0946382 -2.99551 0
M  V30 1406 H 157.177 -0.196358 -1.60705 0
M  V30 1407 H 159.169 2.42469 -3.24023 0
M  V30 1408 H 157.739 2.22368 -2.19707 0
M  V30 1409 H 156.959 0.430462 -3.91843 0
M  V30 1410 H 158.247 1.0179 -4.98514 0
M  V30 1411 H 157.645 4.03205 -3.9679 0
M  V30 1412 H 156.202 4.36807 -4.8378 0
M  V30 1413 N 159.635 1.57281 -0.100228 0
M  V30 1414 C 160.883 1.94153 0.561157 0
M  V30 1415 C 161.204 0.983157 1.68401 0
M  V30 1416 O 160.474 0.0361132 1.95867 0
M  V30 1417 H 159.054 0.716791 0.210283 0
M  V30 1418 H 161.716 1.94202 -0.164765 0
M  V30 1419 H 160.812 2.96709 0.968008 0
M  V30 1420 N 161.113 -0.173488 1.56642 0
M  V30 1421 C 162.524 -0.736155 1.71574 0
M  V30 1422 C 162.875 -1.82888 0.710389 0
M  V30 1423 O 162 -2.16017 -0.1287 0
M  V30 1424 C 162.595 -1.34211 3.11083 0
M  V30 1425 C 161.154 -1.85162 3.27707 0
M  V30 1426 C 160.301 -0.729765 2.67525 0
M  V30 1427 H 163.252 0.0518786 1.58615 0
M  V30 1428 H 163.273 -2.21178 3.09613 0
M  V30 1429 H 162.785 -0.546579 3.84232 0
M  V30 1430 H 160.886 -2.67366 2.59512 0
M  V30 1431 H 160.999 -1.99855 4.35425 0
M  V30 1432 H 159.363 -1.14965 2.27278 0
M  V30 1433 H 160.146 0.0538806 3.43258 0
M  V30 1434 N 162.591 -1.51276 -0.441967 0
M  V30 1435 C 163.816 -1.67799 -1.21895 0
M  V30 1436 C 164.241 -0.372864 -1.84367 0
M  V30 1437 O 163.599 0.666501 -1.68604 0
M  V30 1438 C 163.647 -2.79199 -2.28211 0
M  V30 1439 O 162.751 -2.42479 -3.33583 0
M  V30 1440 H 162.092 -0.559649 -0.357336 0
M  V30 1441 H 164.622 -1.97815 -0.522522 0
M  V30 1442 H 164.632 -3.03146 -2.73069 0
M  V30 1443 H 163.307 -3.73906 -1.82118 0
M  V30 1444 H 161.884 -2.29087 -2.94234 0
M  V30 1445 N 164.069 0.697108 -1.41344 0
M  V30 1446 C 165.485 1.00751 -1.2378 0
M  V30 1447 C 165.685 2.01105 -0.126066 0
M  V30 1448 O 164.741 2.47295 0.51004 0
M  V30 1449 C 166.054 1.53359 -2.58653 0
M  V30 1450 C 167.602 1.6525 -2.65822 0
M  V30 1451 C 168.077 2.2126 -4.01009 0
M  V30 1452 N 169.568 2.28622 -4.02847 0
M  V30 1453 C 170.303 2.72984 -5.04249 0
M  V30 1454 N 169.799 3.16962 -6.16041 0
M  V30 1455 N 171.592 2.72534 -4.91611 0
M  V30 1456 H 163.743 0.0322662 -2.12375 0
M  V30 1457 H 166.006 0.0768853 -0.944877 0
M  V30 1458 H 165.712 0.870773 -3.4075 0
M  V30 1459 H 165.586 2.51597 -2.81032 0
M  V30 1460 H 167.973 2.30644 -1.84086 0
M  V30 1461 H 168.054 0.655614 -2.47256 0
M  V30 1462 H 167.698 1.56482 -4.83193 0
M  V30 1463 H 167.628 3.21698 -4.16915 0
M  V30 1464 H 170.119 1.97585 -3.22131 0
M  V30 1465 H 170.432 3.49434 -6.89287 0
M  V30 1466 H 168.777 3.14875 -6.1958 0
M  V30 1467 H 171.968 2.37525 -4.0336 0
M  V30 1468 H 172.141 3.06789 -5.70775 0
M  V30 1469 N 165.547 1.27147 0.931209 0
M  V30 1470 C 166.457 1.11372 2.06478 0
M  V30 1471 C 167.473 0.044645 1.73943 0
M  V30 1472 O 168.649 0.250417 1.99837 0
M  V30 1473 C 165.714 0.758838 3.38294 0
M  V30 1474 C 164.775 1.90841 3.84549 0
M  V30 1475 C 164.008 1.57036 5.10074 0
M  V30 1476 O 164.231 0.476645 5.68405 0
M  V30 1477 O 163.165 2.40839 5.51616 0
M  V30 1478 H 166.991 2.06493 2.22698 0
M  V30 1479 H 164.576 1.06301 1.04978 0
M  V30 1480 H 166.458 0.574098 4.17471 0
M  V30 1481 H 165.133 -0.162879 3.2329 0
M  V30 1482 H 164.04 2.14819 3.06274 0
M  V30 1483 H 165.373 2.81021 4.04089 0
M  V30 1484 N 167.025 -1.13721 1.09112 0
M  V30 1485 C 168.436 -1.6648 0.845068 0
M  V30 1486 C 168.787 -1.85911 -0.62701 0
M  V30 1487 O 167.912 -1.57556 -1.48341 0
M  V30 1488 C 168.507 -3.02413 1.52748 0
M  V30 1489 C 167.066 -3.52176 1.32849 0
M  V30 1490 C 166.213 -2.27492 1.58564 0
M  V30 1491 H 169.164 -0.976872 1.25072 0
M  V30 1492 H 169.185 -3.68223 0.958752 0
M  V30 1493 H 168.697 -2.88238 2.59885 0
M  V30 1494 H 166.798 -3.7156 0.278137 0
M  V30 1495 H 166.911 -4.32499 2.0611 0
M  V30 1496 H 165.275 -2.33923 1.00758 0
M  V30 1497 H 166.058 -2.15886 2.66924 0
M  V30 1498 N 168.503 -0.877838 -1.30888 0
M  V30 1499 C 169.914 -0.544193 -1.78593 0
M  V30 1500 C 170.265 0.939301 -1.72254 0
M  V30 1501 O 169.39 1.7337 -1.29505 0
M  V30 1502 C 169.985 -0.98105 -3.24285 0
M  V30 1503 C 168.544 -0.698935 -3.69854 0
M  V30 1504 C 167.691 -1.168 -2.51502 0
M  V30 1505 H 170.642 -1.06278 -1.17859 0
M  V30 1506 H 170.663 -0.307009 -3.79259 0
M  V30 1507 H 170.175 -2.06079 -3.28866 0
M  V30 1508 H 168.276 0.369112 -3.70767 0
M  V30 1509 H 168.389 -1.28148 -4.61644 0
M  V30 1510 H 166.753 -0.587535 -2.47831 0
M  V30 1511 H 167.536 -2.25533 -2.58824 0
M  V30 1512 N 169.982 1.44106 -0.638065 0
M  V30 1513 C 170.912 2.33448 0.0494287 0
M  V30 1514 C 171.893 1.48606 0.827672 0
M  V30 1515 O 173.078 1.77308 0.792173 0
M  V30 1516 C 170.208 3.31771 1.02691 0
M  V30 1517 C 169.162 4.26485 0.359823 0
M  V30 1518 C 168.488 5.14729 1.44769 0
M  V30 1519 C 169.788 5.17056 -0.738296 0
M  V30 1520 H 171.482 2.91183 -0.696636 0
M  V30 1521 H 169.028 1.40014 -0.336456 0
M  V30 1522 H 170.981 3.93161 1.51666 0
M  V30 1523 H 169.705 2.7226 1.80395 0
M  V30 1524 H 168.364 3.66437 -0.10934 0
M  V30 1525 H 168.012 4.51566 2.21578 0
M  V30 1526 H 167.712 5.78913 1.00668 0
M  V30 1527 H 169.236 5.78991 1.93911 0
M  V30 1528 H 170.65 5.72342 -0.331354 0
M  V30 1529 H 169.047 5.89879 -1.10286 0
M  V30 1530 H 170.117 4.57652 -1.60258 0
M  V30 1531 N 171.46 0.379036 1.52974 0
M  V30 1532 C 172.423 -0.448865 2.24762 0
M  V30 1533 C 173.423 -0.998689 1.26027 0
M  V30 1534 O 174.613 -0.882313 1.50203 0
M  V30 1535 C 171.745 -1.62872 2.99476 0
M  V30 1536 H 172.938 0.179491 2.99362 0
M  V30 1537 H 170.491 0.13096 1.5575 0
M  V30 1538 H 171.226 -2.29479 2.29151 0
M  V30 1539 H 171.011 -1.24128 3.71934 0
M  V30 1540 H 172.501 -2.2151 3.5401 0
M  V30 1541 N 172.938 -1.57226 0.108567 0
M  V30 1542 C 174.215 -1.86333 -0.594939 0
M  V30 1543 C 174.595 -1.00788 -1.85486 0
M  V30 1544 O 173.943 -0.0839293 -2.28346 0
M  V30 1545 C 174.153 -3.37265 -0.897405 0
M  V30 1546 C 175.501 -4.05629 -1.25501 0
M  V30 1547 O 176.525 -3.42224 -0.987998 0
M  V30 1548 O 175.384 -5.17531 -1.75567 0
M  V30 1549 H 172.478 -0.771018 -0.2991 0
M  V30 1550 H 175.024 -1.69102 0.142283 0
M  V30 1551 H 173.796 -3.913 -0.00413806 0
M  V30 1552 H 173.419 -3.59889 -1.69014 0
M  V30 1553 N 174.416 0.165178 -1.56732 0
M  V30 1554 C 175.364 1.22369 -1.97809 0
M  V30 1555 C 176.358 1.45488 -0.867741 0
M  V30 1556 O 177.564 1.45995 -1.05288 0
M  V30 1557 H 173.939 0.411486 -0.629431 0
M  V30 1558 H 175.91 0.850425 -2.86025 0
M  V30 1559 C 174.659 2.55403 -2.35934 0
M  V30 1560 H 173.982 2.38438 -3.20916 0
M  V30 1561 H 175.422 3.2814 -2.68514 0
M  V30 1562 C 173.881 3.14611 -1.20506 0
M  V30 1563 O 174.411 3.98626 -0.496016 0
M  V30 1564 N 172.617 2.7379 -0.97403 0
M  V30 1565 H 172.164 2.0557 -1.55238 0
M  V30 1566 H 172.122 3.1374 -0.203573 0
M  V30 1567 N 175.894 1.51508 0.433938 0
M  V30 1568 C 176.824 1.76016 1.53429 0
M  V30 1569 C 177.805 0.610112 1.58782 0
M  V30 1570 O 178.99 0.853177 1.74455 0
M  V30 1571 C 176.12 1.88831 2.9148 0
M  V30 1572 C 175.074 3.04288 3.00987 0
M  V30 1573 C 174.4 3.0229 4.4105 0
M  V30 1574 C 175.7 4.44193 2.74754 0
M  V30 1575 H 177.394 2.68152 1.33171 0
M  V30 1576 H 174.94 1.29035 0.639214 0
M  V30 1577 H 176.893 2.04559 3.6842 0
M  V30 1578 H 175.617 0.933455 3.12976 0
M  V30 1579 H 174.276 2.8827 2.26486 0
M  V30 1580 H 173.924 2.04576 4.59519 0
M  V30 1581 H 173.624 3.79822 4.4834 0
M  V30 1582 H 175.148 3.20116 5.1996 0
M  V30 1583 H 176.562 4.60544 3.41426 0
M  V30 1584 H 174.959 5.23457 2.9345 0
M  V30 1585 H 176.029 4.53996 1.70339 0
M  V30 1586 N 177.372 -0.689602 1.41712 0
M  V30 1587 C 178.602 -1.47613 1.44548 0
M  V30 1588 C 179.01 -1.89132 0.0509034 0
M  V30 1589 O 178.353 -1.57741 -0.94146 0
M  V30 1590 C 178.415 -2.76596 2.2964 0
M  V30 1591 C 178.079 -2.57245 3.77722 0
M  V30 1592 C 179.076 -2.22804 4.69739 0
M  V30 1593 C 176.761 -2.727 4.2183 0
M  V30 1594 C 178.755 -2.04064 6.03851 0
M  V30 1595 C 176.442 -2.53576 5.56006 0
M  V30 1596 C 177.44 -2.1931 6.46832 0
M  V30 1597 O 177.128 -2.00359 7.78532 0
M  V30 1598 H 176.86 -0.461227 0.494212 0
M  V30 1599 H 179.414 -0.856045 1.86711 0
M  V30 1600 H 177.644 -3.41033 1.82301 0
M  V30 1601 H 179.333 -3.38424 2.24107 0
M  V30 1602 H 180.099 -2.10473 4.36951 0
M  V30 1603 H 175.978 -2.98353 3.51435 0
M  V30 1604 H 179.522 -1.77241 6.74708 0
M  V30 1605 H 175.419 -2.65499 5.88371 0
M  V30 1606 H 176.187 -2.15075 7.89737 0
M  V30 1607 N 178.85 -1.27639 -0.924453 0
M  V30 1608 C 180.127 -1.04887 -1.651 0
M  V30 1609 C 180.507 0.415327 -2.06974 0
M  V30 1610 O 179.855 1.39923 -1.80648 0
M  V30 1611 C 180.065 -2.01348 -2.85061 0
M  V30 1612 C 181.413 -2.30899 -3.56329 0
M  V30 1613 O 182.437 -1.99348 -2.95193 0
M  V30 1614 O 181.296 -2.84699 -4.66485 0
M  V30 1615 H 178.39 -0.400083 -0.723784 0
M  V30 1616 H 180.936 -1.38916 -0.974703 0
M  V30 1617 H 179.708 -3.0008 -2.51133 0
M  V30 1618 H 179.331 -1.679 -3.6041 0
M  V30 1619 N 180.328 1.1314 -1.09713 0
M  V30 1620 C 181.238 2.22242 -0.751367 0
M  V30 1621 C 182.254 1.72224 0.247938 0
M  V30 1622 O 183.43 2.01205 0.0885463 0
M  V30 1623 C 180.495 3.46231 -0.180274 0
M  V30 1624 C 179.556 4.11125 -1.2359 0
M  V30 1625 C 178.789 5.29195 -0.691966 0
M  V30 1626 O 179.012 5.68342 0.48414 0
M  V30 1627 O 177.946 5.84214 -1.44838 0
M  V30 1628 H 181.772 2.54197 -1.66186 0
M  V30 1629 H 179.357 1.21331 -0.871735 0
M  V30 1630 H 181.239 4.21185 0.134739 0
M  V30 1631 H 179.914 3.1597 0.703185 0
M  V30 1632 H 178.821 3.37985 -1.60366 0
M  V30 1633 H 180.154 4.45524 -2.09211 0
M  V30 1634 N 181.806 0.884767 1.30421 0
M  V30 1635 C 183.083 0.423185 1.90967 0
M  V30 1636 C 183.463 -1.09605 1.80416 0
M  V30 1637 O 182.811 -1.93126 1.22125 0
M  V30 1638 C 183.021 0.921056 3.36627 0
M  V30 1639 C 184.369 0.955903 4.137 0
M  V30 1640 O 185.393 0.867706 3.4547 0
M  V30 1641 O 184.252 1.08614 5.35598 0
M  V30 1642 H 181.346 0.129369 0.816819 0
M  V30 1643 H 183.892 0.973653 1.3899 0
M  V30 1644 H 182.664 1.96489 3.3839 0
M  V30 1645 H 182.287 0.349741 3.96059 0
M  V30 1646 N 183.284 -1.43765 0.645699 0
M  V30 1647 C 184.561 -1.9541 0.0862963 0
M  V30 1648 C 184.941 -1.58725 -1.39175 0
M  V30 1649 O 184.289 -0.868581 -2.11348 0
M  V30 1650 C 184.499 -3.47488 0.324565 0
M  V30 1651 C 185.847 -4.24001 0.225497 0
M  V30 1652 O 186.871 -3.55274 0.256715 0
M  V30 1653 O 185.73 -5.46313 0.142801 0
M  V30 1654 H 182.824 -0.826882 -0.0139483 0
M  V30 1655 H 185.37 -1.53743 0.718415 0
M  V30 1656 H 184.142 -3.67289 1.3496 0
M  V30 1657 H 183.765 -3.96135 -0.340987 0
M  V30 1658 N 184.763 -0.387143 -1.52771 0
M  V30 1659 C 186.04 0.253197 -1.93954 0
M  V30 1660 C 186.42 1.64545 -1.32243 0
M  V30 1661 O 185.768 2.23191 -0.489699 0
M  V30 1662 C 185.978 0.281722 -3.47861 0
M  V30 1663 C 187.326 0.511715 -4.21505 0
M  V30 1664 O 188.35 0.362023 -3.54356 0
M  V30 1665 O 187.209 0.804847 -5.40541 0
M  V30 1666 H 184.303 0.156845 -0.811991 0
M  V30 1667 H 186.849 -0.441494 -1.63856 0
M  V30 1668 H 185.621 -0.693571 -3.85104 0
M  V30 1669 H 185.244 1.02142 -3.84256 0
M  V30 1670 N 186.241 1.57166 -0.116904 0
M  V30 1671 C 187.518 1.86645 0.585049 0
M  V30 1672 C 187.898 1.0177 1.84949 0
M  V30 1673 O 187.246 0.0960379 2.28298 0
M  V30 1674 C 187.456 3.37736 0.879507 0
M  V30 1675 C 188.804 4.06289 1.23348 0
M  V30 1676 O 189.828 3.42743 0.969836 0
M  V30 1677 O 188.687 5.18455 1.7282 0
M  V30 1678 H 185.781 0.772593 0.295007 0
M  V30 1679 H 188.327 1.69025 -0.151249 0
M  V30 1680 H 187.099 3.91296 -0.0166136 0
M  V30 1681 H 186.722 3.6078 1.67103 0
M  V30 1682 N 187.719 -0.156864 1.56817 0
M  V30 1683 C 188.629 -1.2136 2.00771 0
M  V30 1684 C 189.645 -1.47598 0.921459 0
M  V30 1685 O 190.821 -1.59462 1.2302 0
M  V30 1686 C 187.886 -2.52943 2.37109 0
M  V30 1687 C 186.947 -2.34439 3.59634 0
M  V30 1688 C 186.18 -3.59748 3.94229 0
M  V30 1689 O 186.403 -4.65526 3.29609 0
M  V30 1690 O 185.337 -3.52998 4.8752 0
M  V30 1691 H 189.163 -0.870468 2.90958 0
M  V30 1692 H 186.748 -0.36484 1.44877 0
M  V30 1693 H 188.63 -3.30538 2.61386 0
M  V30 1694 H 187.305 -2.86806 1.5008 0
M  V30 1695 H 186.212 -1.54828 3.40557 0
M  V30 1696 H 187.545 -2.05496 4.4725 0
M  V30 1697 N 189.197 -1.51736 -0.425897 0
M  V30 1698 C 190.445 -1.64644 -1.17204 0
M  V30 1699 C 190.766 -0.370486 -1.91448 0
M  V30 1700 O 190.036 0.614088 -1.86026 0
M  V30 1701 H 188.616 -0.606819 -0.435638 0
M  V30 1702 H 191.278 -1.88713 -0.487177 0
M  V30 1703 H 190.374 -2.47958 -1.89534 0
M  V30 1704 N 190.675 0.682077 -1.42076 0
M  V30 1705 C 191.585 1.82535 -1.47371 0
M  V30 1706 C 192.601 1.7017 -0.363079 0
M  V30 1707 O 193.777 1.91848 -0.612875 0
M  V30 1708 C 190.842 3.18624 -1.36674 0
M  V30 1709 C 189.903 3.42999 -2.58167 0
M  V30 1710 C 189.136 4.72595 -2.4797 0
M  V30 1711 O 189.359 5.50006 -1.5116 0
M  V30 1712 O 188.293 4.98054 -3.37974 0
M  V30 1713 H 192.119 1.81023 -2.43853 0
M  V30 1714 H 189.704 0.836887 -1.2376 0
M  V30 1715 H 191.586 3.99847 -1.33043 0
M  V30 1716 H 190.261 3.20789 -0.433138 0
M  V30 1717 H 189.168 2.61653 -2.67373 0
M  V30 1718 H 190.501 3.45659 -3.50401 0
M  V30 1719 N 192.153 1.28127 0.917671 0
M  V30 1720 C 193.063 1.13556 2.05286 0
M  V30 1721 C 194.079 0.0630914 1.73886 0
M  V30 1722 O 195.255 0.271598 1.9956 0
M  V30 1723 C 192.32 0.794676 3.3747 0
M  V30 1724 C 191.381 1.94909 3.82504 0
M  V30 1725 C 190.614 1.62437 5.0838 0
M  V30 1726 O 190.837 0.536905 5.67867 0
M  V30 1727 O 189.771 2.46677 5.4903 0
M  V30 1728 H 193.597 2.08844 2.20495 0
M  V30 1729 H 191.182 1.07409 1.03845 0
M  V30 1730 H 193.064 0.618344 4.16839 0
M  V30 1731 H 191.739 -0.128581 3.23445 0
M  V30 1732 H 190.646 2.18055 3.03978 0
M  V30 1733 H 191.979 2.85291 4.01086 0
M  V30 1734 N 193.631 -1.12557 1.10312 0
M  V30 1735 C 194.541 -2.21841 0.763142 0
M  V30 1736 C 195.557 -1.72354 -0.238801 0
M  V30 1737 O 196.733 -2.01249 -0.0778746 0
M  V30 1738 C 193.798 -3.46131 0.198632 0
M  V30 1739 C 192.859 -4.10464 1.25769 0
M  V30 1740 C 192.092 -5.28821 0.72002 0
M  V30 1741 O 192.315 -5.6859 -0.453993 0
M  V30 1742 O 191.249 -5.83437 1.47935 0
M  V30 1743 H 195.075 -2.53312 1.67532 0
M  V30 1744 H 192.66 -1.20867 0.878157 0
M  V30 1745 H 194.542 -4.2125 -0.112401 0
M  V30 1746 H 193.217 -3.16338 -0.686419 0
M  V30 1747 H 192.124 -3.3713 1.62156 0
M  V30 1748 H 193.457 -4.44408 2.11571 0
M  V30 1749 N 195.109 -0.891671 -1.2995 0
M  V30 1750 C 196.019 -0.367691 -2.31701 0
M  V30 1751 C 197.035 0.533486 -1.6562 0
M  V30 1752 O 198.211 0.424997 -1.96865 0
M  V30 1753 C 195.276 0.403406 -3.44345 0
M  V30 1754 C 194.337 -0.528328 -4.26037 0
M  V30 1755 C 193.57 0.206063 -5.33302 0
M  V30 1756 O 193.793 1.43119 -5.52153 0
M  V30 1757 O 192.727 -0.447281 -6.00236 0
M  V30 1758 H 196.553 -1.21163 -2.78484 0
M  V30 1759 H 194.138 -0.655725 -1.34241 0
M  V30 1760 H 196.02 0.839753 -4.12948 0
M  V30 1761 H 194.695 1.22354 -2.99685 0
M  V30 1762 H 193.602 -1.01362 -3.60106 0
M  V30 1763 H 194.935 -1.31465 -4.74318 0
M  V30 1764 N 196.587 1.43421 -0.653314 0
M  V30 1765 C 197.497 2.34568 0.0388565 0
M  V30 1766 C 198.513 1.53888 0.81207 0
M  V30 1767 O 199.689 1.86539 0.759294 0
M  V30 1768 C 196.754 3.32167 0.993269 0
M  V30 1769 C 195.815 4.28751 0.216977 0
M  V30 1770 C 195.048 5.21688 1.12593 0
M  V30 1771 O 195.271 5.19052 2.36519 0
M  V30 1772 O 194.205 5.98919 0.598284 0
M  V30 1773 H 198.031 2.95251 -0.711386 0
M  V30 1774 H 195.616 1.43564 -0.413502 0
M  V30 1775 H 197.498 3.92183 1.54176 0
M  V30 1776 H 196.173 2.73987 1.72374 0
M  V30 1777 H 195.08 3.72215 -0.375101 0
M  V30 1778 H 196.413 4.89913 -0.473924 0
M  V30 1779 N 198.065 0.39524 1.52563 0
M  V30 1780 C 199.028 -0.425001 2.25225 0
M  V30 1781 C 200.028 -0.985266 1.27079 0
M  V30 1782 O 201.218 -0.866332 1.5113 0
M  V30 1783 C 198.35 -1.59686 3.01186 0
M  V30 1784 H 199.543 0.211233 2.99155 0
M  V30 1785 H 197.096 0.147472 1.55603 0
M  V30 1786 H 197.831 -2.27035 2.31572 0
M  V30 1787 H 197.616 -1.20176 3.73229 0
M  V30 1788 H 199.106 -2.17743 3.5634 0
M  V30 1789 N 199.544 -1.57102 0.125237 0
M  V30 1790 C 200.507 -2.14471 -0.80838 0
M  V30 1791 C 201.507 -1.0811 -1.19033 0
M  V30 1792 O 202.697 -1.33856 -1.11482 0
M  V30 1793 C 199.829 -2.69005 -2.09402 0
M  V30 1794 H 201.022 -2.98297 -0.309696 0
M  V30 1795 H 198.575 -1.55807 -0.124051 0
M  V30 1796 H 199.31 -1.88785 -2.63687 0
M  V30 1797 H 199.095 -3.46799 -1.82957 0
M  V30 1798 H 200.585 -3.13278 -2.76128 0
M  V30 1799 N 201.022 0.148545 -1.56898 0
M  V30 1800 C 201.985 1.16736 -1.97244 0
M  V30 1801 C 202.985 1.35947 -0.858777 0
M  V30 1802 O 204.175 1.32966 -1.12542 0
M  V30 1803 C 201.307 2.52798 -2.28705 0
M  V30 1804 H 202.5 0.821279 -2.88435 0
M  V30 1805 H 200.053 0.391831 -1.51309 0
M  V30 1806 H 200.788 2.92381 -1.403 0
M  V30 1807 H 200.573 2.40216 -3.09901 0
M  V30 1808 H 202.063 3.26179 -2.60762 0
M  V30 1809 N 202.5 1.5196 0.417844 0
M  V30 1810 C 203.463 1.74065 1.49111 0
M  V30 1811 C 204.463 0.610537 1.48758 0
M  V30 1812 O 205.653 0.87832 1.50437 0
M  V30 1813 C 202.785 1.81502 2.88565 0
M  V30 1814 H 203.978 2.69869 1.30807 0
M  V30 1815 H 201.531 1.42244 0.647785 0
M  V30 1816 H 202.266 0.875813 3.1225 0
M  V30 1817 H 202.051 2.63651 2.90225 0
M  V30 1818 H 203.541 2.00376 3.66387 0
M  V30 1819 N 203.978 -0.674533 1.42435 0
M  V30 1820 C 204.941 -1.76986 1.45632 0
M  V30 1821 C 205.941 -1.5708 0.343871 0
M  V30 1822 O 207.131 -1.63367 0.604709 0
M  V30 1823 C 204.263 -3.15623 1.28822 0
M  V30 1824 H 205.456 -1.75539 2.43158 0
M  V30 1825 H 203.009 -0.884189 1.28887 0
M  V30 1826 H 203.744 -3.22696 0.322193 0
M  V30 1827 H 203.529 -3.31475 2.09444 0
M  V30 1828 H 205.019 -3.95537 1.33942 0
M  V30 1829 N 205.456 -1.28612 -0.910864 0
M  V30 1830 C 206.705 -1.15311 -1.65488 0
M  V30 1831 C 207.018 0.296999 -1.93332 0
M  V30 1832 O 208.224 0.551168 -2.65847 0
M  V30 1833 C 206.68 -2.01599 -2.98137 0
M  V30 1834 C 206.288 -3.51367 -2.7793 0
M  V30 1835 C 208.032 -1.96993 -3.76024 0
M  V30 1836 C 205.939 -4.29797 -4.06237 0
M  V30 1837 H 204.869 -0.42796 -0.620779 0
M  V30 1838 H 207.52 -1.53166 -1.01057 0
M  V30 1839 H 205.902 -1.56603 -3.63719 0
M  V30 1840 H 207.076 -4.0434 -2.21011 0
M  V30 1841 H 205.391 -3.57529 -2.13452 0
M  V30 1842 H 207.988 -2.52856 -4.71135 0
M  V30 1843 H 208.331 -0.94733 -4.05378 0
M  V30 1844 H 208.864 -2.39973 -3.17266 0
M  V30 1845 H 205.603 -5.32648 -3.82055 0
M  V30 1846 H 205.123 -3.81596 -4.62757 0
M  V30 1847 H 206.802 -4.39869 -4.74473 0
M  V30 1848 N 206.934 1.1197 -1.10907 0
M  V30 1849 C 208.182 1.83225 -0.852819 0
M  V30 1850 C 208.503 1.84769 0.623341 0
M  V30 1851 O 207.773 1.3143 1.45269 0
M  V30 1852 H 206.353 0.67849 -0.312507 0
M  V30 1853 H 209.015 1.3556 -1.40033 0
M  V30 1854 H 208.111 2.87265 -1.22005 0
M  V30 1855 N 208.412 0.89855 1.29475 0
M  V30 1856 C 209.642 0.538479 1.99459 0
M  V30 1857 C 210.05 -0.880922 1.67441 0
M  V30 1858 O 209.393 -1.59283 0.915127 0
M  V30 1859 C 209.455 0.649564 3.53583 0
M  V30 1860 C 209.119 2.03573 4.09154 0
M  V30 1861 C 210.116 3.00675 4.24135 0
M  V30 1862 C 207.801 2.3448 4.44212 0
M  V30 1863 C 209.795 4.26809 4.73405 0
M  V30 1864 C 207.482 3.60857 4.93179 0
M  V30 1865 C 208.48 4.56836 5.0773 0
M  V30 1866 O 208.168 5.80969 5.55635 0
M  V30 1867 H 207.9 0.205372 0.644048 0
M  V30 1868 H 210.454 1.20958 1.66007 0
M  V30 1869 H 208.684 -0.0785592 3.8662 0
M  V30 1870 H 210.373 0.29881 4.04799 0
M  V30 1871 H 211.139 2.78112 3.97339 0
M  V30 1872 H 207.018 1.60534 4.32145 0
M  V30 1873 H 210.562 5.0173 4.84678 0
M  V30 1874 H 206.459 3.83251 5.19412 0
M  V30 1875 H 207.227 5.83542 5.73952 0
M  V30 1876 N 209.89 -1.43072 0.660911 0
M  V30 1877 C 211.306 -1.56169 0.329173 0
M  V30 1878 C 211.506 -1.64317 -1.16629 0
M  V30 1879 O 210.562 -1.60245 -1.95135 0
M  V30 1880 C 211.875 -2.81873 1.04729 0
M  V30 1881 C 213.423 -2.95627 1.02828 0
M  V30 1882 C 213.898 -4.24174 1.72744 0
M  V30 1883 N 215.389 -4.31055 1.69545 0
M  V30 1884 C 216.124 -5.29304 2.20511 0
M  V30 1885 N 215.62 -6.33786 2.79799 0
M  V30 1886 N 217.413 -5.21008 2.10966 0
M  V30 1887 H 209.564 -1.36027 1.63127 0
M  V30 1888 H 211.827 -0.653823 0.686454 0
M  V30 1889 H 211.533 -2.81942 2.10242 0
M  V30 1890 H 211.407 -3.72338 0.603702 0
M  V30 1891 H 213.794 -2.95094 -0.0184742 0
M  V30 1892 H 213.875 -2.06431 1.51063 0
M  V30 1893 H 213.519 -4.25467 2.7738 0
M  V30 1894 H 213.449 -5.1228 1.2197 0
M  V30 1895 H 215.94 -3.56174 1.26288 0
M  V30 1896 H 216.253 -7.05086 3.16344 0
M  V30 1897 H 214.598 -6.34387 2.83863 0
M  V30 1898 H 217.789 -4.38301 1.64347 0
M  V30 1899 H 217.962 -5.97416 2.50993 0
M  V30 1900 N 211.368 -0.403325 -1.52352 0
M  V30 1901 C 212.645 0.232611 -1.94212 0
M  V30 1902 C 213.025 1.63133 -1.33981 0
M  V30 1903 O 212.373 2.22659 -0.513344 0
M  V30 1904 C 212.583 0.244811 -3.4814 0
M  V30 1905 C 213.931 0.46698 -4.22024 0
M  V30 1906 O 214.955 0.324419 -3.5472 0
M  V30 1907 O 213.814 0.74747 -5.41364 0
M  V30 1908 H 210.908 0.148223 -0.813609 0
M  V30 1909 H 213.454 -0.458848 -1.63379 0
M  V30 1910 H 212.226 -0.734378 -3.84347 0
M  V30 1911 H 211.849 0.980611 -3.85318 0
M  V30 1912 N 212.846 1.57033 -0.133567 0
M  V30 1913 C 213.794 2.17348 0.828412 0
M  V30 1914 C 214.788 1.12671 1.26498 0
M  V30 1915 O 215.994 1.30947 1.23502 0
M  V30 1916 H 212.369 0.695775 0.285309 0
M  V30 1917 H 214.34 2.96935 0.295372 0
M  V30 1918 C 213.089 2.79893 2.06289 0
M  V30 1919 H 212.412 3.60147 1.73592 0
M  V30 1920 H 213.852 3.25615 2.71572 0
M  V30 1921 C 212.311 1.77713 2.86216 0
M  V30 1922 O 212.841 1.23937 3.82103 0
M  V30 1923 N 211.047 1.47321 2.50489 0
M  V30 1924 H 210.594 1.91243 1.7258 0
M  V30 1925 H 210.552 0.79199 3.04261 0
M  V30 1926 N 214.325 -0.140222 1.56975 0
M  V30 1927 C 215.255 -1.17456 2.01808 0
M  V30 1928 C 216.236 -1.44415 0.898794 0
M  V30 1929 O 217.421 -1.5522 1.16707 0
M  V30 1930 C 214.551 -2.50607 2.40444 0
M  V30 1931 C 213.505 -2.38155 3.55621 0
M  V30 1932 C 212.831 -3.76078 3.80091 0
M  V30 1933 C 214.131 -1.85991 4.88062 0
M  V30 1934 H 215.825 -0.801743 2.88466 0
M  V30 1935 H 213.371 -0.38422 1.38779 0
M  V30 1936 H 215.324 -3.23197 2.7041 0
M  V30 1937 H 214.048 -2.89737 1.50732 0
M  V30 1938 H 212.707 -1.68016 3.25832 0
M  V30 1939 H 212.355 -4.12656 2.87618 0
M  V30 1940 H 212.055 -3.68606 4.57606 0
M  V30 1941 H 213.579 -4.50206 4.12488 0
M  V30 1942 H 214.993 -2.4838 5.16701 0
M  V30 1943 H 213.39 -1.89393 5.6943 0
M  V30 1944 H 214.46 -0.816023 4.77984 0
M  V30 1945 N 215.803 -1.52179 -0.40978 0
M  V30 1946 C 216.733 -1.78435 -1.5061 0
M  V30 1947 C 217.714 -0.635295 -1.57791 0
M  V30 1948 O 218.899 -0.880823 -1.73076 0
M  V30 1949 C 216.029 -1.93444 -2.88439 0
M  V30 1950 C 214.983 -3.09038 -2.96108 0
M  V30 1951 C 214.309 -3.09268 -4.36185 0
M  V30 1952 C 215.609 -4.48508 -2.67652 0
M  V30 1953 H 217.303 -2.70237 -1.28889 0
M  V30 1954 H 214.849 -1.30036 -0.618605 0
M  V30 1955 H 216.802 -2.10394 -3.65119 0
M  V30 1956 H 215.526 -0.983129 -3.11452 0
M  V30 1957 H 214.185 -2.91837 -2.21872 0
M  V30 1958 H 213.833 -2.11861 -4.56206 0
M  V30 1959 H 213.533 -3.86907 -4.42241 0
M  V30 1960 H 215.057 -3.28348 -5.14801 0
M  V30 1961 H 216.471 -4.65918 -3.34056 0
M  V30 1962 H 214.868 -5.28059 -2.85085 0
M  V30 1963 H 215.938 -4.56649 -1.63095 0
M  V30 1964 N 217.281 0.66697 -1.42791 0
M  V30 1965 C 218.528 1.42699 -1.43678 0
M  V30 1966 C 218.856 1.94419 -0.0560425 0
M  V30 1967 O 218.111 1.7182 0.936831 0
M  V30 1968 C 218.41 2.6349 -2.4147 0
M  V30 1969 C 218.076 2.30267 -3.8767 0
M  V30 1970 C 216.738 2.20918 -4.27491 0
M  V30 1971 C 219.09 2.03435 -4.79858 0
M  V30 1972 C 216.418 1.82873 -5.57471 0
M  V30 1973 C 218.77 1.66892 -6.10188 0
M  V30 1974 C 217.434 1.56058 -6.49001 0
M  V30 1975 H 216.704 0.522171 -0.525755 0
M  V30 1976 H 219.351 0.759785 -1.75783 0
M  V30 1977 H 217.656 3.35279 -2.0272 0
M  V30 1978 H 219.353 3.21684 -2.39417 0
M  V30 1979 H 215.943 2.38449 -3.56146 0
M  V30 1980 H 220.127 2.09586 -4.49875 0
M  V30 1981 H 215.383 1.7306 -5.86396 0
M  V30 1982 H 219.557 1.45157 -6.81104 0
M  V30 1983 H 217.184 1.26348 -7.49627 0
M  V30 1984 N 218.759 1.29093 0.90403 0
M  V30 1985 C 220.007 1.16583 1.65085 0
M  V30 1986 C 220.328 -0.283933 1.92922 0
M  V30 1987 O 219.598 -1.19509 1.55224 0
M  V30 1988 H 218.178 0.428467 0.611903 0
M  V30 1989 H 220.84 1.61959 1.08422 0
M  V30 1990 H 219.936 1.71266 2.6091 0
M  V30 1991 N 220.237 -1.11381 1.11499 0
M  V30 1992 C 221.514 -1.7955 0.775965 0
M  V30 1993 C 221.894 -1.97859 -0.73588 0
M  V30 1994 O 221.242 -1.56376 -1.66609 0
M  V30 1995 C 221.452 -3.13196 1.53977 0
M  V30 1996 C 222.8 -3.88227 1.71944 0
M  V30 1997 O 223.824 -3.22887 1.50407 0
M  V30 1998 O 222.683 -5.05477 2.07738 0
M  V30 1999 H 219.777 -0.777728 0.28119 0
M  V30 2000 H 222.323 -1.18118 1.21845 0
M  V30 2001 H 221.095 -2.95229 2.56818 0
M  V30 2002 H 220.718 -3.82342 1.09088 0
M  V30 2003 N 221.715 -0.905404 -1.28997 0
M  V30 2004 C 222.625 -0.392246 -2.31298 0
M  V30 2005 C 223.641 0.515889 -1.66176 0
M  V30 2006 O 224.817 0.404093 -1.97304 0
M  V30 2007 C 221.882 0.36686 -3.44754 0
M  V30 2008 C 220.943 -0.573485 -4.25452 0
M  V30 2009 C 220.176 0.149488 -5.33491 0
M  V30 2010 O 220.399 1.37255 -5.5364 0
M  V30 2011 O 219.333 -0.510919 -5.99728 0
M  V30 2012 H 223.159 -1.2411 -2.77183 0
M  V30 2013 H 220.744 -0.669926 -1.33538 0
M  V30 2014 H 222.626 0.795907 -4.13816 0
M  V30 2015 H 221.301 1.19169 -3.00966 0
M  V30 2016 H 220.208 -1.05176 -3.59011 0
M  V30 2017 H 221.541 -1.36489 -4.72897 0
M  V30 2018 N 223.193 1.4272 -0.668489 0
M  V30 2019 C 224.442 2.00846 -0.185389 0
M  V30 2020 C 224.755 1.53442 1.21305 0
M  V30 2021 O 225.961 2.03944 1.79218 0
M  V30 2022 C 224.417 3.58805 -0.280591 0
M  V30 2023 C 224.025 4.15198 -1.68268 0
M  V30 2024 C 225.769 4.24255 0.14412 0
M  V30 2025 C 223.676 5.655 -1.73099 0
M  V30 2026 H 222.606 0.751145 -0.0655475 0
M  V30 2027 H 225.257 1.63516 -0.832752 0
M  V30 2028 H 223.639 3.93608 0.434553 0
M  V30 2029 H 224.813 3.91866 -2.42441 0
M  V30 2030 H 223.128 3.62176 -2.05469 0
M  V30 2031 H 225.725 5.34547 0.128086 0
M  V30 2032 H 226.068 3.99277 1.17827 0
M  V30 2033 H 226.601 3.94389 -0.519798 0
M  V30 2034 H 223.34 5.95268 -2.74475 0
M  V30 2035 H 222.86 5.90842 -1.03274 0
M  V30 2036 H 224.539 6.29808 -1.48158 0
M  V30 2037 N 224.671 0.411399 1.52136 0
M  V30 2038 C 225.92 -0.165009 2.01024 0
M  V30 2039 C 226.233 -1.4603 1.30133 0
M  V30 2040 O 227.439 -2.1181 1.69849 0
M  V30 2041 C 225.895 -0.344618 3.58246 0
M  V30 2042 C 225.503 0.938716 4.38055 0
M  V30 2043 C 227.247 -0.876195 4.15359 0
M  V30 2044 C 225.154 0.726172 5.86925 0
M  V30 2045 H 224.084 -0.0654407 0.751155 0
M  V30 2046 H 226.735 0.537192 1.75461 0
M  V30 2047 H 225.117 -1.10921 3.80148 0
M  V30 2048 H 226.291 1.70963 4.27912 0
M  V30 2049 H 224.606 1.39688 3.92271 0
M  V30 2050 H 227.203 -1.05128 5.24263 0
M  V30 2051 H 227.546 -1.85152 3.7286 0
M  V30 2052 H 228.079 -0.170607 3.97434 0
M  V30 2053 H 224.818 1.67312 6.33788 0
M  V30 2054 H 224.338 -0.00540283 5.998 0
M  V30 2055 H 226.017 0.369231 6.45946 0
M  V30 2056 N 226.149 -1.5696 0.141893 0
M  V30 2057 C 227.377 -2.00322 -0.517579 0
M  V30 2058 C 227.792 -1.02193 -1.58752 0
M  V30 2059 O 227.149 -0.0181619 -1.82491 0
M  V30 2060 C 227.2 -3.43618 -1.12289 0
M  V30 2061 O 226.921 -4.37995 -0.0956929 0
M  V30 2062 C 228.422 -4.02231 -1.86347 0
M  V30 2063 H 225.642 -0.657243 -0.135177 0
M  V30 2064 H 228.186 -2.03146 0.234973 0
M  V30 2065 H 226.341 -3.41662 -1.82609 0
M  V30 2066 H 226.755 -5.21729 -0.538469 0
M  V30 2067 H 228.229 -5.04509 -2.23997 0
M  V30 2068 H 228.706 -3.42655 -2.74744 0
M  V30 2069 H 229.312 -4.07802 -1.20737 0
M  V30 2070 N 227.627 0.131896 -1.57047 0
M  V30 2071 C 228.575 1.18146 -2.0036 0
M  V30 2072 C 229.569 1.43614 -0.898406 0
M  V30 2073 O 230.775 1.43729 -1.08361 0
M  V30 2074 H 227.15 0.398042 -0.638018 0
M  V30 2075 H 229.121 0.789564 -2.87765 0
M  V30 2076 C 227.87 2.50341 -2.41298 0
M  V30 2077 H 227.193 2.31578 -3.25902 0
M  V30 2078 H 228.633 3.22371 -2.75414 0
M  V30 2079 C 227.092 3.11984 -1.27153 0
M  V30 2080 O 227.622 3.97484 -0.580459 0
M  V30 2081 N 225.828 2.71662 -1.03189 0
M  V30 2082 H 225.375 2.02231 -1.59564 0
M  V30 2083 H 225.333 3.13238 -0.270077 0
M  V30 2084 N 229.106 1.52395 0.401703 0
M  V30 2085 C 230.354 1.66488 1.14569 0
M  V30 2086 C 230.675 0.400897 1.90835 0
M  V30 2087 O 229.945 -0.584415 1.8698 0
M  V30 2088 H 228.525 0.613672 0.425929 0
M  V30 2089 H 231.187 1.89464 0.457093 0
M  V30 2090 H 230.283 2.50942 1.85566 0
M  V30 2091 N 230.584 -0.659388 1.43143 0
M  V30 2092 C 231.831 -1.41935 1.44433 0
M  V30 2093 C 232.159 -1.94387 0.0663522 0
M  V30 2094 O 231.414 -1.72314 -0.927706 0
M  V30 2095 C 231.713 -2.62206 2.42864 0
M  V30 2096 C 231.379 -2.28208 3.88886 0
M  V30 2097 C 230.041 -2.18647 4.28657 0
M  V30 2098 C 232.393 -2.00887 4.8093 0
M  V30 2099 C 229.721 -1.79914 5.58433 0
M  V30 2100 C 232.073 -1.63653 6.11065 0
M  V30 2101 C 230.737 -1.52614 6.49819 0
M  V30 2102 H 230.007 -0.519376 0.528517 0
M  V30 2103 H 232.654 -0.750453 1.76183 0
M  V30 2104 H 230.959 -3.34199 2.04495 0
M  V30 2105 H 232.656 -3.2041 2.41119 0
M  V30 2106 H 229.246 -2.36557 3.57406 0
M  V30 2107 H 233.43 -2.07198 4.5098 0
M  V30 2108 H 228.686 -1.69948 5.87305 0
M  V30 2109 H 232.86 -1.41543 6.81864 0
M  V30 2110 H 230.487 -1.22371 7.50286 0
M  V30 2111 N 232.062 -1.29571 -0.897171 0
M  V30 2112 C 233.012 -1.11539 -1.98855 0
M  V30 2113 C 233.996 -0.0340716 -1.60864 0
M  V30 2114 O 235.188 -0.256062 -1.75138 0
M  V30 2115 C 232.317 -0.796603 -3.3393 0
M  V30 2116 C 231.403 -1.91758 -3.78272 0
M  V30 2117 N 231.794 -3.16143 -3.94826 0
M  V30 2118 C 230.092 -1.81119 -4.07568 0
M  V30 2119 C 230.793 -3.89293 -4.32233 0
M  V30 2120 N 229.769 -3.17255 -4.41419 0
M  V30 2121 H 233.571 -2.05894 -2.09726 0
M  V30 2122 H 231.085 -1.20732 -1.08616 0
M  V30 2123 H 233.082 -0.648459 -4.11826 0
M  V30 2124 H 231.742 0.139003 -3.24402 0
M  V30 2125 H 232.753 -3.5157 -3.80288 0
M  V30 2126 H 229.43 -0.948461 -4.06584 0
M  V30 2127 H 230.82 -4.9635 -4.52865 0
M  V30 2128 N 233.54 1.10788 -1.12088 0
M  V30 2129 C 234.765 1.87002 -0.896949 0
M  V30 2130 C 235.19 1.79933 0.548261 0
M  V30 2131 O 234.548 1.16662 1.38779 0
M  V30 2132 C 234.596 3.3349 -1.37174 0
M  V30 2133 O 233.7 4.08745 -0.547831 0
M  V30 2134 H 233.041 0.580397 -0.322545 0
M  V30 2135 H 235.571 1.39996 -1.49206 0
M  V30 2136 H 235.581 3.84339 -1.36922 0
M  V30 2137 H 234.256 3.37951 -2.42408 0
M  V30 2138 H 232.833 3.6776 -0.617034 0
M  V30 2139 N 235.018 0.912232 1.28515 0
M  V30 2140 C 236.258 0.551677 1.96814 0
M  V30 2141 C 236.622 -0.887825 1.7024 0
M  V30 2142 O 237.823 -1.35588 2.32098 0
M  V30 2143 C 236.094 0.850555 3.47132 0
M  V30 2144 S 237.653 0.59619 4.34731 0
M  V30 2145 H 234.471 0.204191 0.681049 0
M  V30 2146 H 237.073 1.17736 1.56072 0
M  V30 2147 H 235.777 1.8962 3.63968 0
M  V30 2148 H 235.308 0.213471 3.9282 0
M  V30 2149 H 237.323 -0.553154 4.93107 0
M  V30 2150 N 236.496 -1.42363 0.676048 0
M  V30 2151 C 237.406 -2.346 -0.00153389 0
M  V30 2152 C 238.422 -1.5516 -0.787485 0
M  V30 2153 O 239.598 -1.87723 -0.729521 0
M  V30 2154 C 236.663 -3.33705 -0.940298 0
M  V30 2155 C 235.724 -4.29042 -0.148739 0
M  V30 2156 C 234.957 -5.23413 -1.04279 0
M  V30 2157 O 235.18 -5.22749 -2.28232 0
M  V30 2158 O 234.114 -5.99795 -0.502925 0
M  V30 2159 H 237.94 -2.94082 0.758268 0
M  V30 2160 H 235.525 -1.42888 0.436289 0
M  V30 2161 H 237.407 -3.94586 -1.47917 0
M  V30 2162 H 236.082 -2.76695 -1.67993 0
M  V30 2163 H 234.989 -3.71571 0.43427 0
M  V30 2164 H 236.322 -4.89097 0.551805 0
M  V30 2165 N 237.974 -0.419461 -1.51915 0
M  V30 2166 C 239.199 0.154572 -2.06823 0
M  V30 2167 C 239.624 1.3722 -1.28656 0
M  V30 2168 O 238.982 1.78461 -0.319583 0
M  V30 2169 C 239.03 0.473172 -3.57482 0
M  V30 2170 O 238.134 1.56255 -3.81652 0
M  V30 2171 H 237.475 0.0096924 -0.663929 0
M  V30 2172 H 240.005 -0.595642 -1.95738 0
M  V30 2173 H 240.015 0.728825 -4.01438 0
M  V30 2174 H 238.69 -0.416873 -4.13805 0
M  V30 2175 H 237.267 1.29825 -3.49571 0
M  V30 2176 N 239.452 1.56882 -0.150215 0
M  V30 2177 C 240.729 1.87844 0.545327 0
M  V30 2178 C 241.109 1.0567 1.82749 0
M  V30 2179 O 240.457 0.144442 2.28043 0
M  V30 2180 C 240.667 3.39526 0.80767 0
M  V30 2181 C 242.015 4.08814 1.14703 0
M  V30 2182 O 243.039 3.44723 0.896917 0
M  V30 2183 O 241.898 5.22004 1.61784 0
M  V30 2184 H 238.992 0.778677 0.278553 0
M  V30 2185 H 241.538 1.68666 -0.187068 0
M  V30 2186 H 240.31 3.91173 -0.0996096 0
M  V30 2187 H 239.933 3.64243 1.59413 0
M  V30 2188 N 240.93 -0.123565 1.57115 0
M  V30 2189 C 241.84 -1.17074 2.033 0
M  V30 2190 C 242.856 -1.4561 0.952559 0
M  V30 2191 O 244.032 -1.56817 1.26374 0
M  V30 2192 C 241.097 -2.47857 2.42421 0
M  V30 2193 C 240.158 -2.26758 3.64526 0
M  V30 2194 C 239.391 -3.51305 4.01771 0
M  V30 2195 O 239.614 -4.5843 3.39409 0
M  V30 2196 O 238.548 -3.42578 4.94898 0
M  V30 2197 H 242.374 -0.808555 2.92739 0
M  V30 2198 H 239.959 -0.334027 1.45618 0
M  V30 2199 H 241.841 -3.2492 2.68338 0
M  V30 2200 H 240.516 -2.83558 1.5613 0
M  V30 2201 H 239.423 -1.47569 3.43765 0
M  V30 2202 H 240.756 -1.95963 4.51508 0
M  V30 2203 N 242.408 -1.52605 -0.393616 0
M  V30 2204 C 243.318 -1.79971 -1.50492 0
M  V30 2205 C 244.334 -0.686181 -1.59899 0
M  V30 2206 O 245.51 -0.973274 -1.76322 0
M  V30 2207 C 242.575 -1.95867 -2.86072 0
M  V30 2208 C 241.636 -3.19781 -2.86424 0
M  V30 2209 C 240.869 -3.34909 -4.15538 0
M  V30 2210 O 241.092 -2.54948 -5.10253 0
M  V30 2211 O 240.026 -4.28141 -4.23059 0
M  V30 2212 H 243.852 -2.74328 -1.30299 0
M  V30 2213 H 241.437 -1.3764 -0.581005 0
M  V30 2214 H 243.319 -2.08056 -3.66457 0
M  V30 2215 H 241.994 -1.04699 -3.063 0
M  V30 2216 H 240.901 -3.13038 -2.04837 0
M  V30 2217 H 242.234 -4.1078 -2.71147 0
M  V30 2218 N 243.887 0.651787 -1.4349 0
M  V30 2219 C 245.164 1.40909 -1.35661 0
M  V30 2220 C 245.544 2.11099 -0.00511733 0
M  V30 2221 O 244.892 2.04892 1.0115 0
M  V30 2222 C 245.102 2.3926 -2.54078 0
M  V30 2223 C 246.45 3.03217 -2.97228 0
M  V30 2224 O 247.474 2.49588 -2.54135 0
M  V30 2225 O 246.333 4.00455 -3.71885 0
M  V30 2226 H 243.427 0.629625 -0.536191 0
M  V30 2227 H 245.973 0.678575 -1.55542 0
M  V30 2228 H 244.745 1.86352 -3.44076 0
M  V30 2229 H 244.368 3.1976 -2.36303 0
M  V30 2230 N 245.365 1.30045 0.890287 0
M  V30 2231 C 246.781 1.08261 1.17268 0
M  V30 2232 C 246.981 -0.160063 2.00863 0
M  V30 2233 O 246.037 -0.855181 2.37577 0
M  V30 2234 C 247.35 2.34323 1.8845 0
M  V30 2235 C 248.898 2.39735 2.01237 0
M  V30 2236 C 249.373 3.65625 2.7583 0
M  V30 2237 N 250.864 3.66402 2.83379 0
M  V30 2238 C 251.599 4.60498 3.41657 0
M  V30 2239 N 251.095 5.64933 4.01026 0
M  V30 2240 N 252.888 4.48051 3.39421 0
M  V30 2241 H 245.039 2.09777 0.332762 0
M  V30 2242 H 247.302 0.92446 0.209948 0
M  V30 2243 H 247.008 3.2498 1.34465 0
M  V30 2244 H 246.882 2.4256 2.88867 0
M  V30 2245 H 249.269 1.4956 2.54393 0
M  V30 2246 H 249.35 2.35476 0.999232 0
M  V30 2247 H 248.994 4.56156 2.23347 0
M  V30 2248 H 248.924 3.67144 3.77509 0
M  V30 2249 H 251.415 2.90896 2.41222 0
M  V30 2250 H 251.728 6.32841 4.43545 0
M  V30 2251 H 250.073 5.68732 3.99461 0
M  V30 2252 H 253.264 3.65649 2.92264 0
M  V30 2253 H 253.437 5.21565 3.84544 0
M  V30 2254 N 246.843 -1.10192 1.12674 0
M  V30 2255 C 247.806 -2.14786 0.799979 0
M  V30 2256 C 248.806 -1.59711 -0.18685 0
M  V30 2257 O 249.996 -1.74156 0.0392558 0
M  V30 2258 C 247.128 -3.40374 0.189228 0
M  V30 2259 H 248.321 -2.45203 1.72671 0
M  V30 2260 H 245.874 -1.25597 0.930326 0
M  V30 2261 H 246.609 -3.15577 -0.747107 0
M  V30 2262 H 246.394 -3.81637 0.899766 0
M  V30 2263 H 247.884 -4.17594 -0.0228143 0
M  V30 2264 N 248.321 -0.919034 -1.28029 0
M  V30 2265 C 249.546 -0.570357 -1.99403 0
M  V30 2266 C 249.971 0.842486 -1.68178 0
M  V30 2267 O 249.329 1.56391 -0.917141 0
M  V30 2268 C 249.377 -0.792541 -3.51783 0
M  V30 2269 O 248.481 0.145988 -4.12142 0
M  V30 2270 H 247.822 -0.220555 -0.6263 0
M  V30 2271 H 250.352 -1.23592 -1.63053 0
M  V30 2272 H 250.362 -0.704708 -4.01868 0
M  V30 2273 H 249.037 -1.82247 -3.73844 0
M  V30 2274 H 247.614 0.00897528 -3.72899 0
M  V30 2275 N 249.799 1.42003 -0.683588 0
M  V30 2276 C 250.749 2.27997 0.0121992 0
M  V30 2277 C 251.733 1.4156 0.764822 0
M  V30 2278 O 252.925 1.64935 0.642287 0
M  V30 2279 C 250.054 3.29706 0.956482 0
M  V30 2280 C 249.14 4.23625 0.200739 0
M  V30 2281 N 249.531 4.99448 -0.799087 0
M  V30 2282 C 247.829 4.43845 0.437937 0
M  V30 2283 C 248.53 5.68102 -1.25041 0
M  V30 2284 N 247.506 5.40511 -0.578648 0
M  V30 2285 H 251.308 2.84048 -0.754564 0
M  V30 2286 H 248.822 1.54071 -0.513398 0
M  V30 2287 H 250.819 3.90124 1.47 0
M  V30 2288 H 249.479 2.75216 1.72297 0
M  V30 2289 H 250.49 5.04303 -1.17893 0
M  V30 2290 H 247.167 4.00382 1.18325 0
M  V30 2291 H 248.557 6.38913 -2.07942 0
M  V30 2292 N 251.277 0.427512 1.51691 0
M  V30 2293 C 252.24 -0.377132 2.26076 0
M  V30 2294 C 253.24 -0.958089 1.29141 0
M  V30 2295 O 254.43 -0.83408 1.52934 0
M  V30 2296 C 251.562 -1.53262 3.04506 0
M  V30 2297 H 252.755 0.27464 2.9864 0
M  V30 2298 H 250.308 0.180445 1.55255 0
M  V30 2299 H 251.043 -2.22072 2.36335 0
M  V30 2300 H 250.828 -1.12232 3.75694 0
M  V30 2301 H 252.318 -2.10135 3.60878 0
M  V30 2302 N 252.755 -1.56801 0.158532 0
M  V30 2303 C 253.98 -2.01295 -0.499516 0
M  V30 2304 C 254.405 -1.03799 -1.56867 0
M  V30 2305 O 253.763 -0.0155162 -1.81293 0
M  V30 2306 C 253.811 -3.44469 -1.06647 0
M  V30 2307 O 252.915 -3.50012 -2.18095 0
M  V30 2308 H 252.256 -0.652884 -0.12099 0
M  V30 2309 H 254.786 -2.02958 0.258661 0
M  V30 2310 H 254.796 -3.8351 -1.39227 0
M  V30 2311 H 253.471 -4.14932 -0.283581 0
M  V30 2312 H 252.048 -3.22822 -1.86656 0
M  V30 2313 N 254.233 0.115231 -1.57178 0
M  V30 2314 C 255.458 0.840354 -1.89612 0
M  V30 2315 C 255.883 1.72464 -0.750845 0
M  V30 2316 O 255.241 1.78826 0.298478 0
M  V30 2317 C 255.289 1.64654 -3.20814 0
M  V30 2318 O 254.393 2.7538 -3.06985 0
M  V30 2319 H 253.734 0.232158 -0.622092 0
M  V30 2320 H 256.264 0.0964977 -2.04372 0
M  V30 2321 H 256.274 2.03499 -3.53627 0
M  V30 2322 H 254.949 0.997416 -4.03763 0
M  V30 2323 H 253.526 2.3971 -2.85646 0
M  V30 2324 N 255.711 1.52812 0.385517 0
M  V30 2325 C 256.936 1.72207 1.15583 0
M  V30 2326 C 257.361 0.441034 1.82857 0
M  V30 2327 O 256.719 -0.603465 1.70962 0
M  V30 2328 C 256.767 2.87476 2.17692 0
M  V30 2329 O 255.871 2.54693 3.24354 0
M  V30 2330 H 255.212 0.572526 0.336319 0
M  V30 2331 H 257.742 1.99618 0.448744 0
M  V30 2332 H 257.752 3.13072 2.6163 0
M  V30 2333 H 256.427 3.80408 1.68115 0
M  V30 2334 H 255.004 2.3985 2.85529 0
M  V30 2335 N 257.189 -0.644168 1.43834 0
M  V30 2336 C 258.466 -1.40188 1.36406 0
M  V30 2337 C 258.846 -2.11094 0.0163124 0
M  V30 2338 O 258.194 -2.05426 -1.00062 0
M  V30 2339 C 258.404 -2.3791 2.55343 0
M  V30 2340 C 259.752 -3.01637 2.98832 0
M  V30 2341 O 260.776 -2.48237 2.55455 0
M  V30 2342 O 259.635 -3.98477 3.74003 0
M  V30 2343 H 256.729 -0.626773 0.539523 0
M  V30 2344 H 259.275 -0.670317 1.559 0
M  V30 2345 H 258.047 -1.84525 3.4506 0
M  V30 2346 H 257.67 -3.18503 2.37995 0
M  V30 2347 N 258.668 -1.30515 -0.883378 0
M  V30 2348 C 259.914 -1.20617 -1.63778 0
M  V30 2349 C 260.269 0.236469 -1.90941 0
M  V30 2350 O 259.562 1.16596 -1.52039 0
M  V30 2351 C 259.756 -1.96994 -2.98209 0
M  V30 2352 C 259.585 -3.48537 -2.84169 0
M  V30 2353 C 258.355 -4.17893 -2.84067 0
M  V30 2354 C 260.553 -4.43738 -2.60001 0
M  V30 2355 N 258.535 -5.55685 -2.60936 0
M  V30 2356 C 259.906 -5.69105 -2.46007 0
M  V30 2357 C 261.961 -4.33316 -2.45239 0
M  V30 2358 C 260.664 -6.8523 -2.18752 0
M  V30 2359 C 262.69 -5.4921 -2.19369 0
M  V30 2360 C 262.052 -6.73558 -2.06153 0
M  V30 2361 H 258.151 -0.496434 -0.604216 0
M  V30 2362 H 260.735 -1.64544 -1.04083 0
M  V30 2363 H 258.906 -1.55455 -3.55933 0
M  V30 2364 H 260.638 -1.79225 -3.62851 0
M  V30 2365 H 257.393 -3.69739 -2.95956 0
M  V30 2366 H 257.817 -6.28199 -2.52378 0
M  V30 2367 H 262.459 -3.37856 -2.54191 0
M  V30 2368 H 260.177 -7.80729 -2.08537 0
M  V30 2369 H 263.763 -5.43054 -2.08766 0
M  V30 2370 H 262.643 -7.61721 -1.86416 0
M  V30 2371 N 260.146 1.09593 -1.13257 0
M  V30 2372 C 261.374 1.855 -0.916378 0
M  V30 2373 C 261.789 1.81069 0.534738 0
M  V30 2374 O 261.146 1.20562 1.37007 0
M  V30 2375 C 261.197 3.33546 -1.39388 0
M  V30 2376 O 260.918 3.37927 -2.78813 0
M  V30 2377 C 262.419 4.26299 -1.21588 0
M  V30 2378 H 259.639 0.585991 -0.326887 0
M  V30 2379 H 262.183 1.38488 -1.5047 0
M  V30 2380 H 260.338 3.77992 -0.848597 0
M  V30 2381 H 260.752 4.30254 -2.9997 0
M  V30 2382 H 262.226 5.28341 -1.59876 0
M  V30 2383 H 262.703 4.38918 -0.157376 0
M  V30 2384 H 263.309 3.87668 -1.7491 0
M  V30 2385 N 261.624 0.925811 1.2754 0
M  V30 2386 C 263.035 0.610102 1.7645 0
M  V30 2387 C 263.386 -0.874723 1.75622 0
M  V30 2388 O 262.511 -1.68444 1.35851 0
M  V30 2389 C 263.106 1.10073 3.20421 0
M  V30 2390 C 261.665 0.835723 3.67005 0
M  V30 2391 C 260.812 1.26054 2.46993 0
M  V30 2392 H 263.763 1.10579 1.13833 0
M  V30 2393 H 263.784 0.447557 3.77859 0
M  V30 2394 H 263.296 2.18143 3.20991 0
M  V30 2395 H 261.397 -0.231249 3.71882 0
M  V30 2396 H 261.51 1.45193 4.56569 0
M  V30 2397 H 259.874 0.679111 2.45479 0
M  V30 2398 H 260.657 2.34984 2.50275 0
M  V30 2399 N 263.102 -1.41638 0.69111 0
M  V30 2400 C 264.518 -1.55435 0.362224 0
M  V30 2401 C 264.718 -1.66754 -1.13117 0
M  V30 2402 O 263.774 -1.64348 -1.91692 0
M  V30 2403 C 265.087 -2.79588 1.10684 0
M  V30 2404 C 266.635 -2.9338 1.09075 0
M  V30 2405 C 267.11 -4.20414 1.81703 0
M  V30 2406 N 268.601 -4.27362 1.7865 0
M  V30 2407 C 269.336 -5.24507 2.31689 0
M  V30 2408 N 268.832 -6.27708 2.93179 0
M  V30 2409 N 270.625 -5.16416 2.2197 0
M  V30 2410 H 262.776 -1.32536 1.65976 0
M  V30 2411 H 265.039 -0.639115 0.700168 0
M  V30 2412 H 264.745 -2.77419 2.16175 0
M  V30 2413 H 264.619 -3.70973 0.682545 0
M  V30 2414 H 267.006 -2.95067 0.0441238 0
M  V30 2415 H 267.087 -2.0318 1.55407 0
M  V30 2416 H 266.731 -4.19488 2.86343 0
M  V30 2417 H 266.661 -5.09578 1.32808 0
M  V30 2418 H 269.152 -3.53415 1.33815 0
M  V30 2419 H 269.465 -6.98217 3.31229 0
M  V30 2420 H 267.81 -6.28223 2.97255 0
M  V30 2421 H 271.001 -4.34716 1.73607 0
M  V30 2422 H 271.174 -5.91958 2.63609 0
M  V30 2423 N 264.58 -0.43555 -1.51462 0
M  V30 2424 C 265.991 0.0279871 -1.86679 0
M  V30 2425 C 266.342 1.42104 -1.35281 0
M  V30 2426 O 265.467 2.04667 -0.702878 0
M  V30 2427 C 266.062 0.0575626 -3.38751 0
M  V30 2428 C 264.621 0.465507 -3.7351 0
M  V30 2429 C 263.768 -0.342996 -2.75171 0
M  V30 2430 H 266.719 -0.651473 -1.44712 0
M  V30 2431 H 266.74 0.867421 -3.70481 0
M  V30 2432 H 266.252 -0.956448 -3.7613 0
M  V30 2433 H 264.353 1.48519 -3.41721 0
M  V30 2434 H 264.466 0.191546 -4.78717 0
M  V30 2435 H 262.83 0.198442 -2.53926 0
M  V30 2436 H 263.613 -1.35585 -3.15391 0
M  V30 2437 N 266.058 1.56714 -0.166846 0
M  V30 2438 C 267.474 1.58473 0.189372 0
M  V30 2439 C 267.674 1.18201 1.63189 0
M  V30 2440 O 266.73 0.891528 2.36237 0
M  V30 2441 C 268.043 3.00573 -0.0873872 0
M  V30 2442 C 269.591 3.1299 -0.0252443 0
M  V30 2443 C 270.066 4.57174 -0.274934 0
M  V30 2444 N 271.557 4.62665 -0.222553 0
M  V30 2445 C 272.292 5.72072 -0.389985 0
M  V30 2446 N 271.788 6.90054 -0.616229 0
M  V30 2447 N 273.581 5.61153 -0.326202 0
M  V30 2448 H 265.732 1.8118 -1.10849 0
M  V30 2449 H 267.995 0.839525 -0.440342 0
M  V30 2450 H 267.701 3.34497 -1.0865 0
M  V30 2451 H 267.575 3.72019 0.623037 0
M  V30 2452 H 269.962 2.78895 0.96444 0
M  V30 2453 H 270.043 2.43989 -0.768309 0
M  V30 2454 H 269.687 4.91976 -1.26181 0
M  V30 2455 H 269.617 5.24328 0.48869 0
M  V30 2456 H 272.108 3.77863 -0.0531512 0
M  V30 2457 H 272.421 7.69311 -0.733559 0
M  V30 2458 H 270.766 6.91927 -0.652791 0
M  V30 2459 H 273.957 4.67859 -0.150072 0
M  V30 2460 H 274.13 6.46364 -0.460116 0
M  V30 2461 N 267.536 -0.106894 1.57237 0
M  V30 2462 C 268.785 -0.811163 1.8467 0
M  V30 2463 C 269.098 -1.80469 0.754342 0
M  V30 2464 O 270.304 -2.55601 0.915439 0
M  V30 2465 C 268.76 -1.49337 3.27454 0
M  V30 2466 C 268.368 -0.540217 4.44731 0
M  V30 2467 C 270.112 -2.18206 3.64124 0
M  V30 2468 C 268.019 -1.22634 5.78545 0
M  V30 2469 H 266.949 -0.306679 0.688813 0
M  V30 2470 H 269.6 -0.0639887 1.83388 0
M  V30 2471 H 267.982 -2.2876 3.23241 0
M  V30 2472 H 269.156 0.221659 4.60267 0
M  V30 2473 H 267.471 0.042146 4.16379 0
M  V30 2474 H 270.068 -2.70253 4.61376 0
M  V30 2475 H 270.411 -2.96562 2.92158 0
M  V30 2476 H 270.944 -1.45658 3.70174 0
M  V30 2477 H 267.683 -0.483832 6.53712 0
M  V30 2478 H 267.203 -1.95993 5.66874 0
M  V30 2479 H 268.882 -1.75615 6.2271 0
M  V30 2480 N 269.014 -1.53014 -0.377408 0
M  V30 2481 C 270.262 -1.6829 -1.11906 0
M  V30 2482 C 270.583 -0.431206 -1.90173 0
M  V30 2483 O 269.853 0.554595 -1.87886 0
M  V30 2484 H 268.433 -0.620371 -0.416112 0
M  V30 2485 H 271.095 -1.90167 -0.426893 0
M  V30 2486 H 270.191 -2.53862 -1.8155 0
M  V30 2487 N 270.492 0.636531 -1.44174 0
M  V30 2488 C 271.903 1.21806 -1.41493 0
M  V30 2489 C 272.254 1.95785 -0.1275 0
M  V30 2490 O 271.379 2.02147 0.772376 0
M  V30 2491 C 271.974 2.21551 -2.56321 0
M  V30 2492 C 270.533 2.75143 -2.56853 0
M  V30 2493 C 269.68 1.50052 -2.33195 0
M  V30 2494 H 272.631 0.427531 -1.52833 0
M  V30 2495 H 272.652 3.0405 -2.28765 0
M  V30 2496 H 272.164 1.67679 -3.50008 0
M  V30 2497 H 270.265 3.33033 -1.67093 0
M  V30 2498 H 270.378 3.2155 -3.55165 0
M  V30 2499 H 268.742 1.77993 -1.82183 0
M  V30 2500 H 269.525 0.980903 -3.28988 0
M  V30 2501 N 271.97 1.30982 0.876444 0
M  V30 2502 C 273.2 1.23063 1.65949 0
M  V30 2503 C 273.608 -0.207537 1.88058 0
M  V30 2504 O 272.951 -1.14781 1.43426 0
M  V30 2505 C 273.013 1.89768 3.05333 0
M  V30 2506 C 272.677 3.39106 3.0636 0
M  V30 2507 C 273.674 4.3496 2.84791 0
M  V30 2508 C 271.359 3.80693 3.27686 0
M  V30 2509 C 273.353 5.70375 2.84519 0
M  V30 2510 C 271.04 5.16223 3.27043 0
M  V30 2511 C 272.038 6.10875 3.05485 0
M  V30 2512 O 271.726 7.43928 3.04674 0
M  V30 2513 H 271.458 0.426685 0.524324 0
M  V30 2514 H 274.012 1.7329 1.10271 0
M  V30 2515 H 272.242 1.34082 3.6271 0
M  V30 2516 H 273.931 1.75853 3.65829 0
M  V30 2517 H 274.697 4.0416 2.68103 0
M  V30 2518 H 270.576 3.07457 3.43499 0
M  V30 2519 H 274.12 6.44228 2.67611 0
M  V30 2520 H 270.017 5.4666 3.43269 0
M  V30 2521 H 270.785 7.53022 3.2078 0
M  V30 2522 N 273.449 -1.08991 1.13837 0
M  V30 2523 C 274.677 -1.85011 0.926202 0
M  V30 2524 C 275.092 -1.8135 -0.525127 0
M  V30 2525 O 274.449 -1.21287 -1.36366 0
M  V30 2526 C 274.5 -3.32802 1.41155 0
M  V30 2527 O 274.221 -3.36444 2.80601 0
M  V30 2528 C 275.722 -4.25649 1.23847 0
M  V30 2529 H 272.942 -0.584249 0.32999 0
M  V30 2530 H 275.486 -1.37688 1.51202 0
M  V30 2531 H 273.641 -3.77536 0.868631 0
M  V30 2532 H 274.055 -4.28657 3.02248 0
M  V30 2533 H 275.529 -5.27485 1.62675 0
M  V30 2534 H 276.006 -4.38828 0.18065 0
M  V30 2535 H 276.612 -3.86735 1.76964 0
M  V30 2536 N 274.927 -0.932562 -1.27047 0
M  V30 2537 C 276.174 -0.575559 -1.94148 0
M  V30 2538 C 276.502 0.883984 -1.73251 0
M  V30 2539 O 275.757 1.64655 -1.0577 0
M  V30 2540 C 276.056 -0.853713 -3.47054 0
M  V30 2541 C 275.722 -2.29577 -3.88079 0
M  V30 2542 C 274.384 -2.68999 -3.9899 0
M  V30 2543 C 276.736 -3.23331 -4.08787 0
M  V30 2544 C 274.064 -4.01289 -4.28 0
M  V30 2545 C 276.416 -4.55207 -4.39282 0
M  V30 2546 C 275.08 -4.94457 -4.48407 0
M  V30 2547 H 274.35 -0.210612 -0.710439 0
M  V30 2548 H 276.997 -1.17744 -1.51025 0
M  V30 2549 H 275.302 -0.169204 -3.91434 0
M  V30 2550 H 276.999 -0.55639 -3.97121 0
M  V30 2551 H 273.589 -1.97994 -3.80127 0
M  V30 2552 H 277.773 -2.94074 -3.99793 0
M  V30 2553 H 273.029 -4.31374 -4.33275 0
M  V30 2554 H 277.203 -5.27852 -4.54252 0
M  V30 2555 H 274.83 -5.96994 -4.7064 0
M  V30 2556 N 276.405 1.4127 -0.698611 0
M  V30 2557 C 277.651 2.01478 -0.231207 0
M  V30 2558 C 277.984 1.55215 1.16713 0
M  V30 2559 O 277.259 0.764672 1.78838 0
M  V30 2560 C 277.542 3.58912 -0.292281 0
M  V30 2561 C 277.395 4.15293 -1.72778 0
M  V30 2562 C 278.714 4.38736 0.346194 0
M  V30 2563 H 275.833 0.732025 -0.0854878 0
M  V30 2564 H 278.475 1.67977 -0.887906 0
M  V30 2565 H 276.625 3.87582 0.26686 0
M  V30 2566 H 278.297 3.97486 -2.341 0
M  V30 2567 H 276.54 3.7022 -2.26096 0
M  V30 2568 H 277.211 5.24452 -1.72202 0
M  V30 2569 H 279.687 4.15897 -0.130035 0
M  V30 2570 H 278.563 5.48221 0.272932 0
M  V30 2571 H 278.824 4.18425 1.42734 0
M  V30 2572 N 277.883 0.443576 1.51229 0
M  V30 2573 C 278.815 -0.400608 2.25672 0
M  V30 2574 C 279.828 -0.980945 1.29928 0
M  V30 2575 O 281.017 -0.874024 1.55638 0
M  V30 2576 C 278.117 -1.57304 3.00181 0
M  V30 2577 C 277.29 -1.11046 4.23069 0
M  V30 2578 C 276.349 -2.15374 4.80105 0
M  V30 2579 O 275.375 -1.74554 5.41774 0
M  V30 2580 N 276.577 -3.47922 4.64683 0
M  V30 2581 H 279.342 0.23745 2.98758 0
M  V30 2582 H 276.903 0.272809 1.59585 0
M  V30 2583 H 278.895 -2.26733 3.35223 0
M  V30 2584 H 277.465 -2.11632 2.30066 0
M  V30 2585 H 276.685 -0.243019 3.9345 0
M  V30 2586 H 277.973 -0.778888 5.02803 0
M  V30 2587 H 277.371 -3.83815 4.15575 0
M  V30 2588 H 275.928 -4.13228 5.0407 0
M  V30 2589 N 279.361 -1.56624 0.175154 0
M  V30 2590 C 280.293 -2.15333 -0.785128 0
M  V30 2591 C 281.306 -1.1099 -1.19101 0
M  V30 2592 O 282.495 -1.38162 -1.13019 0
M  V30 2593 C 279.595 -2.68427 -2.06882 0
M  V30 2594 C 278.768 -3.97466 -1.8259 0
M  V30 2595 C 277.827 -4.35585 -2.95215 0
M  V30 2596 O 276.853 -5.03389 -2.65684 0
M  V30 2597 N 278.055 -3.97457 -4.23094 0
M  V30 2598 H 280.82 -2.98359 -0.283187 0
M  V30 2599 H 278.381 -1.61898 -0.00749817 0
M  V30 2600 H 280.373 -2.90924 -2.81328 0
M  V30 2601 H 278.943 -1.89968 -2.48256 0
M  V30 2602 H 278.163 -3.83307 -0.920287 0
M  V30 2603 H 279.451 -4.81736 -1.63733 0
M  V30 2604 H 278.849 -3.42878 -4.49945 0
M  V30 2605 H 277.406 -4.24947 -4.9423 0
M  V30 2606 N 280.839 0.0985539 -1.57292 0
M  V30 2607 C 281.789 1.1261 -1.9825 0
M  V30 2608 C 282.773 1.35961 -0.860426 0
M  V30 2609 O 283.965 1.36711 -1.12424 0
M  V30 2610 C 281.094 2.44727 -2.40757 0
M  V30 2611 C 280.18 2.24764 -3.59642 0
M  V30 2612 N 280.571 1.74661 -4.74687 0
M  V30 2613 C 278.869 2.55344 -3.65672 0
M  V30 2614 C 279.57 1.68887 -5.56644 0
M  V30 2615 N 278.546 2.13976 -4.99715 0
M  V30 2616 H 282.348 0.731604 -2.84648 0
M  V30 2617 H 279.862 0.306029 -1.59491 0
M  V30 2618 H 281.859 3.19072 -2.68326 0
M  V30 2619 H 280.519 2.84917 -1.55733 0
M  V30 2620 H 281.53 1.43908 -4.97505 0
M  V30 2621 H 278.207 2.99081 -2.91302 0
M  V30 2622 H 279.597 1.3123 -6.5896 0
M  V30 2623 N 282.317 1.53212 0.369288 0
M  V30 2624 C 283.247 1.82365 1.45826 0
M  V30 2625 C 284.228 0.676907 1.56051 0
M  V30 2626 O 285.413 0.926401 1.70679 0
M  V30 2627 C 282.543 2.01023 2.83208 0
M  V30 2628 C 281.497 3.1678 2.8781 0
M  V30 2629 C 280.823 3.20724 4.27832 0
M  V30 2630 C 282.123 4.55447 2.55667 0
M  V30 2631 H 283.817 2.73559 1.21678 0
M  V30 2632 H 281.363 1.3163 0.583911 0
M  V30 2633 H 283.316 2.20001 3.59413 0
M  V30 2634 H 282.04 1.06536 3.08736 0
M  V30 2635 H 280.699 2.97616 2.14056 0
M  V30 2636 H 280.347 2.23882 4.50429 0
M  V30 2637 H 280.047 3.98496 4.31827 0
M  V30 2638 H 281.571 3.41881 5.05915 0
M  V30 2639 H 282.985 4.74611 3.21586 0
M  V30 2640 H 281.382 5.35432 2.70984 0
M  V30 2641 H 282.452 4.60812 1.5093 0
M  V30 2642 N 283.795 -0.628877 1.44509 0
M  V30 2643 C 284.728 -1.75367 1.46019 0
M  V30 2644 C 285.706 -1.59444 0.318787 0
M  V30 2645 O 286.89 -1.81297 0.516099 0
M  V30 2646 C 284.017 -3.12965 1.29501 0
M  V30 2647 C 283.063 -3.47532 2.47233 0
M  V30 2648 S 283.896 -3.44758 4.09758 0
M  V30 2649 C 285.052 -4.84973 3.95667 0
M  V30 2650 H 285.285 -1.7382 2.41193 0
M  V30 2651 H 282.818 -0.803686 1.31834 0
M  V30 2652 H 284.776 -3.92367 1.20658 0
M  V30 2653 H 283.437 -3.12049 0.358341 0
M  V30 2654 H 282.63 -4.47664 2.31544 0
M  V30 2655 H 282.232 -2.75598 2.52828 0
M  V30 2656 H 284.524 -5.74255 3.59496 0
M  V30 2657 H 285.467 -5.05716 4.95638 0
M  V30 2658 H 285.875 -4.59653 3.27688 0
M  V30 2659 N 285.273 -1.31445 -0.869486 0
M  V30 2660 C 286.522 -1.20517 -1.61736 0
M  V30 2661 C 286.835 0.235341 -1.94179 0
M  V30 2662 O 288.041 0.466312 -2.67465 0
M  V30 2663 C 286.497 -2.10982 -2.91573 0
M  V30 2664 C 286.105 -3.60032 -2.66611 0
M  V30 2665 C 287.849 -2.08856 -3.69567 0
M  V30 2666 C 285.756 -4.42503 -3.92358 0
M  V30 2667 H 284.686 -0.447493 -0.606849 0
M  V30 2668 H 287.337 -1.56303 -0.96133 0
M  V30 2669 H 285.719 -1.68095 -3.58553 0
M  V30 2670 H 286.893 -4.11167 -2.08035 0
M  V30 2671 H 285.208 -3.64139 -2.0197 0
M  V30 2672 H 287.805 -2.67716 -4.62852 0
M  V30 2673 H 288.148 -1.07582 -4.02159 0
M  V30 2674 H 288.681 -2.49945 -3.09471 0
M  V30 2675 H 285.42 -5.44533 -3.64916 0
M  V30 2676 H 284.94 -3.96125 -4.50383 0
M  V30 2677 H 286.619 -4.54741 -4.60238 0
M  V30 2678 N 286.751 1.08385 -1.14413 0
M  V30 2679 C 287.999 1.80419 -0.910679 0
M  V30 2680 C 288.32 1.86658 0.564243 0
M  V30 2681 O 287.59 1.35985 1.41014 0
M  V30 2682 H 286.17 0.668204 -0.333934 0
M  V30 2683 H 288.832 1.31037 -1.44275 0
M  V30 2684 H 287.928 2.83238 -1.31082 0
M  V30 2685 N 288.23 0.939286 1.26551 0
M  V30 2686 C 289.458 0.602536 1.97932 0
M  V30 2687 C 289.873 -0.82206 1.69964 0
M  V30 2688 O 289.23 -1.54789 0.966784 0
M  V30 2689 C 289.281 0.832946 3.51773 0
M  V30 2690 O 289.002 2.20151 3.78768 0
M  V30 2691 C 290.503 0.506483 4.40397 0
M  V30 2692 H 287.723 0.227248 0.631347 0
M  V30 2693 H 290.267 1.25948 1.61113 0
M  V30 2694 H 288.422 0.222644 3.8676 0
M  V30 2695 H 288.836 2.26013 4.73306 0
M  V30 2696 H 290.31 0.718333 5.47306 0
M  V30 2697 H 290.787 -0.558451 4.35635 0
M  V30 2698 H 291.393 1.09543 4.10951 0
M  V30 2699 N 289.708 -1.40897 0.706093 0
M  V30 2700 C 290.985 -1.94868 0.169099 0
M  V30 2701 C 291.365 -1.64485 -1.32318 0
M  V30 2702 O 290.713 -0.95744 -2.07474 0
M  V30 2703 C 290.923 -3.45798 0.471654 0
M  V30 2704 C 292.271 -4.22663 0.405127 0
M  V30 2705 O 293.295 -3.53865 0.407168 0
M  V30 2706 O 292.154 -5.45216 0.374383 0
M  V30 2707 H 289.248 -0.82673 0.0211352 0
M  V30 2708 H 291.794 -1.50558 0.782976 0
M  V30 2709 H 290.566 -3.61235 1.50416 0
M  V30 2710 H 290.189 -3.97225 -0.172666 0
M  V30 2711 N 291.186 -0.45159 -1.50991 0
M  V30 2712 C 292.597 0.00818571 -1.86698 0
M  V30 2713 C 292.948 1.40661 -1.3678 0
M  V30 2714 O 292.073 2.0391 -0.724546 0
M  V30 2715 C 292.668 0.0216303 -3.38793 0
M  V30 2716 C 291.227 0.425865 -3.73983 0
M  V30 2717 C 290.374 -0.372163 -2.74791 0
M  V30 2718 H 293.325 -0.666785 -1.44013 0
M  V30 2719 H 293.346 0.828078 -3.7138 0
M  V30 2720 H 292.858 -0.996288 -3.75094 0
M  V30 2721 H 290.959 1.44886 -3.43277 0
M  V30 2722 H 291.072 0.140761 -4.78893 0
M  V30 2723 H 289.436 0.171498 -2.54122 0
M  V30 2724 H 290.219 -1.38922 -3.13935 0
M  V30 2725 N 292.664 1.56529 -0.183458 0
M  V30 2726 C 294.08 1.58664 0.172554 0
M  V30 2727 C 294.28 1.19925 1.61926 0
M  V30 2728 O 293.336 0.916534 2.35278 0
M  V30 2729 C 294.649 3.00463 -0.119262 0
M  V30 2730 C 296.197 3.12945 -0.0584396 0
M  V30 2731 C 296.672 4.56857 -0.323408 0
M  V30 2732 N 298.163 4.62403 -0.271612 0
M  V30 2733 C 298.898 5.71626 -0.450639 0
M  V30 2734 N 298.394 6.89362 -0.689384 0
M  V30 2735 N 300.187 5.60775 -0.385701 0
M  V30 2736 H 292.338 1.79994 -1.12765 0
M  V30 2737 H 294.601 0.834808 -0.449222 0
M  V30 2738 H 294.307 3.33326 -1.12192 0
M  V30 2739 H 294.181 3.72659 0.583544 0
M  V30 2740 H 296.568 2.79902 0.934805 0
M  V30 2741 H 296.649 2.4316 -0.794144 0
M  V30 2742 H 296.293 4.9061 -1.31392 0
M  V30 2743 H 296.223 5.24816 0.43305 0
M  V30 2744 H 298.714 3.77785 -0.0932256 0
M  V30 2745 H 299.027 7.68489 -0.815113 0
M  V30 2746 H 297.372 6.91196 -0.726142 0
M  V30 2747 H 300.563 4.67674 -0.199687 0
M  V30 2748 H 300.736 6.4584 -0.528646 0
M  V30 2749 N 294.142 -0.090211 1.57342 0
M  V30 2750 C 295.37 -0.806224 1.90546 0
M  V30 2751 C 295.785 -1.72041 0.777644 0
M  V30 2752 O 295.142 -1.80778 -0.250103 0
M  V30 2753 C 295.193 -1.61546 3.23396 0
M  V30 2754 O 294.914 -0.738043 4.31839 0
M  V30 2755 C 296.415 -2.4341 3.70495 0
M  V30 2756 H 293.635 -0.230256 0.630257 0
M  V30 2757 H 296.179 -0.0659843 2.04394 0
M  V30 2758 H 294.334 -2.30816 3.11131 0
M  V30 2759 H 294.748 -1.29901 5.08159 0
M  V30 2760 H 296.222 -2.95676 4.66133 0
M  V30 2761 H 296.699 -3.22098 2.98579 0
M  V30 2762 H 297.305 -1.79331 3.85643 0
M  V30 2763 N 295.62 -1.53406 -0.361157 0
M  V30 2764 C 296.869 -1.69022 -1.10066 0
M  V30 2765 C 297.182 -0.450838 -1.90333 0
M  V30 2766 O 298.388 -0.487617 -2.67085 0
M  V30 2767 C 296.844 -2.98812 -2.00598 0
M  V30 2768 C 296.452 -4.30027 -1.25621 0
M  V30 2769 C 298.196 -3.23795 -2.74513 0
M  V30 2770 C 296.103 -5.50903 -2.1508 0
M  V30 2771 H 295.033 -0.629776 -0.414606 0
M  V30 2772 H 297.684 -1.79907 -0.361348 0
M  V30 2773 H 296.066 -2.8174 -2.78278 0
M  V30 2774 H 297.24 -4.57745 -0.529739 0
M  V30 2775 H 295.555 -4.11522 -0.635496 0
M  V30 2776 H 298.152 -4.11289 -3.41681 0
M  V30 2777 H 298.495 -2.40045 -3.40123 0
M  V30 2778 H 299.028 -3.41561 -2.03914 0
M  V30 2779 H 295.767 -6.37143 -1.54041 0
M  V30 2780 H 295.287 -5.27459 -2.85565 0
M  V30 2781 H 296.966 -5.85865 -2.74538 0
M  V30 2782 N 297.098 0.621204 -1.44841 0
M  V30 2783 C 298.028 1.74366 -1.55303 0
M  V30 2784 C 299.009 1.65199 -0.405385 0
M  V30 2785 O 300.194 1.83807 -0.626787 0
M  V30 2786 C 297.324 3.12931 -1.50637 0
M  V30 2787 C 296.278 3.36896 -2.63979 0
M  V30 2788 C 295.604 4.75594 -2.44366 0
M  V30 2789 C 296.904 3.28483 -4.06074 0
M  V30 2790 H 298.598 1.65867 -2.49256 0
M  V30 2791 H 296.144 0.796558 -1.19962 0
M  V30 2792 H 298.097 3.9124 -1.56555 0
M  V30 2793 H 296.821 3.22237 -0.532057 0
M  V30 2794 H 295.48 2.60972 -2.57467 0
M  V30 2795 H 295.128 4.81616 -1.45105 0
M  V30 2796 H 294.828 4.92586 -3.20364 0
M  V30 2797 H 296.352 5.5612 -2.52117 0
M  V30 2798 H 297.766 3.96684 -4.13902 0
M  V30 2799 H 296.163 3.57008 -4.82354 0
M  V30 2800 H 297.233 2.26133 -4.28943 0
M  V30 2801 N 298.576 1.31904 0.862503 0
M  V30 2802 C 299.523 1.20182 1.9704 0
M  V30 2803 C 300.493 0.0858247 1.65878 0
M  V30 2804 O 301.678 0.26 1.8902 0
M  V30 2805 C 298.818 0.922797 3.32533 0
M  V30 2806 C 297.931 2.12284 3.76244 0
M  V30 2807 C 297.066 1.77996 5.00491 0
M  V30 2808 C 296.105 2.94366 5.36671 0
M  V30 2809 N 295.242 2.60223 6.52095 0
M  V30 2810 H 300.082 2.14951 2.06398 0
M  V30 2811 H 297.619 1.06917 1.01031 0
M  V30 2812 H 299.577 0.741548 4.10557 0
M  V30 2813 H 298.207 0.0119227 3.22798 0
M  V30 2814 H 297.259 2.41461 2.9394 0
M  V30 2815 H 298.571 2.99357 3.98982 0
M  V30 2816 H 297.725 1.56377 5.862 0
M  V30 2817 H 296.464 0.881252 4.79672 0
M  V30 2818 H 295.469 3.16625 4.49476 0
M  V30 2819 H 296.694 3.84957 5.59451 0
M  V30 2820 H 294.64 1.72884 6.32809 0
M  V30 2821 H 294.557 3.40827 6.74814 0
M  V30 2822 H 295.825 2.42016 7.40978 0
M  V30 2823 N 300.054 -1.07777 1.14986 0
M  V30 2824 C 301.331 -1.7699 0.832695 0
M  V30 2825 C 301.711 -2.001 -0.672561 0
M  V30 2826 O 301.059 -1.61598 -1.6155 0
M  V30 2827 C 301.269 -3.08139 1.63863 0
M  V30 2828 C 302.617 -3.8256 1.84208 0
M  V30 2829 O 303.641 -3.17939 1.60603 0
M  V30 2830 O 302.5 -4.98612 2.23714 0
M  V30 2831 H 299.594 -0.768389 0.305791 0
M  V30 2832 H 302.14 -1.14182 1.25541 0
M  V30 2833 H 300.912 -2.86909 2.6608 0
M  V30 2834 H 300.535 -3.78678 1.21197 0
M  V30 2835 N 301.532 -0.945985 -1.26051 0
M  V30 2836 C 302.462 -0.477172 -2.28572 0
M  V30 2837 C 303.443 0.472032 -1.63419 0
M  V30 2838 O 304.628 0.372853 -1.90587 0
M  V30 2839 C 301.758 0.253975 -3.4637 0
M  V30 2840 C 300.712 -0.609135 -4.23643 0
M  V30 2841 C 300.038 0.252252 -5.34105 0
M  V30 2842 C 301.338 -1.8829 -4.8718 0
M  V30 2843 H 303.032 -1.33402 -2.68038 0
M  V30 2844 H 300.578 -0.642904 -1.28852 0
M  V30 2845 H 302.531 0.593016 -4.17207 0
M  V30 2846 H 301.255 1.145 -3.05871 0
M  V30 2847 H 299.914 -0.931138 -3.54578 0
M  V30 2848 H 299.562 1.14278 -4.89846 0
M  V30 2849 H 299.262 -0.32188 -5.86718 0
M  V30 2850 H 300.786 0.586454 -6.07777 0
M  V30 2851 H 302.2 -1.61081 -5.50205 0
M  V30 2852 H 300.597 -2.40199 -5.49931 0
M  V30 2853 H 301.667 -2.59134 -4.09851 0
M  V30 2854 N 303.011 1.40521 -0.713556 0
M  V30 2855 C 303.941 2.33381 -0.0743864 0
M  V30 2856 C 304.922 1.52784 0.747735 0
M  V30 2857 O 306.107 1.81258 0.697071 0
M  V30 2858 C 303.237 3.36748 0.849598 0
M  V30 2859 C 302.191 4.27793 0.133247 0
M  V30 2860 C 301.517 5.21679 1.17281 0
M  V30 2861 C 302.817 5.12415 -1.01134 0
M  V30 2862 H 304.511 2.87081 -0.850007 0
M  V30 2863 H 302.057 1.38034 -0.410201 0
M  V30 2864 H 304.01 4.00648 1.30612 0
M  V30 2865 H 302.734 2.81439 1.65709 0
M  V30 2866 H 301.393 3.65342 -0.303426 0
M  V30 2867 H 301.041 4.62677 1.9733 0
M  V30 2868 H 300.741 5.83435 0.698397 0
M  V30 2869 H 302.265 5.88456 1.62947 0
M  V30 2870 H 303.679 5.69781 -0.634274 0
M  V30 2871 H 302.076 5.83203 -1.41399 0
M  V30 2872 H 303.146 4.48514 -1.84292 0
M  V30 2873 N 304.489 0.459591 1.5075 0
M  V30 2874 C 305.9 0.00171547 1.867 0
M  V30 2875 C 306.251 -1.39934 1.37525 0
M  V30 2876 O 305.376 -2.03523 0.735349 0
M  V30 2877 C 305.971 -0.00366298 3.388 0
M  V30 2878 C 304.53 -0.406026 3.74204 0
M  V30 2879 C 303.677 0.38673 2.7459 0
M  V30 2880 H 306.628 0.674413 1.43657 0
M  V30 2881 H 306.649 -0.808371 3.71814 0
M  V30 2882 H 306.161 1.01617 3.74561 0
M  V30 2883 H 304.262 -1.43063 3.4404 0
M  V30 2884 H 304.375 -0.115362 4.78961 0
M  V30 2885 H 302.739 -0.158019 2.54209 0
M  V30 2886 H 303.522 1.40585 3.13194 0
M  V30 2887 N 305.967 -1.56429 0.191757 0
M  V30 2888 C 306.877 -2.22541 -0.742481 0
M  V30 2889 C 307.893 -1.22342 -1.23727 0
M  V30 2890 O 309.069 -1.55069 -1.28513 0
M  V30 2891 C 306.134 -2.8692 -1.94623 0
M  V30 2892 C 305.195 -4.02378 -1.49633 0
M  V30 2893 C 304.428 -4.63678 -2.6427 0
M  V30 2894 O 304.651 -4.23895 -3.81666 0
M  V30 2895 O 303.585 -5.53202 -2.37174 0
M  V30 2896 H 307.411 -3.02977 -0.209462 0
M  V30 2897 H 304.996 -1.49353 -0.0373832 0
M  V30 2898 H 306.878 -3.27663 -2.64982 0
M  V30 2899 H 305.553 -2.09466 -2.46791 0
M  V30 2900 H 304.46 -3.66265 -0.761636 0
M  V30 2901 H 305.793 -4.81487 -1.02134 0
M  V30 2902 N 307.445 0.0818655 -1.57387 0
M  V30 2903 C 308.673 0.796108 -1.9097 0
M  V30 2904 C 309.088 1.71626 -0.786757 0
M  V30 2905 O 308.445 1.80908 0.240513 0
M  V30 2906 C 308.496 1.59829 -3.24248 0
M  V30 2907 O 308.217 0.715131 -4.32224 0
M  V30 2908 C 309.718 2.41442 -3.7178 0
M  V30 2909 H 306.938 0.22691 -0.631469 0
M  V30 2910 H 309.482 0.0551439 -2.04426 0
M  V30 2911 H 307.637 2.29163 -3.12351 0
M  V30 2912 H 308.051 1.27205 -5.08841 0
M  V30 2913 H 309.525 2.932 -4.67694 0
M  V30 2914 H 310.002 3.2051 -3.00283 0
M  V30 2915 H 310.608 1.77283 -3.86589 0
M  V30 2916 N 308.923 1.53595 0.353017 0
M  V30 2917 C 310.172 1.69603 1.09168 0
M  V30 2918 C 310.485 0.460925 1.90092 0
M  V30 2919 O 311.691 0.501774 2.66823 0
M  V30 2920 C 310.147 2.99872 1.9901 0
M  V30 2921 C 309.755 4.30687 1.23339 0
M  V30 2922 C 311.499 3.25246 2.72792 0
M  V30 2923 C 309.406 5.52036 2.12156 0
M  V30 2924 H 308.336 0.631966 0.411261 0
M  V30 2925 H 310.987 1.80096 0.351802 0
M  V30 2926 H 309.369 2.83212 2.7678 0
M  V30 2927 H 310.543 4.58019 0.505456 0
M  V30 2928 H 308.858 4.11853 0.613663 0
M  V30 2929 H 311.455 4.13095 3.39495 0
M  V30 2930 H 311.798 2.41846 3.38846 0
M  V30 2931 H 312.331 3.42638 2.021 0
M  V30 2932 H 309.07 6.37951 1.50659 0
M  V30 2933 H 308.59 5.28966 2.82764 0
M  V30 2934 H 310.269 5.87313 2.71427 0
M  V30 2935 N 310.401 -0.613514 1.45168 0
M  V30 2936 C 311.812 -1.19539 1.43413 0
M  V30 2937 C 312.163 -1.95558 0.158632 0
M  V30 2938 O 311.288 -2.0335 -0.740119 0
M  V30 2939 C 311.883 -2.17445 2.59813 0
M  V30 2940 C 310.442 -2.71022 2.61197 0
M  V30 2941 C 309.589 -1.46323 2.35552 0
M  V30 2942 H 312.54 -0.403163 1.53494 0
M  V30 2943 H 312.561 -3.00373 2.33574 0
M  V30 2944 H 312.073 -1.62089 3.52631 0
M  V30 2945 H 310.174 -3.30332 1.7237 0
M  V30 2946 H 310.287 -3.15859 3.60236 0
M  V30 2947 H 308.651 -1.75072 1.84992 0
M  V30 2948 H 309.434 -0.92844 3.30507 0
M  V30 2949 N 311.879 -1.3236 -0.855495 0
M  V30 2950 C 313.29 -1.2056 -1.42556 0
M  V30 2951 C 313.641 0.182209 -1.95352 0
M  V30 2952 O 312.766 1.08088 -1.87472 0
M  V30 2953 C 313.361 -2.1826 -2.59129 0
M  V30 2954 C 311.92 -2.10351 -3.12137 0
M  V30 2955 C 311.067 -2.06674 -1.84882 0
M  V30 2956 H 314.018 -1.442 -0.662727 0
M  V30 2957 H 314.039 -1.78064 -3.36264 0
M  V30 2958 H 313.551 -3.19257 -2.20673 0
M  V30 2959 H 311.652 -1.12599 -3.55179 0
M  V30 2960 H 311.765 -3.00135 -3.73438 0
M  V30 2961 H 310.129 -1.51901 -2.04446 0
M  V30 2962 H 310.912 -3.09451 -1.48643 0
M  V30 2963 N 313.357 1.07166 -1.15556 0
M  V30 2964 C 314.768 1.6127 -0.940693 0
M  V30 2965 C 315.119 1.89251 0.517551 0
M  V30 2966 O 314.244 1.65937 1.38903 0
M  V30 2967 C 314.839 2.92993 -1.7012 0
M  V30 2968 C 313.398 3.43832 -1.53156 0
M  V30 2969 C 312.545 2.1786 -1.71558 0
M  V30 2970 H 315.496 0.90229 -1.30554 0
M  V30 2971 H 315.517 3.62007 -1.17181 0
M  V30 2972 H 315.029 2.72596 -2.76248 0
M  V30 2973 H 313.13 3.69307 -0.494294 0
M  V30 2974 H 313.243 4.19747 -2.30975 0
M  V30 2975 H 311.607 2.2765 -1.14225 0
M  V30 2976 H 312.39 1.99956 -2.79056 0
M  V30 2977 N 314.835 0.952656 1.25548 0
M  V30 2978 C 315.745 0.47782 2.29682 0
M  V30 2979 C 316.761 -0.453859 1.67977 0
M  V30 2980 O 317.937 -0.330587 1.98668 0
M  V30 2981 C 315.002 -0.238655 3.45878 0
M  V30 2982 C 314.063 0.730994 4.23031 0
M  V30 2983 C 313.296 0.0486165 5.33678 0
M  V30 2984 O 313.519 -1.16612 5.58353 0
M  V30 2985 O 312.453 0.733152 5.97418 0
M  V30 2986 H 316.279 1.34312 2.72386 0
M  V30 2987 H 313.864 0.719026 1.30959 0
M  V30 2988 H 315.746 -0.641774 4.16484 0
M  V30 2989 H 314.421 -1.07916 3.05181 0
M  V30 2990 H 313.328 1.18428 3.5486 0
M  V30 2991 H 314.661 1.53946 4.67506 0
M  V30 2992 N 316.313 -1.40141 0.720998 0
M  V30 2993 C 317.243 -2.33339 0.0867621 0
M  V30 2994 C 318.224 -1.53178 -0.739622 0
M  V30 2995 O 319.409 -1.81625 -0.687449 0
M  V30 2996 C 316.539 -3.37194 -0.831728 0
M  V30 2997 C 315.493 -4.27857 -0.110558 0
M  V30 2998 C 314.819 -5.22294 -1.14513 0
M  V30 2999 C 316.119 -5.11872 1.0385 0
M  V30 3000 H 317.813 -2.86626 0.865219 0
M  V30 3001 H 315.359 -1.37814 0.417516 0
M  V30 3002 H 317.312 -4.01335 -1.28485 0
M  V30 3003 H 316.036 -2.82314 -1.64214 0
M  V30 3004 H 314.695 -3.65176 0.322797 0
M  V30 3005 H 314.343 -4.63717 -1.94874 0
M  V30 3006 H 314.043 -5.83797 -0.667446 0
M  V30 3007 H 315.567 -5.89312 -1.59824 0
M  V30 3008 H 316.981 -5.69436 0.664482 0
M  V30 3009 H 315.378 -5.82445 1.4449 0
M  V30 3010 H 316.448 -4.4753 1.86668 0
M  V30 3011 N 317.792 -0.46758 -1.50504 0
M  V30 3012 C 319.069 0.15003 -1.95024 0
M  V30 3013 C 319.449 1.57304 -1.40779 0
M  V30 3014 O 318.797 2.20281 -0.607319 0
M  V30 3015 C 319.007 0.0969324 -3.48865 0
M  V30 3016 C 320.355 0.287565 -4.23625 0
M  V30 3017 O 321.379 0.173678 -3.55776 0
M  V30 3018 O 320.238 0.517186 -5.44047 0
M  V30 3019 H 317.332 0.113582 -0.819163 0
M  V30 3020 H 319.878 -0.52773 -1.61286 0
M  V30 3021 H 318.65 -0.896732 -3.80886 0
M  V30 3022 H 318.273 0.816303 -3.8913 0
M  V30 3023 N 319.27 1.56325 -0.20005 0
M  V30 3024 C 320.547 1.89484 0.48529 0
M  V30 3025 C 320.927 1.1143 1.79294 0
M  V30 3026 O 320.275 0.216919 2.27468 0
M  V30 3027 C 320.485 3.41923 0.699243 0
M  V30 3028 C 321.833 4.12256 1.01638 0
M  V30 3029 O 322.857 3.47402 0.786792 0
M  V30 3030 O 321.716 5.26887 1.45095 0
M  V30 3031 H 318.81 0.787144 0.253639 0
M  V30 3032 H 321.356 1.67985 -0.240633 0
M  V30 3033 H 320.128 3.90658 -0.224008 0
M  V30 3034 H 319.751 3.69131 1.47744 0
M  V30 3035 N 320.748 -0.0735177 1.57428 0
M  V30 3036 C 321.681 -1.11932 1.98863 0
M  V30 3037 C 322.659 -1.37666 0.865266 0
M  V30 3038 O 323.843 -1.51068 1.12742 0
M  V30 3039 C 320.97 -2.46403 2.32386 0
M  V30 3040 C 320.016 -2.36815 3.54713 0
M  V30 3041 S 320.849 -1.76392 5.05614 0
M  V30 3042 C 322.005 -3.12444 5.42337 0
M  V30 3043 H 322.238 -0.766212 2.87257 0
M  V30 3044 H 319.771 -0.281987 1.51803 0
M  V30 3045 H 321.729 -3.23755 2.52375 0
M  V30 3046 H 320.39 -2.78876 1.44524 0
M  V30 3047 H 319.583 -3.35977 3.7568 0
M  V30 3048 H 319.185 -1.67598 3.34345 0
M  V30 3049 H 321.477 -4.08753 5.40303 0
M  V30 3050 H 322.42 -2.96258 6.43146 0
M  V30 3051 H 322.828 -3.1297 4.69798 0
M  V30 3052 N 322.226 -1.5378 -0.344866 0
M  V30 3053 C 323.454 -1.74899 -1.10534 0
M  V30 3054 C 323.869 -0.487534 -1.82397 0
M  V30 3055 O 323.226 0.540741 -1.74305 0
M  V30 3056 C 323.277 -2.92822 -2.11984 0
M  V30 3057 O 322.998 -4.14089 -1.43044 0
M  V30 3058 C 324.499 -3.25982 -3.00417 0
M  V30 3059 H 321.719 -0.584426 -0.329678 0
M  V30 3060 H 324.263 -2.006 -0.397474 0
M  V30 3061 H 322.418 -2.69457 -2.78338 0
M  V30 3062 H 322.832 -4.80272 -2.10805 0
M  V30 3063 H 324.306 -4.11848 -3.67539 0
M  V30 3064 H 324.783 -2.42228 -3.66363 0
M  V30 3065 H 325.389 -3.51349 -2.39654 0
M  V30 3066 N 323.704 0.605807 -1.45491 0
M  V30 3067 C 324.634 1.72709 -1.57143 0
M  V30 3068 C 325.615 1.6476 -0.422884 0
M  V30 3069 O 326.8 1.83132 -0.646247 0
M  V30 3070 C 323.93 3.11316 -1.53948 0
M  V30 3071 C 322.884 3.34077 -2.67537 0
M  V30 3072 C 322.21 4.72975 -2.49397 0
M  V30 3073 C 323.51 3.24158 -4.09535 0
M  V30 3074 H 325.204 1.63214 -2.51001 0
M  V30 3075 H 322.75 0.78379 -1.208 0
M  V30 3076 H 324.703 3.89557 -1.60696 0
M  V30 3077 H 323.427 3.21655 -0.566205 0
M  V30 3078 H 322.086 2.58227 -2.6022 0
M  V30 3079 H 321.734 4.8005 -1.50205 0
M  V30 3080 H 321.434 4.8916 -3.25571 0
M  V30 3081 H 322.958 5.53414 -2.58002 0
M  V30 3082 H 324.372 3.92271 -4.18086 0
M  V30 3083 H 322.769 3.51872 -4.86113 0
M  V30 3084 H 323.839 2.2157 -4.31317 0
M  V30 3085 N 325.182 1.32811 0.848464 0
M  V30 3086 C 326.428 1.24917 1.60522 0
M  V30 3087 C 326.783 -0.185761 1.91501 0
M  V30 3088 O 326.076 -1.12524 1.55077 0
M  V30 3089 C 326.27 2.04831 2.92881 0
M  V30 3090 C 326.099 3.55949 2.74828 0
M  V30 3091 C 324.869 4.25277 2.72887 0
M  V30 3092 C 327.067 4.50476 2.48145 0
M  V30 3093 N 325.049 5.62408 2.46111 0
M  V30 3094 C 326.42 5.75427 2.30832 0
M  V30 3095 C 328.475 4.39665 2.33664 0
M  V30 3096 C 327.178 6.90789 2.00508 0
M  V30 3097 C 329.204 5.54833 2.04731 0
M  V30 3098 C 328.566 6.78787 1.88223 0
M  V30 3099 H 324.665 0.512279 0.590842 0
M  V30 3100 H 327.249 1.67246 0.996839 0
M  V30 3101 H 325.42 1.64837 3.51686 0
M  V30 3102 H 327.152 1.88782 3.57971 0
M  V30 3103 H 323.907 3.77456 2.86049 0
M  V30 3104 H 324.331 6.3467 2.35634 0
M  V30 3105 H 328.973 3.44477 2.45144 0
M  V30 3106 H 326.691 7.85984 1.87765 0
M  V30 3107 H 330.277 5.48398 1.94295 0
M  V30 3108 H 329.157 7.66396 1.66155 0
M  V30 3109 N 326.66 -1.06551 1.16123 0
M  V30 3110 C 327.592 -2.13908 0.823171 0
M  V30 3111 C 328.605 -1.61926 -0.16843 0
M  V30 3112 O 329.794 -1.78412 0.055962 0
M  V30 3113 C 326.894 -3.38283 0.204424 0
M  V30 3114 C 326.067 -4.19589 1.23548 0
M  V30 3115 C 325.126 -5.2233 0.637011 0
M  V30 3116 O 324.152 -5.54034 1.30516 0
M  V30 3117 N 325.354 -5.77621 -0.577474 0
M  V30 3118 H 328.119 -2.43508 1.74711 0
M  V30 3119 H 325.68 -1.2253 1.05821 0
M  V30 3120 H 327.672 -4.0416 -0.208909 0
M  V30 3121 H 326.242 -3.06329 -0.623012 0
M  V30 3122 H 325.462 -3.49406 1.82507 0
M  V30 3123 H 326.75 -4.70718 1.93137 0
M  V30 3124 H 326.148 -5.54125 -1.13853 0
M  V30 3125 H 324.705 -6.45087 -0.933053 0
M  V30 3126 N 328.138 -0.959301 -1.25041 0
M  V30 3127 C 329.387 -0.612254 -1.92183 0
M  V30 3128 C 329.7 0.855347 -1.75907 0
M  V30 3129 O 330.906 1.31256 -2.37664 0
M  V30 3130 C 329.362 -1.04435 -3.44414 0
M  V30 3131 C 328.97 -2.53482 -3.69393 0
M  V30 3132 C 330.714 -0.770055 -4.17457 0
M  V30 3133 C 328.621 -2.90468 -5.15153 0
M  V30 3134 H 327.551 -0.225279 -0.719559 0
M  V30 3135 H 330.202 -1.16438 -1.41825 0
M  V30 3136 H 328.584 -0.4206 -3.9376 0
M  V30 3137 H 329.758 -3.20916 -3.30681 0
M  V30 3138 H 328.073 -2.78432 -3.0962 0
M  V30 3139 H 330.67 -1.02249 -5.24832 0
M  V30 3140 H 331.013 0.293611 -4.15263 0
M  V30 3141 H 331.546 -1.35437 -3.74034 0
M  V30 3142 H 328.285 -3.95871 -5.22462 0
M  V30 3143 H 327.805 -2.27711 -5.54894 0
M  V30 3144 H 329.484 -2.79914 -5.83315 0
M  V30 3145 N 329.616 1.39756 -0.72842 0
M  V30 3146 C 330.862 2.00942 -0.273892 0
M  V30 3147 C 331.195 1.57656 1.13394 0
M  V30 3148 O 330.47 0.802434 1.77176 0
M  V30 3149 C 330.753 3.58211 -0.368346 0
M  V30 3150 C 330.606 4.11534 -1.81548 0
M  V30 3151 C 331.925 4.39372 0.253054 0
M  V30 3152 H 329.044 0.730047 -0.100996 0
M  V30 3153 H 331.686 1.66056 -0.923337 0
M  V30 3154 H 329.836 3.88061 0.184588 0
M  V30 3155 H 331.508 3.92431 -2.42478 0
M  V30 3156 H 329.751 3.65341 -2.33898 0
M  V30 3157 H 330.422 5.20682 -1.83288 0
M  V30 3158 H 332.898 4.15527 -0.218224 0
M  V30 3159 H 331.774 5.48677 0.156585 0
M  V30 3160 H 332.035 4.21358 1.33826 0
M  V30 3161 N 331.094 0.475555 1.50254 0
M  V30 3162 C 332.343 -0.0795996 2.01543 0
M  V30 3163 C 332.656 -1.4038 1.36209 0
M  V30 3164 O 333.862 -2.04415 1.7868 0
M  V30 3165 C 332.318 -0.192363 3.59386 0
M  V30 3166 C 331.926 1.12367 4.33679 0
M  V30 3167 C 333.67 -0.699238 4.18701 0
M  V30 3168 C 331.577 0.974453 5.83317 0
M  V30 3169 H 330.507 -0.0335228 0.753254 0
M  V30 3170 H 333.158 0.611128 1.73025 0
M  V30 3171 H 331.54 -0.946974 3.84511 0
M  V30 3172 H 332.714 1.88958 4.20276 0
M  V30 3173 H 331.029 1.562 3.85993 0
M  V30 3174 H 333.626 -0.827978 5.28251 0
M  V30 3175 H 333.969 -1.69171 3.80377 0
M  V30 3176 H 334.502 -0.00188807 3.978 0
M  V30 3177 H 331.241 1.94042 6.26121 0
M  V30 3178 H 330.761 0.248998 5.99283 0
M  V30 3179 H 332.44 0.642867 6.43798 0
M  V30 3180 N 332.573 -1.56217 0.208337 0
M  V30 3181 C 333.521 -2.21053 -0.723769 0
M  V30 3182 C 334.515 -1.18578 -1.20978 0
M  V30 3183 O 335.721 -1.36691 -1.17114 0
M  V30 3184 H 332.096 -0.708595 -0.251788 0
M  V30 3185 H 334.067 -2.98006 -0.153365 0
M  V30 3186 C 332.816 -2.89417 -1.927 0
M  V30 3187 H 332.139 -3.68019 -1.56212 0
M  V30 3188 H 333.579 -3.38201 -2.55727 0
M  V30 3189 C 332.038 -1.91166 -2.77411 0
M  V30 3190 O 332.568 -1.42026 -3.75754 0
M  V30 3191 N 330.774 -1.59105 -2.43175 0
M  V30 3192 H 330.321 -1.99259 -1.63259 0
M  V30 3193 H 330.279 -0.936255 -3.00136 0
M  V30 3194 N 334.051 0.0651679 -1.57465 0
M  V30 3195 C 335.3 0.761916 -1.86756 0
M  V30 3196 C 335.613 1.78406 -0.801925 0
M  V30 3197 O 336.819 2.53084 -0.982885 0
M  V30 3198 C 335.275 1.40603 -3.31299 0
M  V30 3199 C 334.883 0.422115 -4.46007 0
M  V30 3200 C 336.627 2.08476 -3.69781 0
M  V30 3201 C 334.534 1.07252 -5.81593 0
M  V30 3202 H 333.464 0.288308 -0.696702 0
M  V30 3203 H 336.115 0.015344 -1.83494 0
M  V30 3204 H 334.497 2.20109 -3.29193 0
M  V30 3205 H 335.671 -0.343613 -4.59517 0
M  V30 3206 H 333.986 -0.152527 -4.16121 0
M  V30 3207 H 336.583 2.57925 -4.68379 0
M  V30 3208 H 336.926 2.88712 -2.99919 0
M  V30 3209 H 337.459 1.35792 -3.73905 0
M  V30 3210 H 334.198 0.310342 -6.54765 0
M  V30 3211 H 333.718 1.80895 -5.71872 0
M  V30 3212 H 335.397 1.59043 -6.27148 0
M  V30 3213 N 335.529 1.53961 0.336706 0
M  V30 3214 C 336.459 1.85417 1.41925 0
M  V30 3215 C 337.44 0.709856 1.5458 0
M  V30 3216 O 338.625 0.962396 1.68676 0
M  V30 3217 C 335.755 2.06985 2.78881 0
M  V30 3218 C 334.709 3.22813 2.81026 0
M  V30 3219 C 334.035 3.29727 4.20932 0
M  V30 3220 C 335.335 4.60767 2.45949 0
M  V30 3221 H 337.029 2.76079 1.15848 0
M  V30 3222 H 334.575 1.32839 0.555859 0
M  V30 3223 H 336.528 2.27575 3.54665 0
M  V30 3224 H 335.252 1.13061 3.06406 0
M  V30 3225 H 333.911 3.0209 2.07695 0
M  V30 3226 H 333.559 2.33385 4.45579 0
M  V30 3227 H 333.259 4.07566 4.23277 0
M  V30 3228 H 334.783 3.52536 4.98549 0
M  V30 3229 H 336.197 4.81325 3.11446 0
M  V30 3230 H 334.594 5.4106 2.59566 0
M  V30 3231 H 335.664 4.6391 1.41122 0
M  V30 3232 N 337.007 -0.598083 1.45811 0
M  V30 3233 C 338.232 -1.3881 1.54099 0
M  V30 3234 C 338.657 -1.8726 0.177578 0
M  V30 3235 O 338.015 -1.6069 -0.839541 0
M  V30 3236 C 338.063 -2.56217 2.53743 0
M  V30 3237 O 337.167 -3.5716 2.06182 0
M  V30 3238 H 336.508 -0.414024 0.519115 0
M  V30 3239 H 339.038 -0.726971 1.91249 0
M  V30 3240 H 339.048 -3.03337 2.72856 0
M  V30 3241 H 337.723 -2.20303 3.5276 0
M  V30 3242 H 336.3 -3.16624 1.96987 0
M  V30 3243 N 338.485 -1.33259 -0.841409 0
M  V30 3244 C 339.395 -1.25332 -1.98316 0
M  V30 3245 C 340.411 -0.164364 -1.73222 0
M  V30 3246 O 341.587 -0.387486 -1.97637 0
M  V30 3247 C 338.652 -0.990078 -3.32262 0
M  V30 3248 C 337.713 -2.16879 -3.70489 0
M  V30 3249 C 336.946 -1.91801 -4.98044 0
M  V30 3250 O 337.169 -0.867075 -5.63771 0
M  V30 3251 O 336.103 -2.78267 -5.33714 0
M  V30 3252 H 339.929 -2.21344 -2.07944 0
M  V30 3253 H 337.514 -1.1328 -0.974058 0
M  V30 3254 H 339.396 -0.860321 -4.12524 0
M  V30 3255 H 338.071 -0.0602155 -3.23644 0
M  V30 3256 H 336.978 -2.35407 -2.90748 0
M  V30 3257 H 338.311 -3.0819 -3.8377 0
M  V30 3258 N 339.963 1.05934 -1.16686 0
M  V30 3259 C 341.374 1.60263 -0.957745 0
M  V30 3260 C 341.725 1.89789 0.49745 0
M  V30 3261 O 340.85 1.67401 1.37135 0
M  V30 3262 C 341.445 2.91172 -1.73218 0
M  V30 3263 C 340.004 3.42188 -1.56794 0
M  V30 3264 C 339.151 2.16028 -1.73859 0
M  V30 3265 H 342.102 0.888392 -1.31504 0
M  V30 3266 H 342.123 3.60744 -1.21014 0
M  V30 3267 H 341.635 2.6965 -2.79124 0
M  V30 3268 H 339.736 3.68762 -0.533437 0
M  V30 3269 H 339.849 4.17273 -2.35414 0
M  V30 3270 H 338.213 2.26426 -1.16633 0
M  V30 3271 H 338.996 1.96985 -2.81161 0
M  V30 3272 N 341.441 0.965919 1.2453 0
M  V30 3273 C 342.852 0.665929 1.7442 0
M  V30 3274 C 343.203 -0.818407 1.78316 0
M  V30 3275 O 342.328 -1.64037 1.41141 0
M  V30 3276 C 342.923 1.20211 3.16757 0
M  V30 3277 C 341.482 0.952059 3.6416 0
M  V30 3278 C 340.629 1.33848 2.42858 0
M  V30 3279 H 343.58 1.14144 1.10258 0
M  V30 3280 H 343.601 0.567544 3.76244 0
M  V30 3281 H 343.113 2.28244 3.13889 0
M  V30 3282 H 341.214 -0.112821 3.72429 0
M  V30 3283 H 341.327 1.59645 4.51719 0
M  V30 3284 H 339.691 0.756864 2.43195 0
M  V30 3285 H 340.474 2.42827 2.42673 0
M  V30 3286 N 342.919 -1.39368 0.735821 0
M  V30 3287 C 343.866 -2.30599 0.0963825 0
M  V30 3288 C 344.836 -1.49257 -0.728794 0
M  V30 3289 O 346.021 -1.77941 -0.688588 0
M  V30 3290 C 343.161 -3.35596 -0.804305 0
M  V30 3291 C 342.274 -4.31987 0.0335761 0
M  V30 3292 C 341.409 -5.24053 -0.868461 0
M  V30 3293 C 340.448 -6.12095 -0.0258776 0
M  V30 3294 N 339.585 -6.96514 -0.883893 0
M  V30 3295 H 344.425 -2.8471 0.880002 0
M  V30 3296 H 341.962 -1.40188 0.445619 0
M  V30 3297 H 343.92 -3.95062 -1.34096 0
M  V30 3298 H 342.55 -2.82938 -1.55389 0
M  V30 3299 H 341.602 -3.74133 0.68766 0
M  V30 3300 H 342.914 -4.94074 0.685036 0
M  V30 3301 H 342.068 -5.88549 -1.47293 0
M  V30 3302 H 340.807 -4.62289 -1.5537 0
M  V30 3303 H 339.812 -5.4661 0.591386 0
M  V30 3304 H 341.037 -6.75923 0.656156 0
M  V30 3305 H 338.983 -6.37318 -1.55441 0
M  V30 3306 H 338.9 -7.55448 -0.288931 0
M  V30 3307 H 340.168 -7.65439 -1.4739 0
M  V30 3308 N 344.397 -0.483516 -1.5 0
M  V30 3309 C 345.813 -0.138404 -1.58999 0
M  V30 3310 C 346.013 1.35597 -1.4905 0
M  V30 3311 O 345.069 2.13039 -1.35539 0
M  V30 3312 C 346.382 -0.699658 -2.92447 0
M  V30 3313 C 347.93 -0.664195 -3.05872 0
M  V30 3314 C 348.405 -1.20321 -4.41913 0
M  V30 3315 N 349.896 -1.16315 -4.48358 0
M  V30 3316 C 350.631 -1.55058 -5.52037 0
M  V30 3317 N 350.127 -2.01311 -6.62907 0
M  V30 3318 N 351.92 -1.46584 -5.42651 0
M  V30 3319 H 344.071 -1.45529 -1.5471 0
M  V30 3320 H 346.334 -0.60258 -0.731848 0
M  V30 3321 H 346.04 -1.747 -3.05242 0
M  V30 3322 H 345.914 -0.150194 -3.76901 0
M  V30 3323 H 348.301 0.374272 -2.92717 0
M  V30 3324 H 348.382 -1.25061 -2.23144 0
M  V30 3325 H 348.026 -2.24037 -4.55818 0
M  V30 3326 H 347.956 -0.592896 -5.23252 0
M  V30 3327 H 350.447 -0.824058 -3.68806 0
M  V30 3328 H 350.76 -2.2899 -7.38095 0
M  V30 3329 H 349.105 -2.05273 -6.63994 0
M  V30 3330 H 352.296 -1.10281 -4.54924 0
M  V30 3331 H 352.469 -1.77103 -6.23329 0
M  V30 3332 N 345.875 1.56104 -0.216619 0
M  V30 3333 C 346.822 2.2007 0.695531 0
M  V30 3334 C 347.792 1.15471 1.19397 0
M  V30 3335 O 348.977 1.43807 1.25396 0
M  V30 3336 C 346.117 2.88073 1.90021 0
M  V30 3337 C 345.23 4.07253 1.44113 0
M  V30 3338 C 344.365 4.63052 2.603 0
M  V30 3339 C 343.404 5.74545 2.11103 0
M  V30 3340 N 342.541 6.24656 3.20545 0
M  V30 3341 H 347.381 2.97655 0.143327 0
M  V30 3342 H 344.918 1.46982 0.0589934 0
M  V30 3343 H 346.876 3.25681 2.60745 0
M  V30 3344 H 345.506 2.13015 2.42538 0
M  V30 3345 H 344.558 3.75164 0.628999 0
M  V30 3346 H 345.87 4.8783 1.04036 0
M  V30 3347 H 345.024 5.03078 3.39113 0
M  V30 3348 H 343.763 3.81628 3.03663 0
M  V30 3349 H 342.768 5.34027 1.3075 0
M  V30 3350 H 343.993 6.57801 1.68746 0
M  V30 3351 H 341.939 5.46148 3.63399 0
M  V30 3352 H 341.856 7.00343 2.84704 0
M  V30 3353 H 343.124 6.69338 3.99508 0
M  V30 3354 N 347.353 -0.0568162 1.57498 0
M  V30 3355 C 348.3 -1.06591 2.04712 0
M  V30 3356 C 349.27 -1.3758 0.930644 0
M  V30 3357 O 350.455 -1.48392 1.19935 0
M  V30 3358 C 347.595 -2.3701 2.50839 0
M  V30 3359 C 346.708 -2.12421 3.76167 0
M  V30 3360 C 345.843 -3.36511 4.11015 0
M  V30 3361 C 344.882 -3.07353 5.2934 0
M  V30 3362 N 344.019 -4.23816 5.59754 0
M  V30 3363 H 348.859 -0.65631 2.90683 0
M  V30 3364 H 346.396 -0.312481 1.43743 0
M  V30 3365 H 348.354 -3.13175 2.7564 0
M  V30 3366 H 346.984 -2.75744 1.67825 0
M  V30 3367 H 346.036 -1.2688 3.58616 0
M  V30 3368 H 347.348 -1.86894 4.62463 0
M  V30 3369 H 346.502 -4.21062 4.36797 0
M  V30 3370 H 345.241 -3.65128 3.23315 0
M  V30 3371 H 344.246 -2.212 5.03339 0
M  V30 3372 H 345.471 -2.80043 6.1867 0
M  V30 3373 H 343.417 -4.52436 4.75014 0
M  V30 3374 H 343.334 -4.01614 6.40501 0
M  V30 3375 H 344.602 -5.0932 5.90096 0
M  V30 3376 N 348.832 -1.54138 -0.328536 0
M  V30 3377 C 350.248 -1.44736 -0.672574 0
M  V30 3378 C 350.448 -0.616217 -1.91846 0
M  V30 3379 O 349.504 -0.113067 -2.52247 0
M  V30 3380 C 350.817 -2.884 -0.851217 0
M  V30 3381 C 352.365 -2.98271 -0.948877 0
M  V30 3382 C 352.84 -4.43074 -1.15973 0
M  V30 3383 N 354.331 -4.46665 -1.22658 0
M  V30 3384 C 355.066 -5.55857 -1.40751 0
M  V30 3385 N 354.562 -6.75026 -1.5592 0
M  V30 3386 N 356.355 -5.43495 -1.4342 0
M  V30 3387 H 348.506 -2.06661 0.490421 0
M  V30 3388 H 350.769 -0.934812 0.157579 0
M  V30 3389 H 350.475 -3.51699 -0.00704236 0
M  V30 3390 H 350.349 -3.34225 -1.74853 0
M  V30 3391 H 352.736 -2.35102 -1.78356 0
M  V30 3392 H 352.817 -2.55785 -0.0281435 0
M  V30 3393 H 352.461 -5.06827 -0.329915 0
M  V30 3394 H 352.391 -4.83165 -2.09426 0
M  V30 3395 H 354.882 -3.60797 -1.124 0
M  V30 3396 H 355.195 -7.54004 -1.69404 0
M  V30 3397 H 353.54 -6.77944 -1.53027 0
M  V30 3398 H 356.731 -4.49349 -1.31162 0
M  V30 3399 H 356.904 -6.28649 -1.57178 0
M  V30 3400 N 350.31 0.590341 -1.46126 0
M  V30 3401 C 351.257 1.69994 -1.56111 0
M  V30 3402 C 352.227 1.61065 -0.405867 0
M  V30 3403 O 353.412 1.8039 -0.621613 0
M  V30 3404 C 350.552 3.08326 -1.55013 0
M  V30 3405 C 349.665 3.27936 -2.81215 0
M  V30 3406 C 348.8 4.56473 -2.71673 0
M  V30 3407 C 347.839 4.694 -3.92849 0
M  V30 3408 N 346.976 5.89254 -3.81738 0
M  V30 3409 H 351.816 1.60797 -2.50895 0
M  V30 3410 H 349.353 0.783799 -1.24479 0
M  V30 3411 H 351.311 3.88383 -1.52362 0
M  V30 3412 H 349.941 3.16439 -0.637667 0
M  V30 3413 H 348.993 2.41536 -2.93879 0
M  V30 3414 H 350.305 3.33357 -3.71045 0
M  V30 3415 H 349.459 5.44748 -2.67085 0
M  V30 3416 H 348.198 4.53477 -1.7947 0
M  V30 3417 H 347.203 3.79544 -3.97777 0
M  V30 3418 H 348.428 4.7418 -4.86138 0
M  V30 3419 H 346.374 5.87271 -2.92317 0
M  V30 3420 H 346.291 5.95911 -4.65217 0
M  V30 3421 H 347.559 6.79981 -3.81112 0
M  V30 3422 N 351.788 1.33704 0.83433 0
M  V30 3423 C 353.065 1.16011 1.57483 0
M  V30 3424 C 353.445 -0.27176 2.09343 0
M  V30 3425 O 352.793 -1.27146 1.89858 0
M  V30 3426 C 353.003 2.20507 2.70514 0
M  V30 3427 C 354.351 2.54898 3.39577 0
M  V30 3428 O 355.375 2.19209 2.80759 0
M  V30 3429 O 354.234 3.16158 4.45765 0
M  V30 3430 H 351.328 0.448992 0.694503 0
M  V30 3431 H 353.874 1.453 0.876691 0
M  V30 3432 H 352.646 3.16667 2.29865 0
M  V30 3433 H 352.269 1.92329 3.47987 0
M  V30 3434 N 353.266 -1.05314 1.17247 0
M  V30 3435 C 354.515 -1.77685 0.954521 0
M  V30 3436 C 354.828 -1.88616 -0.518025 0
M  V30 3437 O 356.034 -2.57714 -0.854144 0
M  V30 3438 C 354.49 -3.19402 1.65863 0
M  V30 3439 C 354.098 -3.16605 3.16963 0
M  V30 3440 C 355.842 -3.96237 1.52303 0
M  V30 3441 C 353.749 -4.53103 3.80068 0
M  V30 3442 H 352.679 -0.666 0.353496 0
M  V30 3443 H 355.33 -1.1805 1.40486 0
M  V30 3444 H 353.712 -3.79355 1.13602 0
M  V30 3445 H 354.886 -2.66176 3.76148 0
M  V30 3446 H 353.201 -2.53268 3.30521 0
M  V30 3447 H 355.798 -4.97157 1.96822 0
M  V30 3448 H 356.141 -4.136 0.473401 0
M  V30 3449 H 356.674 -3.42829 2.01775 0
M  V30 3450 H 353.413 -4.40946 4.85023 0
M  V30 3451 H 352.933 -5.03686 3.2567 0
M  V30 3452 H 354.612 -5.22045 3.82202 0
M  V30 3453 N 354.744 -0.972509 -1.24016 0
M  V30 3454 C 355.692 -0.498562 -2.27194 0
M  V30 3455 C 356.686 0.440372 -1.63576 0
M  V30 3456 O 357.892 0.315133 -1.7722 0
M  V30 3457 H 354.267 -0.142775 -0.738322 0
M  V30 3458 H 356.238 -1.38065 -2.64539 0
M  V30 3459 C 354.987 0.191072 -3.47175 0
M  V30 3460 H 354.31 -0.522318 -3.96373 0
M  V30 3461 H 355.75 0.486445 -4.212 0
M  V30 3462 C 354.209 1.41967 -3.05527 0
M  V30 3463 O 354.739 2.51642 -3.13112 0
M  V30 3464 N 352.945 1.28746 -2.60524 0
M  V30 3465 H 352.492 0.395089 -2.54552 0
M  V30 3466 H 352.45 2.11061 -2.33025 0
M  V30 3467 N 356.222 1.38976 -0.743202 0
M  V30 3468 C 357.45 2.04636 -0.30525 0
M  V30 3469 C 357.865 1.56044 1.06281 0
M  V30 3470 O 357.222 0.728921 1.67311 0
M  V30 3471 C 357.273 3.60193 -0.307177 0
M  V30 3472 O 356.994 4.06998 -1.62124 0
M  V30 3473 C 358.495 4.4306 0.145928 0
M  V30 3474 H 355.715 0.65788 -0.132041 0
M  V30 3475 H 358.259 1.77866 -1.00915 0
M  V30 3476 H 356.414 3.85835 0.347898 0
M  V30 3477 H 356.828 5.01371 -1.54036 0
M  V30 3478 H 358.302 5.51921 0.0934183 0
M  V30 3479 H 358.779 4.22706 1.19231 0
M  V30 3480 H 359.385 4.22584 -0.479886 0
M  V30 3481 N 357.7 0.491464 1.49741 0
M  V30 3482 C 358.949 -0.0582189 2.01616 0
M  V30 3483 C 359.262 -1.38927 1.3769 0
M  V30 3484 O 360.468 -2.02509 1.80838 0
M  V30 3485 C 358.924 -0.154235 3.59569 0
M  V30 3486 C 358.532 1.1696 4.32463 0
M  V30 3487 C 360.276 -0.65479 4.1942 0
M  V30 3488 C 358.183 1.03627 5.8225 0
M  V30 3489 H 357.113 -0.0255317 0.753568 0
M  V30 3490 H 359.764 0.629445 1.72367 0
M  V30 3491 H 358.146 -0.906138 3.85493 0
M  V30 3492 H 359.32 1.93405 4.18248 0
M  V30 3493 H 357.635 1.60285 3.84315 0
M  V30 3494 H 360.232 -0.771903 5.29099 0
M  V30 3495 H 360.575 -1.65127 3.8215 0
M  V30 3496 H 361.108 0.040304 3.9778 0
M  V30 3497 H 357.847 2.00672 6.24028 0
M  V30 3498 H 357.367 0.312546 5.98985 0
M  V30 3499 H 359.046 0.711114 6.4308 0
M  V30 3500 N 359.178 -1.55987 0.224894 0
M  V30 3501 C 360.088 -2.24066 -0.69511 0
M  V30 3502 C 361.104 -1.24939 -1.21104 0
M  V30 3503 O 362.28 -1.5776 -1.25195 0
M  V30 3504 C 359.345 -2.90983 -1.88493 0
M  V30 3505 C 358.406 -4.05462 -1.41064 0
M  V30 3506 C 357.639 -4.69179 -2.54375 0
M  V30 3507 O 357.862 -4.31895 -3.72589 0
M  V30 3508 O 356.796 -5.58108 -2.25386 0
M  V30 3509 H 360.622 -3.03353 -0.145149 0
M  V30 3510 H 358.207 -1.49399 -0.00569476 0
M  V30 3511 H 360.089 -3.33209 -2.57972 0
M  V30 3512 H 358.764 -2.14653 -2.42293 0
M  V30 3513 H 357.671 -3.67798 -0.683774 0
M  V30 3514 H 359.004 -4.83545 -0.918985 0
M  V30 3515 N 360.656 0.0484629 -1.57525 0
M  V30 3516 C 361.933 0.777447 -1.79486 0
M  V30 3517 C 362.313 1.94597 -0.818251 0
M  V30 3518 O 361.661 2.28047 0.143767 0
M  V30 3519 C 361.871 1.22864 -3.26658 0
M  V30 3520 C 363.219 1.65251 -3.91123 0
M  V30 3521 O 364.243 1.32372 -3.3069 0
M  V30 3522 O 363.102 2.26207 -4.97486 0
M  V30 3523 H 360.196 0.374357 -0.737419 0
M  V30 3524 H 362.742 0.0267359 -1.69679 0
M  V30 3525 H 361.514 0.393589 -3.89316 0
M  V30 3526 H 361.137 2.03996 -3.41279 0
M  V30 3527 N 362.134 1.5431 0.320358 0
M  V30 3528 C 363.097 1.83195 1.3774 0
M  V30 3529 C 364.097 0.703906 1.44575 0
M  V30 3530 O 365.287 0.972214 1.44546 0
M  V30 3531 C 362.419 1.99487 2.76438 0
M  V30 3532 H 363.612 2.77642 1.1338 0
M  V30 3533 H 361.165 1.46076 0.556012 0
M  V30 3534 H 361.9 1.07262 3.06048 0
M  V30 3535 H 361.685 2.81575 2.7287 0
M  V30 3536 H 363.175 2.23271 3.52902 0
M  V30 3537 N 363.613 -0.582584 1.46437 0
M  V30 3538 C 364.859 -1.34278 1.51978 0
M  V30 3539 C 365.192 -1.93446 0.170973 0
M  V30 3540 O 364.467 -1.76481 -0.817608 0
M  V30 3541 C 364.75 -2.47203 2.61845 0
M  V30 3542 C 364.603 -1.93069 4.06257 0
M  V30 3543 C 365.922 -3.49247 2.67795 0
M  V30 3544 H 363.041 -0.486876 0.553282 0
M  V30 3545 H 365.683 -0.654437 1.78374 0
M  V30 3546 H 363.833 -3.0592 2.39469 0
M  V30 3547 H 365.505 -1.38808 4.3992 0
M  V30 3548 H 363.748 -1.23898 4.1573 0
M  V30 3549 H 364.419 -2.74586 4.7886 0
M  V30 3550 H 366.895 -3.00411 2.8791 0
M  V30 3551 H 365.771 -4.25719 3.46489 0
M  V30 3552 H 366.032 -4.06482 1.73852 0
M  V30 3553 N 365.091 -1.34144 -0.827227 0
M  V30 3554 C 366.038 -1.25364 -1.93785 0
M  V30 3555 C 367.008 -0.129774 -1.65592 0
M  V30 3556 O 368.193 -0.310024 -1.88264 0
M  V30 3557 C 365.333 -1.01064 -3.2997 0
M  V30 3558 C 364.446 -2.22185 -3.70484 0
M  V30 3559 C 363.581 -1.91203 -4.95595 0
M  V30 3560 C 362.62 -3.08491 -5.28677 0
M  V30 3561 N 361.757 -2.77421 -6.44967 0
M  V30 3562 H 366.597 -2.20347 -2.00627 0
M  V30 3563 H 364.134 -1.09558 -0.981608 0
M  V30 3564 H 366.092 -0.850139 -4.08446 0
M  V30 3565 H 364.722 -0.0975026 -3.22653 0
M  V30 3566 H 363.774 -2.4917 -2.87434 0
M  V30 3567 H 365.086 -3.0983 -3.90905 0
M  V30 3568 H 364.24 -1.71864 -5.81848 0
M  V30 3569 H 362.979 -1.00812 -4.77167 0
M  V30 3570 H 361.984 -3.28431 -4.40923 0
M  V30 3571 H 363.209 -3.99655 -5.49047 0
M  V30 3572 H 361.155 -1.89601 -6.28003 0
M  V30 3573 H 361.072 -3.58598 -6.6554 0
M  V30 3574 H 362.34 -2.61577 -7.34301 0
M  V30 3575 N 366.569 1.04691 -1.17803 0
M  V30 3576 C 367.499 2.14494 -0.92275 0
M  V30 3577 C 368.48 1.69546 0.137179 0
M  V30 3578 O 369.665 1.94195 -0.0141108 0
M  V30 3579 C 366.795 3.44491 -0.440803 0
M  V30 3580 C 365.749 4.03031 -1.4405 0
M  V30 3581 C 365.075 5.28432 -0.81631 0
M  V30 3582 C 366.375 4.39932 -2.81527 0
M  V30 3583 H 368.069 2.36107 -1.84103 0
M  V30 3584 H 365.615 1.1347 -0.886599 0
M  V30 3585 H 367.568 4.2066 -0.249602 0
M  V30 3586 H 366.292 3.22546 0.513025 0
M  V30 3587 H 364.951 3.28937 -1.61853 0
M  V30 3588 H 364.599 5.02792 0.144511 0
M  V30 3589 H 364.299 5.68559 -1.48371 0
M  V30 3590 H 365.823 6.07284 -0.635496 0
M  V30 3591 H 367.237 5.07113 -2.67412 0
M  V30 3592 H 365.634 4.9109 -3.44892 0
M  V30 3593 H 366.704 3.50045 -3.35554 0
M  V30 3594 N 368.047 0.979072 1.23499 0
M  V30 3595 C 368.977 0.537606 2.27227 0
M  V30 3596 C 369.958 -0.428539 1.64613 0
M  V30 3597 O 371.143 -0.322191 1.91509 0
M  V30 3598 C 368.273 -0.162052 3.46922 0
M  V30 3599 C 367.227 0.721242 4.21879 0
M  V30 3600 C 366.553 -0.110555 5.34586 0
M  V30 3601 C 367.853 2.01141 4.82016 0
M  V30 3602 H 369.547 1.40462 2.64406 0
M  V30 3603 H 367.093 0.67684 1.27102 0
M  V30 3604 H 369.046 -0.482192 4.18632 0
M  V30 3605 H 367.77 -1.06351 3.08799 0
M  V30 3606 H 366.429 1.02482 3.51984 0
M  V30 3607 H 366.077 -1.0125 4.92704 0
M  V30 3608 H 365.777 0.477325 5.85658 0
M  V30 3609 H 367.301 -0.425107 6.09118 0
M  V30 3610 H 368.715 1.75612 5.45741 0
M  V30 3611 H 367.112 2.54695 5.43369 0
M  V30 3612 H 368.182 2.69909 4.02836 0
M  V30 3613 N 369.525 -1.3858 0.750561 0
M  V30 3614 C 370.457 -2.29057 0.0810714 0
M  V30 3615 C 371.47 -1.47596 -0.686973 0
M  V30 3616 O 372.659 -1.70495 -0.528563 0
M  V30 3617 C 369.759 -3.26475 -0.909247 0
M  V30 3618 C 368.932 -4.36945 -0.199478 0
M  V30 3619 C 367.991 -5.14572 -1.10011 0
M  V30 3620 O 367.017 -5.66321 -0.57177 0
M  V30 3621 N 368.219 -5.27262 -2.42849 0
M  V30 3622 H 370.984 -2.87153 0.858087 0
M  V30 3623 H 368.545 -1.50328 0.60109 0
M  V30 3624 H 370.537 -3.75285 -1.51471 0
M  V30 3625 H 369.107 -2.69298 -1.58736 0
M  V30 3626 H 368.327 -3.8981 0.586664 0
M  V30 3627 H 369.615 -5.07963 0.291783 0
M  V30 3628 H 369.013 -4.86763 -2.88233 0
M  V30 3629 H 367.57 -5.79456 -2.98453 0
M  V30 3630 N 371.003 -0.499398 -1.49478 0
M  V30 3631 C 371.913 0.284489 -2.32869 0
M  V30 3632 C 372.929 0.968885 -1.44529 0
M  V30 3633 O 374.105 0.95062 -1.77553 0
M  V30 3634 C 371.17 1.33594 -3.19928 0
M  V30 3635 C 370.231 0.665149 -4.24116 0
M  V30 3636 C 369.464 1.6665 -5.07014 0
M  V30 3637 O 369.687 2.89618 -4.91404 0
M  V30 3638 O 368.621 1.22271 -5.8935 0
M  V30 3639 H 372.447 -0.39802 -3.01081 0
M  V30 3640 H 370.032 -0.260758 -1.47107 0
M  V30 3641 H 371.914 1.94431 -3.73864 0
M  V30 3642 H 370.589 2.0014 -2.54412 0
M  V30 3643 H 369.496 0.0170769 -3.74096 0
M  V30 3644 H 370.829 0.0421555 -4.92182 0
M  V30 3645 N 372.481 1.55866 -0.233164 0
M  V30 3646 C 373.721 2.00506 0.397078 0
M  V30 3647 C 374.085 1.1176 1.56121 0
M  V30 3648 O 375.286 1.45796 2.25825 0
M  V30 3649 C 373.557 3.4811 0.809601 0
M  V30 3650 S 375.116 4.14765 1.43231 0
M  V30 3651 H 371.934 0.699828 0.125547 0
M  V30 3652 H 374.536 1.92429 -0.345177 0
M  V30 3653 H 373.24 4.10373 -0.0471601 0
M  V30 3654 H 372.771 3.60085 1.58438 0
M  V30 3655 H 374.786 4.14914 2.7214 0
M  V30 3656 N 373.959 -0.0401083 1.57549 0
M  V30 3657 C 374.906 -1.04413 2.05831 0
M  V30 3658 C 375.876 -1.36585 0.945184 0
M  V30 3659 O 377.061 -1.47112 1.21502 0
M  V30 3660 C 374.201 -2.34336 2.53339 0
M  V30 3661 C 373.314 -2.08419 3.78398 0
M  V30 3662 C 372.449 -3.32133 4.14561 0
M  V30 3663 C 371.488 -3.01721 5.3257 0
M  V30 3664 N 370.625 -4.17855 5.64218 0
M  V30 3665 H 375.465 -0.625442 2.91363 0
M  V30 3666 H 373.002 -0.297218 1.44066 0
M  V30 3667 H 374.96 -3.10234 2.78946 0
M  V30 3668 H 373.59 -2.73948 1.7074 0
M  V30 3669 H 372.642 -1.23069 3.59942 0
M  V30 3670 H 373.954 -1.81978 4.64419 0
M  V30 3671 H 373.108 -4.16406 4.41238 0
M  V30 3672 H 371.847 -3.61678 3.2717 0
M  V30 3673 H 370.852 -2.15849 5.05657 0
M  V30 3674 H 372.077 -2.73466 6.21605 0
M  V30 3675 H 370.023 -4.47372 4.79786 0
M  V30 3676 H 369.94 -3.94798 6.44725 0
M  V30 3677 H 371.208 -5.03033 5.95465 0
M  V30 3678 N 375.437 -1.54477 -0.31217 0
M  V30 3679 C 376.384 -1.84655 -1.38461 0
M  V30 3680 C 377.354 -0.694536 -1.50882 0
M  V30 3681 O 378.539 -0.942081 -1.6592 0
M  V30 3682 C 375.679 -2.0896 -2.74645 0
M  V30 3683 C 374.792 -3.36618 -2.70763 0
M  V30 3684 C 373.927 -3.50824 -3.98868 0
M  V30 3685 C 372.966 -4.72315 -3.89339 0
M  V30 3686 N 372.103 -4.83387 -5.09197 0
M  V30 3687 H 376.943 -2.76142 -1.12026 0
M  V30 3688 H 374.48 -1.36748 -0.542065 0
M  V30 3689 H 376.438 -2.21045 -3.53829 0
M  V30 3690 H 375.068 -1.20752 -2.99364 0
M  V30 3691 H 374.12 -3.33211 -1.83506 0
M  V30 3692 H 375.432 -4.25917 -2.59608 0
M  V30 3693 H 374.586 -3.62513 -4.86486 0
M  V30 3694 H 373.325 -2.59638 -4.12843 0
M  V30 3695 H 372.33 -4.6067 -3.00105 0
M  V30 3696 H 373.555 -5.64897 -3.76919 0
M  V30 3697 H 371.501 -3.9512 -5.23657 0
M  V30 3698 H 371.418 -5.66669 -5.00422 0
M  V30 3699 H 372.686 -4.9942 -5.98498 0
M  V30 3700 N 376.915 0.57481 -1.46744 0
M  V30 3701 C 378.164 1.32898 -1.51727 0
M  V30 3702 C 378.477 1.948 -0.176692 0
M  V30 3703 O 379.683 2.71299 -0.104385 0
M  V30 3704 C 378.139 2.40901 -2.67385 0
M  V30 3705 C 377.747 1.85266 -4.07898 0
M  V30 3706 C 379.491 3.17609 -2.81646 0
M  V30 3707 C 377.398 2.90945 -5.14883 0
M  V30 3708 H 376.328 0.499631 -0.564699 0
M  V30 3709 H 378.979 0.612536 -1.72975 0
M  V30 3710 H 377.361 3.15379 -2.39483 0
M  V30 3711 H 378.535 1.17278 -4.45626 0
M  V30 3712 H 376.85 1.21199 -3.98371 0
M  V30 3713 H 379.447 3.96493 -3.58744 0
M  V30 3714 H 379.79 3.70696 -1.89448 0
M  V30 3715 H 380.323 2.50239 -3.09233 0
M  V30 3716 H 377.062 2.42736 -6.089 0
M  V30 3717 H 376.582 3.57398 -4.81691 0
M  V30 3718 H 378.261 3.54755 -5.41071 0
M  V30 3719 N 378.394 1.34581 0.820102 0
M  V30 3720 C 379.643 1.26437 1.57151 0
M  V30 3721 C 379.956 -0.163111 1.94919 0
M  V30 3722 O 381.162 -0.366722 2.69012 0
M  V30 3723 C 379.618 2.21658 2.83541 0
M  V30 3724 C 379.226 3.69679 2.53065 0
M  V30 3725 C 380.97 2.22428 3.61561 0
M  V30 3726 C 378.877 4.56761 3.75664 0
M  V30 3727 H 377.807 0.469707 0.589823 0
M  V30 3728 H 380.458 1.59763 0.902656 0
M  V30 3729 H 378.84 1.81287 3.52067 0
M  V30 3730 H 380.014 4.18605 1.92631 0
M  V30 3731 H 378.329 3.71384 1.88316 0
M  V30 3732 H 380.926 2.8471 4.52597 0
M  V30 3733 H 381.269 1.22434 3.97889 0
M  V30 3734 H 381.802 2.61259 2.99981 0
M  V30 3735 H 378.541 5.57702 3.44454 0
M  V30 3736 H 378.061 4.12568 4.35371 0
M  V30 3737 H 379.74 4.71509 4.43044 0
M  V30 3738 N 379.872 -1.04064 1.18357 0
M  V30 3739 C 381.118 -1.77528 0.980397 0
M  V30 3740 C 381.451 -1.87948 -0.48879 0
M  V30 3741 O 380.726 -1.3876 -1.36293 0
M  V30 3742 C 381.009 -3.20797 1.63588 0
M  V30 3743 C 380.862 -3.1832 3.17793 0
M  V30 3744 C 382.181 -4.18911 1.34914 0
M  V30 3745 H 379.3 -0.644443 0.357578 0
M  V30 3746 H 381.942 -1.2156 1.46024 0
M  V30 3747 H 380.092 -3.68586 1.22788 0
M  V30 3748 H 381.764 -2.78521 3.67728 0
M  V30 3749 H 380.007 -2.56351 3.49952 0
M  V30 3750 H 380.678 -4.19489 3.58794 0
M  V30 3751 H 383.154 -3.7967 1.70265 0
M  V30 3752 H 382.03 -5.17374 1.83346 0
M  V30 3753 H 382.291 -4.41262 0.272027 0
M  V30 3754 N 381.35 -0.985608 -1.22978 0
M  V30 3755 C 382.28 -0.549649 -2.26939 0
M  V30 3756 C 383.261 0.419803 -1.64838 0
M  V30 3757 O 384.446 0.31203 -1.91677 0
M  V30 3758 C 381.576 0.143652 -3.47003 0
M  V30 3759 C 380.53 -0.743606 -4.21491 0
M  V30 3760 C 379.856 0.0822027 -5.34637 0
M  V30 3761 C 381.156 -2.03694 -4.80943 0
M  V30 3762 H 382.85 -1.41862 -2.63658 0
M  V30 3763 H 380.396 -0.683571 -1.26741 0
M  V30 3764 H 382.349 0.459985 -4.18882 0
M  V30 3765 H 381.073 1.04711 -3.09359 0
M  V30 3766 H 379.732 -1.04347 -3.51436 0
M  V30 3767 H 379.38 0.986359 -4.93234 0
M  V30 3768 H 379.08 -0.508377 -5.85397 0
M  V30 3769 H 380.604 0.392797 -6.09335 0
M  V30 3770 H 382.018 -1.78504 -5.44802 0
M  V30 3771 H 380.415 -2.57573 -5.42011 0
M  V30 3772 H 381.485 -2.72042 -4.01399 0
M  V30 3773 N 382.828 1.3818 -0.7579 0
M  V30 3774 C 384.056 2.04301 -0.326937 0
M  V30 3775 C 384.471 1.57163 1.0462 0
M  V30 3776 O 383.828 0.746626 1.66529 0
M  V30 3777 C 383.879 3.59846 -0.345363 0
M  V30 3778 O 383.6 4.05256 -1.66432 0
M  V30 3779 C 385.101 4.4319 0.098927 0
M  V30 3780 H 382.321 0.656443 -0.139012 0
M  V30 3781 H 384.865 1.76786 -1.02796 0
M  V30 3782 H 383.02 3.86182 0.306955 0
M  V30 3783 H 383.434 4.99709 -1.59345 0
M  V30 3784 H 384.908 5.51989 0.0348745 0
M  V30 3785 H 385.385 4.23947 1.14741 0
M  V30 3786 H 385.991 4.22051 -0.52468 0
M  V30 3787 N 384.306 0.507319 1.49211 0
M  V30 3788 C 385.554 -0.0348839 2.0207 0
M  V30 3789 C 385.875 -1.36898 1.38866 0
M  V30 3790 O 385.145 -1.88133 0.546151 0
M  V30 3791 H 383.725 -0.0158812 0.746831 0
M  V30 3792 H 386.387 0.665998 1.83168 0
M  V30 3793 H 385.483 -0.159917 3.1169 0
M  V30 3794 N 385.784 -1.5574 0.241426 0
M  V30 3795 C 386.747 -2.19877 -0.647063 0
M  V30 3796 C 387.747 -1.16642 -1.10686 0
M  V30 3797 O 388.937 -1.41757 -1.01245 0
M  V30 3798 C 386.069 -2.83797 -1.88871 0
M  V30 3799 H 387.262 -2.99772 -0.087574 0
M  V30 3800 H 384.815 -1.56298 -0.00813574 0
M  V30 3801 H 385.55 -2.07824 -2.48957 0
M  V30 3802 H 385.335 -3.59414 -1.56728 0
M  V30 3803 H 386.825 -3.32898 -2.52129 0
M  V30 3804 N 387.262 0.0317525 -1.57568 0
M  V30 3805 C 388.51 0.721676 -1.88776 0
M  V30 3806 C 388.831 1.76039 -0.838772 0
M  V30 3807 O 388.101 1.95482 0.127935 0
M  V30 3808 H 386.681 0.269534 -0.696678 0
M  V30 3809 H 389.343 -0.00165879 -1.949 0
M  V30 3810 H 388.439 1.21293 -2.87566 0
M  V30 3811 N 388.74 1.54641 0.303973 0
M  V30 3812 C 389.986 1.74038 1.04109 0
M  V30 3813 C 390.319 0.523051 1.87024 0
M  V30 3814 O 389.594 -0.479874 1.88487 0
M  V30 3815 C 389.877 3.02761 1.94955 0
M  V30 3816 C 389.73 4.34787 1.1524 0
M  V30 3817 C 391.049 3.27336 2.94175 0
M  V30 3818 H 388.168 0.63323 0.377079 0
M  V30 3819 H 390.81 1.87354 0.316001 0
M  V30 3820 H 388.96 2.9154 2.56782 0
M  V30 3821 H 390.632 4.57922 0.557236 0
M  V30 3822 H 388.875 4.31407 0.455053 0
M  V30 3823 H 389.546 5.21116 1.8205 0
M  V30 3824 H 392.022 3.38148 2.42477 0
M  V30 3825 H 390.898 4.18726 3.54908 0
M  V30 3826 H 391.159 2.45491 3.67677 0
M  V30 3827 N 390.218 -0.567019 1.47046 0
M  V30 3828 C 391.443 -1.3551 1.57009 0
M  V30 3829 C 391.868 -1.86841 0.217259 0
M  V30 3830 O 391.226 -1.62435 -0.805268 0
M  V30 3831 C 391.274 -2.50777 2.5912 0
M  V30 3832 O 390.378 -3.52706 2.13711 0
M  V30 3833 H 389.719 -0.402919 0.52778 0
M  V30 3834 H 392.249 -0.686241 1.92748 0
M  V30 3835 H 392.259 -2.97481 2.79229 0
M  V30 3836 H 390.934 -2.12771 3.57353 0
M  V30 3837 H 389.511 -3.12374 2.03659 0
M  V30 3838 N 391.696 -1.35014 -0.812953 0
M  V30 3839 C 392.942 -1.2812 -1.57204 0
M  V30 3840 C 393.275 0.145869 -1.93651 0
M  V30 3841 O 392.55 1.0937 -1.60836 0
M  V30 3842 C 392.833 -2.18162 -2.86492 0
M  V30 3843 C 392.686 -3.69454 -2.56561 0
M  V30 3844 C 394.005 -2.07439 -3.88145 0
M  V30 3845 H 391.124 -0.466746 -0.570366 0
M  V30 3846 H 393.766 -1.65357 -0.935783 0
M  V30 3847 H 391.916 -1.86535 -3.40789 0
M  V30 3848 H 393.588 -4.11493 -2.08497 0
M  V30 3849 H 391.831 -3.9005 -1.89851 0
M  V30 3850 H 392.502 -4.27835 -3.48799 0
M  V30 3851 H 394.978 -2.35228 -3.4323 0
M  V30 3852 H 393.854 -2.7265 -4.76396 0
M  V30 3853 H 394.115 -1.05439 -4.29343 0
M  V30 3854 N 393.175 1.03435 -1.18907 0
M  V30 3855 C 394.4 1.80919 -1.01406 0
M  V30 3856 C 394.825 1.83055 0.432721 0
M  V30 3857 O 394.183 1.25252 1.31079 0
M  V30 3858 C 394.231 3.24091 -1.58105 0
M  V30 3859 O 393.335 4.04434 -0.806669 0
M  V30 3860 H 392.676 0.558709 -0.358803 0
M  V30 3861 H 395.206 1.30223 -1.57807 0
M  V30 3862 H 395.216 3.74853 -1.61087 0
M  V30 3863 H 393.891 3.21851 -2.6341 0
M  V30 3864 H 392.468 3.63091 -0.849666 0
M  V30 3865 N 394.653 0.992116 1.22453 0
M  V30 3866 C 395.893 0.675727 1.92907 0
M  V30 3867 C 396.257 -0.777762 1.75542 0
M  V30 3868 O 397.458 -1.20553 2.40251 0
M  V30 3869 C 395.729 1.0696 3.4102 0
M  V30 3870 S 397.288 0.871456 4.30059 0
M  V30 3871 H 394.106 0.247089 0.666684 0
M  V30 3872 H 396.708 1.27423 1.48269 0
M  V30 3873 H 395.412 2.12383 3.51172 0
M  V30 3874 H 394.943 0.462858 3.90668 0
M  V30 3875 H 396.958 -0.238436 4.95627 0
M  V30 3876 N 396.131 -1.37776 0.765217 0
M  V30 3877 C 397.379 -1.99454 0.325943 0
M  V30 3878 C 397.7 -1.61049 -1.09947 0
M  V30 3879 O 396.97 -0.872821 -1.75381 0
M  V30 3880 H 395.55 -0.737697 0.117525 0
M  V30 3881 H 398.212 -1.68359 0.981895 0
M  V30 3882 H 397.308 -3.09547 0.398353 0
M  V30 3883 N 397.609 -0.515225 -1.4894 0
M  V30 3884 C 398.858 0.0261361 -2.01683 0
M  V30 3885 C 399.171 1.36719 -1.39883 0
M  V30 3886 O 400.377 1.99606 -1.84037 0
M  V30 3887 C 398.833 0.0970111 -3.59769 0
M  V30 3888 C 398.441 -1.23825 -4.30548 0
M  V30 3889 C 400.185 0.587981 -4.20408 0
M  V30 3890 C 398.092 -1.12877 -5.80528 0
M  V30 3891 H 397.022 0.0135398 -0.753878 0
M  V30 3892 H 399.673 -0.656787 -1.71343 0
M  V30 3893 H 398.055 0.844694 -3.86886 0
M  V30 3894 H 399.229 -2.00034 -4.15118 0
M  V30 3895 H 397.544 -1.66379 -3.81716 0
M  V30 3896 H 400.141 0.68763 -5.3026 0
M  V30 3897 H 400.484 1.59026 -3.84729 0
M  V30 3898 H 401.017 -0.103582 -3.97665 0
M  V30 3899 H 397.756 -2.10575 -6.20756 0
M  V30 3900 H 397.276 -0.407799 -5.98412 0
M  V30 3901 H 398.955 -0.813332 -6.41868 0
M  V30 3902 N 399.087 1.5561 -0.249682 0
M  V30 3903 C 400.498 1.84979 0.252949 0
M  V30 3904 C 400.849 1.17153 1.57384 0
M  V30 3905 O 399.974 0.450884 2.11651 0
M  V30 3906 C 400.569 3.35584 0.465732 0
M  V30 3907 C 399.128 3.65169 0.912624 0
M  V30 3908 C 398.275 2.77299 -0.00859085 0
M  V30 3909 H 401.226 1.51513 -0.47217 0
M  V30 3910 H 401.247 3.57313 1.30795 0
M  V30 3911 H 400.759 3.8492 -0.49579 0
M  V30 3912 H 398.86 3.21312 1.88652 0
M  V30 3913 H 398.973 4.72912 0.767559 0
M  V30 3914 H 397.337 2.49678 0.50327 0
M  V30 3915 H 398.12 3.29442 -0.965537 0
M  V30 3916 N 400.565 -0.0233959 1.57583 0
M  V30 3917 C 401.842 -0.748794 1.807 0
M  V30 3918 C 402.222 -1.9327 0.849106 0
M  V30 3919 O 401.57 -2.28247 -0.107468 0
M  V30 3920 C 401.78 -1.17651 3.28571 0
M  V30 3921 C 403.128 -1.59008 3.93702 0
M  V30 3922 O 404.152 -1.27094 3.32755 0
M  V30 3923 O 403.011 -2.18264 5.01022 0
M  V30 3924 H 400.105 -0.362578 0.743281 0
M  V30 3925 H 402.651 0.000261958 1.697 0
M  V30 3926 H 401.423 -0.331603 3.89892 0
M  V30 3927 H 401.046 -1.98541 3.44481 0
M  V30 3928 N 402.043 -1.548 -0.295768 0
M  V30 3929 C 403.29 -1.74329 -1.03032 0
M  V30 3930 C 403.618 -0.531915 -1.87085 0
M  V30 3931 O 402.873 0.486052 -1.89568 0
M  V30 3932 C 403.172 -2.98797 -1.961 0
M  V30 3933 C 402.838 -4.32356 -1.2798 0
M  V30 3934 C 401.5 -4.68661 -1.09135 0
M  V30 3935 C 403.852 -5.15128 -0.793243 0
M  V30 3936 C 401.18 -5.85312 -0.403269 0
M  V30 3937 C 403.532 -6.32488 -0.118854 0
M  V30 3938 C 402.196 -6.6745 0.0815043 0
M  V30 3939 H 401.466 -0.637916 -0.37702 0
M  V30 3940 H 404.113 -1.8906 -0.304696 0
M  V30 3941 H 402.418 -2.78869 -2.75207 0
M  V30 3942 H 404.115 -3.11102 -2.53015 0
M  V30 3943 H 400.705 -4.03808 -1.43655 0
M  V30 3944 H 404.889 -4.87575 -0.92653 0
M  V30 3945 H 400.145 -6.1094 -0.237098 0
M  V30 3946 H 404.319 -6.95892 0.266035 0
M  V30 3947 H 401.946 -7.57695 0.616685 0
M  V30 3948 N 403.521 0.559213 -1.47345 0
M  V30 3949 C 404.937 0.884943 -1.32819 0
M  V30 3950 C 405.137 1.98988 -0.317173 0
M  V30 3951 O 404.193 2.51031 0.272011 0
M  V30 3952 C 405.506 1.28007 -2.72093 0
M  V30 3953 C 407.054 1.39161 -2.80363 0
M  V30 3954 C 407.529 1.82031 -4.20272 0
M  V30 3955 N 409.02 1.89185 -4.22804 0
M  V30 3956 C 409.755 2.2368 -5.27973 0
M  V30 3957 N 409.251 2.56802 -6.43447 0
M  V30 3958 N 411.044 2.24436 -5.15349 0
M  V30 3959 H 403.195 -0.170304 -2.11716 0
M  V30 3960 H 405.458 -0.0135247 -0.947904 0
M  V30 3961 H 405.164 0.542027 -3.47498 0
M  V30 3962 H 405.038 2.23665 -3.03733 0
M  V30 3963 H 407.425 2.12048 -2.05231 0
M  V30 3964 H 407.506 0.41696 -2.52379 0
M  V30 3965 H 407.15 1.09715 -4.95908 0
M  V30 3966 H 407.08 2.80495 -4.45679 0
M  V30 3967 H 409.571 1.65982 -3.39497 0
M  V30 3968 H 409.884 2.82144 -7.19454 0
M  V30 3969 H 408.229 2.54387 -6.46771 0
M  V30 3970 H 411.42 1.97998 -4.24163 0
M  V30 3971 H 411.593 2.50989 -5.97418 0
M  V30 3972 N 404.999 1.35443 0.805782 0
M  V30 3973 C 406.224 1.32037 1.59941 0
M  V30 3974 C 406.649 -0.0994215 1.87837 0
M  V30 3975 O 406.007 -1.06648 1.46615 0
M  V30 3976 C 406.055 2.13354 2.90711 0
M  V30 3977 O 405.159 1.5148 3.83572 0
M  V30 3978 H 404.5 0.452666 0.485787 0
M  V30 3979 H 407.03 1.78496 1.00002 0
M  V30 3980 H 407.04 2.25338 3.40128 0
M  V30 3981 H 405.715 3.16572 2.69732 0
M  V30 3982 H 404.292 1.4834 3.42125 0
M  V30 3983 N 406.477 -1.02803 1.19454 0
M  V30 3984 C 407.893 -1.28473 0.946937 0
M  V30 3985 C 408.093 -1.97881 -0.380202 0
M  V30 3986 O 407.149 -2.26719 -1.11151 0
M  V30 3987 C 408.462 -2.13099 2.12154 0
M  V30 3988 C 410.01 -2.26404 2.16126 0
M  V30 3989 C 410.485 -3.14402 3.33039 0
M  V30 3990 N 411.976 -3.21991 3.32981 0
M  V30 3991 C 412.711 -3.90272 4.20089 0
M  V30 3992 N 412.207 -4.60777 5.17355 0
M  V30 3993 N 414 -3.8668 4.07964 0
M  V30 3994 H 406.151 -0.561665 2.04839 0
M  V30 3995 H 408.414 -0.310438 0.89573 0
M  V30 3996 H 408.12 -1.69422 3.08203 0
M  V30 3997 H 407.994 -3.13813 2.09287 0
M  V30 3998 H 410.381 -2.69311 1.20647 0
M  V30 3999 H 410.462 -1.25237 2.23045 0
M  V30 4000 H 410.106 -2.72204 4.28798 0
M  V30 4001 H 410.036 -4.1563 3.23356 0
M  V30 4002 H 412.527 -2.71778 2.62574 0
M  V30 4003 H 412.84 -5.10513 5.80169 0
M  V30 4004 H 411.185 -4.5964 5.21302 0
M  V30 4005 H 414.376 -3.30739 3.31254 0
M  V30 4006 H 414.549 -4.39621 4.76064 0
M  V30 4007 N 407.956 -0.998596 -1.21925 0
M  V30 4008 C 409.233 -0.593401 -1.86382 0
M  V30 4009 C 409.613 0.92916 -1.89552 0
M  V30 4010 O 408.961 1.81347 -1.39017 0
M  V30 4011 C 409.171 -1.22039 -3.26967 0
M  V30 4012 C 410.519 -1.32449 -4.03413 0
M  V30 4013 O 411.543 -1.17522 -3.36254 0
M  V30 4014 O 410.402 -1.56395 -5.23644 0
M  V30 4015 H 407.496 -0.202385 -0.801854 0
M  V30 4016 H 410.042 -1.09484 -1.29659 0
M  V30 4017 H 408.814 -2.26158 -3.19325 0
M  V30 4018 H 408.437 -0.704906 -3.91301 0
M  V30 4019 N 409.434 1.37368 -0.772513 0
M  V30 4020 C 410.682 1.99279 -0.336516 0
M  V30 4021 C 411.003 1.6163 1.09091 0
M  V30 4022 O 410.273 0.882109 1.74916 0
M  V30 4023 H 408.853 0.737063 -0.121435 0
M  V30 4024 H 411.515 1.67836 -0.990809 0
M  V30 4025 H 410.611 3.09332 -0.414763 0
M  V30 4026 N 410.912 0.523116 1.48665 0
M  V30 4027 C 412.161 -0.01544 2.01694 0
M  V30 4028 C 412.474 -1.35975 1.40606 0
M  V30 4029 O 413.68 -1.98627 1.85093 0
M  V30 4030 C 412.136 -0.0779303 3.59816 0
M  V30 4031 C 411.744 1.26107 4.29885 0
M  V30 4032 C 413.488 -0.565678 4.20714 0
M  V30 4033 C 411.395 1.15954 5.79921 0
M  V30 4034 H 410.325 -0.00954163 0.75394 0
M  V30 4035 H 412.976 0.665865 1.70993 0
M  V30 4036 H 411.358 -0.824165 3.87329 0
M  V30 4037 H 412.532 2.02233 4.14051 0
M  V30 4038 H 410.847 1.68401 3.80828 0
M  V30 4039 H 413.444 -0.6595 5.30617 0
M  V30 4040 H 413.787 -1.56984 3.85567 0
M  V30 4041 H 414.32 0.12467 3.97605 0
M  V30 4042 H 411.059 2.13864 6.19631 0
M  V30 4043 H 410.579 0.439529 5.98187 0
M  V30 4044 H 412.258 0.847361 6.41427 0
M  V30 4045 N 412.39 -1.55475 0.257931 0
M  V30 4046 C 413.62 -2.03314 -0.367026 0
M  V30 4047 C 414.028 -1.13625 -1.51281 0
M  V30 4048 O 413.371 -0.145334 -1.83124 0
M  V30 4049 C 413.433 -3.47362 -0.926284 0
M  V30 4050 C 413.097 -4.56914 0.0886584 0
M  V30 4051 C 414.094 -5.12013 0.902123 0
M  V30 4052 C 411.779 -5.01827 0.217936 0
M  V30 4053 C 413.773 -6.10529 1.83122 0
M  V30 4054 C 411.46 -6.00172 1.15052 0
M  V30 4055 C 412.458 -6.54402 1.95568 0
M  V30 4056 O 412.146 -7.50827 2.87253 0
M  V30 4057 H 411.878 -0.669976 -0.0900443 0
M  V30 4058 H 414.432 -2.01804 0.382673 0
M  V30 4059 H 412.662 -3.46056 -1.72575 0
M  V30 4060 H 414.351 -3.78637 -1.46249 0
M  V30 4061 H 415.117 -4.78139 0.812891 0
M  V30 4062 H 410.996 -4.59272 -0.398721 0
M  V30 4063 H 414.54 -6.52783 2.46008 0
M  V30 4064 H 410.437 -6.33465 1.24064 0
M  V30 4065 H 411.205 -7.68483 2.81739 0
M  V30 4066 N 413.868 0.0150385 -1.57593 0
M  V30 4067 C 414.831 0.995996 -2.06428 0
M  V30 4068 C 415.831 1.2818 -0.970903 0
M  V30 4069 O 417.021 1.22949 -1.23406 0
M  V30 4070 C 414.153 2.32506 -2.49307 0
M  V30 4071 H 415.346 0.573873 -2.94358 0
M  V30 4072 H 412.899 0.262186 -1.54085 0
M  V30 4073 H 413.634 2.79438 -1.64575 0
M  V30 4074 H 413.419 2.13087 -3.29145 0
M  V30 4075 H 414.909 3.02906 -2.87468 0
M  V30 4076 N 415.346 1.54954 0.287554 0
M  V30 4077 C 416.762 1.46469 0.633964 0
M  V30 4078 C 416.962 0.666865 1.90145 0
M  V30 4079 O 416.018 0.179906 2.51858 0
M  V30 4080 C 417.331 2.90556 0.774454 0
M  V30 4081 C 418.879 3.00681 0.869462 0
M  V30 4082 C 419.354 4.45993 1.04184 0
M  V30 4083 N 420.845 4.4976 1.10772 0
M  V30 4084 C 421.58 5.59393 1.25964 0
M  V30 4085 N 421.076 6.78923 1.37968 0
M  V30 4086 N 422.869 5.47107 1.28959 0
M  V30 4087 H 415.02 2.05288 -0.545041 0
M  V30 4088 H 417.283 0.930305 -0.182308 0
M  V30 4089 H 416.989 3.51594 -0.086207 0
M  V30 4090 H 416.863 3.38743 1.6593 0
M  V30 4091 H 419.25 2.39749 1.7206 0
M  V30 4092 H 419.331 2.55769 -0.0396831 0
M  V30 4093 H 418.975 5.07524 0.195422 0
M  V30 4094 H 418.905 4.88548 1.96542 0
M  V30 4095 H 421.396 3.63651 1.02794 0
M  V30 4096 H 421.709 7.58231 1.49353 0
M  V30 4097 H 420.054 6.81763 1.34999 0
M  V30 4098 H 423.245 4.52668 1.19202 0
M  V30 4099 H 423.418 6.32595 1.40455 0
M  V30 4100 N 416.824 -0.551391 1.4764 0
M  V30 4101 C 417.754 -1.66757 1.63445 0
M  V30 4102 C 418.735 -1.63077 0.483742 0
M  V30 4103 O 419.92 -1.80607 0.71377 0
M  V30 4104 C 417.05 -3.05387 1.65396 0
M  V30 4105 C 416.004 -3.23918 2.79752 0
M  V30 4106 C 415.33 -4.63393 2.66779 0
M  V30 4107 C 416.63 -3.08735 4.21284 0
M  V30 4108 H 418.324 -1.53786 2.56886 0
M  V30 4109 H 415.87 -0.738415 1.23626 0
M  V30 4110 H 417.823 -3.83325 1.75043 0
M  V30 4111 H 416.547 -3.19332 0.685195 0
M  V30 4112 H 415.206 -2.48391 2.69625 0
M  V30 4113 H 414.854 -4.74144 1.67918 0
M  V30 4114 H 414.554 -4.7674 3.43501 0
M  V30 4115 H 416.078 -5.43458 2.78364 0
M  V30 4116 H 417.492 -3.76484 4.32357 0
M  V30 4117 H 415.889 -3.33588 4.98838 0
M  V30 4118 H 416.959 -2.0541 4.39243 0
M  V30 4119 N 418.302 -1.35869 -0.798587 0
M  V30 4120 C 419.265 -1.29307 -1.89242 0
M  V30 4121 C 420.265 -0.202747 -1.59517 0
M  V30 4122 O 421.455 -0.456957 -1.681 0
M  V30 4123 C 418.587 -1.00229 -3.25833 0
M  V30 4124 H 419.78 -2.26576 -1.96478 0
M  V30 4125 H 417.333 -1.20509 -0.995358 0
M  V30 4126 H 418.068 -0.033801 -3.24282 0
M  V30 4127 H 417.853 -1.79121 -3.48795 0
M  V30 4128 H 419.343 -0.98219 -4.05885 0
M  V30 4129 N 419.78 1.02168 -1.19998 0
M  V30 4130 C 421.026 1.75945 -1.00852 0
M  V30 4131 C 421.359 1.88702 0.458828 0
M  V30 4132 O 420.634 1.40911 1.34069 0
M  V30 4133 C 420.917 3.18154 -1.68671 0
M  V30 4134 C 420.77 3.13224 -3.22817 0
M  V30 4135 C 422.089 4.16711 -1.41561 0
M  V30 4136 H 419.208 0.638673 -0.367785 0
M  V30 4137 H 421.85 1.19222 -1.4794 0
M  V30 4138 H 420 3.66586 -1.28636 0
M  V30 4139 H 421.672 2.72635 -3.72112 0
M  V30 4140 H 419.915 2.50751 -3.53986 0
M  V30 4141 H 420.586 4.13728 -3.65422 0
M  V30 4142 H 423.062 3.76913 -1.76284 0
M  V30 4143 H 421.938 5.14391 -1.91553 0
M  V30 4144 H 422.199 4.40774 -0.342193 0
M  V30 4145 N 421.258 1.00505 1.21394 0
M  V30 4146 C 422.535 0.603277 1.86064 0
M  V30 4147 C 422.915 -0.919095 1.90042 0
M  V30 4148 O 422.263 -1.80607 1.39977 0
M  V30 4149 C 422.473 1.23772 3.26315 0
M  V30 4150 C 423.821 1.34586 4.02705 0
M  V30 4151 O 424.845 1.19304 3.35626 0
M  V30 4152 O 423.704 1.59169 5.22807 0
M  V30 4153 H 420.798 0.206634 0.800769 0
M  V30 4154 H 423.344 1.1017 1.29076 0
M  V30 4155 H 422.116 2.27848 3.18121 0
M  V30 4156 H 421.739 0.725648 3.90922 0
M  V30 4157 N 422.737 -1.36956 0.779787 0
M  V30 4158 C 423.984 -1.99491 0.347766 0
M  V30 4159 C 424.312 -1.61898 -1.07793 0
M  V30 4160 O 423.567 -0.86071 -1.75756 0
M  V30 4161 C 423.866 -3.54585 0.447686 0
M  V30 4162 C 423.532 -4.1197 1.83279 0
M  V30 4163 C 422.194 -4.27356 2.2118 0
M  V30 4164 C 424.546 -4.43354 2.74019 0
M  V30 4165 C 421.874 -4.71432 3.4924 0
M  V30 4166 C 424.226 -4.88858 4.01497 0
M  V30 4167 C 422.89 -5.0245 4.39432 0
M  V30 4168 H 422.16 -0.729991 0.127257 0
M  V30 4169 H 424.807 -1.63599 0.995376 0
M  V30 4170 H 423.112 -3.90773 -0.283447 0
M  V30 4171 H 424.809 -4.00888 0.0945948 0
M  V30 4172 H 421.399 -4.00428 1.52825 0
M  V30 4173 H 425.583 -4.31045 2.45995 0
M  V30 4174 H 420.839 -4.80141 3.78516 0
M  V30 4175 H 425.013 -5.12108 4.71931 0
M  V30 4176 H 422.64 -5.36362 5.38721 0
M  V30 4177 N 424.215 -0.530993 -1.48385 0
M  V30 4178 C 425.626 -0.0907905 -1.86479 0
M  V30 4179 C 425.977 1.33213 -1.44044 0
M  V30 4180 O 425.102 1.99783 -0.831615 0
M  V30 4181 C 425.697 -0.157987 -3.38431 0
M  V30 4182 C 424.256 0.227026 -3.75715 0
M  V30 4183 C 423.403 -0.5173 -2.72432 0
M  V30 4184 H 426.354 -0.742186 -1.40276 0
M  V30 4185 H 426.375 0.630053 -3.75247 0
M  V30 4186 H 425.887 -1.19372 -3.69286 0
M  V30 4187 H 423.988 1.26486 -3.50474 0
M  V30 4188 H 424.101 -0.113288 -4.78966 0
M  V30 4189 H 422.465 0.0365527 -2.54674 0
M  V30 4190 H 423.248 -1.55368 -3.0613 0
M  V30 4191 N 425.693 1.55336 -0.266172 0
M  V30 4192 C 426.97 1.91372 0.404486 0
M  V30 4193 C 427.35 1.18935 1.74407 0
M  V30 4194 O 426.698 0.3132 2.26343 0
M  V30 4195 C 426.908 3.44581 0.553593 0
M  V30 4196 C 428.256 4.16196 0.840618 0
M  V30 4197 O 429.28 3.50426 0.638739 0
M  V30 4198 O 428.139 5.32567 1.22618 0
M  V30 4199 H 425.233 0.797194 0.220025 0
M  V30 4200 H 427.779 1.66813 -0.311664 0
M  V30 4201 H 426.551 3.89357 -0.389498 0
M  V30 4202 H 426.174 3.75065 1.31955 0
M  V30 4203 N 427.171 -0.0066808 1.57599 0
M  V30 4204 C 428.101 -0.999296 2.11036 0
M  V30 4205 C 429.082 -1.36278 1.01795 0
M  V30 4206 O 430.267 -1.4477 1.29442 0
M  V30 4207 C 427.397 -2.29328 2.60818 0
M  V30 4208 C 426.351 -2.07159 3.74525 0
M  V30 4209 C 425.677 -3.42512 4.10596 0
M  V30 4210 C 426.977 -1.43959 5.02069 0
M  V30 4211 H 428.671 -0.554382 2.94223 0
M  V30 4212 H 426.217 -0.265221 1.41536 0
M  V30 4213 H 428.17 -2.99117 2.96828 0
M  V30 4214 H 426.894 -2.7592 1.74745 0
M  V30 4215 H 425.553 -1.39797 3.38899 0
M  V30 4216 H 425.201 -3.86795 3.21556 0
M  V30 4217 H 424.901 -3.28498 4.87199 0
M  V30 4218 H 426.425 -4.13628 4.4916 0
M  V30 4219 H 427.839 -2.03696 5.35893 0
M  V30 4220 H 426.236 -1.40452 5.83432 0
M  V30 4221 H 427.306 -0.407992 4.83181 0
M  V30 4222 N 428.649 -1.55105 -0.279332 0
M  V30 4223 C 430.06 -1.66186 -0.850832 0
M  V30 4224 C 430.411 -0.584707 -1.87285 0
M  V30 4225 O 429.536 0.274919 -2.14647 0
M  V30 4226 C 430.131 -3.01264 -1.55001 0
M  V30 4227 C 428.69 -3.14394 -2.06963 0
M  V30 4228 C 427.837 -2.61959 -0.909536 0
M  V30 4229 H 430.788 -1.58602 -0.0558235 0
M  V30 4230 H 430.809 -2.93899 -2.41669 0
M  V30 4231 H 430.321 -3.7964 -0.805931 0
M  V30 4232 H 428.422 -2.4078 -2.84352 0
M  V30 4233 H 428.535 -4.20867 -2.28928 0
M  V30 4234 H 426.899 -2.18957 -1.30116 0
M  V30 4235 H 427.682 -3.42833 -0.179062 0
M  V30 4236 N 430.127 0.543554 -1.4793 0
M  V30 4237 C 431.404 1.30458 -1.4574 0
M  V30 4238 C 431.784 2.1048 -0.161692 0
M  V30 4239 O 431.132 2.11831 0.856734 0
M  V30 4240 C 431.342 2.19754 -2.71126 0
M  V30 4241 C 432.69 2.80334 -3.18901 0
M  V30 4242 O 433.714 2.30049 -2.71948 0
M  V30 4243 O 432.573 3.71766 -4.00565 0
M  V30 4244 H 429.667 0.588117 -0.581418 0
M  V30 4245 H 432.213 0.561328 -1.60147 0
M  V30 4246 H 430.985 1.60316 -3.56952 0
M  V30 4247 H 430.608 3.01351 -2.59371 0
M  V30 4248 N 431.605 1.3629 0.791371 0
M  V30 4249 C 433.016 1.27225 1.36641 0
M  V30 4250 C 433.367 -0.0887968 1.95999 0
M  V30 4251 O 432.492 -0.990207 1.92416 0
M  V30 4252 C 433.087 2.30375 2.48421 0
M  V30 4253 C 431.646 2.25004 3.01746 0
M  V30 4254 C 430.793 2.15259 1.7481 0
M  V30 4255 H 433.744 1.47198 0.593173 0
M  V30 4256 H 433.765 1.93905 3.27385 0
M  V30 4257 H 433.277 3.29422 2.05189 0
M  V30 4258 H 431.378 1.29417 3.49403 0
M  V30 4259 H 431.491 3.1761 3.58693 0
M  V30 4260 H 429.855 1.61482 1.96966 0
M  V30 4261 H 430.638 3.16191 1.33709 0
M  V30 4262 N 433.083 -1.0153 1.20538 0
M  V30 4263 C 434.015 -2.10224 0.913155 0
M  V30 4264 C 435.028 -1.62495 -0.0995998 0
M  V30 4265 O 436.217 -1.78014 0.131582 0
M  V30 4266 C 433.317 -3.37111 0.347717 0
M  V30 4267 C 432.49 -4.13971 1.41233 0
M  V30 4268 C 431.549 -5.19158 0.857976 0
M  V30 4269 O 430.575 -5.48 1.53897 0
M  V30 4270 N 431.777 -5.7955 -0.331966 0
M  V30 4271 H 434.542 -2.35879 1.84881 0
M  V30 4272 H 432.103 -1.17931 1.10923 0
M  V30 4273 H 434.095 -4.04683 -0.0373026 0
M  V30 4274 H 432.665 -3.08696 -0.492527 0
M  V30 4275 H 431.885 -3.41351 1.97163 0
M  V30 4276 H 433.173 -4.62103 2.12928 0
M  V30 4277 H 432.571 -5.58455 -0.902478 0
M  V30 4278 H 431.128 -6.48464 -0.65861 0
M  V30 4279 N 434.561 -1.01147 -1.20859 0
M  V30 4280 C 435.524 -0.582224 -2.21682 0
M  V30 4281 C 436.524 0.344887 -1.57058 0
M  V30 4282 O 437.714 0.134281 -1.73682 0
M  V30 4283 C 434.846 0.150496 -3.40568 0
M  V30 4284 H 436.039 -1.47408 -2.61172 0
M  V30 4285 H 433.592 -0.800695 -1.34233 0
M  V30 4286 H 434.327 1.0575 -3.06574 0
M  V30 4287 H 434.112 -0.515444 -3.88697 0
M  V30 4288 H 435.602 0.438344 -4.15293 0
M  V30 4289 N 436.039 1.36541 -0.78704 0
M  V30 4290 C 436.972 2.27831 -0.129765 0
M  V30 4291 C 437.95 1.47105 0.692732 0
M  V30 4292 O 439.134 1.7641 0.664222 0
M  V30 4293 C 436.261 3.28577 0.821883 0
M  V30 4294 C 435.307 4.26422 0.0814771 0
M  V30 4295 S 436.14 5.20919 -1.24112 0
M  V30 4296 C 437.296 6.25212 -0.293409 0
M  V30 4297 H 437.529 2.83229 -0.903811 0
M  V30 4298 H 435.062 1.43046 -0.581144 0
M  V30 4299 H 437.02 3.87123 1.3655 0
M  V30 4300 H 435.681 2.72096 1.56916 0
M  V30 4301 H 434.874 4.97554 0.803485 0
M  V30 4302 H 434.476 3.71944 -0.391589 0
M  V30 4303 H 436.768 6.75435 0.528622 0
M  V30 4304 H 437.711 7.01378 -0.973344 0
M  V30 4305 H 438.119 5.64407 0.102196 0
M  V30 4306 N 437.518 0.538854 1.48102 0
M  V30 4307 C 438.765 0.0080018 2.02498 0
M  V30 4308 C 439.093 -1.33437 1.41509 0
M  V30 4309 O 438.348 -1.87709 0.553507 0
M  V30 4310 C 438.647 -0.153808 3.57069 0
M  V30 4311 C 438.313 1.11533 4.36888 0
M  V30 4312 C 436.975 1.46314 4.58417 0
M  V30 4313 C 439.327 1.95718 4.83057 0
M  V30 4314 C 436.655 2.6516 5.23361 0
M  V30 4315 C 439.007 3.13751 5.49312 0
M  V30 4316 C 437.671 3.48866 5.69077 0
M  V30 4317 H 436.941 0.00292807 0.740994 0
M  V30 4318 H 439.588 0.706668 1.77984 0
M  V30 4319 H 437.893 -0.935309 3.80472 0
M  V30 4320 H 439.59 -0.579607 3.96789 0
M  V30 4321 H 436.18 0.834484 4.20398 0
M  V30 4322 H 440.364 1.70158 4.66219 0
M  V30 4323 H 435.62 2.92558 5.36861 0
M  V30 4324 H 439.794 3.79282 5.84053 0
M  V30 4325 H 437.421 4.41054 6.19173 0
M  V30 4326 N 438.996 -1.55193 0.274407 0
M  V30 4327 C 440.273 -1.91584 -0.394331 0
M  V30 4328 C 440.653 -1.19858 -1.73774 0
M  V30 4329 O 440.001 -0.3252 -2.26174 0
M  V30 4330 C 440.211 -3.4487 -0.535311 0
M  V30 4331 C 441.559 -4.16636 -0.818534 0
M  V30 4332 O 442.583 -3.5076 -0.620146 0
M  V30 4333 O 441.442 -5.33209 -1.19792 0
M  V30 4334 H 438.536 -0.798349 -0.215794 0
M  V30 4335 H 441.082 -1.66646 0.320507 0
M  V30 4336 H 439.854 -3.89145 0.410141 0
M  V30 4337 H 439.477 -3.75759 -1.29964 0
M  V30 4338 N 440.474 -0.00167713 -1.576 0
M  V30 4339 C 441.723 0.682021 -1.89819 0
M  V30 4340 C 442.036 1.74844 -0.876871 0
M  V30 4341 O 443.242 2.48688 -1.08934 0
M  V30 4342 C 441.698 1.26425 -3.36964 0
M  V30 4343 C 441.306 0.232568 -4.47396 0
M  V30 4344 C 443.05 1.92604 -3.78291 0
M  V30 4345 C 440.957 0.824882 -5.85619 0
M  V30 4346 H 439.887 0.258499 -0.708304 0
M  V30 4347 H 442.538 -0.0624957 -1.83394 0
M  V30 4348 H 440.92 2.05949 -3.38232 0
M  V30 4349 H 442.094 -0.5382 -4.57646 0
M  V30 4350 H 440.409 -0.32888 -4.15099 0
M  V30 4351 H 443.006 2.37827 -4.78897 0
M  V30 4352 H 443.349 2.75732 -3.11894 0
M  V30 4353 H 443.882 1.19812 -3.79328 0
M  V30 4354 H 440.621 0.0323542 -6.55492 0
M  V30 4355 H 440.141 1.56477 -5.79029 0
M  V30 4356 H 441.82 1.32301 -6.33329 0
M  V30 4357 N 441.952 1.55251 0.271103 0
M  V30 4358 C 442.862 1.9136 1.35714 0
M  V30 4359 C 443.878 0.811075 1.5394 0
M  V30 4360 O 445.054 1.11031 1.6803 0
M  V30 4361 C 442.119 2.1798 2.69603 0
M  V30 4362 C 441.18 3.4153 2.60107 0
M  V30 4363 C 440.413 3.66871 3.8761 0
M  V30 4364 O 440.636 2.94689 4.8838 0
M  V30 4365 O 439.57 4.60405 3.87699 0
M  V30 4366 H 443.396 2.83815 1.08088 0
M  V30 4367 H 440.981 1.41821 0.469792 0
M  V30 4368 H 442.863 2.36518 3.48765 0
M  V30 4369 H 441.538 1.28708 2.97012 0
M  V30 4370 H 440.445 3.28325 1.79314 0
M  V30 4371 H 441.778 4.31027 2.37647 0
M  V30 4372 N 443.43 -0.535701 1.48216 0
M  V30 4373 C 444.66 -1.3148 1.59363 0
M  V30 4374 C 445.068 -1.8753 0.250844 0
M  V30 4375 O 444.411 -1.66821 -0.769174 0
M  V30 4376 C 444.473 -2.50731 2.57632 0
M  V30 4377 C 444.137 -2.15811 4.02833 0
M  V30 4378 C 445.134 -1.71822 4.90686 0
M  V30 4379 C 442.819 -2.26509 4.48329 0
M  V30 4380 C 444.813 -1.3899 6.22062 0
M  V30 4381 C 442.5 -1.93289 5.79726 0
M  V30 4382 C 443.498 -1.49599 6.66415 0
M  V30 4383 O 443.186 -1.16812 7.95368 0
M  V30 4384 H 442.918 -0.406315 0.540263 0
M  V30 4385 H 445.472 -0.653569 1.94725 0
M  V30 4386 H 443.702 -3.19817 2.1738 0
M  V30 4387 H 445.391 -3.12797 2.58675 0
M  V30 4388 H 446.157 -1.63031 4.56778 0
M  V30 4389 H 442.036 -2.59471 3.81045 0
M  V30 4390 H 445.58 -1.04816 6.89681 0
M  V30 4391 H 441.477 -2.01718 6.13172 0
M  V30 4392 H 442.245 -1.30259 8.08069 0
M  V30 4393 N 444.908 -1.36708 -0.784132 0
M  V30 4394 C 446.155 -1.31231 -1.54222 0
M  V30 4395 C 446.483 0.106864 -1.94206 0
M  V30 4396 O 445.738 1.07734 -1.63376 0
M  V30 4397 C 446.037 -2.18571 -2.82774 0
M  V30 4398 C 445.703 -3.67039 -2.61903 0
M  V30 4399 C 444.365 -4.07503 -2.55919 0
M  V30 4400 C 446.717 -4.61149 -2.4288 0
M  V30 4401 C 444.045 -5.40211 -2.28886 0
M  V30 4402 C 446.397 -5.94081 -2.17373 0
M  V30 4403 C 445.061 -6.33664 -2.09825 0
M  V30 4404 H 444.331 -0.48021 -0.56434 0
M  V30 4405 H 446.978 -1.68807 -0.904233 0
M  V30 4406 H 445.283 -1.73949 -3.51068 0
M  V30 4407 H 446.98 -2.11655 -3.40592 0
M  V30 4408 H 443.57 -3.34941 -2.67418 0
M  V30 4409 H 447.754 -4.30756 -2.46501 0
M  V30 4410 H 443.01 -5.69855 -2.21529 0
M  V30 4411 H 447.184 -6.66566 -2.01649 0
M  V30 4412 H 444.811 -7.36423 -1.88641 0
M  V30 4413 N 446.386 1.0089 -1.21074 0
M  V30 4414 C 447.802 1.2695 -0.967257 0
M  V30 4415 C 448.002 1.9846 0.348673 0
M  V30 4416 O 447.058 2.28459 1.0753 0
M  V30 4417 C 448.371 2.09697 -2.15517 0
M  V30 4418 C 449.919 2.22937 -2.197 0
M  V30 4419 C 450.394 3.09064 -3.37999 0
M  V30 4420 N 451.885 3.16653 -3.38061 0
M  V30 4421 C 452.62 3.8354 -4.26245 0
M  V30 4422 N 452.116 4.52488 -5.2462 0
M  V30 4423 N 453.909 3.80141 -4.14064 0
M  V30 4424 H 446.06 0.529005 -2.05707 0
M  V30 4425 H 448.323 0.296148 -0.900556 0
M  V30 4426 H 448.029 1.64497 -3.10859 0
M  V30 4427 H 447.903 3.10444 -2.14253 0
M  V30 4428 H 450.29 2.67357 -1.24916 0
M  V30 4429 H 450.371 1.21673 -2.2501 0
M  V30 4430 H 450.015 2.65347 -4.33074 0
M  V30 4431 H 449.945 4.10433 -3.29928 0
M  V30 4432 H 452.436 2.67566 -2.66865 0
M  V30 4433 H 452.749 5.01219 -5.88217 0
M  V30 4434 H 451.094 4.51288 -5.28549 0
M  V30 4435 H 454.285 3.25427 -3.36474 0
M  V30 4436 H 454.458 4.31992 -4.82998 0
M  V30 4437 N 447.864 1.01787 1.20321 0
M  V30 4438 C 448.811 0.589197 2.23153 0
M  V30 4439 C 449.781 -0.391367 1.61423 0
M  V30 4440 O 450.966 -0.290518 1.88575 0
M  V30 4441 C 448.106 -0.0650747 3.45039 0
M  V30 4442 C 447.219 0.960207 4.21194 0
M  V30 4443 C 446.354 0.276854 5.30478 0
M  V30 4444 C 445.393 1.2888 5.98378 0
M  V30 4445 N 444.53 0.632031 6.99249 0
M  V30 4446 H 449.37 1.47071 2.59179 0
M  V30 4447 H 446.907 0.736192 1.27352 0
M  V30 4448 H 448.865 -0.461552 4.14639 0
M  V30 4449 H 447.495 -0.910233 3.09701 0
M  V30 4450 H 446.547 1.47484 3.50646 0
M  V30 4451 H 447.859 1.72977 4.67847 0
M  V30 4452 H 447.013 -0.175056 6.06447 0
M  V30 4453 H 445.752 -0.525004 4.84866 0
M  V30 4454 H 444.757 1.75109 5.21169 0
M  V30 4455 H 445.982 2.09196 6.46076 0
M  V30 4456 H 443.928 -0.149935 6.55829 0
M  V30 4457 H 443.845 1.33964 7.44036 0
M  V30 4458 H 445.113 0.203755 7.79234 0
M  V30 4459 N 449.342 -1.36122 0.79427 0
M  V30 4460 C 450.619 -1.93398 0.292685 0
M  V30 4461 C 450.999 -1.72567 -1.21589 0
M  V30 4462 O 450.347 -1.08745 -2.00965 0
M  V30 4463 C 450.557 -3.42099 0.690614 0
M  V30 4464 C 451.905 -4.19231 0.673105 0
M  V30 4465 O 452.929 -3.50559 0.631389 0
M  V30 4466 O 451.788 -5.41732 0.720362 0
M  V30 4467 H 448.882 -0.823712 0.0736693 0
M  V30 4468 H 451.428 -1.45273 0.87714 0
M  V30 4469 H 450.2 -3.50938 1.73085 0
M  V30 4470 H 449.823 -3.97519 0.0803036 0
M  V30 4471 N 450.82 -0.546701 -1.47814 0
M  V30 4472 C 452.231 -0.110564 -1.86372 0
M  V30 4473 C 452.582 1.31678 -1.45449 0
M  V30 4474 O 451.707 1.98889 -0.852758 0
M  V30 4475 C 452.302 -0.193873 -3.38245 0
M  V30 4476 C 450.861 0.187164 -3.75934 0
M  V30 4477 C 450.008 -0.546166 -2.71868 0
M  V30 4478 H 452.959 -0.757022 -1.39481 0
M  V30 4479 H 452.98 0.590218 -3.75895 0
M  V30 4480 H 452.492 -1.23282 -3.67999 0
M  V30 4481 H 450.593 1.22762 -3.51796 0
M  V30 4482 H 450.706 -0.164083 -4.78819 0
M  V30 4483 H 449.07 0.00953904 -2.54698 0
M  V30 4484 H 449.853 -1.58606 -3.04465 0
M  V30 4485 N 452.299 1.55045 -0.282633 0
M  V30 4486 C 453.715 1.59441 0.0712997 0
M  V30 4487 C 453.915 1.2998 1.53972 0
M  V30 4488 O 452.971 1.06431 2.28973 0
M  V30 4489 C 454.284 2.99097 -0.310104 0
M  V30 4490 C 455.832 3.1194 -0.257343 0
M  V30 4491 C 456.307 4.53875 -0.613297 0
M  V30 4492 N 457.798 4.5974 -0.565134 0
M  V30 4493 C 458.533 5.67603 -0.81326 0
M  V30 4494 N 458.029 6.83582 -1.1264 0
M  V30 4495 N 459.822 5.57187 -0.741553 0
M  V30 4496 H 451.973 1.72458 -1.23984 0
M  V30 4497 H 454.236 0.804549 -0.501403 0
M  V30 4498 H 453.942 3.25516 -1.33163 0
M  V30 4499 H 453.816 3.75616 0.345366 0
M  V30 4500 H 456.203 2.85281 0.754905 0
M  V30 4501 H 456.284 2.37618 -0.947178 0
M  V30 4502 H 455.928 4.81261 -1.62327 0
M  V30 4503 H 455.858 5.26508 0.09841 0
M  V30 4504 H 458.349 3.76427 -0.333294 0
M  V30 4505 H 458.662 7.6175 -1.30219 0
M  V30 4506 H 457.007 6.85179 -1.16425 0
M  V30 4507 H 460.198 4.65457 -0.496705 0
M  V30 4508 H 460.371 6.41171 -0.938306 0
M  V30 4509 N 453.777 0.010035 1.57597 0
M  V30 4510 C 455.188 -0.531426 1.78977 0
M  V30 4511 C 455.539 -1.73375 0.918454 0
M  V30 4512 O 454.664 -2.16047 0.123635 0
M  V30 4513 C 455.259 -0.97086 3.24592 0
M  V30 4514 C 453.818 -1.45756 3.47033 0
M  V30 4515 C 452.965 -0.413384 2.74201 0
M  V30 4516 H 455.916 0.236166 1.56933 0
M  V30 4517 H 455.937 -1.83633 3.33255 0
M  V30 4518 H 455.449 -0.0955893 3.87982 0
M  V30 4519 H 453.55 -2.35339 2.88871 0
M  V30 4520 H 453.663 -1.4781 4.55729 0
M  V30 4521 H 452.027 -0.877266 2.39115 0
M  V30 4522 H 452.81 0.453092 3.40297 0
M  V30 4523 N 455.255 -1.55392 -0.262866 0
M  V30 4524 C 456.502 -1.76476 -0.993109 0
M  V30 4525 C 456.83 -0.571479 -1.85915 0
M  V30 4526 O 456.085 0.445733 -1.90556 0
M  V30 4527 C 456.384 -3.02889 -1.89718 0
M  V30 4528 C 456.05 -4.34974 -1.18781 0
M  V30 4529 C 454.712 -4.7087 -0.991699 0
M  V30 4530 C 457.064 -5.16695 -0.683798 0
M  V30 4531 C 454.392 -5.86036 -0.279024 0
M  V30 4532 C 456.744 -6.32598 0.0153327 0
M  V30 4533 C 455.408 -6.67127 0.223062 0
M  V30 4534 H 454.678 -0.64577 -0.363404 0
M  V30 4535 H 457.325 -1.89664 -0.264525 0
M  V30 4536 H 455.63 -2.84644 -2.6923 0
M  V30 4537 H 457.327 -3.16399 -2.46359 0
M  V30 4538 H 453.917 -4.06765 -1.35058 0
M  V30 4539 H 458.101 -4.8943 -0.8229 0
M  V30 4540 H 453.357 -6.11306 -0.107456 0
M  V30 4541 H 457.531 -6.95171 0.413584 0
M  V30 4542 H 455.158 -7.56216 0.777265 0
M  V30 4543 N 456.733 0.527833 -1.48498 0
M  V30 4544 C 457.98 1.28354 -1.56625 0
M  V30 4545 C 458.308 1.93 -0.241096 0
M  V30 4546 O 457.563 1.79967 0.768798 0
M  V30 4547 C 457.862 2.39275 -2.65485 0
M  V30 4548 C 457.528 1.92268 -4.07853 0
M  V30 4549 C 456.19 1.79166 -4.46602 0
M  V30 4550 C 458.542 1.56771 -4.97064 0
M  V30 4551 C 455.87 1.28905 -5.72364 0
M  V30 4552 C 458.222 1.07972 -6.23318 0
M  V30 4553 C 456.886 0.934887 -6.60921 0
M  V30 4554 H 456.156 0.469682 -0.573131 0
M  V30 4555 H 458.803 0.588781 -1.82224 0
M  V30 4556 H 457.108 3.1443 -2.33754 0
M  V30 4557 H 458.805 2.974 -2.68988 0
M  V30 4558 H 455.395 2.03417 -3.77252 0
M  V30 4559 H 459.579 1.65753 -4.67803 0
M  V30 4560 H 454.835 1.16381 -6.00221 0
M  V30 4561 H 459.009 0.795775 -6.91838 0
M  V30 4562 H 456.636 0.543231 -7.58257 0
M  V30 4563 N 458.211 1.37122 0.776871 0
M  V30 4564 C 459.158 1.3247 1.88998 0
M  V30 4565 C 460.128 0.191143 1.64997 0
M  V30 4566 O 461.313 0.379683 1.86984 0
M  V30 4567 C 458.453 1.13241 3.25992 0
M  V30 4568 C 457.566 2.35782 3.61982 0
M  V30 4569 C 456.701 2.09465 4.88158 0
M  V30 4570 C 455.74 3.279 5.16864 0
M  V30 4571 N 454.877 3.01167 6.34226 0
M  V30 4572 H 459.717 2.27642 1.9231 0
M  V30 4573 H 457.254 1.13125 0.94027 0
M  V30 4574 H 459.212 1.00115 4.0501 0
M  V30 4575 H 457.842 0.217186 3.22069 0
M  V30 4576 H 456.894 2.59666 2.77989 0
M  V30 4577 H 458.206 3.24125 3.79137 0
M  V30 4578 H 457.36 1.93341 5.75069 0
M  V30 4579 H 456.099 1.18452 4.73097 0
M  V30 4580 H 455.104 3.44569 4.2843 0
M  V30 4581 H 456.329 4.19757 5.33836 0
M  V30 4582 H 454.275 2.12779 6.20533 0
M  V30 4583 H 454.192 3.83052 6.51772 0
M  V30 4584 H 455.46 2.88649 7.24087 0
M  V30 4585 N 459.689 -1.00246 1.21608 0
M  V30 4586 C 460.936 -1.74061 1.03485 0
M  V30 4587 C 461.264 -1.89658 -0.431308 0
M  V30 4588 O 460.519 -1.42976 -1.33627 0
M  V30 4589 C 460.818 -3.15448 1.68009 0
M  V30 4590 C 460.484 -3.19792 3.17874 0
M  V30 4591 C 459.146 -3.20685 3.58768 0
M  V30 4592 C 461.498 -3.16835 4.13842 0
M  V30 4593 C 458.826 -3.16309 4.94131 0
M  V30 4594 C 461.178 -3.14001 5.49169 0
M  V30 4595 C 459.842 -3.13204 5.89457 0
M  V30 4596 H 459.112 -0.636934 0.378677 0
M  V30 4597 H 461.759 -1.17473 1.51236 0
M  V30 4598 H 460.064 -3.75284 1.12557 0
M  V30 4599 H 461.761 -3.71285 1.51487 0
M  V30 4600 H 458.351 -3.19842 2.85305 0
M  V30 4601 H 462.535 -3.15303 3.83272 0
M  V30 4602 H 457.791 -3.14032 5.24589 0
M  V30 4603 H 461.965 -3.10667 6.23265 0
M  V30 4604 H 459.592 -3.09568 6.94314 0
M  V30 4605 N 461.167 -1.02423 -1.1978 0
M  V30 4606 C 462.13 -0.605703 -2.21052 0
M  V30 4607 C 463.13 0.328209 -1.57415 0
M  V30 4608 O 464.32 0.115853 -1.73814 0
M  V30 4609 C 461.452 0.114366 -3.40708 0
M  V30 4610 H 462.645 -1.5017 -2.59594 0
M  V30 4611 H 460.198 -0.814888 -1.33376 0
M  V30 4612 H 460.933 1.02492 -3.07678 0
M  V30 4613 H 460.718 -0.556641 -3.88129 0
M  V30 4614 H 462.208 0.394272 -4.15735 0
M  V30 4615 N 462.645 1.35699 -0.801477 0
M  V30 4616 C 463.592 2.29876 -0.206294 0
M  V30 4617 C 464.562 1.52565 0.656752 0
M  V30 4618 O 465.747 1.81024 0.602906 0
M  V30 4619 C 462.887 3.39052 0.643272 0
M  V30 4620 C 462 4.31335 -0.239644 0
M  V30 4621 C 461.135 5.27599 0.61744 0
M  V30 4622 C 460.174 6.11521 -0.26619 0
M  V30 4623 N 459.311 6.99938 0.550571 0
M  V30 4624 H 464.151 2.80187 -1.01484 0
M  V30 4625 H 461.688 1.37902 -0.511997 0
M  V30 4626 H 463.646 4.0101 1.15094 0
M  V30 4627 H 462.276 2.9003 1.41713 0
M  V30 4628 H 461.328 3.70426 -0.865381 0
M  V30 4629 H 462.64 4.90243 -0.919985 0
M  V30 4630 H 461.794 5.94906 1.19045 0
M  V30 4631 H 460.533 4.69176 1.33137 0
M  V30 4632 H 459.538 5.43166 -0.851507 0
M  V30 4633 H 460.763 6.72022 -0.9779 0
M  V30 4634 H 458.709 6.44008 1.24856 0
M  V30 4635 H 458.626 7.55966 -0.071832 0
M  V30 4636 H 459.894 7.71599 1.10702 0
M  V30 4637 N 464.123 0.554532 1.47522 0
M  V30 4638 C 465.033 -0.197865 2.33764 0
M  V30 4639 C 466.049 -0.914576 1.48025 0
M  V30 4640 O 467.225 -0.884067 1.80959 0
M  V30 4641 C 464.29 -1.21628 3.24665 0
M  V30 4642 C 463.351 -0.507283 4.26292 0
M  V30 4643 C 462.584 -1.47718 5.1285 0
M  V30 4644 O 462.807 -2.7118 5.01814 0
M  V30 4645 O 461.741 -1.00313 5.93482 0
M  V30 4646 H 465.567 0.50949 2.99396 0
M  V30 4647 H 463.152 0.315176 1.46038 0
M  V30 4648 H 465.034 -1.80421 3.80823 0
M  V30 4649 H 463.709 -1.9056 2.61665 0
M  V30 4650 H 462.616 0.121778 3.73902 0
M  V30 4651 H 463.949 0.140544 4.91999 0
M  V30 4652 N 465.601 -1.54893 0.290851 0
M  V30 4653 C 466.85 -1.99111 -0.322113 0
M  V30 4654 C 467.163 -1.18283 -1.55784 0
M  V30 4655 O 468.369 -1.5272 -2.24475 0
M  V30 4656 C 466.825 -3.54442 -0.624438 0
M  V30 4657 C 466.433 -4.44066 0.592373 0
M  V30 4658 C 468.177 -4.07211 -1.19916 0
M  V30 4659 C 466.084 -5.90812 0.263762 0
M  V30 4660 H 465.014 -0.743712 -0.124133 0
M  V30 4661 H 467.665 -1.79132 0.39797 0
M  V30 4662 H 466.047 -3.70281 -1.40384 0
M  V30 4663 H 467.221 -4.39999 1.36886 0
M  V30 4664 H 465.536 -4.02015 1.08502 0
M  V30 4665 H 468.133 -5.14407 -1.45909 0
M  V30 4666 H 468.476 -3.57196 -2.13815 0
M  V30 4667 H 469.009 -3.94873 -0.481687 0
M  V30 4668 H 465.748 -6.44955 1.17105 0
M  V30 4669 H 465.268 -5.97911 -0.475655 0
M  V30 4670 H 466.947 -6.46852 -0.138354 0
M  V30 4671 N 467.08 -0.0183926 -1.57589 0
M  V30 4672 C 468.31 0.67207 -1.95363 0
M  V30 4673 C 468.718 1.66807 -0.892872 0
M  V30 4674 O 468.061 1.83204 0.134958 0
M  V30 4675 C 468.123 1.44397 -3.29226 0
M  V30 4676 C 467.787 0.607511 -4.52944 0
M  V30 4677 C 468.784 -0.112657 -5.19778 0
M  V30 4678 C 466.469 0.548068 -4.99301 0
M  V30 4679 C 468.463 -0.881057 -6.31281 0
M  V30 4680 C 466.15 -0.224044 -6.10689 0
M  V30 4681 C 467.148 -0.937323 -6.76538 0
M  V30 4682 O 466.836 -1.6968 -7.85789 0
M  V30 4683 H 466.568 0.190925 -0.648478 0
M  V30 4684 H 469.122 -0.0711994 -2.05277 0
M  V30 4685 H 467.352 2.23214 -3.15773 0
M  V30 4686 H 469.041 2.02152 -3.51979 0
M  V30 4687 H 469.807 -0.0759998 -4.8494 0
M  V30 4688 H 465.686 1.09281 -4.4786 0
M  V30 4689 H 469.23 -1.43832 -6.82611 0
M  V30 4690 H 465.127 -0.262457 -6.44966 0
M  V30 4691 H 465.895 -1.61544 -8.024 0
M  V30 4692 N 468.558 1.5553 0.254621 0
M  V30 4693 C 469.969 1.67518 0.824286 0
M  V30 4694 C 470.32 0.614429 1.86331 0
M  V30 4695 O 469.445 -0.240736 2.15057 0
M  V30 4696 C 470.04 3.03692 1.50189 0
M  V30 4697 C 468.599 3.17646 2.01935 0
M  V30 4698 C 467.746 2.63373 0.867746 0
M  V30 4699 H 470.697 1.58671 0.0305843 0
M  V30 4700 H 470.718 2.97706 2.36962 0
M  V30 4701 H 470.23 3.80874 0.745431 0
M  V30 4702 H 468.331 2.45273 2.80485 0
M  V30 4703 H 468.444 4.24455 2.22204 0
M  V30 4704 H 466.808 2.20999 1.26616 0
M  V30 4705 H 467.591 3.43074 0.124498 0
M  V30 4706 N 470.036 -0.519951 1.48776 0
M  V30 4707 C 471.284 -1.2727 1.56993 0
M  V30 4708 C 471.605 -1.9339 0.25004 0
M  V30 4709 O 470.875 -1.81822 -0.729216 0
M  V30 4710 H 469.455 -0.472732 0.578389 0
M  V30 4711 H 472.117 -0.604234 1.85297 0
M  V30 4712 H 471.213 -2.04669 2.3562 0
M  V30 4713 N 471.514 -1.37532 -0.769588 0
M  V30 4714 C 472.446 -1.29347 -1.89214 0
M  V30 4715 C 473.459 -0.208842 -1.61455 0
M  V30 4716 O 474.648 -0.465158 -1.72333 0
M  V30 4717 C 471.748 -0.977649 -3.24492 0
M  V30 4718 C 470.921 -2.16817 -3.7988 0
M  V30 4719 C 469.98 -1.82229 -4.93639 0
M  V30 4720 O 469.006 -2.54548 -5.09111 0
M  V30 4721 N 470.208 -0.767696 -5.75401 0
M  V30 4722 H 472.973 -2.26073 -1.96751 0
M  V30 4723 H 470.534 -1.31185 -0.948795 0
M  V30 4724 H 472.526 -0.727065 -3.98115 0
M  V30 4725 H 471.096 -0.0988777 -3.12444 0
M  V30 4726 H 470.316 -2.58038 -2.9801 0
M  V30 4727 H 471.604 -2.96308 -4.13617 0
M  V30 4728 H 471.002 -0.167626 -5.65452 0
M  V30 4729 H 469.559 -0.576973 -6.49241 0
M  V30 4730 N 472.992 0.995999 -1.22138 0
M  V30 4731 C 474.239 1.7351 -1.04406 0
M  V30 4732 C 474.567 1.89884 0.421244 0
M  V30 4733 O 473.822 1.43683 1.32867 0
M  V30 4734 C 474.121 3.14553 -1.6968 0
M  V30 4735 C 473.787 3.18102 -3.19565 0
M  V30 4736 C 472.449 3.18778 -3.60464 0
M  V30 4737 C 474.801 3.14636 -4.15516 0
M  V30 4738 C 472.129 3.13684 -4.95801 0
M  V30 4739 C 474.481 3.11084 -5.50826 0
M  V30 4740 C 473.145 3.10074 -5.91109 0
M  V30 4741 H 472.415 0.634916 -0.38205 0
M  V30 4742 H 475.062 1.1667 -1.51857 0
M  V30 4743 H 473.367 3.74682 -1.14546 0
M  V30 4744 H 475.064 3.70477 -1.53454 0
M  V30 4745 H 471.654 3.18324 -2.86998 0
M  V30 4746 H 475.838 3.13266 -3.84939 0
M  V30 4747 H 471.094 3.11245 -5.26247 0
M  V30 4748 H 475.268 3.07357 -6.24904 0
M  V30 4749 H 472.895 3.05882 -6.95946 0
M  V30 4750 N 474.47 1.03057 1.19235 0
M  V30 4751 C 475.402 0.570932 2.21975 0
M  V30 4752 C 476.415 -0.354088 1.58903 0
M  V30 4753 O 477.604 -0.150211 1.77867 0
M  V30 4754 C 474.704 -0.187152 3.38383 0
M  V30 4755 C 473.877 0.743231 4.31039 0
M  V30 4756 C 472.936 0.0302493 5.26191 0
M  V30 4757 O 471.962 0.657371 5.65391 0
M  V30 4758 N 473.164 -1.23991 5.67104 0
M  V30 4759 H 475.929 1.45456 2.62036 0
M  V30 4760 H 473.49 0.909807 1.33918 0
M  V30 4761 H 475.482 -0.673715 3.99053 0
M  V30 4762 H 474.052 -0.972205 2.97098 0
M  V30 4763 H 473.272 1.40985 3.68126 0
M  V30 4764 H 474.56 1.3755 4.89854 0
M  V30 4765 H 473.958 -1.77011 5.37293 0
M  V30 4766 H 472.515 -1.67093 6.30018 0
M  V30 4767 N 475.948 -1.35272 0.808662 0
M  V30 4768 C 477.359 -1.81179 0.450688 0
M  V30 4769 C 477.71 -1.67143 -1.02751 0
M  V30 4770 O 476.835 -1.20325 -1.79864 0
M  V30 4771 C 477.43 -3.28943 0.811275 0
M  V30 4772 C 475.989 -3.72985 0.505871 0
M  V30 4773 C 475.136 -2.57229 1.03578 0
M  V30 4774 H 478.087 -1.2322 1.00012 0
M  V30 4775 H 478.108 -3.80342 0.109588 0
M  V30 4776 H 477.62 -3.39127 1.88718 0
M  V30 4777 H 475.721 -3.68349 -0.561209 0
M  V30 4778 H 475.834 -4.67677 1.03995 0
M  V30 4779 H 474.198 -2.50548 0.458005 0
M  V30 4780 H 474.981 -2.7019 2.11784 0
M  V30 4781 N 477.426 -0.562348 -1.47226 0
M  V30 4782 C 478.651 -0.0432632 -2.07355 0
M  V30 4783 C 479.076 1.24332 -1.41149 0
M  V30 4784 O 478.434 1.74603 -0.488226 0
M  V30 4785 C 478.482 0.130288 -3.60365 0
M  V30 4786 O 477.586 1.19166 -3.94808 0
M  V30 4787 H 476.927 -0.0536334 -0.66183 0
M  V30 4788 H 479.457 -0.779495 -1.89169 0
M  V30 4789 H 479.467 0.342881 -4.06557 0
M  V30 4790 H 478.142 -0.809389 -4.07948 0
M  V30 4791 H 476.719 0.959153 -3.60354 0
M  V30 4792 N 478.904 1.54736 -0.299062 0
M  V30 4793 C 479.834 2.26409 0.571085 0
M  V30 4794 C 480.815 1.2629 1.13951 0
M  V30 4795 O 482 1.55059 1.16921 0
M  V30 4796 C 479.13 3.00338 1.74396 0
M  V30 4797 C 478.084 4.07588 1.30599 0
M  V30 4798 C 477.41 4.69222 2.56387 0
M  V30 4799 C 478.71 5.20455 0.438645 0
M  V30 4800 H 480.404 2.99388 -0.0266991 0
M  V30 4801 H 477.95 1.43993 -0.0142812 0
M  V30 4802 H 479.903 3.49198 2.35878 0
M  V30 4803 H 478.627 2.24934 2.36796 0
M  V30 4804 H 477.286 3.59575 0.71424 0
M  V30 4805 H 476.934 3.9046 3.17097 0
M  V30 4806 H 476.634 5.41653 2.27784 0
M  V30 4807 H 478.158 5.20844 3.18675 0
M  V30 4808 H 479.572 5.65221 0.959085 0
M  V30 4809 H 477.969 5.99594 0.246466 0
M  V30 4810 H 479.039 4.8192 -0.536738 0
M  V30 4811 N 480.382 0.0267497 1.57577 0
M  V30 4812 C 481.622 -0.65659 1.93567 0
M  V30 4813 C 481.986 -1.69429 0.903213 0
M  V30 4814 O 483.187 -2.42994 1.14923 0
M  V30 4815 C 481.458 -1.25912 3.34486 0
M  V30 4816 S 483.017 -1.96386 3.924 0
M  V30 4817 H 479.835 -0.216237 0.67732 0
M  V30 4818 H 482.437 0.0898475 1.95293 0
M  V30 4819 H 481.141 -0.491405 4.07447 0
M  V30 4820 H 480.672 -2.04291 3.36198 0
M  V30 4821 H 482.687 -3.24202 3.75643 0
M  V30 4822 N 481.861 -1.55662 -0.24637 0
M  V30 4823 C 482.811 -1.86753 -1.30795 0
M  V30 4824 C 483.795 -0.728445 -1.43466 0
M  V30 4825 O 484.987 -0.99038 -1.46699 0
M  V30 4826 C 482.116 -2.16618 -2.66329 0
M  V30 4827 C 481.202 -3.36855 -2.57661 0
M  V30 4828 N 481.593 -4.56111 -2.18624 0
M  V30 4829 C 479.891 -3.39976 -2.88673 0
M  V30 4830 C 480.592 -5.38247 -2.20601 0
M  V30 4831 N 479.568 -4.77322 -2.60124 0
M  V30 4832 H 483.37 -2.76486 -0.996642 0
M  V30 4833 H 480.884 -1.55896 -0.454994 0
M  V30 4834 H 482.881 -2.37057 -3.42942 0
M  V30 4835 H 481.541 -1.28185 -2.98327 0
M  V30 4836 H 482.552 -4.81726 -1.9016 0
M  V30 4837 H 479.229 -2.61815 -3.25206 0
M  V30 4838 H 480.619 -6.43657 -1.92756 0
M  V30 4839 N 483.339 0.512053 -1.4905 0
M  V30 4840 C 484.286 1.6148 -1.64902 0
M  V30 4841 C 485.256 1.58687 -0.490673 0
M  V30 4842 O 486.441 1.76842 -0.71636 0
M  V30 4843 C 483.581 2.99676 -1.71139 0
M  V30 4844 C 482.694 3.12568 -2.98203 0
M  V30 4845 C 481.829 4.4143 -2.95487 0
M  V30 4846 C 480.868 4.47916 -4.17179 0
M  V30 4847 N 480.005 5.68191 -4.12437 0
M  V30 4848 H 484.845 1.47271 -2.59066 0
M  V30 4849 H 482.382 0.716713 -1.28459 0
M  V30 4850 H 484.34 3.79761 -1.72736 0
M  V30 4851 H 482.97 3.12614 -0.804508 0
M  V30 4852 H 482.022 2.25618 -3.06269 0
M  V30 4853 H 483.334 3.1322 -3.88194 0
M  V30 4854 H 482.488 5.29825 -2.95585 0
M  V30 4855 H 481.227 4.43326 -2.03256 0
M  V30 4856 H 480.232 3.57925 -4.17337 0
M  V30 4857 H 481.457 4.47744 -5.1059 0
M  V30 4858 H 479.403 5.7095 -3.23036 0
M  V30 4859 H 479.32 5.70413 -4.96151 0
M  V30 4860 H 480.588 6.58823 -4.16621 0
M  V30 4861 N 484.817 1.37938 0.762283 0
M  V30 4862 C 486.064 1.33668 1.52115 0
M  V30 4863 C 486.392 -0.0759538 1.94352 0
M  V30 4864 O 485.647 -1.05121 1.6507 0
M  V30 4865 C 485.946 2.23042 2.79261 0
M  V30 4866 C 485.612 3.71159 2.56031 0
M  V30 4867 C 484.274 4.11523 2.49404 0
M  V30 4868 C 486.626 4.64955 2.35513 0
M  V30 4869 C 483.954 5.43784 2.20263 0
M  V30 4870 C 486.306 5.97464 2.07894 0
M  V30 4871 C 484.97 6.36922 1.99718 0
M  V30 4872 H 484.24 0.489127 0.556629 0
M  V30 4873 H 486.887 1.70224 0.877262 0
M  V30 4874 H 485.192 1.79512 3.48256 0
M  V30 4875 H 486.889 2.17047 3.37182 0
M  V30 4876 H 483.479 3.39153 2.62056 0
M  V30 4877 H 487.663 4.34623 2.39617 0
M  V30 4878 H 482.919 5.73307 2.12435 0
M  V30 4879 H 487.093 6.6969 1.91019 0
M  V30 4880 H 484.72 7.39331 1.76902 0
M  V30 4881 N 486.295 -0.989507 1.22664 0
M  V30 4882 C 487.544 -1.72375 1.04737 0
M  V30 4883 C 487.857 -1.91096 -0.417316 0
M  V30 4884 O 489.063 -2.6188 -0.716334 0
M  V30 4885 C 487.519 -3.10161 1.82561 0
M  V30 4886 C 487.127 -2.99358 3.333 0
M  V30 4887 C 488.871 -3.87607 1.73093 0
M  V30 4888 C 486.778 -4.32319 4.03552 0
M  V30 4889 H 485.708 -0.646326 0.388302 0
M  V30 4890 H 488.359 -1.10437 1.46546 0
M  V30 4891 H 486.741 -3.728 1.33552 0
M  V30 4892 H 487.915 -2.45863 3.89728 0
M  V30 4893 H 486.23 -2.35392 3.43481 0
M  V30 4894 H 488.827 -4.86025 2.22899 0
M  V30 4895 H 489.17 -4.10509 0.691976 0
M  V30 4896 H 489.703 -3.31652 2.19663 0
M  V30 4897 H 486.442 -4.14616 5.07714 0
M  V30 4898 H 485.962 -4.85714 3.51911 0
M  V30 4899 H 487.641 -5.01051 4.09337 0
M  V30 4900 N 487.773 -1.03688 -1.18687 0
M  V30 4901 C 488.736 -0.629115 -2.20397 0
M  V30 4902 C 489.736 0.311495 -1.57754 0
M  V30 4903 O 490.926 0.0974107 -1.73927 0
M  V30 4904 C 488.058 0.0782231 -3.4081 0
M  V30 4905 H 489.251 -1.52915 -2.57987 0
M  V30 4906 H 486.804 -0.828988 -1.32505 0
M  V30 4907 H 487.539 0.992233 -3.08748 0
M  V30 4908 H 487.324 -0.597776 -3.87517 0
M  V30 4909 H 488.814 0.350156 -4.16129 0
M  V30 4910 N 489.251 1.34841 -0.815825 0
M  V30 4911 C 490.181 2.32187 -0.247298 0
M  V30 4912 C 491.162 1.5791 0.632344 0
M  V30 4913 O 492.347 1.8593 0.560698 0
M  V30 4914 C 489.477 3.42122 0.597466 0
M  V30 4915 C 488.431 4.27602 -0.184446 0
M  V30 4916 C 487.757 5.28942 0.782609 0
M  V30 4917 C 489.057 5.03502 -1.38865 0
M  V30 4918 H 490.751 2.79985 -1.06061 0
M  V30 4919 H 488.297 1.34611 -0.511461 0
M  V30 4920 H 490.25 4.09232 1.00533 0
M  V30 4921 H 488.974 2.92956 1.44376 0
M  V30 4922 H 487.633 3.62085 -0.573592 0
M  V30 4923 H 487.281 4.7604 1.62466 0
M  V30 4924 H 486.981 5.87008 0.263695 0
M  V30 4925 H 488.505 5.98922 1.18848 0
M  V30 4926 H 489.919 5.63506 -1.05518 0
M  V30 4927 H 488.316 5.71108 -1.8427 0
M  V30 4928 H 489.386 4.33608 -2.17054 0
M  V30 4929 N 490.729 0.570148 1.46925 0
M  V30 4930 C 491.954 0.0542592 2.07329 0
M  V30 4931 C 492.379 -1.23582 1.41806 0
M  V30 4932 O 491.737 -1.74341 0.497479 0
M  V30 4933 C 491.785 -0.111175 3.60429 0
M  V30 4934 O 490.889 -1.17071 3.95434 0
M  V30 4935 H 490.23 0.0571425 0.661537 0
M  V30 4936 H 492.76 0.789516 1.88753 0
M  V30 4937 H 492.77 -0.321315 4.06733 0
M  V30 4938 H 491.445 0.831012 4.07513 0
M  V30 4939 H 490.022 -0.940029 3.60857 0
M  V30 4940 N 492.207 -1.54576 0.307264 0
M  V30 4941 C 493.484 -1.92377 -0.353605 0
M  V30 4942 C 493.864 -1.23517 -1.71192 0
M  V30 4943 O 493.212 -0.373101 -2.25433 0
M  V30 4944 C 493.422 -3.45928 -0.462039 0
M  V30 4945 C 494.77 -4.18278 -0.729975 0
M  V30 4946 O 495.794 -3.51997 -0.545605 0
M  V30 4947 O 494.653 -5.3563 -1.08454 0
M  V30 4948 H 491.747 -0.802747 -0.198812 0
M  V30 4949 H 494.293 -1.65929 0.355783 0
M  V30 4950 H 493.065 -3.88187 0.492592 0
M  V30 4951 H 492.688 -3.78431 -1.21965 0
M  V30 4952 N 493.685 -0.035106 -1.57561 0
M  V30 4953 C 494.632 0.94474 -2.10578 0
M  V30 4954 C 495.602 1.3192 -1.00927 0
M  V30 4955 O 496.787 1.41147 -1.28382 0
M  V30 4956 C 493.927 2.21982 -2.64231 0
M  V30 4957 C 493.04 1.90128 -3.87911 0
M  V30 4958 C 492.175 3.11975 -4.29936 0
M  V30 4959 C 491.214 2.75968 -5.46359 0
M  V30 4960 N 490.351 3.90459 -5.83512 0
M  V30 4961 H 495.191 0.485717 -2.94015 0
M  V30 4962 H 492.728 0.228143 -1.4532 0
M  V30 4963 H 494.686 2.96572 -2.9343 0
M  V30 4964 H 493.316 2.6549 -1.83616 0
M  V30 4965 H 492.368 1.05755 -3.65404 0
M  V30 4966 H 493.68 1.59613 -4.72573 0
M  V30 4967 H 492.834 3.9488 -4.60603 0
M  V30 4968 H 491.573 3.45657 -3.44053 0
M  V30 4969 H 490.578 1.91478 -5.1538 0
M  V30 4970 H 491.803 2.43497 -6.33945 0
M  V30 4971 H 489.749 4.23971 -5.00584 0
M  V30 4972 H 489.666 3.63588 -6.62827 0
M  V30 4973 H 490.934 4.7405 -6.18787 0
M  V30 4974 N 495.163 1.55791 0.238111 0
M  V30 4975 C 496.073 1.94196 1.31625 0
M  V30 4976 C 497.089 0.843545 1.52185 0
M  V30 4977 O 498.265 1.1457 1.65637 0
M  V30 4978 C 495.33 2.2365 2.64918 0
M  V30 4979 C 494.391 3.46971 2.52804 0
M  V30 4980 C 493.624 3.7501 3.79741 0
M  V30 4981 O 493.847 3.04982 4.82019 0
M  V30 4982 O 492.781 4.68525 3.77846 0
M  V30 4983 H 496.607 2.86044 1.02043 0
M  V30 4984 H 494.192 1.42786 0.439603 0
M  V30 4985 H 496.074 2.43863 3.4367 0
M  V30 4986 H 494.749 1.34979 2.94215 0
M  V30 4987 H 493.656 3.32055 1.72309 0
M  V30 4988 H 494.989 4.35971 2.28451 0
M  V30 4989 N 496.642 -0.504142 1.49319 0
M  V30 4990 C 497.89 -1.25598 1.58334 0
M  V30 4991 C 498.211 -1.93114 0.270538 0
M  V30 4992 O 497.481 -1.82585 -0.709891 0
M  V30 4993 H 496.061 -0.466571 0.58337 0
M  V30 4994 H 498.723 -0.584547 1.85928 0
M  V30 4995 H 497.819 -2.02159 2.37778 0
M  V30 4996 N 498.12 -1.38341 -0.754957 0
M  V30 4997 C 499.067 -1.3546 -1.86867 0
M  V30 4998 C 500.037 -0.217369 -1.64672 0
M  V30 4999 O 501.222 -0.409383 -1.86356 0
M  V30 5000 C 498.362 -1.18413 -3.24149 0
M  V30 5001 C 497.475 -2.41511 -3.58185 0
M  V30 5002 C 496.61 -2.17205 -4.84763 0
M  V30 5003 C 495.649 -3.36081 -5.11582 0
M  V30 5004 N 494.786 -3.11219 -6.29354 0
M  V30 5005 H 499.626 -2.30672 -1.88664 0
M  V30 5006 H 497.163 -1.14607 -0.922154 0
M  V30 5007 H 499.121 -1.06545 -4.03366 0
M  V30 5008 H 497.751 -0.268397 -3.21682 0
M  V30 5009 H 496.803 -2.64056 -2.73822 0
M  V30 5010 H 498.115 -3.30115 -3.73932 0
M  V30 5011 H 497.269 -2.02465 -5.7192 0
M  V30 5012 H 496.008 -1.25964 -4.71152 0
M  V30 5013 H 495.013 -3.51341 -4.22894 0
M  V30 5014 H 496.238 -4.28196 -5.27091 0
M  V30 5015 H 494.184 -2.22624 -6.17069 0
M  V30 5016 H 494.101 -3.93373 -6.45596 0
M  V30 5017 H 495.369 -3.00132 -7.19403 0
M  V30 5018 N 499.598 0.982988 -1.23187 0
M  V30 5019 C 500.528 2.09301 -1.03515 0
M  V30 5020 C 501.509 1.70035 0.0471136 0
M  V30 5021 O 502.694 1.93847 -0.117029 0
M  V30 5022 C 499.824 3.4167 -0.622791 0
M  V30 5023 C 498.778 3.94828 -1.65211 0
M  V30 5024 C 498.104 5.23362 -1.09527 0
M  V30 5025 C 499.404 4.2439 -3.04451 0
M  V30 5026 H 501.098 2.26016 -1.96359 0
M  V30 5027 H 498.644 1.08611 -0.945501 0
M  V30 5028 H 500.597 4.18746 -0.472233 0
M  V30 5029 H 499.321 3.24811 0.341329 0
M  V30 5030 H 497.98 3.19895 -1.79061 0
M  V30 5031 H 497.628 5.02852 -0.122211 0
M  V30 5032 H 497.328 5.59895 -1.783 0
M  V30 5033 H 498.852 6.03062 -0.956511 0
M  V30 5034 H 500.266 4.92225 -2.93917 0
M  V30 5035 H 498.663 4.72118 -3.70438 0
M  V30 5036 H 499.733 3.31765 -3.53638 0
M  V30 5037 N 501.076 1.04316 1.18135 0
M  V30 5038 C 502.006 0.657299 2.24058 0
M  V30 5039 C 502.987 -0.340678 1.66654 0
M  V30 5040 O 504.172 -0.220223 1.92947 0
M  V30 5041 C 501.302 0.0220715 3.47293 0
M  V30 5042 C 500.256 0.943857 4.17463 0
M  V30 5043 C 499.582 0.172973 5.3442 0
M  V30 5044 C 500.882 2.26409 4.70677 0
M  V30 5045 H 502.576 1.5428 2.56589 0
M  V30 5046 H 500.122 0.743263 1.23335 0
M  V30 5047 H 502.075 -0.259607 4.206 0
M  V30 5048 H 500.799 -0.898323 3.14003 0
M  V30 5049 H 499.458 1.20996 3.46057 0
M  V30 5050 H 499.106 -0.749907 4.97379 0
M  V30 5051 H 498.806 0.787098 5.82304 0
M  V30 5052 H 500.33 -0.101628 6.10515 0
M  V30 5053 H 501.744 2.04294 5.35665 0
M  V30 5054 H 500.141 2.8314 5.29105 0
M  V30 5055 H 501.211 2.90883 3.87962 0
M  V30 5056 N 502.554 -1.34406 0.822964 0
M  V30 5057 C 503.97 -1.51275 0.508727 0
M  V30 5058 C 504.17 -1.76776 -0.967083 0
M  V30 5059 O 503.226 -1.81871 -1.75155 0
M  V30 5060 C 504.539 -2.67765 1.36829 0
M  V30 5061 C 506.087 -2.81647 1.36542 0
M  V30 5062 C 506.562 -4.01181 2.20947 0
M  V30 5063 N 508.053 -4.08388 2.18571 0
M  V30 5064 C 508.788 -5.00036 2.80627 0
M  V30 5065 N 508.284 -5.96906 3.51674 0
M  V30 5066 N 510.077 -4.92908 2.70181 0
M  V30 5067 H 502.228 -1.16113 1.77852 0
M  V30 5068 H 504.491 -0.56947 0.757897 0
M  V30 5069 H 504.197 -2.55551 2.41633 0
M  V30 5070 H 504.071 -3.62779 1.03303 0
M  V30 5071 H 506.458 -2.93303 0.325163 0
M  V30 5072 H 506.539 -1.87443 1.74066 0
M  V30 5073 H 506.183 -3.90286 3.25022 0
M  V30 5074 H 506.113 -4.94599 1.80774 0
M  V30 5075 H 508.604 -3.39051 1.66891 0
M  V30 5076 H 508.917 -6.63468 3.96271 0
M  V30 5077 H 507.262 -5.9703 3.5578 0
M  V30 5078 H 510.453 -4.1619 2.14251 0
M  V30 5079 H 510.626 -5.64137 3.18831 0
M  V30 5080 N 504.032 -0.577932 -1.46621 0
M  V30 5081 C 504.98 0.170882 -2.31971 0
M  V30 5082 C 505.974 0.889086 -1.44193 0
M  V30 5083 O 507.18 0.808017 -1.60845 0
M  V30 5084 H 503.555 0.0739763 -0.748353 0
M  V30 5085 H 505.526 -0.567856 -2.92947 0
M  V30 5086 C 504.275 1.17438 -3.27267 0
M  V30 5087 H 503.598 0.63116 -3.94787 0
M  V30 5088 H 505.038 1.66882 -3.89778 0
M  V30 5089 C 503.497 2.23292 -2.52274 0
M  V30 5090 O 504.027 3.30567 -2.28229 0
M  V30 5091 N 502.233 1.97772 -2.12919 0
M  V30 5092 H 501.78 1.10545 -2.32675 0
M  V30 5093 H 501.738 2.68809 -1.63062 0
M  V30 5094 N 505.51 1.54411 -0.315457 0
M  V30 5095 C 506.74 2.04536 0.291315 0
M  V30 5096 C 507.148 1.19162 1.4696 0
M  V30 5097 O 506.491 0.213199 1.82459 0
M  V30 5098 C 506.553 3.5056 0.796725 0
M  V30 5099 C 506.217 4.5627 -0.258178 0
M  V30 5100 C 507.214 5.08312 -1.09153 0
M  V30 5101 C 504.899 5.00672 -0.404036 0
M  V30 5102 C 506.893 6.03312 -2.05655 0
M  V30 5103 C 504.58 5.95488 -1.37248 0
M  V30 5104 C 505.578 6.46693 -2.19721 0
M  V30 5105 O 505.266 7.39648 -3.14921 0
M  V30 5106 H 504.998 0.672856 0.0651165 0
M  V30 5107 H 507.552 2.00244 -0.457308 0
M  V30 5108 H 505.782 3.52223 1.59612 0
M  V30 5109 H 507.471 3.83804 1.32096 0
M  V30 5110 H 508.237 4.74793 -0.98979 0
M  V30 5111 H 504.116 4.60436 0.22799 0
M  V30 5112 H 507.66 6.43203 -2.70067 0
M  V30 5113 H 503.557 6.28424 -1.47489 0
M  V30 5114 H 504.325 7.57496 -3.10067 0
M  V30 5115 N 506.988 0.0434614 1.5754 0
M  V30 5116 C 508.216 -0.641835 1.96693 0
M  V30 5117 C 508.631 -1.64832 0.920652 0
M  V30 5118 O 507.988 -1.82247 -0.095993 0
M  V30 5119 C 508.039 -1.33557 3.35924 0
M  V30 5120 O 507.76 -0.369403 4.3654 0
M  V30 5121 C 509.261 -2.11135 3.89791 0
M  V30 5122 H 506.481 -0.176013 0.647503 0
M  V30 5123 H 509.025 0.107478 2.04217 0
M  V30 5124 H 507.18 -2.03617 3.29574 0
M  V30 5125 H 507.594 -0.863674 5.1734 0
M  V30 5126 H 509.068 -2.55107 4.89514 0
M  V30 5127 H 509.545 -2.95634 3.24803 0
M  V30 5128 H 510.151 -1.46002 3.99454 0
M  V30 5129 N 508.466 -1.55915 -0.229846 0
M  V30 5130 C 509.398 -1.88209 -1.30805 0
M  V30 5131 C 510.411 -0.769672 -1.43457 0
M  V30 5132 O 511.6 -1.04792 -1.44502 0
M  V30 5133 C 508.7 -2.06829 -2.68468 0
M  V30 5134 C 507.873 -3.37798 -2.77869 0
M  V30 5135 C 506.932 -3.45952 -3.96489 0
M  V30 5136 O 505.958 -4.19043 -3.85216 0
M  V30 5137 N 507.16 -2.76488 -5.10426 0
M  V30 5138 H 509.925 -2.81286 -1.03431 0
M  V30 5139 H 507.486 -1.5636 -0.41991 0
M  V30 5140 H 509.478 -2.09608 -3.46189 0
M  V30 5141 H 508.048 -1.20416 -2.88477 0
M  V30 5142 H 507.268 -3.4719 -1.86689 0
M  V30 5143 H 508.556 -4.24091 -2.81113 0
M  V30 5144 H 507.954 -2.16868 -5.2248 0
M  V30 5145 H 506.511 -2.84938 -5.8622 0
M  V30 5146 N 509.944 0.496216 -1.49584 0
M  V30 5147 C 510.892 1.61805 -1.67098 0
M  V30 5148 C 511.886 1.60667 -0.536877 0
M  V30 5149 O 513.092 1.65118 -0.716654 0
M  V30 5150 H 509.467 0.53646 -0.526986 0
M  V30 5151 H 511.438 1.44187 -2.61252 0
M  V30 5152 C 510.187 2.99912 -1.75921 0
M  V30 5153 H 509.51 3.01496 -2.62565 0
M  V30 5154 H 510.95 3.77931 -1.92209 0
M  V30 5155 C 509.409 3.33092 -0.505088 0
M  V30 5156 O 509.939 4.00019 0.367085 0
M  V30 5157 N 508.145 2.88278 -0.366599 0
M  V30 5158 H 507.692 2.33989 -1.07735 0
M  V30 5159 H 507.65 3.10846 0.47142 0
M  V30 5160 N 511.423 1.38739 0.74761 0
M  V30 5161 C 512.672 1.3459 1.50228 0
M  V30 5162 C 512.985 -0.0595592 1.95509 0
M  V30 5163 O 514.191 -0.22361 2.70578 0
M  V30 5164 C 512.647 2.36377 2.71393 0
M  V30 5165 C 512.255 3.82573 2.33113 0
M  V30 5166 C 513.999 2.41281 3.49262 0
M  V30 5167 C 511.906 4.76032 3.50924 0
M  V30 5168 H 510.836 0.500312 0.564096 0
M  V30 5169 H 513.487 1.64324 0.8167 0
M  V30 5170 H 511.869 1.99694 3.41962 0
M  V30 5171 H 513.043 4.28227 1.70171 0
M  V30 5172 H 511.358 3.80844 1.68365 0
M  V30 5173 H 513.955 3.08301 4.36869 0
M  V30 5174 H 514.298 1.43353 3.9084 0
M  V30 5175 H 514.831 2.76793 2.85711 0
M  V30 5176 H 511.57 5.75177 3.14408 0
M  V30 5177 H 511.09 4.35066 4.12889 0
M  V30 5178 H 512.769 4.94331 4.17427 0
M  V30 5179 N 512.901 -0.976442 1.23707 0
M  V30 5180 C 514.178 -1.69296 0.979699 0
M  V30 5181 C 514.558 -2.0508 -0.500555 0
M  V30 5182 O 513.906 -1.74708 -1.47273 0
M  V30 5183 C 514.116 -2.93143 1.89389 0
M  V30 5184 C 515.464 -3.65572 2.15968 0
M  V30 5185 O 516.488 -3.03184 1.86971 0
M  V30 5186 O 515.347 -4.77859 2.65167 0
M  V30 5187 H 512.441 -0.739708 0.369812 0
M  V30 5188 H 514.987 -1.03131 1.34767 0
M  V30 5189 H 513.759 -2.63327 2.89439 0
M  V30 5190 H 513.382 -3.67044 1.52854 0
M  V30 5191 N 514.379 -1.04941 -1.1758 0
M  V30 5192 C 515.607 -0.778294 -1.91703 0
M  V30 5193 C 516.022 0.665697 -1.76675 0
M  V30 5194 O 515.379 1.45456 -1.10222 0
M  V30 5195 C 515.43 -1.14628 -3.42845 0
M  V30 5196 O 515.151 -2.53359 -3.57409 0
M  V30 5197 C 516.652 -0.900931 -4.34049 0
M  V30 5198 H 513.872 -0.283167 -0.608323 0
M  V30 5199 H 516.416 -1.39942 -1.49119 0
M  V30 5200 H 514.571 -0.569953 -3.83184 0
M  V30 5201 H 514.985 -2.67709 -4.51035 0
M  V30 5202 H 516.459 -1.20817 -5.38616 0
M  V30 5203 H 516.936 0.163966 -4.38894 0
M  V30 5204 H 517.542 -1.46097 -3.99419 0
M  V30 5205 N 515.857 1.33968 -0.830081 0
M  V30 5206 C 516.787 2.31911 -0.271911 0
M  V30 5207 C 517.768 1.58571 0.61556 0
M  V30 5208 O 518.953 1.86514 0.540946 0
M  V30 5209 C 516.083 3.42737 0.561146 0
M  V30 5210 C 515.037 4.27383 -0.229789 0
M  V30 5211 C 514.363 5.29742 0.726463 0
M  V30 5212 C 515.663 5.02 -1.44197 0
M  V30 5213 H 517.357 2.78844 -1.09025 0
M  V30 5214 H 514.903 1.34061 -0.52571 0
M  V30 5215 H 516.856 4.10276 0.961867 0
M  V30 5216 H 515.58 2.94471 1.41261 0
M  V30 5217 H 514.239 3.61456 -0.611964 0
M  V30 5218 H 513.887 4.77736 1.57408 0
M  V30 5219 H 513.587 5.87255 0.20142 0
M  V30 5220 H 515.111 6.00149 1.12489 0
M  V30 5221 H 516.525 5.62355 -1.11488 0
M  V30 5222 H 514.922 5.69122 -1.90317 0
M  V30 5223 H 515.992 4.31281 -2.2164 0
M  V30 5224 N 517.335 0.585699 1.46312 0
M  V30 5225 C 518.245 -0.148236 2.34131 0
M  V30 5226 C 519.261 -0.882972 1.49932 0
M  V30 5227 O 520.437 -0.845484 1.82794 0
M  V30 5228 C 517.502 -1.14714 3.27172 0
M  V30 5229 C 516.563 -0.416746 4.27272 0
M  V30 5230 C 515.796 -1.36806 5.15868 0
M  V30 5231 O 516.019 -2.60475 5.07454 0
M  V30 5232 O 514.953 -0.877018 5.95476 0
M  V30 5233 H 518.779 0.572882 2.98248 0
M  V30 5234 H 516.364 0.346082 1.45336 0
M  V30 5235 H 518.246 -1.72303 3.84564 0
M  V30 5236 H 516.921 -1.84967 2.65648 0
M  V30 5237 H 515.828 0.201061 3.73559 0
M  V30 5238 H 517.161 0.244872 4.9159 0
M  V30 5239 N 518.813 -1.54241 0.323641 0
M  V30 5240 C 519.745 -2.21836 -0.576311 0
M  V30 5241 C 520.758 -1.21837 -1.07979 0
M  V30 5242 O 521.947 -1.48306 -0.99336 0
M  V30 5243 C 519.047 -2.86923 -1.80356 0
M  V30 5244 C 518.22 -4.1306 -1.43875 0
M  V30 5245 C 517.279 -4.6174 -2.52353 0
M  V30 5246 O 516.305 -5.26421 -2.16494 0
M  V30 5247 N 517.507 -4.35974 -3.83284 0
M  V30 5248 H 520.272 -2.997 0.00247987 0
M  V30 5249 H 517.833 -1.61233 0.146848 0
M  V30 5250 H 519.825 -3.16414 -2.52318 0
M  V30 5251 H 518.395 -2.12765 -2.29019 0
M  V30 5252 H 517.615 -3.90334 -0.550752 0
M  V30 5253 H 518.903 -4.95148 -1.17071 0
M  V30 5254 H 518.301 -3.84203 -4.15216 0
M  V30 5255 H 516.858 -4.70119 -4.51477 0
M  V30 5256 N 520.291 -0.0518155 -1.57515 0
M  V30 5257 C 521.537 0.622745 -1.93002 0
M  V30 5258 C 521.87 1.70456 -0.930499 0
M  V30 5259 O 521.145 1.94452 0.0434086 0
M  V30 5260 C 521.428 1.21824 -3.38867 0
M  V30 5261 C 521.281 0.144434 -4.49568 0
M  V30 5262 C 522.6 2.12968 -3.8514 0
M  V30 5263 H 519.719 0.22491 -0.701844 0
M  V30 5264 H 522.361 -0.113711 -1.89659 0
M  V30 5265 H 520.511 1.8459 -3.41846 0
M  V30 5266 H 522.183 -0.48753 -4.58717 0
M  V30 5267 H 520.426 -0.527424 -4.30582 0
M  V30 5268 H 521.097 0.601127 -5.48717 0
M  V30 5269 H 523.573 1.60163 -3.8404 0
M  V30 5270 H 522.449 2.51578 -4.87852 0
M  V30 5271 H 522.71 3.03004 -3.21934 0
M  V30 5272 N 521.769 1.56035 0.221574 0
M  V30 5273 C 522.732 1.91584 1.2581 0
M  V30 5274 C 523.732 0.794425 1.39805 0
M  V30 5275 O 524.922 1.06217 1.38071 0
M  V30 5276 C 522.054 2.16663 2.63192 0
M  V30 5277 H 523.247 2.8429 0.954935 0
M  V30 5278 H 520.8 1.49316 0.461988 0
M  V30 5279 H 521.535 1.26508 2.98607 0
M  V30 5280 H 521.32 2.98358 2.5441 0
M  V30 5281 H 522.81 2.45262 3.37988 0
M  V30 5282 N 523.247 -0.488276 1.49845 0
M  V30 5283 C 524.495 -1.23911 1.59657 0
M  V30 5284 C 524.816 -1.92816 0.291005 0
M  V30 5285 O 524.086 -1.83328 -0.690485 0
M  V30 5286 H 522.666 -0.460357 0.588286 0
M  V30 5287 H 525.328 -0.564794 1.86537 0
M  V30 5288 H 524.424 -1.99625 2.39909 0
M  V30 5289 N 524.725 -1.39134 -0.740242 0
M  V30 5290 C 525.974 -1.35384 -1.49512 0
M  V30 5291 C 526.287 0.04919 -1.95538 0
M  V30 5292 O 527.493 0.209257 -2.70692 0
M  V30 5293 C 525.949 -2.37812 -2.70136 0
M  V30 5294 C 525.557 -3.83804 -2.31081 0
M  V30 5295 C 527.301 -2.4313 -3.47977 0
M  V30 5296 C 525.208 -4.77886 -3.48395 0
M  V30 5297 H 524.138 -0.503297 -0.561434 0
M  V30 5298 H 526.789 -1.64754 -0.807974 0
M  V30 5299 H 525.171 -2.01505 -3.40899 0
M  V30 5300 H 526.345 -4.29123 -1.67898 0
M  V30 5301 H 524.66 -3.81732 -1.66343 0
M  V30 5302 H 527.257 -3.10614 -4.35228 0
M  V30 5303 H 527.6 -1.45423 -3.90074 0
M  V30 5304 H 528.133 -2.78304 -2.84239 0
M  V30 5305 H 524.872 -5.76836 -3.11353 0
M  V30 5306 H 524.392 -4.3725 -4.10576 0
M  V30 5307 H 526.071 -4.96538 -4.148 0
M  V30 5308 N 526.204 0.969867 -1.24223 0
M  V30 5309 C 527.136 2.0669 -0.99055 0
M  V30 5310 C 528.149 1.62753 0.0392222 0
M  V30 5311 O 529.338 1.77403 -0.197561 0
M  V30 5312 C 526.438 3.35589 -0.472594 0
M  V30 5313 C 525.611 4.08444 -1.56499 0
M  V30 5314 C 524.67 5.15616 -1.05007 0
M  V30 5315 O 523.696 5.41911 -1.7413 0
M  V30 5316 N 524.898 5.80383 0.116641 0
M  V30 5317 H 527.663 2.28855 -1.93508 0
M  V30 5318 H 525.224 1.13733 -1.15223 0
M  V30 5319 H 527.216 4.04542 -0.112919 0
M  V30 5320 H 525.786 3.10311 0.377617 0
M  V30 5321 H 525.006 3.33798 -2.09696 0
M  V30 5322 H 526.294 4.53882 -2.29932 0
M  V30 5323 H 525.692 5.6142 0.694589 0
M  V30 5324 H 524.249 6.50462 0.417483 0
M  V30 5325 N 527.682 1.05563 1.17022 0
M  V30 5326 C 529.098 0.777684 1.39371 0
M  V30 5327 C 529.298 -0.626269 1.91521 0
M  V30 5328 O 528.354 -1.38806 2.10924 0
M  V30 5329 C 529.667 1.83642 2.3811 0
M  V30 5330 C 531.215 1.85907 2.51809 0
M  V30 5331 C 531.69 2.90813 3.53824 0
M  V30 5332 N 533.181 2.898 3.61345 0
M  V30 5333 C 533.916 3.6762 4.40049 0
M  V30 5334 N 533.412 4.55237 5.22237 0
M  V30 5335 N 535.205 3.56044 4.34959 0
M  V30 5336 H 527.356 1.9614 0.815047 0
M  V30 5337 H 529.619 0.849527 0.420722 0
M  V30 5338 H 529.325 2.84425 2.06871 0
M  V30 5339 H 529.199 1.6812 3.37662 0
M  V30 5340 H 531.586 0.857865 2.82356 0
M  V30 5341 H 531.667 2.05506 1.52318 0
M  V30 5342 H 531.311 3.91122 3.24015 0
M  V30 5343 H 531.241 2.68465 4.53028 0
M  V30 5344 H 533.732 2.26274 3.02669 0
M  V30 5345 H 534.045 5.11291 5.79484 0
M  V30 5346 H 532.39 4.59296 5.21605 0
M  V30 5347 H 535.581 2.86986 3.69806 0
M  V30 5348 H 535.754 4.16938 4.96051 0
M  V30 5349 N 529.16 -1.33526 0.837174 0
M  V30 5350 C 530.409 -1.97098 0.428387 0
M  V30 5351 C 530.722 -1.67062 -1.01734 0
M  V30 5352 O 531.928 -2.24235 -1.53072 0
M  V30 5353 C 530.384 -3.52725 0.715075 0
M  V30 5354 C 529.992 -3.9164 2.17537 0
M  V30 5355 C 531.736 -4.22857 0.373154 0
M  V30 5356 C 529.643 -5.40237 2.40619 0
M  V30 5357 H 528.573 -0.737589 0.156455 0
M  V30 5358 H 531.224 -1.52169 1.02552 0
M  V30 5359 H 529.606 -3.95971 0.0475904 0
M  V30 5360 H 530.78 -3.59456 2.88319 0
M  V30 5361 H 529.095 -3.34485 2.4801 0
M  V30 5362 H 531.692 -5.32133 0.523264 0
M  V30 5363 H 532.035 -4.10647 -0.683708 0
M  V30 5364 H 532.568 -3.85135 0.995801 0
M  V30 5365 H 529.307 -5.57449 3.44864 0
M  V30 5366 H 528.827 -5.73887 1.74396 0
M  V30 5367 H 530.506 -6.07102 2.23688 0
M  V30 5368 N 530.638 -0.59345 -1.46 0
M  V30 5369 C 531.887 -0.0808084 -2.01538 0
M  V30 5370 C 532.2 1.29112 -1.46934 0
M  V30 5371 O 533.406 1.8957 -1.94359 0
M  V30 5372 C 531.862 -0.0938311 -3.59778 0
M  V30 5373 C 531.47 -1.46474 -4.23379 0
M  V30 5374 C 533.214 0.364306 -4.22934 0
M  V30 5375 C 531.121 -1.4349 -5.73729 0
M  V30 5376 H 530.051 -0.0264407 -0.753536 0
M  V30 5377 H 532.702 -0.746689 -1.67621 0
M  V30 5378 H 531.084 0.638427 -3.9082 0
M  V30 5379 H 532.258 -2.21758 -4.03931 0
M  V30 5380 H 530.573 -1.86379 -3.7236 0
M  V30 5381 H 533.17 0.405584 -5.3316 0
M  V30 5382 H 533.513 1.38409 -3.92618 0
M  V30 5383 H 534.046 -0.31423 -3.96557 0
M  V30 5384 H 530.785 -2.43184 -6.08722 0
M  V30 5385 H 530.305 -0.724431 -5.95409 0
M  V30 5386 H 531.984 -1.15243 -6.36654 0
M  V30 5387 N 532.116 1.54067 -0.331816 0
M  V30 5388 C 533.048 2.22139 0.564538 0
M  V30 5389 C 534.061 1.22408 1.07332 0
M  V30 5390 O 535.25 1.4883 0.985481 0
M  V30 5391 C 532.35 2.87876 1.78831 0
M  V30 5392 C 531.523 4.13817 1.41682 0
M  V30 5393 C 530.582 4.63072 2.49901 0
M  V30 5394 O 529.608 5.27562 2.13699 0
M  V30 5395 N 530.81 4.38001 3.80967 0
M  V30 5396 H 533.575 2.99694 -0.0183736 0
M  V30 5397 H 531.136 1.61153 -0.155396 0
M  V30 5398 H 533.128 3.17747 2.50637 0
M  V30 5399 H 531.698 2.13977 2.27887 0
M  V30 5400 H 530.918 3.9062 0.530044 0
M  V30 5401 H 532.206 4.95762 1.14443 0
M  V30 5402 H 531.604 3.864 4.13173 0
M  V30 5403 H 530.161 4.72507 4.48977 0
M  V30 5404 N 533.594 0.0601682 1.57485 0
M  V30 5405 C 534.834 -0.615384 1.94916 0
M  V30 5406 C 535.198 -1.67475 0.938948 0
M  V30 5407 O 536.399 -2.40502 1.20051 0
M  V30 5408 C 534.67 -1.18788 3.37082 0
M  V30 5409 S 536.229 -1.88018 3.96478 0
M  V30 5410 H 533.047 -0.201821 0.681754 0
M  V30 5411 H 535.649 0.131252 1.95059 0
M  V30 5412 H 534.353 -0.404869 4.08398 0
M  V30 5413 H 533.884 -1.97114 3.40455 0
M  V30 5414 H 535.899 -3.16161 3.82435 0
M  V30 5415 N 535.072 -1.5615 -0.213296 0
M  V30 5416 C 536.022 -1.89485 -1.26804 0
M  V30 5417 C 537.006 -0.758713 -1.41889 0
M  V30 5418 O 538.198 -1.02127 -1.44565 0
M  V30 5419 C 535.327 -2.22219 -2.61675 0
M  V30 5420 C 534.413 -3.42245 -2.50458 0
M  V30 5421 N 534.804 -4.60645 -2.089 0
M  V30 5422 C 533.102 -3.46023 -2.81397 0
M  V30 5423 C 533.803 -5.42805 -2.09135 0
M  V30 5424 N 532.779 -4.82732 -2.49941 0
M  V30 5425 H 536.581 -2.78537 -0.937771 0
M  V30 5426 H 534.095 -1.56826 -0.421824 0
M  V30 5427 H 536.092 -2.44278 -3.37837 0
M  V30 5428 H 534.752 -1.34484 -2.95541 0
M  V30 5429 H 535.763 -4.85651 -1.79899 0
M  V30 5430 H 532.44 -2.68654 -3.1958 0
M  V30 5431 H 533.83 -6.47601 -1.79059 0
M  V30 5432 N 536.55 0.480323 -1.50102 0
M  V30 5433 C 537.798 1.23063 -1.60312 0
M  V30 5434 C 538.119 1.92659 -0.301226 0
M  V30 5435 O 537.389 1.83691 0.680753 0
M  V30 5436 H 535.969 0.457231 -0.590719 0
M  V30 5437 H 538.631 0.554893 -1.86834 0
M  V30 5438 H 537.727 1.9835 -2.40964 0
M  V30 5439 N 538.028 1.39524 0.732853 0
M  V30 5440 C 539.253 1.40329 1.52717 0
M  V30 5441 C 539.678 0.000286574 1.881 0
M  V30 5442 O 539.036 -0.987262 1.52062 0
M  V30 5443 C 539.084 2.28464 2.78992 0
M  V30 5444 O 538.188 1.716 3.75003 0
M  V30 5445 H 537.529 0.47778 0.461109 0
M  V30 5446 H 540.059 1.83546 0.903996 0
M  V30 5447 H 540.069 2.43051 3.27705 0
M  V30 5448 H 538.744 3.30425 2.52572 0
M  V30 5449 H 537.321 1.66267 3.33781 0
M  V30 5450 N 539.506 -0.963266 1.24736 0
M  V30 5451 C 540.753 -1.7068 1.0897 0
M  V30 5452 C 541.081 -1.90934 -0.370751 0
M  V30 5453 O 540.336 -1.47155 -1.29011 0
M  V30 5454 C 540.635 -3.09944 1.7796 0
M  V30 5455 C 540.301 -3.09518 3.27887 0
M  V30 5456 C 538.963 -3.09109 3.68789 0
M  V30 5457 C 541.315 -3.03509 4.23712 0
M  V30 5458 C 538.643 -3.00429 5.03944 0
M  V30 5459 C 540.995 -2.96371 5.5888 0
M  V30 5460 C 539.659 -2.94293 5.99123 0
M  V30 5461 H 538.929 -0.624564 0.398749 0
M  V30 5462 H 541.576 -1.12603 1.54896 0
M  V30 5463 H 539.881 -3.71513 1.2444 0
M  V30 5464 H 541.578 -3.66278 1.63222 0
M  V30 5465 H 538.168 -3.10603 2.95337 0
M  V30 5466 H 542.352 -3.0295 3.93109 0
M  V30 5467 H 537.608 -2.97183 5.34314 0
M  V30 5468 H 541.782 -2.90681 6.32833 0
M  V30 5469 H 539.409 -2.87322 7.03811 0
M  V30 5470 N 540.985 -1.06182 -1.16461 0
M  V30 5471 C 541.948 -0.675723 -2.19013 0
M  V30 5472 C 542.948 0.277963 -1.58379 0
M  V30 5473 O 544.138 0.0604962 -1.74095 0
M  V30 5474 C 541.27 0.00591459 -3.40899 0
M  V30 5475 H 542.463 -1.58353 -2.54685 0
M  V30 5476 H 540.016 -0.856908 -1.30716 0
M  V30 5477 H 540.751 0.92652 -3.10783 0
M  V30 5478 H 540.536 -0.67984 -3.86161 0
M  V30 5479 H 542.026 0.26181 -4.16778 0
M  V30 5480 N 542.463 1.3308 -0.844243 0
M  V30 5481 C 543.691 2.01808 -0.456203 0
M  V30 5482 C 544.106 1.63498 0.944131 0
M  V30 5483 O 543.463 0.85102 1.61443 0
M  V30 5484 C 543.514 3.56922 -0.573513 0
M  V30 5485 O 543.235 3.93851 -1.91868 0
M  V30 5486 C 544.736 4.42922 -0.183125 0
M  V30 5487 H 541.956 0.646273 -0.180477 0
M  V30 5488 H 544.5 1.69891 -1.1383 0
M  V30 5489 H 542.655 3.87352 0.0607367 0
M  V30 5490 H 543.069 4.88564 -1.90802 0
M  V30 5491 H 544.543 5.51093 -0.316241 0
M  V30 5492 H 545.02 4.30386 0.875477 0
M  V30 5493 H 545.626 4.1786 -0.792027 0
M  V30 5494 N 543.941 0.601185 1.45683 0
M  V30 5495 C 544.904 -0.111398 2.28929 0
M  V30 5496 C 545.904 -0.801246 1.39416 0
M  V30 5497 O 547.094 -0.650383 1.61603 0
M  V30 5498 C 544.226 -1.16773 3.20276 0
M  V30 5499 H 545.419 0.620412 2.93413 0
M  V30 5500 H 542.972 0.359946 1.52099 0
M  V30 5501 H 543.707 -1.93051 2.60579 0
M  V30 5502 H 543.492 -0.677358 3.86205 0
M  V30 5503 H 544.982 -1.66698 3.82886 0
M  V30 5504 N 545.419 -1.53889 0.339982 0
M  V30 5505 C 546.644 -2.05741 -0.261798 0
M  V30 5506 C 547.069 -1.21354 -1.43718 0
M  V30 5507 O 546.427 -0.22645 -1.7988 0
M  V30 5508 C 546.475 -3.54542 -0.658228 0
M  V30 5509 O 545.579 -3.7302 -1.75869 0
M  V30 5510 H 544.92 -0.662529 -0.0441672 0
M  V30 5511 H 547.45 -1.98568 0.493161 0
M  V30 5512 H 547.46 -3.9711 -0.936368 0
M  V30 5513 H 546.135 -4.15412 0.201358 0
M  V30 5514 H 544.712 -3.42355 -1.47809 0
M  V30 5515 N 546.897 -0.0685191 -1.57451 0
M  V30 5516 C 548.137 0.605038 -1.9524 0
M  V30 5517 C 548.501 1.66974 -0.947816 0
M  V30 5518 O 549.702 2.39862 -1.21325 0
M  V30 5519 C 547.973 1.16999 -3.37707 0
M  V30 5520 S 549.532 1.85913 -3.97469 0
M  V30 5521 H 546.35 0.198203 -0.682815 0
M  V30 5522 H 548.952 -0.141594 -1.94987 0
M  V30 5523 H 547.656 0.383205 -4.08607 0
M  V30 5524 H 547.187 1.95305 -3.41496 0
M  V30 5525 H 549.202 3.14128 -3.84107 0
M  V30 5526 N 548.375 1.56261 0.205012 0
M  V30 5527 C 549.305 1.96779 1.257 0
M  V30 5528 C 550.286 0.838309 1.48008 0
M  V30 5529 O 551.471 1.10189 1.59913 0
M  V30 5530 C 548.601 2.29876 2.60335 0
M  V30 5531 C 547.555 3.45469 2.52656 0
M  V30 5532 C 546.881 3.64215 3.91473 0
M  V30 5533 C 548.181 4.79954 2.06014 0
M  V30 5534 H 549.875 2.84904 0.920338 0
M  V30 5535 H 547.421 1.37072 0.441277 0
M  V30 5536 H 549.374 2.56814 3.34102 0
M  V30 5537 H 548.098 1.38622 2.95722 0
M  V30 5538 H 546.757 3.18605 1.81345 0
M  V30 5539 H 546.405 2.70309 4.24196 0
M  V30 5540 H 546.105 4.41973 3.87213 0
M  V30 5541 H 547.629 3.93519 4.66878 0
M  V30 5542 H 549.043 5.05989 2.69533 0
M  V30 5543 H 547.44 5.61111 2.12777 0
M  V30 5544 H 548.51 4.74201 1.01297 0
M  V30 5545 N 549.853 -0.472356 1.50355 0
M  V30 5546 C 551.102 -1.2213 1.60522 0
M  V30 5547 C 551.415 -1.9312 0.310466 0
M  V30 5548 O 552.621 -2.69936 0.291029 0
M  V30 5549 C 551.077 -2.21909 2.83345 0
M  V30 5550 C 550.685 -1.56727 4.19691 0
M  V30 5551 C 552.429 -2.97453 3.02856 0
M  V30 5552 C 550.336 -2.54785 5.33703 0
M  V30 5553 H 549.266 -0.459543 0.597776 0
M  V30 5554 H 551.917 -0.491922 1.76783 0
M  V30 5555 H 550.299 -2.98133 2.60639 0
M  V30 5556 H 551.473 -0.863007 4.52646 0
M  V30 5557 H 549.788 -0.934685 4.05774 0
M  V30 5558 H 552.385 -3.70838 3.85205 0
M  V30 5559 H 552.728 -3.56764 2.14534 0
M  V30 5560 H 553.261 -2.28342 3.25737 0
M  V30 5561 H 550 -2.00214 6.24175 0
M  V30 5562 H 549.52 -3.23367 5.05167 0
M  V30 5563 H 551.199 -3.16639 5.64224 0
M  V30 5564 N 551.331 -1.39911 -0.725443 0
M  V30 5565 C 552.571 -1.39096 -1.49772 0
M  V30 5566 C 552.935 0.0106452 -1.91997 0
M  V30 5567 O 554.136 0.143859 -2.68415 0
M  V30 5568 C 552.407 -2.34441 -2.69764 0
M  V30 5569 S 553.966 -2.51898 -3.59295 0
M  V30 5570 H 550.784 -0.49314 -0.512186 0
M  V30 5571 H 553.386 -1.76093 -0.849197 0
M  V30 5572 H 552.09 -3.35123 -2.36898 0
M  V30 5573 H 551.621 -1.98692 -3.39537 0
M  V30 5574 H 553.636 -1.76402 -4.63785 0
M  V30 5575 N 552.809 0.956637 -1.25245 0
M  V30 5576 C 553.756 2.053 -1.05454 0
M  V30 5577 C 554.726 1.66062 0.0356889 0
M  V30 5578 O 555.911 1.90415 -0.121099 0
M  V30 5579 C 553.051 3.38391 -0.677191 0
M  V30 5580 C 552.164 3.90758 -1.84206 0
M  V30 5581 C 551.299 5.12165 -1.40926 0
M  V30 5582 C 550.338 5.56757 -2.54338 0
M  V30 5583 N 549.475 6.69376 -2.11848 0
M  V30 5584 H 554.315 2.21562 -1.99284 0
M  V30 5585 H 551.852 1.08578 -0.992434 0
M  V30 5586 H 553.81 4.1488 -0.43938 0
M  V30 5587 H 552.44 3.22021 0.224127 0
M  V30 5588 H 551.492 3.10808 -2.19323 0
M  V30 5589 H 552.804 4.19802 -2.69383 0
M  V30 5590 H 551.958 5.96065 -1.13098 0
M  V30 5591 H 550.697 4.84832 -0.528175 0
M  V30 5592 H 549.702 4.71423 -2.82913 0
M  V30 5593 H 550.927 5.861 -3.43022 0
M  V30 5594 H 548.873 6.43756 -1.26153 0
M  V30 5595 H 548.79 6.97927 -2.90574 0
M  V30 5596 H 550.058 7.5669 -1.87191 0
M  V30 5597 N 554.287 1.06798 1.15896 0
M  V30 5598 C 555.517 0.807522 1.90165 0
M  V30 5599 C 555.925 -0.642417 1.7796 0
M  V30 5600 O 555.268 -1.45193 1.12537 0
M  V30 5601 C 555.33 1.12939 3.41299 0
M  V30 5602 C 554.994 2.57879 3.7729 0
M  V30 5603 C 555.991 3.56118 3.78782 0
M  V30 5604 C 553.676 2.93311 4.07767 0
M  V30 5605 C 555.67 4.87827 4.10248 0
M  V30 5606 C 553.357 4.25219 4.38899 0
M  V30 5607 C 554.355 5.22287 4.4012 0
M  V30 5608 O 554.043 6.51826 4.70508 0
M  V30 5609 H 553.775 0.291946 0.609708 0
M  V30 5610 H 556.329 1.42627 1.47806 0
M  V30 5611 H 554.559 0.45359 3.84031 0
M  V30 5612 H 556.248 0.852363 3.9685 0
M  V30 5613 H 557.014 3.30086 3.55342 0
M  V30 5614 H 552.893 2.18409 4.05979 0
M  V30 5615 H 556.437 5.63586 4.11116 0
M  V30 5616 H 552.334 4.51006 4.61805 0
M  V30 5617 H 553.102 6.56893 4.88298 0
M  V30 5618 N 555.766 -1.3263 0.851289 0
M  V30 5619 C 556.713 -2.28952 0.291469 0
M  V30 5620 C 557.683 -1.54897 -0.599676 0
M  V30 5621 O 558.868 -1.83137 -0.535305 0
M  V30 5622 C 556.008 -3.41206 -0.516992 0
M  V30 5623 C 555.121 -4.30148 0.399566 0
M  V30 5624 C 554.256 -5.29527 -0.4212 0
M  V30 5625 C 553.295 -6.10112 0.492969 0
M  V30 5626 N 552.432 -7.01499 -0.290414 0
M  V30 5627 H 557.272 -2.76228 1.11813 0
M  V30 5628 H 554.809 -1.35907 0.562826 0
M  V30 5629 H 556.767 -4.05005 -1.00132 0
M  V30 5630 H 555.397 -2.9509 -1.30851 0
M  V30 5631 H 554.449 -3.66959 1.00227 0
M  V30 5632 H 555.761 -4.8649 1.1013 0
M  V30 5633 H 554.915 -5.98914 -0.968832 0
M  V30 5634 H 553.654 -4.73794 -1.15632 0
M  V30 5635 H 552.659 -5.39632 1.05251 0
M  V30 5636 H 553.884 -6.6793 1.22664 0
M  V30 5637 H 551.83 -6.48199 -1.00868 0
M  V30 5638 H 551.747 -7.55178 0.352354 0
M  V30 5639 H 553.015 -7.75176 -0.819882 0
M  V30 5640 N 557.244 -0.608902 -1.45362 0
M  V30 5641 C 558.49 -0.104762 -2.02529 0
M  V30 5642 C 558.823 1.26191 -1.47613 0
M  V30 5643 O 558.098 1.8327 -0.65134 0
M  V30 5644 C 558.381 -0.0672661 -3.60037 0
M  V30 5645 C 558.234 -1.4647 -4.25284 0
M  V30 5646 C 559.553 0.619877 -4.35713 0
M  V30 5647 H 556.672 -0.0395438 -0.735938 0
M  V30 5648 H 559.314 -0.781126 -1.73201 0
M  V30 5649 H 557.464 0.50871 -3.85155 0
M  V30 5650 H 559.136 -2.08785 -4.11347 0
M  V30 5651 H 557.379 -2.02502 -3.83634 0
M  V30 5652 H 558.05 -1.39069 -5.34195 0
M  V30 5653 H 560.526 0.130297 -4.15896 0
M  V30 5654 H 559.402 0.615224 -5.45441 0
M  V30 5655 H 559.663 1.68621 -4.0868 0
M  V30 5656 N 558.722 1.53707 -0.348139 0
M  V30 5657 C 559.999 1.93247 0.302475 0
M  V30 5658 C 560.379 1.28012 1.67857 0
M  V30 5659 O 559.727 0.43274 2.24365 0
M  V30 5660 C 559.937 3.47031 0.370159 0
M  V30 5661 C 561.285 4.20066 0.61882 0
M  V30 5662 O 562.309 3.53319 0.452087 0
M  V30 5663 O 561.168 5.38318 0.94215 0
M  V30 5664 H 558.262 0.807736 0.177458 0
M  V30 5665 H 560.808 1.64927 -0.399651 0
M  V30 5666 H 559.58 3.86745 -0.59534 0
M  V30 5667 H 559.203 3.81532 1.11888 0
M  V30 5668 N 560.2 0.0768682 1.57412 0
M  V30 5669 C 561.44 -0.594676 1.95558 0
M  V30 5670 C 561.804 -1.66469 0.956658 0
M  V30 5671 O 563.005 -2.39215 1.22595 0
M  V30 5672 C 561.276 -1.15206 3.38323 0
M  V30 5673 S 562.835 -1.83803 3.9845 0
M  V30 5674 H 559.653 -0.194579 0.683857 0
M  V30 5675 H 562.255 0.151933 1.94909 0
M  V30 5676 H 560.959 -0.36153 4.08805 0
M  V30 5677 H 560.49 -1.93491 3.42527 0
M  V30 5678 H 562.505 -3.12087 3.85767 0
M  V30 5679 N 561.678 -1.56367 -0.196722 0
M  V30 5680 C 562.588 -1.97617 -1.2643 0
M  V30 5681 C 563.604 -0.883598 -1.49895 0
M  V30 5682 O 564.78 -1.18921 -1.62541 0
M  V30 5683 C 561.845 -2.30595 -2.58895 0
M  V30 5684 C 560.906 -3.53551 -2.43516 0
M  V30 5685 C 560.139 -3.84946 -3.69665 0
M  V30 5686 O 560.362 -3.17655 -4.73763 0
M  V30 5687 O 559.296 -4.78379 -3.65291 0
M  V30 5688 H 563.122 -2.88648 -0.944233 0
M  V30 5689 H 560.707 -1.43901 -0.401592 0
M  V30 5690 H 562.589 -2.52889 -3.37083 0
M  V30 5691 H 561.264 -1.42732 -2.90533 0
M  V30 5692 H 560.171 -3.36507 -1.63445 0
M  V30 5693 H 561.504 -4.41875 -2.16812 0
M  V30 5694 N 563.156 0.464375 -1.50603 0
M  V30 5695 C 564.119 1.54393 -1.69397 0
M  V30 5696 C 565.119 1.50566 -0.564504 0
M  V30 5697 O 566.309 1.53066 -0.831645 0
M  V30 5698 C 563.441 2.9401 -1.72543 0
M  V30 5699 H 564.634 1.39044 -2.65719 0
M  V30 5700 H 562.187 0.69122 -1.40185 0
M  V30 5701 H 562.922 3.14795 -0.77938 0
M  V30 5702 H 562.707 2.98195 -2.54602 0
M  V30 5703 H 564.197 3.72375 -1.89015 0
M  V30 5704 N 564.634 1.40294 0.718013 0
M  V30 5705 C 565.88 1.38645 1.48005 0
M  V30 5706 C 566.213 -0.0121202 1.94196 0
M  V30 5707 O 565.488 -0.980309 1.67989 0
M  V30 5708 C 565.771 2.37379 2.70782 0
M  V30 5709 C 565.624 3.8625 2.30501 0
M  V30 5710 C 566.943 2.33685 3.72933 0
M  V30 5711 H 564.062 0.504928 0.536858 0
M  V30 5712 H 566.704 1.71411 0.819649 0
M  V30 5713 H 564.854 2.09568 3.27129 0
M  V30 5714 H 566.526 4.24879 1.79655 0
M  V30 5715 H 564.769 4.02202 1.6253 0
M  V30 5716 H 565.44 4.50847 3.18498 0
M  V30 5717 H 567.916 2.58314 3.2621 0
M  V30 5718 H 566.792 3.0482 4.56482 0
M  V30 5719 H 567.053 1.34765 4.21059 0
M  V30 5720 N 566.112 -0.949982 1.2575 0
M  V30 5721 C 567.528 -1.22191 1.02672 0
M  V30 5722 C 567.728 -1.99898 -0.253588 0
M  V30 5723 O 566.784 -2.33329 -0.965076 0
M  V30 5724 C 568.097 -1.99175 2.25277 0
M  V30 5725 C 569.645 -2.12201 2.30087 0
M  V30 5726 C 570.12 -2.92586 3.5236 0
M  V30 5727 N 571.611 -3.00163 3.52784 0
M  V30 5728 C 572.346 -3.62766 4.44059 0
M  V30 5729 N 571.842 -4.26943 5.45611 0
M  V30 5730 N 573.635 -3.59953 4.3173 0
M  V30 5731 H 565.786 -0.430258 2.07996 0
M  V30 5732 H 568.049 -0.252844 0.91366 0
M  V30 5733 H 567.755 -1.49479 3.18354 0
M  V30 5734 H 567.629 -2.99868 2.28821 0
M  V30 5735 H 570.016 -2.61093 1.3753 0
M  V30 5736 H 570.097 -1.10799 2.30559 0
M  V30 5737 H 569.741 -2.44383 4.45241 0
M  V30 5738 H 569.671 -3.94224 3.49134 0
M  V30 5739 H 572.162 -2.54529 2.79327 0
M  V30 5740 H 572.475 -4.72583 6.11461 0
M  V30 5741 H 570.82 -4.25557 5.49478 0
M  V30 5742 H 574.011 -3.09003 3.51617 0
M  V30 5743 H 574.184 -4.08455 5.03059 0
M  V30 5744 N 567.59 -1.07411 -1.15328 0
M  V30 5745 C 568.838 -0.796073 -1.85761 0
M  V30 5746 C 569.159 0.679864 -1.82764 0
M  V30 5747 O 568.429 1.49242 -1.269 0
M  V30 5748 H 567.009 -0.291495 -0.687779 0
M  V30 5749 H 569.671 -1.35799 -1.39802 0
M  V30 5750 H 568.767 -1.13114 -2.90881 0
M  V30 5751 N 569.068 1.32177 -0.85831 0
M  V30 5752 C 570.345 1.91781 -0.384624 0
M  V30 5753 C 570.725 1.78171 1.13217 0
M  V30 5754 O 570.073 1.18209 1.95548 0
M  V30 5755 C 570.283 3.38414 -0.853047 0
M  V30 5756 C 571.631 4.15542 -0.872359 0
M  V30 5757 O 572.655 3.47148 -0.797926 0
M  V30 5758 O 571.514 5.37678 -0.978009 0
M  V30 5759 H 568.608 0.819259 -0.112886 0
M  V30 5760 H 571.154 1.40923 -0.945453 0
M  V30 5761 H 569.926 3.4228 -1.89632 0
M  V30 5762 H 569.549 3.96683 -0.269874 0
M  V30 5763 N 570.547 0.616602 1.45037 0
M  V30 5764 C 571.796 0.112861 2.01384 0
M  V30 5765 C 572.109 -1.26758 1.48969 0
M  V30 5766 O 573.315 -1.86454 1.9735 0
M  V30 5767 C 571.771 0.151057 3.59583 0
M  V30 5768 C 571.379 1.53191 4.20995 0
M  V30 5769 C 573.123 -0.296974 4.2346 0
M  V30 5770 C 571.03 1.526 5.71373 0
M  V30 5771 H 569.96 0.0384254 0.75302 0
M  V30 5772 H 572.611 0.773262 1.66412 0
M  V30 5773 H 570.993 -0.57617 3.91786 0
M  V30 5774 H 572.167 2.28156 4.00352 0
M  V30 5775 H 570.482 1.92279 3.69348 0
M  V30 5776 H 573.079 -0.320712 5.33737 0
M  V30 5777 H 573.422 -1.32145 3.9477 0
M  V30 5778 H 573.955 0.377279 3.96007 0
M  V30 5779 H 570.694 2.52837 6.04776 0
M  V30 5780 H 570.214 0.819064 5.94181 0
M  V30 5781 H 571.893 1.25357 6.3474 0
M  V30 5782 N 572.025 -1.5352 0.356285 0
M  V30 5783 C 573.272 -2.01117 -0.236303 0
M  V30 5784 C 573.6 -1.24381 -1.49531 0
M  V30 5785 O 572.855 -0.323057 -1.93015 0
M  V30 5786 C 573.154 -3.52607 -0.583369 0
M  V30 5787 C 572.82 -4.47151 0.58023 0
M  V30 5788 C 571.482 -4.72718 0.899528 0
M  V30 5789 C 573.834 -5.03137 1.36024 0
M  V30 5790 C 571.162 -5.51523 2.00098 0
M  V30 5791 C 573.514 -5.83145 2.45204 0
M  V30 5792 C 572.178 -6.07001 2.77679 0
M  V30 5793 H 571.448 -0.735938 -0.0864695 0
M  V30 5794 H 574.095 -1.85209 0.48683 0
M  V30 5795 H 572.4 -3.66413 -1.38739 0
M  V30 5796 H 574.097 -3.86901 -1.05397 0
M  V30 5797 H 570.687 -4.27394 0.321322 0
M  V30 5798 H 574.871 -4.83339 1.12682 0
M  V30 5799 H 570.127 -5.68229 2.25668 0
M  V30 5800 H 574.301 -6.25537 3.06067 0
M  V30 5801 H 571.928 -6.67851 3.63151 0
M  V30 5802 N 573.503 -0.0852151 -1.57369 0
M  V30 5803 C 574.451 0.894856 -2.14698 0
M  V30 5804 C 575.445 1.29903 -1.08727 0
M  V30 5805 O 576.651 1.27471 -1.27088 0
M  V30 5806 H 573.026 0.306569 -0.686673 0
M  V30 5807 H 574.997 0.386542 -2.95886 0
M  V30 5808 C 573.746 2.14798 -2.73417 0
M  V30 5809 H 573.069 1.84585 -3.54638 0
M  V30 5810 H 574.509 2.81456 -3.1711 0
M  V30 5811 C 572.968 2.91546 -1.68828 0
M  V30 5812 O 573.498 3.85733 -1.12129 0
M  V30 5813 N 571.704 2.54901 -1.39549 0
M  V30 5814 H 571.251 1.7838 -1.85845 0
M  V30 5815 H 571.209 3.06553 -0.698054 0
M  V30 5816 N 574.981 1.5647 0.188427 0
M  V30 5817 C 575.913 1.91611 1.25769 0
M  V30 5818 C 576.926 0.807436 1.41366 0
M  V30 5819 O 578.115 1.08586 1.41673 0
M  V30 5820 C 575.215 2.13874 2.6289 0
M  V30 5821 C 574.388 3.45047 2.68815 0
M  V30 5822 C 573.447 3.56342 3.87178 0
M  V30 5823 O 572.473 4.29109 3.73971 0
M  V30 5824 N 573.675 2.89924 5.02916 0
M  V30 5825 H 576.44 2.8393 0.959373 0
M  V30 5826 H 574.001 1.57418 0.378306 0
M  V30 5827 H 575.993 2.18713 3.4051 0
M  V30 5828 H 574.563 1.28022 2.85183 0
M  V30 5829 H 573.783 3.52017 1.77419 0
M  V30 5830 H 575.071 4.31395 2.6977 0
M  V30 5831 H 574.469 2.30644 5.16546 0
M  V30 5832 H 573.026 3.0038 5.78459 0
M  V30 5833 N 576.459 -0.456382 1.50847 0
M  V30 5834 C 577.705 -1.20914 1.62811 0
M  V30 5835 C 578.038 -1.91301 0.334304 0
M  V30 5836 O 577.313 -1.82775 -0.665098 0
M  V30 5837 C 577.596 -2.24122 2.81853 0
M  V30 5838 C 577.449 -1.57944 4.21158 0
M  V30 5839 C 578.768 -3.25295 2.96431 0
M  V30 5840 H 575.887 -0.438233 0.592554 0
M  V30 5841 H 578.529 -0.50091 1.83278 0
M  V30 5842 H 576.679 -2.84524 2.64534 0
M  V30 5843 H 578.351 -1.01025 4.50102 0
M  V30 5844 H 576.594 -0.882185 4.24735 0
M  V30 5845 H 577.265 -2.33014 5.00408 0
M  V30 5846 H 579.741 -2.7493 3.12335 0
M  V30 5847 H 578.617 -3.94822 3.81322 0
M  V30 5848 H 578.878 -3.90286 2.07676 0
M  V30 5849 N 577.937 -1.40673 -0.710563 0
M  V30 5850 C 579.183 -1.39428 -1.47267 0
M  V30 5851 C 579.516 0.00182129 -1.942 0
M  V30 5852 O 578.791 0.971387 -1.68506 0
M  V30 5853 C 579.074 -2.38812 -2.6952 0
M  V30 5854 C 578.927 -3.87467 -2.28449 0
M  V30 5855 C 580.246 -2.3566 -3.71689 0
M  V30 5856 H 577.365 -0.507768 -0.534173 0
M  V30 5857 H 580.007 -1.71843 -0.810547 0
M  V30 5858 H 578.157 -2.113 -3.26013 0
M  V30 5859 H 579.829 -4.25825 -1.77399 0
M  V30 5860 H 578.072 -4.03058 -1.60395 0
M  V30 5861 H 578.743 -4.5253 -3.16103 0
M  V30 5862 H 581.219 -2.6004 -3.24836 0
M  V30 5863 H 580.095 -3.07237 -4.54859 0
M  V30 5864 H 580.356 -1.36996 -4.20339 0
M  V30 5865 N 579.415 0.9433 -1.26252 0
M  V30 5866 C 580.826 1.50404 -1.10614 0
M  V30 5867 C 581.177 1.93666 0.31429 0
M  V30 5868 O 580.302 1.79709 1.20555 0
M  V30 5869 C 580.897 2.73336 -2.00182 0
M  V30 5870 C 579.456 3.25686 -1.88695 0
M  V30 5871 C 578.603 1.98474 -1.93658 0
M  V30 5872 H 581.554 0.759006 -1.39373 0
M  V30 5873 H 581.575 3.47567 -1.54847 0
M  V30 5874 H 581.087 2.41818 -3.03555 0
M  V30 5875 H 579.188 3.61998 -0.882489 0
M  V30 5876 H 579.301 3.92935 -2.74115 0
M  V30 5877 H 577.665 2.14278 -1.37684 0
M  V30 5878 H 578.448 1.6929 -2.98657 0
M  V30 5879 N 580.893 1.08022 1.14757 0
M  V30 5880 C 582.309 0.807072 1.3769 0
M  V30 5881 C 582.509 -0.585504 1.92806 0
M  V30 5882 O 581.565 -1.34301 2.13821 0
M  V30 5883 C 582.878 1.88651 2.34161 0
M  V30 5884 C 584.426 1.91206 2.47809 0
M  V30 5885 C 584.901 2.98253 3.47576 0
M  V30 5886 N 586.392 2.974 3.55117 0
M  V30 5887 C 587.127 3.76872 4.32152 0
M  V30 5888 N 586.623 4.66212 5.12463 0
M  V30 5889 N 588.416 3.6519 4.27309 0
M  V30 5890 H 580.567 1.97824 0.77326 0
M  V30 5891 H 582.83 0.85826 0.402608 0
M  V30 5892 H 582.536 2.88749 2.00791 0
M  V30 5893 H 582.41 1.75244 3.3402 0
M  V30 5894 H 584.797 0.917564 2.80472 0
M  V30 5895 H 584.878 2.08691 1.47925 0
M  V30 5896 H 584.522 3.97907 3.15646 0
M  V30 5897 H 584.452 2.78014 4.47231 0
M  V30 5898 H 586.943 2.32643 2.97801 0
M  V30 5899 H 587.256 5.23468 5.68508 0
M  V30 5900 H 585.601 4.70257 5.11745 0
M  V30 5901 H 588.792 2.94765 3.63636 0
M  V30 5902 H 588.965 4.27366 4.87095 0
M  V30 5903 N 582.371 -1.3172 0.865308 0
M  V30 5904 C 583.611 -1.98675 0.480365 0
M  V30 5905 C 583.975 -1.66929 -0.948621 0
M  V30 5906 O 585.176 -2.27059 -1.43867 0
M  V30 5907 C 583.447 -3.49972 0.724858 0
M  V30 5908 S 585.006 -4.36598 0.439078 0
M  V30 5909 H 581.824 -0.687967 0.179506 0
M  V30 5910 H 584.426 -1.60215 1.12033 0
M  V30 5911 H 583.13 -3.70567 1.76375 0
M  V30 5912 H 582.661 -3.93335 0.0717173 0
M  V30 5913 H 584.676 -4.90792 -0.730564 0
M  V30 5914 N 583.85 -0.624285 -1.44708 0
M  V30 5915 C 585.26 -0.2092 -1.85524 0
M  V30 5916 C 585.611 1.23783 -1.52225 0
M  V30 5917 O 584.736 1.94089 -0.956986 0
M  V30 5918 C 585.332 -0.372897 -3.36742 0
M  V30 5919 C 583.891 -0.012374 -3.76398 0
M  V30 5920 C 583.038 -0.68951 -2.68591 0
M  V30 5921 H 585.989 -0.829894 -1.35272 0
M  V30 5922 H 586.01 0.390134 -3.78495 0
M  V30 5923 H 585.522 -1.42615 -3.60947 0
M  V30 5924 H 583.623 1.03941 -3.57809 0
M  V30 5925 H 583.736 -0.417663 -4.77276 0
M  V30 5926 H 582.1 -0.125484 -2.54391 0
M  V30 5927 H 582.883 -1.74522 -2.9563 0
M  V30 5928 N 585.328 1.53329 -0.364422 0
M  V30 5929 C 586.744 1.59594 -0.0133165 0
M  V30 5930 C 586.944 1.37959 1.46865 0
M  V30 5931 O 586 1.18418 2.2301 0
M  V30 5932 C 587.313 2.97032 -0.468213 0
M  V30 5933 C 588.861 3.10138 -0.422334 0
M  V30 5934 C 589.336 4.49986 -0.853024 0
M  V30 5935 N 590.827 4.56098 -0.808037 0
M  V30 5936 C 591.562 5.62495 -1.11299 0
M  V30 5937 N 591.058 6.7665 -1.48717 0
M  V30 5938 N 592.851 5.52473 -1.03586 0
M  V30 5939 H 585.002 1.65644 -1.32951 0
M  V30 5940 H 587.265 0.77684 -0.543345 0
M  V30 5941 H 586.971 3.18 -1.5023 0
M  V30 5942 H 586.845 3.76918 0.145775 0
M  V30 5943 H 589.232 2.88881 0.602622 0
M  V30 5944 H 589.313 2.32263 -1.0718 0
M  V30 5945 H 588.957 4.7198 -1.87609 0
M  V30 5946 H 588.887 5.26289 -0.180819 0
M  V30 5947 H 591.378 3.74131 -0.532361 0
M  V30 5948 H 591.691 7.53776 -1.70415 0
M  V30 5949 H 590.036 6.78044 -1.52581 0
M  V30 5950 H 593.227 4.6217 -0.742736 0
M  V30 5951 H 593.4 6.35295 -1.27686 0
M  V30 5952 N 586.806 0.0935595 1.57322 0
M  V30 5953 C 588.046 -0.573901 1.96178 0
M  V30 5954 C 588.41 -1.65445 0.97426 0
M  V30 5955 O 589.611 -2.37901 1.25126 0
M  V30 5956 C 587.882 -1.11612 3.39526 0
M  V30 5957 S 589.441 -1.79566 4.00377 0
M  V30 5958 H 586.259 -0.187315 0.685882 0
M  V30 5959 H 588.861 0.172597 1.94737 0
M  V30 5960 H 587.565 -0.31815 4.09165 0
M  V30 5961 H 587.096 -1.89848 3.4456 0
M  V30 5962 H 589.111 -3.07978 3.89056 0
M  V30 5963 N 588.284 -1.56567 -0.180126 0
M  V30 5964 C 589.695 -1.7126 -0.743422 0
M  V30 5965 C 590.046 -0.70263 -1.83187 0
M  V30 5966 O 589.171 0.137856 -2.1596 0
M  V30 5967 C 589.766 -3.10512 -1.35528 0
M  V30 5968 C 588.325 -3.26919 -1.8655 0
M  V30 5969 C 587.472 -2.67213 -0.741099 0
M  V30 5970 H 590.423 -1.58636 0.0451543 0
M  V30 5971 H 590.444 -3.08673 -2.22489 0
M  V30 5972 H 589.956 -3.83997 -0.562862 0
M  V30 5973 H 588.057 -2.58376 -2.68464 0
M  V30 5974 H 588.17 -4.34574 -2.01699 0
M  V30 5975 H 586.534 -2.26788 -1.15927 0
M  V30 5976 H 587.317 -3.43277 0.0393291 0
M  V30 5977 N 589.762 0.448376 -1.51087 0
M  V30 5978 C 590.725 1.52588 -1.71025 0
M  V30 5979 C 591.725 1.49958 -0.580442 0
M  V30 5980 O 592.915 1.52176 -0.847833 0
M  V30 5981 C 590.047 2.92163 -1.75652 0
M  V30 5982 H 591.24 1.36218 -2.67179 0
M  V30 5983 H 588.793 0.676313 -1.4091 0
M  V30 5984 H 589.528 3.13951 -0.812724 0
M  V30 5985 H 589.313 2.95478 -2.57751 0
M  V30 5986 H 590.803 3.70349 -1.92953 0
M  V30 5987 N 591.24 1.41047 0.703093 0
M  V30 5988 C 592.517 1.30493 1.45708 0
M  V30 5989 C 592.897 -0.0709892 2.10981 0
M  V30 5990 O 592.245 -1.08471 2.01113 0
M  V30 5991 C 592.455 2.45287 2.48265 0
M  V30 5992 C 593.803 2.86104 3.13735 0
M  V30 5993 O 594.827 2.44971 2.58587 0
M  V30 5994 O 593.686 3.57206 4.13601 0
M  V30 5995 H 590.78 0.513144 0.648546 0
M  V30 5996 H 593.326 1.52995 0.734208 0
M  V30 5997 H 592.098 3.37135 1.98635 0
M  V30 5998 H 591.721 2.24622 3.28071 0
M  V30 5999 N 592.718 -0.936591 1.26751 0
M  V30 6000 C 593.628 -2.06949 1.10496 0
M  V30 6001 C 594.644 -1.7396 0.037271 0
M  V30 6002 O 595.82 -1.99941 0.241944 0
M  V30 6003 C 592.885 -3.38612 0.744491 0
M  V30 6004 C 591.946 -3.85355 1.89209 0
M  V30 6005 C 591.179 -5.10735 1.54873 0
M  V30 6006 O 591.402 -5.68602 0.452546 0
M  V30 6007 O 590.336 -5.52632 2.38499 0
M  V30 6008 H 594.162 -2.23571 2.05547 0
M  V30 6009 H 591.747 -1.05428 1.05855 0
M  V30 6010 H 593.629 -4.17711 0.556396 0
M  V30 6011 H 592.304 -3.23218 -0.176582 0
M  V30 6012 H 591.211 -3.07182 2.13518 0
M  V30 6013 H 592.544 -4.05277 2.79305 0
M  V30 6014 N 594.196 -1.08629 -1.14182 0
M  V30 6015 C 595.607 -0.838003 -1.66836 0
M  V30 6016 C 595.958 0.634885 -1.85644 0
M  V30 6017 O 595.083 1.49008 -1.56926 0
M  V30 6018 C 595.678 -1.51465 -3.03058 0
M  V30 6019 C 594.237 -1.31355 -3.52736 0
M  V30 6020 C 593.384 -1.57599 -2.28162 0
M  V30 6021 H 596.335 -1.24656 -0.982165 0
M  V30 6022 H 596.356 -0.943134 -3.68626 0
M  V30 6023 H 595.868 -2.58661 -2.89337 0
M  V30 6024 H 593.969 -0.262384 -3.71675 0
M  V30 6025 H 594.082 -2.04275 -4.33369 0
M  V30 6026 H 592.446 -0.997659 -2.34348 0
M  V30 6027 H 593.229 -2.66006 -2.17015 0
M  V30 6028 N 595.674 1.31259 -0.872281 0
M  V30 6029 C 596.604 2.30929 -0.345554 0
M  V30 6030 C 597.585 1.60449 0.5648 0
M  V30 6031 O 598.77 1.8814 0.481335 0
M  V30 6032 C 595.9 3.44348 0.451823 0
M  V30 6033 C 594.854 4.26435 -0.365641 0
M  V30 6034 C 594.18 5.31785 0.557562 0
M  V30 6035 C 595.48 4.97159 -1.60095 0
M  V30 6036 H 597.174 2.75234 -1.17841 0
M  V30 6037 H 594.72 1.3232 -0.568094 0
M  V30 6038 H 596.673 4.13128 0.830854 0
M  V30 6039 H 595.397 2.98816 1.31821 0
M  V30 6040 H 594.056 3.59326 -0.726649 0
M  V30 6041 H 593.704 4.82502 1.4213 0
M  V30 6042 H 593.404 5.87598 0.0144878 0
M  V30 6043 H 594.928 6.03424 0.933387 0
M  V30 6044 H 596.342 5.58523 -1.29323 0
M  V30 6045 H 594.739 5.62779 -2.08327 0
M  V30 6046 H 595.809 4.24012 -2.35249 0
M  V30 6047 N 597.152 0.631951 1.44375 0
M  V30 6048 C 598.115 -0.0628142 2.29114 0
M  V30 6049 C 599.115 -0.771494 1.41084 0
M  V30 6050 O 600.305 -0.615959 1.62947 0
M  V30 6051 C 597.437 -1.09953 3.22681 0
M  V30 6052 H 598.63 0.682509 2.92031 0
M  V30 6053 H 596.183 0.392128 1.51301 0
M  V30 6054 H 596.918 -1.87481 2.64616 0
M  V30 6055 H 596.703 -0.595286 3.87555 0
M  V30 6056 H 598.193 -1.58538 3.86336 0
M  V30 6057 N 598.631 -1.53133 0.372548 0
M  V30 6058 C 599.88 -2.00539 -0.216115 0
M  V30 6059 C 600.193 -1.26374 -1.49295 0
M  V30 6060 O 601.399 -1.64404 -2.16064 0
M  V30 6061 C 599.855 -3.57253 -0.435678 0
M  V30 6062 C 599.463 -4.40302 0.82693 0
M  V30 6063 C 601.207 -4.12995 -0.981618 0
M  V30 6064 C 599.114 -5.88583 0.576567 0
M  V30 6065 H 598.044 -0.749246 -0.084536 0
M  V30 6066 H 600.695 -1.76771 0.492364 0
M  V30 6067 H 599.077 -3.77202 -1.20559 0
M  V30 6068 H 600.251 -4.32124 1.60017 0
M  V30 6069 H 598.566 -3.95699 1.29659 0
M  V30 6070 H 601.163 -5.21418 -1.18436 0
M  V30 6071 H 601.506 -3.68027 -1.94581 0
M  V30 6072 H 602.039 -3.96871 -0.271696 0
M  V30 6073 H 598.778 -6.37841 1.51128 0
M  V30 6074 H 598.298 -5.99592 -0.158047 0
M  V30 6075 H 599.977 -6.46676 0.204722 0
M  V30 6076 N 600.109 -0.101901 -1.5727 0
M  V30 6077 C 601.042 0.891377 -2.10071 0
M  V30 6078 C 602.02 1.27197 -1.01291 0
M  V30 6079 O 603.204 1.37602 -1.28833 0
M  V30 6080 C 600.331 2.19049 -2.58331 0
M  V30 6081 C 599.377 1.95925 -3.78834 0
M  V30 6082 S 600.21 1.19106 -5.22086 0
M  V30 6083 C 601.366 2.50234 -5.73702 0
M  V30 6084 H 601.599 0.442212 -2.93993 0
M  V30 6085 H 599.132 0.111529 -1.53997 0
M  V30 6086 H 601.09 2.937 -2.86793 0
M  V30 6087 H 599.751 2.61086 -1.74622 0
M  V30 6088 H 598.944 2.92143 -4.10693 0
M  V30 6089 H 598.546 1.29401 -3.50901 0
M  V30 6090 H 600.838 3.46173 -5.82384 0
M  V30 6091 H 601.781 2.22944 -6.72088 0
M  V30 6092 H 602.189 2.58818 -5.01671 0
M  V30 6093 N 601.587 1.56661 0.17182 0
M  V30 6094 C 602.534 1.96371 1.21273 0
M  V30 6095 C 603.504 0.82756 1.44016 0
M  V30 6096 O 604.689 1.08764 1.56764 0
M  V30 6097 C 601.829 2.32838 2.54716 0
M  V30 6098 C 600.942 3.59628 2.39356 0
M  V30 6099 C 600.077 3.85311 3.65662 0
M  V30 6100 C 599.116 5.0545 3.45234 0
M  V30 6101 N 598.253 5.27268 4.63608 0
M  V30 6102 H 603.093 2.85106 0.86709 0
M  V30 6103 H 600.63 1.41073 0.416744 0
M  V30 6104 H 602.588 2.52004 3.3249 0
M  V30 6105 H 601.218 1.47214 2.87277 0
M  V30 6106 H 600.27 3.4838 1.52761 0
M  V30 6107 H 601.582 4.4756 2.20207 0
M  V30 6108 H 600.736 4.04841 4.51872 0
M  V30 6109 H 599.475 2.95753 3.8779 0
M  V30 6110 H 598.48 4.85819 2.5741 0
M  V30 6111 H 599.705 5.96538 3.24529 0
M  V30 6112 H 597.651 4.40662 4.85956 0
M  V30 6113 H 597.568 6.09422 4.4737 0
M  V30 6114 H 598.836 5.51277 5.51103 0
M  V30 6115 N 603.065 -0.440357 1.51323 0
M  V30 6116 C 604.476 -1.02032 1.56353 0
M  V30 6117 C 604.827 -1.92382 0.385197 0
M  V30 6118 O 603.952 -2.10583 -0.498373 0
M  V30 6119 C 604.547 -1.85723 2.83359 0
M  V30 6120 C 603.106 -2.38774 2.90971 0
M  V30 6121 C 602.253 -1.17908 2.50984 0
M  V30 6122 H 605.204 -0.221744 1.57143 0
M  V30 6123 H 605.225 -2.71141 2.66951 0
M  V30 6124 H 604.737 -1.19939 3.69102 0
M  V30 6125 H 602.838 -3.08021 2.09651 0
M  V30 6126 H 602.951 -2.71778 3.94555 0
M  V30 6127 H 601.315 -1.52347 2.04114 0
M  V30 6128 H 602.098 -0.537393 3.39068 0
M  V30 6129 N 604.543 -1.41418 -0.695603 0
M  V30 6130 C 605.453 -1.45622 -1.83933 0
M  V30 6131 C 606.469 -0.346825 -1.70508 0
M  V30 6132 O 607.645 -0.59454 -1.92424 0
M  V30 6133 C 604.71 -1.33627 -3.19914 0
M  V30 6134 C 603.771 -2.54882 -3.45447 0
M  V30 6135 C 603.004 -2.43449 -4.7494 0
M  V30 6136 O 603.227 -1.45905 -5.51424 0
M  V30 6137 O 602.161 -3.33206 -5.01256 0
M  V30 6138 H 605.987 -2.42114 -1.83342 0
M  V30 6139 H 603.572 -1.22956 -0.848658 0
M  V30 6140 H 605.454 -1.29221 -4.01098 0
M  V30 6141 H 604.129 -0.402508 -3.21188 0
M  V30 6142 H 603.036 -2.64865 -2.64192 0
M  V30 6143 H 604.369 -3.47087 -3.48987 0
M  V30 6144 N 606.021 0.929856 -1.27246 0
M  V30 6145 C 607.27 1.67182 -1.12842 0
M  V30 6146 C 607.583 1.9287 0.325666 0
M  V30 6147 O 608.789 2.64999 0.590572 0
M  V30 6148 C 607.245 3.01097 -1.97151 0
M  V30 6149 C 606.853 2.83115 -3.47203 0
M  V30 6150 C 608.597 3.78907 -1.91389 0
M  V30 6151 C 606.504 4.12573 -4.23719 0
M  V30 6152 H 605.434 0.627064 -0.418697 0
M  V30 6153 H 608.085 1.0332 -1.51649 0
M  V30 6154 H 606.467 3.66004 -1.51186 0
M  V30 6155 H 607.641 2.26989 -4.01015 0
M  V30 6156 H 605.956 2.18736 -3.54321 0
M  V30 6157 H 608.553 4.74837 -2.45834 0
M  V30 6158 H 608.896 4.0674 -0.887047 0
M  V30 6159 H 609.429 3.20794 -2.35237 0
M  V30 6160 H 606.168 3.8992 -5.26918 0
M  V30 6161 H 605.688 4.68371 -3.74685 0
M  V30 6162 H 607.367 4.8095 -4.32777 0
M  V30 6163 N 607.499 1.09233 1.13605 0
M  V30 6164 C 608.745 0.828385 1.8511 0
M  V30 6165 C 609.078 -0.64437 1.83198 0
M  V30 6166 O 608.353 -1.47428 1.26867 0
M  V30 6167 C 608.636 1.36167 3.33363 0
M  V30 6168 C 608.489 2.90038 3.438 0
M  V30 6169 C 609.808 0.993819 4.28732 0
M  V30 6170 H 606.927 0.30239 0.672108 0
M  V30 6171 H 609.569 1.35339 1.33355 0
M  V30 6172 H 607.719 0.9151 3.77569 0
M  V30 6173 H 609.391 3.43128 3.08319 0
M  V30 6174 H 607.634 3.27271 2.84739 0
M  V30 6175 H 608.305 3.22428 4.48045 0
M  V30 6176 H 610.781 1.37893 3.92587 0
M  V30 6177 H 609.657 1.39403 5.30903 0
M  V30 6178 H 609.918 -0.0982206 4.41991 0
M  V30 6179 N 608.977 -1.30795 0.87923 0
M  V30 6180 C 610.224 -1.96362 0.494786 0
M  V30 6181 C 610.552 -1.69448 -0.954868 0
M  V30 6182 O 609.807 -0.988711 -1.68888 0
M  V30 6183 C 610.106 -3.50287 0.709476 0
M  V30 6184 C 609.772 -3.9724 2.13333 0
M  V30 6185 C 608.434 -4.09772 2.52271 0
M  V30 6186 C 610.786 -4.21807 3.06151 0
M  V30 6187 C 608.114 -4.44227 3.83248 0
M  V30 6188 C 610.466 -4.5773 4.36654 0
M  V30 6189 C 609.13 -4.68469 4.75492 0
M  V30 6190 H 608.4 -0.71854 0.181055 0
M  V30 6191 H 611.047 -1.55764 1.11399 0
M  V30 6192 H 609.352 -3.91799 0.0072 0
M  V30 6193 H 611.049 -3.99082 0.391703 0
M  V30 6194 H 607.639 -3.87988 1.82107 0
M  V30 6195 H 611.823 -4.11611 2.77291 0
M  V30 6196 H 607.079 -4.50741 4.13089 0
M  V30 6197 H 611.253 -4.7569 5.08617 0
M  V30 6198 H 608.88 -4.94923 5.77022 0
M  V30 6199 N 610.455 -0.639598 -1.44038 0
M  V30 6200 C 611.702 -0.14748 -2.01962 0
M  V30 6201 C 612.03 1.23372 -1.50365 0
M  V30 6202 O 611.285 1.8345 -0.681501 0
M  V30 6203 C 611.584 -0.0925348 -3.5728 0
M  V30 6204 C 611.25 -1.41365 -4.28167 0
M  V30 6205 C 609.912 -1.77545 -4.47248 0
M  V30 6206 C 612.264 -2.2853 -4.68427 0
M  V30 6207 C 609.592 -3.00583 -5.03852 0
M  V30 6208 C 611.944 -3.50846 -5.26393 0
M  V30 6209 C 610.608 -3.8724 -5.43692 0
M  V30 6210 H 609.878 -0.0539666 -0.739032 0
M  V30 6211 H 612.525 -0.827599 -1.72694 0
M  V30 6212 H 610.83 0.670987 -3.86012 0
M  V30 6213 H 612.527 0.304891 -3.99839 0
M  V30 6214 H 609.117 -1.1221 -4.13651 0
M  V30 6215 H 613.301 -2.0187 -4.5339 0
M  V30 6216 H 608.557 -3.28846 -5.15432 0
M  V30 6217 H 612.731 -4.18616 -5.56537 0
M  V30 6218 H 610.358 -4.8266 -5.87319 0
M  V30 6219 N 611.933 1.52934 -0.380664 0
M  V30 6220 C 613.181 2.01069 0.203874 0
M  V30 6221 C 613.502 1.26922 1.4804 0
M  V30 6222 O 612.772 0.386787 1.92044 0
M  V30 6223 H 611.352 0.742882 0.0783279 0
M  V30 6224 H 614.014 1.88099 -0.510368 0
M  V30 6225 H 613.11 3.09258 0.42021 0
M  V30 6226 N 613.412 0.11024 1.57214 0
M  V30 6227 C 614.322 -0.857077 2.18383 0
M  V30 6228 C 615.338 -1.29915 1.1575 0
M  V30 6229 O 616.514 -1.36394 1.48184 0
M  V30 6230 C 613.579 -2.09264 2.76423 0
M  V30 6231 C 612.64 -1.70333 3.94063 0
M  V30 6232 C 611.873 -2.87999 4.49324 0
M  V30 6233 O 612.096 -4.0317 4.03497 0
M  V30 6234 O 611.03 -2.6559 5.40135 0
M  V30 6235 H 614.856 -0.366561 3.0148 0
M  V30 6236 H 612.441 -0.114914 1.48957 0
M  V30 6237 H 614.323 -2.81644 3.13456 0
M  V30 6238 H 612.998 -2.57339 1.96363 0
M  V30 6239 H 611.905 -0.950864 3.61814 0
M  V30 6240 H 613.238 -1.27007 4.75531 0
M  V30 6241 N 614.89 -1.56749 -0.16351 0
M  V30 6242 C 615.838 -1.97939 -1.22159 0
M  V30 6243 C 616.832 -0.869288 -1.45395 0
M  V30 6244 O 618.038 -1.05443 -1.45883 0
M  V30 6245 H 614.413 -0.629869 -0.410815 0
M  V30 6246 H 616.384 -2.86115 -0.847381 0
M  V30 6247 C 615.133 -2.36206 -2.55151 0
M  V30 6248 H 614.456 -3.2117 -2.38097 0
M  V30 6249 H 615.896 -2.68863 -3.27854 0
M  V30 6250 C 614.355 -1.20841 -3.14482 0
M  V30 6251 O 614.885 -0.500258 -3.98573 0
M  V30 6252 N 613.091 -0.976943 -2.73686 0
M  V30 6253 H 612.638 -1.55457 -2.05404 0
M  V30 6254 H 612.596 -0.206912 -3.13718 0
M  V30 6255 N 616.368 0.432326 -1.51554 0
M  V30 6256 C 617.298 1.53242 -1.76179 0
M  V30 6257 C 618.279 1.58717 -0.611801 0
M  V30 6258 O 619.464 1.74364 -0.855033 0
M  V30 6259 C 616.594 2.91278 -1.89141 0
M  V30 6260 C 615.548 3.00663 -3.04608 0
M  V30 6261 C 614.874 4.40728 -3.02759 0
M  V30 6262 C 616.174 2.74281 -4.44485 0
M  V30 6263 H 617.868 1.32886 -2.68294 0
M  V30 6264 H 615.414 0.637841 -1.29103 0
M  V30 6265 H 617.367 3.68203 -2.04951 0
M  V30 6266 H 616.091 3.12877 -0.936785 0
M  V30 6267 H 614.75 2.26179 -2.88511 0
M  V30 6268 H 614.398 4.59301 -2.05065 0
M  V30 6269 H 614.098 4.47936 -3.80299 0
M  V30 6270 H 615.622 5.19619 -3.20669 0
M  V30 6271 H 617.036 3.40936 -4.60907 0
M  V30 6272 H 615.433 2.92893 -5.23769 0
M  V30 6273 H 616.503 1.69856 -4.54177 0
M  V30 6274 N 617.846 1.41785 0.688094 0
M  V30 6275 C 619.257 1.3701 1.26828 0
M  V30 6276 C 619.608 0.056835 1.96118 0
M  V30 6277 O 618.733 -0.84475 1.99231 0
M  V30 6278 C 619.328 2.48168 2.30648 0
M  V30 6279 C 617.887 2.46766 2.84224 0
M  V30 6280 C 617.034 2.27633 1.58361 0
M  V30 6281 H 619.985 1.51192 0.482351 0
M  V30 6282 H 620.006 2.17655 3.121 0
M  V30 6283 H 619.518 3.43735 1.80188 0
M  V30 6284 H 617.619 1.54978 3.3884 0
M  V30 6285 H 617.732 3.43342 3.34145 0
M  V30 6286 H 616.096 1.75648 1.84445 0
M  V30 6287 H 616.879 3.25238 1.09887 0
M  V30 6288 N 619.324 -0.923095 1.27737 0
M  V30 6289 C 620.234 -2.05765 1.12685 0
M  V30 6290 C 621.25 -1.73911 0.0557197 0
M  V30 6291 O 622.426 -1.99674 0.263137 0
M  V30 6292 C 619.491 -3.37804 0.780363 0
M  V30 6293 C 618.552 -3.83326 1.93286 0
M  V30 6294 C 617.785 -5.09064 1.60281 0
M  V30 6295 O 618.008 -5.6809 0.512828 0
M  V30 6296 O 616.942 -5.50071 2.44347 0
M  V30 6297 H 620.768 -2.21378 2.07907 0
M  V30 6298 H 618.353 -1.04299 1.06968 0
M  V30 6299 H 620.235 -4.17097 0.600668 0
M  V30 6300 H 618.91 -3.23387 -0.142291 0
M  V30 6301 H 617.817 -3.049 2.16764 0
M  V30 6302 H 619.15 -4.02292 2.83588 0
M  V30 6303 N 620.802 -1.09834 -1.13024 0
M  V30 6304 C 621.734 -0.699379 -2.18269 0
M  V30 6305 C 622.747 0.260841 -1.60697 0
M  V30 6306 O 623.936 0.0462538 -1.7844 0
M  V30 6307 C 621.036 -0.0104537 -3.38898 0
M  V30 6308 C 620.209 -0.993275 -4.25973 0
M  V30 6309 C 619.268 -0.336982 -5.2512 0
M  V30 6310 O 618.294 -0.985892 -5.60597 0
M  V30 6311 N 619.496 0.90716 -5.73368 0
M  V30 6312 H 622.261 -1.60486 -2.5311 0
M  V30 6313 H 619.822 -0.986337 -1.28386 0
M  V30 6314 H 621.814 0.43991 -4.02302 0
M  V30 6315 H 620.384 0.797335 -3.0226 0
M  V30 6316 H 619.604 -1.62208 -3.5928 0
M  V30 6317 H 620.892 -1.65876 -4.81002 0
M  V30 6318 H 620.29 1.45384 -5.46699 0
M  V30 6319 H 618.847 1.30077 -6.38689 0
M  V30 6320 N 622.28 1.30327 -0.886154 0
M  V30 6321 C 623.527 1.96097 -0.505192 0
M  V30 6322 C 623.855 1.69952 0.945868 0
M  V30 6323 O 623.11 0.997653 1.68361 0
M  V30 6324 C 623.409 3.49906 -0.728042 0
M  V30 6325 C 623.075 3.96103 -2.15437 0
M  V30 6326 C 621.737 4.08428 -2.5444 0
M  V30 6327 C 624.089 4.20177 -3.08384 0
M  V30 6328 C 621.417 4.42189 -3.85598 0
M  V30 6329 C 623.769 4.55407 -4.39075 0
M  V30 6330 C 622.433 4.65941 -4.7797 0
M  V30 6331 H 621.703 0.71757 -0.184863 0
M  V30 6332 H 624.35 1.55171 -1.12223 0
M  V30 6333 H 622.655 3.9179 -0.027978 0
M  V30 6334 H 624.352 3.98869 -0.412862 0
M  V30 6335 H 620.942 3.87017 -1.84162 0
M  V30 6336 H 625.126 4.10134 -2.7947 0
M  V30 6337 H 620.382 4.48544 -4.15473 0
M  V30 6338 H 624.556 4.72986 -5.11133 0
M  V30 6339 H 622.183 4.91856 -5.79639 0
M  V30 6340 N 623.758 0.647228 1.43697 0
M  V30 6341 C 624.708 -0.0702191 2.27892 0
M  V30 6342 C 625.692 -0.800601 1.39568 0
M  V30 6343 O 626.884 -0.684055 1.63247 0
M  V30 6344 C 624.013 -1.04008 3.27165 0
M  V30 6345 C 623.099 -0.308484 4.22977 0
M  V30 6346 N 623.49 0.671721 5.0132 0
M  V30 6347 C 621.788 -0.550751 4.42586 0
M  V30 6348 C 622.489 1.10543 5.711 0
M  V30 6349 N 621.465 0.440903 5.41809 0
M  V30 6350 H 625.267 0.682031 2.85877 0
M  V30 6351 H 622.781 0.474022 1.55328 0
M  V30 6352 H 624.778 -1.56881 3.86256 0
M  V30 6353 H 623.438 -1.79246 2.70742 0
M  V30 6354 H 624.449 1.0502 5.0714 0
M  V30 6355 H 621.126 -1.28476 3.97241 0
M  V30 6356 H 622.516 1.91614 6.43998 0
M  V30 6357 N 625.236 -1.5273 0.388769 0
M  V30 6358 C 626.652 -1.59553 0.0387049 0
M  V30 6359 C 626.852 -1.40278 -1.44652 0
M  V30 6360 O 625.908 -1.21951 -2.21098 0
M  V30 6361 C 627.221 -2.9625 0.515409 0
M  V30 6362 C 628.769 -3.09426 0.471621 0
M  V30 6363 C 629.244 -4.48572 0.924505 0
M  V30 6364 N 630.735 -4.54754 0.880496 0
M  V30 6365 C 631.47 -5.60653 1.20234 0
M  V30 6366 N 630.966 -6.74198 1.59463 0
M  V30 6367 N 632.759 -5.50755 1.12363 0
M  V30 6368 H 624.91 -1.63508 1.35569 0
M  V30 6369 H 627.173 -0.768097 0.555636 0
M  V30 6370 H 626.879 -3.15569 1.5527 0
M  V30 6371 H 626.753 -3.77102 -0.085792 0
M  V30 6372 H 629.14 -2.89804 -0.556588 0
M  V30 6373 H 629.221 -2.30528 1.10862 0
M  V30 6374 H 628.865 -4.68936 1.95094 0
M  V30 6375 H 628.795 -5.25935 0.264524 0
M  V30 6376 H 631.286 -3.73237 0.591815 0
M  V30 6377 H 631.599 -7.5097 1.82385 0
M  V30 6378 H 629.944 -6.75531 1.63349 0
M  V30 6379 H 633.135 -4.6093 0.816169 0
M  V30 6380 H 633.308 -6.33184 1.37777 0
M  V30 6381 N 626.714 -0.118576 -1.57153 0
M  V30 6382 C 627.677 0.817464 -2.14127 0
M  V30 6383 C 628.677 1.1949 -1.07604 0
M  V30 6384 O 629.867 1.12048 -1.33382 0
M  V30 6385 C 626.999 2.10541 -2.68115 0
M  V30 6386 H 628.192 0.322339 -2.98163 0
M  V30 6387 H 625.745 0.130655 -1.55753 0
M  V30 6388 H 626.48 2.64485 -1.87665 0
M  V30 6389 H 626.265 1.84425 -3.4602 0
M  V30 6390 H 627.755 2.77453 -3.12105 0
M  V30 6391 N 628.193 1.56834 0.155195 0
M  V30 6392 C 629.126 1.9278 1.22111 0
M  V30 6393 C 630.104 0.792588 1.41975 0
M  V30 6394 O 631.288 1.04743 1.5672 0
M  V30 6395 C 628.415 2.19273 2.58142 0
M  V30 6396 C 627.461 3.41932 2.54921 0
M  V30 6397 S 628.294 4.95769 2.02418 0
M  V30 6398 C 629.45 5.25375 3.40194 0
M  V30 6399 H 629.683 2.82889 0.914393 0
M  V30 6400 H 627.216 1.50133 0.360461 0
M  V30 6401 H 629.174 2.35217 3.36427 0
M  V30 6402 H 627.835 1.29843 2.86007 0
M  V30 6403 H 627.028 3.57721 3.55038 0
M  V30 6404 H 626.63 3.25188 1.8474 0
M  V30 6405 H 628.922 5.1834 4.36268 0
M  V30 6406 H 629.865 6.26889 3.29266 0
M  V30 6407 H 630.273 4.52906 3.36951 0
M  V30 6408 N 629.671 -0.424282 1.51781 0
M  V30 6409 C 630.618 -1.51591 1.74037 0
M  V30 6410 C 631.588 -1.55556 0.582358 0
M  V30 6411 O 632.773 -1.72364 0.818245 0
M  V30 6412 C 629.913 -2.89188 1.8832 0
M  V30 6413 C 629.026 -2.9465 3.1592 0
M  V30 6414 C 628.161 -4.23452 3.20721 0
M  V30 6415 C 627.2 -4.22831 4.42584 0
M  V30 6416 N 626.337 -5.43178 4.44862 0
M  V30 6417 H 631.177 -1.31917 2.67212 0
M  V30 6418 H 628.714 -0.640599 1.32419 0
M  V30 6419 H 630.672 -3.69044 1.94583 0
M  V30 6420 H 629.302 -3.07392 0.985402 0
M  V30 6421 H 628.354 -2.07378 3.18902 0
M  V30 6422 H 629.666 -2.90055 4.05795 0
M  V30 6423 H 628.82 -5.1169 3.25973 0
M  V30 6424 H 627.559 -4.30722 2.28757 0
M  V30 6425 H 626.564 -3.32984 4.37495 0
M  V30 6426 H 627.789 -4.17213 5.35826 0
M  V30 6427 H 625.735 -5.51145 3.55775 0
M  V30 6428 H 625.652 -5.40515 5.28563 0
M  V30 6429 H 626.92 -6.33412 4.54324 0
M  V30 6430 N 631.149 -1.42148 -0.680565 0
M  V30 6431 C 632.379 -1.45485 -1.46689 0
M  V30 6432 C 632.787 -0.0629451 -1.89095 0
M  V30 6433 O 632.13 0.931397 -1.58337 0
M  V30 6434 C 632.192 -2.31397 -2.75129 0
M  V30 6435 C 631.856 -3.79353 -2.54834 0
M  V30 6436 C 632.853 -4.71148 -2.19808 0
M  V30 6437 C 630.538 -4.23557 -2.70008 0
M  V30 6438 C 632.532 -6.05139 -2.00215 0
M  V30 6439 C 630.219 -5.57609 -2.50031 0
M  V30 6440 C 631.217 -6.48216 -2.15187 0
M  V30 6441 O 630.905 -7.79792 -1.95397 0
M  V30 6442 H 630.637 -0.497139 -0.458071 0
M  V30 6443 H 633.191 -1.87252 -0.844139 0
M  V30 6444 H 631.421 -1.84468 -3.39865 0
M  V30 6445 H 633.11 -2.26257 -3.36991 0
M  V30 6446 H 633.876 -4.38282 -2.07686 0
M  V30 6447 H 629.755 -3.53327 -2.96109 0
M  V30 6448 H 633.299 -6.75823 -1.72941 0
M  V30 6449 H 629.196 -5.9005 -2.61748 0
M  V30 6450 H 629.964 -7.91091 -2.10042 0
M  V30 6451 N 632.627 0.916307 -1.28225 0
M  V30 6452 C 633.904 1.64429 -1.05936 0
M  V30 6453 C 634.284 2.07234 0.402139 0
M  V30 6454 O 633.632 1.81535 1.3877 0
M  V30 6455 C 633.842 2.83773 -2.03159 0
M  V30 6456 C 635.19 3.54852 -2.33164 0
M  V30 6457 O 636.214 2.93918 -2.01223 0
M  V30 6458 O 635.073 4.64663 -2.87664 0
M  V30 6459 H 632.167 0.721221 -0.404683 0
M  V30 6460 H 634.713 0.965838 -1.39534 0
M  V30 6461 H 633.485 2.49217 -3.01673 0
M  V30 6462 H 633.108 3.59333 -1.70192 0
M  V30 6463 N 634.105 1.10431 1.1244 0
M  V30 6464 C 635.052 0.753103 2.18167 0
M  V30 6465 C 636.022 -0.270549 1.63882 0
M  V30 6466 O 637.207 -0.149837 1.90211 0
M  V30 6467 C 634.347 0.191046 3.44571 0
M  V30 6468 C 633.46 1.26999 4.12911 0
M  V30 6469 C 632.595 0.669586 5.26963 0
M  V30 6470 C 631.634 1.72912 5.87169 0
M  V30 6471 N 630.771 1.14898 6.92635 0
M  V30 6472 H 635.611 1.65892 2.47556 0
M  V30 6473 H 633.148 0.828631 1.21541 0
M  V30 6474 H 635.106 -0.152712 4.1692 0
M  V30 6475 H 633.736 -0.677997 3.15599 0
M  V30 6476 H 632.788 1.73087 3.3874 0
M  V30 6477 H 634.1 2.07204 4.53727 0
M  V30 6478 H 633.254 0.275274 6.06075 0
M  V30 6479 H 631.993 -0.163895 4.87425 0
M  V30 6480 H 630.998 2.13286 5.06744 0
M  V30 6481 H 632.223 2.56544 6.28778 0
M  V30 6482 H 630.169 0.336956 6.55134 0
M  V30 6483 H 630.086 1.88786 7.32049 0
M  V30 6484 H 631.354 0.78121 7.75576 0
M  V30 6485 N 635.583 -1.29855 0.893053 0
M  V30 6486 C 636.86 -1.90694 0.435336 0
M  V30 6487 C 637.24 -1.8111 -1.08454 0
M  V30 6488 O 636.588 -1.23352 -1.92345 0
M  V30 6489 C 636.798 -3.36033 0.942472 0
M  V30 6490 C 638.146 -4.13083 0.982226 0
M  V30 6491 O 639.17 -3.4491 0.889686 0
M  V30 6492 O 638.029 -5.34896 1.12022 0
M  V30 6493 H 635.123 -0.815978 0.134567 0
M  V30 6494 H 637.669 -1.38367 0.982484 0
M  V30 6495 H 636.441 -3.37132 1.9864 0
M  V30 6496 H 636.064 -3.95828 0.374952 0
M  V30 6497 N 637.061 -0.65484 -1.43351 0
M  V30 6498 C 637.971 0.0363603 -2.34572 0
M  V30 6499 C 638.987 0.810432 -1.53974 0
M  V30 6500 O 640.163 0.757308 -1.86619 0
M  V30 6501 C 637.228 0.989733 -3.32273 0
M  V30 6502 C 636.289 0.212414 -4.28774 0
M  V30 6503 C 635.522 1.12038 -5.21808 0
M  V30 6504 O 635.745 2.35967 -5.19303 0
M  V30 6505 O 634.679 0.59191 -5.98982 0
M  V30 6506 H 638.505 -0.714527 -2.95175 0
M  V30 6507 H 636.09 -0.415029 -1.4352 0
M  V30 6508 H 637.972 1.53759 -3.92347 0
M  V30 6509 H 636.647 1.72082 -2.74171 0
M  V30 6510 H 635.554 -0.379062 -3.72175 0
M  V30 6511 H 636.887 -0.479138 -4.89862 0
M  V30 6512 N 638.539 1.52521 -0.396863 0
M  V30 6513 C 639.785 2.01971 0.183169 0
M  V30 6514 C 640.118 1.2825 1.45827 0
M  V30 6515 O 639.393 0.385179 1.90648 0
M  V30 6516 C 639.676 3.5736 0.443391 0
M  V30 6517 C 639.529 4.41743 -0.84753 0
M  V30 6518 C 640.848 4.22539 1.2308 0
M  V30 6519 H 637.967 0.734119 0.0650976 0
M  V30 6520 H 640.609 1.82519 -0.527918 0
M  V30 6521 H 638.759 3.74066 1.04914 0
M  V30 6522 H 640.431 4.36773 -1.48414 0
M  V30 6523 H 638.674 4.0845 -1.4612 0
M  V30 6524 H 639.345 5.48507 -0.620003 0
M  V30 6525 H 641.821 4.09857 0.718084 0
M  V30 6526 H 640.697 5.31227 1.38162 0
M  V30 6527 H 640.958 3.80675 2.24808 0
M  V30 6528 N 640.017 0.126909 1.57088 0
M  V30 6529 C 641.294 -0.573152 1.87014 0
M  V30 6530 C 641.674 -1.84297 1.02945 0
M  V30 6531 O 641.022 -2.28232 0.110573 0
M  V30 6532 C 641.232 -0.857984 3.38289 0
M  V30 6533 C 642.58 -1.20759 4.07066 0
M  V30 6534 O 643.604 -0.947992 3.43353 0
M  V30 6535 O 642.463 -1.69516 5.19545 0
M  V30 6536 H 639.557 -0.290082 0.774456 0
M  V30 6537 H 642.103 0.162008 1.68925 0
M  V30 6538 H 640.875 0.0415286 3.91278 0
M  V30 6539 H 640.498 -1.64803 3.61837 0
M  V30 6540 N 641.495 -1.56914 -0.146875 0
M  V30 6541 C 642.425 -2.01308 -1.1831 0
M  V30 6542 C 643.406 -0.892664 -1.44795 0
M  V30 6543 O 644.591 -1.16048 -1.55713 0
M  V30 6544 C 641.721 -2.3938 -2.51624 0
M  V30 6545 C 640.675 -3.54608 -2.3966 0
M  V30 6546 C 640.001 -3.78493 -3.77686 0
M  V30 6547 C 641.301 -4.87269 -1.88058 0
M  V30 6548 H 642.995 -2.88123 -0.813964 0
M  V30 6549 H 640.541 -1.38615 -0.3901 0
M  V30 6550 H 642.494 -2.69037 -3.24341 0
M  V30 6551 H 641.218 -1.49502 -2.90373 0
M  V30 6552 H 639.877 -3.25116 -1.69396 0
M  V30 6553 H 639.525 -2.85866 -4.13871 0
M  V30 6554 H 639.225 -4.56039 -3.70543 0
M  V30 6555 H 640.749 -4.10576 -4.51951 0
M  V30 6556 H 642.163 -5.15644 -2.50568 0
M  V30 6557 H 640.56 -5.68622 -1.91805 0
M  V30 6558 H 641.63 -4.77634 -0.836277 0
M  V30 6559 N 642.974 0.416227 -1.52004 0
M  V30 6560 C 643.904 1.51365 -1.77795 0
M  V30 6561 C 644.885 1.58059 -0.628601 0
M  V30 6562 O 646.07 1.73447 -0.873478 0
M  V30 6563 C 643.2 2.89256 -1.92219 0
M  V30 6564 C 642.154 2.97415 -3.0778 0
M  V30 6565 C 641.48 4.37492 -3.07417 0
M  V30 6566 C 642.78 2.69551 -4.47369 0
M  V30 6567 H 644.474 1.30033 -2.69688 0
M  V30 6568 H 642.02 0.624112 -1.29772 0
M  V30 6569 H 643.973 3.66008 -2.08845 0
M  V30 6570 H 642.697 3.11866 -0.969917 0
M  V30 6571 H 641.356 2.23107 -2.90893 0
M  V30 6572 H 641.004 4.571 -2.09925 0
M  V30 6573 H 640.704 4.43877 -3.85029 0
M  V30 6574 H 642.228 5.16188 -3.26162 0
M  V30 6575 H 643.642 3.36028 -4.64497 0
M  V30 6576 H 642.039 2.87321 -5.26846 0
M  V30 6577 H 643.109 1.65029 -4.55953 0
M  V30 6578 N 644.452 1.42507 0.673017 0
M  V30 6579 C 645.701 1.42364 1.42883 0
M  V30 6580 C 646.014 0.0441598 1.9555 0
M  V30 6581 O 647.22 -0.0798679 2.71382 0
M  V30 6582 C 645.676 2.5043 2.58482 0
M  V30 6583 C 645.284 3.94392 2.12506 0
M  V30 6584 C 647.028 2.59455 3.35981 0
M  V30 6585 C 644.935 4.93964 3.25198 0
M  V30 6586 H 643.865 0.52951 0.536782 0
M  V30 6587 H 646.516 1.68422 0.728448 0
M  V30 6588 H 644.898 2.1754 3.30896 0
M  V30 6589 H 646.072 4.36645 1.47233 0
M  V30 6590 H 644.387 3.89233 1.4794 0
M  V30 6591 H 646.984 3.31025 4.19912 0
M  V30 6592 H 647.327 1.63869 3.82691 0
M  V30 6593 H 647.86 2.91549 2.70637 0
M  V30 6594 H 644.599 5.91034 2.83477 0
M  V30 6595 H 644.119 4.56341 3.89247 0
M  V30 6596 H 645.798 5.15763 3.90637 0
M  V30 6597 N 645.93 -0.909495 1.28709 0
M  V30 6598 C 647.176 -1.66151 1.16283 0
M  V30 6599 C 647.509 -1.92067 -0.287069 0
M  V30 6600 O 646.784 -1.52409 -1.20837 0
M  V30 6601 C 647.067 -3.01676 1.9663 0
M  V30 6602 C 646.92 -2.82888 3.49707 0
M  V30 6603 C 648.239 -4.02274 1.78504 0
M  V30 6604 H 645.358 -0.602966 0.423793 0
M  V30 6605 H 648 -1.05418 1.58073 0
M  V30 6606 H 646.15 -3.53515 1.61119 0
M  V30 6607 H 647.822 -2.38026 3.95147 0
M  V30 6608 H 646.065 -2.17862 3.75125 0
M  V30 6609 H 646.736 -3.79147 4.01187 0
M  V30 6610 H 649.212 -3.59511 2.09503 0
M  V30 6611 H 648.088 -4.95056 2.37088 0
M  V30 6612 H 648.349 -4.35903 0.737647 0
M  V30 6613 N 647.408 -1.11026 -1.11852 0
M  V30 6614 C 648.657 -0.851249 -1.82857 0
M  V30 6615 C 648.97 0.62514 -1.85341 0
M  V30 6616 O 650.176 1.00026 -2.52403 0
M  V30 6617 C 648.632 -1.47309 -3.28372 0
M  V30 6618 C 648.24 -2.9832 -3.34229 0
M  V30 6619 C 649.984 -1.29373 -4.04306 0
M  V30 6620 C 647.891 -3.53509 -4.74115 0
M  V30 6621 H 646.821 -0.314794 -0.685143 0
M  V30 6622 H 649.472 -1.33499 -1.25898 0
M  V30 6623 H 647.854 -0.917017 -3.85236 0
M  V30 6624 H 649.028 -3.60295 -2.87271 0
M  V30 6625 H 647.343 -3.15482 -2.71772 0
M  V30 6626 H 649.94 -1.68042 -5.07608 0
M  V30 6627 H 650.283 -0.235879 -4.15631 0
M  V30 6628 H 650.816 -1.8182 -3.53817 0
M  V30 6629 H 647.555 -4.58987 -4.67986 0
M  V30 6630 H 647.075 -2.96305 -5.21501 0
M  V30 6631 H 648.754 -3.51693 -5.43066 0
M  V30 6632 N 648.886 1.2938 -0.899927 0
M  V30 6633 C 650.134 1.95164 -0.524924 0
M  V30 6634 C 650.455 1.71292 0.931888 0
M  V30 6635 O 649.725 1.04481 1.65712 0
M  V30 6636 H 648.305 0.722133 -0.191135 0
M  V30 6637 H 650.967 1.57628 -1.14627 0
M  V30 6638 H 650.063 3.0397 -0.707711 0
M  V30 6639 N 650.364 0.662433 1.43002 0
M  V30 6640 C 651.589 0.186003 2.06564 0
M  V30 6641 C 652.014 -1.14314 1.49379 0
M  V30 6642 O 651.372 -1.70824 0.607346 0
M  V30 6643 C 651.42 0.118269 3.60406 0
M  V30 6644 O 650.524 -0.916859 4.02079 0
M  V30 6645 H 649.865 0.0990981 0.656563 0
M  V30 6646 H 652.395 0.907958 1.8335 0
M  V30 6647 H 652.405 -0.0619981 4.07953 0
M  V30 6648 H 651.08 1.08849 4.01403 0
M  V30 6649 H 649.657 -0.708635 3.66105 0
M  V30 6650 N 651.842 -1.52309 0.404946 0
M  V30 6651 C 653.067 -2.06666 -0.1743 0
M  V30 6652 C 653.492 -1.27341 -1.38441 0
M  V30 6653 O 652.85 -0.302539 -1.78758 0
M  V30 6654 C 652.898 -3.57014 -0.507262 0
M  V30 6655 O 652.002 -3.80144 -1.59889 0
M  V30 6656 H 651.343 -0.663807 -0.0160273 0
M  V30 6657 H 653.873 -1.96297 0.576937 0
M  V30 6658 H 653.883 -4.00724 -0.767098 0
M  V30 6659 H 652.558 -4.14184 0.377368 0
M  V30 6660 H 651.135 -3.48316 -1.33155 0
M  V30 6661 N 653.32 -0.135238 -1.57019 0
M  V30 6662 C 654.25 0.805235 -2.19176 0
M  V30 6663 C 655.231 1.2656 -1.13651 0
M  V30 6664 O 656.416 1.32528 -1.4195 0
M  V30 6665 C 653.546 2.04914 -2.80406 0
M  V30 6666 C 652.5 1.72598 -3.91655 0
M  V30 6667 C 651.826 3.04154 -4.39766 0
M  V30 6668 C 653.126 0.981709 -5.12991 0
M  V30 6669 H 654.82 0.287232 -2.98019 0
M  V30 6670 H 652.366 0.136714 -1.4335 0
M  V30 6671 H 654.319 2.71178 -3.22553 0
M  V30 6672 H 653.043 2.59067 -1.98877 0
M  V30 6673 H 651.702 1.08717 -3.50109 0
M  V30 6674 H 651.35 3.56274 -3.55075 0
M  V30 6675 H 651.05 2.83299 -5.14796 0
M  V30 6676 H 652.574 3.71509 -4.84576 0
M  V30 6677 H 653.988 1.5462 -5.52056 0
M  V30 6678 H 652.385 0.873533 -5.93708 0
M  V30 6679 H 653.455 -0.0286887 -4.84892 0
M  V30 6680 N 654.798 1.5699 0.138552 0
M  V30 6681 C 655.745 1.98899 1.17081 0
M  V30 6682 C 656.715 0.857922 1.42228 0
M  V30 6683 O 657.9 1.12065 1.54422 0
M  V30 6684 C 655.04 2.38189 2.4972 0
M  V30 6685 C 654.153 3.64624 2.31674 0
M  V30 6686 C 653.288 3.9298 3.57407 0
M  V30 6687 C 652.327 5.1266 3.34435 0
M  V30 6688 N 651.464 5.36983 4.5232 0
M  V30 6689 H 656.304 2.86881 0.80642 0
M  V30 6690 H 653.841 1.41925 0.386727 0
M  V30 6691 H 655.799 2.59 3.2707 0
M  V30 6692 H 654.429 1.53275 2.84089 0
M  V30 6693 H 653.481 3.51542 1.45337 0
M  V30 6694 H 654.793 4.52131 2.10664 0
M  V30 6695 H 653.947 4.14335 4.43183 0
M  V30 6696 H 652.686 3.03912 3.8143 0
M  V30 6697 H 651.691 4.9117 2.47048 0
M  V30 6698 H 652.916 6.03288 3.11802 0
M  V30 6699 H 650.862 4.50871 4.76499 0
M  V30 6700 H 650.779 6.18775 4.34343 0
M  V30 6701 H 652.047 5.62842 5.39285 0
M  V30 6702 N 656.276 -0.40816 1.52223 0
M  V30 6703 C 657.522 -1.15673 1.66576 0
M  V30 6704 C 657.855 -1.90141 0.394996 0
M  V30 6705 O 657.13 -1.84798 -0.606613 0
M  V30 6706 C 657.413 -2.15042 2.88841 0
M  V30 6707 C 657.266 -1.44465 4.25969 0
M  V30 6708 C 658.585 -3.15699 3.0663 0
M  V30 6709 H 655.704 -0.41916 0.606196 0
M  V30 6710 H 658.346 -0.442348 1.84779 0
M  V30 6711 H 656.496 -2.75964 2.73452 0
M  V30 6712 H 658.168 -0.866544 4.53088 0
M  V30 6713 H 656.411 -0.746612 4.27327 0
M  V30 6714 H 657.082 -2.16976 5.07568 0
M  V30 6715 H 659.558 -2.64854 3.20923 0
M  V30 6716 H 658.434 -3.82491 3.9369 0
M  V30 6717 H 658.695 -3.83481 2.19987 0
M  V30 6718 N 657.755 -1.42862 -0.66545 0
M  V30 6719 C 659.171 -1.25993 -0.979687 0
M  V30 6720 C 659.371 -0.170831 -2.00775 0
M  V30 6721 O 658.427 0.454827 -2.4837 0
M  V30 6722 C 659.74 -2.62005 -1.47559 0
M  V30 6723 C 661.288 -2.69437 -1.59288 0
M  V30 6724 C 661.763 -4.05838 -2.12272 0
M  V30 6725 N 663.254 -4.0784 -2.19592 0
M  V30 6726 C 663.989 -5.10205 -2.61684 0
M  V30 6727 N 663.485 -6.22949 -3.03161 0
M  V30 6728 N 665.278 -4.9756 -2.61516 0
M  V30 6729 H 657.429 -2.12395 0.0150493 0
M  V30 6730 H 659.692 -0.946355 -0.0558187 0
M  V30 6731 H 659.398 -3.42605 -0.794654 0
M  V30 6732 H 659.272 -2.86566 -2.45275 0
M  V30 6733 H 661.659 -1.89178 -2.26486 0
M  V30 6734 H 661.74 -2.48655 -0.600374 0
M  V30 6735 H 661.384 -4.86559 -1.4568 0
M  V30 6736 H 661.314 -4.23977 -3.12331 0
M  V30 6737 H 663.805 -3.26452 -1.90361 0
M  V30 6738 H 664.118 -6.96899 -3.33993 0
M  V30 6739 H 662.463 -6.2644 -3.00995 0
M  V30 6740 H 665.654 -4.08551 -2.28481 0
M  V30 6741 H 665.827 -5.77468 -2.93999 0
M  V30 6742 N 659.233 0.902656 -1.29189 0
M  V30 6743 C 660.644 1.46809 -1.15343 0
M  V30 6744 C 660.995 1.94568 0.252517 0
M  V30 6745 O 660.12 1.83454 1.14777 0
M  V30 6746 C 660.715 2.66829 -2.08776 0
M  V30 6747 C 659.274 3.19518 -1.98961 0
M  V30 6748 C 658.421 1.92212 -1.99874 0
M  V30 6749 H 661.372 0.714282 -1.41717 0
M  V30 6750 H 661.393 3.42465 -1.65826 0
M  V30 6751 H 660.905 2.32039 -3.11094 0
M  V30 6752 H 659.006 3.59008 -0.99721 0
M  V30 6753 H 659.119 3.84016 -2.86477 0
M  V30 6754 H 657.483 2.0979 -1.44431 0
M  V30 6755 H 658.266 1.59702 -3.03891 0
M  V30 6756 N 660.711 1.11618 1.11262 0
M  V30 6757 C 661.957 0.867463 1.83311 0
M  V30 6758 C 662.29 -0.605366 1.84524 0
M  V30 6759 O 661.565 -1.44704 1.29965 0
M  V30 6760 C 661.848 1.43207 3.30399 0
M  V30 6761 C 661.701 2.97265 3.3757 0
M  V30 6762 C 663.02 1.08454 4.26528 0
M  V30 6763 H 660.139 0.316578 0.665543 0
M  V30 6764 H 662.781 1.38137 1.30454 0
M  V30 6765 H 660.931 0.994982 3.75543 0
M  V30 6766 H 662.603 3.49591 3.00971 0
M  V30 6767 H 660.846 3.33237 2.77733 0
M  V30 6768 H 661.517 3.31859 4.41105 0
M  V30 6769 H 663.993 1.4619 3.89574 0
M  V30 6770 H 662.869 1.50633 5.27826 0
M  V30 6771 H 663.13 -0.00444568 4.421 0
M  V30 6772 N 662.189 -1.289 0.906776 0
M  V30 6773 C 663.152 -2.25777 0.394656 0
M  V30 6774 C 664.152 -1.53621 -0.475119 0
M  V30 6775 O 665.342 -1.71949 -0.279165 0
M  V30 6776 C 662.474 -3.38113 -0.43499 0
M  V30 6777 H 663.667 -2.72592 1.25033 0
M  V30 6778 H 661.22 -1.40463 0.685547 0
M  V30 6779 H 661.955 -2.96648 -1.31036 0
M  V30 6780 H 661.74 -3.91647 0.188334 0
M  V30 6781 H 663.23 -4.10168 -0.784365 0
M  V30 6782 N 663.667 -0.670007 -1.42649 0
M  V30 6783 C 664.597 -0.00258501 -2.335 0
M  V30 6784 C 665.578 0.794364 -1.50412 0
M  V30 6785 O 666.763 0.75248 -1.79029 0
M  V30 6786 C 663.893 0.952748 -3.33976 0
M  V30 6787 C 662.847 0.264733 -4.2718 0
M  V30 6788 C 662.173 1.33267 -5.17826 0
M  V30 6789 C 663.473 -0.853289 -5.15283 0
M  V30 6790 H 665.167 -0.761326 -2.89559 0
M  V30 6791 H 662.713 -0.367561 -1.3923 0
M  V30 6792 H 664.666 1.4287 -3.96442 0
M  V30 6793 H 663.39 1.74285 -2.7621 0
M  V30 6794 H 662.049 -0.190938 -3.66102 0
M  V30 6795 H 661.697 2.11464 -4.5639 0
M  V30 6796 H 661.397 0.877476 -5.81011 0
M  V30 6797 H 662.921 1.80965 -5.83167 0
M  V30 6798 H 664.335 -0.458763 -5.71462 0
M  V30 6799 H 662.732 -1.23398 -5.87276 0
M  V30 6800 H 663.802 -1.70412 -4.53969 0
M  V30 6801 N 665.145 1.52092 -0.413018 0
M  V30 6802 C 666.394 2.01041 0.16287 0
M  V30 6803 C 666.707 1.30288 1.45892 0
M  V30 6804 O 667.913 1.70075 2.11629 0
M  V30 6805 C 666.369 3.58283 0.340806 0
M  V30 6806 C 665.977 4.37955 -0.943377 0
M  V30 6807 C 667.721 4.15452 0.871774 0
M  V30 6808 C 665.628 5.86847 -0.732417 0
M  V30 6809 H 664.558 0.751224 0.0646414 0
M  V30 6810 H 667.209 1.75404 -0.539059 0
M  V30 6811 H 665.591 3.80266 1.10516 0
M  V30 6812 H 666.765 4.2773 -1.71418 0
M  V30 6813 H 665.08 3.92122 -1.40105 0
M  V30 6814 H 667.677 5.24375 1.0457 0
M  V30 6815 H 668.02 3.73057 1.84755 0
M  V30 6816 H 668.553 3.97452 0.166377 0
M  V30 6817 H 665.292 6.33609 -1.67986 0
M  V30 6818 H 664.812 5.998 -0.000980058 0
M  V30 6819 H 666.491 6.45906 -0.376105 0
M  V30 6820 N 666.623 0.143563 1.56945 0
M  V30 6821 C 668.034 -0.37783 1.82837 0
M  V30 6822 C 668.385 -1.64967 1.06209 0
M  V30 6823 O 667.51 -2.14221 0.306291 0
M  V30 6824 C 668.105 -0.692274 3.31652 0
M  V30 6825 C 666.664 -1.1582 3.58138 0
M  V30 6826 C 665.811 -0.17951 2.76718 0
M  V30 6827 H 668.762 0.368317 1.54367 0
M  V30 6828 H 668.783 -1.54729 3.47619 0
M  V30 6829 H 668.295 0.233572 3.87397 0
M  V30 6830 H 666.396 -2.10011 3.07776 0
M  V30 6831 H 666.509 -1.08655 4.66616 0
M  V30 6832 H 664.873 -0.671458 2.4569 0
M  V30 6833 H 665.656 0.739865 3.35233 0
M  V30 6834 N 668.101 -1.57061 -0.130224 0
M  V30 6835 C 669.326 -1.88802 -0.858409 0
M  V30 6836 C 669.751 -0.734353 -1.73173 0
M  V30 6837 O 669.109 0.315529 -1.78533 0
M  V30 6838 C 669.157 -3.19228 -1.67708 0
M  V30 6839 O 668.261 -3.04343 -2.78297 0
M  V30 6840 H 667.602 -0.619849 -0.238083 0
M  V30 6841 H 670.132 -2.04271 -0.115995 0
M  V30 6842 H 670.142 -3.51669 -2.06864 0
M  V30 6843 H 668.817 -4.02793 -1.0359 0
M  V30 6844 H 667.394 -2.83346 -2.42425 0
M  V30 6845 N 669.579 0.400081 -1.52437 0
M  V30 6846 C 670.804 1.17221 -1.71096 0
M  V30 6847 C 671.229 1.83269 -0.423565 0
M  V30 6848 O 670.587 1.70378 0.619751 0
M  V30 6849 C 670.635 2.20425 -2.85386 0
M  V30 6850 O 669.739 3.26769 -2.51586 0
M  V30 6851 H 669.08 0.341766 -0.569291 0
M  V30 6852 H 671.61 0.467772 -1.99181 0
M  V30 6853 H 671.62 2.64605 -3.10561 0
M  V30 6854 H 670.295 1.71737 -3.78786 0
M  V30 6855 H 668.872 2.87804 -2.37114 0
M  V30 6856 N 671.057 1.43213 0.657864 0
M  V30 6857 C 672.306 1.43871 1.41365 0
M  V30 6858 C 672.619 0.064898 1.95492 0
M  V30 6859 O 673.825 -0.0510796 2.71452 0
M  V30 6860 C 672.281 2.53158 2.55811 0
M  V30 6861 C 671.889 3.96624 2.08311 0
M  V30 6862 C 673.633 2.63004 3.3321 0
M  V30 6863 C 671.54 4.97385 3.1994 0
M  V30 6864 H 670.47 0.535174 0.531136 0
M  V30 6865 H 673.121 1.69185 0.710543 0
M  V30 6866 H 671.503 2.21037 3.2857 0
M  V30 6867 H 672.677 4.38182 1.42593 0
M  V30 6868 H 670.992 3.90781 1.43804 0
M  V30 6869 H 673.589 3.3546 4.16378 0
M  V30 6870 H 673.932 1.67918 3.80932 0
M  V30 6871 H 674.465 2.94403 2.67529 0
M  V30 6872 H 671.204 5.94007 2.77192 0
M  V30 6873 H 670.724 4.60444 3.84385 0
M  V30 6874 H 672.403 5.19877 3.85145 0
M  V30 6875 N 672.536 -0.895792 1.29666 0
M  V30 6876 C 673.947 -1.46195 1.1612 0
M  V30 6877 C 674.298 -1.94699 -0.242195 0
M  V30 6878 O 673.423 -1.8406 -1.13802 0
M  V30 6879 C 674.018 -2.65718 2.10189 0
M  V30 6880 C 672.577 -3.18458 2.00653 0
M  V30 6881 C 671.724 -1.91149 2.00891 0
M  V30 6882 H 674.675 -0.706756 1.42094 0
M  V30 6883 H 674.696 -3.4158 1.6764 0
M  V30 6884 H 674.208 -2.30386 3.12321 0
M  V30 6885 H 672.309 -3.58474 1.01623 0
M  V30 6886 H 672.422 -3.82491 2.88509 0
M  V30 6887 H 670.786 -2.09021 1.45542 0
M  V30 6888 H 671.569 -1.58089 3.04734 0
M  V30 6889 N 674.014 -1.12206 -1.10668 0
M  V30 6890 C 674.964 -0.75669 -2.15077 0
M  V30 6891 C 675.948 0.243154 -1.59052 0
M  V30 6892 O 677.14 0.0490268 -1.76932 0
M  V30 6893 C 674.269 -0.210303 -3.42655 0
M  V30 6894 C 673.355 -1.23829 -4.05619 0
M  V30 6895 N 673.746 -2.43513 -4.43323 0
M  V30 6896 C 672.044 -1.08309 -4.32649 0
M  V30 6897 C 672.745 -3.09138 -4.92756 0
M  V30 6898 N 671.721 -2.36593 -4.89413 0
M  V30 6899 H 675.523 -1.66747 -2.42018 0
M  V30 6900 H 673.037 -1.00248 -1.27765 0
M  V30 6901 H 675.034 0.0696287 -4.16842 0
M  V30 6902 H 673.694 0.694967 -3.17176 0
M  V30 6903 H 674.705 -2.80912 -4.35097 0
M  V30 6904 H 671.382 -0.234919 -4.16839 0
M  V30 6905 H 672.772 -4.11049 -5.31496 0
M  V30 6906 N 675.492 1.28418 -0.913599 0
M  V30 6907 C 676.402 2.31043 -0.406965 0
M  V30 6908 C 677.418 1.66501 0.505298 0
M  V30 6909 O 678.594 1.97558 0.391522 0
M  V30 6910 C 675.659 3.4498 0.344901 0
M  V30 6911 C 674.72 4.25078 -0.600563 0
M  V30 6912 C 673.953 5.33575 0.115516 0
M  V30 6913 O 674.176 5.54503 1.33727 0
M  V30 6914 O 673.11 5.9939 -0.549095 0
M  V30 6915 H 676.936 2.76387 -1.25873 0
M  V30 6916 H 674.521 1.33109 -0.678415 0
M  V30 6917 H 676.403 4.14314 0.769542 0
M  V30 6918 H 675.078 3.01719 1.1725 0
M  V30 6919 H 673.985 3.58334 -1.0746 0
M  V30 6920 H 675.318 4.72018 -1.39497 0
M  V30 6921 N 676.97 0.677563 1.42291 0
M  V30 6922 C 678.216 0.201272 2.01799 0
M  V30 6923 C 678.549 -1.19004 1.53465 0
M  V30 6924 O 677.824 -1.79953 0.738039 0
M  V30 6925 C 678.107 0.238968 3.59306 0
M  V30 6926 C 677.96 1.66594 4.17812 0
M  V30 6927 C 679.279 -0.411287 4.38174 0
M  V30 6928 H 676.398 0.0746114 0.733214 0
M  V30 6929 H 679.04 0.862872 1.69276 0
M  V30 6930 H 677.19 -0.324368 3.87144 0
M  V30 6931 H 678.862 2.28173 4.00917 0
M  V30 6932 H 677.105 2.20576 3.73536 0
M  V30 6933 H 677.776 1.64398 5.26951 0
M  V30 6934 H 680.252 0.0682804 4.16044 0
M  V30 6935 H 679.128 -0.354286 5.47755 0
M  V30 6936 H 679.389 -1.4893 4.1626 0
M  V30 6937 N 678.448 -1.51871 0.421078 0
M  V30 6938 C 679.859 -1.86644 -0.0457991 0
M  V30 6939 C 680.21 -1.33919 -1.43388 0
M  V30 6940 O 679.335 -0.683316 -2.05328 0
M  V30 6941 C 679.93 -3.38681 -0.0898844 0
M  V30 6942 C 678.489 -3.73049 -0.501127 0
M  V30 6943 C 677.636 -2.75485 0.316723 0
M  V30 6944 H 680.587 -1.45327 0.637635 0
M  V30 6945 H 680.608 -3.69636 -0.902734 0
M  V30 6946 H 680.12 -3.77025 0.920513 0
M  V30 6947 H 678.221 -3.40288 -1.51773 0
M  V30 6948 H 678.334 -4.78512 -0.237217 0
M  V30 6949 H 676.698 -2.53725 -0.222663 0
M  V30 6950 H 677.481 -3.16671 1.32569 0
M  V30 6951 N 679.926 -0.151884 -1.56866 0
M  V30 6952 C 680.858 0.817008 -2.14144 0
M  V30 6953 C 681.871 1.20735 -1.0921 0
M  V30 6954 O 683.06 1.15058 -1.36469 0
M  V30 6955 C 680.16 2.10844 -2.65326 0
M  V30 6956 C 679.333 1.88471 -3.94712 0
M  V30 6957 C 678.392 3.01649 -4.31155 0
M  V30 6958 O 677.418 2.73127 -4.9939 0
M  V30 6959 N 678.62 4.28947 -3.91132 0
M  V30 6960 H 681.385 0.327448 -2.97906 0
M  V30 6961 H 678.946 0.0315313 -1.61869 0
M  V30 6962 H 680.938 2.85616 -2.86715 0
M  V30 6963 H 679.508 2.51049 -1.86262 0
M  V30 6964 H 678.728 0.977088 -3.81899 0
M  V30 6965 H 680.016 1.70866 -4.79252 0
M  V30 6966 H 679.414 4.54986 -3.36161 0
M  V30 6967 H 677.971 5.00484 -4.17563 0
M  V30 6968 N 681.404 1.57128 0.121893 0
M  V30 6969 C 682.653 1.83888 0.828748 0
M  V30 6970 C 682.966 0.737087 1.81181 0
M  V30 6971 O 684.172 0.891007 2.56463 0
M  V30 6972 C 682.628 3.26014 1.52455 0
M  V30 6973 C 682.236 4.44195 0.58263 0
M  V30 6974 C 683.98 3.62025 2.21671 0
M  V30 6975 C 681.887 5.77349 1.28149 0
M  V30 6976 H 680.817 0.685856 0.313238 0
M  V30 6977 H 683.468 1.83319 0.0814851 0
M  V30 6978 H 681.85 3.21044 2.31834 0
M  V30 6979 H 683.024 4.60457 -0.177729 0
M  V30 6980 H 681.339 4.164 -0.00241228 0
M  V30 6981 H 683.936 4.58776 2.74643 0
M  V30 6982 H 684.279 2.89315 2.99337 0
M  V30 6983 H 684.812 3.68767 1.49184 0
M  V30 6984 H 681.551 6.53221 0.546189 0
M  V30 6985 H 681.071 5.64978 2.01394 0
M  V30 6986 H 682.75 6.21006 1.81549 0
M  V30 6987 N 682.882 -0.391992 1.52647 0
M  V30 6988 C 683.812 -1.48517 1.8018 0
M  V30 6989 C 684.793 -1.57039 0.653667 0
M  V30 6990 O 685.978 -1.72036 0.900962 0
M  V30 6991 C 683.108 -2.86161 1.96797 0
M  V30 6992 C 682.062 -2.92481 3.12472 0
M  V30 6993 C 681.388 -4.32546 3.14338 0
M  V30 6994 C 682.688 -2.624 4.51601 0
M  V30 6995 H 684.382 -1.25726 2.71723 0
M  V30 6996 H 681.928 -0.603387 1.30749 0
M  V30 6997 H 683.881 -3.62639 2.14641 0
M  V30 6998 H 682.605 -3.10283 1.01941 0
M  V30 6999 H 681.264 -2.18451 2.94406 0
M  V30 7000 H 680.912 -4.53703 2.1717 0
M  V30 7001 H 680.612 -4.37695 3.92042 0
M  V30 7002 H 682.136 -5.10934 3.34333 0
M  V30 7003 H 683.55 -3.28596 4.69785 0
M  V30 7004 H 681.947 -2.78903 5.3135 0
M  V30 7005 H 683.017 -1.57754 4.58521 0
M  V30 7006 N 684.36 -1.4356 -0.65026 0
M  V30 7007 C 685.609 -1.44619 -1.406 0
M  V30 7008 C 685.922 -0.0752645 -1.95455 0
M  V30 7009 O 687.128 0.0366832 -2.71475 0
M  V30 7010 C 685.584 -2.54511 -2.54465 0
M  V30 7011 C 685.192 -3.97723 -2.06204 0
M  V30 7012 C 686.936 -2.64768 -3.31811 0
M  V30 7013 C 684.843 -4.99075 -3.17298 0
M  V30 7014 H 683.773 -0.537983 -0.52829 0
M  V30 7015 H 686.424 -1.69559 -0.701561 0
M  V30 7016 H 684.806 -2.22777 -3.27393 0
M  V30 7017 H 685.98 -4.38932 -1.40267 0
M  V30 7018 H 684.295 -3.91538 -1.41729 0
M  V30 7019 H 686.892 -3.37664 -4.14593 0
M  V30 7020 H 687.235 -1.69936 -3.80036 0
M  V30 7021 H 687.768 -2.95817 -2.65964 0
M  V30 7022 H 684.507 -5.95469 -2.74038 0
M  V30 7023 H 684.027 -4.62476 -3.81937 0
M  V30 7024 H 685.706 -5.21913 -3.82382 0
M  V30 7025 N 685.838 0.888903 -1.30139 0
M  V30 7026 C 686.786 2.0156 -1.16088 0
M  V30 7027 C 687.78 1.69239 -0.0737413 0
M  V30 7028 O 688.986 1.78468 -0.234313 0
M  V30 7029 H 685.361 0.660825 -0.358907 0
M  V30 7030 H 687.332 2.10547 -2.11453 0
M  V30 7031 C 686.081 3.36758 -0.865426 0
M  V30 7032 H 685.404 3.62137 -1.69402 0
M  V30 7033 H 686.844 4.16246 -0.807192 0
M  V30 7034 C 685.303 3.34124 0.431577 0
M  V30 7035 O 685.833 3.7445 1.45431 0
M  V30 7036 N 684.039 2.87229 0.441321 0
M  V30 7037 H 683.586 2.54609 -0.391433 0
M  V30 7038 H 683.544 2.8585 1.30909 0
M  V30 7039 N 687.317 1.12792 1.10072 0
M  V30 7040 C 688.733 0.864745 1.34143 0
M  V30 7041 C 688.933 -0.503201 1.95116 0
M  V30 7042 O 687.989 -1.25111 2.19325 0
M  V30 7043 C 689.302 1.98413 2.25949 0
M  V30 7044 C 690.85 2.01545 2.39476 0
M  V30 7045 C 691.325 3.12727 3.34613 0
M  V30 7046 N 692.816 3.12194 3.42183 0
M  V30 7047 C 693.551 3.94862 4.15779 0
M  V30 7048 N 693.047 4.87528 4.92228 0
M  V30 7049 N 694.84 3.82985 4.11435 0
M  V30 7050 H 686.991 2.00926 0.68866 0
M  V30 7051 H 689.254 0.874564 0.365844 0
M  V30 7052 H 688.96 2.97005 1.88364 0
M  V30 7053 H 688.834 1.89254 3.26287 0
M  V30 7054 H 691.221 1.0357 2.76328 0
M  V30 7055 H 691.302 2.14777 1.3894 0
M  V30 7056 H 690.946 4.10936 2.98486 0
M  V30 7057 H 690.876 2.96732 4.35037 0
M  V30 7058 H 693.367 2.45065 2.87666 0
M  V30 7059 H 693.68 5.47109 5.45794 0
M  V30 7060 H 692.025 4.91539 4.9134 0
M  V30 7061 H 695.216 3.09923 3.50807 0
M  V30 7062 H 695.389 4.47641 4.68531 0
M  V30 7063 N 688.795 -1.27931 0.920396 0
M  V30 7064 C 689.705 -2.30824 0.419212 0
M  V30 7065 C 690.721 -1.66767 -0.496461 0
M  V30 7066 O 691.897 -1.97763 -0.38104 0
M  V30 7067 C 688.962 -3.45158 -0.326601 0
M  V30 7068 C 688.023 -4.24754 0.623098 0
M  V30 7069 C 687.256 -5.33629 -0.0872172 0
M  V30 7070 O 687.479 -5.55204 -1.30784 0
M  V30 7071 O 686.413 -5.99091 0.580875 0
M  V30 7072 H 690.239 -2.75716 1.27337 0
M  V30 7073 H 687.824 -1.32747 0.685465 0
M  V30 7074 H 689.706 -4.14716 -0.747559 0
M  V30 7075 H 688.381 -3.02336 -1.15648 0
M  V30 7076 H 687.288 -3.57759 1.09359 0
M  V30 7077 H 688.621 -4.71272 1.41998 0
M  V30 7078 N 690.273 -0.685099 -1.4193 0
M  V30 7079 C 691.684 -0.287699 -1.8447 0
M  V30 7080 C 692.035 1.17215 -1.57338 0
M  V30 7081 O 691.16 1.89856 -1.03845 0
M  V30 7082 C 691.755 -0.515385 -3.34857 0
M  V30 7083 C 690.314 -0.172006 -3.76007 0
M  V30 7084 C 689.461 -0.802808 -2.65425 0
M  V30 7085 H 692.412 -0.88652 -1.3163 0
M  V30 7086 H 692.433 0.229251 -3.79809 0
M  V30 7087 H 691.945 -1.57796 -3.54573 0
M  V30 7088 H 690.046 0.886716 -3.61895 0
M  V30 7089 H 690.159 -0.619717 -4.75075 0
M  V30 7090 H 688.523 -0.233267 -2.5363 0
M  V30 7091 H 689.306 -1.86904 -2.87961 0
M  V30 7092 N 691.751 1.51645 -0.429126 0
M  V30 7093 C 692.681 2.30434 0.377148 0
M  V30 7094 C 693.662 1.35493 1.02838 0
M  V30 7095 O 694.847 1.6441 1.03359 0
M  V30 7096 C 691.977 3.14038 1.48315 0
M  V30 7097 C 690.931 4.1719 0.955855 0
M  V30 7098 C 690.257 4.89263 2.15698 0
M  V30 7099 C 691.557 5.223 -0.00402136 0
M  V30 7100 H 693.251 2.98085 -0.280336 0
M  V30 7101 H 690.797 1.43354 -0.136265 0
M  V30 7102 H 692.75 3.67933 2.05435 0
M  V30 7103 H 691.474 2.44193 2.16881 0
M  V30 7104 H 690.133 3.64335 0.406929 0
M  V30 7105 H 689.781 4.15929 2.82864 0
M  V30 7106 H 689.481 5.59009 1.81059 0
M  V30 7107 H 691.005 5.45978 2.73387 0
M  V30 7108 H 692.419 5.71315 0.476607 0
M  V30 7109 H 690.816 5.99525 -0.26258 0
M  V30 7110 H 691.886 4.75638 -0.943236 0
M  V30 7111 N 693.229 0.160201 1.56784 0
M  V30 7112 C 694.64 -0.358417 1.83227 0
M  V30 7113 C 694.991 -1.63831 1.07952 0
M  V30 7114 O 694.116 -2.13885 0.328995 0
M  V30 7115 C 694.711 -0.657058 3.32368 0
M  V30 7116 C 693.27 -1.12015 3.59346 0
M  V30 7117 C 692.417 -0.15015 2.76893 0
M  V30 7118 H 695.368 0.384669 1.53967 0
M  V30 7119 H 695.389 -1.51033 3.49241 0
M  V30 7120 H 694.901 0.274647 3.87127 0
M  V30 7121 H 693.002 -2.06734 3.09987 0
M  V30 7122 H 693.115 -1.037 4.67743 0
M  V30 7123 H 691.479 -0.645361 2.46388 0
M  V30 7124 H 692.262 0.775379 3.34429 0
M  V30 7125 N 694.707 -1.5719 -0.113559 0
M  V30 7126 C 695.657 -1.97166 -1.14497 0
M  V30 7127 C 696.641 -0.847413 -1.36776 0
M  V30 7128 O 697.833 -1.11114 -1.37777 0
M  V30 7129 C 694.962 -2.38411 -2.47013 0
M  V30 7130 C 694.048 -3.5748 -2.28185 0
M  V30 7131 N 694.439 -4.72998 -1.79182 0
M  V30 7132 C 692.737 -3.63218 -2.58821 0
M  V30 7133 C 693.438 -5.55007 -1.74191 0
M  V30 7134 N 692.414 -4.9765 -2.18735 0
M  V30 7135 H 696.216 -2.83937 -0.758733 0
M  V30 7136 H 693.73 -1.59191 -0.321234 0
M  V30 7137 H 695.727 -2.65269 -3.21618 0
M  V30 7138 H 694.387 -1.53007 -2.8639 0
M  V30 7139 H 695.398 -4.96109 -1.48649 0
M  V30 7140 H 692.075 -2.88434 -3.01847 0
M  V30 7141 H 693.465 -6.57678 -1.37512 0
M  V30 7142 N 696.185 0.383891 -1.52853 0
M  V30 7143 C 697.115 1.47559 -1.80965 0
M  V30 7144 C 698.096 1.5669 -0.661986 0
M  V30 7145 O 699.281 1.71556 -0.910072 0
M  V30 7146 C 696.411 2.85114 -1.98312 0
M  V30 7147 C 695.365 2.9082 -3.14019 0
M  V30 7148 C 694.691 4.30873 -3.16627 0
M  V30 7149 C 695.991 2.60001 -4.52986 0
M  V30 7150 H 697.685 1.24283 -2.72386 0
M  V30 7151 H 695.231 0.596445 -1.31067 0
M  V30 7152 H 697.184 3.61496 -2.16561 0
M  V30 7153 H 695.908 3.09738 -1.03585 0
M  V30 7154 H 694.567 2.16886 -2.9556 0
M  V30 7155 H 694.215 4.52545 -2.19573 0
M  V30 7156 H 693.915 4.3561 -3.94357 0
M  V30 7157 H 695.439 5.09154 -3.37038 0
M  V30 7158 H 696.853 3.261 -4.71521 0
M  V30 7159 H 695.25 2.76081 -5.32822 0
M  V30 7160 H 696.32 1.5532 -4.59351 0
M  V30 7161 N 697.663 1.43903 0.642637 0
M  V30 7162 C 698.613 1.46321 1.74854 0
M  V30 7163 C 699.597 0.330361 1.57472 0
M  V30 7164 O 700.789 0.574881 1.67404 0
M  V30 7165 C 697.918 1.39919 3.13493 0
M  V30 7166 C 697.004 2.58274 3.36385 0
M  V30 7167 N 697.395 3.83578 3.29699 0
M  V30 7168 C 695.693 2.53224 3.67142 0
M  V30 7169 C 696.394 4.62375 3.52965 0
M  V30 7170 N 695.37 3.93269 3.75287 0
M  V30 7171 H 699.172 2.41062 1.68126 0
M  V30 7172 H 696.686 1.38704 0.844693 0
M  V30 7173 H 698.683 1.39735 3.92785 0
M  V30 7174 H 697.343 0.46207 3.21395 0
M  V30 7175 H 698.354 4.15713 3.08874 0
M  V30 7176 H 695.031 1.68252 3.82096 0
M  V30 7177 H 696.421 5.714 3.53485 0
M  V30 7178 N 699.141 -0.881989 1.30609 0
M  V30 7179 C 700.388 -1.63405 1.19604 0
M  V30 7180 C 700.716 -1.92905 -0.248574 0
M  V30 7181 O 699.971 -1.55062 -1.19391 0
M  V30 7182 C 700.27 -2.97999 1.97311 0
M  V30 7183 C 699.936 -2.88039 3.46907 0
M  V30 7184 C 698.598 -2.85029 3.877 0
M  V30 7185 C 700.95 -2.75948 4.42156 0
M  V30 7186 C 698.278 -2.67772 5.2203 0
M  V30 7187 C 700.63 -2.60228 5.76597 0
M  V30 7188 C 699.294 -2.55595 6.16626 0
M  V30 7189 H 698.564 -0.597941 0.437662 0
M  V30 7190 H 701.211 -1.02524 1.61744 0
M  V30 7191 H 699.516 -3.62847 1.47815 0
M  V30 7192 H 701.213 -3.55156 1.86186 0
M  V30 7193 H 697.803 -2.91192 3.14492 0
M  V30 7194 H 701.987 -2.77337 4.1158 0
M  V30 7195 H 697.243 -2.62601 5.52133 0
M  V30 7196 H 701.417 -2.49847 6.50038 0
M  V30 7197 H 699.044 -2.41981 7.20659 0
M  V30 7198 N 700.619 -1.13374 -1.09472 0
M  V30 7199 C 701.896 -0.806329 -1.78207 0
M  V30 7200 C 702.276 0.702191 -1.99079 0
M  V30 7201 O 701.624 1.63931 -1.59182 0
M  V30 7202 C 701.834 -1.59271 -3.10538 0
M  V30 7203 C 703.182 -1.78509 -3.85253 0
M  V30 7204 O 704.206 -1.55866 -3.20288 0
M  V30 7205 O 703.065 -2.16287 -5.01879 0
M  V30 7206 H 700.159 -0.29435 -0.772843 0
M  V30 7207 H 702.705 -1.23833 -1.16033 0
M  V30 7208 H 701.477 -2.61792 -2.90828 0
M  V30 7209 H 701.1 -1.15562 -3.80436 0
M  V30 7210 N 702.098 1.27442 -0.927168 0
M  V30 7211 C 703.344 1.94679 -0.568164 0
M  V30 7212 C 703.677 1.72697 0.888219 0
M  V30 7213 O 702.952 1.05573 1.63354 0
M  V30 7214 C 703.235 3.4882 -0.894253 0
M  V30 7215 C 703.088 3.80146 -2.40435 0
M  V30 7216 C 704.407 4.38281 -0.399766 0
M  V30 7217 H 701.526 0.707071 -0.207892 0
M  V30 7218 H 704.168 1.50568 -1.15885 0
M  V30 7219 H 702.318 3.86522 -0.391566 0
M  V30 7220 H 703.99 3.52238 -2.97869 0
M  V30 7221 H 702.233 3.26716 -2.85375 0
M  V30 7222 H 702.904 4.87835 -2.58304 0
M  V30 7223 H 705.38 4.07726 -0.83058 0
M  V30 7224 H 704.256 5.44955 -0.656885 0
M  V30 7225 H 704.517 4.36521 0.700153 0
M  V30 7226 N 703.576 0.692616 1.41565 0
M  V30 7227 C 704.486 0.0258451 2.34586 0
M  V30 7228 C 705.502 -0.769324 1.56069 0
M  V30 7229 O 706.678 -0.707563 1.88562 0
M  V30 7230 C 703.743 -0.901289 3.3478 0
M  V30 7231 C 702.804 -0.0986579 4.29187 0
M  V30 7232 C 702.037 -0.981634 5.24595 0
M  V30 7233 O 702.26 -2.22115 5.25377 0
M  V30 7234 O 701.194 -0.432892 6.00341 0
M  V30 7235 H 705.02 0.792537 2.93177 0
M  V30 7236 H 702.605 0.452935 1.42369 0
M  V30 7237 H 704.487 -1.43302 3.96286 0
M  V30 7238 H 703.162 -1.64752 2.78637 0
M  V30 7239 H 702.069 0.477604 3.71039 0
M  V30 7240 H 703.402 0.608848 4.8842 0
M  V30 7241 N 705.054 -1.51416 0.437162 0
M  V30 7242 C 705.984 -2.30631 -0.364922 0
M  V30 7243 C 706.965 -1.36037 -1.02118 0
M  V30 7244 O 708.15 -1.64956 -1.02485 0
M  V30 7245 C 705.28 -3.1482 -1.46648 0
M  V30 7246 C 704.234 -4.17691 -0.933717 0
M  V30 7247 C 703.56 -4.904 -2.13101 0
M  V30 7248 C 704.86 -5.2229 0.0317201 0
M  V30 7249 H 706.554 -2.97932 0.29614 0
M  V30 7250 H 704.1 -1.4328 0.143865 0
M  V30 7251 H 706.053 -3.69017 -2.03481 0
M  V30 7252 H 704.777 -2.4534 -2.15583 0
M  V30 7253 H 703.436 -3.64545 -0.387602 0
M  V30 7254 H 703.084 -4.17423 -2.80654 0
M  V30 7255 H 702.784 -5.59962 -1.78092 0
M  V30 7256 H 704.308 -5.4742 -2.70487 0
M  V30 7257 H 705.722 -5.7156 -0.446302 0
M  V30 7258 H 704.119 -5.99378 0.29437 0
M  V30 7259 H 705.189 -4.75131 0.968447 0
M  V30 7260 N 706.532 -0.168513 -1.56696 0
M  V30 7261 C 707.462 0.758563 -2.20835 0
M  V30 7262 C 708.443 1.24121 -1.1631 0
M  V30 7263 O 709.628 1.29487 -1.4473 0
M  V30 7264 C 706.758 1.9892 -2.8469 0
M  V30 7265 C 705.712 1.64252 -3.95228 0
M  V30 7266 C 705.038 2.94757 -4.46119 0
M  V30 7267 C 706.338 0.872675 -5.14958 0
M  V30 7268 H 708.032 0.223953 -2.98561 0
M  V30 7269 H 705.578 0.106277 -1.43607 0
M  V30 7270 H 707.531 2.64275 -3.28233 0
M  V30 7271 H 706.255 2.5479 -2.04327 0
M  V30 7272 H 704.914 1.01266 -3.52336 0
M  V30 7273 H 704.562 3.48662 -3.62552 0
M  V30 7274 H 704.262 2.72316 -5.2069 0
M  V30 7275 H 705.786 3.61147 -4.92347 0
M  V30 7276 H 707.2 1.42875 -5.55211 0
M  V30 7277 H 705.597 0.747402 -5.95428 0
M  V30 7278 H 706.667 -0.131535 -4.84722 0
M  V30 7279 N 708.01 1.57248 0.105221 0
M  V30 7280 C 709.258 1.85204 0.808951 0
M  V30 7281 C 709.579 0.75574 1.7976 0
M  V30 7282 O 708.849 -0.218984 1.94672 0
M  V30 7283 H 707.429 0.683346 0.301739 0
M  V30 7284 H 710.091 1.94695 0.0892605 0
M  V30 7285 H 709.187 2.81595 1.34575 0
M  V30 7286 N 709.488 -0.375779 1.53054 0
M  V30 7287 C 710.765 -1.13453 1.59336 0
M  V30 7288 C 711.145 -2.07379 0.394614 0
M  V30 7289 O 710.493 -2.2004 -0.616 0
M  V30 7290 C 710.703 -1.8826 2.93869 0
M  V30 7291 C 712.051 -2.43155 3.48081 0
M  V30 7292 O 713.075 -1.984 2.95831 0
M  V30 7293 O 711.934 -3.24944 4.39401 0
M  V30 7294 H 709.028 -0.519856 0.643179 0
M  V30 7295 H 711.574 -0.379865 1.65394 0
M  V30 7296 H 710.346 -1.19652 3.72558 0
M  V30 7297 H 709.969 -2.70658 2.91256 0
M  V30 7298 N 710.966 -1.44241 -0.634997 0
M  V30 7299 C 712.206 -1.48339 -1.40623 0
M  V30 7300 C 712.57 -0.111479 -1.91676 0
M  V30 7301 O 713.771 -0.0271345 -2.68786 0
M  V30 7302 C 712.042 -2.51122 -2.54308 0
M  V30 7303 S 713.601 -2.74237 -3.42548 0
M  V30 7304 H 710.419 -0.524715 -0.479787 0
M  V30 7305 H 713.021 -1.81138 -0.735489 0
M  V30 7306 H 711.725 -3.49511 -2.15106 0
M  V30 7307 H 711.256 -2.19883 -3.26213 0
M  V30 7308 H 713.271 -2.0554 -4.51628 0
M  V30 7309 N 712.444 0.87505 -1.31075 0
M  V30 7310 C 713.721 1.60976 -1.11113 0
M  V30 7311 C 714.101 2.08409 0.336006 0
M  V30 7312 O 713.449 1.85858 1.32924 0
M  V30 7313 C 713.659 2.77166 -2.12085 0
M  V30 7314 C 715.007 3.47254 -2.44335 0
M  V30 7315 O 716.031 2.87367 -2.10472 0
M  V30 7316 O 714.89 4.55276 -3.02301 0
M  V30 7317 H 711.984 0.707982 -0.427424 0
M  V30 7318 H 714.53 0.920957 -1.42536 0
M  V30 7319 H 713.302 2.39494 -3.09449 0
M  V30 7320 H 712.925 3.53737 -1.81538 0
M  V30 7321 N 713.922 1.13953 1.08869 0
M  V30 7322 C 715.168 0.906151 1.8143 0
M  V30 7323 C 715.501 -0.566089 1.85766 0
M  V30 7324 O 714.776 -1.41915 1.33006 0
M  V30 7325 C 715.059 1.50183 3.27287 0
M  V30 7326 C 714.912 3.04359 3.31189 0
M  V30 7327 C 716.231 1.17477 4.24131 0
M  V30 7328 H 713.35 0.330624 0.658678 0
M  V30 7329 H 715.992 1.40873 1.27495 0
M  V30 7330 H 714.142 1.07442 3.73348 0
M  V30 7331 H 715.814 3.55896 2.93488 0
M  V30 7332 H 714.057 3.39053 2.70602 0
M  V30 7333 H 714.728 3.41141 4.33966 0
M  V30 7334 H 717.204 1.5442 3.86385 0
M  V30 7335 H 716.08 1.61795 5.24513 0
M  V30 7336 H 716.341 0.0893312 4.4201 0
M  V30 7337 N 715.4 -1.26948 0.933913 0
M  V30 7338 C 716.649 -1.93378 0.573409 0
M  V30 7339 C 716.962 -1.74148 -0.890614 0
M  V30 7340 O 718.168 -2.34971 -1.36017 0
M  V30 7341 C 716.624 -3.46449 0.974747 0
M  V30 7342 C 716.232 -3.74425 2.45988 0
M  V30 7343 C 717.976 -4.18924 0.685791 0
M  V30 7344 C 715.883 -5.209 2.8003 0
M  V30 7345 H 714.813 -0.723952 0.210736 0
M  V30 7346 H 717.464 -1.44143 1.13557 0
M  V30 7347 H 715.846 -3.94528 0.341181 0
M  V30 7348 H 717.02 -3.37079 3.14188 0
M  V30 7349 H 715.335 -3.15167 2.72138 0
M  V30 7350 H 717.932 -5.26786 0.916546 0
M  V30 7351 H 718.275 -4.14587 -0.377217 0
M  V30 7352 H 718.808 -3.76687 1.27874 0
M  V30 7353 H 715.547 -5.30332 3.85264 0
M  V30 7354 H 715.067 -5.59369 2.16485 0
M  V30 7355 H 716.746 -5.88837 2.68105 0
M  V30 7356 N 716.879 -0.700114 -1.41195 0
M  V30 7357 C 718.128 -0.230082 -2.00383 0
M  V30 7358 C 718.441 1.17857 -1.56106 0
M  V30 7359 O 719.647 1.74631 -2.07885 0
M  V30 7360 C 718.103 -0.360447 -3.5809 0
M  V30 7361 C 717.711 -1.77475 -4.11347 0
M  V30 7362 C 719.455 0.0495799 -4.24471 0
M  V30 7363 C 717.362 -1.85653 -5.61504 0
M  V30 7364 H 716.292 -0.0822633 -0.749499 0
M  V30 7365 H 718.943 -0.868969 -1.6162 0
M  V30 7366 H 717.325 0.346768 -3.94479 0
M  V30 7367 H 718.499 -2.51109 -3.86369 0
M  V30 7368 H 716.814 -2.13486 -3.57509 0
M  V30 7369 H 719.411 0.00898219 -5.34699 0
M  V30 7370 H 719.754 1.08904 -4.01803 0
M  V30 7371 H 720.287 -0.607521 -3.93134 0
M  V30 7372 H 717.026 -2.87667 -5.89006 0
M  V30 7373 H 716.546 -1.1641 -5.88395 0
M  V30 7374 H 718.225 -1.62151 -6.26351 0
M  V30 7375 N 718.357 1.51182 -0.445186 0
M  V30 7376 C 719.305 2.29531 0.376597 0
M  V30 7377 C 720.299 1.35711 1.01385 0
M  V30 7378 O 721.505 1.53018 0.947922 0
M  V30 7379 H 717.88 0.738803 0.140267 0
M  V30 7380 H 719.851 2.96838 -0.304958 0
M  V30 7381 C 718.6 3.1552 1.4609 0
M  V30 7382 H 717.923 3.87605 0.979912 0
M  V30 7383 H 719.363 3.73384 2.009 0
M  V30 7384 C 717.822 2.31406 2.44852 0
M  V30 7385 O 718.352 1.97912 3.49562 0
M  V30 7386 N 716.558 1.94478 2.15932 0
M  V30 7387 H 716.105 2.21917 1.30808 0
M  V30 7388 H 716.063 1.38498 2.82251 0
M  V30 7389 N 719.835 0.176821 1.56605 0
M  V30 7390 C 720.745 -0.763682 2.21822 0
M  V30 7391 C 721.761 -1.24889 1.21156 0
M  V30 7392 O 722.937 -1.29987 1.53836 0
M  V30 7393 C 720.002 -1.97352 2.8505 0
M  V30 7394 C 719.063 -1.53466 4.00932 0
M  V30 7395 C 718.296 -2.68682 4.61135 0
M  V30 7396 O 718.519 -3.85694 4.20234 0
M  V30 7397 O 717.453 -2.42442 5.50913 0
M  V30 7398 H 721.279 -0.238363 3.02763 0
M  V30 7399 H 718.864 -0.0516331 1.49311 0
M  V30 7400 H 720.746 -2.68096 3.25119 0
M  V30 7401 H 719.421 -2.48779 2.07101 0
M  V30 7402 H 718.328 -0.796551 3.65521 0
M  V30 7403 H 719.661 -1.06724 4.8049 0
M  V30 7404 N 721.313 -1.57302 -0.09688 0
M  V30 7405 C 722.243 -2.0497 -1.11846 0
M  V30 7406 C 723.224 -0.938278 -1.41882 0
M  V30 7407 O 724.409 -1.20943 -1.51942 0
M  V30 7408 C 721.539 -2.47264 -2.43881 0
M  V30 7409 C 720.493 -3.62053 -2.28257 0
M  V30 7410 C 719.819 -3.90318 -3.65453 0
M  V30 7411 C 721.119 -4.93005 -1.72461 0
M  V30 7412 H 722.813 -2.90567 -0.721888 0
M  V30 7413 H 720.359 -1.39786 -0.345803 0
M  V30 7414 H 722.312 -2.7922 -3.15617 0
M  V30 7415 H 721.036 -1.58664 -2.8547 0
M  V30 7416 H 719.695 -3.30341 -1.58967 0
M  V30 7417 H 719.343 -2.98889 -4.04567 0
M  V30 7418 H 719.043 -4.67597 -3.55846 0
M  V30 7419 H 720.567 -4.24747 -4.3866 0
M  V30 7420 H 721.981 -5.23354 -2.34036 0
M  V30 7421 H 720.378 -5.74436 -1.73618 0
M  V30 7422 H 721.448 -4.80053 -0.683898 0
M  V30 7423 N 722.791 0.367657 -1.53252 0
M  V30 7424 C 724.031 1.11923 -1.71034 0
M  V30 7425 C 724.395 1.86618 -0.45143 0
M  V30 7426 O 725.596 2.63996 -0.505915 0
M  V30 7427 C 723.867 2.05461 -2.92439 0
M  V30 7428 S 725.426 2.88167 -3.30916 0
M  V30 7429 H 722.244 0.378549 -0.601848 0
M  V30 7430 H 724.846 0.400757 -1.91348 0
M  V30 7431 H 723.55 1.49346 -3.82262 0
M  V30 7432 H 723.081 2.81784 -2.7452 0
M  V30 7433 H 725.096 4.07746 -2.82767 0
M  V30 7434 N 724.269 1.44576 0.627338 0
M  V30 7435 C 725.219 1.48168 1.73293 0
M  V30 7436 C 726.203 0.347045 1.57113 0
M  V30 7437 O 727.395 0.592605 1.66785 0
M  V30 7438 C 724.524 1.43236 3.11991 0
M  V30 7439 C 723.61 2.61828 3.33627 0
M  V30 7440 N 724.001 3.87053 3.25612 0
M  V30 7441 C 722.299 2.57104 3.64436 0
M  V30 7442 C 723 4.66093 3.48041 0
M  V30 7443 N 721.976 3.97228 3.71095 0
M  V30 7444 H 725.778 2.42832 1.6556 0
M  V30 7445 H 723.292 1.39592 0.829934 0
M  V30 7446 H 725.289 1.43893 3.91281 0
M  V30 7447 H 723.949 0.496133 3.20887 0
M  V30 7448 H 724.96 4.18966 3.04447 0
M  V30 7449 H 721.637 1.72295 3.8029 0
M  V30 7450 H 723.027 5.75117 3.47404 0
M  V30 7451 N 725.747 -0.868086 1.31537 0
M  V30 7452 C 727.163 -1.15414 1.10235 0
M  V30 7453 C 727.363 -2.01106 -0.125947 0
M  V30 7454 O 726.419 -2.38994 -0.814734 0
M  V30 7455 C 727.732 -1.84445 2.37488 0
M  V30 7456 C 729.28 -1.97139 2.43116 0
M  V30 7457 C 729.755 -2.69585 3.70254 0
M  V30 7458 N 731.246 -2.77119 3.71159 0
M  V30 7459 C 731.981 -3.33791 4.6623 0
M  V30 7460 N 731.477 -3.9138 5.71659 0
M  V30 7461 N 733.27 -3.31767 4.53747 0
M  V30 7462 H 725.421 -0.297109 2.10312 0
M  V30 7463 H 727.684 -0.194227 0.92789 0
M  V30 7464 H 727.39 -1.2893 3.27215 0
M  V30 7465 H 727.264 -2.84709 2.47428 0
M  V30 7466 H 729.651 -2.51818 1.53856 0
M  V30 7467 H 729.732 -0.95912 2.37138 0
M  V30 7468 H 729.376 -2.15572 4.59881 0
M  V30 7469 H 729.306 -3.71223 3.73499 0
M  V30 7470 H 731.797 -2.3625 2.94948 0
M  V30 7471 H 732.11 -4.3274 6.40278 0
M  V30 7472 H 730.455 -3.8975 5.7543 0
M  V30 7473 H 733.646 -2.86016 3.70557 0
M  V30 7474 H 733.819 -3.75636 5.28017 0
M  V30 7475 N 727.225 -1.14528 -1.08264 0
M  V30 7476 C 728.155 -0.856356 -2.1723 0
M  V30 7477 C 729.136 0.189251 -1.69044 0
M  V30 7478 O 730.321 0.0456119 -1.94146 0
M  V30 7479 C 727.451 -0.334662 -3.45684 0
M  V30 7480 C 726.405 -1.31588 -4.0727 0
M  V30 7481 C 725.731 -0.653428 -5.30692 0
M  V30 7482 C 727.031 -2.67866 -4.48381 0
M  V30 7483 H 728.725 -1.76755 -2.41657 0
M  V30 7484 H 726.271 -0.851287 -1.16143 0
M  V30 7485 H 728.224 -0.120128 -4.21229 0
M  V30 7486 H 726.948 0.611967 -3.20815 0
M  V30 7487 H 725.607 -1.51661 -3.33758 0
M  V30 7488 H 725.255 0.299054 -5.0211 0
M  V30 7489 H 724.955 -1.30817 -5.72853 0
M  V30 7490 H 726.479 -0.448453 -6.08951 0
M  V30 7491 H 727.893 -2.51692 -5.15096 0
M  V30 7492 H 726.29 -3.29627 -5.01464 0
M  V30 7493 H 727.36 -3.24632 -3.60198 0
M  V30 7494 N 728.703 1.26451 -0.940633 0
M  V30 7495 C 729.951 1.93395 -0.586748 0
M  V30 7496 C 730.272 1.7417 0.876921 0
M  V30 7497 O 729.542 1.097 1.62304 0
M  V30 7498 H 728.122 0.715687 -0.214012 0
M  V30 7499 H 730.784 1.53902 -1.19584 0
M  V30 7500 H 729.88 3.01565 -0.804059 0
M  V30 7501 N 730.181 0.707592 1.40822 0
M  V30 7502 C 731.429 0.243189 2.00632 0
M  V30 7503 C 731.75 -1.16512 1.56365 0
M  V30 7504 O 731.02 -1.78841 0.799553 0
M  V30 7505 H 729.6 0.0869203 0.741926 0
M  V30 7506 H 732.262 0.911438 1.72275 0
M  V30 7507 H 731.358 0.270014 3.1093 0
M  V30 7508 N 731.66 -1.50943 0.453197 0
M  V30 7509 C 732.57 -2.31884 -0.355963 0
M  V30 7510 C 733.586 -1.41481 -1.01287 0
M  V30 7511 O 734.762 -1.74546 -1.00477 0
M  V30 7512 C 731.827 -3.15668 -1.43369 0
M  V30 7513 C 730.888 -4.2187 -0.795253 0
M  V30 7514 C 730.121 -5.0165 -1.82162 0
M  V30 7515 O 730.344 -4.82266 -3.04592 0
M  V30 7516 O 729.278 -5.85311 -1.40336 0
M  V30 7517 H 733.104 -3.02162 0.305248 0
M  V30 7518 H 730.689 -1.47839 0.215398 0
M  V30 7519 H 732.571 -3.67709 -2.05836 0
M  V30 7520 H 731.246 -2.48137 -2.07869 0
M  V30 7521 H 730.153 -3.73867 -0.132106 0
M  V30 7522 H 731.486 -4.9182 -0.193484 0
M  V30 7523 N 733.138 -0.185124 -1.56509 0
M  V30 7524 C 734.368 0.461469 -2.0138 0
M  V30 7525 C 734.776 1.56417 -1.06445 0
M  V30 7526 O 734.119 1.83603 -0.0597515 0
M  V30 7527 C 734.181 1.08731 -3.42663 0
M  V30 7528 C 733.845 0.124581 -4.5683 0
M  V30 7529 C 734.842 -0.662295 -5.15664 0
M  V30 7530 C 732.527 0.0163947 -5.02297 0
M  V30 7531 C 734.521 -1.54442 -6.18406 0
M  V30 7532 C 732.208 -0.869301 -6.04885 0
M  V30 7533 C 733.206 -1.64828 -6.62813 0
M  V30 7534 O 732.894 -2.51915 -7.63409 0
M  V30 7535 H 732.626 0.1212 -0.665046 0
M  V30 7536 H 735.18 -0.288119 -2.03369 0
M  V30 7537 H 733.41 1.8853 -3.37629 0
M  V30 7538 H 735.099 1.63753 -3.71403 0
M  V30 7539 H 735.865 -0.588963 -4.81411 0
M  V30 7540 H 731.744 0.61253 -4.56913 0
M  V30 7541 H 735.288 -2.15289 -6.63548 0
M  V30 7542 H 731.185 -0.943786 -6.38563 0
M  V30 7543 H 731.953 -2.45584 -7.80789 0
M  V30 7544 N 734.616 1.57351 0.0885366 0
M  V30 7545 C 735.579 2.01557 1.09121 0
M  V30 7546 C 736.579 0.910052 1.3257 0
M  V30 7547 O 737.769 1.17537 1.28572 0
M  V30 7548 C 734.901 2.38189 2.43883 0
M  V30 7549 H 736.094 2.91361 0.710562 0
M  V30 7550 H 733.647 1.52694 0.333779 0
M  V30 7551 H 734.382 1.5136 2.86811 0
M  V30 7552 H 734.167 3.18846 2.28209 0
M  V30 7553 H 735.657 2.73025 3.15986 0
M  V30 7554 N 736.094 -0.359525 1.53444 0
M  V30 7555 C 737.041 -1.44073 1.8031 0
M  V30 7556 C 738.011 -1.52946 0.647811 0
M  V30 7557 O 739.196 -1.68739 0.890614 0
M  V30 7558 C 736.336 -2.80941 2.00416 0
M  V30 7559 C 735.449 -2.80986 3.28132 0
M  V30 7560 C 734.584 -4.09468 3.38393 0
M  V30 7561 C 733.623 -4.03679 4.60119 0
M  V30 7562 N 732.76 -5.23821 4.675 0
M  V30 7563 H 737.6 -1.20464 2.72566 0
M  V30 7564 H 735.137 -0.583859 1.35017 0
M  V30 7565 H 737.095 -3.60459 2.1006 0
M  V30 7566 H 735.725 -3.02936 1.11489 0
M  V30 7567 H 734.777 -1.93666 3.27411 0
M  V30 7568 H 736.089 -2.72583 4.17732 0
M  V30 7569 H 735.243 -4.97404 3.47382 0
M  V30 7570 H 733.982 -4.20632 2.4682 0
M  V30 7571 H 732.987 -3.14129 4.51224 0
M  V30 7572 H 734.212 -3.94112 5.5304 0
M  V30 7573 H 732.158 -5.35559 3.7883 0
M  V30 7574 H 732.075 -5.17611 5.51013 0
M  V30 7575 H 733.343 -6.13572 4.8078 0
M  V30 7576 N 737.572 -1.44907 -0.619662 0
M  V30 7577 C 738.502 -1.55488 -1.742 0
M  V30 7578 C 739.483 -0.407143 -1.65156 0
M  V30 7579 O 740.668 -0.628743 -1.8374 0
M  V30 7580 C 737.798 -1.5097 -3.1277 0
M  V30 7581 C 736.752 -2.64337 -3.36615 0
M  V30 7582 C 736.078 -2.44872 -4.75333 0
M  V30 7583 C 737.378 -4.06423 -3.28051 0
M  V30 7584 H 739.072 -2.49432 -1.65602 0
M  V30 7585 H 736.618 -1.20047 -0.795281 0
M  V30 7586 H 738.571 -1.56971 -3.91073 0
M  V30 7587 H 737.295 -0.535486 -3.2218 0
M  V30 7588 H 735.954 -2.57744 -2.60698 0
M  V30 7589 H 735.602 -1.45617 -4.81461 0
M  V30 7590 H 735.302 -3.20888 -4.92244 0
M  V30 7591 H 736.826 -2.52709 -5.55851 0
M  V30 7592 H 738.24 -4.14324 -3.96243 0
M  V30 7593 H 736.637 -4.82733 -3.56495 0
M  V30 7594 H 737.707 -4.29183 -2.25676 0
M  V30 7595 N 739.05 0.861098 -1.31996 0
M  V30 7596 C 740.29 1.62873 -1.23498 0
M  V30 7597 C 740.654 1.90938 0.201692 0
M  V30 7598 O 741.855 2.6565 0.410305 0
M  V30 7599 C 740.126 2.91759 -2.06426 0
M  V30 7600 S 741.685 3.82583 -2.14885 0
M  V30 7601 H 738.503 0.558726 -0.439712 0
M  V30 7602 H 741.105 1.02025 -1.66767 0
M  V30 7603 H 739.809 2.69077 -3.0988 0
M  V30 7604 H 739.34 3.57627 -1.6391 0
M  V30 7605 H 741.355 4.7904 -1.29364 0
M  V30 7606 N 740.528 1.15101 1.07655 0
M  V30 7607 C 741.768 0.934462 1.81789 0
M  V30 7608 C 742.132 -0.529101 1.84566 0
M  V30 7609 O 743.333 -0.863868 2.5454 0
M  V30 7610 C 741.604 1.52817 3.23082 0
M  V30 7611 S 743.163 1.45429 4.14 0
M  V30 7612 H 739.981 0.336379 0.626395 0
M  V30 7613 H 742.583 1.46593 1.29347 0
M  V30 7614 H 741.287 2.58635 3.18647 0
M  V30 7615 H 740.818 0.995432 3.80598 0
M  V30 7616 H 742.833 0.445058 4.942 0
M  V30 7617 N 742.006 -1.2595 0.947325 0
M  V30 7618 C 742.954 -2.28152 0.452687 0
M  V30 7619 C 743.948 -1.62655 -0.473239 0
M  V30 7620 O 745.154 -1.76549 -0.350774 0
M  V30 7621 H 741.529 -0.741049 0.12787 0
M  V30 7622 H 743.5 -2.67267 1.32707 0
M  V30 7623 C 742.249 -3.46719 -0.26098 0
M  V30 7624 H 741.572 -3.97345 0.442352 0
M  V30 7625 H 743.012 -4.20135 -0.571208 0
M  V30 7626 C 741.471 -3.02605 -1.48094 0
M  V30 7627 O 742.001 -3.07979 -2.57899 0
M  V30 7628 N 740.207 -2.57877 -1.33969 0
M  V30 7629 H 739.754 -2.53704 -0.446295 0
M  V30 7630 H 739.712 -2.28725 -2.15713 0
M  V30 7631 N 743.484 -0.715051 -1.40445 0
M  V30 7632 C 744.895 -0.326763 -1.83818 0
M  V30 7633 C 745.246 1.13851 -1.59789 0
M  V30 7634 O 744.371 1.87611 -1.07848 0
M  V30 7635 C 744.966 -0.586297 -3.33688 0
M  V30 7636 C 743.525 -0.251724 -3.75557 0
M  V30 7637 C 742.672 -0.858928 -2.63662 0
M  V30 7638 H 745.623 -0.914241 -1.2972 0
M  V30 7639 H 745.644 0.148636 -3.8021 0
M  V30 7640 H 745.156 -1.65281 -3.51146 0
M  V30 7641 H 743.257 0.809754 -3.63695 0
M  V30 7642 H 743.37 -0.720348 -4.73654 0
M  V30 7643 H 741.734 -0.287013 -2.53078 0
M  V30 7644 H 742.517 -1.9297 -2.83932 0
M  V30 7645 N 744.962 1.50701 -0.461195 0
M  V30 7646 C 746.208 2.02566 0.0973411 0
M  V30 7647 C 746.541 1.3432 1.40257 0
M  V30 7648 O 745.816 0.465692 1.88843 0
M  V30 7649 C 746.099 3.58919 0.291423 0
M  V30 7650 C 745.952 4.37751 -1.03413 0
M  V30 7651 C 747.271 4.27379 1.05048 0
M  V30 7652 H 744.39 0.73622 0.0339026 0
M  V30 7653 H 747.032 1.80115 -0.604855 0
M  V30 7654 H 745.182 3.78179 0.889539 0
M  V30 7655 H 746.854 4.30085 -1.66806 0
M  V30 7656 H 745.097 4.01885 -1.63313 0
M  V30 7657 H 745.768 5.45384 -0.852085 0
M  V30 7658 H 748.244 4.12534 0.543603 0
M  V30 7659 H 747.12 5.36609 1.15506 0
M  V30 7660 H 747.381 3.89868 2.0846 0
M  V30 7661 N 746.441 0.193421 1.56409 0
M  V30 7662 C 747.388 -0.728124 2.19014 0
M  V30 7663 C 748.358 -1.21098 1.13686 0
M  V30 7664 O 749.543 -1.27517 1.4193 0
M  V30 7665 C 746.683 -1.94277 2.8522 0
M  V30 7666 C 745.796 -1.50143 4.05069 0
M  V30 7667 C 744.931 -2.67145 4.59137 0
M  V30 7668 C 743.97 -2.19609 5.71348 0
M  V30 7669 N 743.107 -3.29782 6.19829 0
M  V30 7670 H 747.947 -0.187499 2.9741 0
M  V30 7671 H 745.484 -0.0808064 1.46878 0
M  V30 7672 H 747.442 -2.65551 3.21774 0
M  V30 7673 H 746.072 -2.45673 2.09391 0
M  V30 7674 H 745.124 -0.684624 3.74189 0
M  V30 7675 H 746.436 -1.11266 4.86232 0
M  V30 7676 H 745.59 -3.46544 4.97988 0
M  V30 7677 H 744.329 -3.09295 3.77078 0
M  V30 7678 H 743.334 -1.38664 5.32027 0
M  V30 7679 H 744.559 -1.78492 6.55223 0
M  V30 7680 H 742.505 -3.71466 5.40693 0
M  V30 7681 H 742.422 -2.95069 6.96039 0
M  V30 7682 H 743.69 -4.094 6.63334 0
M  V30 7683 N 747.919 -1.57396 -0.0801906 0
M  V30 7684 C 748.849 -2.06145 -1.09665 0
M  V30 7685 C 749.83 -0.953273 -1.40878 0
M  V30 7686 O 751.015 -1.22548 -1.50651 0
M  V30 7687 C 748.145 -2.49836 -2.41245 0
M  V30 7688 C 747.099 -3.64454 -2.24405 0
M  V30 7689 C 746.425 -3.94172 -3.61293 0
M  V30 7690 C 747.725 -4.94807 -1.67223 0
M  V30 7691 H 749.419 -2.91316 -0.691028 0
M  V30 7692 H 746.965 -1.40145 -0.330957 0
M  V30 7693 H 748.918 -2.82552 -3.12638 0
M  V30 7694 H 747.642 -1.61683 -2.83771 0
M  V30 7695 H 746.301 -3.32008 -1.55454 0
M  V30 7696 H 745.949 -3.03163 -4.01374 0
M  V30 7697 H 745.649 -4.71345 -3.50867 0
M  V30 7698 H 747.173 -4.29376 -4.3413 0
M  V30 7699 H 748.587 -5.25807 -2.28472 0
M  V30 7700 H 746.984 -5.76245 -1.67515 0
M  V30 7701 H 748.054 -4.80751 -0.632944 0
M  V30 7702 N 749.397 0.351382 -1.53633 0
M  V30 7703 C 750.622 1.11718 -1.74739 0
M  V30 7704 C 751.047 1.81829 -0.481657 0
M  V30 7705 O 750.405 1.72264 0.565233 0
M  V30 7706 C 750.453 2.11234 -2.92254 0
M  V30 7707 O 749.557 3.186 -2.61855 0
M  V30 7708 H 748.898 0.323482 -0.579875 0
M  V30 7709 H 751.428 0.404167 -2.00568 0
M  V30 7710 H 751.438 2.54591 -3.18822 0
M  V30 7711 H 750.113 1.59599 -3.84058 0
M  V30 7712 H 748.69 2.80115 -2.4615 0
M  V30 7713 N 750.875 1.45233 0.611969 0
M  V30 7714 C 751.785 1.56098 1.7513 0
M  V30 7715 C 752.801 0.445646 1.68196 0
M  V30 7716 O 753.977 0.705718 1.88631 0
M  V30 7717 C 751.042 1.52052 3.11579 0
M  V30 7718 C 750.103 2.74589 3.29999 0
M  V30 7719 C 749.336 2.70726 4.59938 0
M  V30 7720 O 749.559 1.77806 5.41979 0
M  V30 7721 O 748.493 3.61864 4.80976 0
M  V30 7722 H 752.319 2.52392 1.68914 0
M  V30 7723 H 749.904 1.27695 0.775528 0
M  V30 7724 H 751.786 1.52387 3.92882 0
M  V30 7725 H 750.461 0.589085 3.18295 0
M  V30 7726 H 749.368 2.79817 2.48301 0
M  V30 7727 H 750.701 3.66843 3.28157 0
M  V30 7728 N 752.353 -0.854086 1.3245 0
M  V30 7729 C 753.602 -1.60318 1.22397 0
M  V30 7730 C 753.915 -1.9444 -0.212664 0
M  V30 7731 O 755.121 -2.67991 -0.435066 0
M  V30 7732 C 753.577 -2.8909 2.1437 0
M  V30 7733 C 753.185 -2.62391 3.63119 0
M  V30 7734 C 754.929 -3.67104 2.13155 0
M  V30 7735 C 752.836 -3.87167 4.47052 0
M  V30 7736 H 751.766 -0.601586 0.454544 0
M  V30 7737 H 754.417 -0.943023 1.57415 0
M  V30 7738 H 752.799 -3.56567 1.72268 0
M  V30 7739 H 753.973 -2.03222 4.13567 0
M  V30 7740 H 752.288 -1.97706 3.66471 0
M  V30 7741 H 754.885 -4.59696 2.731 0
M  V30 7742 H 755.228 -4.00876 1.12268 0
M  V30 7743 H 755.761 -3.06533 2.5354 0
M  V30 7744 H 752.5 -3.58536 5.48755 0
M  V30 7745 H 752.02 -4.45729 4.01355 0
M  V30 7746 H 753.699 -4.549 4.60081 0
M  V30 7747 N 753.831 -1.1567 -1.07043 0
M  V30 7748 C 755.059 -0.957471 -1.83412 0
M  V30 7749 C 755.474 0.494271 -1.82215 0
M  V30 7750 O 754.831 1.34288 -1.23584 0
M  V30 7751 C 754.882 -1.46784 -3.30359 0
M  V30 7752 O 754.603 -2.86271 -3.31633 0
M  V30 7753 C 756.104 -1.31054 -4.23485 0
M  V30 7754 H 753.324 -0.33986 -0.578564 0
M  V30 7755 H 755.868 -1.53518 -1.35102 0
M  V30 7756 H 754.023 -0.932586 -3.76007 0
M  V30 7757 H 754.437 -3.0948 -4.23465 0
M  V30 7758 H 755.911 -1.71605 -5.24648 0
M  V30 7759 H 756.388 -0.255107 -4.38458 0
M  V30 7760 H 756.994 -1.83503 -3.83676 0
M  V30 7761 N 755.309 1.25446 -0.953992 0
M  V30 7762 C 756.219 2.29632 -0.480264 0
M  V30 7763 C 757.235 1.68025 0.452071 0
M  V30 7764 O 758.411 1.98703 0.328472 0
M  V30 7765 C 755.476 3.45903 0.234974 0
M  V30 7766 C 754.537 4.22953 -0.735495 0
M  V30 7767 C 753.77 5.33672 -0.0542957 0
M  V30 7768 O 753.993 5.58477 1.16018 0
M  V30 7769 O 752.927 5.9734 -0.739509 0
M  V30 7770 H 756.753 2.72242 -1.34602 0
M  V30 7771 H 754.338 1.30883 -0.720419 0
M  V30 7772 H 756.22 4.16552 0.637341 0
M  V30 7773 H 754.895 3.05296 1.07592 0
M  V30 7774 H 753.802 3.54734 -1.18806 0
M  V30 7775 H 755.135 4.67341 -1.54444 0
M  V30 7776 N 756.787 0.722489 1.40064 0
M  V30 7777 C 757.734 0.0743738 2.3068 0
M  V30 7778 C 758.704 -0.743004 1.48555 0
M  V30 7779 O 759.889 -0.705536 1.77276 0
M  V30 7780 C 757.029 -0.836292 3.34814 0
M  V30 7781 C 756.142 -0.00764663 4.31999 0
M  V30 7782 C 755.277 -0.918428 5.232 0
M  V30 7783 C 754.316 -0.0842838 6.12042 0
M  V30 7784 N 753.453 -0.950316 6.95639 0
M  V30 7785 H 758.293 0.852794 2.85537 0
M  V30 7786 H 755.83 0.432222 1.40607 0
M  V30 7787 H 757.788 -1.3786 3.93765 0
M  V30 7788 H 756.418 -1.58082 2.81443 0
M  V30 7789 H 755.47 0.651928 3.74772 0
M  V30 7790 H 756.782 0.63786 4.94705 0
M  V30 7791 H 755.936 -1.52902 5.87116 0
M  V30 7792 H 754.675 -1.59774 4.60786 0
M  V30 7793 H 753.68 0.5392 5.4715 0
M  V30 7794 H 754.905 0.591628 6.76518 0
M  V30 7795 H 752.851 -1.61515 6.35806 0
M  V30 7796 H 752.768 -0.361004 7.55138 0
M  V30 7797 H 754.036 -1.54687 7.63997 0
M  V30 7798 N 758.265 -1.50454 0.469181 0
M  V30 7799 C 759.676 -1.86695 0.0136034 0
M  V30 7800 C 760.027 -1.38413 -1.39055 0
M  V30 7801 O 759.152 -0.748294 -2.03051 0
M  V30 7802 C 759.747 -3.38795 0.0179098 0
M  V30 7803 C 758.306 -3.74455 -0.382191 0
M  V30 7804 C 757.453 -2.74338 0.404207 0
M  V30 7805 H 760.404 -1.43225 0.683547 0
M  V30 7806 H 760.425 -3.72321 -0.78468 0
M  V30 7807 H 759.937 -3.73906 1.04 0
M  V30 7808 H 758.038 -3.44944 -1.4087 0
M  V30 7809 H 758.151 -4.79025 -0.084862 0
M  V30 7810 H 756.515 -2.54305 -0.141829 0
M  V30 7811 H 757.298 -3.12293 1.42577 0
M  V30 7812 N 759.743 -0.201713 -1.56304 0
M  V30 7813 C 761.154 0.309711 -1.84113 0
M  V30 7814 C 761.505 1.60912 -1.12258 0
M  V30 7815 O 760.63 2.12937 -0.385587 0
M  V30 7816 C 761.225 0.568706 -3.33993 0
M  V30 7817 C 759.784 1.02448 -3.6219 0
M  V30 7818 C 758.931 0.0766842 -2.77194 0
M  V30 7819 H 761.882 -0.425356 -1.52893 0
M  V30 7820 H 761.903 1.41721 -3.53122 0
M  V30 7821 H 761.415 -0.37719 -3.86263 0
M  V30 7822 H 759.516 1.98443 -3.15359 0
M  V30 7823 H 759.629 0.912619 -4.70328 0
M  V30 7824 H 757.993 0.579809 -2.48013 0
M  V30 7825 H 758.776 -0.863774 -3.32256 0
M  V30 7826 N 761.222 1.57436 0.0718424 0
M  V30 7827 C 762.638 1.53792 0.426628 0
M  V30 7828 C 762.838 0.921887 1.79174 0
M  V30 7829 O 761.894 0.524374 2.46995 0
M  V30 7830 C 763.207 2.98443 0.367739 0
M  V30 7831 C 764.755 3.09778 0.447928 0
M  V30 7832 C 765.23 4.5608 0.418946 0
M  V30 7833 N 766.721 4.60716 0.479022 0
M  V30 7834 C 767.456 5.71397 0.47881 0
M  V30 7835 N 766.952 6.91443 0.433417 0
M  V30 7836 N 768.745 5.59639 0.525364 0
M  V30 7837 H 760.896 1.95848 -0.822033 0
M  V30 7838 H 763.159 0.896418 -0.308447 0
M  V30 7839 H 762.865 3.47072 -0.56865 0
M  V30 7840 H 762.739 3.58335 1.17795 0
M  V30 7841 H 765.126 2.61122 1.37474 0
M  V30 7842 H 765.207 2.52796 -0.390857 0
M  V30 7843 H 764.851 5.05393 -0.504016 0
M  V30 7844 H 764.781 5.10925 1.27526 0
M  V30 7845 H 767.272 3.74328 0.518355 0
M  V30 7846 H 767.585 7.71562 0.43718 0
M  V30 7847 H 765.93 6.93847 0.400106 0
M  V30 7848 H 769.121 4.64756 0.558519 0
M  V30 7849 H 769.294 6.45896 0.52173 0
M  V30 7850 N 762.7 -0.34323 1.53817 0
M  V30 7851 C 763.928 -1.10348 1.75017 0
M  V30 7852 C 764.343 -1.82345 0.489475 0
M  V30 7853 O 763.7 -1.74362 -0.538886 0
M  V30 7854 C 763.751 -2.11672 2.93048 0
M  V30 7855 O 763.472 -1.42603 4.14241 0
M  V30 7856 C 764.973 -3.0007 3.26301 0
M  V30 7857 H 762.193 -0.329056 0.584776 0
M  V30 7858 H 764.737 -0.395339 2.00642 0
M  V30 7859 H 762.892 -2.78051 2.69753 0
M  V30 7860 H 763.306 -2.10294 4.80496 0
M  V30 7861 H 764.78 -3.67101 4.12239 0
M  V30 7862 H 765.257 -3.66105 2.42618 0
M  V30 7863 H 765.863 -2.3928 3.51604 0
M  V30 7864 N 764.178 -1.45556 -0.604258 0
M  V30 7865 C 765.11 -1.50494 -1.72871 0
M  V30 7866 C 766.123 -0.395368 -1.57926 0
M  V30 7867 O 767.312 -0.662603 -1.65746 0
M  V30 7868 C 764.412 -1.34874 -3.10906 0
M  V30 7869 C 763.585 -2.59564 -3.52058 0
M  V30 7870 C 762.644 -2.38453 -4.6907 0
M  V30 7871 O 761.67 -3.12082 -4.76018 0
M  V30 7872 N 762.872 -1.43229 -5.62553 0
M  V30 7873 H 765.637 -2.4744 -1.69097 0
M  V30 7874 H 763.198 -1.41338 -0.789636 0
M  V30 7875 H 765.19 -1.18556 -3.86945 0
M  V30 7876 H 763.76 -0.461913 -3.09168 0
M  V30 7877 H 762.98 -2.90974 -2.65946 0
M  V30 7878 H 764.268 -3.42441 -3.76313 0
M  V30 7879 H 763.666 -0.824714 -5.59656 0
M  V30 7880 H 762.223 -1.32882 -6.38111 0
M  V30 7881 N 765.656 0.84705 -1.32902 0
M  V30 7882 C 766.603 1.95624 -1.22473 0
M  V30 7883 C 767.573 1.65767 -0.105178 0
M  V30 7884 O 768.758 1.88704 -0.282042 0
M  V30 7885 C 765.898 3.31434 -0.961542 0
M  V30 7886 C 765.011 3.73741 -2.1666 0
M  V30 7887 C 764.146 4.98379 -1.83825 0
M  V30 7888 C 763.185 5.33199 -3.00609 0
M  V30 7889 N 762.322 6.49014 -2.67816 0
M  V30 7890 H 767.162 2.03875 -2.17345 0
M  V30 7891 H 764.699 0.997764 -1.08088 0
M  V30 7892 H 766.657 4.09663 -0.789411 0
M  V30 7893 H 765.287 3.22762 -0.0495938 0
M  V30 7894 H 764.339 2.91102 -2.44875 0
M  V30 7895 H 765.651 3.95462 -3.03993 0
M  V30 7896 H 764.805 5.84336 -1.63208 0
M  V30 7897 H 763.544 4.78611 -0.937172 0
M  V30 7898 H 762.549 4.4575 -3.21849 0
M  V30 7899 H 763.774 5.5492 -3.9146 0
M  V30 7900 H 761.72 6.30748 -1.80258 0
M  V30 7901 H 761.637 6.7079 -3.48679 0
M  V30 7902 H 762.905 7.38103 -2.50647 0
M  V30 7903 N 767.134 1.16236 1.06428 0
M  V30 7904 C 768.044 0.881976 2.1739 0
M  V30 7905 C 769.06 -0.145259 1.73393 0
M  V30 7906 O 770.236 0.0310558 2.01376 0
M  V30 7907 C 767.301 0.385496 3.4455 0
M  V30 7908 C 766.362 1.47779 4.03063 0
M  V30 7909 C 765.595 1.0049 5.24154 0
M  V30 7910 O 765.818 -0.145889 5.70213 0
M  V30 7911 O 764.752 1.79265 5.74585 0
M  V30 7912 H 768.578 1.80983 2.43883 0
M  V30 7913 H 766.163 0.942226 1.15942 0
M  V30 7914 H 768.045 0.115536 4.21242 0
M  V30 7915 H 766.72 -0.514369 3.19587 0
M  V30 7916 H 765.627 1.80147 3.27869 0
M  V30 7917 H 766.96 2.35291 4.32318 0
M  V30 7918 N 768.612 -1.24939 0.960631 0
M  V30 7919 C 769.542 -2.28 0.503815 0
M  V30 7920 C 770.523 -1.63959 -0.452928 0
M  V30 7921 O 771.708 -1.91009 -0.350585 0
M  V30 7922 C 768.838 -3.46643 -0.213535 0
M  V30 7923 C 767.792 -4.22903 0.658535 0
M  V30 7924 C 767.118 -5.34363 -0.189902 0
M  V30 7925 C 768.418 -4.84949 1.93963 0
M  V30 7926 H 770.112 -2.66462 1.36521 0
M  V30 7927 H 767.658 -1.28093 0.657897 0
M  V30 7928 H 769.611 -4.1787 -0.544286 0
M  V30 7929 H 768.335 -3.07187 -1.10923 0
M  V30 7930 H 766.994 -3.53467 0.972455 0
M  V30 7931 H 766.642 -4.91147 -1.08553 0
M  V30 7932 H 766.342 -5.86302 0.390331 0
M  V30 7933 H 767.866 -6.0842 -0.515484 0
M  V30 7934 H 769.28 -5.48288 1.67491 0
M  V30 7935 H 767.677 -5.47091 2.46601 0
M  V30 7936 H 768.747 -4.06799 2.639 0
M  V30 7937 N 770.09 -0.729906 -1.39679 0
M  V30 7938 C 771.053 -0.0951668 -2.29002 0
M  V30 7939 C 772.053 0.672471 -1.46063 0
M  V30 7940 O 773.243 0.502245 -1.66803 0
M  V30 7941 C 770.375 0.874631 -3.29489 0
M  V30 7942 H 771.568 -0.882062 -2.86635 0
M  V30 7943 H 769.121 -0.495424 -1.4824 0
M  V30 7944 H 769.856 1.68807 -2.76902 0
M  V30 7945 H 769.641 0.326893 -3.90735 0
M  V30 7946 H 771.131 1.31548 -3.96339 0
M  V30 7947 N 771.568 1.50203 -0.477153 0
M  V30 7948 C 772.798 2.0647 0.0731427 0
M  V30 7949 C 773.206 1.3405 1.33518 0
M  V30 7950 O 772.549 0.405164 1.79176 0
M  V30 7951 C 772.611 3.57025 0.421121 0
M  V30 7952 C 772.275 4.50973 -0.739765 0
M  V30 7953 C 773.272 4.939 -1.62353 0
M  V30 7954 C 770.957 4.93581 -0.93181 0
M  V30 7955 C 772.951 5.78149 -2.6837 0
M  V30 7956 C 770.638 5.77612 -1.99519 0
M  V30 7957 C 771.636 6.19798 -2.86949 0
M  V30 7958 O 771.324 7.02152 -3.91456 0
M  V30 7959 H 771.056 0.675969 -0.00648243 0
M  V30 7960 H 773.61 1.94278 -0.66673 0
M  V30 7961 H 771.84 3.67141 1.21426 0
M  V30 7962 H 773.529 3.95632 0.907213 0
M  V30 7963 H 774.295 4.61646 -1.48687 0
M  V30 7964 H 770.174 4.60262 -0.260739 0
M  V30 7965 H 773.718 6.10997 -3.36643 0
M  V30 7966 H 769.615 6.09279 -2.13189 0
M  V30 7967 H 770.383 7.20414 -3.88518 0
M  V30 7968 N 773.046 0.209999 1.56195 0
M  V30 7969 C 773.976 -0.699746 2.22769 0
M  V30 7970 C 774.957 -1.20993 1.1956 0
M  V30 7971 O 776.142 -1.25605 1.48112 0
M  V30 7972 C 773.272 -1.91302 2.89863 0
M  V30 7973 C 772.226 -1.53715 3.99444 0
M  V30 7974 C 771.552 -2.82826 4.53777 0
M  V30 7975 C 772.852 -0.735836 5.17091 0
M  V30 7976 H 774.546 -0.144716 2.9905 0
M  V30 7977 H 772.092 -0.0681645 1.43839 0
M  V30 7978 H 774.045 -2.5548 3.35124 0
M  V30 7979 H 772.769 -2.49283 2.11011 0
M  V30 7980 H 771.428 -0.918892 3.54897 0
M  V30 7981 H 771.076 -3.38927 3.71669 0
M  V30 7982 H 770.776 -2.58415 5.27727 0
M  V30 7983 H 772.3 -3.47966 5.01749 0
M  V30 7984 H 773.714 -1.28105 5.58804 0
M  V30 7985 H 772.111 -0.589272 5.972 0
M  V30 7986 H 773.181 0.260004 4.84202 0
M  V30 7987 N 774.524 -1.57472 -0.0634922 0
M  V30 7988 C 775.749 -1.92273 -0.77756 0
M  V30 7989 C 776.174 -0.807141 -1.69902 0
M  V30 7990 O 775.532 0.239523 -1.79711 0
M  V30 7991 C 775.58 -3.26054 -1.54017 0
M  V30 7992 O 774.684 -3.15873 -2.65138 0
M  V30 7993 H 774.025 -0.629389 -0.211579 0
M  V30 7994 H 776.555 -2.04579 -0.0292523 0
M  V30 7995 H 776.565 -3.60127 -1.91763 0
M  V30 7996 H 775.24 -4.06824 -0.864128 0
M  V30 7997 H 773.817 -2.93373 -2.30189 0
M  V30 7998 N 776.003 0.335068 -1.53997 0
M  V30 7999 C 776.913 1.43511 -1.85585 0
M  V30 8000 C 777.929 1.57162 -0.746726 0
M  V30 8001 O 779.105 1.72477 -1.03988 0
M  V30 8002 C 776.17 2.78386 -2.06646 0
M  V30 8003 C 775.231 2.74007 -3.30483 0
M  V30 8004 C 774.464 4.02449 -3.50529 0
M  V30 8005 O 774.687 5.00147 -2.74242 0
M  V30 8006 O 773.621 4.06405 -4.4398 0
M  V30 8007 H 777.447 1.19731 -2.79102 0
M  V30 8008 H 775.032 0.528033 -1.39758 0
M  V30 8009 H 776.914 3.58247 -2.21894 0
M  V30 8010 H 775.589 3.0208 -1.16317 0
M  V30 8011 H 774.496 1.92736 -3.2063 0
M  V30 8012 H 775.829 2.55267 -4.20832 0
M  V30 8013 N 777.481 1.45874 0.596531 0
M  V30 8014 C 778.411 1.5824 1.71705 0
M  V30 8015 C 779.392 0.433366 1.64487 0
M  V30 8016 O 780.577 0.657895 1.82717 0
M  V30 8017 C 777.707 1.55927 3.10329 0
M  V30 8018 C 776.661 2.69659 3.32367 0
M  V30 8019 C 775.987 2.52403 4.71377 0
M  V30 8020 C 777.287 4.11591 3.21544 0
M  V30 8021 H 778.981 2.52035 1.61613 0
M  V30 8022 H 776.527 1.21297 0.776082 0
M  V30 8023 H 778.48 1.63173 3.88526 0
M  V30 8024 H 777.204 0.586674 3.21288 0
M  V30 8025 H 775.863 2.61859 2.56564 0
M  V30 8026 H 775.511 1.53258 4.79083 0
M  V30 8027 H 775.211 3.28679 4.87077 0
M  V30 8028 H 776.735 2.6152 5.5176 0
M  V30 8029 H 778.149 4.20576 3.89601 0
M  V30 8030 H 776.546 4.88344 3.4877 0
M  V30 8031 H 777.616 4.32719 2.1882 0
M  V30 8032 N 778.959 -0.83999 1.33349 0
M  V30 8033 C 780.37 -1.41139 1.22216 0
M  V30 8034 C 780.721 -1.95551 -0.159398 0
M  V30 8035 O 779.846 -1.88721 -1.05893 0
M  V30 8036 C 780.441 -2.56564 2.21269 0
M  V30 8037 C 779 -3.09661 2.13979 0
M  V30 8038 C 778.147 -1.82457 2.08818 0
M  V30 8039 H 781.098 -0.645853 1.44964 0
M  V30 8040 H 781.119 -3.34163 1.81976 0
M  V30 8041 H 780.631 -2.16932 3.21811 0
M  V30 8042 H 778.732 -3.53841 1.16736 0
M  V30 8043 H 778.845 -3.6991 3.04472 0
M  V30 8044 H 777.209 -2.0266 1.54276 0
M  V30 8045 H 777.992 -1.45022 3.11165 0
M  V30 8046 N 780.437 -1.16799 -1.0581 0
M  V30 8047 C 781.848 -0.95945 -1.60161 0
M  V30 8048 C 782.199 0.49543 -1.89842 0
M  V30 8049 O 781.324 1.36957 -1.67546 0
M  V30 8050 C 781.919 -1.73527 -2.90987 0
M  V30 8051 C 780.478 -1.57158 -3.42021 0
M  V30 8052 C 779.625 -1.74089 -2.15843 0
M  V30 8053 H 782.576 -1.31598 -0.886992 0
M  V30 8054 H 782.597 -1.21397 -3.60615 0
M  V30 8055 H 782.109 -2.79411 -2.69353 0
M  V30 8056 H 780.21 -0.537361 -3.68705 0
M  V30 8057 H 780.323 -2.35858 -4.17022 0
M  V30 8058 H 778.687 -1.16874 -2.26302 0
M  V30 8059 H 779.47 -2.81371 -1.96686 0
M  V30 8060 N 781.915 1.24427 -0.967243 0
M  V30 8061 C 783.143 1.96541 -0.646477 0
M  V30 8062 C 783.558 1.71753 0.783996 0
M  V30 8063 O 782.915 1.00102 1.52597 0
M  V30 8064 C 782.966 3.4983 -0.911098 0
M  V30 8065 O 782.687 3.7377 -2.28534 0
M  V30 8066 C 784.188 4.3916 -0.604458 0
M  V30 8067 H 781.408 0.626129 -0.241255 0
M  V30 8068 H 783.952 1.58268 -1.29505 0
M  V30 8069 H 782.107 3.86168 -0.308741 0
M  V30 8070 H 782.521 4.68154 -2.365 0
M  V30 8071 H 783.995 5.4557 -0.840069 0
M  V30 8072 H 784.472 4.36771 0.461273 0
M  V30 8073 H 785.078 4.08409 -1.1867 0
M  V30 8074 N 783.393 0.737304 1.3929 0
M  V30 8075 C 784.804 0.355966 1.83275 0
M  V30 8076 C 785.155 -1.11295 1.6158 0
M  V30 8077 O 784.28 -1.85871 1.10819 0
M  V30 8078 C 784.875 0.63931 3.32713 0
M  V30 8079 C 783.434 0.31144 3.75109 0
M  V30 8080 C 782.581 0.900765 2.62262 0
M  V30 8081 H 785.532 0.934763 1.28249 0
M  V30 8082 H 785.553 -0.0881293 3.80398 0
M  V30 8083 H 785.065 1.70847 3.48472 0
M  V30 8084 H 783.166 -0.751791 3.64937 0
M  V30 8085 H 783.279 0.795611 4.72448 0
M  V30 8086 H 781.643 0.327239 2.52589 0
M  V30 8087 H 782.426 1.97463 2.80826 0
M  V30 8088 N 784.871 -1.49948 0.485112 0
M  V30 8089 C 785.801 -2.31675 -0.291364 0
M  V30 8090 C 786.782 -1.39216 -0.977383 0
M  V30 8091 O 787.967 -1.68133 -0.971855 0
M  V30 8092 C 785.097 -3.19326 -1.36558 0
M  V30 8093 C 784.051 -4.2045 -0.800359 0
M  V30 8094 C 783.377 -4.96931 -1.97391 0
M  V30 8095 C 784.677 -5.21925 0.197867 0
M  V30 8096 H 786.371 -2.96839 0.390775 0
M  V30 8097 H 783.917 -1.42749 0.189375 0
M  V30 8098 H 785.87 -3.75304 -1.91638 0
M  V30 8099 H 784.594 -2.52074 -2.07668 0
M  V30 8100 H 783.253 -3.65594 -0.271428 0
M  V30 8101 H 782.901 -4.26141 -2.67232 0
M  V30 8102 H 782.601 -5.65344 -1.60187 0
M  V30 8103 H 784.125 -5.55749 -2.52935 0
M  V30 8104 H 785.539 -5.72691 -0.264239 0
M  V30 8105 H 783.936 -5.98138 0.484908 0
M  V30 8106 H 785.006 -4.71809 1.11912 0
M  V30 8107 N 786.349 -0.21828 -1.56081 0
M  V30 8108 C 787.299 0.706492 -2.16778 0
M  V30 8109 C 788.283 1.15987 -1.11516 0
M  V30 8110 O 789.475 1.11441 -1.37513 0
M  V30 8111 C 786.604 1.91583 -2.8487 0
M  V30 8112 C 785.69 1.48228 -3.97353 0
M  V30 8113 N 786.081 0.761113 -5.00041 0
M  V30 8114 C 784.379 1.76982 -4.09382 0
M  V30 8115 C 785.08 0.540496 -5.79184 0
M  V30 8116 N 784.056 1.09622 -5.32432 0
M  V30 8117 H 787.858 0.147038 -2.93532 0
M  V30 8118 H 785.372 -0.0194049 -1.62388 0
M  V30 8119 H 787.369 2.58906 -3.26762 0
M  V30 8120 H 786.029 2.47979 -2.09611 0
M  V30 8121 H 787.04 0.414141 -5.16241 0
M  V30 8122 H 783.717 2.34721 -3.45271 0
M  V30 8123 H 785.107 -0.0332531 -6.71892 0
M  V30 8124 N 787.827 1.57504 0.0551401 0
M  V30 8125 C 789.073 1.88334 0.752216 0
M  V30 8126 C 789.406 0.812742 1.76375 0
M  V30 8127 O 788.681 -0.175198 1.93709 0
M  V30 8128 C 788.964 3.29824 1.44528 0
M  V30 8129 C 788.817 4.47553 0.449026 0
M  V30 8130 C 790.136 3.69808 2.38601 0
M  V30 8131 H 787.255 0.684973 0.271995 0
M  V30 8132 H 789.897 1.89994 0.0151895 0
M  V30 8133 H 788.047 3.28539 2.07351 0
M  V30 8134 H 789.719 4.60967 -0.175277 0
M  V30 8135 H 787.962 4.33168 -0.234162 0
M  V30 8136 H 788.633 5.43376 0.971917 0
M  V30 8137 H 791.109 3.72293 1.85842 0
M  V30 8138 H 789.985 4.69665 2.84088 0
M  V30 8139 H 790.246 3.00641 3.24141 0
M  V30 8140 N 789.305 -0.326896 1.54172 0
M  V30 8141 C 790.53 -1.08924 1.76494 0
M  V30 8142 C 790.955 -1.81039 0.510523 0
M  V30 8143 O 790.313 -1.73141 -0.537756 0
M  V30 8144 C 790.361 -2.06558 2.95578 0
M  V30 8145 O 789.465 -3.14394 2.6689 0
M  V30 8146 H 788.806 -0.314216 0.584948 0
M  V30 8147 H 791.336 -0.372207 2.01186 0
M  V30 8148 H 791.346 -2.49487 3.22832 0
M  V30 8149 H 790.021 -1.53469 3.86549 0
M  V30 8150 H 788.598 -2.76164 2.50576 0
M  V30 8151 N 790.784 -1.46188 -0.588786 0
M  V30 8152 C 791.694 -1.58865 -1.72624 0
M  V30 8153 C 792.71 -0.472348 -1.67466 0
M  V30 8154 O 793.886 -0.735638 -1.87484 0
M  V30 8155 C 790.951 -1.56989 -3.0912 0
M  V30 8156 C 790.012 -2.79804 -3.25589 0
M  V30 8157 C 789.245 -2.78009 -4.55573 0
M  V30 8158 O 789.468 -1.86406 -5.39082 0
M  V30 8159 O 788.402 -3.6947 -4.75159 0
M  V30 8160 H 792.228 -2.55047 -1.64878 0
M  V30 8161 H 789.813 -1.28912 -0.755115 0
M  V30 8162 H 791.695 -1.58618 -3.90408 0
M  V30 8163 H 790.37 -0.639648 -3.17317 0
M  V30 8164 H 789.277 -2.83732 -2.43818 0
M  V30 8165 H 790.61 -3.72017 -3.22279 0
M  V30 8166 N 792.262 0.832906 -1.33792 0
M  V30 8167 C 793.539 1.57359 -1.16178 0
M  V30 8168 C 793.919 2.09372 0.269532 0
M  V30 8169 O 793.267 1.89993 1.26944 0
M  V30 8170 C 793.477 2.70279 -2.20795 0
M  V30 8171 C 794.825 3.39305 -2.55259 0
M  V30 8172 O 795.849 2.80526 -2.19508 0
M  V30 8173 O 794.708 4.45428 -3.16632 0
M  V30 8174 H 791.802 0.694025 -0.449731 0
M  V30 8175 H 794.348 0.875144 -1.45394 0
M  V30 8176 H 793.12 2.29527 -3.16911 0
M  V30 8177 H 792.743 3.47782 -1.927 0
M  V30 8178 N 793.74 1.17359 1.05189 0
M  V30 8179 C 794.965 0.98709 1.82404 0
M  V30 8180 C 795.39 -0.459848 1.82392 0
M  V30 8181 O 794.748 -1.32924 1.23292 0
M  V30 8182 C 794.796 1.53276 3.26403 0
M  V30 8183 O 793.9 0.746541 4.05587 0
M  V30 8184 H 793.241 0.35047 0.563974 0
M  V30 8185 H 795.771 1.55856 1.32552 0
M  V30 8186 H 795.781 1.55504 3.77203 0
M  V30 8187 H 794.456 2.58603 3.25726 0
M  V30 8188 H 793.033 0.795671 3.64312 0
M  V30 8189 N 795.218 -1.23913 0.973828 0
M  V30 8190 C 796.443 -1.96735 0.656511 0
M  V30 8191 C 796.868 -1.71682 -0.768571 0
M  V30 8192 O 796.226 -0.984267 -1.52256 0
M  V30 8193 C 796.274 -3.48004 0.944735 0
M  V30 8194 O 795.378 -4.12387 0.0333357 0
M  V30 8195 H 794.719 -0.616119 0.247575 0
M  V30 8196 H 797.249 -1.57525 1.30564 0
M  V30 8197 H 797.259 -3.98424 0.87876 0
M  V30 8198 H 795.934 -3.65567 1.98328 0
M  V30 8199 H 794.511 -3.72585 0.153157 0
M  V30 8200 N 796.696 -0.74468 -1.38897 0
M  V30 8201 C 797.921 -0.306119 -2.05128 0
M  V30 8202 C 798.346 1.0541 -1.55789 0
M  V30 8203 O 797.704 1.66993 -0.705909 0
M  V30 8204 C 797.752 -0.328195 -3.59103 0
M  V30 8205 O 796.856 0.680876 -4.06741 0
M  V30 8206 H 796.197 -0.137209 -0.649669 0
M  V30 8207 H 798.727 -1.01331 -1.77745 0
M  V30 8208 H 798.737 -0.175956 -4.0762 0
M  V30 8209 H 797.412 -1.32067 -3.94374 0
M  V30 8210 H 795.989 0.49398 -3.69614 0
M  V30 8211 N 798.174 1.49689 -0.493057 0
M  V30 8212 C 799.585 1.8665 -0.0433032 0
M  V30 8213 C 799.936 1.40607 1.36836 0
M  V30 8214 O 799.061 0.780503 2.01834 0
M  V30 8215 C 799.656 3.38724 -0.0718069 0
M  V30 8216 C 798.215 3.75015 0.32257 0
M  V30 8217 C 797.362 2.7366 -0.4478 0
M  V30 8218 H 800.313 1.42119 -0.706246 0
M  V30 8219 H 800.334 3.73522 0.725347 0
M  V30 8220 H 799.846 3.72204 -1.09935 0
M  V30 8221 H 797.947 3.47142 1.35364 0
M  V30 8222 H 798.06 4.79099 0.00864259 0
M  V30 8223 H 796.424 2.54498 0.101354 0
M  V30 8224 H 797.207 3.09985 -1.47527 0
M  V30 8225 N 799.652 0.226554 1.55963 0
M  V30 8226 C 800.562 -0.692725 2.24139 0
M  V30 8227 C 801.578 -1.20971 1.25068 0
M  V30 8228 O 802.754 -1.25027 1.57893 0
M  V30 8229 C 799.819 -1.88183 2.91184 0
M  V30 8230 C 798.88 -1.40633 4.05612 0
M  V30 8231 C 798.113 -2.53875 4.6945 0
M  V30 8232 O 798.336 -3.72129 4.32292 0
M  V30 8233 O 797.27 -2.24792 5.58348 0
M  V30 8234 H 801.096 -0.141921 3.03368 0
M  V30 8235 H 798.681 -0.0041049 1.49399 0
M  V30 8236 H 800.563 -2.57617 3.33484 0
M  V30 8237 H 799.238 -2.42064 2.14911 0
M  V30 8238 H 798.145 -0.67986 3.67871 0
M  V30 8239 H 799.478 -0.913838 4.83642 0
M  V30 8240 N 801.13 -1.57531 -0.0467866 0
M  V30 8241 C 802.546 -1.54451 -0.402107 0
M  V30 8242 C 802.746 -0.950275 -1.77685 0
M  V30 8243 O 801.802 -0.563602 -2.4613 0
M  V30 8244 C 803.115 -2.9899 -0.320212 0
M  V30 8245 C 804.663 -3.10452 -0.398588 0
M  V30 8246 C 805.138 -4.56689 -0.346335 0
M  V30 8247 N 806.629 -4.6142 -0.405666 0
M  V30 8248 C 807.364 -5.72087 -0.387845 0
M  V30 8249 N 806.86 -6.92045 -0.32336 0
M  V30 8250 N 808.653 -5.60404 -0.436263 0
M  V30 8251 H 800.804 -1.94515 0.853087 0
M  V30 8252 H 803.067 -0.891397 0.322669 0
M  V30 8253 H 802.773 -3.46124 0.623794 0
M  V30 8254 H 802.647 -3.60164 -1.1208 0
M  V30 8255 H 805.034 -2.63276 -1.33302 0
M  V30 8256 H 805.115 -2.52142 0.431026 0
M  V30 8257 H 804.759 -5.04527 0.584356 0
M  V30 8258 H 804.689 -5.12889 -1.19382 0
M  V30 8259 H 807.18 -3.75105 -0.458737 0
M  V30 8260 H 807.493 -7.7216 -0.314375 0
M  V30 8261 H 805.838 -6.94396 -0.28967 0
M  V30 8262 H 809.029 -4.65586 -0.48451 0
M  V30 8263 H 809.202 -6.46645 -0.418907 0
M  V30 8264 N 802.608 0.318715 -1.54344 0
M  V30 8265 C 803.836 1.0755 -1.7675 0
M  V30 8266 C 804.251 1.81543 -0.518422 0
M  V30 8267 O 803.608 1.75198 0.511078 0
M  V30 8268 C 803.659 2.06983 -2.96378 0
M  V30 8269 O 803.38 1.35995 -4.16458 0
M  V30 8270 C 804.881 2.94841 -3.31034 0
M  V30 8271 H 802.101 0.319711 -0.589937 0
M  V30 8272 H 804.645 0.363369 -2.01246 0
M  V30 8273 H 802.8 2.73724 -2.74142 0
M  V30 8274 H 803.214 2.02623 -4.83781 0
M  V30 8275 H 804.688 3.60496 -4.18027 0
M  V30 8276 H 805.165 3.62199 -2.48412 0
M  V30 8277 H 805.771 2.33656 -3.55366 0
M  V30 8278 N 804.086 1.46499 0.581025 0
M  V30 8279 C 805.311 1.55708 1.37002 0
M  V30 8280 C 805.736 0.19942 1.8704 0
M  V30 8281 O 805.094 -0.820731 1.61659 0
M  V30 8282 C 805.142 2.56716 2.53238 0
M  V30 8283 O 804.246 2.10336 3.54729 0
M  V30 8284 H 803.587 0.523912 0.407937 0
M  V30 8285 H 806.117 1.92085 0.704602 0
M  V30 8286 H 806.127 2.76378 3.00132 0
M  V30 8287 H 804.802 3.55307 2.16171 0
M  V30 8288 H 803.379 2.00669 3.14303 0
M  V30 8289 N 805.565 -0.825799 1.34232 0
M  V30 8290 C 806.976 -1.39835 1.23706 0
M  V30 8291 C 807.327 -1.95709 -0.138649 0
M  V30 8292 O 806.452 -1.89833 -1.03886 0
M  V30 8293 C 807.047 -2.54203 2.23978 0
M  V30 8294 C 805.606 -3.07374 2.17251 0
M  V30 8295 C 804.753 -1.80232 2.10741 0
M  V30 8296 H 807.704 -0.630442 1.4564 0
M  V30 8297 H 807.725 -3.32214 1.8551 0
M  V30 8298 H 807.237 -2.13506 3.24094 0
M  V30 8299 H 805.338 -3.52583 1.20483 0
M  V30 8300 H 805.451 -3.6666 3.08379 0
M  V30 8301 H 803.815 -2.01012 1.56417 0
M  V30 8302 H 804.598 -1.41713 3.12686 0
M  V30 8303 N 807.043 -1.17915 -1.04565 0
M  V30 8304 C 808.454 -0.976383 -1.59134 0
M  V30 8305 C 808.805 0.475267 -1.90357 0
M  V30 8306 O 807.93 1.35172 -1.6899 0
M  V30 8307 C 808.525 -1.76604 -2.89131 0
M  V30 8308 C 807.084 -1.60777 -3.40335 0
M  V30 8309 C 806.231 -1.76369 -2.13985 0
M  V30 8310 H 809.182 -1.32532 -0.872985 0
M  V30 8311 H 809.203 -1.25215 -3.59307 0
M  V30 8312 H 808.715 -2.82252 -2.66375 0
M  V30 8313 H 806.816 -0.576436 -3.68114 0
M  V30 8314 H 806.929 -2.40268 -4.14497 0
M  V30 8315 H 805.293 -1.19268 -2.25049 0
M  V30 8316 H 806.076 -2.83441 -1.9369 0
M  V30 8317 N 808.521 1.23394 -0.980386 0
M  V30 8318 C 809.798 1.87242 -0.565667 0
M  V30 8319 C 810.178 1.88151 0.957197 0
M  V30 8320 O 809.526 1.36309 1.8339 0
M  V30 8321 C 809.736 3.28743 -1.17172 0
M  V30 8322 C 811.084 4.05335 -1.26446 0
M  V30 8323 O 812.108 3.37962 -1.12517 0
M  V30 8324 O 810.967 5.25908 -1.48604 0
M  V30 8325 H 808.061 0.80477 -0.190459 0
M  V30 8326 H 810.607 1.3127 -1.07547 0
M  V30 8327 H 809.379 3.22647 -2.21392 0
M  V30 8328 H 809.002 3.92305 -0.646739 0
M  V30 8329 N 809.999 0.752036 1.385 0
M  V30 8330 C 811.224 0.316993 2.04963 0
M  V30 8331 C 811.649 -1.04582 1.56346 0
M  V30 8332 O 811.007 -1.66616 0.714755 0
M  V30 8333 C 811.055 0.347235 3.58924 0
M  V30 8334 O 810.159 -0.659296 4.07096 0
M  V30 8335 H 809.5 0.140652 0.648932 0
M  V30 8336 H 812.03 1.02272 1.77205 0
M  V30 8337 H 812.04 0.19757 4.07521 0
M  V30 8338 H 810.715 1.34157 3.93668 0
M  V30 8339 H 809.292 -0.474371 3.6987 0
M  V30 8340 N 811.477 -1.49425 0.500989 0
M  V30 8341 C 812.702 -2.07356 -0.0425154 0
M  V30 8342 C 813.127 -1.35887 -1.30063 0
M  V30 8343 O 812.485 -0.41561 -1.76472 0
M  V30 8344 C 812.533 -3.59518 -0.279188 0
M  V30 8345 O 811.637 -3.89542 -1.3539 0
M  V30 8346 H 810.978 -0.663482 0.0262207 0
M  V30 8347 H 813.508 -1.92231 0.700607 0
M  V30 8348 H 813.518 -4.04791 -0.5107 0
M  V30 8349 H 812.193 -4.10946 0.640009 0
M  V30 8350 H 810.77 -3.56079 -1.10734 0
M  V30 8351 N 812.955 -0.234822 -1.55841 0
M  V30 8352 C 814.201 0.393843 -1.98939 0
M  V30 8353 C 814.534 1.58466 -1.1226 0
M  V30 8354 O 813.809 1.93635 -0.183242 0
M  V30 8355 C 814.092 0.815492 -3.50745 0
M  V30 8356 C 813.945 -0.379878 -4.48193 0
M  V30 8357 C 815.264 1.66687 -4.07312 0
M  V30 8358 H 812.383 0.141681 -0.723253 0
M  V30 8359 H 815.025 -0.333716 -1.87046 0
M  V30 8360 H 813.175 1.43541 -3.6101 0
M  V30 8361 H 814.847 -1.0182 -4.49923 0
M  V30 8362 H 813.09 -1.02507 -4.21515 0
M  V30 8363 H 813.761 -0.0417069 -5.51984 0
M  V30 8364 H 816.237 1.14369 -4.00074 0
M  V30 8365 H 815.113 1.93078 -5.13821 0
M  V30 8366 H 815.374 2.63468 -3.55017 0
M  V30 8367 N 814.433 1.57553 0.0384317 0
M  V30 8368 C 815.682 1.88022 0.730108 0
M  V30 8369 C 815.995 0.83209 1.77019 0
M  V30 8370 O 817.201 1.0257 2.51379 0
M  V30 8371 C 815.657 3.33637 1.3496 0
M  V30 8372 C 815.265 4.46659 0.346352 0
M  V30 8373 C 817.009 3.73266 2.02169 0
M  V30 8374 C 814.916 5.8333 0.973652 0
M  V30 8375 H 813.846 0.701496 0.276442 0
M  V30 8376 H 816.497 1.83493 -0.0158028 0
M  V30 8377 H 814.879 3.32882 2.1449 0
M  V30 8378 H 816.053 4.58868 -0.421558 0
M  V30 8379 H 814.368 4.15802 -0.223133 0
M  V30 8380 H 816.965 4.72689 2.49938 0
M  V30 8381 H 817.308 3.04776 2.8358 0
M  V30 8382 H 817.841 3.76156 1.29427 0
M  V30 8383 H 814.58 6.55197 0.199163 0
M  V30 8384 H 814.1 5.7486 1.71162 0
M  V30 8385 H 815.779 6.29757 1.48376 0
M  V30 8386 N 815.911 -0.310526 1.54511 0
M  V30 8387 C 817.157 -1.04846 1.73595 0
M  V30 8388 C 817.49 -1.87244 0.515118 0
M  V30 8389 O 816.765 -1.88282 -0.48786 0
M  V30 8390 C 817.048 -1.96237 3.01932 0
M  V30 8391 C 816.901 -1.17082 4.34295 0
M  V30 8392 C 818.22 -2.9556 3.26086 0
M  V30 8393 H 815.339 -0.37976 0.631626 0
M  V30 8394 H 817.981 -0.32394 1.87218 0
M  V30 8395 H 816.131 -2.58015 2.90449 0
M  V30 8396 H 817.803 -0.576643 4.57682 0
M  V30 8397 H 816.046 -0.473336 4.3121 0
M  V30 8398 H 816.717 -1.84257 5.20339 0
M  V30 8399 H 819.193 -2.43908 3.37117 0
M  V30 8400 H 818.069 -3.5668 4.17218 0
M  V30 8401 H 818.33 -3.68715 2.4393 0
M  V30 8402 N 817.389 -1.46805 -0.573248 0
M  V30 8403 C 818.617 -1.56191 -1.3569 0
M  V30 8404 C 819.032 -0.206362 -1.87669 0
M  V30 8405 O 818.389 0.797883 -1.64134 0
M  V30 8406 C 818.44 -2.57433 -2.53792 0
M  V30 8407 O 818.161 -3.87724 -2.03965 0
M  V30 8408 C 819.662 -2.76851 -3.4622 0
M  V30 8409 H 816.882 -0.527907 -0.414192 0
M  V30 8410 H 819.426 -1.92292 -0.695989 0
M  V30 8411 H 817.581 -2.24311 -3.15854 0
M  V30 8412 H 817.995 -4.42909 -2.80948 0
M  V30 8413 H 819.469 -3.5159 -4.25545 0
M  V30 8414 H 819.946 -1.84095 -3.98755 0
M  V30 8415 H 820.552 -3.11107 -2.89987 0
M  V30 8416 N 818.867 0.818669 -1.34668 0
M  V30 8417 C 819.797 1.94468 -1.29245 0
M  V30 8418 C 820.778 1.69257 -0.169101 0
M  V30 8419 O 821.963 1.90794 -0.362143 0
M  V30 8420 C 819.093 3.31001 -1.05145 0
M  V30 8421 C 818.047 3.70663 -2.13992 0
M  V30 8422 C 817.373 5.05226 -1.75074 0
M  V30 8423 C 818.673 3.82312 -3.55858 0
M  V30 8424 H 820.367 1.99263 -2.2346 0
M  V30 8425 H 817.913 0.957304 -1.07572 0
M  V30 8426 H 819.866 4.09364 -0.999949 0
M  V30 8427 H 818.59 3.26517 -0.0737312 0
M  V30 8428 H 817.249 2.94578 -2.18219 0
M  V30 8429 H 816.897 4.97233 -0.759518 0
M  V30 8430 H 816.597 5.32734 -2.47928 0
M  V30 8431 H 818.121 5.86042 -1.71427 0
M  V30 8432 H 819.535 4.50935 -3.5402 0
M  V30 8433 H 817.932 4.21278 -4.2737 0
M  V30 8434 H 819.002 2.84193 -3.9289 0
M  V30 8435 N 820.346 1.18468 1.03938 0
M  V30 8436 C 821.276 0.936389 2.13902 0
M  V30 8437 C 822.257 -0.126381 1.6963 0
M  V30 8438 O 823.442 0.0264757 1.94182 0
M  V30 8439 C 820.572 0.462729 3.44204 0
M  V30 8440 C 819.526 1.46613 4.02105 0
M  V30 8441 C 818.852 0.84994 5.27902 0
M  V30 8442 C 820.152 2.84323 4.3813 0
M  V30 8443 H 821.846 1.85602 2.3493 0
M  V30 8444 H 819.392 0.893806 1.12903 0
M  V30 8445 H 821.345 0.276382 4.20493 0
M  V30 8446 H 820.069 -0.492477 3.22866 0
M  V30 8447 H 818.728 1.63944 3.27899 0
M  V30 8448 H 818.376 -0.112493 5.02874 0
M  V30 8449 H 818.076 1.51988 5.67603 0
M  V30 8450 H 819.6 0.674152 6.06867 0
M  V30 8451 H 821.014 2.70636 5.054 0
M  V30 8452 H 819.411 3.48012 4.88884 0
M  V30 8453 H 820.481 3.37776 3.47901 0
M  V30 8454 N 821.824 -1.22873 0.986916 0
M  V30 8455 C 823.101 -1.86939 0.575589 0
M  V30 8456 C 823.481 -1.88656 -0.947205 0
M  V30 8457 O 822.829 -1.3728 -1.82665 0
M  V30 8458 C 823.039 -3.28117 1.18914 0
M  V30 8459 C 824.387 -4.04659 1.28593 0
M  V30 8460 O 825.411 -3.3736 1.14308 0
M  V30 8461 O 824.27 -5.25112 1.51391 0
M  V30 8462 H 821.364 -0.803748 0.194724 0
M  V30 8463 H 823.91 -1.30698 1.08241 0
M  V30 8464 H 822.682 -3.21468 2.231 0
M  V30 8465 H 822.305 -3.91956 0.667535 0
M  V30 8466 N 823.302 -0.75937 -1.38099 0
M  V30 8467 C 824.234 -0.0956547 -2.29 0
M  V30 8468 C 825.247 0.677561 -1.4803 0
M  V30 8469 O 826.436 0.517696 -1.70828 0
M  V30 8470 C 823.536 0.88844 -3.27047 0
M  V30 8471 C 822.709 0.171652 -4.37063 0
M  V30 8472 C 821.768 1.06733 -5.15262 0
M  V30 8473 O 820.794 0.535698 -5.66674 0
M  V30 8474 N 821.996 2.39486 -5.28797 0
M  V30 8475 H 824.761 -0.876354 -2.86601 0
M  V30 8476 H 822.322 -0.61065 -1.49942 0
M  V30 8477 H 824.314 1.49079 -3.76241 0
M  V30 8478 H 822.884 1.57018 -2.70304 0
M  V30 8479 H 822.104 -0.611473 -3.89429 0
M  V30 8480 H 823.392 -0.324121 -5.07767 0
M  V30 8481 H 822.79 2.85127 -4.88589 0
M  V30 8482 H 821.347 2.94758 -5.81344 0
M  V30 8483 N 824.78 1.49157 -0.508906 0
M  V30 8484 C 825.743 2.27784 0.25434 0
M  V30 8485 C 826.743 1.34132 0.88686 0
M  V30 8486 O 827.933 1.5722 0.750168 0
M  V30 8487 C 825.065 3.12347 1.36573 0
M  V30 8488 H 826.258 2.96718 -0.435714 0
M  V30 8489 H 823.811 1.54052 -0.264128 0
M  V30 8490 H 824.546 2.47997 2.08969 0
M  V30 8491 H 824.331 3.81213 0.917543 0
M  V30 8492 H 825.821 3.71712 1.90315 0
M  V30 8493 N 826.258 0.243083 1.55714 0
M  V30 8494 C 827.221 -0.644723 2.19945 0
M  V30 8495 C 828.221 -1.10562 1.16759 0
M  V30 8496 O 829.411 -1.01095 1.41865 0
M  V30 8497 C 826.543 -1.88569 2.83997 0
M  V30 8498 H 827.736 -0.0843839 2.99781 0
M  V30 8499 H 825.289 -0.00647246 1.56299 0
M  V30 8500 H 826.024 -2.48736 2.08089 0
M  V30 8501 H 825.809 -1.56345 3.59581 0
M  V30 8502 H 827.299 -2.51774 3.33166 0
M  V30 8503 N 827.736 -1.57571 -0.0300757 0
M  V30 8504 C 828.683 -2.06492 -1.03101 0
M  V30 8505 C 829.653 -0.953862 -1.3598 0
M  V30 8506 O 830.838 -1.22436 -1.46335 0
M  V30 8507 C 827.978 -2.54826 -2.32718 0
M  V30 8508 C 827.091 -3.79718 -2.06006 0
M  V30 8509 C 826.226 -4.16668 -3.29487 0
M  V30 8510 C 825.265 -5.3448 -2.98324 0
M  V30 8511 N 824.402 -5.66867 -4.14254 0
M  V30 8512 H 829.242 -2.91755 -0.606877 0
M  V30 8513 H 826.779 -1.44252 -0.288038 0
M  V30 8514 H 828.737 -2.80916 -3.08451 0
M  V30 8515 H 827.367 -1.72481 -2.72856 0
M  V30 8516 H 826.419 -3.60718 -1.20774 0
M  V30 8517 H 827.731 -4.65569 -1.79017 0
M  V30 8518 H 826.885 -4.43881 -4.13588 0
M  V30 8519 H 825.624 -3.29466 -3.59588 0
M  V30 8520 H 824.629 -5.07021 -2.12625 0
M  V30 8521 H 825.854 -6.23334 -2.69502 0
M  V30 8522 H 823.8 -4.82625 -4.44308 0
M  V30 8523 H 823.717 -6.47226 -3.90685 0
M  V30 8524 H 824.985 -5.98656 -4.99231 0
M  V30 8525 N 829.214 0.302327 -1.54673 0
M  V30 8526 C 830.439 1.06103 -1.78205 0
M  V30 8527 C 830.864 1.80204 -0.53926 0
M  V30 8528 O 830.222 1.73975 0.510142 0
M  V30 8529 C 830.27 2.01829 -2.98827 0
M  V30 8530 O 829.374 3.10108 -2.71858 0
M  V30 8531 H 828.715 0.30487 -0.589873 0
M  V30 8532 H 831.245 0.340153 -2.01753 0
M  V30 8533 H 831.255 2.44319 -3.2676 0
M  V30 8534 H 829.93 1.473 -3.88942 0
M  V30 8535 H 828.507 2.72142 -2.54937 0
M  V30 8536 N 830.692 1.47107 0.565454 0
M  V30 8537 C 831.64 1.59368 1.69424 0
M  V30 8538 C 832.634 0.461344 1.62997 0
M  V30 8539 O 833.84 0.638849 1.68282 0
M  V30 8540 H 830.215 0.501387 0.560459 0
M  V30 8541 H 832.186 2.54242 1.56217 0
M  V30 8542 C 830.935 1.61739 3.07792 0
M  V30 8543 H 830.258 2.48215 3.13416 0
M  V30 8544 H 831.698 1.7437 3.86486 0
M  V30 8545 C 830.157 0.349156 3.35086 0
M  V30 8546 O 830.687 -0.553287 3.97871 0
M  V30 8547 N 828.893 0.231723 2.89675 0
M  V30 8548 H 828.44 0.967021 2.3876 0
M  V30 8549 H 828.398 -0.615911 3.08308 0
M  V30 8550 N 832.17 -0.811516 1.35101 0
M  V30 8551 C 833.447 -1.55491 1.18667 0
M  V30 8552 C 833.827 -2.09775 -0.236189 0
M  V30 8553 O 833.175 -1.91989 -1.23905 0
M  V30 8554 C 833.385 -2.66732 2.25067 0
M  V30 8555 C 834.733 -3.35201 2.60625 0
M  V30 8556 O 835.757 -2.76998 2.23943 0
M  V30 8557 O 834.616 -4.40334 3.23679 0
M  V30 8558 H 831.71 -0.686783 0.460716 0
M  V30 8559 H 834.256 -0.851903 1.46768 0
M  V30 8560 H 833.028 -2.24457 3.20523 0
M  V30 8561 H 832.651 -3.44673 1.98208 0
M  V30 8562 N 833.648 -1.19017 -1.03309 0
M  V30 8563 C 834.925 -0.899659 -1.73682 0
M  V30 8564 C 835.305 0.595677 -2.02521 0
M  V30 8565 O 834.653 1.55263 -1.67648 0
M  V30 8566 C 834.863 -1.75508 -3.01659 0
M  V30 8567 C 836.211 -1.98679 -3.75249 0
M  V30 8568 O 837.235 -1.72624 -3.11576 0
M  V30 8569 O 836.094 -2.42587 -4.89708 0
M  V30 8570 H 833.188 -0.334903 -0.756154 0
M  V30 8571 H 835.734 -1.29809 -1.09305 0
M  V30 8572 H 834.506 -2.7684 -2.76542 0
M  V30 8573 H 834.129 -1.35565 -3.73775 0
M  V30 8574 N 835.127 1.22348 -0.993418 0
M  V30 8575 C 836.057 2.26584 -0.564088 0
M  V30 8576 C 837.038 1.65102 0.409298 0
M  V30 8577 O 838.223 1.91872 0.299819 0
M  V30 8578 C 835.353 3.47087 0.121554 0
M  V30 8579 C 834.307 4.21009 -0.770429 0
M  V30 8580 C 833.633 5.34678 0.0481586 0
M  V30 8581 C 834.933 4.79636 -2.06752 0
M  V30 8582 H 836.627 2.62749 -1.43538 0
M  V30 8583 H 834.173 1.26303 -0.691628 0
M  V30 8584 H 836.126 4.19166 0.433303 0
M  V30 8585 H 834.85 3.1002 1.0274 0
M  V30 8586 H 833.509 3.50764 -1.06583 0
M  V30 8587 H 833.157 4.93852 0.954933 0
M  V30 8588 H 832.857 5.85061 -0.545641 0
M  V30 8589 H 834.381 6.09573 0.353991 0
M  V30 8590 H 835.795 5.43654 -1.81969 0
M  V30 8591 H 834.192 5.4036 -2.61019 0
M  V30 8592 H 835.262 3.99659 -2.74592 0
M  V30 8593 N 836.605 0.766683 1.37694 0
M  V30 8594 C 837.882 0.25366 1.93948 0
M  V30 8595 C 838.262 -1.25041 1.70082 0
M  V30 8596 O 837.61 -2.03115 1.04674 0
M  V30 8597 C 837.82 0.621549 3.43421 0
M  V30 8598 C 839.168 0.588504 4.20502 0
M  V30 8599 O 840.192 0.560632 3.5176 0
M  V30 8600 O 839.051 0.61107 5.43073 0
M  V30 8601 H 836.145 0.0570586 0.825029 0
M  V30 8602 H 838.691 0.847693 1.47011 0
M  V30 8603 H 837.463 1.65979 3.54354 0
M  V30 8604 H 837.086 0.000197027 3.976 0
M  V30 8605 N 838.083 -1.48885 0.516809 0
M  V30 8606 C 839.329 -2.02788 -0.0220928 0
M  V30 8607 C 839.662 -1.39433 -1.35175 0
M  V30 8608 O 838.937 -0.535459 -1.86984 0
M  V30 8609 C 839.22 -3.59753 -0.158012 0
M  V30 8610 C 839.073 -4.33611 1.19588 0
M  V30 8611 C 840.392 -4.30984 -0.891133 0
M  V30 8612 H 837.511 -0.736971 -0.00655488 0
M  V30 8613 H 840.153 -1.77746 0.671287 0
M  V30 8614 H 838.303 -3.8122 -0.748568 0
M  V30 8615 H 839.975 -4.23598 1.82653 0
M  V30 8616 H 838.218 -3.95547 1.78116 0
M  V30 8617 H 838.889 -5.41846 1.05391 0
M  V30 8618 H 841.365 -4.14267 -0.39012 0
M  V30 8619 H 840.241 -5.40527 -0.955107 0
M  V30 8620 H 840.502 -3.97336 -1.93847 0
M  V30 8621 N 839.561 -0.251338 -1.55583 0
M  V30 8622 C 840.786 0.379136 -2.03905 0
M  V30 8623 C 841.211 1.50428 -1.12929 0
M  V30 8624 O 840.569 1.80882 -0.123114 0
M  V30 8625 C 840.617 0.86009 -3.50193 0
M  V30 8626 O 839.721 1.96932 -3.62342 0
M  V30 8627 H 839.062 0.0820183 -0.658915 0
M  V30 8628 H 841.592 -0.378692 -2.01065 0
M  V30 8629 H 841.602 1.16214 -3.91099 0
M  V30 8630 H 840.277 0.0367559 -4.15884 0
M  V30 8631 H 838.854 1.67163 -3.33333 0
M  V30 8632 N 841.039 1.57585 0.0217189 0
M  V30 8633 C 841.949 2.10444 1.03684 0
M  V30 8634 C 842.965 1.04472 1.39146 0
M  V30 8635 O 844.141 1.36249 1.48317 0
M  V30 8636 C 841.206 2.5794 2.31664 0
M  V30 8637 C 840.267 3.78425 2.02714 0
M  V30 8638 C 839.5 4.23646 3.24592 0
M  V30 8639 O 839.723 3.6834 4.35525 0
M  V30 8640 O 838.657 5.16013 3.09862 0
M  V30 8641 H 842.483 2.97354 0.617584 0
M  V30 8642 H 840.068 1.47473 0.239174 0
M  V30 8643 H 841.95 2.88785 3.06889 0
M  V30 8644 H 840.625 1.74138 2.7287 0
M  V30 8645 H 839.532 3.52587 1.25033 0
M  V30 8646 H 840.865 4.63234 1.66359 0
M  V30 8647 N 842.517 -0.29412 1.54831 0
M  V30 8648 C 843.742 -1.05156 1.78765 0
M  V30 8649 C 844.167 -1.79916 0.548809 0
M  V30 8650 O 843.525 -1.74243 -0.500909 0
M  V30 8651 C 843.573 -2.00242 2.99893 0
M  V30 8652 O 842.677 -3.08662 2.73499 0
M  V30 8653 H 842.018 -0.301737 0.591482 0
M  V30 8654 H 844.548 -0.329449 2.0193 0
M  V30 8655 H 844.558 -2.42583 3.28051 0
M  V30 8656 H 843.233 -1.45235 3.89717 0
M  V30 8657 H 841.81 -2.70786 2.56377 0
M  V30 8658 N 843.995 -1.47404 -0.557645 0
M  V30 8659 C 844.942 -1.59859 -1.66475 0
M  V30 8660 C 845.912 -0.441644 -1.60121 0
M  V30 8661 O 847.097 -0.661641 -1.78961 0
M  V30 8662 C 844.237 -1.61843 -3.04797 0
M  V30 8663 C 843.35 -2.8845 -3.2159 0
M  V30 8664 C 842.485 -2.81773 -4.50308 0
M  V30 8665 C 841.524 -4.03208 -4.60532 0
M  V30 8666 N 840.661 -3.94769 -5.80604 0
M  V30 8667 H 845.501 -2.54415 -1.55168 0
M  V30 8668 H 843.038 -1.26194 -0.755876 0
M  V30 8669 H 844.996 -1.60976 -3.84893 0
M  V30 8670 H 843.626 -0.707997 -3.1494 0
M  V30 8671 H 842.678 -2.99186 -2.34929 0
M  V30 8672 H 843.99 -3.78379 -3.25009 0
M  V30 8673 H 843.144 -2.79153 -5.38663 0
M  V30 8674 H 841.883 -1.89527 -4.49367 0
M  V30 8675 H 840.888 -4.06133 -3.70589 0
M  V30 8676 H 842.113 -4.9658 -4.63233 0
M  V30 8677 H 840.059 -3.05326 -5.80613 0
M  V30 8678 H 839.976 -4.78375 -5.854 0
M  V30 8679 H 841.244 -3.96165 -6.71322 0
M  V30 8680 N 845.473 0.80434 -1.35529 0
M  V30 8681 C 846.721 1.55845 -1.28673 0
M  V30 8682 C 847.042 1.94511 0.137976 0
M  V30 8683 O 846.312 1.63775 1.07492 0
M  V30 8684 H 844.892 0.577931 -0.473291 0
M  V30 8685 H 847.554 0.959293 -1.69657 0
M  V30 8686 H 846.65 2.47285 -1.90411 0
M  V30 8687 N 846.951 1.19563 1.02676 0
M  V30 8688 C 848.191 1.01072 1.77662 0
M  V30 8689 C 848.555 -0.450344 1.86644 0
M  V30 8690 O 849.756 -0.755132 2.57975 0
M  V30 8691 C 848.027 1.66383 3.16309 0
M  V30 8692 S 849.586 1.62858 4.07459 0
M  V30 8693 H 846.404 0.362644 0.611564 0
M  V30 8694 H 849.006 1.51947 1.23014 0
M  V30 8695 H 847.71 2.71917 3.07391 0
M  V30 8696 H 847.241 1.15596 3.76033 0
M  V30 8697 H 849.256 0.654265 4.91868 0
M  V30 8698 N 848.429 -1.21819 0.999893 0
M  V30 8699 C 849.362 -2.22635 0.500887 0
M  V30 8700 C 850.34 -1.56459 -0.442636 0
M  V30 8701 O 851.524 -1.84902 -0.366551 0
M  V30 8702 C 848.651 -3.37598 -0.273046 0
M  V30 8703 C 847.697 -4.22006 0.617511 0
M  V30 8704 S 848.53 -4.93583 2.07693 0
M  V30 8705 C 849.686 -6.1198 1.31269 0
M  V30 8706 H 849.919 -2.64618 1.35516 0
M  V30 8707 H 847.452 -1.31606 0.807419 0
M  V30 8708 H 849.41 -4.04251 -0.713515 0
M  V30 8709 H 848.071 -2.94108 -1.10268 0
M  V30 8710 H 847.264 -5.03995 0.0216543 0
M  V30 8711 H 846.866 -3.6052 0.99504 0
M  V30 8712 H 849.158 -6.74979 0.583933 0
M  V30 8713 H 850.101 -6.75991 2.10811 0
M  V30 8714 H 850.509 -5.5847 0.822901 0
M  V30 8715 N 849.908 -0.773975 -1.37286 0
M  V30 8716 C 850.818 -0.162571 -2.34036 0
M  V30 8717 C 851.834 0.677022 -1.60289 0
M  V30 8718 O 853.01 0.596423 -1.92366 0
M  V30 8719 C 850.075 0.70457 -3.39465 0
M  V30 8720 C 849.136 -0.151738 -4.29032 0
M  V30 8721 C 848.369 0.674111 -5.29426 0
M  V30 8722 O 848.592 1.91107 -5.37433 0
M  V30 8723 O 847.526 0.0821398 -6.01844 0
M  V30 8724 H 851.352 -0.962119 -2.88057 0
M  V30 8725 H 848.937 -0.53517 -1.39486 0
M  V30 8726 H 850.819 1.19954 -4.03967 0
M  V30 8727 H 849.494 1.48227 -2.87768 0
M  V30 8728 H 848.401 -0.693118 -3.67623 0
M  V30 8729 H 849.734 -0.892575 -4.84039 0
M  V30 8730 N 851.386 1.48609 -0.524698 0
M  V30 8731 C 852.296 2.33318 0.244923 0
M  V30 8732 C 853.312 1.46153 0.944214 0
M  V30 8733 O 854.488 1.79141 0.920347 0
M  V30 8734 C 851.553 3.22149 1.28144 0
M  V30 8735 C 850.614 4.25184 0.593068 0
M  V30 8736 C 849.847 5.0977 1.5802 0
M  V30 8737 O 850.07 4.96249 2.81235 0
M  V30 8738 O 849.004 5.9134 1.1225 0
M  V30 8739 H 852.83 3.00362 -0.449066 0
M  V30 8740 H 850.415 1.46643 -0.285689 0
M  V30 8741 H 852.297 3.77111 1.88057 0
M  V30 8742 H 850.972 2.57772 1.95793 0
M  V30 8743 H 849.879 3.74071 -0.0464214 0
M  V30 8744 H 851.212 4.92183 -0.0413893 0
M  V30 8745 N 852.864 0.259585 1.55447 0
M  V30 8746 C 853.811 -0.634578 2.21905 0
M  V30 8747 C 854.781 -1.16168 1.18719 0
M  V30 8748 O 855.966 -1.21383 1.4721 0
M  V30 8749 C 853.106 -1.82005 2.93203 0
M  V30 8750 C 852.219 -1.32828 4.11073 0
M  V30 8751 C 851.354 -2.47431 4.70055 0
M  V30 8752 C 850.393 -1.95179 5.80148 0
M  V30 8753 N 849.53 -3.03197 6.33258 0
M  V30 8754 H 854.37 -0.0611886 2.97937 0
M  V30 8755 H 851.907 -0.0184378 1.47088 0
M  V30 8756 H 853.865 -2.51664 3.32748 0
M  V30 8757 H 852.495 -2.36571 2.19622 0
M  V30 8758 H 851.547 -0.525301 3.76756 0
M  V30 8759 H 852.859 -0.905435 4.90513 0
M  V30 8760 H 852.013 -3.25111 5.12238 0
M  V30 8761 H 850.752 -2.93023 3.89857 0
M  V30 8762 H 849.757 -1.15974 5.37429 0
M  V30 8763 H 850.982 -1.50541 6.62204 0
M  V30 8764 H 848.928 -3.48199 5.55961 0
M  V30 8765 H 848.845 -2.65282 7.07928 0
M  V30 8766 H 850.113 -3.80898 6.80101 0
M  V30 8767 N 854.342 -1.57594 -0.0133615 0
M  V30 8768 C 855.753 -1.78168 -0.557937 0
M  V30 8769 C 856.104 -0.892616 -1.74719 0
M  V30 8770 O 855.229 -0.0915491 -2.16206 0
M  V30 8771 C 855.824 -3.23115 -1.01894 0
M  V30 8772 C 854.383 -3.44831 -1.50892 0
M  V30 8773 C 853.53 -2.73558 -0.454044 0
M  V30 8774 H 856.481 -1.57266 0.212843 0
M  V30 8775 H 856.502 -3.30493 -1.8856 0
M  V30 8776 H 856.014 -3.87798 -0.153175 0
M  V30 8777 H 854.115 -2.85345 -2.39602 0
M  V30 8778 H 854.228 -4.53485 -1.54559 0
M  V30 8779 H 852.592 -2.37787 -0.912666 0
M  V30 8780 H 853.375 -3.40932 0.402524 0
M  V30 8781 N 855.82 0.285905 -1.54985 0
M  V30 8782 C 856.752 1.37505 -1.83371 0
M  V30 8783 C 857.765 1.46138 -0.717454 0
M  V30 8784 O 858.954 1.48186 -0.995142 0
M  V30 8785 C 856.054 2.7575 -1.97016 0
M  V30 8786 C 855.227 2.89866 -3.27561 0
M  V30 8787 C 854.286 4.08704 -3.31433 0
M  V30 8788 O 853.312 4.00073 -4.04883 0
M  V30 8789 N 854.514 5.20062 -2.57907 0
M  V30 8790 H 857.279 1.13505 -2.77375 0
M  V30 8791 H 854.84 0.476006 -1.54744 0
M  V30 8792 H 856.832 3.5352 -1.96991 0
M  V30 8793 H 855.402 2.9263 -1.09938 0
M  V30 8794 H 854.622 1.99085 -3.40234 0
M  V30 8795 H 855.91 2.96219 -4.13681 0
M  V30 8796 H 855.308 5.29958 -1.97891 0
M  V30 8797 H 853.865 5.96111 -2.63619 0
M  V30 8798 N 857.298 1.47698 0.54982 0
M  V30 8799 C 858.208 1.63386 1.68351 0
M  V30 8800 C 859.224 0.516583 1.66155 0
M  V30 8801 O 860.4 0.785088 1.85468 0
M  V30 8802 C 857.465 1.6513 3.04849 0
M  V30 8803 C 856.526 2.88338 3.18056 0
M  V30 8804 C 855.759 2.8999 4.48042 0
M  V30 8805 O 855.982 2.00633 5.3395 0
M  V30 8806 O 854.916 3.81938 4.65196 0
M  V30 8807 H 858.742 2.59329 1.58057 0
M  V30 8808 H 856.327 1.30869 0.72067 0
M  V30 8809 H 858.209 1.68913 3.86065 0
M  V30 8810 H 856.884 0.723555 3.1551 0
M  V30 8811 H 855.791 2.90097 2.36209 0
M  V30 8812 H 857.124 3.80431 3.12302 0
M  V30 8813 N 858.776 -0.797141 1.35954 0
M  V30 8814 C 860.022 -1.55698 1.29946 0
M  V30 8815 C 860.355 -1.93808 -0.123259 0
M  V30 8816 O 859.63 -1.62102 -1.07486 0
M  V30 8817 C 859.913 -2.83926 2.2149 0
M  V30 8818 C 859.766 -2.52232 3.72423 0
M  V30 8819 C 861.085 -3.85698 2.11955 0
M  V30 8820 H 858.204 -0.56488 0.47337 0
M  V30 8821 H 860.846 -0.916421 1.66438 0
M  V30 8822 H 858.996 -3.38588 1.905 0
M  V30 8823 H 860.668 -2.0368 4.13899 0
M  V30 8824 H 858.911 -1.85286 3.92239 0
M  V30 8825 H 859.582 -3.43782 4.31877 0
M  V30 8826 H 862.058 -3.40462 2.39218 0
M  V30 8827 H 860.934 -4.73182 2.78191 0
M  V30 8828 H 861.195 -4.28083 1.10442 0
M  V30 8829 N 860.254 -1.20106 -1.0204 0
M  V30 8830 C 861.186 -0.904236 -2.10609 0
M  V30 8831 C 862.199 0.106487 -1.62451 0
M  V30 8832 O 863.388 -0.124035 -1.78069 0
M  V30 8833 C 860.488 -0.333423 -3.37256 0
M  V30 8834 C 859.661 -1.39476 -4.14566 0
M  V30 8835 C 858.72 -0.835961 -5.19517 0
M  V30 8836 O 857.746 -1.51573 -5.48648 0
M  V30 8837 N 858.948 0.356531 -5.79404 0
M  V30 8838 H 861.713 -1.8388 -2.36661 0
M  V30 8839 H 859.274 -1.10422 -1.184 0
M  V30 8840 H 861.266 0.0544571 -4.04663 0
M  V30 8841 H 859.836 0.505608 -3.08484 0
M  V30 8842 H 859.056 -1.95714 -3.42184 0
M  V30 8843 H 860.344 -2.10967 -4.63001 0
M  V30 8844 H 859.742 0.926143 -5.58067 0
M  V30 8845 H 858.299 0.686093 -6.48179 0
M  V30 8846 N 861.732 1.21287 -1.00634 0
M  V30 8847 C 862.96 1.94385 -0.708678 0
M  V30 8848 C 863.375 1.7416 0.728957 0
M  V30 8849 O 862.732 1.04906 1.49335 0
M  V30 8850 C 862.783 3.46755 -1.02193 0
M  V30 8851 O 862.504 3.6631 -2.40309 0
M  V30 8852 C 864.005 4.37014 -0.743867 0
M  V30 8853 H 861.225 0.618136 -0.261052 0
M  V30 8854 H 863.769 1.54067 -1.34475 0
M  V30 8855 H 861.924 3.8499 -0.431441 0
M  V30 8856 H 862.338 4.60393 -2.51274 0
M  V30 8857 H 863.812 5.42621 -1.01321 0
M  V30 8858 H 864.289 4.38017 0.322084 0
M  V30 8859 H 864.895 4.04426 -1.31603 0
M  V30 8860 N 863.21 0.781244 1.36873 0
M  V30 8861 C 864.435 0.360398 2.04245 0
M  V30 8862 C 864.86 -1.01242 1.58529 0
M  V30 8863 O 864.218 -1.65063 0.749936 0
M  V30 8864 C 864.266 0.42329 3.58107 0
M  V30 8865 O 863.37 -0.572796 4.08403 0
M  V30 8866 H 862.711 0.154386 0.645803 0
M  V30 8867 H 865.241 1.06008 1.74996 0
M  V30 8868 H 865.251 0.283967 4.07011 0
M  V30 8869 H 863.926 1.42477 3.90734 0
M  V30 8870 H 862.503 -0.395809 3.70793 0
M  V30 8871 N 864.689 -1.48329 0.532571 0
M  V30 8872 C 866.105 -1.58458 0.190605 0
M  V30 8873 C 866.305 -1.53427 -1.30623 0
M  V30 8874 O 865.361 -1.4247 -2.08467 0
M  V30 8875 C 866.674 -2.89989 0.79543 0
M  V30 8876 C 868.222 -3.03523 0.7644 0
M  V30 8877 C 868.697 -4.37718 1.34785 0
M  V30 8878 N 870.188 -4.44292 1.30993 0
M  V30 8879 C 870.923 -5.4664 1.73124 0
M  V30 8880 N 870.419 -6.5593 2.22997 0
M  V30 8881 N 872.212 -5.37538 1.64346 0
M  V30 8882 H 864.363 -1.49842 1.50537 0
M  V30 8883 H 866.626 -0.71164 0.626316 0
M  V30 8884 H 866.332 -2.99333 1.84642 0
M  V30 8885 H 866.206 -3.76203 0.27403 0
M  V30 8886 H 868.593 -2.93789 -0.277831 0
M  V30 8887 H 868.674 -2.18912 1.3233 0
M  V30 8888 H 868.318 -4.48206 2.38902 0
M  V30 8889 H 868.248 -5.21019 0.764609 0
M  V30 8890 H 870.739 -3.65897 0.944868 0
M  V30 8891 H 871.052 -7.30167 2.53133 0
M  V30 8892 H 869.397 -6.56886 2.26992 0
M  V30 8893 H 872.588 -4.51052 1.25178 0
M  V30 8894 H 872.761 -6.17169 1.97501 0
M  V30 8895 N 866.167 -0.267825 -1.55308 0
M  V30 8896 C 867.115 0.638848 -2.23655 0
M  V30 8897 C 868.109 1.16363 -1.2311 0
M  V30 8898 O 869.315 1.1181 -1.41062 0
M  V30 8899 H 865.69 0.224551 -0.717691 0
M  V30 8900 H 867.661 0.0394809 -2.98374 0
M  V30 8901 C 866.41 1.8151 -2.96562 0
M  V30 8902 H 865.733 1.42048 -3.73715 0
M  V30 8903 H 867.173 2.42629 -3.47717 0
M  V30 8904 C 865.632 2.69911 -2.01618 0
M  V30 8905 O 866.162 3.70058 -1.56268 0
M  V30 8906 N 864.368 2.36924 -1.68272 0
M  V30 8907 H 863.915 1.55533 -2.05347 0
M  V30 8908 H 863.873 2.96343 -1.05016 0
M  V30 8909 N 867.645 1.57599 0.00500368 0
M  V30 8910 C 868.891 1.90631 0.691919 0
M  V30 8911 C 869.224 0.868443 1.737 0
M  V30 8912 O 868.499 -0.113482 1.94169 0
M  V30 8913 C 868.782 3.34255 1.33961 0
M  V30 8914 C 868.635 4.48755 0.306413 0
M  V30 8915 C 869.954 3.77211 2.26715 0
M  V30 8916 H 867.073 0.693279 0.250066 0
M  V30 8917 H 869.715 1.89946 -0.0452634 0
M  V30 8918 H 867.865 3.3497 1.96793 0
M  V30 8919 H 869.537 4.60176 -0.321841 0
M  V30 8920 H 867.78 4.32203 -0.371852 0
M  V30 8921 H 868.451 5.46193 0.798554 0
M  V30 8922 H 870.927 3.78017 1.73904 0
M  V30 8923 H 869.803 4.78466 2.69002 0
M  V30 8924 H 870.064 3.10801 3.14413 0
M  V30 8925 N 869.123 -0.277682 1.55134 0
M  V30 8926 C 870.033 -1.36524 1.90783 0
M  V30 8927 C 871.049 -1.54283 0.804542 0
M  V30 8928 O 872.225 -1.68499 1.10318 0
M  V30 8929 C 869.29 -2.70524 2.16835 0
M  V30 8930 C 868.351 -2.61552 3.40424 0
M  V30 8931 C 867.584 -3.89162 3.65224 0
M  V30 8932 O 867.807 -4.89624 2.92616 0
M  V30 8933 O 866.741 -3.89647 4.58758 0
M  V30 8934 H 870.567 -1.0929 2.83354 0
M  V30 8935 H 868.152 -0.475799 1.41621 0
M  V30 8936 H 870.034 -3.49765 2.35038 0
M  V30 8937 H 868.709 -2.97555 1.27448 0
M  V30 8938 H 867.616 -1.80704 3.27562 0
M  V30 8939 H 868.949 -2.39472 4.30016 0
M  V30 8940 N 870.601 -1.47988 -0.541979 0
M  V30 8941 C 871.826 -1.59286 -1.32826 0
M  V30 8942 C 872.251 -0.24894 -1.86445 0
M  V30 8943 O 871.609 0.777581 -1.63778 0
M  V30 8944 C 871.657 -2.6334 -2.46343 0
M  V30 8945 O 870.761 -2.19667 -3.49028 0
M  V30 8946 H 870.102 -0.534543 -0.393903 0
M  V30 8947 H 872.632 -1.93885 -0.653427 0
M  V30 8948 H 872.642 -2.84238 -2.92699 0
M  V30 8949 H 871.317 -3.60913 -2.06675 0
M  V30 8950 H 869.894 -2.08932 -3.08872 0
M  V30 8951 N 872.079 0.78992 -1.36375 0
M  V30 8952 C 873.328 1.54296 -1.29906 0
M  V30 8953 C 873.641 1.95234 0.119651 0
M  V30 8954 O 874.847 2.69762 0.306708 0
M  V30 8955 C 873.303 2.78533 -2.27919 0
M  V30 8956 C 872.911 2.44767 -3.75224 0
M  V30 8957 C 874.655 3.56516 -2.30427 0
M  V30 8958 C 872.562 3.65397 -4.65015 0
M  V30 8959 H 871.492 0.579214 -0.482729 0
M  V30 8960 H 874.143 0.866845 -1.61735 0
M  V30 8961 H 872.525 3.47941 -1.89084 0
M  V30 8962 H 873.699 1.83259 -4.22792 0
M  V30 8963 H 872.014 1.79996 -3.75487 0
M  V30 8964 H 874.611 4.46143 -2.94722 0
M  V30 8965 H 874.954 3.95063 -1.31266 0
M  V30 8966 H 875.487 2.94087 -2.67876 0
M  V30 8967 H 872.226 3.31946 -5.65236 0
M  V30 8968 H 871.746 4.26072 -4.22164 0
M  V30 8969 H 873.425 4.32431 -4.81261 0
M  V30 8970 N 873.557 1.20646 1.01402 0
M  V30 8971 C 874.52 0.959314 2.08158 0
M  V30 8972 C 875.52 -0.0661558 1.60664 0
M  V30 8973 O 876.71 0.170177 1.73367 0
M  V30 8974 C 873.842 0.444785 3.37986 0
M  V30 8975 H 875.035 1.90631 2.31517 0
M  V30 8976 H 872.588 1.02219 1.18241 0
M  V30 8977 H 873.323 -0.507553 3.20304 0
M  V30 8978 H 873.108 1.18435 3.73785 0
M  V30 8979 H 874.598 0.291443 4.16582 0
M  V30 8980 N 875.035 -1.20752 1.01276 0
M  V30 8981 C 875.945 -2.27079 0.589277 0
M  V30 8982 C 876.961 -1.6999 -0.371389 0
M  V30 8983 O 878.137 -2.00044 -0.233294 0
M  V30 8984 C 875.202 -3.4663 -0.0696715 0
M  V30 8985 C 874.263 -4.18962 0.936454 0
M  V30 8986 C 873.496 -5.32806 0.308856 0
M  V30 8987 O 873.719 -5.63376 -0.8924 0
M  V30 8988 O 872.653 -5.93131 1.02367 0
M  V30 8989 H 876.479 -2.6551 1.47438 0
M  V30 8990 H 874.064 -1.27297 0.782045 0
M  V30 8991 H 875.946 -4.19119 -0.437873 0
M  V30 8992 H 874.621 -3.10082 -0.929029 0
M  V30 8993 H 873.528 -3.48661 1.35595 0
M  V30 8994 H 874.861 -4.59441 1.76565 0
M  V30 8995 N 876.513 -0.788492 -1.36457 0
M  V30 8996 C 877.445 -0.144208 -2.28746 0
M  V30 8997 C 878.458 0.646009 -1.49434 0
M  V30 8998 O 879.647 0.481344 -1.71888 0
M  V30 8999 C 876.747 0.818869 -3.28858 0
M  V30 9000 C 875.92 0.0789055 -4.37329 0
M  V30 9001 C 874.979 0.957791 -5.1741 0
M  V30 9002 O 874.005 0.415378 -5.67682 0
M  V30 9003 N 875.207 2.28216 -5.33758 0
M  V30 9004 H 877.972 -0.936949 -2.84678 0
M  V30 9005 H 875.533 -0.642317 -1.48613 0
M  V30 9006 H 877.525 1.41065 -3.79319 0
M  V30 9007 H 876.095 1.51249 -2.73573 0
M  V30 9008 H 875.315 -0.693939 -3.88044 0
M  V30 9009 H 876.603 -0.431753 -5.06965 0
M  V30 9010 H 876.001 2.747 -4.94527 0
M  V30 9011 H 874.558 2.8236 -5.87466 0
M  V30 9012 N 877.991 1.48044 -0.54043 0
M  V30 9013 C 878.924 2.26667 0.264083 0
M  V30 9014 C 879.902 1.32996 0.935456 0
M  V30 9015 O 881.086 1.62354 0.95778 0
M  V30 9016 C 878.213 3.09541 1.37485 0
M  V30 9017 C 877.259 4.18664 0.813792 0
M  V30 9018 S 878.092 5.34503 -0.326536 0
M  V30 9019 C 879.248 6.20939 0.786452 0
M  V30 9020 H 879.481 2.94554 -0.403129 0
M  V30 9021 H 877.014 1.5091 -0.326415 0
M  V30 9022 H 878.972 3.57863 2.01107 0
M  V30 9023 H 877.633 2.41048 2.01382 0
M  V30 9024 H 876.826 4.76316 1.6474 0
M  V30 9025 H 876.428 3.73136 0.254066 0
M  V30 9026 H 878.72 6.56273 1.68262 0
M  V30 9027 H 879.663 7.07667 0.247673 0
M  V30 9028 H 880.071 5.54236 1.07156 0
M  V30 9029 N 879.47 0.276058 1.55163 0
M  V30 9030 C 880.38 -0.621066 2.2623 0
M  V30 9031 C 881.396 -1.16931 1.28853 0
M  V30 9032 O 882.572 -1.1994 1.61791 0
M  V30 9033 C 879.637 -1.78824 2.97023 0
M  V30 9034 C 878.698 -1.27657 4.09881 0
M  V30 9035 C 877.931 -2.38812 4.77289 0
M  V30 9036 O 878.154 -3.58188 4.43912 0
M  V30 9037 O 877.088 -2.06915 5.65217 0
M  V30 9038 H 880.914 -0.0453346 3.03666 0
M  V30 9039 H 878.499 0.0434275 1.49337 0
M  V30 9040 H 880.381 -2.46877 3.41511 0
M  V30 9041 H 879.056 -2.35104 2.22503 0
M  V30 9042 H 877.963 -0.56248 3.69847 0
M  V30 9043 H 879.296 -0.759509 4.86305 0
M  V30 9044 N 880.948 -1.576 0.00335426 0
M  V30 9045 C 881.896 -2.09759 -1.00517 0
M  V30 9046 C 882.89 -1.01833 -1.35375 0
M  V30 9047 O 884.096 -1.20294 -1.339 0
M  V30 9048 H 880.471 -0.669821 -0.341825 0
M  V30 9049 H 882.442 -2.93478 -0.539718 0
M  V30 9050 C 881.191 -2.6189 -2.28711 0
M  V30 9051 H 880.514 -3.44571 -2.02758 0
M  V30 9052 H 881.954 -3.02061 -2.97548 0
M  V30 9053 C 880.413 -1.53455 -2.99922 0
M  V30 9054 O 880.943 -0.919402 -3.91037 0
M  V30 9055 N 879.149 -1.2612 -2.61806 0
M  V30 9056 H 878.696 -1.76329 -1.87792 0
M  V30 9057 H 878.654 -0.537872 -3.09765 0
M  V30 9058 N 882.426 0.269451 -1.5528 0
M  V30 9059 C 883.837 0.840233 -1.66724 0
M  V30 9060 C 884.188 1.86909 -0.596621 0
M  V30 9061 O 883.313 2.14817 0.261246 0
M  V30 9062 C 883.908 1.5308 -3.02245 0
M  V30 9063 C 882.467 2.04957 -3.15705 0
M  V30 9064 C 881.614 0.892838 -2.62533 0
M  V30 9065 H 884.565 0.0457236 -1.58634 0
M  V30 9066 H 884.586 2.39792 -2.95432 0
M  V30 9067 H 884.098 0.781741 -3.80145 0
M  V30 9068 H 882.199 2.82813 -2.42585 0
M  V30 9069 H 882.312 2.26244 -4.22316 0
M  V30 9070 H 880.676 1.28719 -2.19781 0
M  V30 9071 H 881.459 0.157229 -3.4294 0
M  V30 9072 N 883.904 1.48273 0.534124 0
M  V30 9073 C 885.181 1.46567 1.29528 0
M  V30 9074 C 885.561 0.17509 2.10373 0
M  V30 9075 O 884.909 -0.843228 2.12372 0
M  V30 9076 C 885.119 2.72519 2.18023 0
M  V30 9077 C 886.467 3.2068 2.78298 0
M  V30 9078 O 887.491 2.73408 2.28313 0
M  V30 9079 O 886.35 4.02924 3.69208 0
M  V30 9080 H 883.444 0.585151 0.584403 0
M  V30 9081 H 885.99 1.60502 0.551119 0
M  V30 9082 H 884.762 3.57965 1.5804 0
M  V30 9083 H 884.385 2.61285 2.99693 0
M  V30 9084 N 885.382 -0.782676 1.36792 0
M  V30 9085 C 886.312 -1.90973 1.34356 0
M  V30 9086 C 887.293 -1.6875 0.213917 0
M  V30 9087 O 888.478 -1.89766 0.412601 0
M  V30 9088 C 885.608 -3.28097 1.13884 0
M  V30 9089 C 884.562 -3.6486 2.23744 0
M  V30 9090 C 883.888 -5.00406 1.88408 0
M  V30 9091 C 885.188 -3.72742 3.6587 0
M  V30 9092 H 886.882 -1.93268 2.28665 0
M  V30 9093 H 884.428 -0.928447 1.10072 0
M  V30 9094 H 886.381 -4.06569 1.10813 0
M  V30 9095 H 885.105 -3.26206 0.160275 0
M  V30 9096 H 883.764 -2.88689 2.25952 0
M  V30 9097 H 883.412 -4.95044 0.891083 0
M  V30 9098 H 883.112 -5.25973 2.61966 0
M  V30 9099 H 884.636 -5.81291 1.86905 0
M  V30 9100 H 886.05 -4.4139 3.65852 0
M  V30 9101 H 884.447 -4.09798 4.38389 0
M  V30 9102 H 885.517 -2.73676 4.00287 0
M  V30 9103 N 886.86 -1.21182 -1.00761 0
M  V30 9104 C 887.807 -0.968741 -2.09485 0
M  V30 9105 C 888.777 0.104325 -1.65772 0
M  V30 9106 O 889.962 -0.0422587 -1.90753 0
M  V30 9107 C 887.102 -0.536686 -3.40901 0
M  V30 9108 C 886.215 -1.6789 -3.98041 0
M  V30 9109 C 885.35 -1.19627 -5.17555 0
M  V30 9110 C 884.389 -2.31099 -5.66798 0
M  V30 9111 N 883.526 -1.83988 -6.77564 0
M  V30 9112 H 888.366 -1.89952 -2.29613 0
M  V30 9113 H 885.903 -0.946688 -1.12589 0
M  V30 9114 H 887.861 -0.26745 -4.16342 0
M  V30 9115 H 886.491 0.357092 -3.20819 0
M  V30 9116 H 885.543 -2.06284 -3.19611 0
M  V30 9117 H 886.855 -2.51794 -4.30582 0
M  V30 9118 H 886.009 -0.883539 -6.00232 0
M  V30 9119 H 884.748 -0.327244 -4.86601 0
M  V30 9120 H 883.753 -2.63178 -4.82719 0
M  V30 9121 H 884.978 -3.18493 -5.99782 0
M  V30 9122 H 882.924 -0.994257 -6.48422 0
M  V30 9123 H 882.841 -2.61466 -7.09346 0
M  V30 9124 H 884.109 -1.55741 -7.63783 0
M  V30 9125 N 888.338 1.20213 -1.01915 0
M  V30 9126 C 889.286 2.25125 -0.584936 0
M  V30 9127 C 890.28 1.65138 0.377602 0
M  V30 9128 O 891.486 1.78294 0.247245 0
M  V30 9129 H 887.861 0.732333 -0.170858 0
M  V30 9130 H 889.832 2.59075 -1.48063 0
M  V30 9131 C 888.581 3.47651 0.058389 0
M  V30 9132 H 887.904 3.9409 -0.673263 0
M  V30 9133 H 889.344 4.2275 0.325285 0
M  V30 9134 C 887.803 3.10725 1.30199 0
M  V30 9135 O 888.333 3.22491 2.39505 0
M  V30 9136 N 886.539 2.6525 1.18706 0
M  V30 9137 H 886.086 2.55875 0.297618 0
M  V30 9138 H 886.044 2.40913 2.02011 0
M  V30 9139 N 889.816 0.795718 1.36037 0
M  V30 9140 C 891.062 0.371574 1.99367 0
M  V30 9141 C 891.395 -1.0557 1.62999 0
M  V30 9142 O 890.67 -1.73051 0.887895 0
M  V30 9143 C 890.953 0.542622 3.55988 0
M  V30 9144 C 890.806 2.01404 4.0219 0
M  V30 9145 C 892.125 -0.0384527 4.40083 0
M  V30 9146 H 889.244 0.136483 0.724252 0
M  V30 9147 H 891.886 1.00323 1.61355 0
M  V30 9148 H 890.036 0.0049053 3.885 0
M  V30 9149 H 891.708 2.6133 3.80137 0
M  V30 9150 H 889.951 2.51439 3.53498 0
M  V30 9151 H 890.622 2.08466 5.11122 0
M  V30 9152 H 893.098 0.420634 4.13968 0
M  V30 9153 H 891.974 0.111214 5.48787 0
M  V30 9154 H 892.235 -1.13116 4.27384 0
M  V30 9155 N 891.294 -1.47756 0.548274 0
M  V30 9156 C 892.542 -2.02089 0.0208542 0
M  V30 9157 C 892.863 -1.42589 -1.33017 0
M  V30 9158 O 892.133 -0.597825 -1.86555 0
M  V30 9159 H 890.713 -0.746985 0.00472023 0
M  V30 9160 H 893.375 -1.81262 0.716257 0
M  V30 9161 H 892.471 -3.12012 -0.0739016 0
M  V30 9162 N 892.772 -0.284283 -1.55015 0
M  V30 9163 C 893.997 0.335799 -2.04664 0
M  V30 9164 C 894.422 1.47999 -1.16094 0
M  V30 9165 O 893.78 1.8058 -0.161454 0
M  V30 9166 C 893.828 0.785615 -3.51938 0
M  V30 9167 O 892.932 1.89202 -3.66437 0
M  V30 9168 H 892.273 0.0680233 -0.660506 0
M  V30 9169 H 894.803 -0.421255 -2.00216 0
M  V30 9170 H 894.813 1.07892 -3.93476 0
M  V30 9171 H 893.488 -0.0514675 -4.15868 0
M  V30 9172 H 892.065 1.60055 -3.36804 0
M  V30 9173 N 894.251 1.57596 -0.0117121 0
M  V30 9174 C 895.476 1.95764 0.684938 0
M  V30 9175 C 895.901 0.887285 1.65858 0
M  V30 9176 O 895.259 -0.153508 1.80649 0
M  V30 9177 C 895.307 3.33031 1.38285 0
M  V30 9178 O 894.411 3.28163 2.49765 0
M  V30 9179 H 893.752 0.638767 0.181309 0
M  V30 9180 H 896.282 2.04486 -0.0683883 0
M  V30 9181 H 896.292 3.68866 1.74362 0
M  V30 9182 H 894.967 4.10483 0.669043 0
M  V30 9183 H 893.544 3.04021 2.15929 0
M  V30 9184 N 895.729 -0.261212 1.5542 0
M  V30 9185 C 896.957 -1.00916 1.8062 0
M  V30 9186 C 897.372 -1.79494 0.585444 0
M  V30 9187 O 896.729 -1.76974 -0.445702 0
M  V30 9188 C 896.78 -1.95841 3.03856 0
M  V30 9189 O 896.501 -1.20445 4.21218 0
M  V30 9190 C 898.002 -2.82352 3.41749 0
M  V30 9191 H 895.222 -0.297596 0.601397 0
M  V30 9192 H 897.766 -0.288427 2.02456 0
M  V30 9193 H 895.921 -2.63361 2.84112 0
M  V30 9194 H 896.335 -1.84528 4.90968 0
M  V30 9195 H 897.809 -3.44733 4.31118 0
M  V30 9196 H 898.286 -3.5273 2.61683 0
M  V30 9197 H 898.892 -2.20306 3.63793 0
M  V30 9198 N 897.207 -1.48554 -0.526253 0
M  V30 9199 C 898.455 -1.56452 -1.27935 0
M  V30 9200 C 898.776 -0.24184 -1.93495 0
M  V30 9201 O 898.046 0.736917 -1.81511 0
M  V30 9202 H 896.626 -0.576379 -0.47518 0
M  V30 9203 H 899.288 -1.85039 -0.612083 0
M  V30 9204 H 898.384 -2.34751 -2.05666 0
M  V30 9205 N 898.685 0.775411 -1.37205 0
M  V30 9206 C 899.595 1.91967 -1.34855 0
M  V30 9207 C 900.611 1.72214 -0.248656 0
M  V30 9208 O 901.787 1.95512 -0.483421 0
M  V30 9209 C 898.852 3.27038 -1.15096 0
M  V30 9210 C 897.913 3.5947 -2.34691 0
M  V30 9211 C 897.146 4.88097 -2.15865 0
M  V30 9212 O 897.369 5.58871 -1.14102 0
M  V30 9213 O 896.303 5.19507 -3.03967 0
M  V30 9214 H 900.129 1.969 -2.31223 0
M  V30 9215 H 897.714 0.917647 -1.17897 0
M  V30 9216 H 899.596 4.07837 -1.0605 0
M  V30 9217 H 898.271 3.22965 -0.217999 0
M  V30 9218 H 897.178 2.7892 -2.49308 0
M  V30 9219 H 898.511 3.68282 -3.26541 0
M  V30 9220 N 900.163 1.21714 1.00117 0
M  V30 9221 C 901.11 0.979837 2.08968 0
M  V30 9222 C 902.08 -0.0955324 1.65825 0
M  V30 9223 O 903.265 0.0523742 1.90728 0
M  V30 9224 C 900.405 0.554758 3.40612 0
M  V30 9225 C 899.518 1.69999 3.97145 0
M  V30 9226 C 898.653 1.2237 5.16913 0
M  V30 9227 C 897.692 2.34101 5.65564 0
M  V30 9228 N 896.829 1.87579 6.76579 0
M  V30 9229 H 901.669 1.91167 2.28602 0
M  V30 9230 H 899.206 0.952645 1.12085 0
M  V30 9231 H 901.164 0.289526 4.16194 0
M  V30 9232 H 899.794 -0.340073 3.21004 0
M  V30 9233 H 898.846 2.07976 3.18512 0
M  V30 9234 H 900.158 2.54074 4.29241 0
M  V30 9235 H 899.312 0.915358 5.99755 0
M  V30 9236 H 898.051 0.353045 4.8642 0
M  V30 9237 H 897.056 2.65734 4.81316 0
M  V30 9238 H 898.281 3.21669 5.98085 0
M  V30 9239 H 896.227 1.02863 6.47885 0
M  V30 9240 H 896.144 2.65225 7.07949 0
M  V30 9241 H 897.412 1.5979 7.62947 0
M  V30 9242 N 901.641 -1.19671 1.02551 0
M  V30 9243 C 902.589 -2.24812 0.596867 0
M  V30 9244 C 903.583 -1.65336 -0.368839 0
M  V30 9245 O 904.789 -1.78422 -0.237786 0
M  V30 9246 H 901.164 -0.731417 0.174739 0
M  V30 9247 H 903.135 -2.58286 1.49435 0
M  V30 9248 C 901.884 -3.47677 -0.0399514 0
M  V30 9249 H 901.207 -3.93728 0.694153 0
M  V30 9250 H 902.647 -4.22917 -0.302861 0
M  V30 9251 C 901.106 -3.11411 -1.2855 0
M  V30 9252 O 901.636 -3.23757 -2.37791 0
M  V30 9253 N 899.842 -2.65875 -1.17297 0
M  V30 9254 H 899.389 -2.56029 -0.284045 0
M  V30 9255 H 899.347 -2.41981 -2.00731 0
M  V30 9256 N 903.119 -0.802921 -1.35613 0
M  V30 9257 C 904.029 -0.212177 -2.33639 0
M  V30 9258 C 905.045 0.642871 -1.61689 0
M  V30 9259 O 906.221 0.555485 -1.93588 0
M  V30 9260 C 903.286 0.632406 -3.40883 0
M  V30 9261 C 902.347 -0.242708 -4.28613 0
M  V30 9262 C 901.58 0.56166 -5.30736 0
M  V30 9263 O 901.803 1.79664 -5.41366 0
M  V30 9264 O 900.737 -0.0455387 -6.01883 0
M  V30 9265 H 904.563 -1.023 -2.85952 0
M  V30 9266 H 902.148 -0.564636 -1.38319 0
M  V30 9267 H 904.03 1.11358 -4.0642 0
M  V30 9268 H 902.705 1.42089 -2.90848 0
M  V30 9269 H 901.612 -0.77094 -3.6607 0
M  V30 9270 H 902.945 -0.995046 -4.82037 0
M  V30 9271 N 904.597 1.47463 -0.556102 0
M  V30 9272 C 906.013 1.58134 -0.21579 0
M  V30 9273 C 906.213 1.55486 1.28166 0
M  V30 9274 O 905.269 1.45768 2.06174 0
M  V30 9275 C 906.582 2.88686 -0.841464 0
M  V30 9276 C 908.13 3.02268 -0.812591 0
M  V30 9277 C 908.605 4.35518 -1.41731 0
M  V30 9278 N 910.096 4.42151 -1.38045 0
M  V30 9279 C 910.831 5.43817 -1.81799 0
M  V30 9280 N 910.327 6.52299 -2.33404 0
M  V30 9281 N 912.12 5.34855 -1.72877 0
M  V30 9282 H 904.271 1.47428 -1.52901 0
M  V30 9283 H 906.534 0.701586 -0.637559 0
M  V30 9284 H 906.24 2.96358 -1.8938 0
M  V30 9285 H 906.114 3.7572 -0.333846 0
M  V30 9286 H 908.501 2.94194 0.231056 0
M  V30 9287 H 908.582 2.16779 -1.35796 0
M  V30 9288 H 908.226 4.44348 -2.46002 0
M  V30 9289 H 908.156 5.19737 -0.847402 0
M  V30 9290 H 910.647 3.64348 -1.00296 0
M  V30 9291 H 910.96 7.26047 -2.64717 0
M  V30 9292 H 909.305 6.53192 -2.37414 0
M  V30 9293 H 912.496 4.49004 -1.32338 0
M  V30 9294 H 912.669 6.13949 -2.07294 0
M  V30 9295 N 906.075 0.2925 1.54862 0
M  V30 9296 C 907.303 -0.322113 2.04377 0
M  V30 9297 C 907.718 -1.48164 1.17016 0
M  V30 9298 O 907.075 -1.81466 0.19395 0
M  V30 9299 C 907.126 -0.786506 3.5284 0
M  V30 9300 O 906.847 0.326863 4.36879 0
M  V30 9301 C 908.348 -1.46715 4.18318 0
M  V30 9302 H 905.568 -0.0712074 0.667211 0
M  V30 9303 H 908.112 0.429657 1.99935 0
M  V30 9304 H 906.267 -1.48832 3.5767 0
M  V30 9305 H 906.681 -0.0331558 5.2449 0
M  V30 9306 H 908.155 -1.74333 5.23748 0
M  V30 9307 H 908.632 -2.40443 3.67538 0
M  V30 9308 H 909.238 -0.808735 4.1754 0
M  V30 9309 N 907.553 -1.57587 0.0200696 0
M  V30 9310 C 908.778 -1.96124 -0.674547 0
M  V30 9311 C 909.203 -0.896068 -1.65385 0
M  V30 9312 O 908.561 0.143925 -1.80728 0
M  V30 9313 C 908.609 -3.3376 -1.36517 0
M  V30 9314 O 907.713 -3.29483 -2.48022 0
M  V30 9315 H 907.054 -0.639719 -0.177919 0
M  V30 9316 H 909.584 -2.04447 0.0792317 0
M  V30 9317 H 909.594 -3.69785 -1.72403 0
M  V30 9318 H 908.269 -4.10832 -0.647265 0
M  V30 9319 H 906.846 -3.05162 -2.14314 0
M  V30 9320 N 909.032 0.252966 -1.55557 0
M  V30 9321 C 910.278 0.983306 -1.77367 0
M  V30 9322 C 910.611 1.85203 -0.584258 0
M  V30 9323 O 909.886 1.89963 0.417644 0
M  V30 9324 C 910.169 1.84896 -3.09007 0
M  V30 9325 C 910.022 1.00883 -4.38341 0
M  V30 9326 C 911.341 2.83254 -3.36831 0
M  V30 9327 H 908.46 0.356056 -0.645286 0
M  V30 9328 H 911.102 0.254232 -1.88291 0
M  V30 9329 H 909.252 2.47058 -2.99825 0
M  V30 9330 H 910.924 0.40638 -4.59507 0
M  V30 9331 H 909.167 0.31297 -4.3267 0
M  V30 9332 H 909.838 1.64818 -5.2682 0
M  V30 9333 H 912.314 2.31228 -3.45937 0
M  V30 9334 H 911.19 3.40949 -4.30169 0
M  V30 9335 H 911.451 3.59407 -2.57447 0
M  V30 9336 N 910.51 1.48831 0.518367 0
M  V30 9337 C 911.473 1.63721 1.604 0
M  V30 9338 C 912.473 0.509857 1.52503 0
M  V30 9339 O 913.663 0.775922 1.55965 0
M  V30 9340 C 910.795 1.61831 3.00039 0
M  V30 9341 H 911.988 2.60534 1.48533 0
M  V30 9342 H 909.541 1.37602 0.741309 0
M  V30 9343 H 910.276 0.665387 3.17401 0
M  V30 9344 H 910.061 2.43686 3.0718 0
M  V30 9345 H 911.551 1.75467 3.78947 0
M  V30 9346 N 911.988 -0.768124 1.37614 0
M  V30 9347 C 913.236 -1.52379 1.3276 0
M  V30 9348 C 913.557 -1.94809 -0.0863564 0
M  V30 9349 O 912.827 -1.66568 -1.03112 0
M  V30 9350 H 911.407 -0.565179 0.488448 0
M  V30 9351 H 914.069 -0.913974 1.72141 0
M  V30 9352 H 913.165 -2.4215 1.96901 0
M  V30 9353 N 913.466 -1.22244 -0.994698 0
M  V30 9354 C 914.694 -1.07218 -1.76952 0
M  V30 9355 C 915.109 0.377388 -1.8499 0
M  V30 9356 O 914.466 1.26157 -1.31874 0
M  V30 9357 C 914.517 -1.67496 -3.20355 0
M  V30 9358 O 914.238 -3.06782 -3.12756 0
M  V30 9359 C 915.739 -1.57721 -4.14294 0
M  V30 9360 H 912.959 -0.375966 -0.555779 0
M  V30 9361 H 915.503 -1.61799 -1.25065 0
M  V30 9362 H 913.658 -1.16982 -3.69315 0
M  V30 9363 H 914.072 -3.35784 -4.02926 0
M  V30 9364 H 915.546 -2.04623 -5.12673 0
M  V30 9365 H 916.023 -0.533434 -4.35949 0
M  V30 9366 H 916.629 -2.07531 -3.71229 0
M  V30 9367 N 914.944 1.19125 -1.03184 0
M  V30 9368 C 916.19 1.89163 -0.731111 0
M  V30 9369 C 916.523 1.79604 0.738662 0
M  V30 9370 O 915.798 1.19037 1.53819 0
M  V30 9371 C 916.081 3.39986 -1.18666 0
M  V30 9372 C 915.934 3.58401 -2.71788 0
M  V30 9373 C 917.253 4.33316 -0.769772 0
M  V30 9374 H 914.372 0.686908 -0.267069 0
M  V30 9375 H 917.014 1.40205 -1.28229 0
M  V30 9376 H 915.164 3.81813 -0.717736 0
M  V30 9377 H 916.836 3.25727 -3.26649 0
M  V30 9378 H 915.079 3.01355 -3.12038 0
M  V30 9379 H 915.75 4.64189 -2.98719 0
M  V30 9380 H 918.226 3.9922 -1.17314 0
M  V30 9381 H 917.102 5.37427 -1.11637 0
M  V30 9382 H 917.363 4.40884 0.327681 0
M  V30 9383 N 916.422 0.810101 1.35185 0
M  V30 9384 C 917.838 0.494269 1.51754 0
M  V30 9385 C 918.038 -0.983907 1.75845 0
M  V30 9386 O 917.094 -1.76882 1.80191 0
M  V30 9387 C 918.407 1.34268 2.69059 0
M  V30 9388 C 919.955 1.33848 2.82938 0
M  V30 9389 C 920.43 2.17109 4.03271 0
M  V30 9390 N 921.921 2.14664 4.10456 0
M  V30 9391 C 922.656 2.75843 5.02691 0
M  V30 9392 N 922.152 3.45962 6.00235 0
M  V30 9393 N 923.945 2.65465 4.95464 0
M  V30 9394 H 916.096 1.76736 1.17805 0
M  V30 9395 H 918.359 0.752429 0.576676 0
M  V30 9396 H 918.065 2.39183 2.57845 0
M  V30 9397 H 917.939 0.998362 3.63748 0
M  V30 9398 H 920.326 0.29716 2.936 0
M  V30 9399 H 920.407 1.72269 1.89095 0
M  V30 9400 H 920.051 3.21283 3.93369 0
M  V30 9401 H 919.981 1.76046 4.96302 0
M  V30 9402 H 922.472 1.63648 3.40628 0
M  V30 9403 H 922.785 3.89922 6.67219 0
M  V30 9404 H 921.13 3.50067 6.00398 0
M  V30 9405 H 924.321 2.1027 4.18215 0
M  V30 9406 H 924.494 3.13433 5.67154 0
M  V30 9407 N 917.9 -1.47166 0.563914 0
M  V30 9408 C 918.847 -2.30097 -0.180013 0
M  V30 9409 C 919.817 -1.39473 -0.902019 0
M  V30 9410 O 921.002 -1.68432 -0.896396 0
M  V30 9411 C 918.142 -3.23573 -1.19978 0
M  V30 9412 C 917.255 -4.2929 -0.483149 0
M  V30 9413 C 916.39 -5.0991 -1.48879 0
M  V30 9414 C 915.429 -6.07395 -0.757513 0
M  V30 9415 N 914.566 -6.8095 -1.71031 0
M  V30 9416 H 919.406 -2.93189 0.53329 0
M  V30 9417 H 916.943 -1.4451 0.274814 0
M  V30 9418 H 918.901 -3.76196 -1.80368 0
M  V30 9419 H 917.531 -2.6233 -1.88103 0
M  V30 9420 H 916.583 -3.79671 0.235414 0
M  V30 9421 H 917.895 -4.9872 0.0894075 0
M  V30 9422 H 917.049 -5.66717 -2.16603 0
M  V30 9423 H 915.788 -4.40397 -2.09527 0
M  V30 9424 H 914.793 -5.4976 -0.0663841 0
M  V30 9425 H 916.018 -6.78919 -0.156685 0
M  V30 9426 H 913.964 -6.14162 -2.30524 0
M  V30 9427 H 913.881 -7.46574 -1.19007 0
M  V30 9428 H 915.149 -7.42326 -2.37849 0
M  V30 9429 N 919.378 -0.300708 -1.54705 0
M  V30 9430 C 920.618 0.30953 -2.02043 0
M  V30 9431 C 920.982 1.51114 -1.18442 0
M  V30 9432 O 922.183 2.19273 -1.55477 0
M  V30 9433 C 920.454 0.657489 -3.513 0
M  V30 9434 S 922.013 1.25063 -4.206 0
M  V30 9435 H 918.831 0.0950019 -0.704624 0
M  V30 9436 H 921.433 -0.428512 -1.90746 0
M  V30 9437 H 920.137 -0.225532 -4.0978 0
M  V30 9438 H 919.668 1.42633 -3.66633 0
M  V30 9439 H 921.683 2.53844 -4.26354 0
M  V30 9440 N 920.856 1.57574 -0.0284266 0
M  V30 9441 C 922.102 1.92884 0.645544 0
M  V30 9442 C 922.457 0.905203 1.69776 0
M  V30 9443 O 921.75 -0.0788509 1.91438 0
M  V30 9444 C 921.944 3.32699 1.3056 0
M  V30 9445 C 921.773 4.48568 0.318848 0
M  V30 9446 C 920.543 5.05235 -0.0810373 0
M  V30 9447 C 922.741 5.12528 -0.426575 0
M  V30 9448 N 920.723 6.04626 -1.06303 0
M  V30 9449 C 922.094 6.07013 -1.26235 0
M  V30 9450 C 924.149 4.95509 -0.48735 0
M  V30 9451 C 922.852 6.8631 -2.15341 0
M  V30 9452 C 924.878 5.75414 -1.36575 0
M  V30 9453 C 924.24 6.69514 -2.1893 0
M  V30 9454 H 920.339 0.753677 0.208555 0
M  V30 9455 H 922.923 1.94466 -0.095439 0
M  V30 9456 H 921.094 3.31938 2.01673 0
M  V30 9457 H 922.826 3.55359 1.93655 0
M  V30 9458 H 919.581 4.72691 0.293264 0
M  V30 9459 H 920.005 6.59012 -1.55025 0
M  V30 9460 H 924.647 4.22584 0.135112 0
M  V30 9461 H 922.365 7.58541 -2.78642 0
M  V30 9462 H 925.951 5.64279 -1.41705 0
M  V30 9463 H 924.831 7.30266 -2.85799 0
M  V30 9464 N 922.334 -0.244713 1.55689 0
M  V30 9465 C 923.745 -0.813603 1.6804 0
M  V30 9466 C 924.096 -1.85936 0.626281 0
M  V30 9467 O 923.221 -2.15206 -0.227038 0
M  V30 9468 C 923.816 -1.48252 3.04642 0
M  V30 9469 C 922.375 -1.99908 3.18926 0
M  V30 9470 C 921.522 -0.850958 2.6392 0
M  V30 9471 H 924.473 -0.0204805 1.58687 0
M  V30 9472 H 924.494 -2.35062 2.99209 0
M  V30 9473 H 924.006 -0.721164 3.81341 0
M  V30 9474 H 922.107 -2.78918 2.47054 0
M  V30 9475 H 922.22 -2.19497 4.25862 0
M  V30 9476 H 920.584 -1.25206 2.21801 0
M  V30 9477 H 921.367 -0.10265 3.43146 0
M  V30 9478 N 923.813 -1.49104 -0.510467 0
M  V30 9479 C 924.761 -1.65547 -1.63392 0
M  V30 9480 C 925.755 -0.521522 -1.61172 0
M  V30 9481 O 926.961 -0.700865 -1.65795 0
M  V30 9482 H 923.336 -0.521843 -0.541464 0
M  V30 9483 H 925.307 -2.59864 -1.46673 0
M  V30 9484 C 924.056 -1.73051 -3.01577 0
M  V30 9485 H 923.379 -2.59676 -3.03987 0
M  V30 9486 H 924.819 -1.88594 -3.79748 0
M  V30 9487 C 923.278 -0.47328 -3.33559 0
M  V30 9488 O 923.808 0.405239 -3.99651 0
M  V30 9489 N 922.014 -0.339074 -2.88615 0
M  V30 9490 H 921.561 -1.05497 -2.35007 0
M  V30 9491 H 921.519 0.501061 -3.10382 0
M  V30 9492 N 925.291 0.760815 -1.38019 0
M  V30 9493 C 926.707 1.06289 -1.19058 0
M  V30 9494 C 926.907 2.01471 -0.0342603 0
M  V30 9495 O 925.963 2.44713 0.62224 0
M  V30 9496 C 927.276 1.6499 -2.51394 0
M  V30 9497 C 928.824 1.77196 -2.58013 0
M  V30 9498 C 929.299 2.3931 -3.90506 0
M  V30 9499 N 930.79 2.46749 -3.92007 0
M  V30 9500 C 931.525 2.95687 -4.91281 0
M  V30 9501 N 931.021 3.44715 -6.00952 0
M  V30 9502 N 932.814 2.94661 -4.78677 0
M  V30 9503 H 924.965 0.129045 -2.12008 0
M  V30 9504 H 927.228 0.119878 -0.94039 0
M  V30 9505 H 926.934 1.0252 -3.36426 0
M  V30 9506 H 926.808 2.64146 -2.6927 0
M  V30 9507 H 929.195 2.38796 -1.7338 0
M  V30 9508 H 929.276 0.767645 -2.4401 0
M  V30 9509 H 928.92 1.78346 -4.75558 0
M  V30 9510 H 928.85 3.40369 -4.01817 0
M  V30 9511 H 931.341 2.12064 -3.12789 0
M  V30 9512 H 931.654 3.80492 -6.72641 0
M  V30 9513 H 929.999 3.42791 -6.04582 0
M  V30 9514 H 933.19 2.55665 -3.92113 0
M  V30 9515 H 933.363 3.32489 -5.56197 0
M  V30 9516 N 926.769 1.22769 0.988202 0
M  V30 9517 C 928.015 1.05665 1.73097 0
M  V30 9518 C 928.348 -0.406615 1.89895 0
M  V30 9519 O 927.623 -1.30132 1.44554 0
M  V30 9520 C 927.906 1.77381 3.13382 0
M  V30 9521 C 927.759 3.31332 3.04203 0
M  V30 9522 C 929.078 1.52999 4.12649 0
M  V30 9523 H 926.197 0.385258 0.628288 0
M  V30 9524 H 928.839 1.51171 1.15097 0
M  V30 9525 H 926.989 1.38696 3.62899 0
M  V30 9526 H 928.661 3.79489 2.6227 0
M  V30 9527 H 926.904 3.60767 2.40894 0
M  V30 9528 H 927.575 3.76692 4.03493 0
M  V30 9529 H 930.051 1.86611 3.71908 0
M  V30 9530 H 928.927 2.05666 5.08913 0
M  V30 9531 H 929.188 0.463615 4.39662 0
M  V30 9532 N 928.247 -1.18576 1.03814 0
M  V30 9533 C 929.21 -2.2033 0.63146 0
M  V30 9534 C 930.21 -1.57787 -0.309816 0
M  V30 9535 O 931.4 -1.73938 -0.0955598 0
M  V30 9536 C 928.532 -3.40818 -0.0745963 0
M  V30 9537 H 929.725 -2.57824 1.53189 0
M  V30 9538 H 927.278 -1.32416 0.830398 0
M  V30 9539 H 928.013 -3.08853 -0.988947 0
M  V30 9540 H 927.798 -3.87453 0.6019 0
M  V30 9541 H 929.288 -4.16166 -0.345727 0
M  V30 9542 N 929.725 -0.817259 -1.34754 0
M  V30 9543 C 930.672 -0.233108 -2.2962 0
M  V30 9544 C 931.642 0.638902 -1.53321 0
M  V30 9545 O 932.827 0.581739 -1.81715 0
M  V30 9546 C 929.967 0.603659 -3.39779 0
M  V30 9547 C 929.08 -0.289967 -4.31026 0
M  V30 9548 C 928.215 0.555825 -5.28284 0
M  V30 9549 C 927.254 -0.337539 -6.11169 0
M  V30 9550 N 926.391 0.468847 -7.00533 0
M  V30 9551 H 931.231 -1.04747 -2.78984 0
M  V30 9552 H 928.768 -0.528056 -1.37295 0
M  V30 9553 H 930.726 1.10407 -4.02326 0
M  V30 9554 H 929.356 1.38319 -2.91664 0
M  V30 9555 H 928.408 -0.908552 -3.69391 0
M  V30 9556 H 929.72 -0.977136 -4.89135 0
M  V30 9557 H 928.874 1.12094 -5.96255 0
M  V30 9558 H 927.613 1.27652 -4.70698 0
M  V30 9559 H 926.618 -0.914839 -5.42135 0
M  V30 9560 H 927.843 -1.05626 -6.70835 0
M  V30 9561 H 925.789 1.17332 -6.45422 0
M  V30 9562 H 925.706 -0.160052 -7.55831 0
M  V30 9563 H 926.974 1.01689 -7.72839 0
M  V30 9564 N 931.203 1.46865 -0.571711 0
M  V30 9565 C 932.113 2.33979 0.170571 0
M  V30 9566 C 933.129 1.49083 0.897239 0
M  V30 9567 O 934.305 1.81979 0.862888 0
M  V30 9568 C 931.37 3.26063 1.17831 0
M  V30 9569 C 930.431 4.26855 0.457499 0
M  V30 9570 C 929.664 5.14539 1.41722 0
M  V30 9571 O 929.887 5.04945 2.65305 0
M  V30 9572 O 928.821 5.94612 0.9338 0
M  V30 9573 H 932.647 2.98781 -0.544396 0
M  V30 9574 H 930.232 1.4566 -0.332198 0
M  V30 9575 H 932.114 3.82903 1.75965 0
M  V30 9576 H 930.789 2.63871 1.87493 0
M  V30 9577 H 929.696 3.73734 -0.165406 0
M  V30 9578 H 931.029 4.91802 -0.197953 0
M  V30 9579 N 932.681 0.308908 1.54543 0
M  V30 9580 C 933.613 -0.597453 2.21276 0
M  V30 9581 C 934.626 -1.09137 1.20801 0
M  V30 9582 O 935.815 -1.00747 1.47351 0
M  V30 9583 C 932.915 -1.83085 2.85189 0
M  V30 9584 C 932.088 -1.4781 4.11669 0
M  V30 9585 C 931.147 -2.56748 4.59311 0
M  V30 9586 O 930.173 -2.21507 5.24331 0
M  V30 9587 N 931.375 -3.87427 4.32297 0
M  V30 9588 H 934.14 -0.0261183 2.99689 0
M  V30 9589 H 931.701 0.131456 1.61365 0
M  V30 9590 H 933.693 -2.55326 3.13992 0
M  V30 9591 H 932.263 -2.31039 2.1057 0
M  V30 9592 H 931.483 -0.587974 3.8979 0
M  V30 9593 H 932.771 -1.2179 4.94009 0
M  V30 9594 H 932.169 -4.18863 3.80224 0
M  V30 9595 H 930.726 -4.55942 4.6579 0
M  V30 9596 N 934.159 -1.57557 0.0367827 0
M  V30 9597 C 935.408 -1.91291 -0.639569 0
M  V30 9598 C 935.721 -0.915601 -1.72847 0
M  V30 9599 O 936.927 -1.14447 -2.46199 0
M  V30 9600 C 935.383 -3.39697 -1.18888 0
M  V30 9601 C 934.991 -4.47803 -0.132851 0
M  V30 9602 C 936.735 -3.82487 -1.8413 0
M  V30 9603 C 934.642 -5.87311 -0.694229 0
M  V30 9604 H 933.572 -0.713886 -0.242658 0
M  V30 9605 H 936.223 -1.83209 0.103332 0
M  V30 9606 H 934.605 -3.42736 -1.98363 0
M  V30 9607 H 935.779 -4.56334 0.640009 0
M  V30 9608 H 934.094 -4.14264 0.421264 0
M  V30 9609 H 936.691 -4.84076 -2.27101 0
M  V30 9610 H 937.034 -3.17959 -2.68716 0
M  V30 9611 H 937.567 -3.81903 -1.11332 0
M  V30 9612 H 934.306 -6.55401 0.113667 0
M  V30 9613 H 933.826 -5.82371 -1.4354 0
M  V30 9614 H 935.505 -6.36119 -1.1816 0
M  V30 9615 N 935.637 0.236453 -1.55816 0
M  V30 9616 C 936.862 0.98449 -1.82545 0
M  V30 9617 C 937.287 1.77755 -0.615206 0
M  V30 9618 O 936.645 1.75982 0.435895 0
M  V30 9619 C 936.693 1.88973 -3.07118 0
M  V30 9620 O 935.797 2.98298 -2.84766 0
M  V30 9621 H 935.138 0.279577 -0.602273 0
M  V30 9622 H 937.668 0.254277 -2.03014 0
M  V30 9623 H 937.678 2.3024 -3.36829 0
M  V30 9624 H 936.353 1.30671 -3.94839 0
M  V30 9625 H 934.93 2.61085 -2.6625 0
M  V30 9626 N 937.115 1.49373 0.502552 0
M  V30 9627 C 938.531 1.36101 0.833591 0
M  V30 9628 C 938.731 0.392911 1.97632 0
M  V30 9629 O 937.787 -0.175975 2.51886 0
M  V30 9630 C 939.1 2.76782 1.17526 0
M  V30 9631 C 940.648 2.85471 1.28356 0
M  V30 9632 C 941.123 4.26915 1.65853 0
M  V30 9633 N 942.614 4.29719 1.72905 0
M  V30 9634 C 943.349 5.36127 2.0336 0
M  V30 9635 N 942.845 6.52782 2.32049 0
M  V30 9636 N 944.638 5.23542 2.04598 0
M  V30 9637 H 936.789 2.10912 -0.251008 0
M  V30 9638 H 939.052 0.946696 -0.0497037 0
M  V30 9639 H 938.758 3.49314 0.408965 0
M  V30 9640 H 938.632 3.1205 2.11907 0
M  V30 9641 H 941.019 2.13177 2.04058 0
M  V30 9642 H 941.1 2.53787 0.320304 0
M  V30 9643 H 940.744 4.99735 0.907022 0
M  V30 9644 H 940.674 4.56063 2.63276 0
M  V30 9645 H 943.165 3.45586 1.529 0
M  V30 9646 H 943.478 7.29701 2.54471 0
M  V30 9647 H 941.823 6.56011 2.29509 0
M  V30 9648 H 945.014 4.31413 1.8166 0
M  V30 9649 H 945.187 6.06565 2.27998 0
M  V30 9650 N 938.594 -0.753485 1.38421 0
M  V30 9651 C 940.01 -1.05656 1.1962 0
M  V30 9652 C 940.21 -2.0145 0.0449443 0
M  V30 9653 O 939.266 -2.45039 -0.609253 0
M  V30 9654 C 940.579 -1.63655 2.52265 0
M  V30 9655 C 942.127 -1.75825 2.58949 0
M  V30 9656 C 942.602 -2.37236 3.91769 0
M  V30 9657 N 944.093 -2.44666 3.9331 0
M  V30 9658 C 944.828 -2.93077 4.92842 0
M  V30 9659 N 944.324 -3.41523 6.02772 0
M  V30 9660 N 946.117 -2.92118 4.80232 0
M  V30 9661 H 938.268 -0.117799 2.12073 0
M  V30 9662 H 940.531 -0.114889 0.941012 0
M  V30 9663 H 940.237 -1.00734 3.36965 0
M  V30 9664 H 940.111 -2.62715 2.70667 0
M  V30 9665 H 942.498 -2.37873 1.74644 0
M  V30 9666 H 942.579 -0.754693 2.44414 0
M  V30 9667 H 942.223 -1.75822 4.76497 0
M  V30 9668 H 942.153 -3.38233 4.03616 0
M  V30 9669 H 944.644 -2.10403 3.1391 0
M  V30 9670 H 944.957 -3.76919 6.74649 0
M  V30 9671 H 943.302 -3.3958 6.06391 0
M  V30 9672 H 946.493 -2.53582 3.93464 0
M  V30 9673 H 946.666 -3.29535 5.57952 0
M  V30 9674 N 940.072 -1.23292 -0.981677 0
M  V30 9675 C 941.002 -1.03738 -2.09191 0
M  V30 9676 C 941.983 0.0453041 -1.7004 0
M  V30 9677 O 943.168 -0.119092 -1.93834 0
M  V30 9678 C 940.298 -0.626426 -3.41604 0
M  V30 9679 C 939.252 -1.65631 -3.94652 0
M  V30 9680 C 938.578 -1.10084 -5.23245 0
M  V30 9681 C 939.878 -3.04903 -4.24066 0
M  V30 9682 H 941.572 -1.966 -2.25807 0
M  V30 9683 H 939.118 -0.946656 -1.0851 0
M  V30 9684 H 941.071 -0.476689 -4.18695 0
M  V30 9685 H 939.795 0.337873 -3.24848 0
M  V30 9686 H 938.454 -1.79402 -3.19704 0
M  V30 9687 H 938.102 -0.127562 -5.02838 0
M  V30 9688 H 937.802 -1.78896 -5.59705 0
M  V30 9689 H 939.326 -0.962928 -6.02959 0
M  V30 9690 H 940.74 -2.94441 -4.91912 0
M  V30 9691 H 939.137 -3.70941 -4.71724 0
M  V30 9692 H 940.207 -3.53991 -3.31389 0
M  V30 9693 N 941.55 1.18024 -1.04442 0
M  V30 9694 C 942.827 1.8398 -0.664125 0
M  V30 9695 C 943.207 1.92961 0.856116 0
M  V30 9696 O 942.555 1.45839 1.75907 0
M  V30 9697 C 942.765 3.22069 -1.34433 0
M  V30 9698 C 944.113 3.98063 -1.47754 0
M  V30 9699 O 945.137 3.31523 -1.30274 0
M  V30 9700 O 943.996 5.17291 -1.76272 0
M  V30 9701 H 941.09 0.793543 -0.23285 0
M  V30 9702 H 943.636 1.25385 -1.14354 0
M  V30 9703 H 942.408 3.10458 -2.38184 0
M  V30 9704 H 942.031 3.88325 -0.853782 0
M  V30 9705 N 943.028 0.824394 1.34319 0
M  V30 9706 C 944.276 0.41235 1.97849 0
M  V30 9707 C 944.597 -1.02841 1.65677 0
M  V30 9708 O 943.867 -1.71421 0.948245 0
M  V30 9709 H 942.447 0.149486 0.73189 0
M  V30 9710 H 945.109 1.05416 1.63931 0
M  V30 9711 H 944.205 0.532557 3.07523 0
M  V30 9712 N 944.506 -1.46559 0.579492 0
M  V30 9713 C 945.454 -2.3199 -0.168413 0
M  V30 9714 C 946.448 -1.44288 -0.887551 0
M  V30 9715 O 947.654 -1.60931 -0.806305 0
M  V30 9716 H 944.029 -0.748431 -0.0731799 0
M  V30 9717 H 946 -2.92886 0.570973 0
M  V30 9718 C 944.749 -3.27392 -1.1709 0
M  V30 9719 H 944.072 -3.94853 -0.626958 0
M  V30 9720 H 945.512 -3.89955 -1.66467 0
M  V30 9721 C 943.971 -2.52511 -2.23024 0
M  V30 9722 O 944.501 -2.2858 -3.30324 0
M  V30 9723 N 942.707 -2.1313 -1.97545 0
M  V30 9724 H 942.254 -2.32793 -1.10297 0
M  V30 9725 H 942.212 -1.63348 -2.68635 0
M  V30 9726 N 945.984 -0.3171 -1.54377 0
M  V30 9727 C 946.916 0.58571 -2.2159 0
M  V30 9728 C 947.929 1.08495 -1.21378 0
M  V30 9729 O 949.118 0.999638 -1.47883 0
M  V30 9730 C 946.218 1.8157 -2.86156 0
M  V30 9731 C 945.391 1.45625 -4.12447 0
M  V30 9732 C 944.45 2.54308 -4.60667 0
M  V30 9733 O 943.476 2.18724 -5.25498 0
M  V30 9734 N 944.678 3.85129 -4.34345 0
M  V30 9735 H 947.443 0.0102247 -2.99698 0
M  V30 9736 H 945.004 -0.140011 -1.61293 0
M  V30 9737 H 946.996 2.53657 -3.15341 0
M  V30 9738 H 945.566 2.29919 -2.11793 0
M  V30 9739 H 944.786 0.567294 -3.90097 0
M  V30 9740 H 946.074 1.19169 -4.94648 0
M  V30 9741 H 945.472 4.16841 -3.8244 0
M  V30 9742 H 944.029 4.53466 -4.68201 0
M  V30 9743 N 947.462 1.57535 -0.0451378 0
M  V30 9744 C 948.692 1.96476 0.638814 0
M  V30 9745 C 949.1 0.921056 1.65267 0
M  V30 9746 O 948.443 -0.103843 1.83406 0
M  V30 9747 C 948.505 3.31629 1.38788 0
M  V30 9748 C 948.169 4.5391 0.530545 0
M  V30 9749 C 949.166 5.19512 -0.200864 0
M  V30 9750 C 946.851 5.00159 0.463242 0
M  V30 9751 C 948.845 6.29695 -0.988078 0
M  V30 9752 C 946.532 6.10221 -0.327665 0
M  V30 9753 C 947.53 6.74849 -1.05202 0
M  V30 9754 O 947.218 7.82795 -1.82993 0
M  V30 9755 H 946.95 0.651625 0.17989 0
M  V30 9756 H 949.504 2.05126 -0.106031 0
M  V30 9757 H 947.734 3.19516 2.17822 0
M  V30 9758 H 949.423 3.5536 1.96148 0
M  V30 9759 H 950.189 4.84742 -0.158299 0
M  V30 9760 H 946.068 4.49651 1.01663 0
M  V30 9761 H 949.612 6.80072 -1.55397 0
M  V30 9762 H 945.509 6.44428 -0.37189 0
M  V30 9763 H 946.277 7.99542 -1.7514 0
M  V30 9764 N 948.94 -0.228186 1.55939 0
M  V30 9765 C 949.87 -1.28607 1.94891 0
M  V30 9766 C 950.851 -1.49236 0.816245 0
M  V30 9767 O 952.036 -1.61531 1.07803 0
M  V30 9768 C 949.166 -2.63719 2.25986 0
M  V30 9769 C 948.12 -2.57757 3.4168 0
M  V30 9770 C 947.446 -3.96837 3.58364 0
M  V30 9771 C 948.746 -2.13116 4.76843 0
M  V30 9772 H 950.44 -0.962531 2.83506 0
M  V30 9773 H 947.986 -0.461577 1.36402 0
M  V30 9774 H 949.939 -3.37878 2.51826 0
M  V30 9775 H 948.663 -2.97747 1.34217 0
M  V30 9776 H 947.322 -1.86055 3.15878 0
M  V30 9777 H 946.97 -4.28162 2.63982 0
M  V30 9778 H 946.67 -3.93731 4.36176 0
M  V30 9779 H 948.194 -4.72668 3.86545 0
M  V30 9780 H 949.608 -2.77015 5.01932 0
M  V30 9781 H 948.005 -2.21083 5.57891 0
M  V30 9782 H 949.075 -1.08326 4.72645 0
M  V30 9783 N 950.418 -1.49637 -0.494624 0
M  V30 9784 C 951.665 -1.59445 -1.24834 0
M  V30 9785 C 951.993 -0.284028 -1.92415 0
M  V30 9786 O 951.248 0.728519 -1.81634 0
M  V30 9787 C 951.547 -2.70749 -2.33302 0
M  V30 9788 C 951.213 -4.12034 -1.83135 0
M  V30 9789 C 949.875 -4.50482 -1.69173 0
M  V30 9790 C 952.227 -5.00432 -1.4566 0
M  V30 9791 C 949.555 -5.75093 -1.16124 0
M  V30 9792 C 951.907 -6.25568 -0.940608 0
M  V30 9793 C 950.571 -6.62839 -0.787432 0
M  V30 9794 H 949.841 -0.583451 -0.456799 0
M  V30 9795 H 952.488 -1.8349 -0.548044 0
M  V30 9796 H 950.793 -2.407 -3.09145 0
M  V30 9797 H 952.49 -2.75546 -2.91334 0
M  V30 9798 H 949.08 -3.8169 -1.94964 0
M  V30 9799 H 953.264 -4.71379 -1.55291 0
M  V30 9800 H 948.52 -6.02665 -1.02982 0
M  V30 9801 H 952.694 -6.93439 -0.641467 0
M  V30 9802 H 950.321 -7.59279 -0.374191 0
M  V30 9803 N 951.896 0.746133 -1.38819 0
M  V30 9804 C 952.826 1.87344 -1.39372 0
M  V30 9805 C 953.807 1.68123 -0.258583 0
M  V30 9806 O 954.992 1.88606 -0.462769 0
M  V30 9807 C 952.122 3.24962 -1.22543 0
M  V30 9808 C 951.076 3.58799 -2.33339 0
M  V30 9809 C 950.402 4.95235 -2.01609 0
M  V30 9810 C 951.702 3.62911 -3.75624 0
M  V30 9811 H 953.396 1.87138 -2.33709 0
M  V30 9812 H 950.942 0.898937 -1.12495 0
M  V30 9813 H 952.895 4.03488 -1.21554 0
M  V30 9814 H 951.619 3.25667 -0.246707 0
M  V30 9815 H 950.278 2.82596 -2.33527 0
M  V30 9816 H 949.926 4.92508 -1.02202 0
M  V30 9817 H 949.626 5.18843 -2.75819 0
M  V30 9818 H 951.15 5.76131 -2.02251 0
M  V30 9819 H 952.564 4.31535 -3.77426 0
M  V30 9820 H 950.961 3.98031 -4.491 0
M  V30 9821 H 952.031 2.62967 -4.07402 0
M  V30 9822 N 953.375 1.23811 0.975125 0
M  V30 9823 C 954.786 1.0675 1.53171 0
M  V30 9824 C 955.137 -0.363475 1.92804 0
M  V30 9825 O 954.262 -1.25089 1.76583 0
M  V30 9826 C 954.857 1.93161 2.78342 0
M  V30 9827 C 953.416 1.80346 3.30382 0
M  V30 9828 C 952.563 1.88544 2.03338 0
M  V30 9829 H 955.514 1.37396 0.79423 0
M  V30 9830 H 955.535 1.45951 3.51395 0
M  V30 9831 H 955.047 2.97302 2.49465 0
M  V30 9832 H 953.148 0.790077 3.64127 0
M  V30 9833 H 953.261 2.64026 3.99784 0
M  V30 9834 H 951.625 1.32186 2.17713 0
M  V30 9835 H 952.408 2.94252 1.76836 0
M  V30 9836 N 954.853 -1.17469 1.05066 0
M  V30 9837 C 956.264 -1.69334 0.786304 0
M  V30 9838 C 956.615 -1.83604 -0.691671 0
M  V30 9839 O 955.74 -1.52269 -1.53763 0
M  V30 9840 C 956.335 -3.07572 1.42074 0
M  V30 9841 C 954.894 -3.56609 1.20446 0
M  V30 9842 C 954.041 -2.329 1.50508 0
M  V30 9843 H 956.992 -1.02003 1.21577 0
M  V30 9844 H 957.013 -3.71352 0.829334 0
M  V30 9845 H 956.525 -2.97154 2.49642 0
M  V30 9846 H 954.626 -3.72306 0.147968 0
M  V30 9847 H 954.739 -4.39446 1.90852 0
M  V30 9848 H 953.103 -2.37305 0.925124 0
M  V30 9849 H 953.886 -2.25093 2.59207 0
M  V30 9850 N 956.331 -0.831506 -1.3388 0
M  V30 9851 C 957.279 -0.247896 -2.31275 0
M  V30 9852 C 958.273 0.616083 -1.578 0
M  V30 9853 O 959.479 0.506465 -1.72728 0
M  V30 9854 H 955.854 -0.0614293 -0.749487 0
M  V30 9855 H 957.825 -1.08401 -2.78014 0
M  V30 9856 C 956.574 0.568434 -3.43022 0
M  V30 9857 H 955.897 -0.0870654 -3.99705 0
M  V30 9858 H 957.337 0.942751 -4.13386 0
M  V30 9859 C 955.796 1.74431 -2.88228 0
M  V30 9860 O 956.326 2.84278 -2.83811 0
M  V30 9861 N 954.532 1.56382 -2.44935 0
M  V30 9862 H 954.079 0.670255 -2.48727 0
M  V30 9863 H 954.037 2.35208 -2.08625 0
M  V30 9864 N 957.809 1.4625 -0.587256 0
M  V30 9865 C 959.225 1.57641 -0.249284 0
M  V30 9866 C 959.425 1.58169 1.24839 0
M  V30 9867 O 958.481 1.50109 2.03036 0
M  V30 9868 C 959.794 2.86837 -0.902509 0
M  V30 9869 C 961.342 3.00476 -0.876524 0
M  V30 9870 C 961.817 4.32414 -1.50938 0
M  V30 9871 N 963.308 4.39124 -1.47392 0
M  V30 9872 C 964.043 5.39838 -1.93293 0
M  V30 9873 N 963.539 6.47202 -2.47188 0
M  V30 9874 N 965.332 5.31068 -1.84183 0
M  V30 9875 H 957.483 1.44151 -1.55994 0
M  V30 9876 H 959.746 0.687905 -0.652297 0
M  V30 9877 H 959.452 2.92274 -1.95624 0
M  V30 9878 H 959.326 3.74927 -0.413466 0
M  V30 9879 H 961.713 2.94618 0.168601 0
M  V30 9880 H 961.794 2.1385 -1.40363 0
M  V30 9881 H 961.438 4.3903 -2.55372 0
M  V30 9882 H 961.368 5.17823 -0.957455 0
M  V30 9883 H 963.859 3.62138 -1.08002 0
M  V30 9884 H 964.172 7.20269 -2.80058 0
M  V30 9885 H 962.517 6.48009 -2.51216 0
M  V30 9886 H 965.708 4.46095 -1.41833 0
M  V30 9887 H 965.881 6.09414 -2.2027 0
M  V30 9888 N 959.287 0.325282 1.54207 0
M  V30 9889 C 960.517 -0.278285 2.04717 0
M  V30 9890 C 960.925 -1.46198 1.20095 0
M  V30 9891 O 960.268 -1.82319 0.224813 0
M  V30 9892 C 960.33 -0.774387 3.51061 0
M  V30 9893 C 959.994 0.287225 4.56096 0
M  V30 9894 C 960.991 1.12388 5.07607 0
M  V30 9895 C 958.676 0.435908 5.00405 0
M  V30 9896 C 960.67 2.09492 6.0199 0
M  V30 9897 C 958.357 1.41037 5.94602 0
M  V30 9898 C 959.355 2.23834 6.45281 0
M  V30 9899 O 959.043 3.19625 7.37628 0
M  V30 9900 H 958.775 -0.0608309 0.673257 0
M  V30 9901 H 961.329 0.470049 1.99949 0
M  V30 9902 H 959.559 -1.57366 3.53232 0
M  V30 9903 H 961.248 -1.29649 3.84637 0
M  V30 9904 H 962.014 1.02 4.74153 0
M  V30 9905 H 957.893 -0.198668 4.60572 0
M  V30 9906 H 961.437 2.74157 6.4147 0
M  V30 9907 H 957.334 1.51487 6.27473 0
M  V30 9908 H 958.102 3.14884 7.55507 0
M  V30 9909 N 960.765 -1.57509 0.0534917 0
M  V30 9910 C 962.014 -1.91959 -0.619244 0
M  V30 9911 C 962.327 -0.933882 -1.71866 0
M  V30 9912 O 963.533 -1.17052 -2.44972 0
M  V30 9913 C 961.989 -3.40938 -1.15278 0
M  V30 9914 C 961.597 -4.47919 -0.085348 0
M  V30 9915 C 963.341 -3.84419 -1.80063 0
M  V30 9916 C 961.248 -5.88014 -0.631897 0
M  V30 9917 H 960.178 -0.71642 -0.235072 0
M  V30 9918 H 962.829 -1.83089 0.122758 0
M  V30 9919 H 961.211 -3.44821 -1.94717 0
M  V30 9920 H 962.385 -4.55629 0.688374 0
M  V30 9921 H 960.7 -4.13793 0.465178 0
M  V30 9922 H 963.297 -4.86457 -2.21954 0
M  V30 9923 H 963.64 -3.20791 -2.65328 0
M  V30 9924 H 964.173 -3.83062 -1.07275 0
M  V30 9925 H 960.912 -6.55244 0.183175 0
M  V30 9926 H 960.432 -5.83861 -1.37355 0
M  V30 9927 H 962.111 -6.37336 -1.11407 0
M  V30 9928 N 962.243 0.219913 -1.56058 0
M  V30 9929 C 963.49 0.944064 -1.79147 0
M  V30 9930 C 963.818 1.84268 -0.622531 0
M  V30 9931 O 963.073 1.91713 0.393013 0
M  V30 9932 C 963.372 1.81293 -3.08006 0
M  V30 9933 C 963.038 1.0674 -4.38084 0
M  V30 9934 C 961.7 0.86147 -4.73426 0
M  V30 9935 C 964.052 0.541049 -5.18384 0
M  V30 9936 C 961.38 0.117307 -5.86583 0
M  V30 9937 C 963.732 -0.189779 -6.32315 0
M  V30 9938 C 962.396 -0.406951 -6.66258 0
M  V30 9939 H 961.666 0.345458 -0.655546 0
M  V30 9940 H 964.313 0.212121 -1.90322 0
M  V30 9941 H 962.618 2.61278 -2.9196 0
M  V30 9942 H 964.315 2.3754 -3.23072 0
M  V30 9943 H 960.905 1.23789 -4.10334 0
M  V30 9944 H 965.089 0.687617 -4.91514 0
M  V30 9945 H 960.345 -0.0611651 -6.11369 0
M  V30 9946 H 964.519 -0.605134 -6.93766 0
M  V30 9947 H 962.146 -0.985511 -7.53785 0
M  V30 9948 N 963.721 1.49897 0.486681 0
M  V30 9949 C 964.671 1.6401 1.58381 0
M  V30 9950 C 965.655 0.495215 1.5309 0
M  V30 9951 O 966.847 0.748876 1.60377 0
M  V30 9952 C 963.976 1.72321 2.96918 0
M  V30 9953 C 963.062 2.92435 3.07152 0
M  V30 9954 N 963.453 4.16326 2.87238 0
M  V30 9955 C 961.751 2.90669 3.38271 0
M  V30 9956 C 962.452 4.97144 3.02031 0
M  V30 9957 N 961.428 4.3079 3.31544 0
M  V30 9958 H 965.23 2.57506 1.41661 0
M  V30 9959 H 962.744 1.46867 0.693106 0
M  V30 9960 H 964.741 1.80532 3.75784 0
M  V30 9961 H 963.401 0.799724 3.14697 0
M  V30 9962 H 964.412 4.46076 2.63128 0
M  V30 9963 H 961.089 2.07758 3.62137 0
M  V30 9964 H 962.479 6.05611 2.91006 0
M  V30 9965 N 965.199 -0.738761 1.39212 0
M  V30 9966 C 966.447 -1.49529 1.35962 0
M  V30 9967 C 966.768 -1.94948 -0.0450152 0
M  V30 9968 O 966.038 -1.68717 -0.995552 0
M  V30 9969 H 964.618 -0.554692 0.500326 0
M  V30 9970 H 967.28 -0.877255 1.74041 0
M  V30 9971 H 966.376 -2.37919 2.01993 0
M  V30 9972 N 966.677 -1.24326 -0.968545 0
M  V30 9973 C 967.64 -1.03591 -2.04454 0
M  V30 9974 C 968.64 0.0064809 -1.60799 0
M  V30 9975 O 969.83 -0.234404 -1.72616 0
M  V30 9976 C 966.962 -0.56992 -3.36102 0
M  V30 9977 H 968.155 -1.99092 -2.24282 0
M  V30 9978 H 965.708 -1.06537 -1.14366 0
M  V30 9979 H 966.443 0.388325 -3.21967 0
M  V30 9980 H 966.228 -1.32227 -3.69132 0
M  V30 9981 H 967.718 -0.445854 -4.15213 0
M  V30 9982 N 968.156 1.1691 -1.05688 0
M  V30 9983 C 969.066 2.24735 -0.67315 0
M  V30 9984 C 970.082 1.71252 0.308043 0
M  V30 9985 O 971.258 2.00772 0.158889 0
M  V30 9986 C 968.323 3.4665 -0.059026 0
M  V30 9987 C 967.384 4.15198 -1.0913 0
M  V30 9988 C 966.617 5.31292 -0.50639 0
M  V30 9989 O 966.84 5.663 0.682692 0
M  V30 9990 O 965.774 5.88923 -1.2431 0
M  V30 9991 H 969.6 2.59855 -1.57191 0
M  V30 9992 H 967.185 1.24306 -0.828751 0
M  V30 9993 H 969.067 4.20455 0.282018 0
M  V30 9994 H 967.742 3.13316 0.813304 0
M  V30 9995 H 966.649 3.43389 -1.48442 0
M  V30 9996 H 967.982 4.52571 -1.93495 0
M  V30 9997 N 969.634 0.838594 1.33437 0
M  V30 9998 C 970.88 0.434813 1.98084 0
M  V30 9999 C 971.213 -1.00331 1.66275 0
M  V30 10000 O 970.488 -1.70139 0.942501 0
M  V30 10001 C 970.771 0.655602 3.54082 0
M  V30 10002 C 970.624 2.14097 3.95578 0
M  V30 10003 C 971.943 0.101576 4.39983 0
M  V30 10004 H 969.062 0.159456 0.719544 0
M  V30 10005 H 971.704 1.05406 1.58081 0
M  V30 10006 H 969.854 0.128501 3.88287 0
M  V30 10007 H 971.526 2.73292 3.71631 0
M  V30 10008 H 969.769 2.62558 3.4532 0
M  V30 10009 H 970.44 2.24621 5.04231 0
M  V30 10010 H 972.916 0.552122 4.12421 0
M  V30 10011 H 971.792 0.28575 5.48156 0
M  V30 10012 H 972.053 -0.994616 4.30767 0
M  V30 10013 N 971.112 -1.45937 0.595003 0
M  V30 10014 C 972.342 -2.06399 0.0911607 0
M  V30 10015 C 972.75 -1.44236 -1.22444 0
M  V30 10016 O 972.093 -0.546265 -1.7539 0
M  V30 10017 C 972.155 -3.59242 -0.136079 0
M  V30 10018 C 971.819 -4.43668 1.09579 0
M  V30 10019 C 972.816 -4.79437 2.01088 0
M  V30 10020 C 970.501 -4.84616 1.32109 0
M  V30 10021 C 972.495 -5.54995 3.13464 0
M  V30 10022 C 970.182 -5.5993 2.44788 0
M  V30 10023 C 971.18 -5.95035 3.35294 0
M  V30 10024 O 970.868 -6.68825 4.46014 0
M  V30 10025 H 970.6 -0.673316 0.0601779 0
M  V30 10026 H 973.154 -1.88365 0.819005 0
M  V30 10027 H 971.384 -3.75629 -0.918676 0
M  V30 10028 H 973.073 -4.0159 -0.589954 0
M  V30 10029 H 973.839 -4.48371 1.84902 0
M  V30 10030 H 969.718 -4.56735 0.625662 0
M  V30 10031 H 973.262 -5.82314 3.84131 0
M  V30 10032 H 969.159 -5.90411 2.60931 0
M  V30 10033 H 969.927 -6.87262 4.44537 0
M  V30 10034 N 972.59 -0.333456 -1.54032 0
M  V30 10035 C 973.815 0.270517 -2.05628 0
M  V30 10036 C 974.24 1.44231 -1.20744 0
M  V30 10037 O 973.598 1.79975 -0.218822 0
M  V30 10038 C 973.646 0.673251 -3.54259 0
M  V30 10039 O 972.75 1.77448 -3.72271 0
M  V30 10040 H 972.091 0.0469753 -0.662336 0
M  V30 10041 H 974.621 -0.484739 -1.98775 0
M  V30 10042 H 974.631 0.953194 -3.96709 0
M  V30 10043 H 973.306 -0.183747 -4.15494 0
M  V30 10044 H 971.883 1.49259 -3.41725 0
M  V30 10045 N 974.068 1.57479 -0.061844 0
M  V30 10046 C 975.345 1.84484 0.649993 0
M  V30 10047 C 975.725 0.952366 1.88396 0
M  V30 10048 O 975.073 0.0161035 2.28494 0
M  V30 10049 C 975.283 3.34452 0.997133 0
M  V30 10050 C 976.631 4.01724 1.37488 0
M  V30 10051 O 977.655 3.3914 1.08916 0
M  V30 10052 O 976.514 5.12091 1.90854 0
M  V30 10053 H 973.608 0.761798 0.321858 0
M  V30 10054 H 976.154 1.6945 -0.0920192 0
M  V30 10055 H 974.926 3.91115 0.120301 0
M  V30 10056 H 974.549 3.54713 1.79624 0
M  V30 10057 N 975.546 -0.211634 1.56173 0
M  V30 10058 C 976.771 -0.955324 1.84088 0
M  V30 10059 C 977.196 -1.76754 0.643407 0
M  V30 10060 O 976.554 -1.76653 -0.407842 0
M  V30 10061 C 976.602 -1.84063 3.10085 0
M  V30 10062 O 975.706 -2.9373 2.89476 0
M  V30 10063 H 975.047 -0.26996 0.606645 0
M  V30 10064 H 977.577 -0.221947 2.03393 0
M  V30 10065 H 977.587 -2.24852 3.40449 0
M  V30 10066 H 976.262 -1.24373 3.96868 0
M  V30 10067 H 974.839 -2.56816 2.7037 0
M  V30 10068 N 977.024 -1.50153 -0.478725 0
M  V30 10069 C 977.934 -1.71232 -1.60364 0
M  V30 10070 C 978.95 -0.595269 -1.63501 0
M  V30 10071 O 980.126 -0.872683 -1.81511 0
M  V30 10072 C 977.191 -1.79487 -2.96623 0
M  V30 10073 C 976.252 -3.03185 -3.03937 0
M  V30 10074 C 975.485 -3.11036 -4.33696 0
M  V30 10075 O 975.708 -2.2588 -5.23769 0
M  V30 10076 O 974.642 -4.03698 -4.46443 0
M  V30 10077 H 978.468 -2.66575 -1.45505 0
M  V30 10078 H 976.053 -1.34158 -0.65741 0
M  V30 10079 H 977.935 -1.8714 -3.77567 0
M  V30 10080 H 976.61 -0.873264 -3.11698 0
M  V30 10081 H 975.517 -3.01036 -2.22099 0
M  V30 10082 H 976.85 -3.94898 -2.93796 0
M  V30 10083 N 978.502 0.731368 -1.39602 0
M  V30 10084 C 979.779 1.48308 -1.27531 0
M  V30 10085 C 980.159 2.10795 0.113482 0
M  V30 10086 O 979.507 1.98886 1.12501 0
M  V30 10087 C 979.717 2.53156 -2.40235 0
M  V30 10088 C 981.065 3.19436 -2.79725 0
M  V30 10089 O 982.089 2.6347 -2.39712 0
M  V30 10090 O 980.948 4.20714 -3.48801 0
M  V30 10091 H 978.042 0.658753 -0.499973 0
M  V30 10092 H 980.588 0.764884 -1.51485 0
M  V30 10093 H 979.36 2.05387 -3.33064 0
M  V30 10094 H 978.983 3.3253 -2.17966 0
M  V30 10095 N 979.98 1.24838 0.961938 0
M  V30 10096 C 981.257 0.99939 1.68141 0
M  V30 10097 C 981.637 -0.476588 2.0565 0
M  V30 10098 O 980.985 -1.45224 1.76415 0
M  V30 10099 C 981.195 1.92797 2.90913 0
M  V30 10100 C 982.543 2.20219 3.63027 0
M  V30 10101 O 983.567 1.90496 3.00981 0
M  V30 10102 O 982.426 2.70725 4.74731 0
M  V30 10103 H 979.52 0.37842 0.735342 0
M  V30 10104 H 982.066 1.35961 1.01551 0
M  V30 10105 H 980.838 2.92492 2.59931 0
M  V30 10106 H 980.461 1.57127 3.65235 0
M  V30 10107 N 981.458 -1.16348 1.06306 0
M  V30 10108 C 982.704 -1.87158 0.781007 0
M  V30 10109 C 983.037 -1.81499 -0.690784 0
M  V30 10110 O 982.312 -1.23074 -1.50609 0
M  V30 10111 C 982.595 -3.3672 1.27639 0
M  V30 10112 C 982.448 -3.51069 2.81194 0
M  V30 10113 C 983.767 -4.31122 0.884388 0
M  V30 10114 H 980.886 -0.679586 0.285187 0
M  V30 10115 H 983.528 -1.36756 1.31901 0
M  V30 10116 H 981.678 -3.79775 0.818715 0
M  V30 10117 H 983.35 -3.16952 3.35171 0
M  V30 10118 H 981.593 -2.92976 3.19918 0
M  V30 10119 H 982.264 -4.56105 3.10921 0
M  V30 10120 H 984.74 -3.95969 1.27858 0
M  V30 10121 H 983.616 -5.34279 1.25847 0
M  V30 10122 H 983.877 -4.41598 -0.210673 0
M  V30 10123 N 982.937 -0.845659 -1.3299 0
M  V30 10124 C 983.867 -0.298957 -2.31578 0
M  V30 10125 C 984.848 0.597012 -1.59279 0
M  V30 10126 O 986.033 0.519142 -1.87132 0
M  V30 10127 C 983.163 0.521109 -3.43368 0
M  V30 10128 C 982.117 -0.279651 -4.27085 0
M  V30 10129 C 981.443 0.664591 -5.30554 0
M  V30 10130 C 982.743 -1.50046 -5.00283 0
M  V30 10131 H 984.437 -1.12272 -2.77552 0
M  V30 10132 H 981.983 -0.54132 -1.33438 0
M  V30 10133 H 983.936 0.913921 -4.1137 0
M  V30 10134 H 982.66 1.37815 -2.96099 0
M  V30 10135 H 981.319 -0.654106 -3.60717 0
M  V30 10136 H 980.967 1.51822 -4.79541 0
M  V30 10137 H 980.667 0.132871 -5.8745 0
M  V30 10138 H 982.191 1.05477 -6.01421 0
M  V30 10139 H 983.605 -1.18044 -5.61016 0
M  V30 10140 H 982.002 -1.96946 -5.66862 0
M  V30 10141 H 983.072 -2.26659 -4.28665 0
M  V30 10142 N 984.415 1.45619 -0.602734 0
M  V30 10143 C 985.64 2.07157 -0.100429 0
M  V30 10144 C 986.065 1.44524 1.20393 0
M  V30 10145 O 985.423 0.536191 1.7319 0
M  V30 10146 C 985.471 3.60587 0.0308604 0
M  V30 10147 O 984.575 3.97944 1.08234 0
M  V30 10148 H 983.916 0.6601 -0.0718643 0
M  V30 10149 H 986.446 1.86948 -0.831366 0
M  V30 10150 H 986.456 4.07348 0.230634 0
M  V30 10151 H 985.131 4.05561 -0.921581 0
M  V30 10152 H 983.708 3.62862 0.859414 0
M  V30 10153 N 985.893 0.34162 1.53853 0
M  V30 10154 C 987.118 -0.259608 2.05769 0
M  V30 10155 C 987.543 -1.43588 1.21507 0
M  V30 10156 O 986.901 -1.79856 0.228364 0
M  V30 10157 C 986.949 -0.654455 3.54611 0
M  V30 10158 O 986.053 -1.75472 3.73207 0
M  V30 10159 H 985.394 -0.0434621 0.662576 0
M  V30 10160 H 987.924 0.495274 1.98515 0
M  V30 10161 H 987.934 -0.932142 3.97209 0
M  V30 10162 H 986.609 0.205779 4.15391 0
M  V30 10163 H 985.186 -1.47444 3.42512 0
M  V30 10164 N 987.371 -1.57444 0.0701946 0
M  V30 10165 C 988.596 -1.98171 -0.61181 0
M  V30 10166 C 989.021 -0.94823 -1.62451 0
M  V30 10167 O 988.379 0.0863553 -1.81094 0
M  V30 10168 C 988.427 -3.37934 -1.2583 0
M  V30 10169 O 987.531 -3.37207 -2.37414 0
M  V30 10170 H 986.872 -0.645056 -0.157477 0
M  V30 10171 H 989.402 -2.04091 0.144235 0
M  V30 10172 H 989.412 -3.75083 -1.60552 0
M  V30 10173 H 988.087 -4.12684 -0.516234 0
M  V30 10174 H 986.664 -3.11826 -2.04497 0
M  V30 10175 N 988.849 0.203349 -1.56283 0
M  V30 10176 C 990.074 0.945548 -1.84592 0
M  V30 10177 C 990.499 1.7641 -0.652772 0
M  V30 10178 O 989.857 1.76867 0.398468 0
M  V30 10179 C 989.905 1.82416 -3.11057 0
M  V30 10180 O 989.009 2.92191 -2.9103 0
M  V30 10181 H 988.35 0.266739 -0.608068 0
M  V30 10182 H 990.88 0.211158 -2.03507 0
M  V30 10183 H 990.89 2.23044 -3.41636 0
M  V30 10184 H 989.565 1.22267 -3.97522 0
M  V30 10185 H 988.142 2.55378 -2.71728 0
M  V30 10186 N 990.327 1.50405 0.470755 0
M  V30 10187 C 991.567 1.63049 1.23266 0
M  V30 10188 C 991.931 0.323815 1.8925 0
M  V30 10189 O 993.132 0.325692 2.6682 0
M  V30 10190 C 991.403 2.7783 2.24823 0
M  V30 10191 S 992.962 3.10609 3.09948 0
M  V30 10192 H 989.78 0.574787 0.418499 0
M  V30 10193 H 992.382 1.8819 0.529619 0
M  V30 10194 H 991.086 3.71252 1.74929 0
M  V30 10195 H 990.617 2.54776 2.99755 0
M  V30 10196 H 992.632 2.5446 4.25987 0
M  V30 10197 N 991.805 -0.723954 1.39988 0
M  V30 10198 C 993.053 -1.48078 1.3754 0
M  V30 10199 C 993.374 -1.94985 -0.0243358 0
M  V30 10200 O 992.644 -1.69764 -0.977602 0
M  V30 10201 H 991.224 -0.549354 0.506181 0
M  V30 10202 H 993.886 -0.858746 1.74962 0
M  V30 10203 H 992.982 -2.35763 2.04505 0
M  V30 10204 N 993.283 -1.25346 -0.955304 0
M  V30 10205 C 994.508 -1.12892 -1.73983 0
M  V30 10206 C 994.933 0.313455 -1.8547 0
M  V30 10207 O 994.291 1.22706 -1.33465 0
M  V30 10208 C 994.339 -1.78729 -3.1319 0
M  V30 10209 O 993.443 -1.06648 -3.98372 0
M  V30 10210 H 992.784 -0.394178 -0.534341 0
M  V30 10211 H 995.314 -1.65897 -1.19747 0
M  V30 10212 H 995.324 -1.84987 -3.63653 0
M  V30 10213 H 993.999 -2.83669 -3.04146 0
M  V30 10214 H 992.576 -1.08266 -3.56837 0
M  V30 10215 N 994.761 1.15782 -1.06922 0
M  V30 10216 C 995.709 2.22441 -0.679893 0
M  V30 10217 C 996.703 1.66591 0.307221 0
M  V30 10218 O 997.909 1.79182 0.171402 0
M  V30 10219 H 994.284 0.724427 -0.201765 0
M  V30 10220 H 996.255 2.52562 -1.58918 0
M  V30 10221 C 995.004 3.47586 -0.0891142 0
M  V30 10222 H 994.327 3.9088 -0.839805 0
M  V30 10223 H 995.767 4.2375 0.14569 0
M  V30 10224 C 994.226 3.15967 1.16903 0
M  V30 10225 O 994.756 3.32359 2.25611 0
M  V30 10226 N 992.962 2.70046 1.07349 0
M  V30 10227 H 992.509 2.56907 0.188825 0
M  V30 10228 H 992.467 2.49264 1.91611 0
M  V30 10229 N 996.239 0.8527 1.3254 0
M  V30 10230 C 997.464 0.468157 2.02047 0
M  V30 10231 C 997.889 -0.926967 1.63673 0
M  V30 10232 O 997.247 -1.60855 0.836378 0
M  V30 10233 C 997.295 0.612519 3.5536 0
M  V30 10234 O 996.399 -0.355506 4.10865 0
M  V30 10235 H 995.74 0.188401 0.636711 0
M  V30 10236 H 998.27 1.15135 1.6913 0
M  V30 10237 H 998.28 0.499315 4.04933 0
M  V30 10238 H 996.955 1.62988 3.82632 0
M  V30 10239 H 995.532 -0.198703 3.7237 0
M  V30 10240 N 997.718 -1.45297 0.610449 0
M  V30 10241 C 998.995 -1.95562 0.0386189 0
M  V30 10242 C 999.375 -1.55284 -1.43004 0
M  V30 10243 O 998.723 -0.816785 -2.13403 0
M  V30 10244 C 998.933 -3.48176 0.239731 0
M  V30 10245 C 1000.28 -4.24425 0.122035 0
M  V30 10246 O 1001.3 -3.55794 0.170003 0
M  V30 10247 O 1000.16 -5.46499 0.00953695 0
M  V30 10248 H 997.258 -0.826296 -0.0341081 0
M  V30 10249 H 999.804 -1.55449 0.68071 0
M  V30 10250 H 998.576 -3.70471 1.25963 0
M  V30 10251 H 998.199 -3.95186 -0.437486 0
M  V30 10252 N 999.196 -0.349774 -1.5367 0
M  V30 10253 C 1000.42 0.248692 -2.05904 0
M  V30 10254 C 1000.85 1.42942 -1.22267 0
M  V30 10255 O 1000.2 1.79732 -0.237899 0
M  V30 10256 C 1000.25 0.635639 -3.54953 0
M  V30 10257 O 999.356 1.7349 -3.74132 0
M  V30 10258 H 998.697 0.0399477 -0.662797 0
M  V30 10259 H 1001.23 -0.505795 -1.9825 0
M  V30 10260 H 1001.24 0.911064 -3.97698 0
M  V30 10261 H 999.912 -0.227805 -4.15276 0
M  V30 10262 H 998.489 1.45626 -3.43289 0
M  V30 10263 N 1000.67 1.57404 -0.0785433 0
M  V30 10264 C 1001.92 1.93361 0.58786 0
M  V30 10265 C 1002.24 0.959856 1.6974 0
M  V30 10266 O 1001.51 0.0091173 1.95898 0
M  V30 10267 H 1000.09 0.713825 0.220141 0
M  V30 10268 H 1002.75 1.94411 -0.137986 0
M  V30 10269 H 1001.85 2.95346 1.00881 0
M  V30 10270 N 1002.15 -0.195058 1.56388 0
M  V30 10271 C 1003.38 -0.931642 1.84738 0
M  V30 10272 C 1003.79 -1.76849 0.661046 0
M  V30 10273 O 1003.15 -1.78705 -0.370241 0
M  V30 10274 C 1003.2 -1.82777 3.11889 0
M  V30 10275 O 1002.92 -1.02471 4.25948 0
M  V30 10276 C 1004.42 -2.67603 3.53417 0
M  V30 10277 H 1001.64 -0.271821 0.613477 0
M  V30 10278 H 1004.19 -0.202299 2.03497 0
M  V30 10279 H 1002.34 -2.51074 2.95027 0
M  V30 10280 H 1002.76 -1.63539 4.98353 0
M  V30 10281 H 1004.23 -3.26138 4.45352 0
M  V30 10282 H 1004.71 -3.41314 2.76408 0
M  V30 10283 H 1005.31 -2.04678 3.7281 0
M  V30 10284 N 1003.63 -1.50653 -0.462772 0
M  V30 10285 C 1004.87 -1.637 -1.22399 0
M  V30 10286 C 1005.23 -0.333847 -1.89075 0
M  V30 10287 O 1006.43 -0.339837 -2.66643 0
M  V30 10288 C 1004.71 -2.79018 -2.23347 0
M  V30 10289 S 1006.26 -3.12248 -3.08296 0
M  V30 10290 H 1003.08 -0.576998 -0.415444 0
M  V30 10291 H 1005.68 -1.88468 -0.519631 0
M  V30 10292 H 1004.39 -3.72174 -1.72958 0
M  V30 10293 H 1003.92 -2.56362 -2.98399 0
M  V30 10294 H 1005.93 -2.56716 -4.24631 0
M  V30 10295 N 1005.11 0.71652 -1.4037 0
M  V30 10296 C 1006.04 1.84138 -1.36477 0
M  V30 10297 C 1007.05 1.6054 -0.27033 0
M  V30 10298 O 1008.24 1.70431 -0.530612 0
M  V30 10299 C 1005.34 3.20523 -1.10082 0
M  V30 10300 C 1004.52 3.71326 -2.31162 0
M  V30 10301 C 1003.57 4.86322 -2.00942 0
M  V30 10302 O 1002.6 4.99022 -2.73799 0
M  V30 10303 N 1003.8 5.72051 -0.986812 0
M  V30 10304 H 1006.57 1.87977 -2.3342 0
M  V30 10305 H 1004.13 0.89802 -1.34712 0
M  V30 10306 H 1006.12 3.95049 -0.878526 0
M  V30 10307 H 1004.69 3.11838 -0.21809 0
M  V30 10308 H 1003.91 2.87941 -2.69227 0
M  V30 10309 H 1005.2 4.02003 -3.11883 0
M  V30 10310 H 1004.6 5.64399 -0.383381 0
M  V30 10311 H 1003.15 6.46565 -0.824419 0
M  V30 10312 N 1006.59 1.25851 0.948643 0
M  V30 10313 C 1007.81 1.13813 1.73382 0
M  V30 10314 C 1008.24 -0.303615 1.85633 0
M  V30 10315 O 1007.59 -1.21997 1.34114 0
M  V30 10316 C 1007.64 1.80388 3.12238 0
M  V30 10317 O 1006.75 1.08759 3.978 0
M  V30 10318 H 1006.09 0.397006 0.532243 0
M  V30 10319 H 1008.62 1.66529 1.18866 0
M  V30 10320 H 1008.63 1.86913 3.62667 0
M  V30 10321 H 1007.3 2.85278 3.02637 0
M  V30 10322 H 1005.88 1.10157 3.56258 0
M  V30 10323 N 1008.06 -1.15214 1.07534 0
M  V30 10324 C 1009.48 -1.67628 0.822045 0
M  V30 10325 C 1009.83 -1.8503 -0.652571 0
M  V30 10326 O 1008.95 -1.55497 -1.50498 0
M  V30 10327 C 1009.55 -3.04489 1.48566 0
M  V30 10328 C 1008.11 -3.53974 1.27983 0
M  V30 10329 C 1007.25 -2.29656 1.55414 0
M  V30 10330 H 1010.2 -0.994016 1.23713 0
M  V30 10331 H 1010.22 -3.69509 0.907916 0
M  V30 10332 H 1009.74 -2.91792 2.55888 0
M  V30 10333 H 1007.84 -3.71908 0.226906 0
M  V30 10334 H 1007.95 -4.35298 2.0013 0
M  V30 10335 H 1006.31 -2.35289 0.975251 0
M  V30 10336 H 1007.1 -2.19544 2.63923 0
M  V30 10337 N 1009.54 -0.859717 -1.32086 0
M  V30 10338 C 1010.77 -0.478865 -2.01796 0
M  V30 10339 C 1011.19 0.918274 -1.64163 0
M  V30 10340 O 1010.55 1.60409 -0.844896 0
M  V30 10341 C 1010.6 -0.631356 -3.5503 0
M  V30 10342 O 1009.7 0.333712 -4.11048 0
M  V30 10343 H 1009.04 -0.191775 -0.635703 0
M  V30 10344 H 1011.57 -1.16031 -1.68517 0
M  V30 10345 H 1011.58 -0.520783 -4.04663 0
M  V30 10346 H 1010.26 -1.65015 -3.81763 0
M  V30 10347 H 1008.84 0.178953 -3.7247 0
M  V30 10348 N 1011.02 1.44971 -0.618145 0
M  V30 10349 C 1011.95 2.33357 0.0815955 0
M  V30 10350 C 1012.93 1.47451 0.848072 0
M  V30 10351 O 1014.12 1.762 0.816532 0
M  V30 10352 C 1011.25 3.30324 1.07253 0
M  V30 10353 C 1010.2 4.25948 0.418563 0
M  V30 10354 C 1009.53 5.12685 1.51849 0
M  V30 10355 C 1010.83 5.18024 -0.66697 0
M  V30 10356 H 1012.52 2.92115 -0.656442 0
M  V30 10357 H 1010.07 1.40465 -0.317129 0
M  V30 10358 H 1012.02 3.91033 1.57069 0
M  V30 10359 H 1010.74 2.69748 1.8413 0
M  V30 10360 H 1009.4 3.66553 -0.0588308 0
M  V30 10361 H 1009.05 4.4847 2.2778 0
M  V30 10362 H 1008.75 5.7747 1.08637 0
M  V30 10363 H 1010.27 5.76264 2.01871 0
M  V30 10364 H 1011.69 5.72744 -0.252448 0
M  V30 10365 H 1010.09 5.91343 -1.02146 0
M  V30 10366 H 1011.16 4.59817 -1.53936 0
M  V30 10367 N 1012.5 0.357919 1.53482 0
M  V30 10368 C 1013.41 -0.500273 2.29204 0
M  V30 10369 C 1014.42 -1.09936 1.3487 0
M  V30 10370 O 1015.6 -1.11195 1.67921 0
M  V30 10371 C 1012.67 -1.62828 3.06085 0
M  V30 10372 C 1011.73 -1.05751 4.16071 0
M  V30 10373 C 1010.96 -2.13176 4.89277 0
M  V30 10374 O 1011.18 -3.34153 4.62274 0
M  V30 10375 O 1010.12 -1.76663 5.7539 0
M  V30 10376 H 1013.94 0.115696 3.0348 0
M  V30 10377 H 1011.53 0.122527 1.48897 0
M  V30 10378 H 1013.41 -2.28427 3.54117 0
M  V30 10379 H 1012.08 -2.22979 2.34653 0
M  V30 10380 H 1010.99 -0.365642 3.72309 0
M  V30 10381 H 1012.32 -0.500661 4.89647 0
M  V30 10382 N 1013.98 -1.5736 0.0868897 0
M  V30 10383 C 1014.89 -2.17087 -0.889402 0
M  V30 10384 C 1015.9 -1.13809 -1.31619 0
M  V30 10385 O 1017.08 -1.46143 -1.38579 0
M  V30 10386 C 1014.14 -2.73286 -2.13344 0
M  V30 10387 C 1013.2 -3.91491 -1.76164 0
M  V30 10388 C 1012.44 -4.45 -2.94637 0
M  V30 10389 O 1012.66 -3.97467 -4.09116 0
M  V30 10390 O 1011.59 -5.36133 -2.73579 0
M  V30 10391 H 1015.42 -3.00902 -0.411275 0
M  V30 10392 H 1013.01 -1.4877 -0.137015 0
M  V30 10393 H 1014.89 -3.0924 -2.86266 0
M  V30 10394 H 1013.56 -1.92521 -2.60225 0
M  V30 10395 H 1012.47 -3.60363 -1.00447 0
M  V30 10396 H 1013.8 -4.73593 -1.34053 0
M  V30 10397 N 1015.45 0.186762 -1.56489 0
M  V30 10398 C 1016.87 0.750675 -1.70944 0
M  V30 10399 C 1017.22 1.83483 -0.694858 0
M  V30 10400 O 1016.34 2.159 0.147009 0
M  V30 10401 C 1016.94 1.36843 -3.09934 0
M  V30 10402 C 1015.5 1.87934 -3.26125 0
M  V30 10403 C 1014.64 0.75242 -2.66897 0
M  V30 10404 H 1017.59 -0.0384292 -1.58653 0
M  V30 10405 H 1017.61 2.23795 -3.07727 0
M  V30 10406 H 1017.13 0.579135 -3.83755 0
M  V30 10407 H 1015.23 2.69556 -2.57235 0
M  V30 10408 H 1015.34 2.0354 -4.33715 0
M  V30 10409 H 1013.7 1.16888 -2.26295 0
M  V30 10410 H 1014.49 -0.0247769 -3.43291 0
M  V30 10411 N 1016.93 1.50896 0.454776 0
M  V30 10412 C 1017.87 1.65608 1.57001 0
M  V30 10413 C 1018.84 0.50387 1.54596 0
M  V30 10414 O 1020.03 0.725485 1.7398 0
M  V30 10415 C 1017.15 1.65366 2.95587 0
M  V30 10416 C 1016.2 2.86344 3.16085 0
M  V30 10417 S 1017.03 4.47418 2.9424 0
M  V30 10418 C 1018.19 4.49895 4.35138 0
M  V30 10419 H 1018.42 2.59941 1.44285 0
M  V30 10420 H 1015.96 1.40362 0.643264 0
M  V30 10421 H 1017.91 1.65911 3.75478 0
M  V30 10422 H 1016.57 0.722407 3.0568 0
M  V30 10423 H 1015.77 2.82526 4.17367 0
M  V30 10424 H 1015.37 2.8345 2.43992 0
M  V30 10425 H 1017.66 4.24462 5.28051 0
M  V30 10426 H 1018.6 5.5161 4.43995 0
M  V30 10427 H 1019.01 3.79412 4.17979 0
M  V30 10428 N 1018.41 -0.709066 1.40748 0
M  V30 10429 C 1019.32 -1.85314 1.43861 0
M  V30 10430 C 1020.34 -1.70832 0.330539 0
M  V30 10431 O 1021.51 -1.92983 0.576152 0
M  V30 10432 C 1018.58 -3.21174 1.30568 0
M  V30 10433 C 1017.64 -3.47863 2.51574 0
M  V30 10434 C 1016.87 -4.77241 2.38906 0
M  V30 10435 O 1017.09 -5.52791 1.40636 0
M  V30 10436 O 1016.03 -5.04413 3.28407 0
M  V30 10437 H 1019.85 -1.85644 2.40354 0
M  V30 10438 H 1017.44 -0.860352 1.2214 0
M  V30 10439 H 1019.32 -4.02313 1.25388 0
M  V30 10440 H 1018 -3.21557 0.371841 0
M  V30 10441 H 1016.9 -2.66708 2.62331 0
M  V30 10442 H 1018.24 -3.52283 3.43741 0
M  V30 10443 N 1019.89 -1.26353 -0.941956 0
M  V30 10444 C 1021.17 -1.02601 -1.6653 0
M  V30 10445 C 1021.55 0.44381 -2.06382 0
M  V30 10446 O 1020.89 1.42399 -1.78703 0
M  V30 10447 C 1021.1 -1.97401 -2.87809 0
M  V30 10448 C 1022.45 -2.25967 -3.59478 0
M  V30 10449 O 1023.48 -1.95261 -2.97912 0
M  V30 10450 O 1022.34 -2.78244 -4.70364 0
M  V30 10451 H 1019.43 -0.39007 -0.729228 0
M  V30 10452 H 1021.98 -1.37559 -0.993754 0
M  V30 10453 H 1020.75 -2.9659 -2.55245 0
M  V30 10454 H 1020.37 -1.62918 -3.62689 0
M  V30 10455 N 1021.37 1.14642 -1.08144 0
M  V30 10456 C 1022.28 2.23257 -0.720668 0
M  V30 10457 C 1023.29 1.71866 0.271648 0
M  V30 10458 O 1024.47 2.01064 0.116266 0
M  V30 10459 C 1021.53 3.46447 -0.132542 0
M  V30 10460 C 1020.6 4.12789 -1.17913 0
M  V30 10461 C 1019.83 5.30099 -0.618971 0
M  V30 10462 O 1020.05 5.6762 0.562418 0
M  V30 10463 O 1018.99 5.86154 -1.36774 0
M  V30 10464 H 1022.81 2.56463 -1.62667 0
M  V30 10465 H 1020.4 1.22521 -0.854932 0
M  V30 10466 H 1022.28 4.20959 0.19277 0
M  V30 10467 H 1020.95 3.14971 0.746662 0
M  V30 10468 H 1019.86 3.40163 -1.55693 0
M  V30 10469 H 1021.19 4.48365 -2.03051 0
M  V30 10470 N 1022.85 0.866709 1.31628 0
M  V30 10471 C 1024.07 0.48956 2.01539 0
M  V30 10472 C 1024.5 -0.909556 1.64647 0
M  V30 10473 O 1023.85 -1.59959 0.853391 0
M  V30 10474 C 1023.9 0.650176 3.5469 0
M  V30 10475 O 1023.01 -0.311908 4.11219 0
M  V30 10476 H 1022.35 0.195144 0.634677 0
M  V30 10477 H 1024.88 1.16923 1.679 0
M  V30 10478 H 1024.89 0.542236 4.04381 0
M  V30 10479 H 1023.56 1.67038 3.80882 0
M  V30 10480 H 1022.14 -0.159197 3.7256 0
M  V30 10481 N 1024.32 -1.44642 0.625825 0
M  V30 10482 C 1025.23 -2.34451 -0.0836134 0
M  V30 10483 C 1026.25 -1.5231 -0.841289 0
M  V30 10484 O 1027.43 -1.85056 -0.794754 0
M  V30 10485 C 1024.49 -3.30211 -1.05648 0
M  V30 10486 C 1023.55 -4.28259 -0.298759 0
M  V30 10487 C 1022.78 -5.19444 -1.22528 0
M  V30 10488 O 1023.01 -5.14444 -2.46382 0
M  V30 10489 O 1021.94 -5.97668 -0.71247 0
M  V30 10490 H 1025.77 -2.96555 0.654912 0
M  V30 10491 H 1023.35 -1.44327 0.386029 0
M  V30 10492 H 1025.23 -3.8917 -1.61632 0
M  V30 10493 H 1023.91 -2.70648 -1.77571 0
M  V30 10494 H 1022.82 -3.72863 0.304001 0
M  V30 10495 H 1024.15 -4.90728 0.380345 0
M  V30 10496 N 1025.8 -0.366053 -1.5329 0
M  V30 10497 C 1027.05 0.224614 -2.00445 0
M  V30 10498 C 1027.36 1.49829 -1.2574 0
M  V30 10499 O 1028.57 2.16759 -1.63487 0
M  V30 10500 C 1027.03 0.450818 -3.57065 0
M  V30 10501 C 1026.63 -0.808257 -4.40649 0
M  V30 10502 C 1028.38 0.999116 -4.12575 0
M  V30 10503 C 1026.28 -0.551612 -5.88822 0
M  V30 10504 H 1025.21 0.0877114 -0.748881 0
M  V30 10505 H 1027.87 -0.484866 -1.76978 0
M  V30 10506 H 1026.25 1.22157 -3.76688 0
M  V30 10507 H 1027.42 -1.58184 -4.32798 0
M  V30 10508 H 1025.74 -1.27981 -3.96245 0
M  V30 10509 H 1028.33 1.20646 -5.20911 0
M  V30 10510 H 1028.68 1.96139 -3.67199 0
M  V30 10511 H 1029.21 0.288518 -3.96752 0
M  V30 10512 H 1025.95 -1.48423 -6.38475 0
M  V30 10513 H 1025.47 0.183462 -5.99519 0
M  V30 10514 H 1027.15 -0.177307 -6.46757 0
M  V30 10515 N 1027.28 1.57312 -0.0952337 0
M  V30 10516 C 1028.19 2.17556 0.877877 0
M  V30 10517 C 1029.21 1.14505 1.31014 0
M  V30 10518 O 1030.38 1.46876 1.37802 0
M  V30 10519 C 1027.45 2.74413 2.11892 0
M  V30 10520 C 1026.51 3.92419 1.74085 0
M  V30 10521 C 1025.74 4.46556 2.92273 0
M  V30 10522 O 1025.96 3.99631 4.07002 0
M  V30 10523 O 1024.9 5.37576 2.70732 0
M  V30 10524 H 1028.72 3.01116 0.395312 0
M  V30 10525 H 1026.31 1.48841 0.129123 0
M  V30 10526 H 1028.19 3.10754 2.84622 0
M  V30 10527 H 1026.87 1.93899 2.59201 0
M  V30 10528 H 1025.77 3.6089 0.985346 0
M  V30 10529 H 1027.11 4.74298 1.31539 0
M  V30 10530 N 1028.76 -0.17846 1.56586 0
M  V30 10531 C 1029.67 -1.24115 1.9908 0
M  V30 10532 C 1030.68 -1.48854 0.901031 0
M  V30 10533 O 1031.86 -1.61142 1.2081 0
M  V30 10534 C 1028.92 -2.56187 2.33601 0
M  V30 10535 C 1027.99 -2.39373 3.56369 0
M  V30 10536 C 1027.22 -3.65147 3.89234 0
M  V30 10537 O 1027.44 -4.70024 3.23162 0
M  V30 10538 O 1026.38 -3.59683 4.82609 0
M  V30 10539 H 1030.2 -0.910482 2.89731 0
M  V30 10540 H 1027.79 -0.38477 1.4436 0
M  V30 10541 H 1029.67 -3.34109 2.56806 0
M  V30 10542 H 1028.34 -2.88847 1.46113 0
M  V30 10543 H 1027.25 -1.59506 3.38391 0
M  V30 10544 H 1028.58 -2.1164 4.44375 0
M  V30 10545 N 1030.24 -1.51135 -0.446768 0
M  V30 10546 C 1031.48 -1.63336 -1.19698 0
M  V30 10547 C 1031.81 -0.345099 -1.91414 0
M  V30 10548 O 1031.07 0.670365 -1.8386 0
M  V30 10549 C 1031.36 -2.78034 -2.2457 0
M  V30 10550 C 1031.03 -4.17652 -1.69934 0
M  V30 10551 C 1029.69 -4.55636 -1.54756 0
M  V30 10552 C 1032.04 -5.04813 -1.29665 0
M  V30 10553 C 1029.37 -5.78496 -0.977689 0
M  V30 10554 C 1031.72 -6.28244 -0.741112 0
M  V30 10555 C 1030.39 -6.65009 -0.576156 0
M  V30 10556 H 1029.66 -0.597689 -0.438006 0
M  V30 10557 H 1032.31 -1.85141 -0.48939 0
M  V30 10558 H 1030.61 -2.50413 -3.01331 0
M  V30 10559 H 1032.31 -2.84675 -2.8242 0
M  V30 10560 H 1028.9 -3.87699 -1.82722 0
M  V30 10561 H 1033.08 -4.76081 -1.40216 0
M  V30 10562 H 1028.34 -6.05636 -0.837563 0
M  V30 10563 H 1032.51 -6.95129 -0.42053 0
M  V30 10564 H 1030.14 -7.60085 -0.132443 0
M  V30 10565 N 1031.71 0.701592 -1.41122 0
M  V30 10566 C 1032.94 1.48833 -1.43291 0
M  V30 10567 C 1033.35 1.89168 -0.0348668 0
M  V30 10568 O 1032.69 1.56937 0.9548 0
M  V30 10569 C 1032.76 2.78533 -2.27287 0
M  V30 10570 C 1032.42 2.60438 -3.75528 0
M  V30 10571 C 1033.42 2.26778 -4.67833 0
M  V30 10572 C 1031.1 2.76266 -4.19503 0
M  V30 10573 C 1033.1 2.09176 -6.021 0
M  V30 10574 C 1030.78 2.58281 -5.53836 0
M  V30 10575 C 1031.78 2.24786 -6.4495 0
M  V30 10576 O 1031.47 2.06952 -7.76805 0
M  V30 10577 H 1031.2 0.465401 -0.490284 0
M  V30 10578 H 1033.76 0.871843 -1.85979 0
M  V30 10579 H 1031.99 3.42566 -1.79403 0
M  V30 10580 H 1033.67 3.40312 -2.21229 0
M  V30 10581 H 1034.44 2.1417 -4.35151 0
M  V30 10582 H 1030.32 3.01322 -3.48893 0
M  V30 10583 H 1033.86 1.82955 -6.73181 0
M  V30 10584 H 1029.76 2.70478 -5.86099 0
M  V30 10585 H 1030.53 2.21762 -7.87886 0
M  V30 10586 N 1033.19 1.2685 0.935242 0
M  V30 10587 C 1034.14 1.08746 2.05614 0
M  V30 10588 C 1035.13 0.012681 1.69395 0
M  V30 10589 O 1036.34 0.169822 1.79197 0
M  V30 10590 H 1032.71 0.33485 0.673335 0
M  V30 10591 H 1034.69 2.03725 2.18033 0
M  V30 10592 C 1033.43 0.74346 3.39659 0
M  V30 10593 H 1032.76 1.56236 3.68008 0
M  V30 10594 H 1034.2 0.656607 4.18885 0
M  V30 10595 C 1032.66 -0.551751 3.32351 0
M  V30 10596 O 1033.19 -1.58836 3.68963 0
M  V30 10597 N 1031.39 -0.544583 2.85452 0
M  V30 10598 H 1030.94 0.29939 2.55854 0
M  V30 10599 H 1030.9 -1.41129 2.80945 0
M  V30 10600 N 1034.67 -1.14067 1.0875 0
M  V30 10601 C 1035.92 -1.84819 0.817698 0
M  V30 10602 C 1036.24 -1.83545 -0.658488 0
M  V30 10603 O 1035.51 -1.28633 -1.47751 0
M  V30 10604 H 1034.09 -0.68433 0.299502 0
M  V30 10605 H 1036.75 -1.38208 1.37421 0
M  V30 10606 H 1035.85 -2.89541 1.16501 0
M  V30 10607 N 1036.15 -0.873678 -1.31166 0
M  V30 10608 C 1037.08 -0.348011 -2.30892 0
M  V30 10609 C 1038.06 0.563092 -1.60509 0
M  V30 10610 O 1039.24 0.479332 -1.88192 0
M  V30 10611 C 1036.37 0.448158 -3.44396 0
M  V30 10612 C 1035.33 -0.370179 -4.26396 0
M  V30 10613 C 1034.65 0.551903 -5.31844 0
M  V30 10614 C 1035.95 -1.60624 -4.96988 0
M  V30 10615 H 1037.65 -1.18134 -2.75109 0
M  V30 10616 H 1035.19 -0.569502 -1.3226 0
M  V30 10617 H 1037.15 0.826458 -4.13216 0
M  V30 10618 H 1035.87 1.31503 -2.98956 0
M  V30 10619 H 1034.53 -0.730472 -3.59249 0
M  V30 10620 H 1034.18 1.41616 -4.82653 0
M  V30 10621 H 1033.88 0.00823478 -5.87599 0
M  V30 10622 H 1035.4 0.926965 -6.03523 0
M  V30 10623 H 1036.82 -1.29917 -5.58386 0
M  V30 10624 H 1035.21 -2.08926 -5.62557 0
M  V30 10625 H 1036.28 -2.357 -4.23761 0
M  V30 10626 N 1037.63 1.44308 -0.633487 0
M  V30 10627 C 1038.54 2.34492 0.0711787 0
M  V30 10628 C 1039.55 1.52754 0.8332 0
M  V30 10629 O 1040.73 1.85475 0.784929 0
M  V30 10630 C 1037.79 3.30767 1.03895 0
M  V30 10631 C 1036.85 4.28412 0.276043 0
M  V30 10632 C 1036.09 5.20087 1.19772 0
M  V30 10633 O 1036.31 5.15743 2.4365 0
M  V30 10634 O 1035.24 5.98038 0.680764 0
M  V30 10635 H 1039.07 2.96203 -0.67063 0
M  V30 10636 H 1036.66 1.4412 -0.393678 0
M  V30 10637 H 1038.54 3.90021 1.59566 0
M  V30 10638 H 1037.21 2.71586 1.76133 0
M  V30 10639 H 1036.12 3.72696 -0.32377 0
M  V30 10640 H 1037.45 4.9052 -0.406364 0
M  V30 10641 N 1039.1 0.374177 1.53094 0
M  V30 10642 C 1040.38 -0.269632 1.93733 0
M  V30 10643 C 1040.76 -1.6566 1.30843 0
M  V30 10644 O 1040.11 -2.23598 0.470759 0
M  V30 10645 C 1040.32 -0.311204 3.4761 0
M  V30 10646 C 1041.67 -0.547432 4.21056 0
M  V30 10647 O 1042.69 -0.392053 3.54036 0
M  V30 10648 O 1041.55 -0.850645 5.39839 0
M  V30 10649 H 1038.64 -0.163723 0.810632 0
M  V30 10650 H 1041.19 0.427586 1.64225 0
M  V30 10651 H 1039.96 0.660897 3.85678 0
M  V30 10652 H 1039.59 -1.05397 3.83376 0
M  V30 10653 N 1040.58 -1.57259 0.103575 0
M  V30 10654 C 1041.49 -2.18018 -0.866327 0
M  V30 10655 C 1042.51 -1.15198 -1.30404 0
M  V30 10656 O 1043.68 -1.47605 -1.37021 0
M  V30 10657 C 1040.75 -2.75533 -2.10434 0
M  V30 10658 C 1039.81 -3.93337 -1.72002 0
M  V30 10659 C 1039.04 -4.481 -2.89901 0
M  V30 10660 O 1039.27 -4.01784 -4.04877 0
M  V30 10661 O 1038.2 -5.39004 -2.67877 0
M  V30 10662 H 1042.03 -3.01322 -0.379338 0
M  V30 10663 H 1039.61 -1.48907 -0.121228 0
M  V30 10664 H 1041.49 -3.12259 -2.8297 0
M  V30 10665 H 1040.17 -1.9527 -2.58169 0
M  V30 10666 H 1039.08 -3.61408 -0.966193 0
M  V30 10667 H 1040.41 -4.74989 -1.29022 0
M  V30 10668 N 1042.06 0.170153 -1.56679 0
M  V30 10669 C 1043.47 0.732502 -1.7173 0
M  V30 10670 C 1043.82 1.82736 -0.71428 0
M  V30 10671 O 1042.95 2.16044 0.124102 0
M  V30 10672 C 1043.54 1.33548 -3.11368 0
M  V30 10673 C 1042.1 1.84464 -3.281 0
M  V30 10674 C 1041.25 0.724069 -2.6768 0
M  V30 10675 H 1044.2 -0.0552543 -1.58604 0
M  V30 10676 H 1044.22 2.20519 -3.10083 0
M  V30 10677 H 1043.73 0.5384 -3.84347 0
M  V30 10678 H 1041.83 2.66813 -2.6008 0
M  V30 10679 H 1041.95 1.98928 -4.35849 0
M  V30 10680 H 1040.31 1.14481 -2.27522 0
M  V30 10681 H 1041.09 -0.0611861 -3.43245 0
M  V30 10682 N 1043.54 1.5137 0.438746 0
M  V30 10683 C 1044.82 1.54508 1.19944 0
M  V30 10684 C 1045.2 0.308525 2.08833 0
M  V30 10685 O 1044.54 -0.706461 2.17305 0
M  V30 10686 C 1044.75 2.85833 2.00251 0
M  V30 10687 C 1046.1 3.37729 2.5734 0
M  V30 10688 O 1047.13 2.87374 2.10463 0
M  V30 10689 O 1045.98 4.25589 3.42836 0
M  V30 10690 H 1043.08 0.621132 0.546007 0
M  V30 10691 H 1045.62 1.63682 0.447931 0
M  V30 10692 H 1044.4 3.67291 1.34955 0
M  V30 10693 H 1044.02 2.79815 2.8247 0
M  V30 10694 N 1045.02 -0.694098 1.41492 0
M  V30 10695 C 1046.26 -1.4563 1.41137 0
M  V30 10696 C 1046.6 -1.94189 0.0208428 0
M  V30 10697 O 1045.87 -1.69628 -0.951655 0
M  V30 10698 C 1046.15 -2.66714 2.41941 0
M  V30 10699 C 1046.01 -2.23912 3.90107 0
M  V30 10700 C 1047.33 -3.68913 2.39981 0
M  V30 10701 H 1044.44 -0.52821 0.513968 0
M  V30 10702 H 1047.09 -0.790437 1.72778 0
M  V30 10703 H 1045.24 -3.23525 2.1509 0
M  V30 10704 H 1046.91 -1.72417 4.27867 0
M  V30 10705 H 1045.15 -1.5568 4.04903 0
M  V30 10706 H 1045.82 -3.108 4.56188 0
M  V30 10707 H 1048.3 -3.21779 2.63813 0
M  V30 10708 H 1047.17 -4.51242 3.12524 0
M  V30 10709 H 1047.44 -4.18711 1.41892 0
M  V30 10710 N 1046.49 -1.27344 -0.928501 0
M  V30 10711 C 1047.91 -1.12361 -1.49103 0
M  V30 10712 C 1048.26 0.291667 -1.9402 0
M  V30 10713 O 1047.38 1.18449 -1.81104 0
M  V30 10714 C 1047.98 -2.03358 -2.70981 0
M  V30 10715 C 1046.54 -1.92483 -3.23461 0
M  V30 10716 C 1045.68 -1.95961 -1.962 0
M  V30 10717 H 1048.63 -1.40249 -0.742689 0
M  V30 10718 H 1048.65 -1.58892 -3.45736 0
M  V30 10719 H 1048.17 -3.06356 -2.38259 0
M  V30 10720 H 1046.27 -0.924676 -3.60944 0
M  V30 10721 H 1046.38 -2.78682 -3.89709 0
M  V30 10722 H 1044.74 -1.40175 -2.12657 0
M  V30 10723 H 1045.53 -3.00612 -1.65793 0
M  V30 10724 N 1047.97 1.13488 -1.09353 0
M  V30 10725 C 1048.88 2.2248 -0.744307 0
M  V30 10726 C 1049.9 1.72145 0.253404 0
M  V30 10727 O 1051.07 2.01176 0.0949339 0
M  V30 10728 C 1048.14 3.46286 -0.16928 0
M  V30 10729 C 1047.2 4.11516 -1.22284 0
M  V30 10730 C 1046.43 5.29412 -0.675161 0
M  V30 10731 O 1046.66 5.68185 0.502182 0
M  V30 10732 O 1045.59 5.8467 -1.42983 0
M  V30 10733 H 1049.42 2.54723 -1.65378 0
M  V30 10734 H 1047 1.21607 -0.867879 0
M  V30 10735 H 1048.88 4.2114 0.14811 0
M  V30 10736 H 1047.56 3.15745 0.713214 0
M  V30 10737 H 1046.47 3.38492 -1.59292 0
M  V30 10738 H 1047.8 4.46186 -2.07796 0
M  V30 10739 N 1049.45 0.880621 1.30701 0
M  V30 10740 C 1050.87 0.574015 1.4892 0
M  V30 10741 C 1051.07 -0.889312 1.80813 0
M  V30 10742 O 1050.12 -1.67082 1.89314 0
M  V30 10743 C 1051.44 1.48341 2.61563 0
M  V30 10744 C 1052.98 1.48658 2.75445 0
M  V30 10745 C 1053.46 2.3818 3.91196 0
M  V30 10746 N 1054.95 2.36119 3.985 0
M  V30 10747 C 1055.69 3.02101 4.87363 0
M  V30 10748 N 1055.18 3.77293 5.81052 0
M  V30 10749 N 1056.97 2.91356 4.80696 0
M  V30 10750 H 1049.13 1.82732 1.08271 0
M  V30 10751 H 1051.39 0.781939 0.535981 0
M  V30 10752 H 1051.09 2.52515 2.44804 0
M  V30 10753 H 1050.97 1.18977 3.57944 0
M  V30 10754 H 1053.36 0.452374 2.91612 0
M  V30 10755 H 1053.44 1.8205 1.79698 0
M  V30 10756 H 1053.08 3.41683 3.75786 0
M  V30 10757 H 1053.01 2.02106 4.86272 0
M  V30 10758 H 1055.5 1.81474 3.31475 0
M  V30 10759 H 1055.81 4.24742 6.45612 0
M  V30 10760 H 1054.16 3.81401 5.80998 0
M  V30 10761 H 1057.35 2.32143 4.06481 0
M  V30 10762 H 1057.52 3.43056 5.49742 0
M  V30 10763 N 1050.93 -1.4397 0.641131 0
M  V30 10764 C 1051.89 -2.29149 -0.0482243 0
M  V30 10765 C 1052.89 -1.41572 -0.762495 0
M  V30 10766 O 1054.08 -1.63335 -0.605571 0
M  V30 10767 C 1051.21 -3.23375 -1.07896 0
M  V30 10768 H 1052.41 -2.9159 0.70109 0
M  V30 10769 H 1049.96 -1.51048 0.401754 0
M  V30 10770 H 1050.7 -2.65804 -1.85792 0
M  V30 10771 H 1050.48 -3.87926 -0.570597 0
M  V30 10772 H 1051.97 -3.87337 -1.56075 0
M  V30 10773 N 1052.41 -0.382291 -1.52893 0
M  V30 10774 C 1053.66 0.201734 -2.01091 0
M  V30 10775 C 1053.98 1.47905 -1.2708 0
M  V30 10776 O 1053.25 1.92002 -0.38883 0
M  V30 10777 H 1051.83 0.0775373 -0.742965 0
M  V30 10778 H 1054.49 -0.512369 -1.88045 0
M  V30 10779 H 1053.58 0.416919 -3.09303 0
M  V30 10780 N 1053.89 1.57202 -0.111913 0
M  V30 10781 C 1055.13 1.94565 0.546713 0
M  V30 10782 C 1055.45 0.995644 1.67666 0
M  V30 10783 O 1054.72 0.0506681 1.95834 0
M  V30 10784 H 1053.3 0.718334 0.204951 0
M  V30 10785 H 1055.97 1.94074 -0.179193 0
M  V30 10786 H 1055.06 2.9742 0.945931 0
M  V30 10787 N 1055.36 -0.161842 1.56767 0
M  V30 10788 C 1056.33 -1.18404 1.96247 0
M  V30 10789 C 1057.33 -1.3667 0.84722 0
M  V30 10790 O 1058.52 -1.33915 1.11411 0
M  V30 10791 C 1055.65 -2.54728 2.26553 0
M  V30 10792 H 1056.84 -0.845703 2.87729 0
M  V30 10793 H 1054.39 -0.404645 1.50971 0
M  V30 10794 H 1055.13 -2.93559 1.37816 0
M  V30 10795 H 1054.91 -2.42834 3.07854 0
M  V30 10796 H 1056.4 -3.28378 2.57987 0
M  V30 10797 N 1056.84 -1.516 -0.430713 0
M  V30 10798 C 1058.09 -1.64271 -1.17726 0
M  V30 10799 C 1058.41 -0.364406 -1.91565 0
M  V30 10800 O 1057.68 0.619991 -1.8583 0
M  V30 10801 H 1056.26 -0.605432 -0.437562 0
M  V30 10802 H 1058.92 -1.88557 -0.493166 0
M  V30 10803 H 1058.02 -2.47355 -1.90321 0
M  V30 10804 N 1058.32 0.686584 -1.41858 0
M  V30 10805 C 1059.57 1.44665 -1.41698 0
M  V30 10806 C 1059.89 1.94478 -0.0292442 0
M  V30 10807 O 1059.15 1.70512 0.960421 0
M  V30 10808 C 1059.45 2.66793 -2.37816 0
M  V30 10809 C 1059.11 2.35587 -3.8446 0
M  V30 10810 C 1057.78 2.26788 -4.24406 0
M  V30 10811 C 1060.13 2.10028 -4.77009 0
M  V30 10812 C 1057.46 1.90538 -5.54898 0
M  V30 10813 C 1059.81 1.75285 -6.07831 0
M  V30 10814 C 1058.47 1.64987 -6.46789 0
M  V30 10815 H 1057.74 0.529367 -0.518509 0
M  V30 10816 H 1060.39 0.783938 -1.74719 0
M  V30 10817 H 1058.69 3.38041 -1.9808 0
M  V30 10818 H 1060.39 3.24953 -2.34961 0
M  V30 10819 H 1056.98 2.43334 -3.52826 0
M  V30 10820 H 1061.17 2.15766 -4.46944 0
M  V30 10821 H 1056.42 1.81125 -5.83955 0
M  V30 10822 H 1060.6 1.5453 -6.79039 0
M  V30 10823 H 1058.22 1.36667 -7.47814 0
M  V30 10824 N 1059.8 1.27835 0.921735 0
M  V30 10825 C 1061.05 1.14296 1.66676 0
M  V30 10826 C 1061.37 -0.310493 1.92512 0
M  V30 10827 O 1060.64 -1.21637 1.53562 0
M  V30 10828 H 1059.22 0.419994 0.617749 0
M  V30 10829 H 1061.88 1.60449 1.10644 0
M  V30 10830 H 1060.97 1.67654 2.63246 0
M  V30 10831 N 1061.28 -1.12907 1.09954 0
M  V30 10832 C 1062.5 -1.88138 0.860905 0
M  V30 10833 C 1062.92 -1.79402 -0.588256 0
M  V30 10834 O 1062.28 -1.16442 -1.40526 0
M  V30 10835 C 1062.33 -3.37537 1.29425 0
M  V30 10836 O 1062.05 -3.46056 2.68658 0
M  V30 10837 C 1063.55 -4.29721 1.08879 0
M  V30 10838 H 1060.77 -0.595437 0.309347 0
M  V30 10839 H 1063.31 -1.42894 1.46292 0
M  V30 10840 H 1061.47 -3.80344 0.736009 0
M  V30 10841 H 1061.88 -4.38969 2.87065 0
M  V30 10842 H 1063.36 -5.32854 1.4412 0
M  V30 10843 H 1063.83 -4.39192 0.0270053 0
M  V30 10844 H 1064.44 -3.9269 1.63325 0
M  V30 10845 N 1062.75 -0.88754 -1.30232 0
M  V30 10846 C 1064.03 -0.427249 -1.90877 0
M  V30 10847 C 1064.41 1.0922 -1.80649 0
M  V30 10848 O 1063.76 1.92866 -1.22536 0
M  V30 10849 C 1063.97 -0.928219 -3.3643 0
M  V30 10850 C 1065.32 -0.964706 -4.13496 0
M  V30 10851 O 1066.34 -0.875057 -3.45284 0
M  V30 10852 O 1065.2 -1.09754 -5.35366 0
M  V30 10853 H 1062.29 -0.131107 -0.816541 0
M  V30 10854 H 1064.84 -0.976609 -1.38782 0
M  V30 10855 H 1063.61 -1.97209 -3.37971 0
M  V30 10856 H 1063.23 -0.358169 -3.95983 0
M  V30 10857 N 1064.23 1.43628 -0.648757 0
M  V30 10858 C 1065.48 2.01465 -0.16002 0
M  V30 10859 C 1065.8 1.51413 1.22878 0
M  V30 10860 O 1065.07 0.724919 1.81994 0
M  V30 10861 H 1063.65 0.744885 -0.0561672 0
M  V30 10862 H 1066.31 1.75897 -0.839422 0
M  V30 10863 H 1065.41 3.1178 -0.141213 0
M  V30 10864 N 1065.71 0.390394 1.52688 0
M  V30 10865 C 1066.99 -0.249068 1.94008 0
M  V30 10866 C 1067.37 -1.64263 1.32593 0
M  V30 10867 O 1066.72 -2.23086 0.494448 0
M  V30 10868 C 1066.93 -0.274318 3.4792 0
M  V30 10869 C 1068.27 -0.502743 4.21613 0
M  V30 10870 O 1069.3 -0.35448 3.54432 0
M  V30 10871 O 1068.16 -0.79334 5.40711 0
M  V30 10872 H 1065.25 -0.155116 0.812323 0
M  V30 10873 H 1067.8 0.44498 1.63762 0
M  V30 10874 H 1066.57 0.701766 3.84956 0
M  V30 10875 H 1066.19 -1.01324 3.84473 0
M  V30 10876 N 1067.19 -1.57141 0.120249 0
M  V30 10877 C 1068.47 -1.8677 -0.581075 0
M  V30 10878 C 1068.85 -1.02163 -1.84732 0
M  V30 10879 O 1068.19 -0.100897 -2.28277 0
M  V30 10880 C 1068.4 -3.37923 -0.872316 0
M  V30 10881 C 1069.75 -4.0655 -1.22483 0
M  V30 10882 O 1070.78 -3.42948 -0.962539 0
M  V30 10883 O 1069.63 -5.18821 -1.71717 0
M  V30 10884 H 1066.73 -0.773219 -0.293362 0
M  V30 10885 H 1069.27 -1.68992 0.154846 0
M  V30 10886 H 1068.05 -3.91292 0.0249416 0
M  V30 10887 H 1067.67 -3.61135 -1.66335 0
M  V30 10888 N 1068.67 0.153526 -1.5685 0
M  V30 10889 C 1069.6 1.2147 -1.94365 0
M  V30 10890 C 1070.61 1.39532 -0.838726 0
M  V30 10891 O 1071.8 1.39219 -1.11715 0
M  V30 10892 C 1068.9 2.5806 -2.19677 0
M  V30 10893 C 1068.07 2.61062 -3.50949 0
M  V30 10894 C 1067.13 3.79144 -3.64878 0
M  V30 10895 O 1066.16 3.64319 -4.37333 0
M  V30 10896 N 1067.36 4.96333 -3.01054 0
M  V30 10897 H 1070.13 0.895889 -2.85996 0
M  V30 10898 H 1067.69 0.343147 -1.58222 0
M  V30 10899 H 1069.68 3.35553 -2.26243 0
M  V30 10900 H 1068.25 2.8226 -1.34343 0
M  V30 10901 H 1067.47 1.69533 -3.55882 0
M  V30 10902 H 1068.76 2.60094 -4.37297 0
M  V30 10903 H 1068.15 5.1128 -2.42093 0
M  V30 10904 H 1066.71 5.71625 -3.13191 0
M  V30 10905 N 1070.14 1.51827 0.422667 0
M  V30 10906 C 1071.05 1.77066 1.53899 0
M  V30 10907 C 1072.07 0.655541 1.61179 0
M  V30 10908 O 1073.25 0.939448 1.78147 0
M  V30 10909 C 1070.31 1.90372 2.89758 0
M  V30 10910 C 1069.37 3.14256 2.92475 0
M  V30 10911 C 1068.61 3.26918 4.21853 0
M  V30 10912 O 1068.83 2.45164 5.15025 0
M  V30 10913 O 1067.76 4.19989 4.31153 0
M  V30 10914 H 1071.59 2.71791 1.35511 0
M  V30 10915 H 1069.17 1.36506 0.607165 0
M  V30 10916 H 1071.06 2.01024 3.70361 0
M  V30 10917 H 1069.73 0.988347 3.08242 0
M  V30 10918 H 1068.64 3.09072 2.10773 0
M  V30 10919 H 1069.97 4.0553 2.78937 0
M  V30 10920 N 1071.62 -0.679052 1.4222 0
M  V30 10921 C 1072.59 -1.77448 1.45069 0
M  V30 10922 C 1073.59 -1.57189 0.338882 0
M  V30 10923 O 1074.78 -1.63559 0.599519 0
M  V30 10924 C 1071.91 -3.1603 1.27819 0
M  V30 10925 H 1073.1 -1.7631 2.426 0
M  V30 10926 H 1070.65 -0.888277 1.28605 0
M  V30 10927 H 1071.39 -3.22796 0.311946 0
M  V30 10928 H 1071.17 -3.32138 2.08391 0
M  V30 10929 H 1072.66 -3.9596 1.32686 0
M  V30 10930 N 1073.1 -1.28322 -0.914942 0
M  V30 10931 C 1074.35 -1.14785 -1.65853 0
M  V30 10932 C 1074.66 0.303135 -1.93237 0
M  V30 10933 O 1075.87 0.559606 -2.6567 0
M  V30 10934 C 1074.32 -2.00652 -2.98776 0
M  V30 10935 C 1073.93 -3.50483 -2.79044 0
M  V30 10936 C 1075.68 -1.95798 -3.76648 0
M  V30 10937 C 1073.58 -4.28505 -4.076 0
M  V30 10938 H 1072.51 -0.425987 -0.622135 0
M  V30 10939 H 1075.16 -1.52844 -1.01543 0
M  V30 10940 H 1073.55 -1.55447 -3.64214 0
M  V30 10941 H 1074.72 -4.03636 -2.22293 0
M  V30 10942 H 1073.04 -3.5685 -2.14586 0
M  V30 10943 H 1075.63 -2.51359 -4.71935 0
M  V30 10944 H 1075.98 -0.934455 -4.05677 0
M  V30 10945 H 1076.51 -2.38965 -3.18026 0
M  V30 10946 H 1073.25 -5.31433 -3.83744 0
M  V30 10947 H 1072.77 -3.80125 -4.63966 0
M  V30 10948 H 1074.45 -4.3836 -4.75867 0
M  V30 10949 N 1074.58 1.12322 -1.10551 0
M  V30 10950 C 1075.53 2.20166 -0.750317 0
M  V30 10951 C 1076.52 1.67484 0.254066 0
M  V30 10952 O 1077.73 1.79637 0.114309 0
M  V30 10953 H 1074.1 0.717642 -0.22471 0
M  V30 10954 H 1076.07 2.47378 -1.66873 0
M  V30 10955 C 1074.82 3.47126 -0.199651 0
M  V30 10956 H 1074.14 3.88011 -0.963735 0
M  V30 10957 H 1075.58 4.23999 0.0108033 0
M  V30 10958 C 1074.04 3.19526 1.06792 0
M  V30 10959 O 1074.57 3.39368 2.14923 0
M  V30 10960 N 1072.78 2.73324 0.987032 0
M  V30 10961 H 1072.33 2.57378 0.106997 0
M  V30 10962 H 1072.28 2.55234 1.83584 0
M  V30 10963 N 1076.06 0.894434 1.2976 0
M  V30 10964 C 1076.97 0.372622 2.31622 0
M  V30 10965 C 1077.98 -0.52996 1.65733 0
M  V30 10966 O 1079.16 -0.420807 1.96955 0
M  V30 10967 C 1076.22 -0.396076 3.4443 0
M  V30 10968 C 1075.28 0.537394 4.25923 0
M  V30 10969 C 1074.52 -0.194713 5.33345 0
M  V30 10970 O 1074.74 -1.41943 5.52457 0
M  V30 10971 O 1073.67 0.460055 6.00139 0
M  V30 10972 H 1077.5 1.21756 2.78225 0
M  V30 10973 H 1075.09 0.65858 1.34101 0
M  V30 10974 H 1076.97 -0.830962 4.13126 0
M  V30 10975 H 1075.64 -1.21716 2.99945 0
M  V30 10976 H 1074.55 1.02129 3.5989 0
M  V30 10977 H 1075.88 1.32475 4.74037 0
M  V30 10978 N 1077.53 -1.43282 0.656365 0
M  V30 10979 C 1078.5 -2.29188 -0.0239173 0
M  V30 10980 C 1079.5 -1.42373 -0.747436 0
M  V30 10981 O 1080.69 -1.63969 -0.588213 0
M  V30 10982 C 1077.82 -3.24501 -1.0446 0
M  V30 10983 H 1079.01 -2.9083 0.731978 0
M  V30 10984 H 1076.57 -1.50614 0.417752 0
M  V30 10985 H 1077.3 -2.6776 -1.82962 0
M  V30 10986 H 1077.09 -3.88509 -0.52942 0
M  V30 10987 H 1078.58 -3.88971 -1.51958 0
M  V30 10988 N 1079.01 -0.398486 -1.52479 0
M  V30 10989 C 1080.26 0.182046 -2.00877 0
M  V30 10990 C 1080.58 1.47128 -1.2889 0
M  V30 10991 O 1081.78 2.13242 -1.68048 0
M  V30 10992 C 1080.24 0.374978 -3.57941 0
M  V30 10993 C 1079.85 -0.901544 -4.38835 0
M  V30 10994 C 1081.59 0.911378 -4.14601 0
M  V30 10995 C 1079.5 -0.676385 -5.87519 0
M  V30 10996 H 1078.43 0.0718068 -0.750573 0
M  V30 10997 H 1081.08 -0.522297 -1.7591 0
M  V30 10998 H 1079.46 1.14139 -3.79194 0
M  V30 10999 H 1080.63 -1.67329 -4.29346 0
M  V30 11000 H 1078.95 -1.36357 -3.93441 0
M  V30 11001 H 1081.55 1.09569 -5.23353 0
M  V30 11002 H 1081.89 1.88306 -3.71277 0
M  V30 11003 H 1082.42 0.204296 -3.97275 0
M  V30 11004 H 1079.16 -1.61933 -6.35184 0
M  V30 11005 H 1078.68 0.0562542 -5.99774 0
M  V30 11006 H 1080.36 -0.314454 -6.46235 0
M  V30 11007 N 1080.49 1.57075 -0.12858 0
M  V30 11008 C 1081.72 2.00305 0.537839 0
M  V30 11009 C 1082.14 1.00787 1.58819 0
M  V30 11010 O 1081.5 -0.0190839 1.8129 0
M  V30 11011 C 1081.55 3.42371 1.13201 0
M  V30 11012 O 1080.65 3.45786 2.24735 0
M  V30 11013 H 1079.99 0.650456 0.133428 0
M  V30 11014 H 1082.52 2.03415 -0.219882 0
M  V30 11015 H 1082.53 3.80783 1.4652 0
M  V30 11016 H 1081.21 4.14315 0.362713 0
M  V30 11017 H 1079.78 3.19201 1.92783 0
M  V30 11018 N 1081.97 -0.145205 1.5693 0
M  V30 11019 C 1083.22 -0.858786 1.83719 0
M  V30 11020 C 1083.55 -1.80738 0.710452 0
M  V30 11021 O 1082.82 -1.92389 -0.285791 0
M  V30 11022 C 1083.11 -1.6317 3.2101 0
M  V30 11023 C 1082.96 -0.704472 4.44249 0
M  V30 11024 C 1084.28 -2.59377 3.55544 0
M  V30 11025 H 1081.4 -0.310757 0.66828 0
M  V30 11026 H 1084.04 -0.123918 1.89595 0
M  V30 11027 H 1082.19 -2.25816 3.16132 0
M  V30 11028 H 1083.86 -0.08887 4.61214 0
M  V30 11029 H 1082.1 -0.0141693 4.33798 0
M  V30 11030 H 1082.78 -1.28135 5.36922 0
M  V30 11031 H 1085.25 -2.06848 3.61044 0
M  V30 11032 H 1084.13 -3.10506 4.52634 0
M  V30 11033 H 1084.39 -3.40819 2.81594 0
M  V30 11034 N 1083.45 -1.52049 -0.414609 0
M  V30 11035 C 1084.39 -1.74998 -1.5048 0
M  V30 11036 C 1085.36 -0.592251 -1.55182 0
M  V30 11037 O 1086.55 -0.829203 -1.7184 0
M  V30 11038 C 1083.69 -1.90157 -2.87983 0
M  V30 11039 C 1082.8 -3.17789 -2.92633 0
M  V30 11040 C 1081.94 -3.23411 -4.21401 0
M  V30 11041 C 1080.98 -4.45267 -4.20004 0
M  V30 11042 N 1080.11 -4.48312 -5.40334 0
M  V30 11043 H 1084.95 -2.68046 -1.30212 0
M  V30 11044 H 1082.49 -1.32824 -0.632154 0
M  V30 11045 H 1084.45 -1.96929 -3.67797 0
M  V30 11046 H 1083.08 -1.00496 -3.06758 0
M  V30 11047 H 1082.13 -3.20216 -2.05343 0
M  V30 11048 H 1083.44 -4.07634 -2.87465 0
M  V30 11049 H 1082.6 -3.29224 -5.09604 0
M  V30 11050 H 1081.34 -2.31495 -4.29257 0
M  V30 11051 H 1080.34 -4.39606 -3.30192 0
M  V30 11052 H 1081.57 -5.38472 -4.13793 0
M  V30 11053 H 1079.51 -3.59277 -5.48868 0
M  V30 11054 H 1079.43 -5.31994 -5.37139 0
M  V30 11055 H 1080.7 -4.58347 -6.30506 0
M  V30 11056 N 1084.93 0.6715 -1.42579 0
M  V30 11057 C 1085.86 1.79703 -1.42266 0
M  V30 11058 C 1086.87 1.59599 -0.321268 0
M  V30 11059 O 1088.06 1.68657 -0.584564 0
M  V30 11060 C 1085.16 3.16859 -1.20224 0
M  V30 11061 C 1084.33 3.63783 -2.42859 0
M  V30 11062 C 1083.39 4.79683 -2.16312 0
M  V30 11063 O 1082.42 4.90058 -2.89537 0
M  V30 11064 N 1083.62 5.68622 -1.16831 0
M  V30 11065 H 1086.38 1.80455 -2.39282 0
M  V30 11066 H 1083.95 0.854708 -1.375 0
M  V30 11067 H 1085.94 3.92054 -1.00376 0
M  V30 11068 H 1084.51 3.10987 -0.317188 0
M  V30 11069 H 1083.73 2.7923 -2.78252 0
M  V30 11070 H 1085.02 3.91877 -3.24514 0
M  V30 11071 H 1084.41 5.62894 -0.562746 0
M  V30 11072 H 1082.97 6.43615 -1.0297 0
M  V30 11073 N 1086.4 1.28806 0.908124 0
M  V30 11074 C 1087.31 1.15079 2.04436 0
M  V30 11075 C 1088.33 0.076012 1.73834 0
M  V30 11076 O 1089.51 0.286421 1.99353 0
M  V30 11077 C 1086.57 0.819733 3.3687 0
M  V30 11078 C 1085.63 1.97746 3.81045 0
M  V30 11079 C 1084.86 1.66211 5.07158 0
M  V30 11080 O 1085.09 0.579092 5.67453 0
M  V30 11081 O 1084.02 2.5075 5.47182 0
M  V30 11082 H 1087.85 2.10477 2.18937 0
M  V30 11083 H 1085.43 1.08177 1.03044 0
M  V30 11084 H 1087.31 0.649304 4.16368 0
M  V30 11085 H 1085.99 -0.10454 3.23531 0
M  V30 11086 H 1084.9 2.20308 3.02349 0
M  V30 11087 H 1086.23 2.88264 3.98955 0
M  V30 11088 N 1087.88 -1.11734 1.11145 0
M  V30 11089 C 1089.13 -1.83677 0.859684 0
M  V30 11090 C 1089.46 -1.84265 -0.613182 0
M  V30 11091 O 1088.74 -1.29351 -1.45254 0
M  V30 11092 C 1089.02 -3.31003 1.41805 0
M  V30 11093 C 1088.87 -3.38827 2.95831 0
M  V30 11094 C 1090.19 -4.26984 1.06645 0
M  V30 11095 H 1087.31 -0.666879 0.313754 0
M  V30 11096 H 1089.95 -1.31038 1.37583 0
M  V30 11097 H 1088.1 -3.75961 0.979054 0
M  V30 11098 H 1089.77 -3.02451 3.48312 0
M  V30 11099 H 1088.02 -2.79143 3.32056 0
M  V30 11100 H 1088.69 -4.42508 3.29986 0
M  V30 11101 H 1091.16 -3.9019 1.44537 0
M  V30 11102 H 1090.04 -5.2846 1.48394 0
M  V30 11103 H 1090.3 -4.42094 -0.0231866 0
M  V30 11104 N 1089.36 -0.901303 -1.29284 0
M  V30 11105 C 1090.59 -0.543511 -1.99634 0
M  V30 11106 C 1091 0.872154 -1.67448 0
M  V30 11107 O 1090.36 1.57591 -0.920406 0
M  V30 11108 C 1090.41 -0.728148 -3.54091 0
M  V30 11109 O 1090.13 -2.08809 -3.85137 0
M  V30 11110 C 1091.63 -0.375519 -4.41707 0
M  V30 11111 H 1088.85 -0.208405 -0.637815 0
M  V30 11112 H 1091.4 -1.21109 -1.64781 0
M  V30 11113 H 1089.55 -0.107728 -3.8725 0
M  V30 11114 H 1089.97 -2.11863 -4.79807 0
M  V30 11115 H 1091.44 -0.555538 -5.49197 0
M  V30 11116 H 1091.92 0.687532 -4.33785 0
M  V30 11117 H 1092.52 -0.972949 -4.14021 0
M  V30 11118 N 1090.84 1.42931 -0.663954 0
M  V30 11119 C 1092.11 1.95284 -0.111174 0
M  V30 11120 C 1092.49 1.60484 1.37142 0
M  V30 11121 O 1091.84 0.895425 2.10225 0
M  V30 11122 C 1092.05 3.47046 -0.368789 0
M  V30 11123 C 1093.4 4.23679 -0.279473 0
M  V30 11124 O 1094.42 3.54918 -0.301937 0
M  V30 11125 O 1093.28 5.46087 -0.21236 0
M  V30 11126 H 1090.38 0.826993 0.00341718 0
M  V30 11127 H 1092.92 1.52816 -0.737935 0
M  V30 11128 H 1091.7 3.65541 -1.39626 0
M  V30 11129 H 1091.32 3.96537 0.290514 0
M  V30 11130 N 1092.32 0.406567 1.52266 0
M  V30 11131 C 1093.25 -0.464709 2.23418 0
M  V30 11132 C 1094.23 -1.05008 1.24146 0
M  V30 11133 O 1095.41 -1.09843 1.53188 0
M  V30 11134 C 1092.54 -1.64481 2.96081 0
M  V30 11135 C 1091.58 -1.18307 4.09763 0
M  V30 11136 S 1092.42 -0.150326 5.35289 0
M  V30 11137 C 1093.57 -1.3358 6.11479 0
M  V30 11138 H 1093.81 0.139455 2.96973 0
M  V30 11139 H 1091.34 0.19085 1.53216 0
M  V30 11140 H 1093.3 -2.3215 3.38551 0
M  V30 11141 H 1091.96 -2.22031 2.22174 0
M  V30 11142 H 1091.15 -2.06466 4.59769 0
M  V30 11143 H 1090.75 -0.58505 3.69396 0
M  V30 11144 H 1093.04 -2.25986 6.38699 0
M  V30 11145 H 1093.99 -0.876328 7.02656 0
M  V30 11146 H 1094.4 -1.56044 5.42504 0
M  V30 11147 N 1093.79 -1.57004 0.136909 0
M  V30 11148 C 1094.74 -2.17524 -0.823784 0
M  V30 11149 C 1095.74 -1.1294 -1.26258 0
M  V30 11150 O 1096.94 -1.3121 -1.23223 0
M  V30 11151 H 1093.32 -0.696381 -0.283827 0
M  V30 11152 H 1095.29 -2.96997 -0.289052 0
M  V30 11153 C 1094.04 -2.80331 -2.05693 0
M  V30 11154 H 1093.36 -3.60515 -1.72825 0
M  V30 11155 H 1094.8 -3.26192 -2.70878 0
M  V30 11156 C 1093.26 -1.78322 -2.85837 0
M  V30 11157 O 1093.79 -1.2475 -3.81838 0
M  V30 11158 N 1092 -1.47854 -2.50175 0
M  V30 11159 H 1091.54 -1.9161 -1.72173 0
M  V30 11160 H 1091.5 -0.798464 -3.04092 0
M  V30 11161 N 1095.27 0.136881 -1.57004 0
M  V30 11162 C 1096.5 0.861186 -1.87796 0
M  V30 11163 C 1096.91 1.74788 -0.724272 0
M  V30 11164 O 1096.25 1.80984 0.31471 0
M  V30 11165 C 1096.32 1.76115 -3.13407 0
M  V30 11166 C 1095.98 1.05059 -4.4476 0
M  V30 11167 C 1096.98 0.399736 -5.18361 0
M  V30 11168 C 1094.66 1.03709 -4.91477 0
M  V30 11169 C 1096.66 -0.255127 -6.36889 0
M  V30 11170 C 1094.34 0.378414 -6.09927 0
M  V30 11171 C 1095.34 -0.266555 -6.8248 0
M  V30 11172 O 1095.03 -0.914757 -7.98679 0
M  V30 11173 H 1094.76 0.253855 -0.626525 0
M  V30 11174 H 1097.31 0.131291 -2.0498 0
M  V30 11175 H 1095.54 2.53224 -2.92257 0
M  V30 11176 H 1097.23 2.3583 -3.30362 0
M  V30 11177 H 1098 0.401909 -4.83332 0
M  V30 11178 H 1093.88 1.52852 -4.34922 0
M  V30 11179 H 1097.42 -0.759135 -6.93457 0
M  V30 11180 H 1093.32 0.373942 -6.44416 0
M  V30 11181 H 1094.09 -0.817437 -8.14408 0
M  V30 11182 N 1096.75 1.52266 0.40654 0
M  V30 11183 C 1098.16 1.58587 0.985241 0
M  V30 11184 C 1098.51 0.427955 1.91476 0
M  V30 11185 O 1097.64 -0.451341 2.11641 0
M  V30 11186 C 1098.23 2.87426 1.79365 0
M  V30 11187 C 1096.79 2.96217 2.32233 0
M  V30 11188 C 1095.94 2.53548 1.12288 0
M  V30 11189 H 1098.89 1.57598 0.186685 0
M  V30 11190 H 1098.91 2.72925 2.65127 0
M  V30 11191 H 1098.42 3.71682 1.11687 0
M  V30 11192 H 1096.52 2.1646 3.03275 0
M  V30 11193 H 1096.64 4.00511 2.62922 0
M  V30 11194 H 1095 2.07457 1.47763 0
M  V30 11195 H 1095.78 3.40181 0.461731 0
M  V30 11196 N 1098.23 -0.663929 1.42933 0
M  V30 11197 C 1099.45 -1.45691 1.47611 0
M  V30 11198 C 1099.88 -1.87875 0.0920305 0
M  V30 11199 O 1099.24 -1.56696 -0.91192 0
M  V30 11200 C 1099.28 -2.67517 2.41799 0
M  V30 11201 O 1098.39 -3.66187 1.89686 0
M  V30 11202 H 1097.73 -0.437257 0.499702 0
M  V30 11203 H 1100.26 -0.813397 1.87737 0
M  V30 11204 H 1100.27 -3.1546 2.58745 0
M  V30 11205 H 1098.94 -2.36155 3.4235 0
M  V30 11206 H 1097.52 -3.25274 1.82349 0
M  V30 11207 N 1099.71 -1.29285 -0.901281 0
M  V30 11208 C 1100.65 -1.14159 -2.02659 0
M  V30 11209 C 1101.65 -0.0575887 -1.69302 0
M  V30 11210 O 1102.85 -0.217273 -1.78684 0
M  V30 11211 H 1099.23 -0.352584 -0.66422 0
M  V30 11212 H 1101.2 -2.09434 -2.12555 0
M  V30 11213 C 1099.95 -0.833253 -3.37568 0
M  V30 11214 H 1099.27 -1.65939 -3.63737 0
M  V30 11215 H 1100.71 -0.767436 -4.16997 0
M  V30 11216 C 1099.17 0.46344 -3.33697 0
M  V30 11217 O 1099.7 1.48998 -3.73045 0
M  V30 11218 N 1097.91 0.468709 -2.86795 0
M  V30 11219 H 1097.45 -0.36712 -2.54971 0
M  V30 11220 H 1097.41 1.3363 -2.84588 0
M  V30 11221 N 1101.18 1.11143 -1.11736 0
M  V30 11222 C 1102.13 2.17274 -0.778513 0
M  V30 11223 C 1103.1 1.64186 0.251405 0
M  V30 11224 O 1104.29 1.90373 0.127629 0
M  V30 11225 C 1101.43 3.44324 -0.231246 0
M  V30 11226 C 1100.54 4.114 -1.31809 0
M  V30 11227 C 1099.67 5.26146 -0.73104 0
M  V30 11228 C 1098.71 5.85112 -1.79752 0
M  V30 11229 N 1097.85 6.91247 -1.22973 0
M  V30 11230 H 1102.69 2.45603 -1.68769 0
M  V30 11231 H 1100.23 1.20565 -0.842759 0
M  V30 11232 H 1102.19 4.1707 0.104045 0
M  V30 11233 H 1100.82 3.16369 0.641119 0
M  V30 11234 H 1099.87 3.36697 -1.77029 0
M  V30 11235 H 1101.18 4.51278 -2.12485 0
M  V30 11236 H 1100.33 6.05713 -0.345987 0
M  V30 11237 H 1099.07 4.87583 0.107 0
M  V30 11238 H 1098.08 5.0422 -2.19185 0
M  V30 11239 H 1099.3 6.25741 -2.63865 0
M  V30 11240 H 1097.25 6.54696 -0.41339 0
M  V30 11241 H 1097.17 7.29796 -1.97316 0
M  V30 11242 H 1098.43 7.74611 -0.87167 0
M  V30 11243 N 1102.66 0.908147 1.28804 0
M  V30 11244 C 1103.89 0.553431 1.9988 0
M  V30 11245 C 1104.31 -0.856714 1.67458 0
M  V30 11246 O 1103.67 -1.57163 0.903849 0
M  V30 11247 C 1103.72 0.762688 3.52442 0
M  V30 11248 O 1102.82 -0.180924 4.12003 0
M  V30 11249 H 1102.16 0.215237 0.628147 0
M  V30 11250 H 1104.69 1.22205 1.64095 0
M  V30 11251 H 1104.7 0.670612 4.02451 0
M  V30 11252 H 1103.38 1.79071 3.75375 0
M  V30 11253 H 1101.96 -0.0405897 3.72878 0
M  V30 11254 O 1104.18 -1.39676 0.810732 0
M  V30 11255 H 1104.87 -1.89765 0.38845 0
M  V30 END ATOM
M  V30 BEGIN BOND
M  V30 END BOND
M  V30 END CTAB
M  END
$$$$
