drugbank_target|P0A6T8 GTP cyclohydrolase 1 (DB04137)
 OpenBabel12092120003D

  0  0  0     0  0            999 V3000
M  V30 BEGIN CTAB
M  V30 COUNTS 3518 3546 0 0 0
M  V30 BEGIN ATOM
M  V30 1 H -0.908 1.98254 -0.117106 0
M  V30 2 N 0 1.576 0 0
M  V30 3 C 0.933 2.03868 1.02534 0
M  V30 4 C 1.911 0.928543 1.3348 0
M  V30 5 O 3.095 1.19667 1.45644 0
M  V30 6 C 0.222 2.43627 2.35294 0
M  V30 7 C -0.732 3.65373 2.2001 0
M  V30 8 S 0.101 5.13292 1.52614 0
M  V30 9 C 1.257 5.56322 2.86805 0
M  V30 10 H 1.49 2.90518 0.631377 0
M  V30 11 H -0.977 1.52953 0.210867 0
M  V30 12 H 0.981 2.67203 3.11629 0
M  V30 13 H -0.358 1.57376 2.7183 0
M  V30 14 H -1.165 3.90944 3.18086 0
M  V30 15 H -1.563 3.418 1.51819 0
M  V30 16 H 0.729 5.58782 3.83104 0
M  V30 17 H 1.672 6.56266 2.65933 0
M  V30 18 H 2.08 4.83886 2.90714 0
M  V30 19 N 1.4781 -0.272755 1.55222 0
M  V30 20 C 2.8891 -0.84378 1.66545 0
M  V30 21 C 3.2401 -1.87035 0.592641 0
M  V30 22 O 2.3651 -2.14761 -0.265818 0
M  V30 23 C 2.9601 -1.53723 3.01918 0
M  V30 24 C 1.5191 -2.05628 3.15268 0
M  V30 25 C 0.6661 -0.898424 2.62343 0
M  V30 26 H 3.6171 -0.0490998 1.58624 0
M  V30 27 H 3.6381 -2.40421 2.94921 0
M  V30 28 H 3.1501 -0.78983 3.79978 0
M  V30 29 H 1.2511 -2.83329 2.41983 0
M  V30 30 H 1.3641 -2.27142 4.21833 0
M  V30 31 H -0.2719 -1.29186 2.19506 0
M  V30 32 H 0.5111 -0.164528 3.42906 0
M  V30 33 N 2.9562 -1.48159 -0.537278 0
M  V30 34 C 4.1812 -1.59707 -1.32319 0
M  V30 35 C 4.6062 -0.254859 -1.86365 0
M  V30 36 O 3.9642 0.772378 -1.64024 0
M  V30 37 C 4.0122 -2.6412 -2.45505 0
M  V30 38 O 3.1162 -2.20774 -3.48328 0
M  V30 39 H 2.4572 -0.535791 -0.392204 0
M  V30 40 H 4.9872 -1.94092 -0.647268 0
M  V30 41 H 4.9972 -2.85166 -2.91795 0
M  V30 42 H 3.6722 -3.61567 -2.05528 0
M  V30 43 H 2.2492 -2.09911 -3.08207 0
M  V30 44 N 4.4343 0.785586 -1.36625 0
M  V30 45 C 5.3643 1.91259 -1.33949 0
M  V30 46 C 6.3453 1.68795 -0.210325 0
M  V30 47 O 7.5303 1.89854 -0.408561 0
M  V30 48 C 4.6603 3.28339 -1.13186 0
M  V30 49 C 3.6143 3.65335 -2.22967 0
M  V30 50 C 2.9403 5.00806 -1.87342 0
M  V30 51 C 4.2403 3.7352 -3.65075 0
M  V30 52 H 5.9343 1.93755 -2.28253 0
M  V30 53 H 3.4803 0.930788 -1.09874 0
M  V30 54 H 5.4333 4.06804 -1.09948 0
M  V30 55 H 4.1573 3.2624 -0.153332 0
M  V30 56 H 2.8163 2.89169 -2.25337 0
M  V30 57 H 2.4643 4.95233 -0.880545 0
M  V30 58 H 2.1643 5.26529 -2.60846 0
M  V30 59 H 3.6883 5.81687 -1.85667 0
M  V30 60 H 5.1023 4.42168 -3.64911 0
M  V30 61 H 3.4993 4.10731 -4.37516 0
M  V30 62 H 4.5693 2.74527 -3.99703 0
M  V30 63 N 5.9124 1.20967 1.01018 0
M  V30 64 C 7.1374 1.0503 1.78839 0
M  V30 65 C 7.5624 -0.395752 1.8389 0
M  V30 66 O 6.9204 -1.28529 1.27867 0
M  V30 67 C 6.9684 1.64602 3.2084 0
M  V30 68 O 6.0724 0.887988 4.02726 0
M  V30 69 H 5.4134 0.369987 0.551367 0
M  V30 70 H 7.9434 1.60399 1.27018 0
M  V30 71 H 7.9534 1.68607 3.71532 0
M  V30 72 H 6.6284 2.69841 3.16479 0
M  V30 73 H 5.2054 0.922648 3.61305 0
M  V30 74 N 7.3905 -1.2043 1.01659 0
M  V30 75 C 8.3375 -2.23215 0.586822 0
M  V30 76 C 9.3075 -1.61382 -0.393085 0
M  V30 77 O 10.4925 -1.88544 -0.292525 0
M  V30 78 C 7.6325 -3.45032 -0.0687464 0
M  V30 79 C 6.7455 -4.21296 0.955724 0
M  V30 80 C 5.8805 -5.30507 0.271208 0
M  V30 81 C 4.9195 -5.98515 1.28244 0
M  V30 82 N 4.0565 -6.99316 0.62459 0
M  V30 83 H 8.8965 -2.59336 1.46796 0
M  V30 84 H 6.4335 -1.27431 0.734836 0
M  V30 85 H 8.3915 -4.1459 -0.465965 0
M  V30 86 H 7.0215 -3.09604 -0.913529 0
M  V30 87 H 6.0735 -3.50803 1.4711 0
M  V30 88 H 7.3855 -4.6803 1.72479 0
M  V30 89 H 6.5395 -6.06428 -0.18151 0
M  V30 90 H 5.2785 -4.8481 -0.530163 0
M  V30 91 H 4.2835 -5.21355 1.74554 0
M  V30 92 H 5.5085 -6.46298 2.08509 0
M  V30 93 H 3.4545 -6.55812 -0.156914 0
M  V30 94 H 3.3715 -7.44178 1.33172 0
M  V30 95 H 4.6395 -7.79255 0.195462 0
M  V30 96 N 8.8686 -0.792821 -1.36206 0
M  V30 97 C 9.7786 -0.194808 -2.3379 0
M  V30 98 C 10.7946 0.654869 -1.61206 0
M  V30 99 O 11.9706 0.569856 -1.9317 0
M  V30 100 C 9.0356 0.657721 -3.40404 0
M  V30 101 C 8.0966 -0.210849 -4.28782 0
M  V30 102 C 7.3296 0.601086 -5.30304 0
M  V30 103 O 7.5526 1.83682 -5.40016 0
M  V30 104 O 6.4866 -0.000808277 -6.019 0
M  V30 105 H 10.3126 -1.00172 -2.86704 0
M  V30 106 H 7.8976 -0.554341 -1.38735 0
M  V30 107 H 9.7796 1.14375 -4.05581 0
M  V30 108 H 8.4546 1.44247 -2.89784 0
M  V30 109 H 7.3616 -0.743714 -3.66633 0
M  V30 110 H 8.6946 -0.959195 -4.82763 0
M  V30 111 N 10.3467 1.47872 -0.545128 0
M  V30 112 C 11.3097 2.28337 0.198717 0
M  V30 113 C 12.3097 1.36255 0.853888 0
M  V30 114 O 13.4997 1.59003 0.711606 0
M  V30 115 C 10.6317 3.15585 1.28915 0
M  V30 116 H 11.8247 2.95567 -0.507941 0
M  V30 117 H 9.3777 1.53362 -0.301616 0
M  V30 118 H 10.1127 2.53019 2.02859 0
M  V30 119 H 9.8977 3.83337 0.824309 0
M  V30 120 H 11.3877 3.76243 1.81194 0
M  V30 121 N 11.8248 0.280983 1.55075 0
M  V30 122 C 12.7878 -0.590896 2.21452 0
M  V30 123 C 13.7878 -1.07682 1.19421 0
M  V30 124 O 14.9778 -0.97605 1.44288 0
M  V30 125 C 12.1098 -1.81587 2.88511 0
M  V30 126 H 13.3028 -0.0112554 2.99898 0
M  V30 127 H 10.8558 0.0316438 1.56268 0
M  V30 128 H 11.5908 -2.43587 2.14093 0
M  V30 129 H 11.3758 -1.4753 3.63287 0
M  V30 130 H 12.8658 -2.43575 3.39206 0
M  V30 131 N 13.3029 -1.57598 0.00835791 0
M  V30 132 C 14.2329 -2.1198 -0.979113 0
M  V30 133 C 15.2139 -1.03091 -1.35301 0
M  V30 134 O 16.3989 -1.30818 -1.43528 0
M  V30 135 C 13.5289 -2.62995 -2.26828 0
M  V30 136 C 12.4829 -3.76485 -2.03576 0
M  V30 137 C 11.8089 -4.13846 -3.38579 0
M  V30 138 C 13.1089 -5.0342 -1.39161 0
M  V30 139 H 14.8029 -2.94738 -0.526281 0
M  V30 140 H 12.3489 -1.41783 -0.251704 0
M  V30 141 H 14.3019 -2.99669 -2.96271 0
M  V30 142 H 13.0259 -1.7737 -2.7424 0
M  V30 143 H 11.6849 -3.40217 -1.36557 0
M  V30 144 H 11.3329 -3.25232 -3.83709 0
M  V30 145 H 11.0329 -4.90312 -3.23834 0
M  V30 146 H 12.5569 -4.53086 -4.09323 0
M  V30 147 H 13.9709 -5.37812 -1.98573 0
M  V30 148 H 12.3679 -5.84746 -1.34878 0
M  V30 149 H 13.4379 -4.83548 -0.361868 0
M  V30 150 N 14.781 0.264519 -1.55364 0
M  V30 151 C 16.027 0.99646 -1.76631 0
M  V30 152 C 16.36 1.85632 -0.570478 0
M  V30 153 O 15.635 1.89647 0.43175 0
M  V30 154 C 15.918 1.87187 -3.07625 0
M  V30 155 C 15.771 1.04138 -4.37579 0
M  V30 156 C 17.09 2.85749 -3.34717 0
M  V30 157 H 14.209 0.360841 -0.642622 0
M  V30 158 H 16.851 0.268218 -1.88097 0
M  V30 159 H 15.001 2.49279 -2.9798 0
M  V30 160 H 16.673 0.440517 -4.59192 0
M  V30 161 H 14.916 0.345115 -4.32425 0
M  V30 162 H 15.587 1.68729 -5.2558 0
M  V30 163 H 18.063 2.33793 -3.4421 0
M  V30 164 H 16.939 3.44136 -4.27623 0
M  V30 165 H 17.2 3.61311 -2.54768 0
M  V30 166 N 16.2591 1.48442 0.529413 0
M  V30 167 C 17.2091 1.59407 1.63014 0
M  V30 168 C 18.1931 0.451166 1.54445 0
M  V30 169 O 19.3851 0.702635 1.62456 0
M  V30 170 C 16.5141 1.63746 3.01732 0
M  V30 171 C 15.6001 2.83518 3.15402 0
M  V30 172 N 15.9911 4.07929 2.99045 0
M  V30 173 C 14.2891 2.80862 3.46457 0
M  V30 174 C 14.9901 4.8829 3.16146 0
M  V30 175 N 13.9661 4.21117 3.43746 0
M  V30 176 H 17.7681 2.53343 1.48978 0
M  V30 177 H 15.2821 1.44821 0.734885 0
M  V30 178 H 17.2791 1.69695 3.80801 0
M  V30 179 H 15.9391 0.709264 3.16859 0
M  V30 180 H 16.9501 4.38357 2.75796 0
M  V30 181 H 13.6271 1.97301 3.67938 0
M  V30 182 H 15.0171 5.97028 3.08232 0
M  V30 183 N 17.7372 -0.778329 1.37039 0
M  V30 184 C 18.6472 -1.92253 1.34446 0
M  V30 185 C 19.6632 -1.72267 0.244991 0
M  V30 186 O 20.8392 -1.95615 0.479258 0
M  V30 187 C 17.9042 -3.27282 1.144 0
M  V30 188 C 16.9652 -3.59969 2.33925 0
M  V30 189 C 16.1982 -4.88555 2.14825 0
M  V30 190 O 16.4212 -5.59113 1.12912 0
M  V30 191 O 15.3552 -5.20153 3.02861 0
M  V30 192 H 19.1812 -1.97392 2.30803 0
M  V30 193 H 16.7662 -0.920154 1.17701 0
M  V30 194 H 18.6482 -4.08062 1.05182 0
M  V30 195 H 17.3232 -3.23011 0.211124 0
M  V30 196 H 16.2302 -2.7945 2.48714 0
M  V30 197 H 17.5632 -3.68976 3.25757 0
M  V30 198 N 19.2153 -1.21501 -1.00376 0
M  V30 199 C 20.1783 -0.976927 -2.07337 0
M  V30 200 C 21.1783 0.0525322 -1.60714 0
M  V30 201 O 22.3683 -0.184869 -1.73216 0
M  V30 202 C 19.5003 -0.473423 -3.37597 0
M  V30 203 H 20.6933 -1.92587 -2.29892 0
M  V30 204 H 18.2463 -1.03217 -1.17371 0
M  V30 205 H 18.9813 0.480379 -3.20722 0
M  V30 206 H 18.7663 -1.216 -3.72768 0
M  V30 207 H 20.2563 -0.32675 -4.1632 0
M  V30 208 N 20.6934 1.19889 -1.02296 0
M  V30 209 C 21.6234 2.25141 -0.619174 0
M  V30 210 C 22.6044 1.66051 0.368915 0
M  V30 211 O 23.7894 1.92546 0.252941 0
M  V30 212 C 20.9194 3.4728 0.0368783 0
M  V30 213 C 19.8734 4.19005 -0.872865 0
M  V30 214 C 19.1994 5.34637 -0.0822402 0
M  V30 215 C 20.4994 4.74452 -2.18387 0
M  V30 216 H 22.1934 2.59171 -1.49903 0
M  V30 217 H 19.7394 1.24579 -0.722222 0
M  V30 218 H 21.6924 4.20098 0.330958 0
M  V30 219 H 20.4164 3.12433 0.95149 0
M  V30 220 H 19.0754 3.48061 -1.15105 0
M  V30 221 H 18.7234 4.96034 0.83422 0
M  V30 222 H 18.4234 5.83557 -0.688149 0
M  V30 223 H 19.9474 6.10255 0.205238 0
M  V30 224 H 21.3614 5.39055 -1.95172 0
M  V30 225 H 19.7584 5.33834 -2.74119 0
M  V30 226 H 20.8284 3.92844 -2.84257 0
M  V30 227 N 22.1715 0.800033 1.35784 0
M  V30 228 C 23.4175 0.377901 1.99248 0
M  V30 229 C 23.7505 -1.05052 1.63333 0
M  V30 230 O 23.0255 -1.72768 0.893385 0
M  V30 231 C 23.3085 0.553922 3.55814 0
M  V30 232 C 23.1615 2.0268 4.01548 0
M  V30 233 C 24.4805 -0.0244802 4.40093 0
M  V30 234 H 21.5995 0.138782 0.723815 0
M  V30 235 H 24.2415 1.00835 1.61035 0
M  V30 236 H 22.3915 0.0172398 3.88496 0
M  V30 237 H 24.0635 2.62536 3.79305 0
M  V30 238 H 22.3065 2.5256 3.52698 0
M  V30 239 H 22.9775 2.10087 5.10458 0
M  V30 240 H 25.4535 0.433775 4.13833 0
M  V30 241 H 24.3295 0.128637 5.48749 0
M  V30 242 H 24.5905 -1.11758 4.27741 0
M  V30 243 N 23.6496 -1.47581 0.552962 0
M  V30 244 C 24.6126 -2.28439 -0.186605 0
M  V30 245 C 25.6126 -1.36706 -0.84665 0
M  V30 246 O 26.8026 -1.59378 -0.703164 0
M  V30 247 C 23.9346 -3.16264 -1.2724 0
M  V30 248 H 25.1276 -2.95294 0.523609 0
M  V30 249 H 22.6806 -1.532 0.309745 0
M  V30 250 H 23.4156 -2.54091 -2.01514 0
M  V30 251 H 23.2006 -3.83769 -0.803968 0
M  V30 252 H 24.6906 -3.77198 -1.79196 0
M  V30 253 N 25.1277 -0.289203 -1.54924 0
M  V30 254 C 26.5437 0.0645403 -1.59469 0
M  V30 255 C 26.7437 1.53419 -1.30632 0
M  V30 256 O 25.7997 2.2852 -1.074 0
M  V30 257 C 27.1127 -0.32278 -2.98963 0
M  V30 258 C 28.6607 -0.270564 -3.11828 0
M  V30 259 C 29.1357 -0.632532 -4.53611 0
M  V30 260 N 30.6267 -0.584617 -4.59496 0
M  V30 261 C 31.3617 -0.837314 -5.67254 0
M  V30 262 N 30.8577 -1.15536 -6.83098 0
M  V30 263 N 32.6507 -0.765166 -5.56868 0
M  V30 264 H 24.8017 -1.24714 -1.71931 0
M  V30 265 H 27.0647 -0.504809 -0.802416 0
M  V30 266 H 26.7707 -1.34541 -3.24948 0
M  V30 267 H 26.6447 0.32944 -3.75759 0
M  V30 268 H 29.0317 0.742805 -2.85598 0
M  V30 269 H 29.1127 -0.957242 -2.37214 0
M  V30 270 H 28.7567 -1.64365 -4.80569 0
M  V30 271 H 28.6867 0.07609 -5.26545 0
M  V30 272 H 31.1777 -0.349248 -3.76283 0
M  V30 273 H 31.4907 -1.33447 -7.61191 0
M  V30 274 H 29.8357 -1.19328 -6.84679 0
M  V30 275 H 33.0267 -0.516432 -4.65243 0
M  V30 276 H 33.1997 -0.965477 -6.40767 0
M  V30 277 N 26.6058 1.57591 -0.0167156 0
M  V30 278 C 27.8538 1.90906 0.663285 0
M  V30 279 C 28.1748 0.892509 1.73376 0
M  V30 280 O 27.4448 -0.0677623 1.95783 0
M  V30 281 H 26.0248 0.704637 0.247983 0
M  V30 282 H 28.6868 1.94803 -0.0615909 0
M  V30 283 H 27.7828 2.9116 1.12393 0
M  V30 284 N 28.0839 -0.256276 1.55502 0
M  V30 285 C 29.0139 -1.32102 1.92539 0
M  V30 286 C 29.9949 -1.50684 0.789194 0
M  V30 287 O 31.1799 -1.63449 1.04872 0
M  V30 288 C 28.3099 -2.67752 2.21192 0
M  V30 289 C 27.2639 -2.63878 3.36975 0
M  V30 290 C 26.5899 -4.03236 3.51147 0
M  V30 291 C 27.8899 -2.21682 4.72921 0
M  V30 292 H 29.5839 -1.01351 2.81724 0
M  V30 293 H 27.1299 -0.486105 1.35547 0
M  V30 294 H 29.0829 -3.42365 2.45691 0
M  V30 295 H 27.8069 -3.0012 1.28824 0
M  V30 296 H 26.4659 -1.91722 3.12471 0
M  V30 297 H 26.1139 -4.32854 2.56216 0
M  V30 298 H 25.8139 -4.01535 4.29003 0
M  V30 299 H 27.3379 -4.79563 3.77957 0
M  V30 300 H 28.7519 -2.86023 4.96854 0
M  V30 301 H 27.1489 -2.3111 5.53812 0
M  V30 302 H 28.2189 -1.16833 4.70615 0
M  V30 303 N 29.562 -1.4872 -0.521534 0
M  V30 304 C 30.472 -1.66569 -1.65203 0
M  V30 305 C 31.488 -0.548197 -1.65139 0
M  V30 306 O 32.664 -0.820339 -1.83936 0
M  V30 307 C 29.729 -1.70917 -3.01642 0
M  V30 308 C 28.79 -2.94356 -3.12495 0
M  V30 309 C 28.023 -2.98487 -4.42426 0
M  V30 310 O 28.246 -2.10786 -5.30024 0
M  V30 311 O 27.18 -3.90746 -4.57822 0
M  V30 312 H 31.006 -2.62298 -1.5308 0
M  V30 313 H 28.591 -1.3222 -0.695565 0
M  V30 314 H 30.473 -1.7625 -3.82771 0
M  V30 315 H 29.148 -0.783633 -3.14071 0
M  V30 316 H 28.055 -2.94552 -2.3063 0
M  V30 317 H 29.388 -3.86322 -3.04986 0
M  V30 318 N 31.0401 0.771051 -1.3745 0
M  V30 319 C 32.2681 1.56015 -1.35893 0
M  V30 320 C 32.6831 1.88718 0.0555523 0
M  V30 321 O 32.0401 1.51502 1.01752 0
M  V30 322 C 32.0911 2.87001 -2.19801 0
M  V30 323 O 31.8121 2.557 -3.55738 0
M  V30 324 C 33.3131 3.81228 -2.26231 0
M  V30 325 H 30.5331 0.483317 -0.465453 0
M  V30 326 H 33.0771 0.955611 -1.80799 0
M  V30 327 H 31.2321 3.43877 -1.78402 0
M  V30 328 H 31.6461 3.39584 -3.99729 0
M  V30 329 H 33.1201 4.70139 -2.89263 0
M  V30 330 H 33.5971 4.20409 -1.27093 0
M  V30 331 H 34.2031 3.30281 -2.67945 0
M  V30 332 N 32.5182 1.22032 0.997298 0
M  V30 333 C 33.9292 1.0397 1.55071 0
M  V30 334 C 34.2802 -0.398192 1.92117 0
M  V30 335 O 33.4052 -1.28254 1.74298 0
M  V30 336 C 34.0002 1.88109 2.81781 0
M  V30 337 C 32.5592 1.74357 3.33581 0
M  V30 338 C 31.7062 1.84846 2.06706 0
M  V30 339 H 34.6572 1.35941 0.818883 0
M  V30 340 H 34.6782 1.39589 3.53971 0
M  V30 341 H 34.1902 2.92754 2.54787 0
M  V30 342 H 32.2912 0.72427 3.65493 0
M  V30 343 H 32.4042 2.56772 4.04481 0
M  V30 344 H 30.7682 1.28238 2.20062 0
M  V30 345 H 31.5512 2.91014 1.82114 0
M  V30 346 N 33.9963 -1.19345 1.0293 0
M  V30 347 C 34.9263 -2.2481 0.631105 0
M  V30 348 C 35.9073 -1.66245 -0.360104 0
M  V30 349 O 37.0923 -1.92677 -0.242726 0
M  V30 350 C 34.2223 -3.47295 -0.0184607 0
M  V30 351 C 33.1763 -4.18536 0.895073 0
M  V30 352 C 32.5023 -5.34586 0.110592 0
M  V30 353 C 33.8023 -4.73287 2.209 0
M  V30 354 H 35.4963 -2.58372 1.51275 0
M  V30 355 H 33.0423 -1.24194 0.728818 0
M  V30 356 H 34.9953 -4.20268 -0.308675 0
M  V30 357 H 33.7193 -3.12933 -0.934907 0
M  V30 358 H 32.3783 -3.47446 1.16949 0
M  V30 359 H 32.0263 -4.96469 -0.807902 0
M  V30 360 H 31.7263 -5.83183 0.719087 0
M  V30 361 H 33.2503 -6.10355 -0.172871 0
M  V30 362 H 34.6643 -5.38013 1.98028 0
M  V30 363 H 33.0613 -5.32373 2.76946 0
M  V30 364 H 34.1313 -3.91331 2.86336 0
M  V30 365 N 35.4744 -0.807222 -1.35358 0
M  V30 366 C 36.8904 -0.491038 -1.51858 0
M  V30 367 C 37.0904 0.987648 -1.75635 0
M  V30 368 O 36.1464 1.77265 -1.79815 0
M  V30 369 C 37.4594 -1.33695 -2.69344 0
M  V30 370 C 39.0074 -1.33246 -2.83222 0
M  V30 371 C 39.4824 -2.1625 -4.03733 0
M  V30 372 N 40.9734 -2.1379 -4.10911 0
M  V30 373 C 41.7084 -2.74772 -5.03277 0
M  V30 374 N 41.2044 -3.44684 -6.0097 0
M  V30 375 N 42.9974 -2.6441 -4.96028 0
M  V30 376 H 35.1484 -1.76485 -1.18181 0
M  V30 377 H 37.4114 -0.751199 -0.578276 0
M  V30 378 H 37.1174 -2.38634 -2.58354 0
M  V30 379 H 36.9914 -0.990618 -3.6396 0
M  V30 380 H 39.3784 -0.290911 -2.93663 0
M  V30 381 H 39.4594 -1.71866 -1.89461 0
M  V30 382 H 39.1034 -3.20445 -3.94052 0
M  V30 383 H 39.0334 -1.74989 -4.96675 0
M  V30 384 H 41.5244 -1.62923 -3.40976 0
M  V30 385 H 41.8374 -3.88501 -6.68047 0
M  V30 386 H 40.1824 -3.48788 -6.01142 0
M  V30 387 H 43.3734 -2.0938 -4.18662 0
M  V30 388 H 43.5464 -3.12225 -5.6782 0
M  V30 389 N 36.9525 1.47285 -0.560781 0
M  V30 390 C 38.3635 1.86258 -0.128343 0
M  V30 391 C 38.7145 1.46699 1.30284 0
M  V30 392 O 37.8395 0.871698 1.98067 0
M  V30 393 C 38.4345 3.38044 -0.22614 0
M  V30 394 C 36.9935 3.76096 0.151283 0
M  V30 395 C 36.1405 2.71335 -0.572084 0
M  V30 396 H 39.0915 1.38752 -0.770297 0
M  V30 397 H 39.1125 3.76441 0.554322 0
M  V30 398 H 38.6245 3.66806 -1.26788 0
M  V30 399 H 36.7255 3.52951 1.19399 0
M  V30 400 H 36.8385 4.78641 -0.209765 0
M  V30 401 H 35.2025 2.54696 -0.0147653 0
M  V30 402 H 35.9855 3.02938 -1.61504 0
M  V30 403 N 38.4306 0.297415 1.54768 0
M  V30 404 C 39.8416 -0.195947 1.85669 0
M  V30 405 C 40.1926 -1.53707 1.21937 0
M  V30 406 O 39.3176 -2.10164 0.515754 0
M  V30 407 C 39.9126 -0.362318 3.36857 0
M  V30 408 C 38.4716 -0.799901 3.67802 0
M  V30 409 C 37.6186 0.0938578 2.77141 0
M  V30 410 H 40.5696 0.518538 1.4999 0
M  V30 411 H 40.5906 -1.19745 3.61167 0
M  V30 412 H 40.1026 0.613921 3.83214 0
M  V30 413 H 38.2036 -1.78682 3.26961 0
M  V30 414 H 38.3166 -0.621773 4.75048 0
M  V30 415 H 36.6806 -0.426254 2.51108 0
M  V30 416 H 37.4636 1.06639 3.26318 0
M  V30 417 N 39.9087 -1.5758 0.0250728 0
M  V30 418 C 41.1547 -1.91917 -0.655413 0
M  V30 419 C 41.4877 -0.901433 -1.72011 0
M  V30 420 O 40.7627 0.0764069 -1.9435 0
M  V30 421 C 41.0457 -3.36751 -1.27558 0
M  V30 422 C 40.8987 -4.49258 -0.220719 0
M  V30 423 C 42.2177 -3.81469 -2.19475 0
M  V30 424 H 39.3367 -0.697925 -0.23679 0
M  V30 425 H 41.9787 -1.89825 0.0815036 0
M  V30 426 H 40.1287 -3.38664 -1.90365 0
M  V30 427 H 41.8007 -4.59478 0.409601 0
M  V30 428 H 40.0437 -4.31415 0.454264 0
M  V30 429 H 40.7147 -5.47618 -0.694175 0
M  V30 430 H 43.1907 -3.81266 -1.66659 0
M  V30 431 H 42.0667 -4.83512 -2.59822 0
M  V30 432 H 42.3277 -3.16744 -3.08424 0
M  V30 433 N 41.3868 0.248026 -1.55636 0
M  V30 434 C 42.3368 1.30994 -1.86614 0
M  V30 435 C 43.3208 1.43543 -0.726918 0
M  V30 436 O 44.5128 1.46804 -0.988818 0
M  V30 437 C 41.6418 2.6656 -2.16335 0
M  V30 438 C 40.7278 2.58019 -3.36581 0
M  V30 439 N 41.1188 2.1911 -4.55878 0
M  V30 440 C 39.4168 2.89035 -3.39669 0
M  V30 441 C 40.1178 2.21174 -5.38012 0
M  V30 442 N 39.0938 2.60632 -4.77045 0
M  V30 443 H 42.8958 0.999583 -2.76379 0
M  V30 444 H 40.4098 0.456652 -1.55848 0
M  V30 445 H 42.4068 3.43194 -2.36692 0
M  V30 446 H 41.0668 2.98463 -1.27867 0
M  V30 447 H 42.0778 1.90672 -4.81523 0
M  V30 448 H 38.7548 3.25485 -2.61469 0
M  V30 449 H 40.1448 1.9344 -6.43452 0
M  V30 450 N 42.8649 1.48995 0.513639 0
M  V30 451 C 43.7749 1.67443 1.64317 0
M  V30 452 C 44.7909 0.556947 1.64846 0
M  V30 453 O 45.9669 0.830082 1.83498 0
M  V30 454 C 43.0319 1.72515 3.00732 0
M  V30 455 C 42.0929 2.96009 3.1093 0
M  V30 456 C 41.3259 3.00829 4.40837 0
M  V30 457 O 41.5489 2.13594 5.28898 0
M  V30 458 O 40.4829 3.93168 4.55744 0
M  V30 459 H 44.3089 2.63106 1.51687 0
M  V30 460 H 41.8939 1.32588 0.688543 0
M  V30 461 H 43.7759 1.78277 3.81831 0
M  V30 462 H 42.4509 0.800278 3.13651 0
M  V30 463 H 41.3579 2.9577 2.29065 0
M  V30 464 H 42.6909 3.87934 3.02933 0
M  V30 465 N 44.343 -0.763751 1.37857 0
M  V30 466 C 45.276 -1.88486 1.28639 0
M  V30 467 C 46.254 -1.61757 0.165363 0
M  V30 468 O 47.438 -1.85391 0.340948 0
M  V30 469 C 44.565 -3.23884 0.990811 0
M  V30 470 C 43.611 -3.69514 2.12983 0
M  V30 471 S 44.444 -3.82244 3.75033 0
M  V30 472 C 45.6 -5.20477 3.47641 0
M  V30 473 H 45.833 -1.96017 2.23527 0
M  V30 474 H 43.366 -0.925684 1.23574 0
M  V30 475 H 45.324 -4.02081 0.827101 0
M  V30 476 H 43.985 -3.14044 0.0592832 0
M  V30 477 H 43.178 -4.67696 1.87821 0
M  V30 478 H 42.78 -2.98441 2.25408 0
M  V30 479 H 45.072 -6.05905 3.03125 0
M  V30 480 H 46.015 -5.50655 4.4518 0
M  V30 481 H 46.423 -4.88793 2.82385 0
M  V30 482 N 45.8211 -1.22559 -0.990812 0
M  V30 483 C 47.0981 -0.959875 -1.70428 0
M  V30 484 C 47.4781 0.524455 -2.04481 0
M  V30 485 O 46.8261 1.49302 -1.72977 0
M  V30 486 C 47.0361 -1.85955 -2.95333 0
M  V30 487 C 48.3841 -2.11687 -3.68068 0
M  V30 488 O 49.4081 -1.8342 -3.05345 0
M  V30 489 O 48.2671 -2.59572 -4.80921 0
M  V30 490 H 45.3611 -0.361154 -0.743974 0
M  V30 491 H 47.9071 -1.33554 -1.04697 0
M  V30 492 H 46.6791 -2.86346 -2.66687 0
M  V30 493 H 46.3021 -1.4856 -3.68803 0
M  V30 494 N 47.2992 1.18797 -1.03562 0
M  V30 495 C 48.2472 2.24297 -0.615905 0
M  V30 496 C 49.2412 1.65643 0.354808 0
M  V30 497 O 50.4472 1.78618 0.22265 0
M  V30 498 H 46.8222 0.729909 -0.180934 0
M  V30 499 H 48.7932 2.5701 -1.5162 0
M  V30 500 C 47.5422 3.47698 0.0104735 0
M  V30 501 H 46.8652 3.93125 -0.727509 0
M  V30 502 H 48.3052 4.23159 0.266995 0
M  V30 503 C 46.7642 3.12489 1.25905 0
M  V30 504 O 47.2942 3.25761 2.35038 0
M  V30 505 N 45.5002 2.6686 1.15039 0
M  V30 506 H 45.0472 2.56261 0.262328 0
M  V30 507 H 45.0052 2.43674 1.98672 0
M  V30 508 N 48.7773 0.814389 1.34928 0
M  V30 509 C 49.6873 0.231978 2.3345 0
M  V30 510 C 50.7033 -0.629139 1.62228 0
M  V30 511 O 51.8793 -0.539052 1.94052 0
M  V30 512 C 48.9443 -0.603482 3.41407 0
M  V30 513 C 48.0053 0.279037 4.28392 0
M  V30 514 C 47.2383 -0.516643 5.31193 0
M  V30 515 O 47.4613 -1.75068 5.4287 0
M  V30 516 O 46.3953 0.0965652 6.01823 0
M  V30 517 H 50.2213 1.04721 2.85074 0
M  V30 518 H 47.8063 0.576343 1.37836 0
M  V30 519 H 49.6883 -1.07908 4.0735 0
M  V30 520 H 48.3633 -1.39618 2.92042 0
M  V30 521 H 47.2703 0.801948 3.65403 0
M  V30 522 H 48.6033 1.03588 4.81176 0
M  V30 523 N 50.2554 -1.46986 0.568584 0
M  V30 524 C 51.4834 -2.0683 0.0539956 0
M  V30 525 C 51.8984 -1.41953 -1.24478 0
M  V30 526 O 51.2554 -0.519933 -1.74937 0
M  V30 527 C 51.3064 -3.61254 -0.133362 0
M  V30 528 O 51.0274 -4.237 1.11399 0
M  V30 529 C 52.5284 -4.37992 -0.683927 0
M  V30 530 H 49.7484 -0.669058 0.0510141 0
M  V30 531 H 52.2924 -1.88824 0.785234 0
M  V30 532 H 50.4474 -3.78735 -0.81477 0
M  V30 533 H 50.8614 -5.16388 0.91888 0
M  V30 534 H 52.3354 -5.46684 -0.764263 0
M  V30 535 H 52.8124 -4.05058 -1.69778 0
M  V30 536 H 53.4184 -4.25283 -0.0378494 0
M  V30 537 N 51.7335 -0.305618 -1.54608 0
M  V30 538 C 53.1495 0.0476228 -1.59529 0
M  V30 539 C 53.3495 1.52025 -1.32252 0
M  V30 540 O 52.4055 2.27368 -1.09818 0
M  V30 541 C 53.7185 -0.354471 -2.98603 0
M  V30 542 C 55.2665 -0.303622 -3.11524 0
M  V30 543 C 55.7415 -0.680608 -4.52915 0
M  V30 544 N 57.2325 -0.63332 -4.5885 0
M  V30 545 C 57.9675 -0.897432 -5.66334 0
M  V30 546 N 57.4635 -1.22775 -6.81834 0
M  V30 547 N 59.2565 -0.824186 -5.56025 0
M  V30 548 H 51.4075 -1.2653 -1.70599 0
M  V30 549 H 53.6705 -0.513291 -0.797017 0
M  V30 550 H 53.3765 -1.3798 -3.23503 0
M  V30 551 H 53.2505 0.289568 -3.76087 0
M  V30 552 H 55.6375 0.712472 -2.8637 0
M  V30 553 H 55.7185 -0.982348 -2.36185 0
M  V30 554 H 55.3625 -1.69453 -4.78799 0
M  V30 555 H 55.2925 0.0202385 -5.26596 0
M  V30 556 H 57.7835 -0.389138 -3.75891 0
M  V30 557 H 58.0965 -1.41513 -7.59733 0
M  V30 558 H 56.4415 -1.26583 -6.83375 0
M  V30 559 H 59.6325 -0.565748 -4.64669 0
M  V30 560 H 59.8055 -1.03338 -6.39707 0
M  V30 561 N 53.2116 1.57565 -0.0334293 0
M  V30 562 C 54.1586 2.10478 0.946981 0
M  V30 563 C 55.1286 1.00787 1.32027 0
M  V30 564 O 56.3136 1.28232 1.41284 0
M  V30 565 C 53.4536 2.63994 2.22263 0
M  V30 566 C 52.5666 3.87709 1.90541 0
M  V30 567 C 51.7016 4.29604 3.12433 0
M  V30 568 C 50.7406 5.46065 2.76549 0
M  V30 569 N 49.8776 5.83096 3.9108 0
M  V30 570 H 54.7176 2.93963 0.488846 0
M  V30 571 H 52.2546 1.45296 0.22969 0
M  V30 572 H 54.2126 2.93114 2.96884 0
M  V30 573 H 52.8426 1.83333 2.65685 0
M  V30 574 H 51.8946 3.65291 1.06144 0
M  V30 575 H 53.2066 4.72403 1.60116 0
M  V30 576 H 52.3606 4.60182 3.9537 0
M  V30 577 H 51.0996 3.43685 3.46023 0
M  V30 578 H 50.1046 5.15176 1.92026 0
M  V30 579 H 51.3296 6.33685 2.44171 0
M  V30 580 H 49.2756 5.00132 4.24504 0
M  V30 581 H 49.1926 6.6244 3.64293 0
M  V30 582 H 50.4606 6.18282 4.74708 0
M  V30 583 N 54.6897 -0.239769 1.55765 0
M  V30 584 C 55.9147 -0.988373 1.82335 0
M  V30 585 C 56.3397 -1.77886 0.611421 0
M  V30 586 O 55.6977 -1.75889 -0.439639 0
M  V30 587 C 55.7457 -1.89627 3.06715 0
M  V30 588 O 54.8497 -2.98904 2.84131 0
M  V30 589 H 54.1907 -0.280858 0.601677 0
M  V30 590 H 56.7207 -0.258597 2.02959 0
M  V30 591 H 56.7307 -2.30957 3.36338 0
M  V30 592 H 55.4057 -1.31511 3.9456 0
M  V30 593 H 53.9827 -2.61651 2.65694 0
M  V30 594 N 56.1678 -1.49265 -0.50573 0
M  V30 595 C 57.0978 -1.68495 -1.61653 0
M  V30 596 C 58.0788 -0.53366 -1.61512 0
M  V30 597 O 59.2638 -0.76897 -1.78327 0
M  V30 598 C 56.3938 -1.74709 -3.00157 0
M  V30 599 C 55.3478 -2.89581 -3.15162 0
M  V30 600 C 54.6738 -2.80903 -4.5497 0
M  V30 601 C 55.9738 -4.30578 -2.95634 0
M  V30 602 H 57.6678 -2.61493 -1.45814 0
M  V30 603 H 55.2138 -1.25838 -0.70005 0
M  V30 604 H 57.1668 -1.86748 -3.77761 0
M  V30 605 H 55.8908 -0.783067 -3.17074 0
M  V30 606 H 54.5498 -2.77136 -2.39982 0
M  V30 607 H 54.1978 -1.82419 -4.68756 0
M  V30 608 H 53.8978 -3.57999 -4.65951 0
M  V30 609 H 55.4218 -2.94944 -5.34641 0
M  V30 610 H 56.8358 -4.4373 -3.63011 0
M  V30 611 H 55.2328 -5.0886 -3.18091 0
M  V30 612 H 56.3028 -4.45352 -1.91806 0
M  V30 613 N 57.6459 0.756429 -1.3826 0
M  V30 614 C 58.8949 1.51082 -1.3363 0
M  V30 615 C 59.2079 1.95467 0.0720068 0
M  V30 616 O 60.4139 2.7043 0.240834 0
M  V30 617 C 58.8699 2.72893 -2.34644 0
M  V30 618 C 58.4779 2.35544 -3.81081 0
M  V30 619 C 60.2219 3.50791 -2.39052 0
M  V30 620 C 58.1289 3.53948 -4.73787 0
M  V30 621 H 57.0589 0.56727 -0.49671 0
M  V30 622 H 59.7099 0.827147 -1.638 0
M  V30 623 H 58.0919 3.43227 -1.97513 0
M  V30 624 H 59.2659 1.72894 -4.27135 0
M  V30 625 H 57.5809 1.70786 -3.79764 0
M  V30 626 H 60.1779 4.38823 -3.05513 0
M  V30 627 H 60.5209 3.91745 -1.40861 0
M  V30 628 H 61.0539 2.87467 -2.74968 0
M  V30 629 H 57.7929 3.18064 -5.73163 0
M  V30 630 H 57.3129 4.15651 -4.32428 0
M  V30 631 H 58.9919 4.20566 -4.91663 0
M  V30 632 N 59.124 1.23083 0.984299 0
M  V30 633 C 60.087 1.00979 2.05757 0
M  V30 634 C 61.087 -0.0269573 1.60777 0
M  V30 635 O 62.277 0.212403 1.729 0
M  V30 636 C 59.409 0.527072 3.36801 0
M  V30 637 H 60.602 1.9622 2.26799 0
M  V30 638 H 58.155 1.05072 1.15714 0
M  V30 639 H 58.89 -0.429294 3.21446 0
M  V30 640 H 58.675 1.27515 3.70786 0
M  V30 641 H 60.165 0.392942 4.15747 0
M  V30 642 N 60.6021 -1.18246 1.0419 0
M  V30 643 C 61.8501 -1.87886 0.744543 0
M  V30 644 C 62.1711 -1.8082 -0.730006 0
M  V30 645 O 61.4411 -1.22736 -1.52685 0
M  V30 646 H 60.0211 -0.695556 0.272417 0
M  V30 647 H 62.6831 -1.43494 1.31892 0
M  V30 648 H 61.7791 -2.9389 1.05049 0
M  V30 649 N 62.0802 -0.821533 -1.34494 0
M  V30 650 C 63.0302 -0.214793 -2.26986 0
M  V30 651 C 64.0142 0.620125 -1.4847 0
M  V30 652 O 65.2062 0.474933 -1.70509 0
M  V30 653 C 62.3352 0.623566 -3.37589 0
M  V30 654 C 61.4212 -0.221904 -4.23519 0
M  V30 655 N 61.8122 -1.29223 -4.89014 0
M  V30 656 C 60.1102 -0.00600922 -4.46 0
M  V30 657 C 60.8112 -1.80965 -5.52835 0
M  V30 658 N 59.7872 -1.11376 -5.32068 0
M  V30 659 H 63.5892 -1.03354 -2.75128 0
M  V30 660 H 61.1032 -0.6642 -1.48196 0
M  V30 661 H 63.1002 1.0744 -4.02818 0
M  V30 662 H 61.7602 1.44049 -2.90998 0
M  V30 663 H 62.7712 -1.67502 -4.90065 0
M  V30 664 H 59.4482 0.77886 -4.10171 0
M  V30 665 H 60.8382 -2.70502 -6.15043 0
M  V30 666 N 63.5583 1.46682 -0.576371 0
M  V30 667 C 64.4913 2.27243 0.208731 0
M  V30 668 C 65.4693 1.35238 0.902746 0
M  V30 669 O 66.6533 1.64641 0.917904 0
M  V30 670 C 63.7803 3.12802 1.29896 0
M  V30 671 C 62.8263 4.20524 0.711457 0
M  V30 672 S 63.6593 5.33548 -0.456781 0
M  V30 673 C 64.8153 6.22673 0.634798 0
M  V30 674 H 65.0483 2.93484 -0.474838 0
M  V30 675 H 62.5813 1.50069 -0.363118 0
M  V30 676 H 64.5393 3.62661 1.92321 0
M  V30 677 H 63.2003 2.45887 1.95444 0
M  V30 678 H 62.3933 4.80191 1.53076 0
M  V30 679 H 61.9953 3.73645 0.162999 0
M  V30 680 H 64.2873 6.60181 1.52209 0
M  V30 681 H 65.2303 7.0806 0.0750311 0
M  V30 682 H 65.6383 5.56684 0.936092 0
M  V30 683 N 65.0364 0.313813 1.54444 0
M  V30 684 C 66.2644 -0.293918 2.04802 0
M  V30 685 C 66.6794 -1.46537 1.19047 0
M  V30 686 O 66.0364 -1.81182 0.218939 0
M  V30 687 C 66.0874 -0.737806 3.53891 0
M  V30 688 O 65.8084 0.387038 4.36387 0
M  V30 689 C 67.3094 -1.40936 4.203 0
M  V30 690 H 64.5294 -0.0620057 0.668129 0
M  V30 691 H 67.0734 0.457169 1.99324 0
M  V30 692 H 65.2284 -1.43889 3.59687 0
M  V30 693 H 65.6424 0.0391274 5.24485 0
M  V30 694 H 67.1164 -1.67099 5.26101 0
M  V30 695 H 67.5934 -2.35355 3.70816 0
M  V30 696 H 68.1994 -0.751117 4.18615 0
M  V30 697 N 66.5145 -1.57545 0.0417849 0
M  V30 698 C 67.4245 -2.14451 -0.951213 0
M  V30 699 C 68.4405 -1.09992 -1.34825 0
M  V30 700 O 69.6165 -1.42114 -1.42708 0
M  V30 701 C 66.6815 -2.67063 -2.21084 0
M  V30 702 C 65.7425 -3.86284 -1.87304 0
M  V30 703 C 64.9755 -4.36378 -3.07261 0
M  V30 704 O 65.1985 -3.85587 -4.20332 0
M  V30 705 O 64.1325 -5.28077 -2.88822 0
M  V30 706 H 67.9585 -2.99601 -0.497287 0
M  V30 707 H 65.5435 -1.48317 -0.179567 0
M  V30 708 H 67.4255 -3.00914 -2.95006 0
M  V30 709 H 66.1005 -1.84989 -2.65633 0
M  V30 710 H 65.0075 -3.57338 -1.10727 0
M  V30 711 H 66.3405 -4.6956 -1.47562 0
M  V30 712 N 67.9926 0.231505 -1.5589 0
M  V30 713 C 69.2416 0.955346 -1.7764 0
M  V30 714 C 69.5546 1.85893 -0.608546 0
M  V30 715 O 70.7606 2.62067 -0.70943 0
M  V30 716 C 69.2166 1.74886 -3.14552 0
M  V30 717 C 68.8246 0.891915 -4.39032 0
M  V30 718 C 70.5686 2.46452 -3.45633 0
M  V30 719 C 68.4756 1.68221 -5.66971 0
M  V30 720 H 67.4056 0.360446 -0.662265 0
M  V30 721 H 70.0566 0.209516 -1.823 0
M  V30 722 H 68.4386 2.53723 -3.04041 0
M  V30 723 H 69.6126 0.144793 -4.60572 0
M  V30 724 H 67.9276 0.288863 -4.15397 0
M  V30 725 H 70.5246 3.06061 -4.38441 0
M  V30 726 H 70.8676 3.18841 -2.67668 0
M  V30 727 H 71.4006 1.74613 -3.57428 0
M  V30 728 H 68.1396 1.00178 -6.478 0
M  V30 729 H 67.6596 2.4042 -5.49507 0
M  V30 730 H 69.3386 2.24544 -6.06786 0
M  V30 731 N 69.4707 1.49531 0.497807 0
M  V30 732 C 70.4037 1.61043 1.6168 0
M  V30 733 C 71.3817 0.459386 1.55976 0
M  V30 734 O 72.5657 0.675358 1.75986 0
M  V30 735 C 69.6927 1.56833 3.00202 0
M  V30 736 C 68.7387 2.77173 3.24156 0
M  V30 737 S 69.5717 4.38808 3.06933 0
M  V30 738 C 70.7277 4.37248 4.47845 0
M  V30 739 H 70.9607 2.55702 1.51671 0
M  V30 740 H 68.4937 1.38462 0.683201 0
M  V30 741 H 70.4517 1.55089 3.80076 0
M  V30 742 H 69.1127 0.634561 3.07623 0
M  V30 743 H 68.3057 2.70456 4.25288 0
M  V30 744 H 67.9077 2.76346 2.5201 0
M  V30 745 H 70.1997 4.09164 5.39992 0
M  V30 746 H 71.1427 5.38668 4.59612 0
M  V30 747 H 71.5507 3.67286 4.28674 0
M  V30 748 N 70.9488 -0.749086 1.3866 0
M  V30 749 C 71.8808 -1.87273 1.32142 0
M  V30 750 C 72.8938 -1.61127 0.232787 0
M  V30 751 O 74.0828 -1.71623 0.49069 0
M  V30 752 C 71.1828 -3.23005 1.02571 0
M  V30 753 C 70.3558 -3.7662 2.22433 0
M  V30 754 C 69.4148 -4.90879 1.89537 0
M  V30 755 O 68.4408 -5.05276 2.62078 0
M  V30 756 N 69.6428 -5.74198 0.853031 0
M  V30 757 H 72.4078 -1.93373 2.28969 0
M  V30 758 H 69.9688 -0.929216 1.32579 0
M  V30 759 H 71.9608 -3.96992 0.786085 0
M  V30 760 H 70.5308 -3.12262 0.145249 0
M  V30 761 H 69.7508 -2.94147 2.62434 0
M  V30 762 H 71.0388 -4.09173 3.02415 0
M  V30 763 H 70.4368 -5.6514 0.25155 0
M  V30 764 H 68.9938 -6.48313 0.67329 0
M  V30 765 N 72.4269 -1.23603 -0.977757 0
M  V30 766 C 73.3569 -1.04401 -2.0886 0
M  V30 767 C 74.3379 0.0399052 -1.70053 0
M  V30 768 O 75.5229 -0.125246 -1.93796 0
M  V30 769 C 72.6529 -0.637269 -3.41403 0
M  V30 770 C 71.6069 -1.66883 -3.94124 0
M  V30 771 C 70.9329 -1.11745 -5.22893 0
M  V30 772 C 72.2329 -3.06247 -4.23096 0
M  V30 773 H 73.9269 -1.97316 -2.25182 0
M  V30 774 H 71.4729 -0.950096 -1.08209 0
M  V30 775 H 73.4259 -0.48998 -4.18542 0
M  V30 776 H 72.1499 0.327557 -3.24953 0
M  V30 777 H 70.8089 -1.80416 -3.19133 0
M  V30 778 H 70.4569 -0.143527 -5.02795 0
M  V30 779 H 70.1569 -1.80672 -5.59134 0
M  V30 780 H 71.6809 -0.982067 -6.02651 0
M  V30 781 H 73.0949 -2.96001 -4.90975 0
M  V30 782 H 71.4919 -3.72436 -4.70544 0
M  V30 783 H 72.5619 -3.55041 -3.30263 0
M  V30 784 N 73.905 1.17692 -1.04816 0
M  V30 785 C 74.835 2.23777 -0.666791 0
M  V30 786 C 75.816 1.66796 0.33361 0
M  V30 787 O 77.001 1.93039 0.212042 0
M  V30 788 C 74.131 3.47281 -0.0367933 0
M  V30 789 C 73.085 4.17059 -0.961546 0
M  V30 790 C 72.411 5.34342 -0.195626 0
M  V30 791 C 73.711 4.69713 -2.28402 0
M  V30 792 H 75.405 2.55933 -1.55367 0
M  V30 793 H 72.951 1.23019 -0.748484 0
M  V30 794 H 74.904 4.20706 0.241775 0
M  V30 795 H 73.628 3.14381 0.885004 0
M  V30 796 H 72.287 3.45541 -1.22462 0
M  V30 797 H 71.935 4.97692 0.728816 0
M  V30 798 H 71.635 5.81966 -0.811775 0
M  V30 799 H 73.159 6.10553 0.0757473 0
M  V30 800 H 74.573 5.34794 -2.06563 0
M  V30 801 H 72.97 5.279 -2.8538 0
M  V30 802 H 74.04 3.86726 -2.92525 0
M  V30 803 N 75.3831 0.828654 1.34056 0
M  V30 804 C 76.3311 0.242973 2.31327 0
M  V30 805 C 77.3251 -0.61944 1.57668 0
M  V30 806 O 78.5311 -0.51014 1.7262 0
M  V30 807 H 74.9061 0.059834 0.749616 0
M  V30 808 H 76.8771 1.07809 2.78244 0
M  V30 809 C 75.6261 -0.575733 3.429 0
M  V30 810 H 74.9491 0.0785582 3.99723 0
M  V30 811 H 76.3891 -0.951547 4.13185 0
M  V30 812 C 74.8481 -1.75044 2.87856 0
M  V30 813 O 75.3781 -2.84882 2.83205 0
M  V30 814 N 73.5841 -1.56903 2.44602 0
M  V30 815 H 73.1311 -0.675547 2.48584 0
M  V30 816 H 73.0891 -2.35652 2.08124 0
M  V30 817 N 76.8612 -1.46375 0.584142 0
M  V30 818 C 77.7912 -2.33103 -0.136037 0
M  V30 819 C 78.7722 -1.45431 -0.882255 0
M  V30 820 O 79.9572 -1.74246 -0.857434 0
M  V30 821 C 77.0872 -3.27731 -1.14933 0
M  V30 822 C 76.0412 -4.24855 -0.517862 0
M  V30 823 C 75.3672 -5.09001 -1.63773 0
M  V30 824 C 76.6672 -5.19439 0.545886 0
M  V30 825 H 78.3612 -2.93568 0.588086 0
M  V30 826 H 75.9072 -1.41166 0.284259 0
M  V30 827 H 77.8602 -3.87261 -1.66153 0
M  V30 828 H 76.5842 -2.65377 -1.90375 0
M  V30 829 H 75.2432 -3.6659 -0.0267361 0
M  V30 830 H 74.8912 -4.43031 -2.38185 0
M  V30 831 H 74.5912 -5.74777 -1.22085 0
M  V30 832 H 76.1152 -5.71396 -2.15266 0
M  V30 833 H 77.5292 -5.73177 0.118704 0
M  V30 834 H 75.9262 -5.93566 0.88317 0
M  V30 835 H 76.9962 -4.63285 1.43162 0
M  V30 836 N 78.3393 -0.321999 -1.54275 0
M  V30 837 C 79.6163 0.335232 -1.92706 0
M  V30 838 C 79.9963 1.70006 -1.25145 0
M  V30 839 O 79.3443 2.25067 -0.394596 0
M  V30 840 C 79.5543 0.429008 -3.46353 0
M  V30 841 C 80.9023 0.690029 -4.18956 0
M  V30 842 O 81.9263 0.511992 -3.52501 0
M  V30 843 O 80.7853 1.03338 -5.36641 0
M  V30 844 H 77.8793 0.191143 -0.804608 0
M  V30 845 H 80.4253 -0.3716 -1.65581 0
M  V30 846 H 79.1973 -0.529611 -3.87699 0
M  V30 847 H 78.8203 1.18348 -3.79578 0
M  V30 848 N 79.8174 1.5752 -0.0501392 0
M  V30 849 C 80.7474 2.14502 0.922566 0
M  V30 850 C 81.7284 1.06642 1.3252 0
M  V30 851 O 82.9134 1.34577 1.4001 0
M  V30 852 C 80.0434 2.68916 2.19776 0
M  V30 853 C 78.9974 3.8175 1.93523 0
M  V30 854 C 78.3234 4.22677 3.27487 0
M  V30 855 C 79.6234 5.06932 1.25765 0
M  V30 856 H 81.3174 2.9603 0.447952 0
M  V30 857 H 78.8634 1.42401 0.214024 0
M  V30 858 H 80.8164 3.07419 2.88222 0
M  V30 859 H 79.5404 1.84578 2.69441 0
M  V30 860 H 78.1994 3.43718 1.27489 0
M  V30 861 H 77.8474 3.35291 3.74952 0
M  V30 862 H 77.5474 4.98725 3.1072 0
M  V30 863 H 79.0714 4.63779 3.97166 0
M  V30 864 H 80.4854 5.42888 1.84244 0
M  V30 865 H 78.8824 5.88116 1.19328 0
M  V30 866 H 79.9524 4.84337 0.233536 0
M  V30 867 N 81.2955 -0.223234 1.56011 0
M  V30 868 C 82.2585 -1.26014 1.9145 0
M  V30 869 C 83.2585 -1.3989 0.792937 0
M  V30 870 O 84.4485 -1.38184 1.0607 0
M  V30 871 C 81.5805 -2.63422 2.16383 0
M  V30 872 H 82.7735 -0.95796 2.84189 0
M  V30 873 H 80.3265 -0.463576 1.49267 0
M  V30 874 H 81.0615 -2.98741 1.2619 0
M  V30 875 H 80.8465 -2.54728 2.98088 0
M  V30 876 H 82.3365 -3.38249 2.44903 0
M  V30 877 N 82.7736 -1.49793 -0.48987 0
M  V30 878 C 84.0506 -1.50348 -1.25119 0
M  V30 879 C 84.4306 -0.237466 -2.0976 0
M  V30 880 O 83.7786 0.77981 -2.14782 0
M  V30 881 C 83.9886 -2.78872 -2.09837 0
M  V30 882 C 85.3366 -3.288 -2.68655 0
M  V30 883 O 86.3606 -2.80065 -2.20096 0
M  V30 884 O 85.2196 -4.13707 -3.57083 0
M  V30 885 H 82.3136 -0.602242 -0.566775 0
M  V30 886 H 84.8596 -1.62067 -0.503229 0
M  V30 887 H 83.6316 -3.62499 -1.47343 0
M  V30 888 H 83.2546 -2.70066 -2.91805 0
M  V30 889 N 84.2517 0.741722 -1.39055 0
M  V30 890 C 85.5287 1.49252 -1.26425 0
M  V30 891 C 85.9087 2.10705 0.129144 0
M  V30 892 O 85.2567 1.98045 1.13976 0
M  V30 893 C 85.4667 2.54934 -2.38347 0
M  V30 894 C 86.8147 3.21506 -2.77343 0
M  V30 895 O 87.8387 2.65245 -2.37747 0
M  V30 896 O 86.6977 4.23294 -3.45665 0
M  V30 897 H 83.7917 0.662451 -0.495064 0
M  V30 898 H 86.3377 0.776121 -1.50912 0
M  V30 899 H 85.1097 2.07857 -3.31529 0
M  V30 900 H 84.7327 3.34141 -2.15489 0
M  V30 901 N 85.7298 1.2412 0.971189 0
M  V30 902 C 86.9548 1.10667 1.75407 0
M  V30 903 C 87.3798 -0.337048 1.85056 0
M  V30 904 O 86.7378 -1.24396 1.31892 0
M  V30 905 C 86.7858 1.74726 3.15441 0
M  V30 906 O 85.8898 1.01566 3.99697 0
M  V30 907 H 85.2308 0.387341 0.539317 0
M  V30 908 H 87.7608 1.64358 1.2185 0
M  V30 909 H 87.7708 1.80341 3.6598 0
M  V30 910 H 86.4458 2.79773 3.07734 0
M  V30 911 H 85.0228 1.03713 3.58187 0
M  V30 912 N 87.2079 -1.17134 1.05439 0
M  V30 913 C 88.1379 -2.2342 0.678649 0
M  V30 914 C 89.1189 -1.66971 -0.32476 0
M  V30 915 O 90.3039 -1.93149 -0.201802 0
M  V30 916 C 87.4339 -3.47256 0.0552099 0
M  V30 917 C 86.3879 -4.16543 0.98365 0
M  V30 918 C 85.7139 -5.34231 0.223961 0
M  V30 919 C 87.0139 -4.68495 2.3089 0
M  V30 920 H 88.7079 -2.55105 1.56722 0
M  V30 921 H 86.2539 -1.2262 0.754998 0
M  V30 922 H 88.2069 -4.20828 -0.21946 0
M  V30 923 H 86.9309 -3.14846 -0.868319 0
M  V30 924 H 85.5899 -3.44887 1.24293 0
M  V30 925 H 85.2379 -4.98071 -0.702412 0
M  V30 926 H 84.9379 -5.81527 0.842627 0
M  V30 927 H 86.4619 -6.10585 -0.0433671 0
M  V30 928 H 87.8759 -5.33691 2.09396 0
M  V30 929 H 86.2729 -5.26379 2.88176 0
M  V30 930 H 87.3429 -3.85169 2.94572 0
M  V30 931 N 88.686 -0.835752 -1.33615 0
M  V30 932 C 89.619 -0.211815 -2.27215 0
M  V30 933 C 90.597 0.639249 -1.49507 0
M  V30 934 O 91.781 0.600193 -1.78689 0
M  V30 935 C 88.908 0.702893 -3.31326 0
M  V30 936 C 87.954 -0.0723049 -4.26439 0
M  V30 937 S 88.787 -1.42811 -5.16106 0
M  V30 938 C 89.943 -0.518613 -6.23748 0
M  V30 939 H 90.176 -1.00533 -2.79786 0
M  V30 940 H 87.709 -0.632336 -1.40858 0
M  V30 941 H 89.667 1.22505 -3.91794 0
M  V30 942 H 88.328 1.47004 -2.77576 0
M  V30 943 H 87.521 0.62359 -5.00127 0
M  V30 944 H 87.123 -0.525424 -3.70291 0
M  V30 945 H 89.415 0.284778 -6.76901 0
M  V30 946 H 90.358 -1.22556 -6.97413 0
M  V30 947 H 90.766 -0.101344 -5.64409 0
M  V30 948 N 90.1641 1.46063 -0.591896 0
M  V30 949 C 91.0741 2.34192 0.13831 0
M  V30 950 C 92.0901 1.50305 0.876608 0
M  V30 951 O 93.2661 1.8315 0.837728 0
M  V30 952 C 90.3311 3.27656 1.13326 0
M  V30 953 C 89.3921 4.27445 0.39863 0
M  V30 954 C 88.6251 5.16443 1.34618 0
M  V30 955 O 88.8481 5.08553 2.58321 0
M  V30 956 O 87.7821 5.95843 0.851768 0
M  V30 957 H 91.6081 2.98002 -0.58552 0
M  V30 958 H 89.1931 1.45188 -0.352239 0
M  V30 959 H 91.0751 3.85291 1.70671 0
M  V30 960 H 89.7501 2.6643 1.83839 0
M  V30 961 H 88.6571 3.73471 -0.216895 0
M  V30 962 H 89.9901 4.91482 -0.265709 0
M  V30 963 N 91.6422 0.330177 1.54103 0
M  V30 964 C 92.8702 -0.272179 2.05102 0
M  V30 965 C 93.2852 -1.45267 1.20595 0
M  V30 966 O 92.6422 -1.8094 0.238144 0
M  V30 967 C 92.6932 -0.70023 3.54653 0
M  V30 968 O 92.4142 0.433301 4.35952 0
M  V30 969 C 93.9152 -1.3647 4.21771 0
M  V30 970 H 91.1352 -0.0549159 0.668749 0
M  V30 971 H 93.6792 0.478285 1.98828 0
M  V30 972 H 91.8342 -1.40066 3.61193 0
M  V30 973 H 92.2482 0.0947539 5.24414 0
M  V30 974 H 93.7222 -1.61509 5.27843 0
M  V30 975 H 94.1992 -2.31409 3.73292 0
M  V30 976 H 94.8052 -0.706675 4.19388 0
M  V30 977 N 93.1203 -1.57491 0.0584922 0
M  V30 978 C 94.5313 -1.80526 -0.476138 0
M  V30 979 C 94.8823 -0.971334 -1.70469 0
M  V30 980 O 94.0073 -0.190012 -2.15564 0
M  V30 981 C 94.6023 -3.27424 -0.870587 0
M  V30 982 C 93.1613 -3.51351 -1.35015 0
M  V30 983 C 92.3083 -2.75343 -0.32887 0
M  V30 984 H 95.2593 -1.56133 0.284312 0
M  V30 985 H 95.2803 -3.38745 -1.73299 0
M  V30 986 H 94.7923 -3.88093 0.0237627 0
M  V30 987 H 92.8933 -2.95971 -2.26345 0
M  V30 988 H 93.0063 -4.60059 -1.33726 0
M  V30 989 H 91.3703 -2.417 -0.803321 0
M  V30 990 H 92.1533 -3.38743 0.557521 0
M  V30 991 N 94.5984 0.214957 -1.56127 0
M  V30 992 C 95.5484 1.27006 -1.8935 0
M  V30 993 C 96.5324 1.41969 -0.757202 0
M  V30 994 O 97.7244 1.44673 -1.01973 0
M  V30 995 C 94.8534 2.61911 -2.2194 0
M  V30 996 C 93.9394 2.50822 -3.41978 0
M  V30 997 N 94.3304 2.09391 -4.60423 0
M  V30 998 C 92.6284 2.81765 -3.45723 0
M  V30 999 C 93.3294 2.09712 -5.42582 0
M  V30 1000 N 92.3054 2.50454 -4.82466 0
M  V30 1001 H 96.1074 0.940734 -2.78437 0
M  V30 1002 H 93.6214 0.423492 -1.56781 0
M  V30 1003 H 95.6184 3.38096 -2.43919 0
M  V30 1004 H 94.2784 2.95684 -1.34169 0
M  V30 1005 H 95.2894 1.80416 -4.85459 0
M  V30 1006 H 91.9664 3.19865 -2.68314 0
M  V30 1007 H 93.3564 1.79748 -6.4741 0
M  V30 1008 N 96.0765 1.50051 0.48192 0
M  V30 1009 C 97.4925 1.37237 0.814756 0
M  V30 1010 C 97.6925 0.420109 1.97072 0
M  V30 1011 O 96.7485 -0.141246 2.52105 0
M  V30 1012 C 98.0615 2.78375 1.13701 0
M  V30 1013 C 99.6095 2.87213 1.2441 0
M  V30 1014 C 100.084 4.29161 1.59954 0
M  V30 1015 N 101.575 4.32061 1.66967 0
M  V30 1016 C 102.31 5.38879 1.95952 0
M  V30 1017 N 101.806 6.55918 2.23031 0
M  V30 1018 N 103.599 5.26312 1.97363 0
M  V30 1019 H 95.7505 2.10546 -0.28005 0
M  V30 1020 H 98.0135 0.945921 -0.0627454 0
M  V30 1021 H 97.7195 3.49845 0.360787 0
M  V30 1022 H 97.5935 3.14941 2.07586 0
M  V30 1023 H 99.9805 2.15969 2.01101 0
M  V30 1024 H 100.061 2.54204 0.285299 0
M  V30 1025 H 99.7055 5.00938 0.838067 0
M  V30 1026 H 99.6355 4.59648 2.56966 0
M  V30 1027 H 102.126 3.47661 1.48123 0
M  V30 1028 H 102.439 7.33139 2.44391 0
M  V30 1029 H 100.784 6.59112 2.20447 0
M  V30 1030 H 103.975 4.33876 1.75697 0
M  V30 1031 H 104.148 6.09649 2.19618 0
M  V30 1032 N 97.5546 -0.734337 1.39446 0
M  V30 1033 C 98.8036 -1.48937 1.36017 0
M  V30 1034 C 99.1166 -1.95557 -0.0409005 0
M  V30 1035 O 100.323 -2.70779 -0.19778 0
M  V30 1036 C 98.7786 -2.69125 2.38955 0
M  V30 1037 C 98.3866 -2.29452 3.8478 0
M  V30 1038 C 100.131 -3.46944 2.44603 0
M  V30 1039 C 98.0376 -3.46366 4.79358 0
M  V30 1040 H 96.9676 -0.559296 0.505672 0
M  V30 1041 H 99.6186 -0.800983 1.65095 0
M  V30 1042 H 98.0006 -3.40041 2.02948 0
M  V30 1043 H 99.1746 -1.66077 4.29831 0
M  V30 1044 H 97.4896 -1.64723 3.82433 0
M  V30 1045 H 100.087 -4.33907 3.12456 0
M  V30 1046 H 100.43 -3.89454 1.47076 0
M  V30 1047 H 100.963 -2.83056 2.79507 0
M  V30 1048 H 97.7016 -3.08905 5.78151 0
M  V30 1049 H 97.2216 -4.08719 4.38986 0
M  V30 1050 H 98.9006 -4.12691 4.98292 0
M  V30 1051 N 99.0327 -1.24633 -0.964593 0
M  V30 1052 C 99.9957 -1.0424 -2.04124 0
M  V30 1053 C 100.996 0.00137563 -1.608 0
M  V30 1054 O 102.186 -0.239883 -1.7254 0
M  V30 1055 C 99.3177 -0.580588 -3.3592 0
M  V30 1056 H 100.511 -1.99803 -2.23649 0
M  V30 1057 H 98.0637 -1.06899 -1.14027 0
M  V30 1058 H 98.7987 0.3781 -3.22088 0
M  V30 1059 H 98.5837 -1.33398 -3.6871 0
M  V30 1060 H 100.074 -0.459034 -4.15069 0
M  V30 1061 N 100.511 1.16574 -1.06058 0
M  V30 1062 C 101.458 2.20883 -0.669263 0
M  V30 1063 C 102.428 1.62729 0.332918 0
M  V30 1064 O 103.613 1.895 0.222346 0
M  V30 1065 C 100.753 3.45049 -0.0593572 0
M  V30 1066 C 99.8658 4.17458 -1.11143 0
M  V30 1067 C 99.0008 5.29135 -0.467916 0
M  V30 1068 C 98.0398 5.93343 -1.50369 0
M  V30 1069 N 97.1768 6.96516 -0.883706 0
M  V30 1070 H 102.017 2.53709 -1.5632 0
M  V30 1071 H 99.5538 1.24616 -0.781625 0
M  V30 1072 H 101.512 4.16033 0.311771 0
M  V30 1073 H 100.142 3.12781 0.797992 0
M  V30 1074 H 99.1938 3.45101 -1.60029 0
M  V30 1075 H 100.506 4.61307 -1.89731 0
M  V30 1076 H 99.6598 6.06684 -0.0436871 0
M  V30 1077 H 98.3988 4.86443 0.349864 0
M  V30 1078 H 97.4038 5.14517 -1.93784 0
M  V30 1079 H 98.6288 6.38114 -2.32352 0
M  V30 1080 H 96.5748 6.55943 -0.086595 0
M  V30 1081 H 96.4918 7.38723 -1.607 0
M  V30 1082 H 97.7598 7.77993 -0.484543 0
M  V30 1083 N 101.989 0.842826 1.3317 0
M  V30 1084 C 102.922 0.223862 2.27099 0
M  V30 1085 C 103.9 -0.631311 1.49844 0
M  V30 1086 O 105.084 -0.590708 1.79005 0
M  V30 1087 C 102.211 -0.685313 3.31694 0
M  V30 1088 C 101.257 0.094919 4.26394 0
M  V30 1089 S 102.09 1.45546 5.15341 0
M  V30 1090 C 103.246 0.551685 6.23464 0
M  V30 1091 H 103.479 1.02015 2.79249 0
M  V30 1092 H 101.012 0.639797 1.4052 0
M  V30 1093 H 102.97 -1.20426 3.92438 0
M  V30 1094 H 101.631 -1.4553 2.78352 0
M  V30 1095 H 100.824 -0.597059 5.00451 0
M  V30 1096 H 100.426 0.545054 3.70007 0
M  V30 1097 H 102.718 -0.248877 6.77043 0
M  V30 1098 H 103.661 1.26253 6.96754 0
M  V30 1099 H 104.069 0.131275 5.64347 0
M  V30 1100 N 103.467 -1.45747 0.599634 0
M  V30 1101 C 104.697 -2.06369 0.0977132 0
M  V30 1102 C 105.105 -1.44624 -1.21985 0
M  V30 1103 O 104.448 -0.551831 -1.75216 0
M  V30 1104 C 104.51 -3.59284 -0.124673 0
M  V30 1105 C 104.174 -4.43318 1.10987 0
M  V30 1106 C 105.171 -4.78796 2.02609 0
M  V30 1107 C 102.856 -4.84194 1.33647 0
M  V30 1108 C 104.85 -5.53997 3.15224 0
M  V30 1109 C 102.537 -5.5915 2.46565 0
M  V30 1110 C 103.535 -5.93968 3.37182 0
M  V30 1111 O 103.223 -6.67405 4.48136 0
M  V30 1112 H 102.955 -0.673122 0.0623153 0
M  V30 1113 H 105.509 -1.88104 0.824981 0
M  V30 1114 H 103.739 -3.75919 -0.906745 0
M  V30 1115 H 105.428 -4.01775 -0.577201 0
M  V30 1116 H 106.194 -4.47781 1.86325 0
M  V30 1117 H 102.073 -4.56534 0.64016 0
M  V30 1118 H 105.617 -5.81091 3.85978 0
M  V30 1119 H 101.514 -5.89579 2.62805 0
M  V30 1120 H 102.282 -6.85847 4.46717 0
M  V30 1121 N 104.945 -0.338344 -1.53925 0
M  V30 1122 C 106.191 0.260143 -2.01125 0
M  V30 1123 C 106.524 1.50617 -1.22589 0
M  V30 1124 O 105.799 1.91979 -0.312113 0
M  V30 1125 C 106.082 0.579499 -3.55407 0
M  V30 1126 C 105.935 -0.678264 -4.44657 0
M  V30 1127 C 107.254 1.39122 -4.17532 0
M  V30 1128 H 104.373 0.0930772 -0.731099 0
M  V30 1129 H 107.015 -0.457852 -1.84401 0
M  V30 1130 H 105.165 1.19118 -3.69788 0
M  V30 1131 H 106.837 -1.31631 -4.42121 0
M  V30 1132 H 105.08 -1.3042 -4.13731 0
M  V30 1133 H 105.751 -0.410143 -5.50474 0
M  V30 1134 H 108.227 0.874035 -4.06817 0
M  V30 1135 H 107.103 1.58342 -5.25565 0
M  V30 1136 H 107.364 2.39178 -3.71815 0
M  V30 1137 N 106.423 1.57458 -0.0668435 0
M  V30 1138 C 107.7 1.8469 0.644132 0
M  V30 1139 C 108.08 0.958343 1.88093 0
M  V30 1140 O 107.428 0.0233579 2.28488 0
M  V30 1141 C 107.638 3.34767 0.986509 0
M  V30 1142 C 108.986 4.02159 1.36212 0
M  V30 1143 O 110.01 3.39484 1.07839 0
M  V30 1144 O 108.869 5.12694 1.89227 0
M  V30 1145 H 105.963 0.762816 0.319437 0
M  V30 1146 H 108.509 1.6942 -0.0973986 0
M  V30 1147 H 107.281 3.91151 0.107883 0
M  V30 1148 H 106.904 3.55281 1.78497 0
M  V30 1149 N 107.901 -0.206675 1.56239 0
M  V30 1150 C 108.811 -1.27686 1.96808 0
M  V30 1151 C 109.827 -1.50455 0.874035 0
M  V30 1152 O 111.003 -1.63295 1.17884 0
M  V30 1153 C 108.068 -2.60358 2.28942 0
M  V30 1154 C 107.129 -2.45762 3.51994 0
M  V30 1155 C 106.362 -3.72108 3.82585 0
M  V30 1156 O 106.585 -4.75776 3.14631 0
M  V30 1157 O 105.519 -3.6833 4.76043 0
M  V30 1158 H 109.345 -0.962593 2.88041 0
M  V30 1159 H 106.93 -0.410746 1.43643 0
M  V30 1160 H 108.812 -3.38687 2.50737 0
M  V30 1161 H 107.487 -2.91435 1.4088 0
M  V30 1162 H 106.394 -1.65584 3.35459 0
M  V30 1163 H 107.727 -2.19621 4.40486 0
M  V30 1164 N 109.379 -1.50304 -0.473955 0
M  V30 1165 C 110.628 -1.60392 -1.22301 0
M  V30 1166 C 110.941 -0.308411 -1.93153 0
M  V30 1167 O 112.147 -0.288156 -2.69966 0
M  V30 1168 C 110.603 -2.83109 -2.2221 0
M  V30 1169 C 110.211 -4.19524 -1.57173 0
M  V30 1170 C 111.955 -3.0254 -2.97775 0
M  V30 1171 C 109.862 -5.33431 -2.55353 0
M  V30 1172 H 108.792 -0.597286 -0.460179 0
M  V30 1173 H 111.443 -1.76731 -0.493803 0
M  V30 1174 H 109.825 -2.60322 -2.9841 0
M  V30 1175 H 110.999 -4.52554 -0.867824 0
M  V30 1176 H 109.314 -4.05674 -0.939002 0
M  V30 1177 H 111.911 -3.84811 -3.71248 0
M  V30 1178 H 112.254 -2.14154 -3.56992 0
M  V30 1179 H 112.787 -3.25494 -2.28688 0
M  V30 1180 H 109.526 -6.23962 -2.00878 0
M  V30 1181 H 109.046 -5.04823 -3.23904 0
M  V30 1182 H 110.725 -5.63887 -3.17239 0
M  V30 1183 N 110.857 0.726932 -1.39834 0
M  V30 1184 C 112.104 1.48664 -1.37496 0
M  V30 1185 C 112.432 1.94482 0.0264678 0
M  V30 1186 O 111.687 1.67692 1.00886 0
M  V30 1187 C 111.986 2.73495 -2.30077 0
M  V30 1188 C 111.652 2.46502 -3.77555 0
M  V30 1189 C 110.314 2.3885 -4.17737 0
M  V30 1190 C 112.666 2.23604 -4.70798 0
M  V30 1191 C 109.994 2.06352 -5.49214 0
M  V30 1192 C 112.346 1.92622 -6.02561 0
M  V30 1193 C 111.01 1.83444 -6.41798 0
M  V30 1194 H 110.28 0.544001 -0.503135 0
M  V30 1195 H 112.927 0.833657 -1.72402 0
M  V30 1196 H 111.232 3.43575 -1.88317 0
M  V30 1197 H 112.929 3.31549 -2.25558 0
M  V30 1198 H 109.519 2.5334 -3.45712 0
M  V30 1199 H 113.703 2.28479 -4.40581 0
M  V30 1200 H 108.959 1.97776 -5.78528 0
M  V30 1201 H 113.133 1.73914 -6.74334 0
M  V30 1202 H 110.76 1.58029 -7.43593 0
M  V30 1203 N 112.336 1.25143 0.95797 0
M  V30 1204 C 113.561 1.12521 1.74223 0
M  V30 1205 C 113.986 -0.317402 1.85403 0
M  V30 1206 O 113.344 -1.2299 1.33204 0
M  V30 1207 C 113.392 1.78062 3.1357 0
M  V30 1208 O 112.496 1.058 3.98598 0
M  V30 1209 H 111.837 0.39304 0.535178 0
M  V30 1210 H 114.367 1.65641 1.201 0
M  V30 1211 H 114.377 1.84213 3.64046 0
M  V30 1212 H 113.052 2.83021 3.04749 0
M  V30 1213 H 111.629 1.07506 3.57067 0
M  V30 1214 N 113.814 -1.1601 1.06675 0
M  V30 1215 C 115.062 -1.86264 0.784229 0
M  V30 1216 C 115.383 -1.82328 -0.691488 0
M  V30 1217 O 114.653 -1.25947 -1.50047 0
M  V30 1218 H 113.233 -0.689621 0.28711 0
M  V30 1219 H 115.895 -1.40664 1.34906 0
M  V30 1220 H 114.991 -2.91595 1.11259 0
M  V30 1221 N 115.292 -0.849877 -1.32721 0
M  V30 1222 C 116.222 -0.306308 -2.31482 0
M  V30 1223 C 117.203 0.591952 -1.59468 0
M  V30 1224 O 118.388 0.513199 -1.87296 0
M  V30 1225 C 115.518 0.510204 -3.43532 0
M  V30 1226 C 114.472 -0.293209 -4.26994 0
M  V30 1227 C 113.798 0.647743 -5.30762 0
M  V30 1228 C 115.098 -1.51634 -4.99804 0
M  V30 1229 H 116.792 -1.13153 -2.77195 0
M  V30 1230 H 114.338 -0.545553 -1.33266 0
M  V30 1231 H 116.291 0.900856 -4.11658 0
M  V30 1232 H 115.015 1.36874 -2.96535 0
M  V30 1233 H 113.674 -0.665555 -3.60508 0
M  V30 1234 H 113.322 1.50299 -4.8002 0
M  V30 1235 H 113.022 0.11422 -5.87489 0
M  V30 1236 H 114.546 1.03567 -6.01753 0
M  V30 1237 H 115.96 -1.19824 -5.60638 0
M  V30 1238 H 114.357 -1.98745 -5.66234 0
M  V30 1239 H 115.427 -2.28018 -4.27943 0
M  V30 1240 N 116.77 1.45427 -0.607355 0
M  V30 1241 C 118.047 1.9557 -0.0344566 0
M  V30 1242 C 118.427 1.54979 1.43334 0
M  V30 1243 O 117.775 0.812241 2.13576 0
M  V30 1244 C 117.985 3.48226 -0.232321 0
M  V30 1245 C 119.333 4.2445 -0.113001 0
M  V30 1246 O 120.357 3.55829 -0.162431 0
M  V30 1247 O 119.216 5.465 0.00209442 0
M  V30 1248 H 116.31 0.826222 0.0358667 0
M  V30 1249 H 118.856 1.55594 -0.6774 0
M  V30 1250 H 117.628 3.70739 -1.25174 0
M  V30 1251 H 117.251 3.95092 0.445896 0
M  V30 1252 N 118.248 0.346503 1.53744 0
M  V30 1253 C 119.478 -0.250047 2.05081 0
M  V30 1254 C 119.886 -1.44529 1.22098 0
M  V30 1255 O 119.229 -1.81992 0.249917 0
M  V30 1256 C 119.291 -0.725934 3.52094 0
M  V30 1257 C 118.955 0.350053 4.55657 0
M  V30 1258 C 119.952 1.19372 5.0601 0
M  V30 1259 C 117.637 0.504827 4.99757 0
M  V30 1260 C 119.631 2.17768 5.99046 0
M  V30 1261 C 117.318 1.49218 5.92602 0
M  V30 1262 C 118.316 2.32706 6.42135 0
M  V30 1263 O 118.004 3.2976 7.33153 0
M  V30 1264 H 117.736 -0.0515469 0.674032 0
M  V30 1265 H 120.29 0.497559 1.99282 0
M  V30 1266 H 118.52 -1.52483 3.55367 0
M  V30 1267 H 120.209 -1.24336 3.86388 0
M  V30 1268 H 120.975 1.08525 4.72702 0
M  V30 1269 H 116.854 -0.135178 4.60802 0
M  V30 1270 H 120.398 2.82971 6.37631 0
M  V30 1271 H 116.295 1.6012 6.25325 0
M  V30 1272 H 117.063 3.25265 7.51096 0
M  V30 1273 N 119.726 -1.57421 0.075193 0
M  V30 1274 C 120.689 -2.11791 -0.876203 0
M  V30 1275 C 121.689 -1.04268 -1.22412 0
M  V30 1276 O 122.879 -1.30242 -1.15684 0
M  V30 1277 C 120.011 -2.62207 -2.17854 0
M  V30 1278 H 121.204 -2.9716 -0.40444 0
M  V30 1279 H 118.757 -1.55333 -0.173557 0
M  V30 1280 H 119.492 -1.803 -2.6956 0
M  V30 1281 H 119.277 -3.40802 -1.93897 0
M  V30 1282 H 120.767 -3.04335 -2.85955 0
M  V30 1283 N 121.204 0.198386 -1.56346 0
M  V30 1284 C 122.152 1.26538 -1.95169 0
M  V30 1285 C 123.146 1.47295 -0.836685 0
M  V30 1286 O 124.352 1.48195 -1.02167 0
M  V30 1287 H 120.727 0.424744 -0.620561 0
M  V30 1288 H 122.698 0.910904 -2.84157 0
M  V30 1289 C 121.447 2.6035 -2.30463 0
M  V30 1290 H 120.77 2.45192 -3.15786 0
M  V30 1291 H 122.21 3.33762 -2.61494 0
M  V30 1292 C 120.669 3.17096 -1.13806 0
M  V30 1293 O 121.199 3.99588 -0.41135 0
M  V30 1294 N 119.405 2.75795 -0.915736 0
M  V30 1295 H 118.952 2.08816 -1.50843 0
M  V30 1296 H 118.91 3.14101 -0.136979 0
M  V30 1297 N 122.682 1.50554 0.465978 0
M  V30 1298 C 123.929 1.61798 1.21768 0
M  V30 1299 C 124.257 0.320696 1.91838 0
M  V30 1300 O 123.512 -0.693724 1.82992 0
M  V30 1301 C 123.811 2.75152 2.28093 0
M  V30 1302 C 123.477 4.15454 1.75239 0
M  V30 1303 C 122.139 4.53628 1.60546 0
M  V30 1304 C 124.491 5.03121 1.36083 0
M  V30 1305 C 121.819 5.77204 1.05128 0
M  V30 1306 C 124.171 6.27249 0.821056 0
M  V30 1307 C 122.835 6.64221 0.660795 0
M  V30 1308 H 122.105 0.592063 0.445582 0
M  V30 1309 H 124.752 1.84503 0.512927 0
M  V30 1310 H 123.057 2.46556 3.04496 0
M  V30 1311 H 124.754 2.81055 2.86023 0
M  V30 1312 H 121.344 3.85341 1.87644 0
M  V30 1313 H 125.528 4.74257 1.46267 0
M  V30 1314 H 120.784 6.0452 0.91462 0
M  V30 1315 H 124.958 6.94537 0.509018 0
M  V30 1316 H 122.585 7.59854 0.229226 0
M  V30 1317 N 124.16 -0.719506 1.40217 0
M  V30 1318 C 125.571 -1.29848 1.34151 0
M  V30 1319 C 125.922 -1.96196 0.0131349 0
M  V30 1320 O 125.047 -1.973 -0.88892 0
M  V30 1321 C 125.642 -2.36118 2.42968 0
M  V30 1322 C 124.201 -2.8965 2.40374 0
M  V30 1323 C 123.348 -1.63393 2.24049 0
M  V30 1324 H 126.299 -0.51591 1.5008 0
M  V30 1325 H 126.32 -3.16871 2.10649 0
M  V30 1326 H 125.832 -1.878 3.39636 0
M  V30 1327 H 123.933 -3.42208 1.47392 0
M  V30 1328 H 124.046 -3.4171 3.35814 0
M  V30 1329 H 122.41 -1.88312 1.71495 0
M  V30 1330 H 123.193 -1.17104 3.2271 0
M  V30 1331 N 125.638 -1.25649 -0.95132 0
M  V30 1332 C 126.585 -1.06323 -2.04851 0
M  V30 1333 C 127.555 0.0286491 -1.66075 0
M  V30 1334 O 128.74 -0.12917 -1.90362 0
M  V30 1335 C 125.88 -0.691529 -3.381 0
M  V30 1336 C 124.993 -1.85861 -3.89974 0
M  V30 1337 C 124.128 -1.43096 -5.11563 0
M  V30 1338 C 123.167 -2.56696 -5.55674 0
M  V30 1339 N 122.304 -2.14684 -6.68472 0
M  V30 1340 H 127.144 -2.00222 -2.20715 0
M  V30 1341 H 124.681 -0.997027 -1.08156 0
M  V30 1342 H 126.639 -0.456963 -4.1469 0
M  V30 1343 H 125.269 0.210474 -3.22113 0
M  V30 1344 H 124.321 -2.20639 -3.09875 0
M  V30 1345 H 125.633 -2.71161 -4.18657 0
M  V30 1346 H 124.787 -1.15624 -5.9558 0
M  V30 1347 H 123.526 -0.548722 -4.84603 0
M  V30 1348 H 122.531 -2.84909 -4.7022 0
M  V30 1349 H 123.756 -3.45503 -5.8464 0
M  V30 1350 H 121.702 -1.28881 -6.43215 0
M  V30 1351 H 121.619 -2.9353 -6.96689 0
M  V30 1352 H 122.887 -1.90397 -7.5589 0
M  V30 1353 N 127.117 1.15442 -1.07289 0
M  V30 1354 C 128.366 1.85557 -0.790669 0
M  V30 1355 C 128.679 1.83186 0.685739 0
M  V30 1356 O 129.885 2.48977 1.0827 0
M  V30 1357 C 128.341 3.33038 -1.36433 0
M  V30 1358 C 127.949 3.43856 -2.8717 0
M  V30 1359 C 129.693 4.0834 -1.1601 0
M  V30 1360 C 127.6 4.85482 -3.3773 0
M  V30 1361 H 126.53 0.695122 -0.292098 0
M  V30 1362 H 129.181 1.30219 -1.29287 0
M  V30 1363 H 127.563 3.88043 -0.789864 0
M  V30 1364 H 128.737 2.98961 -3.50655 0
M  V30 1365 H 127.052 2.81998 -3.06376 0
M  V30 1366 H 129.649 5.12859 -1.51262 0
M  V30 1367 H 129.992 4.16182 -0.0991007 0
M  V30 1368 H 130.525 3.59603 -1.70089 0
M  V30 1369 H 127.264 4.82823 -4.43353 0
M  V30 1370 H 126.784 5.30961 -2.78999 0
M  V30 1371 H 128.463 5.54335 -3.33648 0
M  V30 1372 N 128.595 0.856903 1.32268 0
M  V30 1373 C 129.823 0.475439 2.01363 0
M  V30 1374 C 130.238 -0.928486 1.64392 0
M  V30 1375 O 129.595 -1.60624 0.866387 0
M  V30 1376 C 129.646 0.607545 3.56358 0
M  V30 1377 O 129.367 1.95617 3.92002 0
M  V30 1378 C 130.868 0.225382 4.42727 0
M  V30 1379 H 128.088 0.186636 0.644521 0
M  V30 1380 H 130.632 1.15446 1.68797 0
M  V30 1381 H 128.787 -0.0237719 3.87393 0
M  V30 1382 H 129.201 1.95455 4.86721 0
M  V30 1383 H 130.675 0.368813 5.50767 0
M  V30 1384 H 131.152 -0.834369 4.31202 0
M  V30 1385 H 131.758 0.831864 4.17085 0
M  V30 1386 N 130.073 -1.45103 0.615059 0
M  V30 1387 C 131.003 -2.33339 -0.0865619 0
M  V30 1388 C 131.984 -1.4727 -0.851209 0
M  V30 1389 O 133.169 -1.76026 -0.820281 0
M  V30 1390 C 130.299 -3.30095 -1.07956 0
M  V30 1391 C 129.253 -4.25858 -0.427628 0
M  V30 1392 C 128.579 -5.12361 -1.5294 0
M  V30 1393 C 129.879 -5.18165 0.655944 0
M  V30 1394 H 131.573 -2.92254 0.650224 0
M  V30 1395 H 129.119 -1.40532 0.314138 0
M  V30 1396 H 131.072 -3.90698 -1.57901 0
M  V30 1397 H 129.796 -2.69355 -1.84703 0
M  V30 1398 H 128.455 -3.66564 0.0510292 0
M  V30 1399 H 128.103 -4.47984 -2.28734 0
M  V30 1400 H 127.803 -5.77238 -1.09865 0
M  V30 1401 H 129.327 -5.75833 -2.03098 0
M  V30 1402 H 130.741 -5.72796 0.240257 0
M  V30 1403 H 129.138 -5.91559 1.00888 0
M  V30 1404 H 130.208 -4.60144 1.52957 0
M  V30 1405 N 131.551 -0.354651 -1.53558 0
M  V30 1406 C 132.8 0.239504 -2.00273 0
M  V30 1407 C 133.113 1.50759 -1.24623 0
M  V30 1408 O 134.319 2.17968 -1.61871 0
M  V30 1409 C 132.775 0.477341 -3.5672 0
M  V30 1410 C 132.383 -0.775488 -4.41237 0
M  V30 1411 C 134.127 1.02975 -4.11821 0
M  V30 1412 C 132.034 -0.507838 -5.89216 0
M  V30 1413 H 130.964 0.0932743 -0.748208 0
M  V30 1414 H 133.615 -0.471701 -1.77334 0
M  V30 1415 H 131.997 1.24953 -3.7577 0
M  V30 1416 H 133.171 -1.54963 -4.33962 0
M  V30 1417 H 131.486 -1.25033 -3.97185 0
M  V30 1418 H 134.083 1.24513 -5.2 0
M  V30 1419 H 134.426 1.98862 -3.65731 0
M  V30 1420 H 134.959 0.317994 -3.96527 0
M  V30 1421 H 131.698 -1.43674 -6.39561 0
M  V30 1422 H 131.218 0.228011 -5.99366 0
M  V30 1423 H 132.897 -0.129238 -6.46871 0
M  V30 1424 N 133.029 1.57378 -0.0835403 0
M  V30 1425 C 133.939 2.16897 0.894021 0
M  V30 1426 C 134.955 1.13528 1.31861 0
M  V30 1427 O 136.131 1.45848 1.3889 0
M  V30 1428 C 133.196 2.72831 2.13925 0
M  V30 1429 C 132.257 3.91115 1.76997 0
M  V30 1430 C 131.49 4.44371 2.95584 0
M  V30 1431 O 131.713 3.96596 4.09961 0
M  V30 1432 O 130.647 5.35549 2.74719 0
M  V30 1433 H 134.473 3.00814 0.417679 0
M  V30 1434 H 132.058 1.48741 0.140181 0
M  V30 1435 H 133.94 3.0863 2.86924 0
M  V30 1436 H 132.615 1.91967 2.60635 0
M  V30 1437 H 131.522 3.60148 1.01214 0
M  V30 1438 H 132.855 4.73307 1.3506 0
M  V30 1439 N 134.507 -0.190092 1.56449 0
M  V30 1440 C 135.455 -1.25501 1.95837 0
M  V30 1441 C 136.449 -1.4685 0.844485 0
M  V30 1442 O 137.655 -1.47651 1.02952 0
M  V30 1443 H 134.03 -0.421447 0.622805 0
M  V30 1444 H 136.001 -0.895821 2.84636 0
M  V30 1445 C 134.75 -2.59124 2.31841 0
M  V30 1446 H 134.073 -2.43514 3.17082 0
M  V30 1447 H 135.513 -3.32371 2.6326 0
M  V30 1448 C 133.972 -3.16488 1.15486 0
M  V30 1449 O 134.502 -3.99365 0.432535 0
M  V30 1450 N 132.708 -2.75305 0.930349 0
M  V30 1451 H 132.255 -2.08013 1.51948 0
M  V30 1452 H 132.213 -3.14024 0.153634 0
M  V30 1453 N 135.985 -1.50799 -0.457987 0
M  V30 1454 C 136.932 -1.70617 -1.5543 0
M  V30 1455 C 137.902 -0.547562 -1.56815 0
M  V30 1456 O 139.087 -0.779647 -1.74144 0
M  V30 1457 C 136.227 -1.81831 -2.93311 0
M  V30 1458 C 135.34 -3.09278 -3.01615 0
M  V30 1459 C 134.475 -3.11209 -4.30491 0
M  V30 1460 C 133.514 -4.33055 -4.32585 0
M  V30 1461 N 132.651 -4.32652 -5.52952 0
M  V30 1462 H 137.491 -2.64207 -1.37836 0
M  V30 1463 H 135.028 -1.30959 -0.669937 0
M  V30 1464 H 136.986 -1.86314 -3.73287 0
M  V30 1465 H 135.616 -0.916685 -3.0951 0
M  V30 1466 H 134.668 -3.14203 -2.1443 0
M  V30 1467 H 135.98 -3.99233 -2.99022 0
M  V30 1468 H 135.134 -3.14494 -5.18824 0
M  V30 1469 H 133.873 -2.19106 -4.35711 0
M  V30 1470 H 132.878 -4.29969 -3.42647 0
M  V30 1471 H 134.103 -5.264 -4.29046 0
M  V30 1472 H 132.049 -3.43409 -5.58933 0
M  V30 1473 H 131.966 -5.16392 -5.52155 0
M  V30 1474 H 133.234 -4.40101 -6.43375 0
M  V30 1475 N 137.463 0.71206 -1.40597 0
M  V30 1476 C 138.396 1.83582 -1.35546 0
M  V30 1477 C 139.374 1.61032 -0.225284 0
M  V30 1478 O 140.558 1.83998 -0.409519 0
M  V30 1479 C 137.685 3.19983 -1.11034 0
M  V30 1480 C 136.731 3.61355 -2.2655 0
M  V30 1481 S 137.564 3.68062 -3.88961 0
M  V30 1482 C 138.72 5.07216 -3.66719 0
M  V30 1483 H 138.953 1.87586 -2.30648 0
M  V30 1484 H 136.486 0.879182 -1.26924 0
M  V30 1485 H 138.444 3.98734 -0.975761 0
M  V30 1486 H 137.105 3.13608 -0.175798 0
M  V30 1487 H 136.298 4.60403 -2.0505 0
M  V30 1488 H 135.9 2.8987 -2.36329 0
M  V30 1489 H 138.192 5.94238 -3.25404 0
M  V30 1490 H 139.135 5.33753 -4.6531 0
M  V30 1491 H 139.543 4.77976 -3.00332 0
M  V30 1492 N 138.941 1.26152 0.944643 0
M  V30 1493 C 139.888 1.07408 2.04285 0
M  V30 1494 C 140.858 -0.0198413 1.66088 0
M  V30 1495 O 142.043 0.139264 1.90291 0
M  V30 1496 C 139.183 0.70945 3.37729 0
M  V30 1497 C 138.296 1.87926 3.88983 0
M  V30 1498 C 137.431 1.45807 5.10797 0
M  V30 1499 C 136.47 2.5964 5.54305 0
M  V30 1500 N 135.607 2.18226 6.67324 0
M  V30 1501 H 140.447 2.01389 2.1965 0
M  V30 1502 H 137.984 1.00275 1.07626 0
M  V30 1503 H 139.942 0.478948 4.14442 0
M  V30 1504 H 138.572 -0.193389 3.2222 0
M  V30 1505 H 137.624 2.22279 3.08701 0
M  V30 1506 H 138.936 2.73377 4.17213 0
M  V30 1507 H 138.09 1.18781 5.94959 0
M  V30 1508 H 136.829 0.574414 4.84305 0
M  V30 1509 H 135.834 2.87399 4.68702 0
M  V30 1510 H 137.059 3.48599 5.828 0
M  V30 1511 H 135.005 1.3229 6.42523 0
M  V30 1512 H 134.922 2.97221 6.95123 0
M  V30 1513 H 136.19 1.94403 7.54869 0
M  V30 1514 N 140.419 -1.14872 1.07899 0
M  V30 1515 C 141.665 -1.86064 0.806725 0
M  V30 1516 C 141.998 -1.82434 -0.665706 0
M  V30 1517 O 141.273 -1.25138 -1.48899 0
M  V30 1518 C 141.556 -3.34929 1.32267 0
M  V30 1519 C 141.409 -3.47161 2.86006 0
M  V30 1520 C 142.728 -4.29863 0.943717 0
M  V30 1521 H 139.847 -0.675591 0.294526 0
M  V30 1522 H 142.489 -1.34925 1.33773 0
M  V30 1523 H 140.639 -3.78611 0.870974 0
M  V30 1524 H 142.311 -3.12302 3.39507 0
M  V30 1525 H 140.554 -2.88539 3.23925 0
M  V30 1526 H 141.225 -4.51777 3.17177 0
M  V30 1527 H 143.701 -3.9417 1.33302 0
M  V30 1528 H 142.577 -5.32494 1.33198 0
M  V30 1529 H 142.838 -4.41846 -0.149796 0
M  V30 1530 N 141.898 -0.863906 -1.31812 0
M  V30 1531 C 143.175 -0.39275 -1.91616 0
M  V30 1532 C 143.555 1.12461 -1.7865 0
M  V30 1533 O 142.903 1.95045 -1.19037 0
M  V30 1534 C 143.113 -0.867385 -3.38049 0
M  V30 1535 C 144.461 -0.889966 -4.15168 0
M  V30 1536 O 145.485 -0.812635 -3.46806 0
M  V30 1537 O 144.344 -1.00079 -5.37258 0
M  V30 1538 H 141.438 -0.116358 -0.818773 0
M  V30 1539 H 143.984 -0.951418 -1.40521 0
M  V30 1540 H 142.756 -1.91081 -3.41473 0
M  V30 1541 H 142.379 -0.286687 -3.96565 0
M  V30 1542 N 143.376 1.44774 -0.622745 0
M  V30 1543 C 144.286 2.34433 0.0886031 0
M  V30 1544 C 145.302 1.52131 0.844529 0
M  V30 1545 O 146.478 1.84886 0.798691 0
M  V30 1546 C 143.543 3.29986 1.0635 0
M  V30 1547 C 142.604 4.28195 0.307873 0
M  V30 1548 C 141.837 5.19183 1.23633 0
M  V30 1549 O 142.06 5.13918 2.47476 0
M  V30 1550 O 140.994 5.97515 0.725189 0
M  V30 1551 H 144.82 2.96693 -0.648599 0
M  V30 1552 H 142.405 1.44408 -0.382957 0
M  V30 1553 H 144.287 3.88825 1.6246 0
M  V30 1554 H 142.962 2.70269 1.78146 0
M  V30 1555 H 141.869 3.72927 -0.296064 0
M  V30 1556 H 143.202 4.90808 -0.3699 0
M  V30 1557 N 144.854 0.36279 1.53368 0
M  V30 1558 C 145.787 -0.528507 2.21996 0
M  V30 1559 C 146.765 -1.0852 1.21087 0
M  V30 1560 O 147.949 -1.14186 1.4998 0
M  V30 1561 C 145.076 -1.72893 2.91249 0
M  V30 1562 C 144.122 -1.29994 4.06207 0
M  V30 1563 S 144.955 -0.303575 5.34639 0
M  V30 1564 C 146.111 -1.51039 6.07403 0
M  V30 1565 H 146.344 0.0543423 2.9725 0
M  V30 1566 H 143.877 0.146889 1.537 0
M  V30 1567 H 145.835 -2.41751 3.31763 0
M  V30 1568 H 144.496 -2.28303 2.15724 0
M  V30 1569 H 143.689 -2.19549 4.53667 0
M  V30 1570 H 143.291 -0.690608 3.67569 0
M  V30 1571 H 145.583 -2.44186 6.31965 0
M  V30 1572 H 146.526 -1.07721 6.99858 0
M  V30 1573 H 146.934 -1.71518 5.37812 0
M  V30 1574 N 146.332 -1.57332 0.0918853 0
M  V30 1575 C 147.578 -1.94524 -0.573425 0
M  V30 1576 C 147.911 -0.973578 -1.68033 0
M  V30 1577 O 147.186 -0.00609226 -1.94499 0
M  V30 1578 C 147.469 -3.41858 -1.13161 0
M  V30 1579 C 147.322 -4.4979 -0.0299747 0
M  V30 1580 C 148.641 -3.90435 -2.03098 0
M  V30 1581 H 145.76 -0.70734 -0.206975 0
M  V30 1582 H 148.402 -1.89309 0.161942 0
M  V30 1583 H 146.552 -3.46433 -1.7583 0
M  V30 1584 H 148.224 -4.57327 0.604112 0
M  V30 1585 H 146.467 -4.291 0.636833 0
M  V30 1586 H 147.138 -5.50069 -0.461287 0
M  V30 1587 H 149.614 -3.87992 -1.50338 0
M  V30 1588 H 148.49 -4.94097 -2.39081 0
M  V30 1589 H 148.751 -3.29541 -2.94712 0
M  V30 1590 N 147.81 0.181792 -1.56548 0
M  V30 1591 C 149.038 0.915947 -1.85521 0
M  V30 1592 C 149.453 1.76282 -0.676016 0
M  V30 1593 O 148.81 1.79012 0.355077 0
M  V30 1594 C 148.861 1.80126 -3.13427 0
M  V30 1595 O 148.582 0.988562 -4.26801 0
M  V30 1596 C 150.083 2.64597 -3.55673 0
M  V30 1597 H 147.303 0.26661 -0.61576 0
M  V30 1598 H 149.847 0.185039 -2.03661 0
M  V30 1599 H 148.002 2.48563 -2.97145 0
M  V30 1600 H 148.416 1.59308 -4.99721 0
M  V30 1601 H 149.89 3.2235 -4.48101 0
M  V30 1602 H 150.367 3.38958 -2.79292 0
M  V30 1603 H 150.973 2.0151 -3.74532 0
M  V30 1604 N 149.288 1.51039 0.449983 0
M  V30 1605 C 150.534 1.63322 1.20223 0
M  V30 1606 C 150.867 0.34241 1.91158 0
M  V30 1607 O 150.142 -0.657344 1.83055 0
M  V30 1608 C 150.425 2.82801 2.22925 0
M  V30 1609 C 150.278 4.21823 1.56157 0
M  V30 1610 C 151.597 2.97807 3.24035 0
M  V30 1611 H 148.716 0.594407 0.435718 0
M  V30 1612 H 151.358 1.83489 0.493136 0
M  V30 1613 H 149.508 2.65738 2.834 0
M  V30 1614 H 151.18 4.50526 0.991162 0
M  V30 1615 H 149.423 4.25105 0.864172 0
M  V30 1616 H 150.094 5.01391 2.30891 0
M  V30 1617 H 152.57 3.13497 2.73603 0
M  V30 1618 H 151.446 3.82992 3.93202 0
M  V30 1619 H 151.707 2.09328 3.89402 0
M  V30 1620 N 150.766 -0.704594 1.40972 0
M  V30 1621 C 152.182 -1.01406 1.23244 0
M  V30 1622 C 152.382 -2.01169 0.115399 0
M  V30 1623 O 151.438 -2.47021 -0.523147 0
M  V30 1624 C 152.751 -1.54728 2.57836 0
M  V30 1625 C 154.299 -1.66658 2.64942 0
M  V30 1626 C 154.774 -2.23383 3.9983 0
M  V30 1627 N 156.265 -2.30756 4.01629 0
M  V30 1628 C 157 -2.75655 5.02794 0
M  V30 1629 N 156.496 -3.20225 6.14352 0
M  V30 1630 N 158.289 -2.75138 4.90159 0
M  V30 1631 H 150.44 -0.0435285 2.12355 0
M  V30 1632 H 152.703 -0.0818951 0.944456 0
M  V30 1633 H 152.409 -0.888832 3.40283 0
M  V30 1634 H 152.283 -2.53084 2.79693 0
M  V30 1635 H 154.67 -2.31617 1.8286 0
M  V30 1636 H 154.751 -0.668717 2.46904 0
M  V30 1637 H 154.395 -1.59043 4.82357 0
M  V30 1638 H 154.325 -3.23904 4.15203 0
M  V30 1639 H 156.816 -1.99291 3.21079 0
M  V30 1640 H 157.129 -3.53084 6.87424 0
M  V30 1641 H 155.474 -3.18156 6.17901 0
M  V30 1642 H 158.665 -2.39661 4.02095 0
M  V30 1643 H 158.838 -3.09812 5.6914 0
M  V30 1644 N 152.244 -1.26651 -0.937939 0
M  V30 1645 C 153.521 -1.0313 -1.66204 0
M  V30 1646 C 153.901 0.437256 -2.06522 0
M  V30 1647 O 153.249 1.41831 -1.79154 0
M  V30 1648 C 153.459 -1.98314 -2.87181 0
M  V30 1649 C 154.807 -2.27107 -3.58758 0
M  V30 1650 O 155.831 -1.96205 -2.97291 0
M  V30 1651 O 154.69 -2.79736 -4.69479 0
M  V30 1652 H 151.784 -0.392384 -0.727986 0
M  V30 1653 H 154.33 -1.37874 -0.989382 0
M  V30 1654 H 153.102 -2.97399 -2.54302 0
M  V30 1655 H 152.725 -1.64068 -3.6217 0
M  V30 1656 N 153.722 1.14298 -1.08507 0
M  V30 1657 C 154.971 1.84708 -0.810305 0
M  V30 1658 C 155.284 1.83903 0.666271 0
M  V30 1659 O 156.49 2.50112 1.05624 0
M  V30 1660 C 154.946 3.31572 -1.39957 0
M  V30 1661 C 154.554 3.40791 -2.90801 0
M  V30 1662 C 156.298 4.07087 -1.20334 0
M  V30 1663 C 154.205 4.81872 -3.4286 0
M  V30 1664 H 153.135 0.691985 -0.299454 0
M  V30 1665 H 155.786 1.28841 -1.30661 0
M  V30 1666 H 154.168 3.87183 -0.830976 0
M  V30 1667 H 155.342 2.95225 -3.53806 0
M  V30 1668 H 153.657 2.78732 -3.0935 0
M  V30 1669 H 156.254 5.11225 -1.56693 0
M  V30 1670 H 156.597 4.16054 -0.143237 0
M  V30 1671 H 157.13 3.57779 -1.73893 0
M  V30 1672 H 153.869 4.78094 -4.48449 0
M  V30 1673 H 153.389 5.27972 -2.84615 0
M  V30 1674 H 155.068 5.50765 -3.39509 0
M  V30 1675 N 155.201 0.870884 1.31352 0
M  V30 1676 C 156.429 0.49677 2.00848 0
M  V30 1677 C 156.844 -0.910998 1.65367 0
M  V30 1678 O 156.201 -1.59696 0.883374 0
M  V30 1679 C 156.252 0.645308 3.55694 0
M  V30 1680 O 155.973 1.99764 3.89905 0
M  V30 1681 C 157.474 0.272326 4.42463 0
M  V30 1682 H 154.694 0.193462 0.642506 0
M  V30 1683 H 157.238 1.1723 1.67563 0
M  V30 1684 H 155.393 0.0173176 3.87396 0
M  V30 1685 H 155.807 2.00607 4.84621 0
M  V30 1686 H 157.281 0.427208 5.50344 0
M  V30 1687 H 157.758 -0.788587 4.32062 0
M  V30 1688 H 158.364 0.876054 4.1618 0
M  V30 1689 N 156.679 -1.44442 0.630414 0
M  V30 1690 C 157.609 -2.33418 -0.0618083 0
M  V30 1691 C 158.59 -1.48165 -0.835541 0
M  V30 1692 O 159.775 -1.76886 -0.801564 0
M  V30 1693 C 156.905 -3.31222 -1.04449 0
M  V30 1694 C 155.859 -4.26288 -0.382436 0
M  V30 1695 C 155.185 -5.13954 -1.47497 0
M  V30 1696 C 156.485 -5.1744 0.710865 0
M  V30 1697 H 158.179 -2.91548 0.681184 0
M  V30 1698 H 155.725 -1.40191 0.329026 0
M  V30 1699 H 157.678 -3.92351 -1.53748 0
M  V30 1700 H 156.402 -2.71299 -1.81836 0
M  V30 1701 H 155.061 -3.6649 0.0899054 0
M  V30 1702 H 154.709 -4.50385 -2.2397 0
M  V30 1703 H 154.409 -5.7837 -1.03737 0
M  V30 1704 H 155.933 -5.77955 -1.96979 0
M  V30 1705 H 157.347 -5.72509 0.300996 0
M  V30 1706 H 155.744 -5.90455 1.07156 0
M  V30 1707 H 156.814 -4.58496 1.57829 0
M  V30 1708 N 158.157 -0.370918 -1.53173 0
M  V30 1709 C 159.385 0.217704 -2.05751 0
M  V30 1710 C 159.8 1.42018 -1.24404 0
M  V30 1711 O 159.157 1.80245 -0.286033 0
M  V30 1712 C 159.208 0.605954 -3.56385 0
M  V30 1713 O 158.929 -0.548734 -4.3465 0
M  V30 1714 C 160.43 1.2524 -4.25241 0
M  V30 1715 H 157.65 0.0371659 -0.66997 0
M  V30 1716 H 160.194 -0.530832 -1.9749 0
M  V30 1717 H 158.349 1.3044 -3.6478 0
M  V30 1718 H 158.763 -0.23376 -5.23979 0
M  V30 1719 H 160.237 1.47458 -5.3194 0
M  V30 1720 H 160.714 2.2143 -3.79296 0
M  V30 1721 H 161.32 0.595233 -4.21114 0
M  V30 1722 N 159.635 1.57281 -0.100228 0
M  V30 1723 C 160.86 1.99302 0.573881 0
M  V30 1724 C 161.285 0.979059 1.60611 0
M  V30 1725 O 160.643 -0.0517803 1.81226 0
M  V30 1726 C 160.691 3.40274 1.19358 0
M  V30 1727 O 159.795 3.41676 2.30935 0
M  V30 1728 H 159.136 0.647944 0.145138 0
M  V30 1729 H 161.666 2.03779 -0.183156 0
M  V30 1730 H 161.676 3.78078 1.53365 0
M  V30 1731 H 160.351 4.13594 0.437385 0
M  V30 1732 H 158.928 3.15672 1.98509 0
M  V30 1733 N 161.113 -0.173488 1.56642 0
M  V30 1734 C 162.341 -0.906095 1.86004 0
M  V30 1735 C 162.756 -1.75921 0.685355 0
M  V30 1736 O 162.113 -1.79198 -0.345578 0
M  V30 1737 C 162.164 -1.78462 3.14378 0
M  V30 1738 O 161.885 -0.965914 4.27319 0
M  V30 1739 C 163.386 -2.62707 3.57071 0
M  V30 1740 H 160.606 -0.263341 0.617165 0
M  V30 1741 H 163.15 -0.174236 2.03756 0
M  V30 1742 H 161.305 -2.46984 2.98459 0
M  V30 1743 H 161.719 -1.56655 5.00559 0
M  V30 1744 H 163.193 -3.19969 4.49804 0
M  V30 1745 H 163.67 -3.37472 2.81086 0
M  V30 1746 H 164.276 -1.99521 3.75595 0
M  V30 1747 N 162.591 -1.51276 -0.441967 0
M  V30 1748 C 163.831 -1.65372 -1.20132 0
M  V30 1749 C 164.195 -0.359871 -1.88597 0
M  V30 1750 O 165.396 -0.376551 -2.66149 0
M  V30 1751 C 163.667 -2.8207 -2.1948 0
M  V30 1752 S 165.226 -3.16467 -3.03964 0
M  V30 1753 H 162.044 -0.582669 -0.407453 0
M  V30 1754 H 164.646 -1.89166 -0.493609 0
M  V30 1755 H 163.35 -3.74523 -1.67812 0
M  V30 1756 H 162.881 -2.6045 -2.94838 0
M  V30 1757 H 164.896 -2.62543 -4.21053 0
M  V30 1758 N 164.069 0.697108 -1.41344 0
M  V30 1759 C 164.979 1.84088 -1.45427 0
M  V30 1760 C 165.995 1.70545 -0.34501 0
M  V30 1761 O 167.171 1.92488 -0.592492 0
M  V30 1762 C 164.236 3.20056 -1.33286 0
M  V30 1763 C 163.297 3.45718 -2.54514 0
M  V30 1764 C 162.53 4.75199 -2.42944 0
M  V30 1765 O 162.753 5.51579 -1.45318 0
M  V30 1766 O 161.687 5.0161 -3.32672 0
M  V30 1767 H 165.513 1.836 -2.41919 0
M  V30 1768 H 163.098 0.849966 -1.22866 0
M  V30 1769 H 164.98 4.01236 -1.28794 0
M  V30 1770 H 163.655 3.2123 -0.39909 0
M  V30 1771 H 162.562 2.64474 -2.64583 0
M  V30 1772 H 163.895 3.49356 -3.46715 0
M  V30 1773 N 165.547 1.27147 0.931209 0
M  V30 1774 C 166.497 1.06227 2.01742 0
M  V30 1775 C 167.481 -0.00859065 1.60898 0
M  V30 1776 O 168.673 0.209537 1.75755 0
M  V30 1777 C 165.802 0.707787 3.35924 0
M  V30 1778 C 164.888 1.81661 3.83223 0
M  V30 1779 N 165.279 3.05564 4.03069 0
M  V30 1780 C 163.577 1.70249 4.12227 0
M  V30 1781 C 164.278 3.77697 4.42403 0
M  V30 1782 N 163.254 3.0544 4.49675 0
M  V30 1783 H 167.056 2.00261 2.15111 0
M  V30 1784 H 164.57 1.1781 1.11779 0
M  V30 1785 H 166.567 0.539043 4.134 0
M  V30 1786 H 165.227 -0.224964 3.2392 0
M  V30 1787 H 166.238 3.41363 3.89476 0
M  V30 1788 H 162.915 0.840329 4.08956 0
M  V30 1789 H 164.305 4.84168 4.65866 0
M  V30 1790 N 167.025 -1.13721 1.09112 0
M  V30 1791 C 167.975 -2.17082 0.697091 0
M  V30 1792 C 168.959 -1.58321 -0.286923 0
M  V30 1793 O 170.151 -1.7673 -0.0978008 0
M  V30 1794 C 167.28 -3.43105 0.115729 0
M  V30 1795 C 166.366 -4.0888 1.12596 0
M  V30 1796 N 166.757 -4.4987 2.31195 0
M  V30 1797 C 165.055 -4.35471 0.963366 0
M  V30 1798 C 165.756 -5.01094 2.95431 0
M  V30 1799 N 164.732 -4.95751 2.23006 0
M  V30 1800 H 168.534 -2.46524 1.6001 0
M  V30 1801 H 166.048 -1.30481 0.966869 0
M  V30 1802 H 168.045 -4.16491 -0.184555 0
M  V30 1803 H 166.705 -3.15138 -0.78217 0
M  V30 1804 H 167.716 -4.42678 2.68806 0
M  V30 1805 H 164.393 -4.17328 0.119878 0
M  V30 1806 H 165.783 -5.4263 3.96236 0
M  V30 1807 N 168.503 -0.877838 -1.30888 0
M  V30 1808 C 169.75 -0.492696 -1.96415 0
M  V30 1809 C 170.078 0.956671 -1.69346 0
M  V30 1810 O 169.333 1.68993 -0.986913 0
M  V30 1811 C 169.632 -0.705748 -3.50363 0
M  V30 1812 C 169.298 -2.1291 -3.97467 0
M  V30 1813 C 167.96 -2.51834 -4.1004 0
M  V30 1814 C 170.312 -3.05702 -4.22132 0
M  V30 1815 C 167.64 -3.82775 -4.44635 0
M  V30 1816 C 169.992 -4.36166 -4.58194 0
M  V30 1817 C 168.656 -4.74993 -4.68975 0
M  V30 1818 H 167.926 -0.18029 -0.718733 0
M  V30 1819 H 170.573 -1.11233 -1.55883 0
M  V30 1820 H 168.878 -0.00303058 -3.918 0
M  V30 1821 H 170.575 -0.387456 -3.99124 0
M  V30 1822 H 167.165 -1.81694 -3.88182 0
M  V30 1823 H 171.349 -2.76853 -4.11906 0
M  V30 1824 H 166.605 -4.12609 -4.51181 0
M  V30 1825 H 170.779 -5.08111 -4.76231 0
M  V30 1826 H 168.406 -5.76495 -4.95537 0
M  V30 1827 N 169.982 1.44106 -0.638065 0
M  V30 1828 C 171.228 2.02277 -0.145546 0
M  V30 1829 C 171.561 1.50125 1.23191 0
M  V30 1830 O 170.836 0.688133 1.8192 0
M  V30 1831 C 171.119 3.59829 -0.139791 0
M  V30 1832 C 170.972 4.22247 -1.55008 0
M  V30 1833 C 172.291 4.36873 0.531966 0
M  V30 1834 H 169.41 0.734992 -0.0543632 0
M  V30 1835 H 172.052 1.71592 -0.815863 0
M  V30 1836 H 170.202 3.86102 0.431007 0
M  V30 1837 H 171.874 4.07057 -2.1703 0
M  V30 1838 H 170.117 3.79476 -2.10191 0
M  V30 1839 H 170.788 5.31284 -1.49804 0
M  V30 1840 H 173.264 4.16074 0.0464781 0
M  V30 1841 H 172.14 5.4657 0.505206 0
M  V30 1842 H 172.401 4.11995 1.60352 0
M  V30 1843 N 171.46 0.379036 1.52974 0
M  V30 1844 C 172.688 -0.20679 2.05864 0
M  V30 1845 C 173.103 -1.41356 1.25155 0
M  V30 1846 O 172.46 -1.8009 0.295588 0
M  V30 1847 C 172.511 -0.587045 3.56702 0
M  V30 1848 O 172.232 0.571776 4.34353 0
M  V30 1849 C 173.733 -1.22983 4.25899 0
M  V30 1850 H 170.953 -0.0336123 0.670158 0
M  V30 1851 H 173.497 0.541298 1.97206 0
M  V30 1852 H 171.652 -1.28504 3.65466 0
M  V30 1853 H 172.066 0.261544 5.23847 0
M  V30 1854 H 173.54 -1.44635 5.32715 0
M  V30 1855 H 174.017 -2.19416 3.80465 0
M  V30 1856 H 174.623 -0.572892 4.21424 0
M  V30 1857 N 172.938 -1.57226 0.108567 0
M  V30 1858 C 174.187 -1.94008 -0.551703 0
M  V30 1859 C 174.5 -0.993442 -1.68494 0
M  V30 1860 O 175.706 -1.25551 -2.40726 0
M  V30 1861 C 174.162 -3.44763 -1.03279 0
M  V30 1862 C 173.77 -4.47943 0.0714193 0
M  V30 1863 C 175.514 -3.90483 -1.66503 0
M  V30 1864 C 173.421 -5.89865 -0.425779 0
M  V30 1865 H 172.351 -0.724206 -0.209863 0
M  V30 1866 H 175.002 -1.82547 0.186741 0
M  V30 1867 H 173.384 -3.51422 -1.82533 0
M  V30 1868 H 174.558 -4.52942 0.847365 0
M  V30 1869 H 172.873 -4.11913 0.609669 0
M  V30 1870 H 175.47 -4.93925 -2.04798 0
M  V30 1871 H 175.813 -3.29877 -2.53942 0
M  V30 1872 H 176.346 -3.86581 -0.938074 0
M  V30 1873 H 173.085 -6.54202 0.412316 0
M  V30 1874 H 172.605 -5.88309 -1.16843 0
M  V30 1875 H 174.284 -6.40844 -0.890397 0
M  V30 1876 N 174.416 0.165178 -1.56732 0
M  V30 1877 C 175.693 0.908443 -1.73224 0
M  V30 1878 C 176.073 2.0013 -0.67165 0
M  V30 1879 O 175.421 2.26353 0.31253 0
M  V30 1880 C 175.631 1.46756 -3.16644 0
M  V30 1881 C 176.979 1.93809 -3.77787 0
M  V30 1882 O 178.003 1.56537 -3.1996 0
M  V30 1883 O 176.862 2.62486 -4.79336 0
M  V30 1884 H 173.956 0.428025 -0.707618 0
M  V30 1885 H 176.502 0.152526 -1.69013 0
M  V30 1886 H 175.274 0.68129 -3.85323 0
M  V30 1887 H 174.897 2.28749 -3.25207 0
M  V30 1888 N 175.894 1.51508 0.433938 0
M  V30 1889 C 177.142 1.6402 1.18075 0
M  V30 1890 C 177.463 0.360328 1.91642 0
M  V30 1891 O 176.733 -0.623945 1.85698 0
M  V30 1892 H 175.313 0.6045 0.43885 0
M  V30 1893 H 177.975 1.88452 0.497178 0
M  V30 1894 H 177.071 2.46949 1.90847 0
M  V30 1895 N 177.372 -0.689602 1.41712 0
M  V30 1896 C 178.319 -1.80345 1.44029 0
M  V30 1897 C 179.289 -1.63478 0.293948 0
M  V30 1898 O 180.474 -1.84244 0.495869 0
M  V30 1899 C 177.614 -3.18272 1.33405 0
M  V30 1900 C 176.727 -3.46529 2.57956 0
M  V30 1901 C 175.862 -4.74103 2.39582 0
M  V30 1902 C 174.901 -4.95347 3.5958 0
M  V30 1903 N 174.038 -6.14151 3.40239 0
M  V30 1904 H 178.878 -1.77698 2.39222 0
M  V30 1905 H 176.415 -0.867688 1.18784 0
M  V30 1906 H 178.373 -3.97956 1.25246 0
M  V30 1907 H 177.003 -3.2008 0.418164 0
M  V30 1908 H 176.055 -2.61207 2.76542 0
M  V30 1909 H 177.367 -3.58126 3.47199 0
M  V30 1910 H 176.521 -5.61853 2.28924 0
M  V30 1911 H 175.26 -4.64763 1.47805 0
M  V30 1912 H 174.265 -4.06044 3.70686 0
M  V30 1913 H 175.49 -5.06542 4.52318 0
M  V30 1914 H 173.436 -6.06013 2.51167 0
M  V30 1915 H 173.353 -6.26543 4.23061 0
M  V30 1916 H 174.621 -7.04619 3.33365 0
M  V30 1917 N 178.85 -1.27639 -0.924453 0
M  V30 1918 C 179.813 -1.10681 -2.00705 0
M  V30 1919 C 180.813 -0.0497823 -1.60723 0
M  V30 1920 O 182.003 -0.294654 -1.7169 0
M  V30 1921 C 179.135 -0.687164 -3.33902 0
M  V30 1922 H 180.328 -2.06817 -2.17179 0
M  V30 1923 H 177.881 -1.10473 -1.10569 0
M  V30 1924 H 178.616 0.275439 -3.23128 0
M  V30 1925 H 178.401 -1.45061 -3.6428 0
M  V30 1926 H 179.891 -0.590853 -4.13399 0
M  V30 1927 N 180.328 1.1314 -1.09713 0
M  V30 1928 C 181.556 1.88321 -0.856898 0
M  V30 1929 C 181.971 1.79276 0.592073 0
M  V30 1930 O 181.328 1.16142 1.40774 0
M  V30 1931 C 181.379 3.37812 -1.28706 0
M  V30 1932 O 181.1 3.46627 -2.67921 0
M  V30 1933 C 182.601 4.29952 -1.07964 0
M  V30 1934 H 179.821 0.596094 -0.308079 0
M  V30 1935 H 182.365 1.43205 -1.45988 0
M  V30 1936 H 180.52 3.805 -0.727912 0
M  V30 1937 H 180.934 4.39579 -2.8613 0
M  V30 1938 H 182.408 5.33159 -1.42986 0
M  V30 1939 H 182.885 4.39196 -0.0176577 0
M  V30 1940 H 183.491 3.93036 -1.62489 0
M  V30 1941 N 181.806 0.884767 1.30421 0
M  V30 1942 C 183.052 0.503851 1.96441 0
M  V30 1943 C 183.385 -0.944518 1.69684 0
M  V30 1944 O 182.66 -1.66737 1.00145 0
M  V30 1945 C 182.943 0.779085 3.51571 0
M  V30 1946 C 182.796 2.27807 3.87846 0
M  V30 1947 C 184.115 0.255452 4.39358 0
M  V30 1948 H 181.234 0.184533 0.713524 0
M  V30 1949 H 183.876 1.10872 1.54297 0
M  V30 1950 H 182.026 0.264274 3.876 0
M  V30 1951 H 183.698 2.86127 3.61841 0
M  V30 1952 H 181.941 2.74479 3.35922 0
M  V30 1953 H 182.612 2.42125 4.96064 0
M  V30 1954 H 185.088 0.696079 4.10236 0
M  V30 1955 H 183.964 0.477361 5.4682 0
M  V30 1956 H 184.225 -0.843293 4.33983 0
M  V30 1957 N 183.284 -1.43765 0.645699 0
M  V30 1958 C 184.247 -2.29163 -0.0409488 0
M  V30 1959 C 185.247 -1.41813 -0.757996 0
M  V30 1960 O 186.437 -1.63527 -0.600382 0
M  V30 1961 C 183.569 -3.23716 -1.06869 0
M  V30 1962 H 184.762 -2.91366 0.710345 0
M  V30 1963 H 182.315 -1.5092 0.406547 0
M  V30 1964 H 183.05 -2.66393 -1.84947 0
M  V30 1965 H 182.835 -3.88105 -0.558277 0
M  V30 1966 H 184.325 -3.87831 -1.54845 0
M  V30 1967 N 184.763 -0.387143 -1.52771 0
M  V30 1968 C 185.993 0.195585 -2.05672 0
M  V30 1969 C 186.401 1.41241 -1.25887 0
M  V30 1970 O 185.744 1.81265 -0.298081 0
M  V30 1971 C 185.806 0.632327 -3.53895 0
M  V30 1972 C 185.47 -0.470739 -4.54569 0
M  V30 1973 C 186.467 -1.32746 -5.02667 0
M  V30 1974 C 184.152 -0.637151 -4.98243 0
M  V30 1975 C 186.146 -2.33574 -5.93061 0
M  V30 1976 C 183.833 -1.64877 -5.88438 0
M  V30 1977 C 184.831 -2.49649 -6.35739 0
M  V30 1978 O 184.519 -3.49082 -7.24153 0
M  V30 1979 H 184.251 0.033658 -0.675162 0
M  V30 1980 H 186.805 -0.550221 -1.97893 0
M  V30 1981 H 185.035 1.43008 -3.59285 0
M  V30 1982 H 186.724 1.14048 -3.89548 0
M  V30 1983 H 187.49 -1.21019 -4.69659 0
M  V30 1984 H 183.369 0.0129567 -4.60998 0
M  V30 1985 H 186.913 -2.99777 -6.29904 0
M  V30 1986 H 182.81 -1.76643 -6.2086 0
M  V30 1987 H 183.578 -3.45065 -7.42208 0
M  V30 1988 N 186.241 1.57166 -0.116904 0
M  V30 1989 C 187.49 1.94298 0.541407 0
M  V30 1990 C 187.803 1.00236 1.67964 0
M  V30 1991 O 189.009 1.26826 2.40057 0
M  V30 1992 C 187.465 3.45306 1.01449 0
M  V30 1993 C 187.073 4.47899 -0.0951738 0
M  V30 1994 C 188.817 3.91361 1.6443 0
M  V30 1995 C 186.724 5.90083 0.394491 0
M  V30 1996 H 185.654 0.725308 0.206019 0
M  V30 1997 H 188.305 1.82446 -0.196419 0
M  V30 1998 H 186.687 3.52385 1.80667 0
M  V30 1999 H 187.861 4.52486 -0.871374 0
M  V30 2000 H 186.176 4.11583 -0.631505 0
M  V30 2001 H 188.773 4.95004 2.02176 0
M  V30 2002 H 189.116 3.3122 2.52189 0
M  V30 2003 H 189.649 3.87073 0.917559 0
M  V30 2004 H 186.388 6.53974 -0.447004 0
M  V30 2005 H 185.908 5.88921 1.13722 0
M  V30 2006 H 187.587 6.41307 0.856399 0
M  V30 2007 N 187.719 -0.156864 1.56817 0
M  V30 2008 C 189.13 -0.717916 1.72345 0
M  V30 2009 C 189.481 -1.82124 0.729747 0
M  V30 2010 O 188.606 -2.16141 -0.105781 0
M  V30 2011 C 189.201 -1.30904 3.12489 0
M  V30 2012 C 187.76 -1.81676 3.29653 0
M  V30 2013 C 186.907 -0.701349 2.68284 0
M  V30 2014 H 189.858 0.0686989 1.58551 0
M  V30 2015 H 189.879 -2.17882 3.11942 0
M  V30 2016 H 189.391 -0.505796 3.8479 0
M  V30 2017 H 187.492 -2.64598 2.62333 0
M  V30 2018 H 187.605 -1.95226 4.3752 0
M  V30 2019 H 185.969 -1.12548 2.28484 0
M  V30 2020 H 186.752 0.0902846 3.43181 0
M  V30 2021 N 189.197 -1.51736 -0.425897 0
M  V30 2022 C 190.144 -1.73875 -1.51776 0
M  V30 2023 C 191.114 -0.580702 -1.55618 0
M  V30 2024 O 192.299 -0.81641 -1.72451 0
M  V30 2025 C 189.439 -1.88012 -2.89388 0
M  V30 2026 C 188.552 -3.15606 -2.94986 0
M  V30 2027 C 187.687 -3.20271 -4.23793 0
M  V30 2028 C 186.726 -4.42134 -4.23302 0
M  V30 2029 N 185.863 -4.44284 -5.43651 0
M  V30 2030 H 190.703 -2.67071 -1.32201 0
M  V30 2031 H 188.24 -1.32351 -0.642008 0
M  V30 2032 H 190.198 -1.9419 -3.69251 0
M  V30 2033 H 188.828 -0.98213 -3.07496 0
M  V30 2034 H 187.88 -3.18681 -2.07717 0
M  V30 2035 H 189.192 -4.05486 -2.90486 0
M  V30 2036 H 188.346 -3.25428 -5.12036 0
M  V30 2037 H 187.085 -2.28299 -4.30965 0
M  V30 2038 H 186.09 -4.3714 -3.3345 0
M  V30 2039 H 187.315 -5.35382 -4.17783 0
M  V30 2040 H 185.261 -3.55188 -5.51523 0
M  V30 2041 H 185.178 -5.27988 -5.41078 0
M  V30 2042 H 186.446 -4.53649 -6.33895 0
M  V30 2043 N 190.675 0.682077 -1.42076 0
M  V30 2044 C 191.952 1.43755 -1.32642 0
M  V30 2045 C 192.332 2.11063 0.0396611 0
M  V30 2046 O 191.68 2.02701 1.05474 0
M  V30 2047 C 191.89 2.44596 -2.48946 0
M  V30 2048 C 193.238 3.09454 -2.9073 0
M  V30 2049 O 194.262 2.54922 -2.48783 0
M  V30 2050 O 193.121 4.08253 -3.63307 0
M  V30 2051 H 190.215 0.640857 -0.522715 0
M  V30 2052 H 192.761 0.711415 -1.54068 0
M  V30 2053 H 191.533 1.93609 -3.40046 0
M  V30 2054 H 191.156 3.24701 -2.29467 0
M  V30 2055 N 192.153 1.28127 0.917671 0
M  V30 2056 C 193.378 1.18007 1.70555 0
M  V30 2057 C 193.803 -0.258257 1.86319 0
M  V30 2058 O 193.161 -1.1869 1.37049 0
M  V30 2059 C 193.209 1.87948 3.07746 0
M  V30 2060 O 192.313 1.18427 3.9503 0
M  V30 2061 H 191.654 0.409867 0.522403 0
M  V30 2062 H 194.184 1.69379 1.1477 0
M  V30 2063 H 194.194 1.95701 3.58001 0
M  V30 2064 H 192.869 2.92573 2.95591 0
M  V30 2065 H 191.446 1.18811 3.53466 0
M  V30 2066 N 193.631 -1.12557 1.10312 0
M  V30 2067 C 194.877 -1.84311 0.846011 0
M  V30 2068 C 195.21 -1.83805 -0.626859 0
M  V30 2069 O 194.485 -1.28268 -1.46211 0
M  V30 2070 C 194.768 -3.32048 1.39341 0
M  V30 2071 C 194.621 -3.41016 2.93305 0
M  V30 2072 C 195.94 -4.27764 1.03468 0
M  V30 2073 H 193.059 -0.669192 0.30879 0
M  V30 2074 H 195.701 -1.32057 1.36605 0
M  V30 2075 H 193.851 -3.76678 0.951087 0
M  V30 2076 H 195.523 -3.05031 3.46055 0
M  V30 2077 H 193.766 -2.81603 3.29973 0
M  V30 2078 H 194.437 -4.44948 3.26689 0
M  V30 2079 H 196.913 -3.91253 1.41633 0
M  V30 2080 H 195.789 -5.29549 1.44463 0
M  V30 2081 H 196.05 -4.42064 -0.0560404 0
M  V30 2082 N 195.109 -0.891671 -1.2995 0
M  V30 2083 C 196.358 -0.509521 -1.95158 0
M  V30 2084 C 196.671 0.947388 -1.71125 0
M  V30 2085 O 197.877 1.43669 -2.30372 0
M  V30 2086 C 196.333 -0.860315 -3.49466 0
M  V30 2087 C 195.941 -2.33545 -3.8231 0
M  V30 2088 C 197.685 -0.547687 -4.20952 0
M  V30 2089 C 195.592 -2.62752 -5.29826 0
M  V30 2090 H 194.522 -0.18682 -0.730489 0
M  V30 2091 H 197.173 -1.08756 -1.47798 0
M  V30 2092 H 195.555 -0.211285 -3.95436 0
M  V30 2093 H 196.729 -3.02936 -3.47227 0
M  V30 2094 H 195.044 -2.61629 -3.23944 0
M  V30 2095 H 197.641 -0.742854 -5.29515 0
M  V30 2096 H 197.984 0.51332 -4.13123 0
M  V30 2097 H 198.517 -1.1542 -3.80688 0
M  V30 2098 H 195.256 -3.6762 -5.42712 0
M  V30 2099 H 194.776 -1.97977 -5.66185 0
M  V30 2100 H 196.455 -2.48601 -5.97333 0
M  V30 2101 N 196.587 1.43421 -0.653314 0
M  V30 2102 C 197.835 2.01414 -0.166415 0
M  V30 2103 C 198.156 1.51803 1.22397 0
M  V30 2104 O 197.426 0.730693 1.81763 0
M  V30 2105 H 196.006 0.744703 -0.0585319 0
M  V30 2106 H 198.668 1.75629 -0.845003 0
M  V30 2107 H 197.764 3.11734 -0.151111 0
M  V30 2108 N 198.065 0.39524 1.52563 0
M  V30 2109 C 198.995 -0.428384 2.29537 0
M  V30 2110 C 199.976 -1.05831 1.33169 0
M  V30 2111 O 201.161 -1.06995 1.62067 0
M  V30 2112 C 198.291 -1.55274 3.10656 0
M  V30 2113 C 197.245 -1.04855 4.14957 0
M  V30 2114 C 196.571 -2.26543 4.84337 0
M  V30 2115 C 197.871 -0.112324 5.22179 0
M  V30 2116 H 199.565 0.213867 2.98635 0
M  V30 2117 H 197.111 0.104298 1.43622 0
M  V30 2118 H 199.064 -2.1358 3.63265 0
M  V30 2119 H 197.788 -2.22266 2.39302 0
M  V30 2120 H 196.447 -0.487985 3.63338 0
M  V30 2121 H 196.095 -2.92059 4.09525 0
M  V30 2122 H 195.795 -1.93466 5.54837 0
M  V30 2123 H 197.319 -2.85481 5.39753 0
M  V30 2124 H 198.733 -0.603752 5.70112 0
M  V30 2125 H 197.13 0.128968 5.99961 0
M  V30 2126 H 198.2 0.837052 4.77621 0
M  V30 2127 N 199.544 -1.57102 0.125237 0
M  V30 2128 C 200.769 -2.0019 -0.542101 0
M  V30 2129 C 201.194 -1.00449 -1.59034 0
M  V30 2130 O 200.552 0.0229423 -1.81285 0
M  V30 2131 C 200.6 -3.42129 -1.13929 0
M  V30 2132 O 199.704 -3.45307 -2.2547 0
M  V30 2133 H 199.045 -0.650171 -0.134812 0
M  V30 2134 H 201.575 -2.03461 0.215553 0
M  V30 2135 H 201.585 -3.80471 -1.4733 0
M  V30 2136 H 200.26 -4.14237 -0.371531 0
M  V30 2137 H 198.837 -3.1879 -1.93462 0
M  V30 2138 N 201.022 0.148545 -1.56898 0
M  V30 2139 C 201.969 1.18345 -1.98149 0
M  V30 2140 C 202.939 1.42772 -0.848848 0
M  V30 2141 O 204.124 1.55132 -1.11079 0
M  V30 2142 C 201.264 2.51231 -2.36594 0
M  V30 2143 C 200.377 2.33991 -3.63142 0
M  V30 2144 C 199.512 3.59902 -3.90697 0
M  V30 2145 C 198.551 3.37692 -5.1052 0
M  V30 2146 N 197.688 4.5573 -5.34092 0
M  V30 2147 H 202.528 0.82467 -2.86362 0
M  V30 2148 H 200.065 0.395756 -1.41676 0
M  V30 2149 H 202.023 3.28713 -2.56912 0
M  V30 2150 H 200.653 2.85059 -1.51463 0
M  V30 2151 H 199.705 1.47572 -3.50609 0
M  V30 2152 H 201.017 2.13539 -4.5078 0
M  V30 2153 H 200.171 4.45813 -4.11505 0
M  V30 2154 H 198.91 3.83357 -3.01477 0
M  V30 2155 H 197.915 2.5017 -4.89587 0
M  V30 2156 H 199.14 3.15637 -6.0129 0
M  V30 2157 H 197.086 4.79361 -4.47827 0
M  V30 2158 H 197.003 4.38274 -6.15996 0
M  V30 2159 H 198.271 5.42858 -5.59397 0
M  V30 2160 N 202.5 1.5196 0.417844 0
M  V30 2161 C 203.749 1.6482 1.16264 0
M  V30 2162 C 204.062 0.379886 1.91876 0
M  V30 2163 O 205.268 0.388154 2.68711 0
M  V30 2164 C 203.724 2.91161 2.1155 0
M  V30 2165 C 203.332 4.25068 1.41495 0
M  V30 2166 C 205.076 3.13383 2.86341 0
M  V30 2167 C 202.983 5.42541 2.35379 0
M  V30 2168 H 201.913 0.613954 0.437694 0
M  V30 2169 H 204.564 1.78442 0.427871 0
M  V30 2170 H 202.946 2.71218 2.88543 0
M  V30 2171 H 204.12 4.55463 0.699263 0
M  V30 2172 H 202.435 4.0888 0.787792 0
M  V30 2173 H 205.032 3.98324 3.5671 0
M  V30 2174 H 205.375 2.27256 3.48798 0
M  V30 2175 H 205.908 3.33757 2.1645 0
M  V30 2176 H 202.647 6.30987 1.77582 0
M  V30 2177 H 202.167 5.16497 3.04945 0
M  V30 2178 H 203.846 5.75272 2.96093 0
M  V30 2179 N 203.978 -0.674533 1.42435 0
M  V30 2180 C 204.926 -1.80934 1.46169 0
M  V30 2181 C 205.92 -1.66006 0.3374 0
M  V30 2182 O 207.126 -1.72611 0.510425 0
M  V30 2183 H 203.501 -0.596594 0.457798 0
M  V30 2184 H 205.472 -1.74903 2.41767 0
M  V30 2185 C 204.221 -3.19088 1.38123 0
M  V30 2186 H 203.544 -3.31203 2.23931 0
M  V30 2187 H 204.984 -3.9851 1.44797 0
M  V30 2188 C 203.443 -3.36763 0.0960517 0
M  V30 2189 O 203.973 -3.92581 -0.851073 0
M  V30 2190 N 202.179 -2.90597 0.0131186 0
M  V30 2191 H 201.726 -2.45359 0.784639 0
M  V30 2192 H 201.684 -3.028 -0.846133 0
M  V30 2193 N 205.456 -1.28612 -0.910864 0
M  V30 2194 C 206.872 -1.06381 -1.18976 0
M  V30 2195 C 207.072 0.191998 -2.00583 0
M  V30 2196 O 206.128 0.892869 -2.36187 0
M  V30 2197 C 207.441 -2.31295 -1.92154 0
M  V30 2198 C 208.989 -2.36503 -2.05025 0
M  V30 2199 C 209.464 -3.61191 -2.81612 0
M  V30 2200 N 210.955 -3.61847 -2.89172 0
M  V30 2201 C 211.69 -4.55004 -3.4894 0
M  V30 2202 N 211.186 -5.58482 -4.09963 0
M  V30 2203 N 212.979 -4.42594 -3.46506 0
M  V30 2204 H 205.13 -2.09221 -0.366094 0
M  V30 2205 H 207.393 -0.921003 -0.224629 0
M  V30 2206 H 207.099 -3.228 -1.39618 0
M  V30 2207 H 206.973 -2.37934 -2.9269 0
M  V30 2208 H 209.36 -1.45494 -2.5674 0
M  V30 2209 H 209.441 -2.33857 -1.03657 0
M  V30 2210 H 209.085 -4.52545 -2.30576 0
M  V30 2211 H 209.015 -3.61092 -3.83302 0
M  V30 2212 H 211.506 -2.87022 -2.45819 0
M  V30 2213 H 211.819 -6.25704 -4.53557 0
M  V30 2214 H 210.164 -5.62305 -4.08459 0
M  V30 2215 H 213.355 -3.60953 -2.98045 0
M  V30 2216 H 213.528 -5.15381 -3.92793 0
M  V30 2217 N 206.934 1.1197 -1.10907 0
M  V30 2218 C 208.183 1.82947 -0.849302 0
M  V30 2219 C 208.496 1.85275 0.627112 0
M  V30 2220 O 209.702 2.52296 1.00295 0
M  V30 2221 C 208.158 3.28529 -1.46959 0
M  V30 2222 C 207.766 3.34546 -2.97965 0
M  V30 2223 C 209.51 4.04443 -1.28942 0
M  V30 2224 C 207.417 4.74491 -3.53004 0
M  V30 2225 H 206.347 0.685477 -0.314065 0
M  V30 2226 H 208.998 1.2604 -1.33365 0
M  V30 2227 H 207.38 3.85333 -0.912917 0
M  V30 2228 H 208.554 2.87654 -3.59989 0
M  V30 2229 H 206.869 2.72108 -3.15192 0
M  V30 2230 H 209.466 5.07787 -1.67502 0
M  V30 2231 H 209.809 4.15656 -0.231456 0
M  V30 2232 H 210.342 3.5401 -1.81443 0
M  V30 2233 H 207.081 4.68474 -4.58489 0
M  V30 2234 H 206.601 5.21816 -2.9575 0
M  V30 2235 H 208.28 5.4344 -3.51115 0
M  V30 2236 N 208.412 0.89855 1.29475 0
M  V30 2237 C 209.658 0.524658 1.95896 0
M  V30 2238 C 209.991 -0.926468 1.70676 0
M  V30 2239 O 209.266 -1.65665 1.01908 0
M  V30 2240 C 209.549 0.81633 3.50725 0
M  V30 2241 C 209.402 2.31907 3.85408 0
M  V30 2242 C 210.721 0.302038 4.39062 0
M  V30 2243 H 207.84 0.19209 0.711527 0
M  V30 2244 H 210.482 1.12502 1.53112 0
M  V30 2245 H 208.632 0.305369 3.87298 0
M  V30 2246 H 210.304 2.89949 3.58786 0
M  V30 2247 H 208.547 2.78027 3.32992 0
M  V30 2248 H 209.218 2.47373 4.93468 0
M  V30 2249 H 211.694 0.739551 4.09475 0
M  V30 2250 H 210.57 0.535331 5.46283 0
M  V30 2251 H 210.831 -0.797216 4.34853 0
M  V30 2252 N 209.89 -1.43072 0.660911 0
M  V30 2253 C 210.822 -2.29108 -0.0647641 0
M  V30 2254 C 211.835 -1.42928 -0.779448 0
M  V30 2255 O 213.024 -1.66788 -0.635921 0
M  V30 2256 C 210.124 -3.20032 -1.11503 0
M  V30 2257 C 209.297 -4.34792 -0.476955 0
M  V30 2258 C 208.356 -5.06534 -1.42513 0
M  V30 2259 O 207.382 -5.61538 -0.930771 0
M  V30 2260 N 208.584 -5.1075 -2.75889 0
M  V30 2261 H 211.349 -2.92029 0.673731 0
M  V30 2262 H 208.91 -1.53846 0.50427 0
M  V30 2263 H 210.902 -3.64892 -1.75032 0
M  V30 2264 H 209.472 -2.58658 -1.75541 0
M  V30 2265 H 208.692 -3.92752 0.337572 0
M  V30 2266 H 209.98 -5.0879 -0.0318525 0
M  V30 2267 H 209.378 -4.67447 -3.18606 0
M  V30 2268 H 207.935 -5.59302 -3.347 0
M  V30 2269 N 211.368 -0.403325 -1.52352 0
M  V30 2270 C 212.615 0.174347 -2.01748 0
M  V30 2271 C 212.943 1.45636 -1.2892 0
M  V30 2272 O 212.198 1.9193 -0.382258 0
M  V30 2273 C 212.497 0.474665 -3.54234 0
M  V30 2274 C 212.163 -0.717458 -4.45155 0
M  V30 2275 C 210.825 -1.04447 -4.69728 0
M  V30 2276 C 213.177 -1.51432 -4.98716 0
M  V30 2277 C 210.505 -2.16963 -5.45109 0
M  V30 2278 C 212.857 -2.6302 -5.75329 0
M  V30 2279 C 211.521 -2.96213 -5.98175 0
M  V30 2280 H 210.791 0.0637981 -0.738248 0
M  V30 2281 H 213.438 -0.543553 -1.83624 0
M  V30 2282 H 211.743 1.27406 -3.70506 0
M  V30 2283 H 213.44 0.934496 -3.89959 0
M  V30 2284 H 210.03 -0.452596 -4.26204 0
M  V30 2285 H 214.214 -1.27491 -4.79645 0
M  V30 2286 H 209.47 -2.43034 -5.61021 0
M  V30 2287 H 213.644 -3.25158 -6.15829 0
M  V30 2288 H 211.271 -3.83516 -6.56368 0
M  V30 2289 N 212.846 1.57033 -0.133567 0
M  V30 2290 C 214.093 1.95686 0.520877 0
M  V30 2291 C 214.421 1.0177 1.6575 0
M  V30 2292 O 213.676 0.0443195 1.9565 0
M  V30 2293 C 213.975 3.40674 1.08057 0
M  V30 2294 C 213.641 4.50855 0.0637899 0
M  V30 2295 C 212.303 4.80716 -0.215757 0
M  V30 2296 C 214.655 5.17398 -0.62835 0
M  V30 2297 C 211.983 5.74433 -1.19348 0
M  V30 2298 C 214.335 6.12167 -1.5948 0
M  V30 2299 C 212.999 6.40414 -1.88218 0
M  V30 2300 H 212.269 0.716067 0.190602 0
M  V30 2301 H 214.916 1.9026 -0.217556 0
M  V30 2302 H 213.221 3.42865 1.89606 0
M  V30 2303 H 214.918 3.67902 1.59529 0
M  V30 2304 H 211.508 4.27605 0.291855 0
M  V30 2305 H 215.692 4.94472 -0.425562 0
M  V30 2306 H 210.948 5.94616 -1.42272 0
M  V30 2307 H 215.122 6.6281 -2.13671 0
M  V30 2308 H 212.749 7.12838 -2.64133 0
M  V30 2309 N 214.325 -0.140222 1.56975 0
M  V30 2310 C 215.288 -1.15689 1.97861 0
M  V30 2311 C 216.288 -1.3549 0.865974 0
M  V30 2312 O 217.478 -1.32367 1.13246 0
M  V30 2313 C 214.61 -2.51582 2.30042 0
M  V30 2314 H 215.803 -0.805971 2.88867 0
M  V30 2315 H 213.356 -0.383801 1.51515 0
M  V30 2316 H 214.091 -2.91632 1.41849 0
M  V30 2317 H 213.876 -2.38569 3.11171 0
M  V30 2318 H 215.366 -3.24792 2.62488 0
M  V30 2319 N 215.803 -1.52179 -0.40978 0
M  V30 2320 C 216.735 -1.71703 -1.51825 0
M  V30 2321 C 217.748 -0.597445 -1.51441 0
M  V30 2322 O 218.937 -0.872582 -1.55719 0
M  V30 2323 C 216.037 -1.74171 -2.90719 0
M  V30 2324 C 215.21 -3.03156 -3.15302 0
M  V30 2325 C 214.269 -2.97445 -4.34065 0
M  V30 2326 O 213.295 -3.71352 -4.31377 0
M  V30 2327 N 214.497 -2.15191 -5.39141 0
M  V30 2328 H 217.262 -2.67334 -1.35472 0
M  V30 2329 H 214.823 -1.50409 -0.599069 0
M  V30 2330 H 216.815 -1.67884 -3.68235 0
M  V30 2331 H 215.385 -0.860166 -3.00533 0
M  V30 2332 H 214.605 -3.23097 -2.25836 0
M  V30 2333 H 215.893 -3.88484 -3.28569 0
M  V30 2334 H 215.291 -1.54573 -5.44173 0
M  V30 2335 H 213.848 -2.1476 -6.15403 0
M  V30 2336 N 217.281 0.66697 -1.42791 0
M  V30 2337 C 218.697 0.981027 -1.25889 0
M  V30 2338 C 218.897 2.00793 -0.168695 0
M  V30 2339 O 217.953 2.48321 0.45747 0
M  V30 2340 C 219.266 1.47838 -2.61848 0
M  V30 2341 C 220.814 1.59575 -2.69267 0
M  V30 2342 C 221.289 2.12704 -4.05612 0
M  V30 2343 N 222.78 2.20026 -4.07606 0
M  V30 2344 C 223.515 2.62227 -5.09926 0
M  V30 2345 N 223.011 3.03824 -6.22626 0
M  V30 2346 N 224.804 2.62045 -4.97281 0
M  V30 2347 H 216.955 -0.0127891 -2.12396 0
M  V30 2348 H 219.218 0.0568258 -0.946295 0
M  V30 2349 H 218.924 0.798299 -3.4252 0
M  V30 2350 H 218.798 2.45579 -2.86305 0
M  V30 2351 H 221.185 2.26687 -1.88936 0
M  V30 2352 H 221.266 0.60302 -2.48591 0
M  V30 2353 H 220.91 1.46198 -4.86404 0
M  V30 2354 H 220.84 3.12782 -4.23645 0
M  V30 2355 H 223.331 1.90708 -3.2625 0
M  V30 2356 H 223.644 3.34734 -6.96544 0
M  V30 2357 H 221.989 3.01662 -6.26119 0
M  V30 2358 H 225.18 2.28916 -4.08308 0
M  V30 2359 H 225.353 2.94613 -5.77154 0
M  V30 2360 N 218.759 1.29093 0.90403 0
M  V30 2361 C 220.17 1.15186 1.46932 0
M  V30 2362 C 220.521 -0.254587 1.94541 0
M  V30 2363 O 219.646 -1.14972 1.83332 0
M  V30 2364 C 220.241 2.08492 2.67051 0
M  V30 2365 C 218.8 1.98621 3.19729 0
M  V30 2366 C 217.947 1.9967 1.92425 0
M  V30 2367 H 220.898 1.41641 0.715789 0
M  V30 2368 H 220.919 1.65461 3.42641 0
M  V30 2369 H 220.431 3.10847 2.3237 0
M  V30 2370 H 218.532 0.993389 3.59114 0
M  V30 2371 H 218.645 2.86068 3.8432 0
M  V30 2372 H 217.009 1.44208 2.09943 0
M  V30 2373 H 217.792 3.03721 1.60026 0
M  V30 2374 N 220.237 -1.11381 1.11499 0
M  V30 2375 C 221.169 -2.17207 0.731704 0
M  V30 2376 C 222.182 -1.61066 -0.236957 0
M  V30 2377 O 223.371 -1.78489 -0.0197591 0
M  V30 2378 C 220.471 -3.38846 0.0607624 0
M  V30 2379 C 219.644 -4.24451 1.0564 0
M  V30 2380 C 218.703 -5.24562 0.4149 0
M  V30 2381 O 217.729 -5.59071 1.069 0
M  V30 2382 N 218.931 -5.74651 -0.821943 0
M  V30 2383 H 221.696 -2.50699 1.64225 0
M  V30 2384 H 219.257 -1.26908 1.00529 0
M  V30 2385 H 221.249 -4.02911 -0.380139 0
M  V30 2386 H 219.819 -3.03411 -0.752376 0
M  V30 2387 H 219.039 -3.56833 1.67524 0
M  V30 2388 H 220.327 -4.78486 1.72998 0
M  V30 2389 H 219.725 -5.48797 -1.37252 0
M  V30 2390 H 218.282 -6.40549 -1.20582 0
M  V30 2391 N 221.715 -0.905404 -1.28997 0
M  V30 2392 C 222.961 -0.535039 -1.95615 0
M  V30 2393 C 223.294 0.917404 -1.71165 0
M  V30 2394 O 222.569 1.65123 -1.02785 0
M  V30 2395 C 222.852 -0.834918 -3.50287 0
M  V30 2396 C 222.705 -2.33948 -3.84172 0
M  V30 2397 C 224.024 -0.325318 -4.38896 0
M  V30 2398 H 221.143 -0.195861 -0.710498 0
M  V30 2399 H 223.785 -1.13313 -1.52513 0
M  V30 2400 H 221.935 -0.325904 -3.87131 0
M  V30 2401 H 223.607 -2.91847 -3.57243 0
M  V30 2402 H 221.85 -2.79789 -3.31513 0
M  V30 2403 H 222.521 -2.49987 -4.92149 0
M  V30 2404 H 224.997 -0.761256 -4.09077 0
M  V30 2405 H 223.873 -0.564295 -5.45992 0
M  V30 2406 H 224.134 0.774144 -4.35269 0
M  V30 2407 N 223.193 1.4272 -0.668489 0
M  V30 2408 C 224.125 2.2914 0.052613 0
M  V30 2409 C 225.138 1.43339 0.771857 0
M  V30 2410 O 226.327 1.67123 0.627067 0
M  V30 2411 C 223.427 3.20618 1.09804 0
M  V30 2412 C 222.6 4.35039 0.45389 0
M  V30 2413 C 221.659 5.07282 1.39825 0
M  V30 2414 O 220.685 5.62024 0.900978 0
M  V30 2415 N 221.887 5.12206 2.73176 0
M  V30 2416 H 224.652 2.91668 -0.689209 0
M  V30 2417 H 222.213 1.53577 -0.512422 0
M  V30 2418 H 224.205 3.65815 1.73094 0
M  V30 2419 H 222.775 2.59585 1.74167 0
M  V30 2420 H 221.995 3.92567 -0.358396 0
M  V30 2421 H 223.283 5.088 0.00486972 0
M  V30 2422 H 222.681 4.6913 3.16122 0
M  V30 2423 H 221.238 5.61069 3.31729 0
M  V30 2424 N 224.671 0.411399 1.52136 0
M  V30 2425 C 225.581 -0.419774 2.30814 0
M  V30 2426 C 226.597 -1.0515 1.38634 0
M  V30 2427 O 227.773 -1.05252 1.71709 0
M  V30 2428 C 224.838 -1.52019 3.11594 0
M  V30 2429 C 223.899 -0.91129 4.19516 0
M  V30 2430 C 223.132 -1.95927 4.96436 0
M  V30 2431 O 223.355 -3.17775 4.73683 0
M  V30 2432 O 222.289 -1.56423 5.81219 0
M  V30 2433 H 226.115 0.221805 3.02889 0
M  V30 2434 H 223.7 0.174547 1.48377 0
M  V30 2435 H 225.582 -2.15898 3.61892 0
M  V30 2436 H 224.257 -2.14633 2.42311 0
M  V30 2437 H 223.164 -0.235157 3.7336 0
M  V30 2438 H 224.497 -0.32904 4.91099 0
M  V30 2439 N 226.149 -1.5696 0.141893 0
M  V30 2440 C 227.565 -1.58151 -0.21456 0
M  V30 2441 C 227.765 -1.1559 -1.65049 0
M  V30 2442 O 226.821 -0.853832 -2.37626 0
M  V30 2443 C 228.134 -3.00674 0.0395576 0
M  V30 2444 C 229.682 -3.1299 -0.0245529 0
M  V30 2445 C 230.157 -4.57554 0.202167 0
M  V30 2446 N 231.648 -4.62961 0.148919 0
M  V30 2447 C 232.383 -5.7262 0.298924 0
M  V30 2448 N 231.879 -6.90947 0.50637 0
M  V30 2449 N 233.672 -5.61601 0.236886 0
M  V30 2450 H 225.823 -1.8292 1.07953 0
M  V30 2451 H 228.086 -0.846425 0.42693 0
M  V30 2452 H 227.792 -3.36183 1.03315 0
M  V30 2453 H 227.666 -3.70981 -0.682143 0
M  V30 2454 H 230.053 -2.77326 -1.00869 0
M  V30 2455 H 230.134 -2.4518 0.729396 0
M  V30 2456 H 229.778 -4.93922 1.18338 0
M  V30 2457 H 229.708 -5.23484 -0.572044 0
M  V30 2458 H 232.199 -3.77899 -0.00697015 0
M  V30 2459 H 232.512 -7.7038 0.611076 0
M  V30 2460 H 230.857 -6.92878 0.542628 0
M  V30 2461 H 234.048 -4.68039 0.0756209 0
M  V30 2462 H 234.221 -6.47015 0.357227 0
M  V30 2463 N 227.627 0.131896 -1.57047 0
M  V30 2464 C 228.557 1.16384 -2.02428 0
M  V30 2465 C 229.538 1.43936 -0.90644 0
M  V30 2466 O 230.723 1.54599 -1.17528 0
M  V30 2467 C 227.853 2.49328 -2.4177 0
M  V30 2468 C 226.807 2.36266 -3.56879 0
M  V30 2469 C 226.133 3.74057 -3.8208 0
M  V30 2470 C 227.433 1.834 -4.89042 0
M  V30 2471 H 229.127 0.786433 -2.88887 0
M  V30 2472 H 226.673 0.376855 -1.38981 0
M  V30 2473 H 228.626 3.21759 -2.7212 0
M  V30 2474 H 227.35 2.88934 -1.52266 0
M  V30 2475 H 226.009 1.66286 -3.26718 0
M  V30 2476 H 225.657 4.11125 -2.89803 0
M  V30 2477 H 225.357 3.66174 -4.59554 0
M  V30 2478 H 226.881 4.48012 -4.1487 0
M  V30 2479 H 228.295 2.45636 -5.18011 0
M  V30 2480 H 226.692 1.8637 -5.70426 0
M  V30 2481 H 227.762 0.790662 -4.7841 0
M  V30 2482 N 229.106 1.52395 0.401703 0
M  V30 2483 C 230.334 1.70676 1.16949 0
M  V30 2484 C 230.749 0.419503 1.8408 0
M  V30 2485 O 230.106 -0.605061 1.72178 0
M  V30 2486 C 230.157 2.84753 2.22706 0
M  V30 2487 O 229.878 4.08495 1.58314 0
M  V30 2488 C 231.379 3.14608 3.12309 0
M  V30 2489 H 228.599 0.571787 0.351142 0
M  V30 2490 H 231.143 1.98987 0.471652 0
M  V30 2491 H 229.298 2.58941 2.88147 0
M  V30 2492 H 229.712 4.72117 2.28485 0
M  V30 2493 H 231.186 3.97923 3.82572 0
M  V30 2494 H 231.663 2.28464 3.75101 0
M  V30 2495 H 232.269 3.42212 2.52529 0
M  V30 2496 N 230.584 -0.659388 1.43143 0
M  V30 2497 C 231.516 -1.7849 1.43784 0
M  V30 2498 C 232.529 -1.5932 0.334787 0
M  V30 2499 O 233.718 -1.68155 0.598842 0
M  V30 2500 C 230.818 -3.15828 1.22906 0
M  V30 2501 C 229.991 -3.61711 2.45934 0
M  V30 2502 C 229.05 -4.77831 2.20371 0
M  V30 2503 O 228.076 -4.87586 2.93681 0
M  V30 2504 N 229.278 -5.67611 1.21647 0
M  V30 2505 H 232.043 -1.7842 2.40803 0
M  V30 2506 H 229.604 -0.84302 1.3822 0
M  V30 2507 H 231.596 -3.91189 1.03697 0
M  V30 2508 H 230.166 -3.10707 0.343542 0
M  V30 2509 H 229.386 -2.76861 2.80609 0
M  V30 2510 H 230.674 -3.89112 3.27825 0
M  V30 2511 H 230.072 -5.62397 0.610449 0
M  V30 2512 H 228.629 -6.42719 1.08423 0
M  V30 2513 N 232.062 -1.29571 -0.897171 0
M  V30 2514 C 232.994 -1.10724 -2.00681 0
M  V30 2515 C 234.007 -0.0540026 -1.6271 0
M  V30 2516 O 235.196 -0.298783 -1.75982 0
M  V30 2517 C 232.296 -0.663912 -3.32333 0
M  V30 2518 C 231.469 -1.79622 -3.98816 0
M  V30 2519 C 230.528 -1.34349 -5.0876 0
M  V30 2520 O 229.554 -2.04864 -5.31055 0
M  V30 2521 N 230.756 -0.215764 -5.80099 0
M  V30 2522 H 233.521 -2.06291 -2.17403 0
M  V30 2523 H 231.082 -1.21544 -1.06951 0
M  V30 2524 H 233.074 -0.344295 -4.03233 0
M  V30 2525 H 231.644 0.199375 -3.11964 0
M  V30 2526 H 230.864 -2.28459 -3.21248 0
M  V30 2527 H 232.152 -2.55535 -4.39976 0
M  V30 2528 H 231.55 0.372091 -5.64475 0
M  V30 2529 H 230.107 0.0444707 -6.51785 0
M  V30 2530 N 233.54 1.10788 -1.12088 0
M  V30 2531 C 234.789 1.82036 -0.868659 0
M  V30 2532 C 235.102 1.85929 0.607426 0
M  V30 2533 O 236.308 2.53346 0.97613 0
M  V30 2534 C 234.764 3.26951 -1.50435 0
M  V30 2535 C 234.372 3.31367 -3.01496 0
M  V30 2536 C 236.116 4.03053 -1.33225 0
M  V30 2537 C 234.023 4.7072 -3.58017 0
M  V30 2538 H 232.953 0.682108 -0.321318 0
M  V30 2539 H 235.604 1.24618 -1.34694 0
M  V30 2540 H 233.986 3.84343 -0.953735 0
M  V30 2541 H 235.16 2.83819 -3.6302 0
M  V30 2542 H 233.475 2.6875 -3.18061 0
M  V30 2543 H 236.072 5.05981 -1.72878 0
M  V30 2544 H 236.415 4.15387 -0.275529 0
M  V30 2545 H 236.948 3.52066 -1.85188 0
M  V30 2546 H 233.687 4.63585 -4.63432 0
M  V30 2547 H 233.207 5.1865 -3.01268 0
M  V30 2548 H 234.886 5.39685 -3.56859 0
M  V30 2549 N 235.018 0.912232 1.28515 0
M  V30 2550 C 235.948 0.416403 2.29757 0
M  V30 2551 C 236.929 -0.515194 1.6211 0
M  V30 2552 O 238.114 -0.423253 1.89532 0
M  V30 2553 C 235.244 -0.34572 3.45575 0
M  V30 2554 C 234.198 0.496599 4.25109 0
M  V30 2555 C 233.524 -0.393771 5.33248 0
M  V30 2556 C 234.824 1.75307 4.92001 0
M  V30 2557 H 236.518 1.26249 2.7148 0
M  V30 2558 H 234.064 0.608515 1.30511 0
M  V30 2559 H 236.017 -0.703422 4.15488 0
M  V30 2560 H 234.741 -1.2257 3.02728 0
M  V30 2561 H 233.4 0.8368 3.56922 0
M  V30 2562 H 233.048 -1.27225 4.86644 0
M  V30 2563 H 232.748 0.166209 5.87365 0
M  V30 2564 H 234.272 -0.747389 6.06009 0
M  V30 2565 H 235.686 1.46437 5.54283 0
M  V30 2566 H 234.083 2.25534 5.56106 0
M  V30 2567 H 235.153 2.48176 4.16577 0
M  V30 2568 N 236.496 -1.42363 0.676048 0
M  V30 2569 C 237.745 -2.00745 0.196037 0
M  V30 2570 C 238.058 -1.54083 -1.20489 0
M  V30 2571 O 239.264 -2.04891 -1.78134 0
M  V30 2572 C 237.72 -3.58651 0.299616 0
M  V30 2573 C 237.328 -4.143 1.70468 0
M  V30 2574 C 239.072 -4.24326 -0.121619 0
M  V30 2575 C 236.979 -5.64574 1.76096 0
M  V30 2576 H 235.909 -0.750787 0.0695301 0
M  V30 2577 H 238.56 -1.63072 0.841412 0
M  V30 2578 H 236.942 -3.93833 -0.413673 0
M  V30 2579 H 238.116 -3.90575 2.44515 0
M  V30 2580 H 236.431 -3.61081 2.07387 0
M  V30 2581 H 239.028 -5.34607 -0.0997362 0
M  V30 2582 H 239.371 -3.99897 -1.15708 0
M  V30 2583 H 239.904 -3.94108 0.540706 0
M  V30 2584 H 236.643 -5.93804 2.77628 0
M  V30 2585 H 236.163 -5.90286 1.06406 0
M  V30 2586 H 237.842 -6.29013 1.51496 0
M  V30 2587 N 237.974 -0.419461 -1.51915 0
M  V30 2588 C 238.937 0.389116 -2.25873 0
M  V30 2589 C 239.937 0.964924 -1.28631 0
M  V30 2590 O 241.127 0.842179 -1.52489 0
M  V30 2591 C 238.259 1.54874 -3.03689 0
M  V30 2592 H 239.452 -0.258799 -2.98781 0
M  V30 2593 H 237.005 -0.172209 -1.55348 0
M  V30 2594 H 237.74 2.23323 -2.35154 0
M  V30 2595 H 237.525 1.14223 -3.75094 0
M  V30 2596 H 239.015 2.12046 -3.59759 0
M  V30 2597 N 239.452 1.56882 -0.150215 0
M  V30 2598 C 240.382 2.19935 0.784284 0
M  V30 2599 C 241.363 1.14854 1.25469 0
M  V30 2600 O 242.548 1.43209 1.31168 0
M  V30 2601 C 239.678 2.82349 2.02229 0
M  V30 2602 C 238.632 3.93285 1.68853 0
M  V30 2603 C 237.958 4.42649 2.99944 0
M  V30 2604 C 239.258 5.13904 0.932714 0
M  V30 2605 H 240.952 2.9828 0.258781 0
M  V30 2606 H 238.498 1.43473 0.123029 0
M  V30 2607 H 240.451 3.25126 2.68088 0
M  V30 2608 H 239.175 2.0134 2.57157 0
M  V30 2609 H 237.834 3.5113 1.05371 0
M  V30 2610 H 237.482 3.58458 3.52869 0
M  V30 2611 H 237.182 5.17476 2.78374 0
M  V30 2612 H 238.706 4.88099 3.66868 0
M  V30 2613 H 240.12 5.53506 1.49345 0
M  V30 2614 H 238.517 5.94515 0.81684 0
M  V30 2615 H 239.587 4.84842 -0.0749568 0
M  V30 2616 N 240.93 -0.123565 1.57115 0
M  V30 2617 C 241.862 -1.17739 1.96648 0
M  V30 2618 C 242.875 -1.37906 0.865201 0
M  V30 2619 O 244.064 -1.37062 1.14351 0
M  V30 2620 C 241.164 -2.53821 2.24562 0
M  V30 2621 C 240.337 -2.54317 3.55867 0
M  V30 2622 C 239.396 -3.72112 3.72047 0
M  V30 2623 O 238.422 -3.55907 4.44206 0
M  V30 2624 N 239.624 -4.90498 3.10471 0
M  V30 2625 H 242.389 -0.841147 2.87654 0
M  V30 2626 H 239.95 -0.31289 1.58848 0
M  V30 2627 H 241.942 -3.31175 2.32606 0
M  V30 2628 H 240.512 -2.79645 1.39705 0
M  V30 2629 H 239.732 -1.62711 3.59053 0
M  V30 2630 H 241.02 -2.51701 4.42181 0
M  V30 2631 H 240.418 -5.06567 2.51806 0
M  V30 2632 H 238.975 -5.65544 3.24043 0
M  V30 2633 N 242.408 -1.52605 -0.393616 0
M  V30 2634 C 243.636 -1.71294 -1.16043 0
M  V30 2635 C 244.051 -0.429259 -1.83855 0
M  V30 2636 O 243.408 0.595921 -1.72496 0
M  V30 2637 C 243.459 -2.8593 -2.21193 0
M  V30 2638 O 243.18 -4.09329 -1.56146 0
M  V30 2639 C 244.681 -3.16259 -3.10636 0
M  V30 2640 H 241.901 -0.573641 -0.348104 0
M  V30 2641 H 244.445 -1.99234 -0.461092 0
M  V30 2642 H 242.6 -2.60465 -2.86769 0
M  V30 2643 H 243.014 -4.73323 -2.25978 0
M  V30 2644 H 244.488 -3.99946 -3.80456 0
M  V30 2645 H 244.965 -2.3045 -3.73884 0
M  V30 2646 H 245.571 -3.43547 -2.50711 0
M  V30 2647 N 243.887 0.651787 -1.4349 0
M  V30 2648 C 244.817 1.77621 -1.51569 0
M  V30 2649 C 245.798 1.66022 -0.370253 0
M  V30 2650 O 246.983 1.85095 -0.587658 0
M  V30 2651 C 244.113 3.16056 -1.43966 0
M  V30 2652 C 243.067 3.4242 -2.56774 0
M  V30 2653 C 242.393 4.8067 -2.34223 0
M  V30 2654 C 243.693 3.37023 -3.99015 0
M  V30 2655 H 245.387 1.71117 -2.45681 0
M  V30 2656 H 242.933 0.821825 -1.18246 0
M  V30 2657 H 244.886 3.94472 -1.48221 0
M  V30 2658 H 243.61 3.23293 -0.463586 0
M  V30 2659 H 242.269 2.66375 -2.51873 0
M  V30 2660 H 241.917 4.84585 -1.34856 0
M  V30 2661 H 241.617 4.9927 -3.09844 0
M  V30 2662 H 243.141 5.61342 -2.40265 0
M  V30 2663 H 244.555 4.05374 -4.05395 0
M  V30 2664 H 242.952 3.67159 -4.74673 0
M  V30 2665 H 244.022 2.3518 -4.2405 0
M  V30 2666 N 245.365 1.30045 0.890287 0
M  V30 2667 C 246.295 1.18541 2.01172 0
M  V30 2668 C 247.276 0.0773356 1.69924 0
M  V30 2669 O 248.461 0.25845 1.92473 0
M  V30 2670 C 245.591 0.870941 3.36202 0
M  V30 2671 C 244.545 1.93637 3.81692 0
M  V30 2672 C 243.871 1.475 5.13953 0
M  V30 2673 C 245.171 3.34666 4.00994 0
M  V30 2674 H 246.865 2.12359 2.11054 0
M  V30 2675 H 244.411 1.02238 1.01407 0
M  V30 2676 H 246.364 0.777141 4.14172 0
M  V30 2677 H 245.088 -0.102926 3.26438 0
M  V30 2678 H 243.747 2.01972 3.05946 0
M  V30 2679 H 243.395 0.489551 5.00612 0
M  V30 2680 H 243.095 2.1876 5.4536 0
M  V30 2681 H 244.619 1.39489 5.94454 0
M  V30 2682 H 246.033 3.2912 4.69417 0
M  V30 2683 H 244.43 4.03966 4.43769 0
M  V30 2684 H 245.5 3.76949 3.05021 0
M  V30 2685 N 246.843 -1.10192 1.12674 0
M  V30 2686 C 248.091 -1.81845 0.881861 0
M  V30 2687 C 248.412 -1.85737 -0.593867 0
M  V30 2688 O 247.682 -1.33724 -1.4316 0
M  V30 2689 H 246.262 -0.673432 0.323261 0
M  V30 2690 H 248.924 -1.33316 1.42172 0
M  V30 2691 H 248.02 -2.85288 1.2656 0
M  V30 2692 N 248.321 -0.919034 -1.28029 0
M  V30 2693 C 249.549 -0.570971 -1.98866 0
M  V30 2694 C 249.964 0.848996 -1.68634 0
M  V30 2695 O 249.321 1.56307 -0.942036 0
M  V30 2696 C 249.372 -0.776876 -3.53054 0
M  V30 2697 O 249.093 -2.14097 -3.82222 0
M  V30 2698 C 250.594 -0.436356 -4.41147 0
M  V30 2699 H 247.814 -0.217175 -0.634883 0
M  V30 2700 H 250.358 -1.23368 -1.63097 0
M  V30 2701 H 248.513 -0.161085 -3.87065 0
M  V30 2702 H 248.927 -2.18455 -4.76841 0
M  V30 2703 H 250.401 -0.63117 -5.4838 0
M  V30 2704 H 250.878 0.627686 -4.34692 0
M  V30 2705 H 251.484 -1.02991 -4.12641 0
M  V30 2706 N 249.799 1.42003 -0.683588 0
M  V30 2707 C 250.747 2.326 0.000815408 0
M  V30 2708 C 251.741 1.50308 0.781278 0
M  V30 2709 O 252.947 1.66322 0.688251 0
M  V30 2710 H 249.322 0.751758 0.0190616 0
M  V30 2711 H 251.293 2.88011 -0.780528 0
M  V30 2712 C 250.042 3.34978 0.93195 0
M  V30 2713 H 249.365 3.98345 0.340817 0
M  V30 2714 H 250.805 4.00936 1.37936 0
M  V30 2715 C 249.264 2.67925 2.04249 0
M  V30 2716 O 249.794 2.51788 3.12995 0
M  V30 2717 N 248 2.2681 1.81675 0
M  V30 2718 H 247.547 2.40135 0.932363 0
M  V30 2719 H 247.505 1.8228 2.56167 0
M  V30 2720 N 251.277 0.427512 1.51691 0
M  V30 2721 C 252.225 -0.403359 2.29076 0
M  V30 2722 C 253.219 -1.02962 1.34518 0
M  V30 2723 O 254.425 -0.965715 1.51901 0
M  V30 2724 H 250.8 -0.148879 0.737115 0
M  V30 2725 H 252.771 0.270295 2.97173 0
M  V30 2726 C 251.52 -1.49763 3.13794 0
M  V30 2727 H 250.843 -1.02508 3.86435 0
M  V30 2728 H 252.283 -2.05244 3.71014 0
M  V30 2729 C 250.742 -2.47536 2.28533 0
M  V30 2730 O 251.272 -3.51848 1.93819 0
M  V30 2731 N 249.478 -2.18187 1.91945 0
M  V30 2732 H 249.025 -1.33389 2.20375 0
M  V30 2733 H 248.983 -2.83848 1.35195 0
M  V30 2734 N 252.755 -1.56801 0.158532 0
M  V30 2735 C 254.001 -1.96781 -0.490405 0
M  V30 2736 C 254.334 -1.04397 -1.63753 0
M  V30 2737 O 253.609 -0.0885805 -1.94298 0
M  V30 2738 C 253.892 -3.4635 -0.985594 0
M  V30 2739 C 253.745 -4.49512 0.160824 0
M  V30 2740 C 255.064 -3.98697 -1.86355 0
M  V30 2741 H 252.183 -0.715482 -0.176788 0
M  V30 2742 H 254.825 -1.88451 0.242088 0
M  V30 2743 H 252.975 -3.53579 -1.60978 0
M  V30 2744 H 254.647 -4.54353 0.797537 0
M  V30 2745 H 252.89 -4.26013 0.818256 0
M  V30 2746 H 253.561 -5.51531 -0.227569 0
M  V30 2747 H 256.037 -3.94019 -1.33746 0
M  V30 2748 H 254.913 -5.03792 -2.17909 0
M  V30 2749 H 255.174 -3.41744 -2.8047 0
M  V30 2750 N 254.233 0.115231 -1.57178 0
M  V30 2751 C 255.196 1.12526 -1.99676 0
M  V30 2752 C 256.196 1.34095 -0.88742 0
M  V30 2753 O 257.386 1.30548 -1.15337 0
M  V30 2754 C 254.518 2.4789 -2.34015 0
M  V30 2755 H 255.711 0.759912 -2.90113 0
M  V30 2756 H 253.264 0.359648 -1.52106 0
M  V30 2757 H 253.999 2.89339 -1.4647 0
M  V30 2758 H 253.784 2.33588 -3.14927 0
M  V30 2759 H 255.274 3.20575 -2.67622 0
M  V30 2760 N 255.711 1.52812 0.385517 0
M  V30 2761 C 256.957 1.68275 1.13188 0
M  V30 2762 C 257.29 0.423179 1.89533 0
M  V30 2763 O 256.565 -0.579113 1.85679 0
M  V30 2764 C 256.848 2.92001 2.1073 0
M  V30 2765 C 256.701 4.28067 1.38125 0
M  V30 2766 C 258.02 3.11283 3.11113 0
M  V30 2767 H 255.139 0.612352 0.410115 0
M  V30 2768 H 257.781 1.85415 0.414869 0
M  V30 2769 H 255.931 2.77519 2.71874 0
M  V30 2770 H 257.603 4.54324 0.799187 0
M  V30 2771 H 255.846 4.28388 0.683092 0
M  V30 2772 H 256.517 5.10733 2.09417 0
M  V30 2773 H 258.993 3.2482 2.6006 0
M  V30 2774 H 257.869 3.99325 3.76605 0
M  V30 2775 H 258.13 2.25656 3.80173 0
M  V30 2776 N 257.189 -0.644168 1.43834 0
M  V30 2777 C 258.414 -1.43642 1.49605 0
M  V30 2778 C 258.839 -1.8773 0.117913 0
M  V30 2779 O 258.197 -1.57938 -0.890239 0
M  V30 2780 C 258.245 -2.6416 2.45463 0
M  V30 2781 O 257.349 -3.63538 1.94714 0
M  V30 2782 H 256.69 -0.430329 0.50568 0
M  V30 2783 H 259.22 -0.787448 1.8884 0
M  V30 2784 H 259.23 -3.11864 2.63068 0
M  V30 2785 H 257.905 -2.31414 3.45572 0
M  V30 2786 H 256.482 -3.2273 1.86814 0
M  V30 2787 N 258.668 -1.30515 -0.883378 0
M  V30 2788 C 259.917 -1.18795 -1.63005 0
M  V30 2789 C 260.23 0.255923 -1.93919 0
M  V30 2790 O 261.436 0.494654 -2.66956 0
M  V30 2791 C 259.892 -2.07878 -2.93794 0
M  V30 2792 C 259.5 -3.57184 -2.70414 0
M  V30 2793 C 261.244 -2.04924 -3.71761 0
M  V30 2794 C 259.151 -4.38317 -3.97029 0
M  V30 2795 H 258.081 -0.441031 -0.611562 0
M  V30 2796 H 260.732 -1.55275 -0.977854 0
M  V30 2797 H 259.114 -1.64283 -3.60315 0
M  V30 2798 H 260.288 -4.08937 -2.12384 0
M  V30 2799 H 258.603 -3.61976 -2.0582 0
M  V30 2800 H 261.2 -2.62792 -4.65665 0
M  V30 2801 H 261.543 -1.0331 -4.03277 0
M  V30 2802 H 262.076 -2.46649 -3.12104 0
M  V30 2803 H 258.815 -5.40632 -3.70671 0
M  V30 2804 H 258.335 -3.91326 -4.54559 0
M  V30 2805 H 260.014 -4.49834 -4.65036 0
M  V30 2806 N 260.146 1.09593 -1.13257 0
M  V30 2807 C 261.423 1.78293 -0.804432 0
M  V30 2808 C 261.803 1.99004 0.70431 0
M  V30 2809 O 261.151 1.59007 1.641 0
M  V30 2810 C 261.361 3.10707 -1.5894 0
M  V30 2811 C 262.709 3.85443 -1.78099 0
M  V30 2812 O 263.733 3.20454 -1.55525 0
M  V30 2813 O 262.592 5.02108 -2.15753 0
M  V30 2814 H 259.686 0.773156 -0.293528 0
M  V30 2815 H 262.232 1.16164 -1.23709 0
M  V30 2816 H 261.004 2.91106 -2.61482 0
M  V30 2817 H 260.627 3.80558 -1.15157 0
M  V30 2818 N 261.624 0.925811 1.2754 0
M  V30 2819 C 262.587 0.428129 2.25166 0
M  V30 2820 C 263.587 -0.452261 1.54309 0
M  V30 2821 O 264.777 -0.253608 1.72344 0
M  V30 2822 C 261.909 -0.384749 3.38722 0
M  V30 2823 H 263.102 1.29066 2.70706 0
M  V30 2824 H 260.655 0.706323 1.3943 0
M  V30 2825 H 261.39 -1.26618 2.98561 0
M  V30 2826 H 261.175 0.246454 3.91325 0
M  V30 2827 H 262.665 -0.723389 4.11287 0
M  V30 2828 N 263.102 -1.41638 0.69111 0
M  V30 2829 C 264.348 -2.01598 0.220519 0
M  V30 2830 C 264.681 -1.54594 -1.17535 0
M  V30 2831 O 263.956 -0.755177 -1.79241 0
M  V30 2832 C 264.239 -3.59062 0.273243 0
M  V30 2833 C 264.092 -4.16203 1.70573 0
M  V30 2834 C 265.411 -4.38546 -0.369457 0
M  V30 2835 H 262.53 -0.732468 0.0816045 0
M  V30 2836 H 265.172 -1.68445 0.878986 0
M  V30 2837 H 263.322 -3.87435 -0.287411 0
M  V30 2838 H 264.994 -3.98722 2.31989 0
M  V30 2839 H 263.237 -3.71414 2.2413 0
M  V30 2840 H 263.908 -5.25358 1.69419 0
M  V30 2841 H 266.384 -4.1596 0.107977 0
M  V30 2842 H 265.26 -5.48069 -0.302002 0
M  V30 2843 H 265.521 -4.17662 -1.44951 0
M  V30 2844 N 264.58 -0.43555 -1.51462 0
M  V30 2845 C 265.53 0.394701 -2.24558 0
M  V30 2846 C 266.514 0.99157 -1.26715 0
M  V30 2847 O 267.706 0.910007 -1.51815 0
M  V30 2848 C 264.835 1.4963 -3.08975 0
M  V30 2849 C 263.921 0.908912 -4.14246 0
M  V30 2850 N 264.312 0.0505335 -5.05775 0
M  V30 2851 C 262.61 1.17668 -4.30198 0
M  V30 2852 C 263.311 -0.279161 -5.8103 0
M  V30 2853 N 262.287 0.336767 -5.42556 0
M  V30 2854 H 266.089 -0.267106 -2.92684 0
M  V30 2855 H 263.603 -0.247518 -1.60503 0
M  V30 2856 H 265.6 2.10394 -3.59917 0
M  V30 2857 H 264.26 2.16046 -2.42393 0
M  V30 2858 H 265.271 -0.31577 -5.16936 0
M  V30 2859 H 261.948 1.83847 -3.74842 0
M  V30 2860 H 263.338 -0.977553 -6.64751 0
M  V30 2861 N 266.058 1.56714 -0.166846 0
M  V30 2862 C 267.288 2.00828 0.48494 0
M  V30 2863 C 267.696 1.04612 1.57648 0
M  V30 2864 O 267.039 0.0383201 1.8366 0
M  V30 2865 C 267.101 3.4137 1.12723 0
M  V30 2866 C 266.765 4.56654 0.177886 0
M  V30 2867 C 267.762 5.16402 -0.60207 0
M  V30 2868 C 265.447 5.02244 0.0750139 0
M  V30 2869 C 267.441 6.20167 -1.47215 0
M  V30 2870 C 265.128 6.05859 -0.798649 0
M  V30 2871 C 266.126 6.64691 -1.57082 0
M  V30 2872 O 265.814 7.66297 -2.42989 0
M  V30 2873 H 265.546 0.663587 0.128953 0
M  V30 2874 H 268.1 2.03692 -0.264365 0
M  V30 2875 H 266.33 3.35406 1.92457 0
M  V30 2876 H 268.019 3.69466 1.68076 0
M  V30 2877 H 268.785 4.82065 -0.53274 0
M  V30 2878 H 264.664 4.56167 0.665812 0
M  V30 2879 H 268.208 6.66016 -2.07531 0
M  V30 2880 H 264.105 6.39621 -0.869199 0
M  V30 2881 H 264.873 7.83601 -2.36455 0
M  V30 2882 N 267.536 -0.106894 1.57237 0
M  V30 2883 C 268.776 -0.818277 1.87306 0
M  V30 2884 C 269.14 -1.76474 0.756371 0
M  V30 2885 O 270.341 -2.5186 0.939155 0
M  V30 2886 C 268.612 -1.53806 3.22612 0
M  V30 2887 S 270.171 -2.28935 3.74345 0
M  V30 2888 H 266.989 -0.272862 0.656557 0
M  V30 2889 H 269.591 -0.075988 1.95352 0
M  V30 2890 H 268.295 -0.834951 4.01817 0
M  V30 2891 H 267.826 -2.32049 3.17674 0
M  V30 2892 H 269.841 -3.54871 3.46815 0
M  V30 2893 N 269.014 -1.53014 -0.377408 0
M  V30 2894 C 270.26 -1.68872 -1.12294 0
M  V30 2895 C 270.593 -0.433224 -1.89306 0
M  V30 2896 O 269.868 0.569258 -1.85983 0
M  V30 2897 C 270.151 -2.93115 -2.09179 0
M  V30 2898 C 270.004 -4.28794 -1.35853 0
M  V30 2899 C 271.323 -3.12928 -3.09458 0
M  V30 2900 H 268.442 -0.614518 -0.406862 0
M  V30 2901 H 271.084 -1.85633 -0.40503 0
M  V30 2902 H 269.234 -2.78956 -2.70399 0
M  V30 2903 H 270.906 -4.54742 -0.775082 0
M  V30 2904 H 269.149 -4.28744 -0.660364 0
M  V30 2905 H 269.82 -5.11837 -2.06706 0
M  V30 2906 H 272.296 -3.26194 -2.58334 0
M  V30 2907 H 271.172 -4.01316 -3.74482 0
M  V30 2908 H 271.433 -2.27669 -3.78971 0
M  V30 2909 N 270.492 0.636531 -1.44174 0
M  V30 2910 C 271.439 1.74875 -1.50624 0
M  V30 2911 C 272.409 1.62275 -0.35442 0
M  V30 2912 O 273.594 1.82276 -0.563908 0
M  V30 2913 C 270.734 3.13102 -1.45125 0
M  V30 2914 C 269.847 3.36717 -2.7064 0
M  V30 2915 C 268.982 4.64885 -2.57013 0
M  V30 2916 C 268.021 4.8166 -3.77717 0
M  V30 2917 N 267.158 6.01101 -3.62798 0
M  V30 2918 H 271.998 1.68697 -2.45653 0
M  V30 2919 H 269.535 0.823004 -1.21922 0
M  V30 2920 H 271.493 3.93034 -1.39929 0
M  V30 2921 H 270.123 3.18308 -0.536671 0
M  V30 2922 H 269.175 2.50763 -2.86046 0
M  V30 2923 H 270.487 3.44993 -3.60252 0
M  V30 2924 H 269.641 5.52969 -2.49619 0
M  V30 2925 H 268.38 4.58957 -1.64953 0
M  V30 2926 H 267.385 3.92007 -3.85501 0
M  V30 2927 H 268.61 4.89406 -4.70807 0
M  V30 2928 H 266.556 5.96273 -2.73486 0
M  V30 2929 H 266.473 6.10409 -4.46023 0
M  V30 2930 H 267.741 6.91761 -3.59286 0
M  V30 2931 N 271.97 1.30982 0.876444 0
M  V30 2932 C 272.933 1.18054 1.96459 0
M  V30 2933 C 273.933 0.109399 1.60427 0
M  V30 2934 O 275.123 0.358173 1.70478 0
M  V30 2935 C 272.255 0.810616 3.31122 0
M  V30 2936 H 273.448 2.14735 2.09354 0
M  V30 2937 H 271.001 1.145 1.06392 0
M  V30 2938 H 271.736 -0.155322 3.23928 0
M  V30 2939 H 271.521 1.58481 3.58645 0
M  V30 2940 H 273.011 0.743876 4.10921 0
M  V30 2941 N 273.449 -1.08991 1.13837 0
M  V30 2942 C 274.865 -1.33312 0.877506 0
M  V30 2943 C 275.065 -1.95587 -0.48456 0
M  V30 2944 O 274.121 -2.20509 -1.23013 0
M  V30 2945 C 275.434 -2.24045 2.0056 0
M  V30 2946 C 276.982 -2.37542 2.03821 0
M  V30 2947 C 277.457 -3.31614 3.15905 0
M  V30 2948 N 278.948 -3.39189 3.15445 0
M  V30 2949 C 279.683 -4.11992 3.98811 0
M  V30 2950 N 279.179 -4.87553 4.92203 0
M  V30 2951 N 280.972 -4.07762 3.86894 0
M  V30 2952 H 273.123 -0.669456 2.01574 0
M  V30 2953 H 275.386 -0.357482 0.878015 0
M  V30 2954 H 275.092 -1.85521 2.98789 0
M  V30 2955 H 274.966 -3.24466 1.92359 0
M  V30 2956 H 277.353 -2.75327 1.06202 0
M  V30 2957 H 277.434 -1.36884 2.16093 0
M  V30 2958 H 277.078 -2.94551 4.13766 0
M  V30 2959 H 277.008 -4.32186 3.0087 0
M  V30 2960 H 279.499 -2.85314 2.47799 0
M  V30 2961 H 279.812 -5.40549 5.52292 0
M  V30 2962 H 278.157 -4.86627 4.96205 0
M  V30 2963 H 281.348 -3.47833 3.13257 0
M  V30 2964 H 281.521 -4.64238 4.52092 0
M  V30 2965 N 274.927 -0.932562 -1.27047 0
M  V30 2966 C 276.175 -0.574422 -1.93765 0
M  V30 2967 C 276.496 0.887993 -1.73608 0
M  V30 2968 O 275.766 1.62999 -1.08665 0
M  V30 2969 H 274.346 -0.209451 -0.717035 0
M  V30 2970 H 277.008 -1.18601 -1.5466 0
M  V30 2971 H 276.104 -0.784841 -3.02071 0
M  V30 2972 N 276.405 1.4127 -0.698611 0
M  V30 2973 C 277.654 2.00408 -0.227949 0
M  V30 2974 C 277.967 1.55981 1.18023 0
M  V30 2975 O 279.173 2.07699 1.74852 0
M  V30 2976 C 277.629 3.58129 -0.356636 0
M  V30 2977 C 277.237 4.11536 -1.77037 0
M  V30 2978 C 278.981 4.24466 0.0540969 0
M  V30 2979 C 276.888 5.61701 -1.85055 0
M  V30 2980 H 275.818 0.749586 -0.0814657 0
M  V30 2981 H 278.469 1.61713 -0.867249 0
M  V30 2982 H 276.851 3.94442 0.350965 0
M  V30 2983 H 278.025 3.86636 -2.50698 0
M  V30 2984 H 276.34 3.57736 -2.13105 0
M  V30 2985 H 278.937 5.34698 0.0146723 0
M  V30 2986 H 279.28 4.01687 1.09332 0
M  V30 2987 H 279.813 3.93198 -0.603337 0
M  V30 2988 H 276.552 5.89312 -2.8704 0
M  V30 2989 H 276.072 5.88519 -1.15783 0
M  V30 2990 H 277.751 6.26524 -1.61484 0
M  V30 2991 N 277.883 0.443576 1.51229 0
M  V30 2992 C 279.299 0.0962001 1.5931 0
M  V30 2993 C 279.499 -1.39501 1.45402 0
M  V30 2994 O 278.555 -2.16557 1.29843 0
M  V30 2995 C 279.868 0.621875 2.94199 0
M  V30 2996 C 281.416 0.582865 3.07525 0
M  V30 2997 C 281.891 1.08562 4.44948 0
M  V30 2998 N 283.382 1.04387 4.51284 0
M  V30 2999 C 284.117 1.40368 5.55954 0
M  V30 3000 N 283.613 1.83664 6.68011 0
M  V30 3001 N 285.406 1.32145 5.46346 0
M  V30 3002 H 277.557 1.41376 1.58514 0
M  V30 3003 H 279.82 0.582965 0.747567 0
M  V30 3004 H 279.526 1.66546 3.09767 0
M  V30 3005 H 279.4 0.0502125 3.77167 0
M  V30 3006 H 281.787 -0.451749 2.91622 0
M  V30 3007 H 281.868 1.191 2.26382 0
M  V30 3008 H 281.512 2.11873 4.61598 0
M  V30 3009 H 281.442 0.453956 5.2464 0
M  V30 3010 H 283.933 0.725986 3.70861 0
M  V30 3011 H 284.246 2.0934 7.43906 0
M  V30 3012 H 282.591 1.87596 6.69203 0
M  V30 3013 H 285.782 0.981808 4.57688 0
M  V30 3014 H 285.955 1.60514 6.27805 0
M  V30 3015 N 279.361 -1.56624 0.175154 0
M  V30 3016 C 280.638 -1.88688 -0.515373 0
M  V30 3017 C 281.018 -1.08564 -1.81044 0
M  V30 3018 O 280.366 -0.180703 -2.27784 0
M  V30 3019 C 280.576 -3.40768 -0.753552 0
M  V30 3020 C 281.924 -4.10587 -1.08184 0
M  V30 3021 O 282.948 -3.46106 -0.841961 0
M  V30 3022 O 281.807 -5.24512 -1.53459 0
M  V30 3023 H 278.901 -0.78301 -0.26613 0
M  V30 3024 H 281.447 -1.68347 0.213877 0
M  V30 3025 H 280.219 -3.90965 0.161829 0
M  V30 3026 H 279.842 -3.66733 -1.53598 0
M  V30 3027 N 280.839 0.0985539 -1.57292 0
M  V30 3028 C 281.802 1.10402 -2.00858 0
M  V30 3029 C 282.802 1.33146 -0.901593 0
M  V30 3030 O 283.992 1.29318 -1.16716 0
M  V30 3031 C 281.124 2.45394 -2.36632 0
M  V30 3032 H 282.317 0.729099 -2.90902 0
M  V30 3033 H 279.87 0.343495 -1.52479 0
M  V30 3034 H 280.605 2.87769 -1.49531 0
M  V30 3035 H 280.39 2.30235 -3.17387 0
M  V30 3036 H 281.88 3.17718 -2.71007 0
M  V30 3037 N 282.317 1.53212 0.369288 0
M  V30 3038 C 283.545 1.73119 1.13303 0
M  V30 3039 C 283.96 0.458455 1.83149 0
M  V30 3040 O 283.317 -0.568403 1.73423 0
M  V30 3041 C 283.368 2.89413 2.16616 0
M  V30 3042 O 283.089 4.11761 1.49614 0
M  V30 3043 C 284.59 3.21161 3.05566 0
M  V30 3044 H 281.81 0.579107 0.338934 0
M  V30 3045 H 284.354 1.99942 0.429338 0
M  V30 3046 H 282.509 2.64994 2.82589 0
M  V30 3047 H 282.923 4.76858 2.18419 0
M  V30 3048 H 284.397 4.05949 3.74045 0
M  V30 3049 H 284.874 2.36369 3.70171 0
M  V30 3050 H 285.48 3.47492 2.45213 0
M  V30 3051 N 283.795 -0.628877 1.44509 0
M  V30 3052 C 285.02 -1.42048 1.5112 0
M  V30 3053 C 285.445 -1.87594 0.137818 0
M  V30 3054 O 284.803 -1.58873 -0.873437 0
M  V30 3055 C 284.851 -2.61541 2.48251 0
M  V30 3056 O 283.955 -3.61453 1.98559 0
M  V30 3057 H 283.296 -0.424942 0.510216 0
M  V30 3058 H 285.826 -0.767374 1.89664 0
M  V30 3059 H 285.836 -3.09057 2.66361 0
M  V30 3060 H 284.511 -2.27736 3.48007 0
M  V30 3061 H 283.088 -3.20731 1.90227 0
M  V30 3062 N 285.273 -1.31445 -0.869486 0
M  V30 3063 C 286.236 -1.19094 -1.9583 0
M  V30 3064 C 287.236 -0.117906 -1.60367 0
M  V30 3065 O 288.426 -0.367208 -1.70286 0
M  V30 3066 C 285.558 -0.828165 -3.30688 0
M  V30 3067 H 286.751 -2.15842 -2.08212 0
M  V30 3068 H 284.304 -1.15063 -1.05784 0
M  V30 3069 H 285.039 0.138142 -3.24006 0
M  V30 3070 H 284.824 -1.6038 -3.578 0
M  V30 3071 H 286.314 -0.765658 -4.10521 0
M  V30 3072 N 286.751 1.08385 -1.14413 0
M  V30 3073 C 287.979 1.84517 -0.936001 0
M  V30 3074 C 288.394 1.81626 0.515503 0
M  V30 3075 O 287.751 1.22008 1.35721 0
M  V30 3076 C 287.802 3.32049 -1.42918 0
M  V30 3077 O 287.523 3.34951 -2.82381 0
M  V30 3078 C 289.024 4.24986 -1.26103 0
M  V30 3079 H 286.244 0.582491 -0.333084 0
M  V30 3080 H 288.788 1.36885 -1.5193 0
M  V30 3081 H 286.943 3.7707 -0.888641 0
M  V30 3082 H 287.357 4.27048 -3.04517 0
M  V30 3083 H 288.831 5.26615 -1.6547 0
M  V30 3084 H 289.308 4.38726 -0.20392 0
M  V30 3085 H 289.914 3.85791 -1.79012 0
M  V30 3086 N 288.23 0.939286 1.26551 0
M  V30 3087 C 289.458 0.602536 1.97932 0
M  V30 3088 C 289.873 -0.82206 1.69964 0
M  V30 3089 O 289.23 -1.54789 0.966784 0
M  V30 3090 C 289.281 0.832946 3.51773 0
M  V30 3091 O 289.002 2.20151 3.78768 0
M  V30 3092 C 290.503 0.506483 4.40397 0
M  V30 3093 H 287.723 0.227248 0.631347 0
M  V30 3094 H 290.267 1.25948 1.61113 0
M  V30 3095 H 288.422 0.222644 3.8676 0
M  V30 3096 H 288.836 2.26013 4.73306 0
M  V30 3097 H 290.31 0.718333 5.47306 0
M  V30 3098 H 290.787 -0.558451 4.35635 0
M  V30 3099 H 291.393 1.09543 4.10951 0
M  V30 3100 N 289.708 -1.40897 0.706093 0
M  V30 3101 C 290.936 -2.05373 0.250887 0
M  V30 3102 C 291.351 -1.53172 -1.10381 0
M  V30 3103 O 290.708 -0.684305 -1.69185 0
M  V30 3104 C 290.759 -3.6088 0.211571 0
M  V30 3105 O 290.48 -4.11153 1.51276 0
M  V30 3106 C 291.981 -4.42517 -0.263346 0
M  V30 3107 H 289.201 -0.66115 0.114552 0
M  V30 3108 H 291.745 -1.80479 0.961635 0
M  V30 3109 H 289.9 -3.84777 -0.450073 0
M  V30 3110 H 290.314 -5.05279 1.40689 0
M  V30 3111 H 291.788 -5.51479 -0.239718 0
M  V30 3112 H 292.265 -4.19396 -1.30397 0
M  V30 3113 H 292.871 -4.23708 0.367677 0
M  V30 3114 N 291.186 -0.45159 -1.50991 0
M  V30 3115 C 292.414 0.108334 -2.06616 0
M  V30 3116 C 292.829 1.35224 -1.31757 0
M  V30 3117 O 292.186 1.78475 -0.381174 0
M  V30 3118 C 292.237 0.41619 -3.59096 0
M  V30 3119 O 291.958 -0.778361 -4.3113 0
M  V30 3120 C 293.459 1.02523 -4.31282 0
M  V30 3121 H 290.679 0.00159995 -0.670998 0
M  V30 3122 H 293.223 -0.634771 -1.94399 0
M  V30 3123 H 291.378 1.10921 -3.71181 0
M  V30 3124 H 291.792 -0.511181 -5.22003 0
M  V30 3125 H 293.266 1.19053 -5.39009 0
M  V30 3126 H 293.743 2.01013 -3.905 0
M  V30 3127 H 294.349 0.371173 -4.23677 0
M  V30 3128 N 292.664 1.56529 -0.183458 0
M  V30 3129 C 293.889 2.02064 0.467428 0
M  V30 3130 C 294.314 1.06282 1.55196 0
M  V30 3131 O 293.672 0.0443565 1.81246 0
M  V30 3132 C 293.72 3.46122 1.01153 0
M  V30 3133 O 292.824 3.53437 2.12499 0
M  V30 3134 H 292.165 0.654726 0.110588 0
M  V30 3135 H 294.695 2.02521 -0.290917 0
M  V30 3136 H 294.705 3.85676 1.33108 0
M  V30 3137 H 293.38 4.15331 0.217533 0
M  V30 3138 H 291.957 3.2575 1.81497 0
M  V30 3139 N 294.142 -0.090211 1.57342 0
M  V30 3140 C 295.072 -1.10976 2.05443 0
M  V30 3141 C 296.053 -1.41482 0.944284 0
M  V30 3142 O 297.238 -1.51428 1.21586 0
M  V30 3143 C 294.368 -2.42831 2.48295 0
M  V30 3144 C 293.322 -2.26721 3.63018 0
M  V30 3145 C 292.648 -3.63796 3.91863 0
M  V30 3146 C 293.948 -1.7037 4.93732 0
M  V30 3147 H 295.642 -0.709564 2.9087 0
M  V30 3148 H 293.188 -0.339874 1.39932 0
M  V30 3149 H 295.141 -3.14431 2.80555 0
M  V30 3150 H 293.865 -2.84795 1.59873 0
M  V30 3151 H 292.524 -1.57565 3.31012 0
M  V30 3152 H 292.172 -4.03297 3.00601 0
M  V30 3153 H 291.872 -3.53861 4.69101 0
M  V30 3154 H 293.396 -4.36855 4.26603 0
M  V30 3155 H 294.81 -2.31816 5.24342 0
M  V30 3156 H 293.207 -1.71181 5.75167 0
M  V30 3157 H 294.277 -0.663542 4.80339 0
M  V30 3158 N 295.62 -1.53406 -0.361157 0
M  V30 3159 C 296.868 -1.69467 -1.10115 0
M  V30 3160 C 297.189 -0.451352 -1.89705 0
M  V30 3161 O 296.459 0.534636 -1.88463 0
M  V30 3162 H 295.039 -0.624749 -0.409508 0
M  V30 3163 H 297.701 -1.90609 -0.406699 0
M  V30 3164 H 296.797 -2.55774 -1.78847 0
M  V30 3165 N 297.098 0.621204 -1.44841 0
M  V30 3166 C 298.346 1.37783 -1.47852 0
M  V30 3167 C 298.667 1.94653 -0.116224 0
M  V30 3168 O 297.937 1.76367 0.852737 0
M  V30 3169 H 296.517 0.511453 -0.544449 0
M  V30 3170 H 299.179 0.730446 -1.80694 0
M  V30 3171 H 298.275 2.20414 -2.20961 0
M  V30 3172 N 298.576 1.31904 0.862503 0
M  V30 3173 C 299.506 1.22782 1.98612 0
M  V30 3174 C 300.487 0.113362 1.69722 0
M  V30 3175 O 301.672 0.299218 1.91881 0
M  V30 3176 C 298.802 0.942058 3.34279 0
M  V30 3177 C 297.756 2.0169 3.77499 0
M  V30 3178 C 297.082 1.58369 5.10709 0
M  V30 3179 C 298.382 3.43096 3.93805 0
M  V30 3180 H 300.076 2.16788 2.06502 0
M  V30 3181 H 297.622 1.04366 0.992154 0
M  V30 3182 H 299.575 0.864818 4.1243 0
M  V30 3183 H 298.299 -0.0336603 3.26583 0
M  V30 3184 H 296.958 2.08416 3.01593 0
M  V30 3185 H 296.606 0.595628 4.99461 0
M  V30 3186 H 296.306 2.30279 5.40597 0
M  V30 3187 H 297.83 1.52067 5.91361 0
M  V30 3188 H 299.244 3.39003 4.62331 0
M  V30 3189 H 297.641 4.13288 4.35101 0
M  V30 3190 H 298.711 3.83334 2.96957 0
M  V30 3191 N 300.054 -1.07777 1.14986 0
M  V30 3192 C 301.301 -1.8029 0.922056 0
M  V30 3193 C 301.629 -1.86531 -0.55105 0
M  V30 3194 O 300.884 -1.34189 -1.42449 0
M  V30 3195 C 301.183 -3.25495 1.47608 0
M  V30 3196 C 300.849 -3.39361 2.96893 0
M  V30 3197 C 299.511 -3.42852 3.37647 0
M  V30 3198 C 301.863 -3.42512 3.92854 0
M  V30 3199 C 299.191 -3.47094 4.73015 0
M  V30 3200 C 301.543 -3.4829 5.28088 0
M  V30 3201 C 300.207 -3.50058 5.68345 0
M  V30 3202 H 299.477 -0.659727 0.337404 0
M  V30 3203 H 302.124 -1.26854 1.43459 0
M  V30 3204 H 300.429 -3.81683 0.88463 0
M  V30 3205 H 302.126 -3.80168 1.27568 0
M  V30 3206 H 298.716 -3.37339 2.64387 0
M  V30 3207 H 302.9 -3.3904 3.62444 0
M  V30 3208 H 298.156 -3.46758 5.03556 0
M  V30 3209 H 302.33 -3.49675 6.02246 0
M  V30 3210 H 299.957 -3.53097 6.73221 0
M  V30 3211 N 301.532 -0.945985 -1.26051 0
M  V30 3212 C 302.479 -0.45809 -2.26208 0
M  V30 3213 C 303.449 0.484816 -1.58867 0
M  V30 3214 O 304.634 0.399969 -1.86561 0
M  V30 3215 C 301.774 0.266131 -3.44072 0
M  V30 3216 C 300.887 -0.713005 -4.26075 0
M  V30 3217 C 300.022 0.0329013 -5.3119 0
M  V30 3218 C 299.061 -0.93774 -6.04874 0
M  V30 3219 N 298.198 -0.223274 -7.01745 0
M  V30 3220 H 303.038 -1.3171 -2.67313 0
M  V30 3221 H 300.575 -0.66069 -1.31428 0
M  V30 3222 H 302.533 0.702514 -4.11243 0
M  V30 3223 H 301.163 1.08925 -3.03867 0
M  V30 3224 H 300.215 -1.26789 -3.58648 0
M  V30 3225 H 301.527 -1.45406 -4.77136 0
M  V30 3226 H 300.681 0.528335 -6.04395 0
M  V30 3227 H 299.42 0.806801 -4.8098 0
M  V30 3228 H 298.425 -1.44425 -5.30492 0
M  V30 3229 H 299.65 -1.71172 -6.57173 0
M  V30 3230 H 297.596 0.532046 -6.53839 0
M  V30 3231 H 297.513 -0.90357 -7.50581 0
M  V30 3232 H 298.781 0.250907 -7.79096 0
M  V30 3233 N 303.011 1.40521 -0.713556 0
M  V30 3234 C 304.236 2.05759 -0.26035 0
M  V30 3235 C 304.661 1.53403 1.08854 0
M  V30 3236 O 304.019 0.668535 1.68524 0
M  V30 3237 C 304.067 3.59745 -0.248122 0
M  V30 3238 O 303.171 4.05123 0.77131 0
M  V30 3239 H 302.512 0.652564 -0.122703 0
M  V30 3240 H 305.042 1.79958 -0.973467 0
M  V30 3241 H 305.052 4.07911 -0.0851129 0
M  V30 3242 H 303.727 3.97218 -1.2325 0
M  V30 3243 H 302.304 3.68422 0.57619 0
M  V30 3244 N 304.489 0.459591 1.5075 0
M  V30 3245 C 305.714 -0.0996819 2.0716 0
M  V30 3246 C 306.139 -1.33761 1.32249 0
M  V30 3247 O 305.497 -1.77551 0.366786 0
M  V30 3248 C 305.545 -0.378226 3.58611 0
M  V30 3249 O 304.649 -1.46081 3.85661 0
M  V30 3250 H 303.99 0.00791392 0.663953 0
M  V30 3251 H 306.52 0.647329 1.9409 0
M  V30 3252 H 306.53 -0.622135 4.03229 0
M  V30 3253 H 305.205 0.526439 4.12555 0
M  V30 3254 H 303.782 -1.20511 3.5289 0
M  V30 3255 N 305.967 -1.56429 0.191757 0
M  V30 3256 C 306.899 -2.16154 -0.762245 0
M  V30 3257 C 307.912 -1.12247 -1.17917 0
M  V30 3258 O 309.101 -1.39353 -1.11548 0
M  V30 3259 C 306.201 -2.70606 -2.04024 0
M  V30 3260 C 305.374 -3.99381 -1.78364 0
M  V30 3261 C 304.433 -4.38692 -2.90578 0
M  V30 3262 O 303.459 -5.06179 -2.6033 0
M  V30 3263 N 304.661 -4.01922 -4.18854 0
M  V30 3264 H 307.426 -2.98643 -0.251526 0
M  V30 3265 H 304.987 -1.61897 0.00967373 0
M  V30 3266 H 306.979 -2.93891 -2.78227 0
M  V30 3267 H 305.549 -1.9259 -2.46227 0
M  V30 3268 H 304.769 -3.84262 -0.879581 0
M  V30 3269 H 306.057 -4.83445 -1.58614 0
M  V30 3270 H 305.455 -3.47631 -4.46283 0
M  V30 3271 H 304.012 -4.30165 -4.89695 0
M  V30 3272 N 307.445 0.0818655 -1.57387 0
M  V30 3273 C 308.393 1.11712 -2.04018 0
M  V30 3274 C 309.387 1.40683 -0.94364 0
M  V30 3275 O 310.593 1.40209 -1.12878 0
M  V30 3276 H 306.968 0.377542 -0.650358 0
M  V30 3277 H 308.939 0.697614 -2.90131 0
M  V30 3278 C 307.688 2.42537 -2.49141 0
M  V30 3279 H 307.011 2.21092 -3.33104 0
M  V30 3280 H 308.451 3.13446 -2.85531 0
M  V30 3281 C 306.91 3.0778 -1.37014 0
M  V30 3282 O 307.44 3.95436 -0.706621 0
M  V30 3283 N 305.646 2.68242 -1.11779 0
M  V30 3284 H 305.193 1.97052 -1.65917 0
M  V30 3285 H 305.151 3.1222 -0.369594 0
M  V30 3286 N 308.923 1.53595 0.353017 0
M  V30 3287 C 310.151 1.74311 1.1146 0
M  V30 3288 C 310.566 0.477854 1.82653 0
M  V30 3289 O 309.923 -0.549977 1.74016 0
M  V30 3290 C 309.974 2.91694 2.13534 0
M  V30 3291 O 309.695 4.13325 1.45238 0
M  V30 3292 C 311.196 3.24384 3.02142 0
M  V30 3293 H 308.416 0.582669 0.332773 0
M  V30 3294 H 310.96 2.00386 0.408107 0
M  V30 3295 H 309.115 2.67977 2.79763 0
M  V30 3296 H 309.529 4.79148 2.13349 0
M  V30 3297 H 311.003 4.09893 3.69718 0
M  V30 3298 H 311.48 2.40282 3.67643 0
M  V30 3299 H 312.086 3.50073 2.41514 0
M  V30 3300 N 310.401 -0.613514 1.45168 0
M  V30 3301 C 311.817 -0.933629 1.29443 0
M  V30 3302 C 312.017 -2.00028 0.243101 0
M  V30 3303 O 311.073 -2.49848 -0.364992 0
M  V30 3304 C 312.386 -1.38018 2.67155 0
M  V30 3305 C 313.934 -1.49471 2.75004 0
M  V30 3306 C 314.409 -1.97503 4.13227 0
M  V30 3307 N 315.9 -2.04746 4.15491 0
M  V30 3308 C 316.635 -2.43121 5.19307 0
M  V30 3309 N 316.131 -2.80506 6.33473 0
M  V30 3310 N 317.924 -2.43408 5.06664 0
M  V30 3311 H 310.075 0.0916097 2.12202 0
M  V30 3312 H 312.338 -0.0216655 0.947752 0
M  V30 3313 H 312.044 -0.670625 3.45247 0
M  V30 3314 H 311.918 -2.34784 2.95222 0
M  V30 3315 H 314.305 -2.19519 1.9722 0
M  V30 3316 H 314.386 -0.510342 2.50657 0
M  V30 3317 H 314.03 -1.28045 4.91495 0
M  V30 3318 H 313.96 -2.96843 4.34962 0
M  V30 3319 H 316.451 -1.78468 3.33103 0
M  V30 3320 H 316.764 -3.08652 7.08487 0
M  V30 3321 H 315.109 -2.78216 6.36884 0
M  V30 3322 H 318.3 -2.13604 4.16523 0
M  V30 3323 H 318.473 -2.72989 5.87691 0
M  V30 3324 N 311.879 -1.3236 -0.855495 0
M  V30 3325 C 312.829 -1.17809 -1.95205 0
M  V30 3326 C 313.813 -0.0852319 -1.60674 0
M  V30 3327 O 315.005 -0.311651 -1.74235 0
M  V30 3328 C 312.134 -0.902437 -3.31226 0
M  V30 3329 C 311.22 -2.03695 -3.7198 0
M  V30 3330 N 311.611 -3.28544 -3.84568 0
M  V30 3331 C 309.909 -1.93993 -4.016 0
M  V30 3332 C 310.61 -4.02847 -4.19629 0
M  V30 3333 N 309.586 -3.31138 -4.31102 0
M  V30 3334 H 313.388 -2.12462 -2.0307 0
M  V30 3335 H 310.902 -1.24127 -1.0472 0
M  V30 3336 H 312.899 -0.77915 -4.09554 0
M  V30 3337 H 311.559 0.0357267 -3.2468 0
M  V30 3338 H 312.57 -3.6349 -3.68911 0
M  V30 3339 H 309.247 -1.07733 -4.03361 0
M  V30 3340 H 310.637 -5.10506 -4.36845 0
M  V30 3341 N 313.357 1.07166 -1.15556 0
M  V30 3342 C 314.267 2.17947 -0.868116 0
M  V30 3343 C 315.283 1.73297 0.156297 0
M  V30 3344 O 316.459 2.01392 -0.0182327 0
M  V30 3345 C 313.524 3.44789 -0.36355 0
M  V30 3346 C 312.585 4.03996 -1.45209 0
M  V30 3347 C 311.818 5.24783 -0.971508 0
M  V30 3348 O 312.041 5.70109 0.182194 0
M  V30 3349 O 310.975 5.75715 -1.75603 0
M  V30 3350 H 314.801 2.4503 -1.79427 0
M  V30 3351 H 312.386 1.16539 -0.934824 0
M  V30 3352 H 314.268 4.21307 -0.0887113 0
M  V30 3353 H 312.943 3.19253 0.534708 0
M  V30 3354 H 311.85 3.29009 -1.78056 0
M  V30 3355 H 313.183 4.33808 -2.32533 0
M  V30 3356 N 314.835 0.952656 1.25548 0
M  V30 3357 C 316.082 0.606373 1.93208 0
M  V30 3358 C 316.41 -0.85631 1.74636 0
M  V30 3359 O 315.665 -1.62951 1.08376 0
M  V30 3360 C 315.964 0.908818 3.45652 0
M  V30 3361 C 315.63 2.35722 3.84378 0
M  V30 3362 C 314.292 2.75312 3.9466 0
M  V30 3363 C 316.644 3.29793 4.03591 0
M  V30 3364 C 313.972 4.08047 4.21562 0
M  V30 3365 C 316.324 4.62138 4.31985 0
M  V30 3366 C 314.988 5.01528 4.40484 0
M  V30 3367 H 314.258 0.221888 0.706998 0
M  V30 3368 H 316.905 1.20132 1.49133 0
M  V30 3369 H 315.21 0.231456 3.91116 0
M  V30 3370 H 316.907 0.619498 3.96186 0
M  V30 3371 H 313.497 2.04017 3.76928 0
M  V30 3372 H 317.681 3.00397 3.95064 0
M  V30 3373 H 312.937 4.38212 4.26357 0
M  V30 3374 H 317.111 5.35012 4.45797 0
M  V30 3375 H 314.738 6.04406 4.61083 0
M  V30 3376 N 316.313 -1.40141 0.720998 0
M  V30 3377 C 317.243 -2.33339 0.0867621 0
M  V30 3378 C 318.224 -1.53178 -0.739622 0
M  V30 3379 O 319.409 -1.81625 -0.687449 0
M  V30 3380 C 316.539 -3.37194 -0.831728 0
M  V30 3381 C 315.493 -4.27857 -0.110558 0
M  V30 3382 C 314.819 -5.22294 -1.14513 0
M  V30 3383 C 316.119 -5.11872 1.0385 0
M  V30 3384 H 317.813 -2.86626 0.865219 0
M  V30 3385 H 315.359 -1.37814 0.417516 0
M  V30 3386 H 317.312 -4.01335 -1.28485 0
M  V30 3387 H 316.036 -2.82314 -1.64214 0
M  V30 3388 H 314.695 -3.65176 0.322797 0
M  V30 3389 H 314.343 -4.63717 -1.94874 0
M  V30 3390 H 314.043 -5.83797 -0.667446 0
M  V30 3391 H 315.567 -5.89312 -1.59824 0
M  V30 3392 H 316.981 -5.69436 0.664482 0
M  V30 3393 H 315.378 -5.82445 1.4449 0
M  V30 3394 H 316.448 -4.4753 1.86668 0
M  V30 3395 N 317.792 -0.46758 -1.50504 0
M  V30 3396 C 319.208 -0.121533 -1.59137 0
M  V30 3397 C 319.408 1.3717 -1.47603 0
M  V30 3398 O 318.464 2.14464 -1.33272 0
M  V30 3399 C 319.777 -0.6686 -2.93173 0
M  V30 3400 C 321.325 -0.631716 -3.06559 0
M  V30 3401 C 321.8 -1.15627 -4.43164 0
M  V30 3402 N 323.291 -1.11553 -4.49567 0
M  V30 3403 C 324.026 -1.49195 -5.5365 0
M  V30 3404 N 323.522 -1.94269 -6.65005 0
M  V30 3405 N 325.315 -1.4082 -5.44175 0
M  V30 3406 H 317.466 -1.4388 -1.56245 0
M  V30 3407 H 319.729 -0.594784 -0.738198 0
M  V30 3408 H 319.435 -1.71453 -3.07078 0
M  V30 3409 H 319.309 -0.11021 -3.77039 0
M  V30 3410 H 321.696 0.405297 -2.92304 0
M  V30 3411 H 321.777 -1.22687 -2.24458 0
M  V30 3412 H 321.421 -2.1919 -4.58168 0
M  V30 3413 H 321.351 -0.537365 -5.23851 0
M  V30 3414 H 323.842 -0.784895 -3.69659 0
M  V30 3415 H 324.155 -2.21148 -7.40482 0
M  V30 3416 H 322.5 -1.98219 -6.66134 0
M  V30 3417 H 325.691 -1.0545 -4.56068 0
M  V30 3418 H 325.864 -1.70481 -6.25172 0
M  V30 3419 N 319.27 1.56325 -0.20005 0
M  V30 3420 C 320.233 2.18084 0.705132 0
M  V30 3421 C 321.233 1.13666 1.1374 0
M  V30 3422 O 322.423 1.39023 1.04968 0
M  V30 3423 C 319.555 2.78689 1.96329 0
M  V30 3424 H 320.748 2.99435 0.167023 0
M  V30 3425 H 318.301 1.56221 0.0495725 0
M  V30 3426 H 319.036 2.0115 2.5438 0
M  V30 3427 H 318.821 3.55133 1.66202 0
M  V30 3428 H 320.311 3.26096 2.60866 0
M  V30 3429 N 320.748 -0.0735177 1.57428 0
M  V30 3430 C 321.994 -0.774145 1.87443 0
M  V30 3431 C 322.327 -1.77311 0.792103 0
M  V30 3432 O 321.602 -1.93492 -0.197793 0
M  V30 3433 C 321.885 -1.48367 3.28115 0
M  V30 3434 C 321.738 -0.501227 4.46999 0
M  V30 3435 C 323.057 -2.429 3.66998 0
M  V30 3436 H 320.176 -0.279971 0.681752 0
M  V30 3437 H 322.818 -0.0373616 1.89963 0
M  V30 3438 H 320.968 -2.11171 3.26097 0
M  V30 3439 H 322.64 0.121468 4.6114 0
M  V30 3440 H 320.883 0.183593 4.33411 0
M  V30 3441 H 321.554 -1.03526 5.42205 0
M  V30 3442 H 324.03 -1.90175 3.70098 0
M  V30 3443 H 322.906 -2.89549 4.66318 0
M  V30 3444 H 323.167 -3.27628 2.96837 0
M  V30 3445 N 322.226 -1.5378 -0.344866 0
M  V30 3446 C 323.642 -1.44015 -0.687888 0
M  V30 3447 C 323.842 -0.595834 -1.92489 0
M  V30 3448 O 322.898 -0.0863064 -2.52352 0
M  V30 3449 C 324.211 -2.87481 -0.881758 0
M  V30 3450 C 325.759 -2.97247 -0.980459 0
M  V30 3451 C 326.234 -4.41819 -1.20665 0
M  V30 3452 N 327.725 -4.45339 -1.27389 0
M  V30 3453 C 328.46 -5.54333 -1.46639 0
M  V30 3454 N 327.956 -6.73335 -1.63071 0
M  V30 3455 N 329.749 -5.41944 -1.49176 0
M  V30 3456 H 321.9 -2.07169 0.468475 0
M  V30 3457 H 324.163 -0.93643 0.147655 0
M  V30 3458 H 323.869 -3.51672 -0.0443444 0
M  V30 3459 H 323.743 -3.32352 -1.78388 0
M  V30 3460 H 326.13 -2.33197 -1.8084 0
M  V30 3461 H 326.211 -2.5574 -0.0552713 0
M  V30 3462 H 325.855 -5.06449 -0.383652 0
M  V30 3463 H 325.785 -4.80917 -2.14539 0
M  V30 3464 H 328.276 -3.59585 -1.1622 0
M  V30 3465 H 328.589 -7.52165 -1.77391 0
M  V30 3466 H 326.934 -6.76282 -1.60209 0
M  V30 3467 H 330.125 -4.47932 -1.3592 0
M  V30 3468 H 330.298 -6.26946 -1.63837 0
M  V30 3469 N 323.704 0.605807 -1.45491 0
M  V30 3470 C 324.654 1.71074 -1.50724 0
M  V30 3471 C 325.638 1.5658 -0.37033 0
M  V30 3472 O 326.83 1.65887 -0.617299 0
M  V30 3473 C 323.959 3.0983 -1.47852 0
M  V30 3474 C 323.045 3.29704 -2.66751 0
M  V30 3475 N 323.436 3.19831 -3.91844 0
M  V30 3476 C 321.734 3.60579 -2.62486 0
M  V30 3477 C 322.435 3.41083 -4.71208 0
M  V30 3478 N 321.411 3.65157 -4.02693 0
M  V30 3479 H 325.213 1.61937 -2.45263 0
M  V30 3480 H 322.727 0.80912 -1.40808 0
M  V30 3481 H 324.724 3.89101 -1.49686 0
M  V30 3482 H 323.384 3.20115 -0.543714 0
M  V30 3483 H 324.395 2.98194 -4.23439 0
M  V30 3484 H 321.072 3.7769 -1.77922 0
M  V30 3485 H 322.462 3.38828 -5.80211 0
M  V30 3486 N 325.182 1.32811 0.848464 0
M  V30 3487 C 326.132 1.18842 1.94578 0
M  V30 3488 C 327.116 0.0937517 1.60627 0
M  V30 3489 O 328.308 0.320887 1.74067 0
M  V30 3490 C 325.437 0.91999 3.30743 0
M  V30 3491 C 324.523 2.05665 3.70894 0
M  V30 3492 N 324.914 3.30579 3.8282 0
M  V30 3493 C 323.212 1.9612 4.00566 0
M  V30 3494 C 323.913 4.05067 4.17487 0
M  V30 3495 N 322.889 3.33419 4.2934 0
M  V30 3496 H 326.691 2.13536 2.0194 0
M  V30 3497 H 324.205 1.2468 1.0406 0
M  V30 3498 H 326.202 0.800859 4.09136 0
M  V30 3499 H 324.862 -0.0185076 3.24695 0
M  V30 3500 H 325.873 3.65441 3.66978 0
M  V30 3501 H 322.55 1.09871 4.02784 0
M  V30 3502 H 323.94 5.12815 4.34131 0
M  V30 3503 N 326.66 -1.06551 1.16123 0
M  V30 3504 C 327.608 -2.16063 0.861371 0
M  V30 3505 C 328.602 -1.6856 -0.168517 0
M  V30 3506 O 329.808 -1.79986 -0.0227579 0
M  V30 3507 H 326.183 -0.705278 0.260934 0
M  V30 3508 H 328.154 -2.38567 1.79244 0
M  V30 3509 C 326.903 -3.45661 0.376018 0
M  V30 3510 H 326.226 -3.82604 1.15992 0
M  V30 3511 H 327.666 -4.23504 0.204951 0
M  V30 3512 C 326.125 -3.24546 -0.903954 0
M  V30 3513 O 326.655 -3.49865 -1.97377 0
M  V30 3514 N 324.861 -2.77992 -0.846679 0
M  V30 3515 H 324.408 -2.57589 0.0241017 0
M  V30 3516 H 324.366 -2.64244 -1.70359 0
M  V30 3517 O 328.177 -1.08916 -1.19246 0
M  V30 3518 H 328.868 -0.783022 -1.77168 0
M  V30 END ATOM
M  V30 BEGIN BOND
M  V30 END BOND
M  V30 END CTAB
M  END
$$$$
