drugbank_target|P31751 RAC-beta serine/threonine-protein kinase (DB07812; DB07859; DB07947; DB08073)
 OpenBabel12092119493D

  0  0  0     0  0            999 V3000
M  V30 BEGIN CTAB
M  V30 COUNTS 7801 7895 0 0 0
M  V30 BEGIN ATOM
M  V30 1 H -0.908 1.98254 -0.117106 0
M  V30 2 N 0 1.576 0 0
M  V30 3 C 0.933 2.03868 1.02534 0
M  V30 4 C 1.911 0.928543 1.3348 0
M  V30 5 O 3.095 1.19667 1.45644 0
M  V30 6 C 0.222 2.43627 2.35294 0
M  V30 7 C -0.732 3.65373 2.2001 0
M  V30 8 S 0.101 5.13292 1.52614 0
M  V30 9 C 1.257 5.56322 2.86805 0
M  V30 10 H 1.49 2.90518 0.631377 0
M  V30 11 H -0.977 1.52953 0.210867 0
M  V30 12 H 0.981 2.67203 3.11629 0
M  V30 13 H -0.358 1.57376 2.7183 0
M  V30 14 H -1.165 3.90944 3.18086 0
M  V30 15 H -1.563 3.418 1.51819 0
M  V30 16 H 0.729 5.58782 3.83104 0
M  V30 17 H 1.672 6.56266 2.65933 0
M  V30 18 H 2.08 4.83886 2.90714 0
M  V30 19 N 1.4781 -0.272755 1.55222 0
M  V30 20 C 2.4261 -1.35705 1.88909 0
M  V30 21 C 3.4201 -1.5112 0.765456 0
M  V30 22 O 4.6261 -1.52901 0.949802 0
M  V30 23 H 1.0011 -0.453868 0.59959 0
M  V30 24 H 2.9721 -1.04544 2.79487 0
M  V30 25 C 1.7211 -2.71049 2.17779 0
M  V30 26 H 1.0441 -2.59979 3.03728 0
M  V30 27 H 2.4841 -3.45858 2.45272 0
M  V30 28 C 0.9431 -3.22165 0.985473 0
M  V30 29 O 1.4731 -4.01096 0.220233 0
M  V30 30 N -0.3209 -2.7985 0.783108 0
M  V30 31 H -0.7739 -2.15775 1.40708 0
M  V30 32 H -0.8159 -3.14397 -0.0130392 0
M  V30 33 N 2.9562 -1.48159 -0.537278 0
M  V30 34 C 3.8662 -1.64807 -1.6696 0
M  V30 35 C 4.8822 -0.530651 -1.65711 0
M  V30 36 O 6.0582 -0.800784 -1.84796 0
M  V30 37 C 3.1232 -1.67708 -3.03438 0
M  V30 38 C 2.1842 -2.91025 -3.156 0
M  V30 39 C 1.4172 -2.93778 -4.45567 0
M  V30 40 O 1.6402 -2.05153 -5.3223 0
M  V30 41 O 0.5742 -3.85868 -4.61941 0
M  V30 42 H 4.4002 -2.6066 -1.55853 0
M  V30 43 H 1.9852 -1.31475 -0.709549 0
M  V30 44 H 3.8672 -1.7218 -3.84619 0
M  V30 45 H 2.5422 -0.750278 -3.14885 0
M  V30 46 H 1.4492 -2.92089 -2.33741 0
M  V30 47 H 2.7822 -3.83065 -3.09066 0
M  V30 48 N 4.4343 0.785586 -1.36625 0
M  V30 49 C 5.6803 1.54591 -1.31261 0
M  V30 50 C 6.0133 1.93906 0.106823 0
M  V30 51 O 5.2883 1.63007 1.06108 0
M  V30 52 C 5.5713 2.82038 -2.23889 0
M  V30 53 C 5.4243 2.49066 -3.74548 0
M  V30 54 C 6.7433 3.83887 -2.15217 0
M  V30 55 H 3.8623 0.560846 -0.478143 0
M  V30 56 H 6.5043 0.902278 -1.67209 0
M  V30 57 H 4.6543 3.36961 -1.93363 0
M  V30 58 H 6.3263 2.00164 -4.15611 0
M  V30 59 H 4.5693 1.81954 -3.93796 0
M  V30 60 H 5.2403 3.40109 -4.34776 0
M  V30 61 H 7.7163 3.38421 -2.42096 0
M  V30 62 H 6.5923 4.70806 -2.82193 0
M  V30 63 H 6.8533 4.27131 -1.14068 0
M  V30 64 N 5.9124 1.20967 1.01018 0
M  V30 65 C 7.1374 1.0503 1.78839 0
M  V30 66 C 7.5624 -0.395752 1.8389 0
M  V30 67 O 6.9204 -1.28529 1.27867 0
M  V30 68 C 6.9684 1.64602 3.2084 0
M  V30 69 O 6.0724 0.887988 4.02726 0
M  V30 70 H 5.4134 0.369987 0.551367 0
M  V30 71 H 7.9434 1.60399 1.27018 0
M  V30 72 H 7.9534 1.68607 3.71532 0
M  V30 73 H 6.6284 2.69841 3.16479 0
M  V30 74 H 5.2054 0.922648 3.61305 0
M  V30 75 N 7.3905 -1.2043 1.01659 0
M  V30 76 C 8.6365 -1.90079 0.706963 0
M  V30 77 C 8.9695 -1.78648 -0.761474 0
M  V30 78 O 8.2445 -1.17069 -1.55323 0
M  V30 79 C 8.5275 -3.41469 1.14327 0
M  V30 80 C 8.3805 -3.61833 2.67201 0
M  V30 81 C 9.6995 -4.34261 0.714529 0
M  V30 82 H 6.8185 -0.690254 0.2583 0
M  V30 83 H 9.4605 -1.41826 1.26433 0
M  V30 84 H 7.6105 -3.82696 0.669056 0
M  V30 85 H 9.2825 -3.2986 3.22475 0
M  V30 86 H 7.5255 -3.05304 3.08175 0
M  V30 87 H 8.1965 -4.67955 2.92783 0
M  V30 88 H 10.6725 -4.00682 1.12221 0
M  V30 89 H 9.5485 -5.38806 1.04784 0
M  V30 90 H 9.8095 -4.40431 -0.383799 0
M  V30 91 N 8.8686 -0.792821 -1.36206 0
M  V30 92 C 10.1176 -0.363353 -1.984 0
M  V30 93 C 10.4306 1.07172 -1.63626 0
M  V30 94 O 11.6366 1.60362 -2.19081 0
M  V30 95 C 10.0926 -0.59872 -3.54885 0
M  V30 96 C 9.7006 -2.04543 -3.9858 0
M  V30 97 C 11.4446 -0.233926 -4.23855 0
M  V30 98 C 9.3516 -2.22727 -5.47856 0
M  V30 99 H 8.2816 -0.13212 -0.742334 0
M  V30 100 H 10.9326 -0.974935 -1.55458 0
M  V30 101 H 9.3146 0.0826222 -3.95914 0
M  V30 102 H 10.4886 -2.76345 -3.68741 0
M  V30 103 H 8.8036 -2.36879 -3.42458 0
M  V30 104 H 11.4006 -0.348027 -5.33566 0
M  V30 105 H 11.7436 0.818351 -4.08177 0
M  V30 106 H 12.2766 -0.868639 -3.882 0
M  V30 107 H 9.0156 -3.2635 -5.68486 0
M  V30 108 H 8.5356 -1.55434 -5.7931 0
M  V30 109 H 10.2146 -2.03607 -6.14128 0
M  V30 110 N 10.3467 1.47872 -0.545128 0
M  V30 111 C 11.2937 2.29849 0.2093 0
M  V30 112 C 12.2637 1.38313 0.919707 0
M  V30 113 O 13.4487 1.67277 0.917772 0
M  V30 114 C 10.5887 3.22019 1.24088 0
M  V30 115 C 9.7017 4.2864 0.537778 0
M  V30 116 C 8.8367 5.07973 1.5536 0
M  V30 117 C 7.8757 6.06381 0.8348 0
M  V30 118 N 7.0127 6.78717 1.79688 0
M  V30 119 H 11.8527 2.93845 -0.49591 0
M  V30 120 H 9.3897 1.44848 -0.256389 0
M  V30 121 H 11.3477 3.73868 1.85144 0
M  V30 122 H 9.9777 2.59914 1.91428 0
M  V30 123 H 9.0297 3.7994 -0.187046 0
M  V30 124 H 10.3417 4.98793 -0.0258907 0
M  V30 125 H 9.4957 5.63912 2.23803 0
M  V30 126 H 8.2347 4.37693 2.15118 0
M  V30 127 H 7.2397 5.49631 0.136388 0
M  V30 128 H 8.4647 6.78665 0.24313 0
M  V30 129 H 6.4107 6.11177 2.38326 0
M  V30 130 H 6.3277 7.44998 1.28505 0
M  V30 131 H 7.5957 7.39237 2.47282 0
M  V30 132 N 11.8248 0.280983 1.55075 0
M  V30 133 C 12.7348 -0.61388 2.26426 0
M  V30 134 C 13.7508 -1.16521 1.29224 0
M  V30 135 O 14.9268 -1.19426 1.62171 0
M  V30 136 C 11.9918 -1.7788 2.9759 0
M  V30 137 C 11.0528 -1.26355 4.10284 0
M  V30 138 C 10.2858 -2.37295 4.78045 0
M  V30 139 O 10.5088 -3.56777 4.45047 0
M  V30 140 O 9.4428 -2.05119 5.65871 0
M  V30 141 H 13.2688 -0.0356932 3.03679 0
M  V30 142 H 10.8538 0.0481686 1.49322 0
M  V30 143 H 12.7358 -2.45791 3.42293 0
M  V30 144 H 11.4108 -2.34397 2.23249 0
M  V30 145 H 10.3178 -0.550735 3.70024 0
M  V30 146 H 11.6508 -0.744065 4.86543 0
M  V30 147 N 13.3029 -1.57598 0.00835791 0
M  V30 148 C 14.5509 -1.90551 -0.6734 0
M  V30 149 C 14.8719 -0.883301 -1.73847 0
M  V30 150 O 14.1419 0.0781442 -1.95744 0
M  V30 151 H 12.7219 -0.703312 -0.251717 0
M  V30 152 H 15.3839 -1.94833 0.0512592 0
M  V30 153 H 14.4799 -2.9056 -1.13935 0
M  V30 154 N 14.781 0.264519 -1.55364 0
M  V30 155 C 16.027 0.992314 -1.77552 0
M  V30 156 C 16.382 1.83626 -0.574379 0
M  V30 157 O 15.675 1.86648 0.432782 0
M  V30 158 C 15.869 1.9004 -3.02687 0
M  V30 159 C 15.698 1.14583 -4.34857 0
M  V30 160 C 14.468 0.858068 -4.97961 0
M  V30 161 C 16.666 0.532069 -5.1154 0
M  V30 162 N 14.648 0.0775974 -6.13851 0
M  V30 163 C 16.019 -0.113823 -6.19896 0
M  V30 164 C 18.074 0.440763 -4.95945 0
M  V30 165 C 16.777 -0.842231 -7.14352 0
M  V30 166 C 18.803 -0.274072 -5.90765 0
M  V30 167 C 18.165 -0.90867 -6.98515 0
M  V30 168 H 14.264 0.344811 -0.701875 0
M  V30 169 H 16.848 0.267141 -1.92859 0
M  V30 170 H 15.019 2.59775 -2.88741 0
M  V30 171 H 16.751 2.56243 -3.13243 0
M  V30 172 H 13.506 1.16547 -4.59036 0
M  V30 173 H 13.93 -0.300216 -6.76334 0
M  V30 174 H 18.572 0.917064 -4.12735 0
M  V30 175 H 16.29 -1.33019 -7.97077 0
M  V30 176 H 19.876 -0.345151 -5.80775 0
M  V30 177 H 18.756 -1.45299 -7.70622 0
M  V30 178 N 16.2591 1.48442 0.529413 0
M  V30 179 C 17.1891 1.65902 1.64313 0
M  V30 180 C 18.1701 0.507897 1.6234 0
M  V30 181 O 19.3551 0.740503 1.79528 0
M  V30 182 C 16.4851 1.69911 3.02898 0
M  V30 183 C 15.4391 2.8453 3.19729 0
M  V30 184 C 14.7651 2.73629 4.59381 0
M  V30 185 C 16.0651 4.25821 3.02447 0
M  V30 186 H 17.7591 2.5914 1.49955 0
M  V30 187 H 15.3051 1.24709 0.719982 0
M  V30 188 H 17.2581 1.80715 3.80684 0
M  V30 189 H 15.9821 0.732524 3.18279 0
M  V30 190 H 14.6411 2.73283 2.44361 0
M  V30 191 H 14.2891 1.74938 4.71599 0
M  V30 192 H 13.9891 3.50541 4.71588 0
M  V30 193 H 15.5131 2.86401 5.39265 0
M  V30 194 H 16.9271 4.37898 3.70024 0
M  V30 195 H 15.3241 5.03735 3.26146 0
M  V30 196 H 16.3941 4.42244 1.98867 0
M  V30 197 N 17.7372 -0.778329 1.37039 0
M  V30 198 C 18.6872 -1.88142 1.28789 0
M  V30 199 C 19.6712 -1.59923 0.177063 0
M  V30 200 O 20.8632 -1.72165 0.410873 0
M  V30 201 C 17.9922 -3.25518 1.09055 0
M  V30 202 C 17.0782 -3.5971 2.24654 0
M  V30 203 N 17.4692 -3.65131 3.50018 0
M  V30 204 C 15.7672 -3.89837 2.16663 0
M  V30 205 C 16.4682 -3.95882 4.26207 0
M  V30 206 N 15.4442 -4.11441 3.55271 0
M  V30 207 H 19.2462 -1.90575 2.23737 0
M  V30 208 H 16.7602 -0.974435 1.29917 0
M  V30 209 H 18.7572 -4.04423 1.0123 0
M  V30 210 H 17.4172 -3.24353 0.15018 0
M  V30 211 H 18.4282 -3.475 3.84011 0
M  V30 212 H 15.1052 -3.96533 1.30645 0
M  V30 213 H 16.4952 -4.06907 5.34674 0
M  V30 214 N 19.2153 -1.21501 -1.00376 0
M  V30 215 C 20.1623 -0.975387 -2.09177 0
M  V30 216 C 21.1323 0.0990615 -1.65804 0
M  V30 217 O 22.3173 -0.0483147 -1.90739 0
M  V30 218 C 19.4573 -0.547507 -3.40729 0
M  V30 219 C 18.5703 -1.69153 -3.97506 0
M  V30 220 C 17.7053 -1.2127 -5.17172 0
M  V30 221 C 16.7443 -2.32897 -5.66061 0
M  V30 222 N 15.8813 -1.86138 -6.76976 0
M  V30 223 H 20.7213 -1.9068 -2.29009 0
M  V30 224 H 18.2583 -0.950257 -1.12288 0
M  V30 225 H 20.2163 -0.280667 -4.16255 0
M  V30 226 H 18.8463 0.346904 -3.20931 0
M  V30 227 H 17.8983 -2.07298 -3.18954 0
M  V30 228 H 19.2103 -2.5316 -4.29781 0
M  V30 229 H 18.3643 -0.902591 -5.99948 0
M  V30 230 H 17.1033 -0.342692 -4.86495 0
M  V30 231 H 16.1083 -2.64709 -4.81881 0
M  V30 232 H 17.3333 -3.20396 -5.98768 0
M  V30 233 H 15.2793 -1.01484 -6.48103 0
M  V30 234 H 15.1963 -2.63717 -7.08512 0
M  V30 235 H 16.4643 -1.58165 -7.63285 0
M  V30 236 N 20.6934 1.19889 -1.02296 0
M  V30 237 C 22.1094 1.41462 -0.738954 0
M  V30 238 C 22.3094 1.89721 0.678846 0
M  V30 239 O 21.3654 2.07016 1.4457 0
M  V30 240 C 22.6784 2.43083 -1.77005 0
M  V30 241 C 24.2264 2.5684 -1.78892 0
M  V30 242 C 24.7014 3.61709 -2.80945 0
M  V30 243 N 26.1924 3.69199 -2.79725 0
M  V30 244 C 26.9274 4.50019 -3.55345 0
M  V30 245 N 26.4234 5.34592 -4.40662 0
M  V30 246 N 28.2164 4.44612 -3.43914 0
M  V30 247 H 20.3674 0.868827 -1.93817 0
M  V30 248 H 22.6304 0.44399 -0.837602 0
M  V30 249 H 22.3364 2.14636 -2.78612 0
M  V30 250 H 22.2104 3.4217 -1.58744 0
M  V30 251 H 24.5974 2.84614 -0.779674 0
M  V30 252 H 24.6784 1.57927 -2.01228 0
M  V30 253 H 24.3224 3.34678 -3.82038 0
M  V30 254 H 24.2524 4.60259 -2.5587 0
M  V30 255 H 26.7434 3.08794 -2.17842 0
M  V30 256 H 27.0564 5.93363 -4.95116 0
M  V30 257 H 25.4014 5.34073 -4.44737 0
M  V30 258 H 28.5924 3.7758 -2.76679 0
M  V30 259 H 28.7654 5.0736 -4.031 0
M  V30 260 N 22.1715 0.800033 1.35784 0
M  V30 261 C 23.4195 0.376597 1.9856 0
M  V30 262 C 23.7405 -1.05812 1.63795 0
M  V30 263 O 23.0105 -1.73103 0.917171 0
M  V30 264 H 21.5905 0.136261 0.734467 0
M  V30 265 H 24.2525 1.02442 1.65806 0
M  V30 266 H 23.3485 0.477002 3.08433 0
M  V30 267 N 23.6496 -1.47581 0.552962 0
M  V30 268 C 24.5596 -2.33743 -0.200353 0
M  V30 269 C 25.5756 -1.47928 -0.916151 0
M  V30 270 O 26.7516 -1.80865 -0.885993 0
M  V30 271 C 23.8166 -3.24536 -1.21973 0
M  V30 272 C 22.8776 -4.26238 -0.511819 0
M  V30 273 C 22.1106 -5.12693 -1.48263 0
M  V30 274 O 22.3336 -5.01525 -2.71714 0
M  V30 275 O 21.2676 -5.93375 -1.00945 0
M  V30 276 H 25.0936 -2.9945 0.506304 0
M  V30 277 H 22.6786 -1.46071 0.313622 0
M  V30 278 H 24.5606 -3.80631 -1.80827 0
M  V30 279 H 23.2356 -2.61462 -1.90839 0
M  V30 280 H 22.1426 -3.73914 0.117799 0
M  V30 281 H 23.4756 -4.92014 0.135308 0
M  V30 282 N 25.1277 -0.289203 -1.54924 0
M  V30 283 C 26.3577 0.325989 -2.04012 0
M  V30 284 C 26.7657 1.48961 -1.1665 0
M  V30 285 O 26.1087 1.82794 -0.1822 0
M  V30 286 C 26.1707 0.856112 -3.49158 0
M  V30 287 C 25.8347 -0.180697 -4.56643 0
M  V30 288 C 26.8317 -1.0051 -5.10092 0
M  V30 289 C 24.5167 -0.318998 -5.01286 0
M  V30 290 C 26.5107 -1.95385 -6.06715 0
M  V30 291 C 24.1977 -1.27121 -5.97732 0
M  V30 292 C 25.1957 -2.08713 -6.50329 0
M  V30 293 O 24.8837 -3.02322 -7.44887 0
M  V30 294 H 24.6157 0.0765276 -0.671654 0
M  V30 295 H 27.1697 -0.423254 -2.00992 0
M  V30 296 H 25.3997 1.65567 -3.49463 0
M  V30 297 H 27.0887 1.38591 -3.81507 0
M  V30 298 H 27.8547 -0.90906 -4.76404 0
M  V30 299 H 23.7337 0.306108 -4.59983 0
M  V30 300 H 27.2777 -2.59111 -6.47694 0
M  V30 301 H 23.1747 -1.36801 -6.30837 0
M  V30 302 H 23.9427 -2.97165 -7.6265 0
M  V30 303 N 26.6058 1.57591 -0.0167156 0
M  V30 304 C 27.8548 1.90461 0.663877 0
M  V30 305 C 28.1678 0.893515 1.73999 0
M  V30 306 O 29.3738 1.11302 2.47637 0
M  V30 307 C 27.8298 3.38155 1.23204 0
M  V30 308 C 27.4378 4.47597 0.189866 0
M  V30 309 C 29.1818 3.80111 1.88986 0
M  V30 310 C 27.0888 5.86379 0.768964 0
M  V30 311 H 26.0188 0.710738 0.251729 0
M  V30 312 H 28.6698 1.83326 -0.0799926 0
M  V30 313 H 27.0518 3.40182 2.02712 0
M  V30 314 H 28.2258 4.57112 -0.581846 0
M  V30 315 H 26.5408 4.14766 -0.368475 0
M  V30 316 H 29.1378 4.81145 2.33247 0
M  V30 317 H 29.4808 3.14511 2.72743 0
M  V30 318 H 30.0138 3.80454 1.16187 0
M  V30 319 H 26.7528 6.55493 -0.0301957 0
M  V30 320 H 26.2728 5.80496 1.50945 0
M  V30 321 H 27.9518 6.34563 1.26251 0
M  V30 322 N 28.0839 -0.256276 1.55502 0
M  V30 323 C 29.0309 -1.31714 1.89526 0
M  V30 324 C 30.0009 -1.4828 0.748479 0
M  V30 325 O 31.1859 -1.62416 1.00128 0
M  V30 326 C 28.3259 -2.66933 2.18725 0
M  V30 327 C 27.4389 -2.58452 3.4616 0
M  V30 328 C 26.5739 -3.85961 3.64976 0
M  V30 329 C 25.6129 -3.72059 4.86044 0
M  V30 330 N 24.7499 -4.9144 5.01429 0
M  V30 331 H 29.5899 -1.01998 2.80001 0
M  V30 332 H 27.1269 -0.492413 1.38613 0
M  V30 333 H 29.0849 -3.4563 2.33657 0
M  V30 334 H 27.7149 -2.94816 1.31466 0
M  V30 335 H 26.7669 -1.71374 3.3961 0
M  V30 336 H 28.0789 -2.44085 4.34999 0
M  V30 337 H 27.2329 -4.73101 3.79816 0
M  V30 338 H 25.9719 -4.03215 2.74353 0
M  V30 339 H 24.9769 -2.83302 4.7119 0
M  V30 340 H 26.2019 -3.56309 5.78118 0
M  V30 341 H 24.1479 -5.09072 4.13741 0
M  V30 342 H 24.0649 -4.79668 5.84341 0
M  V30 343 H 25.3329 -5.80104 5.20672 0
M  V30 344 N 29.562 -1.4872 -0.521534 0
M  V30 345 C 30.79 -1.60843 -1.30142 0
M  V30 346 C 31.205 -0.271897 -1.86832 0
M  V30 347 O 30.562 0.739969 -1.66825 0
M  V30 348 C 30.613 -2.66155 -2.4463 0
M  V30 349 O 30.334 -3.94623 -1.90275 0
M  V30 350 C 31.835 -2.88795 -3.36322 0
M  V30 351 H 29.055 -0.542075 -0.395468 0
M  V30 352 H 31.599 -1.94609 -0.628285 0
M  V30 353 H 29.754 -2.35224 -3.07812 0
M  V30 354 H 30.168 -4.52468 -2.65279 0
M  V30 355 H 31.642 -3.66264 -4.12983 0
M  V30 356 H 32.119 -1.97934 -3.9207 0
M  V30 357 H 32.725 -3.21063 -2.78924 0
M  V30 358 N 31.0401 0.771051 -1.3745 0
M  V30 359 C 32.2861 1.53109 -1.339 0
M  V30 360 C 32.6411 1.9225 0.0758401 0
M  V30 361 O 31.9341 1.61264 1.03463 0
M  V30 362 C 32.1281 2.80676 -2.2126 0
M  V30 363 C 31.9571 2.54003 -3.71096 0
M  V30 364 C 30.7271 2.48097 -4.402 0
M  V30 365 C 32.9251 2.21953 -4.63941 0
M  V30 366 N 30.9071 2.13515 -5.75573 0
M  V30 367 C 32.2781 1.97516 -5.87697 0
M  V30 368 C 34.3331 2.08114 -4.5232 0
M  V30 369 C 33.0361 1.60638 -7.01133 0
M  V30 370 C 35.0621 1.72636 -5.65642 0
M  V30 371 C 34.4241 1.4906 -6.88448 0
M  V30 372 H 30.5231 0.56055 -0.54526 0
M  V30 373 H 33.1071 0.899472 -1.72678 0
M  V30 374 H 31.2781 3.41674 -1.84698 0
M  V30 375 H 33.0101 3.46578 -2.08963 0
M  V30 376 H 29.7651 2.63974 -3.93211 0
M  V30 377 H 30.1891 1.98919 -6.47117 0
M  V30 378 H 34.8311 2.25024 -3.57944 0
M  V30 379 H 32.5491 1.42467 -7.95443 0
M  V30 380 H 36.1351 1.62586 -5.58621 0
M  V30 381 H 35.0151 1.22014 -7.7465 0
M  V30 382 N 32.5182 1.22032 0.997298 0
M  V30 383 C 33.9342 0.979326 1.26021 0
M  V30 384 C 34.1342 -0.32972 1.98784 0
M  V30 385 O 33.1902 -1.05345 2.29475 0
M  V30 386 C 34.5032 2.17509 2.07631 0
M  V30 387 C 36.0512 2.21817 2.2083 0
M  V30 388 C 36.5262 3.40933 3.05825 0
M  V30 389 N 38.0172 3.41067 3.13412 0
M  V30 390 C 38.7522 4.29885 3.79455 0
M  V30 391 N 38.2482 5.28914 4.47462 0
M  V30 392 N 40.0412 4.17673 3.76173 0
M  V30 393 H 32.1922 2.06202 0.509352 0
M  V30 394 H 34.4552 0.90334 0.287541 0
M  V30 395 H 34.1612 3.12415 1.61524 0
M  V30 396 H 34.0352 2.17206 3.08385 0
M  V30 397 H 36.4222 1.27462 2.66153 0
M  V30 398 H 36.5032 2.2616 1.1952 0
M  V30 399 H 36.1472 4.35586 2.61203 0
M  V30 400 H 36.0772 3.33829 4.07266 0
M  V30 401 H 38.5682 2.69406 2.65007 0
M  V30 402 H 38.8812 5.92973 4.95583 0
M  V30 403 H 37.2262 5.32831 4.46224 0
M  V30 404 H 40.4172 3.39564 3.22202 0
M  V30 405 H 40.5902 4.87098 4.27363 0
M  V30 406 N 33.9963 -1.19345 1.0293 0
M  V30 407 C 35.4073 -1.70725 0.755633 0
M  V30 408 C 35.7583 -1.82326 -0.724676 0
M  V30 409 O 34.8833 -1.49471 -1.56484 0
M  V30 410 C 35.4783 -3.10084 1.36503 0
M  V30 411 C 34.0373 -3.58723 1.13994 0
M  V30 412 C 33.1843 -2.35577 1.46283 0
M  V30 413 H 36.1353 -1.0418 1.19718 0
M  V30 414 H 36.1563 -3.72787 0.762217 0
M  V30 415 H 35.6683 -3.01609 2.44241 0
M  V30 416 H 33.7693 -3.72512 0.0807901 0
M  V30 417 H 33.8823 -4.42816 1.82894 0
M  V30 418 H 32.2463 -2.38935 0.88217 0
M  V30 419 H 33.0293 -2.29731 2.55105 0
M  V30 420 N 35.4744 -0.807222 -1.35358 0
M  V30 421 C 36.8904 -0.491038 -1.51858 0
M  V30 422 C 37.0904 0.987648 -1.75635 0
M  V30 423 O 36.1464 1.77265 -1.79815 0
M  V30 424 C 37.4594 -1.33695 -2.69344 0
M  V30 425 C 39.0074 -1.33246 -2.83222 0
M  V30 426 C 39.4824 -2.1625 -4.03733 0
M  V30 427 N 40.9734 -2.1379 -4.10911 0
M  V30 428 C 41.7084 -2.74772 -5.03277 0
M  V30 429 N 41.2044 -3.44684 -6.0097 0
M  V30 430 N 42.9974 -2.6441 -4.96028 0
M  V30 431 H 35.1484 -1.76485 -1.18181 0
M  V30 432 H 37.4114 -0.751199 -0.578276 0
M  V30 433 H 37.1174 -2.38634 -2.58354 0
M  V30 434 H 36.9914 -0.990618 -3.6396 0
M  V30 435 H 39.3784 -0.290911 -2.93663 0
M  V30 436 H 39.4594 -1.71866 -1.89461 0
M  V30 437 H 39.1034 -3.20445 -3.94052 0
M  V30 438 H 39.0334 -1.74989 -4.96675 0
M  V30 439 H 41.5244 -1.62923 -3.40976 0
M  V30 440 H 41.8374 -3.88501 -6.68047 0
M  V30 441 H 40.1824 -3.48788 -6.01142 0
M  V30 442 H 43.3734 -2.0938 -4.18662 0
M  V30 443 H 43.5464 -3.12225 -5.6782 0
M  V30 444 N 36.9525 1.47285 -0.560781 0
M  V30 445 C 38.1825 2.06555 -0.0429638 0
M  V30 446 C 38.5905 1.41339 1.25777 0
M  V30 447 O 37.9335 0.505182 1.76617 0
M  V30 448 C 37.9955 3.58827 0.219887 0
M  V30 449 C 37.6595 4.46105 -0.991944 0
M  V30 450 C 38.6565 4.84 -1.89843 0
M  V30 451 C 36.3415 4.87567 -1.20762 0
M  V30 452 C 38.3355 5.6216 -3.00425 0
M  V30 453 C 36.0225 5.65491 -2.31653 0
M  V30 454 C 37.0205 6.02699 -3.21315 0
M  V30 455 O 36.7085 6.79052 -4.30283 0
M  V30 456 H 36.4405 0.674537 -0.0444468 0
M  V30 457 H 38.9945 1.90225 -0.774818 0
M  V30 458 H 37.2245 3.73383 1.00609 0
M  V30 459 H 38.9135 4.00103 0.683522 0
M  V30 460 H 39.6795 4.52564 -1.74387 0
M  V30 461 H 35.5585 4.5807 -0.518893 0
M  V30 462 H 39.1025 5.9112 -3.70436 0
M  V30 463 H 34.9995 5.9634 -2.47081 0
M  V30 464 H 35.7675 6.9745 -4.28376 0
M  V30 465 N 38.4306 0.297415 1.54768 0
M  V30 466 C 39.6776 -0.312913 2.00068 0
M  V30 467 C 40.0056 -1.54171 1.18582 0
M  V30 468 O 39.2606 -1.94108 0.249133 0
M  V30 469 C 39.5596 -0.717561 3.50123 0
M  V30 470 C 39.2256 0.409095 4.4904 0
M  V30 471 C 37.8876 0.718399 4.75807 0
M  V30 472 C 40.2396 1.16717 5.07963 0
M  V30 473 C 37.5676 1.78896 5.5876 0
M  V30 474 C 39.9196 2.22762 5.92081 0
M  V30 475 C 38.5836 2.54303 6.1716 0
M  V30 476 H 37.8536 -0.114503 0.7321 0
M  V30 477 H 40.5006 0.415767 1.86932 0
M  V30 478 H 38.8056 -1.52627 3.60849 0
M  V30 479 H 40.5026 -1.20091 3.82595 0
M  V30 480 H 37.0926 0.157918 4.28309 0
M  V30 481 H 41.2766 0.941466 4.87289 0
M  V30 482 H 36.5326 2.0381 5.7643 0
M  V30 483 H 40.7066 2.81962 6.36765 0
M  V30 484 H 38.3336 3.3739 6.81229 0
M  V30 485 N 39.9087 -1.5758 0.0250728 0
M  V30 486 C 40.8387 -2.13007 -0.956575 0
M  V30 487 C 41.8197 -1.0452 -1.342 0
M  V30 488 O 43.0047 -1.32332 -1.42133 0
M  V30 489 C 40.1347 -2.65386 -2.24026 0
M  V30 490 C 39.0887 -3.78623 -1.99571 0
M  V30 491 C 38.4147 -4.17414 -3.3417 0
M  V30 492 C 39.7147 -5.04867 -1.33814 0
M  V30 493 H 41.4087 -2.9528 -0.494991 0
M  V30 494 H 38.9547 -1.42042 -0.236651 0
M  V30 495 H 40.9077 -3.02794 -2.93076 0
M  V30 496 H 39.6317 -1.80268 -2.72343 0
M  V30 497 H 38.2907 -3.41646 -1.32941 0
M  V30 498 H 37.9387 -3.29284 -3.80238 0
M  V30 499 H 37.6387 -4.93719 -3.18615 0
M  V30 500 H 39.1627 -4.57402 -4.04495 0
M  V30 501 H 40.5767 -5.39888 -1.92857 0
M  V30 502 H 38.9737 -5.86144 -1.28669 0
M  V30 503 H 40.0437 -4.83904 -0.310561 0
M  V30 504 N 41.3868 0.248026 -1.55636 0
M  V30 505 C 42.3168 1.31079 -1.93237 0
M  V30 506 C 43.2978 1.50264 -0.797174 0
M  V30 507 O 44.4828 1.62891 -1.05737 0
M  V30 508 C 41.6128 2.66575 -2.22609 0
M  V30 509 C 40.5668 2.62087 -3.3837 0
M  V30 510 C 39.8928 4.01369 -3.53281 0
M  V30 511 C 41.1928 2.19171 -4.7409 0
M  V30 512 H 42.8868 0.998556 -2.82257 0
M  V30 513 H 40.4328 0.47891 -1.35803 0
M  V30 514 H 42.3858 3.41057 -2.47503 0
M  V30 515 H 41.1098 2.99432 -1.30414 0
M  V30 516 H 39.7688 1.90063 -3.13483 0
M  V30 517 H 39.4168 4.31489 -2.58508 0
M  V30 518 H 39.1168 3.99254 -4.31127 0
M  V30 519 H 40.6408 4.77552 -3.80495 0
M  V30 520 H 42.0548 2.83384 -4.98363 0
M  V30 521 H 40.4518 2.2817 -5.5503 0
M  V30 522 H 41.5218 1.14336 -4.71227 0
M  V30 523 N 42.8649 1.48995 0.513639 0
M  V30 524 C 43.8119 1.6473 1.61656 0
M  V30 525 C 44.7819 0.488984 1.58739 0
M  V30 526 O 45.9669 0.714478 1.76918 0
M  V30 527 C 43.1069 1.7082 2.99858 0
M  V30 528 C 42.2199 2.9787 3.12885 0
M  V30 529 C 41.3549 2.95017 4.41744 0
M  V30 530 C 40.3939 4.16702 4.48359 0
M  V30 531 N 39.5309 4.11832 5.68629 0
M  V30 532 H 44.3709 2.58909 1.47547 0
M  V30 533 H 41.9079 1.28382 0.71808 0
M  V30 534 H 43.8659 1.72331 3.79944 0
M  V30 535 H 42.4959 0.801181 3.12699 0
M  V30 536 H 41.5479 3.06029 2.25944 0
M  V30 537 H 42.8599 3.8786 3.13633 0
M  V30 538 H 42.0139 2.95021 5.30139 0
M  V30 539 H 40.7529 2.02784 4.43542 0
M  V30 540 H 39.7579 4.16955 3.58369 0
M  V30 541 H 40.9829 5.10113 4.48287 0
M  V30 542 H 38.9289 3.22428 5.71293 0
M  V30 543 H 38.8459 4.95543 5.7094 0
M  V30 544 H 40.1139 4.1592 6.59266 0
M  V30 545 N 44.343 -0.763751 1.37857 0
M  V30 546 C 45.568 -1.55805 1.36893 0
M  V30 547 C 45.993 -1.88054 -0.0416135 0
M  V30 548 O 45.351 -1.49825 -1.02089 0
M  V30 549 C 45.399 -2.84012 2.22192 0
M  V30 550 O 44.503 -3.78732 1.63204 0
M  V30 551 H 43.844 -0.471638 0.46739 0
M  V30 552 H 46.374 -0.944657 1.81487 0
M  V30 553 H 46.384 -3.33037 2.35691 0
M  V30 554 H 45.059 -2.59869 3.24716 0
M  V30 555 H 43.636 -3.37402 1.58791 0
M  V30 556 N 45.8211 -1.22559 -0.990812 0
M  V30 557 C 47.0981 -0.959875 -1.70428 0
M  V30 558 C 47.4781 0.524455 -2.04481 0
M  V30 559 O 46.8261 1.49302 -1.72977 0
M  V30 560 C 47.0361 -1.85955 -2.95333 0
M  V30 561 C 48.3841 -2.11687 -3.68068 0
M  V30 562 O 49.4081 -1.8342 -3.05345 0
M  V30 563 O 48.2671 -2.59572 -4.80921 0
M  V30 564 H 45.3611 -0.361154 -0.743974 0
M  V30 565 H 47.9071 -1.33554 -1.04697 0
M  V30 566 H 46.6791 -2.86346 -2.66687 0
M  V30 567 H 46.3021 -1.4856 -3.68803 0
M  V30 568 N 47.2992 1.18797 -1.03562 0
M  V30 569 C 48.5472 1.88278 -0.734569 0
M  V30 570 C 48.8682 1.8043 0.739586 0
M  V30 571 O 48.1382 1.21925 1.53333 0
M  V30 572 H 46.7182 0.696991 -0.268725 0
M  V30 573 H 49.3802 1.44192 -1.31129 0
M  V30 574 H 48.4762 2.94443 -1.03489 0
M  V30 575 N 48.7773 0.814389 1.34928 0
M  V30 576 C 50.0023 0.410097 2.03305 0
M  V30 577 C 50.4273 -0.973464 1.60951 0
M  V30 578 O 49.7853 -1.63185 0.789964 0
M  V30 579 C 49.8333 0.51049 3.56968 0
M  V30 580 O 48.9373 -0.473035 4.09678 0
M  V30 581 H 48.2783 0.170088 0.641846 0
M  V30 582 H 50.8083 1.10244 1.72358 0
M  V30 583 H 50.8183 0.383135 4.06197 0
M  V30 584 H 49.4933 1.51963 3.87144 0
M  V30 585 H 48.0703 -0.305272 3.71648 0
M  V30 586 N 50.2554 -1.46986 0.568584 0
M  V30 587 C 51.5024 -2.02441 0.0487986 0
M  V30 588 C 51.8304 -1.44169 -1.30559 0
M  V30 589 O 51.0854 -0.591213 -1.86556 0
M  V30 590 C 51.3844 -3.57306 -0.081836 0
M  V30 591 C 51.0504 -4.34552 1.20313 0
M  V30 592 C 49.7124 -4.55376 1.5552 0
M  V30 593 C 52.0644 -4.79016 2.05411 0
M  V30 594 C 49.3924 -5.17913 2.7565 0
M  V30 595 C 51.7444 -5.42879 3.24754 0
M  V30 596 C 50.4084 -5.61933 3.60261 0
M  V30 597 H 49.6784 -0.740785 0.0178567 0
M  V30 598 H 52.3254 -1.76525 0.742384 0
M  V30 599 H 50.6304 -3.8228 -0.858463 0
M  V30 600 H 52.3274 -3.97876 -0.499546 0
M  V30 601 H 48.9174 -4.18631 0.919014 0
M  V30 602 H 53.1014 -4.62696 1.79516 0
M  V30 603 H 48.3574 -5.30858 3.03315 0
M  V30 604 H 52.5314 -5.76293 3.90973 0
M  V30 605 H 50.1584 -6.10161 4.53439 0
M  V30 606 N 51.7335 -0.305618 -1.54608 0
M  V30 607 C 52.9825 0.303098 -1.9941 0
M  V30 608 C 53.2955 1.54648 -1.19764 0
M  V30 609 O 54.5015 2.23007 -1.54855 0
M  V30 610 C 52.9575 0.590588 -3.55021 0
M  V30 611 C 52.5655 -0.634719 -4.43481 0
M  V30 612 C 54.3095 1.16025 -4.08336 0
M  V30 613 C 52.2165 -0.320126 -5.90533 0
M  V30 614 H 51.1465 0.117031 -0.744862 0
M  V30 615 H 53.7975 -0.415045 -1.78745 0
M  V30 616 H 52.1795 1.36845 -3.71604 0
M  V30 617 H 53.3535 -1.41079 -4.38672 0
M  V30 618 H 51.6685 -1.12333 -4.00962 0
M  V30 619 H 54.2655 1.40994 -5.15776 0
M  V30 620 H 54.6085 2.10397 -3.5922 0
M  V30 621 H 55.1415 0.443985 -3.95315 0
M  V30 622 H 51.8805 -1.23254 -6.43808 0
M  V30 623 H 51.4005 0.418579 -5.98338 0
M  V30 624 H 53.0795 0.0766241 -6.46955 0
M  V30 625 N 53.2116 1.57565 -0.0334293 0
M  V30 626 C 54.4596 1.91598 0.642999 0
M  V30 627 C 54.7806 0.910847 1.7242 0
M  V30 628 O 54.0506 -0.0469931 1.95844 0
M  V30 629 H 52.6306 0.707228 0.240496 0
M  V30 630 H 55.2926 1.94726 -0.0822488 0
M  V30 631 H 54.3886 2.92336 1.09298 0
M  V30 632 N 54.6897 -0.239769 1.55765 0
M  V30 633 C 55.9197 -0.982743 1.8173 0
M  V30 634 C 56.3277 -1.7917 0.607835 0
M  V30 635 O 55.6707 -1.78525 -0.432973 0
M  V30 636 C 55.7327 -1.96332 3.01155 0
M  V30 637 C 55.3967 -1.34062 4.36894 0
M  V30 638 C 56.3937 -0.739539 5.14613 0
M  V30 639 C 54.0787 -1.35784 4.83599 0
M  V30 640 C 56.0727 -0.163989 6.37189 0
M  V30 641 C 53.7597 -0.778441 6.06122 0
M  V30 642 C 54.7577 -0.182548 6.82756 0
M  V30 643 O 54.4457 0.387887 8.02964 0
M  V30 644 H 54.1777 -0.294481 0.608487 0
M  V30 645 H 56.7317 -0.26572 2.03674 0
M  V30 646 H 54.9617 -2.71884 2.74984 0
M  V30 647 H 56.6507 -2.57032 3.14149 0
M  V30 648 H 57.4167 -0.718687 4.79646 0
M  V30 649 H 53.2957 -1.81105 4.23936 0
M  V30 650 H 56.8397 0.301753 6.96947 0
M  V30 651 H 52.7367 -0.796645 6.40565 0
M  V30 652 H 53.5047 0.28044 8.18019 0
M  V30 653 N 56.1678 -1.49265 -0.50573 0
M  V30 654 C 57.1148 -1.65585 -1.6078 0
M  V30 655 C 58.0848 -0.497396 -1.58478 0
M  V30 656 O 59.2698 -0.72385 -1.76536 0
M  V30 657 C 56.4098 -1.72408 -2.98948 0
M  V30 658 C 55.5228 -2.99525 -3.11301 0
M  V30 659 C 54.6578 -2.97356 -4.40174 0
M  V30 660 C 53.6968 -4.19074 -4.46143 0
M  V30 661 N 52.8338 -4.14841 -5.66437 0
M  V30 662 H 57.6738 -2.59688 -1.46172 0
M  V30 663 H 55.2108 -1.28761 -0.711261 0
M  V30 664 H 57.1688 -1.74344 -3.79025 0
M  V30 665 H 55.7988 -0.817753 -3.1227 0
M  V30 666 H 54.8508 -3.07222 -2.24318 0
M  V30 667 H 56.1628 -3.89518 -3.11572 0
M  V30 668 H 55.3168 -2.97829 -5.28567 0
M  V30 669 H 54.0558 -2.05133 -4.42461 0
M  V30 670 H 53.0608 -4.1885 -3.56153 0
M  V30 671 H 54.2858 -5.12483 -4.45575 0
M  V30 672 H 52.2318 -3.25453 -5.69575 0
M  V30 673 H 52.1488 -4.98564 -5.68304 0
M  V30 674 H 53.4168 -4.1941 -6.57051 0
M  V30 675 N 57.6459 0.756429 -1.3826 0
M  V30 676 C 58.5559 1.9009 -1.37488 0
M  V30 677 C 59.5719 1.71855 -0.272366 0
M  V30 678 O 60.7479 1.94827 -0.510318 0
M  V30 679 C 57.8129 3.25421 -1.19592 0
M  V30 680 C 56.8739 3.56202 -2.39622 0
M  V30 681 C 56.1069 4.85075 -2.2257 0
M  V30 682 O 56.3299 5.57246 -1.21793 0
M  V30 683 O 55.2639 5.15269 -3.11098 0
M  V30 684 H 59.0899 1.93695 -2.33914 0
M  V30 685 H 56.6749 0.901313 -1.1915 0
M  V30 686 H 58.5569 4.06337 -1.11661 0
M  V30 687 H 57.2319 3.22634 -0.262486 0
M  V30 688 H 56.1389 2.75458 -2.53128 0
M  V30 689 H 57.4719 3.63747 -3.31586 0
M  V30 690 N 59.124 1.23083 0.984299 0
M  V30 691 C 60.54 0.992637 1.24975 0
M  V30 692 C 60.74 -0.308618 1.99123 0
M  V30 693 O 59.796 -1.02905 2.30579 0
M  V30 694 C 61.109 2.19698 2.05312 0
M  V30 695 C 62.657 2.24147 2.18465 0
M  V30 696 C 63.132 3.44157 3.02192 0
M  V30 697 N 64.623 3.44372 3.09777 0
M  V30 698 C 65.358 4.33886 3.74874 0
M  V30 699 N 64.854 5.3363 4.41827 0
M  V30 700 N 66.647 4.21639 3.71721 0
M  V30 701 H 58.798 2.06731 0.487453 0
M  V30 702 H 61.061 0.906339 0.277944 0
M  V30 703 H 60.767 3.1411 1.58201 0
M  V30 704 H 60.641 2.20465 3.06064 0
M  V30 705 H 63.028 1.30277 2.64786 0
M  V30 706 H 63.109 2.27415 1.17115 0
M  V30 707 H 62.753 4.38332 2.56568 0
M  V30 708 H 62.683 3.3813 4.03702 0
M  V30 709 H 65.174 2.72201 2.62135 0
M  V30 710 H 65.487 5.98196 4.89266 0
M  V30 711 H 63.832 5.37534 4.40548 0
M  V30 712 H 67.023 3.42962 3.18582 0
M  V30 713 H 67.196 4.91604 4.22173 0
M  V30 714 N 60.6021 -1.18246 1.0419 0
M  V30 715 C 62.0131 -1.69914 0.773698 0
M  V30 716 C 62.3641 -1.83085 -0.705297 0
M  V30 717 O 61.4891 -1.51123 -1.5489 0
M  V30 718 C 62.0841 -3.08619 1.39784 0
M  V30 719 C 60.6431 -3.57494 1.17792 0
M  V30 720 C 59.7901 -2.34013 1.48773 0
M  V30 721 H 62.7411 -1.02904 1.20816 0
M  V30 722 H 62.7621 -3.71958 0.801714 0
M  V30 723 H 62.2741 -2.99001 2.47426 0
M  V30 724 H 60.3751 -3.72406 0.120295 0
M  V30 725 H 60.4881 -4.40852 1.87581 0
M  V30 726 H 58.8521 -2.37986 0.907463 0
M  V30 727 H 59.6351 -2.27013 2.57527 0
M  V30 728 N 62.0802 -0.821533 -1.34494 0
M  V30 729 C 62.9902 -0.244355 -2.33324 0
M  V30 730 C 64.0062 0.620527 -1.62559 0
M  V30 731 O 65.1822 0.528754 -1.94335 0
M  V30 732 C 62.2472 0.585368 -3.41723 0
M  V30 733 C 61.3082 -0.301752 -4.28238 0
M  V30 734 C 60.5412 0.488466 -5.3146 0
M  V30 735 O 60.7642 1.72186 -5.4379 0
M  V30 736 O 59.6982 -0.12848 -6.01763 0
M  V30 737 H 63.5242 -1.06231 -2.84515 0
M  V30 738 H 61.1092 -0.583645 -1.37528 0
M  V30 739 H 62.9912 1.05747 -4.07916 0
M  V30 740 H 61.6662 1.38068 -2.92778 0
M  V30 741 H 60.5732 -0.821315 -3.64973 0
M  V30 742 H 61.9062 -1.06138 -4.8062 0
M  V30 743 N 63.5583 1.46682 -0.576371 0
M  V30 744 C 64.5213 2.28707 0.150239 0
M  V30 745 C 65.5213 1.38035 0.824794 0
M  V30 746 O 66.7113 1.60476 0.677719 0
M  V30 747 C 63.8433 3.18248 1.22192 0
M  V30 748 H 65.0363 2.94423 -0.570521 0
M  V30 749 H 62.5893 1.52688 -0.334078 0
M  V30 750 H 63.3243 2.57265 1.97447 0
M  V30 751 H 63.1093 3.85 0.742812 0
M  V30 752 H 64.5993 3.80001 1.73172 0
M  V30 753 N 65.0364 0.313813 1.54444 0
M  V30 754 C 66.4474 -0.176243 1.85866 0
M  V30 755 C 66.7984 -1.52405 1.23561 0
M  V30 756 O 65.9234 -2.09605 0.538016 0
M  V30 757 C 66.5184 -0.32657 3.37222 0
M  V30 758 C 65.0774 -0.760846 3.6863 0
M  V30 759 C 64.2244 0.123247 2.77026 0
M  V30 760 H 67.1754 0.534418 1.49431 0
M  V30 761 H 67.1964 -1.15908 3.62416 0
M  V30 762 H 66.7084 0.654531 3.82541 0
M  V30 763 H 64.8094 -1.75204 3.28838 0
M  V30 764 H 64.9224 -0.571353 4.75681 0
M  V30 765 H 63.2864 -0.399597 2.51546 0
M  V30 766 H 64.0694 1.10094 3.25168 0
M  V30 767 N 66.5145 -1.57545 0.0417849 0
M  V30 768 C 67.7915 -1.83642 -0.673433 0
M  V30 769 C 68.1715 -0.928298 -1.89594 0
M  V30 770 O 67.5195 0.0129955 -2.28496 0
M  V30 771 C 67.7295 -3.33155 -1.03964 0
M  V30 772 C 69.0775 -3.99941 -1.42592 0
M  V30 773 O 70.1015 -3.37725 -1.13226 0
M  V30 774 O 68.9605 -5.09619 -1.9736 0
M  V30 775 H 66.0545 -0.757638 -0.331533 0
M  V30 776 H 68.6005 -1.69554 0.070433 0
M  V30 777 H 67.3725 -3.9093 -0.170098 0
M  V30 778 H 66.9955 -3.52396 -1.84126 0
M  V30 779 N 67.9926 0.231505 -1.5589 0
M  V30 780 C 68.9246 1.31006 -1.8807 0
M  V30 781 C 69.9376 1.43539 -0.768145 0
M  V30 782 O 71.1266 1.44614 -1.04638 0
M  V30 783 C 68.2266 2.68688 -2.06543 0
M  V30 784 C 67.3996 2.78228 -3.37502 0
M  V30 785 C 66.4586 3.96857 -3.4553 0
M  V30 786 O 65.4846 3.85662 -4.18633 0
M  V30 787 N 66.6866 5.1072 -2.75944 0
M  V30 788 H 69.4516 1.03731 -2.81176 0
M  V30 789 H 67.0126 0.421573 -1.56315 0
M  V30 790 H 69.0046 3.46412 -2.09239 0
M  V30 791 H 67.5746 2.88605 -1.20109 0
M  V30 792 H 66.7946 1.87059 -3.46991 0
M  V30 793 H 68.0826 2.81564 -4.23791 0
M  V30 794 H 67.4806 5.2271 -2.16311 0
M  V30 795 H 66.0376 5.86523 -2.84314 0
M  V30 796 N 69.4707 1.49531 0.497807 0
M  V30 797 C 70.6987 1.62893 1.27567 0
M  V30 798 C 71.1137 0.301585 1.86376 0
M  V30 799 O 70.4707 -0.713335 1.67982 0
M  V30 800 C 70.5217 2.70013 2.40364 0
M  V30 801 O 70.2427 3.976 1.83972 0
M  V30 802 C 71.7437 2.94109 3.31685 0
M  V30 803 H 68.9637 0.548298 0.386794 0
M  V30 804 H 71.5077 1.95584 0.597245 0
M  V30 805 H 69.6627 2.40092 3.04031 0
M  V30 806 H 70.0767 4.56631 2.58047 0
M  V30 807 H 71.5507 3.72788 4.07104 0
M  V30 808 H 72.0277 2.04147 3.88871 0
M  V30 809 H 72.6337 3.2546 2.73781 0
M  V30 810 N 70.9488 -0.749086 1.3866 0
M  V30 811 C 71.8788 -1.8764 1.38973 0
M  V30 812 C 72.8598 -1.68178 0.255004 0
M  V30 813 O 74.0448 -1.88704 0.458754 0
M  V30 814 C 71.1748 -3.25222 1.21851 0
M  V30 815 C 70.1288 -3.59295 2.32575 0
M  V30 816 C 69.4548 -4.95663 2.00555 0
M  V30 817 C 70.7548 -3.63709 3.7485 0
M  V30 818 H 72.4488 -1.87635 2.3331 0
M  V30 819 H 69.9948 -0.901329 1.12303 0
M  V30 820 H 71.9478 -4.03746 1.20695 0
M  V30 821 H 70.6718 -3.25719 0.239775 0
M  V30 822 H 69.3308 -2.83093 2.32925 0
M  V30 823 H 68.9788 -4.92724 1.01154 0
M  V30 824 H 68.6788 -5.19429 2.74714 0
M  V30 825 H 70.2028 -5.7656 2.01024 0
M  V30 826 H 71.6168 -4.32338 3.76506 0
M  V30 827 H 70.0138 -3.98986 4.48252 0
M  V30 828 H 71.0838 -2.63834 4.06841 0
M  V30 829 N 72.4269 -1.23603 -0.977757 0
M  V30 830 C 73.8379 -1.06424 -1.53398 0
M  V30 831 C 74.1889 0.367578 -1.92726 0
M  V30 832 O 73.3139 1.25465 -1.76316 0
M  V30 833 C 73.9089 -1.92568 -2.78753 0
M  V30 834 C 72.4679 -1.79642 -3.30765 0
M  V30 835 C 71.6149 -1.88111 -2.03739 0
M  V30 836 H 74.5659 -1.37227 -0.797152 0
M  V30 837 H 74.5869 -1.45203 -3.51705 0
M  V30 838 H 74.0989 -2.96771 -2.50098 0
M  V30 839 H 72.1999 -0.782325 -3.64294 0
M  V30 840 H 72.3129 -2.63174 -4.00345 0
M  V30 841 H 70.6769 -1.31723 -2.17994 0
M  V30 842 H 71.4599 -2.93875 -1.77461 0
M  V30 843 N 73.905 1.17692 -1.04816 0
M  V30 844 C 75.316 1.69501 -0.782698 0
M  V30 845 C 75.667 1.83456 0.695577 0
M  V30 846 O 74.792 1.51942 1.54086 0
M  V30 847 C 75.387 3.07874 -1.41419 0
M  V30 848 C 73.946 3.56864 -1.19686 0
M  V30 849 C 73.093 2.3322 -1.50012 0
M  V30 850 H 76.044 1.02262 -1.2136 0
M  V30 851 H 76.065 3.71528 -0.821428 0
M  V30 852 H 75.577 2.97685 -2.49009 0
M  V30 853 H 73.678 3.72337 -0.140043 0
M  V30 854 H 73.791 4.39851 -1.89916 0
M  V30 855 H 72.155 2.37501 -0.920071 0
M  V30 856 H 72.938 2.25644 -2.58727 0
M  V30 857 N 75.3831 0.828654 1.34056 0
M  V30 858 C 76.3131 0.269443 2.3194 0
M  V30 859 C 77.2941 -0.617247 1.58506 0
M  V30 860 O 78.4791 -0.542931 1.86456 0
M  V30 861 C 75.6091 -0.564793 3.42677 0
M  V30 862 C 74.5631 0.225241 4.27407 0
M  V30 863 C 73.8891 -0.7321 5.29664 0
M  V30 864 C 75.1891 1.43663 5.02154 0
M  V30 865 H 76.8831 1.08728 2.7896 0
M  V30 866 H 74.4291 0.524283 1.34117 0
M  V30 867 H 76.3821 -0.966233 4.10173 0
M  V30 868 H 75.1061 -1.41574 2.9432 0
M  V30 869 H 73.7651 0.608117 3.61521 0
M  V30 870 H 73.4131 -1.57916 4.77568 0
M  V30 871 H 73.1131 -0.20767 5.87233 0
M  V30 872 H 74.6371 -1.13128 6.00029 0
M  V30 873 H 76.0511 1.1089 5.62473 0
M  V30 874 H 74.4481 1.89711 5.69324 0
M  V30 875 H 75.5181 2.21181 4.31517 0
M  V30 876 N 76.8612 -1.46375 0.584142 0
M  V30 877 C 77.8092 -2.32042 -0.161047 0
M  V30 878 C 78.8032 -1.44569 -0.882966 0
M  V30 879 O 80.0092 -1.61186 -0.801191 0
M  V30 880 H 76.3842 -0.748659 -0.0708033 0
M  V30 881 H 78.3552 -2.92704 0.580269 0
M  V30 882 C 77.1042 -3.27762 -1.1605 0
M  V30 883 H 76.4272 -3.95051 -0.614419 0
M  V30 884 H 77.8672 -3.90481 -1.65228 0
M  V30 885 C 76.3262 -2.53218 -2.22221 0
M  V30 886 O 76.8562 -2.29628 -3.29597 0
M  V30 887 N 75.0622 -2.13756 -1.96868 0
M  V30 888 H 74.6092 -2.33142 -1.09557 0
M  V30 889 H 74.5672 -1.642 -2.68115 0
M  V30 890 N 78.3393 -0.321999 -1.54275 0
M  V30 891 C 79.2873 0.560206 -2.25753 0
M  V30 892 C 80.2813 1.11984 -1.27106 0
M  V30 893 O 81.4873 1.06806 -1.44888 0
M  V30 894 H 77.8623 0.199304 -0.725108 0
M  V30 895 H 79.8333 -0.0649365 -2.98329 0
M  V30 896 C 78.5823 1.71023 -3.02731 0
M  V30 897 H 77.9053 1.28885 -3.78456 0
M  V30 898 H 79.3453 2.30314 -3.55993 0
M  V30 899 C 77.8043 2.62692 -2.10938 0
M  V30 900 O 78.3343 3.64364 -1.6912 0
M  V30 901 N 76.5403 2.30891 -1.76459 0
M  V30 902 H 76.0873 1.48253 -2.10663 0
M  V30 903 H 76.0453 2.92487 -1.1532 0
M  V30 904 N 79.8174 1.5752 -0.0501392 0
M  V30 905 C 81.0644 1.9265 0.623874 0
M  V30 906 C 81.3924 0.928411 1.70912 0
M  V30 907 O 80.6474 -0.0594525 1.9561 0
M  V30 908 C 80.9464 3.34467 1.25963 0
M  V30 909 C 80.6124 4.49883 0.302689 0
M  V30 910 C 79.2744 4.81184 0.0393636 0
M  V30 911 C 81.6264 5.20002 -0.353205 0
M  V30 912 C 78.9544 5.79951 -0.887308 0
M  V30 913 C 81.3064 6.1976 -1.26806 0
M  V30 914 C 79.9704 6.49491 -1.54007 0
M  V30 915 H 79.2404 0.704957 0.228292 0
M  V30 916 H 81.8874 1.91146 -0.116398 0
M  V30 917 H 80.1924 3.32333 2.07514 0
M  V30 918 H 81.8894 3.58928 1.78806 0
M  V30 919 H 78.4794 4.25457 0.518109 0
M  V30 920 H 82.6634 4.96033 -0.162854 0
M  V30 921 H 77.9194 6.01322 -1.10553 0
M  V30 922 H 82.0934 6.73205 -1.78236 0
M  V30 923 H 79.7204 7.25837 -2.25976 0
M  V30 924 N 81.2955 -0.223234 1.56011 0
M  V30 925 C 82.5205 -0.968978 1.83373 0
M  V30 926 C 82.9455 -1.77227 0.630254 0
M  V30 927 O 82.3035 -1.76345 -0.420959 0
M  V30 928 C 82.3515 -1.86363 3.08709 0
M  V30 929 O 81.4555 -2.95873 2.87285 0
M  V30 930 H 80.7965 -0.274461 0.604622 0
M  V30 931 H 83.3265 -0.237056 2.03222 0
M  V30 932 H 83.3365 -2.27376 3.38768 0
M  V30 933 H 82.0115 -1.27319 3.95933 0
M  V30 934 H 80.5885 -2.58818 2.68454 0
M  V30 935 N 82.7736 -1.49793 -0.48987 0
M  V30 936 C 84.0196 -1.60078 -1.24511 0
M  V30 937 C 84.3526 -0.291608 -1.91998 0
M  V30 938 O 83.6276 0.705647 -1.81248 0
M  V30 939 C 83.9106 -2.76791 -2.30345 0
M  V30 940 C 83.7636 -4.17535 -1.67286 0
M  V30 941 C 85.0826 -2.89111 -3.31817 0
M  V30 942 H 82.2016 -0.582645 -0.451324 0
M  V30 943 H 84.8436 -1.82117 -0.541612 0
M  V30 944 H 82.9936 -2.5813 -2.90346 0
M  V30 945 H 84.6656 -4.4774 -1.11026 0
M  V30 946 H 82.9086 -4.22665 -0.976577 0
M  V30 947 H 83.5796 -4.95094 -2.44103 0
M  V30 948 H 86.0556 -3.06133 -2.81819 0
M  V30 949 H 84.9316 -3.72433 -4.03219 0
M  V30 950 H 85.1926 -1.9893 -3.94815 0
M  V30 951 N 84.2517 0.741722 -1.39055 0
M  V30 952 C 85.2147 1.83733 -1.37021 0
M  V30 953 C 86.2147 1.58542 -0.268534 0
M  V30 954 O 87.4047 1.66067 -0.526076 0
M  V30 955 C 84.5367 3.2141 -1.13617 0
M  V30 956 H 85.7297 1.86941 -2.34506 0
M  V30 957 H 83.2827 0.944676 -1.24521 0
M  V30 958 H 84.0177 3.23865 -0.167863 0
M  V30 959 H 83.8027 3.4109 -1.93391 0
M  V30 960 H 85.2927 4.01477 -1.14918 0
M  V30 961 N 85.7298 1.2412 0.971189 0
M  V30 962 C 86.6398 1.04747 2.09917 0
M  V30 963 C 87.6558 -0.0107162 1.73997 0
M  V30 964 O 88.8318 0.186714 2.00533 0
M  V30 965 C 85.8968 0.650828 3.40537 0
M  V30 966 C 84.9578 1.7851 3.90426 0
M  V30 967 C 84.1908 1.40729 5.14812 0
M  V30 968 O 84.4138 0.29557 5.69634 0
M  V30 969 O 83.3478 2.23168 5.58999 0
M  V30 970 H 87.1738 1.99304 2.29154 0
M  V30 971 H 84.7588 1.02908 1.08307 0
M  V30 972 H 86.6408 0.440992 4.19086 0
M  V30 973 H 85.3158 -0.265649 3.22608 0
M  V30 974 H 84.2228 2.04966 3.12953 0
M  V30 975 H 85.5558 2.68023 4.12825 0
M  V30 976 N 87.2079 -1.17134 1.05439 0
M  V30 977 C 88.4479 -1.89137 0.77502 0
M  V30 978 C 88.8119 -1.79345 -0.685526 0
M  V30 979 O 90.0129 -2.46188 -1.0791 0
M  V30 980 C 88.2839 -3.35003 1.2453 0
M  V30 981 S 89.8429 -4.24952 1.09367 0
M  V30 982 H 86.6609 -0.652949 0.281387 0
M  V30 983 H 89.2629 -1.4145 1.34953 0
M  V30 984 H 87.9669 -3.39666 2.30338 0
M  V30 985 H 87.4979 -3.87736 0.665166 0
M  V30 986 H 89.5129 -4.96196 0.0193397 0
M  V30 987 N 88.686 -0.835752 -1.33615 0
M  V30 988 C 89.618 -0.224151 -2.28101 0
M  V30 989 C 90.631 0.593331 -1.51603 0
M  V30 990 O 91.82 0.420911 -1.73466 0
M  V30 991 C 88.92 0.703309 -3.31522 0
M  V30 992 C 88.093 -0.0741528 -4.37337 0
M  V30 993 C 87.152 0.776176 -5.20444 0
M  V30 994 O 86.178 0.216506 -5.68788 0
M  V30 995 N 87.38 2.09401 -5.41416 0
M  V30 996 H 90.145 -1.03598 -2.81225 0
M  V30 997 H 87.706 -0.69392 -1.46275 0
M  V30 998 H 89.698 1.27707 -3.84022 0
M  V30 999 H 88.268 1.41585 -2.78698 0
M  V30 1000 H 87.488 -0.82928 -3.85378 0
M  V30 1001 H 88.776 -0.608863 -5.05144 0
M  V30 1002 H 88.174 2.57229 -5.03835 0
M  V30 1003 H 86.731 2.61633 -5.96985 0
M  V30 1004 N 90.1641 1.46063 -0.591896 0
M  V30 1005 C 91.0941 2.33172 0.123673 0
M  V30 1006 C 92.0751 1.45897 0.87453 0
M  V30 1007 O 93.2601 1.74698 0.848181 0
M  V30 1008 C 90.3901 3.28336 1.13194 0
M  V30 1009 C 89.3441 4.25124 0.495324 0
M  V30 1010 C 88.6701 5.09863 1.61071 0
M  V30 1011 C 89.9701 5.19143 -0.573425 0
M  V30 1012 H 91.6641 2.93252 -0.603646 0
M  V30 1013 H 89.2101 1.41014 -0.291741 0
M  V30 1014 H 91.1631 3.88137 1.64097 0
M  V30 1015 H 89.8871 2.66383 1.88965 0
M  V30 1016 H 88.5461 3.66599 0.00729452 0
M  V30 1017 H 88.1941 4.44288 2.35832 0
M  V30 1018 H 87.8941 5.75417 1.19035 0
M  V30 1019 H 89.4181 5.72529 2.12233 0
M  V30 1020 H 90.8321 5.73106 -0.1491 0
M  V30 1021 H 89.2291 5.93089 -0.914636 0
M  V30 1022 H 90.2991 4.62519 -1.45617 0
M  V30 1023 N 91.6422 0.330177 1.54103 0
M  V30 1024 C 92.5752 -0.575477 2.20825 0
M  V30 1025 C 93.5532 -1.11064 1.18758 0
M  V30 1026 O 94.7372 -1.17341 1.47524 0
M  V30 1027 C 91.8642 -1.79032 2.87516 0
M  V30 1028 C 90.9102 -1.38581 4.03358 0
M  V30 1029 S 91.7432 -0.416911 5.33875 0
M  V30 1030 C 92.8992 -1.63889 6.04062 0
M  V30 1031 H 93.1322 -0.00872114 2.97299 0
M  V30 1032 H 90.6652 0.114254 1.53977 0
M  V30 1033 H 92.6232 -2.48734 3.2656 0
M  V30 1034 H 91.2842 -2.32827 2.10832 0
M  V30 1035 H 90.4772 -2.29123 4.48908 0
M  V30 1036 H 90.0792 -0.768419 3.66021 0
M  V30 1037 H 92.3712 -2.57536 6.26643 0
M  V30 1038 H 93.3142 -1.22542 6.97416 0
M  V30 1039 H 93.7222 -1.82887 5.34053 0
M  V30 1040 N 93.1203 -1.57491 0.0584922 0
M  V30 1041 C 94.0673 -2.11958 -0.913376 0
M  V30 1042 C 95.0373 -1.02875 -1.30407 0
M  V30 1043 O 96.2223 -1.30464 -1.39226 0
M  V30 1044 C 93.3623 -2.67497 -2.18035 0
M  V30 1045 C 92.4753 -3.90691 -1.84349 0
M  V30 1046 C 91.6103 -4.3452 -3.05559 0
M  V30 1047 C 90.6493 -5.50395 -2.67827 0
M  V30 1048 N 89.7863 -5.89244 -3.81754 0
M  V30 1049 H 94.6263 -2.94704 -0.442017 0
M  V30 1050 H 92.1633 -1.45643 -0.206545 0
M  V30 1051 H 94.1213 -2.978 -2.92183 0
M  V30 1052 H 92.7513 -1.87537 -2.62735 0
M  V30 1053 H 91.8033 -3.66934 -1.00319 0
M  V30 1054 H 93.1153 -4.7489 -1.5258 0
M  V30 1055 H 92.2693 -4.66414 -3.87998 0
M  V30 1056 H 91.0083 -3.49147 -3.40511 0
M  V30 1057 H 90.0133 -5.18165 -1.83806 0
M  V30 1058 H 91.2383 -6.3749 -2.34059 0
M  V30 1059 H 89.1843 -5.06823 -4.16493 0
M  V30 1060 H 89.1013 -6.68151 -3.53708 0
M  V30 1061 H 90.3693 -6.25756 -4.64811 0
M  V30 1062 N 94.5984 0.214957 -1.56127 0
M  V30 1063 C 95.8264 0.955092 -1.83536 0
M  V30 1064 C 96.2414 1.77677 -0.638472 0
M  V30 1065 O 95.5984 1.78219 0.392968 0
M  V30 1066 C 95.6494 1.86734 -3.09536 0
M  V30 1067 O 95.3704 1.07887 -4.24608 0
M  V30 1068 C 96.8714 2.72082 -3.4998 0
M  V30 1069 H 94.0914 0.279611 -0.609966 0
M  V30 1070 H 96.6354 0.228197 -2.03223 0
M  V30 1071 H 94.7904 2.5481 -2.91806 0
M  V30 1072 H 95.2044 1.69872 -4.9623 0
M  V30 1073 H 96.6784 3.31782 -4.41163 0
M  V30 1074 H 97.1554 3.44806 -2.7204 0
M  V30 1075 H 97.7614 2.09409 -3.70173 0
M  V30 1076 N 96.0765 1.50051 0.48192 0
M  V30 1077 C 96.9865 1.7089 1.60728 0
M  V30 1078 C 98.0025 0.591788 1.63627 0
M  V30 1079 O 99.1785 0.868817 1.81696 0
M  V30 1080 C 96.2435 1.78855 2.97005 0
M  V30 1081 C 95.3045 3.02537 3.04581 0
M  V30 1082 C 94.5375 3.10112 4.34357 0
M  V30 1083 O 94.7605 2.24765 5.24249 0
M  V30 1084 O 93.6945 4.02747 4.47301 0
M  V30 1085 H 97.5205 2.66264 1.46072 0
M  V30 1086 H 95.1055 1.34018 0.660264 0
M  V30 1087 H 96.9875 1.86336 3.77964 0
M  V30 1088 H 95.6625 0.866628 3.11883 0
M  V30 1089 H 94.5695 3.00563 2.22739 0
M  V30 1090 H 95.9025 3.94272 2.94636 0
M  V30 1091 N 97.5546 -0.734337 1.39446 0
M  V30 1092 C 98.9706 -1.03997 1.21065 0
M  V30 1093 C 99.1706 -2.01369 0.0727019 0
M  V30 1094 O 98.2266 -2.45856 -0.575426 0
M  V30 1095 C 99.5396 -1.60163 2.54496 0
M  V30 1096 C 101.088 -1.7224 2.61347 0
M  V30 1097 C 101.563 -2.31814 3.95002 0
M  V30 1098 N 103.054 -2.39223 3.96644 0
M  V30 1099 C 103.789 -2.86258 4.96834 0
M  V30 1100 N 103.285 -3.33184 6.07421 0
M  V30 1101 N 105.078 -2.85473 4.84213 0
M  V30 1102 H 97.2286 -0.0885624 2.12215 0
M  V30 1103 H 99.4916 -0.10191 0.942506 0
M  V30 1104 H 99.1976 -0.960811 3.38321 0
M  V30 1105 H 99.0716 -2.5896 2.74262 0
M  V30 1106 H 101.459 -2.35443 1.77906 0
M  V30 1107 H 101.54 -0.720939 2.4543 0
M  V30 1108 H 101.184 -1.69238 4.78875 0
M  V30 1109 H 101.114 -3.32638 4.08239 0
M  V30 1110 H 103.605 -2.06057 3.16779 0
M  V30 1111 H 103.918 -3.67586 6.7978 0
M  V30 1112 H 102.263 -3.31191 6.11013 0
M  V30 1113 H 105.454 -2.48136 3.96921 0
M  V30 1114 H 105.627 -3.21814 5.62441 0
M  V30 1115 N 99.0327 -1.24633 -0.964593 0
M  V30 1116 C 100.444 -1.08045 -1.5226 0
M  V30 1117 C 100.795 0.347116 -1.93105 0
M  V30 1118 O 99.9197 1.23588 -1.77637 0
M  V30 1119 C 100.515 -1.95514 -2.76695 0
M  V30 1120 C 99.0737 -1.8314 -3.28841 0
M  V30 1121 C 98.2207 -1.90262 -2.01732 0
M  V30 1122 H 101.172 -1.38064 -0.782553 0
M  V30 1123 H 101.193 -1.48925 -3.50145 0
M  V30 1124 H 100.705 -2.99407 -2.46936 0
M  V30 1125 H 98.8057 -0.82092 -3.63444 0
M  V30 1126 H 98.9187 -2.67406 -3.97531 0
M  V30 1127 H 97.2827 -1.34027 -2.16584 0
M  V30 1128 H 98.0657 -2.9574 -1.74334 0
M  V30 1129 N 100.511 1.16574 -1.06058 0
M  V30 1130 C 101.927 1.3904 -0.783585 0
M  V30 1131 C 102.127 1.91784 0.618145 0
M  V30 1132 O 101.183 2.11511 1.37911 0
M  V30 1133 C 102.496 2.37329 -1.84649 0
M  V30 1134 C 104.044 2.51018 -1.86973 0
M  V30 1135 C 104.519 3.52588 -2.92311 0
M  V30 1136 N 106.01 3.60113 -2.91329 0
M  V30 1137 C 106.745 4.38486 -3.69482 0
M  V30 1138 N 106.241 5.20302 -4.57447 0
M  V30 1139 N 108.034 4.33446 -3.57885 0
M  V30 1140 H 100.185 0.806725 -1.96483 0
M  V30 1141 H 102.448 0.417117 -0.851303 0
M  V30 1142 H 102.154 2.05663 -2.85299 0
M  V30 1143 H 102.028 3.36946 -1.6955 0
M  V30 1144 H 104.415 2.81989 -0.869827 0
M  V30 1145 H 104.496 1.51445 -2.0615 0
M  V30 1146 H 104.14 3.22354 -3.92492 0
M  V30 1147 H 104.07 4.51886 -2.70383 0
M  V30 1148 H 106.561 3.01707 -2.27555 0
M  V30 1149 H 106.874 5.77311 -5.13743 0
M  V30 1150 H 105.219 5.19653 -4.61503 0
M  V30 1151 H 108.41 3.68586 -2.88551 0
M  V30 1152 H 108.583 4.94279 -4.19037 0
M  V30 1153 N 101.989 0.842826 1.3317 0
M  V30 1154 C 103.4 0.496651 1.79973 0
M  V30 1155 C 103.751 -0.984641 1.69703 0
M  V30 1156 O 102.876 -1.76743 1.24863 0
M  V30 1157 C 103.471 0.894727 3.26772 0
M  V30 1158 C 102.03 0.600629 3.71577 0
M  V30 1159 C 101.177 1.10091 2.5451 0
M  V30 1160 H 104.128 1.03116 1.20635 0
M  V30 1161 H 104.149 0.206347 3.7994 0
M  V30 1162 H 103.661 1.97287 3.34215 0
M  V30 1163 H 101.762 -0.467284 3.69658 0
M  V30 1164 H 101.875 1.15863 4.64879 0
M  V30 1165 H 100.239 0.52162 2.49301 0
M  V30 1166 H 101.022 2.18591 2.64713 0
M  V30 1167 N 103.467 -1.45747 0.599634 0
M  V30 1168 C 104.415 -2.322 -0.136426 0
M  V30 1169 C 105.409 -1.45497 -0.867583 0
M  V30 1170 O 106.615 -1.62027 -0.78405 0
M  V30 1171 H 102.99 -0.749368 -0.0628588 0
M  V30 1172 H 104.961 -2.92072 0.611281 0
M  V30 1173 C 103.71 -3.28974 -1.12567 0
M  V30 1174 H 103.033 -3.9568 -0.572484 0
M  V30 1175 H 104.473 -3.92212 -1.61077 0
M  V30 1176 C 102.932 -2.55561 -2.19523 0
M  V30 1177 O 103.462 -2.33111 -3.27143 0
M  V30 1178 N 101.668 -2.15832 -1.94589 0
M  V30 1179 H 101.215 -2.3429 -1.07078 0
M  V30 1180 H 101.173 -1.67034 -2.66359 0
M  V30 1181 N 104.945 -0.338344 -1.53925 0
M  V30 1182 C 106.173 0.261298 -2.05243 0
M  V30 1183 C 106.588 1.44625 -1.21363 0
M  V30 1184 O 105.945 1.80811 -0.247736 0
M  V30 1185 C 105.996 0.681412 -3.5502 0
M  V30 1186 O 105.717 -0.456414 -4.35716 0
M  V30 1187 C 107.218 1.34232 -4.22489 0
M  V30 1188 H 104.438 0.0513685 -0.669031 0
M  V30 1189 H 106.982 -0.488822 -1.98572 0
M  V30 1190 H 105.137 1.38148 -3.61931 0
M  V30 1191 H 105.551 -0.122564 -5.24357 0
M  V30 1192 H 107.025 1.58708 -5.28693 0
M  V30 1193 H 107.502 2.29426 -3.74514 0
M  V30 1194 H 108.108 0.684424 -4.19757 0
M  V30 1195 N 106.423 1.57458 -0.0668435 0
M  V30 1196 C 107.67 1.93301 0.603406 0
M  V30 1197 C 107.998 0.946486 1.69917 0
M  V30 1198 O 107.253 -0.0387021 1.95662 0
M  V30 1199 C 107.552 3.35784 1.22409 0
M  V30 1200 C 107.218 4.50179 0.254955 0
M  V30 1201 C 105.88 4.81199 -0.0116746 0
M  V30 1202 C 108.232 5.19598 -0.408338 0
M  V30 1203 C 105.56 5.78978 -0.94877 0
M  V30 1204 C 107.912 6.18381 -1.33372 0
M  V30 1205 C 106.576 6.47821 -1.60887 0
M  V30 1206 H 105.846 0.707338 0.220802 0
M  V30 1207 H 108.493 1.91012 -0.136665 0
M  V30 1208 H 106.798 3.34515 2.03978 0
M  V30 1209 H 108.495 3.60804 1.74989 0
M  V30 1210 H 105.085 4.25983 0.472954 0
M  V30 1211 H 109.269 4.95832 -0.215456 0
M  V30 1212 H 104.525 6.00115 -1.16925 0
M  V30 1213 H 108.699 6.71277 -1.85367 0
M  V30 1214 H 106.326 7.23399 -2.33661 0
M  V30 1215 N 107.901 -0.206675 1.56239 0
M  V30 1216 C 109.147 -0.930218 1.80208 0
M  V30 1217 C 109.48 -1.83387 0.638981 0
M  V30 1218 O 108.755 -1.91119 -0.361066 0
M  V30 1219 C 109.038 -1.75641 3.1436 0
M  V30 1220 C 108.891 -0.878257 4.41142 0
M  V30 1221 C 110.21 -2.73129 3.45092 0
M  V30 1222 H 107.329 -0.336742 0.655571 0
M  V30 1223 H 109.971 -0.198222 1.88963 0
M  V30 1224 H 108.121 -2.38048 3.07027 0
M  V30 1225 H 109.793 -0.269787 4.6051 0
M  V30 1226 H 108.036 -0.184385 4.33408 0
M  V30 1227 H 108.707 -1.49106 5.3148 0
M  V30 1228 H 111.183 -2.20856 3.52649 0
M  V30 1229 H 110.059 -3.28028 4.40101 0
M  V30 1230 H 110.32 -3.51606 2.68003 0
M  V30 1231 N 109.379 -1.50304 -0.473955 0
M  V30 1232 C 110.628 -1.60392 -1.22301 0
M  V30 1233 C 110.941 -0.308411 -1.93153 0
M  V30 1234 O 112.147 -0.288156 -2.69966 0
M  V30 1235 C 110.603 -2.83109 -2.2221 0
M  V30 1236 C 110.211 -4.19524 -1.57173 0
M  V30 1237 C 111.955 -3.0254 -2.97775 0
M  V30 1238 C 109.862 -5.33431 -2.55353 0
M  V30 1239 H 108.792 -0.597286 -0.460179 0
M  V30 1240 H 111.443 -1.76731 -0.493803 0
M  V30 1241 H 109.825 -2.60322 -2.9841 0
M  V30 1242 H 110.999 -4.52554 -0.867824 0
M  V30 1243 H 109.314 -4.05674 -0.939002 0
M  V30 1244 H 111.911 -3.84811 -3.71248 0
M  V30 1245 H 112.254 -2.14154 -3.56992 0
M  V30 1246 H 112.787 -3.25494 -2.28688 0
M  V30 1247 H 109.526 -6.23962 -2.00878 0
M  V30 1248 H 109.046 -5.04823 -3.23904 0
M  V30 1249 H 110.725 -5.63887 -3.17239 0
M  V30 1250 N 110.857 0.726932 -1.39834 0
M  V30 1251 C 112.273 1.03354 -1.21615 0
M  V30 1252 C 112.473 2.01327 -0.08338 0
M  V30 1253 O 111.529 2.46158 0.56238 0
M  V30 1254 C 112.842 1.58811 -2.55342 0
M  V30 1255 C 114.39 1.70851 -2.62257 0
M  V30 1256 C 114.865 2.29716 -3.96225 0
M  V30 1257 N 116.356 2.37116 -3.97907 0
M  V30 1258 C 117.091 2.83619 -4.98345 0
M  V30 1259 N 116.587 3.29958 -6.09179 0
M  V30 1260 N 118.38 2.82901 -4.8572 0
M  V30 1261 H 110.531 0.0773069 -2.12259 0
M  V30 1262 H 112.794 0.0969102 -0.943034 0
M  V30 1263 H 112.5 0.942855 -3.38826 0
M  V30 1264 H 112.374 2.57502 -2.75632 0
M  V30 1265 H 114.761 2.34497 -1.79152 0
M  V30 1266 H 114.842 0.707913 -2.45809 0
M  V30 1267 H 114.486 1.66696 -4.79765 0
M  V30 1268 H 114.416 3.30469 -4.09997 0
M  V30 1269 H 116.907 2.04374 -3.17868 0
M  V30 1270 H 117.22 3.63976 -6.8172 0
M  V30 1271 H 115.565 3.27946 -6.12761 0
M  V30 1272 H 118.756 2.46027 -3.98231 0
M  V30 1273 H 118.929 3.18827 -5.6414 0
M  V30 1274 N 112.336 1.25143 0.95797 0
M  V30 1275 C 113.576 1.10893 1.71703 0
M  V30 1276 C 113.94 -0.34478 1.88879 0
M  V30 1277 O 115.141 -0.609014 2.6181 0
M  V30 1278 C 113.412 1.83889 3.06463 0
M  V30 1279 S 114.971 1.85491 3.97666 0
M  V30 1280 H 111.789 0.396428 0.590226 0
M  V30 1281 H 114.391 1.58618 1.14283 0
M  V30 1282 H 113.095 2.88756 2.9163 0
M  V30 1283 H 112.626 1.36538 3.68946 0
M  V30 1284 H 114.641 0.929553 4.87415 0
M  V30 1285 N 113.814 -1.1601 1.06675 0
M  V30 1286 C 114.744 -2.22688 0.702307 0
M  V30 1287 C 115.725 -1.67306 -0.307032 0
M  V30 1288 O 116.91 -1.93352 -0.181305 0
M  V30 1289 C 114.04 -3.47178 0.092038 0
M  V30 1290 C 112.994 -4.15477 1.02777 0
M  V30 1291 C 112.32 -5.33963 0.28061 0
M  V30 1292 C 113.62 -4.66019 2.35846 0
M  V30 1293 H 115.314 -2.53429 1.59419 0
M  V30 1294 H 112.86 -1.21813 0.767961 0
M  V30 1295 H 114.813 -4.21037 -0.174814 0
M  V30 1296 H 113.537 -3.15749 -0.834877 0
M  V30 1297 H 112.196 -3.43549 1.27944 0
M  V30 1298 H 111.844 -4.98788 -0.649545 0
M  V30 1299 H 111.544 -5.806 0.904258 0
M  V30 1300 H 113.068 -6.10596 0.021396 0
M  V30 1301 H 114.482 -5.3144 2.15045 0
M  V30 1302 H 112.879 -5.23293 2.93743 0
M  V30 1303 H 113.949 -3.82023 2.98641 0
M  V30 1304 N 115.292 -0.849877 -1.32721 0
M  V30 1305 C 116.224 -0.248332 -2.27851 0
M  V30 1306 C 117.237 0.577218 -1.52224 0
M  V30 1307 O 118.426 0.402489 -1.73903 0
M  V30 1308 C 115.526 0.668107 -3.32249 0
M  V30 1309 C 114.699 -0.120534 -4.37234 0
M  V30 1310 C 113.758 0.720932 -5.21238 0
M  V30 1311 O 112.784 0.156166 -5.68986 0
M  V30 1312 N 113.986 2.03647 -5.43607 0
M  V30 1313 H 116.751 -1.06575 -2.80111 0
M  V30 1314 H 114.312 -0.709395 -1.45531 0
M  V30 1315 H 116.304 1.23627 -3.85355 0
M  V30 1316 H 114.874 1.38621 -2.80184 0
M  V30 1317 H 114.094 -0.870108 -3.84477 0
M  V30 1318 H 115.382 -0.662406 -5.0447 0
M  V30 1319 H 114.78 2.51871 -5.06535 0
M  V30 1320 H 113.337 2.55287 -5.99727 0
M  V30 1321 N 116.77 1.45427 -0.607355 0
M  V30 1322 C 118.016 2.03097 -0.111035 0
M  V30 1323 C 118.371 1.46735 1.24445 0
M  V30 1324 O 117.664 0.632478 1.8086 0
M  V30 1325 C 117.858 3.57398 -0.0129263 0
M  V30 1326 C 117.687 4.28726 -1.35735 0
M  V30 1327 C 116.457 4.66659 -1.93798 0
M  V30 1328 C 118.655 4.60699 -2.28607 0
M  V30 1329 N 116.637 5.22845 -3.21723 0
M  V30 1330 C 118.008 5.17716 -3.41131 0
M  V30 1331 C 120.063 4.42638 -2.27982 0
M  V30 1332 C 118.766 5.58576 -4.53194 0
M  V30 1333 C 120.792 4.84531 -3.39093 0
M  V30 1334 C 120.154 5.4164 -4.50339 0
M  V30 1335 H 116.253 0.777476 -0.083994 0
M  V30 1336 H 118.837 1.77249 -0.805655 0
M  V30 1337 H 117.008 3.82907 0.650914 0
M  V30 1338 H 118.74 4.01722 0.490033 0
M  V30 1339 H 115.495 4.50207 -1.47007 0
M  V30 1340 H 115.919 5.55438 -3.87063 0
M  V30 1341 H 120.561 3.97798 -1.43235 0
M  V30 1342 H 118.279 6.02382 -5.38667 0
M  V30 1343 H 121.865 4.72289 -3.39757 0
M  V30 1344 H 120.745 5.73461 -5.34895 0
M  V30 1345 N 118.248 0.346503 1.53744 0
M  V30 1346 C 119.476 -0.25041 2.05379 0
M  V30 1347 C 119.891 -1.43979 1.22129 0
M  V30 1348 O 119.248 -1.80677 0.257321 0
M  V30 1349 C 119.299 -0.662575 3.55376 0
M  V30 1350 O 119.02 0.479515 4.35468 0
M  V30 1351 C 120.521 -1.31989 4.23195 0
M  V30 1352 H 117.741 -0.0478198 0.669294 0
M  V30 1353 H 120.285 0.499346 1.9831 0
M  V30 1354 H 118.44 -1.36227 3.62658 0
M  V30 1355 H 118.854 0.15037 5.24284 0
M  V30 1356 H 120.328 -1.55902 5.29527 0
M  V30 1357 H 120.805 -2.27436 3.75725 0
M  V30 1358 H 121.411 -0.662154 4.20114 0
M  V30 1359 N 119.726 -1.57421 0.075193 0
M  V30 1360 C 120.954 -1.97946 -0.602076 0
M  V30 1361 C 121.369 -0.953674 -1.62943 0
M  V30 1362 O 120.726 0.0592551 -1.82404 0
M  V30 1363 C 120.777 -3.38546 -1.26762 0
M  V30 1364 O 120.498 -4.37195 -0.281376 0
M  V30 1365 C 121.999 -3.93966 -2.03239 0
M  V30 1366 H 119.219 -0.650918 -0.162931 0
M  V30 1367 H 121.763 -2.03959 0.148601 0
M  V30 1368 H 119.918 -3.33609 -1.96936 0
M  V30 1369 H 120.332 -5.18975 -0.759267 0
M  V30 1370 H 121.806 -4.94555 -2.45193 0
M  V30 1371 H 122.283 -3.30693 -2.8903 0
M  V30 1372 H 122.889 -4.02315 -1.37924 0
M  V30 1373 N 121.204 0.198386 -1.56346 0
M  V30 1374 C 122.45 0.920648 -1.80698 0
M  V30 1375 C 122.783 1.83045 -0.648697 0
M  V30 1376 O 122.058 1.91308 0.350925 0
M  V30 1377 C 122.341 1.73971 -3.15287 0
M  V30 1378 C 122.194 0.85485 -4.41602 0
M  V30 1379 C 123.513 2.71296 -3.46535 0
M  V30 1380 H 120.632 0.333261 -0.657348 0
M  V30 1381 H 123.274 0.188198 -1.89066 0
M  V30 1382 H 121.424 2.36416 -3.08285 0
M  V30 1383 H 123.096 0.245362 -4.60647 0
M  V30 1384 H 121.339 0.161398 -4.335 0
M  V30 1385 H 122.01 1.46286 -5.32264 0
M  V30 1386 H 124.486 2.18983 -3.53816 0
M  V30 1387 H 123.362 3.2569 -4.41834 0
M  V30 1388 H 123.623 3.5018 -2.69864 0
M  V30 1389 N 122.682 1.50554 0.465978 0
M  V30 1390 C 123.931 1.61038 1.21448 0
M  V30 1391 C 124.244 0.31865 1.92987 0
M  V30 1392 O 125.45 0.302469 2.6981 0
M  V30 1393 C 123.906 2.84283 2.20706 0
M  V30 1394 C 123.514 4.20352 1.54946 0
M  V30 1395 C 125.258 3.04115 2.96166 0
M  V30 1396 C 123.165 5.34778 2.5252 0
M  V30 1397 H 122.095 0.599718 0.457005 0
M  V30 1398 H 124.746 1.7699 0.484424 0
M  V30 1399 H 123.128 2.61901 2.97025 0
M  V30 1400 H 124.302 4.53008 0.843811 0
M  V30 1401 H 122.617 4.06167 0.917475 0
M  V30 1402 H 125.214 3.86774 3.69202 0
M  V30 1403 H 125.557 2.16045 3.55852 0
M  V30 1404 H 126.09 3.26702 2.26959 0
M  V30 1405 H 122.829 6.25018 1.97566 0
M  V30 1406 H 122.349 5.06534 3.21222 0
M  V30 1407 H 124.028 5.65561 3.14245 0
M  V30 1408 N 124.16 -0.719506 1.40217 0
M  V30 1409 C 125.07 -1.86378 1.42479 0
M  V30 1410 C 126.086 -1.71073 0.317834 0
M  V30 1411 O 127.262 -1.93406 0.561794 0
M  V30 1412 C 124.327 -3.22136 1.28178 0
M  V30 1413 C 123.388 -3.49723 2.48982 0
M  V30 1414 C 122.621 -4.79004 2.35353 0
M  V30 1415 O 122.844 -5.53821 1.36524 0
M  V30 1416 O 121.778 -5.06839 3.2465 0
M  V30 1417 H 125.604 -1.87425 2.38968 0
M  V30 1418 H 123.189 -0.869405 1.21498 0
M  V30 1419 H 125.071 -4.03234 1.22395 0
M  V30 1420 H 123.746 -3.21825 0.347934 0
M  V30 1421 H 122.653 -2.6865 2.60342 0
M  V30 1422 H 123.986 -3.54828 3.41113 0
M  V30 1423 N 125.638 -1.25649 -0.95132 0
M  V30 1424 C 127.054 -1.02542 -1.223 0
M  V30 1425 C 127.254 0.255715 -1.99871 0
M  V30 1426 O 126.31 0.967558 -2.33226 0
M  V30 1427 C 127.623 -2.25065 -1.99415 0
M  V30 1428 C 129.171 -2.29861 -2.12446 0
M  V30 1429 C 129.646 -3.52048 -2.92961 0
M  V30 1430 N 131.137 -3.52465 -3.00538 0
M  V30 1431 C 131.872 -4.43672 -3.63239 0
M  V30 1432 N 131.368 -5.45157 -4.27523 0
M  V30 1433 N 133.161 -4.31346 -3.60412 0
M  V30 1434 H 125.312 -2.07951 -0.432471 0
M  V30 1435 H 127.575 -0.91339 -0.253816 0
M  V30 1436 H 127.281 -3.18194 -1.49817 0
M  V30 1437 H 127.155 -2.28502 -3.00111 0
M  V30 1438 H 129.542 -1.37252 -2.61239 0
M  V30 1439 H 129.623 -2.3044 -1.11044 0
M  V30 1440 H 129.267 -4.44981 -2.44856 0
M  V30 1441 H 129.197 -3.48715 -3.94596 0
M  V30 1442 H 131.688 -2.79056 -2.54826 0
M  V30 1443 H 132.001 -6.10958 -4.73234 0
M  V30 1444 H 130.346 -5.49025 -4.26141 0
M  V30 1445 H 133.537 -3.51288 -3.09377 0
M  V30 1446 H 133.71 -5.02624 -4.0899 0
M  V30 1447 N 127.117 1.15442 -1.07289 0
M  V30 1448 C 128.345 1.90096 -0.81676 0
M  V30 1449 C 128.76 1.7798 0.629966 0
M  V30 1450 O 128.117 1.1313 1.43206 0
M  V30 1451 C 128.168 3.40466 -1.21512 0
M  V30 1452 O 127.889 3.52232 -2.60508 0
M  V30 1453 C 129.39 4.32145 -0.988198 0
M  V30 1454 H 126.61 0.602495 -0.295366 0
M  V30 1455 H 129.154 1.4627 -1.42918 0
M  V30 1456 H 127.309 3.81958 -0.647039 0
M  V30 1457 H 127.723 4.45549 -2.76742 0
M  V30 1458 H 129.197 5.36072 -1.31645 0
M  V30 1459 H 129.674 4.39135 0.0755063 0
M  V30 1460 H 130.28 3.96395 -1.54115 0
M  V30 1461 N 128.595 0.856903 1.32268 0
M  V30 1462 C 129.842 0.461386 1.97174 0
M  V30 1463 C 130.17 -0.983491 1.67803 0
M  V30 1464 O 129.425 -1.70541 0.959903 0
M  V30 1465 C 129.724 0.649919 3.51441 0
M  V30 1466 C 129.39 2.0656 4.00804 0
M  V30 1467 C 128.052 2.45279 4.13995 0
M  V30 1468 C 130.404 2.98947 4.26943 0
M  V30 1469 C 127.732 3.75653 4.50668 0
M  V30 1470 C 130.084 4.28822 4.65075 0
M  V30 1471 C 128.748 4.67472 4.76472 0
M  V30 1472 H 128.018 0.168833 0.72151 0
M  V30 1473 H 130.665 1.08739 1.57633 0
M  V30 1474 H 128.97 -0.0593018 3.91755 0
M  V30 1475 H 130.667 0.32391 3.9969 0
M  V30 1476 H 127.257 1.75495 3.91024 0
M  V30 1477 H 131.441 2.70265 4.16258 0
M  V30 1478 H 126.697 4.05379 4.57688 0
M  V30 1479 H 130.871 5.0047 4.84255 0
M  V30 1480 H 128.498 5.68539 5.04646 0
M  V30 1481 N 130.073 -1.45103 0.615059 0
M  V30 1482 C 131.023 -2.27679 -0.120966 0
M  V30 1483 C 132.007 -1.3775 -0.831491 0
M  V30 1484 O 133.199 -1.61683 -0.720249 0
M  V30 1485 C 130.328 -3.24767 -1.1127 0
M  V30 1486 C 129.414 -4.22184 -0.402627 0
M  V30 1487 N 129.805 -5.02692 0.559884 0
M  V30 1488 C 128.103 -4.4125 -0.649202 0
M  V30 1489 C 128.804 -5.73421 0.977942 0
M  V30 1490 N 127.78 -5.42657 0.320104 0
M  V30 1491 H 131.582 -2.87325 0.618181 0
M  V30 1492 H 129.096 -1.56345 0.439304 0
M  V30 1493 H 131.093 -3.82666 -1.65446 0
M  V30 1494 H 129.753 -2.66682 -1.85232 0
M  V30 1495 H 130.764 -5.09354 0.936976 0
M  V30 1496 H 127.441 -3.9428 -1.37293 0
M  V30 1497 H 128.831 -6.48107 1.77222 0
M  V30 1498 N 131.551 -0.354651 -1.53558 0
M  V30 1499 C 132.797 0.238797 -2.01389 0
M  V30 1500 C 133.13 1.49309 -1.2418 0
M  V30 1501 O 132.405 1.91638 -0.332457 0
M  V30 1502 C 132.688 0.541771 -3.56001 0
M  V30 1503 C 132.541 -0.725388 -4.43912 0
M  V30 1504 C 133.86 1.34685 -4.18984 0
M  V30 1505 H 130.979 0.0853177 -0.732045 0
M  V30 1506 H 133.621 -0.477384 -1.83905 0
M  V30 1507 H 131.771 1.15189 -3.71031 0
M  V30 1508 H 133.443 -1.36313 -4.407 0
M  V30 1509 H 131.686 -1.34801 -4.12324 0
M  V30 1510 H 132.357 -0.468505 -5.50008 0
M  V30 1511 H 134.833 0.830837 -4.07721 0
M  V30 1512 H 133.709 1.52759 -5.27215 0
M  V30 1513 H 133.97 2.35221 -3.74331 0
M  V30 1514 N 133.029 1.57378 -0.0835403 0
M  V30 1515 C 134.306 1.85363 0.624507 0
M  V30 1516 C 134.686 0.978239 1.87066 0
M  V30 1517 O 134.034 0.0475908 2.2845 0
M  V30 1518 C 134.244 3.35795 0.950947 0
M  V30 1519 C 135.592 4.03581 1.31939 0
M  V30 1520 O 136.616 3.40609 1.04232 0
M  V30 1521 O 135.475 5.14672 1.83779 0
M  V30 1522 H 132.569 0.766162 0.311329 0
M  V30 1523 H 135.115 1.69307 -0.115362 0
M  V30 1524 H 133.887 3.91244 0.0663899 0
M  V30 1525 H 133.51 3.57154 1.74719 0
M  V30 1526 N 134.507 -0.190092 1.56449 0
M  V30 1527 C 135.732 -0.929864 1.85387 0
M  V30 1528 C 136.157 -1.7585 0.667704 0
M  V30 1529 O 135.515 -1.77198 -0.383459 0
M  V30 1530 C 135.563 -1.79773 3.12593 0
M  V30 1531 O 134.667 -2.89713 2.93496 0
M  V30 1532 H 134.008 -0.261574 0.610307 0
M  V30 1533 H 136.538 -0.193896 2.03679 0
M  V30 1534 H 136.548 -2.20139 3.43515 0
M  V30 1535 H 135.223 -1.18892 3.98544 0
M  V30 1536 H 133.8 -2.53065 2.73884 0
M  V30 1537 N 135.985 -1.50799 -0.457987 0
M  V30 1538 C 137.396 -1.55152 -1.0385 0
M  V30 1539 C 137.747 -0.362719 -1.92818 0
M  V30 1540 O 136.872 0.522915 -2.09987 0
M  V30 1541 C 137.467 -2.81173 -1.89017 0
M  V30 1542 C 136.026 -2.88164 -2.42154 0
M  V30 1543 C 135.173 -2.49591 -1.20829 0
M  V30 1544 H 138.124 -1.56874 -0.240068 0
M  V30 1545 H 138.145 -2.63769 -2.74238 0
M  V30 1546 H 137.657 -3.67677 -1.24238 0
M  V30 1547 H 135.758 -2.06042 -3.10447 0
M  V30 1548 H 135.871 -3.91356 -2.76364 0
M  V30 1549 H 134.235 -2.02322 -1.54719 0
M  V30 1550 H 135.018 -3.38418 -0.576927 0
M  V30 1551 N 137.463 0.71206 -1.40597 0
M  V30 1552 C 138.74 1.46536 -1.29563 0
M  V30 1553 C 139.12 2.10931 0.0844217 0
M  V30 1554 O 138.468 2.00418 1.0975 0
M  V30 1555 C 138.678 2.49821 -2.43701 0
M  V30 1556 C 140.026 3.15551 -2.841 0
M  V30 1557 O 141.05 2.60142 -2.4332 0
M  V30 1558 O 139.909 4.15867 -3.54566 0
M  V30 1559 H 137.003 0.651801 -0.509004 0
M  V30 1560 H 139.549 0.743935 -1.52524 0
M  V30 1561 H 138.321 2.00778 -3.35863 0
M  V30 1562 H 137.944 3.29495 -2.22528 0
M  V30 1563 N 138.941 1.26152 0.944643 0
M  V30 1564 C 139.851 1.09176 2.07648 0
M  V30 1565 C 140.867 0.0261935 1.7398 0
M  V30 1566 O 142.043 0.229208 2.00091 0
M  V30 1567 C 139.108 0.722915 3.39079 0
M  V30 1568 C 138.169 1.86752 3.86552 0
M  V30 1569 C 137.402 1.51617 5.11711 0
M  V30 1570 O 137.625 0.416331 5.68879 0
M  V30 1571 O 136.559 2.34975 5.54139 0
M  V30 1572 H 140.385 2.0412 2.24875 0
M  V30 1573 H 137.97 1.05182 1.061 0
M  V30 1574 H 139.852 0.529787 4.18056 0
M  V30 1575 H 138.527 -0.197159 3.23099 0
M  V30 1576 H 137.434 2.11558 3.08535 0
M  V30 1577 H 138.767 2.76719 4.07047 0
M  V30 1578 N 140.419 -1.14872 1.07899 0
M  V30 1579 C 141.835 -1.37776 0.805606 0
M  V30 1580 C 142.035 -1.92743 -0.587555 0
M  V30 1581 O 141.091 -2.13678 -1.34528 0
M  V30 1582 C 142.404 -2.34361 1.88402 0
M  V30 1583 C 143.952 -2.48012 1.90942 0
M  V30 1584 C 144.427 -3.47893 2.97883 0
M  V30 1585 N 145.918 -3.55433 2.97021 0
M  V30 1586 C 146.653 -4.32553 3.76412 0
M  V30 1587 N 146.149 -5.12959 4.65666 0
M  V30 1588 N 147.942 -4.27697 3.64735 0
M  V30 1589 H 140.093 -0.775365 1.97742 0
M  V30 1590 H 142.356 -0.403521 0.857831 0
M  V30 1591 H 142.062 -2.01098 2.88535 0
M  V30 1592 H 141.936 -3.34206 1.74889 0
M  V30 1593 H 144.323 -2.8057 0.914579 0
M  V30 1594 H 144.404 -1.48147 2.08534 0
M  V30 1595 H 144.048 -3.16069 3.97571 0
M  V30 1596 H 143.978 -4.47527 2.77538 0
M  V30 1597 H 146.469 -2.98048 2.32326 0
M  V30 1598 H 146.782 -5.69065 5.22862 0
M  V30 1599 H 145.127 -5.12245 4.69712 0
M  V30 1600 H 148.318 -3.63949 2.94378 0
M  V30 1601 H 148.491 -4.8755 4.26848 0
M  V30 1602 N 141.898 -0.863906 -1.31812 0
M  V30 1603 C 142.808 -0.318461 -2.32428 0
M  V30 1604 C 143.824 0.568496 -1.64451 0
M  V30 1605 O 145 0.46666 -1.95919 0
M  V30 1606 C 142.065 0.476355 -3.43412 0
M  V30 1607 C 141.126 -0.43784 -4.27061 0
M  V30 1608 C 140.359 0.319138 -5.32745 0
M  V30 1609 O 140.582 1.54799 -5.48993 0
M  V30 1610 O 139.516 -0.319861 -6.01049 0
M  V30 1611 H 143.342 -1.15229 -2.80991 0
M  V30 1612 H 140.927 -0.627103 -1.35602 0
M  V30 1613 H 142.809 0.927156 -4.11074 0
M  V30 1614 H 141.484 1.28683 -2.97022 0
M  V30 1615 H 140.391 -0.937013 -3.62175 0
M  V30 1616 H 141.724 -1.21375 -4.77 0
M  V30 1617 N 143.376 1.44774 -0.622745 0
M  V30 1618 C 144.286 2.34433 0.0886031 0
M  V30 1619 C 145.302 1.52131 0.844529 0
M  V30 1620 O 146.478 1.84886 0.798691 0
M  V30 1621 C 143.543 3.29986 1.0635 0
M  V30 1622 C 142.604 4.28195 0.307873 0
M  V30 1623 C 141.837 5.19183 1.23633 0
M  V30 1624 O 142.06 5.13918 2.47476 0
M  V30 1625 O 140.994 5.97515 0.725189 0
M  V30 1626 H 144.82 2.96693 -0.648599 0
M  V30 1627 H 142.405 1.44408 -0.382957 0
M  V30 1628 H 144.287 3.88825 1.6246 0
M  V30 1629 H 142.962 2.70269 1.78146 0
M  V30 1630 H 141.869 3.72927 -0.296064 0
M  V30 1631 H 143.202 4.90808 -0.3699 0
M  V30 1632 N 144.854 0.36279 1.53368 0
M  V30 1633 C 146.1 -0.220702 2.02199 0
M  V30 1634 C 146.455 -1.46649 1.24546 0
M  V30 1635 O 145.748 -1.88737 0.32996 0
M  V30 1636 C 145.942 -0.568417 3.52851 0
M  V30 1637 C 145.771 0.642126 4.45092 0
M  V30 1638 C 144.541 1.15335 4.91961 0
M  V30 1639 C 146.739 1.50649 4.91741 0
M  V30 1640 N 144.721 2.3242 5.68202 0
M  V30 1641 C 146.092 2.52404 5.66297 0
M  V30 1642 C 148.147 1.52969 4.73819 0
M  V30 1643 C 146.85 3.56331 6.24836 0
M  V30 1644 C 148.876 2.55789 5.33222 0
M  V30 1645 C 148.238 3.56268 6.07662 0
M  V30 1646 H 144.337 -0.0435508 0.780786 0
M  V30 1647 H 146.921 0.506704 1.87991 0
M  V30 1648 H 145.092 -1.2649 3.67226 0
M  V30 1649 H 146.824 -1.13676 3.88407 0
M  V30 1650 H 143.579 0.718412 4.68119 0
M  V30 1651 H 144.003 2.91591 6.10986 0
M  V30 1652 H 148.645 0.766418 4.15795 0
M  V30 1653 H 146.363 4.33543 6.81958 0
M  V30 1654 H 149.949 2.58435 5.21251 0
M  V30 1655 H 148.829 4.34524 6.52808 0
M  V30 1656 N 146.332 -1.57332 0.0918853 0
M  V30 1657 C 147.265 -2.09499 -0.904735 0
M  V30 1658 C 148.243 -1.00479 -1.27839 0
M  V30 1659 O 149.427 -1.27954 -1.38419 0
M  V30 1660 C 146.554 -2.56931 -2.2069 0
M  V30 1661 C 145.6 -3.77579 -1.98334 0
M  V30 1662 S 146.433 -5.21317 -1.22428 0
M  V30 1663 C 147.589 -5.72097 -2.53882 0
M  V30 1664 H 147.822 -2.93705 -0.460922 0
M  V30 1665 H 145.355 -1.53923 -0.121332 0
M  V30 1666 H 147.313 -2.84917 -2.95521 0
M  V30 1667 H 145.974 -1.72956 -2.62192 0
M  V30 1668 H 145.167 -4.08824 -2.94752 0
M  V30 1669 H 144.769 -3.5007 -1.31633 0
M  V30 1670 H 147.061 -5.80168 -3.49874 0
M  V30 1671 H 148.004 -6.70654 -2.27219 0
M  V30 1672 H 148.412 -5.00012 -2.62007 0
M  V30 1673 N 147.81 0.181792 -1.56548 0
M  V30 1674 C 149.226 0.53316 -1.50431 0
M  V30 1675 C 149.426 1.85184 -0.794297 0
M  V30 1676 O 148.482 2.50058 -0.350318 0
M  V30 1677 C 149.795 0.575597 -2.9514 0
M  V30 1678 C 151.343 0.663519 -3.05886 0
M  V30 1679 C 151.818 0.736946 -4.52032 0
M  V30 1680 N 153.309 0.800118 -4.56237 0
M  V30 1681 C 154.044 0.877327 -5.66649 0
M  V30 1682 N 153.54 0.916016 -6.86718 0
M  V30 1683 N 155.333 0.915542 -5.54594 0
M  V30 1684 H 147.484 -0.683025 -2.01118 0
M  V30 1685 H 149.747 -0.244988 -0.915797 0
M  V30 1686 H 149.453 -0.324482 -3.502 0
M  V30 1687 H 149.327 1.42572 -3.49218 0
M  V30 1688 H 151.714 1.55403 -2.50867 0
M  V30 1689 H 151.795 -0.21307 -2.54911 0
M  V30 1690 H 151.439 -0.149262 -5.07681 0
M  V30 1691 H 151.369 1.62953 -5.00753 0
M  V30 1692 H 153.86 0.778926 -3.69785 0
M  V30 1693 H 154.173 0.975813 -7.66614 0
M  V30 1694 H 152.518 0.884469 -6.89349 0
M  V30 1695 H 155.709 0.882245 -4.59711 0
M  V30 1696 H 155.882 0.972253 -6.40665 0
M  V30 1697 N 149.288 1.51039 0.449983 0
M  V30 1698 C 150.251 1.70863 1.5277 0
M  V30 1699 C 151.251 0.578846 1.5002 0
M  V30 1700 O 152.441 0.846213 1.52266 0
M  V30 1701 C 149.573 1.75341 2.9235 0
M  V30 1702 H 150.766 2.67034 1.36502 0
M  V30 1703 H 148.319 1.40838 0.677812 0
M  V30 1704 H 149.054 0.809383 3.14037 0
M  V30 1705 H 148.839 2.57436 2.95752 0
M  V30 1706 H 150.329 1.92559 3.70555 0
M  V30 1707 N 150.766 -0.704594 1.40972 0
M  V30 1708 C 152.015 -1.46018 1.39146 0
M  V30 1709 C 152.328 -1.956 0.000589254 0
M  V30 1710 O 153.534 -2.71137 -0.1403 0
M  V30 1711 C 151.99 -2.63996 2.4461 0
M  V30 1712 C 151.598 -2.21238 3.89561 0
M  V30 1713 C 153.342 -3.41677 2.51907 0
M  V30 1714 C 151.249 -3.3612 4.86598 0
M  V30 1715 H 150.179 -0.548444 0.517422 0
M  V30 1716 H 152.83 -0.765784 1.66757 0
M  V30 1717 H 151.212 -3.3566 2.10115 0
M  V30 1718 H 152.386 -1.56923 4.33257 0
M  V30 1719 H 150.701 -1.56574 3.85841 0
M  V30 1720 H 153.298 -4.27182 3.2159 0
M  V30 1721 H 153.641 -3.86247 1.55303 0
M  V30 1722 H 154.174 -2.77064 2.85448 0
M  V30 1723 H 150.913 -2.96572 5.84573 0
M  V30 1724 H 150.433 -3.99315 4.47557 0
M  V30 1725 H 152.112 -4.02029 5.06934 0
M  V30 1726 N 152.244 -1.26651 -0.937939 0
M  V30 1727 C 153.176 -1.04283 -2.04102 0
M  V30 1728 C 154.189 -0.00221014 -1.628 0
M  V30 1729 O 155.378 -0.242645 -1.76843 0
M  V30 1730 C 152.478 -0.557846 -3.34277 0
M  V30 1731 C 151.651 -1.66843 -4.04329 0
M  V30 1732 C 150.71 -1.18095 -5.12777 0
M  V30 1733 O 149.736 -1.87865 -5.37304 0
M  V30 1734 N 150.938 -0.0311006 -5.80492 0
M  V30 1735 H 153.703 -1.9927 -2.23856 0
M  V30 1736 H 151.264 -1.1808 -1.10764 0
M  V30 1737 H 153.256 -0.215836 -4.04124 0
M  V30 1738 H 151.826 0.298523 -3.11171 0
M  V30 1739 H 151.046 -2.18123 -3.28353 0
M  V30 1740 H 152.334 -2.41408 -4.47883 0
M  V30 1741 H 151.732 0.551486 -5.63005 0
M  V30 1742 H 150.289 0.251809 -6.51313 0
M  V30 1743 N 153.722 1.14298 -1.08507 0
M  V30 1744 C 154.655 2.18447 -0.660004 0
M  V30 1745 C 155.633 1.59242 0.328749 0
M  V30 1746 O 156.817 1.87062 0.232367 0
M  V30 1747 C 153.944 3.38688 0.0290807 0
M  V30 1748 C 152.99 4.1646 -0.919982 0
M  V30 1749 S 153.823 4.77334 -2.42718 0
M  V30 1750 C 154.979 6.00931 -1.75024 0
M  V30 1751 H 155.212 2.54166 -1.54231 0
M  V30 1752 H 152.745 1.25446 -0.900149 0
M  V30 1753 H 154.703 4.08342 0.420378 0
M  V30 1754 H 153.364 3.01289 0.887895 0
M  V30 1755 H 152.557 5.02529 -0.384751 0
M  V30 1756 H 152.159 3.52414 -1.25223 0
M  V30 1757 H 154.451 6.69017 -1.06877 0
M  V30 1758 H 155.394 6.59044 -2.58971 0
M  V30 1759 H 155.802 5.51089 -1.22317 0
M  V30 1760 N 155.201 0.870884 1.31352 0
M  V30 1761 C 156.447 0.482987 1.96965 0
M  V30 1762 C 156.78 -0.962462 1.68672 0
M  V30 1763 O 156.055 -1.6779 0.98371 0
M  V30 1764 C 156.338 0.741752 3.52378 0
M  V30 1765 C 156.191 2.2368 3.9024 0
M  V30 1766 C 157.51 0.208838 4.39604 0
M  V30 1767 H 154.629 0.176955 0.715441 0
M  V30 1768 H 157.271 1.09229 1.55464 0
M  V30 1769 H 155.421 0.223149 3.87859 0
M  V30 1770 H 157.093 2.82273 3.64856 0
M  V30 1771 H 155.336 2.70901 3.38814 0
M  V30 1772 H 156.007 2.3685 4.98604 0
M  V30 1773 H 158.483 0.652529 4.10952 0
M  V30 1774 H 157.359 0.419336 5.47296 0
M  V30 1775 H 157.62 -0.889275 4.33064 0
M  V30 1776 N 156.679 -1.44442 0.630414 0
M  V30 1777 C 157.642 -2.29107 -0.0652523 0
M  V30 1778 C 158.642 -1.41002 -0.772995 0
M  V30 1779 O 159.832 -1.62881 -0.617692 0
M  V30 1780 C 156.964 -3.22564 -1.10296 0
M  V30 1781 H 158.157 -2.92103 0.679401 0
M  V30 1782 H 155.71 -1.51343 0.390517 0
M  V30 1783 H 156.445 -2.64416 -1.87762 0
M  V30 1784 H 156.23 -3.87491 -0.59941 0
M  V30 1785 H 157.72 -3.86167 -1.5895 0
M  V30 1786 N 158.157 -0.370918 -1.53173 0
M  V30 1787 C 159.105 0.488101 -2.27421 0
M  V30 1788 C 160.099 1.07884 -1.30604 0
M  V30 1789 O 161.305 1.02143 -1.48212 0
M  V30 1790 H 157.68 0.176134 -0.731082 0
M  V30 1791 H 159.651 -0.159815 -2.97972 0
M  V30 1792 C 158.4 1.61306 -3.08019 0
M  V30 1793 H 157.723 1.1678 -3.82364 0
M  V30 1794 H 159.163 2.18872 -3.63141 0
M  V30 1795 C 157.622 2.55848 -2.19188 0
M  V30 1796 O 158.152 3.58799 -1.80626 0
M  V30 1797 N 156.358 2.2516 -1.83715 0
M  V30 1798 H 155.905 1.41476 -2.15273 0
M  V30 1799 H 155.863 2.8867 -1.24567 0
M  V30 1800 N 159.635 1.57281 -0.100228 0
M  V30 1801 C 160.86 1.99302 0.573881 0
M  V30 1802 C 161.285 0.979059 1.60611 0
M  V30 1803 O 160.643 -0.0517803 1.81226 0
M  V30 1804 C 160.691 3.40274 1.19358 0
M  V30 1805 O 159.795 3.41676 2.30935 0
M  V30 1806 H 159.136 0.647944 0.145138 0
M  V30 1807 H 161.666 2.03779 -0.183156 0
M  V30 1808 H 161.676 3.78078 1.53365 0
M  V30 1809 H 160.351 4.13594 0.437385 0
M  V30 1810 H 158.928 3.15672 1.98509 0
M  V30 1811 N 161.113 -0.173488 1.56642 0
M  V30 1812 C 162.043 -1.2171 1.99271 0
M  V30 1813 C 163.024 -1.46289 0.867959 0
M  V30 1814 O 164.209 -1.5766 1.13388 0
M  V30 1815 C 161.339 -2.55651 2.35074 0
M  V30 1816 C 160.293 -2.45645 3.50489 0
M  V30 1817 C 159.619 -3.84056 3.72028 0
M  V30 1818 C 160.919 -1.96302 4.84007 0
M  V30 1819 H 162.613 -0.86275 2.867 0
M  V30 1820 H 160.159 -0.413571 1.37933 0
M  V30 1821 H 162.112 -3.2886 2.63494 0
M  V30 1822 H 160.836 -2.92869 1.44552 0
M  V30 1823 H 159.495 -1.7489 3.22194 0
M  V30 1824 H 159.143 -4.18664 2.788 0
M  V30 1825 H 158.843 -3.7823 4.49684 0
M  V30 1826 H 160.367 -4.58854 4.02846 0
M  V30 1827 H 161.781 -2.59284 5.11317 0
M  V30 1828 H 160.178 -2.01429 5.65284 0
M  V30 1829 H 161.248 -0.917226 4.76146 0
M  V30 1830 N 162.591 -1.51276 -0.441967 0
M  V30 1831 C 163.538 -1.72256 -1.53612 0
M  V30 1832 C 164.508 -0.564164 -1.56225 0
M  V30 1833 O 165.693 -0.798074 -1.73307 0
M  V30 1834 C 162.833 -1.84932 -2.91366 0
M  V30 1835 C 161.946 -3.12459 -2.98317 0
M  V30 1836 C 161.081 -3.15758 -4.27166 0
M  V30 1837 C 160.12 -4.37619 -4.27967 0
M  V30 1838 N 159.257 -4.38493 -5.48333 0
M  V30 1839 H 164.097 -2.65654 -1.35026 0
M  V30 1840 H 161.634 -1.31662 -0.656009 0
M  V30 1841 H 163.592 -1.90263 -3.7129 0
M  V30 1842 H 162.222 -0.949461 -3.08521 0
M  V30 1843 H 161.274 -3.1646 -2.11086 0
M  V30 1844 H 162.586 -4.02382 -2.94771 0
M  V30 1845 H 161.74 -3.19979 -5.15459 0
M  V30 1846 H 160.479 -2.23715 -4.33362 0
M  V30 1847 H 159.484 -4.33579 -3.38067 0
M  V30 1848 H 160.709 -5.30921 -4.23438 0
M  V30 1849 H 158.655 -3.49318 -5.55259 0
M  V30 1850 H 158.572 -5.22219 -5.46647 0
M  V30 1851 H 159.84 -4.469 -6.38671 0
M  V30 1852 N 164.069 0.697108 -1.41344 0
M  V30 1853 C 165.001 1.8224 -1.39001 0
M  V30 1854 C 166.014 1.60152 -0.292428 0
M  V30 1855 O 167.203 1.69684 -0.554048 0
M  V30 1856 C 164.303 3.18976 -1.14489 0
M  V30 1857 C 163.476 3.68105 -2.36258 0
M  V30 1858 C 162.535 4.83506 -2.07625 0
M  V30 1859 O 161.561 4.95201 -2.8065 0
M  V30 1860 N 162.763 5.70637 -1.06555 0
M  V30 1861 H 165.528 1.84742 -2.35988 0
M  V30 1862 H 163.089 0.87937 -1.35936 0
M  V30 1863 H 165.081 3.93801 -0.932885 0
M  V30 1864 H 163.651 3.11508 -0.261043 0
M  V30 1865 H 162.871 2.84204 -2.7317 0
M  V30 1866 H 164.159 3.97667 -3.17393 0
M  V30 1867 H 163.557 5.63817 -0.461125 0
M  V30 1868 H 162.114 6.45368 -0.913444 0
M  V30 1869 N 165.547 1.27147 0.931209 0
M  V30 1870 C 166.963 1.04475 1.20653 0
M  V30 1871 C 167.163 -0.223885 2.00252 0
M  V30 1872 O 166.219 -0.930332 2.34736 0
M  V30 1873 C 167.532 2.28209 1.95809 0
M  V30 1874 C 169.08 2.33211 2.08762 0
M  V30 1875 C 169.555 3.56665 2.87323 0
M  V30 1876 N 171.046 3.57201 2.94892 0
M  V30 1877 C 171.781 4.49395 3.56134 0
M  V30 1878 N 171.277 5.51889 4.18796 0
M  V30 1879 N 173.07 4.37026 3.53504 0
M  V30 1880 H 165.221 2.08612 0.399333 0
M  V30 1881 H 167.484 0.917312 0.239253 0
M  V30 1882 H 167.19 3.20538 1.44736 0
M  V30 1883 H 167.064 2.33247 2.96438 0
M  V30 1884 H 169.451 1.41391 2.59023 0
M  V30 1885 H 169.532 2.32178 1.07364 0
M  V30 1886 H 169.176 4.4882 2.37746 0
M  V30 1887 H 169.106 3.54948 3.88998 0
M  V30 1888 H 171.597 2.83074 2.50354 0
M  V30 1889 H 171.91 6.18409 4.63454 0
M  V30 1890 H 170.255 5.55735 4.17353 0
M  V30 1891 H 173.446 3.56166 3.03749 0
M  V30 1892 H 173.619 5.09067 4.00942 0
M  V30 1893 N 167.025 -1.13721 1.09112 0
M  V30 1894 C 167.988 -2.17222 0.731241 0
M  V30 1895 C 168.988 -1.59035 -0.237566 0
M  V30 1896 O 170.178 -1.74192 -0.0161704 0
M  V30 1897 C 167.31 -3.40804 0.0808443 0
M  V30 1898 H 168.503 -2.50573 1.64783 0
M  V30 1899 H 166.056 -1.28493 0.889897 0
M  V30 1900 H 166.791 -3.1304 -0.847127 0
M  V30 1901 H 166.576 -3.84306 0.777896 0
M  V30 1902 H 168.066 -4.1731 -0.155657 0
M  V30 1903 N 168.503 -0.877838 -1.30888 0
M  V30 1904 C 169.914 -0.544193 -1.78593 0
M  V30 1905 C 170.265 0.939301 -1.72254 0
M  V30 1906 O 169.39 1.7337 -1.29505 0
M  V30 1907 C 169.985 -0.98105 -3.24285 0
M  V30 1908 C 168.544 -0.698935 -3.69854 0
M  V30 1909 C 167.691 -1.168 -2.51502 0
M  V30 1910 H 170.642 -1.06278 -1.17859 0
M  V30 1911 H 170.663 -0.307009 -3.79259 0
M  V30 1912 H 170.175 -2.06079 -3.28866 0
M  V30 1913 H 168.276 0.369112 -3.70767 0
M  V30 1914 H 168.389 -1.28148 -4.61644 0
M  V30 1915 H 166.753 -0.587535 -2.47831 0
M  V30 1916 H 167.536 -2.25533 -2.58824 0
M  V30 1917 N 169.982 1.44106 -0.638065 0
M  V30 1918 C 171.23 2.01579 -0.145043 0
M  V30 1919 C 171.551 1.50496 1.24 0
M  V30 1920 O 170.821 0.711374 1.82527 0
M  V30 1921 H 169.401 0.745282 -0.05063 0
M  V30 1922 H 172.063 1.76516 -0.826327 0
M  V30 1923 H 171.159 3.11877 -0.118039 0
M  V30 1924 N 171.46 0.379036 1.52974 0
M  V30 1925 C 172.37 -0.468639 2.29872 0
M  V30 1926 C 173.386 -1.08067 1.36373 0
M  V30 1927 O 174.562 -1.08871 1.69438 0
M  V30 1928 C 171.627 -1.58594 3.083 0
M  V30 1929 C 170.688 -1.00007 4.17489 0
M  V30 1930 C 169.921 -2.06413 4.92168 0
M  V30 1931 O 170.144 -3.27751 4.66835 0
M  V30 1932 O 169.078 -1.68717 5.7777 0
M  V30 1933 H 172.904 0.157508 3.03291 0
M  V30 1934 H 170.489 0.143035 1.48714 0
M  V30 1935 H 172.371 -2.23525 3.57232 0
M  V30 1936 H 171.046 -2.19724 2.37703 0
M  V30 1937 H 169.953 -0.314299 3.72777 0
M  V30 1938 H 171.286 -0.433135 4.90291 0
M  V30 1939 N 172.938 -1.57226 0.108567 0
M  V30 1940 C 174.215 -1.86333 -0.594939 0
M  V30 1941 C 174.595 -1.00788 -1.85486 0
M  V30 1942 O 173.943 -0.0839293 -2.28346 0
M  V30 1943 C 174.153 -3.37265 -0.897405 0
M  V30 1944 C 175.501 -4.05629 -1.25501 0
M  V30 1945 O 176.525 -3.42224 -0.987998 0
M  V30 1946 O 175.384 -5.17531 -1.75567 0
M  V30 1947 H 172.478 -0.771018 -0.2991 0
M  V30 1948 H 175.024 -1.69102 0.142283 0
M  V30 1949 H 173.796 -3.913 -0.00413806 0
M  V30 1950 H 173.419 -3.59889 -1.69014 0
M  V30 1951 N 174.416 0.165178 -1.56732 0
M  V30 1952 C 175.827 0.727046 -1.71962 0
M  V30 1953 C 176.178 1.82508 -0.720078 0
M  V30 1954 O 175.303 2.16082 0.117242 0
M  V30 1955 C 175.898 1.32559 -3.11791 0
M  V30 1956 C 174.457 1.83422 -3.28684 0
M  V30 1957 C 173.604 0.715567 -2.67908 0
M  V30 1958 H 176.555 -0.0602896 -1.58585 0
M  V30 1959 H 176.576 2.19533 -3.10782 0
M  V30 1960 H 176.088 0.526195 -3.84516 0
M  V30 1961 H 174.189 2.65986 -2.60926 0
M  V30 1962 H 174.302 1.97543 -4.36478 0
M  V30 1963 H 172.666 1.13758 -2.27884 0
M  V30 1964 H 173.449 -0.0720836 -3.43224 0
M  V30 1965 N 175.894 1.51508 0.433938 0
M  V30 1966 C 176.827 1.67756 1.54704 0
M  V30 1967 C 177.805 0.525127 1.53887 0
M  V30 1968 O 178.989 0.749393 1.72963 0
M  V30 1969 C 176.116 1.69424 2.9328 0
M  V30 1970 C 175.162 2.90673 3.12108 0
M  V30 1971 S 175.995 4.51431 2.88046 0
M  V30 1972 C 177.151 4.55849 4.28897 0
M  V30 1973 H 177.384 2.61904 1.40689 0
M  V30 1974 H 174.917 1.41235 0.62386 0
M  V30 1975 H 176.875 1.7107 3.73156 0
M  V30 1976 H 175.536 0.764464 3.04655 0
M  V30 1977 H 174.729 2.88251 4.13434 0
M  V30 1978 H 174.331 2.86786 2.40062 0
M  V30 1979 H 176.623 4.31699 5.22152 0
M  V30 1980 H 177.566 5.57676 4.36351 0
M  V30 1981 H 177.974 3.85137 4.12711 0
M  V30 1982 N 177.372 -0.689602 1.41712 0
M  V30 1983 C 178.649 -1.44457 1.31877 0
M  V30 1984 C 179.029 -2.11039 -0.0508537 0
M  V30 1985 O 178.377 -2.02138 -1.06547 0
M  V30 1986 C 178.587 -2.45913 2.47645 0
M  V30 1987 C 179.935 -3.10991 2.89084 0
M  V30 1988 O 180.959 -2.56238 2.47428 0
M  V30 1989 O 179.818 -4.10174 3.61137 0
M  V30 1990 H 176.912 -0.64362 0.519309 0
M  V30 1991 H 179.458 -0.719576 1.53689 0
M  V30 1992 H 178.23 -1.95409 3.39015 0
M  V30 1993 H 177.853 -3.25913 2.27742 0
M  V30 1994 N 178.85 -1.27639 -0.924453 0
M  V30 1995 C 180.08 -1.16819 -1.70402 0
M  V30 1996 C 180.488 0.277191 -1.87158 0
M  V30 1997 O 179.831 1.20025 -1.39067 0
M  V30 1998 C 179.893 -1.78305 -3.12166 0
M  V30 1999 C 179.557 -3.27502 -3.18734 0
M  V30 2000 C 180.554 -4.2409 -3.00738 0
M  V30 2001 C 178.239 -3.68269 -3.4159 0
M  V30 2002 C 180.233 -5.59422 -3.05492 0
M  V30 2003 C 177.92 -5.0373 -3.45977 0
M  V30 2004 C 178.918 -5.99116 -3.27946 0
M  V30 2005 O 178.606 -7.32108 -3.32074 0
M  V30 2006 H 178.338 -0.406931 -0.539799 0
M  V30 2007 H 180.892 -1.69078 -1.16626 0
M  V30 2008 H 179.122 -1.20528 -3.67437 0
M  V30 2009 H 180.811 -1.62154 -3.72103 0
M  V30 2010 H 181.577 -3.93931 -2.82919 0
M  V30 2011 H 177.456 -2.94496 -3.54673 0
M  V30 2012 H 181 -6.33852 -2.91337 0
M  V30 2013 H 176.897 -5.33543 -3.63321 0
M  V30 2014 H 177.665 -7.40598 -3.48507 0
M  V30 2015 N 180.328 1.1314 -1.09713 0
M  V30 2016 C 181.275 2.18642 -0.739196 0
M  V30 2017 C 182.245 1.63706 0.280978 0
M  V30 2018 O 183.43 1.90111 0.161946 0
M  V30 2019 C 180.57 3.44685 -0.169102 0
M  V30 2020 C 179.683 4.13711 -1.24367 0
M  V30 2021 C 178.818 5.27379 -0.636019 0
M  V30 2022 C 177.857 5.88259 -1.69169 0
M  V30 2023 N 176.994 6.93352 -1.10485 0
M  V30 2024 H 181.834 2.48607 -1.64312 0
M  V30 2025 H 179.371 1.22066 -0.820875 0
M  V30 2026 H 181.329 4.16815 0.179256 0
M  V30 2027 H 179.959 3.15161 0.698079 0
M  V30 2028 H 179.011 3.39835 -1.70927 0
M  V30 2029 H 180.323 4.55037 -2.04311 0
M  V30 2030 H 179.477 6.06238 -0.236677 0
M  V30 2031 H 178.216 4.8731 0.194928 0
M  V30 2032 H 177.221 5.08092 -2.10055 0
M  V30 2033 H 178.446 6.30399 -2.52536 0
M  V30 2034 H 176.392 6.55335 -0.295234 0
M  V30 2035 H 176.309 7.33236 -1.84121 0
M  V30 2036 H 177.577 7.76057 -0.73181 0
M  V30 2037 N 181.806 0.884767 1.30421 0
M  V30 2038 C 183.046 0.509806 1.9794 0
M  V30 2039 C 183.41 -0.923736 1.68319 0
M  V30 2040 O 184.611 -1.40481 2.29169 0
M  V30 2041 C 182.882 0.776732 3.48858 0
M  V30 2042 S 184.441 0.503843 4.35898 0
M  V30 2043 H 181.259 0.189699 0.685227 0
M  V30 2044 H 183.861 1.14399 1.58535 0
M  V30 2045 H 182.565 1.81857 3.67908 0
M  V30 2046 H 182.096 0.1301 3.93185 0
M  V30 2047 H 184.111 -0.657625 4.91823 0
M  V30 2048 N 183.284 -1.43765 0.645699 0
M  V30 2049 C 184.532 -2.01499 0.155731 0
M  V30 2050 C 184.853 -1.51151 -1.232 0
M  V30 2051 O 184.123 -0.721044 -1.82148 0
M  V30 2052 H 182.703 -0.745003 0.0545817 0
M  V30 2053 H 185.365 -1.76075 0.835677 0
M  V30 2054 H 184.461 -3.1181 0.134577 0
M  V30 2055 N 184.763 -0.387143 -1.52771 0
M  V30 2056 C 185.988 0.198407 -2.06449 0
M  V30 2057 C 186.413 1.39918 -1.25716 0
M  V30 2058 O 185.771 1.79099 -0.281657 0
M  V30 2059 C 185.819 0.548893 -3.56398 0
M  V30 2060 O 184.923 1.64315 -3.78252 0
M  V30 2061 H 184.264 0.0237731 -0.663574 0
M  V30 2062 H 186.794 -0.553989 -1.96957 0
M  V30 2063 H 186.804 0.813812 -3.99801 0
M  V30 2064 H 185.479 -0.329005 -4.14597 0
M  V30 2065 H 184.056 1.37211 -3.46738 0
M  V30 2066 N 186.241 1.57166 -0.116904 0
M  V30 2067 C 187.652 1.82169 0.408809 0
M  V30 2068 C 188.003 1.03393 1.66746 0
M  V30 2069 O 187.128 0.269886 2.1471 0
M  V30 2070 C 187.723 3.30429 0.748466 0
M  V30 2071 C 186.282 3.5612 1.21882 0
M  V30 2072 C 185.429 2.76374 0.226452 0
M  V30 2073 H 188.38 1.5497 -0.342063 0
M  V30 2074 H 188.401 3.44943 1.60607 0
M  V30 2075 H 187.913 3.87737 -0.167784 0
M  V30 2076 H 186.014 3.04168 2.15204 0
M  V30 2077 H 186.127 4.64705 1.16559 0
M  V30 2078 H 184.491 2.44515 0.713063 0
M  V30 2079 H 185.274 3.3644 -0.682859 0
M  V30 2080 N 187.719 -0.156864 1.56817 0
M  V30 2081 C 188.944 -0.890331 1.87318 0
M  V30 2082 C 189.369 -1.74394 0.704855 0
M  V30 2083 O 188.727 -1.77972 -0.345786 0
M  V30 2084 C 188.775 -1.73102 3.16336 0
M  V30 2085 O 187.879 -2.83422 2.99576 0
M  V30 2086 H 187.22 -0.24857 0.615718 0
M  V30 2087 H 189.75 -0.150649 2.04045 0
M  V30 2088 H 189.76 -2.12803 3.48107 0
M  V30 2089 H 188.435 -1.10412 4.00976 0
M  V30 2090 H 187.012 -2.47199 2.7919 0
M  V30 2091 N 189.197 -1.51736 -0.425897 0
M  V30 2092 C 190.474 -1.55519 -1.1863 0
M  V30 2093 C 190.854 -0.326219 -2.08564 0
M  V30 2094 O 190.202 0.688012 -2.17896 0
M  V30 2095 C 190.412 -2.87521 -1.9782 0
M  V30 2096 C 191.76 -3.39899 -2.54468 0
M  V30 2097 O 192.784 -2.89148 -2.08019 0
M  V30 2098 O 191.643 -4.2848 -3.39215 0
M  V30 2099 H 188.737 -0.625739 -0.540721 0
M  V30 2100 H 191.283 -1.64055 -0.434038 0
M  V30 2101 H 190.055 -3.68422 -1.31836 0
M  V30 2102 H 189.678 -2.822 -2.80088 0
M  V30 2103 N 190.675 0.682077 -1.42076 0
M  V30 2104 C 191.9 1.47558 -1.45744 0
M  V30 2105 C 192.325 1.87977 -0.0680981 0
M  V30 2106 O 191.683 1.55522 0.9318 0
M  V30 2107 C 191.731 2.70575 -2.38373 0
M  V30 2108 O 190.835 3.68573 -1.85007 0
M  V30 2109 H 190.176 0.443585 -0.494093 0
M  V30 2110 H 192.706 0.837238 -1.86686 0
M  V30 2111 H 192.716 3.18729 -2.54707 0
M  V30 2112 H 191.391 2.40495 -3.39315 0
M  V30 2113 H 189.968 3.2757 -1.78192 0
M  V30 2114 N 192.153 1.28127 0.917671 0
M  V30 2115 C 193.378 1.18007 1.70555 0
M  V30 2116 C 193.803 -0.258257 1.86319 0
M  V30 2117 O 193.161 -1.1869 1.37049 0
M  V30 2118 C 193.209 1.87948 3.07746 0
M  V30 2119 O 192.313 1.18427 3.9503 0
M  V30 2120 H 191.654 0.409867 0.522403 0
M  V30 2121 H 194.184 1.69379 1.1477 0
M  V30 2122 H 194.194 1.95701 3.58001 0
M  V30 2123 H 192.869 2.92573 2.95591 0
M  V30 2124 H 191.446 1.18811 3.53466 0
M  V30 2125 N 193.631 -1.12557 1.10312 0
M  V30 2126 C 194.859 -1.87864 0.866873 0
M  V30 2127 C 195.274 -1.79588 -0.582557 0
M  V30 2128 O 194.631 -1.16887 -1.40156 0
M  V30 2129 C 194.682 -3.37125 1.30496 0
M  V30 2130 O 194.403 -3.45201 2.69755 0
M  V30 2131 C 195.904 -4.29373 1.10243 0
M  V30 2132 H 193.124 -0.594452 0.311236 0
M  V30 2133 H 195.668 -1.42429 1.46745 0
M  V30 2134 H 193.823 -3.80109 0.748081 0
M  V30 2135 H 194.237 -4.38056 2.88457 0
M  V30 2136 H 195.711 -5.32394 1.45811 0
M  V30 2137 H 196.188 -4.39181 0.0409492 0
M  V30 2138 H 196.794 -3.92169 1.64571 0
M  V30 2139 N 195.109 -0.891671 -1.2995 0
M  V30 2140 C 196.337 -0.52866 -2.00032 0
M  V30 2141 C 196.752 0.884574 -1.66795 0
M  V30 2142 O 196.109 1.5827 -0.908669 0
M  V30 2143 C 196.16 -0.701814 -3.54622 0
M  V30 2144 O 195.881 -2.05942 -3.86678 0
M  V30 2145 C 197.382 -0.342683 -4.41973 0
M  V30 2146 H 194.602 -0.203659 -0.639347 0
M  V30 2147 H 197.146 -1.19881 -1.65677 0
M  V30 2148 H 195.301 -0.0789468 -3.8732 0
M  V30 2149 H 195.715 -2.08291 -4.81368 0
M  V30 2150 H 197.189 -0.514709 -5.49595 0
M  V30 2151 H 197.666 0.71975 -4.33262 0
M  V30 2152 H 198.272 -0.942154 -4.14733 0
M  V30 2153 N 196.587 1.43421 -0.653314 0
M  V30 2154 C 197.497 2.34568 0.0388565 0
M  V30 2155 C 198.513 1.53888 0.81207 0
M  V30 2156 O 199.689 1.86539 0.759294 0
M  V30 2157 C 196.754 3.32167 0.993269 0
M  V30 2158 C 195.815 4.28751 0.216977 0
M  V30 2159 C 195.048 5.21688 1.12593 0
M  V30 2160 O 195.271 5.19052 2.36519 0
M  V30 2161 O 194.205 5.98919 0.598284 0
M  V30 2162 H 198.031 2.95251 -0.711386 0
M  V30 2163 H 195.616 1.43564 -0.413502 0
M  V30 2164 H 197.498 3.92183 1.54176 0
M  V30 2165 H 196.173 2.73987 1.72374 0
M  V30 2166 H 195.08 3.72215 -0.375101 0
M  V30 2167 H 196.413 4.89913 -0.473924 0
M  V30 2168 N 198.065 0.39524 1.52563 0
M  V30 2169 C 198.975 -0.444232 2.30356 0
M  V30 2170 C 199.991 -1.06615 1.37511 0
M  V30 2171 O 201.167 -1.07067 1.70583 0
M  V30 2172 C 198.232 -1.55315 3.09964 0
M  V30 2173 C 197.293 -0.955734 4.18526 0
M  V30 2174 C 196.526 -2.01181 4.9433 0
M  V30 2175 O 196.749 -3.22781 4.70285 0
M  V30 2176 O 195.683 -1.62579 5.79527 0
M  V30 2177 H 199.509 0.189667 3.03107 0
M  V30 2178 H 197.094 0.1588 1.48554 0
M  V30 2179 H 198.976 -2.19724 3.59582 0
M  V30 2180 H 197.651 -2.17191 2.4002 0
M  V30 2181 H 196.558 -0.274743 3.7309 0
M  V30 2182 H 197.891 -0.381109 4.90722 0
M  V30 2183 N 199.544 -1.57102 0.125237 0
M  V30 2184 C 200.477 -2.11371 -0.860094 0
M  V30 2185 C 201.455 -1.03168 -1.25679 0
M  V30 2186 O 202.639 -1.30862 -1.35674 0
M  V30 2187 C 199.766 -2.61555 -2.1519 0
M  V30 2188 C 198.812 -3.81701 -1.9028 0
M  V30 2189 S 199.645 -5.23797 -1.11343 0
M  V30 2190 C 200.801 -5.77353 -2.41689 0
M  V30 2191 H 201.034 -2.94617 -0.39852 0
M  V30 2192 H 198.567 -1.54145 -0.0886555 0
M  V30 2193 H 200.525 -2.91122 -2.89411 0
M  V30 2194 H 199.186 -1.78479 -2.58465 0
M  V30 2195 H 198.379 -4.14985 -2.86014 0
M  V30 2196 H 197.981 -3.52783 -1.24178 0
M  V30 2197 H 200.273 -5.87458 -3.37489 0
M  V30 2198 H 201.216 -6.75323 -2.12942 0
M  V30 2199 H 201.624 -5.05457 -2.51342 0
M  V30 2200 N 201.022 0.148545 -1.56898 0
M  V30 2201 C 201.932 1.20293 -2.01412 0
M  V30 2202 C 202.948 1.47107 -0.929273 0
M  V30 2203 O 204.124 1.58807 -1.23863 0
M  V30 2204 C 201.189 2.51682 -2.38447 0
M  V30 2205 C 200.25 2.32529 -3.60872 0
M  V30 2206 C 199.483 3.57653 -3.96132 0
M  V30 2207 O 199.706 4.63771 -3.32073 0
M  V30 2208 O 198.64 3.50408 -4.89385 0
M  V30 2209 H 202.466 0.855025 -2.91416 0
M  V30 2210 H 200.051 0.357151 -1.45068 0
M  V30 2211 H 201.933 3.29147 -2.63135 0
M  V30 2212 H 200.608 2.86006 -1.51599 0
M  V30 2213 H 199.515 1.53019 -3.41373 0
M  V30 2214 H 200.848 2.03121 -4.48333 0
M  V30 2215 N 202.5 1.5196 0.417844 0
M  V30 2216 C 203.746 1.65836 1.16732 0
M  V30 2217 C 204.079 0.382881 1.90388 0
M  V30 2218 O 203.354 -0.618368 1.84408 0
M  V30 2219 C 203.637 2.87466 2.16876 0
M  V30 2220 C 203.49 4.25041 1.47174 0
M  V30 2221 C 204.809 3.04613 3.17646 0
M  V30 2222 H 201.928 0.603515 0.423011 0
M  V30 2223 H 204.57 1.84494 0.454105 0
M  V30 2224 H 202.72 2.71689 2.777 0
M  V30 2225 H 204.392 4.52527 0.895376 0
M  V30 2226 H 202.635 4.26843 0.773806 0
M  V30 2227 H 203.306 5.06176 2.20204 0
M  V30 2228 H 205.782 3.1923 2.66892 0
M  V30 2229 H 204.658 3.91247 3.8499 0
M  V30 2230 H 204.919 2.17541 3.84874 0
M  V30 2231 N 203.978 -0.674533 1.42435 0
M  V30 2232 C 204.941 -1.76986 1.45632 0
M  V30 2233 C 205.941 -1.5708 0.343871 0
M  V30 2234 O 207.131 -1.63367 0.604709 0
M  V30 2235 C 204.263 -3.15623 1.28822 0
M  V30 2236 H 205.456 -1.75539 2.43158 0
M  V30 2237 H 203.009 -0.884189 1.28887 0
M  V30 2238 H 203.744 -3.22696 0.322193 0
M  V30 2239 H 203.529 -3.31475 2.09444 0
M  V30 2240 H 205.019 -3.95537 1.33942 0
M  V30 2241 N 205.456 -1.28612 -0.910864 0
M  V30 2242 C 206.702 -1.16106 -1.66274 0
M  V30 2243 C 207.035 0.289113 -1.92036 0
M  V30 2244 O 206.31 1.21 -1.52281 0
M  V30 2245 C 206.593 -1.96309 -3.01885 0
M  V30 2246 C 206.446 -3.49405 -2.8326 0
M  V30 2247 C 207.765 -1.78076 -4.02463 0
M  V30 2248 H 204.884 -0.423152 -0.603417 0
M  V30 2249 H 207.526 -1.57961 -1.05586 0
M  V30 2250 H 205.676 -1.60742 -3.53687 0
M  V30 2251 H 207.348 -3.94894 -2.38446 0
M  V30 2252 H 205.591 -3.74893 -2.18261 0
M  V30 2253 H 206.262 -4.00784 -3.79574 0
M  V30 2254 H 208.738 -2.0912 -3.59733 0
M  V30 2255 H 207.614 -2.36561 -4.95308 0
M  V30 2256 H 207.875 -0.733008 -4.35981 0
M  V30 2257 N 206.934 1.1197 -1.10907 0
M  V30 2258 C 208.159 1.87942 -0.877064 0
M  V30 2259 C 208.584 1.79341 0.567314 0
M  V30 2260 O 207.942 1.15184 1.40009 0
M  V30 2261 C 207.99 3.34926 -1.33629 0
M  V30 2262 O 207.094 4.09303 -0.504447 0
M  V30 2263 H 206.435 0.583785 -0.316371 0
M  V30 2264 H 208.965 1.4157 -1.47712 0
M  V30 2265 H 208.975 3.8577 -1.32837 0
M  V30 2266 H 207.65 3.40504 -2.3881 0
M  V30 2267 H 206.227 3.68393 -0.577993 0
M  V30 2268 N 208.412 0.89855 1.29475 0
M  V30 2269 C 209.359 0.373819 2.27753 0
M  V30 2270 C 210.329 -0.543444 1.56958 0
M  V30 2271 O 211.514 -0.468934 1.84948 0
M  V30 2272 C 208.654 -0.393648 3.42848 0
M  V30 2273 C 207.767 0.554379 4.28428 0
M  V30 2274 C 206.902 -0.230026 5.30702 0
M  V30 2275 C 205.941 0.712599 6.07938 0
M  V30 2276 N 205.078 -0.0373283 7.0209 0
M  V30 2277 H 209.918 1.21699 2.72017 0
M  V30 2278 H 207.455 0.611456 1.33789 0
M  V30 2279 H 209.413 -0.85466 4.08352 0
M  V30 2280 H 208.043 -1.20128 2.99615 0
M  V30 2281 H 207.095 1.13391 3.63107 0
M  V30 2282 H 208.407 1.27597 4.82204 0
M  V30 2283 H 207.561 -0.752288 6.02018 0
M  V30 2284 H 206.3 -0.984758 4.77654 0
M  V30 2285 H 205.305 1.24637 5.35486 0
M  V30 2286 H 206.53 1.46664 6.63074 0
M  V30 2287 H 204.476 -0.774348 6.51414 0
M  V30 2288 H 204.393 0.624374 7.53417 0
M  V30 2289 H 205.661 -0.539891 7.77628 0
M  V30 2290 N 209.89 -1.43072 0.660911 0
M  V30 2291 C 210.853 -2.29194 -0.0166406 0
M  V30 2292 C 211.853 -1.42609 -0.742912 0
M  V30 2293 O 213.043 -1.64155 -0.583004 0
M  V30 2294 C 210.175 -3.24831 -1.0343 0
M  V30 2295 H 211.368 -2.90596 0.741208 0
M  V30 2296 H 208.921 -1.5048 0.422532 0
M  V30 2297 H 209.656 -2.68339 -1.82111 0
M  V30 2298 H 209.441 -3.88676 -0.517082 0
M  V30 2299 H 210.931 -3.89451 -1.50723 0
M  V30 2300 N 211.368 -0.403325 -1.52352 0
M  V30 2301 C 212.784 -0.0539281 -1.59509 0
M  V30 2302 C 212.984 1.43307 -1.41652 0
M  V30 2303 O 212.04 2.19924 -1.24056 0
M  V30 2304 C 213.353 -0.543654 -2.95745 0
M  V30 2305 C 214.901 -0.501125 -3.08962 0
M  V30 2306 C 215.376 -0.967267 -4.47669 0
M  V30 2307 N 216.867 -0.923849 -4.53893 0
M  V30 2308 C 217.602 -1.25578 -5.5948 0
M  V30 2309 N 217.098 -1.65889 -6.72646 0
M  V30 2310 N 218.891 -1.17613 -5.49658 0
M  V30 2311 H 211.042 -1.37123 -1.62206 0
M  V30 2312 H 213.305 -0.56294 -0.76276 0
M  V30 2313 H 213.011 -1.58275 -3.14073 0
M  V30 2314 H 212.885 0.0498042 -3.77167 0
M  V30 2315 H 215.272 0.528909 -2.90321 0
M  V30 2316 H 215.353 -1.13056 -2.2946 0
M  V30 2317 H 214.997 -1.9956 -4.67053 0
M  V30 2318 H 214.927 -0.314698 -5.25659 0
M  V30 2319 H 217.418 -0.627403 -3.72655 0
M  V30 2320 H 217.731 -1.89543 -7.49195 0
M  V30 2321 H 216.076 -1.69787 -6.73942 0
M  V30 2322 H 219.267 -0.860115 -4.6013 0
M  V30 2323 H 219.44 -1.43812 -6.3184 0
M  V30 2324 N 212.846 1.57033 -0.133567 0
M  V30 2325 C 213.809 2.14897 0.796995 0
M  V30 2326 C 214.809 1.0874 1.18458 0
M  V30 2327 O 215.999 1.34446 1.1077 0
M  V30 2328 C 213.131 2.70112 2.07973 0
M  V30 2329 H 214.324 2.98457 0.293873 0
M  V30 2330 H 211.877 1.55871 0.115787 0
M  V30 2331 H 212.612 1.9018 2.62682 0
M  V30 2332 H 212.397 3.47764 1.81115 0
M  V30 2333 H 213.887 3.14738 2.74462 0
M  V30 2334 N 214.325 -0.140222 1.56975 0
M  V30 2335 C 215.272 -1.17292 1.98774 0
M  V30 2336 C 216.242 -1.4232 0.856408 0
M  V30 2337 O 217.427 -1.54541 1.119 0
M  V30 2338 C 214.567 -2.49973 2.37923 0
M  V30 2339 C 213.68 -2.32062 3.64378 0
M  V30 2340 C 212.815 -3.57825 3.926 0
M  V30 2341 C 211.854 -3.3498 5.12303 0
M  V30 2342 N 210.991 -4.52891 5.36502 0
M  V30 2343 H 215.831 -0.809472 2.86795 0
M  V30 2344 H 213.368 -0.388237 1.41884 0
M  V30 2345 H 215.326 -3.27346 2.58652 0
M  V30 2346 H 213.956 -2.84252 1.52972 0
M  V30 2347 H 213.008 -1.45711 3.51387 0
M  V30 2348 H 214.32 -2.11145 4.51906 0
M  V30 2349 H 213.474 -4.43624 4.13863 0
M  V30 2350 H 212.213 -3.81753 3.03506 0
M  V30 2351 H 211.218 -2.4757 4.90906 0
M  V30 2352 H 212.443 -3.12444 6.02956 0
M  V30 2353 H 210.389 -4.76979 4.50363 0
M  V30 2354 H 210.306 -4.35001 6.18312 0
M  V30 2355 H 211.574 -5.39884 5.62268 0
M  V30 2356 N 215.803 -1.52179 -0.40978 0
M  V30 2357 C 217.049 -1.66453 -1.15851 0
M  V30 2358 C 217.382 -0.392972 -1.90182 0
M  V30 2359 O 216.657 0.608579 -1.84734 0
M  V30 2360 C 216.94 -2.88612 -2.15349 0
M  V30 2361 C 216.793 -4.25815 -1.44918 0
M  V30 2362 C 218.112 -3.06294 -3.16026 0
M  V30 2363 H 215.231 -0.60575 -0.419805 0
M  V30 2364 H 217.873 -1.84732 -0.444314 0
M  V30 2365 H 216.023 -2.73158 -2.76255 0
M  V30 2366 H 217.695 -4.52995 -0.871365 0
M  V30 2367 H 215.938 -4.27247 -0.751159 0
M  V30 2368 H 216.609 -5.07337 -2.17516 0
M  V30 2369 H 219.085 -3.20641 -2.65195 0
M  V30 2370 H 217.961 -3.93283 -3.8291 0
M  V30 2371 H 218.222 -2.19579 -3.83715 0
M  V30 2372 N 217.281 0.66697 -1.42791 0
M  V30 2373 C 218.509 1.45505 -1.47091 0
M  V30 2374 C 218.924 1.8861 -0.0845873 0
M  V30 2375 O 218.281 1.58632 0.90234 0
M  V30 2376 C 218.332 2.69906 -2.40485 0
M  V30 2377 O 218.053 2.28608 -3.73725 0
M  V30 2378 C 219.554 3.63396 -2.53886 0
M  V30 2379 H 216.774 0.447459 -0.500022 0
M  V30 2380 H 219.318 0.818866 -1.8739 0
M  V30 2381 H 217.473 3.29696 -2.03419 0
M  V30 2382 H 217.887 3.08997 -4.23817 0
M  V30 2383 H 219.361 4.47387 -3.2334 0
M  V30 2384 H 219.838 4.09824 -1.57927 0
M  V30 2385 H 220.444 3.09495 -2.91706 0
M  V30 2386 N 218.759 1.29093 0.90403 0
M  V30 2387 C 219.692 1.08176 2.00931 0
M  V30 2388 C 220.67 -0.005083 1.62599 0
M  V30 2389 O 221.854 0.144765 1.87943 0
M  V30 2390 C 218.981 0.645897 3.32484 0
M  V30 2391 C 218.027 1.73081 3.89801 0
M  V30 2392 S 218.86 3.32905 4.19446 0
M  V30 2393 C 220.016 2.91176 5.54046 0
M  V30 2394 H 220.249 2.01752 2.18365 0
M  V30 2395 H 217.782 1.13191 1.0501 0
M  V30 2396 H 219.74 0.401131 4.08535 0
M  V30 2397 H 218.401 -0.270188 3.12936 0
M  V30 2398 H 217.594 1.37768 4.84805 0
M  V30 2399 H 217.196 1.92888 3.20422 0
M  V30 2400 H 219.488 2.37952 6.34338 0
M  V30 2401 H 220.431 3.85014 5.94281 0
M  V30 2402 H 220.839 2.296 5.15698 0
M  V30 2403 N 220.237 -1.11381 1.11499 0
M  V30 2404 C 221.185 -2.19522 0.768956 0
M  V30 2405 C 222.179 -1.67693 -0.239857 0
M  V30 2406 O 223.385 -1.79727 -0.0990755 0
M  V30 2407 H 219.76 -0.715711 0.230786 0
M  V30 2408 H 221.731 -2.45954 1.68964 0
M  V30 2409 C 220.48 -3.46945 0.229073 0
M  V30 2410 H 219.803 -3.8718 0.996596 0
M  V30 2411 H 221.243 -4.23993 0.0251441 0
M  V30 2412 C 219.702 -3.2042 -1.04079 0
M  V30 2413 O 220.232 -3.41178 -2.12038 0
M  V30 2414 N 218.438 -2.74151 -0.963823 0
M  V30 2415 H 217.985 -2.57459 -0.0851722 0
M  V30 2416 H 217.943 -2.56781 -1.81414 0
M  V30 2417 N 221.715 -0.905404 -1.28997 0
M  V30 2418 C 222.992 -0.453513 -1.9027 0
M  V30 2419 C 223.372 1.06721 -1.82137 0
M  V30 2420 O 222.72 1.91159 -1.25182 0
M  V30 2421 C 222.93 -0.974494 -3.35119 0
M  V30 2422 C 224.278 -1.0216 -4.12127 0
M  V30 2423 O 225.302 -0.922557 -3.44046 0
M  V30 2424 O 224.161 -1.17121 -5.33802 0
M  V30 2425 H 221.255 -0.142347 -0.814657 0
M  V30 2426 H 223.801 -0.995642 -1.37423 0
M  V30 2427 H 222.573 -2.01848 -3.35221 0
M  V30 2428 H 222.196 -0.412706 -3.95452 0
M  V30 2429 N 223.193 1.4272 -0.668489 0
M  V30 2430 C 224.44 2.01624 -0.18814 0
M  V30 2431 C 224.768 1.5282 1.20317 0
M  V30 2432 O 224.023 0.718323 1.8204 0
M  V30 2433 C 224.322 3.57021 -0.164499 0
M  V30 2434 C 223.988 4.25232 -1.49962 0
M  V30 2435 C 222.65 4.4358 -1.8652 0
M  V30 2436 C 225.002 4.63727 -2.37921 0
M  V30 2437 C 222.33 4.97694 -3.10674 0
M  V30 2438 C 224.682 5.19218 -3.6138 0
M  V30 2439 C 223.346 5.3578 -3.98115 0
M  V30 2440 H 222.616 0.737795 -0.0688454 0
M  V30 2441 H 225.263 1.70991 -0.862225 0
M  V30 2442 H 223.568 3.87285 0.593079 0
M  V30 2443 H 225.265 4.00372 0.224271 0
M  V30 2444 H 221.855 4.11306 -1.20522 0
M  V30 2445 H 226.039 4.4923 -2.10964 0
M  V30 2446 H 221.295 5.08702 -3.39164 0
M  V30 2447 H 225.469 5.4799 -4.29743 0
M  V30 2448 H 223.096 5.77475 -4.94395 0
M  V30 2449 N 224.671 0.411399 1.52136 0
M  V30 2450 C 225.948 -0.222308 1.94333 0
M  V30 2451 C 226.328 -1.6242 1.34844 0
M  V30 2452 O 225.676 -2.22384 0.525145 0
M  V30 2453 C 225.886 -0.226345 3.48265 0
M  V30 2454 C 227.234 -0.444592 4.22266 0
M  V30 2455 O 228.258 -0.305602 3.54887 0
M  V30 2456 O 227.117 -0.718749 5.41753 0
M  V30 2457 H 224.211 -0.143907 0.814383 0
M  V30 2458 H 226.757 0.467506 1.63133 0
M  V30 2459 H 225.529 0.75475 3.83952 0
M  V30 2460 H 225.152 -0.960163 3.85832 0
M  V30 2461 N 226.149 -1.5696 0.141893 0
M  V30 2462 C 227.379 -2.00031 -0.516828 0
M  V30 2463 C 227.787 -1.02091 -1.59293 0
M  V30 2464 O 227.13 -0.00909657 -1.83698 0
M  V30 2465 C 227.192 -3.39534 -1.1814 0
M  V30 2466 C 226.856 -4.56313 -0.250513 0
M  V30 2467 C 227.853 -5.17295 0.519839 0
M  V30 2468 C 225.538 -5.02061 -0.154907 0
M  V30 2469 C 227.532 -6.2243 1.3733 0
M  V30 2470 C 225.219 -6.07053 0.702161 0
M  V30 2471 C 226.217 -6.67106 1.46487 0
M  V30 2472 O 225.905 -7.70066 2.30767 0
M  V30 2473 H 225.637 -0.661451 -0.139493 0
M  V30 2474 H 228.191 -2.04086 0.231926 0
M  V30 2475 H 226.421 -3.32302 -1.97769 0
M  V30 2476 H 228.11 -3.66745 -1.73933 0
M  V30 2477 H 228.876 -4.82852 0.45598 0
M  V30 2478 H 224.755 -4.5505 -0.7383 0
M  V30 2479 H 228.299 -6.69233 1.96909 0
M  V30 2480 H 224.196 -6.40923 0.76733 0
M  V30 2481 H 224.964 -7.87264 2.23959 0
M  V30 2482 N 227.627 0.131896 -1.57047 0
M  V30 2483 C 228.557 1.16384 -2.02428 0
M  V30 2484 C 229.538 1.43936 -0.90644 0
M  V30 2485 O 230.723 1.54599 -1.17528 0
M  V30 2486 C 227.853 2.49328 -2.4177 0
M  V30 2487 C 226.807 2.36266 -3.56879 0
M  V30 2488 C 226.133 3.74057 -3.8208 0
M  V30 2489 C 227.433 1.834 -4.89042 0
M  V30 2490 H 229.127 0.786433 -2.88887 0
M  V30 2491 H 226.673 0.376855 -1.38981 0
M  V30 2492 H 228.626 3.21759 -2.7212 0
M  V30 2493 H 227.35 2.88934 -1.52266 0
M  V30 2494 H 226.009 1.66286 -3.26718 0
M  V30 2495 H 225.657 4.11125 -2.89803 0
M  V30 2496 H 225.357 3.66174 -4.59554 0
M  V30 2497 H 226.881 4.48012 -4.1487 0
M  V30 2498 H 228.295 2.45636 -5.18011 0
M  V30 2499 H 226.692 1.8637 -5.70426 0
M  V30 2500 H 227.762 0.790662 -4.7841 0
M  V30 2501 N 229.106 1.52395 0.401703 0
M  V30 2502 C 230.053 1.76268 1.48991 0
M  V30 2503 C 231.023 0.605386 1.54675 0
M  V30 2504 O 232.208 0.843742 1.7113 0
M  V30 2505 C 229.348 1.92592 2.86361 0
M  V30 2506 C 228.461 3.20259 2.89928 0
M  V30 2507 C 227.596 3.26972 4.18644 0
M  V30 2508 C 226.635 4.48812 4.16214 0
M  V30 2509 N 225.772 4.52877 5.36514 0
M  V30 2510 H 230.612 2.6914 1.27935 0
M  V30 2511 H 228.149 1.33355 0.620871 0
M  V30 2512 H 230.107 2.0004 3.66115 0
M  V30 2513 H 228.737 1.03093 3.05895 0
M  V30 2514 H 227.789 3.21945 2.02621 0
M  V30 2515 H 229.101 4.10056 2.83999 0
M  V30 2516 H 228.255 3.33533 5.06794 0
M  V30 2517 H 226.994 2.35126 4.27278 0
M  V30 2518 H 225.999 4.4239 3.26453 0
M  V30 2519 H 227.224 5.41961 4.09213 0
M  V30 2520 H 225.17 3.63917 5.45802 0
M  V30 2521 H 225.087 5.36529 5.32609 0
M  V30 2522 H 226.355 4.63676 6.26597 0
M  V30 2523 N 230.584 -0.659388 1.43143 0
M  V30 2524 C 231.514 -1.78422 1.50625 0
M  V30 2525 C 232.495 -1.66216 0.361443 0
M  V30 2526 O 233.68 -1.85404 0.577834 0
M  V30 2527 C 230.81 -3.16815 1.42287 0
M  V30 2528 C 229.764 -3.43777 2.54954 0
M  V30 2529 C 229.09 -4.81905 2.31671 0
M  V30 2530 C 230.39 -3.39134 3.97222 0
M  V30 2531 H 232.084 -1.72417 2.44771 0
M  V30 2532 H 229.63 -0.828084 1.17808 0
M  V30 2533 H 231.583 -3.95253 1.46127 0
M  V30 2534 H 230.307 -3.23534 0.446435 0
M  V30 2535 H 228.966 -2.67707 2.50457 0
M  V30 2536 H 228.614 -4.85294 1.32284 0
M  V30 2537 H 228.314 -5.00906 3.07192 0
M  V30 2538 H 229.838 -5.62609 2.37284 0
M  V30 2539 H 231.252 -4.07518 4.03239 0
M  V30 2540 H 229.649 -3.69671 4.72719 0
M  V30 2541 H 230.719 -2.37426 4.22797 0
M  V30 2542 N 232.062 -1.29571 -0.897171 0
M  V30 2543 C 232.992 -1.17473 -2.01798 0
M  V30 2544 C 233.973 -0.068323 -1.69963 0
M  V30 2545 O 235.158 -0.248239 -1.92607 0
M  V30 2546 C 232.288 -0.853099 -3.36659 0
M  V30 2547 C 231.242 -1.9161 -3.82713 0
M  V30 2548 C 230.568 -1.44773 -5.14728 0
M  V30 2549 C 231.868 -3.32535 -4.02763 0
M  V30 2550 H 233.562 -2.11237 -2.12177 0
M  V30 2551 H 231.108 -1.01699 -1.01948 0
M  V30 2552 H 233.061 -0.755165 -4.14578 0
M  V30 2553 H 231.785 0.120236 -3.26379 0
M  V30 2554 H 230.444 -2.00346 -3.07013 0
M  V30 2555 H 230.092 -0.462995 -5.00865 0
M  V30 2556 H 229.792 -2.15865 -5.46513 0
M  V30 2557 H 231.316 -1.36334 -5.95185 0
M  V30 2558 H 232.73 -3.26626 -4.71156 0
M  V30 2559 H 231.127 -4.01607 -4.45905 0
M  V30 2560 H 232.197 -3.75326 -3.07016 0
M  V30 2561 N 233.54 1.10788 -1.12088 0
M  V30 2562 C 234.788 1.8231 -0.872205 0
M  V30 2563 C 235.109 1.85419 0.603709 0
M  V30 2564 O 234.379 1.32963 1.43867 0
M  V30 2565 H 232.959 0.675137 -0.319686 0
M  V30 2566 H 235.621 1.34068 -1.41463 0
M  V30 2567 H 234.717 2.85955 -1.25045 0
M  V30 2568 N 235.018 0.912232 1.28515 0
M  V30 2569 C 235.965 0.397954 2.27343 0
M  V30 2570 C 236.935 -0.526766 1.57526 0
M  V30 2571 O 238.12 -0.449292 1.85435 0
M  V30 2572 C 235.26 -0.357263 3.43246 0
M  V30 2573 C 234.373 0.599788 4.27816 0
M  V30 2574 C 233.508 -0.173725 5.30916 0
M  V30 2575 C 232.547 0.777039 6.07148 0
M  V30 2576 N 231.684 0.0371398 7.0209 0
M  V30 2577 H 236.524 1.24577 2.70711 0
M  V30 2578 H 234.061 0.625612 1.33133 0
M  V30 2579 H 236.019 -0.8113 4.09236 0
M  V30 2580 H 234.649 -1.16943 3.00872 0
M  V30 2581 H 233.701 1.17235 3.61884 0
M  V30 2582 H 235.013 1.32704 4.80823 0
M  V30 2583 H 234.167 -0.688394 6.02782 0
M  V30 2584 H 232.906 -0.934041 4.78672 0
M  V30 2585 H 231.911 1.3031 5.34134 0
M  V30 2586 H 233.136 1.53689 6.61481 0
M  V30 2587 H 231.082 -0.705213 6.52198 0
M  V30 2588 H 230.999 0.704249 7.52713 0
M  V30 2589 H 232.267 -0.457383 7.78157 0
M  V30 2590 N 236.496 -1.42363 0.676048 0
M  V30 2591 C 237.744 -2.01123 0.198437 0
M  V30 2592 C 238.065 -1.53731 -1.19966 0
M  V30 2593 O 237.335 -0.759518 -1.80577 0
M  V30 2594 H 235.915 -0.743678 0.0703721 0
M  V30 2595 H 238.577 -1.74263 0.872837 0
M  V30 2596 H 237.673 -3.11454 0.200686 0
M  V30 2597 N 237.974 -0.419461 -1.51915 0
M  V30 2598 C 239.202 0.152136 -2.0634 0
M  V30 2599 C 239.617 1.37988 -1.28859 0
M  V30 2600 O 238.974 1.79243 -0.343232 0
M  V30 2601 C 239.025 0.492266 -3.58133 0
M  V30 2602 O 238.746 -0.686736 -4.32684 0
M  V30 2603 C 240.247 1.11648 -4.2901 0
M  V30 2604 H 237.467 0.0158325 -0.670813 0
M  V30 2605 H 240.011 -0.593394 -1.95702 0
M  V30 2606 H 238.166 1.18769 -3.68745 0
M  V30 2607 H 238.58 -0.400341 -5.2297 0
M  V30 2608 H 240.054 1.3046 -5.36362 0
M  V30 2609 H 240.531 2.09251 -3.86148 0
M  V30 2610 H 241.137 0.460958 -4.22795 0
M  V30 2611 N 239.452 1.56882 -0.150215 0
M  V30 2612 C 240.699 1.96228 0.500093 0
M  V30 2613 C 241.027 1.03522 1.64661 0
M  V30 2614 O 240.282 0.0650683 1.95592 0
M  V30 2615 C 240.581 3.41801 1.04437 0
M  V30 2616 C 240.247 4.50897 0.0159671 0
M  V30 2617 C 238.909 4.8046 -0.266731 0
M  V30 2618 C 241.261 5.16703 -0.683192 0
M  V30 2619 C 238.589 5.73135 -1.25434 0
M  V30 2620 C 240.941 6.10441 -1.65964 0
M  V30 2621 C 239.605 6.38382 -1.95 0
M  V30 2622 H 238.875 0.718048 0.182997 0
M  V30 2623 H 241.522 1.90019 -0.237724 0
M  V30 2624 H 239.827 3.44857 1.85959 0
M  V30 2625 H 241.524 3.69573 1.55618 0
M  V30 2626 H 238.114 4.27891 0.246485 0
M  V30 2627 H 242.298 4.93993 -0.477983 0
M  V30 2628 H 237.554 5.93074 -1.48571 0
M  V30 2629 H 241.728 6.60507 -2.20689 0
M  V30 2630 H 239.355 7.09996 -2.71679 0
M  V30 2631 N 240.93 -0.123565 1.57115 0
M  V30 2632 C 242.178 -0.83051 1.84247 0
M  V30 2633 C 242.499 -1.80629 0.73471 0
M  V30 2634 O 241.769 -1.94403 -0.241688 0
M  V30 2635 H 240.349 -0.309694 0.679778 0
M  V30 2636 H 243.011 -0.111976 1.94578 0
M  V30 2637 H 242.107 -1.37852 2.80006 0
M  V30 2638 N 242.408 -1.52605 -0.393616 0
M  V30 2639 C 243.355 -1.77055 -1.48054 0
M  V30 2640 C 244.325 -0.61358 -1.54352 0
M  V30 2641 O 245.51 -0.852806 -1.70681 0
M  V30 2642 C 242.65 -1.94108 -2.85335 0
M  V30 2643 C 241.763 -3.21792 -2.88226 0
M  V30 2644 C 240.898 -3.29188 -4.16904 0
M  V30 2645 C 239.937 -4.51013 -4.13828 0
M  V30 2646 N 239.074 -4.55716 -5.34105 0
M  V30 2647 H 243.914 -2.69815 -1.26506 0
M  V30 2648 H 241.451 -1.33683 -0.61379 0
M  V30 2649 H 243.409 -2.01979 -3.65049 0
M  V30 2650 H 242.039 -1.04713 -3.05344 0
M  V30 2651 H 241.091 -3.23015 -2.00911 0
M  V30 2652 H 242.403 -4.11557 -2.8182 0
M  V30 2653 H 241.557 -3.36216 -5.05018 0
M  V30 2654 H 240.296 -2.37389 -4.26026 0
M  V30 2655 H 239.301 -4.44115 -3.24102 0
M  V30 2656 H 240.526 -5.44123 -4.06333 0
M  V30 2657 H 238.472 -3.66807 -5.43865 0
M  V30 2658 H 238.389 -5.39346 -5.29756 0
M  V30 2659 H 239.657 -4.66993 -6.2413 0
M  V30 2660 N 243.887 0.651787 -1.4349 0
M  V30 2661 C 245.133 1.41376 -1.45398 0
M  V30 2662 C 245.466 1.94041 -0.0784823 0
M  V30 2663 O 244.741 1.72379 0.900878 0
M  V30 2664 C 245.024 2.59414 -2.49752 0
M  V30 2665 C 244.877 2.12232 -3.96582 0
M  V30 2666 C 246.196 3.61626 -2.50827 0
M  V30 2667 H 243.315 0.512719 -0.529422 0
M  V30 2668 H 245.957 0.738796 -1.75048 0
M  V30 2669 H 244.107 3.16997 -2.246 0
M  V30 2670 H 245.779 1.59639 -4.32797 0
M  V30 2671 H 244.022 1.43592 -4.09346 0
M  V30 2672 H 244.693 2.9712 -4.65214 0
M  V30 2673 H 247.169 3.13805 -2.7325 0
M  V30 2674 H 246.045 4.41766 -3.25783 0
M  V30 2675 H 246.306 4.14314 -1.5426 0
M  V30 2676 N 245.365 1.30045 0.890287 0
M  V30 2677 C 246.614 1.17929 1.63633 0
M  V30 2678 C 246.927 -0.266204 1.9378 0
M  V30 2679 O 248.133 -0.508804 2.6669 0
M  V30 2680 C 246.589 2.06317 2.94892 0
M  V30 2681 C 246.197 3.55745 2.72305 0
M  V30 2682 C 247.941 2.0295 3.72843 0
M  V30 2683 C 245.848 4.36205 3.99348 0
M  V30 2684 H 244.778 0.437782 0.613892 0
M  V30 2685 H 247.429 1.54754 0.986075 0
M  V30 2686 H 245.811 1.6237 3.61182 0
M  V30 2687 H 246.985 4.07805 2.1455 0
M  V30 2688 H 245.3 3.6088 2.07737 0
M  V30 2689 H 247.897 2.60319 4.67053 0
M  V30 2690 H 248.24 1.0117 4.0382 0
M  V30 2691 H 248.773 2.4499 3.13408 0
M  V30 2692 H 245.512 5.38659 3.73533 0
M  V30 2693 H 245.032 3.8891 4.56628 0
M  V30 2694 H 246.711 4.47362 4.67415 0
M  V30 2695 N 246.843 -1.10192 1.12674 0
M  V30 2696 C 247.773 -2.18652 0.819362 0
M  V30 2697 C 248.754 -1.68698 -0.217915 0
M  V30 2698 O 249.939 -1.94041 -0.0785581 0
M  V30 2699 C 247.069 -3.46202 0.27594 0
M  V30 2700 C 246.023 -4.09444 1.24656 0
M  V30 2701 C 245.349 -5.31725 0.563258 0
M  V30 2702 C 246.649 -4.52863 2.60217 0
M  V30 2703 H 248.343 -2.44622 1.72628 0
M  V30 2704 H 245.889 -1.17571 0.831451 0
M  V30 2705 H 247.842 -4.21372 0.0486149 0
M  V30 2706 H 246.566 -3.1973 -0.666331 0
M  V30 2707 H 245.225 -3.36284 1.45974 0
M  V30 2708 H 244.873 -5.0153 -0.384235 0
M  V30 2709 H 244.573 -5.74991 1.21075 0
M  V30 2710 H 246.097 -6.09624 0.34503 0
M  V30 2711 H 247.511 -5.19294 2.42913 0
M  V30 2712 H 245.908 -5.06986 3.21068 0
M  V30 2713 H 246.978 -3.65656 3.18471 0
M  V30 2714 N 248.321 -0.919034 -1.28029 0
M  V30 2715 C 249.567 -0.555757 -1.95036 0
M  V30 2716 C 249.9 0.899198 -1.72128 0
M  V30 2717 O 249.175 1.64023 -1.04531 0
M  V30 2718 C 249.458 -0.872024 -3.49382 0
M  V30 2719 C 249.311 -2.3801 -3.81669 0
M  V30 2720 C 250.63 -0.37185 -4.38526 0
M  V30 2721 H 247.749 -0.203386 -0.708381 0
M  V30 2722 H 250.391 -1.14924 -1.51303 0
M  V30 2723 H 248.541 -0.366946 -3.86763 0
M  V30 2724 H 250.213 -2.9562 -3.54128 0
M  V30 2725 H 248.456 -2.83289 -3.28526 0
M  V30 2726 H 249.127 -2.55192 -4.8947 0
M  V30 2727 H 251.603 -0.804602 -4.08247 0
M  V30 2728 H 250.479 -0.622173 -5.45362 0
M  V30 2729 H 250.74 0.727934 -4.36066 0
M  V30 2730 N 249.799 1.42003 -0.683588 0
M  V30 2731 C 251.215 1.55625 -0.353976 0
M  V30 2732 C 251.415 1.66151 1.14 0
M  V30 2733 O 250.471 1.63329 1.92561 0
M  V30 2734 C 251.784 2.80171 -1.092 0
M  V30 2735 C 253.332 2.93954 -1.07518 0
M  V30 2736 C 253.807 4.21372 -1.79471 0
M  V30 2737 N 255.298 4.28303 -1.76381 0
M  V30 2738 C 256.033 5.25729 -2.28904 0
M  V30 2739 N 255.529 6.29254 -2.89846 0
M  V30 2740 N 257.322 5.17586 -2.19228 0
M  V30 2741 H 249.473 1.33415 -1.6527 0
M  V30 2742 H 251.736 0.64282 -0.696769 0
M  V30 2743 H 251.442 2.78561 -2.14701 0
M  V30 2744 H 251.316 3.7133 -0.662862 0
M  V30 2745 H 253.703 2.95086 -0.028475 0
M  V30 2746 H 253.784 2.04002 -1.54328 0
M  V30 2747 H 253.428 4.21001 -2.84114 0
M  V30 2748 H 253.358 5.10275 -1.30104 0
M  V30 2749 H 255.849 3.54119 -1.31939 0
M  V30 2750 H 256.162 6.99964 -3.27522 0
M  V30 2751 H 254.507 6.29791 -2.93919 0
M  V30 2752 H 257.698 4.35631 -1.71299 0
M  V30 2753 H 257.871 5.93348 -2.60466 0
M  V30 2754 N 251.277 0.427512 1.51691 0
M  V30 2755 C 252.187 -0.39527 2.31246 0
M  V30 2756 C 253.203 -1.03674 1.39742 0
M  V30 2757 O 254.379 -1.03425 1.72816 0
M  V30 2758 C 251.444 -1.48706 3.13189 0
M  V30 2759 C 250.505 -0.866743 4.20459 0
M  V30 2760 C 249.738 -1.90651 4.98486 0
M  V30 2761 O 249.961 -3.12733 4.77026 0
M  V30 2762 O 248.895 -1.5025 5.82845 0
M  V30 2763 H 252.721 0.253918 3.02637 0
M  V30 2764 H 250.306 0.190274 1.48183 0
M  V30 2765 H 252.188 -2.12047 3.64162 0
M  V30 2766 H 250.863 -2.12051 2.44573 0
M  V30 2767 H 249.77 -0.195544 3.73589 0
M  V30 2768 H 251.103 -0.276934 4.9142 0
M  V30 2769 N 252.755 -1.56801 0.158532 0
M  V30 2770 C 253.702 -2.17337 -0.776729 0
M  V30 2771 C 254.672 -1.1096 -1.23601 0
M  V30 2772 O 255.857 -1.39054 -1.30647 0
M  V30 2773 C 252.997 -2.80822 -2.00582 0
M  V30 2774 C 252.11 -4.01624 -1.59129 0
M  V30 2775 C 251.245 -4.53072 -2.77306 0
M  V30 2776 C 250.284 -5.66314 -2.32282 0
M  V30 2777 N 249.421 -6.12329 -3.43508 0
M  V30 2778 H 254.261 -2.96918 -0.253701 0
M  V30 2779 H 251.798 -1.46661 -0.113504 0
M  V30 2780 H 253.756 -3.15779 -2.72652 0
M  V30 2781 H 252.386 -2.03866 -2.50277 0
M  V30 2782 H 251.438 -3.72571 -0.767806 0
M  V30 2783 H 252.75 -4.83633 -1.2207 0
M  V30 2784 H 251.904 -4.90145 -3.57551 0
M  V30 2785 H 250.643 -3.70095 -3.17617 0
M  V30 2786 H 249.648 -5.28806 -1.5048 0
M  V30 2787 H 250.873 -6.51085 -1.93043 0
M  V30 2788 H 248.819 -5.32284 -3.83418 0
M  V30 2789 H 248.736 -6.89293 -3.105 0
M  V30 2790 H 250.004 -6.5405 -4.24075 0
M  V30 2791 N 254.233 0.115231 -1.57178 0
M  V30 2792 C 255.196 1.12526 -1.99676 0
M  V30 2793 C 256.196 1.34095 -0.88742 0
M  V30 2794 O 257.386 1.30548 -1.15337 0
M  V30 2795 C 254.518 2.4789 -2.34015 0
M  V30 2796 H 255.711 0.759912 -2.90113 0
M  V30 2797 H 253.264 0.359648 -1.52106 0
M  V30 2798 H 253.999 2.89339 -1.4647 0
M  V30 2799 H 253.784 2.33588 -3.14927 0
M  V30 2800 H 255.274 3.20575 -2.67622 0
M  V30 2801 N 255.711 1.52812 0.385517 0
M  V30 2802 C 256.939 1.71907 1.15133 0
M  V30 2803 C 257.354 0.439004 1.83625 0
M  V30 2804 O 256.711 -0.586765 1.7281 0
M  V30 2805 C 256.762 2.87099 2.19673 0
M  V30 2806 O 256.483 4.10151 1.53973 0
M  V30 2807 C 257.984 3.17902 3.08955 0
M  V30 2808 H 255.204 0.575479 0.345057 0
M  V30 2809 H 257.748 1.99476 0.45052 0
M  V30 2810 H 255.903 2.61982 2.85384 0
M  V30 2811 H 256.317 4.74514 2.23465 0
M  V30 2812 H 257.791 4.01959 3.7833 0
M  V30 2813 H 258.268 2.3243 3.72657 0
M  V30 2814 H 258.874 3.44871 2.48885 0
M  V30 2815 N 257.189 -0.644168 1.43834 0
M  V30 2816 C 258.437 -1.40117 1.45642 0
M  V30 2817 C 258.758 -1.94814 0.0852413 0
M  V30 2818 O 258.028 -1.74988 -0.880688 0
M  V30 2819 H 256.608 -0.52005 0.536243 0
M  V30 2820 H 259.27 -0.7591 1.7951 0
M  V30 2821 H 258.366 -2.23902 2.17427 0
M  V30 2822 N 258.668 -1.30515 -0.883378 0
M  V30 2823 C 260.084 -1.08881 -1.16692 0
M  V30 2824 C 260.284 0.149409 -2.00945 0
M  V30 2825 O 259.34 0.84257 -2.38027 0
M  V30 2826 C 260.653 -2.35319 -1.87204 0
M  V30 2827 C 262.201 -2.40799 -1.99962 0
M  V30 2828 C 262.676 -3.67083 -2.73887 0
M  V30 2829 N 264.167 -3.679 -2.81432 0
M  V30 2830 C 264.902 -4.62303 -3.3921 0
M  V30 2831 N 264.398 -5.67052 -3.98025 0
M  V30 2832 N 266.191 -4.49845 -3.3704 0
M  V30 2833 H 258.342 -2.09951 -0.321633 0
M  V30 2834 H 260.605 -0.92556 -0.205043 0
M  V30 2835 H 260.311 -3.25689 -1.3274 0
M  V30 2836 H 260.185 -2.44089 -2.87577 0
M  V30 2837 H 262.572 -1.50907 -2.53597 0
M  V30 2838 H 262.653 -2.36003 -0.98673 0
M  V30 2839 H 262.297 -4.57334 -2.20925 0
M  V30 2840 H 262.227 -3.69141 -3.75556 0
M  V30 2841 H 264.718 -2.92171 -2.39676 0
M  V30 2842 H 265.031 -6.35184 -4.40183 0
M  V30 2843 H 263.376 -5.70842 -3.96439 0
M  V30 2844 H 266.567 -3.67194 -2.90321 0
M  V30 2845 H 266.74 -5.23597 -3.81772 0
M  V30 2846 N 260.146 1.09593 -1.13257 0
M  V30 2847 C 261.376 1.85231 -0.915049 0
M  V30 2848 C 261.784 1.81345 0.539498 0
M  V30 2849 O 261.127 1.20664 1.38513 0
M  V30 2850 C 261.189 3.34275 -1.3229 0
M  V30 2851 C 260.853 3.6191 -2.79052 0
M  V30 2852 C 261.85 3.57777 -3.77216 0
M  V30 2853 C 259.535 3.90309 -3.16171 0
M  V30 2854 C 261.529 3.81652 -5.1051 0
M  V30 2855 C 259.216 4.13839 -4.49644 0
M  V30 2856 C 260.214 4.09502 -5.46623 0
M  V30 2857 O 259.902 4.32426 -6.77689 0
M  V30 2858 H 259.634 0.591997 -0.326367 0
M  V30 2859 H 262.188 1.394 -1.50854 0
M  V30 2860 H 260.418 3.80805 -0.672667 0
M  V30 2861 H 262.107 3.9132 -1.07812 0
M  V30 2862 H 262.873 3.35865 -3.49885 0
M  V30 2863 H 258.752 3.92811 -2.41289 0
M  V30 2864 H 262.296 3.78182 -5.86195 0
M  V30 2865 H 258.193 4.35232 -4.767 0
M  V30 2866 H 258.961 4.49896 -6.83766 0
M  V30 2867 N 261.624 0.925811 1.2754 0
M  V30 2868 C 262.854 0.580666 1.98272 0
M  V30 2869 C 263.262 -0.845207 1.69272 0
M  V30 2870 O 262.605 -1.57306 0.948707 0
M  V30 2871 C 262.667 0.724418 3.52126 0
M  V30 2872 C 262.331 2.12206 4.04744 0
M  V30 2873 C 263.328 3.09604 4.17662 0
M  V30 2874 C 261.013 2.4385 4.39138 0
M  V30 2875 C 263.007 4.36755 4.64246 0
M  V30 2876 C 260.694 3.71237 4.85414 0
M  V30 2877 C 261.692 4.67503 4.97926 0
M  V30 2878 O 261.38 5.92624 5.43187 0
M  V30 2879 H 261.112 0.218987 0.639547 0
M  V30 2880 H 263.666 1.24452 1.63404 0
M  V30 2881 H 261.896 0.0034663 3.867 0
M  V30 2882 H 263.585 0.384607 4.04074 0
M  V30 2883 H 264.351 2.86478 3.91351 0
M  V30 2884 H 260.23 1.69665 4.28643 0
M  V30 2885 H 263.774 5.11898 4.73927 0
M  V30 2886 H 259.671 3.94182 5.11166 0
M  V30 2887 H 260.439 5.95585 5.61445 0
M  V30 2888 N 263.102 -1.41638 0.69111 0
M  V30 2889 C 264.065 -2.29178 0.0319786 0
M  V30 2890 C 265.065 -1.44153 -0.712496 0
M  V30 2891 O 266.255 -1.65354 -0.548053 0
M  V30 2892 C 263.387 -3.26952 -0.965161 0
M  V30 2893 H 264.58 -2.88959 0.802681 0
M  V30 2894 H 262.133 -1.4955 0.454356 0
M  V30 2895 H 262.868 -2.72142 -1.76378 0
M  V30 2896 H 262.653 -3.89685 -0.434522 0
M  V30 2897 H 264.143 -3.92561 -1.42428 0
M  V30 2898 N 264.58 -0.43555 -1.51462 0
M  V30 2899 C 265.513 0.421989 -2.24264 0
M  V30 2900 C 266.491 1.02619 -1.26127 0
M  V30 2901 O 267.675 1.069 -1.55257 0
M  V30 2902 C 264.802 1.588 -2.99166 0
M  V30 2903 C 263.848 1.10465 -4.11946 0
M  V30 2904 S 264.681 0.048146 -5.35478 0
M  V30 2905 C 265.837 1.21887 -6.13917 0
M  V30 2906 H 266.07 -0.196102 -2.96653 0
M  V30 2907 H 263.603 -0.220054 -1.52824 0
M  V30 2908 H 265.561 2.25647 -3.42919 0
M  V30 2909 H 264.222 2.1775 -2.26371 0
M  V30 2910 H 263.415 1.97654 -4.63626 0
M  V30 2911 H 263.017 0.51445 -3.70445 0
M  V30 2912 H 265.309 2.13756 -6.42895 0
M  V30 2913 H 266.252 0.742076 -7.04201 0
M  V30 2914 H 266.66 1.45663 -5.45383 0
M  V30 2915 N 266.058 1.56714 -0.166846 0
M  V30 2916 C 267.005 2.17746 0.765193 0
M  V30 2917 C 267.975 1.11614 1.23011 0
M  V30 2918 O 269.16 1.39745 1.29908 0
M  V30 2919 C 266.3 2.81882 1.9909 0
M  V30 2920 C 265.413 4.02462 1.56997 0
M  V30 2921 C 264.548 4.54537 2.749 0
M  V30 2922 C 263.587 5.67538 2.29275 0
M  V30 2923 N 262.724 6.14142 3.40255 0
M  V30 2924 H 267.564 2.97048 0.237952 0
M  V30 2925 H 265.101 1.4672 0.105725 0
M  V30 2926 H 267.059 3.17221 2.70974 0
M  V30 2927 H 265.689 2.05191 2.49192 0
M  V30 2928 H 264.741 3.72973 0.748037 0
M  V30 2929 H 266.053 4.84273 1.19503 0
M  V30 2930 H 265.207 4.92035 3.54946 0
M  V30 2931 H 263.946 3.71774 3.1565 0
M  V30 2932 H 262.951 5.29597 1.47674 0
M  V30 2933 H 264.176 6.52099 1.89588 0
M  V30 2934 H 262.122 5.3431 3.8059 0
M  V30 2935 H 262.039 6.9093 3.06841 0
M  V30 2936 H 263.307 6.56289 4.206 0
M  V30 2937 N 267.536 -0.106894 1.57237 0
M  V30 2938 C 268.785 -0.811163 1.8467 0
M  V30 2939 C 269.098 -1.80469 0.754342 0
M  V30 2940 O 270.304 -2.55601 0.915439 0
M  V30 2941 C 268.76 -1.49337 3.27454 0
M  V30 2942 C 268.368 -0.540217 4.44731 0
M  V30 2943 C 270.112 -2.18206 3.64124 0
M  V30 2944 C 268.019 -1.22634 5.78545 0
M  V30 2945 H 266.949 -0.306679 0.688813 0
M  V30 2946 H 269.6 -0.0639887 1.83388 0
M  V30 2947 H 267.982 -2.2876 3.23241 0
M  V30 2948 H 269.156 0.221659 4.60267 0
M  V30 2949 H 267.471 0.042146 4.16379 0
M  V30 2950 H 270.068 -2.70253 4.61376 0
M  V30 2951 H 270.411 -2.96562 2.92158 0
M  V30 2952 H 270.944 -1.45658 3.70174 0
M  V30 2953 H 267.683 -0.483832 6.53712 0
M  V30 2954 H 267.203 -1.95993 5.66874 0
M  V30 2955 H 268.882 -1.75615 6.2271 0
M  V30 2956 N 269.014 -1.53014 -0.377408 0
M  V30 2957 C 269.944 -1.81589 -1.46791 0
M  V30 2958 C 270.925 -0.668622 -1.56408 0
M  V30 2959 O 272.11 -0.917337 -1.71168 0
M  V30 2960 C 269.24 -1.99519 -2.8427 0
M  V30 2961 C 268.194 -3.15249 -2.89486 0
M  V30 2962 C 267.52 -3.18451 -4.29527 0
M  V30 2963 C 268.82 -4.54084 -2.58079 0
M  V30 2964 H 270.514 -2.7291 -1.23127 0
M  V30 2965 H 268.06 -1.31319 -0.590883 0
M  V30 2966 H 270.013 -2.18092 -3.60575 0
M  V30 2967 H 268.737 -1.04897 -3.09296 0
M  V30 2968 H 267.396 -2.96477 -2.15631 0
M  V30 2969 H 267.044 -2.2149 -4.5161 0
M  V30 2970 H 266.744 -3.962 -4.33934 0
M  V30 2971 H 268.268 -3.39193 -5.07721 0
M  V30 2972 H 269.682 -4.72899 -3.24098 0
M  V30 2973 H 268.079 -5.33987 -2.7382 0
M  V30 2974 H 269.149 -4.60006 -1.53372 0
M  V30 2975 N 270.492 0.636531 -1.44174 0
M  V30 2976 C 271.908 0.954104 -1.27941 0
M  V30 2977 C 272.108 2.0039 -0.211248 0
M  V30 2978 O 271.164 2.49236 0.404695 0
M  V30 2979 C 272.477 1.4225 -2.64925 0
M  V30 2980 C 274.025 1.53827 -2.72592 0
M  V30 2981 C 274.5 2.04053 -4.10032 0
M  V30 2982 N 275.991 2.11331 -4.12182 0
M  V30 2983 C 276.726 2.51352 -5.15374 0
M  V30 2984 N 276.222 2.90549 -6.2893 0
M  V30 2985 N 278.015 2.51438 -5.02728 0
M  V30 2986 H 270.166 -0.0578386 -2.12321 0
M  V30 2987 H 272.429 0.0367406 -0.947288 0
M  V30 2988 H 272.135 0.725466 -3.44136 0
M  V30 2989 H 272.009 2.39451 -2.9145 0
M  V30 2990 H 274.396 2.22628 -1.93702 0
M  V30 2991 H 274.477 0.550154 -2.49814 0
M  V30 2992 H 274.121 1.35848 -4.89395 0
M  V30 2993 H 274.051 3.03726 -4.30184 0
M  V30 2994 H 276.542 1.83745 -3.30222 0
M  V30 2995 H 276.855 3.19884 -7.03487 0
M  V30 2996 H 275.2 2.88313 -6.32377 0
M  V30 2997 H 278.391 2.20203 -4.13072 0
M  V30 2998 H 278.564 2.82304 -5.83274 0
M  V30 2999 N 271.97 1.30982 0.876444 0
M  V30 3000 C 272.917 1.18085 1.98304 0
M  V30 3001 C 273.887 0.0682263 1.6596 0
M  V30 3002 O 275.072 0.239937 1.89285 0
M  V30 3003 C 272.212 0.887475 3.33493 0
M  V30 3004 C 271.325 2.08281 3.78475 0
M  V30 3005 C 270.46 1.72678 5.0235 0
M  V30 3006 C 269.499 2.88657 5.39762 0
M  V30 3007 N 268.636 2.53292 6.54819 0
M  V30 3008 H 273.476 2.1275 2.08666 0
M  V30 3009 H 271.013 1.05839 1.02159 0
M  V30 3010 H 272.971 0.697961 4.1132 0
M  V30 3011 H 271.601 -0.022315 3.22792 0
M  V30 3012 H 270.653 2.3833 2.96484 0
M  V30 3013 H 271.965 2.95108 4.02135 0
M  V30 3014 H 271.119 1.50151 5.87826 0
M  V30 3015 H 269.858 0.830327 4.8058 0
M  V30 3016 H 268.863 3.1184 4.52809 0
M  V30 3017 H 270.088 3.79002 5.63502 0
M  V30 3018 H 268.034 1.66163 6.34607 0
M  V30 3019 H 267.951 3.3365 6.7839 0
M  V30 3020 H 269.219 2.34143 7.43503 0
M  V30 3021 N 273.449 -1.08991 1.13837 0
M  V30 3022 C 274.359 -2.19301 0.833333 0
M  V30 3023 C 275.375 -1.73026 -0.183847 0
M  V30 3024 O 276.551 -2.01395 -0.0138092 0
M  V30 3025 C 273.616 -3.45323 0.308651 0
M  V30 3026 C 272.677 -4.06255 1.38764 0
M  V30 3027 C 271.91 -5.26262 0.887896 0
M  V30 3028 O 272.133 -5.69747 -0.27287 0
M  V30 3029 O 271.067 -5.78435 1.66421 0
M  V30 3030 H 274.893 -2.47854 1.75506 0
M  V30 3031 H 272.478 -1.18012 0.916166 0
M  V30 3032 H 274.36 -4.21394 0.0216739 0
M  V30 3033 H 273.035 -3.18362 -0.585431 0
M  V30 3034 H 271.942 -3.318 1.72799 0
M  V30 3035 H 273.275 -4.37452 2.25602 0
M  V30 3036 N 274.927 -0.932562 -1.27047 0
M  V30 3037 C 276.173 -0.576412 -1.94436 0
M  V30 3038 C 276.506 0.880891 -1.73072 0
M  V30 3039 O 275.781 1.62905 -1.06264 0
M  V30 3040 C 276.064 -0.909031 -3.48437 0
M  V30 3041 C 275.917 -2.42044 -3.79123 0
M  V30 3042 C 277.236 -0.418341 -4.38107 0
M  V30 3043 H 274.355 -0.210888 -0.706184 0
M  V30 3044 H 276.997 -1.16522 -1.50075 0
M  V30 3045 H 275.147 -0.407947 -3.86352 0
M  V30 3046 H 276.819 -2.99359 -3.50973 0
M  V30 3047 H 275.062 -2.86758 -3.25503 0
M  V30 3048 H 275.733 -2.6037 -4.86736 0
M  V30 3049 H 278.209 -0.847856 -4.0737 0
M  V30 3050 H 277.085 -0.679981 -5.44672 0
M  V30 3051 H 277.346 0.681642 -4.36814 0
M  V30 3052 N 276.405 1.4127 -0.698611 0
M  V30 3053 C 277.654 2.00408 -0.227949 0
M  V30 3054 C 277.967 1.55981 1.18023 0
M  V30 3055 O 279.173 2.07699 1.74852 0
M  V30 3056 C 277.629 3.58129 -0.356636 0
M  V30 3057 C 277.237 4.11536 -1.77037 0
M  V30 3058 C 278.981 4.24466 0.0540969 0
M  V30 3059 C 276.888 5.61701 -1.85055 0
M  V30 3060 H 275.818 0.749586 -0.0814657 0
M  V30 3061 H 278.469 1.61713 -0.867249 0
M  V30 3062 H 276.851 3.94442 0.350965 0
M  V30 3063 H 278.025 3.86636 -2.50698 0
M  V30 3064 H 276.34 3.57736 -2.13105 0
M  V30 3065 H 278.937 5.34698 0.0146723 0
M  V30 3066 H 279.28 4.01687 1.09332 0
M  V30 3067 H 279.813 3.93198 -0.603337 0
M  V30 3068 H 276.552 5.89312 -2.8704 0
M  V30 3069 H 276.072 5.88519 -1.15783 0
M  V30 3070 H 277.751 6.26524 -1.61484 0
M  V30 3071 N 277.883 0.443576 1.51229 0
M  V30 3072 C 279.132 -0.122332 2.01329 0
M  V30 3073 C 279.445 -1.43237 1.33201 0
M  V30 3074 O 280.651 -2.0816 1.74304 0
M  V30 3075 C 279.107 -0.268551 3.58897 0
M  V30 3076 C 278.715 1.03142 4.35965 0
M  V30 3077 C 280.459 -0.787894 4.17124 0
M  V30 3078 C 278.366 0.850504 5.85252 0
M  V30 3079 H 277.296 -0.0494929 0.752374 0
M  V30 3080 H 279.947 0.574289 1.74282 0
M  V30 3081 H 278.329 -1.02832 3.82415 0
M  V30 3082 H 279.503 1.80001 4.24189 0
M  V30 3083 H 277.818 1.47977 3.89219 0
M  V30 3084 H 280.415 -0.939841 5.26375 0
M  V30 3085 H 280.758 -1.77201 3.76703 0
M  V30 3086 H 281.291 -0.0862669 3.97706 0
M  V30 3087 H 278.03 1.80718 6.30096 0
M  V30 3088 H 277.55 0.121825 5.99676 0
M  V30 3089 H 279.229 0.506163 6.45017 0
M  V30 3090 N 279.361 -1.56624 0.175154 0
M  V30 3091 C 280.324 -2.16934 -0.739738 0
M  V30 3092 C 281.324 -1.11842 -1.15533 0
M  V30 3093 O 282.514 -1.37335 -1.07167 0
M  V30 3094 C 279.646 -2.75531 -2.00738 0
M  V30 3095 H 280.839 -2.99131 -0.214639 0
M  V30 3096 H 278.392 -1.56123 -0.0744197 0
M  V30 3097 H 279.127 -1.97078 -2.57548 0
M  V30 3098 H 278.912 -3.52444 -1.71831 0
M  V30 3099 H 280.402 -3.21904 -2.66021 0
M  V30 3100 N 280.839 0.0985539 -1.57292 0
M  V30 3101 C 281.786 1.11981 -2.01814 0
M  V30 3102 C 282.756 1.39999 -0.89384 0
M  V30 3103 O 283.941 1.5152 -1.15958 0
M  V30 3104 C 281.081 2.43577 -2.44467 0
M  V30 3105 C 280.194 2.2232 -3.70402 0
M  V30 3106 C 279.329 3.4729 -4.01949 0
M  V30 3107 C 278.368 3.2128 -5.21005 0
M  V30 3108 N 277.505 4.38507 -5.48321 0
M  V30 3109 H 282.345 0.733149 -2.88841 0
M  V30 3110 H 279.882 0.350482 -1.42864 0
M  V30 3111 H 281.84 3.20373 -2.6724 0
M  V30 3112 H 280.47 2.80097 -1.60455 0
M  V30 3113 H 279.522 1.36343 -3.55126 0
M  V30 3114 H 280.834 1.99089 -4.57345 0
M  V30 3115 H 279.988 4.32495 -4.25479 0
M  V30 3116 H 278.727 3.73572 -3.13521 0
M  V30 3117 H 277.732 2.34468 -4.97298 0
M  V30 3118 H 278.957 2.96348 -6.11028 0
M  V30 3119 H 276.903 4.64871 -4.62851 0
M  V30 3120 H 276.82 4.18455 -6.29628 0
M  V30 3121 H 278.088 5.24787 -5.76385 0
M  V30 3122 N 282.317 1.53212 0.369288 0
M  V30 3123 C 283.594 1.59815 1.12776 0
M  V30 3124 C 283.974 0.403402 2.0721 0
M  V30 3125 O 283.322 -0.606667 2.20299 0
M  V30 3126 C 283.532 2.94664 1.87013 0
M  V30 3127 C 284.88 3.49109 2.41677 0
M  V30 3128 O 285.904 2.96669 1.97144 0
M  V30 3129 O 284.763 4.40775 3.23079 0
M  V30 3130 H 281.857 0.645376 0.517125 0
M  V30 3131 H 284.403 1.65553 0.37285 0
M  V30 3132 H 283.175 3.73061 1.18071 0
M  V30 3133 H 282.798 2.92401 2.69421 0
M  V30 3134 N 283.795 -0.628877 1.44509 0
M  V30 3135 C 284.705 -1.7694 1.54044 0
M  V30 3136 C 285.721 -1.68705 0.425987 0
M  V30 3137 O 286.897 -1.89442 0.683656 0
M  V30 3138 C 283.962 -3.13332 1.48405 0
M  V30 3139 C 283.023 -3.33181 2.70719 0
M  V30 3140 C 282.256 -4.63067 2.6534 0
M  V30 3141 O 282.479 -5.44017 1.71469 0
M  V30 3142 O 281.413 -4.85167 3.56226 0
M  V30 3143 H 285.239 -1.71848 2.50403 0
M  V30 3144 H 282.824 -0.790378 1.26781 0
M  V30 3145 H 284.706 -3.94634 1.47791 0
M  V30 3146 H 283.381 -3.1896 0.551898 0
M  V30 3147 H 282.288 -2.51549 2.769 0
M  V30 3148 H 283.621 -3.32416 3.62988 0
M  V30 3149 N 285.273 -1.31445 -0.869486 0
M  V30 3150 C 286.519 -1.21337 -1.62496 0
M  V30 3151 C 286.852 0.227872 -1.92858 0
M  V30 3152 O 286.127 1.16094 -1.56053 0
M  V30 3153 C 286.41 -2.05814 -2.95487 0
M  V30 3154 C 286.263 -3.5824 -2.72 0
M  V30 3155 C 287.582 -1.9079 -3.96594 0
M  V30 3156 H 284.701 -0.442135 -0.589649 0
M  V30 3157 H 287.343 -1.6124 -1.00507 0
M  V30 3158 H 285.493 -1.71913 -3.48394 0
M  V30 3159 H 287.165 -4.0228 -2.25762 0
M  V30 3160 H 285.408 -3.81647 -2.06224 0
M  V30 3161 H 286.079 -4.12657 -3.66631 0
M  V30 3162 H 288.555 -2.20459 -3.52898 0
M  V30 3163 H 287.431 -2.52199 -4.87531 0
M  V30 3164 H 287.692 -0.871341 -4.33428 0
M  V30 3165 N 286.751 1.08385 -1.14413 0
M  V30 3166 C 287.714 2.13486 -0.834048 0
M  V30 3167 C 288.714 1.59988 0.161418 0
M  V30 3168 O 289.904 1.74071 -0.0669575 0
M  V30 3169 C 287.036 3.4003 -0.243354 0
M  V30 3170 H 288.229 2.42425 -1.7655 0
M  V30 3171 H 285.782 1.24101 -0.950189 0
M  V30 3172 H 286.517 3.16726 0.696807 0
M  V30 3173 H 286.302 3.80157 -0.960367 0
M  V30 3174 H 287.792 4.17577 -0.0436242 0
M  V30 3175 N 288.23 0.939286 1.26551 0
M  V30 3176 C 289.18 0.418284 2.2413 0
M  V30 3177 C 290.164 -0.483935 1.5345 0
M  V30 3178 O 291.356 -0.319489 1.74093 0
M  V30 3179 C 288.485 -0.31709 3.41832 0
M  V30 3180 C 287.571 0.602311 4.19801 0
M  V30 3181 N 287.962 1.72726 4.75394 0
M  V30 3182 C 286.26 0.407534 4.44134 0
M  V30 3183 C 286.961 2.30004 5.34297 0
M  V30 3184 N 285.937 1.58828 5.1988 0
M  V30 3185 H 289.739 1.27705 2.64705 0
M  V30 3186 H 287.253 0.794929 1.41614 0
M  V30 3187 H 289.25 -0.707364 4.10855 0
M  V30 3188 H 287.91 -1.17264 3.02786 0
M  V30 3189 H 288.921 2.10944 4.72994 0
M  V30 3190 H 285.598 -0.406406 4.15517 0
M  V30 3191 H 286.988 3.24778 5.88191 0
M  V30 3192 N 289.708 -1.40897 0.706093 0
M  V30 3193 C 290.936 -2.05373 0.250887 0
M  V30 3194 C 291.351 -1.53172 -1.10381 0
M  V30 3195 O 290.708 -0.684305 -1.69185 0
M  V30 3196 C 290.759 -3.6088 0.211571 0
M  V30 3197 O 290.48 -4.11153 1.51276 0
M  V30 3198 C 291.981 -4.42517 -0.263346 0
M  V30 3199 H 289.201 -0.66115 0.114552 0
M  V30 3200 H 291.745 -1.80479 0.961635 0
M  V30 3201 H 289.9 -3.84777 -0.450073 0
M  V30 3202 H 290.314 -5.05279 1.40689 0
M  V30 3203 H 291.788 -5.51479 -0.239718 0
M  V30 3204 H 292.265 -4.19396 -1.30397 0
M  V30 3205 H 292.871 -4.23708 0.367677 0
M  V30 3206 N 291.186 -0.45159 -1.50991 0
M  V30 3207 C 292.432 0.110237 -2.025 0
M  V30 3208 C 292.765 1.41109 -1.33424 0
M  V30 3209 O 292.04 1.89135 -0.453659 0
M  V30 3210 C 292.323 0.314271 -3.58726 0
M  V30 3211 C 292.176 -1.00623 -4.38401 0
M  V30 3212 C 293.495 1.07767 -4.26702 0
M  V30 3213 H 290.614 0.0385897 -0.735989 0
M  V30 3214 H 293.256 -0.593374 -1.80497 0
M  V30 3215 H 291.406 0.913601 -3.77605 0
M  V30 3216 H 293.078 -1.64064 -4.31139 0
M  V30 3217 H 291.321 -1.6075 -4.02917 0
M  V30 3218 H 291.992 -0.817341 -5.45915 0
M  V30 3219 H 294.468 0.56986 -4.12179 0
M  V30 3220 H 293.344 1.18921 -5.35863 0
M  V30 3221 H 293.605 2.10939 -3.88532 0
M  V30 3222 N 292.664 1.56529 -0.183458 0
M  V30 3223 C 293.892 2.01623 0.464285 0
M  V30 3224 C 294.307 1.06366 1.55986 0
M  V30 3225 O 293.664 0.0665398 1.82379 0
M  V30 3226 C 293.715 3.46475 1.03139 0
M  V30 3227 O 293.436 4.38095 -0.0204675 0
M  V30 3228 C 294.937 4.0703 1.75617 0
M  V30 3229 H 292.157 0.660596 0.117704 0
M  V30 3230 H 294.701 2.02451 -0.288751 0
M  V30 3231 H 292.856 3.46383 1.73486 0
M  V30 3232 H 293.27 5.22973 0.399952 0
M  V30 3233 H 294.744 5.10271 2.10542 0
M  V30 3234 H 295.221 3.49819 2.65563 0
M  V30 3235 H 295.827 4.1086 1.09882 0
M  V30 3236 N 294.142 -0.090211 1.57342 0
M  V30 3237 C 295.052 -1.12735 2.05738 0
M  V30 3238 C 296.068 -1.43557 0.983231 0
M  V30 3239 O 297.244 -1.54101 1.29672 0
M  V30 3240 C 294.309 -2.42659 2.47624 0
M  V30 3241 C 293.37 -2.18975 3.69254 0
M  V30 3242 C 292.603 -3.42704 4.09133 0
M  V30 3243 O 292.826 -4.51127 3.49057 0
M  V30 3244 O 291.76 -3.32003 5.02053 0
M  V30 3245 H 295.586 -0.746279 2.94388 0
M  V30 3246 H 293.171 -0.303064 1.46294 0
M  V30 3247 H 295.053 -3.19155 2.7517 0
M  V30 3248 H 293.728 -2.80182 1.62109 0
M  V30 3249 H 292.635 -1.40244 3.46818 0
M  V30 3250 H 293.968 -1.86342 4.55563 0
M  V30 3251 N 295.62 -1.53406 -0.361157 0
M  V30 3252 C 296.845 -1.74024 -1.12829 0
M  V30 3253 C 297.27 -0.470069 -1.82132 0
M  V30 3254 O 296.628 0.57619 -1.719 0
M  V30 3255 C 296.676 -2.90903 -2.13091 0
M  V30 3256 O 295.78 -2.59821 -3.20261 0
M  V30 3257 H 295.121 -0.577804 -0.327168 0
M  V30 3258 H 297.651 -2.00307 -0.41693 0
M  V30 3259 H 297.661 -3.17194 -2.56616 0
M  V30 3260 H 296.336 -3.83034 -1.62042 0
M  V30 3261 H 294.913 -2.44362 -2.81677 0
M  V30 3262 N 297.098 0.621204 -1.44841 0
M  V30 3263 C 298.514 0.94048 -1.28946 0
M  V30 3264 C 298.714 2.00154 -0.23249 0
M  V30 3265 O 297.77 2.49651 0.378237 0
M  V30 3266 C 299.083 1.39433 -2.66419 0
M  V30 3267 C 300.631 1.50927 -2.74208 0
M  V30 3268 C 301.106 1.99692 -4.12174 0
M  V30 3269 N 302.597 2.06947 -4.144 0
M  V30 3270 C 303.332 2.45871 -5.1801 0
M  V30 3271 N 302.828 2.83862 -6.31977 0
M  V30 3272 N 304.621 2.46092 -5.05366 0
M  V30 3273 H 296.772 -0.0803548 -2.12248 0
M  V30 3274 H 299.035 0.0266913 -0.947624 0
M  V30 3275 H 298.741 0.688925 -3.44887 0
M  V30 3276 H 298.615 2.36347 -2.93973 0
M  V30 3277 H 301.002 2.20561 -1.96053 0
M  V30 3278 H 301.083 0.523627 -2.50383 0
M  V30 3279 H 300.727 1.30649 -4.90809 0
M  V30 3280 H 300.657 2.99146 -4.33381 0
M  V30 3281 H 303.148 1.80232 -3.32152 0
M  V30 3282 H 303.461 3.12405 -7.0684 0
M  V30 3283 H 301.806 2.8159 -6.35399 0
M  V30 3284 H 304.997 2.1581 -4.15384 0
M  V30 3285 H 305.17 2.76102 -5.86235 0
M  V30 3286 N 298.576 1.31904 0.862503 0
M  V30 3287 C 299.822 1.22197 1.61851 0
M  V30 3288 C 300.155 -0.217641 1.92977 0
M  V30 3289 O 299.43 -1.15264 1.56666 0
M  V30 3290 C 299.713 2.07378 2.94391 0
M  V30 3291 C 299.566 3.59678 2.70096 0
M  V30 3292 C 300.885 1.92891 3.95577 0
M  V30 3293 H 298.004 0.445255 0.587296 0
M  V30 3294 H 300.646 1.6177 0.99651 0
M  V30 3295 H 298.796 1.73758 3.47477 0
M  V30 3296 H 300.468 4.03472 2.23625 0
M  V30 3297 H 298.711 3.82735 2.04197 0
M  V30 3298 H 299.382 4.14595 3.64438 0
M  V30 3299 H 301.858 2.22327 3.51724 0
M  V30 3300 H 300.734 2.54781 4.86187 0
M  V30 3301 H 300.995 0.894315 4.3296 0
M  V30 3302 N 300.054 -1.07777 1.14986 0
M  V30 3303 C 300.984 -2.16865 0.865557 0
M  V30 3304 C 301.965 -1.69123 -0.182083 0
M  V30 3305 O 303.15 -1.94164 -0.0373815 0
M  V30 3306 C 300.28 -3.45539 0.349313 0
M  V30 3307 C 299.234 -4.06708 1.33313 0
M  V30 3308 C 298.56 -5.30411 0.675918 0
M  V30 3309 C 299.86 -4.47241 2.69764 0
M  V30 3310 H 301.554 -2.40905 1.77778 0
M  V30 3311 H 299.1 -1.15781 0.856203 0
M  V30 3312 H 301.053 -4.21174 0.137983 0
M  V30 3313 H 299.777 -3.21072 -0.598362 0
M  V30 3314 H 298.436 -3.33112 1.53075 0
M  V30 3315 H 298.084 -5.02232 -0.277767 0
M  V30 3316 H 297.784 -5.72293 1.33244 0
M  V30 3317 H 299.308 -6.08755 0.474262 0
M  V30 3318 H 300.722 -5.14025 2.53873 0
M  V30 3319 H 299.119 -5.00062 3.3175 0
M  V30 3320 H 300.189 -3.58818 3.26156 0
M  V30 3321 N 301.532 -0.945985 -1.26051 0
M  V30 3322 C 302.464 -0.416662 -2.25381 0
M  V30 3323 C 303.477 0.462712 -1.56086 0
M  V30 3324 O 304.666 0.272383 -1.7641 0
M  V30 3325 C 301.766 0.419812 -3.3629 0
M  V30 3326 C 300.939 -0.444531 -4.35135 0
M  V30 3327 C 299.998 0.332305 -5.2515 0
M  V30 3328 O 299.024 -0.266324 -5.68577 0
M  V30 3329 N 300.226 1.62763 -5.57215 0
M  V30 3330 H 302.991 -1.27059 -2.71433 0
M  V30 3331 H 300.552 -0.815392 -1.39868 0
M  V30 3332 H 302.544 0.947013 -3.93464 0
M  V30 3333 H 301.114 1.17456 -2.89694 0
M  V30 3334 H 300.334 -1.15291 -3.76964 0
M  V30 3335 H 301.622 -1.03478 -4.98166 0
M  V30 3336 H 301.02 2.13603 -5.23823 0
M  V30 3337 H 299.577 2.10097 -6.17011 0
M  V30 3338 N 303.011 1.40521 -0.713556 0
M  V30 3339 C 303.959 2.32549 -0.0485227 0
M  V30 3340 C 304.953 1.51931 0.74922 0
M  V30 3341 O 306.159 1.67745 0.652816 0
M  V30 3342 H 302.534 0.751994 0.00311138 0
M  V30 3343 H 304.505 2.86291 -0.841443 0
M  V30 3344 C 303.254 3.36879 0.860687 0
M  V30 3345 H 302.577 3.98978 0.256246 0
M  V30 3346 H 304.017 4.03772 1.294 0
M  V30 3347 C 302.476 2.72197 1.9852 0
M  V30 3348 O 303.006 2.5837 3.07584 0
M  V30 3349 N 301.212 2.30612 1.76823 0
M  V30 3350 H 300.759 2.42059 0.881217 0
M  V30 3351 H 300.717 1.87672 2.52243 0
M  V30 3352 N 304.489 0.459591 1.5075 0
M  V30 3353 C 305.717 -0.0973749 2.06671 0
M  V30 3354 C 306.132 -1.34524 1.32472 0
M  V30 3355 O 305.489 -1.7827 0.390634 0
M  V30 3356 C 305.54 -0.39714 3.59312 0
M  V30 3357 O 305.261 0.801214 4.30711 0
M  V30 3358 C 306.762 -1.00234 4.31819 0
M  V30 3359 H 303.982 0.00195854 0.670997 0
M  V30 3360 H 306.526 0.645072 1.94059 0
M  V30 3361 H 304.681 -1.08951 3.71764 0
M  V30 3362 H 305.095 0.538857 5.21725 0
M  V30 3363 H 306.569 -1.16193 5.39632 0
M  V30 3364 H 307.046 -1.98939 3.91561 0
M  V30 3365 H 307.652 -0.348699 4.23868 0
M  V30 3366 N 305.967 -1.56429 0.191757 0
M  V30 3367 C 307.383 -1.58754 -0.164137 0
M  V30 3368 C 307.583 -1.20782 -1.61288 0
M  V30 3369 O 306.639 -0.928999 -2.34789 0
M  V30 3370 C 307.952 -3.00396 0.135195 0
M  V30 3371 C 309.5 -3.1291 0.0750351 0
M  V30 3372 C 309.975 -4.56679 0.347632 0
M  V30 3373 N 311.466 -4.62252 0.296131 0
M  V30 3374 C 312.201 -5.71379 0.480948 0
M  V30 3375 N 311.697 -6.88986 0.725933 0
M  V30 3376 N 313.49 -5.60563 0.415435 0
M  V30 3377 H 305.641 -1.79393 1.13718 0
M  V30 3378 H 307.904 -0.832414 0.453643 0
M  V30 3379 H 307.61 -3.32726 1.13958 0
M  V30 3380 H 307.484 -3.72963 -0.563773 0
M  V30 3381 H 309.871 -2.80394 -0.919948 0
M  V30 3382 H 309.952 -2.42736 0.807029 0
M  V30 3383 H 309.596 -4.89907 1.33992 0
M  V30 3384 H 309.526 -5.25039 -0.405212 0
M  V30 3385 H 312.017 -3.7773 0.113259 0
M  V30 3386 H 312.33 -7.68046 0.855857 0
M  V30 3387 H 310.675 -6.90801 0.762788 0
M  V30 3388 H 313.866 -4.67561 0.224486 0
M  V30 3389 H 314.039 -6.45551 0.562889 0
M  V30 3390 N 307.445 0.0818655 -1.57387 0
M  V30 3391 C 308.395 1.10501 -1.99433 0
M  V30 3392 C 309.379 1.35041 -0.874798 0
M  V30 3393 O 310.571 1.35511 -1.13868 0
M  V30 3394 C 307.7 2.42159 -2.43339 0
M  V30 3395 C 306.786 2.20937 -3.62005 0
M  V30 3396 N 307.177 1.69616 -4.76512 0
M  V30 3397 C 305.475 2.51451 -3.68359 0
M  V30 3398 C 306.176 1.62973 -5.58404 0
M  V30 3399 N 305.152 2.08664 -5.01956 0
M  V30 3400 H 308.954 0.701373 -2.85408 0
M  V30 3401 H 306.468 0.289096 -1.59806 0
M  V30 3402 H 308.465 3.16208 -2.71695 0
M  V30 3403 H 307.125 2.83249 -1.58746 0
M  V30 3404 H 308.136 1.38624 -4.99003 0
M  V30 3405 H 304.813 2.95975 -2.94457 0
M  V30 3406 H 306.203 1.24233 -6.60315 0
M  V30 3407 N 308.923 1.53595 0.353017 0
M  V30 3408 C 310.334 1.61937 0.929153 0
M  V30 3409 C 310.685 0.494686 1.89861 0
M  V30 3410 O 309.81 -0.377017 2.1309 0
M  V30 3411 C 310.405 2.93526 1.69199 0
M  V30 3412 C 308.964 3.04161 2.21727 0
M  V30 3413 C 308.111 2.57322 1.03348 0
M  V30 3414 H 311.062 1.58155 0.131431 0
M  V30 3415 H 311.083 2.82034 2.55416 0
M  V30 3416 H 310.595 3.75362 0.986144 0
M  V30 3417 H 308.696 2.26938 2.95516 0
M  V30 3418 H 308.809 4.09465 2.48748 0
M  V30 3419 H 307.173 2.12499 1.40414 0
M  V30 3420 H 307.956 3.41588 0.342428 0
M  V30 3421 N 310.401 -0.613514 1.45168 0
M  V30 3422 C 311.648 -1.37268 1.48875 0
M  V30 3423 C 311.976 -1.94077 0.128161 0
M  V30 3424 O 311.231 -1.75178 -0.872416 0
M  V30 3425 C 311.53 -2.54347 2.51083 0
M  V30 3426 C 311.196 -2.1572 3.95949 0
M  V30 3427 C 309.858 -2.04899 4.35396 0
M  V30 3428 C 312.21 -1.85485 4.87078 0
M  V30 3429 C 309.538 -1.62057 5.63875 0
M  V30 3430 C 311.89 -1.4413 6.15962 0
M  V30 3431 C 310.554 -1.31863 6.54346 0
M  V30 3432 H 309.824 -0.502299 0.544773 0
M  V30 3433 H 312.471 -0.694021 1.78481 0
M  V30 3434 H 310.776 -3.27524 2.15024 0
M  V30 3435 H 312.473 -3.12577 2.51191 0
M  V30 3436 H 309.063 -2.25066 3.64751 0
M  V30 3437 H 313.247 -1.92745 4.57343 0
M  V30 3438 H 308.503 -1.51177 5.92415 0
M  V30 3439 H 312.677 -1.19778 6.86022 0
M  V30 3440 H 310.304 -0.984392 7.538 0
M  V30 3441 N 311.879 -1.3236 -0.855495 0
M  V30 3442 C 312.809 -1.23833 -1.97958 0
M  V30 3443 C 313.79 -0.122361 -1.69659 0
M  V30 3444 O 314.975 -0.30939 -1.9172 0
M  V30 3445 C 312.105 -0.959772 -3.33775 0
M  V30 3446 C 311.059 -2.03689 -3.76424 0
M  V30 3447 C 310.385 -1.61075 -5.09862 0
M  V30 3448 C 311.685 -3.4518 -3.9198 0
M  V30 3449 H 313.379 -2.1788 -2.0535 0
M  V30 3450 H 310.925 -1.04891 -0.986605 0
M  V30 3451 H 312.878 -0.886678 -4.11966 0
M  V30 3452 H 311.602 0.0163404 -3.26596 0
M  V30 3453 H 310.261 -2.10012 -3.00484 0
M  V30 3454 H 309.909 -0.622107 -4.99138 0
M  V30 3455 H 309.609 -2.33143 -5.39368 0
M  V30 3456 H 311.133 -1.55201 -5.90546 0
M  V30 3457 H 312.547 -3.4145 -4.60526 0
M  V30 3458 H 310.944 -4.1559 -4.32903 0
M  V30 3459 H 312.014 -3.84903 -2.94919 0
M  V30 3460 N 313.357 1.07166 -1.15556 0
M  V30 3461 C 314.585 1.83514 -0.955519 0
M  V30 3462 C 315 1.82163 0.49621 0
M  V30 3463 O 314.357 1.23441 1.34419 0
M  V30 3464 C 314.408 3.30515 -1.46432 0
M  V30 3465 O 314.129 3.31937 -2.85918 0
M  V30 3466 C 315.63 4.23625 -1.30603 0
M  V30 3467 H 312.85 0.578926 -0.339244 0
M  V30 3468 H 315.394 1.35265 -1.53374 0
M  V30 3469 H 313.549 3.76106 -0.928584 0
M  V30 3470 H 313.963 4.23794 -3.09029 0
M  V30 3471 H 315.437 5.24831 -1.71047 0
M  V30 3472 H 315.914 4.38485 -0.250441 0
M  V30 3473 H 316.52 3.83871 -1.83094 0
M  V30 3474 N 314.835 0.952656 1.25548 0
M  V30 3475 C 315.798 0.475794 2.24207 0
M  V30 3476 C 316.798 -0.419428 1.55234 0
M  V30 3477 O 317.988 -0.216994 1.72843 0
M  V30 3478 C 315.12 -0.312814 3.39462 0
M  V30 3479 H 316.313 1.34779 2.67908 0
M  V30 3480 H 313.866 0.735739 1.37901 0
M  V30 3481 H 314.601 -1.20257 3.01179 0
M  V30 3482 H 314.386 0.329404 3.90714 0
M  V30 3483 H 315.876 -0.635986 4.12729 0
M  V30 3484 N 316.313 -1.40141 0.720998 0
M  V30 3485 C 317.243 -2.33339 0.0867621 0
M  V30 3486 C 318.224 -1.53178 -0.739622 0
M  V30 3487 O 319.409 -1.81625 -0.687449 0
M  V30 3488 C 316.539 -3.37194 -0.831728 0
M  V30 3489 C 315.493 -4.27857 -0.110558 0
M  V30 3490 C 314.819 -5.22294 -1.14513 0
M  V30 3491 C 316.119 -5.11872 1.0385 0
M  V30 3492 H 317.813 -2.86626 0.865219 0
M  V30 3493 H 315.359 -1.37814 0.417516 0
M  V30 3494 H 317.312 -4.01335 -1.28485 0
M  V30 3495 H 316.036 -2.82314 -1.64214 0
M  V30 3496 H 314.695 -3.65176 0.322797 0
M  V30 3497 H 314.343 -4.63717 -1.94874 0
M  V30 3498 H 314.043 -5.83797 -0.667446 0
M  V30 3499 H 315.567 -5.89312 -1.59824 0
M  V30 3500 H 316.981 -5.69436 0.664482 0
M  V30 3501 H 315.378 -5.82445 1.4449 0
M  V30 3502 H 316.448 -4.4753 1.86668 0
M  V30 3503 N 317.792 -0.46758 -1.50504 0
M  V30 3504 C 318.739 0.328413 -2.28452 0
M  V30 3505 C 319.709 0.990313 -1.33349 0
M  V30 3506 O 320.894 1.00343 -1.62284 0
M  V30 3507 C 318.034 1.40648 -3.15138 0
M  V30 3508 C 317.147 0.759709 -4.25267 0
M  V30 3509 C 316.282 1.81537 -4.99217 0
M  V30 3510 C 315.321 1.14866 -6.01226 0
M  V30 3511 N 314.458 2.14702 -6.68467 0
M  V30 3512 H 319.298 -0.342603 -2.96024 0
M  V30 3513 H 316.835 -0.180801 -1.45985 0
M  V30 3514 H 318.793 2.04315 -3.63746 0
M  V30 3515 H 317.423 2.04671 -2.49619 0
M  V30 3516 H 316.475 0.0105671 -3.80399 0
M  V30 3517 H 317.787 0.233243 -4.98254 0
M  V30 3518 H 316.941 2.52793 -5.51526 0
M  V30 3519 H 315.68 2.37564 -4.25928 0
M  V30 3520 H 314.685 0.42171 -5.4818 0
M  V30 3521 H 315.91 0.595334 -6.76485 0
M  V30 3522 H 313.856 2.69752 -5.97972 0
M  V30 3523 H 313.773 1.6703 -7.37317 0
M  V30 3524 H 315.041 2.85348 -7.25394 0
M  V30 3525 N 319.27 1.56325 -0.20005 0
M  V30 3526 C 320.5 2.01811 0.442232 0
M  V30 3527 C 320.908 1.07932 1.55394 0
M  V30 3528 O 320.251 0.0772685 1.83537 0
M  V30 3529 C 320.313 3.43685 1.05457 0
M  V30 3530 C 319.977 4.56928 0.0809833 0
M  V30 3531 C 320.974 5.15009 -0.711471 0
M  V30 3532 C 318.659 5.0229 -0.0315364 0
M  V30 3533 C 320.653 6.16904 -1.60336 0
M  V30 3534 C 318.34 6.04028 -0.926981 0
M  V30 3535 C 319.338 6.6121 -1.71146 0
M  V30 3536 O 319.026 7.60971 -2.59189 0
M  V30 3537 H 318.758 0.666173 0.114848 0
M  V30 3538 H 321.312 2.03085 -0.307511 0
M  V30 3539 H 319.542 3.39413 1.85299 0
M  V30 3540 H 321.231 3.72948 1.60201 0
M  V30 3541 H 321.997 4.80827 -0.634873 0
M  V30 3542 H 317.876 4.57476 0.568902 0
M  V30 3543 H 321.42 6.61464 -2.21611 0
M  V30 3544 H 317.317 6.37634 -1.00468 0
M  V30 3545 H 318.085 7.7841 -2.53023 0
M  V30 3546 N 320.748 -0.0735177 1.57428 0
M  V30 3547 C 321.711 -1.07192 2.02589 0
M  V30 3548 C 322.711 -1.31695 0.922661 0
M  V30 3549 O 323.901 -1.27445 1.18758 0
M  V30 3550 C 321.033 -2.41599 2.40506 0
M  V30 3551 H 322.226 -0.682727 2.92025 0
M  V30 3552 H 319.779 -0.319193 1.53006 0
M  V30 3553 H 320.514 -2.85354 1.5409 0
M  V30 3554 H 320.299 -2.25156 3.21009 0
M  V30 3555 H 321.789 -3.13367 2.76027 0
M  V30 3556 N 322.226 -1.5378 -0.344866 0
M  V30 3557 C 323.473 -1.70963 -1.08526 0
M  V30 3558 C 323.801 -0.472126 -1.88683 0
M  V30 3559 O 323.056 0.546116 -1.87926 0
M  V30 3560 C 323.355 -2.92407 -2.05506 0
M  V30 3561 C 323.021 -4.28066 -1.41671 0
M  V30 3562 C 321.683 -4.64951 -1.2399 0
M  V30 3563 C 324.035 -5.12344 -0.956726 0
M  V30 3564 C 321.363 -5.83733 -0.589277 0
M  V30 3565 C 323.715 -6.3179 -0.320015 0
M  V30 3566 C 322.379 -6.67372 -0.130881 0
M  V30 3567 H 321.649 -0.625598 -0.397124 0
M  V30 3568 H 324.296 -1.87995 -0.36469 0
M  V30 3569 H 322.601 -2.69973 -2.8394 0
M  V30 3570 H 324.298 -3.02895 -2.62784 0
M  V30 3571 H 320.888 -3.99034 -1.56429 0
M  V30 3572 H 325.072 -4.8438 -1.08118 0
M  V30 3573 H 320.328 -6.09877 -0.431344 0
M  V30 3574 H 324.502 -6.96386 0.0445072 0
M  V30 3575 H 322.129 -7.59273 0.375318 0
M  V30 3576 N 323.704 0.605807 -1.45491 0
M  V30 3577 C 324.636 1.73031 -1.5031 0
M  V30 3578 C 325.649 1.57968 -0.393687 0
M  V30 3579 O 326.838 1.65817 -0.660839 0
M  V30 3580 C 323.938 3.11049 -1.34543 0
M  V30 3581 C 323.111 3.52334 -2.59189 0
M  V30 3582 C 322.17 4.69323 -2.37954 0
M  V30 3583 O 321.196 4.7635 -3.11575 0
M  V30 3584 N 322.398 5.62705 -1.4263 0
M  V30 3585 H 325.163 1.6936 -2.4726 0
M  V30 3586 H 322.724 0.79114 -1.41254 0
M  V30 3587 H 324.716 3.87071 -1.18144 0
M  V30 3588 H 323.286 3.09217 -0.458623 0
M  V30 3589 H 322.506 2.66256 -2.90691 0
M  V30 3590 H 323.794 3.76677 -3.42041 0
M  V30 3591 H 323.192 5.59744 -0.818758 0
M  V30 3592 H 321.749 6.38252 -1.32202 0
M  V30 3593 N 325.182 1.32811 0.848464 0
M  V30 3594 C 326.41 1.26739 1.63538 0
M  V30 3595 C 326.825 -0.163484 1.88091 0
M  V30 3596 O 326.182 -1.10258 1.45429 0
M  V30 3597 C 326.233 2.03013 2.99112 0
M  V30 3598 O 325.954 3.40518 2.75643 0
M  V30 3599 C 327.455 2.04038 3.93552 0
M  V30 3600 H 324.675 0.437024 0.509167 0
M  V30 3601 H 327.219 1.75033 1.05753 0
M  V30 3602 H 325.374 1.58426 3.53525 0
M  V30 3603 H 325.788 3.79635 3.61908 0
M  V30 3604 H 327.262 2.61877 4.85926 0
M  V30 3605 H 327.739 1.0282 4.26995 0
M  V30 3606 H 328.345 2.486 3.45077 0
M  V30 3607 N 326.66 -1.06551 1.16123 0
M  V30 3608 C 327.61 -2.12209 0.833736 0
M  V30 3609 C 328.594 -1.59825 -0.185656 0
M  V30 3610 O 329.786 -1.76994 0.0147906 0
M  V30 3611 C 326.915 -3.41674 0.333697 0
M  V30 3612 C 326.001 -4.00892 1.38372 0
M  V30 3613 N 326.392 -4.34256 2.59337 0
M  V30 3614 C 324.69 -4.28463 1.23836 0
M  V30 3615 C 325.391 -4.81291 3.26701 0
M  V30 3616 N 324.367 -4.80565 2.54083 0
M  V30 3617 H 328.169 -2.35849 1.75364 0
M  V30 3618 H 325.683 -1.24068 1.04789 0
M  V30 3619 H 327.68 -4.16822 0.0806918 0
M  V30 3620 H 326.34 -3.19475 -0.58017 0
M  V30 3621 H 327.351 -4.24687 2.96415 0
M  V30 3622 H 324.028 -4.15721 0.38504 0
M  V30 3623 H 325.418 -5.16332 4.29943 0
M  V30 3624 N 328.138 -0.959301 -1.25041 0
M  V30 3625 C 329.415 -0.533805 -1.88175 0
M  V30 3626 C 329.795 0.988994 -1.865 0
M  V30 3627 O 329.143 1.85677 -1.33177 0
M  V30 3628 C 329.353 -1.11575 -3.30684 0
M  V30 3629 C 330.701 -1.19548 -4.07423 0
M  V30 3630 O 331.725 -1.06765 -3.39823 0
M  V30 3631 O 330.584 -1.39656 -5.28354 0
M  V30 3632 H 327.678 -0.176772 -0.807887 0
M  V30 3633 H 330.224 -1.05303 -1.33076 0
M  V30 3634 H 328.996 -2.15884 -3.26358 0
M  V30 3635 H 328.619 -0.580059 -3.93346 0
M  V30 3636 N 329.616 1.39756 -0.72842 0
M  V30 3637 C 331.032 1.5442 -0.403308 0
M  V30 3638 C 331.232 1.69694 1.08656 0
M  V30 3639 O 330.288 1.69373 1.87267 0
M  V30 3640 C 331.601 2.76555 -1.18058 0
M  V30 3641 C 333.149 2.90384 -1.16815 0
M  V30 3642 C 333.624 4.15449 -1.92785 0
M  V30 3643 N 335.115 4.22475 -1.89918 0
M  V30 3644 C 335.85 5.1818 -2.45514 0
M  V30 3645 N 335.346 6.19714 -3.09719 0
M  V30 3646 N 337.139 5.1035 -2.35584 0
M  V30 3647 H 329.29 1.28089 -1.69431 0
M  V30 3648 H 331.553 0.620327 -0.716867 0
M  V30 3649 H 331.259 2.7159 -2.23455 0
M  V30 3650 H 331.133 3.69033 -0.780662 0
M  V30 3651 H 333.52 2.94846 -0.12234 0
M  V30 3652 H 333.601 1.98988 -1.6074 0
M  V30 3653 H 333.245 4.11749 -2.97364 0
M  V30 3654 H 333.175 5.05877 -1.46272 0
M  V30 3655 H 335.666 3.49743 -1.43138 0
M  V30 3656 H 335.979 6.8919 -3.49625 0
M  V30 3657 H 334.324 6.20121 -3.13807 0
M  V30 3658 H 337.515 4.2996 -1.85072 0
M  V30 3659 H 337.688 5.84761 -2.79211 0
M  V30 3660 N 331.094 0.475555 1.50254 0
M  V30 3661 C 332.024 -0.30611 2.31485 0
M  V30 3662 C 333.005 -0.986228 1.38591 0
M  V30 3663 O 334.19 -0.982541 1.67511 0
M  V30 3664 C 331.32 -1.38588 3.1845 0
M  V30 3665 C 330.274 -0.827115 4.19932 0
M  V30 3666 C 329.6 -2.00551 4.95665 0
M  V30 3667 C 330.9 0.16463 5.2204 0
M  V30 3668 H 332.594 0.371866 2.97082 0
M  V30 3669 H 330.14 0.180282 1.42867 0
M  V30 3670 H 332.093 -1.94023 3.74076 0
M  V30 3671 H 330.817 -2.09269 2.50747 0
M  V30 3672 H 329.476 -0.294702 3.65414 0
M  V30 3673 H 329.124 -2.6994 4.2443 0
M  V30 3674 H 328.824 -1.63784 5.64313 0
M  V30 3675 H 330.348 -2.56468 5.54127 0
M  V30 3676 H 331.762 -0.300699 5.72511 0
M  V30 3677 H 330.159 0.446813 5.98434 0
M  V30 3678 H 331.229 1.08905 4.72512 0
M  V30 3679 N 332.573 -1.56217 0.208337 0
M  V30 3680 C 333.813 -1.99849 -0.428927 0
M  V30 3681 C 334.177 -1.09262 -1.57879 0
M  V30 3682 O 335.378 -1.42185 -2.28116 0
M  V30 3683 C 333.649 -3.46777 -0.864879 0
M  V30 3684 S 335.208 -4.12434 -1.49811 0
M  V30 3685 H 332.026 -0.697742 -0.136665 0
M  V30 3686 H 334.628 -1.92953 0.314519 0
M  V30 3687 H 333.332 -4.10396 -0.0181326 0
M  V30 3688 H 332.863 -3.57518 -1.64147 0
M  V30 3689 H 334.878 -4.10532 -2.78707 0
M  V30 3690 N 334.051 0.0651679 -1.57465 0
M  V30 3691 C 335.298 0.763063 -1.87573 0
M  V30 3692 C 335.626 1.77242 -0.800961 0
M  V30 3693 O 334.881 1.94651 0.202316 0
M  V30 3694 C 335.18 1.50081 -3.24362 0
M  V30 3695 C 334.846 0.630816 -4.46466 0
M  V30 3696 C 333.508 0.391082 -4.79608 0
M  V30 3697 C 335.86 0.0279465 -5.21193 0
M  V30 3698 C 333.188 -0.460894 -5.84887 0
M  V30 3699 C 335.54 -0.811522 -6.27373 0
M  V30 3700 C 334.204 -1.06106 -6.59013 0
M  V30 3701 H 333.474 0.279224 -0.686378 0
M  V30 3702 H 336.121 0.0236726 -1.91485 0
M  V30 3703 H 334.426 2.31258 -3.16271 0
M  V30 3704 H 336.123 2.04571 -3.44894 0
M  V30 3705 H 332.713 0.8278 -4.2053 0
M  V30 3706 H 336.897 0.200262 -4.95896 0
M  V30 3707 H 332.153 -0.662907 -6.07796 0
M  V30 3708 H 336.327 -1.28537 -6.84435 0
M  V30 3709 H 333.954 -1.723 -7.40417 0
M  V30 3710 N 335.529 1.53961 0.336706 0
M  V30 3711 C 336.775 1.7179 1.07777 0
M  V30 3712 C 337.108 0.483263 1.88091 0
M  V30 3713 O 336.383 -0.519747 1.87427 0
M  V30 3714 C 336.666 2.98558 2.01334 0
M  V30 3715 C 336.519 4.32245 1.24437 0
M  V30 3716 C 337.838 3.21023 3.01052 0
M  V30 3717 H 334.957 0.625089 0.390426 0
M  V30 3718 H 337.599 1.86641 0.35567 0
M  V30 3719 H 335.749 2.86028 2.62908 0
M  V30 3720 H 337.421 4.56637 0.654243 0
M  V30 3721 H 335.664 4.30344 0.546458 0
M  V30 3722 H 336.335 5.17137 1.93063 0
M  V30 3723 H 338.811 3.32929 2.49595 0
M  V30 3724 H 337.687 4.11104 3.6371 0
M  V30 3725 H 337.948 2.37637 3.72802 0
M  V30 3726 N 337.007 -0.598083 1.45811 0
M  V30 3727 C 337.94 -1.7223 1.49706 0
M  V30 3728 C 338.918 -1.58732 0.352535 0
M  V30 3729 O 340.102 -1.80162 0.554438 0
M  V30 3730 C 337.229 -3.10148 1.3611 0
M  V30 3731 C 336.275 -3.42209 2.54549 0
M  V30 3732 S 337.108 -3.35989 4.16979 0
M  V30 3733 C 338.264 -4.76471 4.05865 0
M  V30 3734 H 338.497 -1.68665 2.44826 0
M  V30 3735 H 336.03 -0.775541 1.33509 0
M  V30 3736 H 337.988 -3.8972 1.28953 0
M  V30 3737 H 336.649 -3.11219 0.424451 0
M  V30 3738 H 335.842 -4.42652 2.40988 0
M  V30 3739 H 335.444 -2.70173 2.58617 0
M  V30 3740 H 337.736 -5.665 3.71596 0
M  V30 3741 H 338.679 -4.95089 5.06253 0
M  V30 3742 H 339.087 -4.52599 3.37364 0
M  V30 3743 N 338.485 -1.33259 -0.841409 0
M  V30 3744 C 339.395 -1.25332 -1.98316 0
M  V30 3745 C 340.411 -0.164364 -1.73222 0
M  V30 3746 O 341.587 -0.387486 -1.97637 0
M  V30 3747 C 338.652 -0.990078 -3.32262 0
M  V30 3748 C 337.713 -2.16879 -3.70489 0
M  V30 3749 C 336.946 -1.91801 -4.98044 0
M  V30 3750 O 337.169 -0.867075 -5.63771 0
M  V30 3751 O 336.103 -2.78267 -5.33714 0
M  V30 3752 H 339.929 -2.21344 -2.07944 0
M  V30 3753 H 337.514 -1.1328 -0.974058 0
M  V30 3754 H 339.396 -0.860321 -4.12524 0
M  V30 3755 H 338.071 -0.0602155 -3.23644 0
M  V30 3756 H 336.978 -2.35407 -2.90748 0
M  V30 3757 H 338.311 -3.0819 -3.8377 0
M  V30 3758 N 339.963 1.05934 -1.16686 0
M  V30 3759 C 341.193 1.82226 -0.973515 0
M  V30 3760 C 341.601 1.8297 0.481532 0
M  V30 3761 O 340.944 1.25009 1.34604 0
M  V30 3762 C 341.006 3.29897 -1.42858 0
M  V30 3763 C 340.67 3.52849 -2.90425 0
M  V30 3764 C 341.667 3.45595 -3.88407 0
M  V30 3765 C 339.352 3.80053 -3.28428 0
M  V30 3766 C 341.346 3.65217 -5.22394 0
M  V30 3767 C 339.033 3.99325 -4.62583 0
M  V30 3768 C 340.031 3.91905 -5.59374 0
M  V30 3769 O 339.719 4.10647 -6.91104 0
M  V30 3770 H 339.451 0.581314 -0.345036 0
M  V30 3771 H 342.005 1.3453 -1.55212 0
M  V30 3772 H 340.235 3.78472 -0.793477 0
M  V30 3773 H 341.924 3.87692 -1.20207 0
M  V30 3774 H 342.69 3.24564 -3.60393 0
M  V30 3775 H 338.569 3.84936 -2.53664 0
M  V30 3776 H 342.113 3.59341 -5.9793 0
M  V30 3777 H 338.01 4.19846 -4.90306 0
M  V30 3778 H 338.778 4.27915 -6.97733 0
M  V30 3779 N 341.441 0.965919 1.2453 0
M  V30 3780 C 342.404 0.499547 2.2369 0
M  V30 3781 C 343.404 -0.40294 1.5567 0
M  V30 3782 O 344.594 -0.19865 1.73064 0
M  V30 3783 C 341.726 -0.276792 3.39774 0
M  V30 3784 H 342.919 1.37613 2.66463 0
M  V30 3785 H 340.472 0.750324 1.37112 0
M  V30 3786 H 341.207 -1.17055 3.02438 0
M  V30 3787 H 340.992 0.370826 3.90343 0
M  V30 3788 H 342.482 -0.592175 4.1338 0
M  V30 3789 N 342.919 -1.39368 0.735821 0
M  V30 3790 C 343.867 -2.32443 0.0855131 0
M  V30 3791 C 344.861 -1.53104 -0.724954 0
M  V30 3792 O 346.067 -1.68762 -0.626047 0
M  V30 3793 H 342.442 -0.751948 0.00885257 0
M  V30 3794 H 344.413 -2.84916 0.886883 0
M  V30 3795 C 343.162 -3.38206 -0.806983 0
M  V30 3796 H 342.485 -3.99335 -0.19274 0
M  V30 3797 H 343.925 -4.05779 -1.2296 0
M  V30 3798 C 342.384 -2.75321 -1.94165 0
M  V30 3799 O 342.914 -2.63231 -3.03435 0
M  V30 3800 N 341.12 -2.33396 -1.73132 0
M  V30 3801 H 340.667 -2.4343 -0.842596 0
M  V30 3802 H 340.625 -1.91661 -2.49225 0
M  V30 3803 N 344.397 -0.483516 -1.5 0
M  V30 3804 C 345.645 0.067027 -2.01989 0
M  V30 3805 C 345.966 1.3909 -1.36671 0
M  V30 3806 O 345.236 1.88978 -0.516152 0
M  V30 3807 H 343.816 0.0277606 -0.746484 0
M  V30 3808 H 346.478 -0.636773 -1.84204 0
M  V30 3809 H 345.574 0.209484 -3.11396 0
M  V30 3810 N 345.875 1.56104 -0.216619 0
M  V30 3811 C 347.123 1.97781 0.415593 0
M  V30 3812 C 347.444 1.10536 1.60645 0
M  V30 3813 O 346.714 0.181303 1.95059 0
M  V30 3814 H 345.294 0.730415 0.156534 0
M  V30 3815 H 347.956 1.92445 -0.308366 0
M  V30 3816 H 347.052 3.03072 0.74525 0
M  V30 3817 N 347.353 -0.0568162 1.57498 0
M  V30 3818 C 348.263 -1.08346 2.08083 0
M  V30 3819 C 349.279 -1.41439 1.01346 0
M  V30 3820 O 350.455 -1.51316 1.32912 0
M  V30 3821 C 347.52 -2.37352 2.52715 0
M  V30 3822 C 346.581 -2.11093 3.73816 0
M  V30 3823 C 345.814 -3.33949 4.1631 0
M  V30 3824 O 346.037 -4.43622 3.58547 0
M  V30 3825 O 344.971 -3.21279 5.08983 0
M  V30 3826 H 348.797 -0.683667 2.95905 0
M  V30 3827 H 346.382 -0.271965 1.46904 0
M  V30 3828 H 348.264 -3.13246 2.81877 0
M  V30 3829 H 346.939 -2.76681 1.68016 0
M  V30 3830 H 345.846 -1.32856 3.49714 0
M  V30 3831 H 347.179 -1.76637 4.59413 0
M  V30 3832 N 348.832 -1.54138 -0.328536 0
M  V30 3833 C 349.762 -1.86167 -1.40939 0
M  V30 3834 C 350.743 -0.718044 -1.54202 0
M  V30 3835 O 351.928 -0.971328 -1.68163 0
M  V30 3836 C 349.058 -2.08461 -2.77779 0
M  V30 3837 C 348.012 -3.24299 -2.7931 0
M  V30 3838 C 347.338 -3.31955 -4.19178 0
M  V30 3839 C 348.638 -4.62065 -2.43502 0
M  V30 3840 H 350.332 -2.76689 -1.14383 0
M  V30 3841 H 347.878 -1.33132 -0.548806 0
M  V30 3842 H 349.831 -2.29453 -3.53454 0
M  V30 3843 H 348.555 -1.14684 -3.05802 0
M  V30 3844 H 347.214 -3.03187 -2.0609 0
M  V30 3845 H 346.862 -2.35745 -4.44335 0
M  V30 3846 H 346.562 -4.09805 -4.2111 0
M  V30 3847 H 348.086 -3.55175 -4.96672 0
M  V30 3848 H 349.5 -4.8297 -3.08889 0
M  V30 3849 H 347.897 -5.42429 -2.56693 0
M  V30 3850 H 348.967 -4.64652 -1.38659 0
M  V30 3851 N 350.31 0.590341 -1.46126 0
M  V30 3852 C 351.557 1.34882 -1.5104 0
M  V30 3853 C 351.885 1.93849 -0.159021 0
M  V30 3854 O 351.14 1.76544 0.844436 0
M  V30 3855 C 351.439 2.5032 -2.55097 0
M  V30 3856 C 351.105 2.09394 -3.99331 0
M  V30 3857 C 349.767 1.97947 -4.38601 0
M  V30 3858 C 352.119 1.77712 -4.89967 0
M  V30 3859 C 349.447 1.53065 -5.66381 0
M  V30 3860 C 351.799 1.34312 -6.18177 0
M  V30 3861 C 350.463 1.21436 -6.56361 0
M  V30 3862 H 349.733 0.493568 -0.552695 0
M  V30 3863 H 352.38 0.665539 -1.79563 0
M  V30 3864 H 350.685 3.24062 -2.20207 0
M  V30 3865 H 352.382 3.08541 -2.56132 0
M  V30 3866 H 348.972 2.19235 -3.68285 0
M  V30 3867 H 353.156 1.85445 -4.60352 0
M  V30 3868 H 348.412 1.41733 -5.94745 0
M  V30 3869 H 352.586 1.08849 -6.87841 0
M  V30 3870 H 350.213 0.864345 -7.5527 0
M  V30 3871 N 351.788 1.33704 0.83433 0
M  V30 3872 C 353.035 1.25417 1.58987 0
M  V30 3873 C 353.363 -0.178869 1.93676 0
M  V30 3874 O 352.618 -1.13723 1.59265 0
M  V30 3875 C 352.917 2.07926 2.90692 0
M  V30 3876 C 352.583 3.57066 2.75345 0
M  V30 3877 C 351.245 3.97724 2.70867 0
M  V30 3878 C 353.597 4.51817 2.59828 0
M  V30 3879 C 350.925 5.31344 2.48778 0
M  V30 3880 C 353.277 5.85604 2.39272 0
M  V30 3881 C 351.941 6.25439 2.33199 0
M  V30 3882 H 351.211 0.458934 0.581774 0
M  V30 3883 H 353.858 1.65335 0.966261 0
M  V30 3884 H 352.163 1.608 3.57282 0
M  V30 3885 H 353.86 1.98868 3.48213 0
M  V30 3886 H 350.45 3.24785 2.79665 0
M  V30 3887 H 354.634 4.21311 2.62319 0
M  V30 3888 H 349.89 5.61241 2.42526 0
M  V30 3889 H 354.064 6.58623 2.2625 0
M  V30 3890 H 351.691 7.28914 2.15843 0
M  V30 3891 N 353.266 -1.05314 1.17247 0
M  V30 3892 C 354.216 -2.11313 0.856196 0
M  V30 3893 C 355.2 -1.60013 -0.168694 0
M  V30 3894 O 356.392 -1.76968 0.0335624 0
M  V30 3895 C 353.521 -3.41301 0.369917 0
M  V30 3896 C 352.607 -3.99401 1.42616 0
M  V30 3897 N 352.998 -4.31481 2.63928 0
M  V30 3898 C 351.296 -4.27126 1.28373 0
M  V30 3899 C 351.997 -4.77799 3.31787 0
M  V30 3900 N 350.973 -4.77843 2.59166 0
M  V30 3901 H 354.775 -2.33976 1.77856 0
M  V30 3902 H 352.289 -1.2295 1.06099 0
M  V30 3903 H 354.286 -4.16713 0.124897 0
M  V30 3904 H 352.946 -3.20072 -0.546253 0
M  V30 3905 H 353.957 -4.21519 3.00902 0
M  V30 3906 H 350.634 -4.15289 0.429111 0
M  V30 3907 H 352.024 -5.11743 4.35395 0
M  V30 3908 N 354.744 -0.972509 -1.24016 0
M  V30 3909 C 355.674 -0.525548 -2.27509 0
M  V30 3910 C 356.655 0.437262 -1.64384 0
M  V30 3911 O 357.84 0.332343 -1.91335 0
M  V30 3912 C 354.97 0.180448 -3.46831 0
M  V30 3913 C 353.924 -0.698859 -4.22256 0
M  V30 3914 C 353.25 0.138903 -5.3452 0
M  V30 3915 C 354.55 -1.98582 -4.83076 0
M  V30 3916 H 356.244 -1.39058 -2.65148 0
M  V30 3917 H 353.79 -0.67009 -1.27459 0
M  V30 3918 H 355.743 0.504387 -4.18371 0
M  V30 3919 H 354.467 1.07987 -3.08231 0
M  V30 3920 H 353.126 -1.00614 -3.52523 0
M  V30 3921 H 352.774 1.03862 -4.9216 0
M  V30 3922 H 352.474 -0.446259 -5.85903 0
M  V30 3923 H 353.998 0.457404 -6.08884 0
M  V30 3924 H 355.412 -1.72715 -5.46665 0
M  V30 3925 H 353.809 -2.5181 -5.44713 0
M  V30 3926 H 354.879 -2.67769 -4.04262 0
M  V30 3927 N 356.222 1.38976 -0.743202 0
M  V30 3928 C 357.447 2.05161 -0.303936 0
M  V30 3929 C 357.872 1.55677 1.05576 0
M  V30 3930 O 357.23 0.704131 1.67068 0
M  V30 3931 C 357.278 3.59138 -0.324373 0
M  V30 3932 O 356.382 4.06668 0.685204 0
M  V30 3933 H 355.723 0.649815 -0.136518 0
M  V30 3934 H 358.253 1.77852 -1.01142 0
M  V30 3935 H 358.263 4.07639 -0.171618 0
M  V30 3936 H 356.938 3.94515 -1.31647 0
M  V30 3937 H 355.515 3.69561 0.497913 0
M  V30 3938 N 357.7 0.491464 1.49741 0
M  V30 3939 C 359.116 0.146835 1.58923 0
M  V30 3940 C 359.316 -1.34804 1.49767 0
M  V30 3941 O 358.372 -2.12317 1.36667 0
M  V30 3942 C 359.685 0.715157 2.92072 0
M  V30 3943 C 361.233 0.680407 3.05515 0
M  V30 3944 C 361.708 1.22663 4.41269 0
M  V30 3945 N 363.199 1.18691 4.47735 0
M  V30 3946 C 363.934 1.57984 5.51207 0
M  V30 3947 N 363.43 2.04824 6.6183 0
M  V30 3948 N 365.223 1.49459 5.41866 0
M  V30 3949 H 357.374 1.46347 1.53936 0
M  V30 3950 H 359.637 0.606453 0.728642 0
M  V30 3951 H 359.343 1.76317 3.04311 0
M  V30 3952 H 359.217 0.17018 3.76816 0
M  V30 3953 H 361.604 -0.358743 2.92911 0
M  V30 3954 H 361.685 1.26242 2.22478 0
M  V30 3955 H 361.329 2.26451 4.54623 0
M  V30 3956 H 361.259 0.620637 5.2293 0
M  V30 3957 H 363.75 0.843605 3.68364 0
M  V30 3958 H 364.063 2.32901 7.3687 0
M  V30 3959 H 362.408 2.08791 6.62896 0
M  V30 3960 H 365.599 1.12692 4.54333 0
M  V30 3961 H 365.772 1.80406 6.22381 0
M  V30 3962 N 359.178 -1.55987 0.224894 0
M  V30 3963 C 360.088 -2.24066 -0.69511 0
M  V30 3964 C 361.104 -1.24939 -1.21104 0
M  V30 3965 O 362.28 -1.5776 -1.25195 0
M  V30 3966 C 359.345 -2.90983 -1.88493 0
M  V30 3967 C 358.406 -4.05462 -1.41064 0
M  V30 3968 C 357.639 -4.69179 -2.54375 0
M  V30 3969 O 357.862 -4.31895 -3.72589 0
M  V30 3970 O 356.796 -5.58108 -2.25386 0
M  V30 3971 H 360.622 -3.03353 -0.145149 0
M  V30 3972 H 358.207 -1.49399 -0.00569476 0
M  V30 3973 H 360.089 -3.33209 -2.57972 0
M  V30 3974 H 358.764 -2.14653 -2.42293 0
M  V30 3975 H 357.671 -3.67798 -0.683774 0
M  V30 3976 H 359.004 -4.83545 -0.918985 0
M  V30 3977 N 360.656 0.0484629 -1.57525 0
M  V30 3978 C 362.072 0.40375 -1.54409 0
M  V30 3979 C 362.272 1.77786 -0.948384 0
M  V30 3980 O 361.328 2.46189 -0.560983 0
M  V30 3981 C 362.641 0.323394 -2.98956 0
M  V30 3982 C 364.189 0.401892 -3.10409 0
M  V30 3983 C 364.664 0.351195 -4.56652 0
M  V30 3984 N 366.155 0.410576 -4.61377 0
M  V30 3985 C 366.89 0.393933 -5.72045 0
M  V30 3986 N 366.386 0.330724 -6.9201 0
M  V30 3987 N 368.179 0.442227 -5.60358 0
M  V30 3988 H 360.33 -0.851016 -1.94606 0
M  V30 3989 H 362.593 -0.321721 -0.89174 0
M  V30 3990 H 362.299 -0.62011 -3.4619 0
M  V30 3991 H 362.173 1.12463 -3.60044 0
M  V30 3992 H 364.56 1.33582 -2.63134 0
M  V30 3993 H 364.641 -0.428342 -2.52188 0
M  V30 3994 H 364.285 -0.578987 -5.04589 0
M  V30 3995 H 364.215 1.19928 -5.12762 0
M  V30 3996 H 366.706 0.462729 -3.75056 0
M  V30 3997 H 367.019 0.322592 -7.72126 0
M  V30 3998 H 365.364 0.29706 -6.94365 0
M  V30 3999 H 368.555 0.489464 -4.65534 0
M  V30 4000 H 368.728 0.425788 -6.466 0
M  V30 4001 N 362.134 1.5431 0.320358 0
M  V30 4002 C 363.38 1.72924 1.05949 0
M  V30 4003 C 363.713 0.503185 1.87568 0
M  V30 4004 O 362.988 -0.499839 1.87968 0
M  V30 4005 C 363.271 3.00676 1.98156 0
M  V30 4006 C 363.124 4.3354 1.19845 0
M  V30 4007 C 364.443 3.24198 2.9763 0
M  V30 4008 H 361.562 0.629195 0.383774 0
M  V30 4009 H 364.204 1.87008 0.335854 0
M  V30 4010 H 362.354 2.888 2.59859 0
M  V30 4011 H 364.026 4.57305 0.605773 0
M  V30 4012 H 362.269 4.309 0.500784 0
M  V30 4013 H 362.94 5.19156 1.87567 0
M  V30 4014 H 365.416 3.35557 2.4605 0
M  V30 4015 H 364.292 4.14938 3.59329 0
M  V30 4016 H 364.553 2.41577 3.7026 0
M  V30 4017 N 363.613 -0.582584 1.46437 0
M  V30 4018 C 364.86 -1.34079 1.51753 0
M  V30 4019 C 365.188 -1.93762 0.169299 0
M  V30 4020 O 364.443 -1.76989 -0.835062 0
M  V30 4021 C 364.742 -2.48964 2.56421 0
M  V30 4022 C 364.408 -2.07273 4.00436 0
M  V30 4023 C 363.07 -1.95618 4.39644 0
M  V30 4024 C 365.422 -1.75111 4.90903 0
M  V30 4025 C 362.75 -1.5006 5.67185 0
M  V30 4026 C 365.102 -1.31032 6.18881 0
M  V30 4027 C 363.766 -1.17954 6.56996 0
M  V30 4028 H 363.036 -0.49063 0.555304 0
M  V30 4029 H 365.683 -0.656007 1.79913 0
M  V30 4030 H 363.988 -3.22889 2.21923 0
M  V30 4031 H 365.685 -3.07178 2.57765 0
M  V30 4032 H 362.275 -2.17279 3.69443 0
M  V30 4033 H 366.459 -1.83001 4.61329 0
M  V30 4034 H 361.715 -1.38577 5.95488 0
M  V30 4035 H 365.889 -1.052 6.88408 0
M  V30 4036 H 363.516 -0.824279 7.55718 0
M  V30 4037 N 365.091 -1.34144 -0.827227 0
M  V30 4038 C 366.319 -1.29325 -1.61501 0
M  V30 4039 C 366.734 0.13354 -1.88327 0
M  V30 4040 O 366.091 1.0793 -1.47164 0
M  V30 4041 C 366.142 -2.07746 -2.95844 0
M  V30 4042 O 365.863 -3.4486 -2.70191 0
M  V30 4043 C 367.364 -2.10273 -3.90256 0
M  V30 4044 H 364.584 -0.445069 -0.50215 0
M  V30 4045 H 367.128 -1.76693 -1.02955 0
M  V30 4046 H 365.283 -1.6403 -3.5096 0
M  V30 4047 H 365.697 -3.85345 -3.55822 0
M  V30 4048 H 367.171 -2.69575 -4.81698 0
M  V30 4049 H 367.648 -1.096 -4.25305 0
M  V30 4050 H 368.254 -2.54059 -3.41078 0
M  V30 4051 N 366.569 1.04691 -1.17803 0
M  V30 4052 C 367.479 2.16057 -0.914151 0
M  V30 4053 C 368.495 1.73589 0.119503 0
M  V30 4054 O 369.671 2.01308 -0.0609468 0
M  V30 4055 C 366.736 3.4394 -0.436603 0
M  V30 4056 C 365.797 4.00825 -1.53746 0
M  V30 4057 C 365.03 5.22604 -1.0826 0
M  V30 4058 O 365.253 5.70367 0.0612244 0
M  V30 4059 O 364.187 5.7186 -1.87775 0
M  V30 4060 H 368.013 2.41169 -1.84584 0
M  V30 4061 H 365.598 1.1453 -0.959334 0
M  V30 4062 H 367.48 4.21024 -0.178057 0
M  V30 4063 H 366.155 3.20316 0.466869 0
M  V30 4064 H 365.062 3.25158 -1.84995 0
M  V30 4065 H 366.395 4.28778 -2.41683 0
M  V30 4066 N 368.047 0.979072 1.23499 0
M  V30 4067 C 368.957 0.526431 2.28617 0
M  V30 4068 C 369.973 -0.418126 1.68901 0
M  V30 4069 O 371.149 -0.288372 1.99325 0
M  V30 4070 C 368.214 -0.165235 3.46306 0
M  V30 4071 C 367.275 0.82056 4.21385 0
M  V30 4072 C 366.508 0.161807 5.33455 0
M  V30 4073 O 366.731 -1.04742 5.60701 0
M  V30 4074 O 365.665 0.859708 5.95729 0
M  V30 4075 H 369.491 1.4006 2.69475 0
M  V30 4076 H 367.076 0.746643 1.29405 0
M  V30 4077 H 368.958 -0.553287 4.17752 0
M  V30 4078 H 367.633 -1.01419 3.07402 0
M  V30 4079 H 366.54 1.25929 3.52268 0
M  V30 4080 H 367.873 1.63828 4.64135 0
M  V30 4081 N 369.525 -1.3858 0.750561 0
M  V30 4082 C 370.941 -1.53759 0.427824 0
M  V30 4083 C 371.141 -1.71401 -1.05943 0
M  V30 4084 O 370.197 -1.72331 -1.84549 0
M  V30 4085 C 371.51 -2.74642 1.22443 0
M  V30 4086 C 373.058 -2.88489 1.2142 0
M  V30 4087 C 373.533 -4.12329 1.9937 0
M  V30 4088 N 375.024 -4.194 1.96616 0
M  V30 4089 C 375.759 -5.14209 2.53727 0
M  V30 4090 N 375.255 -6.14709 3.19539 0
M  V30 4091 N 377.048 -5.06537 2.43673 0
M  V30 4092 H 369.199 -1.25377 1.71447 0
M  V30 4093 H 371.462 -0.608844 0.726645 0
M  V30 4094 H 371.168 -2.68 2.27747 0
M  V30 4095 H 371.042 -3.67745 0.839273 0
M  V30 4096 H 373.429 -2.94614 0.169232 0
M  V30 4097 H 373.51 -1.96406 1.63885 0
M  V30 4098 H 373.154 -4.06966 3.03877 0
M  V30 4099 H 373.084 -5.03486 1.54302 0
M  V30 4100 H 375.575 -3.47421 1.48684 0
M  V30 4101 H 375.888 -6.8354 3.60545 0
M  V30 4102 H 374.233 -6.1505 3.23633 0
M  V30 4103 H 377.424 -4.26962 1.91889 0
M  V30 4104 H 377.597 -5.80245 2.88479 0
M  V30 4105 N 371.003 -0.499398 -1.49478 0
M  V30 4106 C 371.966 0.268838 -2.27618 0
M  V30 4107 C 372.966 0.895383 -1.33565 0
M  V30 4108 O 374.156 0.760164 -1.56739 0
M  V30 4109 C 371.288 1.38559 -3.11471 0
M  V30 4110 H 372.481 -0.416812 -2.96989 0
M  V30 4111 H 370.034 -0.254313 -1.54217 0
M  V30 4112 H 370.769 2.10544 -2.46661 0
M  V30 4113 H 370.554 0.941797 -3.80621 0
M  V30 4114 H 372.044 1.92678 -3.70493 0
M  V30 4115 N 372.481 1.55866 -0.233164 0
M  V30 4116 C 373.897 1.59133 0.121988 0
M  V30 4117 C 374.097 1.25016 1.58029 0
M  V30 4118 O 373.153 0.990922 2.32243 0
M  V30 4119 C 374.466 2.99932 -0.214792 0
M  V30 4120 C 376.014 3.12601 -0.157971 0
M  V30 4121 C 376.489 4.55597 -0.46859 0
M  V30 4122 N 377.98 4.61305 -0.418585 0
M  V30 4123 C 378.715 5.69903 -0.63227 0
M  V30 4124 N 378.211 6.86819 -0.90835 0
M  V30 4125 N 380.004 5.59264 -0.563913 0
M  V30 4126 H 372.155 1.76315 -1.18434 0
M  V30 4127 H 374.418 0.820093 -0.475553 0
M  V30 4128 H 374.124 3.29588 -1.22739 0
M  V30 4129 H 373.998 3.74327 0.464691 0
M  V30 4130 H 376.385 2.82735 0.845283 0
M  V30 4131 H 376.466 2.40511 -0.871102 0
M  V30 4132 H 376.11 4.86182 -1.46934 0
M  V30 4133 H 376.04 5.25928 0.265865 0
M  V30 4134 H 378.531 3.77297 -0.213368 0
M  V30 4135 H 378.844 7.65507 -1.05919 0
M  V30 4136 H 377.189 6.88536 -0.945673 0
M  V30 4137 H 380.38 4.66802 -0.348372 0
M  V30 4138 H 380.553 6.43831 -0.733847 0
M  V30 4139 N 373.959 -0.0401083 1.57549 0
M  V30 4140 C 375.206 -0.733125 1.88763 0
M  V30 4141 C 375.534 -1.75946 0.829058 0
M  V30 4142 O 374.789 -1.94949 -0.171323 0
M  V30 4143 C 375.088 -1.44902 3.26708 0
M  V30 4144 C 374.754 -0.559707 4.47413 0
M  V30 4145 C 373.416 -0.314731 4.8017 0
M  V30 4146 C 375.768 0.0549743 5.21171 0
M  V30 4147 C 373.096 0.553886 5.8408 0
M  V30 4148 C 375.448 0.911229 6.26003 0
M  V30 4149 C 374.112 1.16577 6.57241 0
M  V30 4150 H 373.382 -0.268269 0.690733 0
M  V30 4151 H 376.029 0.00679408 1.91499 0
M  V30 4152 H 374.334 -2.26197 3.1991 0
M  V30 4153 H 376.031 -1.99058 3.48105 0
M  V30 4154 H 372.621 -0.760793 4.21794 0
M  V30 4155 H 376.805 -0.121344 4.96152 0
M  V30 4156 H 372.061 0.759518 6.06664 0
M  V30 4157 H 376.235 1.3941 6.82303 0
M  V30 4158 H 373.862 1.84058 7.37582 0
M  V30 4159 N 375.437 -1.54477 -0.31217 0
M  V30 4160 C 376.667 -1.76948 -1.06645 0
M  V30 4161 C 377.075 -0.523593 -1.81811 0
M  V30 4162 O 376.418 0.51578 -1.76311 0
M  V30 4163 C 376.48 -2.91668 -2.10166 0
M  V30 4164 C 376.144 -4.30165 -1.54296 0
M  V30 4165 C 377.141 -5.10603 -0.978793 0
M  V30 4166 C 374.826 -4.76738 -1.58196 0
M  V30 4167 C 376.82 -6.3573 -0.461048 0
M  V30 4168 C 374.507 -6.01831 -1.06034 0
M  V30 4169 C 375.505 -6.81161 -0.500844 0
M  V30 4170 O 375.193 -8.03899 0.0128958 0
M  V30 4171 H 374.925 -0.594088 -0.322546 0
M  V30 4172 H 377.479 -2.02213 -0.360441 0
M  V30 4173 H 375.709 -2.62001 -2.84416 0
M  V30 4174 H 377.398 -3.01817 -2.71406 0
M  V30 4175 H 378.164 -4.75771 -0.941651 0
M  V30 4176 H 374.043 -4.15027 -2.00683 0
M  V30 4177 H 377.587 -6.97596 -0.0236894 0
M  V30 4178 H 373.484 -6.36152 -1.09459 0
M  V30 4179 H 374.252 -8.18437 -0.101457 0
M  V30 4180 N 376.915 0.57481 -1.46744 0
M  V30 4181 C 378.163 1.33009 -1.52161 0
M  V30 4182 C 378.484 1.94185 -0.178092 0
M  V30 4183 O 377.754 1.7899 0.796196 0
M  V30 4184 H 376.334 0.493873 -0.560445 0
M  V30 4185 H 378.996 0.672589 -1.82927 0
M  V30 4186 H 378.092 2.13273 -2.27862 0
M  V30 4187 N 378.394 1.34581 0.820102 0
M  V30 4188 C 379.357 1.2628 1.91275 0
M  V30 4189 C 380.357 0.177344 1.59819 0
M  V30 4190 O 381.547 0.430156 1.68806 0
M  V30 4191 C 378.679 0.950327 3.27386 0
M  V30 4192 H 379.872 2.23421 2.00057 0
M  V30 4193 H 377.425 1.1891 1.0144 0
M  V30 4194 H 378.16 -0.0177938 3.24295 0
M  V30 4195 H 377.945 1.73549 3.51601 0
M  V30 4196 H 379.435 0.917492 4.07396 0
M  V30 4197 N 379.872 -1.04064 1.18357 0
M  V30 4198 C 380.782 -2.15569 0.925596 0
M  V30 4199 C 381.798 -1.7365 -0.110295 0
M  V30 4200 O 382.974 -2.01273 0.0716218 0
M  V30 4201 C 380.039 -3.43704 0.454836 0
M  V30 4202 C 379.1 -4.00004 1.55869 0
M  V30 4203 C 378.333 -5.22023 1.1103 0
M  V30 4204 O 378.556 -5.70392 -0.0309756 0
M  V30 4205 O 377.49 -5.70856 1.90805 0
M  V30 4206 H 381.316 -2.40187 1.8586 0
M  V30 4207 H 378.901 -1.1402 0.965394 0
M  V30 4208 H 380.783 -4.20923 0.200382 0
M  V30 4209 H 379.458 -3.20559 -0.449876 0
M  V30 4210 H 378.365 -3.24172 1.86716 0
M  V30 4211 H 379.698 -4.2749 2.43953 0
M  V30 4212 N 381.35 -0.985608 -1.22978 0
M  V30 4213 C 382.599 -0.652881 -1.90841 0
M  V30 4214 C 382.912 0.817842 -1.77681 0
M  V30 4215 O 384.118 1.26185 -2.40395 0
M  V30 4216 C 382.574 -1.11717 -3.42122 0
M  V30 4217 C 382.182 -2.6126 -3.63933 0
M  V30 4218 C 383.926 -0.85843 -4.1573 0
M  V30 4219 C 381.833 -3.0133 -5.08876 0
M  V30 4220 H 380.763 -0.240491 -0.714619 0
M  V30 4221 H 383.414 -1.1942 -1.39324 0
M  V30 4222 H 381.796 -0.504027 -3.92779 0
M  V30 4223 H 382.97 -3.27858 -3.23799 0
M  V30 4224 H 381.285 -2.84937 -3.03644 0
M  V30 4225 H 383.882 -1.13359 -5.22546 0
M  V30 4226 H 384.225 0.205461 -4.15793 0
M  V30 4227 H 384.758 -1.43341 -3.71077 0
M  V30 4228 H 381.497 -4.06864 -5.13947 0
M  V30 4229 H 381.017 -2.3943 -5.49939 0
M  V30 4230 H 382.696 -2.92224 -5.77247 0
M  V30 4231 N 382.828 1.3818 -0.7579 0
M  V30 4232 C 384.074 2.00316 -0.316453 0
M  V30 4233 C 384.407 1.60026 1.10025 0
M  V30 4234 O 383.682 0.839835 1.75434 0
M  V30 4235 C 383.965 3.57349 -0.444245 0
M  V30 4236 C 383.818 4.07591 -1.90236 0
M  V30 4237 C 385.137 4.3981 0.1598 0
M  V30 4238 H 382.256 0.727741 -0.116459 0
M  V30 4239 H 384.898 1.6406 -0.958352 0
M  V30 4240 H 383.048 3.88365 0.102233 0
M  V30 4241 H 384.72 3.87199 -2.50748 0
M  V30 4242 H 382.963 3.60297 -2.41595 0
M  V30 4243 H 383.634 5.16677 -1.94291 0
M  V30 4244 H 386.11 4.14971 -0.306314 0
M  V30 4245 H 384.986 5.48885 0.0401675 0
M  V30 4246 H 385.247 4.24102 1.24859 0
M  V30 4247 N 384.306 0.507319 1.49211 0
M  V30 4248 C 385.531 -0.033725 2.07373 0
M  V30 4249 C 385.956 -1.29485 1.36437 0
M  V30 4250 O 385.314 -1.76294 0.423087 0
M  V30 4251 C 385.362 -0.263945 3.59633 0
M  V30 4252 O 384.466 -1.33737 3.90113 0
M  V30 4253 H 383.807 0.0290331 0.663365 0
M  V30 4254 H 386.337 0.708749 1.91932 0
M  V30 4255 H 386.347 -0.493536 4.05004 0
M  V30 4256 H 385.022 0.657424 4.10671 0
M  V30 4257 H 383.599 -1.09224 3.56545 0
M  V30 4258 N 385.784 -1.5574 0.241426 0
M  V30 4259 C 386.747 -2.19877 -0.647063 0
M  V30 4260 C 387.747 -1.16642 -1.10686 0
M  V30 4261 O 388.937 -1.41757 -1.01245 0
M  V30 4262 C 386.069 -2.83797 -1.88871 0
M  V30 4263 H 387.262 -2.99772 -0.087574 0
M  V30 4264 H 384.815 -1.56298 -0.00813574 0
M  V30 4265 H 385.55 -2.07824 -2.48957 0
M  V30 4266 H 385.335 -3.59414 -1.56728 0
M  V30 4267 H 386.825 -3.32898 -2.52129 0
M  V30 4268 N 387.262 0.0317525 -1.57568 0
M  V30 4269 C 388.192 1.03274 -2.0942 0
M  V30 4270 C 389.173 1.3788 -0.996143 0
M  V30 4271 O 390.358 1.46811 -1.27122 0
M  V30 4272 C 387.488 2.33448 -2.57137 0
M  V30 4273 C 386.442 2.13091 -3.71182 0
M  V30 4274 C 385.768 3.49001 -4.05095 0
M  V30 4275 C 387.068 1.51928 -4.99715 0
M  V30 4276 H 388.762 0.60112 -2.93303 0
M  V30 4277 H 386.308 0.287705 -1.41097 0
M  V30 4278 H 388.261 3.03802 -2.92032 0
M  V30 4279 H 386.985 2.78665 -1.70333 0
M  V30 4280 H 385.644 1.45171 -3.36632 0
M  V30 4281 H 385.292 3.91862 -3.15362 0
M  V30 4282 H 384.992 3.36207 -4.81911 0
M  V30 4283 H 386.516 4.20721 -4.42522 0
M  V30 4284 H 387.93 2.12196 -5.32584 0
M  V30 4285 H 386.327 1.49716 -5.81124 0
M  V30 4286 H 387.397 0.484811 -4.8247 0
M  V30 4287 N 388.74 1.54641 0.303973 0
M  V30 4288 C 389.65 1.88439 1.39743 0
M  V30 4289 C 390.666 0.778239 1.55626 0
M  V30 4290 O 391.842 1.07442 1.70347 0
M  V30 4291 C 388.907 2.12212 2.74166 0
M  V30 4292 C 387.968 3.35936 2.67293 0
M  V30 4293 C 387.201 3.58566 3.95305 0
M  V30 4294 O 387.424 2.84263 4.9452 0
M  V30 4295 O 386.358 4.52078 3.97378 0
M  V30 4296 H 390.184 2.81458 1.14083 0
M  V30 4297 H 387.769 1.40793 0.499768 0
M  V30 4298 H 389.651 2.29067 3.53704 0
M  V30 4299 H 388.326 1.22379 2.99675 0
M  V30 4300 H 387.233 3.24448 1.86237 0
M  V30 4301 H 388.566 4.2589 2.46736 0
M  V30 4302 N 390.218 -0.567019 1.47046 0
M  V30 4303 C 391.448 -1.34831 1.56538 0
M  V30 4304 C 391.856 -1.8802 0.21101 0
M  V30 4305 O 391.199 -1.65152 -0.804387 0
M  V30 4306 C 391.261 -2.56139 2.52256 0
M  V30 4307 C 390.925 -2.24307 3.98165 0
M  V30 4308 C 391.922 -1.82192 4.86931 0
M  V30 4309 C 389.607 -2.35968 4.43423 0
M  V30 4310 C 391.601 -1.52153 6.18973 0
M  V30 4311 C 389.288 -2.05542 5.75496 0
M  V30 4312 C 390.286 -1.63701 6.63092 0
M  V30 4313 O 389.974 -1.33657 7.92711 0
M  V30 4314 H 389.706 -0.417683 0.531523 0
M  V30 4315 H 392.26 -0.694726 1.93294 0
M  V30 4316 H 390.49 -3.24356 2.10548 0
M  V30 4317 H 392.179 -3.18214 2.51982 0
M  V30 4318 H 392.945 -1.72684 4.53217 0
M  V30 4319 H 388.824 -2.67495 3.75456 0
M  V30 4320 H 392.368 -1.19421 6.87302 0
M  V30 4321 H 388.265 -2.14679 6.08755 0
M  V30 4322 H 389.033 -1.4737 8.05124 0
M  V30 4323 N 391.696 -1.35014 -0.812953 0
M  V30 4324 C 392.626 -1.30069 -1.93919 0
M  V30 4325 C 393.607 -0.176275 -1.69184 0
M  V30 4326 O 394.792 -0.370227 -1.90638 0
M  V30 4327 C 391.922 -1.06547 -3.30552 0
M  V30 4328 C 390.876 -2.15561 -3.69753 0
M  V30 4329 C 390.202 -1.77214 -5.04479 0
M  V30 4330 C 391.502 -3.57476 -3.808 0
M  V30 4331 H 393.196 -2.24303 -1.98314 0
M  V30 4332 H 390.742 -1.07977 -0.952736 0
M  V30 4333 H 392.695 -1.01729 -4.08937 0
M  V30 4334 H 391.419 -0.0875719 -3.26483 0
M  V30 4335 H 390.078 -2.19466 -2.9365 0
M  V30 4336 H 389.726 -0.780589 -4.96906 0
M  V30 4337 H 389.426 -2.50184 -5.31678 0
M  V30 4338 H 390.95 -1.7391 -5.8531 0
M  V30 4339 H 392.364 -3.55929 -4.4943 0
M  V30 4340 H 390.761 -4.29152 -4.19462 0
M  V30 4341 H 391.831 -3.94091 -2.82525 0
M  V30 4342 N 393.175 1.03435 -1.18907 0
M  V30 4343 C 394.125 2.09924 -0.889706 0
M  V30 4344 C 395.109 1.60261 0.143216 0
M  V30 4345 O 396.301 1.76892 -0.0617122 0
M  V30 4346 C 393.43 3.40669 -0.424168 0
M  V30 4347 C 392.516 3.97082 -1.48952 0
M  V30 4348 N 392.907 4.27227 -2.70759 0
M  V30 4349 C 391.205 4.25029 -1.35152 0
M  V30 4350 C 391.906 4.7246 -3.39347 0
M  V30 4351 N 390.882 4.7366 -2.66735 0
M  V30 4352 H 394.684 2.31116 -1.81555 0
M  V30 4353 H 392.198 1.21246 -1.08042 0
M  V30 4354 H 394.195 4.16461 -0.191176 0
M  V30 4355 H 392.855 3.20901 0.495263 0
M  V30 4356 H 393.866 4.16678 -3.0757 0
M  V30 4357 H 390.543 4.14554 -0.495126 0
M  V30 4358 H 391.933 5.04751 -4.43481 0
M  V30 4359 N 394.653 0.992116 1.22453 0
M  V30 4360 C 395.878 0.685644 1.95739 0
M  V30 4361 C 396.303 -0.743 1.72804 0
M  V30 4362 O 395.661 -1.50778 1.00676 0
M  V30 4363 C 395.709 0.996293 3.46564 0
M  V30 4364 O 394.813 0.0945512 4.12292 0
M  V30 4365 H 394.154 0.256694 0.612376 0
M  V30 4366 H 396.684 1.32888 1.5557 0
M  V30 4367 H 396.694 0.93781 3.97076 0
M  V30 4368 H 395.369 2.03733 3.62582 0
M  V30 4369 H 393.946 0.208451 3.72317 0
M  V30 4370 N 396.131 -1.37776 0.765217 0
M  V30 4371 C 397.547 -1.53297 0.444108 0
M  V30 4372 C 397.747 -1.72515 -1.04119 0
M  V30 4373 O 396.803 -1.74278 -1.82711 0
M  V30 4374 C 398.116 -2.73328 1.25349 0
M  V30 4375 C 399.664 -2.87185 1.24473 0
M  V30 4376 C 400.139 -4.10191 2.03733 0
M  V30 4377 N 401.63 -4.17291 2.01053 0
M  V30 4378 C 402.365 -5.11488 2.59166 0
M  V30 4379 N 401.861 -6.11285 3.26041 0
M  V30 4380 N 403.654 -5.03924 2.49032 0
M  V30 4381 H 395.805 -1.23552 1.72768 0
M  V30 4382 H 398.068 -0.601103 0.733062 0
M  V30 4383 H 397.774 -2.6557 2.30577 0
M  V30 4384 H 397.648 -3.66834 0.87823 0
M  V30 4385 H 400.035 -2.94418 0.20047 0
M  V30 4386 H 400.116 -1.94657 1.65959 0
M  V30 4387 H 399.76 -4.0372 3.08176 0
M  V30 4388 H 399.69 -5.01821 1.59633 0
M  V30 4389 H 402.181 -3.45825 1.5236 0
M  V30 4390 H 402.494 -6.79678 3.67774 0
M  V30 4391 H 400.839 -6.11583 3.30138 0
M  V30 4392 H 404.03 -4.24902 1.96407 0
M  V30 4393 H 404.203 -5.77152 2.94617 0
M  V30 4394 N 397.609 -0.515225 -1.4894 0
M  V30 4395 C 398.886 0.0879088 -1.95402 0
M  V30 4396 C 399.266 1.52745 -1.45712 0
M  V30 4397 O 398.614 2.18238 -0.677093 0
M  V30 4398 C 398.824 -0.0141055 -3.48997 0
M  V30 4399 C 400.172 0.152646 -4.24326 0
M  V30 4400 O 401.196 0.0604025 -3.56149 0
M  V30 4401 O 400.055 0.34384 -5.45417 0
M  V30 4402 H 397.149 0.0874636 -0.822362 0
M  V30 4403 H 399.695 -0.578775 -1.59525 0
M  V30 4404 H 398.467 -1.01745 -3.77841 0
M  V30 4405 H 398.09 0.692091 -3.9153 0
M  V30 4406 N 399.087 1.5561 -0.249682 0
M  V30 4407 C 400.333 1.99306 0.374841 0
M  V30 4408 C 400.666 1.13767 1.57387 0
M  V30 4409 O 399.941 0.201711 1.93451 0
M  V30 4410 C 400.224 3.51507 0.781986 0
M  V30 4411 C 400.077 4.4781 -0.422629 0
M  V30 4412 C 401.396 4.08884 1.62793 0
M  V30 4413 H 398.515 0.724572 0.134773 0
M  V30 4414 H 401.157 1.86719 -0.351549 0
M  V30 4415 H 399.307 3.62363 1.4009 0
M  V30 4416 H 400.979 4.48931 -1.06108 0
M  V30 4417 H 399.222 4.20518 -1.06524 0
M  V30 4418 H 399.893 5.51919 -0.0943766 0
M  V30 4419 H 402.369 4.01147 1.10547 0
M  V30 4420 H 401.245 5.1564 1.88166 0
M  V30 4421 H 401.506 3.57515 2.60068 0
M  V30 4422 N 400.565 -0.0233959 1.57583 0
M  V30 4423 C 401.811 -0.714119 1.89811 0
M  V30 4424 C 402.144 -1.74702 0.848113 0
M  V30 4425 O 401.419 -1.94023 -0.136135 0
M  V30 4426 C 401.702 -1.37853 3.32669 0
M  V30 4427 C 401.555 -0.358764 4.48367 0
M  V30 4428 C 402.874 -2.31101 3.7454 0
M  V30 4429 H 399.993 -0.25814 0.690314 0
M  V30 4430 H 402.635 0.0230927 1.89986 0
M  V30 4431 H 400.785 -2.00689 3.3265 0
M  V30 4432 H 402.457 0.268115 4.6052 0
M  V30 4433 H 400.7 0.321387 4.32608 0
M  V30 4434 H 401.371 -0.862242 5.45224 0
M  V30 4435 H 403.847 -1.78304 3.75961 0
M  V30 4436 H 402.723 -2.74567 4.75294 0
M  V30 4437 H 402.984 -3.18018 3.0711 0
M  V30 4438 N 402.043 -1.548 -0.295768 0
M  V30 4439 C 403.273 -1.78069 -1.04762 0
M  V30 4440 C 403.681 -0.542847 -1.81245 0
M  V30 4441 O 403.024 0.497051 -1.76848 0
M  V30 4442 C 403.086 -2.93881 -2.07061 0
M  V30 4443 C 402.75 -4.31777 -1.49725 0
M  V30 4444 C 403.747 -5.11613 -0.924581 0
M  V30 4445 C 401.432 -4.78389 -1.5313 0
M  V30 4446 C 403.426 -6.36184 -0.393594 0
M  V30 4447 C 401.113 -6.02921 -0.996447 0
M  V30 4448 C 402.111 -6.81654 -0.428569 0
M  V30 4449 O 401.799 -8.0384 0.0981593 0
M  V30 4450 H 401.531 -0.597475 -0.316226 0
M  V30 4451 H 404.085 -2.02584 -0.338973 0
M  V30 4452 H 402.315 -2.65003 -2.81621 0
M  V30 4453 H 404.004 -3.04679 -2.6819 0
M  V30 4454 H 404.77 -4.76743 -0.891136 0
M  V30 4455 H 400.649 -4.17132 -1.9627 0
M  V30 4456 H 404.193 -6.97582 0.0503014 0
M  V30 4457 H 400.09 -6.37277 -1.02706 0
M  V30 4458 H 400.858 -8.18499 -0.0146455 0
M  V30 4459 N 403.521 0.559213 -1.47345 0
M  V30 4460 C 404.937 0.884943 -1.32819 0
M  V30 4461 C 405.137 1.98988 -0.317173 0
M  V30 4462 O 404.193 2.51031 0.272011 0
M  V30 4463 C 405.506 1.28007 -2.72093 0
M  V30 4464 C 407.054 1.39161 -2.80363 0
M  V30 4465 C 407.529 1.82031 -4.20272 0
M  V30 4466 N 409.02 1.89185 -4.22804 0
M  V30 4467 C 409.755 2.2368 -5.27973 0
M  V30 4468 N 409.251 2.56802 -6.43447 0
M  V30 4469 N 411.044 2.24436 -5.15349 0
M  V30 4470 H 403.195 -0.170304 -2.11716 0
M  V30 4471 H 405.458 -0.0135247 -0.947904 0
M  V30 4472 H 405.164 0.542027 -3.47498 0
M  V30 4473 H 405.038 2.23665 -3.03733 0
M  V30 4474 H 407.425 2.12048 -2.05231 0
M  V30 4475 H 407.506 0.41696 -2.52379 0
M  V30 4476 H 407.15 1.09715 -4.95908 0
M  V30 4477 H 407.08 2.80495 -4.45679 0
M  V30 4478 H 409.571 1.65982 -3.39497 0
M  V30 4479 H 409.884 2.82144 -7.19454 0
M  V30 4480 H 408.229 2.54387 -6.46771 0
M  V30 4481 H 411.42 1.97998 -4.24163 0
M  V30 4482 H 411.593 2.50989 -5.97418 0
M  V30 4483 N 404.999 1.35443 0.805782 0
M  V30 4484 C 406.276 1.19325 1.54987 0
M  V30 4485 C 406.656 -0.227294 2.09873 0
M  V30 4486 O 406.004 -1.2309 1.92512 0
M  V30 4487 C 406.214 2.26196 2.65775 0
M  V30 4488 C 407.562 2.62043 3.34094 0
M  V30 4489 O 408.586 2.25115 2.76046 0
M  V30 4490 O 407.445 3.25542 4.38958 0
M  V30 4491 H 404.539 0.463623 0.684823 0
M  V30 4492 H 407.085 1.47127 0.845674 0
M  V30 4493 H 405.857 3.21471 2.23096 0
M  V30 4494 H 405.48 1.99667 3.43829 0
M  V30 4495 N 406.477 -1.02803 1.19454 0
M  V30 4496 C 407.726 -1.7562 0.991996 0
M  V30 4497 C 408.039 -1.89672 -0.477901 0
M  V30 4498 O 409.245 -2.59468 -0.799287 0
M  V30 4499 C 407.701 -3.15812 1.72601 0
M  V30 4500 C 407.309 -3.0981 3.23607 0
M  V30 4501 C 409.053 -3.92918 1.60674 0
M  V30 4502 C 406.96 -4.44939 3.89594 0
M  V30 4503 H 405.89 -0.658352 0.367543 0
M  V30 4504 H 408.541 -1.15044 1.42959 0
M  V30 4505 H 406.923 -3.7686 1.21624 0
M  V30 4506 H 408.097 -2.58138 3.81709 0
M  V30 4507 H 406.412 -2.46201 3.35819 0
M  V30 4508 H 409.009 -4.9287 2.07323 0
M  V30 4509 H 409.352 -4.12502 0.561025 0
M  V30 4510 H 409.885 -3.38472 2.09001 0
M  V30 4511 H 406.624 -4.30559 4.94267 0
M  V30 4512 H 406.144 -4.96664 3.36281 0
M  V30 4513 H 407.823 -5.1382 3.93189 0
M  V30 4514 N 407.956 -0.998596 -1.21925 0
M  V30 4515 C 408.903 -0.553621 -2.24062 0
M  V30 4516 C 409.873 0.416999 -1.6078 0
M  V30 4517 O 411.058 0.320482 -1.88089 0
M  V30 4518 C 408.198 0.119959 -3.44891 0
M  V30 4519 C 407.311 -0.893077 -4.22668 0
M  V30 4520 C 406.446 -0.192424 -5.30851 0
M  V30 4521 C 405.485 -1.19344 -6.00353 0
M  V30 4522 N 404.622 -0.520707 -7.00166 0
M  V30 4523 H 409.462 -1.4293 -2.61486 0
M  V30 4524 H 406.999 -0.715838 -1.28507 0
M  V30 4525 H 408.957 0.527459 -4.13852 0
M  V30 4526 H 407.587 0.959389 -3.08214 0
M  V30 4527 H 406.639 -1.41886 -3.52948 0
M  V30 4528 H 407.951 -1.65512 -4.70539 0
M  V30 4529 H 407.105 0.271515 -6.06092 0
M  V30 4530 H 405.844 0.602075 -4.83969 0
M  V30 4531 H 404.849 -1.66795 -5.23889 0
M  V30 4532 H 406.074 -1.98891 -6.49322 0
M  V30 4533 H 404.02 0.254252 -6.55507 0
M  V30 4534 H 403.937 -1.2211 -7.46073 0
M  V30 4535 H 405.205 -0.0797596 -7.79459 0
M  V30 4536 N 409.434 1.37368 -0.772513 0
M  V30 4537 C 410.364 2.32856 -0.173304 0
M  V30 4538 C 411.345 1.55818 0.682262 0
M  V30 4539 O 412.53 1.84052 0.619566 0
M  V30 4540 C 409.66 3.40048 0.706007 0
M  V30 4541 C 408.614 4.27973 -0.0483144 0
M  V30 4542 C 407.94 5.26184 0.950491 0
M  V30 4543 C 409.24 5.07665 -1.22776 0
M  V30 4544 H 410.934 2.83217 -0.971002 0
M  V30 4545 H 408.48 1.3617 -0.468377 0
M  V30 4546 H 410.433 4.05827 1.13501 0
M  V30 4547 H 409.157 2.88214 1.53623 0
M  V30 4548 H 407.816 3.63726 -0.458107 0
M  V30 4549 H 407.464 4.7063 1.77529 0
M  V30 4550 H 407.164 5.85872 0.450314 0
M  V30 4551 H 408.688 5.94838 1.37842 0
M  V30 4552 H 410.102 5.66578 -0.875366 0
M  V30 4553 H 408.499 5.76681 -1.66007 0
M  V30 4554 H 409.569 4.40294 -2.03149 0
M  V30 4555 N 410.912 0.523116 1.48665 0
M  V30 4556 C 411.822 -0.247406 2.33292 0
M  V30 4557 C 412.838 -0.945769 1.46052 0
M  V30 4558 O 414.014 -0.922253 1.79043 0
M  V30 4559 C 411.079 -1.28487 3.22012 0
M  V30 4560 C 410.14 -0.597592 4.2512 0
M  V30 4561 C 409.373 -1.58563 5.09601 0
M  V30 4562 O 409.596 -2.81763 4.95949 0
M  V30 4563 O 408.53 -1.12879 5.91221 0
M  V30 4564 H 412.356 0.445869 3.00409 0
M  V30 4565 H 409.941 0.284128 1.46673 0
M  V30 4566 H 411.823 -1.88459 3.7691 0
M  V30 4567 H 410.498 -1.96068 2.57564 0
M  V30 4568 H 409.405 0.0424407 3.74076 0
M  V30 4569 H 410.738 0.0361517 4.92187 0
M  V30 4570 N 412.39 -1.55475 0.257931 0
M  V30 4571 C 413.338 -2.23244 -0.653076 0
M  V30 4572 C 414.332 -1.22366 -1.17144 0
M  V30 4573 O 415.538 -1.40347 -1.12706 0
M  V30 4574 H 411.913 -0.716247 -0.229117 0
M  V30 4575 H 413.884 -2.98343 -0.0584788 0
M  V30 4576 C 412.633 -2.95401 -1.83395 0
M  V30 4577 H 411.956 -3.72802 -1.44424 0
M  V30 4578 H 413.396 -3.46165 -2.44838 0
M  V30 4579 C 411.855 -1.99895 -2.71189 0
M  V30 4580 O 412.385 -1.53909 -3.71046 0
M  V30 4581 N 410.591 -1.6676 -2.3799 0
M  V30 4582 H 410.138 -2.04352 -1.56837 0
M  V30 4583 H 410.096 -1.03127 -2.97005 0
M  V30 4584 N 413.868 0.0150385 -1.57593 0
M  V30 4585 C 414.798 1.01047 -2.10503 0
M  V30 4586 C 415.779 1.36816 -1.01071 0
M  V30 4587 O 416.964 1.45455 -1.28672 0
M  V30 4588 C 414.094 2.30708 -2.59598 0
M  V30 4589 C 413.048 2.09142 -3.73421 0
M  V30 4590 C 412.374 3.44685 -4.08774 0
M  V30 4591 C 413.674 1.46619 -5.01298 0
M  V30 4592 H 415.368 0.569978 -2.93925 0
M  V30 4593 H 412.914 0.272724 -1.41394 0
M  V30 4594 H 414.867 3.00687 -2.95238 0
M  V30 4595 H 413.591 2.76843 -1.73279 0
M  V30 4596 H 412.25 1.41592 -3.38153 0
M  V30 4597 H 411.898 3.88495 -3.195 0
M  V30 4598 H 411.598 3.31077 -4.8545 0
M  V30 4599 H 413.122 4.16004 -4.4696 0
M  V30 4600 H 414.536 2.06535 -5.34805 0
M  V30 4601 H 412.933 1.43544 -5.82679 0
M  V30 4602 H 414.003 0.433611 -4.82957 0
M  V30 4603 N 415.346 1.54954 0.287554 0
M  V30 4604 C 416.279 1.81737 1.3801 0
M  V30 4605 C 417.257 0.669412 1.48181 0
M  V30 4606 O 418.441 0.910839 1.65033 0
M  V30 4607 C 415.568 1.96606 2.75796 0
M  V30 4608 C 414.614 3.19098 2.82982 0
M  V30 4609 S 415.447 4.7683 2.43707 0
M  V30 4610 C 416.603 4.94653 3.83496 0
M  V30 4611 H 416.836 2.74122 1.15085 0
M  V30 4612 H 414.369 1.46538 0.486403 0
M  V30 4613 H 416.327 2.05858 3.55152 0
M  V30 4614 H 414.988 1.05136 2.95982 0
M  V30 4615 H 414.181 3.26344 3.84077 0
M  V30 4616 H 413.783 3.08361 2.11635 0
M  V30 4617 H 416.075 4.79502 4.78628 0
M  V30 4618 H 417.018 5.96728 3.8121 0
M  V30 4619 H 417.426 4.2272 3.74123 0
M  V30 4620 N 416.824 -0.551391 1.4764 0
M  V30 4621 C 417.754 -1.66757 1.63445 0
M  V30 4622 C 418.735 -1.63077 0.483742 0
M  V30 4623 O 419.92 -1.80607 0.71377 0
M  V30 4624 C 417.05 -3.05387 1.65396 0
M  V30 4625 C 416.004 -3.23918 2.79752 0
M  V30 4626 C 415.33 -4.63393 2.66779 0
M  V30 4627 C 416.63 -3.08735 4.21284 0
M  V30 4628 H 418.324 -1.53786 2.56886 0
M  V30 4629 H 415.87 -0.738415 1.23626 0
M  V30 4630 H 417.823 -3.83325 1.75043 0
M  V30 4631 H 416.547 -3.19332 0.685195 0
M  V30 4632 H 415.206 -2.48391 2.69625 0
M  V30 4633 H 414.854 -4.74144 1.67918 0
M  V30 4634 H 414.554 -4.7674 3.43501 0
M  V30 4635 H 416.078 -5.43458 2.78364 0
M  V30 4636 H 417.492 -3.76484 4.32357 0
M  V30 4637 H 415.889 -3.33588 4.98838 0
M  V30 4638 H 416.959 -2.0541 4.39243 0
M  V30 4639 N 418.302 -1.35869 -0.798587 0
M  V30 4640 C 419.579 -1.20145 -1.54352 0
M  V30 4641 C 419.959 0.216161 -2.0999 0
M  V30 4642 O 419.307 1.22068 -1.93162 0
M  V30 4643 C 419.517 -2.27602 -2.64572 0
M  V30 4644 C 420.865 -2.63811 -3.32699 0
M  V30 4645 O 421.889 -2.26576 -2.74849 0
M  V30 4646 O 420.748 -3.27866 -4.37226 0
M  V30 4647 H 417.842 -0.467248 -0.682355 0
M  V30 4648 H 420.388 -1.47574 -0.837859 0
M  V30 4649 H 419.16 -3.2265 -2.21388 0
M  V30 4650 H 418.783 -2.01488 -3.42766 0
M  V30 4651 N 419.78 1.02168 -1.19998 0
M  V30 4652 C 420.727 2.10601 -0.944228 0
M  V30 4653 C 421.697 1.65639 0.123664 0
M  V30 4654 O 422.882 1.9079 -0.0199941 0
M  V30 4655 C 420.022 3.41504 -0.496865 0
M  V30 4656 C 419.135 3.99973 -1.63234 0
M  V30 4657 C 418.27 5.18915 -1.13579 0
M  V30 4658 C 417.309 5.69456 -2.24468 0
M  V30 4659 N 416.446 6.79665 -1.76068 0
M  V30 4660 H 421.286 2.31814 -1.8726 0
M  V30 4661 H 418.823 1.13686 -0.933483 0
M  V30 4662 H 420.781 4.16626 -0.218843 0
M  V30 4663 H 419.411 3.2038 0.394508 0
M  V30 4664 H 418.463 3.21997 -2.0254 0
M  V30 4665 H 419.775 4.33492 -2.46752 0
M  V30 4666 H 418.929 6.01222 -0.813429 0
M  V30 4667 H 417.668 4.8695 -0.270434 0
M  V30 4668 H 416.673 4.85757 -2.57526 0
M  V30 4669 H 417.898 6.03459 -3.11472 0
M  V30 4670 H 415.844 6.49538 -0.918516 0
M  V30 4671 H 415.761 7.12349 -2.5317 0
M  V30 4672 H 417.029 7.65549 -1.46817 0
M  V30 4673 N 421.258 1.00505 1.21394 0
M  V30 4674 C 422.535 0.603277 1.86064 0
M  V30 4675 C 422.915 -0.919095 1.90042 0
M  V30 4676 O 422.263 -1.80607 1.39977 0
M  V30 4677 C 422.473 1.23772 3.26315 0
M  V30 4678 C 423.821 1.34586 4.02705 0
M  V30 4679 O 424.845 1.19304 3.35626 0
M  V30 4680 O 423.704 1.59169 5.22807 0
M  V30 4681 H 420.798 0.206634 0.800769 0
M  V30 4682 H 423.344 1.1017 1.29076 0
M  V30 4683 H 422.116 2.27848 3.18121 0
M  V30 4684 H 421.739 0.725648 3.90922 0
M  V30 4685 N 422.737 -1.36956 0.779787 0
M  V30 4686 C 423.985 -1.99097 0.347079 0
M  V30 4687 C 424.306 -1.62206 -1.08232 0
M  V30 4688 O 423.576 -0.891373 -1.74446 0
M  V30 4689 H 422.156 -0.736409 0.125342 0
M  V30 4690 H 424.818 -1.67308 0.999696 0
M  V30 4691 H 423.914 -3.09107 0.431162 0
M  V30 4692 N 424.215 -0.530993 -1.48385 0
M  V30 4693 C 425.165 0.251092 -2.26613 0
M  V30 4694 C 426.149 0.908977 -1.32765 0
M  V30 4695 O 427.341 0.811616 -1.57295 0
M  V30 4696 C 424.47 1.29677 -3.17866 0
M  V30 4697 C 423.556 0.643627 -4.19188 0
M  V30 4698 N 423.947 -0.271223 -5.05072 0
M  V30 4699 C 422.245 0.900711 -4.3681 0
M  V30 4700 C 422.946 -0.648109 -5.78078 0
M  V30 4701 N 421.922 -0.00895987 -5.43599 0
M  V30 4702 H 425.724 -0.452702 -2.90393 0
M  V30 4703 H 423.238 -0.349091 -1.58604 0
M  V30 4704 H 425.235 1.87079 -3.72568 0
M  V30 4705 H 423.895 2.00193 -2.55642 0
M  V30 4706 H 424.906 -0.643883 -5.13882 0
M  V30 4707 H 421.583 1.59636 -3.85775 0
M  V30 4708 H 422.973 -1.39833 -6.57188 0
M  V30 4709 N 425.693 1.55336 -0.266172 0
M  V30 4710 C 426.942 1.98574 0.353749 0
M  V30 4711 C 427.255 1.15789 1.57646 0
M  V30 4712 O 428.461 1.49129 2.26876 0
M  V30 4713 C 426.917 3.53403 0.680747 0
M  V30 4714 C 426.525 4.44953 -0.52165 0
M  V30 4715 C 428.269 4.05251 1.26379 0
M  V30 4716 C 426.176 5.91156 -0.169736 0
M  V30 4717 H 425.106 0.741643 0.135949 0
M  V30 4718 H 427.757 1.79743 -0.369421 0
M  V30 4719 H 426.139 3.68001 1.46257 0
M  V30 4720 H 427.313 4.42121 -1.29869 0
M  V30 4721 H 425.628 4.03691 -1.02093 0
M  V30 4722 H 428.225 5.12021 1.54074 0
M  V30 4723 H 428.568 3.53749 2.19471 0
M  V30 4724 H 429.101 3.94057 0.544447 0
M  V30 4725 H 425.84 6.46736 -1.0683 0
M  V30 4726 H 425.36 5.97079 0.570717 0
M  V30 4727 H 427.039 6.4655 0.241245 0
M  V30 4728 N 427.171 -0.0066808 1.57599 0
M  V30 4729 C 428.118 -1.00024 2.08 0
M  V30 4730 C 429.088 -1.34549 0.973943 0
M  V30 4731 O 430.273 -1.44502 1.24595 0
M  V30 4732 C 427.413 -2.2891 2.58252 0
M  V30 4733 C 426.526 -2.00346 3.82734 0
M  V30 4734 C 425.661 -3.23265 4.21513 0
M  V30 4735 C 424.7 -2.90357 5.3885 0
M  V30 4736 N 423.837 -4.05793 5.72954 0
M  V30 4737 H 428.677 -0.563499 2.92624 0
M  V30 4738 H 426.214 -0.266592 1.44664 0
M  V30 4739 H 428.172 -3.04247 2.85464 0
M  V30 4740 H 426.802 -2.70265 1.76512 0
M  V30 4741 H 425.854 -1.15406 3.62471 0
M  V30 4742 H 427.166 -1.72086 4.68175 0
M  V30 4743 H 426.32 -4.06953 4.49971 0
M  V30 4744 H 425.059 -3.54657 3.34768 0
M  V30 4745 H 424.064 -2.05075 5.10122 0
M  V30 4746 H 425.289 -2.60219 6.27266 0
M  V30 4747 H 423.235 -4.37094 4.89167 0
M  V30 4748 H 423.152 -3.81034 6.52954 0
M  V30 4749 H 424.42 -4.90289 6.06001 0
M  V30 4750 N 428.649 -1.55105 -0.279332 0
M  V30 4751 C 429.898 -1.74618 -1.00952 0
M  V30 4752 C 430.211 -0.551096 -1.87676 0
M  V30 4753 O 431.417 -0.628507 -2.64125 0
M  V30 4754 C 429.873 -3.09025 -1.84476 0
M  V30 4755 C 429.481 -4.36081 -1.0265 0
M  V30 4756 C 431.225 -3.37891 -2.56963 0
M  V30 4757 C 429.132 -5.6153 -1.85576 0
M  V30 4758 H 428.062 -0.650868 -0.38064 0
M  V30 4759 H 430.713 -1.81569 -0.265475 0
M  V30 4760 H 429.095 -2.96095 -2.62952 0
M  V30 4761 H 430.269 -4.59909 -0.286354 0
M  V30 4762 H 428.584 -4.14312 -0.416464 0
M  V30 4763 H 431.181 -4.28822 -3.19399 0
M  V30 4764 H 431.524 -2.57737 -3.26921 0
M  V30 4765 H 432.057 -3.5189 -1.85522 0
M  V30 4766 H 428.796 -6.44413 -1.2005 0
M  V30 4767 H 428.316 -5.41854 -2.57204 0
M  V30 4768 H 429.995 -5.99594 -2.43096 0
M  V30 4769 N 430.127 0.543554 -1.4793 0
M  V30 4770 C 431.355 1.32516 -1.58894 0
M  V30 4771 C 431.77 1.87215 -0.244131 0
M  V30 4772 O 431.127 1.65709 0.764652 0
M  V30 4773 C 431.178 2.48554 -2.62494 0
M  V30 4774 O 430.899 1.96112 -3.91755 0
M  V30 4775 C 432.4 3.40572 -2.8377 0
M  V30 4776 H 429.62 0.403472 -0.536145 0
M  V30 4777 H 432.164 0.657106 -1.93655 0
M  V30 4778 H 430.319 3.1127 -2.30629 0
M  V30 4779 H 430.733 2.71967 -4.4848 0
M  V30 4780 H 432.207 4.18375 -3.60093 0
M  V30 4781 H 432.684 3.94965 -1.92092 0
M  V30 4782 H 433.29 2.8366 -3.16887 0
M  V30 4783 N 431.605 1.3629 0.791371 0
M  V30 4784 C 432.882 1.20962 1.53712 0
M  V30 4785 C 433.262 -0.205021 2.10102 0
M  V30 4786 O 432.61 -1.21042 1.93807 0
M  V30 4787 C 432.82 2.29002 2.63361 0
M  V30 4788 C 434.168 2.65572 3.31295 0
M  V30 4789 O 435.192 2.2803 2.73643 0
M  V30 4790 O 434.051 3.3018 4.35481 0
M  V30 4791 H 431.145 0.47086 0.679867 0
M  V30 4792 H 433.691 1.48016 0.830021 0
M  V30 4793 H 432.463 3.2382 2.19674 0
M  V30 4794 H 432.086 2.03303 3.41692 0
M  V30 4795 N 433.083 -1.0153 1.20538 0
M  V30 4796 C 434.33 -1.75149 1.01633 0
M  V30 4797 C 434.658 -1.89189 -0.451399 0
M  V30 4798 O 433.913 -1.41551 -1.35136 0
M  V30 4799 C 434.212 -3.17213 1.64654 0
M  V30 4800 C 433.878 -3.23146 3.14464 0
M  V30 4801 C 432.54 -3.24472 3.55347 0
M  V30 4802 C 434.892 -3.21207 4.10458 0
M  V30 4803 C 432.22 -3.21532 4.90748 0
M  V30 4804 C 434.572 -3.19808 5.45807 0
M  V30 4805 C 433.236 -3.19439 5.86102 0
M  V30 4806 H 432.506 -0.640914 0.3719 0
M  V30 4807 H 435.153 -1.19071 1.49981 0
M  V30 4808 H 433.458 -3.76457 1.08571 0
M  V30 4809 H 435.155 -3.72871 1.4754 0
M  V30 4810 H 431.745 -3.2285 2.81897 0
M  V30 4811 H 435.929 -3.19351 3.79906 0
M  V30 4812 H 431.185 -3.19578 5.21229 0
M  V30 4813 H 435.359 -3.1726 6.19935 0
M  V30 4814 H 432.986 -3.16915 6.90991 0
M  V30 4815 N 434.561 -1.01147 -1.20859 0
M  V30 4816 C 435.809 -0.696486 -1.89719 0
M  V30 4817 C 436.13 0.775788 -1.78904 0
M  V30 4818 O 435.4 1.55759 -1.18811 0
M  V30 4819 H 433.98 -0.254628 -0.702263 0
M  V30 4820 H 436.642 -1.28197 -1.46804 0
M  V30 4821 H 435.738 -0.975357 -2.96468 0
M  V30 4822 N 436.039 1.36541 -0.78704 0
M  V30 4823 C 436.969 2.32659 -0.197992 0
M  V30 4824 C 437.95 1.56533 0.665697 0
M  V30 4825 O 439.135 1.84698 0.60001 0
M  V30 4826 C 436.265 3.40778 0.669901 0
M  V30 4827 C 435.219 4.27897 -0.0937039 0
M  V30 4828 C 434.545 5.27163 0.894629 0
M  V30 4829 C 435.845 5.06334 -1.28154 0
M  V30 4830 H 437.539 2.82171 -1.00099 0
M  V30 4831 H 435.085 1.35665 -0.482793 0
M  V30 4832 H 437.038 4.07008 1.09191 0
M  V30 4833 H 435.762 2.89827 1.50558 0
M  V30 4834 H 434.421 3.6322 -0.49666 0
M  V30 4835 H 434.069 4.72486 1.72527 0
M  V30 4836 H 433.769 5.86317 0.388149 0
M  V30 4837 H 435.293 5.96266 1.31525 0
M  V30 4838 H 436.707 5.65617 -0.93541 0
M  V30 4839 H 435.104 5.74888 -1.72115 0
M  V30 4840 H 436.174 4.38114 -2.07807 0
M  V30 4841 N 437.518 0.538854 1.48102 0
M  V30 4842 C 438.758 0.0101209 2.04397 0
M  V30 4843 C 439.122 -1.30741 1.40609 0
M  V30 4844 O 440.323 -1.92272 1.87843 0
M  V30 4845 C 438.594 -0.100232 3.57259 0
M  V30 4846 S 440.153 -0.577746 4.3498 0
M  V30 4847 H 436.971 0.0163171 0.710813 0
M  V30 4848 H 439.573 0.721429 1.81702 0
M  V30 4849 H 438.277 0.863351 4.01216 0
M  V30 4850 H 437.808 -0.835651 3.84422 0
M  V30 4851 H 439.823 -1.84073 4.60794 0
M  V30 4852 N 438.996 -1.55193 0.274407 0
M  V30 4853 C 439.943 -2.225 -0.613374 0
M  V30 4854 C 440.913 -1.19823 -1.15029 0
M  V30 4855 O 442.098 -1.48362 -1.19973 0
M  V30 4856 C 439.238 -2.94927 -1.79199 0
M  V30 4857 C 438.351 -4.12322 -1.28899 0
M  V30 4858 C 437.486 -4.72394 -2.42934 0
M  V30 4859 C 436.525 -5.81984 -1.89634 0
M  V30 4860 N 435.662 -6.36123 -2.9714 0
M  V30 4861 H 440.502 -2.97982 -0.032756 0
M  V30 4862 H 438.039 -1.47099 -0.00440146 0
M  V30 4863 H 439.997 -3.35134 -2.48478 0
M  V30 4864 H 438.627 -2.2187 -2.34465 0
M  V30 4865 H 437.679 -3.7724 -0.489327 0
M  V30 4866 H 438.991 -4.91355 -0.858587 0
M  V30 4867 H 438.145 -5.15317 -3.20208 0
M  V30 4868 H 436.884 -3.92636 -2.8929 0
M  V30 4869 H 435.889 -5.38511 -1.1084 0
M  V30 4870 H 437.114 -6.6361 -1.44215 0
M  V30 4871 H 435.06 -5.59259 -3.42878 0
M  V30 4872 H 434.977 -7.10427 -2.58515 0
M  V30 4873 H 436.245 -6.83704 -3.74391 0
M  V30 4874 N 440.474 -0.00167713 -1.576 0
M  V30 4875 C 441.384 1.00548 -2.1196 0
M  V30 4876 C 442.4 1.3758 -1.06526 0
M  V30 4877 O 443.576 1.46278 -1.38436 0
M  V30 4878 C 440.641 2.27809 -2.6135 0
M  V30 4879 C 439.702 1.97074 -3.81393 0
M  V30 4880 C 438.935 3.18267 -4.28417 0
M  V30 4881 O 439.158 4.30009 -3.74765 0
M  V30 4882 O 438.092 3.02167 -5.20556 0
M  V30 4883 H 441.918 0.573373 -2.98238 0
M  V30 4884 H 439.503 0.217255 -1.47812 0
M  V30 4885 H 441.385 3.02568 -2.93309 0
M  V30 4886 H 440.06 2.70254 -1.78169 0
M  V30 4887 H 438.967 1.19785 -3.54404 0
M  V30 4888 H 440.3 1.59464 -4.65652 0
M  V30 4889 N 441.952 1.55251 0.271103 0
M  V30 4890 C 443.2 1.75599 1.00047 0
M  V30 4891 C 443.521 0.561188 1.8675 0
M  V30 4892 O 442.791 -0.423846 1.9126 0
M  V30 4893 H 441.371 0.647562 0.372387 0
M  V30 4894 H 444.033 1.92656 0.294876 0
M  V30 4895 H 443.129 2.65766 1.6363 0
M  V30 4896 N 443.43 -0.535701 1.48216 0
M  V30 4897 C 444.679 -1.28828 1.55197 0
M  V30 4898 C 444.992 -1.94263 0.228278 0
M  V30 4899 O 446.198 -2.70927 0.176278 0
M  V30 4900 C 444.654 -2.33727 2.73678 0
M  V30 4901 C 444.262 -1.74386 4.12666 0
M  V30 4902 C 446.006 -3.1003 2.89968 0
M  V30 4903 C 443.913 -2.77192 5.22416 0
M  V30 4904 H 442.843 -0.484484 0.577747 0
M  V30 4905 H 445.494 -0.56646 1.74538 0
M  V30 4906 H 443.876 -3.08919 2.4776 0
M  V30 4907 H 445.05 -1.05421 4.48579 0
M  V30 4908 H 443.365 -1.10595 4.01445 0
M  V30 4909 H 445.962 -3.86842 3.6913 0
M  V30 4910 H 446.305 -3.65542 1.9921 0
M  V30 4911 H 446.838 -2.41952 3.15759 0
M  V30 4912 H 443.577 -2.26507 6.15122 0
M  V30 4913 H 443.097 -3.44502 4.90998 0
M  V30 4914 H 444.776 -3.40285 5.50286 0
M  V30 4915 N 444.908 -1.36708 -0.784132 0
M  V30 4916 C 446.133 -1.34565 -1.5782 0
M  V30 4917 C 446.558 0.0695257 -1.87971 0
M  V30 4918 O 445.916 1.04302 -1.48293 0
M  V30 4919 C 445.964 -2.17952 -2.87279 0
M  V30 4920 O 445.068 -1.57563 -3.81114 0
M  V30 4921 H 444.409 -0.460337 -0.478524 0
M  V30 4922 H 446.939 -1.80064 -0.971495 0
M  V30 4923 H 446.949 -2.30721 -3.365 0
M  V30 4924 H 445.624 -3.20823 -2.64661 0
M  V30 4925 H 444.201 -1.53764 -3.39722 0
M  V30 4926 N 446.386 1.0089 -1.21074 0
M  V30 4927 C 447.663 1.71834 -0.934469 0
M  V30 4928 C 448.043 2.0368 0.554753 0
M  V30 4929 O 447.391 1.70742 1.51854 0
M  V30 4930 C 447.601 2.98061 -1.8155 0
M  V30 4931 C 448.949 3.7117 -2.06199 0
M  V30 4932 O 449.973 3.08034 -1.78867 0
M  V30 4933 O 448.832 4.84721 -2.52404 0
M  V30 4934 H 445.926 0.749253 -0.35007 0
M  V30 4935 H 448.472 1.06668 -1.31985 0
M  V30 4936 H 447.244 2.70908 -2.82355 0
M  V30 4937 H 446.867 3.70968 -1.43068 0
M  V30 4938 N 447.864 1.01787 1.20321 0
M  V30 4939 C 449.112 0.706538 1.89347 0
M  V30 4940 C 449.433 -0.766289 1.79313 0
M  V30 4941 O 448.703 -1.55126 1.19635 0
M  V30 4942 H 447.283 0.258348 0.700903 0
M  V30 4943 H 449.945 1.28974 1.46122 0
M  V30 4944 H 449.041 0.991066 2.95946 0
M  V30 4945 N 449.342 -1.36122 0.79427 0
M  V30 4946 C 450.305 -2.28309 0.201889 0
M  V30 4947 C 451.305 -1.49041 -0.603603 0
M  V30 4948 O 452.495 -1.68964 -0.423888 0
M  V30 4949 C 449.627 -3.3321 -0.719978 0
M  V30 4950 H 450.82 -2.82208 1.01481 0
M  V30 4951 H 448.373 -1.45768 0.564037 0
M  V30 4952 H 449.108 -2.84475 -1.55706 0
M  V30 4953 H 448.893 -3.91835 -0.144266 0
M  V30 4954 H 450.383 -4.02044 -1.12916 0
M  V30 4955 N 450.82 -0.546701 -1.47814 0
M  V30 4956 C 452.048 -0.0232857 -2.06887 0
M  V30 4957 C 452.463 1.26571 -1.4009 0
M  V30 4958 O 451.82 1.7569 -0.493906 0
M  V30 4959 C 451.871 0.186975 -3.61016 0
M  V30 4960 O 451.592 -1.05097 -4.25307 0
M  V30 4961 C 453.093 0.748872 -4.36929 0
M  V30 4962 H 450.313 -0.0410763 -0.669742 0
M  V30 4963 H 452.857 -0.757117 -1.89968 0
M  V30 4964 H 451.012 0.870903 -3.77484 0
M  V30 4965 H 451.426 -0.842121 -5.17695 0
M  V30 4966 H 452.9 0.845334 -5.45489 0
M  V30 4967 H 453.377 1.75772 -4.02493 0
M  V30 4968 H 453.983 0.100979 -4.2518 0
M  V30 4969 N 452.299 1.55045 -0.282633 0
M  V30 4970 C 453.232 2.18951 0.64311 0
M  V30 4971 C 454.21 1.15287 1.14664 0
M  V30 4972 O 455.394 1.43846 1.21822 0
M  V30 4973 C 452.521 2.81874 1.87789 0
M  V30 4974 C 451.567 3.98906 1.50919 0
M  V30 4975 S 452.4 5.3234 0.580884 0
M  V30 4976 C 453.556 5.98737 1.82387 0
M  V30 4977 H 453.789 2.97131 0.100138 0
M  V30 4978 H 451.322 1.54255 -0.0668514 0
M  V30 4979 H 453.28 3.18757 2.58658 0
M  V30 4980 H 451.941 2.03573 2.392 0
M  V30 4981 H 451.134 4.4165 2.42819 0
M  V30 4982 H 450.736 3.63485 0.88061 0
M  V30 4983 H 453.028 6.18427 2.76684 0
M  V30 4984 H 453.971 6.93318 1.4393 0
M  V30 4985 H 454.379 5.28177 1.99223 0
M  V30 4986 N 453.777 0.010035 1.57597 0
M  V30 4987 C 454.724 -0.978122 2.09049 0
M  V30 4988 C 455.694 -1.33509 0.988159 0
M  V30 4989 O 456.879 -1.43172 1.26121 0
M  V30 4990 C 454.019 -2.26158 2.60666 0
M  V30 4991 C 453.132 -1.96275 3.84838 0
M  V30 4992 C 452.267 -3.18776 4.24918 0
M  V30 4993 C 451.306 -2.84625 5.41899 0
M  V30 4994 N 450.443 -3.99693 5.77226 0
M  V30 4995 H 455.283 -0.532431 2.93205 0
M  V30 4996 H 452.82 -0.251234 1.44939 0
M  V30 4997 H 454.778 -3.01202 2.88675 0
M  V30 4998 H 453.408 -2.68378 1.79369 0
M  V30 4999 H 452.46 -1.11555 3.63675 0
M  V30 5000 H 453.772 -1.67111 4.69974 0
M  V30 5001 H 452.926 -4.02157 4.54262 0
M  V30 5002 H 451.665 -3.51087 3.38511 0
M  V30 5003 H 450.67 -1.99653 5.12268 0
M  V30 5004 H 451.895 -2.53551 6.29991 0
M  V30 5005 H 449.841 -4.31882 4.93776 0
M  V30 5006 H 449.758 -3.74087 6.56959 0
M  V30 5007 H 451.026 -4.83834 6.11167 0
M  V30 5008 N 455.255 -1.55392 -0.262866 0
M  V30 5009 C 456.483 -1.80513 -1.01108 0
M  V30 5010 C 456.898 -0.583533 -1.79556 0
M  V30 5011 O 456.255 0.447585 -1.76926 0
M  V30 5012 C 456.306 -3.03648 -1.96164 0
M  V30 5013 O 456.027 -4.2109 -1.20893 0
M  V30 5014 C 457.528 -3.41448 -2.82715 0
M  V30 5015 H 454.748 -0.601079 -0.298236 0
M  V30 5016 H 457.292 -2.02425 -0.290582 0
M  V30 5017 H 455.447 -2.83832 -2.63663 0
M  V30 5018 H 455.861 -4.90771 -1.85051 0
M  V30 5019 H 457.335 -4.30751 -3.45192 0
M  V30 5020 H 457.812 -2.61308 -3.53008 0
M  V30 5021 H 458.418 -3.63559 -2.20693 0
M  V30 5022 N 456.733 0.527833 -1.48498 0
M  V30 5023 C 457.98 1.28354 -1.56625 0
M  V30 5024 C 458.308 1.93 -0.241096 0
M  V30 5025 O 457.563 1.79967 0.768798 0
M  V30 5026 C 457.862 2.39275 -2.65485 0
M  V30 5027 C 457.528 1.92268 -4.07853 0
M  V30 5028 C 456.19 1.79166 -4.46602 0
M  V30 5029 C 458.542 1.56771 -4.97064 0
M  V30 5030 C 455.87 1.28905 -5.72364 0
M  V30 5031 C 458.222 1.07972 -6.23318 0
M  V30 5032 C 456.886 0.934887 -6.60921 0
M  V30 5033 H 456.156 0.469682 -0.573131 0
M  V30 5034 H 458.803 0.588781 -1.82224 0
M  V30 5035 H 457.108 3.1443 -2.33754 0
M  V30 5036 H 458.805 2.974 -2.68988 0
M  V30 5037 H 455.395 2.03417 -3.77252 0
M  V30 5038 H 459.579 1.65753 -4.67803 0
M  V30 5039 H 454.835 1.16381 -6.00221 0
M  V30 5040 H 459.009 0.795775 -6.91838 0
M  V30 5041 H 456.636 0.543231 -7.58257 0
M  V30 5042 N 458.211 1.37122 0.776871 0
M  V30 5043 C 459.451 1.33441 1.54831 0
M  V30 5044 C 459.815 -0.0818963 1.91825 0
M  V30 5045 O 461.016 -0.24338 2.67696 0
M  V30 5046 C 459.287 2.24267 2.78279 0
M  V30 5047 S 460.846 2.38389 3.68397 0
M  V30 5048 H 457.664 0.473791 0.530135 0
M  V30 5049 H 460.266 1.7282 0.913968 0
M  V30 5050 H 458.97 3.261 2.49173 0
M  V30 5051 H 458.501 1.85953 3.46677 0
M  V30 5052 H 460.516 1.59068 4.70013 0
M  V30 5053 N 459.689 -1.00246 1.21608 0
M  V30 5054 C 460.937 -1.73717 1.0328 0
M  V30 5055 C 461.258 -1.90102 -0.434318 0
M  V30 5056 O 460.528 -1.45376 -1.31311 0
M  V30 5057 H 459.108 -0.643613 0.379172 0
M  V30 5058 H 461.77 -1.20787 1.52959 0
M  V30 5059 H 460.866 -2.73535 1.50283 0
M  V30 5060 N 461.167 -1.02423 -1.1978 0
M  V30 5061 C 462.395 -0.737456 -1.93311 0
M  V30 5062 C 462.81 0.703023 -1.75223 0
M  V30 5063 O 462.167 1.47761 -1.07112 0
M  V30 5064 C 462.218 -1.0733 -3.45199 0
M  V30 5065 O 461.939 -2.4572 -3.62702 0
M  V30 5066 C 463.44 -0.80866 -4.35862 0
M  V30 5067 H 460.66 -0.2702 -0.614193 0
M  V30 5068 H 463.204 -1.36747 -1.52054 0
M  V30 5069 H 461.359 -0.488545 -3.84307 0
M  V30 5070 H 461.773 -2.58081 -4.56612 0
M  V30 5071 H 463.247 -1.09365 -5.41057 0
M  V30 5072 H 463.724 0.257025 -4.38447 0
M  V30 5073 H 464.33 -1.37592 -4.02428 0
M  V30 5074 N 462.645 1.35699 -0.801477 0
M  V30 5075 C 464.056 1.81415 -0.441073 0
M  V30 5076 C 464.407 1.66595 1.03636 0
M  V30 5077 O 463.532 1.19369 1.80499 0
M  V30 5078 C 464.127 3.29369 -0.793819 0
M  V30 5079 C 462.686 3.73248 -0.486083 0
M  V30 5080 C 461.833 2.57775 -1.02213 0
M  V30 5081 H 464.784 1.23749 -0.993572 0
M  V30 5082 H 464.805 3.80395 -0.0894158 0
M  V30 5083 H 464.317 3.40123 -1.86917 0
M  V30 5084 H 462.418 3.68046 0.580735 0
M  V30 5085 H 462.531 4.68222 -1.01513 0
M  V30 5086 H 460.895 2.50788 -0.444712 0
M  V30 5087 H 461.678 2.71309 -2.10348 0
M  V30 5088 N 464.123 0.554532 1.47522 0
M  V30 5089 C 465.033 -0.197865 2.33764 0
M  V30 5090 C 466.049 -0.914576 1.48025 0
M  V30 5091 O 467.225 -0.884067 1.80959 0
M  V30 5092 C 464.29 -1.21628 3.24665 0
M  V30 5093 C 463.351 -0.507283 4.26292 0
M  V30 5094 C 462.584 -1.47718 5.1285 0
M  V30 5095 O 462.807 -2.7118 5.01814 0
M  V30 5096 O 461.741 -1.00313 5.93482 0
M  V30 5097 H 465.567 0.50949 2.99396 0
M  V30 5098 H 463.152 0.315176 1.46038 0
M  V30 5099 H 465.034 -1.80421 3.80823 0
M  V30 5100 H 463.709 -1.9056 2.61665 0
M  V30 5101 H 462.616 0.121778 3.73902 0
M  V30 5102 H 463.949 0.140544 4.91999 0
M  V30 5103 N 465.601 -1.54893 0.290851 0
M  V30 5104 C 466.831 -2.04047 -0.323818 0
M  V30 5105 C 467.239 -1.16809 -1.48837 0
M  V30 5106 O 466.582 -0.184145 -1.82775 0
M  V30 5107 C 466.644 -3.49248 -0.852395 0
M  V30 5108 C 466.308 -4.56623 0.185557 0
M  V30 5109 C 467.305 -5.09985 1.01053 0
M  V30 5110 C 464.99 -5.01252 0.324332 0
M  V30 5111 C 466.984 -6.06507 1.96031 0
M  V30 5112 C 464.671 -5.97596 1.27757 0
M  V30 5113 C 465.669 -6.50107 2.09405 0
M  V30 5114 O 465.357 -7.44565 3.03114 0
M  V30 5115 H 465.089 -0.671735 -0.0758129 0
M  V30 5116 H 467.643 -2.00947 0.425393 0
M  V30 5117 H 465.873 -3.49639 -1.65195 0
M  V30 5118 H 467.562 -3.81654 -1.38185 0
M  V30 5119 H 468.328 -4.76307 0.914129 0
M  V30 5120 H 464.207 -4.60015 -0.301213 0
M  V30 5121 H 467.751 -6.47418 2.598 0
M  V30 5122 H 463.648 -6.30691 1.37473 0
M  V30 5123 H 464.416 -7.62334 2.97976 0
M  V30 5124 N 467.08 -0.0183926 -1.57589 0
M  V30 5125 C 468.01 0.965596 -2.12599 0
M  V30 5126 C 468.991 1.34641 -1.0395 0
M  V30 5127 O 470.176 1.42693 -1.31729 0
M  V30 5128 C 467.306 2.25149 -2.64434 0
M  V30 5129 C 466.26 2.01175 -3.77773 0
M  V30 5130 C 465.586 3.35937 -4.15994 0
M  V30 5131 C 466.886 1.35953 -5.04296 0
M  V30 5132 H 468.58 0.507504 -2.95067 0
M  V30 5133 H 466.126 0.242671 -1.41941 0
M  V30 5134 H 468.079 2.94357 -3.01549 0
M  V30 5135 H 466.803 2.73105 -1.79112 0
M  V30 5136 H 465.462 1.34388 -3.4108 0
M  V30 5137 H 465.11 3.81631 -3.27669 0
M  V30 5138 H 464.81 3.20705 -4.92364 0
M  V30 5139 H 466.334 4.0643 -4.55683 0
M  V30 5140 H 467.748 1.95144 -5.39065 0
M  V30 5141 H 466.145 1.31152 -5.85593 0
M  V30 5142 H 467.215 0.331071 -4.83768 0
M  V30 5143 N 468.558 1.5553 0.254621 0
M  V30 5144 C 469.521 1.88872 1.29846 0
M  V30 5145 C 470.521 0.764591 1.41459 0
M  V30 5146 O 471.711 1.03265 1.40293 0
M  V30 5147 C 468.843 2.11032 2.67728 0
M  V30 5148 H 470.036 2.82201 1.01502 0
M  V30 5149 H 467.589 1.48303 0.493556 0
M  V30 5150 H 468.324 1.20146 3.01223 0
M  V30 5151 H 468.109 2.92895 2.60682 0
M  V30 5152 H 469.599 2.38038 3.43115 0
M  V30 5153 N 470.036 -0.519951 1.48776 0
M  V30 5154 C 471.447 -1.10177 1.50725 0
M  V30 5155 C 471.798 -1.94153 0.282678 0
M  V30 5156 O 470.923 -2.07645 -0.609298 0
M  V30 5157 C 471.518 -2.00482 2.73116 0
M  V30 5158 C 470.077 -2.53862 2.77905 0
M  V30 5159 C 469.224 -1.31047 2.44381 0
M  V30 5160 H 472.175 -0.30473 1.55747 0
M  V30 5161 H 472.196 -2.8491 2.52203 0
M  V30 5162 H 471.708 -1.39335 3.62225 0
M  V30 5163 H 469.809 -3.18702 1.93029 0
M  V30 5164 H 469.922 -2.9231 3.79594 0
M  V30 5165 H 468.286 -1.62953 1.95751 0
M  V30 5166 H 469.069 -0.71637 3.35743 0
M  V30 5167 N 471.514 -1.37532 -0.769588 0
M  V30 5168 C 472.424 -1.35668 -1.91393 0
M  V30 5169 C 473.44 -0.255954 -1.72107 0
M  V30 5170 O 474.616 -0.491704 -1.95305 0
M  V30 5171 C 471.681 -1.16481 -3.26547 0
M  V30 5172 C 470.742 -2.36212 -3.58472 0
M  V30 5173 C 469.975 -2.17932 -4.87177 0
M  V30 5174 O 470.198 -1.1647 -5.58382 0
M  V30 5175 O 469.132 -3.06167 -5.18214 0
M  V30 5176 H 472.958 -2.32055 -1.95918 0
M  V30 5177 H 470.543 -1.18284 -0.912641 0
M  V30 5178 H 472.425 -1.07778 -4.07384 0
M  V30 5179 H 471.1 -0.231687 -3.2287 0
M  V30 5180 H 470.007 -2.50488 -2.77861 0
M  V30 5181 H 471.34 -3.281 -3.66894 0
M  V30 5182 N 472.992 0.995999 -1.22138 0
M  V30 5183 C 474.238 1.73767 -1.04561 0
M  V30 5184 C 474.571 1.89633 0.418698 0
M  V30 5185 O 473.846 1.43723 1.3105 0
M  V30 5186 C 474.129 3.14505 -1.75382 0
M  V30 5187 C 473.982 3.06306 -3.29388 0
M  V30 5188 C 475.301 4.13615 -1.50369 0
M  V30 5189 H 472.42 0.630728 -0.38125 0
M  V30 5190 H 475.062 1.16057 -1.50435 0
M  V30 5191 H 473.212 3.63775 -1.36383 0
M  V30 5192 H 474.884 2.64681 -3.77812 0
M  V30 5193 H 473.127 2.43186 -3.59226 0
M  V30 5194 H 473.798 4.05884 -3.74116 0
M  V30 5195 H 476.274 3.73089 -1.84239 0
M  V30 5196 H 475.15 5.10212 -2.02421 0
M  V30 5197 H 475.411 4.39949 -0.435611 0
M  V30 5198 N 474.47 1.03057 1.19235 0
M  V30 5199 C 475.4 0.633497 2.24742 0
M  V30 5200 C 476.381 -0.358335 1.66283 0
M  V30 5201 O 477.566 -0.240676 1.92703 0
M  V30 5202 C 474.696 -0.0147648 3.47297 0
M  V30 5203 C 473.65 0.899527 4.18441 0
M  V30 5204 C 472.976 0.116281 5.34574 0
M  V30 5205 C 474.276 2.21404 4.73051 0
M  V30 5206 H 475.97 1.5155 2.58211 0
M  V30 5207 H 473.516 0.73014 1.24117 0
M  V30 5208 H 475.469 -0.304202 4.20301 0
M  V30 5209 H 474.193 -0.931577 3.13032 0
M  V30 5210 H 472.852 1.17319 3.47321 0
M  V30 5211 H 472.5 -0.802619 4.96555 0
M  V30 5212 H 472.2 0.725293 5.83107 0
M  V30 5213 H 473.724 -0.166376 6.10373 0
M  V30 5214 H 475.138 1.98601 5.37802 0
M  V30 5215 H 473.535 2.77512 5.32078 0
M  V30 5216 H 474.605 2.86752 3.91026 0
M  V30 5217 N 475.948 -1.35272 0.808662 0
M  V30 5218 C 476.858 -2.33546 0.222079 0
M  V30 5219 C 477.874 -1.6196 -0.636011 0
M  V30 5220 O 479.05 -1.93822 -0.547274 0
M  V30 5221 C 476.115 -3.41148 -0.61795 0
M  V30 5222 C 475.176 -4.28507 0.260875 0
M  V30 5223 C 474.409 -5.3097 -0.539156 0
M  V30 5224 O 474.632 -5.42123 -1.77367 0
M  V30 5225 O 473.566 -6.01858 0.0710526 0
M  V30 5226 H 477.392 -2.85515 1.03512 0
M  V30 5227 H 474.977 -1.38079 0.570495 0
M  V30 5228 H 476.859 -4.06889 -1.09634 0
M  V30 5229 H 475.534 -2.91447 -1.40855 0
M  V30 5230 H 474.441 -3.6574 0.786451 0
M  V30 5231 H 475.774 -4.81611 1.01547 0
M  V30 5232 N 477.426 -0.562348 -1.47226 0
M  V30 5233 C 478.703 0.0256985 -1.95583 0
M  V30 5234 C 479.083 1.48032 -1.50498 0
M  V30 5235 O 478.431 2.15973 -0.746181 0
M  V30 5236 C 478.641 -0.125129 -3.48776 0
M  V30 5237 C 479.989 0.0175728 -4.24596 0
M  V30 5238 O 481.013 -0.0529341 -3.56161 0
M  V30 5239 O 479.872 0.170145 -5.46235 0
M  V30 5240 H 476.966 0.0612565 -0.824728 0
M  V30 5241 H 479.512 -0.629233 -1.57603 0
M  V30 5242 H 478.284 -1.13715 -3.74412 0
M  V30 5243 H 477.907 0.567178 -3.93534 0
M  V30 5244 N 478.904 1.54736 -0.299062 0
M  V30 5245 C 479.852 2.24897 0.593658 0
M  V30 5246 C 480.846 1.25429 1.13859 0
M  V30 5247 O 482.052 1.43286 1.08945 0
M  V30 5248 H 478.427 0.72207 0.210046 0
M  V30 5249 H 480.398 2.98393 -0.0206421 0
M  V30 5250 C 479.147 3.00159 1.75499 0
M  V30 5251 H 478.47 3.76501 1.34489 0
M  V30 5252 H 479.91 3.52535 2.35574 0
M  V30 5253 C 478.369 2.07015 2.65794 0
M  V30 5254 O 478.899 1.63692 3.66835 0
M  V30 5255 N 477.105 1.73012 2.33485 0
M  V30 5256 H 476.652 2.08439 1.51364 0
M  V30 5257 H 476.61 1.10965 2.94167 0
M  V30 5258 N 480.382 0.0267497 1.57577 0
M  V30 5259 C 481.659 -0.690926 1.82991 0
M  V30 5260 C 482.039 -1.90471 0.910164 0
M  V30 5261 O 481.387 -2.28474 -0.0347985 0
M  V30 5262 C 481.597 -1.07139 3.32148 0
M  V30 5263 C 482.945 -1.46402 3.98562 0
M  V30 5264 O 483.969 -1.16443 3.36629 0
M  V30 5265 O 482.828 -2.02214 5.07712 0
M  V30 5266 H 479.922 -0.338747 0.75444 0
M  V30 5267 H 482.468 0.0542506 1.69613 0
M  V30 5268 H 481.24 -0.207394 3.9075 0
M  V30 5269 H 480.863 -1.87481 3.50623 0
M  V30 5270 N 481.861 -1.55662 -0.24637 0
M  V30 5271 C 483.091 -1.81312 -0.990438 0
M  V30 5272 C 483.499 -0.600234 -1.79426 0
M  V30 5273 O 482.842 0.440537 -1.78339 0
M  V30 5274 C 482.904 -3.0032 -1.97607 0
M  V30 5275 C 482.568 -4.36322 -1.35912 0
M  V30 5276 C 483.565 -5.14295 -0.761348 0
M  V30 5277 C 481.25 -4.83019 -1.37833 0
M  V30 5278 C 483.244 -6.37114 -0.190998 0
M  V30 5279 C 480.931 -6.05786 -0.804128 0
M  V30 5280 C 481.929 -6.82672 -0.211489 0
M  V30 5281 O 481.617 -8.03121 0.353845 0
M  V30 5282 H 481.349 -0.607233 -0.297058 0
M  V30 5283 H 483.903 -2.0356 -0.274351 0
M  V30 5284 H 482.133 -2.73829 -2.73047 0
M  V30 5285 H 483.822 -3.13057 -2.58361 0
M  V30 5286 H 484.588 -4.79337 -0.739013 0
M  V30 5287 H 480.467 -4.23165 -1.829 0
M  V30 5288 H 484.011 -6.97069 0.272206 0
M  V30 5289 H 479.908 -6.40222 -0.823792 0
M  V30 5290 H 480.676 -8.18131 0.245761 0
M  V30 5291 N 483.339 0.512053 -1.4905 0
M  V30 5292 C 484.587 1.26436 -1.57665 0
M  V30 5293 C 484.908 1.93255 -0.260293 0
M  V30 5294 O 484.178 1.82206 0.719564 0
M  V30 5295 H 482.758 0.469658 -0.580888 0
M  V30 5296 H 485.42 0.594398 -1.85615 0
M  V30 5297 H 484.516 2.03417 -2.36702 0
M  V30 5298 N 484.817 1.37938 0.762283 0
M  V30 5299 C 486.233 1.18945 1.06415 0
M  V30 5300 C 486.433 0.0321163 2.01474 0
M  V30 5301 O 485.489 -0.624844 2.44647 0
M  V30 5302 C 486.802 2.51218 1.65258 0
M  V30 5303 C 488.35 2.57824 1.7747 0
M  V30 5304 C 488.825 3.90251 2.39725 0
M  V30 5305 N 490.316 3.91744 2.47166 0
M  V30 5306 C 491.051 4.90966 2.96209 0
M  V30 5307 N 490.547 6.00585 3.45354 0
M  V30 5308 N 492.34 4.78363 2.9517 0
M  V30 5309 H 484.491 2.11994 0.131301 0
M  V30 5310 H 486.754 0.940262 0.120879 0
M  V30 5311 H 486.46 3.36317 1.02878 0
M  V30 5312 H 486.334 2.68989 2.64433 0
M  V30 5313 H 488.721 1.73126 2.3898 0
M  V30 5314 H 488.802 2.43928 0.770241 0
M  V30 5315 H 488.446 4.75368 1.78852 0
M  V30 5316 H 488.376 4.01454 3.40796 0
M  V30 5317 H 490.867 3.12563 2.12397 0
M  V30 5318 H 491.18 6.72236 3.81207 0
M  V30 5319 H 489.525 6.04217 3.43434 0
M  V30 5320 H 492.716 3.91841 2.56082 0
M  V30 5321 H 492.889 5.55843 3.33081 0
M  V30 5322 N 486.295 -0.989507 1.22664 0
M  V30 5323 C 487.258 -2.06183 1.00106 0
M  V30 5324 C 488.258 -1.60765 -0.0337726 0
M  V30 5325 O 489.448 -1.72989 0.205072 0
M  V30 5326 C 486.58 -3.37021 0.51279 0
M  V30 5327 H 487.773 -2.27629 1.95256 0
M  V30 5328 H 485.326 -1.16158 1.0458 0
M  V30 5329 H 486.061 -3.21261 -0.442917 0
M  V30 5330 H 485.846 -3.71323 1.25942 0
M  V30 5331 H 487.336 -4.1591 0.375315 0
M  V30 5332 N 487.773 -1.03688 -1.18687 0
M  V30 5333 C 489.019 -0.739123 -1.88851 0
M  V30 5334 C 489.352 0.731042 -1.79915 0
M  V30 5335 O 488.627 1.53313 -1.19688 0
M  V30 5336 C 488.91 -1.20106 -3.3948 0
M  V30 5337 C 488.763 -2.73304 -3.57246 0
M  V30 5338 C 490.082 -0.788134 -4.32986 0
M  V30 5339 H 487.201 -0.269978 -0.68577 0
M  V30 5340 H 489.843 -1.28822 -1.3966 0
M  V30 5341 H 487.993 -0.733915 -3.81505 0
M  V30 5342 H 489.665 -3.28027 -3.24339 0
M  V30 5343 H 487.908 -3.13313 -3.00029 0
M  V30 5344 H 488.579 -3.00684 -4.62918 0
M  V30 5345 H 491.055 -1.19005 -3.98719 0
M  V30 5346 H 489.931 -1.13915 -5.36949 0
M  V30 5347 H 490.192 0.308988 -4.41019 0
M  V30 5348 N 489.251 1.34841 -0.815825 0
M  V30 5349 C 490.528 1.92908 -0.323416 0
M  V30 5350 C 490.908 1.74479 1.18828 0
M  V30 5351 O 490.256 1.11928 1.99209 0
M  V30 5352 C 490.466 3.40957 -0.744952 0
M  V30 5353 C 491.814 4.18107 -0.739716 0
M  V30 5354 O 492.838 3.49511 -0.68708 0
M  V30 5355 O 491.697 5.40517 -0.806456 0
M  V30 5356 H 488.791 0.822436 -0.0867646 0
M  V30 5357 H 491.337 1.4386 -0.90014 0
M  V30 5358 H 490.109 3.4814 -1.78646 0
M  V30 5359 H 489.732 3.97341 -0.143535 0
M  V30 5360 N 490.729 0.570148 1.46925 0
M  V30 5361 C 491.975 0.0593124 2.03314 0
M  V30 5362 C 492.33 -1.28139 1.43521 0
M  V30 5363 O 491.623 -1.82411 0.586245 0
M  V30 5364 C 491.817 -0.0780336 3.57315 0
M  V30 5365 C 491.646 1.2478 4.32042 0
M  V30 5366 C 490.416 1.81859 4.7144 0
M  V30 5367 C 492.614 2.16808 4.66368 0
M  V30 5368 N 490.596 3.08313 5.30864 0
M  V30 5369 C 491.967 3.27845 5.2623 0
M  V30 5370 C 494.022 2.16643 4.48297 0
M  V30 5371 C 492.725 4.38832 5.69929 0
M  V30 5372 C 494.751 3.26652 4.93004 0
M  V30 5373 C 494.113 4.36408 5.52926 0
M  V30 5374 H 490.212 0.0641804 0.779362 0
M  V30 5375 H 492.796 0.760285 1.79242 0
M  V30 5376 H 490.967 -0.748151 3.81126 0
M  V30 5377 H 492.699 -0.59211 4.00345 0
M  V30 5378 H 489.454 1.35502 4.53802 0
M  V30 5379 H 489.878 3.72802 5.65108 0
M  V30 5380 H 494.52 1.33065 4.01315 0
M  V30 5381 H 492.238 5.23162 6.15896 0
M  V30 5382 H 495.824 3.27627 4.80782 0
M  V30 5383 H 494.704 5.20127 5.86888 0
M  V30 5384 N 492.207 -1.54576 0.307264 0
M  V30 5385 C 493.453 -2.01272 -0.293453 0
M  V30 5386 C 493.808 -1.19178 -1.51044 0
M  V30 5387 O 493.101 -0.261704 -1.89804 0
M  V30 5388 C 493.295 -3.50572 -0.695253 0
M  V30 5389 C 493.124 -4.47118 0.481249 0
M  V30 5390 C 491.894 -4.958 0.97524 0
M  V30 5391 C 494.092 -4.96853 1.32823 0
M  V30 5392 N 492.074 -5.76212 2.11785 0
M  V30 5393 C 493.445 -5.75028 2.31824 0
M  V30 5394 C 495.5 -4.79026 1.35788 0
M  V30 5395 C 494.203 -6.37276 3.33574 0
M  V30 5396 C 496.229 -5.42097 2.364 0
M  V30 5397 C 495.591 -6.2011 3.34129 0
M  V30 5398 H 491.69 -0.778709 -0.0716705 0
M  V30 5399 H 494.274 -1.89695 0.438602 0
M  V30 5400 H 492.445 -3.62427 -1.39647 0
M  V30 5401 H 494.177 -3.84056 -1.27604 0
M  V30 5402 H 490.932 -4.70405 0.549184 0
M  V30 5403 H 491.356 -6.21101 2.69375 0
M  V30 5404 H 495.998 -4.18288 0.616021 0
M  V30 5405 H 493.716 -6.97144 4.08676 0
M  V30 5406 H 497.302 -5.30229 2.39475 0
M  V30 5407 H 496.182 -6.68049 4.10707 0
M  V30 5408 N 493.685 -0.035106 -1.57561 0
M  V30 5409 C 494.933 0.64096 -1.91667 0
M  V30 5410 C 495.254 1.72323 -0.912681 0
M  V30 5411 O 494.524 1.95849 0.0449089 0
M  V30 5412 H 493.104 0.239743 -0.707483 0
M  V30 5413 H 495.766 -0.084321 -1.94718 0
M  V30 5414 H 494.862 1.08987 -2.92452 0
M  V30 5415 N 495.163 1.55791 0.238111 0
M  V30 5416 C 496.093 1.94068 1.29846 0
M  V30 5417 C 497.074 0.806726 1.49753 0
M  V30 5418 O 498.259 1.06772 1.62214 0
M  V30 5419 C 495.389 2.24302 2.65153 0
M  V30 5420 C 494.343 3.40032 2.59927 0
M  V30 5421 C 493.669 3.55829 3.99111 0
M  V30 5422 C 494.969 4.75476 2.16148 0
M  V30 5423 H 496.663 2.82887 0.980563 0
M  V30 5424 H 494.209 1.36105 0.470253 0
M  V30 5425 H 496.162 2.4967 3.39475 0
M  V30 5426 H 494.886 1.32318 2.98596 0
M  V30 5427 H 493.545 3.14687 1.88063 0
M  V30 5428 H 493.193 2.6125 4.29834 0
M  V30 5429 H 492.893 4.3366 3.96501 0
M  V30 5430 H 494.417 3.83528 4.7512 0
M  V30 5431 H 495.831 5.00158 2.80205 0
M  V30 5432 H 494.228 5.56472 2.24631 0
M  V30 5433 H 495.298 4.71946 1.11333 0
M  V30 5434 N 496.642 -0.504142 1.49319 0
M  V30 5435 C 497.89 -1.25598 1.58334 0
M  V30 5436 C 498.211 -1.93114 0.270538 0
M  V30 5437 O 497.481 -1.82585 -0.709891 0
M  V30 5438 H 496.061 -0.466571 0.58337 0
M  V30 5439 H 498.723 -0.584547 1.85928 0
M  V30 5440 H 497.819 -2.02159 2.37778 0
M  V30 5441 N 498.12 -1.38341 -0.754957 0
M  V30 5442 C 499.366 -1.34672 -1.51628 0
M  V30 5443 C 499.699 0.0636036 -1.94096 0
M  V30 5444 O 498.974 1.0245 -1.6533 0
M  V30 5445 C 499.257 -2.30116 -2.76981 0
M  V30 5446 C 499.11 -3.80003 -2.4066 0
M  V30 5447 C 500.429 -2.23715 -3.78998 0
M  V30 5448 H 497.548 -0.490517 -0.550056 0
M  V30 5449 H 500.19 -1.69178 -0.864807 0
M  V30 5450 H 498.34 -2.00821 -3.3257 0
M  V30 5451 H 500.012 -4.19966 -1.90856 0
M  V30 5452 H 498.255 -3.97751 -1.73137 0
M  V30 5453 H 498.926 -4.42244 -3.30339 0
M  V30 5454 H 501.402 -2.49574 -3.32945 0
M  V30 5455 H 500.278 -2.9261 -4.64403 0
M  V30 5456 H 500.539 -1.23554 -4.24484 0
M  V30 5457 N 499.598 0.982988 -1.23187 0
M  V30 5458 C 500.844 1.72648 -1.06398 0
M  V30 5459 C 501.177 1.90066 0.398561 0
M  V30 5460 O 500.452 1.45105 1.29518 0
M  V30 5461 C 500.735 3.12627 -1.78707 0
M  V30 5462 C 500.588 3.02795 -3.32618 0
M  V30 5463 C 501.907 4.11997 -1.54747 0
M  V30 5464 H 499.026 0.626649 -0.387918 0
M  V30 5465 H 501.668 1.14455 -1.51658 0
M  V30 5466 H 499.818 3.62308 -1.40234 0
M  V30 5467 H 501.49 2.60659 -3.80598 0
M  V30 5468 H 499.733 2.39362 -3.61785 0
M  V30 5469 H 500.404 4.01893 -3.78399 0
M  V30 5470 H 502.88 3.71114 -1.88186 0
M  V30 5471 H 501.756 5.08037 -2.07821 0
M  V30 5472 H 502.017 4.39462 -0.482249 0
M  V30 5473 N 501.076 1.04316 1.18135 0
M  V30 5474 C 502.009 0.580823 2.20685 0
M  V30 5475 C 502.987 -0.385943 1.57953 0
M  V30 5476 O 504.171 -0.299654 1.86103 0
M  V30 5477 C 501.298 -0.151162 3.38363 0
M  V30 5478 C 500.344 0.769247 4.19505 0
M  V30 5479 S 501.177 2.25352 4.85774 0
M  V30 5480 C 502.333 1.53246 6.0685 0
M  V30 5481 H 502.566 1.44968 2.5956 0
M  V30 5482 H 500.099 0.85434 1.28609 0
M  V30 5483 H 502.057 -0.567315 4.06561 0
M  V30 5484 H 500.718 -0.995936 2.97892 0
M  V30 5485 H 499.911 0.203335 5.0359 0
M  V30 5486 H 499.513 1.12436 3.56699 0
M  V30 5487 H 501.805 0.82689 6.72435 0
M  V30 5488 H 502.748 2.35044 6.67952 0
M  V30 5489 H 503.156 1.0237 5.5514 0
M  V30 5490 N 502.554 -1.34406 0.822964 0
M  V30 5491 C 503.784 -2.02214 0.423424 0
M  V30 5492 C 504.192 -1.62124 -0.975322 0
M  V30 5493 O 503.535 -0.822452 -1.6426 0
M  V30 5494 C 503.597 -3.56721 0.446107 0
M  V30 5495 C 503.261 -4.20136 1.79819 0
M  V30 5496 C 504.258 -4.4065 2.75904 0
M  V30 5497 C 501.943 -4.56906 2.08669 0
M  V30 5498 C 503.937 -4.9706 3.99012 0
M  V30 5499 C 501.624 -5.13026 3.32036 0
M  V30 5500 C 502.622 -5.33047 4.27024 0
M  V30 5501 O 502.31 -5.87979 5.48211 0
M  V30 5502 H 502.042 -0.654748 0.168169 0
M  V30 5503 H 504.596 -1.72659 1.11257 0
M  V30 5504 H 502.826 -3.85537 -0.299734 0
M  V30 5505 H 504.515 -4.05845 0.0666114 0
M  V30 5506 H 505.281 -4.12607 2.54912 0
M  V30 5507 H 501.16 -4.40626 1.35535 0
M  V30 5508 H 504.704 -5.12603 4.73164 0
M  V30 5509 H 500.601 -5.40498 3.52891 0
M  V30 5510 H 501.369 -6.06413 5.49732 0
M  V30 5511 N 504.032 -0.577932 -1.46621 0
M  V30 5512 C 504.942 0.160651 -2.34049 0
M  V30 5513 C 505.958 0.890911 -1.49462 0
M  V30 5514 O 507.134 0.855166 -1.82343 0
M  V30 5515 C 504.199 1.16447 -3.26559 0
M  V30 5516 C 503.26 0.4394 -4.27045 0
M  V30 5517 C 502.493 1.3954 -5.15135 0
M  V30 5518 O 502.716 2.63162 -5.06065 0
M  V30 5519 O 501.65 0.908585 -5.95003 0
M  V30 5520 H 505.476 -0.557057 -2.98547 0
M  V30 5521 H 503.061 -0.338369 -1.45518 0
M  V30 5522 H 504.943 1.7434 -3.83645 0
M  V30 5523 H 503.618 1.86373 -2.64663 0
M  V30 5524 H 502.525 -0.181247 -3.73661 0
M  V30 5525 H 503.858 -0.218799 -4.91713 0
M  V30 5526 N 505.51 1.54411 -0.315457 0
M  V30 5527 C 506.443 2.20265 0.596522 0
M  V30 5528 C 507.421 1.17693 1.12192 0
M  V30 5529 O 508.605 1.46397 1.18744 0
M  V30 5530 C 505.732 2.85794 1.81767 0
M  V30 5531 C 504.778 4.02017 1.42424 0
M  V30 5532 S 505.611 5.33452 0.467836 0
M  V30 5533 C 506.767 6.02471 1.69645 0
M  V30 5534 H 507 2.97277 0.0370896 0
M  V30 5535 H 504.533 1.54079 -0.0995562 0
M  V30 5536 H 506.491 3.24172 2.51839 0
M  V30 5537 H 505.152 2.08601 2.34828 0
M  V30 5538 H 504.345 4.46701 2.33396 0
M  V30 5539 H 503.947 3.65271 0.803311 0
M  V30 5540 H 506.239 6.24157 2.63504 0
M  V30 5541 H 507.182 6.96215 1.29192 0
M  V30 5542 H 507.59 5.32284 1.87974 0
M  V30 5543 N 506.988 0.0434614 1.5754 0
M  V30 5544 C 507.921 -0.968729 2.06618 0
M  V30 5545 C 508.899 -1.30868 0.965 0
M  V30 5546 O 510.083 -1.42288 1.23638 0
M  V30 5547 C 507.21 -2.28486 2.50023 0
M  V30 5548 C 506.256 -2.09851 3.71302 0
M  V30 5549 S 507.089 -1.38401 5.17306 0
M  V30 5550 C 508.245 -2.71354 5.64019 0
M  V30 5551 H 508.478 -0.551021 2.92149 0
M  V30 5552 H 506.011 -0.168607 1.53477 0
M  V30 5553 H 507.969 -3.04142 2.75695 0
M  V30 5554 H 506.63 -2.67387 1.64812 0
M  V30 5555 H 505.823 -3.07184 3.99567 0
M  V30 5556 H 505.425 -1.42336 3.45856 0
M  V30 5557 H 507.717 -3.67549 5.69134 0
M  V30 5558 H 508.66 -2.47734 6.6335 0
M  V30 5559 H 509.068 -2.77259 4.91719 0
M  V30 5560 N 508.466 -1.55915 -0.229846 0
M  V30 5561 C 509.706 -1.80314 -0.962614 0
M  V30 5562 C 510.07 -0.61568 -1.81861 0
M  V30 5563 O 511.271 -0.738795 -2.58448 0
M  V30 5564 C 509.542 -3.0956 -1.78627 0
M  V30 5565 S 511.101 -3.55243 -2.57581 0
M  V30 5566 H 507.919 -0.633142 -0.323499 0
M  V30 5567 H 510.521 -1.94155 -0.228919 0
M  V30 5568 H 509.225 -3.94033 -1.14742 0
M  V30 5569 H 508.756 -2.98503 -2.56241 0
M  V30 5570 H 510.771 -3.17924 -3.80971 0
M  V30 5571 N 509.944 0.496216 -1.49584 0
M  V30 5572 C 511.192 1.24756 -1.58998 0
M  V30 5573 C 511.513 1.92968 -0.280775 0
M  V30 5574 O 510.783 1.82959 0.700198 0
M  V30 5575 H 509.363 0.463471 -0.585836 0
M  V30 5576 H 512.025 0.574678 -1.86235 0
M  V30 5577 H 511.121 2.00895 -2.38847 0
M  V30 5578 N 511.423 1.38739 0.74761 0
M  V30 5579 C 512.839 1.20067 1.05148 0
M  V30 5580 C 513.039 0.0534835 2.01429 0
M  V30 5581 O 512.095 -0.59886 2.45296 0
M  V30 5582 C 513.408 2.52957 1.62584 0
M  V30 5583 C 514.956 2.59692 1.74726 0
M  V30 5584 C 515.431 3.92772 2.35573 0
M  V30 5585 N 516.922 3.94343 2.42997 0
M  V30 5586 C 517.657 4.9408 2.90985 0
M  V30 5587 N 517.153 6.04214 3.38965 0
M  V30 5588 N 518.946 4.81466 2.9008 0
M  V30 5589 H 511.097 2.12121 0.108808 0
M  V30 5590 H 513.36 0.941491 0.110899 0
M  V30 5591 H 513.066 3.37389 0.993051 0
M  V30 5592 H 512.94 2.71779 2.61565 0
M  V30 5593 H 515.327 1.75651 2.3713 0
M  V30 5594 H 515.408 2.44731 0.744326 0
M  V30 5595 H 515.052 4.77238 1.738 0
M  V30 5596 H 514.982 4.05046 3.36519 0
M  V30 5597 H 517.473 3.14799 2.0907 0
M  V30 5598 H 517.786 6.76241 3.74056 0
M  V30 5599 H 516.131 6.07825 3.37007 0
M  V30 5600 H 519.322 3.94535 2.51912 0
M  V30 5601 H 519.495 5.59344 3.27166 0
M  V30 5602 N 512.901 -0.976442 1.23707 0
M  V30 5603 C 513.831 -2.08749 1.04624 0
M  V30 5604 C 514.812 -1.70057 -0.0380956 0
M  V30 5605 O 515.997 -1.93782 0.127308 0
M  V30 5606 C 513.127 -3.41335 0.640902 0
M  V30 5607 C 512.081 -3.93947 1.67302 0
M  V30 5608 C 511.407 -5.22774 1.12301 0
M  V30 5609 C 512.707 -4.22769 3.06697 0
M  V30 5610 H 514.401 -2.24972 1.97555 0
M  V30 5611 H 511.947 -1.08108 0.951247 0
M  V30 5612 H 513.9 -4.18489 0.494434 0
M  V30 5613 H 512.624 -3.24988 -0.324099 0
M  V30 5614 H 511.283 -3.18941 1.80755 0
M  V30 5615 H 510.931 -5.0278 0.148877 0
M  V30 5616 H 510.631 -5.58942 1.81267 0
M  V30 5617 H 512.155 -6.02546 0.988479 0
M  V30 5618 H 513.569 -4.90659 2.96524 0
M  V30 5619 H 511.966 -4.70147 3.72937 0
M  V30 5620 H 513.036 -3.29885 3.55392 0
M  V30 5621 N 514.379 -1.04941 -1.1758 0
M  V30 5622 C 515.79 -0.784501 -1.69418 0
M  V30 5623 C 516.141 0.693625 -1.8353 0
M  V30 5624 O 515.266 1.53925 -1.52106 0
M  V30 5625 C 515.861 -1.41746 -3.07723 0
M  V30 5626 C 514.42 -1.20066 -3.56737 0
M  V30 5627 C 513.567 -1.5026 -2.33061 0
M  V30 5628 H 516.518 -1.21469 -1.02133 0
M  V30 5629 H 516.539 -0.825381 -3.7144 0
M  V30 5630 H 516.051 -2.49325 -2.9742 0
M  V30 5631 H 514.152 -0.144006 -3.72322 0
M  V30 5632 H 514.265 -1.90384 -4.39648 0
M  V30 5633 H 512.629 -0.922598 -2.37403 0
M  V30 5634 H 513.412 -2.58967 -2.25368 0
M  V30 5635 N 515.857 1.33968 -0.830081 0
M  V30 5636 C 517.104 1.98063 -0.421566 0
M  V30 5637 C 517.432 1.65787 1.0171 0
M  V30 5638 O 516.687 0.925348 1.72441 0
M  V30 5639 C 516.986 3.52679 -0.57898 0
M  V30 5640 C 516.652 4.04884 -1.98443 0
M  V30 5641 C 515.314 4.18852 -2.36888 0
M  V30 5642 C 517.666 4.32879 -2.90285 0
M  V30 5643 C 514.994 4.58145 -3.66497 0
M  V30 5644 C 517.346 4.7362 -4.19364 0
M  V30 5645 C 516.01 4.85794 -4.57778 0
M  V30 5646 H 515.28 0.724765 -0.154262 0
M  V30 5647 H 517.927 1.59792 -1.05541 0
M  V30 5648 H 516.232 3.91556 0.138219 0
M  V30 5649 H 517.929 4.00261 -0.243317 0
M  V30 5650 H 514.519 3.9448 -1.67581 0
M  V30 5651 H 518.703 4.21619 -2.61823 0
M  V30 5652 H 513.959 4.65762 -3.96075 0
M  V30 5653 H 518.133 4.9424 -4.90612 0
M  V30 5654 H 515.76 5.15998 -5.58256 0
M  V30 5655 N 517.335 0.585699 1.46312 0
M  V30 5656 C 518.565 0.0780166 2.06453 0
M  V30 5657 C 518.973 -1.2336 1.43454 0
M  V30 5658 O 518.316 -1.75734 0.535086 0
M  V30 5659 C 518.378 -0.158951 3.59148 0
M  V30 5660 C 518.042 1.06752 4.44357 0
M  V30 5661 C 519.039 1.98031 4.80708 0
M  V30 5662 C 516.724 1.2902 4.85447 0
M  V30 5663 C 518.718 3.09924 5.5698 0
M  V30 5664 C 516.405 2.41218 5.61478 0
M  V30 5665 C 517.403 3.31499 5.97158 0
M  V30 5666 O 517.091 4.41747 6.71651 0
M  V30 5667 H 516.823 0.0558894 0.673686 0
M  V30 5668 H 519.377 0.806994 1.88883 0
M  V30 5669 H 517.607 -0.942575 3.75037 0
M  V30 5670 H 519.296 -0.615513 4.01206 0
M  V30 5671 H 520.062 1.82043 4.49539 0
M  V30 5672 H 515.941 0.596567 4.57124 0
M  V30 5673 H 519.485 3.80415 5.84748 0
M  V30 5674 H 515.382 2.57167 5.9206 0
M  V30 5675 H 516.15 4.40152 6.90079 0
M  V30 5676 N 518.813 -1.54241 0.323641 0
M  V30 5677 C 519.761 -2.25813 -0.557804 0
M  V30 5678 C 520.755 -1.27225 -1.11849 0
M  V30 5679 O 521.961 -1.45001 -1.06652 0
M  V30 5680 H 518.336 -0.72532 -0.198532 0
M  V30 5681 H 520.307 -2.98322 0.0681112 0
M  V30 5682 C 519.056 -3.02913 -1.70701 0
M  V30 5683 H 518.379 -3.78593 -1.28482 0
M  V30 5684 H 519.819 -3.56238 -2.29935 0
M  V30 5685 C 518.278 -2.11217 -2.62467 0
M  V30 5686 O 518.808 -1.69508 -3.64184 0
M  V30 5687 N 517.014 -1.76704 -2.30703 0
M  V30 5688 H 516.561 -2.1082 -1.48029 0
M  V30 5689 H 516.519 -1.15631 -2.92364 0
M  V30 5690 N 520.291 -0.0518155 -1.57515 0
M  V30 5691 C 521.223 0.951542 -2.08515 0
M  V30 5692 C 522.236 1.27436 -1.01311 0
M  V30 5693 O 523.425 1.23504 -1.28876 0
M  V30 5694 C 520.525 2.27291 -2.5138 0
M  V30 5695 C 519.698 2.13191 -3.81927 0
M  V30 5696 C 518.757 3.28458 -4.11098 0
M  V30 5697 O 517.783 3.04334 -4.81009 0
M  V30 5698 N 518.985 4.52954 -3.63061 0
M  V30 5699 H 521.75 0.516242 -2.9522 0
M  V30 5700 H 519.311 0.13441 -1.61341 0
M  V30 5701 H 521.303 3.03272 -2.67971 0
M  V30 5702 H 519.873 2.62386 -1.69919 0
M  V30 5703 H 519.093 1.21798 -3.74912 0
M  V30 5704 H 520.381 2.00999 -4.67415 0
M  V30 5705 H 519.779 4.75444 -3.06545 0
M  V30 5706 H 518.336 5.26026 -3.84889 0
M  V30 5707 N 521.769 1.56035 0.221574 0
M  V30 5708 C 523.046 1.69837 0.970301 0
M  V30 5709 C 523.426 0.599065 2.02421 0
M  V30 5710 O 522.774 -0.393929 2.25079 0
M  V30 5711 C 522.984 3.11148 1.58076 0
M  V30 5712 C 524.332 3.70555 2.07302 0
M  V30 5713 O 525.356 3.14109 1.6797 0
M  V30 5714 O 524.215 4.69562 2.79596 0
M  V30 5715 H 521.309 0.691727 0.453257 0
M  V30 5716 H 523.855 1.68353 0.213358 0
M  V30 5717 H 522.627 3.82617 0.819759 0
M  V30 5718 H 522.25 3.16749 2.40324 0
M  V30 5719 N 523.247 -0.488276 1.49845 0
M  V30 5720 C 524.197 -1.58556 1.63842 0
M  V30 5721 C 525.181 -1.53142 0.493586 0
M  V30 5722 O 526.373 -1.60457 0.747169 0
M  V30 5723 C 523.502 -2.97101 1.72005 0
M  V30 5724 C 522.588 -3.07463 2.92108 0
M  V30 5725 N 522.979 -2.87681 4.16021 0
M  V30 5726 C 521.277 -3.3858 2.90309 0
M  V30 5727 C 521.978 -3.0256 4.96822 0
M  V30 5728 N 520.954 -3.32002 4.30437 0
M  V30 5729 H 524.756 -1.41935 2.57355 0
M  V30 5730 H 522.27 -0.694668 1.46793 0
M  V30 5731 H 524.267 -3.75976 1.80132 0
M  V30 5732 H 522.927 -3.14782 0.796375 0
M  V30 5733 H 523.938 -2.63603 4.45796 0
M  V30 5734 H 520.615 -3.62357 2.07372 0
M  V30 5735 H 522.005 -2.9165 6.05301 0
M  V30 5736 N 524.725 -1.39134 -0.740242 0
M  V30 5737 C 525.635 -1.39697 -1.88473 0
M  V30 5738 C 526.651 -0.292403 -1.71526 0
M  V30 5739 O 527.827 -0.533021 -1.94219 0
M  V30 5740 C 524.892 -1.23382 -3.24003 0
M  V30 5741 C 523.953 -2.43763 -3.53381 0
M  V30 5742 C 523.186 -2.28216 -4.82445 0
M  V30 5743 O 523.409 -1.28288 -5.55786 0
M  V30 5744 O 522.343 -3.1709 -5.11603 0
M  V30 5745 H 526.169 -2.36159 -1.90952 0
M  V30 5746 H 523.754 -1.20194 -0.887346 0
M  V30 5747 H 525.636 -1.16395 -4.05006 0
M  V30 5748 H 524.311 -0.300121 -3.22306 0
M  V30 5749 H 523.218 -2.56325 -2.72485 0
M  V30 5750 H 524.551 -3.35808 -3.59852 0
M  V30 5751 N 526.204 0.969867 -1.24223 0
M  V30 5752 C 527.62 1.23809 -1.00716 0
M  V30 5753 C 527.82 1.99469 0.285358 0
M  V30 5754 O 526.876 2.31764 1.00207 0
M  V30 5755 C 528.189 2.02734 -2.2208 0
M  V30 5756 C 529.737 2.15834 -2.26681 0
M  V30 5757 C 530.212 2.98154 -3.47661 0
M  V30 5758 N 531.703 3.05737 -3.47964 0
M  V30 5759 C 532.438 3.69785 -4.38231 0
M  V30 5760 N 531.934 4.35569 -5.3875 0
M  V30 5761 N 533.727 3.66775 -4.25949 0
M  V30 5762 H 525.878 0.463294 -2.07286 0
M  V30 5763 H 528.141 0.267348 -0.909521 0
M  V30 5764 H 527.847 1.54524 -3.15935 0
M  V30 5765 H 527.721 3.0347 -2.24021 0
M  V30 5766 H 530.108 2.63248 -1.33359 0
M  V30 5767 H 530.189 1.14453 -2.28767 0
M  V30 5768 H 529.833 2.51435 -4.41297 0
M  V30 5769 H 529.763 3.99729 -3.42818 0
M  V30 5770 H 532.254 2.58941 -2.75242 0
M  V30 5771 H 532.567 4.82251 -6.03866 0
M  V30 5772 H 530.912 4.34244 -5.42639 0
M  V30 5773 H 534.103 3.14558 -3.46657 0
M  V30 5774 H 534.276 4.16407 -4.96497 0
M  V30 5775 N 527.682 1.05563 1.17022 0
M  V30 5776 C 528.612 0.681026 2.23348 0
M  V30 5777 C 529.593 -0.322983 1.67005 0
M  V30 5778 O 530.778 -0.199746 1.9317 0
M  V30 5779 C 527.908 0.0589053 3.4725 0
M  V30 5780 C 526.862 0.988082 4.16438 0
M  V30 5781 C 526.188 0.229646 5.34207 0
M  V30 5782 C 527.488 2.31388 4.68249 0
M  V30 5783 H 529.182 1.56993 2.54938 0
M  V30 5784 H 526.728 0.756302 1.2254 0
M  V30 5785 H 528.681 -0.214982 4.20851 0
M  V30 5786 H 527.405 -0.864968 3.14938 0
M  V30 5787 H 526.064 1.24659 3.44754 0
M  V30 5788 H 525.712 -0.697111 4.98146 0
M  V30 5789 H 525.412 0.848815 5.81437 0
M  V30 5790 H 526.936 -0.0368694 6.10589 0
M  V30 5791 H 528.35 2.09964 5.33468 0
M  V30 5792 H 526.747 2.88736 5.26072 0
M  V30 5793 H 527.817 2.94982 3.84855 0
M  V30 5794 N 529.16 -1.33526 0.837174 0
M  V30 5795 C 530.407 -1.97837 0.432064 0
M  V30 5796 C 530.735 -1.66324 -1.00829 0
M  V30 5797 O 529.99 -0.93448 -1.71948 0
M  V30 5798 C 530.289 -3.52367 0.597675 0
M  V30 5799 C 529.955 -4.03826 2.00587 0
M  V30 5800 C 528.617 -4.1759 2.39106 0
M  V30 5801 C 530.969 -4.31333 2.92576 0
M  V30 5802 C 528.297 -4.56195 3.68921 0
M  V30 5803 C 530.649 -4.7139 4.2187 0
M  V30 5804 C 529.313 -4.8336 4.60347 0
M  V30 5805 H 528.583 -0.723937 0.158104 0
M  V30 5806 H 531.23 -1.5923 1.06387 0
M  V30 5807 H 529.535 -3.91624 -0.117452 0
M  V30 5808 H 531.232 -4.00126 0.26454 0
M  V30 5809 H 527.822 -3.93586 1.69671 0
M  V30 5810 H 532.006 -4.20224 2.64056 0
M  V30 5811 H 527.262 -4.63655 3.9854 0
M  V30 5812 H 531.436 -4.91631 4.93226 0
M  V30 5813 H 529.063 -5.1303 5.60985 0
M  V30 5814 N 530.638 -0.59345 -1.46 0
M  V30 5815 C 531.548 0.135817 -2.34207 0
M  V30 5816 C 532.564 0.875008 -1.50398 0
M  V30 5817 O 533.74 0.835778 -1.83239 0
M  V30 5818 C 530.805 1.12977 -3.27776 0
M  V30 5819 C 529.866 0.394081 -4.27487 0
M  V30 5820 C 529.099 1.34068 -5.16586 0
M  V30 5821 O 529.322 2.5778 -5.08828 0
M  V30 5822 O 528.256 0.845426 -5.95933 0
M  V30 5823 H 532.082 -0.588691 -2.9794 0
M  V30 5824 H 529.667 -0.353784 -1.45151 0
M  V30 5825 H 531.549 1.70261 -3.85473 0
M  V30 5826 H 530.224 1.83556 -2.66625 0
M  V30 5827 H 529.131 -0.220869 -3.73447 0
M  V30 5828 H 530.464 -0.270939 -4.91454 0
M  V30 5829 N 532.116 1.54067 -0.331816 0
M  V30 5830 C 533.046 2.27569 0.522932 0
M  V30 5831 C 534.027 1.28679 1.11247 0
M  V30 5832 O 535.212 1.57504 1.13605 0
M  V30 5833 C 532.342 3.0397 1.67987 0
M  V30 5834 C 531.296 4.10267 1.21924 0
M  V30 5835 C 530.622 4.74555 2.46377 0
M  V30 5836 C 531.922 5.21268 0.32815 0
M  V30 5837 H 533.616 2.99264 -0.0901977 0
M  V30 5838 H 531.162 1.4393 -0.044821 0
M  V30 5839 H 533.115 3.54123 2.28418 0
M  V30 5840 H 531.839 2.29906 2.31971 0
M  V30 5841 H 530.498 3.61009 0.637809 0
M  V30 5842 H 530.146 3.97098 3.08743 0
M  V30 5843 H 529.846 5.46363 2.16243 0
M  V30 5844 H 531.37 5.27487 3.07555 0
M  V30 5845 H 532.784 5.67128 0.838978 0
M  V30 5846 H 531.181 5.99982 0.119228 0
M  V30 5847 H 532.251 4.80673 -0.638839 0
M  V30 5848 N 533.594 0.0601682 1.57485 0
M  V30 5849 C 534.843 -0.611101 1.9222 0
M  V30 5850 C 535.156 -1.71469 0.941159 0
M  V30 5851 O 536.362 -2.44473 1.18089 0
M  V30 5852 C 534.818 -1.13832 3.41424 0
M  V30 5853 C 534.426 -0.0663596 4.47951 0
M  V30 5854 C 536.17 -1.78432 3.85178 0
M  V30 5855 C 534.077 -0.606965 5.88277 0
M  V30 5856 H 533.007 -0.232033 0.71741 0
M  V30 5857 H 535.658 0.130518 1.83035 0
M  V30 5858 H 534.04 -1.93254 3.45643 0
M  V30 5859 H 535.214 0.707682 4.55333 0
M  V30 5860 H 533.529 0.482715 4.13593 0
M  V30 5861 H 536.126 -2.1989 4.87394 0
M  V30 5862 H 536.469 -2.63966 3.21913 0
M  V30 5863 H 537.002 -1.05651 3.83514 0
M  V30 5864 H 533.741 0.21095 6.5516 0
M  V30 5865 H 533.261 -1.34879 5.84438 0
M  V30 5866 H 534.94 -1.08704 6.37803 0
M  V30 5867 N 535.072 -1.5615 -0.213296 0
M  V30 5868 C 536.002 -1.96109 -1.26742 0
M  V30 5869 C 536.983 -0.830448 -1.48451 0
M  V30 5870 O 538.168 -1.09339 -1.60495 0
M  V30 5871 C 535.298 -2.28492 -2.61551 0
M  V30 5872 C 534.252 -3.44124 -2.54485 0
M  V30 5873 C 533.578 -3.62134 -3.93399 0
M  V30 5874 C 534.878 -4.78855 -2.08556 0
M  V30 5875 H 536.572 -2.84412 -0.935434 0
M  V30 5876 H 534.118 -1.36836 -0.44854 0
M  V30 5877 H 536.071 -2.55039 -3.3546 0
M  V30 5878 H 534.795 -1.37052 -2.96453 0
M  V30 5879 H 533.454 -3.17639 -1.83033 0
M  V30 5880 H 533.102 -2.68055 -4.25623 0
M  V30 5881 H 532.802 -4.39913 -3.89551 0
M  V30 5882 H 534.326 -3.91038 -4.68958 0
M  V30 5883 H 535.74 -5.04552 -2.72213 0
M  V30 5884 H 534.137 -5.59975 -2.1575 0
M  V30 5885 H 535.207 -4.73657 -1.03811 0
M  V30 5886 N 536.55 0.480323 -1.50102 0
M  V30 5887 C 537.483 1.59789 -1.62919 0
M  V30 5888 C 538.461 1.55429 -0.477557 0
M  V30 5889 O 539.645 1.75186 -0.695851 0
M  V30 5890 C 536.772 2.98351 -1.60325 0
M  V30 5891 C 535.818 3.20899 -2.80938 0
M  V30 5892 S 536.651 3.01791 -4.4236 0
M  V30 5893 C 537.807 4.42712 -4.42444 0
M  V30 5894 H 538.04 1.48676 -2.57454 0
M  V30 5895 H 535.573 0.666996 -1.3925 0
M  V30 5896 H 537.531 3.7824 -1.59514 0
M  V30 5897 H 536.192 3.06862 -0.670419 0
M  V30 5898 H 535.385 4.22102 -2.75401 0
M  V30 5899 H 534.987 2.48768 -2.79268 0
M  V30 5900 H 537.279 5.3518 -4.15438 0
M  V30 5901 H 538.222 4.53294 -5.43995 0
M  V30 5902 H 538.63 4.24359 -3.72263 0
M  V30 5903 N 538.028 1.39524 0.732853 0
M  V30 5904 C 538.938 1.40695 1.87729 0
M  V30 5905 C 539.954 0.301496 1.71368 0
M  V30 5906 O 541.13 0.543313 1.93933 0
M  V30 5907 C 538.195 1.25098 3.23344 0
M  V30 5908 C 537.256 2.45634 3.52083 0
M  V30 5909 C 536.489 2.30772 4.81228 0
M  V30 5910 O 536.712 1.31233 5.55098 0
M  V30 5911 O 535.646 3.19799 5.09914 0
M  V30 5912 H 539.472 2.37168 1.89697 0
M  V30 5913 H 537.057 1.20663 0.880959 0
M  V30 5914 H 538.939 1.18541 4.04383 0
M  V30 5915 H 537.614 0.317209 3.22142 0
M  V30 5916 H 536.521 2.57767 2.71122 0
M  V30 5917 H 537.854 3.37712 3.58066 0
M  V30 5918 N 539.506 -0.963266 1.24736 0
M  V30 5919 C 540.416 -2.09246 1.06082 0
M  V30 5920 C 541.432 -1.74 0.000363101 0
M  V30 5921 O 542.608 -2.0041 0.199479 0
M  V30 5922 C 539.673 -3.40115 0.672498 0
M  V30 5923 C 538.734 -3.89282 1.80993 0
M  V30 5924 C 537.967 -5.13905 1.44004 0
M  V30 5925 O 538.19 -5.69434 0.331835 0
M  V30 5926 O 537.124 -5.57566 2.26723 0
M  V30 5927 H 540.95 -2.27881 2.00759 0
M  V30 5928 H 538.535 -1.07649 1.03595 0
M  V30 5929 H 540.417 -4.18797 0.467668 0
M  V30 5930 H 539.092 -3.22771 -0.245102 0
M  V30 5931 H 537.999 -3.11642 2.06955 0
M  V30 5932 H 539.332 -4.1111 2.70646 0
M  V30 5933 N 540.985 -1.06182 -1.16461 0
M  V30 5934 C 542.234 -0.772927 -1.86303 0
M  V30 5935 C 542.547 0.703187 -1.82523 0
M  V30 5936 O 543.753 1.10641 -2.47933 0
M  V30 5937 C 542.209 -1.33249 -3.34324 0
M  V30 5938 C 541.817 -2.83876 -3.46581 0
M  V30 5939 C 543.561 -1.12108 -4.09429 0
M  V30 5940 C 541.468 -3.33082 -4.88682 0
M  V30 5941 H 540.398 -0.285452 -0.697878 0
M  V30 5942 H 543.049 -1.28039 -1.31447 0
M  V30 5943 H 541.431 -0.7528 -3.88779 0
M  V30 5944 H 542.605 -3.47786 -3.02293 0
M  V30 5945 H 540.92 -3.03671 -2.84909 0
M  V30 5946 H 543.517 -1.46361 -5.14279 0
M  V30 5947 H 543.86 -0.0593832 -4.16258 0
M  V30 5948 H 544.393 -1.6665 -3.6121 0
M  V30 5949 H 541.132 -4.38726 -4.87032 0
M  V30 5950 H 540.652 -2.73919 -5.33599 0
M  V30 5951 H 542.331 -3.28344 -5.57494 0
M  V30 5952 N 542.463 1.3308 -0.844243 0
M  V30 5953 C 543.879 1.50447 -0.532729 0
M  V30 5954 C 544.079 1.78292 0.938837 0
M  V30 5955 O 543.135 1.84635 1.72239 0
M  V30 5956 C 544.448 2.65555 -1.41072 0
M  V30 5957 C 545.996 2.7944 -1.41005 0
M  V30 5958 C 546.471 3.97616 -2.27301 0
M  V30 5959 N 547.962 4.0486 -2.2504 0
M  V30 5960 C 548.697 4.95508 -2.88547 0
M  V30 5961 N 548.193 5.91236 -3.61126 0
M  V30 5962 N 549.986 4.88548 -2.77989 0
M  V30 5963 H 542.137 1.13269 -1.79677 0
M  V30 5964 H 544.4 0.55734 -0.766861 0
M  V30 5965 H 544.106 2.51675 -2.45668 0
M  V30 5966 H 543.98 3.61089 -1.09061 0
M  V30 5967 H 546.367 2.92749 -0.371784 0
M  V30 5968 H 546.448 1.8465 -1.77026 0
M  V30 5969 H 546.092 3.85066 -3.3119 0
M  V30 5970 H 546.022 4.91661 -1.88619 0
M  V30 5971 H 548.513 3.36353 -1.72264 0
M  V30 5972 H 548.826 6.57079 -4.06776 0
M  V30 5973 H 547.171 5.91295 -3.65234 0
M  V30 5974 H 550.362 4.12729 -2.20846 0
M  V30 5975 H 550.535 5.58994 -3.27765 0
M  V30 5976 N 543.941 0.601185 1.45683 0
M  V30 5977 C 545.188 0.0938811 2.02282 0
M  V30 5978 C 545.516 -1.27315 1.47041 0
M  V30 5979 O 544.771 -1.85193 0.632623 0
M  V30 5980 C 545.07 -0.00222425 3.574 0
M  V30 5981 C 544.736 1.29963 4.31764 0
M  V30 5982 C 543.398 1.65625 4.51798 0
M  V30 5983 C 545.75 2.1603 4.74321 0
M  V30 5984 C 543.078 2.87119 5.11644 0
M  V30 5985 C 545.43 3.36766 5.3551 0
M  V30 5986 C 544.094 3.72689 5.53768 0
M  V30 5987 H 543.364 0.0343535 0.740203 0
M  V30 5988 H 546.011 0.781522 1.74827 0
M  V30 5989 H 544.316 -0.773096 3.84097 0
M  V30 5990 H 546.013 -0.410794 3.9889 0
M  V30 5991 H 542.603 1.01204 4.1648 0
M  V30 5992 H 546.787 1.89778 4.58582 0
M  V30 5993 H 542.043 3.15065 5.2397 0
M  V30 5994 H 546.217 4.03713 5.67441 0
M  V30 5995 H 543.844 4.66918 5.99909 0
M  V30 5996 N 545.419 -1.53889 0.339982 0
M  V30 5997 C 546.83 -1.86139 -0.144671 0
M  V30 5998 C 547.181 -1.2613 -1.50285 0
M  V30 5999 O 546.306 -0.573515 -2.08662 0
M  V30 6000 C 546.901 -3.37728 -0.269285 0
M  V30 6001 C 545.46 -3.69868 -0.698168 0
M  V30 6002 C 544.607 -2.76777 0.170249 0
M  V30 6003 H 547.558 -1.48503 0.559704 0
M  V30 6004 H 547.579 -3.64331 -1.0974 0
M  V30 6005 H 547.091 -3.81375 0.719366 0
M  V30 6006 H 545.192 -3.31764 -1.69597 0
M  V30 6007 H 545.305 -4.76582 -0.490533 0
M  V30 6008 H 543.669 -2.52188 -0.356844 0
M  V30 6009 H 544.452 -3.23253 1.15597 0
M  V30 6010 N 546.897 -0.0685191 -1.57451 0
M  V30 6011 C 548.313 0.288101 -1.56978 0
M  V30 6012 C 548.513 1.70262 -1.07765 0
M  V30 6013 O 547.569 2.4135 -0.742054 0
M  V30 6014 C 548.882 0.100745 -3.00531 0
M  V30 6015 C 550.43 0.170531 -3.12535 0
M  V30 6016 C 550.905 0.0114944 -4.57999 0
M  V30 6017 N 552.396 0.0672065 -4.63151 0
M  V30 6018 C 553.131 -0.0314813 -5.73391 0
M  V30 6019 N 552.627 -0.183503 -6.92557 0
M  V30 6020 N 554.42 0.0253489 -5.62094 0
M  V30 6021 H 546.571 -0.993026 -1.87757 0
M  V30 6022 H 548.834 -0.386981 -0.865419 0
M  V30 6023 H 548.54 -0.875197 -3.40636 0
M  V30 6024 H 548.414 0.854457 -3.67395 0
M  V30 6025 H 550.801 1.13696 -2.72318 0
M  V30 6026 H 550.882 -0.614229 -2.48316 0
M  V30 6027 H 550.526 -0.951684 -4.98904 0
M  V30 6028 H 550.456 0.815617 -5.20245 0
M  V30 6029 H 552.947 0.183246 -3.77455 0
M  V30 6030 H 553.26 -0.251041 -7.72392 0
M  V30 6031 H 551.605 -0.218822 -6.94655 0
M  V30 6032 H 554.796 0.142794 -4.67882 0
M  V30 6033 H 554.969 -0.0550166 -6.47977 0
M  V30 6034 N 548.375 1.56261 0.205012 0
M  V30 6035 C 549.603 1.84141 0.943386 0
M  V30 6036 C 550.018 0.649772 1.77266 0
M  V30 6037 O 549.375 -0.381612 1.78466 0
M  V30 6038 C 549.426 3.10719 1.84759 0
M  V30 6039 O 549.147 4.25286 1.05181 0
M  V30 6040 C 550.648 3.51706 2.69848 0
M  V30 6041 H 547.868 0.611734 0.275721 0
M  V30 6042 H 550.412 2.03364 0.215253 0
M  V30 6043 H 548.567 2.93422 2.52947 0
M  V30 6044 H 548.981 4.97301 1.66709 0
M  V30 6045 H 550.455 4.43266 3.28967 0
M  V30 6046 H 550.932 2.7423 3.43067 0
M  V30 6047 H 551.538 3.71499 2.07047 0
M  V30 6048 N 549.853 -0.472356 1.50355 0
M  V30 6049 C 550.783 -1.57859 1.72055 0
M  V30 6050 C 551.764 -1.60283 0.569505 0
M  V30 6051 O 552.949 -1.7657 0.808503 0
M  V30 6052 C 550.079 -2.96191 1.81351 0
M  V30 6053 C 549.033 -3.08633 2.96529 0
M  V30 6054 C 548.359 -4.486 2.90968 0
M  V30 6055 C 549.659 -2.85969 4.37057 0
M  V30 6056 H 551.353 -1.39953 2.64676 0
M  V30 6057 H 548.899 -0.671846 1.27367 0
M  V30 6058 H 550.852 -3.73507 1.95117 0
M  V30 6059 H 549.576 -3.15251 0.853502 0
M  V30 6060 H 548.235 -2.33749 2.82413 0
M  V30 6061 H 547.883 -4.64577 1.92815 0
M  V30 6062 H 547.583 -4.57861 3.68289 0
M  V30 6063 H 549.107 -5.27938 3.0678 0
M  V30 6064 H 550.521 -3.53036 4.51706 0
M  V30 6065 H 548.918 -3.06677 5.15819 0
M  V30 6066 H 549.988 -1.81838 4.49514 0
M  V30 6067 N 551.331 -1.39911 -0.725443 0
M  V30 6068 C 552.556 -1.41137 -1.5197 0
M  V30 6069 C 552.981 -0.010262 -1.88097 0
M  V30 6070 O 552.339 0.979184 -1.52583 0
M  V30 6071 C 552.387 -2.2994 -2.77777 0
M  V30 6072 O 551.491 -1.73586 -3.74088 0
M  V30 6073 H 550.832 -0.480219 -0.458569 0
M  V30 6074 H 553.362 -1.84023 -0.894249 0
M  V30 6075 H 553.372 -2.44785 -3.26411 0
M  V30 6076 H 552.047 -3.31759 -2.50816 0
M  V30 6077 H 550.624 -1.68035 -3.32894 0
M  V30 6078 N 552.809 0.956637 -1.25245 0
M  V30 6079 C 554.22 1.51569 -1.09012 0
M  V30 6080 C 554.571 1.93322 0.334813 0
M  V30 6081 O 553.696 1.78421 1.22454 0
M  V30 6082 C 554.291 2.75444 -1.97271 0
M  V30 6083 C 552.85 3.27669 -1.8523 0
M  V30 6084 C 551.997 2.00517 -1.91542 0
M  V30 6085 H 554.948 0.773746 -1.3856 0
M  V30 6086 H 554.969 3.4919 -1.51151 0
M  V30 6087 H 554.481 2.45024 -3.00973 0
M  V30 6088 H 552.582 3.62914 -0.844045 0
M  V30 6089 H 552.695 3.9582 -2.69932 0
M  V30 6090 H 551.059 2.15727 -1.35404 0
M  V30 6091 H 551.842 1.72448 -2.96844 0
M  V30 6092 N 554.287 1.06798 1.15896 0
M  V30 6093 C 555.197 0.694564 2.24083 0
M  V30 6094 C 556.213 -0.291687 1.71538 0
M  V30 6095 O 557.389 -0.139723 2.00915 0
M  V30 6096 C 554.454 0.0921014 3.46578 0
M  V30 6097 C 553.515 1.13087 4.14137 0
M  V30 6098 C 552.748 0.557064 5.30785 0
M  V30 6099 O 552.971 -0.628623 5.66925 0
M  V30 6100 O 551.905 1.29924 5.8771 0
M  V30 6101 H 555.731 1.59663 2.58344 0
M  V30 6102 H 553.316 0.840575 1.2351 0
M  V30 6103 H 555.198 -0.241884 4.20705 0
M  V30 6104 H 553.873 -0.78337 3.14078 0
M  V30 6105 H 552.78 1.51712 3.41957 0
M  V30 6106 H 554.113 1.97805 4.50704 0
M  V30 6107 N 555.766 -1.3263 0.851289 0
M  V30 6108 C 556.729 -2.27247 0.298541 0
M  V30 6109 C 557.729 -1.51467 -0.539847 0
M  V30 6110 O 558.919 -1.7061 -0.351843 0
M  V30 6111 C 556.051 -3.35964 -0.578004 0
M  V30 6112 H 557.244 -2.7765 1.13359 0
M  V30 6113 H 554.797 -1.43245 0.625354 0
M  V30 6114 H 555.532 -2.90823 -1.435 0
M  V30 6115 H 555.317 -3.92094 0.0220539 0
M  V30 6116 H 556.807 -4.06472 -0.957626 0
M  V30 6117 N 557.244 -0.608902 -1.45362 0
M  V30 6118 C 558.191 0.109172 -2.30542 0
M  V30 6119 C 559.161 0.858704 -1.42181 0
M  V30 6120 O 560.346 0.844178 -1.71109 0
M  V30 6121 C 557.486 1.09971 -3.27109 0
M  V30 6122 C 556.599 0.350911 -4.30572 0
M  V30 6123 C 555.734 1.33129 -5.14247 0
M  V30 6124 C 554.773 0.570377 -6.09437 0
M  V30 6125 N 553.91 1.5001 -6.85887 0
M  V30 6126 H 558.75 -0.623195 -2.91411 0
M  V30 6127 H 556.287 -0.319122 -1.43597 0
M  V30 6128 H 558.245 1.68714 -3.81564 0
M  V30 6129 H 556.875 1.79947 -2.67991 0
M  V30 6130 H 555.927 -0.352054 -3.78767 0
M  V30 6131 H 557.239 -0.242725 -4.98209 0
M  V30 6132 H 556.393 1.99074 -5.73109 0
M  V30 6133 H 555.132 1.95885 -4.46632 0
M  V30 6134 H 554.137 -0.102702 -5.49704 0
M  V30 6135 H 555.362 -0.0521607 -6.7908 0
M  V30 6136 H 553.308 2.11529 -6.2096 0
M  V30 6137 H 553.225 0.959934 -7.49881 0
M  V30 6138 H 554.493 2.14909 -7.49289 0
M  V30 6139 N 558.722 1.53707 -0.348139 0
M  V30 6140 C 559.947 2.05877 0.250883 0
M  V30 6141 C 560.372 1.22115 1.43072 0
M  V30 6142 O 559.73 0.235986 1.79758 0
M  V30 6143 C 559.778 3.54886 0.639416 0
M  V30 6144 O 558.882 3.73948 1.73888 0
M  V30 6145 H 558.223 0.662754 0.040653 0
M  V30 6146 H 560.753 1.98303 -0.503685 0
M  V30 6147 H 560.763 3.97601 0.915295 0
M  V30 6148 H 559.438 4.153 -0.223386 0
M  V30 6149 H 558.015 3.43134 1.45991 0
M  V30 6150 N 560.2 0.0768682 1.57412 0
M  V30 6151 C 561.13 -0.886026 2.16037 0
M  V30 6152 C 562.111 -1.30691 1.08876 0
M  V30 6153 O 563.296 -1.37705 1.36934 0
M  V30 6154 C 560.426 -2.1518 2.72608 0
M  V30 6155 C 559.38 -1.87015 3.8498 0
M  V30 6156 C 558.706 -3.20266 4.28175 0
M  V30 6157 C 560.006 -1.17143 5.08994 0
M  V30 6158 H 561.7 -0.397642 2.96748 0
M  V30 6159 H 559.246 -0.189823 1.42743 0
M  V30 6160 H 561.199 -2.82962 3.12266 0
M  V30 6161 H 559.923 -2.66269 1.89125 0
M  V30 6162 H 558.582 -1.21636 3.45833 0
M  V30 6163 H 558.23 -3.69207 3.41607 0
M  V30 6164 H 557.93 -3.0221 5.03927 0
M  V30 6165 H 559.454 -3.89237 4.70454 0
M  V30 6166 H 560.868 -1.75003 5.45937 0
M  V30 6167 H 559.265 -1.09328 5.90057 0
M  V30 6168 H 560.335 -0.151295 4.84664 0
M  V30 6169 N 561.678 -1.56367 -0.196722 0
M  V30 6170 C 562.608 -1.97442 -1.24655 0
M  V30 6171 C 563.589 -0.846147 -1.47561 0
M  V30 6172 O 564.774 -1.11035 -1.59326 0
M  V30 6173 C 561.904 -2.31253 -2.59112 0
M  V30 6174 C 560.858 -3.46804 -2.50821 0
M  V30 6175 C 560.184 -3.66286 -3.89536 0
M  V30 6176 C 561.484 -4.8104 -2.03465 0
M  V30 6177 H 563.178 -2.85388 -0.905216 0
M  V30 6178 H 560.724 -1.37304 -0.434002 0
M  V30 6179 H 562.677 -2.58583 -3.32736 0
M  V30 6180 H 561.401 -1.40188 -2.94983 0
M  V30 6181 H 560.06 -3.19563 -1.79653 0
M  V30 6182 H 559.708 -2.72555 -4.22756 0
M  V30 6183 H 559.408 -4.4402 -3.84864 0
M  V30 6184 H 560.932 -3.9599 -4.64784 0
M  V30 6185 H 562.346 -5.07411 -2.66846 0
M  V30 6186 H 560.743 -5.62232 -2.09798 0
M  V30 6187 H 561.813 -4.74732 -0.98781 0
M  V30 6188 N 563.156 0.464375 -1.50603 0
M  V30 6189 C 564.119 1.54393 -1.69397 0
M  V30 6190 C 565.119 1.50566 -0.564504 0
M  V30 6191 O 566.309 1.53066 -0.831645 0
M  V30 6192 C 563.441 2.9401 -1.72543 0
M  V30 6193 H 564.634 1.39044 -2.65719 0
M  V30 6194 H 562.187 0.69122 -1.40185 0
M  V30 6195 H 562.922 3.14795 -0.77938 0
M  V30 6196 H 562.707 2.98195 -2.54602 0
M  V30 6197 H 564.197 3.72375 -1.89015 0
M  V30 6198 N 564.634 1.40294 0.718013 0
M  V30 6199 C 565.882 1.38167 1.47494 0
M  V30 6200 C 566.203 -0.01607 1.94993 0
M  V30 6201 O 565.473 -0.970396 1.70177 0
M  V30 6202 H 564.053 0.508505 0.547203 0
M  V30 6203 H 566.715 1.75324 0.851322 0
M  V30 6204 H 565.811 2.05503 2.34894 0
M  V30 6205 N 566.112 -0.949982 1.2575 0
M  V30 6206 C 567.042 -2.06483 1.09028 0
M  V30 6207 C 568.023 -1.701 -0.00201532 0
M  V30 6208 O 569.208 -1.93469 0.168383 0
M  V30 6209 C 566.338 -3.39899 0.71316 0
M  V30 6210 C 565.292 -3.90309 1.75621 0
M  V30 6211 C 564.618 -5.20274 1.23365 0
M  V30 6212 C 565.918 -4.16169 3.15596 0
M  V30 6213 H 567.612 -2.20731 2.02283 0
M  V30 6214 H 565.158 -1.06066 0.973964 0
M  V30 6215 H 567.111 -4.17346 0.58309 0
M  V30 6216 H 565.835 -3.25602 -0.255091 0
M  V30 6217 H 564.494 -3.15035 1.8748 0
M  V30 6218 H 564.142 -5.02351 0.255491 0
M  V30 6219 H 563.842 -5.54971 1.93082 0
M  V30 6220 H 565.366 -6.00314 1.11607 0
M  V30 6221 H 566.78 -4.84259 3.06864 0
M  V30 6222 H 565.177 -4.62131 3.82825 0
M  V30 6223 H 566.247 -3.22273 3.6231 0
M  V30 6224 N 567.59 -1.07411 -1.15328 0
M  V30 6225 C 568.52 -0.716472 -2.22236 0
M  V30 6226 C 569.501 0.296373 -1.67498 0
M  V30 6227 O 570.686 0.168989 -1.93463 0
M  V30 6228 C 567.816 -0.114142 -3.47112 0
M  V30 6229 C 566.77 -1.05421 -4.14814 0
M  V30 6230 C 566.096 -0.314604 -5.33774 0
M  V30 6231 C 567.396 -2.38808 -4.64508 0
M  V30 6232 H 569.09 -1.61029 -2.52408 0
M  V30 6233 H 566.636 -0.775702 -1.21321 0
M  V30 6234 H 568.589 0.148001 -4.2114 0
M  V30 6235 H 567.313 0.814755 -3.16274 0
M  V30 6236 H 565.972 -1.30128 -3.42728 0
M  V30 6237 H 565.62 0.617772 -4.99192 0
M  V30 6238 H 565.32 -0.941209 -5.80013 0
M  V30 6239 H 566.844 -0.0602747 -6.1057 0
M  V30 6240 H 568.258 -2.18424 -5.3006 0
M  V30 6241 H 566.655 -2.97069 -5.21412 0
M  V30 6242 H 567.725 -3.01067 -3.80114 0
M  V30 6243 N 569.068 1.32177 -0.85831 0
M  V30 6244 C 570.015 2.28794 -0.303607 0
M  V30 6245 C 570.985 1.55213 0.591453 0
M  V30 6246 O 572.17 1.83418 0.525585 0
M  V30 6247 C 569.31 3.41475 0.49889 0
M  V30 6248 C 568.423 4.2993 -0.422373 0
M  V30 6249 C 567.558 5.29743 0.393111 0
M  V30 6250 C 566.597 6.09842 -0.525317 0
M  V30 6251 N 565.734 7.01643 0.253208 0
M  V30 6252 H 570.574 2.75631 -1.13276 0
M  V30 6253 H 568.111 1.35606 -0.570026 0
M  V30 6254 H 570.069 4.05531 0.979826 0
M  V30 6255 H 568.699 2.95779 1.29284 0
M  V30 6256 H 567.751 3.66422 -1.02171 0
M  V30 6257 H 569.063 4.85899 -1.12709 0
M  V30 6258 H 568.217 5.9942 0.937056 0
M  V30 6259 H 566.956 4.744 1.13117 0
M  V30 6260 H 565.961 5.39066 -1.08112 0
M  V30 6261 H 567.186 6.6727 -1.26205 0
M  V30 6262 H 565.132 6.48725 0.974295 0
M  V30 6263 H 565.049 7.54981 -0.392398 0
M  V30 6264 H 566.317 7.756 0.778761 0
M  V30 6265 N 570.547 0.616602 1.45037 0
M  V30 6266 C 571.494 -0.0969439 2.30596 0
M  V30 6267 C 572.464 -0.851151 1.42635 0
M  V30 6268 O 573.649 -0.835092 1.71554 0
M  V30 6269 C 570.789 -1.08234 3.27688 0
M  V30 6270 C 569.902 -0.328072 4.30752 0
M  V30 6271 C 569.037 -1.30399 5.14946 0
M  V30 6272 C 568.076 -0.538049 6.09731 0
M  V30 6273 N 567.213 -1.46371 6.86673 0
M  V30 6274 H 572.053 0.63864 2.91076 0
M  V30 6275 H 569.59 0.326733 1.43425 0
M  V30 6276 H 571.548 -1.66688 3.82454 0
M  V30 6277 H 570.178 -1.78523 2.68941 0
M  V30 6278 H 569.23 0.372136 3.78575 0
M  V30 6279 H 570.542 0.269142 4.98073 0
M  V30 6280 H 569.696 -1.96032 5.74157 0
M  V30 6281 H 568.435 -1.93514 4.47665 0
M  V30 6282 H 567.44 0.131852 5.49642 0
M  V30 6283 H 568.665 0.0881732 6.79043 0
M  V30 6284 H 566.611 -2.08233 6.22073 0
M  V30 6285 H 566.528 -0.920152 7.50379 0
M  V30 6286 H 567.796 -2.10932 7.50418 0
M  V30 6287 N 572.025 -1.5352 0.356285 0
M  V30 6288 C 573.302 -1.93405 -0.292223 0
M  V30 6289 C 573.682 -1.28901 -1.67176 0
M  V30 6290 O 573.03 -0.444632 -2.24132 0
M  V30 6291 C 573.24 -3.47223 -0.35175 0
M  V30 6292 C 574.588 -4.20389 -0.596534 0
M  V30 6293 O 575.612 -3.53554 -0.433344 0
M  V30 6294 O 574.471 -5.3881 -0.913589 0
M  V30 6295 H 571.565 -0.808666 -0.173172 0
M  V30 6296 H 574.111 -1.64713 0.408391 0
M  V30 6297 H 572.883 -3.86423 0.615841 0
M  V30 6298 H 572.506 -3.8212 -1.09864 0
M  V30 6299 N 573.503 -0.0852151 -1.57369 0
M  V30 6300 C 574.914 0.445428 -1.81309 0
M  V30 6301 C 575.265 1.68795 -1.00013 0
M  V30 6302 O 574.39 2.15211 -0.226573 0
M  V30 6303 C 574.985 0.814887 -3.28854 0
M  V30 6304 C 573.544 1.29032 -3.53592 0
M  V30 6305 C 572.691 0.282089 -2.75861 0
M  V30 6306 H 575.642 -0.310771 -1.55627 0
M  V30 6307 H 575.663 1.67524 -3.41637 0
M  V30 6308 H 575.175 -0.0896309 -3.87996 0
M  V30 6309 H 573.276 2.21289 -2.9977 0
M  V30 6310 H 573.389 1.25898 -4.62262 0
M  V30 6311 H 571.753 0.762182 -2.43029 0
M  V30 6312 H 572.536 -0.614936 -3.37748 0
M  V30 6313 N 574.981 1.5647 0.188427 0
M  V30 6314 C 575.928 1.95073 1.23349 0
M  V30 6315 C 576.898 0.812238 1.44886 0
M  V30 6316 O 578.083 1.07095 1.57909 0
M  V30 6317 C 575.223 2.30124 2.57171 0
M  V30 6318 C 574.336 3.57069 2.43157 0
M  V30 6319 C 573.471 3.81411 3.69729 0
M  V30 6320 C 572.51 5.0176 3.50575 0
M  V30 6321 N 571.647 5.22321 4.69175 0
M  V30 6322 H 576.487 2.84171 0.89728 0
M  V30 6323 H 574.024 1.40623 0.431683 0
M  V30 6324 H 575.982 2.48463 3.35145 0
M  V30 6325 H 574.612 1.44159 2.88822 0
M  V30 6326 H 573.664 3.4674 1.56447 0
M  V30 6327 H 574.976 4.452 2.24942 0
M  V30 6328 H 574.13 4.00026 4.56141 0
M  V30 6329 H 572.869 2.91624 3.90905 0
M  V30 6330 H 571.874 4.83061 2.62549 0
M  V30 6331 H 573.099 5.93063 3.30837 0
M  V30 6332 H 571.045 4.35483 4.90602 0
M  V30 6333 H 570.962 6.04643 4.53809 0
M  V30 6334 H 572.23 5.45401 5.56919 0
M  V30 6335 N 576.459 -0.456382 1.50847 0
M  V30 6336 C 577.391 -1.57033 1.66953 0
M  V30 6337 C 578.404 -1.53207 0.550593 0
M  V30 6338 O 579.593 -1.58328 0.824285 0
M  V30 6339 C 576.693 -2.95937 1.65149 0
M  V30 6340 C 575.866 -3.24475 2.93317 0
M  V30 6341 C 574.925 -4.43007 2.83957 0
M  V30 6342 O 573.951 -4.42592 3.57912 0
M  V30 6343 N 575.153 -5.45503 1.9851 0
M  V30 6344 H 577.918 -1.43629 2.63042 0
M  V30 6345 H 575.479 -0.645037 1.48495 0
M  V30 6346 H 577.471 -3.73224 1.56481 0
M  V30 6347 H 576.041 -3.03036 0.767343 0
M  V30 6348 H 575.261 -2.35664 3.16 0
M  V30 6349 H 576.549 -3.4036 3.78196 0
M  V30 6350 H 575.947 -5.48668 1.37766 0
M  V30 6351 H 574.504 -6.21716 1.95735 0
M  V30 6352 N 577.937 -1.40673 -0.710563 0
M  V30 6353 C 579.353 -1.22813 -1.01928 0
M  V30 6354 C 579.553 -0.10687 -2.01216 0
M  V30 6355 O 578.609 0.533614 -2.46797 0
M  V30 6356 C 579.922 -2.57178 -1.5582 0
M  V30 6357 C 581.47 -2.64233 -1.67779 0
M  V30 6358 C 581.945 -3.98879 -2.25076 0
M  V30 6359 N 583.436 -4.00647 -2.32456 0
M  V30 6360 C 584.171 -5.01621 -2.77784 0
M  V30 6361 N 583.667 -6.12989 -3.22826 0
M  V30 6362 N 585.46 -4.88988 -2.77213 0
M  V30 6363 H 577.611 -2.12335 -0.05253 0
M  V30 6364 H 579.874 -0.9441 -0.085898 0
M  V30 6365 H 579.58 -3.39903 -0.903249 0
M  V30 6366 H 579.454 -2.78618 -2.54267 0
M  V30 6367 H 581.841 -1.81876 -2.3239 0
M  V30 6368 H 581.922 -2.46619 -0.679178 0
M  V30 6369 H 581.566 -4.81678 -1.61086 0
M  V30 6370 H 581.496 -4.13826 -3.25661 0
M  V30 6371 H 583.987 -3.20231 -2.0065 0
M  V30 6372 H 584.3 -6.85921 -3.55995 0
M  V30 6373 H 582.645 -6.16547 -3.20773 0
M  V30 6374 H 585.836 -4.01075 -2.41363 0
M  V30 6375 H 586.009 -5.67822 -3.12221 0
M  V30 6376 N 579.415 0.9433 -1.26252 0
M  V30 6377 C 580.345 2.05902 -1.10122 0
M  V30 6378 C 581.326 1.70099 -0.00700552 0
M  V30 6379 O 582.511 1.93377 -0.178641 0
M  V30 6380 C 579.641 3.39516 -0.731175 0
M  V30 6381 C 578.595 3.89372 -1.77688 0
M  V30 6382 C 577.921 5.19613 -1.26122 0
M  V30 6383 C 579.221 4.14489 -3.17799 0
M  V30 6384 H 580.915 2.19655 -2.03451 0
M  V30 6385 H 578.461 1.05548 -0.979576 0
M  V30 6386 H 580.414 4.17031 -0.605215 0
M  V30 6387 H 579.138 3.25733 0.23782 0
M  V30 6388 H 577.797 3.14036 -1.89148 0
M  V30 6389 H 577.445 5.02208 -0.282128 0
M  V30 6390 H 577.145 5.53939 -1.96023 0
M  V30 6391 H 578.669 5.99713 -1.14789 0
M  V30 6392 H 580.083 4.82625 -3.09428 0
M  V30 6393 H 578.48 4.60094 -3.85271 0
M  V30 6394 H 579.55 3.20347 -3.64014 0
M  V30 6395 N 580.893 1.08022 1.14757 0
M  V30 6396 C 582.141 0.805913 1.85336 0
M  V30 6397 C 582.462 -0.670162 1.83122 0
M  V30 6398 O 581.732 -1.48567 1.2769 0
M  V30 6399 H 580.312 0.295138 0.686223 0
M  V30 6400 H 582.974 1.36538 1.3908 0
M  V30 6401 H 582.07 1.14655 2.90277 0
M  V30 6402 N 582.371 -1.3172 0.865308 0
M  V30 6403 C 583.619 -1.96487 0.472995 0
M  V30 6404 C 583.94 -1.68761 -0.976975 0
M  V30 6405 O 583.21 -1.00051 -1.68424 0
M  V30 6406 H 581.79 -0.726947 0.171922 0
M  V30 6407 H 584.452 -1.60612 1.10407 0
M  V30 6408 H 583.548 -3.0574 0.62687 0
M  V30 6409 N 583.85 -0.624285 -1.44708 0
M  V30 6410 C 585.098 -0.125802 -2.01708 0
M  V30 6411 C 585.418 1.2543 -1.49306 0
M  V30 6412 O 584.689 1.83198 -0.693924 0
M  V30 6413 H 583.269 -0.0435161 -0.745731 0
M  V30 6414 H 585.931 -0.809446 -1.77296 0
M  V30 6415 H 585.027 -0.0882734 -3.11975 0
M  V30 6416 N 585.328 1.53329 -0.364422 0
M  V30 6417 C 586.739 1.86345 0.115039 0
M  V30 6418 C 587.09 1.28505 1.4826 0
M  V30 6419 O 586.215 0.606639 2.07723 0
M  V30 6420 C 586.81 3.38114 0.215522 0
M  V30 6421 C 585.369 3.70932 0.639237 0
M  V30 6422 C 584.516 2.76471 -0.214261 0
M  V30 6423 H 587.467 1.47593 -0.583258 0
M  V30 6424 H 587.488 3.66031 1.0393 0
M  V30 6425 H 587 3.80182 -0.779948 0
M  V30 6426 H 585.101 3.3442 1.64298 0
M  V30 6427 H 585.214 4.77302 0.41465 0
M  V30 6428 H 583.578 2.52724 0.316678 0
M  V30 6429 H 584.361 3.21373 -1.20725 0
M  V30 6430 N 586.806 0.0935595 1.57322 0
M  V30 6431 C 588.031 -0.582324 1.99057 0
M  V30 6432 C 588.456 -1.61025 0.972242 0
M  V30 6433 O 587.814 -1.81202 -0.0594622 0
M  V30 6434 C 587.862 -1.20799 3.39765 0
M  V30 6435 O 586.966 -2.32382 3.40694 0
M  V30 6436 H 586.307 -0.147884 0.647323 0
M  V30 6437 H 588.837 0.174516 2.03854 0
M  V30 6438 H 588.847 -1.54966 3.77425 0
M  V30 6439 H 587.522 -0.454914 4.13405 0
M  V30 6440 H 586.099 -1.99845 3.14827 0
M  V30 6441 N 588.284 -1.56567 -0.180126 0
M  V30 6442 C 589.561 -1.7235 -0.924931 0
M  V30 6443 C 589.941 -0.652523 -2.00762 0
M  V30 6444 O 589.289 0.334115 -2.26044 0
M  V30 6445 C 589.499 -3.1523 -1.49771 0
M  V30 6446 C 590.847 -3.75921 -1.97405 0
M  V30 6447 O 591.871 -3.18452 -1.59583 0
M  V30 6448 O 590.73 -4.7681 -2.67048 0
M  V30 6449 H 587.824 -0.703502 -0.434758 0
M  V30 6450 H 590.37 -1.6886 -0.168647 0
M  V30 6451 H 589.142 -3.84656 -0.718027 0
M  V30 6452 H 588.765 -3.23009 -2.31842 0
M  V30 6453 N 589.762 0.448376 -1.51087 0
M  V30 6454 C 590.725 1.52588 -1.71025 0
M  V30 6455 C 591.725 1.49958 -0.580442 0
M  V30 6456 O 592.915 1.52176 -0.847833 0
M  V30 6457 C 590.047 2.92163 -1.75652 0
M  V30 6458 H 591.24 1.36218 -2.67179 0
M  V30 6459 H 588.793 0.676313 -1.4091 0
M  V30 6460 H 589.528 3.13951 -0.812724 0
M  V30 6461 H 589.313 2.95478 -2.57751 0
M  V30 6462 H 590.803 3.70349 -1.92953 0
M  V30 6463 N 591.24 1.41047 0.703093 0
M  V30 6464 C 592.187 1.42302 1.81711 0
M  V30 6465 C 593.157 0.278336 1.63751 0
M  V30 6466 O 594.342 0.478266 1.84709 0
M  V30 6467 C 591.482 1.30362 3.19531 0
M  V30 6468 C 590.595 2.54638 3.48975 0
M  V30 6469 C 589.73 2.35047 4.76368 0
M  V30 6470 C 588.769 3.54837 4.98756 0
M  V30 6471 N 587.906 3.34363 6.1737 0
M  V30 6472 H 592.746 2.37516 1.79973 0
M  V30 6473 H 590.283 1.1795 0.878983 0
M  V30 6474 H 592.241 1.21443 3.99134 0
M  V30 6475 H 590.871 0.387602 3.20464 0
M  V30 6476 H 589.923 2.74037 2.63833 0
M  V30 6477 H 591.235 3.43766 3.61423 0
M  V30 6478 H 590.389 2.23552 5.64012 0
M  V30 6479 H 589.128 1.43363 4.66153 0
M  V30 6480 H 588.133 3.66795 4.09563 0
M  V30 6481 H 589.358 4.47464 5.10835 0
M  V30 6482 H 587.304 2.45373 6.08382 0
M  V30 6483 H 587.221 4.17063 6.30551 0
M  V30 6484 H 588.489 3.26626 7.07768 0
M  V30 6485 N 592.718 -0.936591 1.26751 0
M  V30 6486 C 593.628 -2.06949 1.10496 0
M  V30 6487 C 594.644 -1.7396 0.037271 0
M  V30 6488 O 595.82 -1.99941 0.241944 0
M  V30 6489 C 592.885 -3.38612 0.744491 0
M  V30 6490 C 591.946 -3.85355 1.89209 0
M  V30 6491 C 591.179 -5.10735 1.54873 0
M  V30 6492 O 591.402 -5.68602 0.452546 0
M  V30 6493 O 590.336 -5.52632 2.38499 0
M  V30 6494 H 594.162 -2.23571 2.05547 0
M  V30 6495 H 591.747 -1.05428 1.05855 0
M  V30 6496 H 593.629 -4.17711 0.556396 0
M  V30 6497 H 592.304 -3.23218 -0.176582 0
M  V30 6498 H 591.211 -3.07182 2.13518 0
M  V30 6499 H 592.544 -4.05277 2.79305 0
M  V30 6500 N 594.196 -1.08629 -1.14182 0
M  V30 6501 C 595.442 -0.818556 -1.85546 0
M  V30 6502 C 595.775 0.654076 -1.82854 0
M  V30 6503 O 595.05 1.48099 -1.26083 0
M  V30 6504 C 595.333 -1.34397 -3.3408 0
M  V30 6505 C 595.186 -2.8821 -3.45333 0
M  V30 6506 C 596.505 -0.971069 -4.29253 0
M  V30 6507 H 593.624 -0.298821 -0.673702 0
M  V30 6508 H 596.266 -1.34629 -1.34071 0
M  V30 6509 H 594.416 -0.895064 -3.78049 0
M  V30 6510 H 596.088 -3.41488 -3.10134 0
M  V30 6511 H 594.331 -3.25756 -2.86471 0
M  V30 6512 H 595.002 -3.20047 -4.49749 0
M  V30 6513 H 597.478 -1.35809 -3.93313 0
M  V30 6514 H 596.354 -1.36586 -5.31635 0
M  V30 6515 H 596.615 0.121659 -4.41933 0
M  V30 6516 N 595.674 1.31259 -0.872281 0
M  V30 6517 C 596.607 2.26544 -0.274394 0
M  V30 6518 C 597.585 1.51213 0.597776 0
M  V30 6519 O 598.769 1.80277 0.550687 0
M  V30 6520 C 595.896 3.33139 0.611256 0
M  V30 6521 C 594.942 4.26077 -0.189876 0
M  V30 6522 S 595.775 5.11971 -1.56989 0
M  V30 6523 C 596.931 6.2208 -0.690427 0
M  V30 6524 H 597.164 2.76908 -1.0821 0
M  V30 6525 H 594.697 1.3906 -0.670939 0
M  V30 6526 H 596.655 3.95024 1.11654 0
M  V30 6527 H 595.316 2.81525 1.39294 0
M  V30 6528 H 594.509 5.01657 0.485433 0
M  V30 6529 H 594.111 3.68701 -0.627339 0
M  V30 6530 H 596.403 6.77429 0.098001 0
M  V30 6531 H 597.346 6.93768 -1.41742 0
M  V30 6532 H 597.754 5.63915 -0.256953 0
M  V30 6533 N 597.152 0.631951 1.44375 0
M  V30 6534 C 598.062 -0.073674 2.34484 0
M  V30 6535 C 599.078 -0.834825 1.52665 0
M  V30 6536 O 600.254 -0.786902 1.85391 0
M  V30 6537 C 597.319 -1.04247 3.30656 0
M  V30 6538 C 596.38 -0.280602 4.28382 0
M  V30 6539 C 595.613 -1.20325 5.19959 0
M  V30 6540 O 595.836 -2.44199 5.15484 0
M  V30 6541 O 594.77 -0.687128 5.97965 0
M  V30 6542 H 598.596 0.667477 2.96274 0
M  V30 6543 H 596.181 0.392144 1.44162 0
M  V30 6544 H 598.063 -1.59981 3.89851 0
M  V30 6545 H 596.738 -1.76422 2.71398 0
M  V30 6546 H 595.645 0.319804 3.72731 0
M  V30 6547 H 596.978 0.401144 4.90563 0
M  V30 6548 N 598.631 -1.53133 0.372548 0
M  V30 6549 C 599.581 -2.22733 -0.487218 0
M  V30 6550 C 600.565 -1.22506 -1.04312 0
M  V30 6551 O 601.757 -1.47923 -0.972005 0
M  V30 6552 C 598.886 -3.02524 -1.62278 0
M  V30 6553 C 597.972 -4.10133 -1.07943 0
M  V30 6554 N 598.363 -5.05133 -0.259629 0
M  V30 6555 C 596.661 -4.24964 -1.35356 0
M  V30 6556 C 597.362 -5.81687 0.0386656 0
M  V30 6557 N 596.338 -5.40699 -0.560827 0
M  V30 6558 H 600.14 -2.93538 0.145853 0
M  V30 6559 H 597.654 -1.61389 0.180938 0
M  V30 6560 H 599.651 -3.50909 -2.25096 0
M  V30 6561 H 598.311 -2.33252 -2.25884 0
M  V30 6562 H 599.322 -5.178 0.101746 0
M  V30 6563 H 595.999 -3.66919 -1.9919 0
M  V30 6564 H 597.389 -6.68224 0.701841 0
M  V30 6565 N 600.109 -0.101901 -1.5727 0
M  V30 6566 C 601.525 0.254739 -1.57554 0
M  V30 6567 C 601.725 1.67937 -1.11352 0
M  V30 6568 O 600.781 2.39722 -0.793081 0
M  V30 6569 C 602.094 0.036975 -3.00677 0
M  V30 6570 C 603.642 0.104199 -3.12827 0
M  V30 6571 C 604.117 -0.0856565 -4.5792 0
M  V30 6572 N 605.608 -0.0310498 -4.6319 0
M  V30 6573 C 606.343 -0.153099 -5.73196 0
M  V30 6574 N 605.839 -0.330364 -6.92012 0
M  V30 6575 N 607.632 -0.0938854 -5.62022 0
M  V30 6576 H 599.783 -1.03263 -1.85609 0
M  V30 6577 H 602.046 -0.405251 -0.857016 0
M  V30 6578 H 601.752 -0.947254 -3.38703 0
M  V30 6579 H 601.626 0.776335 -3.69124 0
M  V30 6580 H 604.013 1.07894 -2.74669 0
M  V30 6581 H 604.094 -0.666762 -2.46957 0
M  V30 6582 H 603.738 -1.05729 -4.96773 0
M  V30 6583 H 603.668 0.705082 -5.21858 0
M  V30 6584 H 606.159 0.103141 -3.77759 0
M  V30 6585 H 606.472 -0.41482 -7.71686 0
M  V30 6586 H 604.817 -0.366119 -6.94035 0
M  V30 6587 H 608.008 0.0435168 -4.6808 0
M  V30 6588 H 608.181 -0.19245 -6.47714 0
M  V30 6589 N 601.587 1.56661 0.17182 0
M  V30 6590 C 602.834 1.81965 0.888529 0
M  V30 6591 C 603.162 0.6789 1.82267 0
M  V30 6592 O 602.417 -0.333875 1.92831 0
M  V30 6593 C 602.716 3.13435 1.71736 0
M  V30 6594 C 602.382 4.41159 0.932184 0
M  V30 6595 C 601.044 4.75851 0.715481 0
M  V30 6596 C 603.396 5.19803 0.381387 0
M  V30 6597 C 600.724 5.86666 -0.063126 0
M  V30 6598 C 603.076 6.31433 -0.384129 0
M  V30 6599 C 601.74 6.64692 -0.611637 0
M  V30 6600 H 601.01 0.665859 0.325136 0
M  V30 6601 H 603.657 1.90884 0.153495 0
M  V30 6602 H 601.962 2.99857 2.52177 0
M  V30 6603 H 603.659 3.30224 2.27493 0
M  V30 6604 H 600.249 4.13947 1.11112 0
M  V30 6605 H 604.433 4.93396 0.536148 0
M  V30 6606 H 599.689 6.10892 -0.249136 0
M  V30 6607 H 603.863 6.91577 -0.818185 0
M  V30 6608 H 601.49 7.50398 -1.21684 0
M  V30 6609 N 603.065 -0.440357 1.51323 0
M  V30 6610 C 604.312 -1.19004 1.63842 0
M  V30 6611 C 604.64 -1.91266 0.35321 0
M  V30 6612 O 603.895 -1.84143 -0.662565 0
M  V30 6613 C 604.194 -2.2339 2.78984 0
M  V30 6614 C 603.86 -1.68162 4.18369 0
M  V30 6615 C 602.522 -1.52823 4.56288 0
M  V30 6616 C 604.874 -1.27524 5.05358 0
M  V30 6617 C 602.202 -0.953157 5.78906 0
M  V30 6618 C 604.554 -0.714474 6.28552 0
M  V30 6619 C 603.218 -0.547961 6.65247 0
M  V30 6620 H 602.488 -0.435468 0.59954 0
M  V30 6621 H 605.135 -0.481538 1.85347 0
M  V30 6622 H 603.44 -3.00267 2.51688 0
M  V30 6623 H 605.137 -2.81211 2.85869 0
M  V30 6624 H 601.727 -1.81077 3.8847 0
M  V30 6625 H 605.911 -1.38197 4.76671 0
M  V30 6626 H 601.167 -0.811882 6.05986 0
M  V30 6627 H 605.341 -0.391059 6.95301 0
M  V30 6628 H 602.968 -0.100222 7.60134 0
M  V30 6629 N 604.543 -1.41418 -0.695603 0
M  V30 6630 C 605.473 -1.46035 -1.82197 0
M  V30 6631 C 606.454 -0.319025 -1.67082 0
M  V30 6632 O 607.639 -0.530462 -1.86815 0
M  V30 6633 C 604.769 -1.34179 -3.20333 0
M  V30 6634 C 603.723 -2.46123 -3.50154 0
M  V30 6635 C 603.049 -2.19332 -4.87645 0
M  V30 6636 C 604.349 -3.88463 -3.49133 0
M  V30 6637 H 606.043 -2.40303 -1.78591 0
M  V30 6638 H 603.589 -1.15663 -0.857797 0
M  V30 6639 H 605.542 -1.36021 -3.98844 0
M  V30 6640 H 604.266 -0.363952 -3.24566 0
M  V30 6641 H 602.925 -2.43563 -2.73994 0
M  V30 6642 H 602.573 -1.19891 -4.88503 0
M  V30 6643 H 602.273 -2.94344 -5.08562 0
M  V30 6644 H 603.797 -2.22889 -5.68465 0
M  V30 6645 H 605.211 -3.92738 -4.17648 0
M  V30 6646 H 603.608 -4.63158 -3.81582 0
M  V30 6647 H 604.678 -4.16617 -2.48109 0
M  V30 6648 N 606.021 0.929856 -1.27246 0
M  V30 6649 C 607.246 1.71674 -1.16374 0
M  V30 6650 C 607.671 1.86064 0.276024 0
M  V30 6651 O 607.029 1.3591 1.19992 0
M  V30 6652 C 607.077 3.09526 -1.85003 0
M  V30 6653 O 606.181 3.96142 -1.14653 0
M  V30 6654 H 605.522 0.52629 -0.404863 0
M  V30 6655 H 608.052 1.16381 -1.68276 0
M  V30 6656 H 608.062 3.59852 -1.92276 0
M  V30 6657 H 606.737 2.98369 -2.89739 0
M  V30 6658 H 605.314 3.54584 -1.15433 0
M  V30 6659 N 607.499 1.09233 1.13605 0
M  V30 6660 C 608.748 0.82205 1.84188 0
M  V30 6661 C 609.061 -0.654548 1.84323 0
M  V30 6662 O 610.267 -1.04029 2.50779 0
M  V30 6663 C 608.723 1.42066 3.30674 0
M  V30 6664 C 608.331 2.92965 3.38933 0
M  V30 6665 C 610.075 1.22924 4.06313 0
M  V30 6666 C 607.982 3.45922 4.79679 0
M  V30 6667 H 606.912 0.303854 0.690064 0
M  V30 6668 H 609.563 1.31479 1.28006 0
M  V30 6669 H 607.945 0.855613 3.86646 0
M  V30 6670 H 609.119 3.55679 2.92966 0
M  V30 6671 H 607.434 3.11118 2.76757 0
M  V30 6672 H 610.031 1.59945 5.10217 0
M  V30 6673 H 610.374 0.169726 4.15954 0
M  V30 6674 H 610.907 1.76168 3.56665 0
M  V30 6675 H 607.646 4.51484 4.75229 0
M  V30 6676 H 607.166 2.87971 5.26149 0
M  V30 6677 H 608.845 3.43009 5.48592 0
M  V30 6678 N 608.977 -1.30795 0.87923 0
M  V30 6679 C 609.925 -2.30231 0.331112 0
M  V30 6680 C 610.919 -1.59918 -0.558794 0
M  V30 6681 O 612.125 -1.74441 -0.443866 0
M  V30 6682 H 608.5 -0.746785 0.088409 0
M  V30 6683 H 610.471 -2.73925 1.18353 0
M  V30 6684 C 609.22 -3.44848 -0.444401 0
M  V30 6685 H 608.543 -3.99131 0.231106 0
M  V30 6686 H 609.983 -4.16516 -0.793109 0
M  V30 6687 C 608.442 -2.94329 -1.63926 0
M  V30 6688 O 608.972 -2.93875 -2.73862 0
M  V30 6689 N 607.178 -2.50413 -1.4745 0
M  V30 6690 H 606.725 -2.50982 -0.58015 0
M  V30 6691 H 606.683 -2.16969 -2.27534 0
M  V30 6692 N 610.455 -0.639598 -1.44038 0
M  V30 6693 C 611.701 -0.156248 -2.02799 0
M  V30 6694 C 612.056 1.21145 -1.49471 0
M  V30 6695 O 611.349 1.79406 -0.672608 0
M  V30 6696 C 611.543 -0.0925348 -3.5728 0
M  V30 6697 C 611.372 -1.45252 -4.25596 0
M  V30 6698 C 610.142 -2.04145 -4.62226 0
M  V30 6699 C 612.34 -2.38812 -4.55492 0
M  V30 6700 N 610.322 -3.3329 -5.15549 0
M  V30 6701 C 611.693 -3.52578 -5.09989 0
M  V30 6702 C 613.748 -2.37785 -4.3745 0
M  V30 6703 C 612.451 -4.65525 -5.48342 0
M  V30 6704 C 614.477 -3.49802 -4.76857 0
M  V30 6705 C 613.839 -4.62292 -5.31475 0
M  V30 6706 H 609.938 -0.101292 -0.775412 0
M  V30 6707 H 612.522 -0.844938 -1.75411 0
M  V30 6708 H 610.693 0.565459 -3.84262 0
M  V30 6709 H 612.425 0.400426 -4.02714 0
M  V30 6710 H 609.18 -1.56999 -4.4682 0
M  V30 6711 H 609.604 -3.9934 -5.46678 0
M  V30 6712 H 614.246 -1.52061 -3.94509 0
M  V30 6713 H 611.964 -5.51951 -5.90233 0
M  V30 6714 H 615.55 -3.50193 -4.64603 0
M  V30 6715 H 614.43 -5.47536 -5.61403 0
M  V30 6716 N 611.933 1.52934 -0.380664 0
M  V30 6717 C 612.865 2.23822 0.493581 0
M  V30 6718 C 613.878 1.25761 1.03383 0
M  V30 6719 O 615.067 1.5189 0.937633 0
M  V30 6720 C 612.167 2.9342 1.69582 0
M  V30 6721 C 611.34 4.18115 1.28445 0
M  V30 6722 C 610.399 4.70788 2.35042 0
M  V30 6723 O 609.425 5.34093 1.96807 0
M  V30 6724 N 610.627 4.49899 3.66839 0
M  V30 6725 H 613.392 2.99484 -0.11371 0
M  V30 6726 H 610.953 1.60577 -0.206587 0
M  V30 6727 H 612.945 3.2556 2.40401 0
M  V30 6728 H 611.515 2.21119 2.20965 0
M  V30 6729 H 610.735 3.92109 0.405503 0
M  V30 6730 H 612.023 4.99152 0.986132 0
M  V30 6731 H 611.421 3.99349 4.0067 0
M  V30 6732 H 609.978 4.86551 4.33718 0
M  V30 6733 N 613.412 0.11024 1.57214 0
M  V30 6734 C 614.689 -0.592956 1.86396 0
M  V30 6735 C 615.069 -1.85379 1.00985 0
M  V30 6736 O 614.417 -2.28337 0.0863592 0
M  V30 6737 C 614.627 -0.893816 3.3736 0
M  V30 6738 C 615.975 -1.25069 4.05762 0
M  V30 6739 O 616.999 -0.984356 3.42329 0
M  V30 6740 O 615.858 -1.75017 5.17718 0
M  V30 6741 H 612.952 -0.29828 0.771335 0
M  V30 6742 H 615.498 0.144083 1.69087 0
M  V30 6743 H 614.27 2.6031e-05 3.913 0
M  V30 6744 H 613.893 -1.68631 3.60068 0
M  V30 6745 N 614.89 -1.56749 -0.16351 0
M  V30 6746 C 616.136 -1.82704 -0.880168 0
M  V30 6747 C 616.469 -0.689311 -1.81555 0
M  V30 6748 O 615.744 0.308224 -1.92042 0
M  V30 6749 C 616.027 -3.19084 -1.66905 0
M  V30 6750 C 615.88 -4.43397 -0.756269 0
M  V30 6751 C 617.199 -3.52493 -2.63509 0
M  V30 6752 H 614.318 -0.664608 -0.318535 0
M  V30 6753 H 616.96 -1.89438 -0.146036 0
M  V30 6754 H 615.11 -3.13475 -2.2949 0
M  V30 6755 H 616.782 -4.61079 -0.14269 0
M  V30 6756 H 615.025 -4.33752 -0.0647944 0
M  V30 6757 H 615.696 -5.3539 -1.34393 0
M  V30 6758 H 618.172 -3.58606 -2.11047 0
M  V30 6759 H 617.048 -4.48979 -3.15767 0
M  V30 6760 H 617.309 -2.77597 -3.44082 0
M  V30 6761 N 616.368 0.432326 -1.51554 0
M  V30 6762 C 617.614 1.18309 -1.64714 0
M  V30 6763 C 617.947 1.90745 -0.364696 0
M  V30 6764 O 617.222 1.8381 0.635936 0
M  V30 6765 C 617.505 2.1961 -2.85383 0
M  V30 6766 C 617.358 1.51223 -4.23617 0
M  V30 6767 C 618.677 3.20538 -3.01569 0
M  V30 6768 H 615.796 0.428751 -0.599451 0
M  V30 6769 H 618.438 0.471689 -1.84052 0
M  V30 6770 H 616.588 2.8028 -2.69027 0
M  V30 6771 H 618.26 0.938516 -4.51652 0
M  V30 6772 H 616.503 0.814501 -4.26085 0
M  V30 6773 H 617.174 2.25024 -5.04052 0
M  V30 6774 H 619.65 2.69926 -3.16669 0
M  V30 6775 H 618.526 3.88706 -3.87555 0
M  V30 6776 H 618.787 3.86933 -2.13859 0
M  V30 6777 N 617.846 1.41785 0.688094 0
M  V30 6778 C 618.778 1.40159 1.81351 0
M  V30 6779 C 619.791 0.30262 1.59963 0
M  V30 6780 O 620.98 0.564841 1.69327 0
M  V30 6781 C 618.08 1.16517 3.1824 0
M  V30 6782 C 617.253 2.38597 3.66593 0
M  V30 6783 C 616.312 2.10699 4.82174 0
M  V30 6784 O 615.338 2.83798 4.93404 0
M  V30 6785 N 616.54 1.10187 5.69947 0
M  V30 6786 H 619.305 2.3716 1.83236 0
M  V30 6787 H 616.866 1.36494 0.870697 0
M  V30 6788 H 618.858 0.957941 3.93199 0
M  V30 6789 H 617.428 0.280873 3.11336 0
M  V30 6790 H 616.648 2.74974 2.82459 0
M  V30 6791 H 617.936 3.19919 3.95638 0
M  V30 6792 H 617.334 0.497016 5.63512 0
M  V30 6793 H 615.891 0.954518 6.44773 0
M  V30 6794 N 619.324 -0.923095 1.27737 0
M  V30 6795 C 620.271 -2.02432 1.1086 0
M  V30 6796 C 621.241 -1.66098 0.00835195 0
M  V30 6797 O 622.426 -1.90027 0.171542 0
M  V30 6798 C 619.566 -3.36476 0.766671 0
M  V30 6799 C 618.679 -3.85737 1.94501 0
M  V30 6800 C 617.814 -5.08249 1.54455 0
M  V30 6801 C 616.853 -5.49818 2.6901 0
M  V30 6802 N 615.99 -6.63524 2.29521 0
M  V30 6803 H 620.83 -2.16201 2.05089 0
M  V30 6804 H 618.367 -1.05909 1.02087 0
M  V30 6805 H 620.325 -4.13569 0.549223 0
M  V30 6806 H 618.955 -3.22502 -0.13867 0
M  V30 6807 H 618.007 -3.04883 2.27487 0
M  V30 6808 H 619.319 -4.12513 2.80419 0
M  V30 6809 H 618.473 -5.92857 1.28862 0
M  V30 6810 H 617.212 -4.83261 0.656534 0
M  V30 6811 H 616.217 -4.63757 2.95313 0
M  V30 6812 H 617.442 -5.76799 3.5844 0
M  V30 6813 H 615.388 -6.40185 1.43177 0
M  V30 6814 H 615.305 -6.89978 3.08977 0
M  V30 6815 H 616.573 -7.51461 2.07187 0
M  V30 6816 N 620.802 -1.09834 -1.13024 0
M  V30 6817 C 621.749 -0.741522 -2.18564 0
M  V30 6818 C 622.719 0.279236 -1.63736 0
M  V30 6819 O 623.904 0.159923 -1.90129 0
M  V30 6820 C 621.044 -0.17277 -3.44667 0
M  V30 6821 C 620.157 -1.24808 -4.13578 0
M  V30 6822 C 619.292 -0.641631 -5.27311 0
M  V30 6823 C 618.331 -1.69795 -5.88078 0
M  V30 6824 N 617.468 -1.11223 -6.93234 0
M  V30 6825 H 622.308 -1.64576 -2.48432 0
M  V30 6826 H 619.845 -0.822174 -1.21978 0
M  V30 6827 H 621.803 0.17482 -4.16834 0
M  V30 6828 H 620.433 0.694725 -3.15235 0
M  V30 6829 H 619.485 -1.71288 -3.39653 0
M  V30 6830 H 620.797 -2.04795 -4.54819 0
M  V30 6831 H 619.951 -0.243128 -6.06213 0
M  V30 6832 H 618.69 0.189742 -4.87331 0
M  V30 6833 H 617.695 -2.10595 -5.07868 0
M  V30 6834 H 618.92 -2.53206 -6.3013 0
M  V30 6835 H 616.866 -0.302208 -6.55304 0
M  V30 6836 H 616.783 -1.84901 -7.3304 0
M  V30 6837 H 618.051 -0.740068 -7.75979 0
M  V30 6838 N 622.28 1.30327 -0.886154 0
M  V30 6839 C 623.21 2.30549 -0.370028 0
M  V30 6840 C 624.191 1.61039 0.547751 0
M  V30 6841 O 625.376 1.8864 0.461353 0
M  V30 6842 C 622.506 3.44808 0.415275 0
M  V30 6843 C 621.46 4.26024 -0.41085 0
M  V30 6844 C 620.786 5.32347 0.501128 0
M  V30 6845 C 622.086 4.95433 -1.65359 0
M  V30 6846 H 623.78 2.73969 -1.20754 0
M  V30 6847 H 621.326 1.3171 -0.582097 0
M  V30 6848 H 623.279 4.13986 0.78699 0
M  V30 6849 H 622.003 3.00197 1.28644 0
M  V30 6850 H 620.662 3.58535 -0.764719 0
M  V30 6851 H 620.31 4.83982 1.37004 0
M  V30 6852 H 620.01 5.87581 -0.0478356 0
M  V30 6853 H 621.534 6.0438 0.869333 0
M  V30 6854 H 622.948 5.5712 -1.35239 0
M  V30 6855 H 621.345 5.60537 -2.14284 0
M  V30 6856 H 622.415 4.21493 -2.39733 0
M  V30 6857 N 623.758 0.647228 1.43697 0
M  V30 6858 C 624.688 -0.0345631 2.33474 0
M  V30 6859 C 625.669 -0.818193 1.4913 0
M  V30 6860 O 626.854 -0.780867 1.77809 0
M  V30 6861 C 623.984 -1.00576 3.32418 0
M  V30 6862 C 622.938 -0.33266 4.26705 0
M  V30 6863 C 622.264 -1.41489 5.1564 0
M  V30 6864 C 623.564 0.771204 5.16575 0
M  V30 6865 H 625.258 0.715163 2.90733 0
M  V30 6866 H 622.804 0.345364 1.39797 0
M  V30 6867 H 624.757 -1.49159 3.94119 0
M  V30 6868 H 623.481 -1.78657 2.73403 0
M  V30 6869 H 622.14 0.13267 3.6636 0
M  V30 6870 H 621.788 -2.18698 4.52968 0
M  V30 6871 H 621.488 -0.969799 5.79542 0
M  V30 6872 H 623.012 -1.9022 5.80214 0
M  V30 6873 H 624.426 0.36779 5.72119 0
M  V30 6874 H 622.823 1.1404 5.89165 0
M  V30 6875 H 623.893 1.63169 4.56622 0
M  V30 6876 N 625.236 -1.5273 0.388769 0
M  V30 6877 C 626.647 -1.86505 -0.0853788 0
M  V30 6878 C 626.998 -1.30847 -1.46197 0
M  V30 6879 O 626.123 -0.639609 -2.06732 0
M  V30 6880 C 626.718 -3.38414 -0.161703 0
M  V30 6881 C 625.277 -3.71902 -0.580144 0
M  V30 6882 C 624.424 -2.76095 0.258218 0
M  V30 6883 H 627.375 -1.46647 0.606665 0
M  V30 6884 H 627.396 -3.67638 -0.980936 0
M  V30 6885 H 626.908 -3.78893 0.840333 0
M  V30 6886 H 625.009 -3.36992 -1.58957 0
M  V30 6887 H 625.122 -4.77902 -0.338663 0
M  V30 6888 H 623.486 -2.53195 -0.276432 0
M  V30 6889 H 624.269 -3.19411 1.25822 0
M  V30 6890 N 626.714 -0.118576 -1.57153 0
M  V30 6891 C 628.125 0.40687 -1.82213 0
M  V30 6892 C 628.476 1.66636 -1.03571 0
M  V30 6893 O 627.601 2.14682 -0.272171 0
M  V30 6894 C 628.196 0.744949 -3.30509 0
M  V30 6895 C 626.755 1.21503 -3.5625 0
M  V30 6896 C 625.902 0.223511 -2.76398 0
M  V30 6897 H 628.853 -0.343712 -1.54933 0
M  V30 6898 H 628.874 1.6024 -3.45114 0
M  V30 6899 H 628.386 -0.171911 -3.87719 0
M  V30 6900 H 626.487 2.1488 -3.04396 0
M  V30 6901 H 626.6 1.16065 -4.64829 0
M  V30 6902 H 624.964 0.71046 -2.44591 0
M  V30 6903 H 625.747 -0.686439 -3.36367 0
M  V30 6904 N 628.193 1.56834 0.155195 0
M  V30 6905 C 629.44 1.82898 0.869179 0
M  V30 6906 C 629.768 0.698194 1.81537 0
M  V30 6907 O 629.023 -0.313404 1.93174 0
M  V30 6908 C 629.322 3.15239 1.68402 0
M  V30 6909 C 628.988 4.42123 0.885341 0
M  V30 6910 C 627.65 4.76583 0.664971 0
M  V30 6911 C 630.002 5.20178 0.326234 0
M  V30 6912 C 627.33 5.86566 -0.125346 0
M  V30 6913 C 629.682 6.3099 -0.45108 0
M  V30 6914 C 628.346 6.64006 -0.682102 0
M  V30 6915 H 627.616 0.66927 0.318055 0
M  V30 6916 H 630.263 1.91036 0.133241 0
M  V30 6917 H 628.568 3.02515 2.48982 0
M  V30 6918 H 630.265 3.32618 2.23978 0
M  V30 6919 H 626.855 4.15102 1.06716 0
M  V30 6920 H 631.039 4.93936 0.483787 0
M  V30 6921 H 626.295 6.10594 -0.313915 0
M  V30 6922 H 630.469 6.9067 -0.89149 0
M  V30 6923 H 628.096 7.49065 -1.29636 0
M  V30 6924 N 629.671 -0.424282 1.51781 0
M  V30 6925 C 630.618 -1.51591 1.74037 0
M  V30 6926 C 631.588 -1.55556 0.582358 0
M  V30 6927 O 632.773 -1.72364 0.818245 0
M  V30 6928 C 629.913 -2.89188 1.8832 0
M  V30 6929 C 629.026 -2.9465 3.1592 0
M  V30 6930 C 628.161 -4.23452 3.20721 0
M  V30 6931 C 627.2 -4.22831 4.42584 0
M  V30 6932 N 626.337 -5.43178 4.44862 0
M  V30 6933 H 631.177 -1.31917 2.67212 0
M  V30 6934 H 628.714 -0.640599 1.32419 0
M  V30 6935 H 630.672 -3.69044 1.94583 0
M  V30 6936 H 629.302 -3.07392 0.985402 0
M  V30 6937 H 628.354 -2.07378 3.18902 0
M  V30 6938 H 629.666 -2.90055 4.05795 0
M  V30 6939 H 628.82 -5.1169 3.25973 0
M  V30 6940 H 627.559 -4.30722 2.28757 0
M  V30 6941 H 626.564 -3.32984 4.37495 0
M  V30 6942 H 627.789 -4.17213 5.35826 0
M  V30 6943 H 625.735 -5.51145 3.55775 0
M  V30 6944 H 625.652 -5.40515 5.28563 0
M  V30 6945 H 626.92 -6.33412 4.54324 0
M  V30 6946 N 631.149 -1.42148 -0.680565 0
M  V30 6947 C 632.56 -1.3768 -1.26099 0
M  V30 6948 C 632.911 -0.0672348 -1.96085 0
M  V30 6949 O 632.036 0.834172 -1.99676 0
M  V30 6950 C 632.631 -2.49387 -2.29328 0
M  V30 6951 C 631.19 -2.4827 -2.82911 0
M  V30 6952 C 630.337 -2.2847 -1.57152 0
M  V30 6953 H 633.288 -1.51446 -0.474326 0
M  V30 6954 H 633.309 -2.19307 -3.10941 0
M  V30 6955 H 632.821 -3.44686 -1.78363 0
M  V30 6956 H 630.922 -1.56773 -3.38013 0
M  V30 6957 H 631.035 -3.45109 -3.3232 0
M  V30 6958 H 629.399 -1.76623 -1.83511 0
M  V30 6959 H 630.182 -3.25816 -1.0816 0
M  V30 6960 N 632.627 0.916307 -1.28225 0
M  V30 6961 C 633.559 2.02303 -1.07732 0
M  V30 6962 C 634.572 1.62773 -0.0298421 0
M  V30 6963 O 635.761 1.76406 -0.272626 0
M  V30 6964 C 632.861 3.33282 -0.614504 0
M  V30 6965 C 632.034 4.01439 -1.73682 0
M  V30 6966 C 631.093 5.10698 -1.26781 0
M  V30 6967 O 630.119 5.34038 -1.96958 0
M  V30 6968 N 631.321 5.80355 -0.129624 0
M  V30 6969 H 634.086 2.20442 -2.03041 0
M  V30 6970 H 631.647 1.08744 -1.19943 0
M  V30 6971 H 633.639 4.03699 -0.284397 0
M  V30 6972 H 632.209 3.11633 0.245664 0
M  V30 6973 H 631.429 3.24604 -2.23665 0
M  V30 6974 H 632.717 4.43721 -2.48976 0
M  V30 6975 H 632.115 5.6386 0.455847 0
M  V30 6976 H 630.672 6.51647 0.141224 0
M  V30 6977 N 634.105 1.10431 1.1244 0
M  V30 6978 C 635.351 0.847972 1.84221 0
M  V30 6979 C 635.684 -0.624903 1.83871 0
M  V30 6980 O 634.959 -1.46074 1.28423 0
M  V30 6981 C 635.242 1.39695 3.319 0
M  V30 6982 C 635.095 2.93668 3.40704 0
M  V30 6983 C 636.414 1.03924 4.27654 0
M  V30 6984 H 633.533 0.309502 0.668863 0
M  V30 6985 H 636.175 1.36745 1.31912 0
M  V30 6986 H 634.325 0.955095 3.76577 0
M  V30 6987 H 635.997 3.46379 3.04662 0
M  V30 6988 H 634.24 3.30272 2.81252 0
M  V30 6989 H 634.911 3.27162 4.446 0
M  V30 6990 H 637.387 1.42049 3.91102 0
M  V30 6991 H 636.263 1.45027 5.29394 0
M  V30 6992 H 636.524 -0.051336 4.4207 0
M  V30 6993 N 635.583 -1.29855 0.893053 0
M  V30 6994 C 636.811 -1.99976 0.530788 0
M  V30 6995 C 637.226 -1.66889 -0.882799 0
M  V30 6996 O 636.583 -0.910352 -1.58173 0
M  V30 6997 C 636.634 -3.54547 0.705587 0
M  V30 6998 O 636.355 -3.86458 2.06353 0
M  V30 6999 C 637.856 -4.41937 0.347387 0
M  V30 7000 H 635.076 -0.639129 0.204339 0
M  V30 7001 H 637.62 -1.65549 1.20057 0
M  V30 7002 H 635.775 -3.87311 0.0830685 0
M  V30 7003 H 636.189 -4.81146 2.08803 0
M  V30 7004 H 637.663 -5.4954 0.520557 0
M  V30 7005 H 638.14 -4.33339 -0.715139 0
M  V30 7006 H 638.746 -4.14633 0.946567 0
M  V30 7007 N 637.061 -0.65484 -1.43351 0
M  V30 7008 C 638.286 -0.175046 -2.0666 0
M  V30 7009 C 638.711 1.15104 -1.4877 0
M  V30 7010 O 638.069 1.71144 -0.598279 0
M  V30 7011 C 638.117 -0.0991544 -3.60464 0
M  V30 7012 O 637.221 0.938169 -4.01587 0
M  V30 7013 H 636.562 -0.0956148 -0.65708 0
M  V30 7014 H 639.092 -0.898222 -1.83829 0
M  V30 7015 H 639.102 0.083632 -4.07914 0
M  V30 7016 H 637.777 -1.06719 -4.01975 0
M  V30 7017 H 636.354 0.72804 -3.65724 0
M  V30 7018 N 638.539 1.52521 -0.396863 0
M  V30 7019 C 639.449 2.30403 0.44178 0
M  V30 7020 C 640.465 1.37625 1.06468 0
M  V30 7021 O 641.641 1.70697 1.06886 0
M  V30 7022 C 638.706 3.1013 1.54986 0
M  V30 7023 C 637.767 4.18628 0.951279 0
M  V30 7024 C 637 4.94543 2.00655 0
M  V30 7025 O 637.223 4.70629 3.22281 0
M  V30 7026 O 636.157 5.797 1.61962 0
M  V30 7027 H 639.983 3.03087 -0.192892 0
M  V30 7028 H 637.568 1.48537 -0.16038 0
M  V30 7029 H 639.45 3.59816 2.19341 0
M  V30 7030 H 638.125 2.40251 2.16935 0
M  V30 7031 H 637.032 3.73119 0.270773 0
M  V30 7032 H 638.365 4.90763 0.375887 0
M  V30 7033 N 640.017 0.126909 1.57088 0
M  V30 7034 C 641.263 -0.529952 1.95753 0
M  V30 7035 C 641.596 -1.65823 1.01077 0
M  V30 7036 O 640.871 -1.94437 0.0494162 0
M  V30 7037 C 641.154 -1.05517 3.44294 0
M  V30 7038 C 641.007 0.0702253 4.49745 0
M  V30 7039 C 642.326 -1.9435 3.94862 0
M  V30 7040 H 639.445 -0.191168 0.711775 0
M  V30 7041 H 642.087 0.204071 1.88901 0
M  V30 7042 H 640.237 -1.68069 3.50264 0
M  V30 7043 H 641.909 0.705834 4.55868 0
M  V30 7044 H 640.152 0.732259 4.27575 0
M  V30 7045 H 640.823 -0.338642 5.5096 0
M  V30 7046 H 643.299 -1.41658 3.91244 0
M  V30 7047 H 642.175 -2.28015 4.993 0
M  V30 7048 H 642.436 -2.87299 3.36024 0
M  V30 7049 N 641.495 -1.56914 -0.146875 0
M  V30 7050 C 642.772 -1.74273 -0.888165 0
M  V30 7051 C 643.152 -0.69496 -1.99333 0
M  V30 7052 O 642.5 0.286093 -2.26702 0
M  V30 7053 C 642.71 -3.18336 -1.43051 0
M  V30 7054 C 644.058 -3.80024 -1.89387 0
M  V30 7055 O 645.082 -3.21765 -1.52792 0
M  V30 7056 O 643.941 -4.82367 -2.56874 0
M  V30 7057 H 641.035 -0.712565 -0.419738 0
M  V30 7058 H 643.581 -1.6918 -0.132791 0
M  V30 7059 H 642.353 -3.86092 -0.636274 0
M  V30 7060 H 641.976 -3.27854 -2.24938 0
M  V30 7061 N 642.974 0.416227 -1.52004 0
M  V30 7062 C 644.202 1.18573 -1.69553 0
M  V30 7063 C 644.617 1.84472 -0.401919 0
M  V30 7064 O 643.974 1.71593 0.621463 0
M  V30 7065 C 644.025 2.25413 -2.82615 0
M  V30 7066 O 643.746 1.62205 -4.06966 0
M  V30 7067 C 645.247 3.15297 -3.11613 0
M  V30 7068 H 642.467 0.356582 -0.56841 0
M  V30 7069 H 645.011 0.490618 -1.98528 0
M  V30 7070 H 643.166 2.90604 -2.56179 0
M  V30 7071 H 643.58 2.3298 -4.69916 0
M  V30 7072 H 645.054 3.86351 -3.94255 0
M  V30 7073 H 645.531 3.77264 -2.24874 0
M  V30 7074 H 646.137 2.55783 -3.39787 0
M  V30 7075 N 644.452 1.42507 0.673017 0
M  V30 7076 C 645.868 1.25472 0.986355 0
M  V30 7077 C 646.068 0.160181 2.00862 0
M  V30 7078 O 645.124 -0.467993 2.48125 0
M  V30 7079 C 646.437 2.61219 1.48947 0
M  V30 7080 C 647.985 2.68589 1.60715 0
M  V30 7081 C 648.46 4.04707 2.14422 0
M  V30 7082 N 649.951 4.0667 2.21752 0
M  V30 7083 C 650.686 5.0881 2.64386 0
M  V30 7084 N 650.182 6.21332 3.0646 0
M  V30 7085 N 651.975 4.96166 2.64151 0
M  V30 7086 H 644.126 2.124 -0.00378532 0
M  V30 7087 H 646.389 0.946046 0.0608367 0
M  V30 7088 H 646.095 3.42179 0.812812 0
M  V30 7089 H 645.969 2.85261 2.46791 0
M  V30 7090 H 648.356 1.87974 2.27486 0
M  V30 7091 H 648.437 2.48333 0.613552 0
M  V30 7092 H 648.081 4.8578 1.48258 0
M  V30 7093 H 648.011 4.22315 3.14575 0
M  V30 7094 H 650.502 3.25438 1.92089 0
M  V30 7095 H 650.815 6.95118 3.37684 0
M  V30 7096 H 649.16 6.24835 3.04313 0
M  V30 7097 H 652.351 4.07334 2.30644 0
M  V30 7098 H 652.524 5.759 2.97057 0
M  V30 7099 N 645.93 -0.909495 1.28709 0
M  V30 7100 C 647.16 -1.69027 1.188 0
M  V30 7101 C 647.568 -1.87469 -0.255329 0
M  V30 7102 O 646.911 -1.40458 -1.18394 0
M  V30 7103 C 646.973 -3.10064 1.81936 0
M  V30 7104 C 646.637 -3.14891 3.31199 0
M  V30 7105 C 647.634 -2.95768 4.27571 0
M  V30 7106 C 645.319 -3.37269 3.7223 0
M  V30 7107 C 647.313 -2.98942 5.6295 0
M  V30 7108 C 645 -3.40074 5.07733 0
M  V30 7109 C 645.998 -3.20932 6.02903 0
M  V30 7110 O 645.686 -3.23507 7.35934 0
M  V30 7111 H 645.418 -0.535014 0.413203 0
M  V30 7112 H 647.972 -1.14645 1.70428 0
M  V30 7113 H 646.202 -3.66005 1.24808 0
M  V30 7114 H 647.891 -3.70185 1.66486 0
M  V30 7115 H 648.657 -2.78302 3.97206 0
M  V30 7116 H 644.536 -3.51212 2.98615 0
M  V30 7117 H 648.08 -2.83919 6.37209 0
M  V30 7118 H 643.977 -3.5707 5.37747 0
M  V30 7119 H 644.745 -3.3984 7.44615 0
M  V30 7120 N 647.408 -1.11026 -1.11852 0
M  V30 7121 C 648.655 -0.85646 -1.83497 0
M  V30 7122 C 648.983 0.617938 -1.84423 0
M  V30 7123 O 648.238 1.47194 -1.28966 0
M  V30 7124 C 648.537 -1.35777 -3.30604 0
M  V30 7125 C 648.203 -2.84465 -3.49843 0
M  V30 7126 C 646.865 -3.25068 -3.54802 0
M  V30 7127 C 649.217 -3.80251 -3.56453 0
M  V30 7128 C 646.545 -4.60194 -3.63921 0
M  V30 7129 C 648.897 -5.15188 -3.67102 0
M  V30 7130 C 647.561 -5.55356 -3.70319 0
M  V30 7131 H 646.831 -0.313401 -0.671462 0
M  V30 7132 H 649.478 -1.38792 -1.31943 0
M  V30 7133 H 647.783 -0.746455 -3.84624 0
M  V30 7134 H 649.48 -1.13779 -3.8452 0
M  V30 7135 H 646.07 -2.52054 -3.46651 0
M  V30 7136 H 650.254 -3.49986 -3.51886 0
M  V30 7137 H 645.51 -4.90728 -3.64686 0
M  V30 7138 H 649.684 -5.89248 -3.71159 0
M  V30 7139 H 647.311 -6.60054 -3.77138 0
M  V30 7140 N 648.886 1.2938 -0.899927 0
M  V30 7141 C 650.163 1.9046 -0.445443 0
M  V30 7142 C 650.543 1.81683 1.07492 0
M  V30 7143 O 649.891 1.24371 1.91688 0
M  V30 7144 C 650.101 3.35529 -0.960279 0
M  V30 7145 C 651.449 4.12556 -1.00412 0
M  V30 7146 O 652.473 3.44434 -0.907965 0
M  V30 7147 O 651.332 5.34294 -1.14857 0
M  V30 7148 H 648.426 0.815253 -0.138893 0
M  V30 7149 H 650.972 1.37844 -0.989808 0
M  V30 7150 H 649.744 3.36074 -2.00425 0
M  V30 7151 H 649.367 3.95624 -0.395939 0
M  V30 7152 N 650.364 0.662433 1.43002 0
M  V30 7153 C 651.641 0.109096 1.95296 0
M  V30 7154 C 652.021 -1.37313 1.60338 0
M  V30 7155 O 651.369 -2.1032 0.893187 0
M  V30 7156 C 651.579 0.365096 3.47085 0
M  V30 7157 C 652.927 0.274964 4.23709 0
M  V30 7158 O 653.951 0.29816 3.5495 0
M  V30 7159 O 652.81 0.206549 5.4611 0
M  V30 7160 H 649.904 -0.00429724 0.826989 0
M  V30 7161 H 652.45 0.736308 1.52894 0
M  V30 7162 H 651.222 1.39237 3.65689 0
M  V30 7163 H 650.845 -0.294733 3.96506 0
M  V30 7164 N 651.842 -1.52309 0.404946 0
M  V30 7165 C 652.752 -2.30634 -0.429555 0
M  V30 7166 C 653.768 -1.38187 -1.05737 0
M  V30 7167 O 654.944 -1.71261 -1.05979 0
M  V30 7168 C 652.009 -3.10947 -1.53339 0
M  V30 7169 C 651.07 -4.19126 -0.929065 0
M  V30 7170 C 650.303 -4.95601 -1.9803 0
M  V30 7171 O 650.526 -4.72331 -3.1978 0
M  V30 7172 O 649.46 -5.80551 -1.58886 0
M  V30 7173 H 653.286 -3.0298 0.208963 0
M  V30 7174 H 650.871 -1.4845 0.168255 0
M  V30 7175 H 652.753 -3.60974 -2.1743 0
M  V30 7176 H 651.428 -2.41399 -2.15658 0
M  V30 7177 H 650.335 -3.73257 -0.250982 0
M  V30 7178 H 651.668 -4.90955 -0.349855 0
M  V30 7179 N 653.32 -0.135238 -1.57019 0
M  V30 7180 C 654.567 0.518794 -1.95742 0
M  V30 7181 C 654.895 1.65642 -1.01947 0
M  V30 7182 O 654.15 1.95645 -0.0464016 0
M  V30 7183 C 654.449 1.07694 -3.40788 0
M  V30 7184 C 654.115 0.058992 -4.50861 0
M  V30 7185 C 652.777 -0.220872 -4.80693 0
M  V30 7186 C 655.129 -0.633856 -5.17331 0
M  V30 7187 C 652.457 -1.19959 -5.74305 0
M  V30 7188 C 654.809 -1.60131 -6.11997 0
M  V30 7189 C 653.473 -1.889 -6.40213 0
M  V30 7190 H 652.743 0.18984 -0.716269 0
M  V30 7191 H 655.39 -0.219581 -1.90237 0
M  V30 7192 H 653.695 1.89241 -3.43067 0
M  V30 7193 H 655.392 1.59137 -3.68071 0
M  V30 7194 H 651.982 0.287304 -4.27636 0
M  V30 7195 H 656.166 -0.430823 -4.94427 0
M  V30 7196 H 651.422 -1.42905 -5.94465 0
M  V30 7197 H 655.596 -2.14376 -6.62583 0
M  V30 7198 H 653.223 -2.64891 -7.12556 0
M  V30 7199 N 654.798 1.5699 0.138552 0
M  V30 7200 C 656.026 1.87976 0.864437 0
M  V30 7201 C 656.441 0.724372 1.74351 0
M  V30 7202 O 655.798 -0.305575 1.79924 0
M  V30 7203 C 655.849 3.18276 1.71414 0
M  V30 7204 O 655.57 4.29365 0.870487 0
M  V30 7205 C 657.071 3.62834 2.54688 0
M  V30 7206 H 654.291 0.622878 0.249528 0
M  V30 7207 H 656.835 2.04094 0.128805 0
M  V30 7208 H 654.99 3.03886 2.40274 0
M  V30 7209 H 655.404 5.03924 1.45466 0
M  V30 7210 H 656.878 4.5682 3.0987 0
M  V30 7211 H 657.355 2.88533 3.31127 0
M  V30 7212 H 657.961 3.79946 1.91105 0
M  V30 7213 N 656.276 -0.40816 1.52223 0
M  V30 7214 C 657.239 -1.48 1.7501 0
M  V30 7215 C 658.239 -1.48367 0.619996 0
M  V30 7216 O 659.429 -1.49874 0.887881 0
M  V30 7217 C 656.561 -2.87403 1.83336 0
M  V30 7218 H 657.754 -1.29086 2.70697 0
M  V30 7219 H 655.307 -0.638715 1.42654 0
M  V30 7220 H 656.042 -3.11686 0.895677 0
M  V30 7221 H 655.827 -2.8854 2.65494 0
M  V30 7222 H 657.317 -3.65103 2.02705 0
M  V30 7223 N 657.755 -1.42862 -0.66545 0
M  V30 7224 C 658.687 -1.43026 -1.79098 0
M  V30 7225 C 659.7 -0.32803 -1.59461 0
M  V30 7226 O 660.889 -0.591709 -1.68407 0
M  V30 7227 C 657.989 -1.21566 -3.16346 0
M  V30 7228 C 657.162 -2.44399 -3.62751 0
M  V30 7229 C 656.221 -2.18344 -4.78761 0
M  V30 7230 O 655.247 -2.91611 -4.88827 0
M  V30 7231 N 656.449 -1.1924 -5.68122 0
M  V30 7232 H 659.214 -2.40045 -1.79439 0
M  V30 7233 H 656.775 -1.37861 -0.848872 0
M  V30 7234 H 658.767 -1.02037 -3.91625 0
M  V30 7235 H 657.337 -0.330368 -3.10849 0
M  V30 7236 H 656.557 -2.79433 -2.78048 0
M  V30 7237 H 657.845 -3.26173 -3.90498 0
M  V30 7238 H 657.243 -0.586603 -5.6265 0
M  V30 7239 H 655.8 -1.05698 -6.43173 0
M  V30 7240 N 659.233 0.902656 -1.29189 0
M  V30 7241 C 660.458 1.69167 -1.19989 0
M  V30 7242 C 660.883 1.86607 0.236495 0
M  V30 7243 O 660.241 1.38425 1.17082 0
M  V30 7244 C 660.289 3.05532 -1.91527 0
M  V30 7245 O 659.393 3.93621 -1.2303 0
M  V30 7246 H 658.734 0.517584 -0.415936 0
M  V30 7247 H 661.264 1.12785 -1.70706 0
M  V30 7248 H 661.274 3.55693 -1.99866 0
M  V30 7249 H 659.949 2.92156 -2.96003 0
M  V30 7250 H 658.526 3.52055 -1.22928 0
M  V30 7251 N 660.711 1.11618 1.11262 0
M  V30 7252 C 661.96 0.860934 1.82403 0
M  V30 7253 C 662.273 -0.615303 1.8567 0
M  V30 7254 O 663.479 -0.986861 2.52929 0
M  V30 7255 C 661.935 1.49048 3.27586 0
M  V30 7256 C 661.543 3.00089 3.32642 0
M  V30 7257 C 663.287 1.31515 4.03614 0
M  V30 7258 C 661.194 3.56019 4.72234 0
M  V30 7259 H 660.124 0.318423 0.683464 0
M  V30 7260 H 662.775 1.34165 1.25188 0
M  V30 7261 H 661.157 0.937434 3.84744 0
M  V30 7262 H 662.331 3.61813 2.85356 0
M  V30 7263 H 660.646 3.16919 2.70096 0
M  V30 7264 H 663.243 1.70732 5.0671 0
M  V30 7265 H 663.586 0.257917 4.155 0
M  V30 7266 H 664.119 1.83694 3.52848 0
M  V30 7267 H 660.858 4.61463 4.65545 0
M  V30 7268 H 660.378 2.99066 5.19923 0
M  V30 7269 H 662.057 3.54568 5.41193 0
M  V30 7270 N 662.189 -1.289 0.906776 0
M  V30 7271 C 663.417 -1.99401 0.551969 0
M  V30 7272 C 663.832 -1.67816 -0.865048 0
M  V30 7273 O 663.189 -0.927078 -1.57199 0
M  V30 7274 C 663.24 -3.53779 0.743152 0
M  V30 7275 O 662.961 -3.84248 2.1044 0
M  V30 7276 C 664.462 -4.41543 0.39424 0
M  V30 7277 H 661.682 -0.636926 0.211106 0
M  V30 7278 H 664.226 -1.64266 1.21807 0
M  V30 7279 H 662.381 -3.87201 0.124143 0
M  V30 7280 H 662.795 -4.78904 2.13895 0
M  V30 7281 H 664.269 -5.48957 0.578814 0
M  V30 7282 H 664.746 -4.34073 -0.669137 0
M  V30 7283 H 665.352 -4.13605 0.990491 0
M  V30 7284 N 663.667 -0.670007 -1.42649 0
M  V30 7285 C 664.916 -0.187526 -2.00826 0
M  V30 7286 C 665.229 1.21142 -1.53571 0
M  V30 7287 O 666.435 1.79001 -2.04134 0
M  V30 7288 C 664.891 -0.284409 -3.58774 0
M  V30 7289 C 664.499 -1.6871 -4.15019 0
M  V30 7290 C 666.243 0.139605 -4.2427 0
M  V30 7291 C 664.15 -1.73701 -5.65316 0
M  V30 7292 H 663.08 -0.0663468 -0.751075 0
M  V30 7293 H 665.731 -0.834492 -1.63427 0
M  V30 7294 H 664.113 0.430364 -3.93655 0
M  V30 7295 H 665.287 -2.42857 -3.91608 0
M  V30 7296 H 663.602 -2.05855 -3.61957 0
M  V30 7297 H 666.199 0.122398 -5.3456 0
M  V30 7298 H 666.542 1.17403 -3.99402 0
M  V30 7299 H 667.075 -0.523995 -3.94334 0
M  V30 7300 H 663.814 -2.75109 -5.94975 0
M  V30 7301 H 663.334 -1.03903 -5.90732 0
M  V30 7302 H 665.013 -1.48829 -6.2965 0
M  V30 7303 N 665.145 1.52092 -0.413018 0
M  V30 7304 C 666.373 2.06274 0.160881 0
M  V30 7305 C 666.788 1.28273 1.38533 0
M  V30 7306 O 666.145 0.33563 1.79387 0
M  V30 7307 C 666.196 3.57921 0.507443 0
M  V30 7308 O 665.917 4.32971 -0.668388 0
M  V30 7309 C 667.418 4.28533 1.13465 0
M  V30 7310 H 664.638 0.67074 0.0186759 0
M  V30 7311 H 667.182 1.95951 -0.585092 0
M  V30 7312 H 665.337 3.68238 1.20331 0
M  V30 7313 H 665.751 5.23135 -0.378169 0
M  V30 7314 H 667.225 5.35804 1.32732 0
M  V30 7315 H 667.702 3.85258 2.10886 0
M  V30 7316 H 668.308 4.22595 0.478876 0
M  V30 7317 N 666.623 0.143563 1.56945 0
M  V30 7318 C 668.034 -0.37783 1.82837 0
M  V30 7319 C 668.385 -1.64967 1.06209 0
M  V30 7320 O 667.51 -2.14221 0.306291 0
M  V30 7321 C 668.105 -0.692274 3.31652 0
M  V30 7322 C 666.664 -1.1582 3.58138 0
M  V30 7323 C 665.811 -0.17951 2.76718 0
M  V30 7324 H 668.762 0.368317 1.54367 0
M  V30 7325 H 668.783 -1.54729 3.47619 0
M  V30 7326 H 668.295 0.233572 3.87397 0
M  V30 7327 H 666.396 -2.10011 3.07776 0
M  V30 7328 H 666.509 -1.08655 4.66616 0
M  V30 7329 H 664.873 -0.671458 2.4569 0
M  V30 7330 H 665.656 0.739865 3.35233 0
M  V30 7331 N 668.101 -1.57061 -0.130224 0
M  V30 7332 C 669.512 -1.73539 -0.68856 0
M  V30 7333 C 669.863 -0.760554 -1.80859 0
M  V30 7334 O 668.988 0.0690796 -2.1629 0
M  V30 7335 C 669.583 -3.14666 -1.25581 0
M  V30 7336 C 668.142 -3.32689 -1.76055 0
M  V30 7337 C 667.289 -2.69436 -0.655712 0
M  V30 7338 H 670.24 -1.58412 0.0956002 0
M  V30 7339 H 670.261 -3.15595 -2.12556 0
M  V30 7340 H 669.773 -3.85593 -0.440412 0
M  V30 7341 H 667.874 -2.66786 -2.60108 0
M  V30 7342 H 667.987 -4.4077 -1.87772 0
M  V30 7343 H 666.351 -2.30362 -1.08654 0
M  V30 7344 H 667.134 -3.42979 0.14852 0
M  V30 7345 N 669.579 0.400081 -1.52437 0
M  V30 7346 C 670.856 1.15973 -1.57511 0
M  V30 7347 C 671.236 2.0798 -0.361572 0
M  V30 7348 O 670.584 2.19032 0.650929 0
M  V30 7349 C 670.794 1.92912 -2.90837 0
M  V30 7350 C 672.142 2.48662 -3.44169 0
M  V30 7351 O 673.166 2.03081 -2.92637 0
M  V30 7352 O 672.025 3.31894 -4.34176 0
M  V30 7353 H 669.119 0.530023 -0.634827 0
M  V30 7354 H 671.665 0.40613 -1.64769 0
M  V30 7355 H 670.437 1.25564 -3.70607 0
M  V30 7356 H 670.06 2.75257 -2.86913 0
M  V30 7357 N 671.057 1.43213 0.657864 0
M  V30 7358 C 672.473 1.26511 0.972992 0
M  V30 7359 C 672.673 0.181477 2.00681 0
M  V30 7360 O 671.729 -0.441649 2.48608 0
M  V30 7361 C 673.042 2.62784 1.46168 0
M  V30 7362 C 674.59 2.70278 1.57857 0
M  V30 7363 C 675.065 4.06958 2.10117 0
M  V30 7364 N 676.556 4.08999 2.17426 0
M  V30 7365 C 677.291 5.11585 2.58975 0
M  V30 7366 N 676.787 6.24548 2.99853 0
M  V30 7367 N 678.58 4.9894 2.58873 0
M  V30 7368 H 670.731 2.12384 -0.0263129 0
M  V30 7369 H 672.994 0.946638 0.0507992 0
M  V30 7370 H 672.7 3.43022 0.776474 0
M  V30 7371 H 672.574 2.87863 2.43751 0
M  V30 7372 H 674.961 1.90376 2.25479 0
M  V30 7373 H 675.042 2.4897 0.587179 0
M  V30 7374 H 674.686 4.87325 1.43098 0
M  V30 7375 H 674.616 4.25628 3.10078 0
M  V30 7376 H 677.107 3.27457 1.88627 0
M  V30 7377 H 677.42 6.98661 3.30292 0
M  V30 7378 H 675.765 6.28027 2.97669 0
M  V30 7379 H 678.956 4.09757 2.26311 0
M  V30 7380 H 679.129 5.79019 2.90932 0
M  V30 7381 N 672.536 -0.895792 1.29666 0
M  V30 7382 C 673.766 -1.67757 1.20586 0
M  V30 7383 C 674.174 -1.87729 -0.235432 0
M  V30 7384 O 673.517 -1.41706 -1.16898 0
M  V30 7385 C 673.579 -3.08117 1.85215 0
M  V30 7386 C 673.243 -3.1136 3.3452 0
M  V30 7387 C 674.24 -2.91217 4.30684 0
M  V30 7388 C 671.925 -3.33302 3.75786 0
M  V30 7389 C 673.919 -2.92955 5.66089 0
M  V30 7390 C 671.606 -3.3467 5.11311 0
M  V30 7391 C 672.604 -3.14519 6.06273 0
M  V30 7392 O 672.292 -3.15684 7.39323 0
M  V30 7393 H 672.024 -0.530601 0.418854 0
M  V30 7394 H 674.578 -1.12831 1.71634 0
M  V30 7395 H 672.808 -3.64661 1.28683 0
M  V30 7396 H 674.497 -3.68399 1.70403 0
M  V30 7397 H 675.263 -2.74074 4.00136 0
M  V30 7398 H 671.142 -3.48025 3.02324 0
M  V30 7399 H 674.686 -2.77145 6.40185 0
M  V30 7400 H 670.583 -3.51346 5.41504 0
M  V30 7401 H 671.351 -3.31924 7.48177 0
M  V30 7402 N 674.014 -1.12206 -1.10668 0
M  V30 7403 C 675.291 -0.787382 -1.79052 0
M  V30 7404 C 675.671 0.723267 -1.98323 0
M  V30 7405 O 675.019 1.6561 -1.57434 0
M  V30 7406 C 675.229 -1.55968 -3.1221 0
M  V30 7407 C 676.577 -1.74413 -3.87125 0
M  V30 7408 O 677.601 -1.5246 -3.21923 0
M  V30 7409 O 676.46 -2.10952 -5.04144 0
M  V30 7410 H 673.554 -0.286137 -0.775922 0
M  V30 7411 H 676.1 -1.22595 -1.1734 0
M  V30 7412 H 674.872 -2.58692 -2.93588 0
M  V30 7413 H 674.495 -1.1152 -3.8164 0
M  V30 7414 N 675.492 1.28418 -0.913599 0
M  V30 7415 C 676.717 1.99643 -0.561899 0
M  V30 7416 C 677.142 1.67819 0.849608 0
M  V30 7417 O 676.5 0.910503 1.56779 0
M  V30 7418 C 676.548 3.52116 -0.777622 0
M  V30 7419 O 675.652 4.12076 0.163457 0
M  V30 7420 H 674.993 0.627229 -0.217898 0
M  V30 7421 H 677.523 1.63575 -1.229 0
M  V30 7422 H 677.533 4.02163 -0.687666 0
M  V30 7423 H 676.208 3.74613 -1.8066 0
M  V30 7424 H 674.785 3.72892 0.0247827 0
M  V30 7425 N 676.97 0.677563 1.42291 0
M  V30 7426 C 677.9 0.014968 2.33495 0
M  V30 7427 C 678.881 -0.786376 1.50831 0
M  V30 7428 O 680.066 -0.742975 1.79426 0
M  V30 7429 C 677.196 -0.935023 3.34477 0
M  V30 7430 C 676.15 -0.242074 4.27315 0
M  V30 7431 C 675.476 -1.30519 5.18526 0
M  V30 7432 C 676.776 0.880604 5.14823 0
M  V30 7433 H 678.47 0.776671 2.89151 0
M  V30 7434 H 676.016 0.37494 1.39033 0
M  V30 7435 H 677.969 -1.40766 3.97194 0
M  V30 7436 H 676.693 -1.72818 2.77131 0
M  V30 7437 H 675.352 0.210351 3.65996 0
M  V30 7438 H 675 -2.09041 4.57505 0
M  V30 7439 H 674.7 -0.846652 5.81468 0
M  V30 7440 H 676.224 -1.7787 5.84119 0
M  V30 7441 H 677.638 0.489062 5.7121 0
M  V30 7442 H 676.035 1.26511 5.86613 0
M  V30 7443 H 677.105 1.72818 4.53059 0
M  V30 7444 N 678.448 -1.51871 0.421078 0
M  V30 7445 C 679.696 -2.01539 -0.150492 0
M  V30 7446 C 680.017 -1.30803 -1.44623 0
M  V30 7447 O 679.287 -0.437568 -1.90951 0
M  V30 7448 H 677.867 -0.744698 -0.0586041 0
M  V30 7449 H 680.529 -1.8668 0.560059 0
M  V30 7450 H 679.625 -3.10264 -0.338068 0
M  V30 7451 N 679.926 -0.151884 -1.56866 0
M  V30 7452 C 680.856 0.781943 -2.20018 0
M  V30 7453 C 681.837 1.25347 -1.14987 0
M  V30 7454 O 683.022 1.31015 -1.43348 0
M  V30 7455 C 680.152 2.01928 -2.82564 0
M  V30 7456 C 679.106 1.68434 -3.93464 0
M  V30 7457 C 678.432 2.99472 -4.42968 0
M  V30 7458 C 679.732 0.927244 -5.14003 0
M  V30 7459 H 681.426 0.255607 -2.98307 0
M  V30 7460 H 678.972 0.121502 -1.43486 0
M  V30 7461 H 680.925 2.67741 -3.25411 0
M  V30 7462 H 679.649 2.56943 -2.01614 0
M  V30 7463 H 678.308 1.04998 -3.51242 0
M  V30 7464 H 677.956 3.52488 -3.58834 0
M  V30 7465 H 677.656 2.77823 -5.17772 0
M  V30 7466 H 679.18 3.66348 -4.88489 0
M  V30 7467 H 680.594 1.48756 -5.53665 0
M  V30 7468 H 678.991 0.810513 -5.94601 0
M  V30 7469 H 680.061 -0.0801163 -4.84834 0
M  V30 7470 N 681.404 1.57128 0.121893 0
M  V30 7471 C 682.334 2.03165 1.15092 0
M  V30 7472 C 683.315 0.915587 1.43356 0
M  V30 7473 O 684.5 1.1851 1.53847 0
M  V30 7474 C 681.63 2.43352 2.47784 0
M  V30 7475 C 680.584 3.58376 2.33989 0
M  V30 7476 C 679.91 3.84454 3.71617 0
M  V30 7477 C 681.21 4.90199 1.80283 0
M  V30 7478 H 682.904 2.89382 0.768023 0
M  V30 7479 H 680.45 1.39218 0.367998 0
M  V30 7480 H 682.403 2.74163 3.20019 0
M  V30 7481 H 681.127 1.54103 2.87958 0
M  V30 7482 H 679.786 3.2777 1.64202 0
M  V30 7483 H 679.434 2.92414 4.09271 0
M  V30 7484 H 679.134 4.61877 3.6324 0
M  V30 7485 H 680.658 4.17714 4.45362 0
M  V30 7486 H 682.072 5.19565 2.42333 0
M  V30 7487 H 680.469 5.71601 1.82735 0
M  V30 7488 H 681.539 4.78904 0.760184 0
M  V30 7489 N 682.882 -0.391992 1.52647 0
M  V30 7490 C 683.792 -1.503 1.80131 0
M  V30 7491 C 684.808 -1.59825 0.687882 0
M  V30 7492 O 685.984 -1.76218 0.975149 0
M  V30 7493 C 683.049 -2.85863 1.96171 0
M  V30 7494 C 682.11 -2.86084 3.20085 0
M  V30 7495 C 681.343 -4.15181 3.35351 0
M  V30 7496 O 681.566 -5.09981 2.55491 0
M  V30 7497 O 680.5 -4.22603 4.28591 0
M  V30 7498 H 684.326 -1.30007 2.74466 0
M  V30 7499 H 681.911 -0.579539 1.37701 0
M  V30 7500 H 683.793 -3.66236 2.08445 0
M  V30 7501 H 682.468 -3.06189 1.05025 0
M  V30 7502 H 681.375 -2.04504 3.13256 0
M  V30 7503 H 682.708 -2.7071 4.11068 0
M  V30 7504 N 684.36 -1.4356 -0.65026 0
M  V30 7505 C 685.29 -1.51758 -1.77459 0
M  V30 7506 C 686.271 -0.372019 -1.65982 0
M  V30 7507 O 687.456 -0.589627 -1.85033 0
M  V30 7508 C 684.586 -1.44302 -3.15902 0
M  V30 7509 C 683.54 -2.57138 -3.42146 0
M  V30 7510 C 682.866 -2.34735 -4.8042 0
M  V30 7511 C 684.166 -3.99373 -3.36598 0
M  V30 7512 H 685.86 -2.45863 -1.70855 0
M  V30 7513 H 683.406 -1.18333 -0.820566 0
M  V30 7514 H 685.359 -1.48641 -3.94314 0
M  V30 7515 H 684.083 -0.467026 -3.23244 0
M  V30 7516 H 682.742 -2.52157 -2.66106 0
M  V30 7517 H 682.39 -1.35372 -4.84441 0
M  V30 7518 H 682.09 -3.10375 -4.9894 0
M  V30 7519 H 683.614 -2.40862 -5.61086 0
M  V30 7520 H 685.028 -4.05826 -4.04942 0
M  V30 7521 H 683.425 -4.75063 -3.66654 0
M  V30 7522 H 684.495 -4.243 -2.34729 0
M  V30 7523 N 685.838 0.888903 -1.30139 0
M  V30 7524 C 687.115 1.62145 -1.094 0
M  V30 7525 C 687.495 2.08041 0.358091 0
M  V30 7526 O 686.843 1.84438 1.34888 0
M  V30 7527 C 687.053 2.794 -2.09133 0
M  V30 7528 C 688.401 3.49826 -2.40638 0
M  V30 7529 O 689.425 2.89583 -2.07412 0
M  V30 7530 O 688.284 4.58457 -2.97455 0
M  V30 7531 H 685.378 0.712475 -0.41989 0
M  V30 7532 H 687.924 0.936023 -1.41551 0
M  V30 7533 H 686.696 2.42762 -3.06891 0
M  V30 7534 H 686.319 3.55643 -1.77776 0
M  V30 7535 N 687.317 1.12792 1.10072 0
M  V30 7536 C 688.249 0.757003 2.16338 0
M  V30 7537 C 689.262 -0.218144 1.61332 0
M  V30 7538 O 690.451 0.0010727 1.785 0
M  V30 7539 C 687.551 0.100303 3.38752 0
M  V30 7540 C 686.724 1.10586 4.2319 0
M  V30 7541 C 685.783 0.47609 5.24042 0
M  V30 7542 O 684.809 1.13418 5.57786 0
M  V30 7543 N 686.011 -0.754823 5.75572 0
M  V30 7544 H 688.776 1.6714 2.48766 0
M  V30 7545 H 686.337 1.02003 1.25726 0
M  V30 7546 H 688.329 -0.333092 4.03327 0
M  V30 7547 H 686.899 -0.716915 3.04268 0
M  V30 7548 H 686.119 1.71677 3.54853 0
M  V30 7549 H 687.407 1.78571 4.76435 0
M  V30 7550 H 686.805 -1.30838 5.50362 0
M  V30 7551 H 685.362 -1.13098 6.41913 0
M  V30 7552 N 688.795 -1.27931 0.920396 0
M  V30 7553 C 690.211 -1.47085 0.619537 0
M  V30 7554 C 690.411 -1.83463 -0.833291 0
M  V30 7555 O 689.467 -1.94363 -1.61181 0
M  V30 7556 C 690.78 -2.56878 1.56314 0
M  V30 7557 C 692.328 -2.70743 1.57058 0
M  V30 7558 C 692.803 -3.83687 2.50097 0
M  V30 7559 N 694.294 -3.9105 2.48262 0
M  V30 7560 C 695.029 -4.77842 3.16945 0
M  V30 7561 N 694.525 -5.69176 3.94982 0
M  V30 7562 N 696.318 -4.71509 3.06 0
M  V30 7563 H 688.469 -1.02601 1.85975 0
M  V30 7564 H 690.732 -0.511682 0.798051 0
M  V30 7565 H 690.438 -2.36923 2.59923 0
M  V30 7566 H 690.312 -3.54117 1.29928 0
M  V30 7567 H 692.699 -2.90083 0.541832 0
M  V30 7568 H 692.78 -1.74015 1.8749 0
M  V30 7569 H 692.424 -3.65101 3.53077 0
M  V30 7570 H 692.354 -4.79827 2.16964 0
M  V30 7571 H 694.845 -3.25738 1.91581 0
M  V30 7572 H 695.158 -6.32245 4.44394 0
M  V30 7573 H 693.503 -5.68995 3.99086 0
M  V30 7574 H 696.694 -3.99151 2.44533 0
M  V30 7575 H 696.867 -5.38933 3.59799 0
M  V30 7576 N 690.273 -0.685099 -1.4193 0
M  V30 7577 C 691.501 -0.220372 -2.05723 0
M  V30 7578 C 691.916 1.12642 -1.51516 0
M  V30 7579 O 691.273 1.70182 -0.659114 0
M  V30 7580 C 691.324 -0.157974 -3.61155 0
M  V30 7581 O 691.045 -1.45156 -4.13354 0
M  V30 7582 C 692.546 0.329009 -4.42077 0
M  V30 7583 H 689.766 -0.104725 -0.662777 0
M  V30 7584 H 692.31 -0.934736 -1.81887 0
M  V30 7585 H 690.465 0.507144 -3.84066 0
M  V30 7586 H 690.879 -1.33172 -5.07312 0
M  V30 7587 H 692.353 0.321559 -5.51063 0
M  V30 7588 H 692.83 1.36608 -4.17414 0
M  V30 7589 H 693.436 -0.304737 -4.24207 0
M  V30 7590 N 691.751 1.51645 -0.429126 0
M  V30 7591 C 692.701 2.24388 0.404217 0
M  V30 7592 C 693.685 1.26294 0.996933 0
M  V30 7593 O 694.877 1.51428 0.916434 0
M  V30 7594 C 692.006 3.08338 1.50938 0
M  V30 7595 C 691.092 4.13857 0.926464 0
M  V30 7596 N 691.483 5.05749 0.0719732 0
M  V30 7597 C 689.781 4.29695 1.19491 0
M  V30 7598 C 690.482 5.81143 -0.254528 0
M  V30 7599 N 689.458 5.42408 0.359763 0
M  V30 7600 H 693.26 2.92794 -0.254697 0
M  V30 7601 H 690.774 1.60606 -0.240712 0
M  V30 7602 H 692.771 3.59022 2.11918 0
M  V30 7603 H 691.431 2.41475 2.17072 0
M  V30 7604 H 692.442 5.17066 -0.293854 0
M  V30 7605 H 689.119 3.74059 1.85434 0
M  V30 7606 H 690.509 6.65159 -0.949365 0
M  V30 7607 N 693.229 0.160201 1.56784 0
M  V30 7608 C 694.476 -0.487588 1.96542 0
M  V30 7609 C 694.804 -1.63999 1.04569 0
M  V30 7610 O 694.059 -1.95546 0.0775211 0
M  V30 7611 C 694.358 -1.02259 3.42459 0
M  V30 7612 C 694.024 0.0127436 4.50898 0
M  V30 7613 C 692.686 0.297318 4.80281 0
M  V30 7614 C 695.038 0.716078 5.16257 0
M  V30 7615 C 692.366 1.29081 5.72324 0
M  V30 7616 C 694.718 1.69847 6.09372 0
M  V30 7617 C 693.382 1.99061 6.37127 0
M  V30 7618 H 692.652 -0.178421 0.719199 0
M  V30 7619 H 695.299 0.249818 1.89864 0
M  V30 7620 H 693.604 -1.8376 3.46034 0
M  V30 7621 H 695.301 -1.53261 3.70556 0
M  V30 7622 H 691.891 -0.219235 4.28039 0
M  V30 7623 H 696.075 0.509428 4.93679 0
M  V30 7624 H 691.331 1.52344 5.92116 0
M  V30 7625 H 695.505 2.2489 6.59088 0
M  V30 7626 H 693.132 2.76194 7.08252 0
M  V30 7627 N 694.707 -1.5719 -0.113559 0
M  V30 7628 C 696.118 -1.74259 -0.670116 0
M  V30 7629 C 696.469 -0.779694 -1.80042 0
M  V30 7630 O 695.594 0.0461353 -2.16351 0
M  V30 7631 C 696.189 -3.15981 -1.22236 0
M  V30 7632 C 694.748 -3.34537 -1.72516 0
M  V30 7633 C 693.895 -2.70116 -0.627098 0
M  V30 7634 H 696.846 -1.58301 0.112396 0
M  V30 7635 H 696.867 -3.17832 -2.09197 0
M  V30 7636 H 696.379 -3.86038 -0.39949 0
M  V30 7637 H 694.48 -2.6953 -2.57263 0
M  V30 7638 H 694.593 -4.42737 -1.83086 0
M  V30 7639 H 692.957 -2.31501 -1.06204 0
M  V30 7640 H 693.74 -3.42802 0.184889 0
M  V30 7641 N 696.185 0.383891 -1.52853 0
M  V30 7642 C 697.117 1.48889 -1.74255 0
M  V30 7643 C 698.13 1.50405 -0.623063 0
M  V30 7644 O 699.319 1.54215 -0.898887 0
M  V30 7645 C 696.419 2.87721 -1.79081 0
M  V30 7646 C 695.592 3.10111 -3.08464 0
M  V30 7647 C 694.651 4.28954 -3.0477 0
M  V30 7648 O 693.677 4.25012 -3.78621 0
M  V30 7649 N 694.879 5.35411 -2.24311 0
M  V30 7650 H 697.644 1.30915 -2.69595 0
M  V30 7651 H 695.205 0.573454 -1.51404 0
M  V30 7652 H 697.197 3.65333 -1.7411 0
M  V30 7653 H 695.767 2.99029 -0.911052 0
M  V30 7654 H 694.987 2.20319 -3.26884 0
M  V30 7655 H 696.275 3.21928 -3.94005 0
M  V30 7656 H 695.673 5.41471 -1.63787 0
M  V30 7657 H 694.23 6.1167 -2.25175 0
M  V30 7658 N 697.663 1.43903 0.642637 0
M  V30 7659 C 698.91 1.46079 1.40239 0
M  V30 7660 C 699.238 0.0890335 1.94296 0
M  V30 7661 O 698.493 -0.907533 1.73385 0
M  V30 7662 C 698.792 2.45907 2.59354 0
M  V30 7663 C 698.458 3.91522 2.23654 0
M  V30 7664 C 697.12 4.31179 2.1363 0
M  V30 7665 C 699.472 4.83242 1.95261 0
M  V30 7666 C 696.8 5.60495 1.73384 0
M  V30 7667 C 699.152 6.12933 1.56511 0
M  V30 7668 C 697.816 6.51556 1.4502 0
M  V30 7669 H 697.086 0.534542 0.513172 0
M  V30 7670 H 699.733 1.77047 0.72984 0
M  V30 7671 H 698.038 2.08381 3.3179 0
M  V30 7672 H 699.735 2.44842 3.17574 0
M  V30 7673 H 696.325 3.60142 2.32369 0
M  V30 7674 H 700.509 4.53367 2.0192 0
M  V30 7675 H 695.765 5.89249 1.63082 0
M  V30 7676 H 699.939 6.83469 1.33576 0
M  V30 7677 H 697.566 7.51663 1.13606 0
M  V30 7678 N 699.141 -0.881989 1.30609 0
M  V30 7679 C 700.366 -1.67236 1.22665 0
M  V30 7680 C 700.791 -1.8696 -0.206777 0
M  V30 7681 O 700.149 -1.4027 -1.14865 0
M  V30 7682 C 700.197 -3.02446 1.96363 0
M  V30 7683 O 699.301 -3.91614 1.29276 0
M  V30 7684 H 698.642 -0.510902 0.424117 0
M  V30 7685 H 701.172 -1.10055 1.72479 0
M  V30 7686 H 701.182 -3.52468 2.055 0
M  V30 7687 H 699.857 -2.8741 3.00613 0
M  V30 7688 H 698.434 -3.50055 1.28514 0
M  V30 7689 N 700.619 -1.13374 -1.09472 0
M  V30 7690 C 701.849 -0.917019 -1.85133 0
M  V30 7691 C 702.257 0.537568 -1.81402 0
M  V30 7692 O 701.6 1.38385 -1.20811 0
M  V30 7693 C 701.662 -1.32646 -3.34134 0
M  V30 7694 C 701.326 -2.79437 -3.61613 0
M  V30 7695 C 702.323 -3.77596 -3.57375 0
M  V30 7696 C 700.008 -3.16586 -3.89973 0
M  V30 7697 C 702.002 -5.10916 -3.81108 0
M  V30 7698 C 699.689 -4.50085 -4.13361 0
M  V30 7699 C 700.687 -5.47059 -4.0892 0
M  V30 7700 O 700.375 -6.78149 -4.31705 0
M  V30 7701 H 700.107 -0.326997 -0.591649 0
M  V30 7702 H 702.661 -1.51002 -1.39239 0
M  V30 7703 H 700.891 -0.676719 -3.80733 0
M  V30 7704 H 702.58 -1.08229 -3.91205 0
M  V30 7705 H 703.346 -3.50242 -3.35493 0
M  V30 7706 H 699.225 -2.41707 -3.92554 0
M  V30 7707 H 702.769 -5.86597 -3.77558 0
M  V30 7708 H 698.666 -4.77163 -4.34724 0
M  V30 7709 H 699.434 -6.84244 -4.49168 0
M  V30 7710 N 702.098 1.27442 -0.927168 0
M  V30 7711 C 703.323 1.99036 -0.583042 0
M  V30 7712 C 703.748 1.68711 0.83176 0
M  V30 7713 O 703.106 0.927081 1.55804 0
M  V30 7714 C 703.154 3.51271 -0.814925 0
M  V30 7715 O 702.258 4.12226 0.119742 0
M  V30 7716 H 701.599 0.624883 -0.224538 0
M  V30 7717 H 704.129 1.62263 -1.24628 0
M  V30 7718 H 704.139 4.01411 -0.730282 0
M  V30 7719 H 702.814 3.72676 -1.84623 0
M  V30 7720 H 701.391 3.72897 -0.0147688 0
M  V30 7721 N 703.576 0.692616 1.41565 0
M  V30 7722 C 704.539 0.0344174 2.29174 0
M  V30 7723 C 705.539 -0.710961 1.44229 0
M  V30 7724 O 706.729 -0.546293 1.65412 0
M  V30 7725 C 703.861 -0.961682 3.27054 0
M  V30 7726 H 705.054 0.805755 2.88873 0
M  V30 7727 H 702.607 0.455947 1.49502 0
M  V30 7728 H 703.342 -1.76089 2.72329 0
M  V30 7729 H 703.127 -0.430375 3.89731 0
M  V30 7730 H 704.617 -1.4201 3.92712 0
M  V30 7731 N 705.054 -1.51416 0.437162 0
M  V30 7732 C 706.279 -2.0699 -0.130424 0
M  V30 7733 C 706.704 -1.30249 -1.35709 0
M  V30 7734 O 706.062 -0.340388 -1.78076 0
M  V30 7735 C 706.11 -3.5801 -0.43142 0
M  V30 7736 O 705.214 -3.8345 -1.5179 0
M  V30 7737 H 704.555 -0.663997 -0.00194339 0
M  V30 7738 H 707.085 -1.95029 0.618445 0
M  V30 7739 H 707.095 -4.02261 -0.681926 0
M  V30 7740 H 705.77 -4.13291 0.465137 0
M  V30 7741 H 704.347 -3.51062 -1.25737 0
M  V30 7742 N 706.532 -0.168513 -1.56696 0
M  V30 7743 C 707.781 0.477233 -1.95973 0
M  V30 7744 C 708.094 1.64578 -1.05704 0
M  V30 7745 O 709.3 2.35758 -1.3465 0
M  V30 7746 C 707.756 0.900413 -3.48455 0
M  V30 7747 C 707.364 -0.242382 -4.47344 0
M  V30 7748 C 709.108 1.51474 -3.96555 0
M  V30 7749 C 707.015 0.200272 -5.91061 0
M  V30 7750 H 705.945 0.182061 -0.73169 0
M  V30 7751 H 708.596 -0.256297 -1.81701 0
M  V30 7752 H 706.978 1.68984 -3.58135 0
M  V30 7753 H 708.152 -1.01967 -4.49377 0
M  V30 7754 H 706.467 -0.766484 -4.09285 0
M  V30 7755 H 709.064 1.85792 -5.01384 0
M  V30 7756 H 709.407 2.41163 -3.39332 0
M  V30 7757 H 709.94 0.789802 -3.89881 0
M  V30 7758 H 706.679 -0.661775 -6.52151 0
M  V30 7759 H 706.199 0.942979 -5.92341 0
M  V30 7760 H 707.878 0.645088 -6.43776 0
M  V30 7761 N 708.01 1.57248 0.105221 0
M  V30 7762 C 709.426 1.52853 0.459153 0
M  V30 7763 C 709.626 0.883674 1.8109 0
M  V30 7764 O 708.682 0.471864 2.48052 0
M  V30 7765 C 709.995 2.97596 0.43096 0
M  V30 7766 C 711.543 3.08758 0.513536 0
M  V30 7767 C 712.018 4.55089 0.515593 0
M  V30 7768 N 713.509 4.59597 0.576639 0
M  V30 7769 C 714.244 5.70253 0.599904 0
M  V30 7770 N 713.74 6.90368 0.579985 0
M  V30 7771 N 715.533 5.58399 0.643953 0
M  V30 7772 H 707.684 1.97547 -0.780306 0
M  V30 7773 H 709.947 0.902758 -0.289363 0
M  V30 7774 H 709.653 3.48201 -0.494903 0
M  V30 7775 H 709.527 3.55756 1.2537 0
M  V30 7776 H 711.914 2.58148 1.42982 0
M  V30 7777 H 711.995 2.53568 -0.337148 0
M  V30 7778 H 711.639 5.06348 -0.396701 0
M  V30 7779 H 711.569 5.08105 1.38335 0
M  V30 7780 H 714.06 3.73144 0.597639 0
M  V30 7781 H 714.373 7.70462 0.600741 0
M  V30 7782 H 712.718 6.92843 0.547191 0
M  V30 7783 H 715.909 4.63467 0.656975 0
M  V30 7784 H 716.082 6.44644 0.658616 0
M  V30 7785 N 709.488 -0.375779 1.53054 0
M  V30 7786 C 710.398 -1.48381 1.81715 0
M  V30 7787 C 711.414 -1.59087 0.704795 0
M  V30 7788 O 712.59 -1.75174 0.993785 0
M  V30 7789 C 709.655 -2.83767 1.99192 0
M  V30 7790 C 708.716 -2.82673 3.23102 0
M  V30 7791 C 707.949 -4.11601 3.39736 0
M  V30 7792 O 708.172 -5.07243 2.60885 0
M  V30 7793 O 707.106 -4.18034 4.33049 0
M  V30 7794 H 710.932 -1.27089 2.7583 0
M  V30 7795 H 708.517 -0.564902 1.38308 0
M  V30 7796 H 710.399 -3.64004 2.12318 0
M  V30 7797 H 709.074 -3.05057 1.08267 0
M  V30 7798 H 707.981 -2.0117 3.15407 0
M  V30 7799 H 709.314 -2.66335 4.13916 0
M  V30 7800 O 711.005 -1.5284 -0.521743 0
M  V30 7801 H 711.696 -1.53854 -1.17681 0
M  V30 END ATOM
M  V30 BEGIN BOND
M  V30 END BOND
M  V30 END CTAB
M  END
$$$$
