drugbank_target|Q16698 2,4-dienoyl-CoA reductase, mitochondrial (DB03461; DB08605)
 OpenBabel12092120273D

  0  0  0     0  0            999 V3000
M  V30 BEGIN CTAB
M  V30 COUNTS 5131 5178 0 0 0
M  V30 BEGIN ATOM
M  V30 1 H -0.908 1.98254 -0.117106 0
M  V30 2 N 0 1.576 0 0
M  V30 3 C 0.933 2.03868 1.02534 0
M  V30 4 C 1.911 0.928543 1.3348 0
M  V30 5 O 3.095 1.19667 1.45644 0
M  V30 6 C 0.222 2.43627 2.35294 0
M  V30 7 C -0.732 3.65373 2.2001 0
M  V30 8 S 0.101 5.13292 1.52614 0
M  V30 9 C 1.257 5.56322 2.86805 0
M  V30 10 H 1.49 2.90518 0.631377 0
M  V30 11 H -0.977 1.52953 0.210867 0
M  V30 12 H 0.981 2.67203 3.11629 0
M  V30 13 H -0.358 1.57376 2.7183 0
M  V30 14 H -1.165 3.90944 3.18086 0
M  V30 15 H -1.563 3.418 1.51819 0
M  V30 16 H 0.729 5.58782 3.83104 0
M  V30 17 H 1.672 6.56266 2.65933 0
M  V30 18 H 2.08 4.83886 2.90714 0
M  V30 19 N 1.4781 -0.272755 1.55222 0
M  V30 20 C 2.4251 -1.33716 1.88119 0
M  V30 21 C 3.3951 -1.49066 0.73271 0
M  V30 22 O 4.5801 -1.63469 0.984002 0
M  V30 23 C 1.7201 -2.69238 2.15882 0
M  V30 24 C 0.8331 -2.62108 3.43399 0
M  V30 25 C -0.0319 -3.89811 3.60861 0
M  V30 26 C -0.9929 -3.77193 4.8207 0
M  V30 27 N -1.8559 -4.9673 4.96189 0
M  V30 28 H 2.9841 -1.04962 2.78903 0
M  V30 29 H 0.5211 -0.507088 1.38083 0
M  V30 30 H 2.4791 -3.48089 2.29978 0
M  V30 31 H 1.1091 -2.96194 1.28331 0
M  V30 32 H 0.1611 -1.74967 3.37773 0
M  V30 33 H 1.4731 -2.48685 4.32386 0
M  V30 34 H 0.6271 -4.77103 3.74777 0
M  V30 35 H -0.6339 -4.06102 2.7006 0
M  V30 36 H -1.6289 -2.88284 4.68159 0
M  V30 37 H -0.4039 -3.62421 5.74307 0
M  V30 38 H -2.4579 -5.13431 4.08319 0
M  V30 39 H -2.5409 -4.85839 5.79221 0
M  V30 40 H -1.2729 -5.85594 5.1449 0
M  V30 41 N 2.9562 -1.48159 -0.537278 0
M  V30 42 C 3.8862 -1.65029 -1.6519 0
M  V30 43 C 4.8672 -0.499281 -1.62607 0
M  V30 44 O 6.0522 -0.730972 -1.79918 0
M  V30 45 C 3.1822 -1.68303 -3.03795 0
M  V30 46 C 2.1362 -2.8283 -3.21234 0
M  V30 47 C 1.4622 -2.71189 -4.60826 0
M  V30 48 C 2.7622 -4.24211 -3.04701 0
M  V30 49 H 4.4562 -2.58341 -1.51328 0
M  V30 50 H 2.0022 -1.24325 -0.726585 0
M  V30 51 H 3.9552 -1.78693 -3.81637 0
M  V30 52 H 2.6792 -0.715635 -3.18663 0
M  V30 53 H 1.3382 -2.71983 -2.45807 0
M  V30 54 H 0.9862 -1.72435 -4.7252 0
M  V30 55 H 0.6862 -3.48035 -4.7344 0
M  V30 56 H 2.2102 -2.83537 -5.40777 0
M  V30 57 H 3.6242 -4.3593 -3.72341 0
M  V30 58 H 2.0212 -5.01998 -3.28813 0
M  V30 59 H 3.0912 -4.41184 -2.01209 0
M  V30 60 N 4.4343 0.785586 -1.36625 0
M  V30 61 C 5.8453 1.36101 -1.27803 0
M  V30 62 C 6.1963 1.96035 0.0804875 0
M  V30 63 O 5.3213 1.92834 0.982042 0
M  V30 64 C 5.9163 2.47442 -2.31426 0
M  V30 65 C 4.4753 3.00789 -2.26281 0
M  V30 66 C 3.6223 1.73896 -2.15999 0
M  V30 67 H 6.5733 0.586928 -1.47448 0
M  V30 68 H 6.5943 3.2656 -1.95291 0
M  V30 69 H 6.1063 2.03791 -3.30289 0
M  V30 70 H 4.2073 3.48851 -1.30896 0
M  V30 71 H 4.3203 3.57343 -3.19128 0
M  V30 72 H 2.6843 1.9628 -1.62316 0
M  V30 73 H 3.4673 1.32368 -3.16755 0
M  V30 74 N 5.9124 1.20967 1.01018 0
M  V30 75 C 6.8754 0.965918 2.07853 0
M  V30 76 C 7.8754 -0.0610545 1.60684 0
M  V30 77 O 9.0654 0.175681 1.73312 0
M  V30 78 C 6.1974 0.455513 3.37843 0
M  V30 79 H 7.3904 1.91365 2.3091 0
M  V30 80 H 4.9434 1.02594 1.17916 0
M  V30 81 H 5.6784 -0.497381 3.20463 0
M  V30 82 H 5.4634 1.19622 3.73407 0
M  V30 83 H 6.9534 0.304667 4.16487 0
M  V30 84 N 7.3905 -1.2043 1.01659 0
M  V30 85 C 8.8065 -1.41852 0.731442 0
M  V30 86 C 9.0065 -1.89358 -0.688898 0
M  V30 87 O 8.0625 -2.06247 -1.45666 0
M  V30 88 C 9.3755 -2.44019 1.75714 0
M  V30 89 C 10.9235 -2.57785 1.77527 0
M  V30 90 C 11.3985 -3.63194 2.79023 0
M  V30 91 N 12.8895 -3.70678 2.77763 0
M  V30 92 C 13.6245 -4.51897 3.52954 0
M  V30 93 N 13.1205 -5.36921 4.37821 0
M  V30 94 N 14.9135 -4.4643 3.41551 0
M  V30 95 H 7.0645 -0.879093 1.93354 0
M  V30 96 H 9.3275 -0.448425 0.835236 0
M  V30 97 H 9.0335 -2.1611 2.77469 0
M  V30 98 H 8.9075 -3.43007 1.56927 0
M  V30 99 H 11.2945 -2.85023 0.764569 0
M  V30 100 H 11.3755 -1.58992 2.00387 0
M  V30 101 H 11.0195 -3.36699 3.80258 0
M  V30 102 H 10.9495 -4.61609 2.53425 0
M  V30 103 H 13.4405 -3.09944 2.16201 0
M  V30 104 H 13.7535 -5.95981 4.91962 0
M  V30 105 H 12.0985 -5.36424 4.41899 0
M  V30 106 H 15.2895 -3.79042 2.74672 0
M  V30 107 H 15.4625 -5.09491 4.00404 0
M  V30 108 N 8.8686 -0.792821 -1.36206 0
M  V30 109 C 10.1146 -0.36733 -1.99446 0
M  V30 110 C 10.4476 1.05917 -1.62774 0
M  V30 111 O 9.7226 1.7324 -0.88421 0
M  V30 112 C 10.0056 -0.535044 -3.56103 0
M  V30 113 C 9.8586 -2.00548 -4.02617 0
M  V30 114 C 11.1776 0.0478191 -4.40074 0
M  V30 115 H 8.2966 -0.134941 -0.724541 0
M  V30 116 H 10.9386 -0.999794 -1.61568 0
M  V30 117 H 9.0886 0.00336329 -3.885 0
M  V30 118 H 10.7606 -2.60521 -3.80692 0
M  V30 119 H 9.0036 -2.50686 -3.54032 0
M  V30 120 H 9.6746 -2.07377 -5.11565 0
M  V30 121 H 12.1506 -0.411822 -4.14057 0
M  V30 122 H 11.0266 -0.0995336 -5.4881 0
M  V30 123 H 11.2876 1.14025 -4.27142 0
M  V30 124 N 10.3467 1.47872 -0.545128 0
M  V30 125 C 11.5937 2.02493 -0.0165858 0
M  V30 126 C 11.9217 1.42073 1.32836 0
M  V30 127 O 11.1767 0.561459 1.87473 0
M  V30 128 C 11.4757 3.57131 0.13867 0
M  V30 129 C 11.1417 4.36411 -1.13384 0
M  V30 130 C 9.8037 4.57792 -1.48256 0
M  V30 131 C 12.1557 4.82223 -1.97764 0
M  V30 132 C 9.4837 5.22233 -2.67376 0
M  V30 133 C 11.8357 5.47977 -3.16076 0
M  V30 134 C 10.4997 5.67593 -3.51275 0
M  V30 135 H 9.7697 0.740975 -0.00606918 0
M  V30 136 H 12.4167 1.77683 -0.714207 0
M  V30 137 H 10.7217 3.80865 0.919172 0
M  V30 138 H 12.4187 3.97031 0.562782 0
M  V30 139 H 9.0087 4.2004 -0.852297 0
M  V30 140 H 13.1927 4.65493 -1.72132 0
M  V30 141 H 8.4487 5.35616 -2.94831 0
M  V30 142 H 12.6227 5.8244 -3.81755 0
M  V30 143 H 10.2497 6.17298 -4.43675 0
M  V30 144 N 11.8248 0.280983 1.55075 0
M  V30 145 C 13.0718 -0.334115 1.99725 0
M  V30 146 C 13.3998 -1.5542 1.1694 0
M  V30 147 O 12.6548 -1.94361 0.228531 0
M  V30 148 C 12.9538 -0.754656 3.49342 0
M  V30 149 C 12.6198 0.361445 4.49449 0
M  V30 150 C 11.2818 0.667893 4.76542 0
M  V30 151 C 13.6338 1.11322 5.09173 0
M  V30 152 C 10.9618 1.7296 5.60626 0
M  V30 153 C 13.3138 2.1647 5.9441 0
M  V30 154 C 11.9778 2.47742 6.19822 0
M  V30 155 H 11.2478 -0.122261 0.730844 0
M  V30 156 H 13.8948 0.395917 1.87363 0
M  V30 157 H 12.1998 -1.56446 3.5921 0
M  V30 158 H 13.8968 -1.24142 3.813 0
M  V30 159 H 10.4868 0.112481 4.28452 0
M  V30 160 H 14.6708 0.88973 4.8826 0
M  V30 161 H 9.9268 1.97684 5.78559 0
M  V30 162 H 14.1008 2.75193 6.3972 0
M  V30 163 H 11.7278 3.30145 6.84769 0
M  V30 164 N 13.3029 -1.57598 0.00835791 0
M  V30 165 C 14.5309 -1.95214 -0.68549 0
M  V30 166 C 14.9459 -0.883706 -1.66841 0
M  V30 167 O 14.3029 0.136565 -1.81988 0
M  V30 168 C 14.3539 -3.32865 -1.41007 0
M  V30 169 O 14.0749 -4.35609 -0.466552 0
M  V30 170 C 15.5759 -3.84991 -2.19765 0
M  V30 171 H 12.7959 -0.643422 -0.190392 0
M  V30 172 H 15.3399 -2.04406 0.0619607 0
M  V30 173 H 13.4949 -3.24956 -2.10908 0
M  V30 174 H 13.9089 -5.15288 -0.978699 0
M  V30 175 H 15.3829 -4.8371 -2.65948 0
M  V30 176 H 15.8599 -3.18137 -3.02796 0
M  V30 177 H 16.4659 -3.96103 -1.54864 0
M  V30 178 N 14.781 0.264519 -1.55364 0
M  V30 179 C 15.711 1.33121 -1.91836 0
M  V30 180 C 16.692 1.51101 -0.781192 0
M  V30 181 O 17.877 1.64003 -1.04003 0
M  V30 182 C 15.007 2.68921 -2.19769 0
M  V30 183 C 13.961 2.65661 -3.35571 0
M  V30 184 C 13.287 4.05093 -3.49004 0
M  V30 185 C 14.587 2.24187 -4.71739 0
M  V30 186 H 16.281 1.02844 -2.81182 0
M  V30 187 H 13.827 0.493286 -1.35287 0
M  V30 188 H 15.78 3.43663 -2.43872 0
M  V30 189 H 14.504 3.00799 -1.27231 0
M  V30 190 H 13.163 1.93377 -3.1145 0
M  V30 191 H 12.811 4.34206 -2.53917 0
M  V30 192 H 12.511 4.03804 -4.26868 0
M  V30 193 H 14.035 4.81561 -3.75408 0
M  V30 194 H 15.449 2.88654 -4.9533 0
M  V30 195 H 13.846 2.34044 -5.52579 0
M  V30 196 H 14.916 1.19327 -4.69988 0
M  V30 197 N 16.2591 1.48442 0.529413 0
M  V30 198 C 17.5071 1.56179 1.28267 0
M  V30 199 C 17.8281 0.237721 1.93546 0
M  V30 200 O 17.0981 -0.740779 1.81354 0
M  V30 201 H 15.6781 0.575367 0.476405 0
M  V30 202 H 18.3401 1.84909 0.61602 0
M  V30 203 H 17.4361 2.34312 2.06165 0
M  V30 204 N 17.7372 -0.778329 1.37039 0
M  V30 205 C 18.9622 -1.57248 1.35233 0
M  V30 206 C 19.3872 -1.87999 -0.0615568 0
M  V30 207 O 18.7452 -1.48734 -1.03672 0
M  V30 208 C 18.7932 -2.86353 2.19167 0
M  V30 209 O 17.8972 -3.80442 1.59178 0
M  V30 210 H 17.2382 -0.476569 0.462362 0
M  V30 211 H 19.7682 -0.963853 1.80474 0
M  V30 212 H 19.7782 -3.35519 2.32145 0
M  V30 213 H 18.4532 -2.63299 3.21942 0
M  V30 214 H 17.0302 -3.39067 1.55203 0
M  V30 215 N 19.2153 -1.21501 -1.00376 0
M  V30 216 C 20.6313 -0.972629 -1.26539 0
M  V30 217 C 20.8313 0.340257 -1.98606 0
M  V30 218 O 19.8873 1.06561 -2.28913 0
M  V30 219 C 21.2003 -2.16404 -2.08781 0
M  V30 220 C 22.7483 -2.20643 -2.22004 0
M  V30 221 C 23.2233 -3.39306 -3.07629 0
M  V30 222 N 24.7143 -3.39401 -3.15217 0
M  V30 223 C 25.4493 -4.27867 -3.81729 0
M  V30 224 N 24.9453 -5.26533 -4.5026 0
M  V30 225 N 26.7383 -4.15672 -3.78382 0
M  V30 226 H 18.8893 -2.05929 -0.520281 0
M  V30 227 H 21.1523 -0.901803 -0.292328 0
M  V30 228 H 20.8583 -3.11554 -1.63178 0
M  V30 229 H 20.7323 -2.15567 -3.09533 0
M  V30 230 H 23.1193 -1.26048 -2.66825 0
M  V30 231 H 23.2003 -2.25523 -1.20718 0
M  V30 232 H 22.8443 -4.34195 -2.63509 0
M  V30 233 H 22.7743 -3.31665 -4.09031 0
M  V30 234 H 25.2653 -2.67997 -2.66432 0
M  V30 235 H 25.5783 -5.90337 -4.98721 0
M  V30 236 H 23.9233 -5.30457 -4.49044 0
M  V30 237 H 27.1143 -3.3785 -3.23998 0
M  V30 238 H 27.2873 -4.84825 -4.2994 0
M  V30 239 N 20.6934 1.19889 -1.02296 0
M  V30 240 C 21.6234 2.25141 -0.619174 0
M  V30 241 C 22.6044 1.66051 0.368915 0
M  V30 242 O 23.7894 1.92546 0.252941 0
M  V30 243 C 20.9194 3.4728 0.0368783 0
M  V30 244 C 19.8734 4.19005 -0.872865 0
M  V30 245 C 19.1994 5.34637 -0.0822402 0
M  V30 246 C 20.4994 4.74452 -2.18387 0
M  V30 247 H 22.1934 2.59171 -1.49903 0
M  V30 248 H 19.7394 1.24579 -0.722222 0
M  V30 249 H 21.6924 4.20098 0.330958 0
M  V30 250 H 20.4164 3.12433 0.95149 0
M  V30 251 H 19.0754 3.48061 -1.15105 0
M  V30 252 H 18.7234 4.96034 0.83422 0
M  V30 253 H 18.4234 5.83557 -0.688149 0
M  V30 254 H 19.9474 6.10255 0.205238 0
M  V30 255 H 21.3614 5.39055 -1.95172 0
M  V30 256 H 19.7584 5.33834 -2.74119 0
M  V30 257 H 20.8284 3.92844 -2.84257 0
M  V30 258 N 22.1715 0.800033 1.35784 0
M  V30 259 C 23.5825 0.439142 1.81462 0
M  V30 260 C 23.9335 -1.03813 1.66485 0
M  V30 261 O 23.0585 -1.80626 1.19177 0
M  V30 262 C 23.6535 0.790314 3.29453 0
M  V30 263 C 22.2125 0.482111 3.733 0
M  V30 264 C 21.3595 1.01938 2.57883 0
M  V30 265 H 24.3105 0.992254 1.23855 0
M  V30 266 H 24.3315 0.0853677 3.80404 0
M  V30 267 H 23.8435 1.86554 3.40322 0
M  V30 268 H 21.9445 -0.584652 3.67984 0
M  V30 269 H 22.0575 1.01015 4.6833 0
M  V30 270 H 20.4215 0.442043 2.50835 0
M  V30 271 H 21.2045 2.10059 2.71533 0
M  V30 272 N 23.6496 -1.47581 0.552962 0
M  V30 273 C 24.8896 -2.04379 0.0296245 0
M  V30 274 C 25.2536 -1.4185 -1.29393 0
M  V30 275 O 26.4546 -1.89669 -1.90471 0
M  V30 276 C 24.7256 -3.57339 -0.0661371 0
M  V30 277 S 26.2846 -4.35511 -0.536213 0
M  V30 278 H 23.1026 -0.710625 0.0230991 0
M  V30 279 H 25.7046 -1.81005 0.738734 0
M  V30 280 H 24.4086 -4.00374 0.901596 0
M  V30 281 H 23.9396 -3.85202 -0.798931 0
M  V30 282 H 25.9546 -4.6253 -1.79668 0
M  V30 283 N 25.1277 -0.289203 -1.54924 0
M  V30 284 C 26.3757 0.322879 -1.99504 0
M  V30 285 C 26.6967 1.55313 -1.1791 0
M  V30 286 O 25.9667 1.94001 -0.272097 0
M  V30 287 H 24.5467 0.122291 -0.736922 0
M  V30 288 H 27.2087 -0.397802 -1.90797 0
M  V30 289 H 26.3047 0.603061 -3.06218 0
M  V30 290 N 26.6058 1.57591 -0.0167156 0
M  V30 291 C 27.5358 2.12496 0.967858 0
M  V30 292 C 28.5168 1.03807 1.34752 0
M  V30 293 O 29.7018 1.31577 1.42833 0
M  V30 294 C 26.8318 2.64194 2.25431 0
M  V30 295 C 25.7858 3.77559 2.01576 0
M  V30 296 C 25.1118 4.15636 3.36379 0
M  V30 297 C 26.4118 5.04151 1.36489 0
M  V30 298 H 28.1058 2.95013 0.510643 0
M  V30 299 H 25.6518 1.41915 0.244181 0
M  V30 300 H 27.6048 3.01236 2.94678 0
M  V30 301 H 26.3288 1.78821 2.73296 0
M  V30 302 H 24.9878 3.40937 1.34751 0
M  V30 303 H 24.6358 3.27263 3.81979 0
M  V30 304 H 24.3358 4.92022 3.21229 0
M  V30 305 H 25.8598 4.5525 4.06915 0
M  V30 306 H 27.2738 5.38857 1.95718 0
M  V30 307 H 25.6708 5.85453 1.31776 0
M  V30 308 H 26.7408 4.83733 0.336219 0
M  V30 309 N 28.0839 -0.256276 1.55502 0
M  V30 310 C 29.0469 -1.30047 1.88734 0
M  V30 311 C 30.0469 -1.4154 0.763086 0
M  V30 312 O 31.2369 -1.40403 1.03115 0
M  V30 313 C 28.3689 -2.67953 2.10747 0
M  V30 314 H 29.5619 -1.01802 2.82093 0
M  V30 315 H 27.1149 -0.495134 1.4825 0
M  V30 316 H 27.8499 -3.01351 1.19825 0
M  V30 317 H 27.6349 -2.60993 2.92617 0
M  V30 318 H 29.1249 -3.43368 2.37673 0
M  V30 319 N 29.562 -1.4872 -0.521534 0
M  V30 320 C 30.973 -1.50607 -1.10337 0
M  V30 321 C 31.324 -0.280612 -1.94183 0
M  V30 322 O 30.449 0.611507 -2.0758 0
M  V30 323 C 31.044 -2.72903 -2.00772 0
M  V30 324 C 29.603 -2.77634 -2.54158 0
M  V30 325 C 28.75 -2.44241 -1.31307 0
M  V30 326 H 31.701 -1.55714 -0.306388 0
M  V30 327 H 31.722 -2.519 -2.85178 0
M  V30 328 H 31.234 -3.62077 -1.39721 0
M  V30 329 H 29.335 -1.92689 -3.18907 0
M  V30 330 H 29.448 -3.79283 -2.92714 0
M  V30 331 H 27.812 -1.95577 -1.63161 0
M  V30 332 H 28.595 -3.35666 -0.719943 0
M  V30 333 N 31.0401 0.771051 -1.3745 0
M  V30 334 C 32.4561 1.07171 -1.18265 0
M  V30 335 C 32.6561 2.01491 -0.019287 0
M  V30 336 O 31.7121 2.44244 0.640408 0
M  V30 337 C 33.0251 1.66854 -2.50161 0
M  V30 338 C 34.5731 1.79109 -2.56689 0
M  V30 339 C 35.0481 2.42205 -3.88717 0
M  V30 340 N 36.5391 2.49655 -3.90162 0
M  V30 341 C 37.2741 2.9933 -4.8907 0
M  V30 342 N 36.7701 3.49172 -5.98374 0
M  V30 343 N 38.5631 2.9821 -4.76474 0
M  V30 344 H 30.7141 0.144796 -2.11906 0
M  V30 345 H 32.9771 0.126863 -0.939473 0
M  V30 346 H 32.6831 1.05017 -3.35655 0
M  V30 347 H 32.5571 2.6614 -2.673 0
M  V30 348 H 34.9441 2.40077 -1.71601 0
M  V30 349 H 35.0251 0.785757 -2.43433 0
M  V30 350 H 34.6691 1.81875 -4.74219 0
M  V30 351 H 34.5991 3.43345 -3.99276 0
M  V30 352 H 37.0901 2.14383 -3.11205 0
M  V30 353 H 37.4031 3.8548 -6.69795 0
M  V30 354 H 35.7481 3.47275 -6.02018 0
M  V30 355 H 38.9391 2.58572 -3.90203 0
M  V30 356 H 39.1121 3.36613 -5.53711 0
M  V30 357 N 32.5182 1.22032 0.997298 0
M  V30 358 C 33.9342 0.979326 1.26021 0
M  V30 359 C 34.1342 -0.32972 1.98784 0
M  V30 360 O 33.1902 -1.05345 2.29475 0
M  V30 361 C 34.5032 2.17509 2.07631 0
M  V30 362 C 36.0512 2.21817 2.2083 0
M  V30 363 C 36.5262 3.40933 3.05825 0
M  V30 364 N 38.0172 3.41067 3.13412 0
M  V30 365 C 38.7522 4.29885 3.79455 0
M  V30 366 N 38.2482 5.28914 4.47462 0
M  V30 367 N 40.0412 4.17673 3.76173 0
M  V30 368 H 32.1922 2.06202 0.509352 0
M  V30 369 H 34.4552 0.90334 0.287541 0
M  V30 370 H 34.1612 3.12415 1.61524 0
M  V30 371 H 34.0352 2.17206 3.08385 0
M  V30 372 H 36.4222 1.27462 2.66153 0
M  V30 373 H 36.5032 2.2616 1.1952 0
M  V30 374 H 36.1472 4.35586 2.61203 0
M  V30 375 H 36.0772 3.33829 4.07266 0
M  V30 376 H 38.5682 2.69406 2.65007 0
M  V30 377 H 38.8812 5.92973 4.95583 0
M  V30 378 H 37.2262 5.32831 4.46224 0
M  V30 379 H 40.4172 3.39564 3.22202 0
M  V30 380 H 40.5902 4.87098 4.27363 0
M  V30 381 N 33.9963 -1.19345 1.0293 0
M  V30 382 C 35.2433 -1.89038 0.726008 0
M  V30 383 C 35.5713 -1.79649 -0.745427 0
M  V30 384 O 34.8263 -1.18354 -1.55855 0
M  V30 385 C 35.1253 -3.39292 1.12319 0
M  V30 386 C 34.7913 -3.68885 2.59297 0
M  V30 387 C 33.4533 -3.76671 2.99453 0
M  V30 388 C 35.8053 -3.82178 3.54386 0
M  V30 389 C 33.1333 -3.9522 4.33611 0
M  V30 390 C 35.4853 -4.0224 4.88248 0
M  V30 391 C 34.1493 -4.08259 5.28092 0
M  V30 392 H 33.4193 -0.691739 0.265665 0
M  V30 393 H 36.0663 -1.41328 1.29223 0
M  V30 394 H 34.3713 -3.88903 0.475584 0
M  V30 395 H 36.0683 -3.91536 0.866037 0
M  V30 396 H 32.6583 -3.63433 2.27189 0
M  V30 397 H 36.8423 -3.75505 3.24514 0
M  V30 398 H 32.0983 -3.98119 4.64016 0
M  V30 399 H 36.2723 -4.11468 5.61843 0
M  V30 400 H 33.8993 -4.22384 6.32057 0
M  V30 401 N 35.4744 -0.807222 -1.35358 0
M  V30 402 C 36.7214 -0.387888 -1.9875 0
M  V30 403 C 37.0494 1.04509 -1.64037 0
M  V30 404 O 36.3044 1.73986 -0.895946 0
M  V30 405 C 36.6034 -0.519036 -3.53611 0
M  V30 406 C 36.2694 -1.91542 -4.08194 0
M  V30 407 C 34.9314 -2.29745 -4.22813 0
M  V30 408 C 37.2834 -2.82896 -4.37744 0
M  V30 409 C 34.6114 -3.58668 -4.643 0
M  V30 410 C 36.9634 -4.11265 -4.8067 0
M  V30 411 C 35.6274 -4.49466 -4.93494 0
M  V30 412 H 34.8974 -0.141938 -0.727279 0
M  V30 413 H 37.5444 -1.02814 -1.6156 0
M  V30 414 H 35.8494 0.204658 -3.91265 0
M  V30 415 H 37.5464 -0.175345 -4.00616 0
M  V30 416 H 34.1364 -1.60862 -3.97268 0
M  V30 417 H 38.3204 -2.54629 -4.26002 0
M  V30 418 H 33.5764 -3.88113 -4.72418 0
M  V30 419 H 37.7504 -4.82153 -5.02496 0
M  V30 420 H 35.3774 -5.49418 -5.25399 0
M  V30 421 N 36.9525 1.47285 -0.560781 0
M  V30 422 C 38.1775 2.07359 -0.0410566 0
M  V30 423 C 38.6025 1.41017 1.24483 0
M  V30 424 O 37.9605 0.486368 1.74654 0
M  V30 425 C 38.0085 3.6035 0.134123 0
M  V30 426 O 37.1125 3.94681 1.19587 0
M  V30 427 H 36.4535 0.661887 -0.0529291 0
M  V30 428 H 38.9835 1.89252 -0.777482 0
M  V30 429 H 38.9935 4.0652 0.347207 0
M  V30 430 H 37.6685 4.08034 -0.805047 0
M  V30 431 H 36.2455 3.60251 0.962987 0
M  V30 432 N 38.4306 0.297415 1.54768 0
M  V30 433 C 39.6606 -0.315165 2.04182 0
M  V30 434 C 40.0686 -1.4834 1.17439 0
M  V30 435 O 39.4116 -1.82695 0.191891 0
M  V30 436 C 39.4736 -0.837583 3.49607 0
M  V30 437 C 39.1376 0.204912 4.5654 0
M  V30 438 C 40.1346 1.03214 5.09552 0
M  V30 439 C 37.8196 0.345578 5.0111 0
M  V30 440 C 39.8136 1.986 6.05671 0
M  V30 441 C 37.5006 1.30289 5.97049 0
M  V30 442 C 38.4986 2.12159 6.49213 0
M  V30 443 O 38.1866 3.06268 7.43273 0
M  V30 444 H 37.9186 -0.0729646 0.672051 0
M  V30 445 H 40.4726 0.433907 2.00765 0
M  V30 446 H 38.7026 -1.63712 3.50336 0
M  V30 447 H 40.3916 -1.36566 3.82236 0
M  V30 448 H 41.1576 0.934312 4.75916 0
M  V30 449 H 37.0366 -0.28171 4.60138 0
M  V30 450 H 40.5806 2.62542 6.46311 0
M  V30 451 H 36.4776 1.40145 6.30103 0
M  V30 452 H 37.2456 3.01205 7.61064 0
M  V30 453 N 39.9087 -1.5758 0.0250728 0
M  V30 454 C 41.1567 -1.91255 -0.653151 0
M  V30 455 C 41.4777 -0.901691 -1.729 0
M  V30 456 O 40.7477 0.0573785 -1.95816 0
M  V30 457 H 39.3277 -0.705942 -0.244243 0
M  V30 458 H 41.9897 -1.94767 0.0719209 0
M  V30 459 H 41.0857 -2.91752 -1.10847 0
M  V30 460 N 41.3868 0.248026 -1.55636 0
M  V30 461 C 42.6148 0.993808 -1.81469 0
M  V30 462 C 43.0298 1.78991 -0.60064 0
M  V30 463 O 42.3868 1.77345 0.430682 0
M  V30 464 C 42.4378 1.93258 -3.05506 0
M  V30 465 O 42.1588 1.16869 -4.22224 0
M  V30 466 C 43.6598 2.79444 -3.4413 0
M  V30 467 H 40.8798 0.292486 -0.603898 0
M  V30 468 H 43.4238 0.271253 -2.02693 0
M  V30 469 H 41.5788 2.60943 -2.86335 0
M  V30 470 H 41.9928 1.80359 -4.92515 0
M  V30 471 H 43.4668 3.41066 -4.34026 0
M  V30 472 H 43.9438 3.50499 -2.64665 0
M  V30 473 H 44.5498 2.17214 -3.65648 0
M  V30 474 N 42.8649 1.48995 0.513639 0
M  V30 475 C 43.8119 1.6473 1.61656 0
M  V30 476 C 44.7819 0.488984 1.58739 0
M  V30 477 O 45.9669 0.714478 1.76918 0
M  V30 478 C 43.1069 1.7082 2.99858 0
M  V30 479 C 42.2199 2.9787 3.12885 0
M  V30 480 C 41.3549 2.95017 4.41744 0
M  V30 481 C 40.3939 4.16702 4.48359 0
M  V30 482 N 39.5309 4.11832 5.68629 0
M  V30 483 H 44.3709 2.58909 1.47547 0
M  V30 484 H 41.9079 1.28382 0.71808 0
M  V30 485 H 43.8659 1.72331 3.79944 0
M  V30 486 H 42.4959 0.801181 3.12699 0
M  V30 487 H 41.5479 3.06029 2.25944 0
M  V30 488 H 42.8599 3.8786 3.13633 0
M  V30 489 H 42.0139 2.95021 5.30139 0
M  V30 490 H 40.7529 2.02784 4.43542 0
M  V30 491 H 39.7579 4.16955 3.58369 0
M  V30 492 H 40.9829 5.10113 4.48287 0
M  V30 493 H 38.9289 3.22428 5.71293 0
M  V30 494 H 38.8459 4.95543 5.7094 0
M  V30 495 H 40.1139 4.1592 6.59266 0
M  V30 496 N 44.343 -0.763751 1.37857 0
M  V30 497 C 45.592 -1.51789 1.32827 0
M  V30 498 C 45.905 -1.95426 -0.0823719 0
M  V30 499 O 47.111 -2.70298 -0.255172 0
M  V30 500 C 45.567 -2.74133 2.33193 0
M  V30 501 C 45.175 -2.37562 3.79827 0
M  V30 502 C 46.919 -3.52054 2.37188 0
M  V30 503 C 44.826 -3.56456 4.71904 0
M  V30 504 H 43.756 -0.569896 0.493695 0
M  V30 505 H 46.407 -0.835822 1.63359 0
M  V30 506 H 44.789 -3.4427 1.9569 0
M  V30 507 H 45.963 -1.75157 4.26212 0
M  V30 508 H 44.278 -1.72798 3.78853 0
M  V30 509 H 46.875 -4.40437 3.03182 0
M  V30 510 H 47.218 -3.92486 1.38782 0
M  V30 511 H 47.751 -2.88921 2.7344 0
M  V30 512 H 44.49 -3.21099 5.71468 0
M  V30 513 H 44.01 -4.17938 4.30218 0
M  V30 514 H 45.689 -4.23168 4.89426 0
M  V30 515 N 45.8211 -1.22559 -0.990812 0
M  V30 516 C 46.7511 -1.0218 -2.09956 0
M  V30 517 C 47.7321 0.0579394 -1.70001 0
M  V30 518 O 48.9171 -0.104684 -1.93918 0
M  V30 519 C 46.0471 -0.601023 -3.4206 0
M  V30 520 C 45.0011 -1.62694 -3.95872 0
M  V30 521 C 44.3271 -1.06193 -5.24049 0
M  V30 522 C 45.6271 -3.01743 -4.2632 0
M  V30 523 H 47.3211 -1.94916 -2.27262 0
M  V30 524 H 44.8671 -0.938566 -1.09211 0
M  V30 525 H 46.8201 -0.445561 -4.19038 0
M  V30 526 H 45.5441 0.362005 -3.24588 0
M  V30 527 H 44.2031 -1.77021 -3.21028 0
M  V30 528 H 43.8511 -0.0901903 -5.02919 0
M  V30 529 H 43.5511 -1.74732 -5.61019 0
M  V30 530 H 45.0751 -0.918092 -6.03658 0
M  V30 531 H 46.4891 -2.90777 -4.94087 0
M  V30 532 H 44.8861 -3.67425 -4.74467 0
M  V30 533 H 45.9561 -3.51518 -3.34011 0
M  V30 534 N 47.2992 1.18797 -1.03562 0
M  V30 535 C 48.5292 1.92319 -0.754773 0
M  V30 536 C 48.9372 1.7612 0.691248 0
M  V30 537 O 48.2802 1.08491 1.48241 0
M  V30 538 C 48.3422 3.44284 -1.03484 0
M  V30 539 C 48.0062 3.84258 -2.47376 0
M  V30 540 C 49.0032 3.88459 -3.45537 0
M  V30 541 C 46.6882 4.15701 -2.81954 0
M  V30 542 C 48.6822 4.23545 -4.76328 0
M  V30 543 C 46.3692 4.50458 -4.12954 0
M  V30 544 C 47.3672 4.54356 -5.09951 0
M  V30 545 O 47.0552 4.88305 -6.38603 0
M  V30 546 H 46.7872 0.617527 -0.275021 0
M  V30 547 H 49.3412 1.51683 -1.38497 0
M  V30 548 H 47.5712 3.85135 -0.347513 0
M  V30 549 H 49.2602 3.99049 -0.7426 0
M  V30 550 H 50.0262 3.6431 -3.20162 0
M  V30 551 H 45.9052 4.11847 -2.0713 0
M  V30 552 H 49.4492 4.26502 -5.52035 0
M  V30 553 H 45.3462 4.74067 -4.38099 0
M  V30 554 H 46.1142 5.06227 -6.43177 0
M  V30 555 N 48.7773 0.814389 1.34928 0
M  V30 556 C 49.7093 0.187834 2.28429 0
M  V30 557 C 50.7223 -0.617374 1.5064 0
M  V30 558 O 51.9113 -0.448454 1.72775 0
M  V30 559 C 49.0113 -0.755962 3.30361 0
M  V30 560 C 48.1843 0.00456686 4.374 0
M  V30 561 C 47.2433 -0.858876 5.19143 0
M  V30 562 O 46.2693 -0.306968 5.68372 0
M  V30 563 N 47.4713 -2.17988 5.38016 0
M  V30 564 H 50.2363 0.991105 2.82838 0
M  V30 565 H 47.7973 0.670561 1.4736 0
M  V30 566 H 49.7893 -1.338 3.81942 0
M  V30 567 H 48.3593 -1.46001 2.7641 0
M  V30 568 H 47.5793 0.767865 3.86649 0
M  V30 569 H 48.8673 0.528422 5.06049 0
M  V30 570 H 48.2653 -2.65212 4.99679 0
M  V30 571 H 46.8223 -2.71098 5.92747 0
M  V30 572 N 50.2554 -1.46986 0.568584 0
M  V30 573 C 51.2034 -2.31858 -0.185649 0
M  V30 574 C 52.1974 -1.43624 -0.898249 0
M  V30 575 O 53.4034 -1.60327 -0.818242 0
M  V30 576 H 49.7784 -0.747866 -0.0787399 0
M  V30 577 H 51.7494 -2.93303 0.549191 0
M  V30 578 C 50.4984 -3.26513 -1.19519 0
M  V30 579 H 49.8214 -3.94377 -0.656285 0
M  V30 580 H 51.2614 -3.88707 -1.6936 0
M  V30 581 C 49.7204 -2.50847 -2.24894 0
M  V30 582 O 50.2504 -2.26119 -3.32014 0
M  V30 583 N 48.4564 -2.11656 -1.99124 0
M  V30 584 H 48.0034 -2.31966 -1.12024 0
M  V30 585 H 47.9614 -1.61347 -2.69842 0
M  V30 586 N 51.7335 -0.305618 -1.54608 0
M  V30 587 C 52.9615 0.304775 -2.04643 0
M  V30 588 C 53.3765 1.47167 -1.18268 0
M  V30 589 O 52.7335 1.81296 -0.209328 0
M  V30 590 C 52.7845 0.756564 -3.53495 0
M  V30 591 O 52.5055 -0.36389 -4.36586 0
M  V30 592 C 54.0065 1.43163 -4.19546 0
M  V30 593 H 51.2265 0.0655481 -0.667791 0
M  V30 594 H 53.7705 -0.446592 -1.99564 0
M  V30 595 H 51.9255 1.45794 -3.58919 0
M  V30 596 H 52.3395 -0.0113121 -5.24499 0
M  V30 597 H 53.8135 1.69886 -5.25207 0
M  V30 598 H 54.2905 2.37318 -3.69563 0
M  V30 599 H 54.8965 0.773307 -4.18211 0
M  V30 600 N 53.2116 1.57565 -0.0334293 0
M  V30 601 C 54.1216 2.13943 0.962572 0
M  V30 602 C 55.1376 1.09276 1.35406 0
M  V30 603 O 56.3136 1.41355 1.4346 0
M  V30 604 C 53.3786 2.65887 2.22497 0
M  V30 605 C 52.4396 3.85286 1.8935 0
M  V30 606 C 51.6726 4.34743 3.09571 0
M  V30 607 O 51.8956 3.83352 4.22371 0
M  V30 608 O 50.8296 5.26538 2.91618 0
M  V30 609 H 54.6556 2.99333 0.513169 0
M  V30 610 H 52.2406 1.4822 0.18743 0
M  V30 611 H 54.1226 2.99346 2.96598 0
M  V30 612 H 52.7976 1.83578 2.6661 0
M  V30 613 H 51.7046 3.56746 1.1262 0
M  V30 614 H 53.0376 4.68771 1.5005 0
M  V30 615 N 54.6897 -0.239769 1.55765 0
M  V30 616 C 55.6527 -1.28038 1.90103 0
M  V30 617 C 56.6527 -1.40723 0.778055 0
M  V30 618 O 57.8427 -1.39301 1.04599 0
M  V30 619 C 54.9747 -2.65702 2.13577 0
M  V30 620 H 56.1677 -0.988048 2.83157 0
M  V30 621 H 53.7207 -0.479382 1.48767 0
M  V30 622 H 54.4557 -3.00063 1.23015 0
M  V30 623 H 54.2407 -2.57875 2.95369 0
M  V30 624 H 55.7307 -3.40828 2.41301 0
M  V30 625 N 56.1678 -1.49265 -0.50573 0
M  V30 626 C 57.0978 -1.68495 -1.61653 0
M  V30 627 C 58.0788 -0.53366 -1.61512 0
M  V30 628 O 59.2638 -0.76897 -1.78327 0
M  V30 629 C 56.3938 -1.74709 -3.00157 0
M  V30 630 C 55.3478 -2.89581 -3.15162 0
M  V30 631 C 54.6738 -2.80903 -4.5497 0
M  V30 632 C 55.9738 -4.30578 -2.95634 0
M  V30 633 H 57.6678 -2.61493 -1.45814 0
M  V30 634 H 55.2138 -1.25838 -0.70005 0
M  V30 635 H 57.1668 -1.86748 -3.77761 0
M  V30 636 H 55.8908 -0.783067 -3.17074 0
M  V30 637 H 54.5498 -2.77136 -2.39982 0
M  V30 638 H 54.1978 -1.82419 -4.68756 0
M  V30 639 H 53.8978 -3.57999 -4.65951 0
M  V30 640 H 55.4218 -2.94944 -5.34641 0
M  V30 641 H 56.8358 -4.4373 -3.63011 0
M  V30 642 H 55.2328 -5.0886 -3.18091 0
M  V30 643 H 56.3028 -4.45352 -1.91806 0
M  V30 644 N 57.6459 0.756429 -1.3826 0
M  V30 645 C 58.5779 1.87971 -1.31147 0
M  V30 646 C 59.5909 1.61248 -0.224239 0
M  V30 647 O 60.7799 1.71881 -0.481581 0
M  V30 648 C 57.8799 3.23545 -1.00857 0
M  V30 649 C 57.0529 3.77794 -2.20432 0
M  V30 650 C 56.1119 4.91877 -1.86931 0
M  V30 651 O 55.1379 5.06659 -2.59395 0
M  V30 652 N 56.3399 5.74643 -0.822568 0
M  V30 653 H 59.1049 1.94585 -2.2794 0
M  V30 654 H 56.6659 0.936234 -1.32084 0
M  V30 655 H 58.6579 3.97403 -0.765021 0
M  V30 656 H 57.2279 3.12335 -0.128687 0
M  V30 657 H 56.4479 2.95534 -2.6087 0
M  V30 658 H 57.7359 4.10771 -3.00241 0
M  V30 659 H 57.1339 5.65266 -0.221575 0
M  V30 660 H 55.6909 6.48661 -0.638899 0
M  V30 661 N 59.124 1.23083 0.984299 0
M  V30 662 C 60.349 1.088 1.76571 0
M  V30 663 C 60.774 -0.356657 1.84688 0
M  V30 664 O 60.132 -1.25788 1.30565 0
M  V30 665 C 60.18 1.71371 3.17277 0
M  V30 666 O 59.284 0.973213 4.00752 0
M  V30 667 H 58.625 0.381599 0.543395 0
M  V30 668 H 61.155 1.63057 1.23587 0
M  V30 669 H 61.165 1.76449 3.67872 0
M  V30 670 H 59.84 2.76493 3.10684 0
M  V30 671 H 58.417 0.999078 3.59267 0
M  V30 672 N 60.6021 -1.18246 1.0419 0
M  V30 673 C 61.5491 -2.2192 0.634037 0
M  V30 674 C 62.5191 -1.62179 -0.358765 0
M  V30 675 O 63.7041 -1.89122 -0.252466 0
M  V30 676 C 60.8441 -3.451 0.00445535 0
M  V30 677 C 59.9571 -4.19174 1.04487 0
M  V30 678 C 59.0921 -5.29813 0.383676 0
M  V30 679 C 58.1311 -5.9566 1.4091 0
M  V30 680 N 57.2681 -6.97834 0.772784 0
M  V30 681 H 62.1081 -2.56164 1.52263 0
M  V30 682 H 59.6451 -1.25843 0.761701 0
M  V30 683 H 61.6031 -4.15485 -0.377919 0
M  V30 684 H 60.2331 -3.11472 -0.847652 0
M  V30 685 H 59.2851 -3.47604 1.54518 0
M  V30 686 H 60.5971 -4.64267 1.82368 0
M  V30 687 H 59.7511 -6.06677 -0.0528366 0
M  V30 688 H 58.4901 -4.85825 -0.427208 0
M  V30 689 H 57.4951 -5.17535 1.85574 0
M  V30 690 H 58.7201 -6.4173 2.22171 0
M  V30 691 H 56.6661 -6.55998 -0.0177708 0
M  V30 692 H 56.5831 -7.41186 1.48928 0
M  V30 693 H 57.8511 -7.78665 0.36071 0
M  V30 694 N 62.0802 -0.821533 -1.34494 0
M  V30 695 C 63.3272 -0.408946 -1.98328 0
M  V30 696 C 63.6552 1.02764 -1.65136 0
M  V30 697 O 62.9102 1.73026 -0.914349 0
M  V30 698 C 63.2092 -0.556512 -3.53041 0
M  V30 699 C 62.8752 -1.95861 -4.0614 0
M  V30 700 C 61.5372 -2.34217 -4.20352 0
M  V30 701 C 63.8892 -2.87523 -4.34718 0
M  V30 702 C 61.2172 -3.63572 -4.6047 0
M  V30 703 C 63.5692 -4.1634 -4.76281 0
M  V30 704 C 62.2332 -4.54675 -4.88699 0
M  V30 705 H 61.5032 -0.149644 -0.725732 0
M  V30 706 H 64.1502 -1.04521 -1.6046 0
M  V30 707 H 62.4552 0.163148 -3.9146 0
M  V30 708 H 64.1522 -0.217826 -4.00408 0
M  V30 709 H 60.7422 -1.65066 -3.95539 0
M  V30 710 H 64.9262 -2.59133 -4.23277 0
M  V30 711 H 60.1822 -3.93101 -4.68275 0
M  V30 712 H 64.3562 -4.87455 -4.97354 0
M  V30 713 H 61.9832 -5.54959 -5.19542 0
M  V30 714 N 63.5583 1.46682 -0.576371 0
M  V30 715 C 64.8053 2.02412 -0.0595339 0
M  V30 716 C 65.1333 1.44859 1.29793 0
M  V30 717 O 64.3883 0.601099 1.8624 0
M  V30 718 C 64.6873 3.57345 0.062886 0
M  V30 719 C 64.3533 4.33908 -1.22616 0
M  V30 720 C 63.0153 4.54544 -1.57933 0
M  V30 721 C 65.3673 4.77919 -2.07948 0
M  V30 722 C 62.6953 5.16444 -2.78393 0
M  V30 723 C 65.0473 5.41149 -3.27629 0
M  V30 724 C 63.7113 5.60014 -3.63236 0
M  V30 725 H 62.9813 0.74068 -0.021785 0
M  V30 726 H 65.6283 1.76128 -0.751735 0
M  V30 727 H 63.9333 3.82729 0.838178 0
M  V30 728 H 65.6303 3.98136 0.478439 0
M  V30 729 H 62.2203 4.18138 -0.941202 0
M  V30 730 H 66.4043 4.61738 -1.81967 0
M  V30 731 H 61.6603 5.29242 -3.06126 0
M  V30 732 H 65.8343 5.74211 -3.94023 0
M  V30 733 H 63.4613 6.07748 -4.56669 0
M  V30 734 N 65.0364 0.313813 1.54444 0
M  V30 735 C 66.2614 -0.296681 2.05267 0
M  V30 736 C 66.6864 -1.45757 1.18897 0
M  V30 737 O 66.0444 -1.80239 0.195886 0
M  V30 738 C 66.0924 -0.71831 3.53373 0
M  V30 739 O 65.1964 -1.82175 3.69981 0
M  V30 740 H 64.5374 -0.0554061 0.661684 0
M  V30 741 H 67.0674 0.459387 1.99376 0
M  V30 742 H 67.0774 -1.00364 3.95463 0
M  V30 743 H 65.7524 0.130821 4.15694 0
M  V30 744 H 64.3294 -1.53598 3.39797 0
M  V30 745 N 66.5145 -1.57545 0.0417849 0
M  V30 746 C 67.9255 -1.80011 -0.495259 0
M  V30 747 C 68.2765 -0.953199 -1.71489 0
M  V30 748 O 67.4015 -0.167138 -2.15754 0
M  V30 749 C 67.9965 -3.26482 -0.905265 0
M  V30 750 C 66.5555 -3.499 -1.38734 0
M  V30 751 C 65.7025 -2.74979 -0.358056 0
M  V30 752 H 68.6535 -1.56425 0.267736 0
M  V30 753 H 68.6745 -3.36887 -1.76882 0
M  V30 754 H 68.1865 -3.88096 -0.017401 0
M  V30 755 H 66.2875 -2.93553 -2.29471 0
M  V30 756 H 66.4005 -4.58615 -1.38598 0
M  V30 757 H 64.7645 -2.40834 -0.828912 0
M  V30 758 H 65.5475 -3.39315 0.521561 0
M  V30 759 N 67.9926 0.231505 -1.5589 0
M  V30 760 C 68.9226 1.29022 -1.94617 0
M  V30 761 C 69.9036 1.4941 -0.813067 0
M  V30 762 O 71.0886 1.6176 -1.07459 0
M  V30 763 C 68.2186 2.64199 -2.25424 0
M  V30 764 C 67.1726 2.58484 -3.41131 0
M  V30 765 C 66.4986 3.97599 -3.57518 0
M  V30 766 C 67.7986 2.1413 -4.76388 0
M  V30 767 H 69.4926 0.968563 -2.83301 0
M  V30 768 H 67.0386 0.464479 -1.36303 0
M  V30 769 H 68.9916 3.38413 -2.51107 0
M  V30 770 H 67.7156 2.98032 -1.33583 0
M  V30 771 H 66.3746 1.86727 -3.15481 0
M  V30 772 H 66.0226 4.28723 -2.6307 0
M  V30 773 H 65.7226 3.94659 -4.35337 0
M  V30 774 H 67.2466 4.7349 -3.85538 0
M  V30 775 H 68.6606 2.78083 -5.01341 0
M  V30 776 H 67.0576 2.2227 -5.57419 0
M  V30 777 H 68.1276 1.09331 -4.72414 0
M  V30 778 N 69.4707 1.49531 0.497807 0
M  V30 779 C 70.4027 1.62559 1.61578 0
M  V30 780 C 71.4157 0.508134 1.54667 0
M  V30 781 O 72.6047 0.780309 1.60541 0
M  V30 782 C 69.7047 1.56925 3.00379 0
M  V30 783 C 68.8777 2.84257 3.3244 0
M  V30 784 C 67.9367 2.71632 4.50669 0
M  V30 785 O 66.9627 3.4557 4.52294 0
M  V30 786 N 68.1647 1.83391 5.5077 0
M  V30 787 H 70.9297 2.58981 1.50828 0
M  V30 788 H 68.4907 1.4666 0.685743 0
M  V30 789 H 70.4827 1.46129 3.77397 0
M  V30 790 H 69.0527 0.683483 3.05037 0
M  V30 791 H 68.2727 3.09381 2.44289 0
M  V30 792 H 69.5607 3.68666 3.5066 0
M  V30 793 H 68.9587 1.22583 5.52259 0
M  V30 794 H 67.5157 1.78515 6.26878 0
M  V30 795 N 70.9488 -0.749086 1.3866 0
M  V30 796 C 71.8958 -1.86291 1.36251 0
M  V30 797 C 72.8658 -1.64578 0.224347 0
M  V30 798 O 74.0508 -1.86181 0.417279 0
M  V30 799 C 71.1908 -3.23644 1.19786 0
M  V30 800 C 70.3038 -3.57158 2.43027 0
M  V30 801 C 69.4388 -4.83838 2.19258 0
M  V30 802 C 68.4778 -5.10152 3.38247 0
M  V30 803 N 67.6148 -6.28029 3.13884 0
M  V30 804 H 72.4548 -1.87685 2.3147 0
M  V30 805 H 69.9918 -0.917287 1.14997 0
M  V30 806 H 71.9498 -4.0291 1.08254 0
M  V30 807 H 70.5798 -3.21566 0.282031 0
M  V30 808 H 69.6318 -2.72701 2.65214 0
M  V30 809 H 70.9438 -3.7253 3.31697 0
M  V30 810 H 70.0978 -5.71057 2.04888 0
M  V30 811 H 68.8368 -4.70614 1.2796 0
M  V30 812 H 67.8418 -4.21401 3.53131 0
M  V30 813 H 69.0668 -5.25271 4.30427 0
M  V30 814 H 67.0128 -6.1612 2.25238 0
M  V30 815 H 66.9298 -6.43922 3.96106 0
M  V30 816 H 68.1978 -7.18124 3.03179 0
M  V30 817 N 72.4269 -1.23603 -0.977757 0
M  V30 818 C 73.3899 -1.02069 -2.05218 0
M  V30 819 C 74.3899 0.0184305 -1.60789 0
M  V30 820 O 75.5799 -0.221569 -1.72785 0
M  V30 821 C 72.7119 -0.544926 -3.36517 0
M  V30 822 H 73.9049 -1.9742 -2.25755 0
M  V30 823 H 71.4579 -1.05684 -1.15155 0
M  V30 824 H 72.1929 0.412241 -3.21669 0
M  V30 825 H 71.9779 -1.2948 -3.70105 0
M  V30 826 H 73.4679 -0.414985 -4.15533 0
M  V30 827 N 73.905 1.17692 -1.04816 0
M  V30 828 C 74.838 2.20436 -0.590173 0
M  V30 829 C 75.816 1.58115 0.379244 0
M  V30 830 O 77 1.86228 0.291762 0
M  V30 831 C 74.127 3.38424 0.136817 0
M  V30 832 C 73.173 4.19176 -0.787023 0
M  V30 833 S 74.006 4.84815 -2.27409 0
M  V30 834 C 75.162 6.06195 -1.55817 0
M  V30 835 H 75.395 2.58944 -1.46067 0
M  V30 836 H 72.928 1.28246 -0.859784 0
M  V30 837 H 74.886 4.06798 0.550076 0
M  V30 838 H 73.547 2.98312 0.983299 0
M  V30 839 H 72.74 5.03499 -0.224681 0
M  V30 840 H 72.342 3.56219 -1.13947 0
M  V30 841 H 74.634 6.72078 -0.855387 0
M  V30 842 H 75.577 6.6695 -2.37873 0
M  V30 843 H 75.985 5.54701 -1.04722 0
M  V30 844 N 75.3831 0.828654 1.34056 0
M  V30 845 C 76.3131 0.269443 2.3194 0
M  V30 846 C 77.2941 -0.617247 1.58506 0
M  V30 847 O 78.4791 -0.542931 1.86456 0
M  V30 848 C 75.6091 -0.564793 3.42677 0
M  V30 849 C 74.5631 0.225241 4.27407 0
M  V30 850 C 73.8891 -0.7321 5.29664 0
M  V30 851 C 75.1891 1.43663 5.02154 0
M  V30 852 H 76.8831 1.08728 2.7896 0
M  V30 853 H 74.4291 0.524283 1.34117 0
M  V30 854 H 76.3821 -0.966233 4.10173 0
M  V30 855 H 75.1061 -1.41574 2.9432 0
M  V30 856 H 73.7651 0.608117 3.61521 0
M  V30 857 H 73.4131 -1.57916 4.77568 0
M  V30 858 H 73.1131 -0.20767 5.87233 0
M  V30 859 H 74.6371 -1.13128 6.00029 0
M  V30 860 H 76.0511 1.1089 5.62473 0
M  V30 861 H 74.4481 1.89711 5.69324 0
M  V30 862 H 75.5181 2.21181 4.31517 0
M  V30 863 N 76.8612 -1.46375 0.584142 0
M  V30 864 C 78.2722 -1.86031 0.157959 0
M  V30 865 C 78.6232 -1.48753 -1.27933 0
M  V30 866 O 77.7482 -0.903098 -1.96655 0
M  V30 867 C 78.3432 -3.37642 0.279892 0
M  V30 868 C 76.9022 -3.76289 -0.09143 0
M  V30 869 C 76.0492 -2.7039 0.615178 0
M  V30 870 H 79.0002 -1.37509 0.792274 0
M  V30 871 H 79.0212 -3.77275 -0.494364 0
M  V30 872 H 78.5332 -3.64742 1.32607 0
M  V30 873 H 76.6342 -3.54806 -1.13769 0
M  V30 874 H 76.7472 -4.78246 0.285886 0
M  V30 875 H 75.1112 -2.5464 0.0552833 0
M  V30 876 H 75.8942 -3.0033 1.66303 0
M  V30 877 N 78.3393 -0.321999 -1.54275 0
M  V30 878 C 79.7503 0.166384 -1.85957 0
M  V30 879 C 80.1013 1.51747 -1.24367 0
M  V30 880 O 79.2263 2.09317 -0.549124 0
M  V30 881 C 79.8213 0.308681 -3.37391 0
M  V30 882 C 78.3803 0.741286 -3.69028 0
M  V30 883 C 77.5273 -0.137937 -2.76957 0
M  V30 884 H 80.4783 -0.542335 -1.49146 0
M  V30 885 H 80.4993 1.13984 -3.63026 0
M  V30 886 H 80.0113 -0.674809 -3.82188 0
M  V30 887 H 78.1123 1.73458 -3.29762 0
M  V30 888 H 78.2253 0.546118 -4.75977 0
M  V30 889 H 76.5893 0.386251 -2.51754 0
M  V30 890 H 77.3723 -1.11816 -3.2458 0
M  V30 891 N 79.8174 1.5752 -0.0501392 0
M  V30 892 C 80.7654 2.12651 0.942459 0
M  V30 893 C 81.7594 1.05807 1.32292 0
M  V30 894 O 82.9654 1.24217 1.3027 0
M  V30 895 H 79.3404 0.679673 0.321789 0
M  V30 896 H 81.3114 2.94951 0.452356 0
M  V30 897 C 80.0604 2.68565 2.20836 0
M  V30 898 H 79.3834 3.50439 1.92439 0
M  V30 899 H 80.8234 3.10761 2.8845 0
M  V30 900 C 79.2824 1.62291 2.95234 0
M  V30 901 O 79.8124 1.03508 3.88135 0
M  V30 902 N 78.0184 1.33836 2.57946 0
M  V30 903 H 77.5654 1.81826 1.82475 0
M  V30 904 H 77.5234 0.629595 3.08032 0
M  V30 905 N 81.2955 -0.223234 1.56011 0
M  V30 906 C 82.5205 -0.968978 1.83373 0
M  V30 907 C 82.9455 -1.77227 0.630254 0
M  V30 908 O 82.3035 -1.76345 -0.420959 0
M  V30 909 C 82.3515 -1.86363 3.08709 0
M  V30 910 O 81.4555 -2.95873 2.87285 0
M  V30 911 H 80.7965 -0.274461 0.604622 0
M  V30 912 H 83.3265 -0.237056 2.03222 0
M  V30 913 H 83.3365 -2.27376 3.38768 0
M  V30 914 H 82.0115 -1.27319 3.95933 0
M  V30 915 H 80.5885 -2.58818 2.68454 0
M  V30 916 N 82.7736 -1.49793 -0.48987 0
M  V30 917 C 84.0206 -1.59841 -1.24327 0
M  V30 918 C 84.3486 -0.290135 -1.92324 0
M  V30 919 O 83.6036 0.722749 -1.81865 0
M  V30 920 C 83.9026 -2.71488 -2.32441 0
M  V30 921 C 83.5686 -4.12614 -1.81826 0
M  V30 922 C 82.2306 -4.51017 -1.67742 0
M  V30 923 C 84.5826 -5.00892 -1.4407 0
M  V30 924 C 81.9106 -5.75459 -1.14297 0
M  V30 925 C 84.2626 -6.25863 -0.920742 0
M  V30 926 C 82.9266 -6.63086 -0.766383 0
M  V30 927 H 82.1966 -0.584899 -0.454944 0
M  V30 928 H 84.8436 -1.83663 -0.542215 0
M  V30 929 H 83.1486 -2.4168 -3.0838 0
M  V30 930 H 84.8456 -2.76469 -2.90458 0
M  V30 931 H 81.4356 -3.82307 -1.93751 0
M  V30 932 H 85.6196 -4.7187 -1.53794 0
M  V30 933 H 80.8756 -6.02989 -1.01068 0
M  V30 934 H 85.0496 -6.9364 -0.619448 0
M  V30 935 H 82.6766 -7.59393 -0.350083 0
M  V30 936 N 84.2517 0.741722 -1.39055 0
M  V30 937 C 85.1837 1.8657 -1.33133 0
M  V30 938 C 86.1967 1.61001 -0.241329 0
M  V30 939 O 87.3857 1.7136 -0.499784 0
M  V30 940 C 84.4857 3.22457 -1.04283 0
M  V30 941 C 83.6587 3.75435 -2.24427 0
M  V30 942 C 82.7177 4.89867 -1.92138 0
M  V30 943 O 81.7437 5.03879 -2.64754 0
M  V30 944 N 82.9457 5.73738 -0.88347 0
M  V30 945 H 85.7107 1.92156 -2.29991 0
M  V30 946 H 83.2717 0.922172 -1.3307 0
M  V30 947 H 85.2637 3.9657 -0.807128 0
M  V30 948 H 83.8337 3.12181 -0.161807 0
M  V30 949 H 83.0537 2.92751 -2.6399 0
M  V30 950 H 84.3417 4.07563 -3.04581 0
M  V30 951 H 83.7397 5.64999 -0.281517 0
M  V30 952 H 82.2967 6.47947 -0.707662 0
M  V30 953 N 85.7298 1.2412 0.971189 0
M  V30 954 C 86.9778 1.07668 1.71032 0
M  V30 955 C 87.2988 -0.385797 1.91146 0
M  V30 956 O 86.5688 -1.27569 1.4867 0
M  V30 957 H 85.1488 0.395429 0.633755 0
M  V30 958 H 87.8108 1.55984 1.16855 0
M  V30 959 H 86.9068 1.57195 2.69622 0
M  V30 960 N 87.2079 -1.17134 1.05439 0
M  V30 961 C 88.1549 -2.21235 0.657539 0
M  V30 962 C 89.1249 -1.62551 -0.341543 0
M  V30 963 O 90.3099 -1.89379 -0.232393 0
M  V30 964 C 87.4499 -3.45076 0.0410575 0
M  V30 965 C 86.5629 -4.18042 1.08927 0
M  V30 966 C 85.6979 -5.29376 0.439848 0
M  V30 967 C 84.7369 -5.94132 1.4722 0
M  V30 968 N 83.8739 -6.96975 0.846756 0
M  V30 969 H 88.7139 -2.54534 1.54972 0
M  V30 970 H 86.2509 -1.25028 0.775006 0
M  V30 971 H 88.2089 -4.15862 -0.33383 0
M  V30 972 H 86.8389 -3.12353 -0.814568 0
M  V30 973 H 85.8909 -3.45945 1.58196 0
M  V30 974 H 87.2029 -4.62306 1.87282 0
M  V30 975 H 86.3569 -6.06699 0.0115125 0
M  V30 976 H 85.0959 -4.86251 -0.375656 0
M  V30 977 H 84.1009 -5.15538 1.91052 0
M  V30 978 H 85.3259 -6.39337 2.28965 0
M  V30 979 H 83.2719 -6.5598 0.0518075 0
M  V30 980 H 83.1889 -7.39565 1.5678 0
M  V30 981 H 84.4569 -7.78239 0.443277 0
M  V30 982 N 88.686 -0.835752 -1.33615 0
M  V30 983 C 89.932 -0.430596 -1.98176 0
M  V30 984 C 90.265 1.00684 -1.66061 0
M  V30 985 O 89.54 1.70339 -0.938877 0
M  V30 986 C 89.823 -0.648065 -3.5422 0
M  V30 987 C 89.676 -2.13255 -3.96033 0
M  V30 988 C 90.995 -0.0922113 -4.40003 0
M  V30 989 H 88.114 -0.157924 -0.719881 0
M  V30 990 H 90.756 -1.05069 -1.58305 0
M  V30 991 H 88.906 -0.120237 -3.88314 0
M  V30 992 H 90.578 -2.725 -3.72211 0
M  V30 993 H 88.821 -2.61823 -3.45878 0
M  V30 994 H 89.492 -2.23547 -5.04708 0
M  V30 995 H 91.968 -0.543343 -4.12537 0
M  V30 996 H 90.844 -0.274083 -5.48215 0
M  V30 997 H 91.105 1.00378 -4.30554 0
M  V30 998 N 90.1641 1.46063 -0.591896 0
M  V30 999 C 91.1271 2.28854 0.125973 0
M  V30 1000 C 92.1271 1.38903 0.810107 0
M  V30 1001 O 93.3171 1.61186 0.66066 0
M  V30 1002 C 90.4491 3.19526 1.1881 0
M  V30 1003 H 91.6421 2.93802 -0.601717 0
M  V30 1004 H 89.1951 1.52325 -0.350254 0
M  V30 1005 H 89.9301 2.59345 1.94707 0
M  V30 1006 H 89.7151 3.85766 0.701936 0
M  V30 1007 H 91.2051 3.81817 1.69132 0
M  V30 1008 N 91.6422 0.330177 1.54103 0
M  V30 1009 C 92.8892 -0.270405 2.00686 0
M  V30 1010 C 93.2172 -1.51621 1.21825 0
M  V30 1011 O 92.4722 -1.93536 0.29025 0
M  V30 1012 C 92.7712 -0.643134 3.51566 0
M  V30 1013 C 92.4372 0.504251 4.48072 0
M  V30 1014 C 91.0992 0.819163 4.74176 0
M  V30 1015 C 93.4512 1.27465 5.05373 0
M  V30 1016 C 90.7792 1.90708 5.5484 0
M  V30 1017 C 93.1312 2.35271 5.87223 0
M  V30 1018 C 91.7952 2.67336 6.11627 0
M  V30 1019 H 91.0652 -0.0989482 0.734364 0
M  V30 1020 H 93.7122 0.455324 1.86008 0
M  V30 1021 H 92.0172 -1.44938 3.64006 0
M  V30 1022 H 93.7142 -1.11949 3.85056 0
M  V30 1023 H 90.3042 0.248733 4.27878 0
M  V30 1024 H 94.4882 1.04462 4.85182 0
M  V30 1025 H 89.7442 2.15991 5.71977 0
M  V30 1026 H 93.9182 2.95405 6.30641 0
M  V30 1027 H 91.5452 3.51763 6.73919 0
M  V30 1028 N 93.1203 -1.57491 0.0584922 0
M  V30 1029 C 94.3693 -1.92155 -0.613146 0
M  V30 1030 C 94.6823 -0.939334 -1.71569 0
M  V30 1031 O 95.8883 -1.17829 -2.44599 0
M  V30 1032 C 94.3443 -3.41303 -1.14195 0
M  V30 1033 C 93.9523 -4.47944 -0.0711265 0
M  V30 1034 C 95.6963 -3.84988 -1.78841 0
M  V30 1035 C 93.6033 -5.88212 -0.613225 0
M  V30 1036 H 92.5333 -0.717162 -0.232796 0
M  V30 1037 H 95.1843 -1.83049 0.12857 0
M  V30 1038 H 93.5663 -3.45437 -1.93621 0
M  V30 1039 H 94.7403 -4.55408 0.702836 0
M  V30 1040 H 93.0553 -4.13644 0.478313 0
M  V30 1041 H 95.6523 -4.87159 -2.20408 0
M  V30 1042 H 95.9953 -3.21632 -2.64308 0
M  V30 1043 H 96.5283 -3.83401 -1.06059 0
M  V30 1044 H 93.2673 -6.55183 0.203978 0
M  V30 1045 H 92.7873 -5.84294 -1.35501 0
M  V30 1046 H 94.4663 -6.37687 -1.09383 0
M  V30 1047 N 94.5984 0.214957 -1.56127 0
M  V30 1048 C 95.8264 0.955092 -1.83536 0
M  V30 1049 C 96.2414 1.77677 -0.638472 0
M  V30 1050 O 95.5984 1.78219 0.392968 0
M  V30 1051 C 95.6494 1.86734 -3.09536 0
M  V30 1052 O 95.3704 1.07887 -4.24608 0
M  V30 1053 C 96.8714 2.72082 -3.4998 0
M  V30 1054 H 94.0914 0.279611 -0.609966 0
M  V30 1055 H 96.6354 0.228197 -2.03223 0
M  V30 1056 H 94.7904 2.5481 -2.91806 0
M  V30 1057 H 95.2044 1.69872 -4.9623 0
M  V30 1058 H 96.6784 3.31782 -4.41163 0
M  V30 1059 H 97.1554 3.44806 -2.7204 0
M  V30 1060 H 97.7614 2.09409 -3.70173 0
M  V30 1061 N 96.0765 1.50051 0.48192 0
M  V30 1062 C 97.3245 1.60181 1.23234 0
M  V30 1063 C 97.6455 0.299176 1.92691 0
M  V30 1064 O 96.9155 -0.682708 1.83619 0
M  V30 1065 H 95.4955 0.590232 0.457859 0
M  V30 1066 H 98.1575 1.86775 0.556881 0
M  V30 1067 H 97.2535 2.40753 1.98607 0
M  V30 1068 N 97.5546 -0.734337 1.39446 0
M  V30 1069 C 98.8026 -1.49096 1.36436 0
M  V30 1070 C 99.1236 -1.94961 -0.0388255 0
M  V30 1071 O 98.3936 -1.69033 -0.990191 0
M  V30 1072 H 96.9736 -0.5531 0.502085 0
M  V30 1073 H 99.6356 -0.871725 1.74319 0
M  V30 1074 H 98.7316 -2.37276 2.02747 0
M  V30 1075 N 99.0327 -1.24633 -0.964593 0
M  V30 1076 C 100.281 -1.08573 -1.70459 0
M  V30 1077 C 100.602 0.375655 -1.91347 0
M  V30 1078 O 99.8717 1.26779 -1.49345 0
M  V30 1079 H 98.4517 -0.398784 -0.631649 0
M  V30 1080 H 101.114 -1.56601 -1.16026 0
M  V30 1081 H 100.21 -1.58623 -2.68785 0
M  V30 1082 N 100.511 1.16574 -1.06058 0
M  V30 1083 C 101.739 1.90952 -0.796552 0
M  V30 1084 C 102.154 1.77302 0.648808 0
M  V30 1085 O 101.511 1.11605 1.44397 0
M  V30 1086 C 101.562 3.41736 -1.17894 0
M  V30 1087 O 101.283 3.54975 -2.56758 0
M  V30 1088 C 102.784 4.33169 -0.942308 0
M  V30 1089 H 100.004 0.605594 -0.288959 0
M  V30 1090 H 102.548 1.47777 -1.41358 0
M  V30 1091 H 100.703 3.82623 -0.606491 0
M  V30 1092 H 101.117 4.4846 -2.72 0
M  V30 1093 H 102.591 5.37439 -1.25952 0
M  V30 1094 H 103.068 4.3903 0.122078 0
M  V30 1095 H 103.674 3.98007 -1.49902 0
M  V30 1096 N 101.989 0.842826 1.3317 0
M  V30 1097 C 103.237 0.439577 1.97262 0
M  V30 1098 C 103.558 -1.00548 1.67078 0
M  V30 1099 O 102.828 -1.70098 0.971779 0
M  V30 1100 H 101.408 0.159558 0.72976 0
M  V30 1101 H 104.07 1.07665 1.62463 0
M  V30 1102 H 103.166 0.574886 3.0676 0
M  V30 1103 N 103.467 -1.45747 0.599634 0
M  V30 1104 C 104.397 -2.33235 -0.111306 0
M  V30 1105 C 105.378 -1.46359 -0.866781 0
M  V30 1106 O 106.563 -1.75146 -0.838904 0
M  V30 1107 C 103.693 -3.28932 -1.11451 0
M  V30 1108 C 102.647 -4.25381 -0.472772 0
M  V30 1109 C 101.973 -5.1071 -1.58365 0
M  V30 1110 C 103.273 -5.18831 0.600948 0
M  V30 1111 H 104.967 -2.92927 0.61919 0
M  V30 1112 H 102.513 -1.40857 0.299215 0
M  V30 1113 H 104.466 -3.89002 -1.62036 0
M  V30 1114 H 103.19 -2.67381 -1.8755 0
M  V30 1115 H 101.849 -3.66598 0.0121472 0
M  V30 1116 H 101.497 -4.45533 -2.33473 0
M  V30 1117 H 101.197 -5.7604 -1.15982 0
M  V30 1118 H 102.721 -5.73647 -2.09194 0
M  V30 1119 H 104.135 -5.73019 0.179491 0
M  V30 1120 H 102.532 -5.92595 0.946076 0
M  V30 1121 H 103.602 -4.6174 1.48068 0
M  V30 1122 N 104.945 -0.338344 -1.53925 0
M  V30 1123 C 106.193 0.259245 -2.0043 0
M  V30 1124 C 106.514 1.51484 -1.22791 0
M  V30 1125 O 105.784 1.93037 -0.33368 0
M  V30 1126 H 104.364 0.0987845 -0.740439 0
M  V30 1127 H 107.026 -0.458302 -1.89435 0
M  V30 1128 H 106.122 0.505334 -3.07982 0
M  V30 1129 N 106.423 1.57458 -0.0668435 0
M  V30 1130 C 107.37 2.12439 0.902122 0
M  V30 1131 C 108.34 1.03565 1.2986 0
M  V30 1132 O 109.525 1.312 1.38532 0
M  V30 1133 C 106.665 2.6865 2.16614 0
M  V30 1134 C 105.778 3.91663 1.82274 0
M  V30 1135 C 104.913 4.36134 3.0325 0
M  V30 1136 C 103.952 5.51808 2.64904 0
M  V30 1137 N 103.089 5.9126 3.78624 0
M  V30 1138 H 107.929 2.94934 0.426382 0
M  V30 1139 H 105.466 1.4575 0.198819 0
M  V30 1140 H 107.424 2.99346 2.90599 0
M  V30 1141 H 106.054 1.88928 2.61737 0
M  V30 1142 H 105.106 3.6746 0.983719 0
M  V30 1143 H 106.418 4.75693 1.50059 0
M  V30 1144 H 105.572 4.68465 3.85519 0
M  V30 1145 H 104.311 3.50948 3.38655 0
M  V30 1146 H 103.316 5.19133 1.81055 0
M  V30 1147 H 104.541 6.38722 2.30675 0
M  V30 1148 H 102.487 5.09024 4.138 0
M  V30 1149 H 102.404 6.70018 3.5016 0
M  V30 1150 H 103.672 6.28212 4.61486 0
M  V30 1151 N 107.901 -0.206675 1.56239 0
M  V30 1152 C 109.149 -0.927007 1.79586 0
M  V30 1153 C 109.47 -1.8427 0.637929 0
M  V30 1154 O 108.74 -1.92849 -0.344398 0
M  V30 1155 H 107.32 -0.345292 0.662407 0
M  V30 1156 H 109.982 -0.21496 1.93711 0
M  V30 1157 H 109.078 -1.52501 2.72305 0
M  V30 1158 N 109.379 -1.50304 -0.473955 0
M  V30 1159 C 110.312 -1.63595 -1.59097 0
M  V30 1160 C 111.29 -0.484142 -1.55225 0
M  V30 1161 O 112.474 -0.703271 -1.7489 0
M  V30 1162 C 109.601 -1.61589 -2.97669 0
M  V30 1163 C 108.647 -2.82295 -3.19705 0
M  V30 1164 S 109.48 -4.43635 -2.99913 0
M  V30 1165 C 110.636 -4.44317 -4.40832 0
M  V30 1166 H 110.869 -2.58082 -1.47583 0
M  V30 1167 H 108.402 -1.39531 -0.661087 0
M  V30 1168 H 110.36 -1.61116 -3.7756 0
M  V30 1169 H 109.021 -0.683421 -3.06575 0
M  V30 1170 H 108.214 -2.77188 -4.20931 0
M  V30 1171 H 107.816 -2.8032 -2.47582 0
M  V30 1172 H 110.108 -4.17703 -5.33414 0
M  V30 1173 H 111.051 -5.45911 -4.50984 0
M  V30 1174 H 111.459 -3.74059 -4.22777 0
M  V30 1175 N 110.857 0.726932 -1.39834 0
M  V30 1176 C 112.085 1.51613 -1.40787 0
M  V30 1177 C 112.5 1.88799 -0.00451505 0
M  V30 1178 O 111.857 1.54662 0.968809 0
M  V30 1179 C 111.908 2.79863 -2.28821 0
M  V30 1180 O 111.629 2.44253 -3.63692 0
M  V30 1181 C 113.13 3.73837 -2.38245 0
M  V30 1182 H 110.35 0.468264 -0.480593 0
M  V30 1183 H 112.894 0.897607 -1.83748 0
M  V30 1184 H 111.049 3.38027 -1.89252 0
M  V30 1185 H 111.463 3.26695 -4.1033 0
M  V30 1186 H 112.937 4.60699 -3.04073 0
M  V30 1187 H 113.414 4.16153 -1.40403 0
M  V30 1188 H 114.02 3.21589 -2.78317 0
M  V30 1189 N 112.336 1.25143 0.95797 0
M  V30 1190 C 113.564 1.12424 1.73691 0
M  V30 1191 C 113.979 -0.322304 1.86029 0
M  V30 1192 O 113.336 -1.22186 1.35561 0
M  V30 1193 C 113.387 1.76933 3.15241 0
M  V30 1194 O 113.108 3.15932 3.03511 0
M  V30 1195 C 114.609 1.6995 4.09429 0
M  V30 1196 H 111.829 0.3923 0.544373 0
M  V30 1197 H 114.373 1.6544 1.20207 0
M  V30 1198 H 112.528 1.27895 3.6568 0
M  V30 1199 H 112.942 3.47598 3.9278 0
M  V30 1200 H 114.416 2.19753 5.06372 0
M  V30 1201 H 114.893 0.662619 4.34173 0
M  V30 1202 H 115.499 2.18461 3.64904 0
M  V30 1203 N 113.814 -1.1601 1.06675 0
M  V30 1204 C 114.744 -2.22688 0.702307 0
M  V30 1205 C 115.725 -1.67306 -0.307032 0
M  V30 1206 O 116.91 -1.93352 -0.181305 0
M  V30 1207 C 114.04 -3.47178 0.092038 0
M  V30 1208 C 112.994 -4.15477 1.02777 0
M  V30 1209 C 112.32 -5.33963 0.28061 0
M  V30 1210 C 113.62 -4.66019 2.35846 0
M  V30 1211 H 115.314 -2.53429 1.59419 0
M  V30 1212 H 112.86 -1.21813 0.767961 0
M  V30 1213 H 114.813 -4.21037 -0.174814 0
M  V30 1214 H 113.537 -3.15749 -0.834877 0
M  V30 1215 H 112.196 -3.43549 1.27944 0
M  V30 1216 H 111.844 -4.98788 -0.649545 0
M  V30 1217 H 111.544 -5.806 0.904258 0
M  V30 1218 H 113.068 -6.10596 0.021396 0
M  V30 1219 H 114.482 -5.3144 2.15045 0
M  V30 1220 H 112.879 -5.23293 2.93743 0
M  V30 1221 H 113.949 -3.82023 2.98641 0
M  V30 1222 N 115.292 -0.849877 -1.32721 0
M  V30 1223 C 116.222 -0.306308 -2.31482 0
M  V30 1224 C 117.203 0.591952 -1.59468 0
M  V30 1225 O 118.388 0.513199 -1.87296 0
M  V30 1226 C 115.518 0.510204 -3.43532 0
M  V30 1227 C 114.472 -0.293209 -4.26994 0
M  V30 1228 C 113.798 0.647743 -5.30762 0
M  V30 1229 C 115.098 -1.51634 -4.99804 0
M  V30 1230 H 116.792 -1.13153 -2.77195 0
M  V30 1231 H 114.338 -0.545553 -1.33266 0
M  V30 1232 H 116.291 0.900856 -4.11658 0
M  V30 1233 H 115.015 1.36874 -2.96535 0
M  V30 1234 H 113.674 -0.665555 -3.60508 0
M  V30 1235 H 113.322 1.50299 -4.8002 0
M  V30 1236 H 113.022 0.11422 -5.87489 0
M  V30 1237 H 114.546 1.03567 -6.01753 0
M  V30 1238 H 115.96 -1.19824 -5.60638 0
M  V30 1239 H 114.357 -1.98745 -5.66234 0
M  V30 1240 H 115.427 -2.28018 -4.27943 0
M  V30 1241 N 116.77 1.45427 -0.607355 0
M  V30 1242 C 117.995 2.07124 -0.107006 0
M  V30 1243 C 118.42 1.44906 1.19933 0
M  V30 1244 O 117.778 0.541687 1.73019 0
M  V30 1245 C 117.826 3.60595 0.0194119 0
M  V30 1246 O 116.93 3.98285 1.0697 0
M  V30 1247 H 116.271 0.659868 -0.0739597 0
M  V30 1248 H 118.801 1.86683 -0.837297 0
M  V30 1249 H 118.811 4.07419 0.2177 0
M  V30 1250 H 117.486 4.05266 -0.934453 0
M  V30 1251 H 116.063 3.63133 0.847889 0
M  V30 1252 N 118.248 0.346503 1.53744 0
M  V30 1253 C 119.473 -0.253074 2.0585 0
M  V30 1254 C 119.898 -1.43202 1.21962 0
M  V30 1255 O 119.256 -1.79783 0.234073 0
M  V30 1256 C 119.304 -0.643193 3.54817 0
M  V30 1257 O 118.408 -1.74286 3.73762 0
M  V30 1258 H 117.749 -0.0413583 0.662711 0
M  V30 1259 H 120.279 0.501574 1.98357 0
M  V30 1260 H 120.289 -0.919526 3.97503 0
M  V30 1261 H 118.964 0.218966 4.15323 0
M  V30 1262 H 117.541 -1.46356 3.42979 0
M  V30 1263 N 119.726 -1.57421 0.075193 0
M  V30 1264 C 120.656 -2.15942 -0.888324 0
M  V30 1265 C 121.637 -1.08737 -1.30806 0
M  V30 1266 O 122.822 -1.36787 -1.37851 0
M  V30 1267 C 119.952 -2.72379 -2.1547 0
M  V30 1268 C 118.906 -3.8478 -1.87425 0
M  V30 1269 C 118.232 -4.27834 -3.20721 0
M  V30 1270 C 119.532 -5.08869 -1.17684 0
M  V30 1271 H 121.226 -2.96705 -0.400799 0
M  V30 1272 H 118.772 -1.42723 -0.191342 0
M  V30 1273 H 120.725 -3.11965 -2.83295 0
M  V30 1274 H 119.449 -1.88841 -2.6647 0
M  V30 1275 H 118.108 -3.45703 -1.22004 0
M  V30 1276 H 117.756 -3.41214 -3.6957 0
M  V30 1277 H 117.456 -5.03605 -3.02746 0
M  V30 1278 H 118.98 -4.70039 -3.89738 0
M  V30 1279 H 120.394 -5.4575 -1.75584 0
M  V30 1280 H 118.791 -5.8994 -1.09956 0
M  V30 1281 H 119.861 -4.84648 -0.156453 0
M  V30 1282 N 121.204 0.198386 -1.56346 0
M  V30 1283 C 122.452 0.91747 -1.80075 0
M  V30 1284 C 122.773 1.83929 -0.647692 0
M  V30 1285 O 122.043 1.93029 0.334166 0
M  V30 1286 H 120.623 0.341774 -0.664228 0
M  V30 1287 H 123.285 0.204684 -1.93822 0
M  V30 1288 H 122.381 1.51055 -2.7311 0
M  V30 1289 N 122.682 1.50554 0.465978 0
M  V30 1290 C 123.645 1.69233 1.54574 0
M  V30 1291 C 124.645 0.562901 1.50626 0
M  V30 1292 O 125.835 0.830016 1.53155 0
M  V30 1293 C 122.967 1.7223 2.94193 0
M  V30 1294 H 124.16 2.65571 1.39327 0
M  V30 1295 H 121.713 1.40111 0.692711 0
M  V30 1296 H 122.448 0.77603 3.14878 0
M  V30 1297 H 122.233 2.54285 2.98466 0
M  V30 1298 H 123.723 1.88618 3.72576 0
M  V30 1299 N 124.16 -0.719506 1.40217 0
M  V30 1300 C 125.092 -1.84428 1.36084 0
M  V30 1301 C 126.105 -1.60597 0.266913 0
M  V30 1302 O 127.294 -1.70544 0.526983 0
M  V30 1303 C 124.394 -3.20757 1.094 0
M  V30 1304 C 123.567 -3.71817 2.30372 0
M  V30 1305 C 122.626 -4.86748 1.99907 0
M  V30 1306 O 121.652 -4.99603 2.72737 0
M  V30 1307 N 122.854 -5.7226 0.974635 0
M  V30 1308 H 125.619 -1.88473 2.33019 0
M  V30 1309 H 123.18 -0.900885 1.3452 0
M  V30 1310 H 125.172 -3.95235 0.870116 0
M  V30 1311 H 123.742 -3.11884 0.211452 0
M  V30 1312 H 122.962 -2.88514 2.68614 0
M  V30 1313 H 124.25 -4.02666 3.11026 0
M  V30 1314 H 123.648 -5.6448 0.371368 0
M  V30 1315 H 122.205 -6.46739 0.810656 0
M  V30 1316 N 125.638 -1.25649 -0.95132 0
M  V30 1317 C 126.878 -1.11802 -1.71113 0
M  V30 1318 C 127.242 0.334758 -1.89059 0
M  V30 1319 O 128.443 0.595121 -2.62129 0
M  V30 1320 C 126.714 -1.85512 -3.05483 0
M  V30 1321 S 128.273 -1.87597 -3.96677 0
M  V30 1322 H 125.091 -0.399552 -0.588115 0
M  V30 1323 H 127.693 -1.59222 -1.1344 0
M  V30 1324 H 126.397 -2.90299 -2.90094 0
M  V30 1325 H 125.928 -1.38493 -3.68216 0
M  V30 1326 H 127.943 -0.955389 -4.86916 0
M  V30 1327 N 127.117 1.15442 -1.07289 0
M  V30 1328 C 128.363 1.86489 -0.796846 0
M  V30 1329 C 128.696 1.82078 0.675371 0
M  V30 1330 O 127.971 1.24346 1.4956 0
M  V30 1331 C 128.254 3.35626 -1.30489 0
M  V30 1332 C 128.107 3.48673 -2.84161 0
M  V30 1333 C 129.426 4.30357 -0.920907 0
M  V30 1334 H 126.545 0.677144 -0.290939 0
M  V30 1335 H 129.187 1.35633 -1.33056 0
M  V30 1336 H 127.337 3.79068 -0.850883 0
M  V30 1337 H 129.009 3.14099 -3.37846 0
M  V30 1338 H 127.252 2.90253 -3.22391 0
M  V30 1339 H 127.923 4.53453 -3.14777 0
M  V30 1340 H 130.399 3.94871 -1.3121 0
M  V30 1341 H 129.275 5.33193 -1.30372 0
M  V30 1342 H 129.536 4.4176 0.173226 0
M  V30 1343 N 128.595 0.856903 1.32268 0
M  V30 1344 C 129.844 0.457599 1.96441 0
M  V30 1345 C 130.157 -0.992426 1.68553 0
M  V30 1346 O 131.363 -1.49727 2.26482 0
M  V30 1347 C 129.819 0.767358 3.51624 0
M  V30 1348 C 129.427 2.23326 3.88367 0
M  V30 1349 C 131.171 0.435887 4.22256 0
M  V30 1350 C 129.078 2.48613 5.36606 0
M  V30 1351 H 128.008 0.167387 0.735185 0
M  V30 1352 H 130.659 1.048 1.5063 0
M  V30 1353 H 129.041 0.106367 3.95857 0
M  V30 1354 H 130.215 2.93623 3.55137 0
M  V30 1355 H 128.53 2.52948 3.30766 0
M  V30 1356 H 131.127 0.602202 5.31298 0
M  V30 1357 H 131.47 -0.622672 4.11617 0
M  V30 1358 H 132.003 1.05286 3.83614 0
M  V30 1359 H 128.742 3.53101 5.52268 0
M  V30 1360 H 128.262 1.82896 5.71235 0
M  V30 1361 H 129.941 2.32676 6.03714 0
M  V30 1362 N 130.073 -1.45103 0.615059 0
M  V30 1363 C 131.036 -2.29025 -0.0895485 0
M  V30 1364 C 132.036 -1.40174 -0.787906 0
M  V30 1365 O 133.226 -1.62217 -0.634933 0
M  V30 1366 C 130.358 -3.21376 -1.13711 0
M  V30 1367 H 131.551 -2.92807 0.648382 0
M  V30 1368 H 129.104 -1.51749 0.374444 0
M  V30 1369 H 129.839 -2.6241 -1.90556 0
M  V30 1370 H 129.624 -3.86834 -0.640475 0
M  V30 1371 H 131.114 -3.84459 -1.63036 0
M  V30 1372 N 131.551 -0.354651 -1.53558 0
M  V30 1373 C 132.776 0.242153 -2.05981 0
M  V30 1374 C 133.201 1.42553 -1.2272 0
M  V30 1375 O 132.559 1.79656 -0.243604 0
M  V30 1376 C 132.607 0.624367 -3.55154 0
M  V30 1377 O 131.711 1.72301 -3.74681 0
M  V30 1378 H 131.052 0.0378432 -0.662921 0
M  V30 1379 H 133.582 -0.512087 -1.98088 0
M  V30 1380 H 133.592 0.898433 -3.97985 0
M  V30 1381 H 132.267 -0.240989 -4.15201 0
M  V30 1382 H 130.844 1.44535 -3.4375 0
M  V30 1383 N 133.029 1.57378 -0.0835403 0
M  V30 1384 C 134.445 1.57246 0.273109 0
M  V30 1385 C 134.645 1.09385 1.69225 0
M  V30 1386 O 133.701 0.765051 2.40631 0
M  V30 1387 C 135.014 3.00614 0.0720628 0
M  V30 1388 C 136.562 3.12684 0.1407 0
M  V30 1389 C 137.037 4.57989 -0.0322094 0
M  V30 1390 N 138.528 4.63194 0.0230085 0
M  V30 1391 C 139.263 5.73335 -0.0861941 0
M  V30 1392 N 138.759 6.9235 -0.24958 0
M  V30 1393 N 140.552 5.62093 -0.0282886 0
M  V30 1394 H 132.703 1.86801 -1.0109 0
M  V30 1395 H 134.966 0.861687 -0.395222 0
M  V30 1396 H 134.672 3.39786 -0.907662 0
M  V30 1397 H 134.546 3.68193 0.81936 0
M  V30 1398 H 136.933 2.73391 1.11092 0
M  V30 1399 H 137.014 2.47719 -0.637896 0
M  V30 1400 H 136.658 4.97973 -0.999247 0
M  V30 1401 H 136.588 5.21 0.765937 0
M  V30 1402 H 139.079 3.77613 0.14722 0
M  V30 1403 H 139.392 7.72117 -0.324733 0
M  V30 1404 H 137.737 6.94415 -0.285097 0
M  V30 1405 H 140.928 4.67997 0.0981408 0
M  V30 1406 H 141.101 6.47895 -0.116845 0
M  V30 1407 N 134.507 -0.190092 1.56449 0
M  V30 1408 C 135.454 -1.23557 1.94942 0
M  V30 1409 C 136.424 -1.44972 0.810696 0
M  V30 1410 O 137.609 -1.58023 1.06927 0
M  V30 1411 C 134.749 -2.57416 2.2985 0
M  V30 1412 C 133.862 -2.43537 3.5681 0
M  V30 1413 C 132.997 -3.70134 3.81017 0
M  V30 1414 C 132.036 -3.51109 5.01387 0
M  V30 1415 N 131.173 -4.6973 5.21822 0
M  V30 1416 H 136.013 -0.900304 2.84075 0
M  V30 1417 H 133.55 -0.43318 1.40577 0
M  V30 1418 H 135.508 -3.35409 2.48106 0
M  V30 1419 H 134.138 -2.88975 1.43852 0
M  V30 1420 H 133.19 -1.56816 3.46573 0
M  V30 1421 H 134.502 -2.25415 4.4496 0
M  V30 1422 H 133.656 -4.56566 3.9954 0
M  V30 1423 H 132.395 -3.91215 2.91207 0
M  V30 1424 H 131.4 -2.63063 4.82782 0
M  V30 1425 H 132.625 -3.31468 5.9271 0
M  V30 1426 H 130.571 -4.91065 4.34961 0
M  V30 1427 H 130.488 -4.54452 6.0416 0
M  V30 1428 H 131.756 -5.57499 5.44808 0
M  V30 1429 N 135.985 -1.50799 -0.457987 0
M  V30 1430 C 136.918 -1.65273 -1.57353 0
M  V30 1431 C 137.896 -0.500578 -1.54703 0
M  V30 1432 O 139.08 -0.721781 -1.74134 0
M  V30 1433 C 136.207 -1.64737 -2.95938 0
M  V30 1434 C 135.253 -2.8567 -3.16693 0
M  V30 1435 S 136.086 -4.46791 -2.95191 0
M  V30 1436 C 137.242 -4.48968 -4.36095 0
M  V30 1437 H 137.475 -2.59633 -1.44838 0
M  V30 1438 H 135.008 -1.40225 -0.64625 0
M  V30 1439 H 136.966 -1.65112 -3.7583 0
M  V30 1440 H 135.627 -0.715899 -3.05833 0
M  V30 1441 H 134.82 -2.81637 -4.17967 0
M  V30 1442 H 134.422 -2.8293 -2.44594 0
M  V30 1443 H 136.714 -4.23337 -5.28954 0
M  V30 1444 H 137.657 -5.50664 -4.45168 0
M  V30 1445 H 138.065 -3.78522 -4.18786 0
M  V30 1446 N 137.463 0.71206 -1.40597 0
M  V30 1447 C 138.74 1.46536 -1.29563 0
M  V30 1448 C 139.12 2.10931 0.0844217 0
M  V30 1449 O 138.468 2.00418 1.0975 0
M  V30 1450 C 138.678 2.49821 -2.43701 0
M  V30 1451 C 140.026 3.15551 -2.841 0
M  V30 1452 O 141.05 2.60142 -2.4332 0
M  V30 1453 O 139.909 4.15867 -3.54566 0
M  V30 1454 H 137.003 0.651801 -0.509004 0
M  V30 1455 H 139.549 0.743935 -1.52524 0
M  V30 1456 H 138.321 2.00778 -3.35863 0
M  V30 1457 H 137.944 3.29495 -2.22528 0
M  V30 1458 N 138.941 1.26152 0.944643 0
M  V30 1459 C 140.187 1.11657 1.69294 0
M  V30 1460 C 140.52 -0.339926 1.91202 0
M  V30 1461 O 139.795 -1.24994 1.49019 0
M  V30 1462 C 140.078 1.88236 3.06984 0
M  V30 1463 C 139.931 3.41772 2.92424 0
M  V30 1464 C 141.25 1.67343 4.07043 0
M  V30 1465 H 138.369 0.407004 0.614424 0
M  V30 1466 H 141.011 1.55106 1.09737 0
M  V30 1467 H 139.161 1.51308 3.57824 0
M  V30 1468 H 140.833 3.88433 2.48832 0
M  V30 1469 H 139.076 3.68974 2.28124 0
M  V30 1470 H 139.747 3.90579 3.90067 0
M  V30 1471 H 142.223 1.99509 3.65151 0
M  V30 1472 H 141.099 2.23346 5.01406 0
M  V30 1473 H 141.36 0.617158 4.37771 0
M  V30 1474 N 140.419 -1.14872 1.07899 0
M  V30 1475 C 141.349 -2.2193 0.725887 0
M  V30 1476 C 142.33 -1.67622 -0.28927 0
M  V30 1477 O 143.515 -1.93533 -0.160787 0
M  V30 1478 C 140.645 -3.47061 0.128856 0
M  V30 1479 C 139.599 -4.14363 1.07178 0
M  V30 1480 C 138.925 -5.33636 0.337229 0
M  V30 1481 C 140.225 -4.63492 2.40775 0
M  V30 1482 H 141.919 -2.51724 1.62097 0
M  V30 1483 H 139.465 -1.20991 0.780838 0
M  V30 1484 H 141.418 -4.21199 -0.130147 0
M  V30 1485 H 140.142 -3.16617 -0.80134 0
M  V30 1486 H 138.801 -3.42173 1.3158 0
M  V30 1487 H 138.449 -4.99449 -0.596606 0
M  V30 1488 H 138.149 -5.79609 0.965788 0
M  V30 1489 H 139.673 -6.10539 0.0861567 0
M  V30 1490 H 141.087 -5.2913 2.20669 0
M  V30 1491 H 139.484 -5.20148 2.99276 0
M  V30 1492 H 140.554 -3.78834 3.02676 0
M  V30 1493 N 141.898 -0.863906 -1.31812 0
M  V30 1494 C 142.845 -0.313303 -2.28664 0
M  V30 1495 C 143.815 0.584868 -1.55462 0
M  V30 1496 O 145 0.517805 -1.83639 0
M  V30 1497 C 142.14 0.48441 -3.41683 0
M  V30 1498 C 141.253 -0.440594 -4.29747 0
M  V30 1499 C 140.388 0.370652 -5.29905 0
M  V30 1500 C 139.427 -0.551164 -6.09613 0
M  V30 1501 N 138.564 0.223462 -7.01744 0
M  V30 1502 H 143.404 -1.14444 -2.75148 0
M  V30 1503 H 140.941 -0.575769 -1.35364 0
M  V30 1504 H 142.899 0.962627 -4.05943 0
M  V30 1505 H 141.529 1.28029 -2.96325 0
M  V30 1506 H 140.581 -1.03724 -3.65986 0
M  V30 1507 H 141.893 -1.14767 -4.85417 0
M  V30 1508 H 141.047 0.911638 -5.99812 0
M  V30 1509 H 139.786 1.11105 -4.74876 0
M  V30 1510 H 138.791 -1.10396 -5.38603 0
M  V30 1511 H 140.016 -1.29032 -6.66729 0
M  V30 1512 H 137.962 0.946787 -6.49132 0
M  V30 1513 H 137.879 -0.424399 -7.54808 0
M  V30 1514 H 139.147 0.745876 -7.75923 0
M  V30 1515 N 143.376 1.44774 -0.622745 0
M  V30 1516 C 144.339 2.29069 0.0774015 0
M  V30 1517 C 145.339 1.4059 0.780461 0
M  V30 1518 O 146.529 1.62551 0.626322 0
M  V30 1519 C 143.661 3.21974 1.12006 0
M  V30 1520 H 144.854 2.92459 -0.663901 0
M  V30 1521 H 142.407 1.51548 -0.382486 0
M  V30 1522 H 143.142 2.63417 1.89162 0
M  V30 1523 H 142.927 3.87168 0.619951 0
M  V30 1524 H 144.417 3.85318 1.60995 0
M  V30 1525 N 144.854 0.36279 1.53368 0
M  V30 1526 C 146.082 -0.228613 2.05633 0
M  V30 1527 C 146.497 -1.42676 1.23649 0
M  V30 1528 O 145.854 -1.80394 0.27647 0
M  V30 1529 C 145.905 -0.624845 3.56059 0
M  V30 1530 O 145.626 0.525675 4.34935 0
M  V30 1531 C 147.127 -1.27493 4.24571 0
M  V30 1532 H 144.347 -0.0407183 0.669763 0
M  V30 1533 H 146.891 0.520352 1.97769 0
M  V30 1534 H 145.046 -1.32373 3.64083 0
M  V30 1535 H 145.46 0.205969 5.24095 0
M  V30 1536 H 146.934 -1.50277 5.31151 0
M  V30 1537 H 147.411 -2.23439 3.78116 0
M  V30 1538 H 148.017 -0.617558 4.20792 0
M  V30 1539 N 146.332 -1.57332 0.0918853 0
M  V30 1540 C 147.295 -2.12708 -0.85369 0
M  V30 1541 C 148.295 -1.05561 -1.213 0
M  V30 1542 O 149.485 -1.31461 -1.14296 0
M  V30 1543 C 146.617 -2.64503 -2.15061 0
M  V30 1544 H 147.81 -2.97573 -0.3729 0
M  V30 1545 H 145.363 -1.55509 -0.157072 0
M  V30 1546 H 146.098 -1.83149 -2.67632 0
M  V30 1547 H 145.883 -3.4284 -1.90272 0
M  V30 1548 H 147.373 -3.07351 -2.82711 0
M  V30 1549 N 147.81 0.181792 -1.56548 0
M  V30 1550 C 148.72 1.24538 -1.98815 0
M  V30 1551 C 149.736 1.49045 -0.897861 0
M  V30 1552 O 150.912 1.61399 -1.20467 0
M  V30 1553 C 147.977 2.56683 -2.33055 0
M  V30 1554 C 147.038 2.40131 -3.55859 0
M  V30 1555 C 146.271 3.65975 -3.88456 0
M  V30 1556 O 146.494 4.70711 -3.22161 0
M  V30 1557 O 145.428 3.6071 -4.81842 0
M  V30 1558 H 149.254 0.916647 -2.89536 0
M  V30 1559 H 146.839 0.387842 -1.44278 0
M  V30 1560 H 148.721 3.34655 -2.56094 0
M  V30 1561 H 147.396 2.89157 -1.45498 0
M  V30 1562 H 146.303 1.60226 -3.38051 0
M  V30 1563 H 147.636 2.12585 -4.43924 0
M  V30 1564 N 149.288 1.51039 0.449983 0
M  V30 1565 C 150.22 1.67617 1.56324 0
M  V30 1566 C 151.233 0.557083 1.52972 0
M  V30 1567 O 152.422 0.830989 1.57977 0
M  V30 1568 C 149.522 1.66402 2.95235 0
M  V30 1569 C 148.695 2.9469 3.23229 0
M  V30 1570 C 147.754 2.85832 4.41799 0
M  V30 1571 O 146.78 3.59785 4.41071 0
M  V30 1572 N 147.982 2.00821 5.44657 0
M  V30 1573 H 150.747 2.63648 1.42512 0
M  V30 1574 H 148.308 1.48767 0.638737 0
M  V30 1575 H 150.3 1.58062 3.72557 0
M  V30 1576 H 148.87 0.780182 3.02708 0
M  V30 1577 H 148.09 3.16996 2.34323 0
M  V30 1578 H 149.378 3.79636 3.38754 0
M  V30 1579 H 148.776 1.40091 5.48079 0
M  V30 1580 H 147.333 1.98368 6.20881 0
M  V30 1581 N 150.766 -0.704594 1.40972 0
M  V30 1582 C 152.015 -1.46018 1.39146 0
M  V30 1583 C 152.328 -1.956 0.000589254 0
M  V30 1584 O 153.534 -2.71137 -0.1403 0
M  V30 1585 C 151.99 -2.63996 2.4461 0
M  V30 1586 C 151.598 -2.21238 3.89561 0
M  V30 1587 C 153.342 -3.41677 2.51907 0
M  V30 1588 C 151.249 -3.3612 4.86598 0
M  V30 1589 H 150.179 -0.548444 0.517422 0
M  V30 1590 H 152.83 -0.765784 1.66757 0
M  V30 1591 H 151.212 -3.3566 2.10115 0
M  V30 1592 H 152.386 -1.56923 4.33257 0
M  V30 1593 H 150.701 -1.56574 3.85841 0
M  V30 1594 H 153.298 -4.27182 3.2159 0
M  V30 1595 H 153.641 -3.86247 1.55303 0
M  V30 1596 H 154.174 -2.77064 2.85448 0
M  V30 1597 H 150.913 -2.96572 5.84573 0
M  V30 1598 H 150.433 -3.99315 4.47557 0
M  V30 1599 H 152.112 -4.02029 5.06934 0
M  V30 1600 N 152.244 -1.26651 -0.937939 0
M  V30 1601 C 153.469 -1.15279 -1.72411 0
M  V30 1602 C 153.894 0.287866 -1.85884 0
M  V30 1603 O 153.252 1.20855 -1.35143 0
M  V30 1604 C 153.3 -1.83028 -3.10698 0
M  V30 1605 O 152.404 -1.12128 -3.96864 0
M  V30 1606 H 151.745 -0.401504 -0.528858 0
M  V30 1607 H 154.275 -1.67531 -1.1745 0
M  V30 1608 H 154.285 -1.89981 -3.6107 0
M  V30 1609 H 152.96 -2.87833 -3.00208 0
M  V30 1610 H 151.537 -1.13173 -3.55312 0
M  V30 1611 N 153.722 1.14298 -1.08507 0
M  V30 1612 C 154.947 1.8976 -0.837001 0
M  V30 1613 C 155.372 1.78097 0.605228 0
M  V30 1614 O 154.73 1.12188 1.4242 0
M  V30 1615 C 154.778 3.37685 -1.26495 0
M  V30 1616 O 153.882 4.10281 -0.417514 0
M  V30 1617 H 153.223 0.590365 -0.303917 0
M  V30 1618 H 155.753 1.44672 -1.44676 0
M  V30 1619 H 155.763 3.88501 -1.24625 0
M  V30 1620 H 154.438 3.45492 -2.31534 0
M  V30 1621 H 153.015 3.69536 -0.499722 0
M  V30 1622 N 155.201 0.870884 1.31352 0
M  V30 1623 C 156.133 0.28455 2.27427 0
M  V30 1624 C 157.146 -0.552927 1.53123 0
M  V30 1625 O 158.335 -0.374771 1.74521 0
M  V30 1626 C 155.435 -0.615164 3.3327 0
M  V30 1627 C 154.608 0.190079 4.36987 0
M  V30 1628 C 153.667 -0.637917 5.22319 0
M  V30 1629 O 152.693 -0.065626 5.69162 0
M  V30 1630 N 153.895 -1.94973 5.46778 0
M  V30 1631 H 156.66 1.11017 2.7838 0
M  V30 1632 H 154.221 0.732458 1.44384 0
M  V30 1633 H 156.213 -1.1748 3.87273 0
M  V30 1634 H 154.783 -1.34146 2.82354 0
M  V30 1635 H 154.003 0.931165 3.83044 0
M  V30 1636 H 155.291 0.742579 5.03352 0
M  V30 1637 H 154.689 -2.4378 5.10478 0
M  V30 1638 H 153.246 -2.45713 6.03712 0
M  V30 1639 N 156.679 -1.44442 0.630414 0
M  V30 1640 C 157.907 -2.06414 0.141671 0
M  V30 1641 C 158.322 -1.47105 -1.18345 0
M  V30 1642 O 157.679 -0.593662 -1.72574 0
M  V30 1643 C 157.73 -3.61494 0.0199784 0
M  V30 1644 O 157.451 -4.18594 1.29269 0
M  V30 1645 C 158.952 -4.40499 -0.497544 0
M  V30 1646 H 156.172 -0.666292 0.0793452 0
M  V30 1647 H 158.716 -1.85323 0.864614 0
M  V30 1648 H 156.871 -3.8185 -0.653402 0
M  V30 1649 H 157.285 -5.12026 1.13707 0
M  V30 1650 H 158.759 -5.49433 -0.531708 0
M  V30 1651 H 159.236 -4.11895 -1.52445 0
M  V30 1652 H 159.842 -4.25061 0.142562 0
M  V30 1653 N 158.157 -0.370918 -1.53173 0
M  V30 1654 C 159.405 0.216673 -2.00935 0
M  V30 1655 C 159.726 1.48845 -1.25977 0
M  V30 1656 O 158.996 1.92286 -0.374551 0
M  V30 1657 H 157.576 0.0830565 -0.742368 0
M  V30 1658 H 160.238 -0.49838 -1.8842 0
M  V30 1659 H 159.334 0.439893 -3.08984 0
M  V30 1660 N 159.635 1.57281 -0.100228 0
M  V30 1661 C 160.583 2.15542 0.874328 0
M  V30 1662 C 161.577 1.09962 1.28859 0
M  V30 1663 O 162.783 1.28298 1.26252 0
M  V30 1664 H 159.158 0.689567 0.300003 0
M  V30 1665 H 161.129 2.96241 0.35829 0
M  V30 1666 C 159.878 2.75454 2.1218 0
M  V30 1667 H 159.201 3.56384 1.81193 0
M  V30 1668 H 160.641 3.19781 2.78417 0
M  V30 1669 C 159.1 1.71602 2.89921 0
M  V30 1670 O 159.63 1.15804 3.84646 0
M  V30 1671 N 157.836 1.41975 2.53558 0
M  V30 1672 H 157.383 1.87539 1.76598 0
M  V30 1673 H 157.341 0.727274 3.05873 0
M  V30 1674 N 161.113 -0.173488 1.56642 0
M  V30 1675 C 162.06 -1.21482 1.96242 0
M  V30 1676 C 163.03 -1.44104 0.826027 0
M  V30 1677 O 164.215 -1.5688 1.08597 0
M  V30 1678 C 161.355 -2.54964 2.32567 0
M  V30 1679 C 160.468 -2.39739 3.59373 0
M  V30 1680 C 159.603 -3.66072 3.84921 0
M  V30 1681 C 158.642 -3.45771 5.05083 0
M  V30 1682 N 157.779 -4.64169 5.26775 0
M  V30 1683 H 162.619 -0.870123 2.85014 0
M  V30 1684 H 160.156 -0.418245 1.41029 0
M  V30 1685 H 162.114 -3.32758 2.5165 0
M  V30 1686 H 160.744 -2.87433 1.46908 0
M  V30 1687 H 159.796 -1.53131 3.48217 0
M  V30 1688 H 161.108 -2.20683 4.47326 0
M  V30 1689 H 160.262 -4.52303 4.0436 0
M  V30 1690 H 159.001 -3.88105 2.9534 0
M  V30 1691 H 158.006 -2.57927 4.85545 0
M  V30 1692 H 159.231 -3.25163 5.96193 0
M  V30 1693 H 157.177 -4.86425 4.40144 0
M  V30 1694 H 157.094 -4.48019 6.08946 0
M  V30 1695 H 158.362 -5.51689 5.5069 0
M  V30 1696 N 162.591 -1.51276 -0.441967 0
M  V30 1697 C 163.837 -1.63958 -1.19355 0
M  V30 1698 C 164.17 -0.352543 -1.90973 0
M  V30 1699 O 163.445 0.647627 -1.83401 0
M  V30 1700 C 163.728 -2.83979 -2.21422 0
M  V30 1701 C 163.581 -4.22646 -1.53918 0
M  V30 1702 C 164.9 -2.99521 -3.22451 0
M  V30 1703 H 162.019 -0.596709 -0.432559 0
M  V30 1704 H 164.661 -1.83748 -0.483398 0
M  V30 1705 H 162.811 -2.67237 -2.81987 0
M  V30 1706 H 164.483 -4.51045 -0.967256 0
M  V30 1707 H 162.726 -4.25558 -0.841615 0
M  V30 1708 H 163.397 -5.02609 -2.28229 0
M  V30 1709 H 165.873 -3.14944 -2.71937 0
M  V30 1710 H 164.749 -3.85072 -3.91166 0
M  V30 1711 H 165.01 -2.11391 -3.88287 0
M  V30 1712 N 164.069 0.697108 -1.41344 0
M  V30 1713 C 165.019 1.80313 -1.39539 0
M  V30 1714 C 166.003 1.58618 -0.270001 0
M  V30 1715 O 167.195 1.69477 -0.510551 0
M  V30 1716 C 164.324 3.18606 -1.27848 0
M  V30 1717 C 163.41 3.46001 -2.45244 0
M  V30 1718 N 163.801 3.44103 -3.70711 0
M  V30 1719 C 162.099 3.76542 -2.39023 0
M  V30 1720 C 162.8 3.7036 -4.48563 0
M  V30 1721 N 161.776 3.90027 -3.78655 0
M  V30 1722 H 165.578 1.77207 -2.34468 0
M  V30 1723 H 163.092 0.897031 -1.35378 0
M  V30 1724 H 165.089 3.97833 -1.24637 0
M  V30 1725 H 163.749 3.22925 -0.339032 0
M  V30 1726 H 164.76 3.2452 -4.03618 0
M  V30 1727 H 161.437 3.88241 -1.53542 0
M  V30 1728 H 162.827 3.75042 -5.57488 0
M  V30 1729 N 165.547 1.27147 0.931209 0
M  V30 1730 C 166.51 1.09615 2.01289 0
M  V30 1731 C 167.51 0.0412581 1.60747 0
M  V30 1732 O 168.7 0.285545 1.71844 0
M  V30 1733 C 165.832 0.669447 3.34262 0
M  V30 1734 H 167.025 2.05662 2.18273 0
M  V30 1735 H 164.578 1.09885 1.11153 0
M  V30 1736 H 165.313 -0.292572 3.22978 0
M  V30 1737 H 165.098 1.43127 3.65044 0
M  V30 1738 H 166.588 0.568921 4.13706 0
M  V30 1739 N 167.025 -1.13721 1.09112 0
M  V30 1740 C 168.274 -1.84275 0.82009 0
M  V30 1741 C 168.587 -1.84253 -0.656509 0
M  V30 1742 O 169.793 -2.50668 -1.04296 0
M  V30 1743 C 168.249 -3.30825 1.41714 0
M  V30 1744 C 167.857 -3.39244 2.92605 0
M  V30 1745 C 169.601 -4.06443 1.22492 0
M  V30 1746 C 167.508 -4.80047 3.45411 0
M  V30 1747 H 166.438 -0.690387 0.30312 0
M  V30 1748 H 169.089 -1.28146 1.31343 0
M  V30 1749 H 167.471 -3.86737 0.851498 0
M  V30 1750 H 168.645 -2.93344 3.55367 0
M  V30 1751 H 166.96 -2.77088 3.10823 0
M  V30 1752 H 169.557 -5.10387 1.59402 0
M  V30 1753 H 169.9 -4.15972 0.165299 0
M  V30 1754 H 170.433 -3.56852 1.75788 0
M  V30 1755 H 167.172 -4.75709 4.50978 0
M  V30 1756 H 166.692 -5.26455 2.87411 0
M  V30 1757 H 168.371 -5.48957 3.42425 0
M  V30 1758 N 168.503 -0.877838 -1.30888 0
M  V30 1759 C 169.435 -0.296607 -2.27273 0
M  V30 1760 C 170.448 0.544799 -1.53414 0
M  V30 1761 O 171.637 0.365511 -1.74718 0
M  V30 1762 C 168.737 0.597481 -3.33592 0
M  V30 1763 C 167.91 -0.213251 -4.3688 0
M  V30 1764 C 166.969 0.610208 -5.2265 0
M  V30 1765 O 165.995 0.035441 -5.69189 0
M  V30 1766 N 167.197 1.92071 -5.47804 0
M  V30 1767 H 169.962 -1.12492 -2.77787 0
M  V30 1768 H 167.523 -0.740105 -1.43993 0
M  V30 1769 H 169.515 1.15425 -3.87891 0
M  V30 1770 H 168.085 1.32647 -2.83061 0
M  V30 1771 H 167.305 -0.951466 -3.82545 0
M  V30 1772 H 168.593 -0.769262 -5.02951 0
M  V30 1773 H 167.991 2.4107 -5.11763 0
M  V30 1774 H 166.548 2.42508 -6.05007 0
M  V30 1775 N 169.982 1.44106 -0.638065 0
M  V30 1776 C 171.222 2.03858 -0.148733 0
M  V30 1777 C 171.586 1.49153 1.20903 0
M  V30 1778 O 172.787 2.00452 1.79088 0
M  V30 1779 C 171.058 3.57117 -0.142314 0
M  V30 1780 S 172.617 4.37897 0.281385 0
M  V30 1781 H 169.435 0.708069 -0.0644912 0
M  V30 1782 H 172.037 1.7639 -0.843009 0
M  V30 1783 H 170.741 3.94436 -1.13349 0
M  V30 1784 H 170.272 3.89205 0.572988 0
M  V30 1785 H 172.287 4.72218 1.52395 0
M  V30 1786 N 171.46 0.379036 1.52974 0
M  V30 1787 C 172.737 -0.263479 1.93817 0
M  V30 1788 C 173.117 -1.65244 1.31368 0
M  V30 1789 O 172.465 -2.23448 0.477856 0
M  V30 1790 C 172.675 -0.300166 3.47707 0
M  V30 1791 C 174.023 -0.534061 4.21228 0
M  V30 1792 O 175.047 -0.38081 3.54159 0
M  V30 1793 O 173.906 -0.833501 5.40106 0
M  V30 1794 H 171 -0.161149 0.811147 0
M  V30 1795 H 173.546 0.432798 1.64088 0
M  V30 1796 H 172.318 0.673138 3.85467 0
M  V30 1797 H 171.941 -1.04179 3.83709 0
M  V30 1798 N 172.938 -1.57226 0.108567 0
M  V30 1799 C 174.184 -1.95121 -0.552761 0
M  V30 1800 C 174.517 -0.991345 -1.66991 0
M  V30 1801 O 173.792 -0.0267211 -1.94482 0
M  V30 1802 C 174.075 -3.43039 -1.09528 0
M  V30 1803 C 173.928 -4.49797 0.0177332 0
M  V30 1804 C 175.247 -3.92567 -1.98945 0
M  V30 1805 H 172.366 -0.709496 -0.199461 0
M  V30 1806 H 175.008 -1.89126 0.182011 0
M  V30 1807 H 173.158 -3.48279 -1.72146 0
M  V30 1808 H 174.83 -4.56661 0.652584 0
M  V30 1809 H 173.073 -4.284 0.682309 0
M  V30 1810 H 173.744 -5.50528 -0.402919 0
M  V30 1811 H 176.22 -3.89565 -1.46214 0
M  V30 1812 H 175.096 -4.96605 -2.33827 0
M  V30 1813 H 175.357 -3.32648 -2.91201 0
M  V30 1814 N 174.416 0.165178 -1.56732 0
M  V30 1815 C 175.832 0.517174 -1.50988 0
M  V30 1816 C 176.032 1.84331 -0.813894 0
M  V30 1817 O 175.088 2.49672 -0.37682 0
M  V30 1818 C 176.401 0.544261 -2.95733 0
M  V30 1819 C 177.949 0.631039 -3.06573 0
M  V30 1820 C 178.424 0.68896 -4.52788 0
M  V30 1821 N 179.915 0.751683 -4.5706 0
M  V30 1822 C 180.65 0.817177 -5.67547 0
M  V30 1823 N 180.146 0.843129 -6.8765 0
M  V30 1824 N 181.939 0.856668 -5.55534 0
M  V30 1825 H 174.09 -0.704318 -2.00382 0
M  V30 1826 H 176.353 -0.254687 -0.913148 0
M  V30 1827 H 176.059 -0.361607 -3.49836 0
M  V30 1828 H 175.933 1.3886 -3.5071 0
M  V30 1829 H 178.32 1.52733 -2.52501 0
M  V30 1830 H 178.401 -0.240095 -2.54671 0
M  V30 1831 H 178.045 -0.2031 -5.07494 0
M  V30 1832 H 177.975 1.57633 -5.02454 0
M  V30 1833 H 180.466 0.739661 -3.70591 0
M  V30 1834 H 180.779 0.894448 -7.67606 0
M  V30 1835 H 179.124 0.811304 -6.90248 0
M  V30 1836 H 182.315 0.833437 -4.60621 0
M  V30 1837 H 182.488 0.904247 -6.4166 0
M  V30 1838 N 175.894 1.51508 0.433938 0
M  V30 1839 C 177.171 1.54888 1.19453 0
M  V30 1840 C 177.551 0.315154 2.08734 0
M  V30 1841 O 176.899 -0.699558 2.17528 0
M  V30 1842 C 177.109 2.86467 1.99342 0
M  V30 1843 C 178.457 3.38545 2.56267 0
M  V30 1844 O 179.481 2.88041 2.0955 0
M  V30 1845 O 178.34 4.26675 3.41483 0
M  V30 1846 H 175.434 0.622863 0.544032 0
M  V30 1847 H 177.98 1.63823 0.442732 0
M  V30 1848 H 176.752 3.67718 1.33788 0
M  V30 1849 H 176.375 2.8071 2.8158 0
M  V30 1850 N 177.372 -0.689602 1.41712 0
M  V30 1851 C 178.783 -1.26973 1.36875 0
M  V30 1852 C 179.134 -1.96124 0.054748 0
M  V30 1853 O 178.259 -1.99141 -0.84687 0
M  V30 1854 C 178.854 -2.30912 2.47922 0
M  V30 1855 C 177.413 -2.84486 2.46464 0
M  V30 1856 C 176.56 -1.58603 2.27465 0
M  V30 1857 H 179.511 -0.48396 1.51141 0
M  V30 1858 H 179.532 -3.12331 2.17323 0
M  V30 1859 H 179.044 -1.80554 3.43543 0
M  V30 1860 H 177.145 -3.39005 1.54617 0
M  V30 1861 H 177.258 -3.34511 3.42986 0
M  V30 1862 H 175.622 -1.84632 1.75451 0
M  V30 1863 H 176.405 -1.10233 3.25121 0
M  V30 1864 N 178.85 -1.27639 -0.924453 0
M  V30 1865 C 180.127 -1.04887 -1.651 0
M  V30 1866 C 180.507 0.415327 -2.06974 0
M  V30 1867 O 179.855 1.39923 -1.80648 0
M  V30 1868 C 180.065 -2.01348 -2.85061 0
M  V30 1869 C 181.413 -2.30899 -3.56329 0
M  V30 1870 O 182.437 -1.99348 -2.95193 0
M  V30 1871 O 181.296 -2.84699 -4.66485 0
M  V30 1872 H 178.39 -0.400083 -0.723784 0
M  V30 1873 H 180.936 -1.38916 -0.974703 0
M  V30 1874 H 179.708 -3.0008 -2.51133 0
M  V30 1875 H 179.331 -1.679 -3.6041 0
M  V30 1876 N 180.328 1.1314 -1.09713 0
M  V30 1877 C 181.261 2.17735 -0.683137 0
M  V30 1878 C 182.239 1.59582 0.311841 0
M  V30 1879 O 183.423 1.87298 0.212514 0
M  V30 1880 C 180.55 3.38699 -0.00684324 0
M  V30 1881 C 179.596 4.1546 -0.964102 0
M  V30 1882 S 180.429 4.74733 -2.47767 0
M  V30 1883 C 181.585 5.9904 -1.81387 0
M  V30 1884 H 181.818 2.52515 -1.56918 0
M  V30 1885 H 179.351 1.24484 -0.913404 0
M  V30 1886 H 181.309 4.08765 0.377044 0
M  V30 1887 H 179.97 3.02214 0.85589 0
M  V30 1888 H 179.163 5.02093 -0.43803 0
M  V30 1889 H 178.765 3.51066 -1.28953 0
M  V30 1890 H 181.057 6.67846 -1.13967 0
M  V30 1891 H 182 6.56261 -2.65947 0
M  V30 1892 H 182.408 5.4976 -1.28155 0
M  V30 1893 N 181.806 0.884767 1.30421 0
M  V30 1894 C 183.052 0.503851 1.96441 0
M  V30 1895 C 183.385 -0.944518 1.69684 0
M  V30 1896 O 182.66 -1.66737 1.00145 0
M  V30 1897 C 182.943 0.779085 3.51571 0
M  V30 1898 C 182.796 2.27807 3.87846 0
M  V30 1899 C 184.115 0.255452 4.39358 0
M  V30 1900 H 181.234 0.184533 0.713524 0
M  V30 1901 H 183.876 1.10872 1.54297 0
M  V30 1902 H 182.026 0.264274 3.876 0
M  V30 1903 H 183.698 2.86127 3.61841 0
M  V30 1904 H 181.941 2.74479 3.35922 0
M  V30 1905 H 182.612 2.42125 4.96064 0
M  V30 1906 H 185.088 0.696079 4.10236 0
M  V30 1907 H 183.964 0.477361 5.4682 0
M  V30 1908 H 184.225 -0.843293 4.33983 0
M  V30 1909 N 183.284 -1.43765 0.645699 0
M  V30 1910 C 184.216 -2.29027 -0.0890605 0
M  V30 1911 C 185.229 -1.42093 -0.794563 0
M  V30 1912 O 186.418 -1.66104 -0.653575 0
M  V30 1913 C 183.518 -3.18831 -1.14891 0
M  V30 1914 C 182.691 -4.34261 -0.523043 0
M  V30 1915 C 181.75 -5.04994 -1.47878 0
M  V30 1916 O 180.776 -5.6052 -0.990277 0
M  V30 1917 N 181.978 -5.07795 -2.81291 0
M  V30 1918 H 184.743 -2.92727 0.64272 0
M  V30 1919 H 182.304 -1.54373 0.487924 0
M  V30 1920 H 184.296 -3.63015 -1.78892 0
M  V30 1921 H 182.866 -2.56782 -1.78275 0
M  V30 1922 H 182.086 -3.93088 0.295896 0
M  V30 1923 H 183.374 -5.08728 -0.0858147 0
M  V30 1924 H 182.772 -4.64042 -3.23546 0
M  V30 1925 H 181.329 -5.55721 -3.40614 0
M  V30 1926 N 184.763 -0.387143 -1.52771 0
M  V30 1927 C 185.711 0.463953 -2.27926 0
M  V30 1928 C 186.705 1.06493 -1.31741 0
M  V30 1929 O 187.911 1.00565 -1.49287 0
M  V30 1930 H 184.286 0.16837 -0.732909 0
M  V30 1931 H 186.257 -0.19141 -2.97785 0
M  V30 1932 C 185.006 1.5803 -3.09713 0
M  V30 1933 H 184.329 1.12718 -3.83581 0
M  V30 1934 H 185.769 2.15008 -3.65442 0
M  V30 1935 C 184.228 2.53509 -2.2189 0
M  V30 1936 O 184.758 3.56863 -1.84422 0
M  V30 1937 N 182.964 2.23199 -1.86093 0
M  V30 1938 H 182.511 1.39185 -2.16761 0
M  V30 1939 H 182.469 2.87333 -1.27621 0
M  V30 1940 N 186.241 1.57166 -0.116904 0
M  V30 1941 C 187.469 1.99473 0.549383 0
M  V30 1942 C 187.884 0.996541 1.60357 0
M  V30 1943 O 187.241 -0.0108731 1.82497 0
M  V30 1944 C 187.292 3.41788 1.17741 0
M  V30 1945 O 187.013 4.37788 0.165362 0
M  V30 1946 C 188.514 3.99216 1.92722 0
M  V30 1947 H 185.734 0.655009 0.145616 0
M  V30 1948 H 188.278 2.03494 -0.202625 0
M  V30 1949 H 186.433 3.38713 1.88021 0
M  V30 1950 H 186.847 5.20806 0.621403 0
M  V30 1951 H 188.321 5.00882 2.31995 0
M  V30 1952 H 188.798 3.3824 2.80161 0
M  V30 1953 H 189.404 4.0583 1.27209 0
M  V30 1954 N 187.719 -0.156864 1.56817 0
M  V30 1955 C 188.965 -0.872416 1.83076 0
M  V30 1956 C 189.298 -1.81261 0.697001 0
M  V30 1957 O 188.573 -1.92171 -0.30008 0
M  V30 1958 C 188.856 -1.65551 3.19789 0
M  V30 1959 C 188.709 -0.737467 4.43713 0
M  V30 1960 C 190.028 -2.62012 3.53606 0
M  V30 1961 H 187.147 -0.315715 0.665953 0
M  V30 1962 H 189.789 -0.138004 1.89498 0
M  V30 1963 H 187.939 -2.28159 3.14445 0
M  V30 1964 H 189.611 -0.123143 4.61136 0
M  V30 1965 H 187.854 -0.0464067 4.33775 0
M  V30 1966 H 188.525 -1.32122 5.35955 0
M  V30 1967 H 191.001 -2.09525 3.59497 0
M  V30 1968 H 189.877 -3.13861 4.50314 0
M  V30 1969 H 190.138 -3.42902 2.79053 0
M  V30 1970 N 189.197 -1.51736 -0.425897 0
M  V30 1971 C 190.422 -1.69082 -1.20108 0
M  V30 1972 C 190.847 -0.392398 -1.83962 0
M  V30 1973 O 190.205 0.64858 -1.69302 0
M  V30 1974 C 190.253 -2.81604 -2.25237 0
M  V30 1975 O 189.357 -2.46004 -3.30992 0
M  V30 1976 H 188.698 -0.563408 -0.35138 0
M  V30 1977 H 191.228 -1.98358 -0.501512 0
M  V30 1978 H 191.238 -3.06025 -2.69838 0
M  V30 1979 H 189.913 -3.75817 -1.78142 0
M  V30 1980 H 188.49 -2.32195 -2.91787 0
M  V30 1981 N 190.675 0.682077 -1.42076 0
M  V30 1982 C 191.585 1.82535 -1.47371 0
M  V30 1983 C 192.601 1.7017 -0.363079 0
M  V30 1984 O 193.777 1.91848 -0.612875 0
M  V30 1985 C 190.842 3.18624 -1.36674 0
M  V30 1986 C 189.903 3.42999 -2.58167 0
M  V30 1987 C 189.136 4.72595 -2.4797 0
M  V30 1988 O 189.359 5.50006 -1.5116 0
M  V30 1989 O 188.293 4.98054 -3.37974 0
M  V30 1990 H 192.119 1.81023 -2.43853 0
M  V30 1991 H 189.704 0.836887 -1.2376 0
M  V30 1992 H 191.586 3.99847 -1.33043 0
M  V30 1993 H 190.261 3.20789 -0.433138 0
M  V30 1994 H 189.168 2.61653 -2.67373 0
M  V30 1995 H 190.501 3.45659 -3.50401 0
M  V30 1996 N 192.153 1.28127 0.917671 0
M  V30 1997 C 193.083 1.14248 2.03641 0
M  V30 1998 C 194.064 0.0412748 1.7005 0
M  V30 1999 O 195.249 0.217566 1.92977 0
M  V30 2000 C 192.379 0.799431 3.37974 0
M  V30 2001 C 191.333 1.85497 3.85713 0
M  V30 2002 C 190.659 1.36565 5.16966 0
M  V30 2003 C 191.959 3.26085 4.08002 0
M  V30 2004 H 193.653 2.07835 2.15511 0
M  V30 2005 H 191.199 1.00064 1.03553 0
M  V30 2006 H 193.152 0.689114 4.15727 0
M  V30 2007 H 191.876 -0.172145 3.26146 0
M  V30 2008 H 190.535 1.95437 3.10161 0
M  V30 2009 H 190.183 0.383253 5.01538 0
M  V30 2010 H 189.883 2.07143 5.49878 0
M  V30 2011 H 191.407 1.26848 5.97279 0
M  V30 2012 H 192.821 3.19089 4.76293 0
M  V30 2013 H 191.218 3.94462 4.52238 0
M  V30 2014 H 192.288 3.70394 3.12948 0
M  V30 2015 N 193.631 -1.12557 1.10312 0
M  V30 2016 C 194.88 -1.83395 0.839588 0
M  V30 2017 C 195.193 -1.84939 -0.636929 0
M  V30 2018 O 196.399 -2.51761 -1.01631 0
M  V30 2019 C 194.855 -3.29303 1.45215 0
M  V30 2020 C 194.463 -3.36122 2.96186 0
M  V30 2021 C 196.207 -4.05121 1.26796 0
M  V30 2022 C 194.114 -4.76357 3.50483 0
M  V30 2023 H 193.044 -0.687133 0.310425 0
M  V30 2024 H 195.695 -1.26746 1.32694 0
M  V30 2025 H 194.077 -3.85812 0.892469 0
M  V30 2026 H 195.251 -2.89559 3.58458 0
M  V30 2027 H 193.566 -2.73776 3.13745 0
M  V30 2028 H 196.163 -5.08668 1.64806 0
M  V30 2029 H 196.506 -4.15773 0.209409 0
M  V30 2030 H 197.039 -3.54967 1.79563 0
M  V30 2031 H 193.778 -4.70899 4.55998 0
M  V30 2032 H 193.298 -5.23377 2.92978 0
M  V30 2033 H 194.977 -5.45294 3.48228 0
M  V30 2034 N 195.109 -0.891671 -1.2995 0
M  V30 2035 C 196.056 -0.361736 -2.27948 0
M  V30 2036 C 197.026 0.551761 -1.56668 0
M  V30 2037 O 198.211 0.478736 -1.84696 0
M  V30 2038 C 195.351 0.411825 -3.42634 0
M  V30 2039 C 194.464 -0.531651 -4.28716 0
M  V30 2040 C 193.599 0.258167 -5.30572 0
M  V30 2041 C 192.638 -0.680349 -6.08307 0
M  V30 2042 N 191.775 0.0745613 -7.0206 0
M  V30 2043 H 196.615 -1.20254 -2.72659 0
M  V30 2044 H 194.152 -0.604352 -1.34112 0
M  V30 2045 H 196.11 0.876304 -4.07893 0
M  V30 2046 H 194.74 1.21715 -2.98974 0
M  V30 2047 H 193.792 -1.11463 -3.63703 0
M  V30 2048 H 195.104 -1.25038 -4.82874 0
M  V30 2049 H 194.258 0.784204 -6.0161 0
M  V30 2050 H 192.997 1.01008 -4.77126 0
M  V30 2051 H 192.002 -1.21796 -5.3614 0
M  V30 2052 H 193.227 -1.43145 -6.63842 0
M  V30 2053 H 191.173 0.808883 -6.50994 0
M  V30 2054 H 191.09 -0.584409 -7.53738 0
M  V30 2055 H 192.358 0.581123 -7.77331 0
M  V30 2056 N 196.587 1.43421 -0.653314 0
M  V30 2057 C 197.833 2.02111 -0.166992 0
M  V30 2058 C 198.166 1.51423 1.21592 0
M  V30 2059 O 197.441 0.707389 1.8118 0
M  V30 2060 C 197.724 3.5966 -0.177948 0
M  V30 2061 C 197.577 4.20579 -1.59478 0
M  V30 2062 C 198.896 4.37413 0.4856 0
M  V30 2063 H 196.015 0.734374 -0.0621557 0
M  V30 2064 H 198.657 1.70717 -0.834016 0
M  V30 2065 H 196.807 3.86537 0.390032 0
M  V30 2066 H 198.479 4.04732 -2.21336 0
M  V30 2067 H 196.722 3.77226 -2.14204 0
M  V30 2068 H 197.393 5.29665 -1.5543 0
M  V30 2069 H 199.869 4.161 0.00234528 0
M  V30 2070 H 198.745 5.47075 0.447207 0
M  V30 2071 H 199.006 4.13672 1.55974 0
M  V30 2072 N 198.065 0.39524 1.52563 0
M  V30 2073 C 199.028 -0.425001 2.25225 0
M  V30 2074 C 200.028 -0.985266 1.27079 0
M  V30 2075 O 201.218 -0.866332 1.5113 0
M  V30 2076 C 198.35 -1.59686 3.01186 0
M  V30 2077 H 199.543 0.211233 2.99155 0
M  V30 2078 H 197.096 0.147472 1.55603 0
M  V30 2079 H 197.831 -2.27035 2.31572 0
M  V30 2080 H 197.616 -1.20176 3.73229 0
M  V30 2081 H 199.106 -2.17743 3.5634 0
M  V30 2082 N 199.544 -1.57102 0.125237 0
M  V30 2083 C 200.792 -1.95021 -0.530198 0
M  V30 2084 C 201.113 -1.00982 -1.66816 0
M  V30 2085 O 200.383 -0.0672693 -1.95784 0
M  V30 2086 H 198.963 -0.720046 -0.198853 0
M  V30 2087 H 201.625 -1.93916 0.19564 0
M  V30 2088 H 200.721 -2.98211 -0.920681 0
M  V30 2089 N 201.022 0.148545 -1.56898 0
M  V30 2090 C 201.972 1.1886 -1.94567 0
M  V30 2091 C 202.956 1.3863 -0.816735 0
M  V30 2092 O 204.148 1.40218 -1.08018 0
M  V30 2093 C 201.277 2.52262 -2.32849 0
M  V30 2094 C 200.363 2.36092 -3.52309 0
M  V30 2095 N 200.754 1.89674 -4.6889 0
M  V30 2096 C 199.052 2.66848 -3.57363 0
M  V30 2097 C 199.753 1.86511 -5.50989 0
M  V30 2098 N 198.729 2.29766 -4.92655 0
M  V30 2099 H 202.531 0.821793 -2.82177 0
M  V30 2100 H 200.045 0.356615 -1.58436 0
M  V30 2101 H 202.042 3.27447 -2.58039 0
M  V30 2102 H 200.702 2.89727 -1.46589 0
M  V30 2103 H 201.713 1.59663 -4.92674 0
M  V30 2104 H 198.39 3.08198 -2.81639 0
M  V30 2105 H 199.78 1.52128 -6.54452 0
M  V30 2106 N 202.5 1.5196 0.417844 0
M  V30 2107 C 203.911 1.57851 0.997 0
M  V30 2108 C 204.262 0.413714 1.91789 0
M  V30 2109 O 203.387 -0.467057 2.113 0
M  V30 2110 C 203.982 2.86085 1.81496 0
M  V30 2111 C 202.541 2.94483 2.34428 0
M  V30 2112 C 201.688 2.52707 1.14169 0
M  V30 2113 H 204.639 1.57455 0.198392 0
M  V30 2114 H 204.66 2.70947 2.67148 0
M  V30 2115 H 204.172 3.70842 1.14446 0
M  V30 2116 H 202.273 2.142 3.04875 0
M  V30 2117 H 202.386 3.98546 2.65891 0
M  V30 2118 H 200.75 2.06353 1.49301 0
M  V30 2119 H 201.533 3.39828 0.486999 0
M  V30 2120 N 203.978 -0.674533 1.42435 0
M  V30 2121 C 204.926 -1.80934 1.46169 0
M  V30 2122 C 205.92 -1.66006 0.3374 0
M  V30 2123 O 207.126 -1.72611 0.510425 0
M  V30 2124 H 203.501 -0.596594 0.457798 0
M  V30 2125 H 205.472 -1.74903 2.41767 0
M  V30 2126 C 204.221 -3.19088 1.38123 0
M  V30 2127 H 203.544 -3.31203 2.23931 0
M  V30 2128 H 204.984 -3.9851 1.44797 0
M  V30 2129 C 203.443 -3.36763 0.0960517 0
M  V30 2130 O 203.973 -3.92581 -0.851073 0
M  V30 2131 N 202.179 -2.90597 0.0131186 0
M  V30 2132 H 201.726 -2.45359 0.784639 0
M  V30 2133 H 201.684 -3.028 -0.846133 0
M  V30 2134 N 205.456 -1.28612 -0.910864 0
M  V30 2135 C 206.705 -1.15311 -1.65488 0
M  V30 2136 C 207.018 0.296999 -1.93332 0
M  V30 2137 O 208.224 0.551168 -2.65847 0
M  V30 2138 C 206.68 -2.01599 -2.98137 0
M  V30 2139 C 206.288 -3.51367 -2.7793 0
M  V30 2140 C 208.032 -1.96993 -3.76024 0
M  V30 2141 C 205.939 -4.29797 -4.06237 0
M  V30 2142 H 204.869 -0.42796 -0.620779 0
M  V30 2143 H 207.52 -1.53166 -1.01057 0
M  V30 2144 H 205.902 -1.56603 -3.63719 0
M  V30 2145 H 207.076 -4.0434 -2.21011 0
M  V30 2146 H 205.391 -3.57529 -2.13452 0
M  V30 2147 H 207.988 -2.52856 -4.71135 0
M  V30 2148 H 208.331 -0.94733 -4.05378 0
M  V30 2149 H 208.864 -2.39973 -3.17266 0
M  V30 2150 H 205.603 -5.32648 -3.82055 0
M  V30 2151 H 205.123 -3.81596 -4.62757 0
M  V30 2152 H 206.802 -4.39869 -4.74473 0
M  V30 2153 N 206.934 1.1197 -1.10907 0
M  V30 2154 C 208.18 1.8386 -0.855773 0
M  V30 2155 C 208.513 1.84134 0.617103 0
M  V30 2156 O 207.788 1.29041 1.45529 0
M  V30 2157 C 208.071 3.31305 -1.411 0
M  V30 2158 C 207.924 3.39456 -2.9511 0
M  V30 2159 C 209.243 4.2721 -1.05736 0
M  V30 2160 H 206.362 0.667545 -0.312334 0
M  V30 2161 H 209.004 1.31331 -1.37303 0
M  V30 2162 H 207.154 3.76169 -0.97105 0
M  V30 2163 H 208.826 3.03191 -3.47668 0
M  V30 2164 H 207.069 2.79849 -3.31462 0
M  V30 2165 H 207.74 4.43209 -3.29044 0
M  V30 2166 H 210.216 3.90497 -1.43706 0
M  V30 2167 H 209.092 5.28775 -1.47269 0
M  V30 2168 H 209.353 4.42088 0.0325958 0
M  V30 2169 N 208.412 0.89855 1.29475 0
M  V30 2170 C 209.661 0.519863 1.94885 0
M  V30 2171 C 209.974 -0.9383 1.71625 0
M  V30 2172 O 211.18 -1.42445 2.31131 0
M  V30 2173 C 209.636 0.878836 3.49005 0
M  V30 2174 C 209.244 2.35569 3.81066 0
M  V30 2175 C 210.988 0.570004 4.20656 0
M  V30 2176 C 208.895 2.65558 5.28425 0
M  V30 2177 H 207.825 0.190692 0.729488 0
M  V30 2178 H 210.476 1.09539 1.47219 0
M  V30 2179 H 208.858 0.232253 3.95318 0
M  V30 2180 H 210.032 3.04773 3.45616 0
M  V30 2181 H 208.347 2.63343 3.22552 0
M  V30 2182 H 210.944 0.770925 5.29113 0
M  V30 2183 H 211.287 -0.491404 4.1339 0
M  V30 2184 H 211.82 1.17438 3.8007 0
M  V30 2185 H 208.559 3.70493 5.40754 0
M  V30 2186 H 208.079 2.00977 5.65127 0
M  V30 2187 H 209.758 2.51765 5.96006 0
M  V30 2188 N 209.89 -1.43072 0.660911 0
M  V30 2189 C 210.838 -2.32569 -0.0378199 0
M  V30 2190 C 211.832 -1.49046 -0.805092 0
M  V30 2191 O 213.038 -1.65206 -0.714624 0
M  V30 2192 H 209.413 -0.75136 -0.031019 0
M  V30 2193 H 211.384 -2.89216 0.734609 0
M  V30 2194 C 210.133 -3.33453 -0.985124 0
M  V30 2195 H 209.456 -3.97752 -0.404147 0
M  V30 2196 H 210.896 -3.98691 -1.44297 0
M  V30 2197 C 209.355 -2.64642 -2.08486 0
M  V30 2198 O 209.885 -2.46776 -3.16961 0
M  V30 2199 N 208.091 -2.23891 -1.8526 0
M  V30 2200 H 207.638 -2.38621 -0.970449 0
M  V30 2201 H 207.596 -1.78181 -2.59034 0
M  V30 2202 N 211.368 -0.403325 -1.52352 0
M  V30 2203 C 212.316 0.439752 -2.28405 0
M  V30 2204 C 213.31 1.05089 -1.32863 0
M  V30 2205 O 214.516 0.989759 -1.50345 0
M  V30 2206 H 210.891 0.160587 -0.734653 0
M  V30 2207 H 212.862 -0.222983 -2.97566 0
M  V30 2208 C 211.611 1.54736 -3.11371 0
M  V30 2209 H 210.934 1.08643 -3.84755 0
M  V30 2210 H 212.374 2.1112 -3.67701 0
M  V30 2211 C 210.833 2.51141 -2.24566 0
M  V30 2212 O 211.363 3.54887 -1.88196 0
M  V30 2213 N 209.569 2.21213 -1.8845 0
M  V30 2214 H 209.116 1.36878 -2.18225 0
M  V30 2215 H 209.074 2.85963 -1.30662 0
M  V30 2216 N 212.846 1.57033 -0.133567 0
M  V30 2217 C 213.809 2.14897 0.796995 0
M  V30 2218 C 214.809 1.0874 1.18458 0
M  V30 2219 O 215.999 1.34446 1.1077 0
M  V30 2220 C 213.131 2.70112 2.07973 0
M  V30 2221 H 214.324 2.98457 0.293873 0
M  V30 2222 H 211.877 1.55871 0.115787 0
M  V30 2223 H 212.612 1.9018 2.62682 0
M  V30 2224 H 212.397 3.47764 1.81115 0
M  V30 2225 H 213.887 3.14738 2.74462 0
M  V30 2226 N 214.325 -0.140222 1.56975 0
M  V30 2227 C 215.288 -1.15689 1.97861 0
M  V30 2228 C 216.288 -1.3549 0.865974 0
M  V30 2229 O 217.478 -1.32367 1.13246 0
M  V30 2230 C 214.61 -2.51582 2.30042 0
M  V30 2231 H 215.803 -0.805971 2.88867 0
M  V30 2232 H 213.356 -0.383801 1.51515 0
M  V30 2233 H 214.091 -2.91632 1.41849 0
M  V30 2234 H 213.876 -2.38569 3.11171 0
M  V30 2235 H 215.366 -3.24792 2.62488 0
M  V30 2236 N 215.803 -1.52179 -0.40978 0
M  V30 2237 C 217.051 -1.65878 -1.15451 0
M  V30 2238 C 217.372 -0.390771 -1.91044 0
M  V30 2239 O 216.642 0.594323 -1.86667 0
M  V30 2240 H 215.222 -0.611405 -0.429177 0
M  V30 2241 H 217.884 -1.89219 -0.467134 0
M  V30 2242 H 216.98 -2.49954 -1.86894 0
M  V30 2243 N 217.281 0.66697 -1.42791 0
M  V30 2244 C 218.229 1.80157 -1.47127 0
M  V30 2245 C 219.223 1.65825 -0.346199 0
M  V30 2246 O 220.429 1.72338 -0.519572 0
M  V30 2247 H 216.804 0.594158 -0.460956 0
M  V30 2248 H 218.775 1.73619 -2.42692 0
M  V30 2249 C 217.524 3.18351 -1.39813 0
M  V30 2250 H 216.847 3.3001 -2.25684 0
M  V30 2251 H 218.287 3.97736 -1.46908 0
M  V30 2252 C 216.746 3.36707 -0.11391 0
M  V30 2253 O 217.276 3.93027 0.830241 0
M  V30 2254 N 215.482 2.90586 -0.0285295 0
M  V30 2255 H 215.029 2.4494 -0.79764 0
M  V30 2256 H 214.987 3.03245 0.830063 0
M  V30 2257 N 218.759 1.29093 0.90403 0
M  V30 2258 C 220.006 1.16813 1.65411 0
M  V30 2259 C 220.334 -0.28128 1.92455 0
M  V30 2260 O 219.589 -1.22006 1.53013 0
M  V30 2261 C 219.888 1.92224 3.01305 0
M  V30 2262 C 219.554 3.41968 2.93885 0
M  V30 2263 C 218.216 3.82807 2.91569 0
M  V30 2264 C 220.568 4.37409 2.83413 0
M  V30 2265 C 217.896 5.1741 2.76594 0
M  V30 2266 C 220.248 5.72097 2.69977 0
M  V30 2267 C 218.912 6.12199 2.66024 0
M  V30 2268 H 218.182 0.42745 0.605283 0
M  V30 2269 H 220.829 1.59981 1.05254 0
M  V30 2270 H 219.134 1.41635 3.65304 0
M  V30 2271 H 220.831 1.80131 3.58265 0
M  V30 2272 H 217.421 3.09504 2.96488 0
M  V30 2273 H 221.605 4.06813 2.84283 0
M  V30 2274 H 216.861 5.47596 2.71935 0
M  V30 2275 H 221.035 6.45704 2.60844 0
M  V30 2276 H 218.662 7.16448 2.54178 0
M  V30 2277 N 220.237 -1.11381 1.11499 0
M  V30 2278 C 221.486 -1.82494 0.858993 0
M  V30 2279 C 221.799 -1.85605 -0.617278 0
M  V30 2280 O 223.005 -2.52824 -0.989552 0
M  V30 2281 C 221.461 -3.27745 1.48699 0
M  V30 2282 C 221.069 -3.32961 2.99735 0
M  V30 2283 C 222.813 -4.03754 1.31085 0
M  V30 2284 C 220.72 -4.72612 3.55516 0
M  V30 2285 H 219.65 -0.683802 0.317696 0
M  V30 2286 H 222.301 -1.25331 1.34031 0
M  V30 2287 H 220.683 -3.84844 0.933339 0
M  V30 2288 H 221.857 -2.85741 3.61509 0
M  V30 2289 H 220.172 -2.70433 3.16631 0
M  V30 2290 H 222.769 -5.06891 1.70192 0
M  V30 2291 H 223.112 -4.15527 0.253496 0
M  V30 2292 H 223.645 -3.53043 1.83318 0
M  V30 2293 H 220.384 -4.66036 4.60967 0
M  V30 2294 H 219.904 -5.2024 2.98513 0
M  V30 2295 H 221.583 -5.4157 3.53992 0
M  V30 2296 N 221.715 -0.905404 -1.28997 0
M  V30 2297 C 222.94 -0.549175 -1.99997 0
M  V30 2298 C 223.365 0.860276 -1.67275 0
M  V30 2299 O 222.723 1.57355 -0.900502 0
M  V30 2300 C 222.771 -0.755185 -3.52604 0
M  V30 2301 O 221.875 0.189692 -4.11964 0
M  V30 2302 H 221.216 -0.213899 -0.628604 0
M  V30 2303 H 223.746 -1.21856 -1.64354 0
M  V30 2304 H 223.756 -0.662045 -4.02593 0
M  V30 2305 H 222.431 -1.78271 -3.75755 0
M  V30 2306 H 221.008 0.0485257 -3.72868 0
M  V30 2307 N 223.193 1.4272 -0.668489 0
M  V30 2308 C 224.604 1.84793 -0.266151 0
M  V30 2309 C 224.955 1.55959 1.19043 0
M  V30 2310 O 224.08 1.01622 1.91055 0
M  V30 2311 C 224.675 3.35436 -0.476271 0
M  V30 2312 C 223.234 3.76182 -0.128113 0
M  V30 2313 C 222.381 2.66344 -0.771777 0
M  V30 2314 H 225.332 1.32656 -0.871098 0
M  V30 2315 H 225.353 3.79515 0.273561 0
M  V30 2316 H 224.865 3.5639 -1.53647 0
M  V30 2317 H 222.966 3.60836 0.928891 0
M  V30 2318 H 223.079 4.75766 -0.564231 0
M  V30 2319 H 221.443 2.53885 -0.203652 0
M  V30 2320 H 222.226 2.90123 -1.83531 0
M  V30 2321 N 224.671 0.411399 1.52136 0
M  V30 2322 C 225.899 -0.163076 2.06256 0
M  V30 2323 C 226.314 -1.3867 1.28125 0
M  V30 2324 O 225.671 -1.79423 0.333721 0
M  V30 2325 C 225.722 -0.511252 3.57867 0
M  V30 2326 O 225.443 0.66378 4.33042 0
M  V30 2327 C 226.944 -1.13921 4.28412 0
M  V30 2328 H 224.164 -0.0193897 0.67072 0
M  V30 2329 H 226.708 0.583007 1.96013 0
M  V30 2330 H 224.863 -1.20723 3.6811 0
M  V30 2331 H 225.277 0.372601 5.23175 0
M  V30 2332 H 226.751 -1.33302 5.35663 0
M  V30 2333 H 227.228 -2.11296 3.85033 0
M  V30 2334 H 227.834 -0.483373 4.22544 0
M  V30 2335 N 226.149 -1.5696 0.141893 0
M  V30 2336 C 227.059 -2.20066 -0.812905 0
M  V30 2337 C 228.075 -1.18344 -1.27557 0
M  V30 2338 O 229.251 -1.50902 -1.33381 0
M  V30 2339 C 226.316 -2.80583 -2.03652 0
M  V30 2340 C 225.377 -3.97414 -1.62359 0
M  V30 2341 C 224.61 -4.55036 -2.78887 0
M  V30 2342 O 224.833 -4.11538 -3.94959 0
M  V30 2343 O 223.767 -5.45376 -2.54653 0
M  V30 2344 H 227.593 -3.02157 -0.305746 0
M  V30 2345 H 225.178 -1.49159 -0.0848799 0
M  V30 2346 H 227.06 -3.19067 -2.75272 0
M  V30 2347 H 225.735 -2.01508 -2.5333 0
M  V30 2348 H 224.642 -3.63656 -0.877775 0
M  V30 2349 H 225.975 -4.77994 -1.17401 0
M  V30 2350 N 227.627 0.131896 -1.57047 0
M  V30 2351 C 229.043 0.485031 -1.52051 0
M  V30 2352 C 229.243 1.82563 -0.85281 0
M  V30 2353 O 228.299 2.48817 -0.429694 0
M  V30 2354 C 229.612 0.481409 -2.96821 0
M  V30 2355 C 231.16 0.565868 -3.07842 0
M  V30 2356 C 231.635 0.592762 -4.54148 0
M  V30 2357 N 233.126 0.654564 -4.58552 0
M  V30 2358 C 233.861 0.696608 -5.69153 0
M  V30 2359 N 233.357 0.697078 -6.89284 0
M  V30 2360 N 235.15 0.738639 -5.57226 0
M  V30 2361 H 227.301 -0.746664 -1.98843 0
M  V30 2362 H 229.564 -0.273999 -0.90754 0
M  V30 2363 H 229.27 -0.435731 -3.4899 0
M  V30 2364 H 229.144 1.3139 -3.53577 0
M  V30 2365 H 231.531 1.47343 -2.55684 0
M  V30 2366 H 231.612 -0.29406 -2.54104 0
M  V30 2367 H 231.256 -0.310701 -5.06949 0
M  V30 2368 H 231.186 1.46939 -5.05684 0
M  V30 2369 H 233.677 0.660887 -3.72076 0
M  V30 2370 H 233.99 0.731426 -7.69331 0
M  V30 2371 H 232.335 0.66471 -6.91814 0
M  V30 2372 H 235.526 0.735545 -4.62285 0
M  V30 2373 H 235.699 0.767938 -6.43434 0
M  V30 2374 N 229.106 1.52395 0.401703 0
M  V30 2375 C 230.036 1.79231 1.49661 0
M  V30 2376 C 231.017 0.643654 1.57452 0
M  V30 2377 O 232.202 0.889989 1.72606 0
M  V30 2378 C 229.332 1.94971 2.87409 0
M  V30 2379 C 228.286 3.10604 2.94465 0
M  V30 2380 C 227.612 3.11577 4.34538 0
M  V30 2381 C 228.912 4.49921 2.6527 0
M  V30 2382 H 230.606 2.70917 1.27454 0
M  V30 2383 H 228.152 1.30362 0.6117 0
M  V30 2384 H 230.105 2.12328 3.63999 0
M  V30 2385 H 228.829 0.999632 3.10926 0
M  V30 2386 H 227.488 2.93009 2.20321 0
M  V30 2387 H 227.136 2.14277 4.55076 0
M  V30 2388 H 226.836 3.89247 4.40183 0
M  V30 2389 H 228.36 3.31073 5.13053 0
M  V30 2390 H 229.774 4.67683 3.31581 0
M  V30 2391 H 228.171 5.29564 2.82281 0
M  V30 2392 H 229.241 4.57507 1.60671 0
M  V30 2393 N 230.584 -0.659388 1.43143 0
M  V30 2394 C 231.809 -1.45221 1.48073 0
M  V30 2395 C 232.234 -1.87845 0.097995 0
M  V30 2396 O 231.592 -1.56985 -0.90694 0
M  V30 2397 C 231.64 -2.66748 2.42647 0
M  V30 2398 O 230.744 -3.65583 1.90848 0
M  V30 2399 H 230.085 -0.435669 0.501088 0
M  V30 2400 H 232.615 -0.807432 1.87994 0
M  V30 2401 H 232.625 -3.14637 2.59745 0
M  V30 2402 H 231.3 -2.35067 3.43098 0
M  V30 2403 H 229.877 -3.24693 1.83381 0
M  V30 2404 N 232.062 -1.29571 -0.897171 0
M  V30 2405 C 233.473 -1.15964 -1.46319 0
M  V30 2406 C 233.824 0.244267 -1.94674 0
M  V30 2407 O 232.949 1.13998 -1.83939 0
M  V30 2408 C 233.544 -2.09906 -2.65942 0
M  V30 2409 C 232.103 -2.00314 -3.18671 0
M  V30 2410 C 231.25 -2.00687 -1.91363 0
M  V30 2411 H 234.201 -1.42019 -0.708268 0
M  V30 2412 H 234.222 -1.67276 -3.41759 0
M  V30 2413 H 233.734 -3.12075 -2.30718 0
M  V30 2414 H 231.835 -1.01242 -3.58582 0
M  V30 2415 H 231.948 -2.88102 -3.82798 0
M  V30 2416 H 230.312 -1.45319 -2.09175 0
M  V30 2417 H 231.095 -3.04566 -1.58413 0
M  V30 2418 N 233.54 1.10788 -1.12088 0
M  V30 2419 C 234.488 2.19111 -0.780587 0
M  V30 2420 C 235.482 1.67818 0.230961 0
M  V30 2421 O 236.688 1.79777 0.0895427 0
M  V30 2422 H 233.063 0.714477 -0.234578 0
M  V30 2423 H 235.034 2.45055 -1.70266 0
M  V30 2424 C 233.783 3.46818 -0.24747 0
M  V30 2425 H 233.106 3.86646 -1.01712 0
M  V30 2426 H 234.546 4.23973 -0.0476291 0
M  V30 2427 C 233.005 3.20968 1.02378 0
M  V30 2428 O 233.535 3.42298 2.10226 0
M  V30 2429 N 231.741 2.74658 0.949271 0
M  V30 2430 H 231.288 2.57501 0.0715173 0
M  V30 2431 H 231.246 2.57739 1.80049 0
M  V30 2432 N 235.018 0.912232 1.28515 0
M  V30 2433 C 235.981 0.404223 2.25607 0
M  V30 2434 C 236.981 -0.468602 1.53821 0
M  V30 2435 O 238.171 -0.271873 1.72065 0
M  V30 2436 C 235.303 -0.420653 3.38295 0
M  V30 2437 H 236.496 1.26188 2.7206 0
M  V30 2438 H 234.049 0.691495 1.40171 0
M  V30 2439 H 234.784 -1.29777 2.97201 0
M  V30 2440 H 234.569 0.204935 3.91564 0
M  V30 2441 H 236.059 -0.766971 4.10496 0
M  V30 2442 N 236.496 -1.42363 0.676048 0
M  V30 2443 C 237.742 -2.02336 0.207809 0
M  V30 2444 C 238.097 -1.52506 -1.17302 0
M  V30 2445 O 237.39 -0.718048 -1.77636 0
M  V30 2446 C 237.584 -3.56929 0.183431 0
M  V30 2447 C 237.413 -4.21762 1.56036 0
M  V30 2448 C 236.183 -4.56881 2.15842 0
M  V30 2449 C 238.381 -4.49267 2.50327 0
M  V30 2450 N 236.363 -5.069 3.46303 0
M  V30 2451 C 237.734 -5.00851 3.65443 0
M  V30 2452 C 239.789 -4.31257 2.48841 0
M  V30 2453 C 238.492 -5.36317 4.79329 0
M  V30 2454 C 240.518 -4.678 3.61824 0
M  V30 2455 C 239.88 -5.19537 4.75668 0
M  V30 2456 H 235.979 -0.772583 0.120993 0
M  V30 2457 H 238.563 -1.73203 0.889306 0
M  V30 2458 H 236.734 -3.85576 -0.467483 0
M  V30 2459 H 238.466 -4.03603 -0.297808 0
M  V30 2460 H 235.221 -4.4268 1.68319 0
M  V30 2461 H 235.645 -5.36338 4.13123 0
M  V30 2462 H 240.287 -3.90511 1.62051 0
M  V30 2463 H 238.005 -5.75995 5.66794 0
M  V30 2464 H 241.591 -4.55541 3.61903 0
M  V30 2465 H 240.471 -5.47287 5.61646 0
M  V30 2466 N 237.974 -0.419461 -1.51915 0
M  V30 2467 C 238.921 0.400927 -2.27291 0
M  V30 2468 C 239.891 1.03224 -1.30131 0
M  V30 2469 O 241.076 1.05455 -1.59009 0
M  V30 2470 C 238.216 1.50603 -3.10504 0
M  V30 2471 C 237.329 0.89462 -4.22635 0
M  V30 2472 C 236.464 1.97328 -4.93189 0
M  V30 2473 C 235.503 1.33935 -5.97267 0
M  V30 2474 N 234.64 2.3586 -6.61298 0
M  V30 2475 H 239.48 -0.248251 -2.96964 0
M  V30 2476 H 237.017 -0.134266 -1.46486 0
M  V30 2477 H 238.975 2.15783 -3.57062 0
M  V30 2478 H 237.605 2.12509 -2.42981 0
M  V30 2479 H 236.657 0.131583 -3.80172 0
M  V30 2480 H 237.969 0.391641 -4.9726 0
M  V30 2481 H 237.123 2.70211 -5.43204 0
M  V30 2482 H 235.862 2.50994 -4.18155 0
M  V30 2483 H 234.867 0.595896 -5.46561 0
M  V30 2484 H 236.092 0.810252 -6.74249 0
M  V30 2485 H 234.038 2.88639 -5.89087 0
M  V30 2486 H 233.955 1.90403 -7.3163 0
M  V30 2487 H 235.223 3.08282 -7.15949 0
M  V30 2488 N 239.452 1.56882 -0.150215 0
M  V30 2489 C 240.68 2.00593 0.506948 0
M  V30 2490 C 241.095 1.03033 1.58208 0
M  V30 2491 O 240.452 0.0278396 1.82479 0
M  V30 2492 C 240.503 3.44209 1.10465 0
M  V30 2493 O 240.224 4.3804 0.0724636 0
M  V30 2494 C 241.725 4.03214 1.84211 0
M  V30 2495 H 238.945 0.65795 0.13169 0
M  V30 2496 H 241.489 2.03018 -0.245743 0
M  V30 2497 H 239.644 3.42625 1.80795 0
M  V30 2498 H 240.058 5.22007 0.510793 0
M  V30 2499 H 241.532 5.0569 2.21318 0
M  V30 2500 H 242.009 3.44107 2.72923 0
M  V30 2501 H 242.615 4.08437 1.18572 0
M  V30 2502 N 240.93 -0.123565 1.57115 0
M  V30 2503 C 242.179 -0.830704 1.83799 0
M  V30 2504 C 242.492 -1.81259 0.735158 0
M  V30 2505 O 243.698 -2.56558 0.888278 0
M  V30 2506 C 242.154 -1.52802 3.25852 0
M  V30 2507 C 241.762 -0.587356 4.44133 0
M  V30 2508 C 243.506 -2.22056 3.61789 0
M  V30 2509 C 241.413 -1.28764 5.77212 0
M  V30 2510 H 240.343 -0.313967 0.685522 0
M  V30 2511 H 242.994 -0.0834359 1.8331 0
M  V30 2512 H 241.376 -2.32175 3.20797 0
M  V30 2513 H 242.55 0.172829 4.60476 0
M  V30 2514 H 240.865 -0.00201892 4.164 0
M  V30 2515 H 243.462 -2.75131 4.58483 0
M  V30 2516 H 243.805 -2.99644 2.88997 0
M  V30 2517 H 244.338 -1.49576 3.68608 0
M  V30 2518 H 241.077 -0.55314 6.53162 0
M  V30 2519 H 240.597 -2.01995 5.64764 0
M  V30 2520 H 242.276 -1.8221 6.20813 0
M  V30 2521 N 242.408 -1.52605 -0.393616 0
M  V30 2522 C 243.636 -1.71294 -1.16043 0
M  V30 2523 C 244.051 -0.429259 -1.83855 0
M  V30 2524 O 243.408 0.595921 -1.72496 0
M  V30 2525 C 243.459 -2.8593 -2.21193 0
M  V30 2526 O 243.18 -4.09329 -1.56146 0
M  V30 2527 C 244.681 -3.16259 -3.10636 0
M  V30 2528 H 241.901 -0.573641 -0.348104 0
M  V30 2529 H 244.445 -1.99234 -0.461092 0
M  V30 2530 H 242.6 -2.60465 -2.86769 0
M  V30 2531 H 243.014 -4.73323 -2.25978 0
M  V30 2532 H 244.488 -3.99946 -3.80456 0
M  V30 2533 H 244.965 -2.3045 -3.73884 0
M  V30 2534 H 245.571 -3.43547 -2.50711 0
M  V30 2535 N 243.887 0.651787 -1.4349 0
M  V30 2536 C 245.164 1.40909 -1.35661 0
M  V30 2537 C 245.544 2.11099 -0.00511733 0
M  V30 2538 O 244.892 2.04892 1.0115 0
M  V30 2539 C 245.102 2.3926 -2.54078 0
M  V30 2540 C 246.45 3.03217 -2.97228 0
M  V30 2541 O 247.474 2.49588 -2.54135 0
M  V30 2542 O 246.333 4.00455 -3.71885 0
M  V30 2543 H 243.427 0.629625 -0.536191 0
M  V30 2544 H 245.973 0.678575 -1.55542 0
M  V30 2545 H 244.745 1.86352 -3.44076 0
M  V30 2546 H 244.368 3.1976 -2.36303 0
M  V30 2547 N 245.365 1.30045 0.890287 0
M  V30 2548 C 246.614 1.17929 1.63633 0
M  V30 2549 C 246.927 -0.266204 1.9378 0
M  V30 2550 O 248.133 -0.508804 2.6669 0
M  V30 2551 C 246.589 2.06317 2.94892 0
M  V30 2552 C 246.197 3.55745 2.72305 0
M  V30 2553 C 247.941 2.0295 3.72843 0
M  V30 2554 C 245.848 4.36205 3.99348 0
M  V30 2555 H 244.778 0.437782 0.613892 0
M  V30 2556 H 247.429 1.54754 0.986075 0
M  V30 2557 H 245.811 1.6237 3.61182 0
M  V30 2558 H 246.985 4.07805 2.1455 0
M  V30 2559 H 245.3 3.6088 2.07737 0
M  V30 2560 H 247.897 2.60319 4.67053 0
M  V30 2561 H 248.24 1.0117 4.0382 0
M  V30 2562 H 248.773 2.4499 3.13408 0
M  V30 2563 H 245.512 5.38659 3.73533 0
M  V30 2564 H 245.032 3.8891 4.56628 0
M  V30 2565 H 246.711 4.47362 4.67415 0
M  V30 2566 N 246.843 -1.10192 1.12674 0
M  V30 2567 C 248.089 -1.82475 0.884915 0
M  V30 2568 C 248.422 -1.85093 -0.58773 0
M  V30 2569 O 247.697 -1.3134 -1.43457 0
M  V30 2570 C 247.98 -3.29018 1.46353 0
M  V30 2571 C 247.833 -3.34718 3.00473 0
M  V30 2572 C 249.152 -4.25473 1.12519 0
M  V30 2573 H 246.271 -0.662492 0.322915 0
M  V30 2574 H 248.913 -1.2913 1.39375 0
M  V30 2575 H 247.063 -3.74576 1.03077 0
M  V30 2576 H 248.735 -2.97622 3.52447 0
M  V30 2577 H 246.978 -2.74541 3.35872 0
M  V30 2578 H 247.649 -4.37918 3.36053 0
M  V30 2579 H 250.125 -3.88161 1.499 0
M  V30 2580 H 249.001 -5.26365 1.55663 0
M  V30 2581 H 249.262 -4.42084 0.0377407 0
M  V30 2582 N 248.321 -0.919034 -1.28029 0
M  V30 2583 C 249.251 -0.428581 -2.29533 0
M  V30 2584 C 250.232 0.50659 -1.62381 0
M  V30 2585 O 251.417 0.413195 -1.89753 0
M  V30 2586 C 248.547 0.327388 -3.45753 0
M  V30 2587 C 247.501 -0.519137 -4.2484 0
M  V30 2588 C 246.827 0.365486 -5.33449 0
M  V30 2589 C 248.127 -1.77914 -4.91064 0
M  V30 2590 H 249.821 -1.27687 -2.70807 0
M  V30 2591 H 247.367 -0.615428 -1.30186 0
M  V30 2592 H 249.32 0.681378 -4.15855 0
M  V30 2593 H 248.044 1.20963 -3.03374 0
M  V30 2594 H 246.703 -0.855717 -3.56473 0
M  V30 2595 H 246.351 1.24642 -4.87312 0
M  V30 2596 H 246.051 -0.197356 -5.87268 0
M  V30 2597 H 247.575 0.715241 -6.06396 0
M  V30 2598 H 248.989 -1.49374 -5.53498 0
M  V30 2599 H 247.386 -2.2848 -5.54903 0
M  V30 2600 H 248.456 -2.50382 -4.15255 0
M  V30 2601 N 249.799 1.42003 -0.683588 0
M  V30 2602 C 250.747 2.326 0.000815408 0
M  V30 2603 C 251.741 1.50308 0.781278 0
M  V30 2604 O 252.947 1.66322 0.688251 0
M  V30 2605 H 249.322 0.751758 0.0190616 0
M  V30 2606 H 251.293 2.88011 -0.780528 0
M  V30 2607 C 250.042 3.34978 0.93195 0
M  V30 2608 H 249.365 3.98345 0.340817 0
M  V30 2609 H 250.805 4.00936 1.37936 0
M  V30 2610 C 249.264 2.67925 2.04249 0
M  V30 2611 O 249.794 2.51788 3.12995 0
M  V30 2612 N 248 2.2681 1.81675 0
M  V30 2613 H 247.547 2.40135 0.932363 0
M  V30 2614 H 247.505 1.8228 2.56167 0
M  V30 2615 N 251.277 0.427512 1.51691 0
M  V30 2616 C 252.525 -0.141948 2.01601 0
M  V30 2617 C 252.846 -1.44067 1.31414 0
M  V30 2618 O 252.116 -1.90763 0.445658 0
M  V30 2619 H 250.696 -0.0554468 0.744939 0
M  V30 2620 H 253.358 0.567968 1.86441 0
M  V30 2621 H 252.454 -0.324913 3.10404 0
M  V30 2622 N 252.755 -1.56801 0.158532 0
M  V30 2623 C 253.983 -2.00859 -0.496303 0
M  V30 2624 C 254.398 -1.03871 -1.57659 0
M  V30 2625 O 253.755 -0.0375165 -1.82461 0
M  V30 2626 C 253.806 -3.4479 -1.08638 0
M  V30 2627 O 253.527 -4.38072 -0.0492322 0
M  V30 2628 C 255.028 -4.04185 -1.8207 0
M  V30 2629 H 252.248 -0.65864 -0.128199 0
M  V30 2630 H 254.792 -2.02885 0.256506 0
M  V30 2631 H 252.947 -3.43579 -1.78975 0
M  V30 2632 H 253.361 -5.2227 -0.483102 0
M  V30 2633 H 254.835 -5.06857 -2.18633 0
M  V30 2634 H 255.312 -3.45549 -2.71095 0
M  V30 2635 H 255.918 -4.0906 -1.16405 0
M  V30 2636 N 254.233 0.115231 -1.57178 0
M  V30 2637 C 255.196 1.12526 -1.99676 0
M  V30 2638 C 256.196 1.34095 -0.88742 0
M  V30 2639 O 257.386 1.30548 -1.15337 0
M  V30 2640 C 254.518 2.4789 -2.34015 0
M  V30 2641 H 255.711 0.759912 -2.90113 0
M  V30 2642 H 253.264 0.359648 -1.52106 0
M  V30 2643 H 253.999 2.89339 -1.4647 0
M  V30 2644 H 253.784 2.33588 -3.14927 0
M  V30 2645 H 255.274 3.20575 -2.67622 0
M  V30 2646 N 255.711 1.52812 0.385517 0
M  V30 2647 C 256.958 1.68026 1.1302 0
M  V30 2648 C 257.286 0.421934 1.89868 0
M  V30 2649 O 256.541 -0.595749 1.86412 0
M  V30 2650 C 256.84 2.86856 2.13187 0
M  V30 2651 C 256.506 4.24159 1.5297 0
M  V30 2652 C 255.168 4.61501 1.36274 0
M  V30 2653 C 257.52 5.09627 1.09223 0
M  V30 2654 C 254.848 5.81966 0.743837 0
M  V30 2655 C 257.2 6.30719 0.487411 0
M  V30 2656 C 255.864 6.6679 0.307777 0
M  V30 2657 H 255.134 0.614849 0.413571 0
M  V30 2658 H 257.781 1.86962 0.414405 0
M  V30 2659 H 256.086 2.6235 2.90998 0
M  V30 2660 H 257.783 2.95821 2.70722 0
M  V30 2661 H 254.373 3.94746 1.66954 0
M  V30 2662 H 258.557 4.81343 1.20922 0
M  V30 2663 H 253.813 6.08519 0.592891 0
M  V30 2664 H 257.987 6.96259 0.140143 0
M  V30 2665 H 255.614 7.60001 -0.173879 0
M  V30 2666 N 257.189 -0.644168 1.43834 0
M  V30 2667 C 258.435 -1.40603 1.46146 0
M  V30 2668 C 258.768 -1.93997 0.0887717 0
M  V30 2669 O 258.043 -1.72854 -0.891724 0
M  V30 2670 C 258.326 -2.58086 2.51124 0
M  V30 2671 C 258.179 -2.10126 3.97702 0
M  V30 2672 C 259.498 -3.60291 2.52742 0
M  V30 2673 H 256.617 -0.509905 0.532134 0
M  V30 2674 H 259.259 -0.729502 1.75437 0
M  V30 2675 H 257.409 -3.15801 2.26278 0
M  V30 2676 H 259.081 -1.57342 4.33637 0
M  V30 2677 H 257.324 -1.41419 4.10101 0
M  V30 2678 H 257.995 -2.94649 4.66783 0
M  V30 2679 H 260.471 -3.12352 2.7491 0
M  V30 2680 H 259.347 -4.40032 3.28121 0
M  V30 2681 H 259.608 -4.1349 1.56455 0
M  V30 2682 N 258.668 -1.30515 -0.883378 0
M  V30 2683 C 259.896 -1.22359 -1.66841 0
M  V30 2684 C 260.311 0.213296 -1.87591 0
M  V30 2685 O 259.668 1.14075 -1.42454 0
M  V30 2686 C 259.719 -1.95011 -3.04389 0
M  V30 2687 O 259.44 -3.3309 -2.84575 0
M  V30 2688 C 260.941 -1.93532 -3.98824 0
M  V30 2689 H 258.161 -0.423371 -0.520575 0
M  V30 2690 H 260.705 -1.72167 -1.10357 0
M  V30 2691 H 258.86 -1.48997 -3.57601 0
M  V30 2692 H 259.274 -3.69907 -3.71846 0
M  V30 2693 H 260.748 -2.48902 -4.92699 0
M  V30 2694 H 261.225 -0.914627 -4.29571 0
M  V30 2695 H 261.831 -2.39364 -3.51547 0
M  V30 2696 N 260.146 1.09593 -1.13257 0
M  V30 2697 C 261.076 2.18214 -0.830946 0
M  V30 2698 C 262.057 1.68812 0.208966 0
M  V30 2699 O 263.242 1.9408 0.0682666 0
M  V30 2700 C 260.372 3.46051 -0.294296 0
M  V30 2701 C 259.326 4.08778 -1.26826 0
M  V30 2702 C 258.652 5.31419 -0.591449 0
M  V30 2703 C 259.952 4.51476 -2.62615 0
M  V30 2704 H 261.646 2.43703 -1.73923 0
M  V30 2705 H 259.192 1.17128 -0.837675 0
M  V30 2706 H 261.145 4.2134 -0.0709606 0
M  V30 2707 H 259.869 3.20079 0.649366 0
M  V30 2708 H 258.528 3.35505 -1.47756 0
M  V30 2709 H 258.176 5.01727 0.357633 0
M  V30 2710 H 257.876 5.74341 -1.24123 0
M  V30 2711 H 259.4 6.09433 -0.377355 0
M  V30 2712 H 260.814 5.17999 -2.45663 0
M  V30 2713 H 259.211 5.05277 -3.23752 0
M  V30 2714 H 260.281 3.63962 -3.20406 0
M  V30 2715 N 261.624 0.925811 1.2754 0
M  V30 2716 C 262.534 0.428993 2.30644 0
M  V30 2717 C 263.55 -0.489387 1.66976 0
M  V30 2718 O 264.726 -0.372653 1.97922 0
M  V30 2719 C 261.791 -0.311967 3.45294 0
M  V30 2720 C 260.852 0.641098 4.24486 0
M  V30 2721 C 260.085 -0.0645955 5.33661 0
M  V30 2722 O 260.308 -1.28429 5.55754 0
M  V30 2723 O 259.242 0.606265 5.98839 0
M  V30 2724 H 263.068 1.28504 2.75173 0
M  V30 2725 H 260.653 0.691086 1.32455 0
M  V30 2726 H 262.535 -0.729972 4.15029 0
M  V30 2727 H 261.21 -1.14365 3.02824 0
M  V30 2728 H 260.117 1.10874 3.57292 0
M  V30 2729 H 261.45 1.43995 4.70666 0
M  V30 2730 N 263.102 -1.41638 0.69111 0
M  V30 2731 C 264.351 -2.00526 0.217318 0
M  V30 2732 C 264.664 -1.55353 -1.18848 0
M  V30 2733 O 265.87 -2.06769 -1.75951 0
M  V30 2734 C 264.326 -3.58313 0.337639 0
M  V30 2735 C 263.934 -4.12469 1.74852 0
M  V30 2736 C 265.678 -4.24431 -0.0766066 0
M  V30 2737 C 263.585 -5.62675 1.82074 0
M  V30 2738 H 262.515 -0.750008 0.0774893 0
M  V30 2739 H 265.166 -1.6217 0.858661 0
M  V30 2740 H 263.548 -3.9425 -0.371879 0
M  V30 2741 H 264.722 -3.8796 2.48644 0
M  V30 2742 H 263.037 -3.58861 2.11205 0
M  V30 2743 H 265.634 -5.34683 -0.0430284 0
M  V30 2744 H 265.977 -4.01101 -1.1146 0
M  V30 2745 H 266.51 -3.93512 0.582476 0
M  V30 2746 H 263.249 -5.90826 2.83911 0
M  V30 2747 H 262.769 -5.89124 1.12661 0
M  V30 2748 H 264.448 -6.27371 1.58159 0
M  V30 2749 N 264.58 -0.43555 -1.51462 0
M  V30 2750 C 265.828 0.131254 -2.01673 0
M  V30 2751 C 266.149 1.43368 -1.32177 0
M  V30 2752 O 265.419 1.90524 -0.455769 0
M  V30 2753 H 263.999 0.0514954 -0.745223 0
M  V30 2754 H 266.661 -0.577847 -1.86137 0
M  V30 2755 H 265.757 0.308446 -3.10572 0
M  V30 2756 N 266.058 1.56714 -0.166846 0
M  V30 2757 C 267.005 2.17746 0.765193 0
M  V30 2758 C 267.975 1.11614 1.23011 0
M  V30 2759 O 269.16 1.39745 1.29908 0
M  V30 2760 C 266.3 2.81882 1.9909 0
M  V30 2761 C 265.413 4.02462 1.56997 0
M  V30 2762 C 264.548 4.54537 2.749 0
M  V30 2763 C 263.587 5.67538 2.29275 0
M  V30 2764 N 262.724 6.14142 3.40255 0
M  V30 2765 H 267.564 2.97048 0.237952 0
M  V30 2766 H 265.101 1.4672 0.105725 0
M  V30 2767 H 267.059 3.17221 2.70974 0
M  V30 2768 H 265.689 2.05191 2.49192 0
M  V30 2769 H 264.741 3.72973 0.748037 0
M  V30 2770 H 266.053 4.84273 1.19503 0
M  V30 2771 H 265.207 4.92035 3.54946 0
M  V30 2772 H 263.946 3.71774 3.1565 0
M  V30 2773 H 262.951 5.29597 1.47674 0
M  V30 2774 H 264.176 6.52099 1.89588 0
M  V30 2775 H 262.122 5.3431 3.8059 0
M  V30 2776 H 262.039 6.9093 3.06841 0
M  V30 2777 H 263.307 6.56289 4.206 0
M  V30 2778 N 267.536 -0.106894 1.57237 0
M  V30 2779 C 268.468 -1.15646 1.97885 0
M  V30 2780 C 269.481 -1.36981 0.879779 0
M  V30 2781 O 270.67 -1.35841 1.15799 0
M  V30 2782 C 267.77 -2.51425 2.27241 0
M  V30 2783 C 266.943 -2.50529 3.58545 0
M  V30 2784 C 266.002 -3.68145 3.75973 0
M  V30 2785 O 265.028 -3.51176 4.47956 0
M  V30 2786 N 266.23 -4.87177 3.15656 0
M  V30 2787 H 268.995 -0.81059 2.8853 0
M  V30 2788 H 266.556 -0.296024 1.59171 0
M  V30 2789 H 268.548 -3.28689 2.36105 0
M  V30 2790 H 267.118 -2.78147 1.42663 0
M  V30 2791 H 266.338 -1.58894 3.60758 0
M  V30 2792 H 267.626 -2.46997 4.44826 0
M  V30 2793 H 267.024 -5.03868 2.57165 0
M  V30 2794 H 265.581 -5.62075 3.30023 0
M  V30 2795 N 269.014 -1.53014 -0.377408 0
M  V30 2796 C 269.944 -1.81589 -1.46791 0
M  V30 2797 C 270.925 -0.668622 -1.56408 0
M  V30 2798 O 272.11 -0.917337 -1.71168 0
M  V30 2799 C 269.24 -1.99519 -2.8427 0
M  V30 2800 C 268.194 -3.15249 -2.89486 0
M  V30 2801 C 267.52 -3.18451 -4.29527 0
M  V30 2802 C 268.82 -4.54084 -2.58079 0
M  V30 2803 H 270.514 -2.7291 -1.23127 0
M  V30 2804 H 268.06 -1.31319 -0.590883 0
M  V30 2805 H 270.013 -2.18092 -3.60575 0
M  V30 2806 H 268.737 -1.04897 -3.09296 0
M  V30 2807 H 267.396 -2.96477 -2.15631 0
M  V30 2808 H 267.044 -2.2149 -4.5161 0
M  V30 2809 H 266.744 -3.962 -4.33934 0
M  V30 2810 H 268.268 -3.39193 -5.07721 0
M  V30 2811 H 269.682 -4.72899 -3.24098 0
M  V30 2812 H 268.079 -5.33987 -2.7382 0
M  V30 2813 H 269.149 -4.60006 -1.53372 0
M  V30 2814 N 270.492 0.636531 -1.44174 0
M  V30 2815 C 271.741 1.39213 -1.45954 0
M  V30 2816 C 272.054 1.95374 -0.0939119 0
M  V30 2817 O 273.26 2.71498 0.0107767 0
M  V30 2818 C 271.716 2.52025 -2.56927 0
M  V30 2819 C 271.324 2.024 -3.99673 0
M  V30 2820 C 273.068 3.29269 -2.67922 0
M  V30 2821 C 270.975 3.12521 -5.0208 0
M  V30 2822 H 269.905 0.523132 -0.542999 0
M  V30 2823 H 272.556 0.685349 -1.70221 0
M  V30 2824 H 270.938 3.25253 -2.25891 0
M  V30 2825 H 272.112 1.36073 -4.40251 0
M  V30 2826 H 270.427 1.37987 -3.92872 0
M  V30 2827 H 273.024 4.11352 -3.41605 0
M  V30 2828 H 273.367 3.78397 -1.73555 0
M  V30 2829 H 273.9 2.63129 -2.98342 0
M  V30 2830 H 270.639 2.68343 -5.98057 0
M  V30 2831 H 270.159 3.77507 -4.66099 0
M  V30 2832 H 271.838 3.77385 -5.25538 0
M  V30 2833 N 271.97 1.30982 0.876444 0
M  V30 2834 C 272.917 1.18085 1.98304 0
M  V30 2835 C 273.887 0.0682263 1.6596 0
M  V30 2836 O 275.072 0.239937 1.89285 0
M  V30 2837 C 272.212 0.887475 3.33493 0
M  V30 2838 C 271.325 2.08281 3.78475 0
M  V30 2839 C 270.46 1.72678 5.0235 0
M  V30 2840 C 269.499 2.88657 5.39762 0
M  V30 2841 N 268.636 2.53292 6.54819 0
M  V30 2842 H 273.476 2.1275 2.08666 0
M  V30 2843 H 271.013 1.05839 1.02159 0
M  V30 2844 H 272.971 0.697961 4.1132 0
M  V30 2845 H 271.601 -0.022315 3.22792 0
M  V30 2846 H 270.653 2.3833 2.96484 0
M  V30 2847 H 271.965 2.95108 4.02135 0
M  V30 2848 H 271.119 1.50151 5.87826 0
M  V30 2849 H 269.858 0.830327 4.8058 0
M  V30 2850 H 268.863 3.1184 4.52809 0
M  V30 2851 H 270.088 3.79002 5.63502 0
M  V30 2852 H 268.034 1.66163 6.34607 0
M  V30 2853 H 267.951 3.3365 6.7839 0
M  V30 2854 H 269.219 2.34143 7.43503 0
M  V30 2855 N 273.449 -1.08991 1.13837 0
M  V30 2856 C 274.412 -2.13925 0.822715 0
M  V30 2857 C 275.412 -1.599 -0.1699 0
M  V30 2858 O 276.602 -1.74104 0.0577251 0
M  V30 2859 C 273.734 -3.40155 0.225318 0
M  V30 2860 H 274.927 -2.43358 1.75262 0
M  V30 2861 H 272.48 -1.24603 0.943594 0
M  V30 2862 H 273.215 -3.16352 -0.713594 0
M  V30 2863 H 273 -3.80661 0.940193 0
M  V30 2864 H 274.49 -4.17594 0.0214784 0
M  V30 2865 N 274.927 -0.932562 -1.27047 0
M  V30 2866 C 275.859 -0.392734 -2.2581 0
M  V30 2867 C 276.872 0.479241 -1.55586 0
M  V30 2868 O 278.061 0.291078 -1.76111 0
M  V30 2869 C 275.161 0.455456 -3.35826 0
M  V30 2870 C 274.334 -0.398355 -4.35582 0
M  V30 2871 C 273.393 0.387985 -5.24768 0
M  V30 2872 O 272.419 -0.206003 -5.68827 0
M  V30 2873 N 273.621 1.68664 -5.55457 0
M  V30 2874 H 276.386 -1.24173 -2.72766 0
M  V30 2875 H 273.947 -0.800511 -1.40725 0
M  V30 2876 H 275.939 0.988692 -3.92437 0
M  V30 2877 H 274.509 1.20522 -2.88432 0
M  V30 2878 H 273.729 -1.11286 -3.78165 0
M  V30 2879 H 275.017 -0.981889 -4.99236 0
M  V30 2880 H 274.415 2.19147 -5.21528 0
M  V30 2881 H 272.972 2.1663 -6.14748 0
M  V30 2882 N 276.405 1.4127 -0.698611 0
M  V30 2883 C 277.352 2.30773 -0.0352094 0
M  V30 2884 C 278.322 1.47273 0.768111 0
M  V30 2885 O 279.507 1.76053 0.735524 0
M  V30 2886 C 276.647 3.33346 0.893 0
M  V30 2887 C 275.76 4.31924 0.0809695 0
M  V30 2888 C 274.895 5.21566 1.0071 0
M  V30 2889 C 273.934 6.11811 0.188155 0
M  V30 2890 N 273.071 6.93926 1.06825 0
M  V30 2891 H 277.911 2.86943 -0.804207 0
M  V30 2892 H 275.448 1.4132 -0.408294 0
M  V30 2893 H 277.406 3.91368 1.44523 0
M  V30 2894 H 276.036 2.78719 1.62836 0
M  V30 2895 H 275.088 3.75825 -0.588224 0
M  V30 2896 H 276.4 4.95716 -0.553801 0
M  V30 2897 H 275.554 5.84437 1.62845 0
M  V30 2898 H 274.293 4.58008 1.67572 0
M  V30 2899 H 273.298 5.47986 -0.446254 0
M  V30 2900 H 274.523 6.77425 -0.476716 0
M  V30 2901 H 272.469 6.32973 1.72283 0
M  V30 2902 H 272.386 7.54416 0.489123 0
M  V30 2903 H 273.654 7.61262 1.67632 0
M  V30 2904 N 277.883 0.443576 1.51229 0
M  V30 2905 C 279.131 -0.120557 2.0174 0
M  V30 2906 C 279.452 -1.42665 1.32935 0
M  V30 2907 O 278.722 -1.9028 0.465866 0
M  V30 2908 H 277.302 -0.0475426 0.745486 0
M  V30 2909 H 279.964 0.587711 1.85828 0
M  V30 2910 H 279.06 -0.291972 3.10731 0
M  V30 2911 N 279.361 -1.56624 0.175154 0
M  V30 2912 C 280.324 -2.16934 -0.739738 0
M  V30 2913 C 281.324 -1.11842 -1.15533 0
M  V30 2914 O 282.514 -1.37335 -1.07167 0
M  V30 2915 C 279.646 -2.75531 -2.00738 0
M  V30 2916 H 280.839 -2.99131 -0.214639 0
M  V30 2917 H 278.392 -1.56123 -0.0744197 0
M  V30 2918 H 279.127 -1.97078 -2.57548 0
M  V30 2919 H 278.912 -3.52444 -1.71831 0
M  V30 2920 H 280.402 -3.21904 -2.66021 0
M  V30 2921 N 280.839 0.0985539 -1.57292 0
M  V30 2922 C 281.802 1.10402 -2.00858 0
M  V30 2923 C 282.802 1.33146 -0.901593 0
M  V30 2924 O 283.992 1.29318 -1.16716 0
M  V30 2925 C 281.124 2.45394 -2.36632 0
M  V30 2926 H 282.317 0.729099 -2.90902 0
M  V30 2927 H 279.87 0.343495 -1.52479 0
M  V30 2928 H 280.605 2.87769 -1.49531 0
M  V30 2929 H 280.39 2.30235 -3.17387 0
M  V30 2930 H 281.88 3.17718 -2.71007 0
M  V30 2931 N 282.317 1.53212 0.369288 0
M  V30 2932 C 283.564 1.69215 1.11232 0
M  V30 2933 C 283.892 0.442048 1.8941 0
M  V30 2934 O 283.147 -0.575944 1.87033 0
M  V30 2935 C 283.446 2.89101 2.10132 0
M  V30 2936 C 283.112 4.25758 1.48463 0
M  V30 2937 C 281.774 4.6292 1.31372 0
M  V30 2938 C 284.126 5.10757 1.03811 0
M  V30 2939 C 281.454 5.82722 0.68207 0
M  V30 2940 C 283.806 6.31201 0.420487 0
M  V30 2941 C 282.47 6.67079 0.237038 0
M  V30 2942 H 281.74 0.619201 0.407027 0
M  V30 2943 H 284.387 1.87391 0.394552 0
M  V30 2944 H 282.692 2.65421 2.88199 0
M  V30 2945 H 284.389 2.98676 2.6757 0
M  V30 2946 H 280.979 3.96494 1.62758 0
M  V30 2947 H 285.163 4.82599 1.1581 0
M  V30 2948 H 280.419 6.09113 0.528316 0
M  V30 2949 H 284.593 6.96368 0.0662874 0
M  V30 2950 H 282.22 7.59774 -0.254477 0
M  V30 2951 N 283.795 -0.628877 1.44509 0
M  V30 2952 C 284.725 -1.75187 1.54376 0
M  V30 2953 C 285.706 -1.65411 0.396618 0
M  V30 2954 O 286.891 -1.84137 0.617031 0
M  V30 2955 C 284.021 -3.13725 1.48976 0
M  V30 2956 C 282.975 -3.38291 2.62189 0
M  V30 2957 C 282.301 -4.76883 2.41841 0
M  V30 2958 C 283.601 -3.30632 4.04326 0
M  V30 2959 H 285.295 -1.67187 2.48373 0
M  V30 2960 H 282.841 -0.802909 1.19538 0
M  V30 2961 H 284.794 -3.92064 1.54478 0
M  V30 2962 H 283.518 -3.22515 0.514961 0
M  V30 2963 H 282.177 -2.62334 2.56079 0
M  V30 2964 H 281.825 -4.82378 1.42548 0
M  V30 2965 H 281.525 -4.94278 3.17747 0
M  V30 2966 H 283.049 -5.57449 2.49165 0
M  V30 2967 H 284.463 -3.98873 4.11793 0
M  V30 2968 H 282.86 -3.59561 4.80454 0
M  V30 2969 H 283.93 -2.28404 4.27738 0
M  V30 2970 N 285.273 -1.31445 -0.869486 0
M  V30 2971 C 286.498 -1.24256 -1.66058 0
M  V30 2972 C 286.923 0.188928 -1.87149 0
M  V30 2973 O 286.281 1.13522 -1.4136 0
M  V30 2974 C 286.329 -1.9924 -3.00559 0
M  V30 2975 O 285.433 -1.33007 -3.90362 0
M  V30 2976 H 284.774 -0.428973 -0.506831 0
M  V30 2977 H 287.304 -1.73521 -1.08404 0
M  V30 2978 H 287.314 -2.08854 -3.50491 0
M  V30 2979 H 285.989 -3.03342 -2.84528 0
M  V30 2980 H 284.566 -1.31848 -3.48813 0
M  V30 2981 N 286.751 1.08385 -1.14413 0
M  V30 2982 C 288 1.80153 -0.907076 0
M  V30 2983 C 288.313 1.87176 0.567851 0
M  V30 2984 O 289.519 2.55359 0.922172 0
M  V30 2985 C 287.975 3.23687 -1.57336 0
M  V30 2986 C 287.583 3.24897 -3.08457 0
M  V30 2987 C 289.327 4.00136 -1.41744 0
M  V30 2988 C 287.234 4.6302 -3.67921 0
M  V30 2989 H 286.164 0.675139 -0.335714 0
M  V30 2990 H 288.815 1.21733 -1.37307 0
M  V30 2991 H 287.197 3.82234 -1.03505 0
M  V30 2992 H 288.371 2.76055 -3.68958 0
M  V30 2993 H 286.686 2.61943 -3.2369 0
M  V30 2994 H 289.283 5.02201 -1.83572 0
M  V30 2995 H 289.626 4.14709 -0.363576 0
M  V30 2996 H 290.159 3.48058 -1.92614 0
M  V30 2997 H 286.898 4.5365 -4.73161 0
M  V30 2998 H 286.418 5.12143 -3.12201 0
M  V30 2999 H 288.097 5.31994 -3.68227 0
M  V30 3000 N 288.23 0.939286 1.26551 0
M  V30 3001 C 289.458 0.602536 1.97932 0
M  V30 3002 C 289.873 -0.82206 1.69964 0
M  V30 3003 O 289.23 -1.54789 0.966784 0
M  V30 3004 C 289.281 0.832946 3.51773 0
M  V30 3005 O 289.002 2.20151 3.78768 0
M  V30 3006 C 290.503 0.506483 4.40397 0
M  V30 3007 H 287.723 0.227248 0.631347 0
M  V30 3008 H 290.267 1.25948 1.61113 0
M  V30 3009 H 288.422 0.222644 3.8676 0
M  V30 3010 H 288.836 2.26013 4.73306 0
M  V30 3011 H 290.31 0.718333 5.47306 0
M  V30 3012 H 290.787 -0.558451 4.35635 0
M  V30 3013 H 291.393 1.09543 4.10951 0
M  V30 3014 N 289.708 -1.40897 0.706093 0
M  V30 3015 C 290.936 -2.05373 0.250887 0
M  V30 3016 C 291.351 -1.53172 -1.10381 0
M  V30 3017 O 290.708 -0.684305 -1.69185 0
M  V30 3018 C 290.759 -3.6088 0.211571 0
M  V30 3019 O 290.48 -4.11153 1.51276 0
M  V30 3020 C 291.981 -4.42517 -0.263346 0
M  V30 3021 H 289.201 -0.66115 0.114552 0
M  V30 3022 H 291.745 -1.80479 0.961635 0
M  V30 3023 H 289.9 -3.84777 -0.450073 0
M  V30 3024 H 290.314 -5.05279 1.40689 0
M  V30 3025 H 291.788 -5.51479 -0.239718 0
M  V30 3026 H 292.265 -4.19396 -1.30397 0
M  V30 3027 H 292.871 -4.23708 0.367677 0
M  V30 3028 N 291.186 -0.45159 -1.50991 0
M  V30 3029 C 292.435 0.111653 -2.01391 0
M  V30 3030 C 292.748 1.42529 -1.33959 0
M  V30 3031 O 293.954 2.07232 -1.75405 0
M  V30 3032 C 292.41 0.249514 -3.59034 0
M  V30 3033 C 292.018 -1.05453 -4.35412 0
M  V30 3034 C 293.762 0.765762 -4.17536 0
M  V30 3035 C 291.669 -0.881529 -5.84793 0
M  V30 3036 H 290.599 0.0455022 -0.752626 0
M  V30 3037 H 293.25 -0.583524 -1.73975 0
M  V30 3038 H 291.632 1.00803 -3.82955 0
M  V30 3039 H 292.806 -1.82248 -4.23229 0
M  V30 3040 H 291.121 -1.50039 -3.88429 0
M  V30 3041 H 293.718 0.911913 -5.26866 0
M  V30 3042 H 294.061 1.75201 -3.77638 0
M  V30 3043 H 294.594 0.0651744 -3.97747 0
M  V30 3044 H 291.333 -1.84057 -6.29129 0
M  V30 3045 H 290.853 -0.153625 -5.99603 0
M  V30 3046 H 292.532 -0.540363 -6.4474 0
M  V30 3047 N 292.664 1.56529 -0.183458 0
M  V30 3048 C 293.894 2.01331 0.463612 0
M  V30 3049 C 294.302 1.06278 1.5653 0
M  V30 3050 O 293.645 0.0577976 1.83609 0
M  V30 3051 C 293.707 3.42547 1.09096 0
M  V30 3052 C 293.371 4.56817 0.129442 0
M  V30 3053 C 294.368 5.15734 -0.656807 0
M  V30 3054 C 292.053 5.02295 0.02174 0
M  V30 3055 C 294.047 6.1857 -1.53784 0
M  V30 3056 C 291.734 6.04978 -0.862864 0
M  V30 3057 C 292.732 6.62988 -1.64123 0
M  V30 3058 O 292.42 7.63677 -2.51103 0
M  V30 3059 H 292.152 0.664917 0.121907 0
M  V30 3060 H 294.706 2.034 -0.285954 0
M  V30 3061 H 292.936 3.37428 1.88889 0
M  V30 3062 H 294.625 3.71228 1.64148 0
M  V30 3063 H 295.391 4.81473 -0.583839 0
M  V30 3064 H 291.27 4.56847 0.617392 0
M  V30 3065 H 294.814 6.63777 -2.14583 0
M  V30 3066 H 290.711 6.38663 -0.93699 0
M  V30 3067 H 291.479 7.81049 -2.44753 0
M  V30 3068 N 294.142 -0.090211 1.57342 0
M  V30 3069 C 295.105 -1.09335 2.01441 0
M  V30 3070 C 296.105 -1.32666 0.908641 0
M  V30 3071 O 297.295 -1.28697 1.174 0
M  V30 3072 C 294.427 -2.44136 2.3793 0
M  V30 3073 H 295.62 -0.713662 2.91285 0
M  V30 3074 H 293.173 -0.335404 1.52659 0
M  V30 3075 H 293.908 -2.86972 1.51055 0
M  V30 3076 H 293.693 -2.28548 3.18603 0
M  V30 3077 H 295.183 -3.16277 2.72688 0
M  V30 3078 N 295.62 -1.53406 -0.361157 0
M  V30 3079 C 296.53 -1.83122 -1.4664 0
M  V30 3080 C 297.546 -0.719943 -1.58407 0
M  V30 3081 O 298.722 -1.01046 -1.74218 0
M  V30 3082 C 295.787 -2.01891 -2.81853 0
M  V30 3083 C 294.848 -3.25784 -2.79577 0
M  V30 3084 C 294.081 -3.43648 -4.0834 0
M  V30 3085 O 294.304 -2.65714 -5.0473 0
M  V30 3086 O 293.238 -4.37018 -4.13883 0
M  V30 3087 H 297.064 -2.7703 -1.24451 0
M  V30 3088 H 294.649 -1.38841 -0.551678 0
M  V30 3089 H 296.531 -2.15782 -3.61962 0
M  V30 3090 H 295.206 -1.11173 -3.0401 0
M  V30 3091 H 294.113 -3.17312 -1.98151 0
M  V30 3092 H 295.446 -4.16439 -2.62373 0
M  V30 3093 N 297.098 0.621204 -1.44841 0
M  V30 3094 C 298.326 1.40752 -1.51646 0
M  V30 3095 C 298.741 1.88246 -0.144549 0
M  V30 3096 O 298.098 1.61422 0.851416 0
M  V30 3097 C 298.149 2.62119 -2.4895 0
M  V30 3098 O 297.87 2.16602 -3.80808 0
M  V30 3099 C 299.371 3.55135 -2.65319 0
M  V30 3100 H 296.591 0.431325 -0.514004 0
M  V30 3101 H 299.135 0.758835 -1.899 0
M  V30 3102 H 297.29 3.23058 -2.13805 0
M  V30 3103 H 297.704 2.95358 -4.33433 0
M  V30 3104 H 299.178 4.36874 -3.37409 0
M  V30 3105 H 299.655 4.04592 -1.70886 0
M  V30 3106 H 300.261 3.00058 -3.01405 0
M  V30 3107 N 298.576 1.31904 0.862503 0
M  V30 3108 C 299.824 1.21776 1.61292 0
M  V30 3109 C 300.145 -0.222413 1.93727 0
M  V30 3110 O 299.415 -1.1451 1.58947 0
M  V30 3111 H 297.995 0.447717 0.597962 0
M  V30 3112 H 300.657 1.65326 1.03215 0
M  V30 3113 H 299.753 1.7948 2.5533 0
M  V30 3114 N 300.054 -1.07777 1.14986 0
M  V30 3115 C 301.279 -1.84558 0.946213 0
M  V30 3116 C 301.704 -1.81323 -0.500362 0
M  V30 3117 O 301.062 -1.20301 -1.35637 0
M  V30 3118 C 301.11 -3.29736 1.45968 0
M  V30 3119 O 300.214 -4.07149 0.65601 0
M  V30 3120 H 299.555 -0.571641 0.33782 0
M  V30 3121 H 302.085 -1.35991 1.52865 0
M  V30 3122 H 302.095 -3.80574 1.47063 0
M  V30 3123 H 300.77 -3.31406 2.51283 0
M  V30 3124 H 299.347 -3.65994 0.714322 0
M  V30 3125 N 301.532 -0.945985 -1.26051 0
M  V30 3126 C 302.78 -0.594941 -1.93145 0
M  V30 3127 C 303.101 0.86953 -1.7454 0
M  V30 3128 O 302.371 1.61838 -1.10387 0
M  V30 3129 H 300.951 -0.217044 -0.714773 0
M  V30 3130 H 303.613 -1.20235 -1.53393 0
M  V30 3131 H 302.709 -0.816835 -3.01221 0
M  V30 3132 N 303.011 1.40521 -0.713556 0
M  V30 3133 C 304.258 2.00923 -0.25219 0
M  V30 3134 C 304.586 1.56571 1.15395 0
M  V30 3135 O 303.841 0.775874 1.79663 0
M  V30 3136 C 304.14 3.56317 -0.278 0
M  V30 3137 C 303.806 4.20246 -1.63415 0
M  V30 3138 C 302.468 4.37422 -2.00538 0
M  V30 3139 C 304.82 4.55923 -2.52554 0
M  V30 3140 C 302.148 4.87558 -3.2635 0
M  V30 3141 C 304.5 5.07458 -3.77716 0
M  V30 3142 C 303.164 5.22843 -4.14959 0
M  V30 3143 H 302.434 0.735231 -0.0922829 0
M  V30 3144 H 305.081 1.68161 -0.916188 0
M  V30 3145 H 303.386 3.88976 0.469567 0
M  V30 3146 H 305.083 4.00883 0.0967819 0
M  V30 3147 H 301.673 4.07263 -1.33546 0
M  V30 3148 H 305.857 4.42291 -2.25149 0
M  V30 3149 H 301.113 4.97654 -3.55176 0
M  V30 3150 H 305.287 5.34041 -4.4696 0
M  V30 3151 H 302.914 5.61454 -5.12516 0
M  V30 3152 N 304.489 0.459591 1.5075 0
M  V30 3153 C 305.735 -0.0994966 2.02556 0
M  V30 3154 C 306.068 -1.40399 1.3417 0
M  V30 3155 O 305.343 -1.88892 0.463683 0
M  V30 3156 C 305.626 -0.295242 3.58888 0
M  V30 3157 C 305.479 1.02947 4.37861 0
M  V30 3158 C 306.798 -1.05502 4.27267 0
M  V30 3159 H 303.917 -0.034686 0.736183 0
M  V30 3160 H 306.559 0.602938 1.8018 0
M  V30 3161 H 304.709 -0.893563 3.78084 0
M  V30 3162 H 306.381 1.66348 4.30263 0
M  V30 3163 H 304.624 1.62885 4.02058 0
M  V30 3164 H 305.295 0.846281 5.45474 0
M  V30 3165 H 307.771 -0.547993 4.12476 0
M  V30 3166 H 306.647 -1.16077 5.36486 0
M  V30 3167 H 306.908 -2.08875 3.89645 0
M  V30 3168 N 305.967 -1.56429 0.191757 0
M  V30 3169 C 307.213 -1.97777 -0.448554 0
M  V30 3170 C 307.546 -1.07847 -1.61501 0
M  V30 3171 O 306.821 -0.129774 -1.94067 0
M  V30 3172 C 307.104 -3.48362 -0.911906 0
M  V30 3173 C 306.957 -4.4907 0.256136 0
M  V30 3174 C 308.276 -4.02561 -1.77857 0
M  V30 3175 H 305.395 -0.719071 -0.161572 0
M  V30 3176 H 308.037 -1.87896 0.282007 0
M  V30 3177 H 306.187 -3.56914 -1.53442 0
M  V30 3178 H 307.859 -4.5256 0.893733 0
M  V30 3179 H 306.102 -4.24181 0.908436 0
M  V30 3180 H 306.773 -5.51889 -0.11053 0
M  V30 3181 H 309.249 -3.96767 -1.25359 0
M  V30 3182 H 308.125 -5.08301 -2.07174 0
M  V30 3183 H 308.386 -3.47616 -2.73158 0
M  V30 3184 N 307.445 0.0818655 -1.57387 0
M  V30 3185 C 308.856 0.634871 -1.75574 0
M  V30 3186 C 309.207 1.78435 -0.815809 0
M  V30 3187 O 308.332 2.164 0.0025366 0
M  V30 3188 C 308.927 1.15845 -3.18379 0
M  V30 3189 C 307.486 1.65741 -3.37945 0
M  V30 3190 C 306.633 0.572549 -2.71325 0
M  V30 3191 H 309.584 -0.144268 -1.58043 0
M  V30 3192 H 309.605 2.02751 -3.21982 0
M  V30 3193 H 309.117 0.321631 -3.86765 0
M  V30 3194 H 307.218 2.51781 -2.74658 0
M  V30 3195 H 307.331 1.74129 -4.46336 0
M  V30 3196 H 305.695 1.01518 -2.33594 0
M  V30 3197 H 306.478 -0.253918 -3.4236 0
M  V30 3198 N 308.923 1.53595 0.353017 0
M  V30 3199 C 310.148 1.7462 1.11904 0
M  V30 3200 C 310.573 0.479721 1.8188 0
M  V30 3201 O 309.931 -0.567066 1.72204 0
M  V30 3202 C 309.979 2.92029 2.11545 0
M  V30 3203 O 309.083 2.61516 3.18878 0
M  V30 3204 H 308.424 0.579531 0.324099 0
M  V30 3205 H 310.954 2.00525 0.406301 0
M  V30 3206 H 310.964 3.18551 2.5493 0
M  V30 3207 H 309.639 3.83888 1.60008 0
M  V30 3208 H 308.216 2.45852 2.80377 0
M  V30 3209 N 310.401 -0.613514 1.45168 0
M  V30 3210 C 311.364 -1.7065 1.53007 0
M  V30 3211 C 312.364 -1.5548 0.410184 0
M  V30 3212 O 313.554 -1.60656 0.673455 0
M  V30 3213 C 310.686 -3.09875 1.42093 0
M  V30 3214 H 311.879 -1.65068 2.50385 0
M  V30 3215 H 309.432 -0.828728 1.32521 0
M  V30 3216 H 310.167 -3.21039 0.458769 0
M  V30 3217 H 309.952 -3.22293 2.23315 0
M  V30 3218 H 311.442 -3.895 1.50598 0
M  V30 3219 N 311.879 -1.3236 -0.855495 0
M  V30 3220 C 313.104 -1.2601 -1.64731 0
M  V30 3221 C 313.529 0.169068 -1.87339 0
M  V30 3222 O 312.887 1.12016 -1.42556 0
M  V30 3223 C 312.935 -2.02417 -2.98429 0
M  V30 3224 O 312.039 -1.3714 -3.8893 0
M  V30 3225 H 311.38 -0.434325 -0.502253 0
M  V30 3226 H 313.91 -1.74661 -1.06558 0
M  V30 3227 H 313.92 -2.12559 -3.48257 0
M  V30 3228 H 312.595 -3.06343 -2.81295 0
M  V30 3229 H 311.172 -1.3554 -3.47395 0
M  V30 3230 N 313.357 1.07166 -1.15556 0
M  V30 3231 C 314.32 2.12589 -0.856644 0
M  V30 3232 C 315.32 1.6015 0.14444 0
M  V30 3233 O 316.51 1.7399 -0.0854163 0
M  V30 3234 C 313.642 3.39753 -0.279405 0
M  V30 3235 H 314.835 2.40539 -1.79112 0
M  V30 3236 H 312.388 1.23086 -0.963298 0
M  V30 3237 H 313.123 3.17447 0.663174 0
M  V30 3238 H 312.908 3.79117 -1.00063 0
M  V30 3239 H 314.398 4.17507 -0.0879113 0
M  V30 3240 N 314.835 0.952656 1.25548 0
M  V30 3241 C 315.782 0.47008 2.25962 0
M  V30 3242 C 316.752 -0.476384 1.59122 0
M  V30 3243 O 317.937 -0.39007 1.8677 0
M  V30 3244 C 315.077 -0.247881 3.44209 0
M  V30 3245 C 314.19 0.735591 4.25691 0
M  V30 3246 C 313.325 -0.0047306 5.312 0
M  V30 3247 C 312.364 0.969805 6.04368 0
M  V30 3248 N 311.501 0.260486 7.01617 0
M  V30 3249 H 316.341 1.33126 2.66611 0
M  V30 3250 H 313.878 0.66765 1.31076 0
M  V30 3251 H 315.836 -0.680695 4.1161 0
M  V30 3252 H 314.466 -1.07312 3.0444 0
M  V30 3253 H 313.518 1.28689 3.57971 0
M  V30 3254 H 314.83 1.47934 4.76358 0
M  V30 3255 H 313.984 -0.496275 6.04667 0
M  V30 3256 H 312.723 -0.781282 4.81401 0
M  V30 3257 H 311.728 1.47237 5.29718 0
M  V30 3258 H 312.953 1.74655 6.56256 0
M  V30 3259 H 310.899 -0.497364 6.54112 0
M  V30 3260 H 310.816 0.943362 7.50091 0
M  V30 3261 H 312.084 -0.209587 7.79218 0
M  V30 3262 N 316.313 -1.40141 0.720998 0
M  V30 3263 C 317.276 -2.29058 0.0805834 0
M  V30 3264 C 318.276 -1.45632 -0.681758 0
M  V30 3265 O 319.466 -1.6648 -0.512856 0
M  V30 3266 C 316.598 -3.28925 -0.895593 0
M  V30 3267 H 317.791 -2.87191 0.863793 0
M  V30 3268 H 315.344 -1.48553 0.485975 0
M  V30 3269 H 316.079 -2.75822 -1.70566 0
M  V30 3270 H 315.864 -3.90519 -0.351766 0
M  V30 3271 H 317.354 -3.95494 -1.34069 0
M  V30 3272 N 317.792 -0.46758 -1.50504 0
M  V30 3273 C 319.04 0.0884469 -2.01906 0
M  V30 3274 C 319.361 1.40532 -1.35188 0
M  V30 3275 O 318.631 1.89515 -0.496079 0
M  V30 3276 H 317.211 0.0356765 -0.746148 0
M  V30 3277 H 319.873 -0.6172 -1.84869 0
M  V30 3278 H 318.969 0.2425 -3.11156 0
M  V30 3279 N 319.27 1.56325 -0.20005 0
M  V30 3280 C 320.516 1.98012 0.438059 0
M  V30 3281 C 320.849 1.08702 1.60927 0
M  V30 3282 O 320.124 0.140064 1.93995 0
M  V30 3283 C 320.407 3.48841 0.893419 0
M  V30 3284 C 320.26 4.48928 -0.279947 0
M  V30 3285 C 321.579 4.03498 1.75719 0
M  V30 3286 H 318.698 0.719918 0.157757 0
M  V30 3287 H 321.34 1.87743 -0.291968 0
M  V30 3288 H 319.49 3.57723 1.51547 0
M  V30 3289 H 321.162 4.52079 -0.91772 0
M  V30 3290 H 319.405 4.23694 -0.930919 0
M  V30 3291 H 320.076 5.5194 0.0812601 0
M  V30 3292 H 322.552 3.97427 1.23253 0
M  V30 3293 H 321.428 5.09393 2.04476 0
M  V30 3294 H 321.689 3.4906 2.71311 0
M  V30 3295 N 320.748 -0.0735177 1.57428 0
M  V30 3296 C 321.658 -1.10547 2.06922 0
M  V30 3297 C 322.674 -1.42506 0.998402 0
M  V30 3298 O 323.85 -1.52717 1.31299 0
M  V30 3299 C 320.915 -2.40019 2.50184 0
M  V30 3300 C 319.976 -2.15046 3.71556 0
M  V30 3301 C 319.209 -3.38345 4.12745 0
M  V30 3302 O 319.432 -4.47399 3.53822 0
M  V30 3303 O 318.366 -3.2666 5.05546 0
M  V30 3304 H 322.192 -0.715013 2.95163 0
M  V30 3305 H 319.777 -0.287531 1.46607 0
M  V30 3306 H 321.659 -3.16218 2.78539 0
M  V30 3307 H 320.334 -2.78447 1.65072 0
M  V30 3308 H 319.241 -1.36558 3.48285 0
M  V30 3309 H 320.574 -1.81499 4.57514 0
M  V30 3310 N 322.226 -1.5378 -0.344866 0
M  V30 3311 C 323.189 -1.80981 -1.40637 0
M  V30 3312 C 324.189 -0.680816 -1.45676 0
M  V30 3313 O 325.379 -0.949095 -1.46075 0
M  V30 3314 C 322.511 -1.95063 -2.79577 0
M  V30 3315 H 323.704 -2.75803 -1.17783 0
M  V30 3316 H 321.257 -1.45173 -0.579181 0
M  V30 3317 H 321.992 -1.02379 -3.07716 0
M  V30 3318 H 321.777 -2.77198 -2.77315 0
M  V30 3319 H 323.267 -2.17629 -3.56409 0
M  V30 3320 N 323.704 0.605807 -1.45491 0
M  V30 3321 C 324.637 1.73022 -1.48791 0
M  V30 3322 C 325.615 1.58917 -0.344112 0
M  V30 3323 O 326.799 1.80453 -0.544876 0
M  V30 3324 C 323.926 3.10865 -1.34463 0
M  V30 3325 C 322.972 3.43554 -2.5273 0
M  V30 3326 S 323.805 3.38196 -4.15191 0
M  V30 3327 C 324.961 4.78616 -4.03333 0
M  V30 3328 H 325.194 1.69961 -2.43928 0
M  V30 3329 H 322.727 0.782611 -1.33096 0
M  V30 3330 H 324.685 3.90398 -1.26884 0
M  V30 3331 H 323.346 3.1144 -0.40794 0
M  V30 3332 H 322.539 4.43924 -2.38637 0
M  V30 3333 H 322.141 2.71541 -2.5718 0
M  V30 3334 H 324.433 5.68463 -3.68587 0
M  V30 3335 H 325.376 4.97767 -5.03621 0
M  V30 3336 H 325.784 4.54381 -3.34959 0
M  V30 3337 N 325.182 1.32811 0.848464 0
M  V30 3338 C 326.407 1.26882 1.6406 0
M  V30 3339 C 326.832 -0.15913 1.87426 0
M  V30 3340 O 326.19 -1.11258 1.43148 0
M  V30 3341 C 326.238 2.03997 2.97351 0
M  V30 3342 O 325.342 1.39201 3.88197 0
M  V30 3343 H 324.683 0.436982 0.499943 0
M  V30 3344 H 327.213 1.75224 1.0563 0
M  V30 3345 H 327.223 2.14403 3.47124 0
M  V30 3346 H 325.898 3.0783 2.79666 0
M  V30 3347 H 324.475 1.37381 3.46671 0
M  V30 3348 N 326.66 -1.06551 1.16123 0
M  V30 3349 C 327.607 -2.13961 0.865414 0
M  V30 3350 C 328.577 -1.65066 -0.185055 0
M  V30 3351 O 329.762 -1.90732 -0.05083 0
M  V30 3352 C 326.902 -3.43113 0.369776 0
M  V30 3353 C 326.015 -4.05756 1.48276 0
M  V30 3354 C 325.15 -5.22773 0.942414 0
M  V30 3355 C 324.189 -5.77395 2.03179 0
M  V30 3356 N 323.326 -6.85731 1.50721 0
M  V30 3357 H 328.166 -2.38605 1.78527 0
M  V30 3358 H 325.703 -1.17072 0.890646 0
M  V30 3359 H 327.661 -4.17151 0.0640643 0
M  V30 3360 H 326.291 -3.18695 -0.513143 0
M  V30 3361 H 325.343 -3.29292 1.9045 0
M  V30 3362 H 326.655 -4.42351 2.30493 0
M  V30 3363 H 325.809 -6.03827 0.589729 0
M  V30 3364 H 324.548 -4.87618 0.0895191 0
M  V30 3365 H 323.553 -4.94981 2.3932 0
M  V30 3366 H 324.778 -6.14603 2.8886 0
M  V30 3367 H 322.724 -6.52499 0.676811 0
M  V30 3368 H 322.641 -7.21254 2.26557 0
M  V30 3369 H 323.909 -7.7047 1.18303 0
M  V30 3370 N 328.138 -0.959301 -1.25041 0
M  V30 3371 C 329.363 -0.633507 -1.97488 0
M  V30 3372 C 329.788 0.788555 -1.70773 0
M  V30 3373 O 329.146 1.53394 -0.966431 0
M  V30 3374 C 329.194 -0.904057 -3.49083 0
M  V30 3375 O 328.298 0.0147939 -4.12397 0
M  V30 3376 H 327.639 -0.240368 -0.618966 0
M  V30 3377 H 330.169 -1.28717 -1.59038 0
M  V30 3378 H 330.179 -0.832203 -3.99423 0
M  V30 3379 H 328.854 -1.94048 -3.67856 0
M  V30 3380 H 327.431 -0.109664 -3.72739 0
M  V30 3381 N 329.616 1.39756 -0.72842 0
M  V30 3382 C 330.546 2.33289 -0.0991354 0
M  V30 3383 C 331.527 1.53568 0.731489 0
M  V30 3384 O 332.712 1.81987 0.677807 0
M  V30 3385 C 329.842 3.3763 0.813834 0
M  V30 3386 C 328.796 4.2791 0.0878663 0
M  V30 3387 C 328.122 5.22894 1.11741 0
M  V30 3388 C 329.422 5.11314 -1.06563 0
M  V30 3389 H 331.116 2.86163 -0.880408 0
M  V30 3390 H 328.662 1.37591 -0.424819 0
M  V30 3391 H 330.615 4.0201 1.26355 0
M  V30 3392 H 329.339 2.83181 1.62715 0
M  V30 3393 H 327.998 3.65 -0.342159 0
M  V30 3394 H 327.646 4.64744 1.92412 0
M  V30 3395 H 327.346 5.84143 0.636477 0
M  V30 3396 H 328.87 5.90151 1.56697 0
M  V30 3397 H 330.284 5.69076 -0.694671 0
M  V30 3398 H 328.681 5.81671 -1.47577 0
M  V30 3399 H 329.751 4.46534 -1.89038 0
M  V30 3400 N 331.094 0.475555 1.50254 0
M  V30 3401 C 332.057 -0.305016 2.27161 0
M  V30 3402 C 333.057 -0.916519 1.32123 0
M  V30 3403 O 334.247 -0.785003 1.5551 0
M  V30 3404 C 331.379 -1.43496 3.09227 0
M  V30 3405 H 332.572 0.369511 2.97615 0
M  V30 3406 H 330.125 0.229747 1.54602 0
M  V30 3407 H 330.86 -2.14441 2.43281 0
M  V30 3408 H 330.645 -1.00223 3.79075 0
M  V30 3409 H 332.135 -1.98548 3.67381 0
M  V30 3410 N 332.573 -1.56217 0.208337 0
M  V30 3411 C 333.536 -2.18455 -0.693557 0
M  V30 3412 C 334.536 -1.14268 -1.13135 0
M  V30 3413 O 335.726 -1.39577 -1.0423 0
M  V30 3414 C 332.858 -2.79727 -1.94848 0
M  V30 3415 H 334.051 -2.99519 -0.15114 0
M  V30 3416 H 331.604 -1.56245 -0.041287 0
M  V30 3417 H 332.339 -2.02497 -2.53309 0
M  V30 3418 H 332.124 -3.56009 -1.64316 0
M  V30 3419 H 333.614 -3.27475 -2.59133 0
M  V30 3420 N 334.051 0.0651679 -1.57465 0
M  V30 3421 C 334.961 1.09448 -2.07505 0
M  V30 3422 C 335.977 1.41974 -1.00595 0
M  V30 3423 O 337.153 1.52018 -1.32107 0
M  V30 3424 C 334.218 2.38689 -2.51453 0
M  V30 3425 C 333.279 2.13073 -3.72691 0
M  V30 3426 C 332.512 3.36152 -4.14533 0
M  V30 3427 O 332.735 4.45517 -3.56189 0
M  V30 3428 O 331.669 3.23974 -5.07272 0
M  V30 3429 H 335.495 0.69935 -2.95538 0
M  V30 3430 H 333.08 0.279752 -1.46757 0
M  V30 3431 H 334.962 3.14736 -2.80212 0
M  V30 3432 H 333.637 2.77568 -1.66546 0
M  V30 3433 H 332.544 1.34709 -3.49005 0
M  V30 3434 H 333.877 1.79071 -4.5847 0
M  V30 3435 N 335.529 1.53961 0.336706 0
M  V30 3436 C 336.775 1.7273 1.07406 0
M  V30 3437 C 337.13 0.488095 1.86106 0
M  V30 3438 O 336.423 -0.519379 1.84426 0
M  V30 3439 C 336.617 2.93493 2.03953 0
M  V30 3440 C 336.446 4.29039 1.34744 0
M  V30 3441 C 335.216 4.93416 1.08942 0
M  V30 3442 C 337.414 5.08501 0.770115 0
M  V30 3443 N 335.396 6.12821 0.363864 0
M  V30 3444 C 336.767 6.19752 0.175472 0
M  V30 3445 C 338.822 4.93349 0.671633 0
M  V30 3446 C 337.525 7.17503 -0.508081 0
M  V30 3447 C 339.551 5.914 0.0018076 0
M  V30 3448 C 338.913 7.01993 -0.581835 0
M  V30 3449 H 335.012 0.685026 0.377177 0
M  V30 3450 H 337.596 1.91403 0.356815 0
M  V30 3451 H 335.767 2.76308 2.72962 0
M  V30 3452 H 337.499 3.00949 2.70577 0
M  V30 3453 H 334.254 4.53099 1.37833 0
M  V30 3454 H 334.678 6.76998 0.0156092 0
M  V30 3455 H 339.32 4.08007 1.1086 0
M  V30 3456 H 337.038 8.02414 -0.956918 0
M  V30 3457 H 340.624 5.81753 -0.0738538 0
M  V30 3458 H 339.504 7.76561 -1.09192 0
M  V30 3459 N 337.007 -0.598083 1.45811 0
M  V30 3460 C 338.255 -1.35413 1.50026 0
M  V30 3461 C 338.576 -1.94444 0.147177 0
M  V30 3462 O 337.846 -1.77701 -0.824571 0
M  V30 3463 H 336.426 -0.502727 0.552517 0
M  V30 3464 H 339.088 -0.701606 1.81834 0
M  V30 3465 H 338.184 -2.16871 2.2444 0
M  V30 3466 N 338.485 -1.33259 -0.841409 0
M  V30 3467 C 339.432 -1.23302 -1.95103 0
M  V30 3468 C 340.402 -0.112204 -1.65721 0
M  V30 3469 O 341.587 -0.290038 -1.88583 0
M  V30 3470 C 338.727 -0.975583 -3.31023 0
M  V30 3471 C 337.84 -2.18243 -3.72819 0
M  V30 3472 C 336.975 -1.85936 -4.97595 0
M  V30 3473 C 336.014 -3.02866 -5.3192 0
M  V30 3474 N 335.151 -2.70565 -6.47873 0
M  V30 3475 H 339.991 -2.18207 -2.02952 0
M  V30 3476 H 337.528 -1.0851 -0.993173 0
M  V30 3477 H 339.486 -0.80677 -4.09325 0
M  V30 3478 H 338.116 -0.0632755 -3.22738 0
M  V30 3479 H 337.168 -2.46107 -2.90061 0
M  V30 3480 H 338.48 -3.05666 -3.94169 0
M  V30 3481 H 337.634 -1.65684 -5.83638 0
M  V30 3482 H 336.373 -0.957452 -4.78209 0
M  V30 3483 H 335.378 -3.23736 -4.44382 0
M  V30 3484 H 336.603 -3.93809 -5.53255 0
M  V30 3485 H 334.549 -1.8293 -6.29978 0
M  V30 3486 H 334.466 -3.51519 -6.69306 0
M  V30 3487 H 335.734 -2.53774 -7.37034 0
M  V30 3488 N 339.963 1.05934 -1.16686 0
M  V30 3489 C 341.193 1.82226 -0.973515 0
M  V30 3490 C 341.601 1.8297 0.481532 0
M  V30 3491 O 340.944 1.25009 1.34604 0
M  V30 3492 C 341.006 3.29897 -1.42858 0
M  V30 3493 C 340.67 3.52849 -2.90425 0
M  V30 3494 C 341.667 3.45595 -3.88407 0
M  V30 3495 C 339.352 3.80053 -3.28428 0
M  V30 3496 C 341.346 3.65217 -5.22394 0
M  V30 3497 C 339.033 3.99325 -4.62583 0
M  V30 3498 C 340.031 3.91905 -5.59374 0
M  V30 3499 O 339.719 4.10647 -6.91104 0
M  V30 3500 H 339.451 0.581314 -0.345036 0
M  V30 3501 H 342.005 1.3453 -1.55212 0
M  V30 3502 H 340.235 3.78472 -0.793477 0
M  V30 3503 H 341.924 3.87692 -1.20207 0
M  V30 3504 H 342.69 3.24564 -3.60393 0
M  V30 3505 H 338.569 3.84936 -2.53664 0
M  V30 3506 H 342.113 3.59341 -5.9793 0
M  V30 3507 H 338.01 4.19846 -4.90306 0
M  V30 3508 H 338.778 4.27915 -6.97733 0
M  V30 3509 N 341.441 0.965919 1.2453 0
M  V30 3510 C 342.689 0.625593 1.92174 0
M  V30 3511 C 343.01 -0.841652 1.75901 0
M  V30 3512 O 342.28 -1.60061 1.12948 0
M  V30 3513 H 340.86 0.228388 0.71123 0
M  V30 3514 H 343.522 1.2266 1.51461 0
M  V30 3515 H 342.618 0.864653 2.99884 0
M  V30 3516 N 342.919 -1.39368 0.735821 0
M  V30 3517 C 343.852 -2.28155 0.0451175 0
M  V30 3518 C 344.83 -1.44433 -0.746852 0
M  V30 3519 O 346.014 -1.73823 -0.729237 0
M  V30 3520 C 343.141 -3.253 -0.943266 0
M  V30 3521 C 342.187 -4.25826 -0.239685 0
M  V30 3522 S 343.02 -5.25166 1.04693 0
M  V30 3523 C 344.176 -6.2587 0.0611639 0
M  V30 3524 H 344.409 -2.86388 0.79807 0
M  V30 3525 H 341.942 -1.45104 0.527653 0
M  V30 3526 H 343.9 -3.81789 -1.50824 0
M  V30 3527 H 342.561 -2.66085 -1.66906 0
M  V30 3528 H 341.754 -4.94229 -0.987596 0
M  V30 3529 H 341.356 -3.73141 0.253274 0
M  V30 3530 H 343.648 -6.73007 -0.778941 0
M  V30 3531 H 344.591 -7.04508 0.712362 0
M  V30 3532 H 344.999 -5.63639 -0.311602 0
M  V30 3533 N 344.397 -0.483516 -1.5 0
M  V30 3534 C 345.813 -0.138404 -1.58999 0
M  V30 3535 C 346.013 1.35597 -1.4905 0
M  V30 3536 O 345.069 2.13039 -1.35539 0
M  V30 3537 C 346.382 -0.699658 -2.92447 0
M  V30 3538 C 347.93 -0.664195 -3.05872 0
M  V30 3539 C 348.405 -1.20321 -4.41913 0
M  V30 3540 N 349.896 -1.16315 -4.48358 0
M  V30 3541 C 350.631 -1.55058 -5.52037 0
M  V30 3542 N 350.127 -2.01311 -6.62907 0
M  V30 3543 N 351.92 -1.46584 -5.42651 0
M  V30 3544 H 344.071 -1.45529 -1.5471 0
M  V30 3545 H 346.334 -0.60258 -0.731848 0
M  V30 3546 H 346.04 -1.747 -3.05242 0
M  V30 3547 H 345.914 -0.150194 -3.76901 0
M  V30 3548 H 348.301 0.374272 -2.92717 0
M  V30 3549 H 348.382 -1.25061 -2.23144 0
M  V30 3550 H 348.026 -2.24037 -4.55818 0
M  V30 3551 H 347.956 -0.592896 -5.23252 0
M  V30 3552 H 350.447 -0.824058 -3.68806 0
M  V30 3553 H 350.76 -2.2899 -7.38095 0
M  V30 3554 H 349.105 -2.05273 -6.63994 0
M  V30 3555 H 352.296 -1.10281 -4.54924 0
M  V30 3556 H 352.469 -1.77103 -6.23329 0
M  V30 3557 N 345.875 1.56104 -0.216619 0
M  V30 3558 C 347.122 1.98172 0.416416 0
M  V30 3559 C 347.45 1.10413 1.60122 0
M  V30 3560 O 346.705 0.147967 1.9514 0
M  V30 3561 C 347.004 3.45923 0.898464 0
M  V30 3562 C 346.67 4.50559 -0.175288 0
M  V30 3563 C 345.332 4.78897 -0.470271 0
M  V30 3564 C 347.684 5.1334 -0.901728 0
M  V30 3565 C 345.012 5.67299 -1.4963 0
M  V30 3566 C 347.364 6.02853 -1.91705 0
M  V30 3567 C 346.028 6.29537 -2.21901 0
M  V30 3568 H 345.298 0.725164 0.152377 0
M  V30 3569 H 347.945 1.88839 -0.318103 0
M  V30 3570 H 346.25 3.52434 1.71165 0
M  V30 3571 H 347.947 3.75841 1.39803 0
M  V30 3572 H 344.537 4.28551 0.0647806 0
M  V30 3573 H 348.721 4.91521 -0.687072 0
M  V30 3574 H 343.977 5.86239 -1.73592 0
M  V30 3575 H 348.151 6.50552 -2.48505 0
M  V30 3576 H 345.778 6.97835 -3.01548 0
M  V30 3577 N 347.353 -0.0568162 1.57498 0
M  V30 3578 C 348.301 -1.08452 2.05769 0
M  V30 3579 C 349.295 -1.39164 0.965903 0
M  V30 3580 O 350.501 -1.38395 1.15095 0
M  V30 3581 H 346.876 -0.367148 0.656282 0
M  V30 3582 H 348.847 -0.651368 2.91204 0
M  V30 3583 C 347.596 -2.38543 2.52968 0
M  V30 3584 H 346.919 -2.15765 3.36579 0
M  V30 3585 H 348.359 -3.08863 2.90481 0
M  V30 3586 C 346.818 -3.05562 1.41893 0
M  V30 3587 O 347.348 -3.94262 0.769442 0
M  V30 3588 N 345.554 -2.6643 1.16032 0
M  V30 3589 H 345.101 -1.94387 1.6903 0
M  V30 3590 H 345.059 -3.11593 0.419219 0
M  V30 3591 N 348.832 -1.54138 -0.328536 0
M  V30 3592 C 350.078 -1.7236 -1.06865 0
M  V30 3593 C 350.411 -0.493231 -1.87832 0
M  V30 3594 O 349.686 0.5098 -1.877 0
M  V30 3595 C 349.969 -2.99621 -1.99747 0
M  V30 3596 C 349.822 -4.32899 -1.22143 0
M  V30 3597 C 351.141 -3.22615 -2.99345 0
M  V30 3598 H 348.26 -0.627151 -0.387105 0
M  V30 3599 H 350.902 -1.86827 -0.345767 0
M  V30 3600 H 349.052 -2.87418 -2.61387 0
M  V30 3601 H 350.724 -4.56978 -0.630017 0
M  V30 3602 H 348.967 -4.30628 -0.523628 0
M  V30 3603 H 349.638 -5.18154 -1.90318 0
M  V30 3604 H 352.114 -3.34248 -2.47826 0
M  V30 3605 H 350.99 -4.13027 -3.61524 0
M  V30 3606 H 351.251 -2.3961 -3.71536 0
M  V30 3607 N 350.31 0.590341 -1.46126 0
M  V30 3608 C 351.559 1.34499 -1.50309 0
M  V30 3609 C 351.872 1.94977 -0.156021 0
M  V30 3610 O 353.078 2.71395 -0.0756037 0
M  V30 3611 C 351.534 2.43723 -2.64815 0
M  V30 3612 C 351.142 1.89582 -4.0591 0
M  V30 3613 C 352.886 3.20579 -2.78262 0
M  V30 3614 C 350.793 2.9639 -5.11769 0
M  V30 3615 H 349.723 0.505593 -0.559368 0
M  V30 3616 H 352.374 0.630848 -1.72315 0
M  V30 3617 H 350.756 3.17902 -2.36124 0
M  V30 3618 H 351.93 1.21997 -4.44357 0
M  V30 3619 H 350.245 1.25418 -3.97063 0
M  V30 3620 H 352.842 4.00276 -3.54519 0
M  V30 3621 H 353.185 3.72684 -1.85505 0
M  V30 3622 H 353.718 2.53505 -3.06562 0
M  V30 3623 H 350.457 2.49181 -6.06291 0
M  V30 3624 H 349.977 3.62487 -4.77873 0
M  V30 3625 H 351.656 3.60474 -5.37278 0
M  V30 3626 N 351.788 1.33704 0.83433 0
M  V30 3627 C 352.72 1.20172 1.9517 0
M  V30 3628 C 353.733 0.131572 1.62267 0
M  V30 3629 O 354.922 0.382406 1.74356 0
M  V30 3630 C 352.022 0.821716 3.28787 0
M  V30 3631 C 351.195 1.98446 3.89792 0
M  V30 3632 C 350.254 1.58469 5.01771 0
M  V30 3633 O 349.28 2.29968 5.20676 0
M  V30 3634 N 350.482 0.492291 5.78409 0
M  V30 3635 H 353.247 2.16429 2.07313 0
M  V30 3636 H 350.808 1.26509 1.0103 0
M  V30 3637 H 352.8 0.536291 4.01131 0
M  V30 3638 H 351.37 -0.0503058 3.1256 0
M  V30 3639 H 350.59 2.43526 3.09982 0
M  V30 3640 H 351.878 2.76236 4.27283 0
M  V30 3641 H 351.276 -0.102349 5.65607 0
M  V30 3642 H 349.833 0.266555 6.51255 0
M  V30 3643 N 353.266 -1.05314 1.17247 0
M  V30 3644 C 354.677 -1.59753 0.96623 0
M  V30 3645 C 355.028 -1.9005 -0.487378 0
M  V30 3646 O 354.153 -1.68126 -1.36245 0
M  V30 3647 C 354.748 -2.90249 1.74759 0
M  V30 3648 C 353.307 -3.41352 1.58606 0
M  V30 3649 C 352.454 -2.15103 1.75002 0
M  V30 3650 H 355.405 -0.881406 1.31973 0
M  V30 3651 H 355.426 -3.60097 1.22925 0
M  V30 3652 H 354.938 -2.68166 2.8055 0
M  V30 3653 H 353.039 -3.68474 0.552985 0
M  V30 3654 H 353.152 -4.16019 2.37624 0
M  V30 3655 H 351.516 -2.25804 1.17833 0
M  V30 3656 H 352.299 -1.95491 2.82202 0
M  V30 3657 N 354.744 -0.972509 -1.24016 0
M  V30 3658 C 355.992 -0.635776 -1.91839 0
M  V30 3659 C 356.313 0.832312 -1.76345 0
M  V30 3660 O 355.583 1.5946 -1.13795 0
M  V30 3661 H 354.163 -0.232157 -0.710009 0
M  V30 3662 H 356.825 -1.23462 -1.50809 0
M  V30 3663 H 355.921 -0.880545 -2.99421 0
M  V30 3664 N 356.222 1.38976 -0.743202 0
M  V30 3665 C 357.633 1.83123 -0.363732 0
M  V30 3666 C 357.984 1.6205 1.10609 0
M  V30 3667 O 357.109 1.11606 1.854 0
M  V30 3668 C 357.704 3.32439 -0.653408 0
M  V30 3669 C 356.263 3.74974 -0.327338 0
M  V30 3670 C 355.41 2.61878 -0.911875 0
M  V30 3671 H 358.361 1.27852 -0.940191 0
M  V30 3672 H 358.382 3.80432 0.0720031 0
M  V30 3673 H 357.894 3.47745 -1.72323 0
M  V30 3674 H 355.995 3.65252 0.736314 0
M  V30 3675 H 356.108 4.72106 -0.815631 0
M  V30 3676 H 354.472 2.52448 -0.337944 0
M  V30 3677 H 355.255 2.79987 -1.98651 0
M  V30 3678 N 357.7 0.491464 1.49741 0
M  V30 3679 C 358.949 -0.0582189 2.01616 0
M  V30 3680 C 359.262 -1.38927 1.3769 0
M  V30 3681 O 360.468 -2.02509 1.80838 0
M  V30 3682 C 358.924 -0.154235 3.59569 0
M  V30 3683 C 358.532 1.1696 4.32463 0
M  V30 3684 C 360.276 -0.65479 4.1942 0
M  V30 3685 C 358.183 1.03627 5.8225 0
M  V30 3686 H 357.113 -0.0255317 0.753568 0
M  V30 3687 H 359.764 0.629445 1.72367 0
M  V30 3688 H 358.146 -0.906138 3.85493 0
M  V30 3689 H 359.32 1.93405 4.18248 0
M  V30 3690 H 357.635 1.60285 3.84315 0
M  V30 3691 H 360.232 -0.771903 5.29099 0
M  V30 3692 H 360.575 -1.65127 3.8215 0
M  V30 3693 H 361.108 0.040304 3.9778 0
M  V30 3694 H 357.847 2.00672 6.24028 0
M  V30 3695 H 357.367 0.312546 5.98985 0
M  V30 3696 H 359.046 0.711114 6.4308 0
M  V30 3697 N 359.178 -1.55987 0.224894 0
M  V30 3698 C 360.125 -2.20436 -0.68385 0
M  V30 3699 C 361.095 -1.16102 -1.18783 0
M  V30 3700 O 362.28 -1.4447 -1.24632 0
M  V30 3701 C 359.42 -2.89076 -1.88491 0
M  V30 3702 C 358.533 -4.08012 -1.41951 0
M  V30 3703 C 357.668 -4.64426 -2.5784 0
M  V30 3704 C 356.707 -5.75656 -2.08053 0
M  V30 3705 N 355.844 -6.26347 -3.17227 0
M  V30 3706 H 360.684 -2.97727 -0.12754 0
M  V30 3707 H 358.221 -1.47011 -0.0511978 0
M  V30 3708 H 360.179 -3.27059 -2.59014 0
M  V30 3709 H 358.809 -2.14298 -2.41405 0
M  V30 3710 H 357.861 -3.75492 -0.609095 0
M  V30 3711 H 359.173 -4.88375 -1.01447 0
M  V30 3712 H 358.327 -5.04869 -3.3644 0
M  V30 3713 H 357.066 -3.83233 -3.01635 0
M  V30 3714 H 356.071 -5.34712 -1.27916 0
M  V30 3715 H 357.296 -6.58686 -1.65255 0
M  V30 3716 H 355.242 -5.48067 -3.60497 0
M  V30 3717 H 355.159 -7.01843 -2.80986 0
M  V30 3718 H 356.427 -6.71447 -3.95953 0
M  V30 3719 N 360.656 0.0484629 -1.57525 0
M  V30 3720 C 361.884 0.755421 -1.92616 0
M  V30 3721 C 362.299 1.69919 -0.822984 0
M  V30 3722 O 361.656 1.81378 0.202085 0
M  V30 3723 C 361.707 1.52915 -3.27566 0
M  V30 3724 O 361.428 0.62329 -4.33644 0
M  V30 3725 C 362.929 2.33502 -3.76818 0
M  V30 3726 H 360.149 0.213465 -0.63614 0
M  V30 3727 H 362.693 0.0117698 -2.04497 0
M  V30 3728 H 360.848 2.22486 -3.17142 0
M  V30 3729 H 361.262 1.16383 -5.11425 0
M  V30 3730 H 362.736 2.83214 -4.73808 0
M  V30 3731 H 363.213 3.14068 -3.07014 0
M  V30 3732 H 363.819 1.69043 -3.90262 0
M  V30 3733 N 362.134 1.5431 0.320358 0
M  V30 3734 C 363.081 1.83918 1.39438 0
M  V30 3735 C 364.051 0.686525 1.51248 0
M  V30 3736 O 365.236 0.933269 1.66417 0
M  V30 3737 C 362.376 2.075 2.75749 0
M  V30 3738 C 361.489 3.35177 2.72544 0
M  V30 3739 C 360.624 3.48704 4.00723 0
M  V30 3740 C 359.663 4.70244 3.91838 0
M  V30 3741 N 358.8 4.80679 5.11754 0
M  V30 3742 H 363.64 2.75544 1.13489 0
M  V30 3743 H 361.177 1.36459 0.549309 0
M  V30 3744 H 363.135 2.19166 3.54996 0
M  V30 3745 H 361.765 1.19163 3 0
M  V30 3746 H 360.817 3.32233 1.85271 0
M  V30 3747 H 362.129 4.24534 2.61863 0
M  V30 3748 H 361.283 3.59928 4.88402 0
M  V30 3749 H 360.022 2.57445 4.14214 0
M  V30 3750 H 359.027 4.59072 3.02544 0
M  V30 3751 H 360.252 5.6289 3.7991 0
M  V30 3752 H 358.198 3.92337 5.25745 0
M  V30 3753 H 358.115 5.64007 5.0342 0
M  V30 3754 H 359.383 4.96239 6.01138 0
M  V30 3755 N 363.613 -0.582584 1.46437 0
M  V30 3756 C 364.861 -1.33814 1.51453 0
M  V30 3757 C 365.182 -1.94277 0.167792 0
M  V30 3758 O 364.452 -1.78566 -0.805677 0
M  V30 3759 H 363.032 -0.496838 0.557818 0
M  V30 3760 H 365.694 -0.682281 1.82568 0
M  V30 3761 H 364.79 -2.14479 2.26728 0
M  V30 3762 N 365.091 -1.34144 -0.827227 0
M  V30 3763 C 366.054 -1.25264 -1.91942 0
M  V30 3764 C 367.054 -0.168866 -1.59911 0
M  V30 3765 O 368.244 -0.421198 -1.69031 0
M  V30 3766 C 365.376 -0.932952 -3.27885 0
M  V30 3767 H 366.569 -2.22357 -2.0124 0
M  V30 3768 H 364.122 -1.1837 -1.0207 0
M  V30 3769 H 364.857 0.0349917 -3.24281 0
M  V30 3770 H 364.642 -1.71682 -3.52516 0
M  V30 3771 H 366.132 -0.895874 -4.07877 0
M  V30 3772 N 366.569 1.04691 -1.17803 0
M  V30 3773 C 367.816 1.77782 -0.969532 0
M  V30 3774 C 368.144 1.87926 0.501401 0
M  V30 3775 O 367.399 1.37918 1.38842 0
M  V30 3776 C 367.698 3.21467 -1.56186 0
M  V30 3777 C 367.364 3.3137 -3.05786 0
M  V30 3778 C 366.026 3.3378 -3.46619 0
M  V30 3779 C 368.378 3.31976 -4.01797 0
M  V30 3780 C 365.706 3.34431 -4.82051 0
M  V30 3781 C 368.058 3.34167 -5.37136 0
M  V30 3782 C 366.722 3.34866 -5.77426 0
M  V30 3783 H 365.992 0.650549 -0.354777 0
M  V30 3784 H 368.639 1.23006 -1.46772 0
M  V30 3785 H 366.944 3.79203 -0.985515 0
M  V30 3786 H 368.641 3.76652 -1.37602 0
M  V30 3787 H 365.231 3.3021 -2.73238 0
M  V30 3788 H 369.415 3.29311 -3.71306 0
M  V30 3789 H 364.671 3.33285 -5.12573 0
M  V30 3790 H 368.845 3.33585 -6.11305 0
M  V30 3791 H 366.472 3.35124 -6.82346 0
M  V30 3792 N 368.047 0.979072 1.23499 0
M  V30 3793 C 369.272 0.664845 1.96455 0
M  V30 3794 C 369.697 -0.761287 1.72006 0
M  V30 3795 O 369.055 -1.51837 0.990713 0
M  V30 3796 C 369.103 0.959479 3.47601 0
M  V30 3797 O 368.207 0.0508168 4.12369 0
M  V30 3798 H 367.548 0.250185 0.615064 0
M  V30 3799 H 370.078 1.31231 1.5697 0
M  V30 3800 H 370.088 0.895642 3.98048 0
M  V30 3801 H 368.763 1.99876 3.64723 0
M  V30 3802 H 367.34 0.16895 3.72517 0
M  V30 3803 N 369.525 -1.3858 0.750561 0
M  V30 3804 C 370.941 -1.53759 0.427824 0
M  V30 3805 C 371.141 -1.71401 -1.05943 0
M  V30 3806 O 370.197 -1.72331 -1.84549 0
M  V30 3807 C 371.51 -2.74642 1.22443 0
M  V30 3808 C 373.058 -2.88489 1.2142 0
M  V30 3809 C 373.533 -4.12329 1.9937 0
M  V30 3810 N 375.024 -4.194 1.96616 0
M  V30 3811 C 375.759 -5.14209 2.53727 0
M  V30 3812 N 375.255 -6.14709 3.19539 0
M  V30 3813 N 377.048 -5.06537 2.43673 0
M  V30 3814 H 369.199 -1.25377 1.71447 0
M  V30 3815 H 371.462 -0.608844 0.726645 0
M  V30 3816 H 371.168 -2.68 2.27747 0
M  V30 3817 H 371.042 -3.67745 0.839273 0
M  V30 3818 H 373.429 -2.94614 0.169232 0
M  V30 3819 H 373.51 -1.96406 1.63885 0
M  V30 3820 H 373.154 -4.06966 3.03877 0
M  V30 3821 H 373.084 -5.03486 1.54302 0
M  V30 3822 H 375.575 -3.47421 1.48684 0
M  V30 3823 H 375.888 -6.8354 3.60545 0
M  V30 3824 H 374.233 -6.1505 3.23633 0
M  V30 3825 H 377.424 -4.26962 1.91889 0
M  V30 3826 H 377.597 -5.80245 2.88479 0
M  V30 3827 N 371.003 -0.499398 -1.49478 0
M  V30 3828 C 371.933 0.269244 -2.31943 0
M  V30 3829 C 372.914 0.964054 -1.40143 0
M  V30 3830 O 374.099 0.955767 -1.69052 0
M  V30 3831 C 371.229 1.33504 -3.20615 0
M  V30 3832 C 370.183 0.760202 -4.21195 0
M  V30 3833 C 369.509 1.9264 -4.98792 0
M  V30 3834 C 370.809 -0.247661 -5.21712 0
M  V30 3835 H 372.503 -0.419082 -2.96452 0
M  V30 3836 H 370.049 -0.202988 -1.42562 0
M  V30 3837 H 372.002 1.88048 -3.77115 0
M  V30 3838 H 370.726 2.05253 -2.54045 0
M  V30 3839 H 369.385 0.23653 -3.65836 0
M  V30 3840 H 369.033 2.63154 -4.28671 0
M  V30 3841 H 368.733 1.54785 -5.66847 0
M  V30 3842 H 370.257 2.4762 -5.58137 0
M  V30 3843 H 371.671 0.209579 -5.72917 0
M  V30 3844 H 370.068 -0.541962 -5.97648 0
M  V30 3845 H 371.138 -1.16409 -4.7072 0
M  V30 3846 N 372.481 1.55866 -0.233164 0
M  V30 3847 C 373.758 1.90471 0.444988 0
M  V30 3848 C 374.138 1.15209 1.7689 0
M  V30 3849 O 373.486 0.265119 2.26957 0
M  V30 3850 C 373.696 3.4333 0.626559 0
M  V30 3851 C 375.044 4.14319 0.92871 0
M  V30 3852 O 376.068 3.48993 0.712926 0
M  V30 3853 O 374.927 5.29846 1.33887 0
M  V30 3854 H 372.021 0.792347 0.236885 0
M  V30 3855 H 374.567 1.67437 -0.276211 0
M  V30 3856 H 373.339 3.90095 -0.306822 0
M  V30 3857 H 372.962 3.72181 1.39881 0
M  V30 3858 N 373.959 -0.0401083 1.57549 0
M  V30 3859 C 375.37 -0.588097 1.77196 0
M  V30 3860 C 375.721 -1.76209 0.862832 0
M  V30 3861 O 374.846 -2.16331 0.0548389 0
M  V30 3862 C 375.441 -1.07363 3.21339 0
M  V30 3863 C 374 -1.56723 3.42221 0
M  V30 3864 C 373.147 -0.50041 2.72747 0
M  V30 3865 H 376.098 0.186119 1.57605 0
M  V30 3866 H 376.119 -1.94143 3.27244 0
M  V30 3867 H 375.631 -0.218975 3.87482 0
M  V30 3868 H 373.732 -2.4441 2.81237 0
M  V30 3869 H 373.845 -1.62234 4.50796 0
M  V30 3870 H 372.209 -0.952894 2.36203 0
M  V30 3871 H 372.992 0.344599 3.41566 0
M  V30 3872 N 375.437 -1.54477 -0.31217 0
M  V30 3873 C 376.665 -1.77205 -1.068 0
M  V30 3874 C 377.08 -0.526114 -1.81321 0
M  V30 3875 O 376.437 0.503647 -1.75413 0
M  V30 3876 C 376.488 -2.97253 -2.05725 0
M  V30 3877 O 376.209 -4.1703 -1.34228 0
M  V30 3878 C 377.71 -3.32281 -2.93435 0
M  V30 3879 H 374.93 -0.591287 -0.317208 0
M  V30 3880 H 377.474 -2.01398 -0.354834 0
M  V30 3881 H 375.629 -2.753 -2.72559 0
M  V30 3882 H 376.043 -4.84636 -2.00571 0
M  V30 3883 H 377.517 -4.19551 -3.58721 0
M  V30 3884 H 377.994 -2.49945 -3.61143 0
M  V30 3885 H 378.6 -3.56353 -2.32147 0
M  V30 3886 N 376.915 0.57481 -1.46744 0
M  V30 3887 C 378.163 1.33009 -1.52161 0
M  V30 3888 C 378.484 1.94185 -0.178092 0
M  V30 3889 O 377.754 1.7899 0.796196 0
M  V30 3890 H 376.334 0.493873 -0.560445 0
M  V30 3891 H 378.996 0.672589 -1.82927 0
M  V30 3892 H 378.092 2.13273 -2.27862 0
M  V30 3893 N 378.394 1.34581 0.820102 0
M  V30 3894 C 379.622 1.3018 1.60813 0
M  V30 3895 C 380.037 -0.123551 1.88395 0
M  V30 3896 O 379.394 -1.07148 1.47735 0
M  V30 3897 C 379.445 2.09312 2.94739 0
M  V30 3898 O 379.166 3.46288 2.68358 0
M  V30 3899 C 380.667 2.1234 3.89136 0
M  V30 3900 H 377.887 0.447726 0.499782 0
M  V30 3901 H 380.431 1.77237 1.02017 0
M  V30 3902 H 378.586 1.65889 3.50085 0
M  V30 3903 H 379 3.87227 3.53774 0
M  V30 3904 H 380.474 2.72126 4.80262 0
M  V30 3905 H 380.951 1.11854 4.24718 0
M  V30 3906 H 381.557 2.55864 3.39726 0
M  V30 3907 N 379.872 -1.04064 1.18357 0
M  V30 3908 C 381.119 -1.77265 0.978947 0
M  V30 3909 C 381.447 -1.88189 -0.491428 0
M  V30 3910 O 380.702 -1.38653 -1.38108 0
M  V30 3911 C 381.001 -3.20634 1.57888 0
M  V30 3912 C 380.667 -3.29743 3.07539 0
M  V30 3913 C 379.329 -3.31937 3.48384 0
M  V30 3914 C 381.681 -3.29841 4.03552 0
M  V30 3915 C 379.009 -3.3187 4.83818 0
M  V30 3916 C 381.361 -3.31313 5.38901 0
M  V30 3917 C 380.025 -3.31799 5.79194 0
M  V30 3918 H 379.295 -0.648659 0.358222 0
M  V30 3919 H 381.942 -1.22225 1.47422 0
M  V30 3920 H 380.247 -3.78675 1.00561 0
M  V30 3921 H 381.944 -3.75917 1.39598 0
M  V30 3922 H 378.534 -3.28757 2.74986 0
M  V30 3923 H 382.718 -3.27337 3.73047 0
M  V30 3924 H 377.974 -3.30562 5.14333 0
M  V30 3925 H 382.148 -3.30338 6.13066 0
M  V30 3926 H 379.775 -3.315 6.84114 0
M  V30 3927 N 381.35 -0.985608 -1.22978 0
M  V30 3928 C 382.26 -0.538548 -2.28335 0
M  V30 3929 C 383.276 0.409163 -1.69121 0
M  V30 3930 O 384.452 0.277797 -1.99475 0
M  V30 3931 C 381.517 0.146867 -3.46389 0
M  V30 3932 C 380.578 -0.842896 -4.20944 0
M  V30 3933 C 379.811 -0.190095 -5.33361 0
M  V30 3934 O 380.034 1.01767 -5.61248 0
M  V30 3935 O 378.968 -0.891289 -5.95264 0
M  V30 3936 H 382.794 -1.41487 -2.68729 0
M  V30 3937 H 380.379 -0.753495 -1.29007 0
M  V30 3938 H 382.261 0.531125 -4.1804 0
M  V30 3939 H 380.936 0.997871 -3.07935 0
M  V30 3940 H 379.843 -1.27795 -3.51595 0
M  V30 3941 H 381.176 -1.66287 -4.6326 0
M  V30 3942 N 382.828 1.3818 -0.7579 0
M  V30 3943 C 383.775 2.30416 -0.133057 0
M  V30 3944 C 384.745 1.50398 0.704957 0
M  V30 3945 O 385.93 1.79014 0.660192 0
M  V30 3946 C 383.07 3.36834 0.750813 0
M  V30 3947 C 382.183 4.31879 -0.102297 0
M  V30 3948 C 381.318 5.25368 0.784979 0
M  V30 3949 C 380.357 6.12058 -0.0715046 0
M  V30 3950 N 379.494 6.97832 0.772972 0
M  V30 3951 H 384.334 2.83274 -0.925186 0
M  V30 3952 H 381.871 1.39461 -0.467866 0
M  V30 3953 H 383.829 3.97145 1.27794 0
M  V30 3954 H 382.459 2.85374 1.50868 0
M  V30 3955 H 381.511 3.72991 -0.747095 0
M  V30 3956 H 382.823 4.92921 -0.763552 0
M  V30 3957 H 381.977 5.90818 1.37911 0
M  V30 3958 H 380.716 4.64703 1.47996 0
M  V30 3959 H 379.721 5.456 -0.678272 0
M  V30 3960 H 380.946 6.74793 -0.763606 0
M  V30 3961 H 378.892 6.3971 1.45282 0
M  V30 3962 H 378.809 7.55812 0.168709 0
M  V30 3963 H 380.077 7.67687 1.35194 0
M  V30 3964 N 384.306 0.507319 1.49211 0
M  V30 3965 C 385.216 -0.272136 2.33016 0
M  V30 3966 C 386.232 -0.961206 1.45041 0
M  V30 3967 O 387.408 -0.941191 1.78055 0
M  V30 3968 C 384.473 -1.31895 3.20631 0
M  V30 3969 C 383.534 -0.642648 4.24463 0
M  V30 3970 C 382.767 -1.63959 5.07891 0
M  V30 3971 O 382.99 -2.87007 4.92933 0
M  V30 3972 O 381.924 -1.19143 5.8999 0
M  V30 3973 H 385.75 0.413982 3.00865 0
M  V30 3974 H 383.335 0.268556 1.46966 0
M  V30 3975 H 385.217 -1.92446 3.7489 0
M  V30 3976 H 383.892 -1.98788 2.5547 0
M  V30 3977 H 382.799 0.00276252 3.741 0
M  V30 3978 H 384.132 -0.0160534 4.92197 0
M  V30 3979 N 385.784 -1.5574 0.241426 0
M  V30 3980 C 386.717 -2.17168 -0.700935 0
M  V30 3981 C 387.695 -1.12206 -1.1768 0
M  V30 3982 O 388.879 -1.40565 -1.25593 0
M  V30 3983 C 386.006 -2.76796 -1.95196 0
M  V30 3984 C 385.052 -3.94764 -1.61442 0
M  V30 3985 S 385.885 -5.30613 -0.72182 0
M  V30 3986 C 387.041 -5.93691 -1.98197 0
M  V30 3987 H 387.274 -2.96761 -0.178882 0
M  V30 3988 H 384.807 -1.54378 0.0259299 0
M  V30 3989 H 386.765 -3.11787 -2.67019 0
M  V30 3990 H 385.426 -1.9716 -2.44514 0
M  V30 3991 H 384.619 -4.35057 -2.54443 0
M  V30 3992 H 384.221 -3.61022 -0.976672 0
M  V30 3993 H 386.513 -6.10874 -2.92983 0
M  V30 3994 H 387.456 -6.89258 -1.62262 0
M  V30 3995 H 387.864 -5.22709 -2.13156 0
M  V30 3996 N 387.262 0.0317525 -1.57568 0
M  V30 3997 C 388.511 0.722131 -1.8833 0
M  V30 3998 C 388.824 1.76664 -0.839587 0
M  V30 3999 O 390.03 2.50942 -1.03635 0
M  V30 4000 C 388.486 1.33544 -3.34207 0
M  V30 4001 C 388.094 0.327415 -4.46802 0
M  V30 4002 C 389.838 2.00585 -3.7412 0
M  V30 4003 C 387.745 0.948915 -5.83738 0
M  V30 4004 H 386.675 0.273466 -0.702661 0
M  V30 4005 H 389.326 -0.0235811 -1.83485 0
M  V30 4006 H 387.708 2.13077 -3.33788 0
M  V30 4007 H 388.882 -0.441006 -4.58685 0
M  V30 4008 H 387.197 -0.240758 -4.15703 0
M  V30 4009 H 389.794 2.47932 -4.73744 0
M  V30 4010 H 390.137 2.82285 -3.05975 0
M  V30 4011 H 390.67 1.27831 -3.76702 0
M  V30 4012 H 387.409 0.171387 -6.55276 0
M  V30 4013 H 386.929 1.68724 -5.7558 0
M  V30 4014 H 388.608 1.45705 -6.3038 0
M  V30 4015 N 388.74 1.54641 0.303973 0
M  V30 4016 C 389.988 1.73437 1.0375 0
M  V30 4017 C 390.309 0.521449 1.87899 0
M  V30 4018 O 389.579 -0.46432 1.90318 0
M  V30 4019 H 388.159 0.639518 0.386039 0
M  V30 4020 H 390.821 1.91988 0.335675 0
M  V30 4021 H 389.917 2.62235 1.69231 0
M  V30 4022 N 390.218 -0.567019 1.47046 0
M  V30 4023 C 391.634 -0.891975 1.32348 0
M  V30 4024 C 391.834 -1.99154 0.306616 0
M  V30 4025 O 390.89 -2.50883 -0.28532 0
M  V30 4026 C 392.203 -1.29449 2.7141 0
M  V30 4027 C 393.751 -1.40646 2.79621 0
M  V30 4028 C 394.226 -1.84257 4.19301 0
M  V30 4029 N 395.717 -1.91424 4.21795 0
M  V30 4030 C 396.452 -2.26476 5.26779 0
M  V30 4031 N 395.948 -2.60211 6.42077 0
M  V30 4032 N 397.741 -2.27166 5.14152 0
M  V30 4033 H 389.892 0.159074 2.11803 0
M  V30 4034 H 392.155 0.00849752 0.947962 0
M  V30 4035 H 391.861 -0.560448 3.47206 0
M  V30 4036 H 391.735 -2.25273 3.02542 0
M  V30 4037 H 394.122 -2.13133 2.04104 0
M  V30 4038 H 394.203 -0.430339 2.52154 0
M  V30 4039 H 393.847 -1.12343 4.95319 0
M  V30 4040 H 393.777 -2.82855 4.44185 0
M  V30 4041 H 396.268 -1.6778 3.38612 0
M  V30 4042 H 396.581 -2.85956 7.17948 0
M  V30 4043 H 394.926 -2.57813 6.45413 0
M  V30 4044 H 398.117 -2.00244 4.23107 0
M  V30 4045 H 398.29 -2.54154 5.96079 0
M  V30 4046 N 391.696 -1.35014 -0.812953 0
M  V30 4047 C 392.945 -1.27269 -1.56479 0
M  V30 4048 C 393.258 0.152771 -1.95002 0
M  V30 4049 O 394.464 0.352451 -2.69203 0
M  V30 4050 C 392.92 -2.23159 -2.82362 0
M  V30 4051 C 392.528 -3.71016 -2.511 0
M  V30 4052 C 394.272 -2.24342 -3.60376 0
M  V30 4053 C 392.179 -4.58746 -3.73237 0
M  V30 4054 H 391.109 -0.472829 -0.587324 0
M  V30 4055 H 393.76 -1.6024 -0.894171 0
M  V30 4056 H 392.142 -1.83151 -3.51101 0
M  V30 4057 H 393.316 -4.1962 -1.90409 0
M  V30 4058 H 391.631 -3.72378 -1.86343 0
M  V30 4059 H 394.228 -2.87107 -4.51081 0
M  V30 4060 H 394.571 -1.24542 -3.97234 0
M  V30 4061 H 395.104 -2.62846 -2.98591 0
M  V30 4062 H 391.843 -5.59521 -3.41492 0
M  V30 4063 H 391.363 -4.14871 -4.33176 0
M  V30 4064 H 393.042 -4.73852 -4.40537 0
M  V30 4065 N 393.175 1.03435 -1.18907 0
M  V30 4066 C 394.586 1.58195 -0.991523 0
M  V30 4067 C 394.937 1.90801 0.457081 0
M  V30 4068 O 394.062 1.70272 1.33553 0
M  V30 4069 C 394.657 2.87432 -1.79355 0
M  V30 4070 C 393.216 3.38785 -1.64017 0
M  V30 4071 C 392.363 2.12292 -1.78402 0
M  V30 4072 H 395.314 0.860299 -1.33359 0
M  V30 4073 H 395.335 3.58096 -1.28638 0
M  V30 4074 H 394.847 2.63669 -2.84781 0
M  V30 4075 H 392.948 3.67547 -0.611536 0
M  V30 4076 H 393.061 4.12186 -2.44212 0
M  V30 4077 H 391.425 2.23901 -1.2141 0
M  V30 4078 H 392.208 1.90977 -2.85277 0
M  V30 4079 N 394.653 0.992116 1.22453 0
M  V30 4080 C 395.893 0.675727 1.92907 0
M  V30 4081 C 396.257 -0.777762 1.75542 0
M  V30 4082 O 397.458 -1.20553 2.40251 0
M  V30 4083 C 395.729 1.0696 3.4102 0
M  V30 4084 S 397.288 0.871456 4.30059 0
M  V30 4085 H 394.106 0.247089 0.666684 0
M  V30 4086 H 396.708 1.27423 1.48269 0
M  V30 4087 H 395.412 2.12383 3.51172 0
M  V30 4088 H 394.943 0.462858 3.90668 0
M  V30 4089 H 396.958 -0.238436 4.95627 0
M  V30 4090 N 396.131 -1.37776 0.765217 0
M  V30 4091 C 397.379 -1.99454 0.325943 0
M  V30 4092 C 397.7 -1.61049 -1.09947 0
M  V30 4093 O 396.97 -0.872821 -1.75381 0
M  V30 4094 H 395.55 -0.737697 0.117525 0
M  V30 4095 H 398.212 -1.68359 0.981895 0
M  V30 4096 H 397.308 -3.09547 0.398353 0
M  V30 4097 N 397.609 -0.515225 -1.4894 0
M  V30 4098 C 399.025 -0.172099 -1.58669 0
M  V30 4099 C 399.225 1.32405 -1.51892 0
M  V30 4100 O 398.281 2.10116 -1.40027 0
M  V30 4101 C 399.594 -0.761533 -2.90897 0
M  V30 4102 C 401.142 -0.728926 -3.04394 0
M  V30 4103 C 401.617 -1.29667 -4.39261 0
M  V30 4104 N 403.108 -1.25799 -4.4579 0
M  V30 4105 C 403.843 -1.66733 -5.48623 0
M  V30 4106 N 403.339 -2.15327 -6.58488 0
M  V30 4107 N 405.132 -1.58061 -5.39419 0
M  V30 4108 H 397.283 -1.48778 -1.51588 0
M  V30 4109 H 399.546 -0.617968 -0.718901 0
M  V30 4110 H 399.252 -1.81136 -3.01468 0
M  V30 4111 H 399.126 -0.230106 -3.76497 0
M  V30 4112 H 401.513 0.312098 -2.93445 0
M  V30 4113 H 401.594 -1.29766 -2.20442 0
M  V30 4114 H 401.238 -2.33655 -4.50963 0
M  V30 4115 H 401.168 -0.703752 -5.21876 0
M  V30 4116 H 403.659 -0.902102 -3.66975 0
M  V30 4117 H 403.972 -2.44594 -7.33071 0
M  V30 4118 H 402.317 -2.19311 -6.59491 0
M  V30 4119 H 405.508 -1.19906 -4.52482 0
M  V30 4120 H 405.681 -1.90284 -6.19432 0
M  V30 4121 N 399.087 1.5561 -0.249682 0
M  V30 4122 C 400.017 2.24477 0.642826 0
M  V30 4123 C 400.998 1.22601 1.17911 0
M  V30 4124 O 402.183 1.5126 1.21795 0
M  V30 4125 C 399.313 2.94638 1.83863 0
M  V30 4126 C 398.267 4.03227 1.435 0
M  V30 4127 C 397.593 4.60828 2.71186 0
M  V30 4128 C 398.893 5.18796 0.604002 0
M  V30 4129 H 400.587 2.99321 0.0685625 0
M  V30 4130 H 398.133 1.43965 0.0315363 0
M  V30 4131 H 400.086 3.41517 2.46868 0
M  V30 4132 H 398.81 2.17287 2.43832 0
M  V30 4133 H 397.469 3.57121 0.828275 0
M  V30 4134 H 397.117 3.80174 3.29358 0
M  V30 4135 H 396.817 5.34132 2.44901 0
M  V30 4136 H 398.341 5.10442 3.35084 0
M  V30 4137 H 399.755 5.61883 1.13842 0
M  V30 4138 H 398.152 5.98506 0.437097 0
M  V30 4139 H 399.222 4.83384 -0.383147 0
M  V30 4140 N 400.565 -0.0233959 1.57583 0
M  V30 4141 C 401.813 -0.711654 1.89156 0
M  V30 4142 C 402.134 -1.75591 0.848096 0
M  V30 4143 O 401.404 -1.95547 -0.117566 0
M  V30 4144 H 399.984 -0.265835 0.698098 0
M  V30 4145 H 402.646 0.0119948 1.94896 0
M  V30 4146 H 401.742 -1.19766 2.88206 0
M  V30 4147 N 402.043 -1.548 -0.295768 0
M  V30 4148 C 403.271 -1.78327 -1.04914 0
M  V30 4149 C 403.686 -0.545316 -1.80753 0
M  V30 4150 O 403.043 0.485013 -1.75937 0
M  V30 4151 C 403.094 -2.99418 -2.02561 0
M  V30 4152 O 402.815 -4.18431 -1.29798 0
M  V30 4153 C 404.316 -3.35375 -2.89895 0
M  V30 4154 H 401.536 -0.594618 -0.310918 0
M  V30 4155 H 404.08 -2.01763 -0.333454 0
M  V30 4156 H 402.235 -2.78175 -2.69624 0
M  V30 4157 H 402.649 -4.86736 -1.95419 0
M  V30 4158 H 404.123 -4.23332 -3.54251 0
M  V30 4159 H 404.6 -2.53761 -3.58472 0
M  V30 4160 H 405.206 -3.58796 -2.28355 0
M  V30 4161 N 403.521 0.559213 -1.47345 0
M  V30 4162 C 404.767 1.31843 -1.54095 0
M  V30 4163 C 405.1 1.93149 -0.201726 0
M  V30 4164 O 404.375 1.77759 0.789428 0
M  V30 4165 C 404.658 2.43006 -2.65744 0
M  V30 4166 C 404.511 1.86581 -4.09277 0
M  V30 4167 C 405.83 3.44943 -2.73318 0
M  V30 4168 H 402.949 0.478012 -0.560957 0
M  V30 4169 H 405.591 0.625977 -1.79392 0
M  V30 4170 H 403.741 3.02072 -2.44305 0
M  V30 4171 H 405.413 1.31792 -4.42073 0
M  V30 4172 H 403.656 1.17268 -4.17649 0
M  V30 4173 H 404.327 2.66933 -4.83168 0
M  V30 4174 H 406.803 2.95793 -2.92653 0
M  V30 4175 H 405.679 4.20153 -3.53218 0
M  V30 4176 H 405.94 4.03665 -1.80296 0
M  V30 4177 N 404.999 1.35443 0.805782 0
M  V30 4178 C 405.909 1.30546 1.94923 0
M  V30 4179 C 406.925 0.210233 1.72725 0
M  V30 4180 O 408.101 0.43975 1.9654 0
M  V30 4181 C 405.166 1.07782 3.29521 0
M  V30 4182 C 404.227 2.26625 3.64609 0
M  V30 4183 C 403.46 2.04938 4.92784 0
M  V30 4184 O 403.683 1.01624 5.61274 0
M  V30 4185 O 402.617 2.9232 5.26149 0
M  V30 4186 H 406.443 2.26779 2.02002 0
M  V30 4187 H 404.028 1.15823 0.943682 0
M  V30 4188 H 405.91 0.969392 4.10098 0
M  V30 4189 H 404.585 0.146003 3.23371 0
M  V30 4190 H 403.492 2.43033 2.84404 0
M  V30 4191 H 404.825 3.18257 3.75464 0
M  V30 4192 N 406.477 -1.02803 1.19454 0
M  V30 4193 C 407.387 -2.14575 0.948408 0
M  V30 4194 C 408.403 -1.73757 -0.091871 0
M  V30 4195 O 409.579 -2.01185 0.0929654 0
M  V30 4196 C 406.644 -3.43202 0.491265 0
M  V30 4197 C 405.705 -3.98328 1.60103 0
M  V30 4198 C 404.938 -5.20816 1.16561 0
M  V30 4199 O 405.161 -5.70392 0.0295238 0
M  V30 4200 O 404.095 -5.68801 1.96849 0
M  V30 4201 H 407.921 -2.38202 1.88397 0
M  V30 4202 H 405.506 -1.12989 0.977433 0
M  V30 4203 H 407.388 -4.20687 0.245015 0
M  V30 4204 H 406.063 -3.21018 -0.415851 0
M  V30 4205 H 404.97 -3.22174 1.90144 0
M  V30 4206 H 406.303 -4.24879 2.48473 0
M  V30 4207 N 407.956 -0.998596 -1.21925 0
M  V30 4208 C 408.886 -0.573688 -2.26343 0
M  V30 4209 C 409.867 0.402296 -1.65274 0
M  V30 4210 O 411.052 0.291683 -1.91997 0
M  V30 4211 C 408.182 0.106839 -3.47136 0
M  V30 4212 C 407.136 -0.788269 -4.20678 0
M  V30 4213 C 406.462 0.0254927 -5.34694 0
M  V30 4214 C 407.762 -2.08784 -4.78755 0
M  V30 4215 H 409.456 -1.44651 -2.62138 0
M  V30 4216 H 407.002 -0.696975 -1.26009 0
M  V30 4217 H 408.955 0.415531 -4.19346 0
M  V30 4218 H 407.679 1.01424 -3.10452 0
M  V30 4219 H 406.338 -1.08069 -3.50309 0
M  V30 4220 H 405.986 0.933989 -4.94253 0
M  V30 4221 H 405.686 -0.570437 -5.84825 0
M  V30 4222 H 407.21 0.328147 -6.09718 0
M  V30 4223 H 408.624 -1.84272 -5.42878 0
M  V30 4224 H 407.021 -2.63307 -5.39249 0
M  V30 4225 H 408.091 -2.76284 -3.98491 0
M  V30 4226 N 409.434 1.37368 -0.772513 0
M  V30 4227 C 410.397 2.28601 -0.165541 0
M  V30 4228 C 411.397 1.48062 0.627238 0
M  V30 4229 O 412.587 1.68268 0.450715 0
M  V30 4230 C 409.719 3.32023 0.772897 0
M  V30 4231 H 410.912 2.83787 -0.969787 0
M  V30 4232 H 408.465 1.46647 -0.540775 0
M  V30 4233 H 409.2 2.81962 1.60212 0
M  V30 4234 H 408.985 3.91555 0.206585 0
M  V30 4235 H 410.475 4.00197 1.19298 0
M  V30 4236 N 410.912 0.523116 1.48665 0
M  V30 4237 C 411.86 -0.256859 2.31177 0
M  V30 4238 C 412.854 -0.94199 1.40794 0
M  V30 4239 O 414.06 -0.867157 1.57735 0
M  V30 4240 H 410.435 -0.1017 0.745091 0
M  V30 4241 H 412.406 0.458739 2.94853 0
M  V30 4242 C 411.155 -1.29503 3.22683 0
M  V30 4243 H 410.478 -0.777248 3.92172 0
M  V30 4244 H 411.918 -1.81233 3.83315 0
M  V30 4245 C 410.377 -2.32501 2.43813 0
M  V30 4246 O 410.907 -3.3881 2.15803 0
M  V30 4247 N 409.113 -2.05538 2.05432 0
M  V30 4248 H 408.66 -1.19104 2.28412 0
M  V30 4249 H 408.618 -2.74676 1.52973 0
M  V30 4250 N 412.39 -1.55475 0.257931 0
M  V30 4251 C 413.32 -2.24815 -0.630912 0
M  V30 4252 C 414.301 -1.23224 -1.17259 0
M  V30 4253 O 415.486 -1.51904 -1.20991 0
M  V30 4254 C 412.616 -2.95609 -1.82298 0
M  V30 4255 C 411.57 -4.03982 -1.41359 0
M  V30 4256 C 410.896 -4.6226 -2.68738 0
M  V30 4257 C 412.196 -5.19109 -0.57648 0
M  V30 4258 H 413.89 -2.99354 -0.0526878 0
M  V30 4259 H 411.436 -1.4398 -0.023901 0
M  V30 4260 H 413.389 -3.42822 -2.45054 0
M  V30 4261 H 412.113 -2.18577 -2.42676 0
M  V30 4262 H 410.772 -3.57555 -0.809324 0
M  V30 4263 H 410.42 -3.81915 -3.27338 0
M  V30 4264 H 410.12 -5.35424 -2.42065 0
M  V30 4265 H 411.644 -5.12212 -3.32372 0
M  V30 4266 H 413.058 -5.62479 -1.10861 0
M  V30 4267 H 411.455 -5.98729 -0.405351 0
M  V30 4268 H 412.525 -4.83174 0.408776 0
M  V30 4269 N 413.868 0.0150385 -1.57593 0
M  V30 4270 C 414.831 0.995996 -2.06428 0
M  V30 4271 C 415.831 1.2818 -0.970903 0
M  V30 4272 O 417.021 1.22949 -1.23406 0
M  V30 4273 C 414.153 2.32506 -2.49307 0
M  V30 4274 H 415.346 0.573873 -2.94358 0
M  V30 4275 H 412.899 0.262186 -1.54085 0
M  V30 4276 H 413.634 2.79438 -1.64575 0
M  V30 4277 H 413.419 2.13087 -3.29145 0
M  V30 4278 H 414.909 3.02906 -2.87468 0
M  V30 4279 N 415.346 1.54954 0.287554 0
M  V30 4280 C 416.309 1.86076 1.33823 0
M  V30 4281 C 417.309 0.734414 1.43049 0
M  V30 4282 O 418.499 1.00266 1.42452 0
M  V30 4283 C 415.631 2.05305 2.72144 0
M  V30 4284 H 416.824 2.79984 1.07465 0
M  V30 4285 H 414.377 1.47223 0.524902 0
M  V30 4286 H 415.112 1.1373 3.03704 0
M  V30 4287 H 414.897 2.873 2.66836 0
M  V30 4288 H 416.387 2.30706 3.48087 0
M  V30 4289 N 416.824 -0.551391 1.4764 0
M  V30 4290 C 418.071 -1.3083 1.54563 0
M  V30 4291 C 418.399 -1.93359 0.210361 0
M  V30 4292 O 417.654 -1.78721 -0.797332 0
M  V30 4293 C 417.953 -2.43469 2.61644 0
M  V30 4294 C 417.619 -1.98732 4.04742 0
M  V30 4295 C 416.281 -1.86248 4.43695 0
M  V30 4296 C 418.633 -1.64659 4.94507 0
M  V30 4297 C 415.961 -1.37995 5.70241 0
M  V30 4298 C 418.313 -1.17875 6.21521 0
M  V30 4299 C 416.977 -1.03992 6.5935 0
M  V30 4300 H 416.247 -0.478741 0.565587 0
M  V30 4301 H 418.894 -0.617697 1.81264 0
M  V30 4302 H 417.199 -3.18109 2.28722 0
M  V30 4303 H 418.896 -3.01642 2.64222 0
M  V30 4304 H 415.486 -2.09393 3.73968 0
M  V30 4305 H 419.67 -1.73174 4.65107 0
M  V30 4306 H 414.926 -1.25915 5.98294 0
M  V30 4307 H 419.1 -0.905739 6.90485 0
M  V30 4308 H 416.727 -0.663794 7.57296 0
M  V30 4309 N 418.302 -1.35869 -0.798587 0
M  V30 4310 C 419.232 -1.32118 -1.92528 0
M  V30 4311 C 420.213 -0.194209 -1.68988 0
M  V30 4312 O 421.398 -0.390426 -1.90235 0
M  V30 4313 C 418.528 -1.10047 -3.29404 0
M  V30 4314 C 417.482 -2.19471 -3.67446 0
M  V30 4315 C 416.808 -1.82555 -5.02571 0
M  V30 4316 C 418.108 -3.61495 -3.76987 0
M  V30 4317 H 419.802 -2.26394 -1.95924 0
M  V30 4318 H 417.348 -1.08981 -0.94123 0
M  V30 4319 H 419.301 -1.06061 -4.07835 0
M  V30 4320 H 418.025 -0.122195 -3.26371 0
M  V30 4321 H 416.684 -2.22568 -2.91306 0
M  V30 4322 H 416.332 -0.833249 -4.9605 0
M  V30 4323 H 416.032 -2.5581 -5.28995 0
M  V30 4324 H 417.556 -1.80108 -5.83432 0
M  V30 4325 H 418.97 -3.60676 -4.4563 0
M  V30 4326 H 417.367 -4.33577 -4.14887 0
M  V30 4327 H 418.437 -3.97065 -2.78329 0
M  V30 4328 N 419.78 1.02168 -1.19998 0
M  V30 4329 C 421.02 1.77232 -1.01825 0
M  V30 4330 C 421.384 1.86833 0.442428 0
M  V30 4331 O 422.585 2.58293 0.744189 0
M  V30 4332 C 420.856 3.15601 -1.67722 0
M  V30 4333 S 422.415 4.06765 -1.64584 0
M  V30 4334 H 419.233 0.610021 -0.365233 0
M  V30 4335 H 421.835 1.22368 -1.52467 0
M  V30 4336 H 420.539 3.06235 -2.73218 0
M  V30 4337 H 420.07 3.7554 -1.17189 0
M  V30 4338 H 422.085 4.91586 -0.67511 0
M  V30 4339 N 421.258 1.00505 1.21394 0
M  V30 4340 C 422.483 0.706367 1.95001 0
M  V30 4341 C 422.908 -0.72463 1.73582 0
M  V30 4342 O 422.266 -1.49702 1.0227 0
M  V30 4343 C 422.314 1.03299 3.45487 0
M  V30 4344 O 421.418 0.138275 4.12168 0
M  V30 4345 H 420.759 0.263175 0.609619 0
M  V30 4346 H 423.289 1.34531 1.54151 0
M  V30 4347 H 423.299 0.979872 3.96059 0
M  V30 4348 H 421.974 2.07567 3.60401 0
M  V30 4349 H 420.551 0.247928 3.72075 0
M  V30 4350 N 422.737 -1.36956 0.779787 0
M  V30 4351 C 424.014 -1.93697 0.272156 0
M  V30 4352 C 424.394 -1.71267 -1.23413 0
M  V30 4353 O 423.742 -1.06607 -2.02107 0
M  V30 4354 C 423.952 -3.42812 0.654291 0
M  V30 4355 C 425.3 -4.19921 0.628602 0
M  V30 4356 O 426.324 -3.51209 0.594172 0
M  V30 4357 O 425.183 -5.42465 0.662864 0
M  V30 4358 H 422.277 -0.824447 0.0649286 0
M  V30 4359 H 424.823 -1.46196 0.861682 0
M  V30 4360 H 423.595 -3.52754 1.69353 0
M  V30 4361 H 423.218 -3.97582 0.0381369 0
M  V30 4362 N 424.215 -0.530993 -1.48385 0
M  V30 4363 C 425.445 -0.00133928 -2.066 0
M  V30 4364 C 425.853 1.28599 -1.38777 0
M  V30 4365 O 425.196 1.77599 -0.469495 0
M  V30 4366 C 425.258 0.292137 -3.58311 0
M  V30 4367 C 424.922 -0.901864 -4.48013 0
M  V30 4368 C 425.919 -1.80053 -4.87726 0
M  V30 4369 C 423.604 -1.10915 -4.89901 0
M  V30 4370 C 425.598 -2.89038 -5.68098 0
M  V30 4371 C 423.285 -2.20213 -5.70043 0
M  V30 4372 C 424.283 -3.09107 -6.0905 0
M  V30 4373 O 423.971 -4.16514 -6.87583 0
M  V30 4374 H 423.703 -0.0308475 -0.675296 0
M  V30 4375 H 426.257 -0.736335 -1.91748 0
M  V30 4376 H 424.487 1.08112 -3.7128 0
M  V30 4377 H 426.176 0.763994 -3.98645 0
M  V30 4378 H 426.942 -1.65234 -4.55986 0
M  V30 4379 H 422.821 -0.426498 -4.59023 0
M  V30 4380 H 426.365 -3.58451 -5.98464 0
M  V30 4381 H 422.262 -2.35016 -6.01197 0
M  V30 4382 H 423.03 -4.14237 -7.05939 0
M  V30 4383 N 425.693 1.55336 -0.266172 0
M  V30 4384 C 426.656 2.20878 0.612001 0
M  V30 4385 C 427.656 1.18388 1.08816 0
M  V30 4386 O 428.846 1.4335 0.989774 0
M  V30 4387 C 425.978 2.86765 1.84332 0
M  V30 4388 H 427.171 2.99873 0.0398718 0
M  V30 4389 H 424.724 1.56291 -0.0167309 0
M  V30 4390 H 425.459 2.11759 2.45619 0
M  V30 4391 H 425.244 3.61862 1.5099 0
M  V30 4392 H 426.734 3.36867 2.46801 0
M  V30 4393 N 427.171 -0.0066808 1.57599 0
M  V30 4394 C 428.396 -0.707738 1.94951 0
M  V30 4395 C 428.821 -1.66882 0.867868 0
M  V30 4396 O 428.179 -1.80457 -0.17458 0
M  V30 4397 C 428.227 -1.42162 3.31394 0
M  V30 4398 O 427.331 -2.53578 3.25226 0
M  V30 4399 H 426.672 -0.188752 0.636607 0
M  V30 4400 H 429.202 0.0445193 2.04552 0
M  V30 4401 H 429.212 -1.78655 3.66806 0
M  V30 4402 H 427.887 -0.716903 4.09675 0
M  V30 4403 H 426.464 -2.19463 3.01481 0
M  V30 4404 N 428.649 -1.55105 -0.279332 0
M  V30 4405 C 429.895 -1.76597 -1.00921 0
M  V30 4406 C 430.25 -0.556831 -1.84166 0
M  V30 4407 O 429.543 0.450573 -1.86227 0
M  V30 4408 C 429.737 -3.0086 -1.92919 0
M  V30 4409 C 429.566 -4.33744 -1.18728 0
M  V30 4410 C 428.336 -4.9712 -0.905545 0
M  V30 4411 C 430.534 -5.11009 -0.580857 0
M  V30 4412 N 428.516 -6.13749 -0.136169 0
M  V30 4413 C 429.887 -6.19976 0.0546661 0
M  V30 4414 C 431.942 -4.95502 -0.488067 0
M  V30 4415 C 430.645 -7.15123 0.774028 0
M  V30 4416 C 432.671 -5.90999 0.217688 0
M  V30 4417 C 432.033 -6.9935 0.841975 0
M  V30 4418 H 428.132 -0.698553 -0.351493 0
M  V30 4419 H 430.716 -1.92595 -0.285531 0
M  V30 4420 H 428.887 -2.86249 -2.62519 0
M  V30 4421 H 430.619 -3.10784 -2.59221 0
M  V30 4422 H 427.374 -4.57903 -1.20921 0
M  V30 4423 H 427.798 -6.7659 0.235665 0
M  V30 4424 H 432.44 -4.11841 -0.956406 0
M  V30 4425 H 430.158 -7.9831 1.25407 0
M  V30 4426 H 433.744 -5.81078 0.289717 0
M  V30 4427 H 432.624 -7.71973 1.37939 0
M  V30 4428 N 430.127 0.543554 -1.4793 0
M  V30 4429 C 431.376 1.29649 -1.54512 0
M  V30 4430 C 431.689 1.94382 -0.217973 0
M  V30 4431 O 432.895 2.71017 -0.161908 0
M  V30 4432 C 431.351 2.35175 -2.72435 0
M  V30 4433 C 430.959 1.76572 -4.11736 0
M  V30 4434 C 432.703 3.11564 -2.8832 0
M  V30 4435 C 430.61 2.79958 -5.20939 0
M  V30 4436 H 429.54 0.487541 -0.57517 0
M  V30 4437 H 432.191 0.575708 -1.74235 0
M  V30 4438 H 430.573 3.10229 -2.46118 0
M  V30 4439 H 431.747 1.07799 -4.48013 0
M  V30 4440 H 430.062 1.12722 -4.00852 0
M  V30 4441 H 432.659 3.88794 -3.67074 0
M  V30 4442 H 433.002 3.66594 -1.97268 0
M  V30 4443 H 433.535 2.43623 -3.14472 0
M  V30 4444 H 430.274 2.29766 -6.13912 0
M  V30 4445 H 429.794 3.47101 -4.89164 0
M  V30 4446 H 431.473 3.43198 -5.48474 0
M  V30 4447 N 431.605 1.3629 0.791371 0
M  V30 4448 C 432.553 1.30514 1.92533 0
M  V30 4449 C 433.547 0.197285 1.68247 0
M  V30 4450 O 434.753 0.364176 1.76278 0
M  V30 4451 H 431.128 0.406263 0.632815 0
M  V30 4452 H 433.099 2.26282 1.94523 0
M  V30 4453 C 431.848 1.10933 3.29529 0
M  V30 4454 H 431.171 1.95427 3.48781 0
M  V30 4455 H 432.611 1.10937 4.0923 0
M  V30 4456 C 431.07 -0.186123 3.36385 0
M  V30 4457 O 431.6 -1.17664 3.84081 0
M  V30 4458 N 429.806 -0.230128 2.89687 0
M  V30 4459 H 429.353 0.576545 2.51065 0
M  V30 4460 H 429.311 -1.09658 2.94657 0
M  V30 4461 N 433.083 -1.0153 1.20538 0
M  V30 4462 C 434.331 -1.74803 1.01432 0
M  V30 4463 C 434.652 -1.8963 -0.454456 0
M  V30 4464 O 433.922 -1.43975 -1.32846 0
M  V30 4465 H 432.502 -0.647598 0.372324 0
M  V30 4466 H 435.164 -1.22402 1.5167 0
M  V30 4467 H 434.26 -2.75114 1.47373 0
M  V30 4468 N 434.561 -1.01147 -1.20859 0
M  V30 4469 C 435.524 -0.582224 -2.21682 0
M  V30 4470 C 436.524 0.344887 -1.57058 0
M  V30 4471 O 437.714 0.134281 -1.73682 0
M  V30 4472 C 434.846 0.150496 -3.40568 0
M  V30 4473 H 436.039 -1.47408 -2.61172 0
M  V30 4474 H 433.592 -0.800695 -1.34233 0
M  V30 4475 H 434.327 1.0575 -3.06574 0
M  V30 4476 H 434.112 -0.515444 -3.88697 0
M  V30 4477 H 435.602 0.438344 -4.15293 0
M  V30 4478 N 436.039 1.36541 -0.78704 0
M  V30 4479 C 437.285 1.99599 -0.358872 0
M  V30 4480 C 437.618 1.62323 1.06606 0
M  V30 4481 O 436.893 0.876858 1.73613 0
M  V30 4482 C 437.176 3.56327 -0.519944 0
M  V30 4483 C 437.029 4.03464 -1.98839 0
M  V30 4484 C 438.348 4.4005 0.0664737 0
M  V30 4485 H 435.467 0.725107 -0.131869 0
M  V30 4486 H 438.109 1.6199 -0.992936 0
M  V30 4487 H 436.259 3.88495 0.0198321 0
M  V30 4488 H 437.931 3.81793 -2.58905 0
M  V30 4489 H 436.174 3.55092 -2.49183 0
M  V30 4490 H 436.845 5.12439 -2.05207 0
M  V30 4491 H 439.321 4.14228 -0.394267 0
M  V30 4492 H 438.197 5.48847 -0.0762682 0
M  V30 4493 H 438.458 4.26655 1.15835 0
M  V30 4494 N 437.518 0.538854 1.48102 0
M  V30 4495 C 438.767 0.0059532 2.01699 0
M  V30 4496 C 439.08 -1.34476 1.42041 0
M  V30 4497 O 440.286 -1.96653 1.87189 0
M  V30 4498 C 438.742 -0.0397627 3.59878 0
M  V30 4499 C 438.35 1.30659 4.28523 0
M  V30 4500 C 440.094 -0.521024 4.2129 0
M  V30 4501 C 438.001 1.22098 5.78659 0
M  V30 4502 H 436.931 -0.00154456 0.753998 0
M  V30 4503 H 439.582 0.683963 1.70277 0
M  V30 4504 H 437.964 -0.783037 3.88181 0
M  V30 4505 H 439.138 2.06613 4.11883 0
M  V30 4506 H 437.453 1.7243 3.79021 0
M  V30 4507 H 440.05 -0.603184 5.31287 0
M  V30 4508 H 440.393 -1.52885 3.8721 0
M  V30 4509 H 440.926 0.166834 3.9745 0
M  V30 4510 H 437.665 2.20424 6.17328 0
M  V30 4511 H 437.185 0.50295 5.97688 0
M  V30 4512 H 438.864 0.915345 6.40492 0
M  V30 4513 N 438.996 -1.55193 0.274407 0
M  V30 4514 C 439.943 -2.225 -0.613374 0
M  V30 4515 C 440.913 -1.19823 -1.15029 0
M  V30 4516 O 442.098 -1.48362 -1.19973 0
M  V30 4517 C 439.238 -2.94927 -1.79199 0
M  V30 4518 C 438.351 -4.12322 -1.28899 0
M  V30 4519 C 437.486 -4.72394 -2.42934 0
M  V30 4520 C 436.525 -5.81984 -1.89634 0
M  V30 4521 N 435.662 -6.36123 -2.9714 0
M  V30 4522 H 440.502 -2.97982 -0.032756 0
M  V30 4523 H 438.039 -1.47099 -0.00440146 0
M  V30 4524 H 439.997 -3.35134 -2.48478 0
M  V30 4525 H 438.627 -2.2187 -2.34465 0
M  V30 4526 H 437.679 -3.7724 -0.489327 0
M  V30 4527 H 438.991 -4.91355 -0.858587 0
M  V30 4528 H 438.145 -5.15317 -3.20208 0
M  V30 4529 H 436.884 -3.92636 -2.8929 0
M  V30 4530 H 435.889 -5.38511 -1.1084 0
M  V30 4531 H 437.114 -6.6361 -1.44215 0
M  V30 4532 H 435.06 -5.59259 -3.42878 0
M  V30 4533 H 434.977 -7.10427 -2.58515 0
M  V30 4534 H 436.245 -6.83704 -3.74391 0
M  V30 4535 N 440.474 -0.00167713 -1.576 0
M  V30 4536 C 441.721 0.68282 -1.90641 0
M  V30 4537 C 442.049 1.73686 -0.875415 0
M  V30 4538 O 441.304 1.95334 0.119575 0
M  V30 4539 C 441.603 1.36189 -3.30435 0
M  V30 4540 C 441.269 0.440887 -4.48739 0
M  V30 4541 C 439.931 0.187312 -4.80835 0
M  V30 4542 C 442.283 -0.193134 -5.20842 0
M  V30 4543 C 439.611 -0.70855 -5.82406 0
M  V30 4544 C 441.963 -1.07688 -6.23367 0
M  V30 4545 C 440.627 -1.33962 -6.53919 0
M  V30 4546 H 439.897 0.249862 -0.697603 0
M  V30 4547 H 442.544 -0.0575642 -1.91413 0
M  V30 4548 H 440.849 2.17636 -3.25794 0
M  V30 4549 H 442.546 1.89759 -3.5326 0
M  V30 4550 H 439.136 0.648694 -4.23663 0
M  V30 4551 H 443.32 -0.0102445 -4.96299 0
M  V30 4552 H 438.576 -0.920097 -6.04437 0
M  V30 4553 H 442.75 -1.57451 -6.78367 0
M  V30 4554 H 440.377 -2.03549 -7.32442 0
M  V30 4555 N 441.952 1.55251 0.271103 0
M  V30 4556 C 443.229 1.66664 1.02384 0
M  V30 4557 C 443.609 0.534363 2.04225 0
M  V30 4558 O 442.957 -0.465337 2.23712 0
M  V30 4559 C 443.167 3.05961 1.67895 0
M  V30 4560 C 444.515 3.63772 2.18986 0
M  V30 4561 O 445.539 3.08606 1.77878 0
M  V30 4562 O 444.398 4.60429 2.94393 0
M  V30 4563 H 441.492 0.676957 0.475035 0
M  V30 4564 H 444.038 1.67589 0.26681 0
M  V30 4565 H 442.81 3.79815 0.941071 0
M  V30 4566 H 442.433 3.08943 2.5028 0
M  V30 4567 N 443.43 -0.535701 1.48216 0
M  V30 4568 C 444.678 -1.28928 1.55634 0
M  V30 4569 C 444.999 -1.93645 0.229514 0
M  V30 4570 O 444.269 -1.81038 -0.74846 0
M  V30 4571 H 442.849 -0.47884 0.573342 0
M  V30 4572 H 445.511 -0.623853 1.84646 0
M  V30 4573 H 444.607 -2.07157 2.33436 0
M  V30 4574 N 444.908 -1.36708 -0.784132 0
M  V30 4575 C 446.156 -1.30972 -1.53918 0
M  V30 4576 C 446.477 0.109086 -1.94695 0
M  V30 4577 O 445.747 1.05048 -1.65353 0
M  V30 4578 H 444.327 -0.481819 -0.570841 0
M  V30 4579 H 446.989 -1.71063 -0.934002 0
M  V30 4580 H 446.085 -1.94061 -2.44431 0
M  V30 4581 N 446.386 1.0089 -1.21074 0
M  V30 4582 C 447.296 2.13039 -0.982425 0
M  V30 4583 C 448.312 1.73881 0.0642161 0
M  V30 4584 O 449.488 2.01012 -0.12496 0
M  V30 4585 C 446.553 3.42377 -0.545803 0
M  V30 4586 C 445.614 3.95731 -1.6642 0
M  V30 4587 C 444.847 5.18896 -1.24832 0
M  V30 4588 O 445.07 5.70273 -0.120265 0
M  V30 4589 O 444.004 5.65597 -2.05873 0
M  V30 4590 H 447.83 2.35175 -1.92163 0
M  V30 4591 H 445.415 1.1142 -0.995285 0
M  V30 4592 H 447.297 4.20244 -0.311912 0
M  V30 4593 H 445.972 3.21639 0.364727 0
M  V30 4594 H 444.879 3.19108 -1.95246 0
M  V30 4595 H 446.212 4.20872 -2.55201 0
M  V30 4596 N 447.864 1.01787 1.20321 0
M  V30 4597 C 448.774 0.598898 2.26827 0
M  V30 4598 C 449.79 -0.36418 1.70146 0
M  V30 4599 O 450.966 -0.224812 2.00141 0
M  V30 4600 C 448.031 -0.0549769 3.46656 0
M  V30 4601 C 447.092 0.954205 4.18561 0
M  V30 4602 C 446.325 0.331439 5.3267 0
M  V30 4603 O 446.548 -0.86851 5.63749 0
M  V30 4604 O 445.482 1.0488 5.92692 0
M  V30 4605 H 449.308 1.48562 2.64883 0
M  V30 4606 H 446.893 0.787434 1.26964 0
M  V30 4607 H 448.775 -0.420102 4.19301 0
M  V30 4608 H 447.45 -0.915876 3.10473 0
M  V30 4609 H 446.357 1.37072 3.48083 0
M  V30 4610 H 447.69 1.78511 4.58688 0
M  V30 4611 N 449.342 -1.36122 0.79427 0
M  V30 4612 C 450.588 -1.99406 0.369452 0
M  V30 4613 C 450.921 -1.62886 -1.05743 0
M  V30 4614 O 450.196 -0.886053 -1.73145 0
M  V30 4615 C 450.479 -3.56046 0.538833 0
M  V30 4616 C 450.332 -4.02404 2.00976 0
M  V30 4617 C 451.651 -4.40079 -0.0431359 0
M  V30 4618 H 448.77 -0.724397 0.135712 0
M  V30 4619 H 451.412 -1.61461 1.00151 0
M  V30 4620 H 449.562 -3.885 0.000771004 0
M  V30 4621 H 451.234 -3.80415 2.60926 0
M  V30 4622 H 449.477 -3.53765 2.51063 0
M  V30 4623 H 450.148 -5.11344 2.07922 0
M  V30 4624 H 452.624 -4.14013 0.416228 0
M  V30 4625 H 451.5 -5.48799 0.105374 0
M  V30 4626 H 451.761 -4.27264 -1.13571 0
M  V30 4627 N 450.82 -0.546701 -1.47814 0
M  V30 4628 C 451.75 0.195317 -2.32682 0
M  V30 4629 C 452.731 0.918981 -1.43139 0
M  V30 4630 O 453.916 0.901501 -1.72008 0
M  V30 4631 C 451.046 1.23237 -3.247 0
M  V30 4632 C 450 0.625818 -4.234 0
M  V30 4633 C 449.326 1.76674 -5.04669 0
M  V30 4634 C 450.626 -0.413515 -5.2066 0
M  V30 4635 H 452.32 -0.513184 -2.94969 0
M  V30 4636 H 449.866 -0.248241 -1.41844 0
M  V30 4637 H 451.819 1.75955 -3.82907 0
M  V30 4638 H 450.543 1.97067 -2.60446 0
M  V30 4639 H 449.202 0.120023 -3.66403 0
M  V30 4640 H 448.85 2.49383 -4.36826 0
M  V30 4641 H 448.55 1.36673 -5.71484 0
M  V30 4642 H 450.074 2.29738 -5.65732 0
M  V30 4643 H 451.488 0.0272042 -5.73294 0
M  V30 4644 H 449.885 -0.731825 -5.95621 0
M  V30 4645 H 450.955 -1.31325 -4.66778 0
M  V30 4646 N 452.299 1.55045 -0.282633 0
M  V30 4647 C 453.548 1.98938 0.332667 0
M  V30 4648 C 453.861 1.17455 1.56409 0
M  V30 4649 O 455.067 1.51527 2.25282 0
M  V30 4650 C 453.523 3.54105 0.643226 0
M  V30 4651 C 453.131 4.44374 -0.568814 0
M  V30 4652 C 454.875 4.06569 1.22074 0
M  V30 4653 C 452.782 5.90943 -0.232426 0
M  V30 4654 H 451.712 0.743043 0.128075 0
M  V30 4655 H 454.363 1.79341 -0.388464 0
M  V30 4656 H 452.745 3.69532 1.42346 0
M  V30 4657 H 453.919 4.40718 -1.34551 0
M  V30 4658 H 452.234 4.02585 -1.06369 0
M  V30 4659 H 454.831 5.13626 1.48635 0
M  V30 4660 H 455.174 3.56057 2.15707 0
M  V30 4661 H 455.707 3.94612 0.502621 0
M  V30 4662 H 452.446 6.45567 -1.13683 0
M  V30 4663 H 451.966 5.9765 0.507357 0
M  V30 4664 H 453.645 6.4677 0.172657 0
M  V30 4665 N 453.777 0.010035 1.57597 0
M  V30 4666 C 455.002 -0.687021 1.95691 0
M  V30 4667 C 455.427 -1.65952 0.885519 0
M  V30 4668 O 454.785 -1.80633 -0.15543 0
M  V30 4669 C 454.833 -1.3864 3.32884 0
M  V30 4670 O 453.937 -2.50115 3.27897 0
M  V30 4671 H 453.278 -0.181989 0.638573 0
M  V30 4672 H 455.808 0.0662122 2.04493 0
M  V30 4673 H 455.818 -1.74754 3.6868 0
M  V30 4674 H 454.493 -0.673411 4.10412 0
M  V30 4675 H 453.07 -2.16253 3.03791 0
M  V30 4676 N 455.255 -1.55392 -0.262866 0
M  V30 4677 C 456.503 -1.76127 -0.991147 0
M  V30 4678 C 456.824 -0.571083 -1.8645 0
M  V30 4679 O 456.094 0.413698 -1.91482 0
M  V30 4680 H 454.674 -0.649528 -0.368948 0
M  V30 4681 H 457.336 -1.9281 -0.284655 0
M  V30 4682 H 456.432 -2.6663 -1.62219 0
M  V30 4683 N 456.733 0.527833 -1.48498 0
M  V30 4684 C 457.643 1.65907 -1.65867 0
M  V30 4685 C 458.659 1.6537 -0.541192 0
M  V30 4686 O 459.835 1.84282 -0.812534 0
M  V30 4687 C 456.9 3.02364 -1.69637 0
M  V30 4688 C 455.961 3.1374 -2.93028 0
M  V30 4689 C 455.194 4.43688 -2.96609 0
M  V30 4690 O 455.417 5.30913 -2.08538 0
M  V30 4691 O 454.351 4.59475 -3.88802 0
M  V30 4692 H 458.177 1.5419 -2.61647 0
M  V30 4693 H 455.762 0.701163 -1.31924 0
M  V30 4694 H 457.644 3.83515 -1.74625 0
M  V30 4695 H 456.319 3.14401 -0.770312 0
M  V30 4696 H 455.226 2.31877 -2.93571 0
M  V30 4697 H 456.559 3.06621 -3.85026 0
M  V30 4698 N 458.211 1.37122 0.776871 0
M  V30 4699 C 459.458 1.32047 1.53524 0
M  V30 4700 C 459.786 -0.0965631 1.9426 0
M  V30 4701 O 459.041 -1.06866 1.63945 0
M  V30 4702 C 459.34 2.20068 2.81611 0
M  V30 4703 C 459.006 3.68423 2.59953 0
M  V30 4704 C 457.668 4.08854 2.53755 0
M  V30 4705 C 460.02 4.62431 2.40431 0
M  V30 4706 C 457.348 5.41417 2.26018 0
M  V30 4707 C 459.7 5.95225 2.14219 0
M  V30 4708 C 458.364 6.34767 2.06462 0
M  V30 4709 H 457.634 0.483196 0.561785 0
M  V30 4710 H 460.281 1.69284 0.895268 0
M  V30 4711 H 458.586 1.75809 3.50141 0
M  V30 4712 H 460.283 2.13458 3.39465 0
M  V30 4713 H 456.873 3.36354 2.65638 0
M  V30 4714 H 461.057 4.32057 2.44213 0
M  V30 4715 H 456.313 5.71022 2.18504 0
M  V30 4716 H 460.487 6.67626 1.98112 0
M  V30 4717 H 458.114 7.37413 1.84733 0
M  V30 4718 N 459.689 -1.00246 1.21608 0
M  V30 4719 C 460.637 -2.11193 0.97469 0
M  V30 4720 C 461.631 -1.69216 -0.0789303 0
M  V30 4721 O 462.837 -1.79853 0.0726806 0
M  V30 4722 H 459.212 -0.690455 0.297953 0
M  V30 4723 H 461.183 -2.2873 1.91638 0
M  V30 4724 C 459.932 -3.43182 0.558717 0
M  V30 4725 H 459.255 -3.75918 1.3611 0
M  V30 4726 H 460.695 -4.21823 0.429154 0
M  V30 4727 C 459.154 -3.28882 -0.730648 0
M  V30 4728 O 459.684 -3.59835 -1.78554 0
M  V30 4729 N 457.89 -2.8209 -0.698131 0
M  V30 4730 H 457.437 -2.57099 0.16061 0
M  V30 4731 H 457.395 -2.72903 -1.56113 0
M  V30 4732 N 461.167 -1.02423 -1.1978 0
M  V30 4733 C 462.444 -0.632802 -1.85081 0
M  V30 4734 C 462.824 0.888745 -1.9148 0
M  V30 4735 O 462.172 1.78357 -1.42832 0
M  V30 4736 C 462.382 -1.28947 -3.24305 0
M  V30 4737 C 463.73 -1.40976 -4.00513 0
M  V30 4738 O 464.754 -1.24628 -3.33686 0
M  V30 4739 O 463.613 -1.67467 -5.20209 0
M  V30 4740 H 460.707 -0.219348 -0.79738 0
M  V30 4741 H 463.253 -1.12209 -1.27307 0
M  V30 4742 H 462.025 -2.3288 -3.14456 0
M  V30 4743 H 461.648 -0.787748 -3.89718 0
M  V30 4744 N 462.645 1.35699 -0.801477 0
M  V30 4745 C 463.575 2.32436 -0.222658 0
M  V30 4746 C 464.556 1.5723 0.649057 0
M  V30 4747 O 465.741 1.85324 0.580387 0
M  V30 4748 C 462.871 3.41469 0.633719 0
M  V30 4749 C 461.825 4.27774 -0.139083 0
M  V30 4750 C 461.151 5.28082 0.838666 0
M  V30 4751 C 462.451 5.04946 -1.33517 0
M  V30 4752 H 464.145 2.81094 -1.03086 0
M  V30 4753 H 461.691 1.35146 -0.497155 0
M  V30 4754 H 463.644 4.08143 1.04868 0
M  V30 4755 H 462.368 2.91408 1.47475 0
M  V30 4756 H 461.027 3.62673 -0.535156 0
M  V30 4757 H 460.675 4.7429 1.67506 0
M  V30 4758 H 460.375 5.86695 0.32594 0
M  V30 4759 H 461.899 5.97628 1.25194 0
M  V30 4760 H 463.313 5.64593 -0.995349 0
M  V30 4761 H 461.71 5.7303 -1.78202 0
M  V30 4762 H 462.78 4.35886 -2.12442 0
M  V30 4763 N 464.123 0.554532 1.47522 0
M  V30 4764 C 465.539 0.214107 1.58157 0
M  V30 4765 C 465.739 -1.28331 1.55349 0
M  V30 4766 O 464.795 -2.06329 1.45549 0
M  V30 4767 C 466.108 0.838391 2.88776 0
M  V30 4768 C 467.656 0.809374 3.02354 0
M  V30 4769 C 468.131 1.41268 4.35669 0
M  V30 4770 N 469.622 1.37574 4.42298 0
M  V30 4771 C 470.357 1.8122 5.4401 0
M  V30 4772 N 469.853 2.3271 6.52547 0
M  V30 4773 N 471.646 1.72307 5.35039 0
M  V30 4774 H 463.797 1.52744 1.4759 0
M  V30 4775 H 466.06 0.636812 0.702264 0
M  V30 4776 H 465.766 1.89065 2.96559 0
M  V30 4777 H 465.64 0.329847 3.75755 0
M  V30 4778 H 468.027 -0.234187 2.94169 0
M  V30 4779 H 468.108 1.35565 2.16924 0
M  V30 4780 H 467.752 2.45529 4.4461 0
M  V30 4781 H 467.682 0.841871 5.19827 0
M  V30 4782 H 470.173 0.999081 3.64454 0
M  V30 4783 H 470.486 2.63944 7.26329 0
M  V30 4784 H 468.831 2.36719 6.53444 0
M  V30 4785 H 472.022 1.3186 4.49144 0
M  V30 4786 H 472.195 2.06641 6.14169 0
M  V30 4787 N 465.601 -1.54893 0.290851 0
M  V30 4788 C 466.548 -2.23138 -0.58974 0
M  V30 4789 C 467.518 -1.21036 -1.13752 0
M  V30 4790 O 468.703 -1.49626 -1.18392 0
M  V30 4791 C 465.843 -2.96811 -1.76061 0
M  V30 4792 C 464.956 -4.13665 -1.24519 0
M  V30 4793 C 464.091 -4.74944 -2.3791 0
M  V30 4794 C 463.13 -5.83963 -1.83451 0
M  V30 4795 N 462.267 -6.39239 -2.90376 0
M  V30 4796 H 467.107 -2.98 -0.00114915 0
M  V30 4797 H 464.644 -1.47096 0.0112006 0
M  V30 4798 H 466.602 -3.37751 -2.44909 0
M  V30 4799 H 465.232 -2.24344 -2.32098 0
M  V30 4800 H 464.284 -3.77737 -0.449288 0
M  V30 4801 H 465.596 -4.92238 -0.806424 0
M  V30 4802 H 464.75 -5.18684 -3.14724 0
M  V30 4803 H 463.489 -3.95682 -2.85109 0
M  V30 4804 H 462.494 -5.39657 -1.05122 0
M  V30 4805 H 463.719 -6.65103 -1.37169 0
M  V30 4806 H 461.665 -5.62864 -3.36927 0
M  V30 4807 H 461.582 -7.13129 -2.50965 0
M  V30 4808 H 462.85 -6.87637 -3.67118 0
M  V30 4809 N 467.08 -0.0183926 -1.57589 0
M  V30 4810 C 468.326 0.663543 -1.91638 0
M  V30 4811 C 468.659 1.72392 -0.894134 0
M  V30 4812 O 467.934 1.94316 0.0846449 0
M  V30 4813 C 468.217 1.28984 -3.36207 0
M  V30 4814 C 468.07 0.239761 -4.49161 0
M  V30 4815 C 469.389 2.2109 -3.80536 0
M  V30 4816 H 466.508 0.239746 -0.696915 0
M  V30 4817 H 469.15 -0.073456 -1.89858 0
M  V30 4818 H 467.3 1.91799 -3.37854 0
M  V30 4819 H 468.972 -0.390119 -4.59647 0
M  V30 4820 H 467.215 -0.435972 -4.31604 0
M  V30 4821 H 467.886 0.717383 -5.47319 0
M  V30 4822 H 470.362 1.68273 -3.80557 0
M  V30 4823 H 469.238 2.61869 -4.82406 0
M  V30 4824 H 469.499 3.09764 -3.15434 0
M  V30 4825 N 468.558 1.5553 0.254621 0
M  V30 4826 C 469.786 1.81046 1.00149 0
M  V30 4827 C 470.201 0.593047 1.79244 0
M  V30 4828 O 469.558 -0.438196 1.77161 0
M  V30 4829 C 469.609 3.04684 1.94551 0
M  V30 4830 O 469.33 4.21725 1.18658 0
M  V30 4831 C 470.831 3.42943 2.80901 0
M  V30 4832 H 468.051 0.602653 0.295044 0
M  V30 4833 H 470.595 2.02576 0.279842 0
M  V30 4834 H 468.75 2.85226 2.62154 0
M  V30 4835 H 469.164 4.91746 1.82445 0
M  V30 4836 H 470.638 4.32576 3.42902 0
M  V30 4837 H 471.115 2.63176 3.51617 0
M  V30 4838 H 471.721 3.64724 2.18762 0
M  V30 4839 N 470.036 -0.519951 1.48776 0
M  V30 4840 C 470.983 -1.62352 1.64044 0
M  V30 4841 C 471.953 -1.58945 0.482251 0
M  V30 4842 O 473.138 -1.77219 0.706971 0
M  V30 4843 C 470.278 -3.00579 1.69547 0
M  V30 4844 C 469.391 -3.14145 2.96541 0
M  V30 4845 C 468.526 -4.42991 2.93142 0
M  V30 4846 C 467.565 -4.50122 4.14797 0
M  V30 4847 N 466.702 -5.7037 4.09418 0
M  V30 4848 H 471.542 -1.48643 2.58281 0
M  V30 4849 H 469.079 -0.723516 1.28077 0
M  V30 4850 H 471.037 -3.80671 1.70719 0
M  V30 4851 H 469.667 -3.13036 0.787918 0
M  V30 4852 H 468.719 -2.27239 3.05068 0
M  V30 4853 H 470.031 -3.15275 3.86527 0
M  V30 4854 H 469.185 -5.31385 2.92772 0
M  V30 4855 H 467.924 -4.44398 2.00902 0
M  V30 4856 H 466.929 -3.60133 4.15433 0
M  V30 4857 H 468.154 -4.50445 5.08208 0
M  V30 4858 H 466.1 -5.72655 3.20004 0
M  V30 4859 H 466.017 -5.73036 4.93119 0
M  V30 4860 H 467.285 -6.61023 4.13121 0
M  V30 4861 N 471.514 -1.37532 -0.769588 0
M  V30 4862 C 472.424 -1.35668 -1.91393 0
M  V30 4863 C 473.44 -0.255954 -1.72107 0
M  V30 4864 O 474.616 -0.491704 -1.95305 0
M  V30 4865 C 471.681 -1.16481 -3.26547 0
M  V30 4866 C 470.742 -2.36212 -3.58472 0
M  V30 4867 C 469.975 -2.17932 -4.87177 0
M  V30 4868 O 470.198 -1.1647 -5.58382 0
M  V30 4869 O 469.132 -3.06167 -5.18214 0
M  V30 4870 H 472.958 -2.32055 -1.95918 0
M  V30 4871 H 470.543 -1.18284 -0.912641 0
M  V30 4872 H 472.425 -1.07778 -4.07384 0
M  V30 4873 H 471.1 -0.231687 -3.2287 0
M  V30 4874 H 470.007 -2.50488 -2.77861 0
M  V30 4875 H 471.34 -3.281 -3.66894 0
M  V30 4876 N 472.992 0.995999 -1.22138 0
M  V30 4877 C 473.924 2.08745 -0.946485 0
M  V30 4878 C 474.937 1.62633 0.0737356 0
M  V30 4879 O 476.126 1.77782 -0.159886 0
M  V30 4880 C 473.226 3.36516 -0.401305 0
M  V30 4881 C 472.399 4.11672 -1.47801 0
M  V30 4882 C 471.458 5.17728 -0.940461 0
M  V30 4883 O 470.484 5.45482 -1.62596 0
M  V30 4884 N 471.686 5.80005 0.239723 0
M  V30 4885 H 474.451 2.32908 -1.88611 0
M  V30 4886 H 472.012 1.16152 -1.12785 0
M  V30 4887 H 474.004 4.04691 -0.0270837 0
M  V30 4888 H 472.574 3.0944 0.443354 0
M  V30 4889 H 471.794 3.38171 -2.02568 0
M  V30 4890 H 473.082 4.58657 -2.20253 0
M  V30 4891 H 472.48 5.5982 0.813518 0
M  V30 4892 H 471.037 6.4943 0.555361 0
M  V30 4893 N 474.47 1.03057 1.19235 0
M  V30 4894 C 475.716 0.738841 1.89506 0
M  V30 4895 C 476.071 -0.724807 1.78225 0
M  V30 4896 O 475.364 -1.52118 1.16494 0
M  V30 4897 C 475.558 1.1268 3.39172 0
M  V30 4898 C 475.387 2.62662 3.65019 0
M  V30 4899 C 474.157 3.29658 3.82954 0
M  V30 4900 C 476.355 3.60873 3.66436 0
M  V30 4901 N 474.337 4.68726 3.96446 0
M  V30 4902 C 475.708 4.85566 3.8552 0
M  V30 4903 C 477.763 3.54647 3.49471 0
M  V30 4904 C 476.466 6.04783 3.89397 0
M  V30 4905 C 478.492 4.73281 3.54625 0
M  V30 4906 C 477.854 5.96789 3.74196 0
M  V30 4907 H 473.953 0.322256 0.712513 0
M  V30 4908 H 476.537 1.31822 1.43287 0
M  V30 4909 H 474.708 0.575612 3.84111 0
M  V30 4910 H 476.44 0.787145 3.96971 0
M  V30 4911 H 473.195 2.8007 3.81913 0
M  V30 4912 H 473.619 5.40971 4.07037 0
M  V30 4913 H 478.261 2.60143 3.33295 0
M  V30 4914 H 475.979 6.99654 4.04364 0
M  V30 4915 H 479.565 4.70094 3.42787 0
M  V30 4916 H 478.445 6.87051 3.78061 0
M  V30 4917 N 475.948 -1.35272 0.808662 0
M  V30 4918 C 477.225 -1.93077 0.313181 0
M  V30 4919 C 477.605 -1.73847 -1.19752 0
M  V30 4920 O 476.953 -1.1087 -1.998 0
M  V30 4921 C 477.163 -3.41347 0.726859 0
M  V30 4922 C 478.511 -4.18493 0.717532 0
M  V30 4923 O 479.535 -3.4987 0.668535 0
M  V30 4924 O 478.394 -5.40937 0.777779 0
M  V30 4925 H 475.488 -0.822885 0.0824018 0
M  V30 4926 H 478.034 -1.44335 0.892499 0
M  V30 4927 H 476.806 -3.49082 1.76797 0
M  V30 4928 H 476.429 -3.97411 0.122461 0
M  V30 4929 N 477.426 -0.562348 -1.47226 0
M  V30 4930 C 478.654 -0.0452275 -2.06851 0
M  V30 4931 C 479.069 1.25078 -1.41424 0
M  V30 4932 O 478.426 1.75156 -0.512513 0
M  V30 4933 C 478.477 0.148674 -3.61194 0
M  V30 4934 O 478.198 -1.09602 -4.24169 0
M  V30 4935 C 479.699 0.702488 -4.37699 0
M  V30 4936 H 476.919 -0.0481775 -0.669268 0
M  V30 4937 H 479.463 -0.777223 -1.89155 0
M  V30 4938 H 477.618 0.830817 -3.78386 0
M  V30 4939 H 478.032 -0.896982 -5.16773 0
M  V30 4940 H 479.506 0.78743 -5.46355 0
M  V30 4941 H 479.983 1.71493 -4.04335 0
M  V30 4942 H 480.589 0.0558772 -4.25263 0
M  V30 4943 N 478.904 1.54736 -0.299062 0
M  V30 4944 C 480.153 1.99279 0.311549 0
M  V30 4945 C 480.466 1.19107 1.55154 0
M  V30 4946 O 481.672 1.53908 2.23662 0
M  V30 4947 C 480.128 3.54768 0.605632 0
M  V30 4948 C 479.736 4.43746 -0.615914 0
M  V30 4949 C 481.48 4.07841 1.17754 0
M  V30 4950 C 479.387 5.90663 -0.29509 0
M  V30 4951 H 478.317 0.744359 0.120187 0
M  V30 4952 H 480.968 1.78919 -0.407464 0
M  V30 4953 H 479.35 3.71021 1.38419 0
M  V30 4954 H 480.524 4.39267 -1.39218 0
M  V30 4955 H 478.839 4.01434 -1.10633 0
M  V30 4956 H 481.436 5.15174 1.43179 0
M  V30 4957 H 481.779 3.58324 2.11918 0
M  V30 4958 H 482.312 3.95123 0.460739 0
M  V30 4959 H 479.051 6.44325 -1.20524 0
M  V30 4960 H 478.571 5.98155 0.44394 0
M  V30 4961 H 480.25 6.46916 0.104048 0
M  V30 4962 N 480.382 0.0267497 1.57577 0
M  V30 4963 C 481.292 -0.971633 2.13533 0
M  V30 4964 C 482.308 -1.35868 1.08701 0
M  V30 4965 O 483.484 -1.44058 1.40746 0
M  V30 4966 C 480.549 -2.23622 2.64941 0
M  V30 4967 C 479.61 -1.90982 3.8448 0
M  V30 4968 C 478.843 -3.11411 4.33427 0
M  V30 4969 O 479.066 -4.23992 3.81558 0
M  V30 4970 O 478 -2.93848 5.25297 0
M  V30 4971 H 481.826 -0.525853 2.99113 0
M  V30 4972 H 479.411 -0.193712 1.48139 0
M  V30 4973 H 481.293 -2.97864 2.98086 0
M  V30 4974 H 479.968 -2.67386 1.82446 0
M  V30 4975 H 478.875 -1.14132 3.56265 0
M  V30 4976 H 480.208 -1.52036 4.6813 0
M  V30 4977 N 481.861 -1.55662 -0.24637 0
M  V30 4978 C 482.771 -1.93495 -1.32653 0
M  V30 4979 C 483.787 -0.835462 -1.5263 0
M  V30 4980 O 484.963 -1.1369 -1.66242 0
M  V30 4981 C 482.028 -2.22242 -2.66101 0
M  V30 4982 C 481.089 -3.45625 -2.54641 0
M  V30 4983 C 480.322 -3.72991 -3.81724 0
M  V30 4984 O 480.545 -3.02421 -4.8363 0
M  V30 4985 O 479.479 -4.66515 -3.80325 0
M  V30 4986 H 483.305 -2.85498 -1.03559 0
M  V30 4987 H 480.89 -1.42551 -0.44717 0
M  V30 4988 H 482.772 -2.42037 -3.44958 0
M  V30 4989 H 481.447 -1.33417 -2.94926 0
M  V30 4990 H 480.354 -3.31136 -1.74067 0
M  V30 4991 H 481.687 -4.34754 -2.3076 0
M  V30 4992 N 483.339 0.512053 -1.4905 0
M  V30 4993 C 484.269 1.62365 -1.67809 0
M  V30 4994 C 485.25 1.61737 -0.526809 0
M  V30 4995 O 486.435 1.78651 -0.761404 0
M  V30 4996 C 483.565 3.00895 -1.73435 0
M  V30 4997 C 482.519 3.16387 -2.88242 0
M  V30 4998 C 481.845 4.56157 -2.78971 0
M  V30 4999 C 483.145 2.97457 -4.29321 0
M  V30 5000 H 484.839 1.46921 -2.60873 0
M  V30 5001 H 482.385 0.705379 -1.2554 0
M  V30 5002 H 484.338 3.78549 -1.85145 0
M  V30 5003 H 483.062 3.17403 -0.769619 0
M  V30 5004 H 481.721 2.41155 -2.76116 0
M  V30 5005 H 481.369 4.69525 -1.8043 0
M  V30 5006 H 481.069 4.67465 -3.5602 0
M  V30 5007 H 482.593 5.35886 -2.92675 0
M  V30 5008 H 484.007 3.64888 -4.42187 0
M  V30 5009 H 482.404 3.20245 -5.07507 0
M  V30 5010 H 483.474 1.93692 -4.44535 0
M  V30 5011 N 484.817 1.37938 0.762283 0
M  V30 5012 C 486.066 1.32989 1.51647 0
M  V30 5013 C 486.379 -0.0802922 1.95435 0
M  V30 5014 O 487.585 -0.252295 2.70325 0
M  V30 5015 C 486.041 2.33485 2.73885 0
M  V30 5016 C 485.649 3.80079 2.37157 0
M  V30 5017 C 487.393 2.37563 3.51801 0
M  V30 5018 C 485.3 4.72283 3.55954 0
M  V30 5019 H 484.23 0.494301 0.56937 0
M  V30 5020 H 486.881 1.63448 0.834083 0
M  V30 5021 H 485.263 1.96056 3.44061 0
M  V30 5022 H 486.437 4.26398 1.74704 0
M  V30 5023 H 484.752 3.79037 1.72395 0
M  V30 5024 H 487.349 3.0365 4.40114 0
M  V30 5025 H 487.692 1.39199 3.92338 0
M  V30 5026 H 488.225 2.73747 2.8863 0
M  V30 5027 H 484.964 5.7181 3.2049 0
M  V30 5028 H 484.484 4.30663 4.1748 0
M  V30 5029 H 486.163 4.89876 4.22647 0
M  V30 5030 N 486.295 -0.989507 1.22664 0
M  V30 5031 C 487.711 -1.25395 0.987331 0
M  V30 5032 C 487.911 -1.9899 -0.317056 0
M  V30 5033 O 486.967 -2.30141 -1.03882 0
M  V30 5034 C 488.28 -2.06242 2.18826 0
M  V30 5035 C 489.828 -2.19413 2.23219 0
M  V30 5036 C 490.303 -3.03648 3.42873 0
M  V30 5037 N 491.794 -3.11234 3.43056 0
M  V30 5038 C 492.529 -3.7671 4.32293 0
M  V30 5039 N 492.025 -4.44085 5.31752 0
M  V30 5040 N 493.818 -3.73505 4.2006 0
M  V30 5041 H 485.969 -0.496212 2.06522 0
M  V30 5042 H 488.232 -0.281784 0.905153 0
M  V30 5043 H 487.938 -1.59531 3.13437 0
M  V30 5044 H 487.812 -3.06996 2.19165 0
M  V30 5045 H 490.199 -2.65336 1.29154 0
M  V30 5046 H 490.28 -1.18078 2.26917 0
M  V30 5047 H 489.924 -2.58424 4.37241 0
M  V30 5048 H 489.854 -4.05132 3.36416 0
M  V30 5049 H 492.345 -2.63287 2.71088 0
M  V30 5050 H 492.658 -4.91797 5.96117 0
M  V30 5051 H 491.003 -4.42822 5.35662 0
M  V30 5052 H 494.194 -3.20033 3.41609 0
M  V30 5053 H 494.367 -4.24253 4.8981 0
M  V30 5054 N 487.773 -1.03688 -1.18687 0
M  V30 5055 C 488.72 -0.624624 -2.22187 0
M  V30 5056 C 489.69 0.365636 -1.62026 0
M  V30 5057 O 490.875 0.260481 -1.89014 0
M  V30 5058 C 488.015 0.0101738 -3.45099 0
M  V30 5059 C 487.128 -1.02709 -4.19613 0
M  V30 5060 C 486.263 -0.361213 -5.2997 0
M  V30 5061 C 485.302 -1.38384 -5.96252 0
M  V30 5062 N 484.439 -0.743196 -6.98155 0
M  V30 5063 H 489.279 -1.51176 -2.56807 0
M  V30 5064 H 486.816 -0.75636 -1.26165 0
M  V30 5065 H 488.774 0.395528 -4.15321 0
M  V30 5066 H 487.404 0.860848 -3.1111 0
M  V30 5067 H 486.456 -1.53043 -3.48256 0
M  V30 5068 H 487.768 -1.80398 -4.65036 0
M  V30 5069 H 486.922 0.0785537 -6.06649 0
M  V30 5070 H 485.661 0.447799 -4.8564 0
M  V30 5071 H 484.666 -1.83378 -5.18317 0
M  V30 5072 H 485.891 -2.19448 -6.42666 0
M  V30 5073 H 483.837 0.0455789 -6.55984 0
M  V30 5074 H 483.754 -1.45784 -7.41811 0
M  V30 5075 H 485.022 -0.327698 -7.78811 0
M  V30 5076 N 489.251 1.34841 -0.815825 0
M  V30 5077 C 490.479 2.0273 -0.413294 0
M  V30 5078 C 490.894 1.61459 0.978599 0
M  V30 5079 O 490.251 0.816584 1.63212 0
M  V30 5080 C 490.302 3.58058 -0.497676 0
M  V30 5081 O 490.023 3.97832 -1.8347 0
M  V30 5082 C 491.524 4.4321 -0.0891339 0
M  V30 5083 H 488.744 0.649956 -0.166728 0
M  V30 5084 H 491.288 1.72267 -1.10201 0
M  V30 5085 H 489.443 3.87136 0.142886 0
M  V30 5086 H 489.857 4.92501 -1.80396 0
M  V30 5087 H 491.331 5.5164 -0.199274 0
M  V30 5088 H 491.808 4.28432 0.966571 0
M  V30 5089 H 492.414 4.19446 -0.703214 0
M  V30 5090 N 490.729 0.570148 1.46925 0
M  V30 5091 C 491.676 -0.170257 2.30171 0
M  V30 5092 C 492.646 -0.896099 1.39855 0
M  V30 5093 O 493.831 -0.889248 1.68811 0
M  V30 5094 C 490.971 -1.18605 3.24079 0
M  V30 5095 C 490.084 -0.464947 4.29491 0
M  V30 5096 C 489.219 -1.46716 5.10537 0
M  V30 5097 C 488.258 -0.731758 6.0771 0
M  V30 5098 N 487.395 -1.68142 6.81669 0
M  V30 5099 H 492.235 0.545713 2.92961 0
M  V30 5100 H 489.772 0.280938 1.44392 0
M  V30 5101 H 491.73 -1.78771 3.76957 0
M  V30 5102 H 490.36 -1.86989 2.63125 0
M  V30 5103 H 489.412 0.251506 3.79568 0
M  V30 5104 H 490.724 0.110548 4.98677 0
M  V30 5105 H 489.878 -2.14199 5.6763 0
M  V30 5106 H 488.617 -2.07658 4.41282 0
M  V30 5107 H 487.622 -0.0430787 5.49783 0
M  V30 5108 H 488.847 -0.127904 6.7898 0
M  V30 5109 H 486.793 -2.27918 6.15134 0
M  V30 5110 H 486.71 -1.15841 7.47072 0
M  V30 5111 H 487.978 -2.347 7.43328 0
M  V30 5112 N 492.207 -1.54576 0.307264 0
M  V30 5113 C 493.455 -1.99867 -0.299574 0
M  V30 5114 C 493.776 -1.19714 -1.53927 0
M  V30 5115 O 493.046 -0.29472 -1.9367 0
M  V30 5116 H 491.626 -0.738299 -0.113683 0
M  V30 5117 H 494.288 -1.9032 0.420042 0
M  V30 5118 H 493.384 -3.06901 -0.567283 0
M  V30 5119 N 493.685 -0.035106 -1.57561 0
M  V30 5120 C 494.91 0.655802 -1.96759 0
M  V30 5121 C 495.335 1.64523 -0.911809 0
M  V30 5122 O 494.693 1.80857 0.126673 0
M  V30 5123 C 494.741 1.33326 -3.35047 0
M  V30 5124 O 493.845 2.44866 -3.31835 0
M  V30 5125 H 493.186 0.171807 -0.641388 0
M  V30 5126 H 495.716 -0.0987369 -2.04362 0
M  V30 5127 H 495.726 1.68867 -3.71413 0
M  V30 5128 H 494.401 0.608033 -4.11431 0
M  V30 5129 H 492.978 2.11392 -3.07193 0
M  V30 5130 O 495.202 1.61149 0.106394 0
M  V30 5131 H 495.893 1.7916 0.736293 0
M  V30 END ATOM
M  V30 BEGIN BOND
M  V30 END BOND
M  V30 END CTAB
M  END
$$$$
