drugbank_target|Q99519 Sialidase-1 (DB00198)
 OpenBabel12092119433D

  0  0  0     0  0            999 V3000
M  V30 BEGIN CTAB
M  V30 COUNTS 6318 6402 0 0 0
M  V30 BEGIN ATOM
M  V30 1 H -0.908 1.98254 -0.117106 0
M  V30 2 N 0 1.576 0 0
M  V30 3 C 0.933 2.03868 1.02534 0
M  V30 4 C 1.911 0.928543 1.3348 0
M  V30 5 O 3.095 1.19667 1.45644 0
M  V30 6 C 0.222 2.43627 2.35294 0
M  V30 7 C -0.732 3.65373 2.2001 0
M  V30 8 S 0.101 5.13292 1.52614 0
M  V30 9 C 1.257 5.56322 2.86805 0
M  V30 10 H 1.49 2.90518 0.631377 0
M  V30 11 H -0.977 1.52953 0.210867 0
M  V30 12 H 0.981 2.67203 3.11629 0
M  V30 13 H -0.358 1.57376 2.7183 0
M  V30 14 H -1.165 3.90944 3.18086 0
M  V30 15 H -1.563 3.418 1.51819 0
M  V30 16 H 0.729 5.58782 3.83104 0
M  V30 17 H 1.672 6.56266 2.65933 0
M  V30 18 H 2.08 4.83886 2.90714 0
M  V30 19 N 1.4781 -0.272755 1.55222 0
M  V30 20 C 2.7061 -1.02255 1.79865 0
M  V30 21 C 3.1211 -1.79924 0.572088 0
M  V30 22 O 2.4781 -1.76638 -0.458842 0
M  V30 23 C 2.5291 -1.98094 3.02392 0
M  V30 24 O 2.2501 -1.23572 4.20311 0
M  V30 25 C 3.7511 -2.84884 3.39641 0
M  V30 26 H 0.9711 -0.302057 0.599168 0
M  V30 27 H 3.5151 -0.303465 2.02236 0
M  V30 28 H 1.6701 -2.65465 2.82147 0
M  V30 29 H 2.0841 -1.88172 4.89583 0
M  V30 30 H 3.5581 -3.47927 4.28545 0
M  V30 31 H 4.0351 -3.54665 2.59055 0
M  V30 32 H 4.6411 -2.23003 3.62146 0
M  V30 33 N 2.9562 -1.48159 -0.537278 0
M  V30 34 C 4.2042 -1.55497 -1.29094 0
M  V30 35 C 4.5252 -0.227454 -1.93669 0
M  V30 36 O 3.7952 0.750386 -1.80959 0
M  V30 37 H 2.3752 -0.572832 -0.47945 0
M  V30 38 H 5.0372 -1.84579 -0.625818 0
M  V30 39 H 4.1332 -2.33216 -2.07405 0
M  V30 40 N 4.4343 0.785586 -1.36625 0
M  V30 41 C 5.3443 1.92964 -1.33425 0
M  V30 42 C 6.3603 1.72394 -0.235851 0
M  V30 43 O 7.5363 1.95866 -0.468878 0
M  V30 44 C 4.6013 3.27884 -1.12662 0
M  V30 45 C 3.6623 3.61204 -2.32013 0
M  V30 46 C 2.8953 4.89687 -2.12231 0
M  V30 47 O 3.1183 5.59704 -1.09945 0
M  V30 48 O 2.0523 5.21752 -3.00098 0
M  V30 49 H 5.8783 1.98613 -2.29753 0
M  V30 50 H 3.4633 0.926384 -1.17211 0
M  V30 51 H 5.3453 4.08614 -1.03016 0
M  V30 52 H 4.0203 3.23118 -0.193991 0
M  V30 53 H 2.9273 2.80765 -2.47228 0
M  V30 54 H 4.2603 3.70698 -3.23796 0
M  V30 55 N 5.9124 1.20967 1.01018 0
M  V30 56 C 7.3284 0.965905 1.27053 0
M  V30 57 C 7.5284 -0.350785 1.98423 0
M  V30 58 O 6.5844 -1.07773 2.28344 0
M  V30 59 C 7.8974 2.15294 2.09926 0
M  V30 60 C 9.4454 2.19463 2.23171 0
M  V30 61 C 9.9204 3.3767 3.09424 0
M  V30 62 N 11.4114 3.37724 3.17012 0
M  V30 63 C 12.1464 4.25837 3.83993 0
M  V30 64 N 11.6424 5.24138 4.53047 0
M  V30 65 N 13.4354 4.1366 3.80581 0
M  V30 66 H 5.5864 2.0565 0.531194 0
M  V30 67 H 7.8494 0.90024 0.297106 0
M  V30 68 H 7.5554 3.10684 1.64828 0
M  V30 69 H 7.4294 2.13923 3.10672 0
M  V30 70 H 9.8164 1.24632 2.6749 0
M  V30 71 H 9.8974 2.2488 1.21912 0
M  V30 72 H 9.5414 4.32791 2.65808 0
M  V30 73 H 9.4714 3.29491 4.10784 0
M  V30 74 H 11.9624 2.6658 2.6785 0
M  V30 75 H 12.2754 5.87684 5.01844 0
M  V30 76 H 10.6204 5.28068 4.5185 0
M  V30 77 H 13.8114 3.36127 3.25785 0
M  V30 78 H 13.9844 4.82538 4.32505 0
M  V30 79 N 7.3905 -1.2043 1.01659 0
M  V30 80 C 8.8015 -1.71517 0.737482 0
M  V30 81 C 9.1525 -1.81547 -0.743973 0
M  V30 82 O 8.2775 -1.47803 -1.58061 0
M  V30 83 C 8.8725 -3.11515 1.33206 0
M  V30 84 C 7.4315 -3.59912 1.10183 0
M  V30 85 C 6.5785 -2.37116 1.43776 0
M  V30 86 H 9.5295 -1.05444 1.18606 0
M  V30 87 H 9.5505 -3.73575 0.722636 0
M  V30 88 H 9.0625 -3.04182 2.41028 0
M  V30 89 H 7.1635 -3.72577 0.0412756 0
M  V30 90 H 7.2765 -4.44731 1.78188 0
M  V30 91 H 5.6405 -2.39857 0.856778 0
M  V30 92 H 6.4235 -2.32424 2.52654 0
M  V30 93 N 8.8686 -0.792821 -1.36206 0
M  V30 94 C 10.0936 -0.377701 -2.03932 0
M  V30 95 C 10.5186 0.998947 -1.59382 0
M  V30 96 O 9.8766 1.64421 -0.763903 0
M  V30 97 C 9.9246 -0.453635 -3.57735 0
M  V30 98 O 9.0286 0.538151 -4.08874 0
M  V30 99 H 8.3696 -0.159855 -0.644471 0
M  V30 100 H 10.8996 -1.07488 -1.7409 0
M  V30 101 H 10.9096 -0.318464 -4.06755 0
M  V30 102 H 9.5846 -1.45784 -3.89512 0
M  V30 103 H 8.1616 0.364359 -3.71116 0
M  V30 104 N 10.3467 1.47872 -0.545128 0
M  V30 105 C 11.5747 2.06889 -0.021084 0
M  V30 106 C 11.9897 1.39955 1.2672 0
M  V30 107 O 11.3467 0.492036 1.75742 0
M  V30 108 C 11.3977 3.60996 0.190817 0
M  V30 109 O 11.1187 4.25419 -1.04644 0
M  V30 110 C 12.6197 4.36849 0.753521 0
M  V30 111 H 9.8397 0.669785 -0.0403635 0
M  V30 112 H 12.3837 1.90049 -0.755095 0
M  V30 113 H 10.5387 3.77391 0.87492 0
M  V30 114 H 10.9527 5.17785 -0.836611 0
M  V30 115 H 12.4267 5.45399 0.851139 0
M  V30 116 H 12.9037 4.02306 1.762 0
M  V30 117 H 13.5097 4.25169 0.105503 0
M  V30 118 N 11.8248 0.280983 1.55075 0
M  V30 119 C 12.7878 -0.590896 2.21452 0
M  V30 120 C 13.7878 -1.07682 1.19421 0
M  V30 121 O 14.9778 -0.97605 1.44288 0
M  V30 122 C 12.1098 -1.81587 2.88511 0
M  V30 123 H 13.3028 -0.0112554 2.99898 0
M  V30 124 H 10.8558 0.0316438 1.56268 0
M  V30 125 H 11.5908 -2.43587 2.14093 0
M  V30 126 H 11.3758 -1.4753 3.63287 0
M  V30 127 H 12.8658 -2.43575 3.39206 0
M  V30 128 N 13.3029 -1.57598 0.00835791 0
M  V30 129 C 14.2329 -2.1198 -0.979113 0
M  V30 130 C 15.2139 -1.03091 -1.35301 0
M  V30 131 O 16.3989 -1.30818 -1.43528 0
M  V30 132 C 13.5289 -2.62995 -2.26828 0
M  V30 133 C 12.4829 -3.76485 -2.03576 0
M  V30 134 C 11.8089 -4.13846 -3.38579 0
M  V30 135 C 13.1089 -5.0342 -1.39161 0
M  V30 136 H 14.8029 -2.94738 -0.526281 0
M  V30 137 H 12.3489 -1.41783 -0.251704 0
M  V30 138 H 14.3019 -2.99669 -2.96271 0
M  V30 139 H 13.0259 -1.7737 -2.7424 0
M  V30 140 H 11.6849 -3.40217 -1.36557 0
M  V30 141 H 11.3329 -3.25232 -3.83709 0
M  V30 142 H 11.0329 -4.90312 -3.23834 0
M  V30 143 H 12.5569 -4.53086 -4.09323 0
M  V30 144 H 13.9709 -5.37812 -1.98573 0
M  V30 145 H 12.3679 -5.84746 -1.34878 0
M  V30 146 H 13.4379 -4.83548 -0.361868 0
M  V30 147 N 14.781 0.264519 -1.55364 0
M  V30 148 C 16.192 0.834936 -1.6699 0
M  V30 149 C 16.543 1.86718 -0.602552 0
M  V30 150 O 15.668 2.14899 0.254425 0
M  V30 151 C 16.263 1.5212 -3.02729 0
M  V30 152 C 14.822 2.03954 -3.16354 0
M  V30 153 C 13.969 0.884498 -2.62815 0
M  V30 154 H 16.92 0.0406869 -1.58648 0
M  V30 155 H 16.941 2.38853 -2.96191 0
M  V30 156 H 16.453 0.769668 -3.80392 0
M  V30 157 H 14.554 2.82041 -2.43482 0
M  V30 158 H 14.667 2.24902 -4.23032 0
M  V30 159 H 13.031 1.2802 -2.20188 0
M  V30 160 H 13.814 0.14634 -3.42988 0
M  V30 161 N 16.2591 1.48442 0.529413 0
M  V30 162 C 17.5361 1.46978 1.29062 0
M  V30 163 C 17.9161 0.181769 2.10316 0
M  V30 164 O 17.2641 -0.836481 2.12639 0
M  V30 165 C 17.4741 2.7321 2.17157 0
M  V30 166 C 18.8221 3.21562 2.77278 0
M  V30 167 O 19.8461 2.74131 2.27444 0
M  V30 168 O 18.7051 4.04094 3.67927 0
M  V30 169 H 15.7991 0.587003 0.582543 0
M  V30 170 H 18.3451 1.60676 0.546021 0
M  V30 171 H 17.1171 3.58465 1.56903 0
M  V30 172 H 16.7401 2.62235 2.98862 0
M  V30 173 N 17.7372 -0.778329 1.37039 0
M  V30 174 C 19.1532 -1.07796 1.17695 0
M  V30 175 C 19.3532 -2.01498 0.00860115 0
M  V30 176 O 18.4092 -2.43901 -0.653352 0
M  V30 177 C 19.7222 -1.68178 2.49272 0
M  V30 178 C 21.2702 -1.80467 2.55735 0
M  V30 179 C 21.7452 -2.44263 3.87427 0
M  V30 180 N 23.2362 -2.51721 3.88833 0
M  V30 181 C 23.9712 -3.01919 4.87476 0
M  V30 182 N 23.4672 -3.5234 5.96513 0
M  V30 183 N 25.2602 -3.00733 4.74885 0
M  V30 184 H 17.4112 -0.156032 2.11826 0
M  V30 185 H 19.6742 -0.131844 0.938787 0
M  V30 186 H 19.3802 -1.06796 3.35093 0
M  V30 187 H 19.2542 -2.67554 2.65885 0
M  V30 188 H 21.6412 -2.40984 1.70325 0
M  V30 189 H 21.7222 -0.798656 2.43013 0
M  V30 190 H 21.3662 -1.84388 4.73248 0
M  V30 191 H 21.2962 -3.45458 3.9745 0
M  V30 192 H 23.7872 -2.1603 3.10063 0
M  V30 193 H 24.1002 -3.89027 6.67741 0
M  V30 194 H 22.4452 -3.50462 6.00168 0
M  V30 195 H 25.6362 -2.60638 3.88826 0
M  V30 196 H 25.8092 -3.39545 5.51918 0
M  V30 197 N 19.2153 -1.21501 -1.00376 0
M  V30 198 C 20.6313 -0.972629 -1.26539 0
M  V30 199 C 20.8313 0.340257 -1.98606 0
M  V30 200 O 19.8873 1.06561 -2.28913 0
M  V30 201 C 21.2003 -2.16404 -2.08781 0
M  V30 202 C 22.7483 -2.20643 -2.22004 0
M  V30 203 C 23.2233 -3.39306 -3.07629 0
M  V30 204 N 24.7143 -3.39401 -3.15217 0
M  V30 205 C 25.4493 -4.27867 -3.81729 0
M  V30 206 N 24.9453 -5.26533 -4.5026 0
M  V30 207 N 26.7383 -4.15672 -3.78382 0
M  V30 208 H 18.8893 -2.05929 -0.520281 0
M  V30 209 H 21.1523 -0.901803 -0.292328 0
M  V30 210 H 20.8583 -3.11554 -1.63178 0
M  V30 211 H 20.7323 -2.15567 -3.09533 0
M  V30 212 H 23.1193 -1.26048 -2.66825 0
M  V30 213 H 23.2003 -2.25523 -1.20718 0
M  V30 214 H 22.8443 -4.34195 -2.63509 0
M  V30 215 H 22.7743 -3.31665 -4.09031 0
M  V30 216 H 25.2653 -2.67997 -2.66432 0
M  V30 217 H 25.5783 -5.90337 -4.98721 0
M  V30 218 H 23.9233 -5.30457 -4.49044 0
M  V30 219 H 27.1143 -3.3785 -3.23998 0
M  V30 220 H 27.2873 -4.84825 -4.2994 0
M  V30 221 N 20.6934 1.19889 -1.02296 0
M  V30 222 C 21.9394 1.89973 -0.726759 0
M  V30 223 C 22.2944 1.7776 0.73614 0
M  V30 224 O 21.5874 1.15523 1.52856 0
M  V30 225 C 21.7814 3.39883 -1.10518 0
M  V30 226 C 21.6104 3.66684 -2.60332 0
M  V30 227 C 20.3804 3.85045 -3.27213 0
M  V30 228 C 22.5784 3.68727 -3.58532 0
M  V30 229 N 20.5604 3.99422 -4.66192 0
M  V30 230 C 21.9314 3.88604 -4.83101 0
M  V30 231 C 23.9864 3.51722 -3.52414 0
M  V30 232 C 22.6894 3.9324 -6.02292 0
M  V30 233 C 24.7154 3.57632 -4.71013 0
M  V30 234 C 24.0774 3.77988 -5.94394 0
M  V30 235 H 20.1764 0.714551 -0.317712 0
M  V30 236 H 22.7604 1.44123 -1.30907 0
M  V30 237 H 20.9314 3.8447 -0.551142 0
M  V30 238 H 22.6634 3.97464 -0.761853 0
M  V30 239 H 19.4184 3.83689 -2.77632 0
M  V30 240 H 19.8424 4.10473 -5.38368 0
M  V30 241 H 24.4844 3.34945 -2.58015 0
M  V30 242 H 22.2024 4.08811 -6.97065 0
M  V30 243 H 25.7884 3.45773 -4.67902 0
M  V30 244 H 24.6684 3.82428 -6.8463 0
M  V30 245 N 22.1715 0.800033 1.35784 0
M  V30 246 C 23.4195 0.376597 1.9856 0
M  V30 247 C 23.7405 -1.05812 1.63795 0
M  V30 248 O 23.0105 -1.73103 0.917171 0
M  V30 249 H 21.5905 0.136261 0.734467 0
M  V30 250 H 24.2525 1.02442 1.65806 0
M  V30 251 H 23.3485 0.477002 3.08433 0
M  V30 252 N 23.6496 -1.47581 0.552962 0
M  V30 253 C 25.0606 -1.86324 0.118463 0
M  V30 254 C 25.4116 -1.46006 -1.3106 0
M  V30 255 O 24.5366 -0.861182 -1.98526 0
M  V30 256 C 25.1316 -3.3816 0.20821 0
M  V30 257 C 23.6906 -3.7601 -0.171226 0
M  V30 258 C 22.8376 -2.71634 0.557686 0
M  V30 259 H 25.7886 -1.39159 0.762928 0
M  V30 260 H 25.8096 -3.76141 -0.574278 0
M  V30 261 H 25.3216 -3.67473 1.24841 0
M  V30 262 H 23.4226 -3.52313 -1.21269 0
M  V30 263 H 23.5356 -4.78745 0.184379 0
M  V30 264 H 21.8996 -2.547 0.00125792 0
M  V30 265 H 22.6826 -3.0379 1.59896 0
M  V30 266 N 25.1277 -0.289203 -1.54924 0
M  V30 267 C 26.5437 0.0645403 -1.59469 0
M  V30 268 C 26.7437 1.53419 -1.30632 0
M  V30 269 O 25.7997 2.2852 -1.074 0
M  V30 270 C 27.1127 -0.32278 -2.98963 0
M  V30 271 C 28.6607 -0.270564 -3.11828 0
M  V30 272 C 29.1357 -0.632532 -4.53611 0
M  V30 273 N 30.6267 -0.584617 -4.59496 0
M  V30 274 C 31.3617 -0.837314 -5.67254 0
M  V30 275 N 30.8577 -1.15536 -6.83098 0
M  V30 276 N 32.6507 -0.765166 -5.56868 0
M  V30 277 H 24.8017 -1.24714 -1.71931 0
M  V30 278 H 27.0647 -0.504809 -0.802416 0
M  V30 279 H 26.7707 -1.34541 -3.24948 0
M  V30 280 H 26.6447 0.32944 -3.75759 0
M  V30 281 H 29.0317 0.742805 -2.85598 0
M  V30 282 H 29.1127 -0.957242 -2.37214 0
M  V30 283 H 28.7567 -1.64365 -4.80569 0
M  V30 284 H 28.6867 0.07609 -5.26545 0
M  V30 285 H 31.1777 -0.349248 -3.76283 0
M  V30 286 H 31.4907 -1.33447 -7.61191 0
M  V30 287 H 29.8357 -1.19328 -6.84679 0
M  V30 288 H 33.0267 -0.516432 -4.65243 0
M  V30 289 H 33.1997 -0.965477 -6.40767 0
M  V30 290 N 26.6058 1.57591 -0.0167156 0
M  V30 291 C 27.8548 1.90461 0.663877 0
M  V30 292 C 28.1678 0.893515 1.73999 0
M  V30 293 O 29.3738 1.11302 2.47637 0
M  V30 294 C 27.8298 3.38155 1.23204 0
M  V30 295 C 27.4378 4.47597 0.189866 0
M  V30 296 C 29.1818 3.80111 1.88986 0
M  V30 297 C 27.0888 5.86379 0.768964 0
M  V30 298 H 26.0188 0.710738 0.251729 0
M  V30 299 H 28.6698 1.83326 -0.0799926 0
M  V30 300 H 27.0518 3.40182 2.02712 0
M  V30 301 H 28.2258 4.57112 -0.581846 0
M  V30 302 H 26.5408 4.14766 -0.368475 0
M  V30 303 H 29.1378 4.81145 2.33247 0
M  V30 304 H 29.4808 3.14511 2.72743 0
M  V30 305 H 30.0138 3.80454 1.16187 0
M  V30 306 H 26.7528 6.55493 -0.0301957 0
M  V30 307 H 26.2728 5.80496 1.50945 0
M  V30 308 H 27.9518 6.34563 1.26251 0
M  V30 309 N 28.0839 -0.256276 1.55502 0
M  V30 310 C 29.0139 -1.32102 1.92539 0
M  V30 311 C 29.9949 -1.50684 0.789194 0
M  V30 312 O 31.1799 -1.63449 1.04872 0
M  V30 313 C 28.3099 -2.67752 2.21192 0
M  V30 314 C 27.2639 -2.63878 3.36975 0
M  V30 315 C 26.5899 -4.03236 3.51147 0
M  V30 316 C 27.8899 -2.21682 4.72921 0
M  V30 317 H 29.5839 -1.01351 2.81724 0
M  V30 318 H 27.1299 -0.486105 1.35547 0
M  V30 319 H 29.0829 -3.42365 2.45691 0
M  V30 320 H 27.8069 -3.0012 1.28824 0
M  V30 321 H 26.4659 -1.91722 3.12471 0
M  V30 322 H 26.1139 -4.32854 2.56216 0
M  V30 323 H 25.8139 -4.01535 4.29003 0
M  V30 324 H 27.3379 -4.79563 3.77957 0
M  V30 325 H 28.7519 -2.86023 4.96854 0
M  V30 326 H 27.1489 -2.3111 5.53812 0
M  V30 327 H 28.2189 -1.16833 4.70615 0
M  V30 328 N 29.562 -1.4872 -0.521534 0
M  V30 329 C 30.81 -1.56857 -1.27437 0
M  V30 330 C 31.131 -0.247982 -1.93417 0
M  V30 331 O 30.401 0.731151 -1.81744 0
M  V30 332 H 28.981 -0.577885 -0.473347 0
M  V30 333 H 31.643 -1.85233 -0.606205 0
M  V30 334 H 30.739 -2.35402 -2.0492 0
M  V30 335 N 31.0401 0.771051 -1.3745 0
M  V30 336 C 32.2871 1.52963 -1.32697 0
M  V30 337 C 32.6151 1.94299 0.0883274 0
M  V30 338 O 31.8701 1.64397 1.0617 0
M  V30 339 C 32.1691 2.80676 -2.2126 0
M  V30 340 C 31.8351 2.58389 -3.69521 0
M  V30 341 C 30.4971 2.52019 -4.09927 0
M  V30 342 C 32.8491 2.38469 -4.63446 0
M  V30 343 C 30.1771 2.23721 -5.42371 0
M  V30 344 C 32.5291 2.11694 -5.96128 0
M  V30 345 C 31.1931 2.03769 -6.35637 0
M  V30 346 H 30.4631 0.559732 -0.485573 0
M  V30 347 H 33.1101 0.888083 -1.69662 0
M  V30 348 H 31.4151 3.49392 -1.77291 0
M  V30 349 H 33.1121 3.38557 -2.14895 0
M  V30 350 H 29.7021 2.6421 -3.37478 0
M  V30 351 H 33.8861 2.4238 -4.33089 0
M  V30 352 H 29.1421 2.16081 -5.71943 0
M  V30 353 H 33.3161 1.9528 -6.6846 0
M  V30 354 H 30.9431 1.81606 -7.38189 0
M  V30 355 N 32.5182 1.22032 0.997298 0
M  V30 356 C 33.7642 1.05382 1.73972 0
M  V30 357 C 34.1192 -0.407419 1.88037 0
M  V30 358 O 33.4122 -1.29811 1.40924 0
M  V30 359 C 33.6062 1.69345 3.14733 0
M  V30 360 C 33.4352 3.21537 3.14395 0
M  V30 361 C 32.2052 3.9062 3.20537 0
M  V30 362 C 34.4032 4.18527 2.98897 0
M  V30 363 N 32.3852 5.29935 3.09906 0
M  V30 364 C 33.7562 5.44645 2.96247 0
M  V30 365 C 35.8112 4.09476 2.83255 0
M  V30 366 C 34.5142 6.62752 2.79557 0
M  V30 367 C 36.5402 5.27228 2.67926 0
M  V30 368 C 35.9022 6.52262 2.65959 0
M  V30 369 H 32.0012 0.440018 0.646458 0
M  V30 370 H 34.5852 1.54505 1.18475 0
M  V30 371 H 32.7562 1.22778 3.68484 0
M  V30 372 H 34.4882 1.45828 3.77513 0
M  V30 373 H 31.2432 3.41592 3.28043 0
M  V30 374 H 31.6672 6.02926 3.07912 0
M  V30 375 H 36.3092 3.13598 2.83577 0
M  V30 376 H 34.0272 7.58783 2.77982 0
M  V30 377 H 37.6132 5.22053 2.56812 0
M  V30 378 H 36.4932 7.41844 2.54239 0
M  V30 379 N 33.9963 -1.19345 1.0293 0
M  V30 380 C 35.2443 -1.88665 0.724574 0
M  V30 381 C 35.5653 -1.80036 -0.749144 0
M  V30 382 O 34.8353 -1.2111 -1.53978 0
M  V30 383 H 33.4153 -0.698406 0.265025 0
M  V30 384 H 36.0773 -1.44885 1.30362 0
M  V30 385 H 35.1733 -2.94987 1.01926 0
M  V30 386 N 35.4744 -0.807222 -1.35358 0
M  V30 387 C 36.7224 -0.387122 -1.98358 0
M  V30 388 C 37.0434 1.04942 -1.64354 0
M  V30 389 O 36.3134 1.72615 -0.926339 0
M  V30 390 H 34.8934 -0.140154 -0.733734 0
M  V30 391 H 37.5554 -1.0332 -1.6526 0
M  V30 392 H 36.6514 -0.493352 -3.08176 0
M  V30 393 N 36.9525 1.47285 -0.560781 0
M  V30 394 C 38.1925 2.0436 -0.0404627 0
M  V30 395 C 38.5565 1.42534 1.28639 0
M  V30 396 O 39.7575 1.90677 1.89462 0
M  V30 397 C 38.0285 3.57369 0.0471856 0
M  V30 398 S 39.5875 4.3579 0.513109 0
M  V30 399 H 36.4055 0.710492 -0.0268674 0
M  V30 400 H 39.0075 1.80611 -0.748323 0
M  V30 401 H 37.7115 3.9989 -0.922817 0
M  V30 402 H 37.2425 3.8562 0.778491 0
M  V30 403 H 39.2575 4.63476 1.77212 0
M  V30 404 N 38.4306 0.297415 1.54768 0
M  V30 405 C 39.8466 -0.0560823 1.59501 0
M  V30 406 C 40.0466 -1.52725 1.31444 0
M  V30 407 O 39.1026 -2.27947 1.08611 0
M  V30 408 C 40.4156 0.338631 2.98787 0
M  V30 409 C 41.9636 0.287097 3.11681 0
M  V30 410 C 42.4386 0.656579 4.53269 0
M  V30 411 N 43.9296 0.608977 4.59179 0
M  V30 412 C 44.6646 0.867385 5.66802 0
M  V30 413 N 44.1606 1.19157 6.82476 0
M  V30 414 N 45.9536 0.794687 5.56454 0
M  V30 415 H 38.1046 1.25624 1.71267 0
M  V30 416 H 40.3676 0.509057 0.799728 0
M  V30 417 H 40.0736 1.36263 3.2423 0
M  V30 418 H 39.9476 -0.309508 3.75928 0
M  V30 419 H 42.3346 -0.727649 2.85988 0
M  V30 420 H 42.4156 0.969809 2.36703 0
M  V30 421 H 42.0596 1.66912 4.7969 0
M  V30 422 H 41.9896 -0.0481649 5.26578 0
M  V30 423 H 44.4806 0.369198 3.76092 0
M  V30 424 H 44.7936 1.37482 7.60473 0
M  V30 425 H 43.1386 1.22958 6.84037 0
M  V30 426 H 46.3296 0.541098 4.64962 0
M  V30 427 H 46.5026 0.999445 6.40246 0
M  V30 428 N 39.9087 -1.5758 0.0250728 0
M  V30 429 C 41.1547 -1.91917 -0.655413 0
M  V30 430 C 41.4877 -0.901433 -1.72011 0
M  V30 431 O 40.7627 0.0764069 -1.9435 0
M  V30 432 C 41.0457 -3.36751 -1.27558 0
M  V30 433 C 40.8987 -4.49258 -0.220719 0
M  V30 434 C 42.2177 -3.81469 -2.19475 0
M  V30 435 H 39.3367 -0.697925 -0.23679 0
M  V30 436 H 41.9787 -1.89825 0.0815036 0
M  V30 437 H 40.1287 -3.38664 -1.90365 0
M  V30 438 H 41.8007 -4.59478 0.409601 0
M  V30 439 H 40.0437 -4.31415 0.454264 0
M  V30 440 H 40.7147 -5.47618 -0.694175 0
M  V30 441 H 43.1907 -3.81266 -1.66659 0
M  V30 442 H 42.0667 -4.83512 -2.59822 0
M  V30 443 H 42.3277 -3.16744 -3.08424 0
M  V30 444 N 41.3868 0.248026 -1.55636 0
M  V30 445 C 42.6328 0.973427 -1.78594 0
M  V30 446 C 42.9878 1.83007 -0.593823 0
M  V30 447 O 42.2808 1.87097 0.412961 0
M  V30 448 C 42.4748 1.86819 -3.04686 0
M  V30 449 C 42.3038 1.09965 -4.36048 0
M  V30 450 C 41.0738 0.805204 -4.98843 0
M  V30 451 C 43.2718 0.477783 -5.12076 0
M  V30 452 N 41.2538 0.0124859 -6.13899 0
M  V30 453 C 42.6248 -0.179565 -6.1974 0
M  V30 454 C 44.6798 0.388136 -4.96385 0
M  V30 455 C 43.3828 -0.91795 -7.13419 0
M  V30 456 C 45.4088 -0.336716 -5.90441 0
M  V30 457 C 44.7708 -0.982705 -6.97511 0
M  V30 458 H 40.8698 0.337348 -0.705493 0
M  V30 459 H 43.4538 0.24667 -1.93131 0
M  V30 460 H 41.6248 2.56698 -2.9148 0
M  V30 461 H 43.3568 2.52907 -3.15944 0
M  V30 462 H 40.1118 1.11671 -4.60246 0
M  V30 463 H 40.5358 -0.371933 -6.75978 0
M  V30 464 H 45.1778 0.873237 -4.13684 0
M  V30 465 H 42.8958 -1.41466 -7.95621 0
M  V30 466 H 46.4818 -0.406731 -5.80377 0
M  V30 467 H 45.3618 -1.53464 -7.69037 0
M  V30 468 N 42.8649 1.48995 0.513639 0
M  V30 469 C 44.1109 1.58076 1.27042 0
M  V30 470 C 44.4439 0.261026 1.92438 0
M  V30 471 O 43.7189 -0.734393 1.80103 0
M  V30 472 C 44.0019 2.73091 2.34719 0
M  V30 473 C 43.8549 4.14821 1.73907 0
M  V30 474 C 45.1739 2.83796 3.36375 0
M  V30 475 H 42.2929 0.575391 0.460536 0
M  V30 476 H 44.9349 1.81232 0.570516 0
M  V30 477 H 43.0849 2.53479 2.94416 0
M  V30 478 H 44.7569 4.45917 1.18135 0
M  V30 479 H 42.9999 4.21058 1.0437 0
M  V30 480 H 43.6709 4.91147 2.51949 0
M  V30 481 H 46.1469 3.01611 2.86653 0
M  V30 482 H 45.0229 3.65971 4.09093 0
M  V30 483 H 45.2839 1.92624 3.9793 0
M  V30 484 N 44.343 -0.763751 1.37857 0
M  V30 485 C 45.59 -1.52257 1.33506 0
M  V30 486 C 45.918 -1.94343 -0.078022 0
M  V30 487 O 45.173 -1.64958 -1.05297 0
M  V30 488 C 45.472 -2.79499 2.22745 0
M  V30 489 C 45.138 -2.56426 3.70886 0
M  V30 490 C 43.8 -2.49842 4.11257 0
M  V30 491 C 46.152 -2.36008 4.64704 0
M  V30 492 C 43.48 -2.20841 5.43549 0
M  V30 493 C 45.832 -2.0853 5.97242 0
M  V30 494 C 44.496 -2.00396 6.36709 0
M  V30 495 H 43.766 -0.557149 0.488534 0
M  V30 496 H 46.413 -0.879073 1.70131 0
M  V30 497 H 44.718 -3.48447 1.79142 0
M  V30 498 H 46.415 -3.37413 2.16688 0
M  V30 499 H 43.005 -2.62416 3.38874 0
M  V30 500 H 47.189 -2.40079 4.34368 0
M  V30 501 H 42.445 -2.13045 5.73081 0
M  V30 502 H 46.619 -1.91732 6.69486 0
M  V30 503 H 44.246 -1.77688 7.39142 0
M  V30 504 N 45.8211 -1.22559 -0.990812 0
M  V30 505 C 46.7841 -0.998863 -2.0629 0
M  V30 506 C 47.7841 0.0354834 -1.60761 0
M  V30 507 O 48.9741 -0.203231 -1.7301 0
M  V30 508 C 46.1061 -0.509203 -3.37076 0
M  V30 509 H 47.2991 -1.95014 -2.27837 0
M  V30 510 H 44.8521 -1.04456 -1.16269 0
M  V30 511 H 45.5871 0.446335 -3.21214 0
M  V30 512 H 45.3721 -1.25547 -3.71457 0
M  V30 513 H 46.8621 -0.370888 -4.1595 0
M  V30 514 N 47.2992 1.18797 -1.03562 0
M  V30 515 C 48.2622 2.20464 -0.626769 0
M  V30 516 C 49.2622 1.57721 0.313173 0
M  V30 517 O 50.4522 1.73917 0.0992615 0
M  V30 518 C 47.5842 3.40802 0.0818498 0
M  V30 519 H 48.7772 2.58149 -1.5264 0
M  V30 520 H 46.3302 1.32593 -0.827578 0
M  V30 521 H 47.0652 3.08642 0.995518 0
M  V30 522 H 46.8502 3.8758 -0.593652 0
M  V30 523 H 48.3402 4.16092 0.354584 0
M  V30 524 N 48.7773 0.814389 1.34928 0
M  V30 525 C 50.0263 0.394871 1.97797 0
M  V30 526 C 50.3393 -1.04555 1.65311 0
M  V30 527 O 51.5453 -1.56856 2.21604 0
M  V30 528 C 50.0013 0.655103 3.53888 0
M  V30 529 C 49.6093 2.10858 3.95276 0
M  V30 530 C 51.3533 0.301329 4.23429 0
M  V30 531 C 49.2603 2.31415 5.44244 0
M  V30 532 H 48.1903 0.143913 0.740139 0
M  V30 533 H 50.8413 0.999544 1.53888 0
M  V30 534 H 49.2233 -0.0196253 3.95995 0
M  V30 535 H 50.3973 2.82176 3.64298 0
M  V30 536 H 48.7123 2.42297 3.38646 0
M  V30 537 H 51.3093 0.432869 5.32945 0
M  V30 538 H 51.6523 -0.75331 4.09428 0
M  V30 539 H 52.1853 0.930288 3.86769 0
M  V30 540 H 48.9243 3.35353 5.63222 0
M  V30 541 H 48.4443 1.6463 5.76764 0
M  V30 542 H 50.1233 2.13352 6.10811 0
M  V30 543 N 50.2554 -1.46986 0.568584 0
M  V30 544 C 51.5024 -2.02441 0.0487986 0
M  V30 545 C 51.8304 -1.44169 -1.30559 0
M  V30 546 O 51.0854 -0.591213 -1.86556 0
M  V30 547 C 51.3844 -3.57306 -0.081836 0
M  V30 548 C 51.0504 -4.34552 1.20313 0
M  V30 549 C 49.7124 -4.55376 1.5552 0
M  V30 550 C 52.0644 -4.79016 2.05411 0
M  V30 551 C 49.3924 -5.17913 2.7565 0
M  V30 552 C 51.7444 -5.42879 3.24754 0
M  V30 553 C 50.4084 -5.61933 3.60261 0
M  V30 554 H 49.6784 -0.740785 0.0178567 0
M  V30 555 H 52.3254 -1.76525 0.742384 0
M  V30 556 H 50.6304 -3.8228 -0.858463 0
M  V30 557 H 52.3274 -3.97876 -0.499546 0
M  V30 558 H 48.9174 -4.18631 0.919014 0
M  V30 559 H 53.1014 -4.62696 1.79516 0
M  V30 560 H 48.3574 -5.30858 3.03315 0
M  V30 561 H 52.5314 -5.76293 3.90973 0
M  V30 562 H 50.1584 -6.10161 4.53439 0
M  V30 563 N 51.7335 -0.305618 -1.54608 0
M  V30 564 C 52.6635 0.561482 -2.26649 0
M  V30 565 C 53.6445 1.13415 -1.26772 0
M  V30 566 O 54.8295 1.16262 -1.55553 0
M  V30 567 C 51.9595 1.73122 -3.01075 0
M  V30 568 C 50.9135 1.2887 -4.08138 0
M  V30 569 C 50.2395 2.54396 -4.70305 0
M  V30 570 C 51.5395 0.416578 -5.20636 0
M  V30 571 H 53.2335 -0.0393902 -2.99374 0
M  V30 572 H 50.7795 -0.020385 -1.43986 0
M  V30 573 H 52.7325 2.34396 -3.50195 0
M  V30 574 H 51.4565 2.3584 -2.25936 0
M  V30 575 H 50.1155 0.698991 -3.59875 0
M  V30 576 H 49.7635 3.15439 -3.918 0
M  V30 577 H 49.4635 2.25486 -5.42614 0
M  V30 578 H 50.9875 3.16464 -5.2219 0
M  V30 579 H 52.4015 0.935116 -5.65622 0
M  V30 580 H 50.7985 0.221046 -5.99693 0
M  V30 581 H 51.8685 -0.557162 -4.81688 0
M  V30 582 N 53.2116 1.57565 -0.0334293 0
M  V30 583 C 54.1416 2.13511 0.945265 0
M  V30 584 C 55.1226 1.05231 1.33643 0
M  V30 585 O 56.3076 1.33084 1.41429 0
M  V30 586 C 53.4376 2.6657 2.22616 0
M  V30 587 C 52.3916 3.79676 1.97561 0
M  V30 588 C 51.7176 4.1918 3.31952 0
M  V30 589 C 53.0176 5.0557 1.31135 0
M  V30 590 H 54.7116 2.95538 0.479325 0
M  V30 591 H 52.2576 1.42166 0.229115 0
M  V30 592 H 54.2106 3.04344 2.91466 0
M  V30 593 H 52.9346 1.8171 2.71384 0
M  V30 594 H 51.5936 3.42347 1.31127 0
M  V30 595 H 51.2416 3.31296 3.78487 0
M  V30 596 H 50.9416 4.95402 3.15992 0
M  V30 597 H 52.4656 4.59541 4.02063 0
M  V30 598 H 53.8796 5.40903 1.89992 0
M  V30 599 H 52.2766 5.86818 1.25559 0
M  V30 600 H 53.3466 4.84062 0.284894 0
M  V30 601 N 54.6897 -0.239769 1.55765 0
M  V30 602 C 55.6197 -1.30052 1.9393 0
M  V30 603 C 56.6007 -1.49839 0.805132 0
M  V30 604 O 57.7857 -1.62328 1.06599 0
M  V30 605 C 54.9157 -2.65391 2.2402 0
M  V30 606 C 53.8697 -2.60289 3.39755 0
M  V30 607 C 53.1957 -3.99489 3.55405 0
M  V30 608 C 54.4957 -2.16654 4.75246 0
M  V30 609 H 56.1897 -0.983573 2.82783 0
M  V30 610 H 53.7357 -0.471701 1.36055 0
M  V30 611 H 55.6887 -3.3974 2.49308 0
M  V30 612 H 54.4127 -2.98736 1.32 0
M  V30 613 H 53.0717 -1.88398 3.14487 0
M  V30 614 H 52.7197 -4.30112 2.60793 0
M  V30 615 H 52.4197 -3.96962 4.33238 0
M  V30 616 H 53.9437 -4.75528 3.83022 0
M  V30 617 H 55.3577 -2.80737 4.99859 0
M  V30 618 H 53.7547 -2.25223 5.56232 0
M  V30 619 H 54.8247 -1.11835 4.71827 0
M  V30 620 N 56.1678 -1.49265 -0.50573 0
M  V30 621 C 57.3928 -1.62478 -1.28902 0
M  V30 622 C 57.8178 -0.294332 -1.85783 0
M  V30 623 O 57.1758 0.737412 -1.65626 0
M  V30 624 C 57.2238 -2.69268 -2.39848 0
M  V30 625 O 56.3278 -2.28113 -3.43567 0
M  V30 626 H 55.6688 -0.54399 -0.380751 0
M  V30 627 H 58.1988 -1.95421 -0.605952 0
M  V30 628 H 58.2088 -2.91291 -2.85681 0
M  V30 629 H 56.8838 -3.65846 -1.97812 0
M  V30 630 H 55.4608 -2.16401 -3.03685 0
M  V30 631 N 57.6459 0.756429 -1.3826 0
M  V30 632 C 58.5759 1.88374 -1.37976 0
M  V30 633 C 59.5569 1.68311 -0.246082 0
M  V30 634 O 60.7419 1.88944 -0.44874 0
M  V30 635 C 57.8719 3.25864 -1.20125 0
M  V30 636 C 56.8259 3.60523 -2.30666 0
M  V30 637 C 56.1519 4.9672 -1.97923 0
M  V30 638 C 57.4519 3.65692 -3.72916 0
M  V30 639 H 59.1459 1.88869 -2.32312 0
M  V30 640 H 56.6919 0.907272 -1.11824 0
M  V30 641 H 58.6449 4.0438 -1.18552 0
M  V30 642 H 57.3689 3.25841 -0.222498 0
M  V30 643 H 56.0279 2.84324 -2.3142 0
M  V30 644 H 55.6759 4.93253 -0.985393 0
M  V30 645 H 55.3759 5.20878 -2.71955 0
M  V30 646 H 56.8999 5.77618 -1.97964 0
M  V30 647 H 58.3139 4.34328 -3.74208 0
M  V30 648 H 56.7109 4.01358 -4.4613 0
M  V30 649 H 57.7809 2.65987 -4.05436 0
M  V30 650 N 59.124 1.23083 0.984299 0
M  V30 651 C 60.087 1.00979 2.05757 0
M  V30 652 C 61.087 -0.0269573 1.60777 0
M  V30 653 O 62.277 0.212403 1.729 0
M  V30 654 C 59.409 0.527072 3.36801 0
M  V30 655 H 60.602 1.9622 2.26799 0
M  V30 656 H 58.155 1.05072 1.15714 0
M  V30 657 H 58.89 -0.429294 3.21446 0
M  V30 658 H 58.675 1.27515 3.70786 0
M  V30 659 H 60.165 0.392942 4.15747 0
M  V30 660 N 60.6021 -1.18246 1.0419 0
M  V30 661 C 61.5651 -2.20128 0.638452 0
M  V30 662 C 62.5651 -1.57885 -0.304805 0
M  V30 663 O 63.7551 -1.73967 -0.0900369 0
M  V30 664 C 60.8871 -3.4084 -0.0637751 0
M  V30 665 H 62.0801 -2.57336 1.54007 0
M  V30 666 H 59.6331 -1.32152 0.834598 0
M  V30 667 H 60.3681 -3.09166 -0.979136 0
M  V30 668 H 60.1531 -3.8726 0.614198 0
M  V30 669 H 61.6431 -4.16274 -0.332512 0
M  V30 670 N 62.0802 -0.821533 -1.34494 0
M  V30 671 C 63.3052 -0.420873 -2.03085 0
M  V30 672 C 63.7302 0.964915 -1.61465 0
M  V30 673 O 63.0882 1.62763 -0.798607 0
M  V30 674 C 63.1362 -0.529414 -3.56693 0
M  V30 675 O 62.2402 0.451302 -4.09923 0
M  V30 676 H 61.5812 -0.173489 -0.640935 0
M  V30 677 H 64.1112 -1.11157 -1.71771 0
M  V30 678 H 64.1212 -0.404671 -4.05988 0
M  V30 679 H 62.7962 -1.54014 -3.86332 0
M  V30 680 H 61.3732 0.285558 -3.71805 0
M  V30 681 N 63.5583 1.46682 -0.576371 0
M  V30 682 C 64.8043 2.03287 -0.0679305 0
M  V30 683 C 65.1593 1.44063 1.27529 0
M  V30 684 O 64.4523 0.593973 1.82161 0
M  V30 685 C 64.6463 3.57345 0.062886 0
M  V30 686 C 64.4753 4.31509 -1.26611 0
M  V30 687 C 63.2453 4.70664 -1.83856 0
M  V30 688 C 65.4433 4.65444 -2.18783 0
M  V30 689 N 63.4253 5.29552 -3.10561 0
M  V30 690 C 64.7963 5.24835 -3.30072 0
M  V30 691 C 66.8513 4.47375 -2.18542 0
M  V30 692 C 65.5543 5.68063 -4.41244 0
M  V30 693 C 67.5803 4.91614 -3.28739 0
M  V30 694 C 66.9423 5.51071 -4.38748 0
M  V30 695 H 63.0413 0.779083 -0.0674836 0
M  V30 696 H 65.6253 1.78918 -0.767877 0
M  V30 697 H 63.7963 3.8144 0.731988 0
M  V30 698 H 65.5283 4.00592 0.575134 0
M  V30 699 H 62.2833 4.53224 -1.37424 0
M  V30 700 H 62.7073 5.63523 -3.75195 0
M  V30 701 H 67.3493 4.00747 -1.34765 0
M  V30 702 H 65.0673 6.13672 -5.25768 0
M  V30 703 H 68.6533 4.79389 -3.29662 0
M  V30 704 H 67.5333 5.84678 -5.22611 0
M  V30 705 N 65.0364 0.313813 1.54444 0
M  V30 706 C 66.2614 -0.296681 2.05267 0
M  V30 707 C 66.6864 -1.45757 1.18897 0
M  V30 708 O 66.0444 -1.80239 0.195886 0
M  V30 709 C 66.0924 -0.71831 3.53373 0
M  V30 710 O 65.1964 -1.82175 3.69981 0
M  V30 711 H 64.5374 -0.0554061 0.661684 0
M  V30 712 H 67.0674 0.459387 1.99376 0
M  V30 713 H 67.0774 -1.00364 3.95463 0
M  V30 714 H 65.7524 0.130821 4.15694 0
M  V30 715 H 64.3294 -1.53598 3.39797 0
M  V30 716 N 66.5145 -1.57545 0.0417849 0
M  V30 717 C 67.4615 -2.10977 -0.935805 0
M  V30 718 C 68.4315 -1.01486 -1.31491 0
M  V30 719 O 69.6165 -1.2898 -1.40602 0
M  V30 720 C 66.7565 -2.65169 -2.2086 0
M  V30 721 C 65.8695 -3.88714 -1.88482 0
M  V30 722 C 65.0045 -4.31254 -3.1015 0
M  V30 723 C 64.0435 -5.47524 -2.7365 0
M  V30 724 N 63.1805 -5.85162 -3.87982 0
M  V30 725 H 68.0205 -2.94218 -0.473249 0
M  V30 726 H 65.5575 -1.45415 -0.221981 0
M  V30 727 H 67.5155 -2.94685 -2.95325 0
M  V30 728 H 66.1455 -1.8474 -2.64709 0
M  V30 729 H 65.1975 -3.65849 -1.04205 0
M  V30 730 H 66.5095 -4.73245 -1.57608 0
M  V30 731 H 65.6635 -4.62273 -3.92923 0
M  V30 732 H 64.4025 -3.45516 -3.44195 0
M  V30 733 H 63.4075 -5.16187 -1.89291 0
M  V30 734 H 64.6325 -6.34971 -2.40807 0
M  V30 735 H 62.5785 -5.02377 -4.21846 0
M  V30 736 H 62.4955 -6.64362 -3.60775 0
M  V30 737 H 63.7635 -6.20791 -4.71422 0
M  V30 738 N 67.9926 0.231505 -1.5589 0
M  V30 739 C 68.9556 1.27028 -1.90779 0
M  V30 740 C 69.9556 1.40308 -0.785507 0
M  V30 741 O 71.1456 1.38744 -1.05336 0
M  V30 742 C 68.2776 2.64566 -2.14983 0
M  V30 743 H 69.4706 0.973017 -2.83677 0
M  V30 744 H 67.0236 0.471486 -1.49019 0
M  V30 745 H 67.7586 2.99406 -1.24604 0
M  V30 746 H 67.5436 2.56305 -2.96732 0
M  V30 747 H 69.0336 3.39543 -2.43105 0
M  V30 748 N 69.4707 1.49531 0.497807 0
M  V30 749 C 70.3807 1.69176 1.62532 0
M  V30 750 C 71.3967 0.5744 1.64246 0
M  V30 751 O 72.5727 0.849497 1.82608 0
M  V30 752 C 69.6377 1.75695 2.98885 0
M  V30 753 C 68.6987 2.9929 3.07773 0
M  V30 754 C 67.9317 3.05488 4.37622 0
M  V30 755 O 68.1547 2.19192 5.26603 0
M  V30 756 O 67.0887 3.9798 4.51548 0
M  V30 757 H 70.9147 2.647 1.48887 0
M  V30 758 H 68.4997 1.3331 0.674441 0
M  V30 759 H 70.3817 1.82317 3.79919 0
M  V30 760 H 69.0567 0.8335 3.12785 0
M  V30 761 H 67.9637 2.98183 2.25915 0
M  V30 762 H 69.2967 3.91125 2.98801 0
M  V30 763 N 70.9488 -0.749086 1.3866 0
M  V30 764 C 71.8968 -1.88428 1.36373 0
M  V30 765 C 72.8908 -1.67561 0.248929 0
M  V30 766 O 74.0968 -1.75074 0.41821 0
M  V30 767 H 70.4718 -0.620023 0.42553 0
M  V30 768 H 72.4428 -1.87473 2.32156 0
M  V30 769 C 71.1918 -3.25961 1.21014 0
M  V30 770 H 70.5148 -3.42607 2.06059 0
M  V30 771 H 71.9548 -4.05625 1.23469 0
M  V30 772 C 70.4138 -3.36799 -0.0825941 0
M  V30 773 O 70.9438 -3.87517 -1.05797 0
M  V30 774 N 69.1498 -2.90258 -0.140939 0
M  V30 775 H 68.6968 -2.49174 0.653477 0
M  V30 776 H 68.6548 -2.97889 -1.00545 0
M  V30 777 N 72.4269 -1.23603 -0.977757 0
M  V30 778 C 73.7039 -0.977897 -1.69401 0
M  V30 779 C 74.0839 0.502738 -2.05026 0
M  V30 780 O 73.4319 1.47459 -1.74551 0
M  V30 781 C 73.6419 -1.89077 -2.93345 0
M  V30 782 C 74.9899 -2.15579 -3.65802 0
M  V30 783 O 76.0139 -1.86648 -3.03383 0
M  V30 784 O 74.8729 -2.64658 -4.78141 0
M  V30 785 H 71.9669 -0.369025 -0.740101 0
M  V30 786 H 74.5129 -1.34657 -1.03274 0
M  V30 787 H 73.2849 -2.89158 -2.63634 0
M  V30 788 H 72.9079 -1.52463 -3.67207 0
M  V30 789 N 73.905 1.17692 -1.04816 0
M  V30 790 C 75.152 1.87859 -0.75599 0
M  V30 791 C 75.48 1.80812 0.716752 0
M  V30 792 O 74.735 1.20819 1.53952 0
M  V30 793 C 75.034 3.37462 -1.17703 0
M  V30 794 C 74.7 3.64713 -2.65133 0
M  V30 795 C 73.362 3.71859 -3.05408 0
M  V30 796 C 75.714 3.76492 -3.60421 0
M  V30 797 C 73.042 3.88271 -4.39843 0
M  V30 798 C 75.394 3.94421 -4.94585 0
M  V30 799 C 74.058 3.99806 -5.3452 0
M  V30 800 H 73.328 0.687425 -0.276636 0
M  V30 801 H 75.975 1.39255 -1.31455 0
M  V30 802 H 74.28 3.88097 -0.537395 0
M  V30 803 H 75.977 3.90109 -0.928218 0
M  V30 804 H 72.567 3.59772 -2.32942 0
M  V30 805 H 76.751 3.70295 -3.30447 0
M  V30 806 H 72.007 3.90687 -4.70291 0
M  V30 807 H 76.181 4.02477 -5.68318 0
M  V30 808 H 73.808 4.12276 -6.38696 0
M  V30 809 N 75.3831 0.828654 1.34056 0
M  V30 810 C 76.6311 0.41863 1.97717 0
M  V30 811 C 76.9521 -1.02314 1.66002 0
M  V30 812 O 76.2221 -1.71119 0.953683 0
M  V30 813 H 74.8021 0.151809 0.731412 0
M  V30 814 H 77.4641 1.05936 1.63596 0
M  V30 815 H 76.5601 0.542318 3.07352 0
M  V30 816 N 76.8612 -1.46375 0.584142 0
M  V30 817 C 77.7912 -2.33103 -0.136037 0
M  V30 818 C 78.7722 -1.45431 -0.882255 0
M  V30 819 O 79.9572 -1.74246 -0.857434 0
M  V30 820 C 77.0872 -3.27731 -1.14933 0
M  V30 821 C 76.0412 -4.24855 -0.517862 0
M  V30 822 C 75.3672 -5.09001 -1.63773 0
M  V30 823 C 76.6672 -5.19439 0.545886 0
M  V30 824 H 78.3612 -2.93568 0.588086 0
M  V30 825 H 75.9072 -1.41166 0.284259 0
M  V30 826 H 77.8602 -3.87261 -1.66153 0
M  V30 827 H 76.5842 -2.65377 -1.90375 0
M  V30 828 H 75.2432 -3.6659 -0.0267361 0
M  V30 829 H 74.8912 -4.43031 -2.38185 0
M  V30 830 H 74.5912 -5.74777 -1.22085 0
M  V30 831 H 76.1152 -5.71396 -2.15266 0
M  V30 832 H 77.5292 -5.73177 0.118704 0
M  V30 833 H 75.9262 -5.93566 0.88317 0
M  V30 834 H 76.9962 -4.63285 1.43162 0
M  V30 835 N 78.3393 -0.321999 -1.54275 0
M  V30 836 C 79.5853 0.281461 -2.00837 0
M  V30 837 C 79.9183 1.51909 -1.20985 0
M  V30 838 O 79.1933 1.923 -0.291733 0
M  V30 839 C 79.4763 0.617162 -3.54772 0
M  V30 840 C 79.3293 -0.631064 -4.45351 0
M  V30 841 C 80.6483 1.43542 -4.16033 0
M  V30 842 H 77.7673 0.100826 -0.730071 0
M  V30 843 H 80.4093 -0.438268 -1.84876 0
M  V30 844 H 78.5593 1.23034 -3.68504 0
M  V30 845 H 80.2313 -1.26934 -4.43492 0
M  V30 846 H 78.4743 -1.26025 -4.15091 0
M  V30 847 H 79.1453 -0.351735 -5.50878 0
M  V30 848 H 81.6213 0.917134 -4.05867 0
M  V30 849 H 80.4973 1.63907 -5.23856 0
M  V30 850 H 80.7583 2.43108 -3.69257 0
M  V30 851 N 79.8174 1.5752 -0.0501392 0
M  V30 852 C 80.7494 2.08413 0.95376 0
M  V30 853 C 81.7624 1.01175 1.27544 0
M  V30 854 O 82.9514 1.28744 1.23641 0
M  V30 855 C 80.0514 2.51138 2.27559 0
M  V30 856 C 79.2244 3.817 2.13598 0
M  V30 857 C 78.2834 4.10749 3.28895 0
M  V30 858 O 77.3094 4.80685 3.04845 0
M  V30 859 N 78.5114 3.62579 4.5334 0
M  V30 860 H 81.2764 2.95165 0.519383 0
M  V30 861 H 78.8374 1.61327 0.136127 0
M  V30 862 H 80.8294 2.67648 3.03557 0
M  V30 863 H 79.3994 1.6964 2.62567 0
M  V30 864 H 78.6194 3.74782 1.22197 0
M  V30 865 H 79.9074 4.67201 2.01496 0
M  V30 866 H 79.3054 3.06039 4.75769 0
M  V30 867 H 77.8624 3.84329 5.26436 0
M  V30 868 N 81.2955 -0.223234 1.56011 0
M  V30 869 C 82.7065 -0.790368 1.69145 0
M  V30 870 C 83.0575 -1.85055 0.651845 0
M  V30 871 O 82.1825 -2.15498 -0.197359 0
M  V30 872 C 82.7775 -1.4404 3.06656 0
M  V30 873 C 81.3365 -1.95494 3.2165 0
M  V30 874 C 80.4835 -0.814506 2.65068 0
M  V30 875 H 83.4345 0.00139011 1.587 0
M  V30 876 H 83.4555 -2.30916 3.0242 0
M  V30 877 H 82.9675 -0.668543 3.82298 0
M  V30 878 H 81.0685 -2.75487 2.50874 0
M  V30 879 H 81.1815 -2.13607 4.28846 0
M  V30 880 H 79.5455 -1.22137 2.23505 0
M  V30 881 H 80.3285 -0.0553515 3.43255 0
M  V30 882 N 82.7736 -1.49793 -0.48987 0
M  V30 883 C 83.7036 -1.70201 -1.59856 0
M  V30 884 C 84.6846 -0.55076 -1.60937 0
M  V30 885 O 85.8696 -0.787841 -1.77501 0
M  V30 886 C 82.9996 -1.77882 -2.98287 0
M  V30 887 C 81.9536 -2.92907 -3.12073 0
M  V30 888 C 81.2796 -2.85712 -4.51965 0
M  V30 889 C 82.5796 -4.3369 -2.91051 0
M  V30 890 H 84.2736 -2.63025 -1.43032 0
M  V30 891 H 81.8196 -1.26574 -0.686664 0
M  V30 892 H 83.7726 -1.90744 -3.75759 0
M  V30 893 H 82.4966 -0.816653 -3.16225 0
M  V30 894 H 81.1556 -2.79665 -2.37029 0
M  V30 895 H 80.8036 -1.8738 -4.66795 0
M  V30 896 H 80.5036 -3.62921 -4.62128 0
M  V30 897 H 82.0276 -3.00598 -5.31482 0
M  V30 898 H 83.4416 -4.47555 -3.58284 0
M  V30 899 H 81.8386 -5.12205 -3.12675 0
M  V30 900 H 82.9086 -4.47362 -1.87071 0
M  V30 901 N 84.2517 0.741722 -1.39055 0
M  V30 902 C 85.4977 1.50336 -1.36113 0
M  V30 903 C 85.8307 1.94148 0.0450796 0
M  V30 904 O 85.1057 1.66301 1.00868 0
M  V30 905 C 85.3887 2.74773 -2.32749 0
M  V30 906 C 85.2417 2.37023 -3.82283 0
M  V30 907 C 86.5607 3.76846 -2.27322 0
M  V30 908 H 83.6797 0.545351 -0.495743 0
M  V30 909 H 86.3217 0.848624 -1.69995 0
M  V30 910 H 84.4717 3.30639 -2.03986 0
M  V30 911 H 86.1437 1.8684 -4.21768 0
M  V30 912 H 84.3867 1.69334 -3.99385 0
M  V30 913 H 85.0577 3.26104 -4.45376 0
M  V30 914 H 87.5337 3.30548 -2.5274 0
M  V30 915 H 86.4097 4.6159 -2.97028 0
M  V30 916 H 86.6707 4.23286 -1.27599 0
M  V30 917 N 85.7298 1.2412 0.971189 0
M  V30 918 C 86.9578 1.10575 1.74874 0
M  V30 919 C 87.3728 -0.342017 1.85676 0
M  V30 920 O 86.7298 -1.23617 1.34258 0
M  V30 921 C 86.7808 1.73579 3.171 0
M  V30 922 O 86.5018 3.12695 3.06844 0
M  V30 923 C 88.0028 1.65598 4.11208 0
M  V30 924 H 85.2228 0.386504 0.548503 0
M  V30 925 H 87.7668 1.64156 1.21955 0
M  V30 926 H 85.9218 1.24009 3.67016 0
M  V30 927 H 86.3358 3.43412 3.96445 0
M  V30 928 H 87.8098 2.1437 5.08674 0
M  V30 929 H 88.2868 0.616532 4.34851 0
M  V30 930 H 88.8928 2.14578 3.67201 0
M  V30 931 N 87.2079 -1.17134 1.05439 0
M  V30 932 C 88.1409 -2.2012 0.601855 0
M  V30 933 C 89.1189 -1.58314 -0.370854 0
M  V30 934 O 90.3029 -1.8638 -0.281882 0
M  V30 935 C 87.4299 -3.38491 -0.118868 0
M  V30 936 C 86.4759 -4.18752 0.809242 0
M  V30 937 S 87.3089 -4.83602 2.29977 0
M  V30 938 C 88.4649 -6.0536 1.59029 0
M  V30 939 H 88.6979 -2.58165 1.47438 0
M  V30 940 H 86.2309 -1.27788 0.866573 0
M  V30 941 H 88.1889 -4.07084 -0.528495 0
M  V30 942 H 86.8499 -2.98829 -0.967465 0
M  V30 943 H 86.0429 -5.03373 0.251379 0
M  V30 944 H 85.6449 -3.5561 1.15835 0
M  V30 945 H 87.9369 -6.71615 0.891017 0
M  V30 946 H 88.8799 -6.65679 2.41407 0
M  V30 947 H 89.2879 -5.54138 1.07663 0
M  V30 948 N 88.686 -0.835752 -1.33615 0
M  V30 949 C 89.596 -0.269088 -2.33052 0
M  V30 950 C 90.612 0.603251 -1.63208 0
M  V30 951 O 91.788 0.508112 -1.94885 0
M  V30 952 C 88.853 0.549091 -3.42324 0
M  V30 953 C 87.914 -0.347156 -4.27894 0
M  V30 954 C 87.147 0.43207 -5.31948 0
M  V30 955 O 87.37 1.66409 -5.45586 0
M  V30 956 O 86.304 -0.192298 -6.01593 0
M  V30 957 H 90.13 -1.09243 -2.83372 0
M  V30 958 H 87.715 -0.598198 -1.36901 0
M  V30 959 H 89.597 1.01414 -4.09015 0
M  V30 960 H 88.272 1.34955 -2.94226 0
M  V30 961 H 87.179 -0.859979 -3.64081 0
M  V30 962 H 88.512 -1.1123 -4.79467 0
M  V30 963 N 90.1641 1.46063 -0.591896 0
M  V30 964 C 91.0961 2.28539 0.174001 0
M  V30 965 C 92.1091 1.39047 0.846753 0
M  V30 966 O 93.2981 1.63564 0.714774 0
M  V30 967 C 90.3981 3.14347 1.26645 0
M  V30 968 C 89.5711 4.32021 0.683856 0
M  V30 969 C 88.6301 4.99157 1.66518 0
M  V30 970 O 87.6561 5.56458 1.19763 0
M  V30 971 N 88.8581 4.97005 2.99943 0
M  V30 972 H 91.6231 2.94911 -0.533633 0
M  V30 973 H 89.1841 1.56077 -0.430294 0
M  V30 974 H 91.1761 3.56125 1.92242 0
M  V30 975 H 89.7461 2.49988 1.87682 0
M  V30 976 H 88.9661 3.93915 -0.1498 0
M  V30 977 H 90.2541 5.08059 0.274567 0
M  V30 978 H 89.6521 4.51714 3.40545 0
M  V30 979 H 88.2091 5.42696 3.61004 0
M  V30 980 N 91.6422 0.330177 1.54103 0
M  V30 981 C 92.5722 -0.525353 2.27513 0
M  V30 982 C 93.5532 -1.11383 1.2856 0
M  V30 983 O 94.7382 -1.13773 1.57383 0
M  V30 984 C 91.8682 -1.6831 3.03791 0
M  V30 985 C 90.8222 -1.2236 4.10137 0
M  V30 986 C 90.1482 -2.46882 4.74293 0
M  V30 987 C 91.4482 -0.333697 5.21233 0
M  V30 988 H 93.1422 0.087013 2.99274 0
M  V30 989 H 90.6882 0.0432893 1.43935 0
M  V30 990 H 92.6412 -2.28795 3.5388 0
M  V30 991 H 91.3652 -2.32216 2.29659 0
M  V30 992 H 90.0242 -0.64165 3.60941 0
M  V30 993 H 89.6722 -3.09165 3.96769 0
M  V30 994 H 89.3722 -2.16825 5.46133 0
M  V30 995 H 90.8962 -3.08117 5.27159 0
M  V30 996 H 92.3102 -0.845013 5.67038 0
M  V30 997 H 90.7072 -0.125612 5.99969 0
M  V30 998 H 91.7772 0.633724 4.80741 0
M  V30 999 N 93.1203 -1.57491 0.0584922 0
M  V30 1000 C 94.0503 -2.14988 -0.911178 0
M  V30 1001 C 95.0313 -1.07343 -1.31952 0
M  V30 1002 O 96.2163 -1.35318 -1.39294 0
M  V30 1003 C 93.3463 -2.70078 -2.18347 0
M  V30 1004 C 92.3003 -3.82771 -1.91495 0
M  V30 1005 C 91.6263 -4.24408 -3.25241 0
M  V30 1006 C 92.9263 -5.07592 -1.23075 0
M  V30 1007 H 94.6203 -2.96263 -0.432246 0
M  V30 1008 H 92.1663 -1.42512 -0.206469 0
M  V30 1009 H 94.1193 -3.08943 -2.86587 0
M  V30 1010 H 92.8433 -1.86005 -2.68458 0
M  V30 1011 H 91.5023 -3.44389 -1.25664 0
M  V30 1012 H 91.1503 -3.37275 -3.73168 0
M  V30 1013 H 90.8503 -5.00366 -3.08071 0
M  V30 1014 H 92.3743 -4.65879 -3.94701 0
M  V30 1015 H 93.7883 -5.43857 -1.81362 0
M  V30 1016 H 92.1853 -5.88741 -1.16207 0
M  V30 1017 H 93.2553 -4.84454 -0.207847 0
M  V30 1018 N 94.5984 0.214957 -1.56127 0
M  V30 1019 C 95.8444 0.935325 -1.80619 0
M  V30 1020 C 96.1994 1.81706 -0.632507 0
M  V30 1021 O 95.4924 1.87931 0.373182 0
M  V30 1022 C 95.6864 1.80314 -3.0858 0
M  V30 1023 C 95.5154 1.00691 -4.38282 0
M  V30 1024 C 94.2854 0.699211 -5.00439 0
M  V30 1025 C 96.4834 0.369057 -5.12974 0
M  V30 1026 N 94.4654 -0.117734 -6.13787 0
M  V30 1027 C 95.8364 -0.310981 -6.1922 0
M  V30 1028 C 97.8914 0.282759 -4.97096 0
M  V30 1029 C 96.5944 -1.06907 -7.11311 0
M  V30 1030 C 98.6204 -0.461881 -5.89594 0
M  V30 1031 C 97.9824 -1.13044 -6.9527 0
M  V30 1032 H 94.0814 0.322307 -0.71249 0
M  V30 1033 H 96.6654 0.205649 -1.93611 0
M  V30 1034 H 94.8364 2.50458 -2.96859 0
M  V30 1035 H 96.5684 2.46148 -3.21237 0
M  V30 1036 H 93.3234 1.01884 -4.62511 0
M  V30 1037 H 93.7474 -0.515235 -6.75037 0
M  V30 1038 H 98.3894 0.785292 -4.15443 0
M  V30 1039 H 96.1074 -1.5831 -7.92442 0
M  V30 1040 H 99.6934 -0.529746 -5.79383 0
M  V30 1041 H 98.5734 -1.69742 -7.65609 0
M  V30 1042 N 96.0765 1.50051 0.48192 0
M  V30 1043 C 97.3225 1.60736 1.2366 0
M  V30 1044 C 97.6555 0.301786 1.91841 0
M  V30 1045 O 96.9305 -0.696025 1.8162 0
M  V30 1046 C 97.2135 2.78009 2.28874 0
M  V30 1047 C 97.0665 4.18416 1.65069 0
M  V30 1048 C 98.3855 2.90867 3.30279 0
M  V30 1049 H 95.5045 0.585031 0.448228 0
M  V30 1050 H 98.1465 1.82402 0.531946 0
M  V30 1051 H 96.2965 2.59667 2.88973 0
M  V30 1052 H 97.9685 4.48322 1.0865 0
M  V30 1053 H 96.2115 4.23177 0.954148 0
M  V30 1054 H 96.8825 4.96381 2.41474 0
M  V30 1055 H 99.3585 3.07623 2.80191 0
M  V30 1056 H 98.2345 3.74566 4.01238 0
M  V30 1057 H 98.4955 2.01021 3.93755 0
M  V30 1058 N 97.5546 -0.734337 1.39446 0
M  V30 1059 C 98.7796 -1.52866 1.40167 0
M  V30 1060 C 99.2046 -1.881 -0.00171513 0
M  V30 1061 O 98.5626 -1.51957 -0.988879 0
M  V30 1062 C 98.6106 -2.79235 2.28167 0
M  V30 1063 O 97.7146 -3.75185 1.71201 0
M  V30 1064 H 97.0556 -0.461618 0.477289 0
M  V30 1065 H 99.5856 -0.905949 1.8345 0
M  V30 1066 H 99.5956 -3.27963 2.42702 0
M  V30 1067 H 98.2706 -2.52923 3.30156 0
M  V30 1068 H 96.8476 -3.33958 1.65912 0
M  V30 1069 N 99.0327 -1.24633 -0.964593 0
M  V30 1070 C 100.281 -1.08573 -1.70459 0
M  V30 1071 C 100.602 0.375655 -1.91347 0
M  V30 1072 O 99.8717 1.26779 -1.49345 0
M  V30 1073 H 98.4517 -0.398784 -0.631649 0
M  V30 1074 H 101.114 -1.56601 -1.16026 0
M  V30 1075 H 100.21 -1.58623 -2.68785 0
M  V30 1076 N 100.511 1.16574 -1.06058 0
M  V30 1077 C 101.927 1.3904 -0.783585 0
M  V30 1078 C 102.127 1.91784 0.618145 0
M  V30 1079 O 101.183 2.11511 1.37911 0
M  V30 1080 C 102.496 2.37329 -1.84649 0
M  V30 1081 C 104.044 2.51018 -1.86973 0
M  V30 1082 C 104.519 3.52588 -2.92311 0
M  V30 1083 N 106.01 3.60113 -2.91329 0
M  V30 1084 C 106.745 4.38486 -3.69482 0
M  V30 1085 N 106.241 5.20302 -4.57447 0
M  V30 1086 N 108.034 4.33446 -3.57885 0
M  V30 1087 H 100.185 0.806725 -1.96483 0
M  V30 1088 H 102.448 0.417117 -0.851303 0
M  V30 1089 H 102.154 2.05663 -2.85299 0
M  V30 1090 H 102.028 3.36946 -1.6955 0
M  V30 1091 H 104.415 2.81989 -0.869827 0
M  V30 1092 H 104.496 1.51445 -2.0615 0
M  V30 1093 H 104.14 3.22354 -3.92492 0
M  V30 1094 H 104.07 4.51886 -2.70383 0
M  V30 1095 H 106.561 3.01707 -2.27555 0
M  V30 1096 H 106.874 5.77311 -5.13743 0
M  V30 1097 H 105.219 5.19653 -4.61503 0
M  V30 1098 H 108.41 3.68586 -2.88551 0
M  V30 1099 H 108.583 4.94279 -4.19037 0
M  V30 1100 N 101.989 0.842826 1.3317 0
M  V30 1101 C 102.921 0.236245 2.27979 0
M  V30 1102 C 103.934 -0.585282 1.51915 0
M  V30 1103 O 105.123 -0.411705 1.73687 0
M  V30 1104 C 102.223 -0.685717 3.3189 0
M  V30 1105 C 101.396 0.0973448 4.37292 0
M  V30 1106 C 100.455 -0.748565 5.20848 0
M  V30 1107 O 99.4809 -0.186339 5.68895 0
M  V30 1108 N 100.683 -2.06527 5.42519 0
M  V30 1109 H 103.448 1.05088 2.80672 0
M  V30 1110 H 101.009 0.701667 1.45905 0
M  V30 1111 H 103.001 -1.25669 3.84694 0
M  V30 1112 H 101.571 -1.40105 2.79445 0
M  V30 1113 H 100.791 0.849706 3.84933 0
M  V30 1114 H 102.079 0.635643 5.04814 0
M  V30 1115 H 101.477 -2.54554 5.05192 0
M  V30 1116 H 100.034 -2.58464 5.98364 0
M  V30 1117 N 103.467 -1.45747 0.599634 0
M  V30 1118 C 104.716 -2.01502 0.0893511 0
M  V30 1119 C 105.029 -1.4748 -1.28488 0
M  V30 1120 O 106.235 -1.95161 -1.88745 0
M  V30 1121 C 104.691 -3.59735 0.109082 0
M  V30 1122 C 104.299 -4.22754 1.48267 0
M  V30 1123 C 106.043 -4.23085 -0.346374 0
M  V30 1124 C 103.95 -5.73115 1.45921 0
M  V30 1125 H 102.88 -0.753417 0.0296347 0
M  V30 1126 H 105.531 -1.67303 0.753788 0
M  V30 1127 H 103.913 -3.91087 -0.621854 0
M  V30 1128 H 105.087 -4.02987 2.23468 0
M  V30 1129 H 103.402 -3.71567 1.87955 0
M  V30 1130 H 105.999 -5.33327 -0.38298 0
M  V30 1131 H 106.342 -3.93201 -1.36743 0
M  V30 1132 H 106.875 -3.9642 0.331038 0
M  V30 1133 H 103.614 -6.07685 2.45762 0
M  V30 1134 H 103.134 -5.95097 0.749665 0
M  V30 1135 H 104.813 -6.3616 1.17941 0
M  V30 1136 N 104.945 -0.338344 -1.53925 0
M  V30 1137 C 106.193 0.259245 -2.0043 0
M  V30 1138 C 106.514 1.51484 -1.22791 0
M  V30 1139 O 105.784 1.93037 -0.33368 0
M  V30 1140 H 104.364 0.0987845 -0.740439 0
M  V30 1141 H 107.026 -0.458302 -1.89435 0
M  V30 1142 H 106.122 0.505334 -3.07982 0
M  V30 1143 N 106.423 1.57458 -0.0668435 0
M  V30 1144 C 107.648 1.9804 0.616027 0
M  V30 1145 C 108.073 0.944771 1.62652 0
M  V30 1146 O 107.431 -0.0902094 1.81075 0
M  V30 1147 C 107.479 3.37665 1.26549 0
M  V30 1148 O 106.583 3.36701 2.38131 0
M  V30 1149 H 105.924 0.644719 0.158849 0
M  V30 1150 H 108.454 2.04121 -0.139891 0
M  V30 1151 H 108.464 3.7474 1.6135 0
M  V30 1152 H 107.139 4.12573 0.525016 0
M  V30 1153 H 105.716 3.1139 2.0516 0
M  V30 1154 N 107.901 -0.206675 1.56239 0
M  V30 1155 C 109.147 -0.930218 1.80208 0
M  V30 1156 C 109.48 -1.83387 0.638981 0
M  V30 1157 O 108.755 -1.91119 -0.361066 0
M  V30 1158 C 109.038 -1.75641 3.1436 0
M  V30 1159 C 108.891 -0.878257 4.41142 0
M  V30 1160 C 110.21 -2.73129 3.45092 0
M  V30 1161 H 107.329 -0.336742 0.655571 0
M  V30 1162 H 109.971 -0.198222 1.88963 0
M  V30 1163 H 108.121 -2.38048 3.07027 0
M  V30 1164 H 109.793 -0.269787 4.6051 0
M  V30 1165 H 108.036 -0.184385 4.33408 0
M  V30 1166 H 108.707 -1.49106 5.3148 0
M  V30 1167 H 111.183 -2.20856 3.52649 0
M  V30 1168 H 110.059 -3.28028 4.40101 0
M  V30 1169 H 110.32 -3.51606 2.68003 0
M  V30 1170 N 109.379 -1.50304 -0.473955 0
M  V30 1171 C 110.656 -1.51667 -1.23518 0
M  V30 1172 C 111.036 -0.259701 -2.09496 0
M  V30 1173 O 110.384 0.756986 -2.15597 0
M  V30 1174 C 110.594 -2.81082 -2.06868 0
M  V30 1175 C 111.942 -3.31631 -2.65153 0
M  V30 1176 O 112.966 -2.82384 -2.17113 0
M  V30 1177 O 111.825 -4.17471 -3.52675 0
M  V30 1178 H 108.919 -0.60822 -0.560355 0
M  V30 1179 H 111.465 -1.62592 -0.486011 0
M  V30 1180 H 110.237 -3.64041 -1.4349 0
M  V30 1181 H 109.86 -2.73146 -2.88924 0
M  V30 1182 N 110.857 0.726932 -1.39834 0
M  V30 1183 C 112.085 1.51613 -1.40787 0
M  V30 1184 C 112.5 1.88799 -0.00451505 0
M  V30 1185 O 111.857 1.54662 0.968809 0
M  V30 1186 C 111.908 2.79863 -2.28821 0
M  V30 1187 O 111.629 2.44253 -3.63692 0
M  V30 1188 C 113.13 3.73837 -2.38245 0
M  V30 1189 H 110.35 0.468264 -0.480593 0
M  V30 1190 H 112.894 0.897607 -1.83748 0
M  V30 1191 H 111.049 3.38027 -1.89252 0
M  V30 1192 H 111.463 3.26695 -4.1033 0
M  V30 1193 H 112.937 4.60699 -3.04073 0
M  V30 1194 H 113.414 4.16153 -1.40403 0
M  V30 1195 H 114.02 3.21589 -2.78317 0
M  V30 1196 N 112.336 1.25143 0.95797 0
M  V30 1197 C 113.583 1.09692 1.70217 0
M  V30 1198 C 113.911 -0.362654 1.91089 0
M  V30 1199 O 113.166 -1.28386 1.47701 0
M  V30 1200 C 113.465 1.79272 3.09187 0
M  V30 1201 C 113.131 3.29196 3.08125 0
M  V30 1202 C 111.793 3.70096 3.07543 0
M  V30 1203 C 114.145 4.24995 3.0171 0
M  V30 1204 C 111.473 5.05213 2.9829 0
M  V30 1205 C 113.825 5.60132 2.93999 0
M  V30 1206 C 112.489 6.00365 2.9175 0
M  V30 1207 H 111.759 0.401393 0.622868 0
M  V30 1208 H 114.406 1.55372 1.11945 0
M  V30 1209 H 112.711 1.26014 3.70982 0
M  V30 1210 H 114.408 1.64773 3.65583 0
M  V30 1211 H 110.998 2.96651 3.09348 0
M  V30 1212 H 115.182 3.9439 3.01281 0
M  V30 1213 H 110.438 5.35569 2.94916 0
M  V30 1214 H 114.612 6.3406 2.87996 0
M  V30 1215 H 112.239 7.05023 2.84336 0
M  V30 1216 N 113.814 -1.1601 1.06675 0
M  V30 1217 C 115.23 -1.38622 0.790948 0
M  V30 1218 C 115.43 -1.92109 -0.607965 0
M  V30 1219 O 114.486 -2.12239 -1.36787 0
M  V30 1220 C 115.799 -2.36347 1.85905 0
M  V30 1221 C 117.347 -2.50023 1.88301 0
M  V30 1222 C 117.822 -3.51033 2.94176 0
M  V30 1223 N 119.313 -3.58563 2.93235 0
M  V30 1224 C 120.048 -4.36521 3.71803 0
M  V30 1225 N 119.544 -5.17869 4.602 0
M  V30 1226 N 121.337 -4.31541 3.60178 0
M  V30 1227 H 113.488 -0.796294 1.96908 0
M  V30 1228 H 115.751 -0.412597 0.853503 0
M  V30 1229 H 115.457 -2.04147 2.86386 0
M  V30 1230 H 115.331 -3.36042 1.71334 0
M  V30 1231 H 117.718 -2.81524 0.884769 0
M  V30 1232 H 117.799 -1.5035 2.06951 0
M  V30 1233 H 117.443 -3.20268 3.94196 0
M  V30 1234 H 117.373 -4.50445 2.72776 0
M  V30 1235 H 119.864 -3.00496 2.29152 0
M  V30 1236 H 120.177 -5.74578 5.16797 0
M  V30 1237 H 118.522 -5.17199 4.64253 0
M  V30 1238 H 121.713 -3.67051 2.90502 0
M  V30 1239 H 121.886 -4.9205 4.21653 0
M  V30 1240 N 115.292 -0.849877 -1.32721 0
M  V30 1241 C 116.541 -0.447175 -1.96681 0
M  V30 1242 C 116.854 1.00135 -1.68025 0
M  V30 1243 O 118.06 1.50926 -2.25685 0
M  V30 1244 C 116.516 -0.7487 -3.52026 0
M  V30 1245 C 116.124 -2.21264 -3.89546 0
M  V30 1246 C 117.868 -0.413487 -4.22481 0
M  V30 1247 C 115.775 -2.45763 -5.37917 0
M  V30 1248 H 114.705 -0.163486 -0.736063 0
M  V30 1249 H 117.356 -1.03999 -1.51183 0
M  V30 1250 H 115.738 -0.0853727 -3.95908 0
M  V30 1251 H 116.912 -2.91736 -3.56689 0
M  V30 1252 H 115.227 -2.5119 -3.32103 0
M  V30 1253 H 117.824 -0.574017 -5.3161 0
M  V30 1254 H 118.167 0.644492 -4.11281 0
M  V30 1255 H 118.7 -1.03251 -3.84167 0
M  V30 1256 H 115.439 -3.50168 -5.54132 0
M  V30 1257 H 114.959 -1.79864 -5.72197 0
M  V30 1258 H 116.638 -2.29471 -6.0494 0
M  V30 1259 N 116.77 1.45427 -0.607355 0
M  V30 1260 C 118.181 1.85756 -0.187535 0
M  V30 1261 C 118.532 1.5077 1.25551 0
M  V30 1262 O 117.657 0.93427 1.95193 0
M  V30 1263 C 118.252 3.37154 -0.333572 0
M  V30 1264 C 116.811 3.76387 0.0315542 0
M  V30 1265 C 115.958 2.69377 -0.658117 0
M  V30 1266 H 118.909 1.36231 -0.81405 0
M  V30 1267 H 118.93 3.78014 0.43428 0
M  V30 1268 H 118.442 3.62586 -1.38393 0
M  V30 1269 H 116.543 3.56571 1.0811 0
M  V30 1270 H 116.656 4.77731 -0.361935 0
M  V30 1271 H 115.02 2.5452 -0.0957873 0
M  V30 1272 H 115.803 2.97646 -1.7106 0
M  V30 1273 N 118.248 0.346503 1.53744 0
M  V30 1274 C 119.178 -0.501193 2.28058 0
M  V30 1275 C 120.159 -1.10014 1.29734 0
M  V30 1276 O 121.344 -1.12097 1.58581 0
M  V30 1277 C 118.474 -1.65078 3.05559 0
M  V30 1278 C 117.428 -1.18003 4.11411 0
M  V30 1279 C 116.754 -2.41837 4.76884 0
M  V30 1280 C 118.054 -0.278394 5.21558 0
M  V30 1281 H 119.748 0.11875 2.99164 0
M  V30 1282 H 117.294 0.0585531 1.43881 0
M  V30 1283 H 119.247 -2.25028 3.56287 0
M  V30 1284 H 117.971 -2.29767 2.32109 0
M  V30 1285 H 116.63 -0.603331 3.61601 0
M  V30 1286 H 116.278 -3.0494 4.00026 0
M  V30 1287 H 115.978 -2.1102 5.48402 0
M  V30 1288 H 117.502 -3.02508 5.30397 0
M  V30 1289 H 118.916 -0.784823 5.67903 0
M  V30 1290 H 117.313 -0.0619707 6.00068 0
M  V30 1291 H 118.383 0.684677 4.80042 0
M  V30 1292 N 119.726 -1.57421 0.075193 0
M  V30 1293 C 120.975 -1.92794 -0.592731 0
M  V30 1294 C 121.288 -0.957478 -1.70563 0
M  V30 1295 O 122.494 -1.20417 -2.43335 0
M  V30 1296 C 120.95 -3.42495 -1.10569 0
M  V30 1297 C 120.558 -4.47994 -0.0236121 0
M  V30 1298 C 122.302 -3.86864 -1.74748 0
M  V30 1299 C 120.209 -5.88829 -0.550803 0
M  V30 1300 H 119.139 -0.719591 -0.225177 0
M  V30 1301 H 121.79 -1.82902 0.147978 0
M  V30 1302 H 120.172 -3.47471 -1.89947 0
M  V30 1303 H 121.346 -4.54637 0.751099 0
M  V30 1304 H 119.661 -4.13113 0.522159 0
M  V30 1305 H 122.258 -4.8947 -2.15229 0
M  V30 1306 H 122.601 -3.24417 -2.60882 0
M  V30 1307 H 123.134 -3.84504 -1.01986 0
M  V30 1308 H 119.873 -6.54929 0.273457 0
M  V30 1309 H 119.393 -5.85698 -1.29296 0
M  V30 1310 H 121.072 -6.38811 -1.02613 0
M  V30 1311 N 121.204 0.198386 -1.56346 0
M  V30 1312 C 122.432 0.935572 -1.84539 0
M  V30 1313 C 122.847 1.76989 -0.657281 0
M  V30 1314 O 122.204 1.78626 0.374043 0
M  V30 1315 C 122.255 1.8344 -3.11499 0
M  V30 1316 O 121.976 1.03377 -4.25728 0
M  V30 1317 C 123.477 2.68355 -3.52846 0
M  V30 1318 H 120.697 0.273126 -0.612897 0
M  V30 1319 H 123.241 0.20663 -2.03453 0
M  V30 1320 H 121.396 2.51701 -2.94492 0
M  V30 1321 H 121.81 1.64599 -4.98003 0
M  V30 1322 H 123.284 3.27085 -4.44657 0
M  V30 1323 H 123.761 3.41901 -2.75681 0
M  V30 1324 H 124.367 2.05471 -3.72373 0
M  V30 1325 N 122.682 1.50554 0.465978 0
M  V30 1326 C 123.645 1.69233 1.54574 0
M  V30 1327 C 124.645 0.562901 1.50626 0
M  V30 1328 O 125.835 0.830016 1.53155 0
M  V30 1329 C 122.967 1.7223 2.94193 0
M  V30 1330 H 124.16 2.65571 1.39327 0
M  V30 1331 H 121.713 1.40111 0.692711 0
M  V30 1332 H 122.448 0.77603 3.14878 0
M  V30 1333 H 122.233 2.54285 2.98466 0
M  V30 1334 H 123.723 1.88618 3.72576 0
M  V30 1335 N 124.16 -0.719506 1.40217 0
M  V30 1336 C 125.388 -1.50864 1.41589 0
M  V30 1337 C 125.803 -1.88794 0.0145275 0
M  V30 1338 O 125.16 -1.55174 -0.960594 0
M  V30 1339 C 125.211 -2.78646 2.30302 0
M  V30 1340 O 124.932 -2.42321 3.64983 0
M  V30 1341 C 126.433 -3.72569 2.40224 0
M  V30 1342 H 123.653 -0.465709 0.48307 0
M  V30 1343 H 126.197 -0.88785 1.84221 0
M  V30 1344 H 124.352 -3.37019 1.91042 0
M  V30 1345 H 124.766 -3.24514 4.12057 0
M  V30 1346 H 126.24 -4.5908 3.06512 0
M  V30 1347 H 126.717 -4.15403 1.42608 0
M  V30 1348 H 127.323 -3.20109 2.80019 0
M  V30 1349 N 125.638 -1.25649 -0.95132 0
M  V30 1350 C 127.049 -1.09654 -1.51106 0
M  V30 1351 C 127.4 0.326615 -1.93462 0
M  V30 1352 O 126.525 1.21697 -1.78938 0
M  V30 1353 C 127.12 -1.98437 -2.74605 0
M  V30 1354 C 125.679 -1.86618 -3.2688 0
M  V30 1355 C 124.826 -1.9239 -1.99703 0
M  V30 1356 H 127.777 -1.38887 -0.767865 0
M  V30 1357 H 127.798 -1.5263 -3.48546 0
M  V30 1358 H 127.31 -3.02009 -2.43746 0
M  V30 1359 H 125.411 -0.859421 -3.62553 0
M  V30 1360 H 125.524 -2.71607 -3.94673 0
M  V30 1361 H 123.888 -1.36317 -2.15151 0
M  V30 1362 H 124.671 -2.97573 -1.71188 0
M  V30 1363 N 127.117 1.15442 -1.07289 0
M  V30 1364 C 128.533 1.38201 -0.798288 0
M  V30 1365 C 128.733 1.92429 0.597769 0
M  V30 1366 O 127.789 2.12962 1.3566 0
M  V30 1367 C 129.102 2.35357 -1.87156 0
M  V30 1368 C 130.65 2.49021 -1.89624 0
M  V30 1369 C 131.125 3.49468 -2.96034 0
M  V30 1370 N 132.616 3.57003 -2.95132 0
M  V30 1371 C 133.351 4.34543 -3.74112 0
M  V30 1372 N 132.847 5.15421 -4.6294 0
M  V30 1373 N 134.64 4.29625 -3.62462 0
M  V30 1374 H 126.791 0.78584 -1.97328 0
M  V30 1375 H 129.054 0.408065 -0.855679 0
M  V30 1376 H 128.76 2.02626 -2.87464 0
M  V30 1377 H 128.634 3.35129 -1.73114 0
M  V30 1378 H 131.021 2.81051 -0.899687 0
M  V30 1379 H 131.102 1.4925 -2.07745 0
M  V30 1380 H 130.746 3.18173 -3.95889 0
M  V30 1381 H 130.676 4.48992 -2.75161 0
M  V30 1382 H 133.167 2.99276 -2.30743 0
M  V30 1383 H 133.48 5.7183 -5.19837 0
M  V30 1384 H 131.825 5.14729 -4.66989 0
M  V30 1385 H 135.016 3.65505 -2.92444 0
M  V30 1386 H 135.189 4.89807 -4.24256 0
M  V30 1387 N 128.595 0.856903 1.32268 0
M  V30 1388 C 129.843 0.460474 1.96784 0
M  V30 1389 C 130.164 -0.987701 1.68135 0
M  V30 1390 O 129.434 -1.69058 0.989765 0
M  V30 1391 H 128.014 0.167289 0.728027 0
M  V30 1392 H 130.676 1.09383 1.61312 0
M  V30 1393 H 129.772 0.60739 3.06133 0
M  V30 1394 N 130.073 -1.45103 0.615059 0
M  V30 1395 C 131.301 -2.06553 0.11977 0
M  V30 1396 C 131.716 -1.45842 -1.19898 0
M  V30 1397 O 131.073 -0.575325 -1.73194 0
M  V30 1398 C 131.124 -3.61495 -0.018364 0
M  V30 1399 O 130.845 -4.19942 1.24822 0
M  V30 1400 C 132.346 -4.39947 -0.544237 0
M  V30 1401 H 129.566 -0.667096 0.0722739 0
M  V30 1402 H 132.11 -1.8623 0.84491 0
M  V30 1403 H 130.265 -3.81135 -0.693865 0
M  V30 1404 H 130.679 -5.13204 1.0827 0
M  V30 1405 H 132.153 -5.48838 -0.589953 0
M  V30 1406 H 132.63 -4.10255 -1.56805 0
M  V30 1407 H 133.236 -4.25188 0.0974703 0
M  V30 1408 N 131.551 -0.354651 -1.53558 0
M  V30 1409 C 132.481 0.489091 -2.2832 0
M  V30 1410 C 133.462 1.09324 -1.30316 0
M  V30 1411 O 134.647 1.11255 -1.59173 0
M  V30 1412 C 131.777 1.63456 -3.0643 0
M  V30 1413 C 130.731 1.1582 -4.12031 0
M  V30 1414 C 130.057 2.39305 -4.7816 0
M  V30 1415 C 131.357 0.250731 -5.21698 0
M  V30 1416 H 133.051 -0.134614 -2.99097 0
M  V30 1417 H 130.597 -0.0661826 -1.43848 0
M  V30 1418 H 132.55 2.23136 -3.57475 0
M  V30 1419 H 131.274 2.28533 -2.33325 0
M  V30 1420 H 129.933 0.584146 -3.61916 0
M  V30 1421 H 129.581 3.02814 -4.01637 0
M  V30 1422 H 129.281 2.08109 -5.49513 0
M  V30 1423 H 130.805 2.99691 -5.31994 0
M  V30 1424 H 132.219 0.754695 -5.68311 0
M  V30 1425 H 130.616 0.0301468 -6.00092 0
M  V30 1426 H 131.686 -0.710125 -4.79672 0
M  V30 1427 N 133.029 1.57378 -0.0835403 0
M  V30 1428 C 133.959 2.1641 0.87686 0
M  V30 1429 C 134.94 1.09429 1.30228 0
M  V30 1430 O 136.125 1.37516 1.37124 0
M  V30 1431 C 133.255 2.73517 2.14022 0
M  V30 1432 C 132.209 3.85769 1.85381 0
M  V30 1433 C 131.535 4.29529 3.18448 0
M  V30 1434 C 132.835 5.09486 1.14984 0
M  V30 1435 H 134.529 2.96914 0.385059 0
M  V30 1436 H 132.075 1.42823 0.18377 0
M  V30 1437 H 134.028 3.13463 2.81636 0
M  V30 1438 H 132.752 1.90252 2.65465 0
M  V30 1439 H 131.411 3.46345 1.20169 0
M  V30 1440 H 131.059 3.43169 3.67755 0
M  V30 1441 H 130.759 5.05204 3.00071 0
M  V30 1442 H 132.283 4.72099 3.8724 0
M  V30 1443 H 133.697 5.46674 1.72687 0
M  V30 1444 H 132.094 5.90515 1.06826 0
M  V30 1445 H 133.164 4.84724 0.130749 0
M  V30 1446 N 134.507 -0.190092 1.56449 0
M  V30 1447 C 135.47 -1.21925 1.9408 0
M  V30 1448 C 136.47 -1.38176 0.822431 0
M  V30 1449 O 137.66 -1.35903 1.08977 0
M  V30 1450 C 134.792 -2.58773 2.21922 0
M  V30 1451 H 135.985 -0.897464 2.86157 0
M  V30 1452 H 133.538 -0.43181 1.50217 0
M  V30 1453 H 134.273 -2.95998 1.32499 0
M  V30 1454 H 134.058 -2.48348 3.03424 0
M  V30 1455 H 135.548 -3.32978 2.52022 0
M  V30 1456 N 135.985 -1.50799 -0.457987 0
M  V30 1457 C 137.232 -1.62442 -1.20908 0
M  V30 1458 C 137.56 -0.330865 -1.91665 0
M  V30 1459 O 136.815 0.68401 -1.83357 0
M  V30 1460 C 137.114 -2.76358 -2.2663 0
M  V30 1461 C 136.78 -4.16378 -1.73033 0
M  V30 1462 C 135.442 -4.54473 -1.58138 0
M  V30 1463 C 137.794 -5.03836 -1.33413 0
M  V30 1464 C 135.122 -5.77754 -1.02065 0
M  V30 1465 C 137.474 -6.27676 -0.78778 0
M  V30 1466 C 136.138 -6.64562 -0.625561 0
M  V30 1467 H 135.408 -0.594417 -0.442435 0
M  V30 1468 H 138.055 -1.84772 -0.503136 0
M  V30 1469 H 136.36 -2.48167 -3.03184 0
M  V30 1470 H 138.057 -2.82568 -2.84528 0
M  V30 1471 H 134.647 -3.86331 -1.85598 0
M  V30 1472 H 138.831 -4.75026 -1.4375 0
M  V30 1473 H 134.087 -6.04997 -0.882547 0
M  V30 1474 H 138.261 -6.94797 -0.472177 0
M  V30 1475 H 135.888 -7.59965 -0.188926 0
M  V30 1476 N 137.463 0.71206 -1.40597 0
M  V30 1477 C 138.426 1.80785 -1.40888 0
M  V30 1478 C 139.426 1.57937 -0.302103 0
M  V30 1479 O 140.616 1.64913 -0.561182 0
M  V30 1480 C 137.748 3.18927 -1.20409 0
M  V30 1481 H 138.941 1.81924 -2.38419 0
M  V30 1482 H 136.494 0.91805 -1.26497 0
M  V30 1483 H 137.229 3.23436 -0.236522 0
M  V30 1484 H 137.014 3.36911 -2.00582 0
M  V30 1485 H 138.504 3.98949 -1.23408 0
M  V30 1486 N 138.941 1.26152 0.944643 0
M  V30 1487 C 139.851 1.09176 2.07648 0
M  V30 1488 C 140.867 0.0261935 1.7398 0
M  V30 1489 O 142.043 0.229208 2.00091 0
M  V30 1490 C 139.108 0.722915 3.39079 0
M  V30 1491 C 138.169 1.86752 3.86552 0
M  V30 1492 C 137.402 1.51617 5.11711 0
M  V30 1493 O 137.625 0.416331 5.68879 0
M  V30 1494 O 136.559 2.34975 5.54139 0
M  V30 1495 H 140.385 2.0412 2.24875 0
M  V30 1496 H 137.97 1.05182 1.061 0
M  V30 1497 H 139.852 0.529787 4.18056 0
M  V30 1498 H 138.527 -0.197159 3.23099 0
M  V30 1499 H 137.434 2.11558 3.08535 0
M  V30 1500 H 138.767 2.76719 4.07047 0
M  V30 1501 N 140.419 -1.14872 1.07899 0
M  V30 1502 C 141.382 -2.17986 0.708161 0
M  V30 1503 C 142.382 -1.58775 -0.25442 0
M  V30 1504 O 143.572 -1.74166 -0.034645 0
M  V30 1505 C 140.704 -3.40871 0.0446929 0
M  V30 1506 H 141.897 -2.52306 1.62116 0
M  V30 1507 H 139.45 -1.2943 0.876218 0
M  V30 1508 H 140.185 -3.12124 -0.880281 0
M  V30 1509 H 139.97 -3.8511 0.737091 0
M  V30 1510 H 141.46 -4.17121 -0.19991 0
M  V30 1511 N 141.898 -0.863906 -1.31812 0
M  V30 1512 C 143.314 -0.555004 -1.49639 0
M  V30 1513 C 143.514 0.912266 -1.79666 0
M  V30 1514 O 142.57 1.69479 -1.87171 0
M  V30 1515 C 143.883 -1.44998 -2.63431 0
M  V30 1516 C 145.431 -1.45138 -2.77316 0
M  V30 1517 C 145.906 -2.33179 -3.94197 0
M  V30 1518 N 147.397 -2.31025 -4.01474 0
M  V30 1519 C 148.132 -2.95871 -4.9117 0
M  V30 1520 N 147.628 -3.69863 -5.8581 0
M  V30 1521 N 149.421 -2.85211 -4.84367 0
M  V30 1522 H 141.572 -1.81339 -1.10589 0
M  V30 1523 H 143.835 -0.77505 -0.545895 0
M  V30 1524 H 143.541 -2.49377 -2.48 0
M  V30 1525 H 143.415 -1.14409 -3.59431 0
M  V30 1526 H 145.802 -0.415201 -2.92164 0
M  V30 1527 H 145.883 -1.79747 -1.82001 0
M  V30 1528 H 145.527 -3.3687 -3.80107 0
M  V30 1529 H 145.457 -1.95897 -4.88807 0
M  V30 1530 H 147.948 -1.77238 -3.33759 0
M  V30 1531 H 148.261 -4.16486 -6.50968 0
M  V30 1532 H 146.606 -3.73971 -5.85808 0
M  V30 1533 H 149.797 -2.26948 -4.09405 0
M  V30 1534 H 149.97 -3.36027 -5.54066 0
M  V30 1535 N 143.376 1.44774 -0.622745 0
M  V30 1536 C 144.323 2.30635 0.0871679 0
M  V30 1537 C 145.293 1.42994 0.845097 0
M  V30 1538 O 146.478 1.71907 0.827812 0
M  V30 1539 C 143.618 3.28144 1.06844 0
M  V30 1540 C 142.731 4.30888 0.309809 0
M  V30 1541 C 141.866 5.15494 1.28215 0
M  V30 1542 C 140.905 6.09953 0.512198 0
M  V30 1543 N 140.042 6.87287 1.43458 0
M  V30 1544 H 144.882 2.90803 -0.650974 0
M  V30 1545 H 142.419 1.43286 -0.33281 0
M  V30 1546 H 144.377 3.83157 1.65066 0
M  V30 1547 H 143.007 2.69695 1.77382 0
M  V30 1548 H 142.059 3.78414 -0.388181 0
M  V30 1549 H 143.371 4.97955 -0.290254 0
M  V30 1550 H 142.525 5.74983 1.93596 0
M  V30 1551 H 141.264 4.48481 1.91614 0
M  V30 1552 H 140.269 5.49581 -0.155151 0
M  V30 1553 H 141.494 6.78999 -0.116958 0
M  V30 1554 H 139.44 6.2295 2.05594 0
M  V30 1555 H 139.357 7.50763 0.888335 0
M  V30 1556 H 140.625 7.51306 2.07749 0
M  V30 1557 N 144.854 0.36279 1.53368 0
M  V30 1558 C 145.787 -0.528507 2.21996 0
M  V30 1559 C 146.765 -1.0852 1.21087 0
M  V30 1560 O 147.949 -1.14186 1.4998 0
M  V30 1561 C 145.076 -1.72893 2.91249 0
M  V30 1562 C 144.122 -1.29994 4.06207 0
M  V30 1563 S 144.955 -0.303575 5.34639 0
M  V30 1564 C 146.111 -1.51039 6.07403 0
M  V30 1565 H 146.344 0.0543423 2.9725 0
M  V30 1566 H 143.877 0.146889 1.537 0
M  V30 1567 H 145.835 -2.41751 3.31763 0
M  V30 1568 H 144.496 -2.28303 2.15724 0
M  V30 1569 H 143.689 -2.19549 4.53667 0
M  V30 1570 H 143.291 -0.690608 3.67569 0
M  V30 1571 H 145.583 -2.44186 6.31965 0
M  V30 1572 H 146.526 -1.07721 6.99858 0
M  V30 1573 H 146.934 -1.71518 5.37812 0
M  V30 1574 N 146.332 -1.57332 0.0918853 0
M  V30 1575 C 147.557 -1.98995 -0.584442 0
M  V30 1576 C 147.982 -0.970528 -1.61128 0
M  V30 1577 O 147.34 0.0613904 -1.81196 0
M  V30 1578 C 147.388 -3.39636 -1.21161 0
M  V30 1579 O 146.492 -3.40447 -2.32744 0
M  V30 1580 H 145.833 -0.647165 -0.148572 0
M  V30 1581 H 148.363 -2.03873 0.172347 0
M  V30 1582 H 148.373 -3.7726 -1.55367 0
M  V30 1583 H 147.048 -4.13356 -0.459313 0
M  V30 1584 H 145.625 -3.14614 -2.0018 0
M  V30 1585 N 147.81 0.181792 -1.56548 0
M  V30 1586 C 149.035 0.920019 -1.85877 0
M  V30 1587 C 149.46 1.75494 -0.677021 0
M  V30 1588 O 148.818 1.77399 0.374056 0
M  V30 1589 C 148.866 1.78112 -3.13542 0
M  V30 1590 O 147.97 2.88152 -2.95029 0
M  V30 1591 H 147.311 0.258334 -0.611686 0
M  V30 1592 H 149.841 0.183092 -2.03779 0
M  V30 1593 H 149.851 2.18314 -3.44678 0
M  V30 1594 H 148.526 1.16777 -3.99169 0
M  V30 1595 H 147.103 2.51609 -2.75222 0
M  V30 1596 N 149.288 1.51039 0.449983 0
M  V30 1597 C 150.513 1.6715 1.22783 0
M  V30 1598 C 150.938 0.363081 1.84563 0
M  V30 1599 O 150.296 -0.675433 1.68249 0
M  V30 1600 C 150.344 2.77985 2.29689 0
M  V30 1601 O 149.448 2.40707 3.34864 0
M  V30 1602 H 148.789 0.557746 0.360299 0
M  V30 1603 H 151.319 1.97535 0.533005 0
M  V30 1604 H 151.329 3.01693 2.74673 0
M  V30 1605 H 150.004 3.72935 1.84098 0
M  V30 1606 H 148.581 2.27523 2.95445 0
M  V30 1607 N 150.766 -0.704594 1.40972 0
M  V30 1608 C 152.043 -1.45847 1.30338 0
M  V30 1609 C 152.423 -2.10973 -0.0732344 0
M  V30 1610 O 151.771 -2.00997 -1.08685 0
M  V30 1611 C 151.981 -2.48525 2.45023 0
M  V30 1612 C 153.329 -3.1404 2.8577 0
M  V30 1613 O 154.353 -2.58848 2.44696 0
M  V30 1614 O 153.212 -4.13981 3.56766 0
M  V30 1615 H 150.306 -0.649092 0.512454 0
M  V30 1616 H 152.852 -0.735836 1.52917 0
M  V30 1617 H 151.624 -1.98994 3.36923 0
M  V30 1618 H 151.247 -3.2831 2.24272 0
M  V30 1619 N 152.244 -1.26651 -0.937939 0
M  V30 1620 C 153.154 -1.10276 -2.07066 0
M  V30 1621 C 154.17 -0.0354197 -1.73964 0
M  V30 1622 O 155.346 -0.239816 -1.99967 0
M  V30 1623 C 152.411 -0.740887 -3.38691 0
M  V30 1624 C 151.472 -1.88799 -3.85556 0
M  V30 1625 C 150.705 -1.54329 -5.10899 0
M  V30 1626 O 150.928 -0.446494 -5.6865 0
M  V30 1627 O 149.862 -2.37911 -5.52885 0
M  V30 1628 H 153.688 -2.05309 -2.23789 0
M  V30 1629 H 151.273 -1.05743 -1.0554 0
M  V30 1630 H 153.155 -0.55195 -4.1777 0
M  V30 1631 H 151.83 0.180022 -3.23199 0
M  V30 1632 H 150.737 -2.13191 -3.07409 0
M  V30 1633 H 152.07 -2.78874 -4.05574 0
M  V30 1634 N 153.722 1.14298 -1.08507 0
M  V30 1635 C 154.97 1.84993 -0.813763 0
M  V30 1636 C 155.291 1.83405 0.662393 0
M  V30 1637 O 154.561 1.28319 1.48024 0
M  V30 1638 H 153.141 0.684966 -0.298045 0
M  V30 1639 H 155.803 1.385 -1.37126 0
M  V30 1640 H 154.899 2.89788 -1.15884 0
M  V30 1641 N 155.201 0.870884 1.31352 0
M  V30 1642 C 156.164 0.332243 2.26779 0
M  V30 1643 C 157.164 -0.517302 1.52252 0
M  V30 1644 O 158.354 -0.326477 1.71113 0
M  V30 1645 C 155.486 -0.528066 3.36785 0
M  V30 1646 H 156.679 1.17469 2.75937 0
M  V30 1647 H 154.232 0.64655 1.423 0
M  V30 1648 H 154.967 -1.39167 2.92922 0
M  V30 1649 H 154.752 0.0802582 3.92018 0
M  V30 1650 H 156.242 -0.897179 4.07849 0
M  V30 1651 N 156.679 -1.44442 0.630414 0
M  V30 1652 C 157.626 -2.30678 -0.0749355 0
M  V30 1653 C 158.596 -1.4344 -0.837502 0
M  V30 1654 O 159.781 -1.72343 -0.818684 0
M  V30 1655 C 156.921 -3.28706 -1.05103 0
M  V30 1656 C 156.034 -4.31046 -0.286954 0
M  V30 1657 C 155.169 -5.16167 -1.2548 0
M  V30 1658 C 154.208 -6.10216 -0.479843 0
M  V30 1659 N 153.345 -6.88039 -1.39811 0
M  V30 1660 H 158.185 -2.90454 0.666386 0
M  V30 1661 H 155.722 -1.43107 0.340404 0
M  V30 1662 H 157.68 -3.84027 -1.63031 0
M  V30 1663 H 156.31 -2.70632 -1.75949 0
M  V30 1664 H 155.362 -3.78203 0.408243 0
M  V30 1665 H 156.674 -4.97794 0.316657 0
M  V30 1666 H 155.828 -5.76002 -1.90544 0
M  V30 1667 H 154.567 -4.49491 -1.89233 0
M  V30 1668 H 153.572 -5.49491 0.184295 0
M  V30 1669 H 154.797 -6.78928 0.152965 0
M  V30 1670 H 152.743 -6.24032 -2.02287 0
M  V30 1671 H 152.66 -7.51223 -0.848508 0
M  V30 1672 H 153.928 -7.52397 -2.03762 0
M  V30 1673 N 158.157 -0.370918 -1.53173 0
M  V30 1674 C 159.404 0.217102 -2.01333 0
M  V30 1675 C 159.732 1.48338 -1.25802 0
M  V30 1676 O 158.987 1.92698 -0.34146 0
M  V30 1677 C 159.286 0.549696 -3.53147 0
M  V30 1678 C 158.952 -0.622872 -4.46577 0
M  V30 1679 C 157.614 -0.944595 -4.71838 0
M  V30 1680 C 159.966 -1.40819 -5.01816 0
M  V30 1681 C 157.294 -2.05351 -5.49589 0
M  V30 1682 C 159.646 -2.50757 -5.80778 0
M  V30 1683 C 158.31 -2.83458 -6.04324 0
M  V30 1684 H 157.58 0.0794431 -0.736729 0
M  V30 1685 H 160.227 -0.504481 -1.84736 0
M  V30 1686 H 158.532 1.35237 -3.6772 0
M  V30 1687 H 160.229 1.017 -3.87889 0
M  V30 1688 H 156.819 -0.36209 -4.27068 0
M  V30 1689 H 161.003 -1.17289 -4.82242 0
M  V30 1690 H 156.259 -2.3108 -5.6605 0
M  V30 1691 H 160.433 -3.12022 -6.22588 0
M  V30 1692 H 158.06 -3.69508 -6.64355 0
M  V30 1693 N 159.635 1.57281 -0.100228 0
M  V30 1694 C 160.884 1.93713 0.561984 0
M  V30 1695 C 161.197 0.984492 1.69018 0
M  V30 1696 O 162.403 1.24273 2.41389 0
M  V30 1697 C 160.859 3.4421 1.05106 0
M  V30 1698 C 160.467 4.47975 -0.0476628 0
M  V30 1699 C 162.211 3.89595 1.68571 0
M  V30 1700 C 160.118 5.89631 0.457055 0
M  V30 1701 H 159.048 0.723082 0.2137 0
M  V30 1702 H 161.699 1.82644 -0.177057 0
M  V30 1703 H 160.081 3.50449 1.84395 0
M  V30 1704 H 161.255 4.53385 -0.823333 0
M  V30 1705 H 159.57 4.1223 -0.587816 0
M  V30 1706 H 162.167 4.92832 2.07414 0
M  V30 1707 H 162.51 3.28526 2.55688 0
M  V30 1708 H 163.043 3.86078 0.958562 0
M  V30 1709 H 159.782 6.54411 -0.377616 0
M  V30 1710 H 159.302 5.87681 1.19962 0
M  V30 1711 H 160.981 6.40363 0.92437 0
M  V30 1712 N 161.113 -0.173488 1.56642 0
M  V30 1713 C 162.076 -1.19859 1.95362 0
M  V30 1714 C 163.076 -1.37296 0.83704 0
M  V30 1715 O 164.266 -1.34739 1.10413 0
M  V30 1716 C 161.398 -2.56405 2.24654 0
M  V30 1717 H 162.591 -0.867062 2.87092 0
M  V30 1718 H 160.144 -0.415853 1.50666 0
M  V30 1719 H 160.879 -2.94576 1.35631 0
M  V30 1720 H 160.664 -2.45115 3.06041 0
M  V30 1721 H 162.154 -3.30287 2.5554 0
M  V30 1722 N 162.591 -1.51276 -0.441967 0
M  V30 1723 C 163.521 -1.752 -1.54361 0
M  V30 1724 C 164.502 -0.601682 -1.59103 0
M  V30 1725 O 165.687 -0.843913 -1.74905 0
M  V30 1726 C 162.817 -1.87282 -2.92477 0
M  V30 1727 C 161.771 -3.02687 -3.02596 0
M  V30 1728 C 161.097 -2.99947 -4.42647 0
M  V30 1729 C 162.397 -4.4273 -2.77106 0
M  V30 1730 H 164.091 -2.67442 -1.34592 0
M  V30 1731 H 161.637 -1.28694 -0.646048 0
M  V30 1732 H 163.59 -2.02602 -3.695 0
M  V30 1733 H 162.314 -0.916844 -3.13467 0
M  V30 1734 H 160.973 -2.87065 -2.28012 0
M  V30 1735 H 160.621 -2.02136 -4.60597 0
M  V30 1736 H 160.321 -3.77439 -4.50348 0
M  V30 1737 H 161.845 -3.17354 -5.2165 0
M  V30 1738 H 163.259 -4.58727 -3.43864 0
M  V30 1739 H 161.656 -5.21893 -2.96222 0
M  V30 1740 H 162.726 -4.53087 -1.72744 0
M  V30 1741 N 164.069 0.697108 -1.41344 0
M  V30 1742 C 165.485 1.00751 -1.2378 0
M  V30 1743 C 165.685 2.01105 -0.126066 0
M  V30 1744 O 164.741 2.47295 0.51004 0
M  V30 1745 C 166.054 1.53359 -2.58653 0
M  V30 1746 C 167.602 1.6525 -2.65822 0
M  V30 1747 C 168.077 2.2126 -4.01009 0
M  V30 1748 N 169.568 2.28622 -4.02847 0
M  V30 1749 C 170.303 2.72984 -5.04249 0
M  V30 1750 N 169.799 3.16962 -6.16041 0
M  V30 1751 N 171.592 2.72534 -4.91611 0
M  V30 1752 H 163.743 0.0322662 -2.12375 0
M  V30 1753 H 166.006 0.0768853 -0.944877 0
M  V30 1754 H 165.712 0.870773 -3.4075 0
M  V30 1755 H 165.586 2.51597 -2.81032 0
M  V30 1756 H 167.973 2.30644 -1.84086 0
M  V30 1757 H 168.054 0.655614 -2.47256 0
M  V30 1758 H 167.698 1.56482 -4.83193 0
M  V30 1759 H 167.628 3.21698 -4.16915 0
M  V30 1760 H 170.119 1.97585 -3.22131 0
M  V30 1761 H 170.432 3.49434 -6.89287 0
M  V30 1762 H 168.777 3.14875 -6.1958 0
M  V30 1763 H 171.968 2.37525 -4.0336 0
M  V30 1764 H 172.141 3.06789 -5.70775 0
M  V30 1765 N 165.547 1.27147 0.931209 0
M  V30 1766 C 166.963 1.04475 1.20653 0
M  V30 1767 C 167.163 -0.223885 2.00252 0
M  V30 1768 O 166.219 -0.930332 2.34736 0
M  V30 1769 C 167.532 2.28209 1.95809 0
M  V30 1770 C 169.08 2.33211 2.08762 0
M  V30 1771 C 169.555 3.56665 2.87323 0
M  V30 1772 N 171.046 3.57201 2.94892 0
M  V30 1773 C 171.781 4.49395 3.56134 0
M  V30 1774 N 171.277 5.51889 4.18796 0
M  V30 1775 N 173.07 4.37026 3.53504 0
M  V30 1776 H 165.221 2.08612 0.399333 0
M  V30 1777 H 167.484 0.917312 0.239253 0
M  V30 1778 H 167.19 3.20538 1.44736 0
M  V30 1779 H 167.064 2.33247 2.96438 0
M  V30 1780 H 169.451 1.41391 2.59023 0
M  V30 1781 H 169.532 2.32178 1.07364 0
M  V30 1782 H 169.176 4.4882 2.37746 0
M  V30 1783 H 169.106 3.54948 3.88998 0
M  V30 1784 H 171.597 2.83074 2.50354 0
M  V30 1785 H 171.91 6.18409 4.63454 0
M  V30 1786 H 170.255 5.55735 4.17353 0
M  V30 1787 H 173.446 3.56166 3.03749 0
M  V30 1788 H 173.619 5.09067 4.00942 0
M  V30 1789 N 167.025 -1.13721 1.09112 0
M  V30 1790 C 168.25 -1.89314 0.847053 0
M  V30 1791 C 168.675 -1.78416 -0.595774 0
M  V30 1792 O 168.033 -1.12942 -1.41823 0
M  V30 1793 C 168.081 -3.3701 1.28284 0
M  V30 1794 O 167.185 -4.10054 0.439267 0
M  V30 1795 H 166.526 -0.588745 0.307044 0
M  V30 1796 H 169.056 -1.43902 1.45442 0
M  V30 1797 H 169.066 -3.87834 1.26683 0
M  V30 1798 H 167.741 -3.4426 2.33363 0
M  V30 1799 H 166.318 -3.69266 0.519312 0
M  V30 1800 N 168.503 -0.877838 -1.30888 0
M  V30 1801 C 169.436 -0.283995 -2.26426 0
M  V30 1802 C 170.414 0.591361 -1.51465 0
M  V30 1803 O 171.598 0.54304 -1.80509 0
M  V30 1804 C 168.725 0.597129 -3.33395 0
M  V30 1805 C 167.771 -0.207937 -4.25993 0
M  V30 1806 S 168.604 -1.59158 -5.11301 0
M  V30 1807 C 169.76 -0.716791 -6.21782 0
M  V30 1808 H 169.993 -1.09383 -2.76446 0
M  V30 1809 H 167.526 -0.676828 -1.38775 0
M  V30 1810 H 169.484 1.09978 -3.95493 0
M  V30 1811 H 168.145 1.38099 -2.82113 0
M  V30 1812 H 167.338 0.464163 -5.01858 0
M  V30 1813 H 166.94 -0.642963 -3.68432 0
M  V30 1814 H 169.232 0.0692833 -6.77465 0
M  V30 1815 H 170.175 -1.44682 -6.93161 0
M  V30 1816 H 170.583 -0.280855 -5.63801 0
M  V30 1817 N 169.982 1.44106 -0.638065 0
M  V30 1818 C 171.259 1.95453 -0.0759321 0
M  V30 1819 C 171.639 1.57984 1.40015 0
M  V30 1820 O 170.987 0.857361 2.11806 0
M  V30 1821 C 171.197 3.47655 -0.306132 0
M  V30 1822 C 172.545 4.24114 -0.203008 0
M  V30 1823 O 173.569 3.55405 -0.237871 0
M  V30 1824 O 172.428 5.46381 -0.113827 0
M  V30 1825 H 169.522 0.826797 0.0183332 0
M  V30 1826 H 172.068 1.54122 -0.710251 0
M  V30 1827 H 170.84 3.68 -1.3301 0
M  V30 1828 H 170.463 3.95949 0.361991 0
M  V30 1829 N 171.46 0.379036 1.52974 0
M  V30 1830 C 172.392 -0.495963 2.2377 0
M  V30 1831 C 173.405 -1.03517 1.25651 0
M  V30 1832 O 174.594 -0.939249 1.51791 0
M  V30 1833 C 171.694 -1.69894 2.93239 0
M  V30 1834 C 170.867 -1.2889 4.17979 0
M  V30 1835 C 169.926 -2.35543 4.70538 0
M  V30 1836 O 168.952 -1.97375 5.33883 0
M  V30 1837 N 170.154 -3.67318 4.49508 0
M  V30 1838 H 172.919 0.110523 2.99496 0
M  V30 1839 H 170.48 0.204878 1.60598 0
M  V30 1840 H 172.472 -2.40747 3.25304 0
M  V30 1841 H 171.042 -2.212 2.20883 0
M  V30 1842 H 170.262 -0.409676 3.92065 0
M  V30 1843 H 171.55 -0.991443 4.99047 0
M  V30 1844 H 170.948 -4.01095 3.98923 0
M  V30 1845 H 169.505 -4.34235 4.8609 0
M  V30 1846 N 172.938 -1.57226 0.108567 0
M  V30 1847 C 174.186 -1.94448 -0.550853 0
M  V30 1848 C 174.507 -0.992074 -1.67878 0
M  V30 1849 O 173.777 -0.0465 -1.95845 0
M  V30 1850 H 172.357 -0.717897 -0.206479 0
M  V30 1851 H 175.019 -1.94112 0.175062 0
M  V30 1852 H 174.115 -2.97218 -0.952259 0
M  V30 1853 N 174.416 0.165178 -1.56732 0
M  V30 1854 C 175.641 0.900253 -1.86843 0
M  V30 1855 C 176.066 1.74766 -0.695596 0
M  V30 1856 O 175.424 1.77786 0.35522 0
M  V30 1857 C 175.472 1.74777 -3.15413 0
M  V30 1858 O 174.576 2.85007 -2.98068 0
M  V30 1859 H 173.917 0.251832 -0.614391 0
M  V30 1860 H 176.447 0.161468 -2.03962 0
M  V30 1861 H 176.457 2.14646 -3.46974 0
M  V30 1862 H 175.132 1.12537 -4.00385 0
M  V30 1863 H 173.709 2.48676 -2.77875 0
M  V30 1864 N 175.894 1.51508 0.433938 0
M  V30 1865 C 177.122 1.68157 1.20543 0
M  V30 1866 C 177.537 0.380362 1.84929 0
M  V30 1867 O 176.894 -0.641446 1.70856 0
M  V30 1868 C 176.945 2.79965 2.28696 0
M  V30 1869 O 176.666 4.05045 1.66943 0
M  V30 1870 C 178.167 3.07912 3.18912 0
M  V30 1871 H 175.387 0.56421 0.363191 0
M  V30 1872 H 177.931 1.97941 0.513754 0
M  V30 1873 H 176.086 2.5277 2.93574 0
M  V30 1874 H 176.5 4.67165 2.38448 0
M  V30 1875 H 177.974 3.89719 3.90926 0
M  V30 1876 H 178.451 2.20456 3.79863 0
M  V30 1877 H 179.057 3.36779 2.59731 0
M  V30 1878 N 177.372 -0.689602 1.41712 0
M  V30 1879 C 178.618 -1.45041 1.42599 0
M  V30 1880 C 178.973 -1.92366 0.0363764 0
M  V30 1881 O 178.266 -1.67022 -0.938844 0
M  V30 1882 C 178.46 -2.67298 2.37247 0
M  V30 1883 C 178.289 -2.31935 3.85274 0
M  V30 1884 C 177.059 -2.2201 4.53916 0
M  V30 1885 C 179.257 -1.94526 4.76093 0
M  V30 1886 N 177.239 -1.79594 5.87043 0
M  V30 1887 C 178.61 -1.62915 5.98213 0
M  V30 1888 C 180.665 -1.81388 4.63684 0
M  V30 1889 C 179.368 -1.19486 7.09306 0
M  V30 1890 C 181.394 -1.39364 5.74745 0
M  V30 1891 C 180.756 -1.08668 6.95967 0
M  V30 1892 H 176.855 -0.527806 0.577014 0
M  V30 1893 H 179.439 -0.797266 1.77628 0
M  V30 1894 H 177.61 -3.30325 2.04304 0
M  V30 1895 H 179.342 -3.33806 2.28814 0
M  V30 1896 H 176.097 -2.406 4.07932 0
M  V30 1897 H 176.521 -1.60851 6.57614 0
M  V30 1898 H 181.163 -2.03772 3.70455 0
M  V30 1899 H 178.881 -0.958477 8.02396 0
M  V30 1900 H 182.467 -1.2974 5.6715 0
M  V30 1901 H 181.347 -0.766417 7.80446 0
M  V30 1902 N 178.85 -1.27639 -0.924453 0
M  V30 1903 C 180.075 -1.17101 -1.71179 0
M  V30 1904 C 180.5 0.268134 -1.86179 0
M  V30 1905 O 179.858 1.19415 -1.36418 0
M  V30 1906 C 179.906 -1.86313 -3.08739 0
M  V30 1907 O 179.01 -1.16331 -3.95652 0
M  V30 1908 H 178.351 -0.407091 -0.524569 0
M  V30 1909 H 180.881 -1.68767 -1.15666 0
M  V30 1910 H 180.891 -1.938 -3.59034 0
M  V30 1911 H 179.566 -2.91001 -2.97138 0
M  V30 1912 H 178.143 -1.16935 -3.54091 0
M  V30 1913 N 180.328 1.1314 -1.09713 0
M  V30 1914 C 181.739 1.66029 -0.853885 0
M  V30 1915 C 182.09 1.86241 0.617142 0
M  V30 1916 O 181.215 1.5834 1.47503 0
M  V30 1917 C 181.81 3.01599 -1.5435 0
M  V30 1918 C 180.369 3.51467 -1.34714 0
M  V30 1919 C 179.516 2.26648 -1.59769 0
M  V30 1920 H 182.467 0.970226 -1.25588 0
M  V30 1921 H 182.488 3.67709 -0.978267 0
M  V30 1922 H 182 2.86856 -2.6141 0
M  V30 1923 H 180.101 3.71408 -0.297838 0
M  V30 1924 H 180.214 4.314 -2.08401 0
M  V30 1925 H 178.578 2.33385 -1.01998 0
M  V30 1926 H 179.361 2.14467 -2.68065 0
M  V30 1927 N 181.806 0.884767 1.30421 0
M  V30 1928 C 183.034 0.518044 2.0031 0
M  V30 1929 C 183.449 -0.893408 1.66324 0
M  V30 1930 O 182.806 -1.5875 0.900262 0
M  V30 1931 C 182.857 0.682997 3.54989 0
M  V30 1932 O 182.578 2.03888 3.87764 0
M  V30 1933 C 184.079 0.31924 4.42149 0
M  V30 1934 H 181.299 0.200265 0.640418 0
M  V30 1935 H 183.843 1.19001 1.6631 0
M  V30 1936 H 181.998 0.0584052 3.87356 0
M  V30 1937 H 182.412 2.05735 4.82466 0
M  V30 1938 H 183.886 0.485555 5.4986 0
M  V30 1939 H 184.363 -0.742717 4.32875 0
M  V30 1940 H 184.969 0.920147 4.15227 0
M  V30 1941 N 183.284 -1.43765 0.645699 0
M  V30 1942 C 184.247 -2.29163 -0.0409488 0
M  V30 1943 C 185.247 -1.41813 -0.757996 0
M  V30 1944 O 186.437 -1.63527 -0.600382 0
M  V30 1945 C 183.569 -3.23716 -1.06869 0
M  V30 1946 H 184.762 -2.91366 0.710345 0
M  V30 1947 H 182.315 -1.5092 0.406547 0
M  V30 1948 H 183.05 -2.66393 -1.84947 0
M  V30 1949 H 182.835 -3.88105 -0.558277 0
M  V30 1950 H 184.325 -3.87831 -1.54845 0
M  V30 1951 N 184.763 -0.387143 -1.52771 0
M  V30 1952 C 186.01 0.195735 -2.01552 0
M  V30 1953 C 186.338 1.46995 -1.27369 0
M  V30 1954 O 185.593 1.92325 -0.361879 0
M  V30 1955 C 185.892 0.512209 -3.53711 0
M  V30 1956 C 185.558 -0.670202 -4.45891 0
M  V30 1957 C 184.22 -0.994586 -4.70809 0
M  V30 1958 C 186.572 -1.46134 -5.00294 0
M  V30 1959 C 183.9 -2.11169 -5.4738 0
M  V30 1960 C 186.252 -2.56903 -5.78086 0
M  V30 1961 C 184.916 -2.89852 -6.01284 0
M  V30 1962 H 184.186 0.0716246 -0.73753 0
M  V30 1963 H 186.833 -0.524046 -1.8419 0
M  V30 1964 H 185.138 1.31329 -3.69134 0
M  V30 1965 H 186.835 0.975804 -3.88946 0
M  V30 1966 H 183.425 -0.407366 -4.2666 0
M  V30 1967 H 187.609 -1.22397 -4.80971 0
M  V30 1968 H 182.865 -2.3707 -5.63567 0
M  V30 1969 H 187.039 -3.18608 -6.19243 0
M  V30 1970 H 184.666 -3.76533 -6.60399 0
M  V30 1971 N 186.241 1.57166 -0.116904 0
M  V30 1972 C 187.49 1.94298 0.541407 0
M  V30 1973 C 187.803 1.00236 1.67964 0
M  V30 1974 O 189.009 1.26826 2.40057 0
M  V30 1975 C 187.465 3.45306 1.01449 0
M  V30 1976 C 187.073 4.47899 -0.0951738 0
M  V30 1977 C 188.817 3.91361 1.6443 0
M  V30 1978 C 186.724 5.90083 0.394491 0
M  V30 1979 H 185.654 0.725308 0.206019 0
M  V30 1980 H 188.305 1.82446 -0.196419 0
M  V30 1981 H 186.687 3.52385 1.80667 0
M  V30 1982 H 187.861 4.52486 -0.871374 0
M  V30 1983 H 186.176 4.11583 -0.631505 0
M  V30 1984 H 188.773 4.95004 2.02176 0
M  V30 1985 H 189.116 3.3122 2.52189 0
M  V30 1986 H 189.649 3.87073 0.917559 0
M  V30 1987 H 186.388 6.53974 -0.447004 0
M  V30 1988 H 185.908 5.88921 1.13722 0
M  V30 1989 H 187.587 6.41307 0.856399 0
M  V30 1990 N 187.719 -0.156864 1.56817 0
M  V30 1991 C 188.965 -0.872416 1.83076 0
M  V30 1992 C 189.298 -1.81261 0.697001 0
M  V30 1993 O 188.573 -1.92171 -0.30008 0
M  V30 1994 C 188.856 -1.65551 3.19789 0
M  V30 1995 C 188.709 -0.737467 4.43713 0
M  V30 1996 C 190.028 -2.62012 3.53606 0
M  V30 1997 H 187.147 -0.315715 0.665953 0
M  V30 1998 H 189.789 -0.138004 1.89498 0
M  V30 1999 H 187.939 -2.28159 3.14445 0
M  V30 2000 H 189.611 -0.123143 4.61136 0
M  V30 2001 H 187.854 -0.0464067 4.33775 0
M  V30 2002 H 188.525 -1.32122 5.35955 0
M  V30 2003 H 191.001 -2.09525 3.59497 0
M  V30 2004 H 189.877 -3.13861 4.50314 0
M  V30 2005 H 190.138 -3.42902 2.79053 0
M  V30 2006 N 189.197 -1.51736 -0.425897 0
M  V30 2007 C 190.145 -1.74464 -1.53834 0
M  V30 2008 C 191.139 -0.611241 -1.57988 0
M  V30 2009 O 192.345 -0.792899 -1.61596 0
M  V30 2010 H 188.72 -0.551437 -0.511293 0
M  V30 2011 H 190.691 -2.67694 -1.31843 0
M  V30 2012 C 189.44 -1.8972 -2.91379 0
M  V30 2013 H 188.763 -2.76344 -2.88919 0
M  V30 2014 H 190.203 -2.09629 -3.68553 0
M  V30 2015 C 188.662 -0.65992 -3.30374 0
M  V30 2016 O 189.192 0.180083 -4.01296 0
M  V30 2017 N 187.398 -0.500677 -2.86254 0
M  V30 2018 H 186.945 -1.18532 -2.28709 0
M  V30 2019 H 186.903 0.325903 -3.12706 0
M  V30 2020 N 190.675 0.682077 -1.42076 0
M  V30 2021 C 191.952 1.43755 -1.32642 0
M  V30 2022 C 192.332 2.11063 0.0396611 0
M  V30 2023 O 191.68 2.02701 1.05474 0
M  V30 2024 C 191.89 2.44596 -2.48946 0
M  V30 2025 C 193.238 3.09454 -2.9073 0
M  V30 2026 O 194.262 2.54922 -2.48783 0
M  V30 2027 O 193.121 4.08253 -3.63307 0
M  V30 2028 H 190.215 0.640857 -0.522715 0
M  V30 2029 H 192.761 0.711415 -1.54068 0
M  V30 2030 H 191.533 1.93609 -3.40046 0
M  V30 2031 H 191.156 3.24701 -2.29467 0
M  V30 2032 N 192.153 1.28127 0.917671 0
M  V30 2033 C 193.401 1.14825 1.66312 0
M  V30 2034 C 193.722 -0.304379 1.9261 0
M  V30 2035 O 192.992 -1.21149 1.53947 0
M  V30 2036 H 191.572 0.421953 0.616413 0
M  V30 2037 H 194.234 1.608 1.10134 0
M  V30 2038 H 193.33 1.68489 2.62712 0
M  V30 2039 N 193.631 -1.12557 1.10312 0
M  V30 2040 C 194.908 -1.80363 0.756878 0
M  V30 2041 C 195.288 -1.97067 -0.756824 0
M  V30 2042 O 194.636 -1.54601 -1.68259 0
M  V30 2043 C 194.846 -3.14812 1.50647 0
M  V30 2044 C 196.194 -3.90029 1.67817 0
M  V30 2045 O 197.218 -3.24464 1.46974 0
M  V30 2046 O 196.077 -5.07652 2.02365 0
M  V30 2047 H 193.171 -0.780667 0.272926 0
M  V30 2048 H 195.717 -1.19404 1.20586 0
M  V30 2049 H 194.489 -2.97936 2.53672 0
M  V30 2050 H 194.112 -3.83478 1.05026 0
M  V30 2051 N 195.109 -0.891671 -1.2995 0
M  V30 2052 C 196.355 -0.514261 -1.96171 0
M  V30 2053 C 196.688 0.935506 -1.70182 0
M  V30 2054 O 195.963 1.66204 -1.01028 0
M  V30 2055 C 196.246 -0.797719 -3.51153 0
M  V30 2056 C 196.099 -2.2986 -3.86632 0
M  V30 2057 C 197.418 -0.278749 -4.39216 0
M  V30 2058 H 194.537 -0.188314 -0.712535 0
M  V30 2059 H 197.179 -1.11689 -1.53706 0
M  V30 2060 H 195.329 -0.284826 -3.87455 0
M  V30 2061 H 197.001 -2.88042 -3.60319 0
M  V30 2062 H 195.244 -2.76257 -3.34462 0
M  V30 2063 H 195.915 -2.44753 -4.94773 0
M  V30 2064 H 198.391 -0.717825 -4.09862 0
M  V30 2065 H 197.267 -0.506353 -5.46559 0
M  V30 2066 H 197.528 0.820266 -4.34424 0
M  V30 2067 N 196.587 1.43421 -0.653314 0
M  V30 2068 C 197.998 1.85065 -0.246537 0
M  V30 2069 C 198.349 1.54688 1.2069 0
M  V30 2070 O 197.474 0.995896 1.92122 0
M  V30 2071 C 198.069 3.35922 -0.440666 0
M  V30 2072 C 196.628 3.76297 -0.0882064 0
M  V30 2073 C 195.775 2.67147 -0.743484 0
M  V30 2074 H 198.726 1.33572 -0.856979 0
M  V30 2075 H 198.747 3.79204 0.313798 0
M  V30 2076 H 198.259 3.58 -1.49858 0
M  V30 2077 H 196.36 3.5983 0.96711 0
M  V30 2078 H 196.473 4.76338 -0.513738 0
M  V30 2079 H 194.837 2.54086 -0.176712 0
M  V30 2080 H 195.62 2.92053 -1.80443 0
M  V30 2081 N 198.065 0.39524 1.52563 0
M  V30 2082 C 199.342 -0.242908 1.94086 0
M  V30 2083 C 199.722 -1.63841 1.33114 0
M  V30 2084 O 199.07 -2.22928 0.501529 0
M  V30 2085 C 199.28 -0.26327 3.48006 0
M  V30 2086 C 200.628 -0.489354 4.21771 0
M  V30 2087 O 201.652 -0.343226 3.54543 0
M  V30 2088 O 200.511 -0.776169 5.4096 0
M  V30 2089 H 197.605 -0.152536 0.812811 0
M  V30 2090 H 200.151 0.450178 1.6362 0
M  V30 2091 H 198.923 0.713985 3.84731 0
M  V30 2092 H 198.546 -1.00103 3.84792 0
M  V30 2093 N 199.544 -1.57102 0.125237 0
M  V30 2094 C 200.792 -1.95021 -0.530198 0
M  V30 2095 C 201.113 -1.00982 -1.66816 0
M  V30 2096 O 200.383 -0.0672693 -1.95784 0
M  V30 2097 H 198.963 -0.720046 -0.198853 0
M  V30 2098 H 201.625 -1.93916 0.19564 0
M  V30 2099 H 200.721 -2.98211 -0.920681 0
M  V30 2100 N 201.022 0.148545 -1.56898 0
M  V30 2101 C 201.952 1.18524 -2.01182 0
M  V30 2102 C 202.933 1.4489 -0.891123 0
M  V30 2103 O 204.118 1.55836 -1.15882 0
M  V30 2104 C 201.248 2.51879 -2.39112 0
M  V30 2105 C 200.202 2.40038 -3.54353 0
M  V30 2106 C 199.528 3.78089 -3.78091 0
M  V30 2107 C 200.828 1.88577 -4.87069 0
M  V30 2108 H 202.522 0.817029 -2.88036 0
M  V30 2109 H 200.068 0.391575 -1.38574 0
M  V30 2110 H 202.021 3.24627 -2.68692 0
M  V30 2111 H 200.745 2.90532 -1.49193 0
M  V30 2112 H 199.404 1.69742 -3.24936 0
M  V30 2113 H 199.052 4.14175 -2.85426 0
M  V30 2114 H 198.752 3.71028 -4.55645 0
M  V30 2115 H 200.276 4.52387 -4.10095 0
M  V30 2116 H 201.69 2.51117 -5.15377 0
M  V30 2117 H 200.087 1.9241 -5.68417 0
M  V30 2118 H 201.157 0.84136 -4.77545 0
M  V30 2119 N 202.5 1.5196 0.417844 0
M  V30 2120 C 203.448 1.75278 1.52907 0
M  V30 2121 C 204.442 0.619611 1.57662 0
M  V30 2122 O 205.648 0.801457 1.61173 0
M  V30 2123 H 202.023 0.554141 0.508362 0
M  V30 2124 H 203.994 2.68389 1.30422 0
M  V30 2125 C 202.743 1.91262 2.90369 0
M  V30 2126 H 202.066 2.77872 2.8745 0
M  V30 2127 H 203.506 2.11581 3.67436 0
M  V30 2128 C 201.965 0.677431 3.30019 0
M  V30 2129 O 202.495 -0.158799 4.01386 0
M  V30 2130 N 200.701 0.515851 2.85985 0
M  V30 2131 H 200.248 1.19744 2.28077 0
M  V30 2132 H 200.206 -0.309315 3.12875 0
M  V30 2133 N 203.978 -0.674533 1.42435 0
M  V30 2134 C 204.908 -1.80009 1.48724 0
M  V30 2135 C 205.889 -1.6659 0.343793 0
M  V30 2136 O 207.074 -1.86007 0.558137 0
M  V30 2137 C 204.204 -3.18306 1.38919 0
M  V30 2138 C 203.158 -3.46461 2.51294 0
M  V30 2139 C 202.484 -4.84335 2.26547 0
M  V30 2140 C 203.784 -3.43328 3.93603 0
M  V30 2141 H 205.478 -1.75004 2.42928 0
M  V30 2142 H 203.024 -0.840533 1.16923 0
M  V30 2143 H 204.977 -3.9678 1.41927 0
M  V30 2144 H 203.701 -3.2399 0.412094 0
M  V30 2145 H 202.36 -2.70348 2.47604 0
M  V30 2146 H 202.008 -4.86669 1.2713 0
M  V30 2147 H 201.708 -5.04136 3.01861 0
M  V30 2148 H 203.232 -5.65094 2.31304 0
M  V30 2149 H 204.646 -4.11772 3.98894 0
M  V30 2150 H 203.043 -3.74664 4.68771 0
M  V30 2151 H 204.113 -2.41897 4.20255 0
M  V30 2152 N 205.456 -1.28612 -0.910864 0
M  V30 2153 C 206.704 -1.15705 -1.65701 0
M  V30 2154 C 207.025 0.29416 -1.92769 0
M  V30 2155 O 206.295 1.20331 -1.54588 0
M  V30 2156 H 204.875 -0.425216 -0.614167 0
M  V30 2157 H 207.537 -1.61381 -1.0928 0
M  V30 2158 H 206.633 -1.6988 -2.61815 0
M  V30 2159 N 206.934 1.1197 -1.10907 0
M  V30 2160 C 207.897 2.16031 -0.765707 0
M  V30 2161 C 208.897 1.59393 0.212235 0
M  V30 2162 O 210.087 1.74196 -0.0115441 0
M  V30 2163 C 207.219 3.40632 -0.135053 0
M  V30 2164 H 208.412 2.47919 -1.68748 0
M  V30 2165 H 205.965 1.27061 -0.910226 0
M  V30 2166 H 206.7 3.14348 0.797218 0
M  V30 2167 H 206.485 3.8302 -0.838937 0
M  V30 2168 H 207.975 4.17505 0.0892469 0
M  V30 2169 N 208.412 0.89855 1.29475 0
M  V30 2170 C 209.658 0.524658 1.95896 0
M  V30 2171 C 209.991 -0.926468 1.70676 0
M  V30 2172 O 209.266 -1.65665 1.01908 0
M  V30 2173 C 209.549 0.81633 3.50725 0
M  V30 2174 C 209.402 2.31907 3.85408 0
M  V30 2175 C 210.721 0.302038 4.39062 0
M  V30 2176 H 207.84 0.19209 0.711527 0
M  V30 2177 H 210.482 1.12502 1.53112 0
M  V30 2178 H 208.632 0.305369 3.87298 0
M  V30 2179 H 210.304 2.89949 3.58786 0
M  V30 2180 H 208.547 2.78027 3.32992 0
M  V30 2181 H 209.218 2.47373 4.93468 0
M  V30 2182 H 211.694 0.739551 4.09475 0
M  V30 2183 H 210.57 0.535331 5.46283 0
M  V30 2184 H 210.831 -0.797216 4.34853 0
M  V30 2185 N 209.89 -1.43072 0.660911 0
M  V30 2186 C 211.136 -2.0202 0.177708 0
M  V30 2187 C 211.469 -1.52066 -1.20787 0
M  V30 2188 O 210.744 -0.716987 -1.80802 0
M  V30 2189 C 211.027 -3.59561 0.197019 0
M  V30 2190 C 210.88 -4.19727 1.61706 0
M  V30 2191 C 212.199 -4.37664 -0.462396 0
M  V30 2192 H 209.318 -0.734034 0.0660494 0
M  V30 2193 H 211.96 -1.70272 0.843058 0
M  V30 2194 H 210.11 -3.86739 -0.369527 0
M  V30 2195 H 211.782 -4.03553 2.23479 0
M  V30 2196 H 210.025 -3.76084 2.16201 0
M  V30 2197 H 210.696 -5.28834 1.58237 0
M  V30 2198 H 213.172 -4.16095 0.0197215 0
M  V30 2199 H 212.048 -5.47305 -0.418188 0
M  V30 2200 H 212.309 -4.14493 -1.53778 0
M  V30 2201 N 211.368 -0.403325 -1.52352 0
M  V30 2202 C 212.593 0.176499 -2.06648 0
M  V30 2203 C 213.018 1.38577 -1.27193 0
M  V30 2204 O 212.376 1.7879 -0.300637 0
M  V30 2205 C 212.424 0.511061 -3.5696 0
M  V30 2206 O 211.528 1.60294 -3.79973 0
M  V30 2207 H 210.869 0.0167337 -0.663789 0
M  V30 2208 H 213.399 -0.574848 -1.96359 0
M  V30 2209 H 213.409 0.771362 -4.00642 0
M  V30 2210 H 212.084 -0.37296 -4.14224 0
M  V30 2211 H 210.661 1.33526 -3.48174 0
M  V30 2212 N 212.846 1.57033 -0.133567 0
M  V30 2213 C 214.123 1.87256 0.56522 0
M  V30 2214 C 214.503 1.03726 1.83859 0
M  V30 2215 O 213.851 0.120247 2.28183 0
M  V30 2216 C 214.061 3.3865 0.843636 0
M  V30 2217 C 215.409 4.07574 1.19032 0
M  V30 2218 O 216.433 3.43752 0.933429 0
M  V30 2219 O 215.292 5.20259 1.67312 0
M  V30 2220 H 212.386 0.775678 0.286796 0
M  V30 2221 H 214.932 1.68855 -0.169168 0
M  V30 2222 H 213.704 3.91257 -0.0581149 0
M  V30 2223 H 213.327 3.62532 1.63268 0
M  V30 2224 N 214.325 -0.140222 1.56975 0
M  V30 2225 C 215.571 -0.852949 1.83991 0
M  V30 2226 C 215.904 -1.80512 0.716187 0
M  V30 2227 O 215.179 -1.92479 -0.279681 0
M  V30 2228 C 215.462 -1.6215 3.21527 0
M  V30 2229 C 215.315 -0.690363 4.4447 0
M  V30 2230 C 216.634 -2.58247 3.56366 0
M  V30 2231 H 213.753 -0.308634 0.669264 0
M  V30 2232 H 216.395 -0.117898 1.89634 0
M  V30 2233 H 214.545 -2.24812 3.16847 0
M  V30 2234 H 216.217 -0.0742264 4.6124 0
M  V30 2235 H 214.46 -0.000396433 4.338 0
M  V30 2236 H 215.131 -1.2643 5.37326 0
M  V30 2237 H 217.607 -2.05701 3.61699 0
M  V30 2238 H 216.483 -3.09067 4.53617 0
M  V30 2239 H 216.744 -3.39923 2.82674 0
M  V30 2240 N 215.803 -1.52179 -0.40978 0
M  V30 2241 C 216.713 -1.78364 -1.52392 0
M  V30 2242 C 217.729 -0.669183 -1.60617 0
M  V30 2243 O 218.905 -0.954518 -1.77344 0
M  V30 2244 C 215.97 -1.92822 -2.88133 0
M  V30 2245 C 215.031 -3.16725 -2.898 0
M  V30 2246 C 214.264 -3.30483 -4.19067 0
M  V30 2247 O 214.487 -2.49522 -5.12928 0
M  V30 2248 O 213.421 -4.2363 -4.27576 0
M  V30 2249 H 217.247 -2.72931 -1.33201 0
M  V30 2250 H 214.832 -1.37016 -0.59557 0
M  V30 2251 H 216.714 -2.04157 -3.68643 0
M  V30 2252 H 215.389 -1.01444 -3.07393 0
M  V30 2253 H 214.296 -3.10848 -2.08146 0
M  V30 2254 H 215.629 -4.07881 -2.75489 0
M  V30 2255 N 217.281 0.66697 -1.42791 0
M  V30 2256 C 218.509 1.45505 -1.47091 0
M  V30 2257 C 218.924 1.8861 -0.0845873 0
M  V30 2258 O 218.281 1.58632 0.90234 0
M  V30 2259 C 218.332 2.69906 -2.40485 0
M  V30 2260 O 218.053 2.28608 -3.73725 0
M  V30 2261 C 219.554 3.63396 -2.53886 0
M  V30 2262 H 216.774 0.447459 -0.500022 0
M  V30 2263 H 219.318 0.818866 -1.8739 0
M  V30 2264 H 217.473 3.29696 -2.03419 0
M  V30 2265 H 217.887 3.08997 -4.23817 0
M  V30 2266 H 219.361 4.47387 -3.2334 0
M  V30 2267 H 219.838 4.09824 -1.57927 0
M  V30 2268 H 220.444 3.09495 -2.91706 0
M  V30 2269 N 218.759 1.29093 0.90403 0
M  V30 2270 C 220.007 1.16583 1.65085 0
M  V30 2271 C 220.328 -0.283933 1.92922 0
M  V30 2272 O 219.598 -1.19509 1.55224 0
M  V30 2273 H 218.178 0.428467 0.611903 0
M  V30 2274 H 220.84 1.61959 1.08422 0
M  V30 2275 H 219.936 1.71266 2.6091 0
M  V30 2276 N 220.237 -1.11381 1.11499 0
M  V30 2277 C 221.483 -1.83403 0.865512 0
M  V30 2278 C 221.816 -1.84459 -0.607329 0
M  V30 2279 O 221.091 -1.29811 -1.44842 0
M  V30 2280 C 221.374 -3.30552 1.42855 0
M  V30 2281 C 221.227 -3.37886 2.96906 0
M  V30 2282 C 222.546 -4.26643 1.08 0
M  V30 2283 H 219.665 -0.665879 0.31587 0
M  V30 2284 H 222.307 -1.30601 1.37998 0
M  V30 2285 H 220.457 -3.75648 0.990985 0
M  V30 2286 H 222.129 -3.01343 3.49271 0
M  V30 2287 H 220.372 -2.78088 3.32941 0
M  V30 2288 H 221.043 -4.41458 3.31389 0
M  V30 2289 H 223.519 -3.89729 1.45775 0
M  V30 2290 H 222.395 -5.27986 1.50072 0
M  V30 2291 H 222.656 -4.42099 -0.00915037 0
M  V30 2292 N 221.715 -0.905404 -1.28997 0
M  V30 2293 C 222.961 -0.535039 -1.95615 0
M  V30 2294 C 223.294 0.917404 -1.71165 0
M  V30 2295 O 222.569 1.65123 -1.02785 0
M  V30 2296 C 222.852 -0.834918 -3.50287 0
M  V30 2297 C 222.705 -2.33948 -3.84172 0
M  V30 2298 C 224.024 -0.325318 -4.38896 0
M  V30 2299 H 221.143 -0.195861 -0.710498 0
M  V30 2300 H 223.785 -1.13313 -1.52513 0
M  V30 2301 H 221.935 -0.325904 -3.87131 0
M  V30 2302 H 223.607 -2.91847 -3.57243 0
M  V30 2303 H 221.85 -2.79789 -3.31513 0
M  V30 2304 H 222.521 -2.49987 -4.92149 0
M  V30 2305 H 224.997 -0.761256 -4.09077 0
M  V30 2306 H 223.873 -0.564295 -5.45992 0
M  V30 2307 H 224.134 0.774144 -4.35269 0
M  V30 2308 N 223.193 1.4272 -0.668489 0
M  V30 2309 C 224.44 2.01624 -0.18814 0
M  V30 2310 C 224.768 1.5282 1.20317 0
M  V30 2311 O 224.023 0.718323 1.8204 0
M  V30 2312 C 224.322 3.57021 -0.164499 0
M  V30 2313 C 223.988 4.25232 -1.49962 0
M  V30 2314 C 222.65 4.4358 -1.8652 0
M  V30 2315 C 225.002 4.63727 -2.37921 0
M  V30 2316 C 222.33 4.97694 -3.10674 0
M  V30 2317 C 224.682 5.19218 -3.6138 0
M  V30 2318 C 223.346 5.3578 -3.98115 0
M  V30 2319 H 222.616 0.737795 -0.0688454 0
M  V30 2320 H 225.263 1.70991 -0.862225 0
M  V30 2321 H 223.568 3.87285 0.593079 0
M  V30 2322 H 225.265 4.00372 0.224271 0
M  V30 2323 H 221.855 4.11306 -1.20522 0
M  V30 2324 H 226.039 4.4923 -2.10964 0
M  V30 2325 H 221.295 5.08702 -3.39164 0
M  V30 2326 H 225.469 5.4799 -4.29743 0
M  V30 2327 H 223.096 5.77475 -4.94395 0
M  V30 2328 N 224.671 0.411399 1.52136 0
M  V30 2329 C 225.601 -0.404015 2.29978 0
M  V30 2330 C 226.582 -1.04412 1.34284 0
M  V30 2331 O 227.767 -1.0527 1.63192 0
M  V30 2332 C 224.897 -1.5197 3.12286 0
M  V30 2333 C 223.851 -1.00448 4.16046 0
M  V30 2334 C 223.177 -2.21393 4.86712 0
M  V30 2335 C 224.477 -0.0569336 5.22269 0
M  V30 2336 H 226.171 0.245529 2.98392 0
M  V30 2337 H 223.717 0.119525 1.43503 0
M  V30 2338 H 225.67 -2.09715 3.6551 0
M  V30 2339 H 224.394 -2.19716 2.41646 0
M  V30 2340 H 223.053 -0.449421 3.63835 0
M  V30 2341 H 222.701 -2.87699 4.12599 0
M  V30 2342 H 222.401 -1.87571 5.56858 0
M  V30 2343 H 223.925 -2.7974 5.4275 0
M  V30 2344 H 225.339 -0.54325 5.7072 0
M  V30 2345 H 223.736 0.192594 5.99791 0
M  V30 2346 H 224.806 0.887663 4.76706 0
M  V30 2347 N 226.149 -1.5696 0.141893 0
M  V30 2348 C 227.396 -1.9596 -0.510492 0
M  V30 2349 C 227.724 -1.02648 -1.65208 0
M  V30 2350 O 226.979 -0.0546947 -1.95624 0
M  V30 2351 C 227.278 -3.41242 -1.06249 0
M  V30 2352 C 226.944 -4.50882 -0.0398791 0
M  V30 2353 C 225.606 -4.80595 0.241247 0
M  V30 2354 C 227.958 -5.17058 0.65578 0
M  V30 2355 C 225.286 -5.73792 1.22393 0
M  V30 2356 C 227.638 -6.11313 1.62724 0
M  V30 2357 C 226.302 -6.39407 1.91612 0
M  V30 2358 H 225.572 -0.717068 -0.186802 0
M  V30 2359 H 228.219 -1.90142 0.227643 0
M  V30 2360 H 226.524 -3.43866 -1.87785 0
M  V30 2361 H 228.221 -3.68742 -1.57576 0
M  V30 2362 H 224.811 -4.27754 -0.269174 0
M  V30 2363 H 228.995 -4.94239 0.451779 0
M  V30 2364 H 224.251 -5.93853 1.45424 0
M  V30 2365 H 228.425 -6.61668 2.17183 0
M  V30 2366 H 226.052 -7.11427 2.6791 0
M  V30 2367 N 227.627 0.131896 -1.57047 0
M  V30 2368 C 228.857 0.855219 -1.88068 0
M  V30 2369 C 229.265 1.74557 -0.729817 0
M  V30 2370 O 228.608 1.81083 0.308962 0
M  V30 2371 C 228.67 1.75119 -3.13964 0
M  V30 2372 C 228.334 1.03646 -4.45091 0
M  V30 2373 C 229.331 0.383276 -5.18485 0
M  V30 2374 C 227.016 1.02148 -4.91804 0
M  V30 2375 C 229.01 -0.275347 -6.36805 0
M  V30 2376 C 226.697 0.359047 -6.10044 0
M  V30 2377 C 227.695 -0.288222 -6.82392 0
M  V30 2378 O 227.383 -0.94011 -7.98384 0
M  V30 2379 H 227.115 0.251864 -0.627328 0
M  V30 2380 H 229.669 0.124782 -2.05021 0
M  V30 2381 H 227.899 2.52295 -2.9306 0
M  V30 2382 H 229.588 2.3478 -3.31109 0
M  V30 2383 H 230.354 0.386562 -4.83457 0
M  V30 2384 H 226.233 1.5147 -4.35405 0
M  V30 2385 H 229.777 -0.781148 -6.93213 0
M  V30 2386 H 225.674 0.35348 -6.44531 0
M  V30 2387 H 226.442 -0.84329 -8.14144 0
M  V30 2388 N 229.106 1.52395 0.401703 0
M  V30 2389 C 230.331 1.70972 1.17403 0
M  V30 2390 C 230.756 0.421615 1.83314 0
M  V30 2391 O 230.114 -0.621564 1.70312 0
M  V30 2392 C 230.162 2.85151 2.20728 0
M  V30 2393 O 229.266 2.51238 3.27037 0
M  V30 2394 H 228.607 0.568927 0.342372 0
M  V30 2395 H 231.137 1.99131 0.469891 0
M  V30 2396 H 231.147 3.10279 2.64936 0
M  V30 2397 H 229.822 3.78603 1.7214 0
M  V30 2398 H 228.399 2.36808 2.88057 0
M  V30 2399 N 230.584 -0.659388 1.43143 0
M  V30 2400 C 231.514 -1.78422 1.50625 0
M  V30 2401 C 232.495 -1.66216 0.361443 0
M  V30 2402 O 233.68 -1.85404 0.577834 0
M  V30 2403 C 230.81 -3.16815 1.42287 0
M  V30 2404 C 229.764 -3.43777 2.54954 0
M  V30 2405 C 229.09 -4.81905 2.31671 0
M  V30 2406 C 230.39 -3.39134 3.97222 0
M  V30 2407 H 232.084 -1.72417 2.44771 0
M  V30 2408 H 229.63 -0.828084 1.17808 0
M  V30 2409 H 231.583 -3.95253 1.46127 0
M  V30 2410 H 230.307 -3.23534 0.446435 0
M  V30 2411 H 228.966 -2.67707 2.50457 0
M  V30 2412 H 228.614 -4.85294 1.32284 0
M  V30 2413 H 228.314 -5.00906 3.07192 0
M  V30 2414 H 229.838 -5.62609 2.37284 0
M  V30 2415 H 231.252 -4.07518 4.03239 0
M  V30 2416 H 229.649 -3.69671 4.72719 0
M  V30 2417 H 230.719 -2.37426 4.22797 0
M  V30 2418 N 232.062 -1.29571 -0.897171 0
M  V30 2419 C 233.302 -1.18959 -1.66217 0
M  V30 2420 C 233.666 0.254271 -1.90309 0
M  V30 2421 O 234.867 0.483407 -2.64417 0
M  V30 2422 C 233.138 -1.98302 -2.9734 0
M  V30 2423 S 234.697 -2.04253 -3.88364 0
M  V30 2424 H 231.515 -0.424137 -0.570639 0
M  V30 2425 H 234.117 -1.6389 -1.06585 0
M  V30 2426 H 232.821 -3.02342 -2.77521 0
M  V30 2427 H 232.352 -1.53986 -3.62011 0
M  V30 2428 H 234.367 -1.16105 -4.82425 0
M  V30 2429 N 233.54 1.10788 -1.12088 0
M  V30 2430 C 234.503 2.15207 -0.788577 0
M  V30 2431 C 235.503 1.59609 0.195317 0
M  V30 2432 O 236.693 1.74174 -0.0300193 0
M  V30 2433 C 233.825 3.4047 -0.171174 0
M  V30 2434 H 235.018 2.46116 -1.71368 0
M  V30 2435 H 232.571 1.26089 -0.923652 0
M  V30 2436 H 233.306 3.15176 0.763832 0
M  V30 2437 H 233.091 3.82109 -0.879514 0
M  V30 2438 H 234.581 4.17576 0.04496 0
M  V30 2439 N 235.018 0.912232 1.28515 0
M  V30 2440 C 235.968 0.370649 2.24967 0
M  V30 2441 C 236.952 -0.516375 1.52389 0
M  V30 2442 O 238.144 -0.356345 1.73376 0
M  V30 2443 C 235.273 -0.389526 3.41083 0
M  V30 2444 C 234.359 0.51313 4.20984 0
M  V30 2445 N 234.75 1.62604 4.78951 0
M  V30 2446 C 233.048 0.313235 4.44899 0
M  V30 2447 C 233.749 2.18619 5.39055 0
M  V30 2448 N 232.725 1.47765 5.23132 0
M  V30 2449 H 236.527 1.22061 2.67354 0
M  V30 2450 H 234.041 0.764712 1.43269 0
M  V30 2451 H 236.038 -0.794353 4.09262 0
M  V30 2452 H 234.698 -1.2366 3.0023 0
M  V30 2453 H 235.709 2.00864 4.77362 0
M  V30 2454 H 232.386 -0.494452 4.14562 0
M  V30 2455 H 233.776 3.12228 5.94948 0
M  V30 2456 N 236.496 -1.42363 0.676048 0
M  V30 2457 C 237.443 -2.308 -0.00150904 0
M  V30 2458 C 238.413 -1.46032 -0.791444 0
M  V30 2459 O 239.598 -1.74861 -0.76344 0
M  V30 2460 C 236.738 -3.31883 -0.945919 0
M  V30 2461 C 235.851 -4.31741 -0.149675 0
M  V30 2462 C 234.986 -5.19898 -1.08995 0
M  V30 2463 C 234.025 -6.11434 -0.285465 0
M  V30 2464 N 233.162 -6.92138 -1.17851 0
M  V30 2465 H 238.002 -2.88187 0.758455 0
M  V30 2466 H 235.539 -1.41952 0.38576 0
M  V30 2467 H 237.497 -3.89019 -1.50731 0
M  V30 2468 H 236.127 -2.76093 -1.6725 0
M  V30 2469 H 235.179 -3.76713 0.528359 0
M  V30 2470 H 236.491 -4.96534 0.474866 0
M  V30 2471 H 235.645 -5.81772 -1.72123 0
M  V30 2472 H 234.384 -4.55284 -1.74837 0
M  V30 2473 H 233.389 -5.48627 0.359018 0
M  V30 2474 H 234.614 -6.78097 0.368883 0
M  V30 2475 H 232.56 -6.30152 -1.82332 0
M  V30 2476 H 232.477 -7.53542 -0.609082 0
M  V30 2477 H 233.745 -7.58499 -1.79722 0
M  V30 2478 N 237.974 -0.419461 -1.51915 0
M  V30 2479 C 238.937 0.389116 -2.25873 0
M  V30 2480 C 239.937 0.964924 -1.28631 0
M  V30 2481 O 241.127 0.842179 -1.52489 0
M  V30 2482 C 238.259 1.54874 -3.03689 0
M  V30 2483 H 239.452 -0.258799 -2.98781 0
M  V30 2484 H 237.005 -0.172209 -1.55348 0
M  V30 2485 H 237.74 2.23323 -2.35154 0
M  V30 2486 H 237.525 1.14223 -3.75094 0
M  V30 2487 H 239.015 2.12046 -3.59759 0
M  V30 2488 N 239.452 1.56882 -0.150215 0
M  V30 2489 C 240.7 1.9584 0.499105 0
M  V30 2490 C 241.021 1.03623 1.65188 0
M  V30 2491 O 240.291 0.0984084 1.95653 0
M  V30 2492 H 238.871 0.723119 0.187373 0
M  V30 2493 H 241.533 1.9358 -0.226466 0
M  V30 2494 H 240.629 2.99638 0.873122 0
M  V30 2495 N 240.93 -0.123565 1.57115 0
M  V30 2496 C 242.17 -0.838097 1.86428 0
M  V30 2497 C 242.534 -1.77266 0.737611 0
M  V30 2498 O 243.735 -2.52842 0.912389 0
M  V30 2499 C 242.006 -1.57219 3.20962 0
M  V30 2500 S 243.565 -2.32893 3.71896 0
M  V30 2501 H 240.383 -0.279811 0.653626 0
M  V30 2502 H 242.985 -0.0967034 1.95261 0
M  V30 2503 H 241.689 -0.877522 4.00909 0
M  V30 2504 H 241.22 -2.35405 3.15195 0
M  V30 2505 H 243.235 -3.5853 3.43032 0
M  V30 2506 N 242.408 -1.52605 -0.393616 0
M  V30 2507 C 243.34 -1.73303 -1.49995 0
M  V30 2508 C 244.353 -0.613473 -1.50799 0
M  V30 2509 O 245.542 -0.889049 -1.54784 0
M  V30 2510 C 242.642 -1.77245 -2.88855 0
M  V30 2511 C 241.815 -3.06483 -3.12069 0
M  V30 2512 C 240.874 -3.02033 -4.30886 0
M  V30 2513 O 239.9 -3.75907 -4.27414 0
M  V30 2514 N 241.102 -2.20897 -5.36828 0
M  V30 2515 H 243.867 -2.68756 -1.32629 0
M  V30 2516 H 241.428 -1.51036 -0.583083 0
M  V30 2517 H 243.42 -1.7178 -3.66434 0
M  V30 2518 H 241.99 -0.891993 -2.99603 0
M  V30 2519 H 241.21 -3.25474 -2.22396 0
M  V30 2520 H 242.498 -3.91947 -3.2443 0
M  V30 2521 H 241.896 -1.60336 -5.42502 0
M  V30 2522 H 240.453 -2.21275 -6.13091 0
M  V30 2523 N 243.887 0.651787 -1.4349 0
M  V30 2524 C 245.133 1.41376 -1.45398 0
M  V30 2525 C 245.466 1.94041 -0.0784823 0
M  V30 2526 O 244.741 1.72379 0.900878 0
M  V30 2527 C 245.024 2.59414 -2.49752 0
M  V30 2528 C 244.877 2.12232 -3.96582 0
M  V30 2529 C 246.196 3.61626 -2.50827 0
M  V30 2530 H 243.315 0.512719 -0.529422 0
M  V30 2531 H 245.957 0.738796 -1.75048 0
M  V30 2532 H 244.107 3.16997 -2.246 0
M  V30 2533 H 245.779 1.59639 -4.32797 0
M  V30 2534 H 244.022 1.43592 -4.09346 0
M  V30 2535 H 244.693 2.9712 -4.65214 0
M  V30 2536 H 247.169 3.13805 -2.7325 0
M  V30 2537 H 246.045 4.41766 -3.25783 0
M  V30 2538 H 246.306 4.14314 -1.5426 0
M  V30 2539 N 245.365 1.30045 0.890287 0
M  V30 2540 C 246.328 1.15963 1.977 0
M  V30 2541 C 247.328 0.0923777 1.60534 0
M  V30 2542 O 248.518 0.340071 1.70848 0
M  V30 2543 C 245.65 0.775451 3.31963 0
M  V30 2544 H 246.843 2.12502 2.11619 0
M  V30 2545 H 244.396 1.13366 1.07601 0
M  V30 2546 H 245.131 -0.189671 3.23745 0
M  V30 2547 H 244.916 1.54668 3.60306 0
M  V30 2548 H 246.406 0.700251 4.11687 0
M  V30 2549 N 246.843 -1.10192 1.12674 0
M  V30 2550 C 248.068 -1.86523 0.906853 0
M  V30 2551 C 248.493 -1.80221 -0.538711 0
M  V30 2552 O 247.851 -1.17396 -1.38158 0
M  V30 2553 C 247.899 -3.32758 1.3894 0
M  V30 2554 O 247.003 -4.08449 0.5695 0
M  V30 2555 H 246.344 -0.578678 0.325619 0
M  V30 2556 H 248.874 -1.39203 1.49946 0
M  V30 2557 H 248.884 -3.83608 1.38958 0
M  V30 2558 H 247.559 -3.36661 2.44197 0
M  V30 2559 H 246.136 -3.67427 0.636528 0
M  V30 2560 N 248.321 -0.919034 -1.28029 0
M  V30 2561 C 249.549 -0.570971 -1.98866 0
M  V30 2562 C 249.964 0.848996 -1.68634 0
M  V30 2563 O 249.321 1.56307 -0.942036 0
M  V30 2564 C 249.372 -0.776876 -3.53054 0
M  V30 2565 O 249.093 -2.14097 -3.82222 0
M  V30 2566 C 250.594 -0.436356 -4.41147 0
M  V30 2567 H 247.814 -0.217175 -0.634883 0
M  V30 2568 H 250.358 -1.23368 -1.63097 0
M  V30 2569 H 248.513 -0.161085 -3.87065 0
M  V30 2570 H 248.927 -2.18455 -4.76841 0
M  V30 2571 H 250.401 -0.63117 -5.4838 0
M  V30 2572 H 250.878 0.627686 -4.34692 0
M  V30 2573 H 251.484 -1.02991 -4.12641 0
M  V30 2574 N 249.799 1.42003 -0.683588 0
M  V30 2575 C 250.732 2.28166 0.039592 0
M  V30 2576 C 251.71 1.41562 0.799942 0
M  V30 2577 O 252.894 1.70997 0.793248 0
M  V30 2578 C 250.021 3.21575 1.06335 0
M  V30 2579 C 249.067 4.24643 0.397562 0
M  V30 2580 S 249.9 5.2869 -0.851296 0
M  V30 2581 C 251.056 6.25666 0.171166 0
M  V30 2582 H 251.289 2.89153 -0.691229 0
M  V30 2583 H 248.822 1.46962 -0.473435 0
M  V30 2584 H 250.78 3.75928 1.6489 0
M  V30 2585 H 249.441 2.59707 1.76667 0
M  V30 2586 H 248.634 4.90223 1.17035 0
M  V30 2587 H 248.236 3.73824 -0.114611 0
M  V30 2588 H 250.528 6.69653 1.02819 0
M  V30 2589 H 251.471 7.06666 -0.450397 0
M  V30 2590 H 251.879 5.62095 0.520578 0
M  V30 2591 N 251.277 0.427512 1.51691 0
M  V30 2592 C 252.207 -0.3796 2.30394 0
M  V30 2593 C 253.188 -1.02982 1.35384 0
M  V30 2594 O 254.373 -1.03534 1.643 0
M  V30 2595 C 251.503 -1.48649 3.1388 0
M  V30 2596 C 250.457 -0.960294 4.17088 0
M  V30 2597 C 249.783 -2.16219 4.89033 0
M  V30 2598 C 251.083 -0.00153679 5.223 0
M  V30 2599 H 252.777 0.277164 2.98114 0
M  V30 2600 H 250.323 0.134739 1.43368 0
M  V30 2601 H 252.276 -2.05826 3.67714 0
M  V30 2602 H 251 -2.1714 2.43962 0
M  V30 2603 H 249.659 -0.410806 3.64291 0
M  V30 2604 H 249.307 -2.83307 4.15628 0
M  V30 2605 H 249.007 -1.81654 5.58816 0
M  V30 2606 H 250.531 -2.73968 5.45687 0
M  V30 2607 H 251.945 -0.482687 5.71264 0
M  V30 2608 H 250.342 0.256199 5.99553 0
M  V30 2609 H 251.412 0.938174 4.75738 0
M  V30 2610 N 252.755 -1.56801 0.158532 0
M  V30 2611 C 254.001 -1.96781 -0.490405 0
M  V30 2612 C 254.334 -1.04397 -1.63753 0
M  V30 2613 O 253.609 -0.0885805 -1.94298 0
M  V30 2614 C 253.892 -3.4635 -0.985594 0
M  V30 2615 C 253.745 -4.49512 0.160824 0
M  V30 2616 C 255.064 -3.98697 -1.86355 0
M  V30 2617 H 252.183 -0.715482 -0.176788 0
M  V30 2618 H 254.825 -1.88451 0.242088 0
M  V30 2619 H 252.975 -3.53579 -1.60978 0
M  V30 2620 H 254.647 -4.54353 0.797537 0
M  V30 2621 H 252.89 -4.26013 0.818256 0
M  V30 2622 H 253.561 -5.51531 -0.227569 0
M  V30 2623 H 256.037 -3.94019 -1.33746 0
M  V30 2624 H 254.913 -5.03792 -2.17909 0
M  V30 2625 H 255.174 -3.41744 -2.8047 0
M  V30 2626 N 254.233 0.115231 -1.57178 0
M  V30 2627 C 255.479 0.818565 -1.86202 0
M  V30 2628 C 255.834 1.77316 -0.746785 0
M  V30 2629 O 255.127 1.89923 0.25291 0
M  V30 2630 C 255.321 1.60324 -3.19423 0
M  V30 2631 C 255.15 0.726138 -4.43799 0
M  V30 2632 C 253.92 0.379535 -5.03873 0
M  V30 2633 C 256.118 0.0420774 -5.14283 0
M  V30 2634 N 254.1 -0.507841 -6.11796 0
M  V30 2635 C 255.471 -0.704152 -6.15988 0
M  V30 2636 C 257.526 -0.0339486 -4.97888 0
M  V30 2637 C 256.229 -1.51927 -7.03072 0
M  V30 2638 C 258.255 -0.835906 -5.85463 0
M  V30 2639 C 257.617 -1.57031 -6.86673 0
M  V30 2640 H 253.716 0.276343 -0.731545 0
M  V30 2641 H 256.3 0.0821032 -1.94527 0
M  V30 2642 H 254.471 2.31072 -3.12186 0
M  V30 2643 H 256.203 2.2522 -3.36241 0
M  V30 2644 H 252.958 0.722634 -4.68054 0
M  V30 2645 H 253.382 -0.94349 -6.70393 0
M  V30 2646 H 258.024 0.519496 -4.19596 0
M  V30 2647 H 255.742 -2.08386 -7.80769 0
M  V30 2648 H 259.328 -0.89714 -5.74841 0
M  V30 2649 H 258.208 -2.18088 -7.53264 0
M  V30 2650 N 255.711 1.52812 0.385517 0
M  V30 2651 C 256.936 1.72207 1.15583 0
M  V30 2652 C 257.361 0.441034 1.82857 0
M  V30 2653 O 256.719 -0.603465 1.70962 0
M  V30 2654 C 256.767 2.87476 2.17692 0
M  V30 2655 O 255.871 2.54693 3.24354 0
M  V30 2656 H 255.212 0.572526 0.336319 0
M  V30 2657 H 257.742 1.99618 0.448744 0
M  V30 2658 H 257.752 3.13072 2.6163 0
M  V30 2659 H 256.427 3.80408 1.68115 0
M  V30 2660 H 255.004 2.3985 2.85529 0
M  V30 2661 N 257.189 -0.644168 1.43834 0
M  V30 2662 C 258.136 -1.75671 1.49694 0
M  V30 2663 C 259.106 -1.6246 0.345809 0
M  V30 2664 O 260.291 -1.82573 0.554234 0
M  V30 2665 C 257.431 -3.13867 1.43463 0
M  V30 2666 C 256.544 -3.38147 2.6885 0
M  V30 2667 C 255.679 -4.66241 2.54544 0
M  V30 2668 C 254.718 -4.83657 3.75157 0
M  V30 2669 N 253.855 -6.03016 3.59605 0
M  V30 2670 H 258.695 -1.69998 2.44754 0
M  V30 2671 H 256.232 -0.829458 1.21484 0
M  V30 2672 H 258.19 -3.9377 1.37843 0
M  V30 2673 H 256.82 -3.18588 0.519783 0
M  V30 2674 H 255.872 -2.52276 2.84712 0
M  V30 2675 H 257.184 -3.46899 3.58417 0
M  V30 2676 H 256.338 -5.54285 2.46683 0
M  V30 2677 H 255.077 -4.59826 1.62516 0
M  V30 2678 H 254.082 -3.94046 3.83416 0
M  V30 2679 H 255.307 -4.91896 4.68204 0
M  V30 2680 H 253.253 -5.97715 2.7032 0
M  V30 2681 H 253.17 -6.12766 4.42779 0
M  V30 2682 H 254.438 -6.93657 3.55613 0
M  V30 2683 N 258.668 -1.30515 -0.883378 0
M  V30 2684 C 259.945 -1.10086 -1.6168 0
M  V30 2685 C 260.325 0.349269 -2.08191 0
M  V30 2686 O 259.673 1.34105 -1.85008 0
M  V30 2687 C 259.883 -2.10315 -2.78511 0
M  V30 2688 C 261.231 -2.42119 -3.48803 0
M  V30 2689 O 262.255 -2.08638 -2.88702 0
M  V30 2690 O 261.114 -2.99396 -4.57192 0
M  V30 2691 H 258.208 -0.422907 -0.710689 0
M  V30 2692 H 260.754 -1.41947 -0.930015 0
M  V30 2693 H 259.526 -3.07917 -2.41459 0
M  V30 2694 H 259.149 -1.79282 -3.54886 0
M  V30 2695 N 260.146 1.09593 -1.13257 0
M  V30 2696 C 261.423 1.78293 -0.804432 0
M  V30 2697 C 261.803 1.99004 0.70431 0
M  V30 2698 O 261.151 1.59007 1.641 0
M  V30 2699 C 261.361 3.10707 -1.5894 0
M  V30 2700 C 262.709 3.85443 -1.78099 0
M  V30 2701 O 263.733 3.20454 -1.55525 0
M  V30 2702 O 262.592 5.02108 -2.15753 0
M  V30 2703 H 259.686 0.773156 -0.293528 0
M  V30 2704 H 262.232 1.16164 -1.23709 0
M  V30 2705 H 261.004 2.91106 -2.61482 0
M  V30 2706 H 260.627 3.80558 -1.15157 0
M  V30 2707 N 261.624 0.925811 1.2754 0
M  V30 2708 C 262.872 0.564138 1.94067 0
M  V30 2709 C 263.193 -0.897188 1.73134 0
M  V30 2710 O 262.463 -1.63573 1.07799 0
M  V30 2711 H 261.043 0.205645 0.718136 0
M  V30 2712 H 263.705 1.1778 1.55287 0
M  V30 2713 H 262.801 0.76881 3.02483 0
M  V30 2714 N 263.102 -1.41638 0.69111 0
M  V30 2715 C 264.348 -2.01598 0.220519 0
M  V30 2716 C 264.681 -1.54594 -1.17535 0
M  V30 2717 O 263.956 -0.755177 -1.79241 0
M  V30 2718 C 264.239 -3.59062 0.273243 0
M  V30 2719 C 264.092 -4.16203 1.70573 0
M  V30 2720 C 265.411 -4.38546 -0.369457 0
M  V30 2721 H 262.53 -0.732468 0.0816045 0
M  V30 2722 H 265.172 -1.68445 0.878986 0
M  V30 2723 H 263.322 -3.87435 -0.287411 0
M  V30 2724 H 264.994 -3.98722 2.31989 0
M  V30 2725 H 263.237 -3.71414 2.2413 0
M  V30 2726 H 263.908 -5.25358 1.69419 0
M  V30 2727 H 266.384 -4.1596 0.107977 0
M  V30 2728 H 265.26 -5.48069 -0.302002 0
M  V30 2729 H 265.521 -4.17662 -1.44951 0
M  V30 2730 N 264.58 -0.43555 -1.51462 0
M  V30 2731 C 265.805 0.132627 -2.06976 0
M  V30 2732 C 266.23 1.35848 -1.30104 0
M  V30 2733 O 265.588 1.78112 -0.338493 0
M  V30 2734 C 265.636 0.43523 -3.57964 0
M  V30 2735 O 264.74 1.52198 -3.83288 0
M  V30 2736 H 264.081 0.00265 -0.663995 0
M  V30 2737 H 266.611 -0.616369 -1.95095 0
M  V30 2738 H 266.621 0.686206 -4.02188 0
M  V30 2739 H 265.296 -0.460739 -4.1334 0
M  V30 2740 H 263.873 1.2611 -3.50928 0
M  V30 2741 N 266.058 1.56714 -0.166846 0
M  V30 2742 C 267.304 1.97813 0.473473 0
M  V30 2743 C 267.659 1.05095 1.61161 0
M  V30 2744 O 266.952 0.0897541 1.9139 0
M  V30 2745 C 267.146 3.42889 1.00806 0
M  V30 2746 C 266.975 4.49635 -0.0767392 0
M  V30 2747 C 265.745 5.02566 -0.524894 0
M  V30 2748 C 267.943 5.06793 -0.875504 0
M  V30 2749 N 265.925 5.9294 -1.59047 0
M  V30 2750 C 267.296 5.93565 -1.79111 0
M  V30 2751 C 269.351 4.89306 -0.921083 0
M  V30 2752 C 268.054 6.64721 -2.74843 0
M  V30 2753 C 270.08 5.61179 -1.86633 0
M  V30 2754 C 269.442 6.47675 -2.76942 0
M  V30 2755 H 265.541 0.769093 0.141489 0
M  V30 2756 H 268.125 1.92874 -0.266031 0
M  V30 2757 H 266.296 3.48382 1.7171 0
M  V30 2758 H 268.028 3.71008 1.61664 0
M  V30 2759 H 264.783 4.73439 -0.123432 0
M  V30 2760 H 265.207 6.42831 -2.12361 0
M  V30 2761 H 269.849 4.22136 -0.23692 0
M  V30 2762 H 267.567 7.31107 -3.44249 0
M  V30 2763 H 271.153 5.49636 -1.90764 0
M  V30 2764 H 270.033 7.02313 -3.48893 0
M  V30 2765 N 267.536 -0.106894 1.57237 0
M  V30 2766 C 268.761 -0.830287 1.90055 0
M  V30 2767 C 269.186 -1.72064 0.75998 0
M  V30 2768 O 268.544 -1.78982 -0.288991 0
M  V30 2769 C 268.592 -1.6295 3.21683 0
M  V30 2770 O 267.696 -2.73748 3.08441 0
M  V30 2771 H 267.037 -0.228855 0.623315 0
M  V30 2772 H 269.567 -0.085658 2.04421 0
M  V30 2773 H 269.577 -2.01621 3.54701 0
M  V30 2774 H 268.252 -0.975989 4.04286 0
M  V30 2775 H 266.829 -2.38192 2.86913 0
M  V30 2776 N 269.014 -1.53014 -0.377408 0
M  V30 2777 C 270.242 -1.72515 -1.14219 0
M  V30 2778 C 270.657 -0.448735 -1.8339 0
M  V30 2779 O 270.014 0.577592 -1.73119 0
M  V30 2780 C 270.065 -2.8826 -2.18148 0
M  V30 2781 O 269.786 -4.10962 -1.51795 0
M  V30 2782 C 271.287 -3.19536 -3.07264 0
M  V30 2783 H 268.507 -0.577301 -0.342001 0
M  V30 2784 H 271.051 -1.99712 -0.439935 0
M  V30 2785 H 269.206 -2.63492 -2.83991 0
M  V30 2786 H 269.62 -4.75693 -2.20945 0
M  V30 2787 H 271.094 -4.03959 -3.76193 0
M  V30 2788 H 271.571 -2.34403 -3.71419 0
M  V30 2789 H 272.177 -3.46186 -2.47053 0
M  V30 2790 N 270.492 0.636531 -1.44174 0
M  V30 2791 C 271.903 1.21806 -1.41493 0
M  V30 2792 C 272.254 1.95785 -0.1275 0
M  V30 2793 O 271.379 2.02147 0.772376 0
M  V30 2794 C 271.974 2.21551 -2.56321 0
M  V30 2795 C 270.533 2.75143 -2.56853 0
M  V30 2796 C 269.68 1.50052 -2.33195 0
M  V30 2797 H 272.631 0.427531 -1.52833 0
M  V30 2798 H 272.652 3.0405 -2.28765 0
M  V30 2799 H 272.164 1.67679 -3.50008 0
M  V30 2800 H 270.265 3.33033 -1.67093 0
M  V30 2801 H 270.378 3.2155 -3.55165 0
M  V30 2802 H 268.742 1.77993 -1.82183 0
M  V30 2803 H 269.525 0.980903 -3.28988 0
M  V30 2804 N 271.97 1.30982 0.876444 0
M  V30 2805 C 273.386 1.09498 1.16113 0
M  V30 2806 C 273.586 -0.13875 2.01022 0
M  V30 2807 O 272.642 -0.829935 2.38471 0
M  V30 2808 C 273.955 2.36308 1.85954 0
M  V30 2809 C 275.503 2.41856 1.98683 0
M  V30 2810 C 275.978 3.6853 2.71937 0
M  V30 2811 N 277.469 3.69387 2.79477 0
M  V30 2812 C 278.204 4.64096 3.36753 0
M  V30 2813 N 277.7 5.69155 3.95012 0
M  V30 2814 N 279.493 4.51626 3.3465 0
M  V30 2815 H 271.644 2.10118 0.310494 0
M  V30 2816 H 273.907 0.926634 0.200131 0
M  V30 2817 H 273.613 3.26388 1.31011 0
M  V30 2818 H 273.487 2.4561 2.86278 0
M  V30 2819 H 275.874 1.52249 2.52793 0
M  V30 2820 H 275.955 2.36523 0.9742 0
M  V30 2821 H 275.599 4.58499 2.18496 0
M  V30 2822 H 275.529 3.71127 3.73593 0
M  V30 2823 H 278.02 2.93438 2.38123 0
M  V30 2824 H 278.333 6.3751 4.36808 0
M  V30 2825 H 276.678 5.72937 3.93406 0
M  V30 2826 H 279.869 3.68728 2.8837 0
M  V30 2827 H 280.042 5.25614 3.7899 0
M  V30 2828 N 273.449 -1.08991 1.13837 0
M  V30 2829 C 274.397 -2.17841 0.815347 0
M  V30 2830 C 275.391 -1.68164 -0.204233 0
M  V30 2831 O 276.597 -1.79897 -0.0609304 0
M  V30 2832 H 272.972 -0.710654 0.245915 0
M  V30 2833 H 274.943 -2.42315 1.74143 0
M  V30 2834 C 273.692 -3.46381 0.302614 0
M  V30 2835 H 273.015 -3.84979 1.0785 0
M  V30 2836 H 274.455 -4.23844 0.115074 0
M  V30 2837 C 272.914 -3.22556 -0.972591 0
M  V30 2838 O 273.444 -3.45599 -2.04754 0
M  V30 2839 N 271.65 -2.76134 -0.905455 0
M  V30 2840 H 271.197 -2.57582 -0.0305421 0
M  V30 2841 H 271.155 -2.60571 -1.75926 0
M  V30 2842 N 274.927 -0.932562 -1.27047 0
M  V30 2843 C 275.857 -0.452902 -2.29066 0
M  V30 2844 C 276.838 0.489338 -1.62909 0
M  V30 2845 O 278.023 0.393046 -1.90181 0
M  V30 2846 C 275.153 0.290698 -3.46081 0
M  V30 2847 C 274.107 -0.564168 -4.24265 0
M  V30 2848 C 273.433 0.308886 -5.33807 0
M  V30 2849 C 274.733 -1.83112 -4.89149 0
M  V30 2850 H 276.427 -1.30552 -2.69437 0
M  V30 2851 H 273.973 -0.629201 -1.29526 0
M  V30 2852 H 275.926 0.637233 -4.16554 0
M  V30 2853 H 274.65 1.17738 -3.0464 0
M  V30 2854 H 273.309 -0.893477 -3.55545 0
M  V30 2855 H 272.957 1.19467 -4.88607 0
M  V30 2856 H 272.657 -0.259633 -5.87026 0
M  V30 2857 H 274.181 0.650884 -6.07121 0
M  V30 2858 H 275.595 -1.55236 -5.51883 0
M  V30 2859 H 273.992 -2.34353 -5.52448 0
M  V30 2860 H 275.062 -2.54772 -4.12576 0
M  V30 2861 N 276.405 1.4127 -0.698611 0
M  V30 2862 C 277.63 2.06024 -0.238512 0
M  V30 2863 C 278.055 1.5224 1.10475 0
M  V30 2864 O 277.413 0.650623 1.69223 0
M  V30 2865 C 277.461 3.59988 -0.209952 0
M  V30 2866 O 276.565 4.04282 0.814235 0
M  V30 2867 H 275.906 0.653829 -0.115775 0
M  V30 2868 H 278.436 1.8098 -0.954326 0
M  V30 2869 H 278.446 4.07979 -0.0418436 0
M  V30 2870 H 277.121 3.98503 -1.1903 0
M  V30 2871 H 275.698 3.6779 0.615234 0
M  V30 2872 N 277.883 0.443576 1.51229 0
M  V30 2873 C 278.813 -0.355142 2.30783 0
M  V30 2874 C 279.794 -1.0154 1.36468 0
M  V30 2875 O 280.979 -1.01785 1.65389 0
M  V30 2876 C 278.109 -1.45312 3.15439 0
M  V30 2877 C 277.063 -0.916002 4.18083 0
M  V30 2878 C 276.389 -2.1102 4.91299 0
M  V30 2879 C 277.689 0.0538602 5.22272 0
M  V30 2880 H 279.383 0.308767 2.97804 0
M  V30 2881 H 276.929 0.149937 1.43217 0
M  V30 2882 H 278.882 -2.01914 3.69876 0
M  V30 2883 H 277.606 -2.14541 2.46252 0
M  V30 2884 H 276.265 -0.372145 3.64706 0
M  V30 2885 H 275.913 -2.78882 4.18609 0
M  V30 2886 H 275.613 -1.75717 5.60712 0
M  V30 2887 H 277.137 -2.68164 5.48562 0
M  V30 2888 H 278.551 -0.422069 5.71744 0
M  V30 2889 H 276.948 0.319776 5.99247 0
M  V30 2890 H 278.018 0.98858 4.74716 0
M  V30 2891 N 279.361 -1.56624 0.175154 0
M  V30 2892 C 280.638 -1.88688 -0.515373 0
M  V30 2893 C 281.018 -1.08564 -1.81044 0
M  V30 2894 O 280.366 -0.180703 -2.27784 0
M  V30 2895 C 280.576 -3.40768 -0.753552 0
M  V30 2896 C 281.924 -4.10587 -1.08184 0
M  V30 2897 O 282.948 -3.46106 -0.841961 0
M  V30 2898 O 281.807 -5.24512 -1.53459 0
M  V30 2899 H 278.901 -0.78301 -0.26613 0
M  V30 2900 H 281.447 -1.68347 0.213877 0
M  V30 2901 H 280.219 -3.90965 0.161829 0
M  V30 2902 H 279.842 -3.66733 -1.53598 0
M  V30 2903 N 280.839 0.0985539 -1.57292 0
M  V30 2904 C 282.088 0.801358 -1.85098 0
M  V30 2905 C 282.401 1.80066 -0.763902 0
M  V30 2906 O 283.607 2.55112 -0.928981 0
M  V30 2907 C 282.063 1.47599 -3.28242 0
M  V30 2908 C 281.671 0.516624 -4.45011 0
M  V30 2909 C 283.415 2.16272 -3.65276 0
M  V30 2910 C 281.322 1.19564 -5.79188 0
M  V30 2911 H 280.252 0.303022 -0.69043 0
M  V30 2912 H 282.903 0.0542623 -1.8342 0
M  V30 2913 H 281.285 2.27042 -3.2445 0
M  V30 2914 H 282.459 -0.246065 -4.60143 0
M  V30 2915 H 280.774 -0.064227 -4.1635 0
M  V30 2916 H 283.371 2.67802 -4.62803 0
M  V30 2917 H 283.714 2.95009 -2.93727 0
M  V30 2918 H 284.247 1.43693 -3.70941 0
M  V30 2919 H 280.986 0.449157 -6.53959 0
M  V30 2920 H 280.506 1.92984 -5.67906 0
M  V30 2921 H 282.185 1.7231 -6.23633 0
M  V30 2922 N 282.317 1.53212 0.369288 0
M  V30 2923 C 283.565 1.68881 1.11012 0
M  V30 2924 C 283.886 0.441285 1.89941 0
M  V30 2925 O 283.156 -0.544623 1.88177 0
M  V30 2926 H 281.736 0.622569 0.412816 0
M  V30 2927 H 284.398 1.90391 0.416802 0
M  V30 2928 H 283.494 2.54822 1.80201 0
M  V30 2929 N 283.795 -0.628877 1.44509 0
M  V30 2930 C 285.023 -1.41554 1.50897 0
M  V30 2931 C 285.438 -1.8832 0.134564 0
M  V30 2932 O 284.795 -1.60969 -0.859965 0
M  V30 2933 C 284.846 -2.63435 2.47556 0
M  V30 2934 O 284.567 -2.18619 3.79654 0
M  V30 2935 C 286.068 -3.56537 2.63431 0
M  V30 2936 H 283.288 -0.434044 0.511709 0
M  V30 2937 H 285.832 -0.768895 1.89495 0
M  V30 2938 H 283.987 -3.24187 2.12089 0
M  V30 2939 H 284.401 -2.97652 4.31861 0
M  V30 2940 H 285.875 -4.38657 3.35088 0
M  V30 2941 H 286.352 -4.05493 1.68738 0
M  V30 2942 H 286.958 -3.01653 2.9981 0
M  V30 2943 N 285.273 -1.31445 -0.869486 0
M  V30 2944 C 286.183 -1.21097 -2.0093 0
M  V30 2945 C 287.199 -0.127584 -1.73532 0
M  V30 2946 O 288.375 -0.345477 -1.98415 0
M  V30 2947 C 285.44 -0.919378 -3.34288 0
M  V30 2948 C 284.501 -2.08971 -3.75006 0
M  V30 2949 C 283.734 -1.81194 -5.02001 0
M  V30 2950 O 283.957 -0.747296 -5.65484 0
M  V30 2951 O 282.891 -2.66883 -5.39497 0
M  V30 2952 H 286.717 -2.16883 -2.12592 0
M  V30 2953 H 284.302 -1.11189 -0.997868 0
M  V30 2954 H 286.184 -0.772625 -4.14257 0
M  V30 2955 H 284.859 0.00844772 -3.23699 0
M  V30 2956 H 283.766 -2.29187 -2.95676 0
M  V30 2957 H 285.099 -2.9998 -3.90221 0
M  V30 2958 N 286.751 1.08385 -1.14413 0
M  V30 2959 C 287.997 1.81044 -0.913834 0
M  V30 2960 C 288.33 1.86004 0.558209 0
M  V30 2961 O 287.605 1.33606 1.4135 0
M  V30 2962 C 287.888 3.26648 -1.51569 0
M  V30 2963 C 287.741 3.29895 -3.0576 0
M  V30 2964 C 289.06 4.23629 -1.19273 0
M  V30 2965 H 286.179 0.65727 -0.333414 0
M  V30 2966 H 288.821 1.26896 -1.41412 0
M  V30 2967 H 286.971 3.72889 -1.09023 0
M  V30 2968 H 288.643 2.91977 -3.57137 0
M  V30 2969 H 286.886 2.69163 -3.40197 0
M  V30 2970 H 287.557 4.32516 -3.42977 0
M  V30 2971 H 290.033 3.85727 -1.56057 0
M  V30 2972 H 288.909 5.23822 -1.64017 0
M  V30 2973 H 289.17 4.41968 -0.108068 0
M  V30 2974 N 288.23 0.939286 1.26551 0
M  V30 2975 C 289.477 0.585847 1.9384 0
M  V30 2976 C 289.805 -0.874784 1.73718 0
M  V30 2977 O 289.06 -1.64092 1.06642 0
M  V30 2978 C 289.359 0.872106 3.46596 0
M  V30 2979 C 289.025 2.31632 3.86856 0
M  V30 2980 C 287.687 2.71111 3.97558 0
M  V30 2981 C 290.039 3.25494 4.07066 0
M  V30 2982 C 287.367 4.03553 4.25866 0
M  V30 2983 C 289.719 4.57531 4.36862 0
M  V30 2984 C 288.383 4.96828 4.45778 0
M  V30 2985 H 287.653 0.214377 0.709312 0
M  V30 2986 H 290.3 1.18544 1.50398 0
M  V30 2987 H 288.605 0.18996 3.91339 0
M  V30 2988 H 290.302 0.577442 3.96821 0
M  V30 2989 H 286.892 2.00008 3.79071 0
M  V30 2990 H 291.076 2.9619 3.98227 0
M  V30 2991 H 286.332 4.33665 4.30981 0
M  V30 2992 H 290.506 5.30254 4.51446 0
M  V30 2993 H 288.133 5.99482 4.67468 0
M  V30 2994 N 289.708 -1.40897 0.706093 0
M  V30 2995 C 290.671 -2.29131 0.0562841 0
M  V30 2996 C 291.671 -1.44901 -0.697166 0
M  V30 2997 O 292.861 -1.65926 -0.530484 0
M  V30 2998 C 289.993 -3.27957 -0.93043 0
M  V30 2999 H 291.186 -2.88091 0.833284 0
M  V30 3000 H 288.739 -1.4906 0.470192 0
M  V30 3001 H 289.474 -2.73997 -1.73482 0
M  V30 3002 H 289.259 -3.90124 -0.393166 0
M  V30 3003 H 290.749 -3.94049 -1.38256 0
M  V30 3004 N 291.186 -0.45159 -1.50991 0
M  V30 3005 C 292.597 0.00818571 -1.86698 0
M  V30 3006 C 292.948 1.40661 -1.3678 0
M  V30 3007 O 292.073 2.0391 -0.724546 0
M  V30 3008 C 292.668 0.0216303 -3.38793 0
M  V30 3009 C 291.227 0.425865 -3.73983 0
M  V30 3010 C 290.374 -0.372163 -2.74791 0
M  V30 3011 H 293.325 -0.666785 -1.44013 0
M  V30 3012 H 293.346 0.828078 -3.7138 0
M  V30 3013 H 292.858 -0.996288 -3.75094 0
M  V30 3014 H 290.959 1.44886 -3.43277 0
M  V30 3015 H 291.072 0.140761 -4.78893 0
M  V30 3016 H 289.436 0.171498 -2.54122 0
M  V30 3017 H 290.219 -1.38922 -3.13935 0
M  V30 3018 N 292.664 1.56529 -0.183458 0
M  V30 3019 C 293.912 1.96855 0.457452 0
M  V30 3020 C 294.233 1.07104 1.62953 0
M  V30 3021 O 293.503 0.139887 1.954 0
M  V30 3022 H 292.083 0.72693 0.171992 0
M  V30 3023 H 294.745 1.93056 -0.267476 0
M  V30 3024 H 293.841 3.01423 0.809368 0
M  V30 3025 N 294.142 -0.090211 1.57342 0
M  V30 3026 C 295.553 -0.644173 1.75235 0
M  V30 3027 C 295.904 -1.78865 0.806335 0
M  V30 3028 O 295.029 -2.16395 -0.0140128 0
M  V30 3029 C 295.624 -1.17532 3.1776 0
M  V30 3030 C 294.183 -1.67531 3.37061 0
M  V30 3031 C 293.33 -0.58693 2.71017 0
M  V30 3032 H 296.281 0.135884 1.58117 0
M  V30 3033 H 296.302 -2.04455 3.20902 0
M  V30 3034 H 295.814 -0.342138 3.86589 0
M  V30 3035 H 293.915 -2.53234 2.73319 0
M  V30 3036 H 294.028 -1.76493 4.45406 0
M  V30 3037 H 292.392 -1.02756 2.33052 0
M  V30 3038 H 293.175 0.235758 3.4249 0
M  V30 3039 N 295.62 -1.53406 -0.361157 0
M  V30 3040 C 296.868 -1.69467 -1.10115 0
M  V30 3041 C 297.189 -0.451352 -1.89705 0
M  V30 3042 O 296.459 0.534636 -1.88463 0
M  V30 3043 H 295.039 -0.624749 -0.409508 0
M  V30 3044 H 297.701 -1.90609 -0.406699 0
M  V30 3045 H 296.797 -2.55774 -1.78847 0
M  V30 3046 N 297.098 0.621204 -1.44841 0
M  V30 3047 C 298.323 1.41244 -1.51871 0
M  V30 3048 C 298.748 1.87519 -0.147764 0
M  V30 3049 O 298.106 1.59334 0.865 0
M  V30 3050 C 298.154 2.60221 -2.49634 0
M  V30 3051 O 297.258 3.60395 -2.00473 0
M  V30 3052 H 296.599 0.42223 -0.512463 0
M  V30 3053 H 299.129 0.757305 -1.90069 0
M  V30 3054 H 299.139 3.0764 -2.67996 0
M  V30 3055 H 297.814 2.25887 -3.4921 0
M  V30 3056 H 296.391 3.19717 -1.91925 0
M  V30 3057 N 298.576 1.31904 0.862503 0
M  V30 3058 C 299.824 1.21776 1.61292 0
M  V30 3059 C 300.145 -0.222413 1.93727 0
M  V30 3060 O 299.415 -1.1451 1.58947 0
M  V30 3061 H 297.995 0.447717 0.597962 0
M  V30 3062 H 300.657 1.65326 1.03215 0
M  V30 3063 H 299.753 1.7948 2.5533 0
M  V30 3064 N 300.054 -1.07777 1.14986 0
M  V30 3065 C 301.303 -1.79669 0.916617 0
M  V30 3066 C 301.616 -1.87474 -0.557917 0
M  V30 3067 O 302.822 -2.55845 -0.908617 0
M  V30 3068 C 301.278 -3.22848 1.59051 0
M  V30 3069 C 300.886 -3.23257 3.10176 0
M  V30 3070 C 302.63 -3.99379 1.43864 0
M  V30 3071 C 300.537 -4.61063 3.70372 0
M  V30 3072 H 299.467 -0.673349 0.33929 0
M  V30 3073 H 302.118 -1.21003 1.37951 0
M  V30 3074 H 300.5 -3.8168 1.0553 0
M  V30 3075 H 301.674 -2.74095 3.70417 0
M  V30 3076 H 299.989 -2.60222 3.25074 0
M  V30 3077 H 302.586 -5.0122 1.86232 0
M  V30 3078 H 302.929 -4.14511 0.385564 0
M  V30 3079 H 303.462 -3.47032 1.94457 0
M  V30 3080 H 300.201 -4.51135 4.7556 0
M  V30 3081 H 299.721 -5.1048 3.14913 0
M  V30 3082 H 301.4 -5.30034 3.71043 0
M  V30 3083 N 301.532 -0.945985 -1.26051 0
M  V30 3084 C 302.464 -0.416662 -2.25381 0
M  V30 3085 C 303.477 0.462712 -1.56086 0
M  V30 3086 O 304.666 0.272383 -1.7641 0
M  V30 3087 C 301.766 0.419812 -3.3629 0
M  V30 3088 C 300.939 -0.444531 -4.35135 0
M  V30 3089 C 299.998 0.332305 -5.2515 0
M  V30 3090 O 299.024 -0.266324 -5.68577 0
M  V30 3091 N 300.226 1.62763 -5.57215 0
M  V30 3092 H 302.991 -1.27059 -2.71433 0
M  V30 3093 H 300.552 -0.815392 -1.39868 0
M  V30 3094 H 302.544 0.947013 -3.93464 0
M  V30 3095 H 301.114 1.17456 -2.89694 0
M  V30 3096 H 300.334 -1.15291 -3.76964 0
M  V30 3097 H 301.622 -1.03478 -4.98166 0
M  V30 3098 H 301.02 2.13603 -5.23823 0
M  V30 3099 H 299.577 2.10097 -6.17011 0
M  V30 3100 N 303.011 1.40521 -0.713556 0
M  V30 3101 C 303.958 2.30723 -0.059684 0
M  V30 3102 C 304.928 1.48079 0.752448 0
M  V30 3103 O 306.113 1.76823 0.71681 0
M  V30 3104 C 303.253 3.34274 0.857594 0
M  V30 3105 C 302.366 4.31986 0.0351536 0
M  V30 3106 C 301.501 5.22605 0.951724 0
M  V30 3107 C 300.54 6.11976 0.123253 0
M  V30 3108 N 299.677 6.9502 0.99459 0
M  V30 3109 H 304.517 2.86074 -0.834596 0
M  V30 3110 H 302.054 1.40879 -0.42326 0
M  V30 3111 H 304.012 3.92879 1.40364 0
M  V30 3112 H 302.642 2.8043 1.59871 0
M  V30 3113 H 301.694 3.7518 -0.628052 0
M  V30 3114 H 303.006 4.95101 -0.606347 0
M  V30 3115 H 302.16 5.86131 1.56638 0
M  V30 3116 H 300.899 4.59759 1.62705 0
M  V30 3117 H 299.904 5.47482 -0.50435 0
M  V30 3118 H 301.129 6.76881 -0.548539 0
M  V30 3119 H 299.075 6.34764 1.6556 0
M  V30 3120 H 298.992 7.54892 0.40908 0
M  V30 3121 H 300.26 7.62997 1.59549 0
M  V30 3122 N 304.489 0.459591 1.5075 0
M  V30 3123 C 305.421 -0.37665 2.26084 0
M  V30 3124 C 306.434 -0.967109 1.30961 0
M  V30 3125 O 307.623 -0.857468 1.56556 0
M  V30 3126 C 304.723 -1.54112 3.01832 0
M  V30 3127 C 303.896 -1.06553 4.24223 0
M  V30 3128 C 302.955 -2.1027 4.82362 0
M  V30 3129 O 301.981 -1.68798 5.43595 0
M  V30 3130 N 303.183 -3.42974 4.68347 0
M  V30 3131 H 305.948 0.269124 2.98489 0
M  V30 3132 H 303.509 0.28972 1.59287 0
M  V30 3133 H 305.501 -2.23165 3.37608 0
M  V30 3134 H 304.071 -2.0918 2.32298 0
M  V30 3135 H 303.291 -0.201274 3.93686 0
M  V30 3136 H 304.579 -0.725516 5.03601 0
M  V30 3137 H 303.977 -3.79385 4.19623 0
M  V30 3138 H 302.534 -4.07858 5.08424 0
M  V30 3139 N 305.967 -1.56429 0.191757 0
M  V30 3140 C 307.383 -1.58754 -0.164137 0
M  V30 3141 C 307.583 -1.20782 -1.61288 0
M  V30 3142 O 306.639 -0.928999 -2.34789 0
M  V30 3143 C 307.952 -3.00396 0.135195 0
M  V30 3144 C 309.5 -3.1291 0.0750351 0
M  V30 3145 C 309.975 -4.56679 0.347632 0
M  V30 3146 N 311.466 -4.62252 0.296131 0
M  V30 3147 C 312.201 -5.71379 0.480948 0
M  V30 3148 N 311.697 -6.88986 0.725933 0
M  V30 3149 N 313.49 -5.60563 0.415435 0
M  V30 3150 H 305.641 -1.79393 1.13718 0
M  V30 3151 H 307.904 -0.832414 0.453643 0
M  V30 3152 H 307.61 -3.32726 1.13958 0
M  V30 3153 H 307.484 -3.72963 -0.563773 0
M  V30 3154 H 309.871 -2.80394 -0.919948 0
M  V30 3155 H 309.952 -2.42736 0.807029 0
M  V30 3156 H 309.596 -4.89907 1.33992 0
M  V30 3157 H 309.526 -5.25039 -0.405212 0
M  V30 3158 H 312.017 -3.7773 0.113259 0
M  V30 3159 H 312.33 -7.68046 0.855857 0
M  V30 3160 H 310.675 -6.90801 0.762788 0
M  V30 3161 H 313.866 -4.67561 0.224486 0
M  V30 3162 H 314.039 -6.45551 0.562889 0
M  V30 3163 N 307.445 0.0818655 -1.57387 0
M  V30 3164 C 308.355 1.11642 -2.06333 0
M  V30 3165 C 309.371 1.43033 -0.99083 0
M  V30 3166 O 310.547 1.53411 -1.30488 0
M  V30 3167 C 307.612 2.41342 -2.48907 0
M  V30 3168 C 306.673 2.17014 -3.7041 0
M  V30 3169 C 305.906 3.4053 -4.10944 0
M  V30 3170 O 306.129 4.4927 -3.51444 0
M  V30 3171 O 305.063 3.29336 -5.03807 0
M  V30 3172 H 308.889 0.730657 -2.9478 0
M  V30 3173 H 306.474 0.295301 -1.46452 0
M  V30 3174 H 308.356 3.17691 -2.76858 0
M  V30 3175 H 307.031 2.79319 -1.63593 0
M  V30 3176 H 305.938 1.38403 -3.47556 0
M  V30 3177 H 307.271 1.83923 -4.56545 0
M  V30 3178 N 308.923 1.53595 0.353017 0
M  V30 3179 C 310.334 1.61937 0.929153 0
M  V30 3180 C 310.685 0.494686 1.89861 0
M  V30 3181 O 309.81 -0.377017 2.1309 0
M  V30 3182 C 310.405 2.93526 1.69199 0
M  V30 3183 C 308.964 3.04161 2.21727 0
M  V30 3184 C 308.111 2.57322 1.03348 0
M  V30 3185 H 311.062 1.58155 0.131431 0
M  V30 3186 H 311.083 2.82034 2.55416 0
M  V30 3187 H 310.595 3.75362 0.986144 0
M  V30 3188 H 308.696 2.26938 2.95516 0
M  V30 3189 H 308.809 4.09465 2.48748 0
M  V30 3190 H 307.173 2.12499 1.40414 0
M  V30 3191 H 307.956 3.41588 0.342428 0
M  V30 3192 N 310.401 -0.613514 1.45168 0
M  V30 3193 C 311.817 -0.933629 1.29443 0
M  V30 3194 C 312.017 -2.00028 0.243101 0
M  V30 3195 O 311.073 -2.49848 -0.364992 0
M  V30 3196 C 312.386 -1.38018 2.67155 0
M  V30 3197 C 313.934 -1.49471 2.75004 0
M  V30 3198 C 314.409 -1.97503 4.13227 0
M  V30 3199 N 315.9 -2.04746 4.15491 0
M  V30 3200 C 316.635 -2.43121 5.19307 0
M  V30 3201 N 316.131 -2.80506 6.33473 0
M  V30 3202 N 317.924 -2.43408 5.06664 0
M  V30 3203 H 310.075 0.0916097 2.12202 0
M  V30 3204 H 312.338 -0.0216655 0.947752 0
M  V30 3205 H 312.044 -0.670625 3.45247 0
M  V30 3206 H 311.918 -2.34784 2.95222 0
M  V30 3207 H 314.305 -2.19519 1.9722 0
M  V30 3208 H 314.386 -0.510342 2.50657 0
M  V30 3209 H 314.03 -1.28045 4.91495 0
M  V30 3210 H 313.96 -2.96843 4.34962 0
M  V30 3211 H 316.451 -1.78468 3.33103 0
M  V30 3212 H 316.764 -3.08652 7.08487 0
M  V30 3213 H 315.109 -2.78216 6.36884 0
M  V30 3214 H 318.3 -2.13604 4.16523 0
M  V30 3215 H 318.473 -2.72989 5.87691 0
M  V30 3216 N 311.879 -1.3236 -0.855495 0
M  V30 3217 C 312.826 -1.21225 -1.964 0
M  V30 3218 C 313.796 -0.0946204 -1.6583 0
M  V30 3219 O 314.981 -0.27002 -1.8888 0
M  V30 3220 C 312.121 -0.940419 -3.32039 0
M  V30 3221 C 311.234 -2.14276 -3.75113 0
M  V30 3222 C 310.369 -1.80648 -4.9954 0
M  V30 3223 C 309.408 -2.97208 -5.35102 0
M  V30 3224 N 308.545 -2.63678 -6.50706 0
M  V30 3225 H 313.385 -2.16042 -2.05255 0
M  V30 3226 H 310.922 -1.07451 -1.00463 0
M  V30 3227 H 312.88 -0.763311 -4.10158 0
M  V30 3228 H 311.51 -0.0290413 -3.22787 0
M  V30 3229 H 310.562 -2.43017 -2.92655 0
M  V30 3230 H 311.874 -3.01468 -3.97389 0
M  V30 3231 H 311.028 -1.59484 -5.85363 0
M  V30 3232 H 309.767 -0.906678 -4.79198 0
M  V30 3233 H 308.772 -3.19004 -4.47791 0
M  V30 3234 H 309.997 -3.87918 -5.57401 0
M  V30 3235 H 307.943 -1.76238 -6.31883 0
M  V30 3236 H 307.86 -3.444 -6.72997 0
M  V30 3237 H 309.128 -2.45942 -7.39684 0
M  V30 3238 N 313.357 1.07166 -1.15556 0
M  V30 3239 C 314.605 1.79443 -0.929764 0
M  V30 3240 C 314.926 1.87246 0.544414 0
M  V30 3241 O 314.196 1.37473 1.39564 0
M  V30 3242 H 312.776 0.664625 -0.341003 0
M  V30 3243 H 315.438 1.29499 -1.45657 0
M  V30 3244 H 314.534 2.81832 -1.34079 0
M  V30 3245 N 314.835 0.952656 1.25548 0
M  V30 3246 C 316.251 0.656769 1.4546 0
M  V30 3247 C 316.451 -0.78633 1.85524 0
M  V30 3248 O 315.507 -1.56183 1.98402 0
M  V30 3249 C 316.82 1.62801 2.52817 0
M  V30 3250 C 318.368 1.63897 2.66659 0
M  V30 3251 C 318.843 2.5978 3.77198 0
M  V30 3252 N 320.334 2.58133 3.84606 0
M  V30 3253 C 321.069 3.29003 4.69621 0
M  V30 3254 N 320.565 4.09339 5.58939 0
M  V30 3255 N 322.358 3.179 4.63569 0
M  V30 3256 H 314.509 1.88526 0.978344 0
M  V30 3257 H 316.772 0.810815 0.491206 0
M  V30 3258 H 316.478 2.65869 2.30232 0
M  V30 3259 H 316.352 1.38898 3.50695 0
M  V30 3260 H 318.739 0.615481 2.8861 0
M  V30 3261 H 318.82 1.91858 1.69187 0
M  V30 3262 H 318.464 3.62254 3.55997 0
M  V30 3263 H 318.394 2.29105 4.7415 0
M  V30 3264 H 320.885 1.99809 3.20757 0
M  V30 3265 H 321.198 4.6034 6.20731 0
M  V30 3266 H 319.543 4.13438 5.58654 0
M  V30 3267 H 322.734 2.54612 3.92798 0
M  V30 3268 H 322.907 3.73398 5.29602 0
M  V30 3269 N 316.313 -1.40141 0.720998 0
M  V30 3270 C 317.243 -2.33339 0.0867621 0
M  V30 3271 C 318.224 -1.53178 -0.739622 0
M  V30 3272 O 319.409 -1.81625 -0.687449 0
M  V30 3273 C 316.539 -3.37194 -0.831728 0
M  V30 3274 C 315.493 -4.27857 -0.110558 0
M  V30 3275 C 314.819 -5.22294 -1.14513 0
M  V30 3276 C 316.119 -5.11872 1.0385 0
M  V30 3277 H 317.813 -2.86626 0.865219 0
M  V30 3278 H 315.359 -1.37814 0.417516 0
M  V30 3279 H 317.312 -4.01335 -1.28485 0
M  V30 3280 H 316.036 -2.82314 -1.64214 0
M  V30 3281 H 314.695 -3.65176 0.322797 0
M  V30 3282 H 314.343 -4.63717 -1.94874 0
M  V30 3283 H 314.043 -5.83797 -0.667446 0
M  V30 3284 H 315.567 -5.89312 -1.59824 0
M  V30 3285 H 316.981 -5.69436 0.664482 0
M  V30 3286 H 315.378 -5.82445 1.4449 0
M  V30 3287 H 316.448 -4.4753 1.86668 0
M  V30 3288 N 317.792 -0.46758 -1.50504 0
M  V30 3289 C 319.041 0.0902868 -2.01498 0
M  V30 3290 C 319.354 1.411 -1.35463 0
M  V30 3291 O 320.56 2.0536 -1.77594 0
M  V30 3292 C 319.016 0.21142 -3.59278 0
M  V30 3293 C 318.624 -1.10065 -4.34269 0
M  V30 3294 C 320.368 0.721433 -4.18325 0
M  V30 3295 C 318.275 -0.943505 -5.83825 0
M  V30 3296 H 317.205 0.037517 -0.753066 0
M  V30 3297 H 319.856 -0.601943 -1.73346 0
M  V30 3298 H 318.238 0.967352 -3.84003 0
M  V30 3299 H 319.412 -1.86726 -4.21272 0
M  V30 3300 H 317.727 -1.5415 -3.86816 0
M  V30 3301 H 320.324 0.85598 -5.27804 0
M  V30 3302 H 320.667 1.71186 -3.79475 0
M  V30 3303 H 321.2 0.0229843 -3.97793 0
M  V30 3304 H 317.939 -1.90719 -6.27141 0
M  V30 3305 H 317.459 -0.217213 -5.99407 0
M  V30 3306 H 319.138 -0.608715 -6.4413 0
M  V30 3307 N 319.27 1.56325 -0.20005 0
M  V30 3308 C 320.516 1.98012 0.438059 0
M  V30 3309 C 320.849 1.08702 1.60927 0
M  V30 3310 O 320.124 0.140064 1.93995 0
M  V30 3311 C 320.407 3.48841 0.893419 0
M  V30 3312 C 320.26 4.48928 -0.279947 0
M  V30 3313 C 321.579 4.03498 1.75719 0
M  V30 3314 H 318.698 0.719918 0.157757 0
M  V30 3315 H 321.34 1.87743 -0.291968 0
M  V30 3316 H 319.49 3.57723 1.51547 0
M  V30 3317 H 321.162 4.52079 -0.91772 0
M  V30 3318 H 319.405 4.23694 -0.930919 0
M  V30 3319 H 320.076 5.5194 0.0812601 0
M  V30 3320 H 322.552 3.97427 1.23253 0
M  V30 3321 H 321.428 5.09393 2.04476 0
M  V30 3322 H 321.689 3.4906 2.71311 0
M  V30 3323 N 320.748 -0.0735177 1.57428 0
M  V30 3324 C 321.988 -0.778363 1.89 0
M  V30 3325 C 322.352 -1.7483 0.793634 0
M  V30 3326 O 323.553 -2.49811 0.992367 0
M  V30 3327 C 321.824 -1.46929 3.25802 0
M  V30 3328 S 323.383 -2.20943 3.79117 0
M  V30 3329 H 320.201 -0.258874 0.662197 0
M  V30 3330 H 322.803 -0.0345338 1.95469 0
M  V30 3331 H 321.507 -0.749532 4.03497 0
M  V30 3332 H 321.038 -2.25258 3.22525 0
M  V30 3333 H 323.053 -3.47435 3.54265 0
M  V30 3334 N 322.226 -1.5378 -0.344866 0
M  V30 3335 C 323.474 -1.70625 -1.08311 0
M  V30 3336 C 323.795 -0.471447 -1.89215 0
M  V30 3337 O 323.065 0.514616 -1.8902 0
M  V30 3338 H 321.645 -0.629058 -0.402859 0
M  V30 3339 H 324.307 -1.9103 -0.386459 0
M  V30 3340 H 323.403 -2.57656 -1.76124 0
M  V30 3341 N 323.704 0.605807 -1.45491 0
M  V30 3342 C 324.654 1.71074 -1.50724 0
M  V30 3343 C 325.638 1.5658 -0.37033 0
M  V30 3344 O 326.83 1.65887 -0.617299 0
M  V30 3345 C 323.959 3.0983 -1.47852 0
M  V30 3346 C 323.045 3.29704 -2.66751 0
M  V30 3347 N 323.436 3.19831 -3.91844 0
M  V30 3348 C 321.734 3.60579 -2.62486 0
M  V30 3349 C 322.435 3.41083 -4.71208 0
M  V30 3350 N 321.411 3.65157 -4.02693 0
M  V30 3351 H 325.213 1.61937 -2.45263 0
M  V30 3352 H 322.727 0.80912 -1.40808 0
M  V30 3353 H 324.724 3.89101 -1.49686 0
M  V30 3354 H 323.384 3.20115 -0.543714 0
M  V30 3355 H 324.395 2.98194 -4.23439 0
M  V30 3356 H 321.072 3.7769 -1.77922 0
M  V30 3357 H 322.462 3.38828 -5.80211 0
M  V30 3358 N 325.182 1.32811 0.848464 0
M  V30 3359 C 326.43 1.23479 1.59991 0
M  V30 3360 C 326.751 -0.201853 1.93952 0
M  V30 3361 O 326.021 -1.12818 1.60153 0
M  V30 3362 H 324.601 0.454034 0.593179 0
M  V30 3363 H 327.263 1.66412 1.01455 0
M  V30 3364 H 326.359 1.82178 2.53412 0
M  V30 3365 N 326.66 -1.06551 1.16123 0
M  V30 3366 C 327.888 -1.83005 0.965237 0
M  V30 3367 C 328.303 -1.82423 -0.486542 0
M  V30 3368 O 327.66 -1.24152 -1.33763 0
M  V30 3369 C 327.711 -3.29733 1.48183 0
M  V30 3370 O 327.432 -3.30416 2.87674 0
M  V30 3371 C 328.933 -4.22926 1.32848 0
M  V30 3372 H 326.153 -0.577118 0.342309 0
M  V30 3373 H 328.697 -1.3445 1.54089 0
M  V30 3374 H 326.852 -3.75609 0.948517 0
M  V30 3375 H 327.266 -4.22149 3.11272 0
M  V30 3376 H 328.74 -5.23916 1.73827 0
M  V30 3377 H 329.217 -4.38346 0.273692 0
M  V30 3378 H 329.823 -3.82894 1.85127 0
M  V30 3379 N 328.138 -0.959301 -1.25041 0
M  V30 3380 C 329.068 -0.501388 -2.28053 0
M  V30 3381 C 330.049 0.454673 -1.63911 0
M  V30 3382 O 331.234 0.352618 -1.90972 0
M  V30 3383 C 328.364 0.217224 -3.4662 0
M  V30 3384 C 327.318 -0.654034 -4.22973 0
M  V30 3385 C 326.644 0.195589 -5.34342 0
M  V30 3386 C 327.944 -1.93447 -4.85155 0
M  V30 3387 H 329.638 -1.36238 -2.66608 0
M  V30 3388 H 327.184 -0.656534 -1.28163 0
M  V30 3389 H 329.137 0.548732 -4.17812 0
M  V30 3390 H 327.861 1.1125 -3.07068 0
M  V30 3391 H 326.52 -0.968693 -3.5357 0
M  V30 3392 H 326.168 1.09076 -4.91031 0
M  V30 3393 H 325.868 -0.384091 -5.86343 0
M  V30 3394 H 327.392 0.521958 -6.08365 0
M  V30 3395 H 328.806 -1.66908 -5.48466 0
M  V30 3396 H 327.203 -2.46018 -5.47353 0
M  V30 3397 H 328.273 -2.63466 -4.07079 0
M  V30 3398 N 329.616 1.39756 -0.72842 0
M  V30 3399 C 330.526 2.34444 -0.0855374 0
M  V30 3400 C 331.542 1.57976 0.729356 0
M  V30 3401 O 332.718 1.90301 0.659346 0
M  V30 3402 C 329.783 3.36965 0.815798 0
M  V30 3403 C 328.844 4.29299 -0.0105996 0
M  V30 3404 C 328.077 5.26923 0.84781 0
M  V30 3405 O 328.3 5.30859 2.08673 0
M  V30 3406 O 327.234 6.01249 0.279969 0
M  V30 3407 H 331.06 2.91065 -0.866892 0
M  V30 3408 H 328.645 1.4117 -0.48902 0
M  V30 3409 H 330.527 3.99804 1.33171 0
M  V30 3410 H 329.202 2.82739 1.57608 0
M  V30 3411 H 328.109 3.69703 -0.571877 0
M  V30 3412 H 329.442 4.86712 -0.73295 0
M  V30 3413 N 331.094 0.475555 1.50254 0
M  V30 3414 C 332.51 0.12997 1.5907 0
M  V30 3415 C 332.71 -1.36385 1.48328 0
M  V30 3416 O 331.766 -2.13754 1.34407 0
M  V30 3417 C 333.079 0.684139 2.92814 0
M  V30 3418 C 334.627 0.647965 3.0622 0
M  V30 3419 C 335.102 1.17975 4.42545 0
M  V30 3420 N 336.593 1.13936 4.48969 0
M  V30 3421 C 337.328 1.52129 5.52851 0
M  V30 3422 N 336.824 1.97793 6.63965 0
M  V30 3423 N 338.617 1.43704 5.4342 0
M  V30 3424 H 330.768 1.44706 1.55479 0
M  V30 3425 H 333.031 0.598691 0.735033 0
M  V30 3426 H 332.737 1.73079 3.06164 0
M  V30 3427 H 332.611 0.130204 3.76975 0
M  V30 3428 H 334.998 -0.38979 2.92514 0
M  V30 3429 H 335.079 1.23876 2.23805 0
M  V30 3430 H 334.723 2.21616 4.57 0
M  V30 3431 H 334.653 0.565138 5.23559 0
M  V30 3432 H 337.144 0.804488 3.69238 0
M  V30 3433 H 337.457 2.25072 7.39299 0
M  V30 3434 H 335.802 2.01749 6.65073 0
M  V30 3435 H 338.993 1.07867 4.55502 0
M  V30 3436 H 339.166 1.73794 6.24259 0
M  V30 3437 N 332.573 -1.56217 0.208337 0
M  V30 3438 C 333.85 -1.89739 -0.475234 0
M  V30 3439 C 334.23 -1.1238 -1.78701 0
M  V30 3440 O 333.578 -0.228979 -2.2735 0
M  V30 3441 C 333.788 -3.42289 -0.681101 0
M  V30 3442 C 335.136 -4.12789 -0.994507 0
M  V30 3443 O 336.16 -3.47814 -0.768357 0
M  V30 3444 O 335.019 -5.27649 -1.42299 0
M  V30 3445 H 332.113 -0.788478 -0.249461 0
M  V30 3446 H 334.659 -1.67855 0.249538 0
M  V30 3447 H 333.431 -3.90534 0.244722 0
M  V30 3448 H 333.054 -3.69909 -1.45785 0
M  V30 3449 N 334.051 0.0651679 -1.57465 0
M  V30 3450 C 335.299 0.761555 -1.87202 0
M  V30 3451 C 335.62 1.77778 -0.801243 0
M  V30 3452 O 334.89 1.95166 0.16937 0
M  V30 3453 H 333.47 0.284251 -0.690804 0
M  V30 3454 H 336.132 0.0396827 -1.9486 0
M  V30 3455 H 335.228 1.27365 -2.84929 0
M  V30 3456 N 335.529 1.53961 0.336706 0
M  V30 3457 C 336.775 1.7179 1.07777 0
M  V30 3458 C 337.108 0.483263 1.88091 0
M  V30 3459 O 336.383 -0.519747 1.87427 0
M  V30 3460 C 336.666 2.98558 2.01334 0
M  V30 3461 C 336.519 4.32245 1.24437 0
M  V30 3462 C 337.838 3.21023 3.01052 0
M  V30 3463 H 334.957 0.625089 0.390426 0
M  V30 3464 H 337.599 1.86641 0.35567 0
M  V30 3465 H 335.749 2.86028 2.62908 0
M  V30 3466 H 337.421 4.56637 0.654243 0
M  V30 3467 H 335.664 4.30344 0.546458 0
M  V30 3468 H 336.335 5.17137 1.93063 0
M  V30 3469 H 338.811 3.32929 2.49595 0
M  V30 3470 H 337.687 4.11104 3.6371 0
M  V30 3471 H 337.948 2.37637 3.72802 0
M  V30 3472 N 337.007 -0.598083 1.45811 0
M  V30 3473 C 338.254 -1.35681 1.50323 0
M  V30 3474 C 338.582 -1.9393 0.148739 0
M  V30 3475 O 337.837 -1.76094 -0.853787 0
M  V30 3476 C 338.136 -2.51669 2.53766 0
M  V30 3477 C 337.802 -2.11508 3.98215 0
M  V30 3478 C 336.464 -2.0027 4.37545 0
M  V30 3479 C 338.816 -1.80308 4.89018 0
M  V30 3480 C 336.144 -1.56067 5.65562 0
M  V30 3481 C 338.496 -1.37589 6.17456 0
M  V30 3482 C 337.16 -1.24916 6.55708 0
M  V30 3483 H 336.43 -0.496492 0.550069 0
M  V30 3484 H 339.077 -0.675052 1.79207 0
M  V30 3485 H 337.382 -3.25225 2.18486 0
M  V30 3486 H 339.079 -3.09895 2.54492 0
M  V30 3487 H 335.669 -2.21185 3.67117 0
M  V30 3488 H 339.853 -1.87884 4.59362 0
M  V30 3489 H 335.109 -1.44886 5.93985 0
M  V30 3490 H 339.283 -1.12495 6.87254 0
M  V30 3491 H 336.91 -0.904386 7.54801 0
M  V30 3492 N 338.485 -1.33259 -0.841409 0
M  V30 3493 C 339.725 -1.25902 -1.61022 0
M  V30 3494 C 340.089 0.173325 -1.91216 0
M  V30 3495 O 341.29 0.370824 -2.6623 0
M  V30 3496 C 339.561 -2.10735 -2.88662 0
M  V30 3497 S 341.12 -2.20541 -3.79351 0
M  V30 3498 H 337.938 -0.447958 -0.552137 0
M  V30 3499 H 340.54 -1.68263 -0.995382 0
M  V30 3500 H 339.244 -3.1384 -2.64448 0
M  V30 3501 H 338.775 -1.69201 -3.55154 0
M  V30 3502 H 340.79 -1.36462 -4.77067 0
M  V30 3503 N 339.963 1.05934 -1.16686 0
M  V30 3504 C 340.893 2.1546 -0.899949 0
M  V30 3505 C 341.874 1.69391 0.155154 0
M  V30 3506 O 343.059 1.94199 0.00648693 0
M  V30 3507 C 340.189 3.44939 -0.404241 0
M  V30 3508 C 339.143 4.04536 -1.39767 0
M  V30 3509 C 338.469 5.29268 -0.760216 0
M  V30 3510 C 339.769 4.42893 -2.76845 0
M  V30 3511 H 341.463 2.38046 -1.81588 0
M  V30 3512 H 339.009 1.14404 -0.874514 0
M  V30 3513 H 340.962 4.20901 -0.204971 0
M  V30 3514 H 339.686 3.21983 0.547206 0
M  V30 3515 H 338.345 3.30635 -1.58355 0
M  V30 3516 H 337.993 5.02611 0.197831 0
M  V30 3517 H 337.693 5.70101 -1.42332 0
M  V30 3518 H 339.217 6.07924 -0.57105 0
M  V30 3519 H 340.631 5.09921 -2.62019 0
M  V30 3520 H 339.028 4.94721 -3.39663 0
M  V30 3521 H 340.098 3.53584 -3.31823 0
M  V30 3522 N 341.441 0.965919 1.2453 0
M  V30 3523 C 342.371 0.513476 2.27784 0
M  V30 3524 C 343.352 -0.445974 1.6415 0
M  V30 3525 O 344.537 -0.342485 1.91156 0
M  V30 3526 C 341.667 -0.198839 3.4673 0
M  V30 3527 C 340.621 0.676456 4.2262 0
M  V30 3528 C 339.947 -0.167248 5.34438 0
M  V30 3529 C 341.247 1.96017 4.84123 0
M  V30 3530 H 342.941 1.3765 2.65881 0
M  V30 3531 H 340.487 0.663321 1.27813 0
M  V30 3532 H 342.44 -0.526567 4.18097 0
M  V30 3533 H 341.164 -1.0962 3.07654 0
M  V30 3534 H 339.823 0.98743 3.53052 0
M  V30 3535 H 339.471 -1.0647 4.91603 0
M  V30 3536 H 339.171 0.415181 5.86131 0
M  V30 3537 H 340.695 -0.489688 6.08633 0
M  V30 3538 H 342.109 1.69814 5.47573 0
M  V30 3539 H 340.506 2.48918 5.4604 0
M  V30 3540 H 341.576 2.65622 4.05676 0
M  V30 3541 N 342.919 -1.39368 0.735821 0
M  V30 3542 C 344.144 -2.05319 0.293052 0
M  V30 3543 C 344.569 -1.55115 -1.064 0
M  V30 3544 O 343.927 -0.695261 -1.67439 0
M  V30 3545 C 343.975 -3.59305 0.305323 0
M  V30 3546 O 343.079 -4.06299 -0.706761 0
M  V30 3547 H 342.42 -0.650529 0.13307 0
M  V30 3548 H 344.95 -1.78386 1.00197 0
M  V30 3549 H 344.96 -4.07724 0.149997 0
M  V30 3550 H 343.635 -3.95207 1.29553 0
M  V30 3551 H 342.212 -3.69292 -0.517504 0
M  V30 3552 N 344.397 -0.483516 -1.5 0
M  V30 3553 C 345.674 0.129337 -1.95172 0
M  V30 3554 C 346.054 1.55802 -1.4244 0
M  V30 3555 O 345.402 2.19625 -0.630649 0
M  V30 3556 C 345.612 0.0599251 -3.48949 0
M  V30 3557 C 346.96 0.242617 -4.23906 0
M  V30 3558 O 347.984 0.135933 -3.55941 0
M  V30 3559 O 346.843 0.459454 -5.44565 0
M  V30 3560 H 343.937 0.104887 -0.820322 0
M  V30 3561 H 346.483 -0.544807 -1.60717 0
M  V30 3562 H 345.255 -0.937079 -3.79914 0
M  V30 3563 H 344.878 0.774984 -3.89974 0
M  V30 3564 N 345.875 1.56104 -0.216619 0
M  V30 3565 C 347.152 1.89988 0.465165 0
M  V30 3566 C 347.532 1.13326 1.78102 0
M  V30 3567 O 346.88 0.241033 2.27225 0
M  V30 3568 C 347.09 3.42646 0.662939 0
M  V30 3569 C 348.438 4.13311 0.972602 0
M  V30 3570 O 349.462 3.48217 0.749901 0
M  V30 3571 O 348.321 5.28396 1.39499 0
M  V30 3572 H 345.415 0.78979 0.245276 0
M  V30 3573 H 347.961 1.67721 -0.258436 0
M  V30 3574 H 346.733 3.90399 -0.26543 0
M  V30 3575 H 346.356 3.70677 1.43821 0
M  V30 3576 N 347.353 -0.0568162 1.57498 0
M  V30 3577 C 348.303 -1.07315 2.01166 0
M  V30 3578 C 349.287 -1.33632 0.896171 0
M  V30 3579 O 350.479 -1.33682 1.16009 0
M  V30 3580 C 347.608 -2.38257 2.47161 0
M  V30 3581 C 346.694 -2.1515 3.65474 0
M  V30 3582 N 347.085 -1.62014 4.7915 0
M  V30 3583 C 345.383 -2.45559 3.72313 0
M  V30 3584 C 346.084 -1.54069 5.60926 0
M  V30 3585 N 345.06 -2.00652 5.05213 0
M  V30 3586 H 348.862 -0.655878 2.86488 0
M  V30 3587 H 346.376 -0.263635 1.60246 0
M  V30 3588 H 348.373 -3.11845 2.76691 0
M  V30 3589 H 347.033 -2.80687 1.63232 0
M  V30 3590 H 348.044 -1.30667 5.01145 0
M  V30 3591 H 344.721 -2.91253 2.99129 0
M  V30 3592 H 346.111 -1.13712 6.62208 0
M  V30 3593 N 348.832 -1.54138 -0.328536 0
M  V30 3594 C 350.08 -1.71765 -1.06496 0
M  V30 3595 C 350.401 -0.49149 -1.88704 0
M  V30 3596 O 349.671 0.494539 -1.89555 0
M  V30 3597 H 348.251 -0.633295 -0.396164 0
M  V30 3598 H 350.913 -1.91429 -0.366176 0
M  V30 3599 H 350.009 -2.5951 -1.73381 0
M  V30 3600 N 350.31 0.590341 -1.46126 0
M  V30 3601 C 351.273 1.68194 -1.55703 0
M  V30 3602 C 352.273 1.54808 -0.434868 0
M  V30 3603 O 353.463 1.59564 -0.698928 0
M  V30 3604 C 350.595 3.07575 -1.47005 0
M  V30 3605 H 351.788 1.61064 -2.52979 0
M  V30 3606 H 349.341 0.807541 -1.33823 0
M  V30 3607 H 350.076 3.20268 -0.509785 0
M  V30 3608 H 349.861 3.187 -2.28414 0
M  V30 3609 H 351.351 3.87055 -1.56776 0
M  V30 3610 N 351.788 1.33704 0.83433 0
M  V30 3611 C 353.013 1.28615 1.62705 0
M  V30 3612 C 353.438 -0.139242 1.87584 0
M  V30 3613 O 352.796 -1.09734 1.4432 0
M  V30 3614 C 352.844 2.07139 2.95171 0
M  V30 3615 O 351.948 1.4331 3.86699 0
M  V30 3616 H 351.289 0.44226 0.49528 0
M  V30 3617 H 353.819 1.76335 1.03766 0
M  V30 3618 H 353.829 2.18073 3.44831 0
M  V30 3619 H 352.504 3.10779 2.76386 0
M  V30 3620 H 351.081 1.4105 3.45195 0
M  V30 3621 N 353.266 -1.05314 1.17247 0
M  V30 3622 C 354.512 -1.78699 0.971513 0
M  V30 3623 C 354.867 -1.85932 -0.494692 0
M  V30 3624 O 354.16 -1.34716 -1.36243 0
M  V30 3625 C 354.354 -3.2229 1.54479 0
M  V30 3626 C 354.183 -3.29052 3.06521 0
M  V30 3627 C 352.953 -3.3841 3.75242 0
M  V30 3628 C 355.151 -3.18095 4.04129 0
M  V30 3629 N 353.133 -3.34289 5.14902 0
M  V30 3630 C 354.504 -3.21331 5.30232 0
M  V30 3631 C 356.559 -3.02049 3.95817 0
M  V30 3632 C 355.262 -3.10169 6.4899 0
M  V30 3633 C 357.288 -2.92228 5.14156 0
M  V30 3634 C 356.65 -2.96096 6.39145 0
M  V30 3635 H 352.749 -0.66628 0.409383 0
M  V30 3636 H 355.333 -1.25553 1.4881 0
M  V30 3637 H 353.504 -3.7381 1.05455 0
M  V30 3638 H 355.236 -3.83905 1.28059 0
M  V30 3639 H 351.991 -3.43621 3.25917 0
M  V30 3640 H 352.415 -3.35702 5.87906 0
M  V30 3641 H 357.057 -2.97897 3.00029 0
M  V30 3642 H 354.775 -3.13076 7.44989 0
M  V30 3643 H 358.361 -2.80885 5.09505 0
M  V30 3644 H 357.241 -2.88568 7.29176 0
M  V30 3645 N 354.744 -0.972509 -1.24016 0
M  V30 3646 C 356.16 -0.679827 -1.44397 0
M  V30 3647 C 356.36 0.756716 -1.86751 0
M  V30 3648 O 355.416 1.53007 -2.00861 0
M  V30 3649 C 356.729 -1.66803 -2.50195 0
M  V30 3650 C 358.277 -1.68119 -2.64017 0
M  V30 3651 C 358.752 -2.65748 -3.73017 0
M  V30 3652 N 360.243 -2.64219 -3.8045 0
M  V30 3653 C 360.978 -3.36433 -4.64328 0
M  V30 3654 N 360.474 -4.1818 -5.52356 0
M  V30 3655 N 362.267 -3.25235 -4.58453 0
M  V30 3656 H 354.418 -1.90059 -0.948228 0
M  V30 3657 H 356.681 -0.818527 -0.478245 0
M  V30 3658 H 356.387 -2.69498 -2.25973 0
M  V30 3659 H 356.261 -1.4446 -3.48441 0
M  V30 3660 H 358.648 -0.661319 -2.87594 0
M  V30 3661 H 358.729 -1.94525 -1.66113 0
M  V30 3662 H 358.373 -3.67872 -3.50189 0
M  V30 3663 H 358.303 -2.36619 -4.70446 0
M  V30 3664 H 360.794 -2.04887 -3.17537 0
M  V30 3665 H 361.107 -4.70157 -6.13329 0
M  V30 3666 H 359.452 -4.22273 -5.52006 0
M  V30 3667 H 362.643 -2.60829 -3.88698 0
M  V30 3668 H 362.816 -3.81776 -5.23594 0
M  V30 3669 N 356.222 1.38976 -0.743202 0
M  V30 3670 C 357.452 2.04339 -0.304807 0
M  V30 3671 C 357.86 1.56162 1.06819 0
M  V30 3672 O 357.203 0.725284 1.68776 0
M  V30 3673 C 357.265 3.58716 -0.237369 0
M  V30 3674 C 356.929 4.29905 -1.55018 0
M  V30 3675 C 357.926 4.55987 -2.49744 0
M  V30 3676 C 355.611 4.68294 -1.81675 0
M  V30 3677 C 357.605 5.19478 -3.69353 0
M  V30 3678 C 355.292 5.31512 -3.0156 0
M  V30 3679 C 356.29 5.57037 -3.9522 0
M  V30 3680 O 355.978 6.18941 -5.12998 0
M  V30 3681 H 355.71 0.663439 -0.12971 0
M  V30 3682 H 358.264 1.78852 -1.01001 0
M  V30 3683 H 356.494 3.83133 0.524003 0
M  V30 3684 H 358.183 4.05543 0.170121 0
M  V30 3685 H 358.949 4.26767 -2.30423 0
M  V30 3686 H 354.828 4.47779 -1.09615 0
M  V30 3687 H 358.372 5.39318 -4.42473 0
M  V30 3688 H 354.269 5.60153 -3.20778 0
M  V30 3689 H 355.037 6.37433 -5.13441 0
M  V30 3690 N 357.7 0.491464 1.49741 0
M  V30 3691 C 358.948 -0.0563141 2.02022 0
M  V30 3692 C 359.269 -1.38363 1.37407 0
M  V30 3693 O 358.539 -1.88702 0.526166 0
M  V30 3694 H 357.119 -0.0238014 0.746621 0
M  V30 3695 H 359.781 0.646533 1.83864 0
M  V30 3696 H 358.877 -0.192967 3.11503 0
M  V30 3697 N 359.178 -1.55987 0.224894 0
M  V30 3698 C 360.403 -2.03232 -0.41369 0
M  V30 3699 C 360.828 -1.10359 -1.52323 0
M  V30 3700 O 360.186 -0.092395 -1.81064 0
M  V30 3701 C 360.234 -3.48682 -0.919405 0
M  V30 3702 O 359.338 -3.58947 -2.03054 0
M  V30 3703 H 358.679 -0.657428 -0.0931903 0
M  V30 3704 H 361.209 -2.01679 0.34451 0
M  V30 3705 H 361.219 -3.8907 -1.22835 0
M  V30 3706 H 359.894 -4.15761 -0.107339 0
M  V30 3707 H 358.471 -3.30448 -1.72796 0
M  V30 3708 N 360.656 0.0484629 -1.57525 0
M  V30 3709 C 361.904 0.741657 -1.88 0
M  V30 3710 C 362.225 1.76918 -0.820054 0
M  V30 3711 O 361.495 1.95335 0.148661 0
M  V30 3712 H 360.075 0.276908 -0.69378 0
M  V30 3713 H 362.737 0.019013 -1.94891 0
M  V30 3714 H 361.833 1.24336 -2.86264 0
M  V30 3715 N 362.134 1.5431 0.320358 0
M  V30 3716 C 363.38 1.72924 1.05949 0
M  V30 3717 C 363.713 0.503185 1.87568 0
M  V30 3718 O 362.988 -0.499839 1.87968 0
M  V30 3719 C 363.271 3.00676 1.98156 0
M  V30 3720 C 363.124 4.3354 1.19845 0
M  V30 3721 C 364.443 3.24198 2.9763 0
M  V30 3722 H 361.562 0.629195 0.383774 0
M  V30 3723 H 364.204 1.87008 0.335854 0
M  V30 3724 H 362.354 2.888 2.59859 0
M  V30 3725 H 364.026 4.57305 0.605773 0
M  V30 3726 H 362.269 4.309 0.500784 0
M  V30 3727 H 362.94 5.19156 1.87567 0
M  V30 3728 H 365.416 3.35557 2.4605 0
M  V30 3729 H 364.292 4.14938 3.59329 0
M  V30 3730 H 364.553 2.41577 3.7026 0
M  V30 3731 N 363.613 -0.582584 1.46437 0
M  V30 3732 C 364.838 -1.37168 1.55563 0
M  V30 3733 C 365.263 -1.87061 0.19743 0
M  V30 3734 O 364.621 -1.61572 -0.822451 0
M  V30 3735 C 364.669 -2.53511 2.56446 0
M  V30 3736 O 363.773 -3.54953 2.09958 0
M  V30 3737 H 363.114 -0.408494 0.523477 0
M  V30 3738 H 365.644 -0.706646 1.9201 0
M  V30 3739 H 365.654 -3.00426 2.76058 0
M  V30 3740 H 364.329 -2.16549 3.55076 0
M  V30 3741 H 362.906 -3.14516 2.00334 0
M  V30 3742 N 365.091 -1.34144 -0.827227 0
M  V30 3743 C 366.339 -1.26009 -1.58007 0
M  V30 3744 C 366.66 0.170971 -1.94249 0
M  V30 3745 O 365.93 1.10256 -1.61927 0
M  V30 3746 H 364.51 -0.463414 -0.585881 0
M  V30 3747 H 367.172 -1.68005 -0.987951 0
M  V30 3748 H 366.268 -1.86187 -2.50481 0
M  V30 3749 N 366.569 1.04691 -1.17803 0
M  V30 3750 C 367.818 1.77176 -0.963931 0
M  V30 3751 C 368.131 1.88888 0.508015 0
M  V30 3752 O 369.337 2.58164 0.840465 0
M  V30 3753 C 367.793 3.18518 -1.67555 0
M  V30 3754 C 367.401 3.14919 -3.18637 0
M  V30 3755 C 369.145 3.95424 -1.54402 0
M  V30 3756 C 367.052 4.51081 -3.82466 0
M  V30 3757 H 365.982 0.664116 -0.357023 0
M  V30 3758 H 368.633 1.17303 -1.4111 0
M  V30 3759 H 367.015 3.78748 -1.15613 0
M  V30 3760 H 368.189 2.64178 -3.77554 0
M  V30 3761 H 366.504 2.51512 -3.31859 0
M  V30 3762 H 369.101 4.96106 -1.99456 0
M  V30 3763 H 369.444 4.13343 -0.495329 0
M  V30 3764 H 369.977 3.41754 -2.0359 0
M  V30 3765 H 366.716 4.38368 -4.87354 0
M  V30 3766 H 366.236 5.01951 -3.28337 0
M  V30 3767 H 367.915 5.2001 -3.84965 0
M  V30 3768 N 368.047 0.979072 1.23499 0
M  V30 3769 C 369.458 0.684391 1.73704 0
M  V30 3770 C 369.809 -0.799448 1.79174 0
M  V30 3771 O 368.934 -1.62531 1.42873 0
M  V30 3772 C 369.529 1.23564 3.15464 0
M  V30 3773 C 368.088 0.99063 3.6313 0
M  V30 3774 C 367.235 1.36416 2.41425 0
M  V30 3775 H 370.186 1.15307 1.09041 0
M  V30 3776 H 370.207 0.607417 3.7562 0
M  V30 3777 H 369.719 2.31561 3.1145 0
M  V30 3778 H 367.82 -0.0733136 3.72528 0
M  V30 3779 H 367.933 1.64427 4.5 0
M  V30 3780 H 366.297 0.782616 2.42378 0
M  V30 3781 H 367.08 2.45387 2.40083 0
M  V30 3782 N 369.525 -1.3858 0.750561 0
M  V30 3783 C 370.755 -2.04175 0.31564 0
M  V30 3784 C 371.163 -1.56726 -1.05989 0
M  V30 3785 O 370.506 -0.734225 -1.68389 0
M  V30 3786 C 370.568 -3.58585 0.256389 0
M  V30 3787 C 370.232 -4.29077 1.57296 0
M  V30 3788 C 371.229 -4.54656 2.52159 0
M  V30 3789 C 368.914 -4.67324 1.84156 0
M  V30 3790 C 370.908 -5.17512 3.72103 0
M  V30 3791 C 368.595 -5.29905 3.04374 0
M  V30 3792 C 369.593 -5.54933 3.98168 0
M  V30 3793 O 369.281 -6.16212 5.16273 0
M  V30 3794 H 369.013 -0.662742 0.133226 0
M  V30 3795 H 371.567 -1.78313 1.01948 0
M  V30 3796 H 369.797 -3.83406 -0.503677 0
M  V30 3797 H 371.486 -4.05628 -0.148612 0
M  V30 3798 H 372.252 -4.25539 2.32683 0
M  V30 3799 H 368.131 -4.47191 1.11988 0
M  V30 3800 H 371.675 -5.36963 4.45327 0
M  V30 3801 H 367.572 -5.58444 3.23745 0
M  V30 3802 H 368.34 -6.34701 5.16815 0
M  V30 3803 N 371.003 -0.499398 -1.49478 0
M  V30 3804 C 372.251 0.0455996 -2.02049 0
M  V30 3805 C 372.572 1.37633 -1.38138 0
M  V30 3806 O 371.842 1.8842 -0.536166 0
M  V30 3807 H 370.422 0.0198416 -0.746736 0
M  V30 3808 H 373.084 -0.656274 -1.83519 0
M  V30 3809 H 372.18 0.176445 -3.11601 0
M  V30 3810 N 372.481 1.55866 -0.233164 0
M  V30 3811 C 373.413 2.18099 0.704668 0
M  V30 3812 C 374.426 1.15334 1.14899 0
M  V30 3813 O 375.615 1.42262 1.07814 0
M  V30 3814 C 372.715 2.7592 1.96777 0
M  V30 3815 C 371.888 4.03969 1.67713 0
M  V30 3816 C 370.947 4.46242 2.78845 0
M  V30 3817 O 369.973 5.12903 2.46818 0
M  V30 3818 N 371.175 4.12886 4.08051 0
M  V30 3819 H 373.94 2.99205 0.172258 0
M  V30 3820 H 371.501 1.61815 -0.0525945 0
M  V30 3821 H 373.493 3.01165 2.70337 0
M  V30 3822 H 372.063 1.99051 2.41034 0
M  V30 3823 H 371.283 3.86459 0.777391 0
M  V30 3824 H 372.571 4.8748 1.4574 0
M  V30 3825 H 371.969 3.59342 4.3691 0
M  V30 3826 H 370.526 4.42997 4.78118 0
M  V30 3827 N 373.959 -0.0401083 1.57549 0
M  V30 3828 C 375.37 -0.588097 1.77196 0
M  V30 3829 C 375.721 -1.76209 0.862832 0
M  V30 3830 O 374.846 -2.16331 0.0548389 0
M  V30 3831 C 375.441 -1.07363 3.21339 0
M  V30 3832 C 374 -1.56723 3.42221 0
M  V30 3833 C 373.147 -0.50041 2.72747 0
M  V30 3834 H 376.098 0.186119 1.57605 0
M  V30 3835 H 376.119 -1.94143 3.27244 0
M  V30 3836 H 375.631 -0.218975 3.87482 0
M  V30 3837 H 373.732 -2.4441 2.81237 0
M  V30 3838 H 373.845 -1.62234 4.50796 0
M  V30 3839 H 372.209 -0.952894 2.36203 0
M  V30 3840 H 372.992 0.344599 3.41566 0
M  V30 3841 N 375.437 -1.54477 -0.31217 0
M  V30 3842 C 376.384 -1.84655 -1.38461 0
M  V30 3843 C 377.354 -0.694536 -1.50882 0
M  V30 3844 O 378.539 -0.942081 -1.6592 0
M  V30 3845 C 375.679 -2.0896 -2.74645 0
M  V30 3846 C 374.792 -3.36618 -2.70763 0
M  V30 3847 C 373.927 -3.50824 -3.98868 0
M  V30 3848 C 372.966 -4.72315 -3.89339 0
M  V30 3849 N 372.103 -4.83387 -5.09197 0
M  V30 3850 H 376.943 -2.76142 -1.12026 0
M  V30 3851 H 374.48 -1.36748 -0.542065 0
M  V30 3852 H 376.438 -2.21045 -3.53829 0
M  V30 3853 H 375.068 -1.20752 -2.99364 0
M  V30 3854 H 374.12 -3.33211 -1.83506 0
M  V30 3855 H 375.432 -4.25917 -2.59608 0
M  V30 3856 H 374.586 -3.62513 -4.86486 0
M  V30 3857 H 373.325 -2.59638 -4.12843 0
M  V30 3858 H 372.33 -4.6067 -3.00105 0
M  V30 3859 H 373.555 -5.64897 -3.76919 0
M  V30 3860 H 371.501 -3.9512 -5.23657 0
M  V30 3861 H 371.418 -5.66669 -5.00422 0
M  V30 3862 H 372.686 -4.9942 -5.98498 0
M  V30 3863 N 376.915 0.57481 -1.46744 0
M  V30 3864 C 377.847 1.69804 -1.53946 0
M  V30 3865 C 378.86 1.57098 -0.427106 0
M  V30 3866 O 380.049 1.64378 -0.695863 0
M  V30 3867 C 377.149 3.08125 -1.4111 0
M  V30 3868 C 376.322 3.46757 -2.66605 0
M  V30 3869 C 375.381 4.6417 -2.47855 0
M  V30 3870 O 374.407 4.69634 -3.21609 0
M  V30 3871 N 375.609 5.59553 -1.54534 0
M  V30 3872 H 378.374 1.64077 -2.50796 0
M  V30 3873 H 375.935 0.761 -1.429 0
M  V30 3874 H 377.927 3.84478 -1.26328 0
M  V30 3875 H 376.497 3.08175 -0.524109 0
M  V30 3876 H 375.717 2.6003 -2.96274 0
M  V30 3877 H 377.005 3.69337 -3.49954 0
M  V30 3878 H 376.403 5.57881 -0.937304 0
M  V30 3879 H 374.96 6.35304 -1.45711 0
M  V30 3880 N 378.394 1.34581 0.820102 0
M  V30 3881 C 379.304 1.28471 1.96297 0
M  V30 3882 C 380.32 0.191902 1.72939 0
M  V30 3883 O 381.496 0.418879 1.96996 0
M  V30 3884 C 378.561 1.04281 3.30645 0
M  V30 3885 C 377.622 2.22745 3.66992 0
M  V30 3886 C 376.855 1.997 4.9493 0
M  V30 3887 O 377.078 0.956656 5.6232 0
M  V30 3888 O 376.012 2.86723 5.2922 0
M  V30 3889 H 379.838 2.24624 2.04396 0
M  V30 3890 H 377.423 1.14816 0.955913 0
M  V30 3891 H 379.305 0.925841 4.11104 0
M  V30 3892 H 377.98 0.111697 3.23507 0
M  V30 3893 H 376.887 2.40003 2.86966 0
M  V30 3894 H 378.22 3.14257 3.78819 0
M  V30 3895 N 379.872 -1.04064 1.18357 0
M  V30 3896 C 380.82 -2.14187 0.907007 0
M  V30 3897 C 381.814 -1.68879 -0.132725 0
M  V30 3898 O 383.02 -1.79993 0.0154248 0
M  V30 3899 H 379.395 -0.699585 0.275835 0
M  V30 3900 H 381.366 -2.34711 1.84264 0
M  V30 3901 C 380.115 -3.44785 0.449254 0
M  V30 3902 H 379.438 -3.80058 1.24081 0
M  V30 3903 H 380.878 -4.22974 0.294737 0
M  V30 3904 C 379.337 -3.26391 -0.834909 0
M  V30 3905 O 379.867 -3.53973 -1.89911 0
M  V30 3906 N 378.073 -2.79726 -0.787523 0
M  V30 3907 H 377.62 -2.5748 0.0787347 0
M  V30 3908 H 377.578 -2.67798 -1.64716 0
M  V30 3909 N 381.35 -0.985608 -1.22978 0
M  V30 3910 C 382.627 -0.573599 -1.87001 0
M  V30 3911 C 383.007 0.949213 -1.88555 0
M  V30 3912 O 382.355 1.82811 -1.37086 0
M  V30 3913 C 382.565 -1.18564 -3.28243 0
M  V30 3914 C 383.913 -1.28163 -4.04796 0
M  V30 3915 O 384.937 -1.13949 -3.37482 0
M  V30 3916 O 383.796 -1.50832 -5.25273 0
M  V30 3917 H 380.89 -0.193868 -0.803955 0
M  V30 3918 H 383.436 -1.08102 -1.30813 0
M  V30 3919 H 382.208 -2.22758 -3.21706 0
M  V30 3920 H 381.831 -0.663363 -3.92027 0
M  V30 3921 N 382.828 1.3818 -0.7579 0
M  V30 3922 C 384.075 2.00019 -0.315985 0
M  V30 3923 C 384.403 1.60163 1.10355 0
M  V30 3924 O 383.658 0.83264 1.77103 0
M  V30 3925 C 383.957 3.55252 -0.391218 0
M  V30 3926 C 383.623 4.14834 -1.76702 0
M  V30 3927 C 382.285 4.30821 -2.14353 0
M  V30 3928 C 384.637 4.47658 -2.66931 0
M  V30 3929 C 381.965 4.76928 -3.41696 0
M  V30 3930 C 384.317 4.95184 -3.93669 0
M  V30 3931 C 382.981 5.09377 -4.31383 0
M  V30 3932 H 382.251 0.731923 -0.115627 0
M  V30 3933 H 384.898 1.65161 -0.969223 0
M  V30 3934 H 383.203 3.90273 0.34558 0
M  V30 3935 H 384.9 4.00988 -0.030805 0
M  V30 3936 H 381.49 4.02808 -1.46435 0
M  V30 3937 H 385.674 4.34904 -2.39106 0
M  V30 3938 H 380.93 4.86103 -3.70829 0
M  V30 3939 H 385.104 5.19551 -4.63724 0
M  V30 3940 H 382.731 5.44865 -5.30119 0
M  V30 3941 N 384.306 0.507319 1.49211 0
M  V30 3942 C 385.254 -0.281364 2.30892 0
M  V30 3943 C 386.248 -0.95687 1.39787 0
M  V30 3944 O 387.454 -0.883838 1.56807 0
M  V30 3945 H 383.829 -0.109597 0.743971 0
M  V30 3946 H 385.8 0.42744 2.95323 0
M  V30 3947 C 384.549 -1.32918 3.21291 0
M  V30 3948 H 383.872 -0.818799 3.91326 0
M  V30 3949 H 385.312 -1.85288 3.81372 0
M  V30 3950 C 383.771 -2.35074 2.41333 0
M  V30 3951 O 384.301 -3.4108 2.12197 0
M  V30 3952 N 382.507 -2.07705 2.03241 0
M  V30 3953 H 382.054 -1.2152 2.27136 0
M  V30 3954 H 382.012 -2.76283 1.50051 0
M  V30 3955 N 385.784 -1.5574 0.241426 0
M  V30 3956 C 387.195 -1.84842 -0.262755 0
M  V30 3957 C 387.546 -1.16317 -1.58003 0
M  V30 3958 O 386.671 -0.439653 -2.11887 0
M  V30 3959 C 387.266 -3.35332 -0.483523 0
M  V30 3960 C 385.825 -3.6468 -0.931977 0
M  V30 3961 C 384.972 -2.77299 -0.0061151 0
M  V30 3962 H 387.923 -1.51761 0.464129 0
M  V30 3963 H 387.944 -3.56615 -1.32688 0
M  V30 3964 H 387.456 -3.85178 0.47537 0
M  V30 3965 H 385.557 -3.20307 -1.90353 0
M  V30 3966 H 385.67 -4.72498 -0.792628 0
M  V30 3967 H 384.034 -2.49408 -0.516503 0
M  V30 3968 H 384.817 -3.2995 0.948052 0
M  V30 3969 N 387.262 0.0317525 -1.57568 0
M  V30 3970 C 388.539 0.758366 -1.803 0
M  V30 3971 C 388.919 1.93718 -0.838845 0
M  V30 3972 O 388.267 2.28187 0.119571 0
M  V30 3973 C 388.477 1.19392 -3.27943 0
M  V30 3974 C 389.825 1.61094 -3.92854 0
M  V30 3975 O 390.849 1.28857 -3.32076 0
M  V30 3976 O 389.708 2.20918 -4.99858 0
M  V30 3977 H 386.802 0.366514 -0.741348 0
M  V30 3978 H 389.348 0.00873765 -1.69698 0
M  V30 3979 H 388.12 0.352275 -3.89711 0
M  V30 3980 H 387.743 2.00365 -3.43424 0
M  V30 3981 N 388.74 1.54641 0.303973 0
M  V30 3982 C 389.65 1.88439 1.39743 0
M  V30 3983 C 390.666 0.778239 1.55626 0
M  V30 3984 O 391.842 1.07442 1.70347 0
M  V30 3985 C 388.907 2.12212 2.74166 0
M  V30 3986 C 387.968 3.35936 2.67293 0
M  V30 3987 C 387.201 3.58566 3.95305 0
M  V30 3988 O 387.424 2.84263 4.9452 0
M  V30 3989 O 386.358 4.52078 3.97378 0
M  V30 3990 H 390.184 2.81458 1.14083 0
M  V30 3991 H 387.769 1.40793 0.499768 0
M  V30 3992 H 389.651 2.29067 3.53704 0
M  V30 3993 H 388.326 1.22379 2.99675 0
M  V30 3994 H 387.233 3.24448 1.86237 0
M  V30 3995 H 388.566 4.2589 2.46736 0
M  V30 3996 N 390.218 -0.567019 1.47046 0
M  V30 3997 C 391.458 -1.3355 1.54738 0
M  V30 3998 C 391.822 -1.90947 0.200772 0
M  V30 3999 O 393.023 -2.68367 0.152489 0
M  V30 4000 C 391.294 -2.42317 2.62712 0
M  V30 4001 S 392.853 -3.29383 2.89918 0
M  V30 4002 H 389.671 -0.454788 0.546525 0
M  V30 4003 H 392.273 -0.650191 1.84371 0
M  V30 4004 H 390.977 -1.98568 3.59164 0
M  V30 4005 H 390.508 -3.15601 2.34861 0
M  V30 4006 H 392.523 -4.41548 2.26384 0
M  V30 4007 N 391.696 -1.35014 -0.812953 0
M  V30 4008 C 392.628 -1.23262 -1.93233 0
M  V30 4009 C 393.641 -0.157371 -1.62038 0
M  V30 4010 O 394.83 -0.410096 -1.73725 0
M  V30 4011 C 391.93 -0.87392 -3.27438 0
M  V30 4012 C 391.103 -2.04622 -3.86586 0
M  V30 4013 C 390.162 -1.66432 -4.99186 0
M  V30 4014 O 389.188 -2.38222 -5.16951 0
M  V30 4015 N 390.39 -0.584248 -5.77552 0
M  V30 4016 H 393.155 -2.19699 -2.03844 0
M  V30 4017 H 390.716 -1.281 -0.99005 0
M  V30 4018 H 392.708 -0.600039 -4.00227 0
M  V30 4019 H 391.278 0.00057392 -3.126 0
M  V30 4020 H 390.498 -2.48427 -3.06068 0
M  V30 4021 H 391.786 -2.82999 -4.22835 0
M  V30 4022 H 391.184 0.0123526 -5.65699 0
M  V30 4023 H 389.741 -0.37013 -6.50748 0
M  V30 4024 N 393.175 1.03435 -1.18907 0
M  V30 4025 C 394.586 1.58195 -0.991523 0
M  V30 4026 C 394.937 1.90801 0.457081 0
M  V30 4027 O 394.062 1.70272 1.33553 0
M  V30 4028 C 394.657 2.87432 -1.79355 0
M  V30 4029 C 393.216 3.38785 -1.64017 0
M  V30 4030 C 392.363 2.12292 -1.78402 0
M  V30 4031 H 395.314 0.860299 -1.33359 0
M  V30 4032 H 395.335 3.58096 -1.28638 0
M  V30 4033 H 394.847 2.63669 -2.84781 0
M  V30 4034 H 392.948 3.67547 -0.611536 0
M  V30 4035 H 393.061 4.12186 -2.44212 0
M  V30 4036 H 391.425 2.23901 -1.2141 0
M  V30 4037 H 392.208 1.90977 -2.85277 0
M  V30 4038 N 394.653 0.992116 1.22453 0
M  V30 4039 C 395.883 0.684949 1.94915 0
M  V30 4040 C 396.291 -0.754292 1.73514 0
M  V30 4041 O 395.634 -1.52056 1.03076 0
M  V30 4042 C 395.696 0.910054 3.47791 0
M  V30 4043 C 395.36 2.33363 3.92926 0
M  V30 4044 C 396.357 3.31308 4.00663 0
M  V30 4045 C 394.042 2.66785 4.25595 0
M  V30 4046 C 396.036 4.6075 4.40441 0
M  V30 4047 C 393.723 3.96446 4.65053 0
M  V30 4048 C 394.721 4.9324 4.72444 0
M  V30 4049 O 394.409 6.20584 5.1101 0
M  V30 4050 H 394.141 0.25258 0.62704 0
M  V30 4051 H 396.695 1.32939 1.56577 0
M  V30 4052 H 394.925 0.208443 3.86138 0
M  V30 4053 H 396.614 0.598257 4.01467 0
M  V30 4054 H 397.38 3.0682 3.75615 0
M  V30 4055 H 393.259 1.92148 4.19047 0
M  V30 4056 H 396.803 5.363 4.46126 0
M  V30 4057 H 392.7 4.20724 4.89552 0
M  V30 4058 H 393.468 6.24509 5.29085 0
M  V30 4059 N 396.131 -1.37776 0.765217 0
M  V30 4060 C 397.041 -2.34135 0.147666 0
M  V30 4061 C 398.057 -1.59854 -0.687215 0
M  V30 4062 O 399.233 -1.91983 -0.608659 0
M  V30 4063 C 396.298 -3.3901 -0.72617 0
M  V30 4064 C 395.359 -4.2912 0.124417 0
M  V30 4065 C 394.592 -5.28986 -0.707807 0
M  V30 4066 O 394.815 -5.36205 -1.94525 0
M  V30 4067 O 393.749 -6.01779 -0.12046 0
M  V30 4068 H 397.575 -2.88664 0.943758 0
M  V30 4069 H 395.16 -1.39824 0.526277 0
M  V30 4070 H 397.042 -4.03195 -1.22524 0
M  V30 4071 H 395.717 -2.86819 -1.50056 0
M  V30 4072 H 394.624 -3.68057 0.669696 0
M  V30 4073 H 395.957 -4.84598 0.861736 0
M  V30 4074 N 397.609 -0.515225 -1.4894 0
M  V30 4075 C 398.539 0.244628 -2.32215 0
M  V30 4076 C 399.52 0.949136 -1.41157 0
M  V30 4077 O 400.705 0.937783 -1.70057 0
M  V30 4078 C 397.835 1.30096 -3.22013 0
M  V30 4079 C 396.789 0.715486 -4.21977 0
M  V30 4080 C 396.115 1.87339 -5.00808 0
M  V30 4081 C 397.415 -0.302982 -5.2142 0
M  V30 4082 H 399.109 -0.450501 -2.95991 0
M  V30 4083 H 396.655 -0.218098 -1.42339 0
M  V30 4084 H 398.608 1.84037 -3.79089 0
M  V30 4085 H 397.332 2.02547 -2.56207 0
M  V30 4086 H 395.991 0.197715 -3.66066 0
M  V30 4087 H 395.639 2.58592 -4.31438 0
M  V30 4088 H 395.339 1.48764 -5.68457 0
M  V30 4089 H 396.863 2.41686 -5.60732 0
M  V30 4090 H 398.277 0.148802 -5.73107 0
M  V30 4091 H 396.674 -0.60532 -5.97039 0
M  V30 4092 H 397.744 -1.21395 -4.69459 0
M  V30 4093 N 399.087 1.5561 -0.249682 0
M  V30 4094 C 400.498 1.84979 0.252949 0
M  V30 4095 C 400.849 1.17153 1.57384 0
M  V30 4096 O 399.974 0.450884 2.11651 0
M  V30 4097 C 400.569 3.35584 0.465732 0
M  V30 4098 C 399.128 3.65169 0.912624 0
M  V30 4099 C 398.275 2.77299 -0.00859085 0
M  V30 4100 H 401.226 1.51513 -0.47217 0
M  V30 4101 H 401.247 3.57313 1.30795 0
M  V30 4102 H 400.759 3.8492 -0.49579 0
M  V30 4103 H 398.86 3.21312 1.88652 0
M  V30 4104 H 398.973 4.72912 0.767559 0
M  V30 4105 H 397.337 2.49678 0.50327 0
M  V30 4106 H 398.12 3.29442 -0.965537 0
M  V30 4107 N 400.565 -0.0233959 1.57583 0
M  V30 4108 C 401.842 -0.748794 1.807 0
M  V30 4109 C 402.222 -1.9327 0.849106 0
M  V30 4110 O 401.57 -2.28247 -0.107468 0
M  V30 4111 C 401.78 -1.17651 3.28571 0
M  V30 4112 C 403.128 -1.59008 3.93702 0
M  V30 4113 O 404.152 -1.27094 3.32755 0
M  V30 4114 O 403.011 -2.18264 5.01022 0
M  V30 4115 H 400.105 -0.362578 0.743281 0
M  V30 4116 H 402.651 0.000261958 1.697 0
M  V30 4117 H 401.423 -0.331603 3.89892 0
M  V30 4118 H 401.046 -1.98541 3.44481 0
M  V30 4119 N 402.043 -1.548 -0.295768 0
M  V30 4120 C 403.291 -1.73985 -1.02828 0
M  V30 4121 C 403.612 -0.531406 -1.87619 0
M  V30 4122 O 402.882 0.454221 -1.90561 0
M  V30 4123 H 401.462 -0.641556 -0.382642 0
M  V30 4124 H 404.124 -1.92163 -0.325489 0
M  V30 4125 H 403.22 -2.63129 -1.67838 0
M  V30 4126 N 403.521 0.559213 -1.47345 0
M  V30 4127 C 404.746 1.34676 -1.57725 0
M  V30 4128 C 405.171 1.86723 -0.227164 0
M  V30 4129 O 404.529 1.6286 0.796642 0
M  V30 4130 C 404.577 2.49399 -2.60447 0
M  V30 4131 O 403.681 3.51567 -2.15578 0
M  V30 4132 H 403.022 0.400115 -0.52991 0
M  V30 4133 H 405.552 0.676009 -1.93109 0
M  V30 4134 H 405.562 2.95996 -2.80803 0
M  V30 4135 H 404.237 2.10873 -3.58477 0
M  V30 4136 H 402.814 3.11289 -2.05313 0
M  V30 4137 N 404.999 1.35443 0.805782 0
M  V30 4138 C 406.245 1.28952 1.56522 0
M  V30 4139 C 406.578 -0.135597 1.93726 0
M  V30 4140 O 405.853 -1.08516 1.61414 0
M  V30 4141 C 406.136 2.19678 2.85331 0
M  V30 4142 C 405.989 3.7081 2.54598 0
M  V30 4143 C 407.308 2.09495 3.8704 0
M  V30 4144 H 404.427 0.469764 0.567883 0
M  V30 4145 H 407.069 1.65851 0.927001 0
M  V30 4146 H 405.219 1.8834 3.39795 0
M  V30 4147 H 406.891 4.12593 2.06312 0
M  V30 4148 H 405.134 3.91051 1.8778 0
M  V30 4149 H 405.805 4.29679 3.46525 0
M  V30 4150 H 408.281 2.37045 3.41978 0
M  V30 4151 H 407.157 2.75173 4.74943 0
M  V30 4152 H 407.418 1.07714 4.28777 0
M  V30 4153 N 406.477 -1.02803 1.19454 0
M  V30 4154 C 407.723 -1.76478 0.999171 0
M  V30 4155 C 408.056 -1.88456 -0.468828 0
M  V30 4156 O 407.331 -1.40198 -1.34814 0
M  V30 4157 C 407.614 -3.19044 1.66981 0
M  V30 4158 C 407.467 -3.14932 3.21151 0
M  V30 4159 C 408.786 -4.17456 1.39349 0
M  V30 4160 H 405.905 -0.640614 0.364393 0
M  V30 4161 H 408.547 -1.20005 1.47305 0
M  V30 4162 H 406.697 -3.67263 1.2669 0
M  V30 4163 H 408.369 -2.74605 3.70661 0
M  V30 4164 H 406.612 -2.52625 3.52652 0
M  V30 4165 H 407.283 -4.1566 3.63223 0
M  V30 4166 H 409.759 -3.77842 1.74283 0
M  V30 4167 H 408.635 -5.154 1.88823 0
M  V30 4168 H 408.896 -4.40949 0.318813 0
M  V30 4169 N 407.956 -0.998596 -1.21925 0
M  V30 4170 C 409.205 -0.673085 -1.90138 0
M  V30 4171 C 409.518 0.79895 -1.78539 0
M  V30 4172 O 410.724 1.23628 -2.4172 0
M  V30 4173 C 409.18 -1.15339 -3.40918 0
M  V30 4174 C 408.788 -2.65106 -3.61141 0
M  V30 4175 C 410.532 -0.902476 -4.14796 0
M  V30 4176 C 408.439 -3.0671 -5.05651 0
M  V30 4177 H 407.369 -0.248057 -0.712028 0
M  V30 4178 H 410.02 -1.20891 -1.38049 0
M  V30 4179 H 408.402 -0.545658 -3.92223 0
M  V30 4180 H 409.576 -3.31274 -3.20304 0
M  V30 4181 H 407.891 -2.88142 -3.00605 0
M  V30 4182 H 410.488 -1.18895 -5.21314 0
M  V30 4183 H 410.831 0.161349 -4.15987 0
M  V30 4184 H 411.364 -1.47269 -3.69536 0
M  V30 4185 H 408.103 -4.12292 -5.09603 0
M  V30 4186 H 407.623 -2.45249 -5.47369 0
M  V30 4187 H 409.302 -2.9833 -5.74115 0
M  V30 4188 N 409.434 1.37368 -0.772513 0
M  V30 4189 C 410.382 2.32134 -0.147111 0
M  V30 4190 C 411.376 1.54972 0.684106 0
M  V30 4191 O 412.582 1.70363 0.581083 0
M  V30 4192 H 408.957 0.751449 -0.028786 0
M  V30 4193 H 410.928 2.82464 -0.962112 0
M  V30 4194 C 409.677 3.40226 0.71703 0
M  V30 4195 H 409 3.99706 0.0867951 0
M  V30 4196 H 410.44 4.08897 1.12159 0
M  V30 4197 C 408.899 2.80372 1.86797 0
M  V30 4198 O 409.429 2.71183 2.96349 0
M  V30 4199 N 407.635 2.37904 1.66883 0
M  V30 4200 H 407.182 2.45578 0.777759 0
M  V30 4201 H 407.14 1.98202 2.44056 0
M  V30 4202 N 410.912 0.523116 1.48665 0
M  V30 4203 C 411.875 -0.232592 2.28017 0
M  V30 4204 C 412.875 -0.874021 1.34972 0
M  V30 4205 O 414.065 -0.735132 1.57929 0
M  V30 4206 C 411.197 -1.33586 3.13636 0
M  V30 4207 H 412.39 0.464008 2.96289 0
M  V30 4208 H 409.943 0.278816 1.53793 0
M  V30 4209 H 410.678 -2.06593 2.4998 0
M  V30 4210 H 410.463 -0.881125 3.82071 0
M  V30 4211 H 411.953 -1.86759 3.73511 0
M  V30 4212 N 412.39 -1.55475 0.257931 0
M  V30 4213 C 413.806 -1.59307 -0.0966563 0
M  V30 4214 C 414.006 -1.27514 -1.5602 0
M  V30 4215 O 413.062 -1.02774 -2.30637 0
M  V30 4216 C 414.375 -2.99552 0.262481 0
M  V30 4217 C 415.923 -3.1231 0.207683 0
M  V30 4218 C 416.398 -4.54793 0.541012 0
M  V30 4219 N 417.889 -4.6058 0.491921 0
M  V30 4220 C 418.624 -5.68825 0.722857 0
M  V30 4221 N 418.12 -6.85287 1.0175 0
M  V30 4222 N 419.913 -5.58296 0.652815 0
M  V30 4223 H 412.064 -1.74409 1.21224 0
M  V30 4224 H 414.327 -0.812424 0.48854 0
M  V30 4225 H 414.033 -3.27593 1.27967 0
M  V30 4226 H 413.907 -3.75019 -0.40508 0
M  V30 4227 H 416.294 -2.84044 -0.800195 0
M  V30 4228 H 416.375 -2.39095 0.909255 0
M  V30 4229 H 416.019 -4.83783 1.5465 0
M  V30 4230 H 415.949 -5.26285 -0.18216 0
M  V30 4231 H 418.44 -3.7691 0.273366 0
M  V30 4232 H 418.753 -7.63725 1.18084 0
M  V30 4233 H 417.098 -6.86945 1.05509 0
M  V30 4234 H 420.289 -4.66189 0.422592 0
M  V30 4235 H 420.462 -6.42582 0.836182 0
M  V30 4236 N 413.868 0.0150385 -1.57593 0
M  V30 4237 C 414.816 1.02958 -2.08572 0
M  V30 4238 C 415.81 1.36554 -1.00246 0
M  V30 4239 O 417.016 1.35295 -1.18724 0
M  V30 4240 H 413.391 0.349619 -0.665786 0
M  V30 4241 H 415.362 0.573932 -2.92829 0
M  V30 4242 C 414.111 2.31752 -2.59203 0
M  V30 4243 H 413.434 2.06765 -3.42182 0
M  V30 4244 H 414.874 3.01053 -2.98568 0
M  V30 4245 C 413.333 3.01692 -1.49945 0
M  V30 4246 O 413.863 3.92083 -0.873704 0
M  V30 4247 N 412.069 2.6326 -1.23056 0
M  V30 4248 H 411.616 1.89838 -1.74125 0
M  V30 4249 H 411.574 3.10372 -0.501685 0
M  V30 4250 N 415.346 1.54954 0.287554 0
M  V30 4251 C 416.278 1.83224 1.37701 0
M  V30 4252 C 417.291 0.715898 1.46215 0
M  V30 4253 O 418.48 0.993565 1.48292 0
M  V30 4254 C 415.58 1.96723 2.75959 0
M  V30 4255 C 414.753 3.27253 2.90215 0
M  V30 4256 C 413.812 3.30998 4.09056 0
M  V30 4257 O 412.838 4.04457 4.00503 0
M  V30 4258 N 414.04 2.57353 5.20336 0
M  V30 4259 H 416.805 2.77254 1.138 0
M  V30 4260 H 414.366 1.54694 0.477652 0
M  V30 4261 H 416.358 1.96615 3.5373 0
M  V30 4262 H 414.928 1.09626 2.92747 0
M  V30 4263 H 414.148 3.40022 1.99447 0
M  V30 4264 H 415.436 4.13365 2.96659 0
M  V30 4265 H 414.834 1.97327 5.30169 0
M  V30 4266 H 413.391 2.62984 5.96391 0
M  V30 4267 N 416.824 -0.551391 1.4764 0
M  V30 4268 C 417.772 -1.67896 1.60978 0
M  V30 4269 C 418.766 -1.62549 0.476877 0
M  V30 4270 O 419.972 -1.67664 0.654878 0
M  V30 4271 H 416.347 -0.555649 0.506713 0
M  V30 4272 H 418.318 -1.53784 2.55721 0
M  V30 4273 C 417.067 -3.06234 1.64669 0
M  V30 4274 H 416.39 -3.11033 2.51194 0
M  V30 4275 H 417.83 -3.84804 1.7805 0
M  V30 4276 C 416.289 -3.34737 0.381115 0
M  V30 4277 O 416.819 -3.98381 -0.515297 0
M  V30 4278 N 415.025 -2.8944 0.259354 0
M  V30 4279 H 414.572 -2.37827 0.98976 0
M  V30 4280 H 414.53 -3.08882 -0.586464 0
M  V30 4281 N 418.302 -1.35869 -0.798587 0
M  V30 4282 C 419.25 -1.29491 -1.93222 0
M  V30 4283 C 420.244 -0.18836 -1.6835 0
M  V30 4284 O 421.45 -0.354822 -1.76468 0
M  V30 4285 H 417.825 -0.402901 -0.63496 0
M  V30 4286 H 419.796 -2.25247 -1.9572 0
M  V30 4287 C 418.545 -1.09184 -3.30112 0
M  V30 4288 H 417.868 -1.93574 -3.49813 0
M  V30 4289 H 419.308 -1.08766 -4.09812 0
M  V30 4290 C 417.767 0.203959 -3.36282 0
M  V30 4291 O 418.297 1.19699 -3.83451 0
M  V30 4292 N 416.503 0.245488 -2.89561 0
M  V30 4293 H 416.05 -0.563223 -2.51367 0
M  V30 4294 H 416.008 1.11219 -2.94071 0
M  V30 4295 N 419.78 1.02168 -1.19998 0
M  V30 4296 C 421.01 1.79036 -1.031 0
M  V30 4297 C 421.418 1.84409 0.423078 0
M  V30 4298 O 420.761 1.29228 1.30559 0
M  V30 4299 C 420.823 3.25185 -1.53281 0
M  V30 4300 C 420.487 3.43431 -3.01503 0
M  V30 4301 C 421.484 3.33063 -3.99206 0
M  V30 4302 C 419.169 3.69412 -3.40353 0
M  V30 4303 C 421.163 3.48413 -5.33748 0
M  V30 4304 C 418.85 3.84406 -4.75053 0
M  V30 4305 C 419.848 3.7391 -5.71559 0
M  V30 4306 O 419.536 3.88452 -7.03818 0
M  V30 4307 H 419.268 0.570043 -0.363355 0
M  V30 4308 H 421.822 1.29524 -1.59414 0
M  V30 4309 H 420.052 3.75756 -0.913483 0
M  V30 4310 H 421.741 3.83671 -1.32481 0
M  V30 4311 H 422.507 3.12934 -3.70537 0
M  V30 4312 H 418.386 3.76671 -2.65782 0
M  V30 4313 H 421.93 3.40137 -6.09059 0
M  V30 4314 H 417.827 4.04035 -5.03415 0
M  V30 4315 H 418.595 4.055 -7.10993 0
M  V30 4316 N 421.258 1.00505 1.21394 0
M  V30 4317 C 422.208 0.536503 2.21598 0
M  V30 4318 C 423.192 -0.401914 1.55799 0
M  V30 4319 O 424.384 -0.226757 1.75541 0
M  V30 4320 C 421.513 -0.135446 3.43033 0
M  V30 4321 C 420.599 0.823992 4.16018 0
M  V30 4322 N 420.99 1.97683 4.6557 0
M  V30 4323 C 419.288 0.642387 4.4135 0
M  V30 4324 C 419.989 2.58003 5.21354 0
M  V30 4325 N 418.965 1.86162 5.1073 0
M  V30 4326 H 422.767 1.41557 2.57563 0
M  V30 4327 H 420.281 0.868878 1.37202 0
M  V30 4328 H 422.278 -0.488584 4.14027 0
M  V30 4329 H 420.938 -1.01049 3.08576 0
M  V30 4330 H 421.949 2.3572 4.61147 0
M  V30 4331 H 418.626 -0.185578 4.17087 0
M  V30 4332 H 420.016 3.555 5.70149 0
M  V30 4333 N 422.737 -1.36956 0.779787 0
M  V30 4334 C 423.977 -2.01328 0.353043 0
M  V30 4335 C 424.341 -1.60558 -1.05286 0
M  V30 4336 O 425.542 -2.1745 -1.58016 0
M  V30 4337 C 423.813 -3.53874 0.500822 0
M  V30 4338 S 425.372 -4.38506 0.16053 0
M  V30 4339 H 422.19 -0.69799 0.13539 0
M  V30 4340 H 424.792 -1.67016 1.01617 0
M  V30 4341 H 423.496 -3.81034 1.52451 0
M  V30 4342 H 423.027 -3.92994 -0.178574 0
M  V30 4343 H 425.042 -4.85153 -1.04121 0
M  V30 4344 N 424.215 -0.530993 -1.48385 0
M  V30 4345 C 425.165 0.251092 -2.26613 0
M  V30 4346 C 426.149 0.908977 -1.32765 0
M  V30 4347 O 427.341 0.811616 -1.57295 0
M  V30 4348 C 424.47 1.29677 -3.17866 0
M  V30 4349 C 423.556 0.643627 -4.19188 0
M  V30 4350 N 423.947 -0.271223 -5.05072 0
M  V30 4351 C 422.245 0.900711 -4.3681 0
M  V30 4352 C 422.946 -0.648109 -5.78078 0
M  V30 4353 N 421.922 -0.00895987 -5.43599 0
M  V30 4354 H 425.724 -0.452702 -2.90393 0
M  V30 4355 H 423.238 -0.349091 -1.58604 0
M  V30 4356 H 425.235 1.87079 -3.72568 0
M  V30 4357 H 423.895 2.00193 -2.55642 0
M  V30 4358 H 424.906 -0.643883 -5.13882 0
M  V30 4359 H 421.583 1.59636 -3.85775 0
M  V30 4360 H 422.973 -1.39833 -6.57188 0
M  V30 4361 N 425.693 1.55336 -0.266172 0
M  V30 4362 C 426.933 2.01303 0.354459 0
M  V30 4363 C 427.297 1.15046 1.53715 0
M  V30 4364 O 428.498 1.50554 2.22681 0
M  V30 4365 C 426.769 3.49748 0.735579 0
M  V30 4366 S 428.328 4.1771 1.34401 0
M  V30 4367 H 425.146 0.702333 0.110674 0
M  V30 4368 H 427.748 1.91653 -0.385916 0
M  V30 4369 H 426.452 4.10181 -0.134196 0
M  V30 4370 H 425.983 3.63364 1.50764 0
M  V30 4371 H 427.998 4.20594 2.63278 0
M  V30 4372 N 427.171 -0.0066808 1.57599 0
M  V30 4373 C 428.587 -0.36267 1.55425 0
M  V30 4374 C 428.787 -1.75209 0.995187 0
M  V30 4375 O 427.843 -2.44616 0.626058 0
M  V30 4376 C 429.156 -0.244017 2.99708 0
M  V30 4377 C 430.704 -0.319451 3.11366 0
M  V30 4378 C 431.179 -0.229998 4.57422 0
M  V30 4379 N 432.67 -0.288105 4.62303 0
M  V30 4380 C 433.405 -0.242127 5.72889 0
M  V30 4381 N 432.901 -0.147133 6.92644 0
M  V30 4382 N 434.694 -0.293502 5.61333 0
M  V30 4383 H 426.845 0.902314 1.92281 0
M  V30 4384 H 429.108 0.34525 0.882896 0
M  V30 4385 H 428.814 0.711678 3.44424 0
M  V30 4386 H 428.688 -1.02877 3.629 0
M  V30 4387 H 431.075 -1.26559 2.66584 0
M  V30 4388 H 431.156 0.495055 2.50964 0
M  V30 4389 H 430.8 0.712566 5.02877 0
M  V30 4390 H 430.73 -1.0629 5.15761 0
M  V30 4391 H 433.221 -0.363126 3.76151 0
M  V30 4392 H 433.534 -0.117763 7.7271 0
M  V30 4393 H 431.879 -0.112857 6.94908 0
M  V30 4394 H 435.07 -0.365864 4.66668 0
M  V30 4395 H 435.243 -0.254204 6.47501 0
M  V30 4396 N 428.649 -1.55105 -0.279332 0
M  V30 4397 C 429.898 -1.74618 -1.00952 0
M  V30 4398 C 430.211 -0.551096 -1.87676 0
M  V30 4399 O 431.417 -0.628507 -2.64125 0
M  V30 4400 C 429.873 -3.09025 -1.84476 0
M  V30 4401 C 429.481 -4.36081 -1.0265 0
M  V30 4402 C 431.225 -3.37891 -2.56963 0
M  V30 4403 C 429.132 -5.6153 -1.85576 0
M  V30 4404 H 428.062 -0.650868 -0.38064 0
M  V30 4405 H 430.713 -1.81569 -0.265475 0
M  V30 4406 H 429.095 -2.96095 -2.62952 0
M  V30 4407 H 430.269 -4.59909 -0.286354 0
M  V30 4408 H 428.584 -4.14312 -0.416464 0
M  V30 4409 H 431.181 -4.28822 -3.19399 0
M  V30 4410 H 431.524 -2.57737 -3.26921 0
M  V30 4411 H 432.057 -3.5189 -1.85522 0
M  V30 4412 H 428.796 -6.44413 -1.2005 0
M  V30 4413 H 428.316 -5.41854 -2.57204 0
M  V30 4414 H 429.995 -5.99594 -2.43096 0
M  V30 4415 N 430.127 0.543554 -1.4793 0
M  V30 4416 C 431.373 1.30201 -1.55485 0
M  V30 4417 C 431.706 1.92925 -0.222201 0
M  V30 4418 O 430.981 1.78586 0.77053 0
M  V30 4419 C 431.264 2.40174 -2.68307 0
M  V30 4420 C 431.117 1.8223 -4.11233 0
M  V30 4421 C 432.436 3.42024 -2.76961 0
M  V30 4422 H 429.555 0.472036 -0.565996 0
M  V30 4423 H 432.197 0.606914 -1.80046 0
M  V30 4424 H 430.347 2.99463 -2.47495 0
M  V30 4425 H 432.019 1.27096 -4.43446 0
M  V30 4426 H 430.262 1.12832 -4.18869 0
M  V30 4427 H 430.933 2.61793 -4.85972 0
M  V30 4428 H 433.409 2.92672 -2.95774 0
M  V30 4429 H 432.285 4.16383 -3.57654 0
M  V30 4430 H 432.546 4.0173 -1.84568 0
M  V30 4431 N 431.605 1.3629 0.791371 0
M  V30 4432 C 432.535 1.33137 1.91825 0
M  V30 4433 C 433.516 0.203168 1.68882 0
M  V30 4434 O 434.701 0.400509 1.90025 0
M  V30 4435 C 431.831 1.11793 3.28816 0
M  V30 4436 C 430.785 2.21417 3.66277 0
M  V30 4437 C 430.111 1.85218 5.01596 0
M  V30 4438 C 431.411 3.63489 3.75064 0
M  V30 4439 H 433.105 2.2743 1.9472 0
M  V30 4440 H 430.651 1.09479 0.935437 0
M  V30 4441 H 432.604 1.08222 4.07266 0
M  V30 4442 H 431.328 0.139501 3.26302 0
M  V30 4443 H 429.987 2.2411 2.90121 0
M  V30 4444 H 429.635 0.859544 4.95602 0
M  V30 4445 H 429.335 2.58611 5.27631 0
M  V30 4446 H 430.859 1.832 5.82469 0
M  V30 4447 H 432.273 3.63034 4.43711 0
M  V30 4448 H 430.67 4.35771 4.12582 0
M  V30 4449 H 431.74 3.98536 2.76219 0
M  V30 4450 N 433.083 -1.0153 1.20538 0
M  V30 4451 C 434.499 -1.27461 0.96051 0
M  V30 4452 C 434.699 -1.98273 -0.359193 0
M  V30 4453 O 433.755 -2.27886 -1.0874 0
M  V30 4454 C 435.068 -2.10837 2.14402 0
M  V30 4455 C 436.616 -2.24099 2.18515 0
M  V30 4456 C 437.091 -3.10852 3.36355 0
M  V30 4457 N 438.582 -3.18441 3.36377 0
M  V30 4458 C 439.317 -3.85795 4.24205 0
M  V30 4459 N 438.813 -4.55264 5.22213 0
M  V30 4460 N 440.606 -3.82331 4.12043 0
M  V30 4461 H 432.757 -0.539907 2.05423 0
M  V30 4462 H 435.02 -0.30092 0.898972 0
M  V30 4463 H 434.726 -1.66144 3.09983 0
M  V30 4464 H 434.6 -3.11576 2.12604 0
M  V30 4465 H 436.987 -2.68016 1.23497 0
M  V30 4466 H 437.068 -1.22865 2.24361 0
M  V30 4467 H 436.712 -2.6764 4.31661 0
M  V30 4468 H 436.642 -4.12177 3.27746 0
M  V30 4469 H 439.133 -2.68978 2.65442 0
M  V30 4470 H 439.446 -5.04331 5.85551 0
M  V30 4471 H 437.791 -4.54085 5.26148 0
M  V30 4472 H 440.982 -3.27207 3.34743 0
M  V30 4473 H 441.155 -4.34547 4.807 0
M  V30 4474 N 434.561 -1.01147 -1.20859 0
M  V30 4475 C 435.786 -0.716698 -1.94623 0
M  V30 4476 C 436.211 0.715415 -1.73964 0
M  V30 4477 O 435.569 1.49157 -1.03062 0
M  V30 4478 C 435.617 -1.0513 -3.44935 0
M  V30 4479 O 434.721 -0.160131 -4.12089 0
M  V30 4480 H 434.062 -0.266404 -0.608214 0
M  V30 4481 H 436.592 -1.35346 -1.53436 0
M  V30 4482 H 436.602 -1.00086 -3.95533 0
M  V30 4483 H 435.277 -2.09475 -3.59295 0
M  V30 4484 H 433.854 -0.267657 -3.71938 0
M  V30 4485 N 436.039 1.36541 -0.78704 0
M  V30 4486 C 437.269 2.03266 -0.369662 0
M  V30 4487 C 437.677 1.59481 1.01796 0
M  V30 4488 O 437.02 0.778612 1.66383 0
M  V30 4489 C 437.082 3.57779 -0.351371 0
M  V30 4490 C 436.746 4.24756 -1.68617 0
M  V30 4491 C 437.743 4.47811 -2.64124 0
M  V30 4492 C 435.428 4.62277 -1.96481 0
M  V30 4493 C 437.422 5.07464 -3.85693 0
M  V30 4494 C 435.109 5.21649 -3.18317 0
M  V30 4495 C 436.107 5.44182 -4.12741 0
M  V30 4496 O 435.795 6.02307 -5.32429 0
M  V30 4497 H 435.527 0.658977 -0.150751 0
M  V30 4498 H 438.081 1.75548 -1.0664 0
M  V30 4499 H 436.311 3.84606 0.401847 0
M  V30 4500 H 438 4.05879 0.0410147 0
M  V30 4501 H 438.766 4.19221 -2.43883 0
M  V30 4502 H 434.645 4.44065 -1.23805 0
M  V30 4503 H 438.189 5.24968 -4.59407 0
M  V30 4504 H 434.086 5.49664 -3.38437 0
M  V30 4505 H 434.854 6.20775 -5.33461 0
M  V30 4506 N 437.518 0.538854 1.48102 0
M  V30 4507 C 438.795 -0.0568108 1.95517 0
M  V30 4508 C 439.175 -1.50408 1.48124 0
M  V30 4509 O 438.523 -2.17133 0.711727 0
M  V30 4510 C 438.733 0.0696262 3.48931 0
M  V30 4511 C 440.081 -0.0851202 4.24515 0
M  V30 4512 O 441.105 -0.0037347 3.562 0
M  V30 4513 O 439.964 -0.257025 5.45895 0
M  V30 4514 H 437.058 -0.0743695 0.823649 0
M  V30 4515 H 439.604 0.604081 1.58584 0
M  V30 4516 H 438.376 1.07744 3.76174 0
M  V30 4517 H 437.999 -0.629714 3.92582 0
M  V30 4518 N 438.996 -1.55193 0.274407 0
M  V30 4519 C 439.959 -2.212 -0.600279 0
M  V30 4520 C 440.959 -1.18963 -1.08187 0
M  V30 4521 O 442.149 -1.43873 -0.982158 0
M  V30 4522 C 439.281 -2.87739 -1.82809 0
M  V30 4523 H 440.474 -2.9989 -0.0239682 0
M  V30 4524 H 438.027 -1.5628 0.0250192 0
M  V30 4525 H 438.762 -2.13058 -2.44493 0
M  V30 4526 H 438.547 -3.62658 -1.49069 0
M  V30 4527 H 440.037 -3.38171 -2.45011 0
M  V30 4528 N 440.474 -0.00167713 -1.576 0
M  V30 4529 C 441.714 0.687302 -1.92498 0
M  V30 4530 C 442.078 1.70844 -0.876144 0
M  V30 4531 O 443.279 2.44792 -1.11043 0
M  V30 4532 C 441.55 1.31217 -3.32441 0
M  V30 4533 S 443.109 2.02604 -3.89226 0
M  V30 4534 H 439.927 0.226985 -0.673794 0
M  V30 4535 H 442.529 -0.0587666 -1.95412 0
M  V30 4536 H 441.233 0.556164 -4.06614 0
M  V30 4537 H 440.764 2.09613 -3.32905 0
M  V30 4538 H 442.779 3.30137 -3.70438 0
M  V30 4539 N 441.952 1.55251 0.271103 0
M  V30 4540 C 443.229 1.66664 1.02384 0
M  V30 4541 C 443.609 0.534363 2.04225 0
M  V30 4542 O 442.957 -0.465337 2.23712 0
M  V30 4543 C 443.167 3.05961 1.67895 0
M  V30 4544 C 444.515 3.63772 2.18986 0
M  V30 4545 O 445.539 3.08606 1.77878 0
M  V30 4546 O 444.398 4.60429 2.94393 0
M  V30 4547 H 441.492 0.676957 0.475035 0
M  V30 4548 H 444.038 1.67589 0.26681 0
M  V30 4549 H 442.81 3.79815 0.941071 0
M  V30 4550 H 442.433 3.08943 2.5028 0
M  V30 4551 N 443.43 -0.535701 1.48216 0
M  V30 4552 C 444.658 -1.31671 1.59594 0
M  V30 4553 C 445.073 -1.87083 0.254056 0
M  V30 4554 O 444.43 -1.66112 -0.755854 0
M  V30 4555 C 444.481 -2.47158 2.63809 0
M  V30 4556 O 444.202 -1.94032 3.92789 0
M  V30 4557 C 445.703 -3.39062 2.85573 0
M  V30 4558 H 442.923 -0.400623 0.538277 0
M  V30 4559 H 445.467 -0.646827 1.94001 0
M  V30 4560 H 443.622 -3.10043 2.32276 0
M  V30 4561 H 444.036 -2.69585 4.49916 0
M  V30 4562 H 445.51 -4.16459 3.62306 0
M  V30 4563 H 445.987 -3.93941 1.94184 0
M  V30 4564 H 446.593 -2.81975 3.18387 0
M  V30 4565 N 444.908 -1.36708 -0.784132 0
M  V30 4566 C 445.838 -1.34153 -1.91116 0
M  V30 4567 C 446.819 -0.212121 -1.68772 0
M  V30 4568 O 448.004 -0.410581 -1.8981 0
M  V30 4569 C 445.134 -1.13535 -3.28218 0
M  V30 4570 C 444.088 -2.23356 -3.65097 0
M  V30 4571 C 443.414 -1.87875 -5.00607 0
M  V30 4572 C 444.714 -3.65473 -3.73131 0
M  V30 4573 H 446.408 -2.28459 -1.93512 0
M  V30 4574 H 443.954 -1.09973 -0.929618 0
M  V30 4575 H 445.907 -1.10381 -4.06687 0
M  V30 4576 H 444.631 -0.156804 -3.26223 0
M  V30 4577 H 443.29 -2.25645 -2.88929 0
M  V30 4578 H 442.938 -0.885814 -4.95139 0
M  V30 4579 H 442.638 -2.61406 -5.26252 0
M  V30 4580 H 444.162 -1.86286 -5.81489 0
M  V30 4581 H 445.576 -3.65382 -4.41779 0
M  V30 4582 H 443.973 -4.37953 -4.10265 0
M  V30 4583 H 445.043 -3.99995 -2.74102 0
M  V30 4584 N 446.386 1.0089 -1.21074 0
M  V30 4585 C 447.802 1.2695 -0.967257 0
M  V30 4586 C 448.002 1.9846 0.348673 0
M  V30 4587 O 447.058 2.28459 1.0753 0
M  V30 4588 C 448.371 2.09697 -2.15517 0
M  V30 4589 C 449.919 2.22937 -2.197 0
M  V30 4590 C 450.394 3.09064 -3.37999 0
M  V30 4591 N 451.885 3.16653 -3.38061 0
M  V30 4592 C 452.62 3.8354 -4.26245 0
M  V30 4593 N 452.116 4.52488 -5.2462 0
M  V30 4594 N 453.909 3.80141 -4.14064 0
M  V30 4595 H 446.06 0.529005 -2.05707 0
M  V30 4596 H 448.323 0.296148 -0.900556 0
M  V30 4597 H 448.029 1.64497 -3.10859 0
M  V30 4598 H 447.903 3.10444 -2.14253 0
M  V30 4599 H 450.29 2.67357 -1.24916 0
M  V30 4600 H 450.371 1.21673 -2.2501 0
M  V30 4601 H 450.015 2.65347 -4.33074 0
M  V30 4602 H 449.945 4.10433 -3.29928 0
M  V30 4603 H 452.436 2.67566 -2.66865 0
M  V30 4604 H 452.749 5.01219 -5.88217 0
M  V30 4605 H 451.094 4.51288 -5.28549 0
M  V30 4606 H 454.285 3.25427 -3.36474 0
M  V30 4607 H 454.458 4.31992 -4.82998 0
M  V30 4608 N 447.864 1.01787 1.20321 0
M  V30 4609 C 449.275 0.739307 1.71438 0
M  V30 4610 C 449.626 -0.742041 1.81627 0
M  V30 4611 O 448.751 -1.57903 1.47971 0
M  V30 4612 C 449.346 1.33538 3.11373 0
M  V30 4613 C 447.905 1.10566 3.59795 0
M  V30 4614 C 447.052 1.44028 2.36962 0
M  V30 4615 H 450.003 1.18718 1.05317 0
M  V30 4616 H 450.024 0.726611 3.73498 0
M  V30 4617 H 449.536 2.41352 3.03926 0
M  V30 4618 H 447.637 0.0452405 3.72573 0
M  V30 4619 H 447.75 1.78661 4.44542 0
M  V30 4620 H 446.114 0.85933 2.39766 0
M  V30 4621 H 446.897 2.52901 2.32155 0
M  V30 4622 N 449.342 -1.36122 0.79427 0
M  V30 4623 C 450.758 -1.5232 0.476525 0
M  V30 4624 C 450.958 -1.74685 -1.00436 0
M  V30 4625 O 450.014 -1.78115 -1.78973 0
M  V30 4626 C 451.327 -2.70607 1.31119 0
M  V30 4627 C 452.875 -2.8448 1.30537 0
M  V30 4628 C 453.35 -4.05778 2.12387 0
M  V30 4629 N 454.841 -4.12933 2.09859 0
M  V30 4630 C 455.576 -5.05876 2.69957 0
M  V30 4631 N 455.072 -6.04232 3.38934 0
M  V30 4632 N 456.865 -4.98528 2.59665 0
M  V30 4633 H 449.016 -1.1986 1.75349 0
M  V30 4634 H 451.279 -0.585418 0.745647 0
M  V30 4635 H 450.985 -2.60619 2.36158 0
M  V30 4636 H 450.859 -3.64888 0.955843 0
M  V30 4637 H 453.246 -2.93927 0.262876 0
M  V30 4638 H 453.327 -1.91093 1.70051 0
M  V30 4639 H 452.971 -3.97092 3.1667 0
M  V30 4640 H 452.901 -4.98323 1.70242 0
M  V30 4641 H 455.392 -3.42515 1.59662 0
M  V30 4642 H 455.705 -6.71724 3.82109 0
M  V30 4643 H 454.05 -6.04443 3.43036 0
M  V30 4644 H 457.241 -4.20641 2.05375 0
M  V30 4645 H 457.414 -5.70773 3.06793 0
M  V30 4646 N 450.82 -0.546701 -1.47814 0
M  V30 4647 C 452.097 0.0464413 -1.95545 0
M  V30 4648 C 452.477 1.4962 -1.48919 0
M  V30 4649 O 451.825 2.16752 -0.723232 0
M  V30 4650 C 452.035 -0.0881298 -3.48889 0
M  V30 4651 C 453.383 0.0626059 -4.24554 0
M  V30 4652 O 454.407 -0.0151555 -3.56197 0
M  V30 4653 O 453.266 0.228071 -5.46024 0
M  V30 4654 H 450.36 0.0700004 -0.824032 0
M  V30 4655 H 452.906 -0.612482 -1.58262 0
M  V30 4656 H 451.678 -1.09737 -3.75597 0
M  V30 4657 H 451.301 0.608886 -3.9291 0
M  V30 4658 N 452.299 1.55045 -0.282633 0
M  V30 4659 C 453.545 2.00056 0.332481 0
M  V30 4660 C 453.878 1.1708 1.54939 0
M  V30 4661 O 453.153 0.2427 1.9298 0
M  V30 4662 C 453.436 3.53086 0.70725 0
M  V30 4663 C 453.289 4.46813 -0.517521 0
M  V30 4664 C 454.608 4.12245 1.54084 0
M  V30 4665 H 451.727 0.727268 0.119373 0
M  V30 4666 H 454.369 1.85932 -0.391076 0
M  V30 4667 H 452.519 3.65253 1.32372 0
M  V30 4668 H 454.191 4.46579 -1.15607 0
M  V30 4669 H 452.434 4.18163 -1.1542 0
M  V30 4670 H 453.105 5.51595 -0.211426 0
M  V30 4671 H 455.581 4.03401 1.02013 0
M  V30 4672 H 454.457 5.19515 1.77186 0
M  V30 4673 H 454.718 3.62951 2.52427 0
M  V30 4674 N 453.777 0.010035 1.57597 0
M  V30 4675 C 455.005 -0.683413 1.95287 0
M  V30 4676 C 455.42 -1.66747 0.885481 0
M  V30 4677 O 454.777 -1.82003 -0.134629 0
M  V30 4678 C 454.828 -1.40652 3.33015 0
M  V30 4679 O 454.549 -0.461916 4.35658 0
M  V30 4680 C 456.05 -2.19356 3.85225 0
M  V30 4681 H 453.27 -0.189708 0.643624 0
M  V30 4682 H 455.814 0.0641359 2.04399 0
M  V30 4683 H 453.969 -2.10562 3.2518 0
M  V30 4684 H 454.383 -0.973215 5.15392 0
M  V30 4685 H 455.857 -2.65433 4.83993 0
M  V30 4686 H 456.334 -3.02457 3.18459 0
M  V30 4687 H 456.94 -1.54442 3.96267 0
M  V30 4688 N 455.255 -1.55392 -0.262866 0
M  V30 4689 C 456.502 -1.76476 -0.993109 0
M  V30 4690 C 456.83 -0.571479 -1.85915 0
M  V30 4691 O 456.085 0.445733 -1.90556 0
M  V30 4692 C 456.384 -3.02889 -1.89718 0
M  V30 4693 C 456.05 -4.34974 -1.18781 0
M  V30 4694 C 454.712 -4.7087 -0.991699 0
M  V30 4695 C 457.064 -5.16695 -0.683798 0
M  V30 4696 C 454.392 -5.86036 -0.279024 0
M  V30 4697 C 456.744 -6.32598 0.0153327 0
M  V30 4698 C 455.408 -6.67127 0.223062 0
M  V30 4699 H 454.678 -0.64577 -0.363404 0
M  V30 4700 H 457.325 -1.89664 -0.264525 0
M  V30 4701 H 455.63 -2.84644 -2.6923 0
M  V30 4702 H 457.327 -3.16399 -2.46359 0
M  V30 4703 H 453.917 -4.06765 -1.35058 0
M  V30 4704 H 458.101 -4.8943 -0.8229 0
M  V30 4705 H 453.357 -6.11306 -0.107456 0
M  V30 4706 H 457.531 -6.95171 0.413584 0
M  V30 4707 H 455.158 -7.56216 0.777265 0
M  V30 4708 N 456.733 0.527833 -1.48498 0
M  V30 4709 C 458.01 1.28905 -1.47115 0
M  V30 4710 C 458.39 2.10297 -0.184007 0
M  V30 4711 O 457.738 2.12728 0.834218 0
M  V30 4712 C 457.948 2.16866 -2.73441 0
M  V30 4713 C 459.296 2.76936 -3.21857 0
M  V30 4714 O 460.32 2.27152 -2.74373 0
M  V30 4715 O 459.179 3.67496 -4.04486 0
M  V30 4716 H 456.273 0.581918 -0.587623 0
M  V30 4717 H 458.819 0.544311 -1.60734 0
M  V30 4718 H 457.591 1.56521 -3.58632 0
M  V30 4719 H 457.214 2.98583 -2.62553 0
M  V30 4720 N 458.211 1.37122 0.776871 0
M  V30 4721 C 459.622 1.28667 1.35284 0
M  V30 4722 C 459.973 -0.0680035 1.96082 0
M  V30 4723 O 459.098 -0.969743 1.93455 0
M  V30 4724 C 459.693 2.32997 2.45963 0
M  V30 4725 C 458.252 2.28191 2.99342 0
M  V30 4726 C 457.399 2.17101 1.72517 0
M  V30 4727 H 460.35 1.47819 0.577527 0
M  V30 4728 H 460.371 1.97366 3.2531 0
M  V30 4729 H 459.883 3.3158 2.01684 0
M  V30 4730 H 457.984 1.33115 3.4801 0
M  V30 4731 H 458.097 3.21397 3.55304 0
M  V30 4732 H 456.461 1.63562 1.95242 0
M  V30 4733 H 457.244 3.17591 1.30348 0
M  V30 4734 N 459.689 -1.00246 1.21608 0
M  V30 4735 C 460.599 -2.12515 0.993709 0
M  V30 4736 C 461.615 -1.73913 -0.0549939 0
M  V30 4737 O 462.791 -2.00943 0.135619 0
M  V30 4738 C 459.856 -3.42083 0.563953 0
M  V30 4739 C 458.917 -3.94843 1.68516 0
M  V30 4740 C 458.15 -5.18226 1.27582 0
M  V30 4741 O 458.373 -5.70201 0.150506 0
M  V30 4742 O 457.307 -5.64497 2.0887 0
M  V30 4743 H 461.133 -2.34152 1.93407 0
M  V30 4744 H 458.718 -1.10891 1.00118 0
M  V30 4745 H 460.6 -4.20073 0.334194 0
M  V30 4746 H 459.275 -3.21828 -0.347665 0
M  V30 4747 H 458.182 -3.18068 1.96935 0
M  V30 4748 H 459.515 -4.19512 2.5743 0
M  V30 4749 N 461.167 -1.02423 -1.1978 0
M  V30 4750 C 462.097 -0.62157 -2.25075 0
M  V30 4751 C 463.078 0.367148 -1.6609 0
M  V30 4752 O 464.263 0.250892 -1.92573 0
M  V30 4753 C 461.393 0.0331826 -3.47284 0
M  V30 4754 C 460.347 -0.877323 -4.18912 0
M  V30 4755 C 459.673 -0.0879296 -5.34628 0
M  V30 4756 C 460.973 -2.18892 -4.74219 0
M  V30 4757 H 462.667 -1.50179 -2.59011 0
M  V30 4758 H 460.213 -0.723547 -1.24502 0
M  V30 4759 H 462.166 0.326488 -4.20133 0
M  V30 4760 H 460.89 0.948164 -3.12534 0
M  V30 4761 H 459.549 -1.15475 -3.47938 0
M  V30 4762 H 459.197 0.828941 -4.96123 0
M  V30 4763 H 458.897 -0.694359 -5.83483 0
M  V30 4764 H 460.421 0.198743 -6.10276 0
M  V30 4765 H 461.835 -1.95746 -5.38847 0
M  V30 4766 H 460.232 -2.74686 -5.33542 0
M  V30 4767 H 461.302 -2.84674 -3.92541 0
M  V30 4768 N 462.645 1.35699 -0.801477 0
M  V30 4769 C 463.891 1.99208 -0.380022 0
M  V30 4770 C 464.224 1.63445 1.04878 0
M  V30 4771 O 463.499 0.895223 1.72673 0
M  V30 4772 C 463.782 3.55755 -0.557708 0
M  V30 4773 C 463.635 4.01332 -2.03107 0
M  V30 4774 C 464.954 4.40096 0.0197968 0
M  V30 4775 H 462.073 0.723667 -0.139552 0
M  V30 4776 H 464.715 1.60928 -1.01006 0
M  V30 4777 H 462.865 3.88494 -0.0213741 0
M  V30 4778 H 464.537 3.79026 -2.62939 0
M  V30 4779 H 462.78 3.52429 -2.52936 0
M  V30 4780 H 463.451 5.10234 -2.1063 0
M  V30 4781 H 465.927 4.13786 -0.438179 0
M  V30 4782 H 464.803 5.48735 -0.134477 0
M  V30 4783 H 465.064 4.2786 1.11303 0
M  V30 4784 N 464.123 0.554532 1.47522 0
M  V30 4785 C 465.4 -0.0360704 1.95567 0
M  V30 4786 C 465.78 -1.48828 1.49711 0
M  V30 4787 O 465.128 -2.16366 0.734717 0
M  V30 4788 C 465.338 0.106631 3.48837 0
M  V30 4789 C 466.686 -0.0400899 4.24581 0
M  V30 4790 O 467.71 0.0340453 3.56184 0
M  V30 4791 O 466.569 -0.199111 5.46137 0
M  V30 4792 H 463.663 -0.0656294 0.824392 0
M  V30 4793 H 466.209 0.620867 1.57935 0
M  V30 4794 H 464.981 1.11727 3.7501 0
M  V30 4795 H 464.604 -0.58804 3.93227 0
M  V30 4796 N 465.601 -1.54893 0.290851 0
M  V30 4797 C 467.012 -1.85584 -0.203816 0
M  V30 4798 C 467.363 -1.21285 -1.54222 0
M  V30 4799 O 466.488 -0.506841 -2.10381 0
M  V30 4800 C 467.083 -3.367 -0.376595 0
M  V30 4801 C 465.642 -3.6746 -0.815485 0
M  V30 4802 C 464.789 -2.77178 0.0821087 0
M  V30 4803 H 467.74 -1.50208 0.512175 0
M  V30 4804 H 467.761 -3.60656 -1.21275 0
M  V30 4805 H 467.273 -3.8347 0.59767 0
M  V30 4806 H 465.374 -3.26201 -1.80066 0
M  V30 4807 H 465.487 -4.7478 -0.641905 0
M  V30 4808 H 463.851 -2.50925 -0.436895 0
M  V30 4809 H 464.634 -3.26767 1.05254 0
M  V30 4810 N 467.08 -0.0183926 -1.57589 0
M  V30 4811 C 468.326 0.663543 -1.91638 0
M  V30 4812 C 468.659 1.72392 -0.894134 0
M  V30 4813 O 467.934 1.94316 0.0846449 0
M  V30 4814 C 468.217 1.28984 -3.36207 0
M  V30 4815 C 468.07 0.239761 -4.49161 0
M  V30 4816 C 469.389 2.2109 -3.80536 0
M  V30 4817 H 466.508 0.239746 -0.696915 0
M  V30 4818 H 469.15 -0.073456 -1.89858 0
M  V30 4819 H 467.3 1.91799 -3.37854 0
M  V30 4820 H 468.972 -0.390119 -4.59647 0
M  V30 4821 H 467.215 -0.435972 -4.31604 0
M  V30 4822 H 467.886 0.717383 -5.47319 0
M  V30 4823 H 470.362 1.68273 -3.80557 0
M  V30 4824 H 469.238 2.61869 -4.82406 0
M  V30 4825 H 469.499 3.09764 -3.15434 0
M  V30 4826 N 468.558 1.5553 0.254621 0
M  V30 4827 C 469.804 1.77262 0.985193 0
M  V30 4828 C 470.137 0.582286 1.85265 0
M  V30 4829 O 469.412 -0.419666 1.89919 0
M  V30 4830 C 469.695 3.0881 1.85225 0
M  V30 4831 C 469.548 4.38233 1.0135 0
M  V30 4832 C 470.867 3.3653 2.83612 0
M  V30 4833 H 467.986 0.644906 0.356742 0
M  V30 4834 H 470.628 1.88264 0.256236 0
M  V30 4835 H 468.778 2.99562 2.47376 0
M  V30 4836 H 470.45 4.59463 0.411269 0
M  V30 4837 H 468.693 4.32636 0.317574 0
M  V30 4838 H 469.364 5.26644 1.65379 0
M  V30 4839 H 471.84 3.45691 2.31596 0
M  V30 4840 H 470.716 4.29805 3.41407 0
M  V30 4841 H 470.977 2.57064 3.59681 0
M  V30 4842 N 470.036 -0.519951 1.48776 0
M  V30 4843 C 470.999 -1.60574 1.6355 0
M  V30 4844 C 471.999 -1.52557 0.508234 0
M  V30 4845 O 473.189 -1.56047 0.774262 0
M  V30 4846 C 470.321 -3.00211 1.61512 0
M  V30 4847 H 471.514 -1.4881 2.60376 0
M  V30 4848 H 469.067 -0.742772 1.37523 0
M  V30 4849 H 469.802 -3.17471 0.662009 0
M  V30 4850 H 469.587 -3.07439 2.43359 0
M  V30 4851 H 471.077 -3.79134 1.75064 0
M  V30 4852 N 471.514 -1.37532 -0.769588 0
M  V30 4853 C 472.477 -1.33292 -1.86456 0
M  V30 4854 C 473.477 -0.236537 -1.59051 0
M  V30 4855 O 474.667 -0.492511 -1.67093 0
M  V30 4856 C 471.799 -1.07118 -3.23633 0
M  V30 4857 H 472.992 -2.30692 -1.91628 0
M  V30 4858 H 470.545 -1.22593 -0.969572 0
M  V30 4859 H 471.28 -0.102578 -3.24138 0
M  V30 4860 H 471.065 -1.86479 -3.44917 0
M  V30 4861 H 472.555 -1.06806 -4.03711 0
M  V30 4862 N 472.992 0.995999 -1.22138 0
M  V30 4863 C 474.24 1.73167 -1.042 0
M  V30 4864 C 474.561 1.90329 0.42423 0
M  V30 4865 O 473.831 1.4607 1.30539 0
M  V30 4866 H 472.411 0.641593 -0.38258 0
M  V30 4867 H 475.073 1.19974 -1.53598 0
M  V30 4868 H 474.169 2.72734 -1.51731 0
M  V30 4869 N 474.47 1.03057 1.19235 0
M  V30 4870 C 475.433 0.617418 2.20727 0
M  V30 4871 C 476.433 -0.319856 1.57587 0
M  V30 4872 O 477.623 -0.106633 1.73873 0
M  V30 4873 C 474.755 -0.096296 3.40764 0
M  V30 4874 H 475.948 1.51544 2.58794 0
M  V30 4875 H 473.501 0.821949 1.32942 0
M  V30 4876 H 474.236 -1.00859 3.08217 0
M  V30 4877 H 474.021 0.577217 3.87828 0
M  V30 4878 H 475.511 -0.372219 4.15938 0
M  V30 4879 N 475.948 -1.35272 0.808662 0
M  V30 4880 C 477.194 -1.99003 0.390581 0
M  V30 4881 C 477.527 -1.63999 -1.0401 0
M  V30 4882 O 476.802 -0.904368 -1.72196 0
M  V30 4883 C 477.085 -3.55454 0.576566 0
M  V30 4884 C 476.938 -4.00249 2.05233 0
M  V30 4885 C 478.257 -4.401 0.00354277 0
M  V30 4886 H 475.376 -0.722917 0.143388 0
M  V30 4887 H 478.018 -1.6039 1.01858 0
M  V30 4888 H 476.168 -3.88477 0.0419766 0
M  V30 4889 H 477.84 -3.77626 2.64946 0
M  V30 4890 H 476.083 -3.51082 2.54801 0
M  V30 4891 H 476.754 -5.0911 2.13333 0
M  V30 4892 H 479.23 -4.13548 0.460117 0
M  V30 4893 H 478.106 -5.48656 0.163575 0
M  V30 4894 H 478.367 -4.28444 -1.09032 0
M  V30 4895 N 477.426 -0.562348 -1.47226 0
M  V30 4896 C 478.672 -0.0402761 -2.0276 0
M  V30 4897 C 479.005 1.30823 -1.43523 0
M  V30 4898 O 478.28 1.85249 -0.592705 0
M  V30 4899 C 478.563 0.047311 -3.60069 0
M  V30 4900 C 478.416 -1.32865 -4.29729 0
M  V30 4901 C 479.735 0.758182 -4.3352 0
M  V30 4902 H 476.854 -0.0161105 -0.736824 0
M  V30 4903 H 479.496 -0.725628 -1.75598 0
M  V30 4904 H 477.646 0.630986 -3.83342 0
M  V30 4905 H 479.318 -1.95593 -4.17781 0
M  V30 4906 H 477.561 -1.90195 -3.89882 0
M  V30 4907 H 478.232 -1.22004 -5.38349 0
M  V30 4908 H 480.708 0.262546 -4.15271 0
M  V30 4909 H 479.584 0.78844 -5.43208 0
M  V30 4910 H 479.845 1.81537 -4.03109 0
M  V30 4911 N 478.904 1.54736 -0.299062 0
M  V30 4912 C 480.132 2.04512 0.313447 0
M  V30 4913 C 480.547 1.17643 1.47667 0
M  V30 4914 O 479.904 0.20164 1.81383 0
M  V30 4915 C 479.955 3.53171 0.771542 0
M  V30 4916 O 479.676 4.36736 -0.345379 0
M  V30 4917 C 481.177 4.18936 1.4494 0
M  V30 4918 H 478.397 0.667507 0.0683784 0
M  V30 4919 H 480.941 1.99752 -0.438129 0
M  V30 4920 H 479.096 3.58298 1.47314 0
M  V30 4921 H 479.51 5.24499 0.0109219 0
M  V30 4922 H 480.984 5.24482 1.72111 0
M  V30 4923 H 481.461 3.68554 2.38883 0
M  V30 4924 H 482.067 4.17879 0.791028 0
M  V30 4925 N 480.382 0.0267497 1.57577 0
M  V30 4926 C 481.607 -0.666227 1.96408 0
M  V30 4927 C 482.032 -1.65004 0.903071 0
M  V30 4928 O 481.39 -1.80787 -0.136263 0
M  V30 4929 C 481.438 -1.35101 3.34335 0
M  V30 4930 O 480.542 -2.46623 3.30531 0
M  V30 4931 H 479.883 -0.175206 0.640468 0
M  V30 4932 H 482.413 0.0878977 2.04411 0
M  V30 4933 H 482.423 -1.70834 3.70513 0
M  V30 4934 H 481.098 -0.629844 4.11103 0
M  V30 4935 H 479.675 -2.13019 3.06068 0
M  V30 4936 N 481.861 -1.55662 -0.24637 0
M  V30 4937 C 483.086 -1.81914 -0.996093 0
M  V30 4938 C 483.511 -0.603875 -1.78143 0
M  V30 4939 O 482.869 0.447091 -1.75701 0
M  V30 4940 C 482.917 -3.05908 -1.90925 0
M  V30 4941 O 482.021 -2.82861 -3.00105 0
M  V30 4942 H 481.362 -0.600481 -0.283406 0
M  V30 4943 H 483.892 -2.02848 -0.267199 0
M  V30 4944 H 483.902 -3.35356 -2.3238 0
M  V30 4945 H 482.577 -3.93999 -1.33183 0
M  V30 4946 H 481.154 -2.64583 -2.62775 0
M  V30 4947 N 483.339 0.512053 -1.4905 0
M  V30 4948 C 484.587 1.26436 -1.57665 0
M  V30 4949 C 484.908 1.93255 -0.260293 0
M  V30 4950 O 484.178 1.82206 0.719564 0
M  V30 4951 H 482.758 0.469658 -0.580888 0
M  V30 4952 H 485.42 0.594398 -1.85615 0
M  V30 4953 H 484.516 2.03417 -2.36702 0
M  V30 4954 N 484.817 1.37938 0.762283 0
M  V30 4955 C 486.066 1.32989 1.51647 0
M  V30 4956 C 486.379 -0.0802922 1.95435 0
M  V30 4957 O 487.585 -0.252295 2.70325 0
M  V30 4958 C 486.041 2.33485 2.73885 0
M  V30 4959 C 485.649 3.80079 2.37157 0
M  V30 4960 C 487.393 2.37563 3.51801 0
M  V30 4961 C 485.3 4.72283 3.55954 0
M  V30 4962 H 484.23 0.494301 0.56937 0
M  V30 4963 H 486.881 1.63448 0.834083 0
M  V30 4964 H 485.263 1.96056 3.44061 0
M  V30 4965 H 486.437 4.26398 1.74704 0
M  V30 4966 H 484.752 3.79037 1.72395 0
M  V30 4967 H 487.349 3.0365 4.40114 0
M  V30 4968 H 487.692 1.39199 3.92338 0
M  V30 4969 H 488.225 2.73747 2.8863 0
M  V30 4970 H 484.964 5.7181 3.2049 0
M  V30 4971 H 484.484 4.30663 4.1748 0
M  V30 4972 H 486.163 4.89876 4.22647 0
M  V30 4973 N 486.295 -0.989507 1.22664 0
M  V30 4974 C 487.541 -1.7321 1.05481 0
M  V30 4975 C 487.874 -1.89852 -0.408635 0
M  V30 4976 O 487.149 -1.44416 -1.30285 0
M  V30 4977 C 487.432 -3.1357 1.77047 0
M  V30 4978 C 487.285 -3.04555 3.31008 0
M  V30 4979 C 488.604 -4.12812 1.5256 0
M  V30 4980 H 485.723 -0.628697 0.384589 0
M  V30 4981 H 488.365 -1.15258 1.51049 0
M  V30 4982 H 486.515 -3.63046 1.3831 0
M  V30 4983 H 488.187 -2.62674 3.7921 0
M  V30 4984 H 486.43 -2.41278 3.6051 0
M  V30 4985 H 487.101 -4.03894 3.76263 0
M  V30 4986 H 489.577 -3.72106 1.86215 0
M  V30 4987 H 488.453 -5.09132 2.05124 0
M  V30 4988 H 488.714 -4.39711 0.458936 0
M  V30 4989 N 487.773 -1.03688 -1.18687 0
M  V30 4990 C 489.02 -0.73803 -1.88572 0
M  V30 4991 C 489.348 0.733973 -1.8012 0
M  V30 4992 O 488.603 1.55098 -1.19344 0
M  V30 4993 C 488.902 -1.14477 -3.3857 0
M  V30 4994 C 488.568 -2.61641 -3.67226 0
M  V30 4995 C 487.23 -3.01846 -3.74757 0
M  V30 4996 C 489.582 -3.56812 -3.79914 0
M  V30 4997 C 486.91 -4.36118 -3.92451 0
M  V30 4998 C 489.262 -4.90799 -3.99123 0
M  V30 4999 C 487.926 -5.3068 -4.04888 0
M  V30 5000 H 487.196 -0.270064 -0.690034 0
M  V30 5001 H 489.843 -1.3012 -1.40503 0
M  V30 5002 H 488.148 -0.500337 -3.88592 0
M  V30 5003 H 489.845 -0.89095 -3.90977 0
M  V30 5004 H 486.435 -2.29498 -3.61979 0
M  V30 5005 H 490.619 -3.26899 -3.73431 0
M  V30 5006 H 485.875 -4.66542 -3.95157 0
M  V30 5007 H 490.049 -5.64451 -4.07882 0
M  V30 5008 H 487.676 -6.34733 -4.18351 0
M  V30 5009 N 489.251 1.34841 -0.815825 0
M  V30 5010 C 490.498 1.98499 -0.400535 0
M  V30 5011 C 490.826 1.64699 1.03463 0
M  V30 5012 O 490.081 0.907006 1.73412 0
M  V30 5013 C 490.38 3.53273 -0.541541 0
M  V30 5014 C 490.046 4.06966 -1.94138 0
M  V30 5015 C 488.708 4.21341 -2.32433 0
M  V30 5016 C 491.06 4.35933 -2.85677 0
M  V30 5017 C 488.388 4.62007 -3.61617 0
M  V30 5018 C 490.74 4.78042 -4.14317 0
M  V30 5019 C 489.404 4.90622 -4.52599 0
M  V30 5020 H 488.674 0.72636 -0.146566 0
M  V30 5021 H 491.321 1.60902 -1.0384 0
M  V30 5022 H 489.626 3.91387 0.179741 0
M  V30 5023 H 491.323 4.00497 -0.20085 0
M  V30 5024 H 487.913 3.96235 -1.63388 0
M  V30 5025 H 492.097 4.24372 -2.57337 0
M  V30 5026 H 487.353 4.69937 -3.91113 0
M  V30 5027 H 491.527 4.99415 -4.85342 0
M  V30 5028 H 489.154 5.2189 -5.52752 0
M  V30 5029 N 490.729 0.570148 1.46925 0
M  V30 5030 C 491.954 0.0542592 2.07329 0
M  V30 5031 C 492.379 -1.23582 1.41806 0
M  V30 5032 O 491.737 -1.74341 0.497479 0
M  V30 5033 C 491.785 -0.111175 3.60429 0
M  V30 5034 O 490.889 -1.17071 3.95434 0
M  V30 5035 H 490.23 0.0571425 0.661537 0
M  V30 5036 H 492.76 0.789516 1.88753 0
M  V30 5037 H 492.77 -0.321315 4.06733 0
M  V30 5038 H 491.445 0.831012 4.07513 0
M  V30 5039 H 490.022 -0.940029 3.60857 0
M  V30 5040 N 492.207 -1.54576 0.307264 0
M  V30 5041 C 493.155 -2.25208 -0.581723 0
M  V30 5042 C 494.149 -1.26031 -1.13192 0
M  V30 5043 O 495.355 -1.43862 -1.08184 0
M  V30 5044 H 491.73 -0.723173 -0.206214 0
M  V30 5045 H 493.701 -2.98378 0.0364663 0
M  V30 5046 C 492.45 -3.01086 -1.73904 0
M  V30 5047 H 491.773 -3.77208 -1.32491 0
M  V30 5048 H 493.213 -3.5378 -2.33701 0
M  V30 5049 C 491.672 -2.08422 -2.64692 0
M  V30 5050 O 492.202 -1.65636 -3.65961 0
M  V30 5051 N 490.408 -1.74247 -2.32564 0
M  V30 5052 H 489.955 -2.09238 -1.50257 0
M  V30 5053 H 489.913 -1.12524 -2.93574 0
M  V30 5054 N 493.685 -0.035106 -1.57561 0
M  V30 5055 C 495.096 0.502885 -1.798 0
M  V30 5056 C 495.447 1.71892 -0.945921 0
M  V30 5057 O 494.572 2.15822 -0.157991 0
M  V30 5058 C 495.167 0.919097 -3.26095 0
M  V30 5059 C 493.726 1.40216 -3.49308 0
M  V30 5060 C 492.873 0.369709 -2.74824 0
M  V30 5061 H 495.824 -0.261102 -1.56537 0
M  V30 5062 H 495.845 1.78308 -3.36135 0
M  V30 5063 H 495.357 0.0338526 -3.88085 0
M  V30 5064 H 493.458 2.30714 -2.92578 0
M  V30 5065 H 493.571 1.40541 -4.58023 0
M  V30 5066 H 491.935 0.839113 -2.40481 0
M  V30 5067 H 492.718 -0.507173 -3.39533 0
M  V30 5068 N 495.163 1.55791 0.238111 0
M  V30 5069 C 496.126 1.90239 1.27835 0
M  V30 5070 C 497.126 0.779552 1.4064 0
M  V30 5071 O 498.316 1.04747 1.3919 0
M  V30 5072 C 495.448 2.13859 2.65475 0
M  V30 5073 H 496.641 2.83262 0.985034 0
M  V30 5074 H 494.194 1.48818 0.477799 0
M  V30 5075 H 494.929 1.23334 2.99932 0
M  V30 5076 H 494.714 2.95643 2.57561 0
M  V30 5077 H 496.204 2.41664 3.40571 0
M  V30 5078 N 496.642 -0.504142 1.49319 0
M  V30 5079 C 497.592 -1.60284 1.62151 0
M  V30 5080 C 498.576 -1.53657 0.477315 0
M  V30 5081 O 499.768 -1.6124 0.730108 0
M  V30 5082 C 496.897 -2.98909 1.68844 0
M  V30 5083 C 495.983 -3.10544 2.8883 0
M  V30 5084 N 496.374 -2.92078 4.12946 0
M  V30 5085 C 494.672 -3.4164 2.86702 0
M  V30 5086 C 495.373 -3.07812 4.93585 0
M  V30 5087 N 494.349 -3.36549 4.26891 0
M  V30 5088 H 498.151 -1.44656 2.55835 0
M  V30 5089 H 495.665 -0.710198 1.46048 0
M  V30 5090 H 497.662 -3.77865 1.76134 0
M  V30 5091 H 496.322 -3.15609 0.762943 0
M  V30 5092 H 497.333 -2.68316 4.42975 0
M  V30 5093 H 494.01 -3.64537 2.03517 0
M  V30 5094 H 495.4 -2.98054 6.02174 0
M  V30 5095 N 498.12 -1.38341 -0.754957 0
M  V30 5096 C 499.531 -1.30803 -1.3322 0
M  V30 5097 C 499.882 0.0368 -1.96165 0
M  V30 5098 O 499.007 0.938844 -1.94974 0
M  V30 5099 C 499.602 -2.3688 -2.42225 0
M  V30 5100 C 498.161 -2.32925 -2.95674 0
M  V30 5101 C 497.308 -2.19819 -1.69042 0
M  V30 5102 H 500.259 -1.48719 -0.553937 0
M  V30 5103 H 500.28 -2.02517 -3.22129 0
M  V30 5104 H 499.792 -3.34747 -1.96383 0
M  V30 5105 H 497.893 -1.38635 -3.45848 0
M  V30 5106 H 498.006 -3.27008 -3.50146 0
M  V30 5107 H 496.37 -1.66648 -1.92615 0
M  V30 5108 H 497.153 -3.19625 -1.25279 0
M  V30 5109 N 499.598 0.982988 -1.23187 0
M  V30 5110 C 500.508 2.10907 -1.02739 0
M  V30 5111 C 501.524 1.73979 0.0273188 0
M  V30 5112 O 502.7 2.00702 -0.16757 0
M  V30 5113 C 499.765 3.41142 -0.618304 0
M  V30 5114 C 498.826 3.92112 -1.74777 0
M  V30 5115 C 498.059 5.16131 -1.3581 0
M  V30 5116 O 498.282 5.6989 -0.241201 0
M  V30 5117 O 497.216 5.61103 -2.17824 0
M  V30 5118 H 501.042 2.31046 -1.97108 0
M  V30 5119 H 498.627 1.09284 -1.01869 0
M  V30 5120 H 500.509 4.19488 -0.400982 0
M  V30 5121 H 499.184 3.2234 0.296421 0
M  V30 5122 H 498.091 3.14895 -2.0197 0
M  V30 5123 H 499.424 4.15364 -2.64071 0
M  V30 5124 N 501.076 1.04316 1.18135 0
M  V30 5125 C 502.323 0.74802 1.88178 0
M  V30 5126 C 502.651 -0.72441 1.80506 0
M  V30 5127 O 501.906 -1.54463 1.20165 0
M  V30 5128 C 502.205 1.16271 3.37958 0
M  V30 5129 C 501.871 2.63585 3.65833 0
M  V30 5130 C 500.533 3.03829 3.73151 0
M  V30 5131 C 502.885 3.58822 3.78016 0
M  V30 5132 C 500.213 4.38194 3.90132 0
M  V30 5133 C 502.565 4.92909 3.96514 0
M  V30 5134 C 501.229 5.3282 4.02068 0
M  V30 5135 H 500.499 0.27372 0.688592 0
M  V30 5136 H 503.146 1.30863 1.39811 0
M  V30 5137 H 501.451 0.520938 3.88321 0
M  V30 5138 H 503.148 0.911672 3.90499 0
M  V30 5139 H 499.738 2.31414 3.60757 0
M  V30 5140 H 503.922 3.28875 3.71692 0
M  V30 5141 H 499.178 4.68631 3.92677 0
M  V30 5142 H 503.352 5.66606 4.04883 0
M  V30 5143 H 500.979 6.36943 4.14979 0
M  V30 5144 N 502.554 -1.34406 0.822964 0
M  V30 5145 C 503.97 -1.51275 0.508727 0
M  V30 5146 C 504.17 -1.76776 -0.967083 0
M  V30 5147 O 503.226 -1.81871 -1.75155 0
M  V30 5148 C 504.539 -2.67765 1.36829 0
M  V30 5149 C 506.087 -2.81647 1.36542 0
M  V30 5150 C 506.562 -4.01181 2.20947 0
M  V30 5151 N 508.053 -4.08388 2.18571 0
M  V30 5152 C 508.788 -5.00036 2.80627 0
M  V30 5153 N 508.284 -5.96906 3.51674 0
M  V30 5154 N 510.077 -4.92908 2.70181 0
M  V30 5155 H 502.228 -1.16113 1.77852 0
M  V30 5156 H 504.491 -0.56947 0.757897 0
M  V30 5157 H 504.197 -2.55551 2.41633 0
M  V30 5158 H 504.071 -3.62779 1.03303 0
M  V30 5159 H 506.458 -2.93303 0.325163 0
M  V30 5160 H 506.539 -1.87443 1.74066 0
M  V30 5161 H 506.183 -3.90286 3.25022 0
M  V30 5162 H 506.113 -4.94599 1.80774 0
M  V30 5163 H 508.604 -3.39051 1.66891 0
M  V30 5164 H 508.917 -6.63468 3.96271 0
M  V30 5165 H 507.262 -5.9703 3.5578 0
M  V30 5166 H 510.453 -4.1619 2.14251 0
M  V30 5167 H 510.626 -5.64137 3.18831 0
M  V30 5168 N 504.032 -0.577932 -1.46621 0
M  V30 5169 C 505.278 -0.0617793 -2.02706 0
M  V30 5170 C 505.611 1.29294 -1.44903 0
M  V30 5171 O 504.886 1.8461 -0.61232 0
M  V30 5172 C 505.169 0.00911824 -3.60099 0
M  V30 5173 C 505.022 -1.37416 -4.28295 0
M  V30 5174 C 506.341 0.712159 -4.343 0
M  V30 5175 H 503.46 -0.0239246 -0.736612 0
M  V30 5176 H 506.102 -0.744211 -1.74818 0
M  V30 5177 H 504.252 0.590292 -3.83989 0
M  V30 5178 H 505.924 -2.00013 -4.15683 0
M  V30 5179 H 504.167 -1.94319 -3.87843 0
M  V30 5180 H 504.838 -1.27707 -5.37024 0
M  V30 5181 H 507.314 0.218486 -4.15526 0
M  V30 5182 H 506.19 0.730782 -5.44014 0
M  V30 5183 H 506.451 1.77251 -4.05012 0
M  V30 5184 N 505.51 1.54411 -0.315457 0
M  V30 5185 C 506.458 2.25514 0.569771 0
M  V30 5186 C 507.452 1.2663 1.12522 0
M  V30 5187 O 508.658 1.44434 1.07419 0
M  V30 5188 H 505.033 0.724257 0.202376 0
M  V30 5189 H 507.004 2.98354 -0.0522895 0
M  V30 5190 C 505.753 3.02004 1.72305 0
M  V30 5191 H 505.076 3.77906 1.30488 0
M  V30 5192 H 506.516 3.55014 2.31821 0
M  V30 5193 C 504.975 2.09822 2.63583 0
M  V30 5194 O 505.505 1.67574 3.65078 0
M  V30 5195 N 503.711 1.75478 2.31637 0
M  V30 5196 H 503.258 2.10032 1.49145 0
M  V30 5197 H 503.216 1.14079 2.92973 0
M  V30 5198 N 506.988 0.0434614 1.5754 0
M  V30 5199 C 507.918 -0.931651 2.14109 0
M  V30 5200 C 508.899 -1.32971 1.06079 0
M  V30 5201 O 510.084 -1.40579 1.33982 0
M  V30 5202 C 507.214 -2.20914 2.67982 0
M  V30 5203 C 506.168 -1.95139 3.80926 0
M  V30 5204 C 505.494 -3.29276 4.21285 0
M  V30 5205 C 506.794 -1.27913 5.06395 0
M  V30 5206 H 508.488 -0.460497 2.95837 0
M  V30 5207 H 506.034 -0.220058 1.42309 0
M  V30 5208 H 507.987 -2.89522 3.06194 0
M  V30 5209 H 506.711 -2.70221 1.83434 0
M  V30 5210 H 505.37 -1.28945 3.43175 0
M  V30 5211 H 505.018 -3.76369 3.33699 0
M  V30 5212 H 504.718 -3.12831 4.97404 0
M  V30 5213 H 506.242 -3.99129 4.62091 0
M  V30 5214 H 507.656 -1.86544 5.42102 0
M  V30 5215 H 506.053 -1.2182 5.87605 0
M  V30 5216 H 507.123 -0.254066 4.84234 0
M  V30 5217 N 508.466 -1.55915 -0.229846 0
M  V30 5218 C 509.694 -1.82617 -0.972562 0
M  V30 5219 C 510.109 -0.621488 -1.78278 0
M  V30 5220 O 509.466 0.409956 -1.77836 0
M  V30 5221 C 509.517 -3.0774 -1.89679 0
M  V30 5222 O 509.238 -4.23559 -1.11934 0
M  V30 5223 C 510.739 -3.47368 -2.75409 0
M  V30 5224 H 507.959 -0.60727 -0.285419 0
M  V30 5225 H 510.503 -2.02996 -0.247579 0
M  V30 5226 H 508.658 -2.89361 -2.57583 0
M  V30 5227 H 509.072 -4.94586 -1.74599 0
M  V30 5228 H 510.546 -4.37977 -3.35977 0
M  V30 5229 H 511.023 -2.68737 -3.47386 0
M  V30 5230 H 511.629 -3.68158 -2.12931 0
M  V30 5231 N 509.944 0.496216 -1.49584 0
M  V30 5232 C 510.874 1.60576 -1.69521 0
M  V30 5233 C 511.855 1.61169 -0.543933 0
M  V30 5234 O 513.04 1.77834 -0.78031 0
M  V30 5235 C 510.17 2.99038 -1.76616 0
M  V30 5236 C 509.124 3.13312 -2.91581 0
M  V30 5237 C 508.45 4.53172 -2.83794 0
M  V30 5238 C 509.75 2.92886 -4.32452 0
M  V30 5239 H 511.444 1.44146 -2.62416 0
M  V30 5240 H 508.99 0.692024 -1.26282 0
M  V30 5241 H 510.943 3.76564 -1.8915 0
M  V30 5242 H 509.667 3.16568 -0.80324 0
M  V30 5243 H 508.326 2.38213 -2.78658 0
M  V30 5244 H 507.974 4.67585 -1.854 0
M  V30 5245 H 507.674 4.63662 -3.60958 0
M  V30 5246 H 509.198 5.32752 -2.98342 0
M  V30 5247 H 510.612 3.60178 -4.46032 0
M  V30 5248 H 509.009 3.14844 -5.10875 0
M  V30 5249 H 510.079 1.88966 -4.46565 0
M  V30 5250 N 511.423 1.38739 0.74761 0
M  V30 5251 C 512.839 1.20067 1.05148 0
M  V30 5252 C 513.039 0.0534835 2.01429 0
M  V30 5253 O 512.095 -0.59886 2.45296 0
M  V30 5254 C 513.408 2.52957 1.62584 0
M  V30 5255 C 514.956 2.59692 1.74726 0
M  V30 5256 C 515.431 3.92772 2.35573 0
M  V30 5257 N 516.922 3.94343 2.42997 0
M  V30 5258 C 517.657 4.9408 2.90985 0
M  V30 5259 N 517.153 6.04214 3.38965 0
M  V30 5260 N 518.946 4.81466 2.9008 0
M  V30 5261 H 511.097 2.12121 0.108808 0
M  V30 5262 H 513.36 0.941491 0.110899 0
M  V30 5263 H 513.066 3.37389 0.993051 0
M  V30 5264 H 512.94 2.71779 2.61565 0
M  V30 5265 H 515.327 1.75651 2.3713 0
M  V30 5266 H 515.408 2.44731 0.744326 0
M  V30 5267 H 515.052 4.77238 1.738 0
M  V30 5268 H 514.982 4.05046 3.36519 0
M  V30 5269 H 517.473 3.14799 2.0907 0
M  V30 5270 H 517.786 6.76241 3.74056 0
M  V30 5271 H 516.131 6.07825 3.37007 0
M  V30 5272 H 519.322 3.94535 2.51912 0
M  V30 5273 H 519.495 5.59344 3.27166 0
M  V30 5274 N 512.901 -0.976442 1.23707 0
M  V30 5275 C 514.147 -1.72158 1.08319 0
M  V30 5276 C 514.502 -1.88701 -0.375445 0
M  V30 5277 O 513.795 -1.43107 -1.274 0
M  V30 5278 C 513.989 -3.11814 1.74662 0
M  V30 5279 C 513.818 -3.08892 3.26827 0
M  V30 5280 C 512.588 -3.13861 3.96004 0
M  V30 5281 C 514.786 -2.9175 4.2354 0
M  V30 5282 N 512.768 -3.00867 5.35119 0
M  V30 5283 C 514.139 -2.8696 5.49595 0
M  V30 5284 C 516.194 -2.76265 4.14225 0
M  V30 5285 C 514.897 -2.68268 6.67401 0
M  V30 5286 C 516.923 -2.58938 5.317 0
M  V30 5287 C 516.285 -2.54849 6.56682 0
M  V30 5288 H 512.384 -0.638896 0.450927 0
M  V30 5289 H 514.968 -1.15835 1.56494 0
M  V30 5290 H 513.139 -3.66347 1.29014 0
M  V30 5291 H 514.871 -3.74984 1.52215 0
M  V30 5292 H 511.626 -3.22198 3.4711 0
M  V30 5293 H 512.05 -2.97634 6.08065 0
M  V30 5294 H 516.692 -2.78213 3.18366 0
M  V30 5295 H 514.41 -2.65063 7.63392 0
M  V30 5296 H 517.996 -2.47914 5.26336 0
M  V30 5297 H 516.876 -2.41611 7.46052 0
M  V30 5298 N 514.379 -1.04941 -1.1758 0
M  V30 5299 C 515.604 -0.778253 -1.92245 0
M  V30 5300 C 516.029 0.659707 -1.76152 0
M  V30 5301 O 515.387 1.45803 -1.07755 0
M  V30 5302 C 515.435 -1.16051 -3.41416 0
M  V30 5303 O 514.539 -0.291153 -4.11371 0
M  V30 5304 H 513.88 -0.285619 -0.599431 0
M  V30 5305 H 516.41 -1.40159 -1.49052 0
M  V30 5306 H 516.42 -1.12619 -3.92149 0
M  V30 5307 H 515.095 -2.208 -3.52449 0
M  V30 5308 H 513.672 -0.385851 -3.70898 0
M  V30 5309 N 515.857 1.33968 -0.830081 0
M  V30 5310 C 517.104 1.98063 -0.421566 0
M  V30 5311 C 517.432 1.65787 1.0171 0
M  V30 5312 O 516.687 0.925348 1.72441 0
M  V30 5313 C 516.986 3.52679 -0.57898 0
M  V30 5314 C 516.652 4.04884 -1.98443 0
M  V30 5315 C 515.314 4.18852 -2.36888 0
M  V30 5316 C 517.666 4.32879 -2.90285 0
M  V30 5317 C 514.994 4.58145 -3.66497 0
M  V30 5318 C 517.346 4.7362 -4.19364 0
M  V30 5319 C 516.01 4.85794 -4.57778 0
M  V30 5320 H 515.28 0.724765 -0.154262 0
M  V30 5321 H 517.927 1.59792 -1.05541 0
M  V30 5322 H 516.232 3.91556 0.138219 0
M  V30 5323 H 517.929 4.00261 -0.243317 0
M  V30 5324 H 514.519 3.9448 -1.67581 0
M  V30 5325 H 518.703 4.21619 -2.61823 0
M  V30 5326 H 513.959 4.65762 -3.96075 0
M  V30 5327 H 518.133 4.9424 -4.90612 0
M  V30 5328 H 515.76 5.15998 -5.58256 0
M  V30 5329 N 517.335 0.585699 1.46312 0
M  V30 5330 C 518.56 0.0762461 2.0726 0
M  V30 5331 C 518.985 -1.22071 1.43109 0
M  V30 5332 O 518.343 -1.73804 0.515942 0
M  V30 5333 C 518.391 -0.0729404 3.60526 0
M  V30 5334 O 517.495 -1.1287 3.96654 0
M  V30 5335 H 516.836 0.0641558 0.660893 0
M  V30 5336 H 519.366 0.809492 1.87905 0
M  V30 5337 H 519.376 -0.278158 4.07051 0
M  V30 5338 H 518.051 0.874188 4.06609 0
M  V30 5339 H 516.628 -0.901703 3.61834 0
M  V30 5340 N 518.813 -1.54241 0.323641 0
M  V30 5341 C 519.761 -2.25813 -0.557804 0
M  V30 5342 C 520.755 -1.27225 -1.11849 0
M  V30 5343 O 521.961 -1.45001 -1.06652 0
M  V30 5344 H 518.336 -0.72532 -0.198532 0
M  V30 5345 H 520.307 -2.98322 0.0681112 0
M  V30 5346 C 519.056 -3.02913 -1.70701 0
M  V30 5347 H 518.379 -3.78593 -1.28482 0
M  V30 5348 H 519.819 -3.56238 -2.29935 0
M  V30 5349 C 518.278 -2.11217 -2.62467 0
M  V30 5350 O 518.808 -1.69508 -3.64184 0
M  V30 5351 N 517.014 -1.76704 -2.30703 0
M  V30 5352 H 516.561 -2.1082 -1.48029 0
M  V30 5353 H 516.519 -1.15631 -2.92364 0
M  V30 5354 N 520.291 -0.0518155 -1.57515 0
M  V30 5355 C 521.539 0.620595 -1.92336 0
M  V30 5356 C 521.86 1.71345 -0.930907 0
M  V30 5357 O 521.13 1.95885 0.0241341 0
M  V30 5358 H 519.71 0.232226 -0.709986 0
M  V30 5359 H 522.372 -0.104969 -1.94617 0
M  V30 5360 H 521.468 1.05879 -2.93592 0
M  V30 5361 N 521.769 1.56035 0.221574 0
M  V30 5362 C 522.997 1.8313 0.962864 0
M  V30 5363 C 523.412 0.630934 1.77946 0
M  V30 5364 O 522.769 -0.400519 1.78051 0
M  V30 5365 C 522.82 3.08742 1.88045 0
M  V30 5366 O 522.541 4.24147 1.09686 0
M  V30 5367 C 524.042 3.48824 2.73563 0
M  V30 5368 H 521.262 0.608775 0.282194 0
M  V30 5369 H 523.806 2.03124 0.23681 0
M  V30 5370 H 521.961 2.90723 2.56045 0
M  V30 5371 H 522.375 4.95505 1.71974 0
M  V30 5372 H 523.849 4.39752 3.3365 0
M  V30 5373 H 524.326 2.70575 3.45956 0
M  V30 5374 H 524.932 3.69282 2.10976 0
M  V30 5375 N 523.247 -0.488276 1.49845 0
M  V30 5376 C 524.472 -1.26997 1.63971 0
M  V30 5377 C 524.897 -1.85427 0.315994 0
M  V30 5378 O 524.255 -1.66475 -0.718032 0
M  V30 5379 C 524.303 -2.36689 2.72049 0
M  V30 5380 O 523.407 -3.40882 2.32107 0
M  V30 5381 H 522.748 -0.374376 0.548396 0
M  V30 5382 H 525.278 -0.583104 1.96115 0
M  V30 5383 H 525.288 -2.82262 2.94605 0
M  V30 5384 H 523.963 -1.93529 3.68129 0
M  V30 5385 H 522.54 -3.01139 2.19931 0
M  V30 5386 N 524.725 -1.39134 -0.740242 0
M  V30 5387 C 525.971 -1.37278 -1.50088 0
M  V30 5388 C 526.326 0.0329967 -1.92372 0
M  V30 5389 O 525.619 0.998447 -1.63529 0
M  V30 5390 C 525.813 -2.27457 -2.75678 0
M  V30 5391 C 525.642 -3.76662 -2.45674 0
M  V30 5392 C 524.412 -4.45617 -2.38229 0
M  V30 5393 C 526.61 -4.6877 -2.11563 0
M  V30 5394 N 524.592 -5.80187 -2.00641 0
M  V30 5395 C 525.963 -5.91951 -1.84376 0
M  V30 5396 C 528.018 -4.56843 -1.97987 0
M  V30 5397 C 526.721 -7.04538 -1.4498 0
M  V30 5398 C 528.747 -5.69347 -1.59994 0
M  V30 5399 C 528.109 -6.91597 -1.33687 0
M  V30 5400 H 524.208 -0.557611 -0.548265 0
M  V30 5401 H 526.792 -1.74638 -0.860784 0
M  V30 5402 H 524.963 -1.92263 -3.37475 0
M  V30 5403 H 526.695 -2.16631 -3.41838 0
M  V30 5404 H 523.45 -3.98993 -2.5515 0
M  V30 5405 H 523.874 -6.51387 -1.84454 0
M  V30 5406 H 528.516 -3.62868 -2.16995 0
M  V30 5407 H 526.234 -7.98419 -1.24712 0
M  V30 5408 H 529.82 -5.62104 -1.50102 0
M  V30 5409 H 528.7 -7.77176 -1.04728 0
M  V30 5410 N 526.204 0.969867 -1.24223 0
M  V30 5411 C 527.62 1.23809 -1.00716 0
M  V30 5412 C 527.82 1.99469 0.285358 0
M  V30 5413 O 526.876 2.31764 1.00207 0
M  V30 5414 C 528.189 2.02734 -2.2208 0
M  V30 5415 C 529.737 2.15834 -2.26681 0
M  V30 5416 C 530.212 2.98154 -3.47661 0
M  V30 5417 N 531.703 3.05737 -3.47964 0
M  V30 5418 C 532.438 3.69785 -4.38231 0
M  V30 5419 N 531.934 4.35569 -5.3875 0
M  V30 5420 N 533.727 3.66775 -4.25949 0
M  V30 5421 H 525.878 0.463294 -2.07286 0
M  V30 5422 H 528.141 0.267348 -0.909521 0
M  V30 5423 H 527.847 1.54524 -3.15935 0
M  V30 5424 H 527.721 3.0347 -2.24021 0
M  V30 5425 H 530.108 2.63248 -1.33359 0
M  V30 5426 H 530.189 1.14453 -2.28767 0
M  V30 5427 H 529.833 2.51435 -4.41297 0
M  V30 5428 H 529.763 3.99729 -3.42818 0
M  V30 5429 H 532.254 2.58941 -2.75242 0
M  V30 5430 H 532.567 4.82251 -6.03866 0
M  V30 5431 H 530.912 4.34244 -5.42639 0
M  V30 5432 H 534.103 3.14558 -3.46657 0
M  V30 5433 H 534.276 4.16407 -4.96497 0
M  V30 5434 N 527.682 1.05563 1.17022 0
M  V30 5435 C 528.629 0.659893 2.21165 0
M  V30 5436 C 529.599 -0.339813 1.62587 0
M  V30 5437 O 530.784 -0.230378 1.89404 0
M  V30 5438 C 527.924 0.0447297 3.45071 0
M  V30 5439 C 527.037 1.09372 4.17926 0
M  V30 5440 C 526.172 0.445481 5.29329 0
M  V30 5441 C 525.211 1.47852 5.93975 0
M  V30 5442 N 524.348 0.854172 6.96885 0
M  V30 5443 H 529.188 1.55243 2.54369 0
M  V30 5444 H 526.725 0.776336 1.24946 0
M  V30 5445 H 528.683 -0.329404 4.15898 0
M  V30 5446 H 527.313 -0.811244 3.1244 0
M  V30 5447 H 526.365 1.58564 3.45777 0
M  V30 5448 H 527.677 1.87773 4.62107 0
M  V30 5449 H 526.831 0.0179688 6.06697 0
M  V30 5450 H 525.57 -0.370481 4.86291 0
M  V30 5451 H 524.575 1.91601 5.15334 0
M  V30 5452 H 525.8 2.29645 6.39093 0
M  V30 5453 H 523.746 0.0587882 6.55974 0
M  V30 5454 H 523.663 1.57567 7.39397 0
M  V30 5455 H 524.931 0.451559 7.78191 0
M  V30 5456 N 529.16 -1.33526 0.837174 0
M  V30 5457 C 530.07 -2.33023 0.271568 0
M  V30 5458 C 531.086 -1.63272 -0.601514 0
M  V30 5459 O 532.262 -1.94939 -0.506038 0
M  V30 5460 C 529.327 -3.42382 -0.545448 0
M  V30 5461 C 528.388 -4.27857 0.351709 0
M  V30 5462 C 527.621 -5.31994 -0.426409 0
M  V30 5463 O 527.844 -5.45763 -1.65828 0
M  V30 5464 O 526.778 -6.01572 0.1987 0
M  V30 5465 H 530.604 -2.83256 1.09545 0
M  V30 5466 H 528.189 -1.36837 0.599655 0
M  V30 5467 H 530.071 -4.09122 -1.00979 0
M  V30 5468 H 528.746 -2.94369 -1.34641 0
M  V30 5469 H 527.653 -3.6399 0.863853 0
M  V30 5470 H 528.986 -4.79349 1.1174 0
M  V30 5471 N 530.638 -0.59345 -1.46 0
M  V30 5472 C 531.866 -0.0890934 -2.06708 0
M  V30 5473 C 532.281 1.2205 -1.44046 0
M  V30 5474 O 531.638 1.74029 -0.549551 0
M  V30 5475 C 531.689 0.0720263 -3.61428 0
M  V30 5476 O 531.41 -1.18574 -4.21748 0
M  V30 5477 C 532.911 0.609487 -4.3909 0
M  V30 5478 H 530.131 -0.0623628 -0.668096 0
M  V30 5479 H 532.675 -0.817171 -1.87464 0
M  V30 5480 H 530.83 0.750369 -3.80063 0
M  V30 5481 H 531.244 -1.0064 -5.14754 0
M  V30 5482 H 532.718 0.671363 -5.47902 0
M  V30 5483 H 533.195 1.62878 -4.07882 0
M  V30 5484 H 533.801 -0.03434 -4.25286 0
M  V30 5485 N 532.116 1.54067 -0.331816 0
M  V30 5486 C 533.362 2.01012 0.268667 0
M  V30 5487 C 533.695 1.2195 1.51136 0
M  V30 5488 O 532.97 0.303972 1.9211 0
M  V30 5489 C 533.253 3.55158 0.59456 0
M  V30 5490 C 533.106 4.4494 -0.659409 0
M  V30 5491 C 534.425 4.16939 1.4089 0
M  V30 5492 H 531.544 0.730698 0.0961756 0
M  V30 5493 H 534.186 1.84593 -0.450031 0
M  V30 5494 H 532.336 3.6928 1.20685 0
M  V30 5495 H 534.008 4.42675 -1.29756 0
M  V30 5496 H 532.251 4.1428 -1.28665 0
M  V30 5497 H 532.922 5.50643 -0.386804 0
M  V30 5498 H 535.398 4.06443 0.891272 0
M  V30 5499 H 534.274 5.24889 1.60569 0
M  V30 5500 H 534.535 3.70798 2.40752 0
M  V30 5501 N 533.594 0.0601682 1.57485 0
M  V30 5502 C 534.526 -0.94047 2.09016 0
M  V30 5503 C 535.539 -1.26897 1.01985 0
M  V30 5504 O 536.728 -1.22819 1.29529 0
M  V30 5505 C 533.828 -2.25955 2.52582 0
M  V30 5506 C 533.001 -2.11163 3.83052 0
M  V30 5507 C 532.06 -3.26273 4.12835 0
M  V30 5508 O 531.086 -3.01779 4.82616 0
M  V30 5509 N 532.288 -4.51022 3.65458 0
M  V30 5510 H 535.053 -0.500578 2.9549 0
M  V30 5511 H 532.614 -0.125852 1.6141 0
M  V30 5512 H 534.606 -3.01846 2.69575 0
M  V30 5513 H 533.176 -2.61481 1.71308 0
M  V30 5514 H 532.396 -1.19808 3.75552 0
M  V30 5515 H 533.684 -1.98517 4.68475 0
M  V30 5516 H 533.082 -4.73811 3.09062 0
M  V30 5517 H 531.639 -5.23978 3.87673 0
M  V30 5518 N 535.072 -1.5615 -0.213296 0
M  V30 5519 C 536.002 -1.96109 -1.26742 0
M  V30 5520 C 536.983 -0.830448 -1.48451 0
M  V30 5521 O 538.168 -1.09339 -1.60495 0
M  V30 5522 C 535.298 -2.28492 -2.61551 0
M  V30 5523 C 534.252 -3.44124 -2.54485 0
M  V30 5524 C 533.578 -3.62134 -3.93399 0
M  V30 5525 C 534.878 -4.78855 -2.08556 0
M  V30 5526 H 536.572 -2.84412 -0.935434 0
M  V30 5527 H 534.118 -1.36836 -0.44854 0
M  V30 5528 H 536.071 -2.55039 -3.3546 0
M  V30 5529 H 534.795 -1.37052 -2.96453 0
M  V30 5530 H 533.454 -3.17639 -1.83033 0
M  V30 5531 H 533.102 -2.68055 -4.25623 0
M  V30 5532 H 532.802 -4.39913 -3.89551 0
M  V30 5533 H 534.326 -3.91038 -4.68958 0
M  V30 5534 H 535.74 -5.04552 -2.72213 0
M  V30 5535 H 534.137 -5.59975 -2.1575 0
M  V30 5536 H 535.207 -4.73657 -1.03811 0
M  V30 5537 N 536.55 0.480323 -1.50102 0
M  V30 5538 C 537.796 1.23208 -1.61837 0
M  V30 5539 C 538.151 1.89878 -0.310509 0
M  V30 5540 O 537.444 1.7871 0.690897 0
M  V30 5541 C 537.638 2.30708 -2.72963 0
M  V30 5542 C 537.467 1.74583 -4.14428 0
M  V30 5543 C 536.237 1.54964 -4.80951 0
M  V30 5544 C 538.435 1.24597 -4.98979 0
M  V30 5545 N 536.417 0.939855 -6.06663 0
M  V30 5546 C 537.788 0.758834 -6.15339 0
M  V30 5547 C 539.843 1.13365 -4.84822 0
M  V30 5548 C 538.546 0.17046 -7.19098 0
M  V30 5549 C 540.572 0.559221 -5.8875 0
M  V30 5550 C 539.934 0.082415 -7.04352 0
M  V30 5551 H 536.033 0.440065 -0.646426 0
M  V30 5552 H 538.617 0.535632 -1.87187 0
M  V30 5553 H 536.788 2.9779 -2.4935 0
M  V30 5554 H 538.52 2.97738 -2.74106 0
M  V30 5555 H 535.275 1.79926 -4.38091 0
M  V30 5556 H 535.699 0.653641 -6.73837 0
M  V30 5557 H 540.341 1.48823 -3.95742 0
M  V30 5558 H 538.059 -0.196347 -8.07861 0
M  V30 5559 H 541.645 0.474804 -5.79859 0
M  V30 5560 H 540.525 -0.355119 -7.83396 0
M  V30 5561 N 538.028 1.39524 0.732853 0
M  V30 5562 C 539.439 1.32905 1.31122 0
M  V30 5563 C 539.79 -0.00558708 1.96199 0
M  V30 5564 O 538.915 -0.907706 1.96443 0
M  V30 5565 C 539.51 2.40704 2.38426 0
M  V30 5566 C 538.069 2.37599 2.91931 0
M  V30 5567 C 537.216 2.2248 1.65523 0
M  V30 5568 H 540.167 1.49581 0.530207 0
M  V30 5569 H 540.188 2.07616 3.18867 0
M  V30 5570 H 539.7 3.37829 1.91033 0
M  V30 5571 H 537.801 1.44119 3.43599 0
M  V30 5572 H 537.914 3.32538 3.44899 0
M  V30 5573 H 536.278 1.69691 1.8994 0
M  V30 5574 H 537.061 3.21577 1.20178 0
M  V30 5575 N 539.506 -0.963266 1.24736 0
M  V30 5576 C 540.754 -1.70343 1.08755 0
M  V30 5577 C 541.075 -1.91387 -0.373619 0
M  V30 5578 O 540.345 -1.4948 -1.2662 0
M  V30 5579 H 538.925 -0.631224 0.399456 0
M  V30 5580 H 541.587 -1.15859 1.56725 0
M  V30 5581 H 540.683 -2.68616 1.58909 0
M  V30 5582 N 540.985 -1.06182 -1.16461 0
M  V30 5583 C 542.396 -0.802426 -1.68576 0
M  V30 5584 C 542.747 0.67412 -1.84255 0
M  V30 5585 O 541.872 1.52303 -1.5373 0
M  V30 5586 C 542.467 -1.45002 -3.06202 0
M  V30 5587 C 541.026 -1.23843 -3.55443 0
M  V30 5588 C 540.173 -1.52724 -2.31454 0
M  V30 5589 H 543.124 -1.22545 -1.00839 0
M  V30 5590 H 543.145 -0.864731 -3.70544 0
M  V30 5591 H 542.657 -2.52466 -2.94759 0
M  V30 5592 H 540.758 -0.183487 -3.72148 0
M  V30 5593 H 540.871 -1.95036 -4.37604 0
M  V30 5594 H 539.235 -0.947726 -2.36411 0
M  V30 5595 H 540.018 -2.61343 -2.22609 0
M  V30 5596 N 542.463 1.3308 -0.844243 0
M  V30 5597 C 543.688 2.02341 -0.455282 0
M  V30 5598 C 544.113 1.6308 0.93737 0
M  V30 5599 O 543.471 0.826118 1.61385 0
M  V30 5600 C 543.519 3.55743 -0.58988 0
M  V30 5601 O 542.623 4.1063 0.38166 0
M  V30 5602 H 541.964 0.637898 -0.184343 0
M  V30 5603 H 544.494 1.6986 -1.14056 0
M  V30 5604 H 544.504 4.05243 -0.473522 0
M  V30 5605 H 543.179 3.83662 -1.60549 0
M  V30 5606 H 541.756 3.72236 0.22241 0
M  V30 5607 N 543.941 0.601185 1.45683 0
M  V30 5608 C 545.189 0.0936957 2.01883 0
M  V30 5609 C 545.51 -1.2779 1.47291 0
M  V30 5610 O 544.78 -1.84279 0.664691 0
M  V30 5611 H 543.36 0.0316466 0.746329 0
M  V30 5612 H 546.022 0.781137 1.78562 0
M  V30 5613 H 545.118 0.0386297 3.12076 0
M  V30 5614 N 545.419 -1.53889 0.339982 0
M  V30 5615 C 546.649 -2.04973 -0.258738 0
M  V30 5616 C 547.057 -1.21485 -1.45045 0
M  V30 5617 O 546.4 -0.2422 -1.82096 0
M  V30 5618 C 546.462 -3.51783 -0.740853 0
M  V30 5619 C 546.126 -4.55802 0.330734 0
M  V30 5620 C 547.123 -5.06512 1.17226 0
M  V30 5621 C 544.808 -4.99966 0.483637 0
M  V30 5622 C 546.802 -5.99963 2.15227 0
M  V30 5623 C 544.489 -5.93229 1.46704 0
M  V30 5624 C 545.487 -6.43115 2.29981 0
M  V30 5625 O 545.175 -7.34545 3.26649 0
M  V30 5626 H 544.907 -0.673807 -0.0544037 0
M  V30 5627 H 547.461 -1.99492 0.489107 0
M  V30 5628 H 545.691 -3.54717 -1.53988 0
M  V30 5629 H 547.38 -3.85857 -1.25973 0
M  V30 5630 H 548.146 -4.73158 1.0652 0
M  V30 5631 H 544.025 -4.6074 -0.15471 0
M  V30 5632 H 547.569 -6.38825 2.80265 0
M  V30 5633 H 543.466 -6.25998 1.57468 0
M  V30 5634 H 544.234 -7.52468 3.22078 0
M  V30 5635 N 546.897 -0.0685191 -1.57451 0
M  V30 5636 C 548.122 0.613919 -1.98106 0
M  V30 5637 C 548.547 1.62551 -0.946501 0
M  V30 5638 O 547.905 1.81085 0.0882824 0
M  V30 5639 C 547.953 1.26189 -3.378 0
M  V30 5640 O 547.057 2.37773 -3.36954 0
M  V30 5641 H 546.398 0.158163 -0.644888 0
M  V30 5642 H 548.928 -0.142063 -2.04106 0
M  V30 5643 H 548.938 1.60951 -3.74912 0
M  V30 5644 H 547.613 0.520625 -4.12629 0
M  V30 5645 H 546.19 2.04829 -3.11608 0
M  V30 5646 N 548.375 1.56261 0.205012 0
M  V30 5647 C 549.6 1.84491 0.947512 0
M  V30 5648 C 550.025 0.650894 1.76479 0
M  V30 5649 O 549.383 -0.40035 1.76824 0
M  V30 5650 C 549.431 3.10863 1.82747 0
M  V30 5651 O 548.535 2.90719 2.925 0
M  V30 5652 H 547.876 0.607783 0.267386 0
M  V30 5653 H 550.406 2.03485 0.213323 0
M  V30 5654 H 550.416 3.41399 2.23407 0
M  V30 5655 H 549.091 3.97392 1.2269 0
M  V30 5656 H 547.668 2.71457 2.55667 0
M  V30 5657 N 549.853 -0.472356 1.50355 0
M  V30 5658 C 550.783 -1.57859 1.72055 0
M  V30 5659 C 551.764 -1.60283 0.569505 0
M  V30 5660 O 552.949 -1.7657 0.808503 0
M  V30 5661 C 550.079 -2.96191 1.81351 0
M  V30 5662 C 549.033 -3.08633 2.96529 0
M  V30 5663 C 548.359 -4.486 2.90968 0
M  V30 5664 C 549.659 -2.85969 4.37057 0
M  V30 5665 H 551.353 -1.39953 2.64676 0
M  V30 5666 H 548.899 -0.671846 1.27367 0
M  V30 5667 H 550.852 -3.73507 1.95117 0
M  V30 5668 H 549.576 -3.15251 0.853502 0
M  V30 5669 H 548.235 -2.33749 2.82413 0
M  V30 5670 H 547.883 -4.64577 1.92815 0
M  V30 5671 H 547.583 -4.57861 3.68289 0
M  V30 5672 H 549.107 -5.27938 3.0678 0
M  V30 5673 H 550.521 -3.53036 4.51706 0
M  V30 5674 H 548.918 -3.06677 5.15819 0
M  V30 5675 H 549.988 -1.81838 4.49514 0
M  V30 5676 N 551.331 -1.39911 -0.725443 0
M  V30 5677 C 552.294 -1.39156 -1.82121 0
M  V30 5678 C 553.294 -0.287018 -1.58218 0
M  V30 5679 O 554.484 -0.545421 -1.65441 0
M  V30 5680 C 551.616 -1.1736 -3.20062 0
M  V30 5681 H 552.809 -2.36672 -1.84191 0
M  V30 5682 H 550.362 -1.25615 -0.930079 0
M  V30 5683 H 551.097 -0.205648 -3.23647 0
M  V30 5684 H 550.882 -1.97358 -3.3881 0
M  V30 5685 H 552.372 -1.19596 -4.00108 0
M  V30 5686 N 552.809 0.956637 -1.25245 0
M  V30 5687 C 554.037 1.73571 -1.12608 0
M  V30 5688 C 554.452 1.86063 0.320324 0
M  V30 5689 O 553.809 1.35691 1.22042 0
M  V30 5690 C 553.86 3.15053 -1.77268 0
M  V30 5691 O 553.581 3.03174 -3.16255 0
M  V30 5692 C 555.082 4.09248 -1.70386 0
M  V30 5693 H 552.302 0.543955 -0.392879 0
M  V30 5694 H 554.846 1.20031 -1.65568 0
M  V30 5695 H 553.001 3.65543 -1.28284 0
M  V30 5696 H 553.415 3.9241 -3.48015 0
M  V30 5697 H 554.889 5.06138 -2.20291 0
M  V30 5698 H 555.366 4.34102 -0.667239 0
M  V30 5699 H 555.972 3.64672 -2.18849 0
M  V30 5700 N 554.287 1.06798 1.15896 0
M  V30 5701 C 555.217 0.704677 2.22613 0
M  V30 5702 C 556.198 -0.305252 1.67339 0
M  V30 5703 O 557.383 -0.179247 1.93371 0
M  V30 5704 C 554.513 0.0957325 3.47168 0
M  V30 5705 C 553.467 1.0322 4.15367 0
M  V30 5706 C 552.793 0.286293 5.33933 0
M  V30 5707 C 554.093 2.36341 4.65768 0
M  V30 5708 H 555.787 1.59688 2.53259 0
M  V30 5709 H 553.333 0.769257 1.21731 0
M  V30 5710 H 555.286 -0.170333 4.21056 0
M  V30 5711 H 554.01 -0.831516 3.15838 0
M  V30 5712 H 552.669 1.28309 3.43413 0
M  V30 5713 H 552.317 -0.644237 4.98857 0
M  V30 5714 H 552.017 0.910436 5.80504 0
M  V30 5715 H 553.541 0.0278938 6.10594 0
M  V30 5716 H 554.955 2.1561 5.31211 0
M  V30 5717 H 553.352 2.94299 5.2298 0
M  V30 5718 H 554.422 2.99047 3.81705 0
M  V30 5719 N 555.766 -1.3263 0.851289 0
M  V30 5720 C 556.676 -2.32722 0.296268 0
M  V30 5721 C 557.692 -1.63901 -0.584162 0
M  V30 5722 O 558.868 -1.95465 -0.485334 0
M  V30 5723 C 555.933 -3.42942 -0.509103 0
M  V30 5724 C 554.994 -4.2746 0.397069 0
M  V30 5725 C 554.227 -5.32416 -0.36996 0
M  V30 5726 O 554.45 -5.47491 -1.6003 0
M  V30 5727 O 553.384 -6.01327 0.262493 0
M  V30 5728 H 557.21 -2.82078 1.12543 0
M  V30 5729 H 554.795 -1.36194 0.614135 0
M  V30 5730 H 556.677 -4.1017 -0.96634 0
M  V30 5731 H 555.352 -2.95781 -1.31512 0
M  V30 5732 H 554.259 -3.63053 0.902411 0
M  V30 5733 H 555.592 -4.78136 1.16818 0
M  V30 5734 N 557.244 -0.608902 -1.45362 0
M  V30 5735 C 558.492 -0.104401 -2.0183 0
M  V30 5736 C 558.813 1.27007 -1.47967 0
M  V30 5737 O 558.083 1.83924 -0.674455 0
M  V30 5738 H 556.663 -0.0356042 -0.746151 0
M  V30 5739 H 559.325 -0.790596 -1.78145 0
M  V30 5740 H 558.421 -0.0551793 -3.12051 0
M  V30 5741 N 558.722 1.53707 -0.348139 0
M  V30 5742 C 559.947 2.05877 0.250883 0
M  V30 5743 C 560.372 1.22115 1.43072 0
M  V30 5744 O 559.73 0.235986 1.79758 0
M  V30 5745 C 559.778 3.54886 0.639416 0
M  V30 5746 O 558.882 3.73948 1.73888 0
M  V30 5747 H 558.223 0.662754 0.040653 0
M  V30 5748 H 560.753 1.98303 -0.503685 0
M  V30 5749 H 560.763 3.97601 0.915295 0
M  V30 5750 H 559.438 4.153 -0.223386 0
M  V30 5751 H 558.015 3.43134 1.45991 0
M  V30 5752 N 560.2 0.0768682 1.57412 0
M  V30 5753 C 561.133 -0.924685 2.08626 0
M  V30 5754 C 562.111 -1.28792 0.992542 0
M  V30 5755 O 563.295 -1.39634 1.26628 0
M  V30 5756 C 560.422 -2.23131 2.54814 0
M  V30 5757 C 559.468 -2.01928 3.75669 0
M  V30 5758 S 560.301 -1.27397 5.20125 0
M  V30 5759 C 561.457 -2.59329 5.69648 0
M  V30 5760 H 561.69 -0.488928 2.93252 0
M  V30 5761 H 559.223 -0.136014 1.538 0
M  V30 5762 H 561.181 -2.98226 2.82084 0
M  V30 5763 H 559.842 -2.63831 1.70447 0
M  V30 5764 H 559.035 -2.98639 4.05993 0
M  V30 5765 H 558.637 -1.34967 3.48798 0
M  V30 5766 H 560.929 -3.55394 5.76803 0
M  V30 5767 H 561.872 -2.33608 6.68456 0
M  V30 5768 H 562.28 -2.66767 4.9749 0
M  V30 5769 N 561.678 -1.56367 -0.196722 0
M  V30 5770 C 562.955 -1.71359 -0.943159 0
M  V30 5771 C 563.335 -0.631192 -2.01443 0
M  V30 5772 O 562.683 0.358071 -2.25677 0
M  V30 5773 C 562.893 -3.13623 -1.53106 0
M  V30 5774 C 564.241 -3.73806 -2.01381 0
M  V30 5775 O 565.265 -3.16742 -1.62951 0
M  V30 5776 O 564.124 -4.73951 -2.7209 0
M  V30 5777 H 561.218 -0.698851 -0.442195 0
M  V30 5778 H 563.764 -1.68672 -0.186547 0
M  V30 5779 H 562.536 -3.83873 -0.758785 0
M  V30 5780 H 562.159 -3.20532 -2.35255 0
M  V30 5781 N 563.156 0.464375 -1.50603 0
M  V30 5782 C 564.404 1.21356 -1.61608 0
M  V30 5783 C 564.725 1.92329 -0.321643 0
M  V30 5784 O 563.995 1.84403 0.661232 0
M  V30 5785 H 562.575 0.45094 -0.595535 0
M  V30 5786 H 565.237 0.535046 -1.87412 0
M  V30 5787 H 564.333 1.95783 -2.43054 0
M  V30 5788 N 564.634 1.40294 0.718013 0
M  V30 5789 C 565.544 1.42678 1.86226 0
M  V30 5790 C 566.56 0.319655 1.71039 0
M  V30 5791 O 567.736 0.563852 1.93346 0
M  V30 5792 C 564.801 1.2852 3.21999 0
M  V30 5793 C 563.862 2.49354 3.49458 0
M  V30 5794 C 563.095 2.35863 4.78753 0
M  V30 5795 O 563.318 1.37114 5.53675 0
M  V30 5796 O 562.252 3.25189 5.06494 0
M  V30 5797 H 566.078 2.39167 1.87171 0
M  V30 5798 H 563.663 1.2159 0.868112 0
M  V30 5799 H 565.545 1.22824 4.03103 0
M  V30 5800 H 564.22 0.351359 3.21787 0
M  V30 5801 H 563.127 2.60628 2.68373 0
M  V30 5802 H 564.46 3.41491 3.54464 0
M  V30 5803 N 566.112 -0.949982 1.2575 0
M  V30 5804 C 567.022 -2.08109 1.08295 0
M  V30 5805 C 568.038 -1.7399 0.0188181 0
M  V30 5806 O 569.214 -2.00187 0.220724 0
M  V30 5807 C 566.279 -3.39383 0.708534 0
M  V30 5808 C 565.34 -3.8734 1.85111 0
M  V30 5809 C 564.573 -5.12349 1.49447 0
M  V30 5810 O 564.796 -5.6905 0.392212 0
M  V30 5811 O 563.73 -5.5513 2.32624 0
M  V30 5812 H 567.556 -2.25738 2.03165 0
M  V30 5813 H 565.141 -1.06545 1.04731 0
M  V30 5814 H 567.023 -4.18277 0.512061 0
M  V30 5815 H 565.698 -3.23013 -0.210854 0
M  V30 5816 H 564.605 -3.09429 2.10248 0
M  V30 5817 H 565.938 -4.08216 2.74991 0
M  V30 5818 N 567.59 -1.07411 -1.15328 0
M  V30 5819 C 568.522 -0.652924 -2.19703 0
M  V30 5820 C 569.535 0.294869 -1.60107 0
M  V30 5821 O 570.724 0.0840932 -1.78302 0
M  V30 5822 C 567.824 0.061434 -3.38844 0
M  V30 5823 C 566.997 -0.902696 -4.27984 0
M  V30 5824 C 566.056 -0.225521 -5.25717 0
M  V30 5825 O 565.082 -0.86676 -5.62562 0
M  V30 5826 N 566.284 1.02858 -5.71315 0
M  V30 5827 H 569.049 -1.55081 -2.56457 0
M  V30 5828 H 566.61 -0.958883 -1.30449 0
M  V30 5829 H 568.602 0.525145 -4.01278 0
M  V30 5830 H 567.172 0.861269 -3.00501 0
M  V30 5831 H 566.392 -1.54551 -3.6264 0
M  V30 5832 H 567.68 -1.55636 -4.84412 0
M  V30 5833 H 567.078 1.56948 -5.43492 0
M  V30 5834 H 565.635 1.43596 -6.35786 0
M  V30 5835 N 569.068 1.32177 -0.85831 0
M  V30 5836 C 570.031 2.27086 -0.310588 0
M  V30 5837 C 571.031 1.51751 0.531806 0
M  V30 5838 O 572.221 1.70794 0.34279 0
M  V30 5839 C 569.353 3.36266 0.560179 0
M  V30 5840 H 570.546 2.77045 -1.1483 0
M  V30 5841 H 568.099 1.42911 -0.632942 0
M  V30 5842 H 568.834 2.9158 1.41956 0
M  V30 5843 H 568.619 3.92077 -0.0428473 0
M  V30 5844 H 570.109 4.06974 0.936056 0
M  V30 5845 N 570.547 0.616602 1.45037 0
M  V30 5846 C 571.958 0.199359 1.85633 0
M  V30 5847 C 572.309 -1.24588 1.51566 0
M  V30 5848 O 571.434 -1.94594 0.94668 0
M  V30 5849 C 572.029 0.355033 3.36935 0
M  V30 5850 C 570.588 -0.00758748 3.76399 0
M  V30 5851 C 569.735 0.675256 2.68953 0
M  V30 5852 H 572.686 0.822708 1.3571 0
M  V30 5853 H 572.707 -0.410201 3.78282 0
M  V30 5854 H 572.219 1.40699 3.61698 0
M  V30 5855 H 570.32 -1.05837 3.57252 0
M  V30 5856 H 570.433 0.392346 4.77491 0
M  V30 5857 H 568.797 0.111992 2.54454 0
M  V30 5858 H 569.58 1.72952 2.96551 0
M  V30 5859 N 572.025 -1.5352 0.356285 0
M  V30 5860 C 572.957 -2.23009 -0.529127 0
M  V30 5861 C 573.97 -1.241 -1.05371 0
M  V30 5862 O 575.159 -1.50379 -0.961679 0
M  V30 5863 C 572.259 -2.90685 -1.74229 0
M  V30 5864 C 571.432 -4.16019 -1.35081 0
M  V30 5865 C 570.491 -4.66989 -2.42502 0
M  V30 5866 O 569.517 -5.30895 -2.05279 0
M  V30 5867 N 570.719 -4.44006 -3.7395 0
M  V30 5868 H 573.484 -2.99627 0.0660501 0
M  V30 5869 H 571.045 -1.60885 0.181014 0
M  V30 5870 H 573.037 -3.21695 -2.4555 0
M  V30 5871 H 571.607 -2.17575 -2.24454 0
M  V30 5872 H 570.827 -3.91414 -0.467833 0
M  V30 5873 H 572.115 -4.9752 -1.06542 0
M  V30 5874 H 571.513 -3.92924 -4.06973 0
M  V30 5875 H 570.07 -4.7959 -4.41403 0
M  V30 5876 N 573.503 -0.0852151 -1.57369 0
M  V30 5877 C 574.433 0.874556 -2.16503 0
M  V30 5878 C 575.414 1.30111 -1.09568 0
M  V30 5879 O 576.599 1.36977 -1.37662 0
M  V30 5880 C 573.729 2.13731 -2.73745 0
M  V30 5881 C 572.683 1.84971 -3.85966 0
M  V30 5882 C 572.009 3.17991 -4.29867 0
M  V30 5883 C 573.309 1.14442 -5.09608 0
M  V30 5884 H 575.003 0.381899 -2.96954 0
M  V30 5885 H 572.549 0.18225 -1.42842 0
M  V30 5886 H 574.502 2.81302 -3.13763 0
M  V30 5887 H 573.226 2.65263 -1.90534 0
M  V30 5888 H 571.885 1.19801 -3.46473 0
M  V30 5889 H 571.533 3.6739 -3.4356 0
M  V30 5890 H 571.233 2.99534 -5.05523 0
M  V30 5891 H 572.757 3.86737 -4.72511 0
M  V30 5892 H 574.171 1.72105 -5.46857 0
M  V30 5893 H 572.568 1.06197 -5.90629 0
M  V30 5894 H 573.638 0.12559 -4.84737 0
M  V30 5895 N 574.981 1.5647 0.188427 0
M  V30 5896 C 576.211 1.84863 0.922463 0
M  V30 5897 C 576.619 0.666413 1.77075 0
M  V30 5898 O 575.962 -0.374044 1.79852 0
M  V30 5899 C 576.024 3.07447 1.86324 0
M  V30 5900 C 575.688 4.41066 1.19625 0
M  V30 5901 C 576.685 5.16767 0.569946 0
M  V30 5902 C 574.37 4.87802 1.19811 0
M  V30 5903 C 576.364 6.37384 -0.045594 0
M  V30 5904 C 574.051 6.08353 0.57874 0
M  V30 5905 C 575.049 6.82987 -0.0420259 0
M  V30 5906 O 574.737 8.01254 -0.651675 0
M  V30 5907 H 574.469 0.61784 0.274316 0
M  V30 5908 H 577.023 2.04437 0.198613 0
M  V30 5909 H 575.253 2.83774 2.62696 0
M  V30 5910 H 576.942 3.2243 2.46564 0
M  V30 5911 H 577.708 4.81749 0.560601 0
M  V30 5912 H 573.587 4.29662 1.67069 0
M  V30 5913 H 577.131 6.95578 -0.530731 0
M  V30 5914 H 573.028 6.42838 0.58561 0
M  V30 5915 H 573.796 8.16655 -0.549236 0
M  V30 5916 N 576.459 -0.456382 1.50847 0
M  V30 5917 C 577.705 -1.20914 1.62811 0
M  V30 5918 C 578.038 -1.91301 0.334304 0
M  V30 5919 O 577.313 -1.82775 -0.665098 0
M  V30 5920 C 577.596 -2.24122 2.81853 0
M  V30 5921 C 577.449 -1.57944 4.21158 0
M  V30 5922 C 578.768 -3.25295 2.96431 0
M  V30 5923 H 575.887 -0.438233 0.592554 0
M  V30 5924 H 578.529 -0.50091 1.83278 0
M  V30 5925 H 576.679 -2.84524 2.64534 0
M  V30 5926 H 578.351 -1.01025 4.50102 0
M  V30 5927 H 576.594 -0.882185 4.24735 0
M  V30 5928 H 577.265 -2.33014 5.00408 0
M  V30 5929 H 579.741 -2.7493 3.12335 0
M  V30 5930 H 578.617 -3.94822 3.81322 0
M  V30 5931 H 578.878 -3.90286 2.07676 0
M  V30 5932 N 577.937 -1.40673 -0.710563 0
M  V30 5933 C 578.867 -1.44095 -1.83736 0
M  V30 5934 C 579.848 -0.301286 -1.67411 0
M  V30 5935 O 581.033 -0.510618 -1.87367 0
M  V30 5936 C 578.163 -1.30773 -3.21738 0
M  V30 5937 C 577.117 -2.42395 -3.52745 0
M  V30 5938 C 576.443 -2.14147 -4.89944 0
M  V30 5939 C 577.743 -3.84738 -3.53234 0
M  V30 5940 H 579.437 -2.38396 -1.81129 0
M  V30 5941 H 576.983 -1.14746 -0.870017 0
M  V30 5942 H 578.936 -1.31783 -4.00264 0
M  V30 5943 H 577.66 -0.329507 -3.24934 0
M  V30 5944 H 576.319 -2.40643 -2.76562 0
M  V30 5945 H 575.967 -1.14703 -4.89747 0
M  V30 5946 H 575.667 -2.88934 -5.11655 0
M  V30 5947 H 577.191 -2.16848 -5.70797 0
M  V30 5948 H 578.605 -3.88286 -4.2179 0
M  V30 5949 H 577.002 -4.59085 -3.86473 0
M  V30 5950 H 578.072 -4.13962 -2.52514 0
M  V30 5951 N 579.415 0.9433 -1.26252 0
M  V30 5952 C 580.645 1.72117 -1.14277 0
M  V30 5953 C 581.053 1.86726 0.304944 0
M  V30 5954 O 580.396 1.3727 1.22076 0
M  V30 5955 C 580.458 3.14778 -1.73651 0
M  V30 5956 C 580.122 3.23561 -3.22734 0
M  V30 5957 C 581.119 3.07001 -4.19579 0
M  V30 5958 C 578.804 3.47019 -3.63157 0
M  V30 5959 C 580.798 3.13763 -5.54826 0
M  V30 5960 C 578.485 3.53416 -4.98538 0
M  V30 5961 C 579.483 3.36804 -5.94182 0
M  V30 5962 O 579.171 3.42906 -7.27098 0
M  V30 5963 H 578.903 0.545781 -0.398873 0
M  V30 5964 H 581.457 1.19123 -1.67328 0
M  V30 5965 H 579.687 3.69186 -1.1506 0
M  V30 5966 H 581.376 3.74469 -1.56613 0
M  V30 5967 H 582.142 2.88736 -3.89688 0
M  V30 5968 H 578.021 3.59006 -2.89199 0
M  V30 5969 H 581.565 3.00714 -6.29458 0
M  V30 5970 H 577.462 3.71201 -5.28091 0
M  V30 5971 H 578.23 3.59463 -7.35342 0
M  V30 5972 N 580.893 1.08022 1.14757 0
M  V30 5973 C 581.803 0.718292 2.23333 0
M  V30 5974 C 582.819 -0.273477 1.71837 0
M  V30 5975 O 583.995 -0.118406 2.01052 0
M  V30 5976 C 581.06 0.128855 3.4646 0
M  V30 5977 C 580.121 1.17473 4.12915 0
M  V30 5978 C 579.354 0.61333 5.30164 0
M  V30 5979 O 579.577 -0.568458 5.6756 0
M  V30 5980 O 578.511 1.3615 5.86299 0
M  V30 5981 H 582.337 1.62394 2.56636 0
M  V30 5982 H 579.922 0.853628 1.22611 0
M  V30 5983 H 581.804 -0.197249 4.20938 0
M  V30 5984 H 580.479 -0.750014 3.14891 0
M  V30 5985 H 579.386 1.5533 3.40328 0
M  V30 5986 H 580.719 2.02574 4.48581 0
M  V30 5987 N 582.371 -1.3172 0.865308 0
M  V30 5988 C 583.318 -2.2863 0.315736 0
M  V30 5989 C 584.288 -1.55524 -0.583213 0
M  V30 5990 O 585.473 -1.83694 -0.51585 0
M  V30 5991 C 582.613 -3.41735 -0.480773 0
M  V30 5992 C 581.726 -4.297 0.445167 0
M  V30 5993 C 580.861 -5.29944 -0.365012 0
M  V30 5994 C 579.9 -6.09554 0.557651 0
M  V30 5995 N 579.037 -7.01768 -0.215994 0
M  V30 5996 H 583.877 -2.75026 1.14736 0
M  V30 5997 H 581.414 -1.35302 0.577209 0
M  V30 5998 H 583.372 -4.06045 -0.958306 0
M  V30 5999 H 582.002 -2.96461 -1.27714 0
M  V30 6000 H 581.054 -3.65875 1.04113 0
M  V30 6001 H 582.366 -4.85295 1.15284 0
M  V30 6002 H 581.52 -5.99908 -0.905255 0
M  V30 6003 H 580.259 -4.74994 -1.106 0
M  V30 6004 H 579.264 -5.38485 1.10969 0
M  V30 6005 H 580.489 -6.66591 1.29742 0
M  V30 6006 H 578.435 -6.49232 -0.939878 0
M  V30 6007 H 578.352 -7.54762 0.432431 0
M  V30 6008 H 579.62 -7.76002 -0.737618 0
M  V30 6009 N 583.85 -0.624285 -1.44708 0
M  V30 6010 C 585.098 -0.125802 -2.01708 0
M  V30 6011 C 585.418 1.2543 -1.49306 0
M  V30 6012 O 584.689 1.83198 -0.693924 0
M  V30 6013 H 583.269 -0.0435161 -0.745731 0
M  V30 6014 H 585.931 -0.809446 -1.77296 0
M  V30 6015 H 585.027 -0.0882734 -3.11975 0
M  V30 6016 N 585.328 1.53329 -0.364422 0
M  V30 6017 C 586.744 1.59594 -0.0133165 0
M  V30 6018 C 586.944 1.37959 1.46865 0
M  V30 6019 O 586 1.18418 2.2301 0
M  V30 6020 C 587.313 2.97032 -0.468213 0
M  V30 6021 C 588.861 3.10138 -0.422334 0
M  V30 6022 C 589.336 4.49986 -0.853024 0
M  V30 6023 N 590.827 4.56098 -0.808037 0
M  V30 6024 C 591.562 5.62495 -1.11299 0
M  V30 6025 N 591.058 6.7665 -1.48717 0
M  V30 6026 N 592.851 5.52473 -1.03586 0
M  V30 6027 H 585.002 1.65644 -1.32951 0
M  V30 6028 H 587.265 0.77684 -0.543345 0
M  V30 6029 H 586.971 3.18 -1.5023 0
M  V30 6030 H 586.845 3.76918 0.145775 0
M  V30 6031 H 589.232 2.88881 0.602622 0
M  V30 6032 H 589.313 2.32263 -1.0718 0
M  V30 6033 H 588.957 4.7198 -1.87609 0
M  V30 6034 H 588.887 5.26289 -0.180819 0
M  V30 6035 H 591.378 3.74131 -0.532361 0
M  V30 6036 H 591.691 7.53776 -1.70415 0
M  V30 6037 H 590.036 6.78044 -1.52581 0
M  V30 6038 H 593.227 4.6217 -0.742736 0
M  V30 6039 H 593.4 6.35295 -1.27686 0
M  V30 6040 N 586.806 0.0935595 1.57322 0
M  V30 6041 C 587.754 -0.883457 2.15169 0
M  V30 6042 C 588.748 -1.29324 1.09415 0
M  V30 6043 O 589.954 -1.26795 1.27762 0
M  V30 6044 H 586.329 -0.302923 0.688289 0
M  V30 6045 H 588.3 -0.370845 2.96087 0
M  V30 6046 C 587.049 -2.13345 2.74552 0
M  V30 6047 H 586.372 -1.82702 3.55612 0
M  V30 6048 H 587.812 -2.7977 3.18598 0
M  V30 6049 C 586.271 -2.90646 1.70371 0
M  V30 6050 O 586.801 -3.85133 1.14173 0
M  V30 6051 N 585.007 -2.54157 1.40899 0
M  V30 6052 H 584.554 -1.77391 1.86789 0
M  V30 6053 H 584.512 -3.06178 0.714301 0
M  V30 6054 N 588.284 -1.56567 -0.180126 0
M  V30 6055 C 589.234 -1.92132 -1.22756 0
M  V30 6056 C 590.218 -0.788639 -1.40247 0
M  V30 6057 O 591.41 -1.05171 -1.42366 0
M  V30 6058 C 588.539 -2.27719 -2.56902 0
M  V30 6059 C 587.625 -3.47481 -2.43142 0
M  V30 6060 N 588.016 -4.64973 -1.99082 0
M  V30 6061 C 586.314 -3.51914 -2.73994 0
M  V30 6062 C 587.015 -5.47119 -1.97574 0
M  V30 6063 N 585.991 -4.87925 -2.39645 0
M  V30 6064 H 589.793 -2.80464 -0.878478 0
M  V30 6065 H 587.307 -1.57686 -0.388463 0
M  V30 6066 H 589.304 -2.51389 -3.32579 0
M  V30 6067 H 587.964 -1.40722 -2.92621 0
M  V30 6068 H 588.975 -4.89358 -1.69557 0
M  V30 6069 H 585.652 -2.75372 -3.13809 0
M  V30 6070 H 587.042 -6.51254 -1.65282 0
M  V30 6071 N 589.762 0.448376 -1.51087 0
M  V30 6072 C 590.992 1.21965 -1.66757 0
M  V30 6073 C 591.4 1.85748 -0.359753 0
M  V30 6074 O 590.743 1.71022 0.670604 0
M  V30 6075 C 590.805 2.35284 -2.71812 0
M  V30 6076 C 590.469 1.91957 -4.1473 0
M  V30 6077 C 591.466 1.42921 -4.9987 0
M  V30 6078 C 589.151 1.99985 -4.60772 0
M  V30 6079 C 591.145 1.02485 -6.29107 0
M  V30 6080 C 588.832 1.5916 -5.90009 0
M  V30 6081 C 589.83 1.10491 -6.74004 0
M  V30 6082 O 589.518 0.702413 -8.00825 0
M  V30 6083 H 589.25 0.374125 -0.563034 0
M  V30 6084 H 591.804 0.538927 -1.98204 0
M  V30 6085 H 590.034 3.06599 -2.35657 0
M  V30 6086 H 591.723 2.97184 -2.76472 0
M  V30 6087 H 592.489 1.36123 -4.65506 0
M  V30 6088 H 588.368 2.36814 -3.95525 0
M  V30 6089 H 591.912 0.644271 -6.94619 0
M  V30 6090 H 587.809 1.65626 -6.2389 0
M  V30 6091 H 588.577 0.829248 -8.14288 0
M  V30 6092 N 591.24 1.41047 0.703093 0
M  V30 6093 C 592.468 1.4334 1.49202 0
M  V30 6094 C 592.883 0.0365596 1.88765 0
M  V30 6095 O 592.24 -0.942419 1.56284 0
M  V30 6096 C 592.291 2.33538 2.75939 0
M  V30 6097 O 592.012 3.67786 2.38045 0
M  V30 6098 C 593.513 2.44555 3.6974 0
M  V30 6099 H 590.733 0.488472 0.460039 0
M  V30 6100 H 593.277 1.85245 0.86629 0
M  V30 6101 H 591.432 1.94962 3.34766 0
M  V30 6102 H 591.846 4.15816 3.19683 0
M  V30 6103 H 593.32 3.11849 4.55471 0
M  V30 6104 H 593.797 1.47447 4.1371 0
M  V30 6105 H 594.403 2.83735 3.16819 0
M  V30 6106 N 592.718 -0.936591 1.26751 0
M  V30 6107 C 593.628 -2.06949 1.10496 0
M  V30 6108 C 594.644 -1.7396 0.037271 0
M  V30 6109 O 595.82 -1.99941 0.241944 0
M  V30 6110 C 592.885 -3.38612 0.744491 0
M  V30 6111 C 591.946 -3.85355 1.89209 0
M  V30 6112 C 591.179 -5.10735 1.54873 0
M  V30 6113 O 591.402 -5.68602 0.452546 0
M  V30 6114 O 590.336 -5.52632 2.38499 0
M  V30 6115 H 594.162 -2.23571 2.05547 0
M  V30 6116 H 591.747 -1.05428 1.05855 0
M  V30 6117 H 593.629 -4.17711 0.556396 0
M  V30 6118 H 592.304 -3.23218 -0.176582 0
M  V30 6119 H 591.211 -3.07182 2.13518 0
M  V30 6120 H 592.544 -4.05277 2.79305 0
M  V30 6121 N 594.196 -1.08629 -1.14182 0
M  V30 6122 C 595.421 -0.83902 -1.89671 0
M  V30 6123 C 595.846 0.603332 -1.78161 0
M  V30 6124 O 595.204 1.42301 -1.12339 0
M  V30 6125 C 595.252 -1.26854 -3.37551 0
M  V30 6126 O 594.356 -0.42188 -4.10236 0
M  V30 6127 H 593.697 -0.304545 -0.590041 0
M  V30 6128 H 596.227 -1.4483 -1.44518 0
M  V30 6129 H 596.237 -1.25038 -3.88368 0
M  V30 6130 H 594.912 -2.31901 -3.45246 0
M  V30 6131 H 593.489 -0.503654 -3.69483 0
M  V30 6132 N 595.674 1.31259 -0.872281 0
M  V30 6133 C 596.923 1.95893 -0.480493 0
M  V30 6134 C 597.236 1.697 0.972688 0
M  V30 6135 O 598.442 2.28214 1.47073 0
M  V30 6136 C 596.898 3.50705 -0.808342 0
M  V30 6137 C 596.506 3.85735 -2.27844 0
M  V30 6138 C 598.25 4.21719 -0.485136 0
M  V30 6139 C 596.157 5.33668 -2.54858 0
M  V30 6140 H 595.087 0.733182 -0.175955 0
M  V30 6141 H 597.738 1.49396 -1.0655 0
M  V30 6142 H 596.12 3.95706 -0.152558 0
M  V30 6143 H 597.294 3.51686 -2.97748 0
M  V30 6144 H 595.609 3.27792 -2.56791 0
M  V30 6145 H 598.206 5.30559 -0.664166 0
M  V30 6146 H 598.549 4.12316 0.574592 0
M  V30 6147 H 599.082 3.82359 -1.09756 0
M  V30 6148 H 595.821 5.48109 -3.59523 0
M  V30 6149 H 595.341 5.69061 -1.8955 0
M  V30 6150 H 597.02 6.00958 -2.39706 0
M  V30 6151 N 597.152 0.631951 1.44375 0
M  V30 6152 C 598.377 0.142146 2.06912 0
M  V30 6153 C 598.802 -1.17456 1.4692 0
M  V30 6154 O 598.16 -1.72074 0.570975 0
M  V30 6155 C 598.208 0.0417952 3.60576 0
M  V30 6156 O 597.312 -1.00194 4.00044 0
M  V30 6157 H 596.653 0.0851491 0.658518 0
M  V30 6158 H 599.183 0.868863 1.85235 0
M  V30 6159 H 599.193 -0.148517 4.0773 0
M  V30 6160 H 597.868 1.0031 4.03622 0
M  V30 6161 H 596.445 -0.786131 3.64519 0
M  V30 6162 N 598.631 -1.53133 0.372548 0
M  V30 6163 C 599.877 -2.01654 -0.215277 0
M  V30 6164 C 600.21 -1.25914 -1.47849 0
M  V30 6165 O 599.485 -0.3548 -1.91237 0
M  V30 6166 C 599.768 -3.56609 -0.500187 0
M  V30 6167 C 599.621 -4.43036 0.777145 0
M  V30 6168 C 600.94 -4.20528 -1.29786 0
M  V30 6169 H 598.059 -0.732991 -0.0767686 0
M  V30 6170 H 600.701 -1.83335 0.498814 0
M  V30 6171 H 598.851 -3.7235 -1.10852 0
M  V30 6172 H 600.523 -4.39079 1.41447 0
M  V30 6173 H 598.766 -4.10723 1.39604 0
M  V30 6174 H 599.437 -5.49424 0.532662 0
M  V30 6175 H 601.913 -4.08663 -0.783198 0
M  V30 6176 H 600.789 -5.28962 -1.46596 0
M  V30 6177 H 601.05 -3.77051 -2.30836 0
M  V30 6178 N 600.109 -0.101901 -1.5727 0
M  V30 6179 C 601.072 0.840129 -2.13247 0
M  V30 6180 C 602.072 1.20625 -1.06331 0
M  V30 6181 O 603.262 1.13456 -1.32186 0
M  V30 6182 C 600.394 2.13372 -2.65867 0
M  V30 6183 H 601.587 0.353945 -2.97804 0
M  V30 6184 H 599.14 0.147167 -1.55606 0
M  V30 6185 H 599.875 2.66461 -1.84849 0
M  V30 6186 H 599.66 1.88085 -3.44044 0
M  V30 6187 H 601.15 2.80748 -3.09145 0
M  V30 6188 N 601.587 1.56661 0.17182 0
M  V30 6189 C 602.534 1.96371 1.21273 0
M  V30 6190 C 603.504 0.82756 1.44016 0
M  V30 6191 O 604.689 1.08764 1.56764 0
M  V30 6192 C 601.829 2.32838 2.54716 0
M  V30 6193 C 600.942 3.59628 2.39356 0
M  V30 6194 C 600.077 3.85311 3.65662 0
M  V30 6195 C 599.116 5.0545 3.45234 0
M  V30 6196 N 598.253 5.27268 4.63608 0
M  V30 6197 H 603.093 2.85106 0.86709 0
M  V30 6198 H 600.63 1.41073 0.416744 0
M  V30 6199 H 602.588 2.52004 3.3249 0
M  V30 6200 H 601.218 1.47214 2.87277 0
M  V30 6201 H 600.27 3.4838 1.52761 0
M  V30 6202 H 601.582 4.4756 2.20207 0
M  V30 6203 H 600.736 4.04841 4.51872 0
M  V30 6204 H 599.475 2.95753 3.8779 0
M  V30 6205 H 598.48 4.85819 2.5741 0
M  V30 6206 H 599.705 5.96538 3.24529 0
M  V30 6207 H 597.651 4.40662 4.85956 0
M  V30 6208 H 597.568 6.09422 4.4737 0
M  V30 6209 H 598.836 5.51277 5.51103 0
M  V30 6210 N 603.065 -0.440357 1.51323 0
M  V30 6211 C 604.314 -1.18697 1.63076 0
M  V30 6212 C 604.627 -1.92418 0.35136 0
M  V30 6213 O 605.833 -2.69258 0.348221 0
M  V30 6214 C 604.289 -2.15849 2.87988 0
M  V30 6215 C 603.897 -1.47789 4.22921 0
M  V30 6216 C 605.641 -2.90962 3.09098 0
M  V30 6217 C 603.548 -2.43407 5.38987 0
M  V30 6218 H 602.478 -0.44676 0.607389 0
M  V30 6219 H 605.129 -0.454313 1.77787 0
M  V30 6220 H 603.511 -2.92537 2.66905 0
M  V30 6221 H 604.685 -0.7668 4.54375 0
M  V30 6222 H 603 -0.848404 4.07665 0
M  V30 6223 H 605.597 -3.62584 3.92985 0
M  V30 6224 H 605.94 -3.52133 2.22053 0
M  V30 6225 H 606.473 -2.21381 3.30507 0
M  V30 6226 H 603.212 -1.86929 6.28282 0
M  V30 6227 H 602.732 -3.12579 5.11913 0
M  V30 6228 H 604.411 -3.046 5.70813 0
M  V30 6229 N 604.543 -1.41418 -0.695603 0
M  V30 6230 C 605.768 -1.44329 -1.48942 0
M  V30 6231 C 606.193 -0.0501579 -1.88033 0
M  V30 6232 O 605.551 0.946598 -1.54626 0
M  V30 6233 C 605.599 -2.3578 -2.72837 0
M  V30 6234 O 604.703 -1.81482 -3.70322 0
M  V30 6235 H 604.044 -0.489838 -0.44828 0
M  V30 6236 H 606.574 -1.85878 -0.855014 0
M  V30 6237 H 606.584 -2.51654 -3.21145 0
M  V30 6238 H 605.259 -3.37005 -2.43722 0
M  V30 6239 H 603.836 -1.75058 -3.29255 0
M  V30 6240 N 606.021 0.929856 -1.27246 0
M  V30 6241 C 607.267 1.6798 -1.13625 0
M  V30 6242 C 607.6 1.91586 0.317589 0
M  V30 6243 O 606.875 1.50467 1.23247 0
M  V30 6244 C 607.158 3.04766 -1.91806 0
M  V30 6245 C 607.011 2.88415 -3.45162 0
M  V30 6246 C 608.33 4.05063 -1.72082 0
M  V30 6247 H 605.449 0.609632 -0.414147 0
M  V30 6248 H 608.091 1.0792 -1.56376 0
M  V30 6249 H 606.241 3.56034 -1.55474 0
M  V30 6250 H 607.913 2.44282 -3.91311 0
M  V30 6251 H 606.156 2.23802 -3.71611 0
M  V30 6252 H 606.827 3.85482 -3.95105 0
M  V30 6253 H 609.303 3.62798 -2.03757 0
M  V30 6254 H 608.179 4.98765 -2.29182 0
M  V30 6255 H 608.44 4.37021 -0.668206 0
M  V30 6256 N 607.499 1.09233 1.13605 0
M  V30 6257 C 608.729 0.847677 1.88409 0
M  V30 6258 C 609.137 -0.604524 1.79282 0
M  V30 6259 O 608.48 -1.42773 1.15592 0
M  V30 6260 C 608.542 1.20153 3.38827 0
M  V30 6261 C 608.206 2.65824 3.71735 0
M  V30 6262 C 609.203 3.64072 3.71143 0
M  V30 6263 C 606.888 3.01894 4.01454 0
M  V30 6264 C 608.882 4.96419 3.99808 0
M  V30 6265 C 606.569 4.34433 4.29781 0
M  V30 6266 C 607.567 5.31505 4.28942 0
M  V30 6267 O 607.255 6.61659 4.56576 0
M  V30 6268 H 606.987 0.304813 0.603378 0
M  V30 6269 H 609.541 1.4573 1.44748 0
M  V30 6270 H 607.771 0.534946 3.82982 0
M  V30 6271 H 609.46 0.936349 3.94952 0
M  V30 6272 H 610.226 3.37549 3.4826 0
M  V30 6273 H 606.105 2.26971 4.01255 0
M  V30 6274 H 609.649 5.7218 3.99069 0
M  V30 6275 H 605.546 4.607 4.52135 0
M  V30 6276 H 606.314 6.67102 4.74254 0
M  V30 6277 N 608.977 -1.30795 0.87923 0
M  V30 6278 C 610.225 -1.95974 0.493809 0
M  V30 6279 C 610.546 -1.69787 -0.959021 0
M  V30 6280 O 609.816 -1.01832 -1.67353 0
M  V30 6281 H 608.396 -0.725083 0.179622 0
M  V30 6282 H 611.058 -1.59432 1.12105 0
M  V30 6283 H 610.154 -3.05058 0.659263 0
M  V30 6284 N 610.455 -0.639598 -1.44038 0
M  V30 6285 C 611.683 -0.154811 -2.0632 0
M  V30 6286 C 612.098 1.17406 -1.47856 0
M  V30 6287 O 611.455 1.72193 -0.604638 0
M  V30 6288 C 611.506 -0.0429958 -3.61474 0
M  V30 6289 O 611.227 -1.31932 -4.17763 0
M  V30 6290 C 612.728 0.469486 -4.40807 0
M  V30 6291 H 609.948 -0.0835862 -0.665773 0
M  V30 6292 H 612.492 -0.876397 -1.84769 0
M  V30 6293 H 610.647 0.629075 -3.82258 0
M  V30 6294 H 611.061 -1.16965 -5.11292 0
M  V30 6295 H 612.535 0.496712 -5.49761 0
M  V30 6296 H 613.012 1.49819 -4.12857 0
M  V30 6297 H 613.618 -0.169624 -4.24962 0
M  V30 6298 N 611.933 1.52934 -0.380664 0
M  V30 6299 C 612.863 2.29118 0.450268 0
M  V30 6300 C 613.844 1.32153 1.07096 0
M  V30 6301 O 615.029 1.61038 1.08537 0
M  V30 6302 C 612.159 3.09161 1.58231 0
M  V30 6303 C 611.113 4.13938 1.0881 0
M  V30 6304 C 610.439 4.82153 2.31155 0
M  V30 6305 C 611.739 5.22048 0.162146 0
M  V30 6306 H 613.433 2.98826 -0.185361 0
M  V30 6307 H 610.979 1.43715 -0.0905886 0
M  V30 6308 H 612.932 3.61211 2.17036 0
M  V30 6309 H 611.656 2.3717 2.2454 0
M  V30 6310 H 610.315 3.62855 0.522633 0
M  V30 6311 H 609.963 4.06719 2.95953 0
M  V30 6312 H 609.663 5.52966 1.98752 0
M  V30 6313 H 611.187 5.37004 2.90618 0
M  V30 6314 H 612.601 5.6951 0.658126 0
M  V30 6315 H 610.998 6.00057 -0.0717122 0
M  V30 6316 H 612.068 4.78398 -0.791438 0
M  V30 6317 O 613.45 0.250515 1.59545 0
M  V30 6318 H 614.141 -0.324371 1.90965 0
M  V30 END ATOM
M  V30 BEGIN BOND
M  V30 END BOND
M  V30 END CTAB
M  END
$$$$
