drugbank_target|P37108 Signal recognition particle 14 kDa protein (DB11638)
 OpenBabel12092120543D

  0  0  0     0  0            999 V3000
M  V30 BEGIN CTAB
M  V30 COUNTS 2106 2117 0 0 0
M  V30 BEGIN ATOM
M  V30 1 H -0.908 1.98254 -0.117106 0
M  V30 2 N 0 1.576 0 0
M  V30 3 C 0.933 2.03868 1.02534 0
M  V30 4 C 1.911 0.928543 1.3348 0
M  V30 5 O 3.095 1.19667 1.45644 0
M  V30 6 C 0.222 2.43627 2.35294 0
M  V30 7 C -0.732 3.65373 2.2001 0
M  V30 8 S 0.101 5.13292 1.52614 0
M  V30 9 C 1.257 5.56322 2.86805 0
M  V30 10 H 1.49 2.90518 0.631377 0
M  V30 11 H -0.977 1.52953 0.210867 0
M  V30 12 H 0.981 2.67203 3.11629 0
M  V30 13 H -0.358 1.57376 2.7183 0
M  V30 14 H -1.165 3.90944 3.18086 0
M  V30 15 H -1.563 3.418 1.51819 0
M  V30 16 H 0.729 5.58782 3.83104 0
M  V30 17 H 1.672 6.56266 2.65933 0
M  V30 18 H 2.08 4.83886 2.90714 0
M  V30 19 N 1.4781 -0.272755 1.55222 0
M  V30 20 C 2.7241 -1.00581 1.761 0
M  V30 21 C 3.0571 -1.85932 0.560625 0
M  V30 22 O 2.3321 -1.89416 -0.441801 0
M  V30 23 C 2.6151 -1.88816 3.06628 0
M  V30 24 C 2.4681 -1.06457 4.37021 0
M  V30 25 C 3.7871 -2.8752 3.33197 0
M  V30 26 H 0.9061 -0.364244 0.640699 0
M  V30 27 H 3.5481 -0.278189 1.87952 0
M  V30 28 H 1.6981 -2.50856 2.96654 0
M  V30 29 H 3.3701 -0.464863 4.58952 0
M  V30 30 H 1.6131 -0.368043 4.32236 0
M  V30 31 H 2.2841 -1.71514 5.24678 0
M  V30 32 H 4.7601 -2.35615 3.42965 0
M  V30 33 H 3.6361 -3.46399 4.25792 0
M  V30 34 H 3.8971 -3.62657 2.52849 0
M  V30 35 N 2.9562 -1.48159 -0.537278 0
M  V30 36 C 3.8862 -1.65029 -1.6519 0
M  V30 37 C 4.8672 -0.499281 -1.62607 0
M  V30 38 O 6.0522 -0.730972 -1.79918 0
M  V30 39 C 3.1822 -1.68303 -3.03795 0
M  V30 40 C 2.1362 -2.8283 -3.21234 0
M  V30 41 C 1.4622 -2.71189 -4.60826 0
M  V30 42 C 2.7622 -4.24211 -3.04701 0
M  V30 43 H 4.4562 -2.58341 -1.51328 0
M  V30 44 H 2.0022 -1.24325 -0.726585 0
M  V30 45 H 3.9552 -1.78693 -3.81637 0
M  V30 46 H 2.6792 -0.715635 -3.18663 0
M  V30 47 H 1.3382 -2.71983 -2.45807 0
M  V30 48 H 0.9862 -1.72435 -4.7252 0
M  V30 49 H 0.6862 -3.48035 -4.7344 0
M  V30 50 H 2.2102 -2.83537 -5.40777 0
M  V30 51 H 3.6242 -4.3593 -3.72341 0
M  V30 52 H 2.0212 -5.01998 -3.28813 0
M  V30 53 H 3.0912 -4.41184 -2.01209 0
M  V30 54 N 4.4343 0.785586 -1.36625 0
M  V30 55 C 5.3643 1.91259 -1.33949 0
M  V30 56 C 6.3453 1.68795 -0.210325 0
M  V30 57 O 7.5303 1.89854 -0.408561 0
M  V30 58 C 4.6603 3.28339 -1.13186 0
M  V30 59 C 3.6143 3.65335 -2.22967 0
M  V30 60 C 2.9403 5.00806 -1.87342 0
M  V30 61 C 4.2403 3.7352 -3.65075 0
M  V30 62 H 5.9343 1.93755 -2.28253 0
M  V30 63 H 3.4803 0.930788 -1.09874 0
M  V30 64 H 5.4333 4.06804 -1.09948 0
M  V30 65 H 4.1573 3.2624 -0.153332 0
M  V30 66 H 2.8163 2.89169 -2.25337 0
M  V30 67 H 2.4643 4.95233 -0.880545 0
M  V30 68 H 2.1643 5.26529 -2.60846 0
M  V30 69 H 3.6883 5.81687 -1.85667 0
M  V30 70 H 5.1023 4.42168 -3.64911 0
M  V30 71 H 3.4993 4.10731 -4.37516 0
M  V30 72 H 4.5693 2.74527 -3.99703 0
M  V30 73 N 5.9124 1.20967 1.01018 0
M  V30 74 C 6.8224 0.980157 2.13143 0
M  V30 75 C 7.8384 -0.0660665 1.73875 0
M  V30 76 O 9.0144 0.122821 2.01025 0
M  V30 77 C 6.0794 0.54216 3.42435 0
M  V30 78 C 5.1404 1.65999 3.95908 0
M  V30 79 C 4.3734 1.2428 5.19028 0
M  V30 80 O 4.5964 0.114196 5.70286 0
M  V30 81 O 3.5304 2.05271 5.65816 0
M  V30 82 H 7.3564 1.91913 2.35379 0
M  V30 83 H 4.9414 0.994099 1.11526 0
M  V30 84 H 6.8234 0.30744 4.20277 0
M  V30 85 H 5.4984 -0.36815 3.216 0
M  V30 86 H 4.4054 1.94906 3.19316 0
M  V30 87 H 5.7384 2.54753 4.21143 0
M  V30 88 N 7.3905 -1.2043 1.01659 0
M  V30 89 C 8.6155 -1.94318 0.724942 0
M  V30 90 C 9.0405 -1.74266 -0.708034 0
M  V30 91 O 8.3985 -1.03694 -1.48719 0
M  V30 92 C 8.4465 -3.44486 1.06591 0
M  V30 93 O 7.5505 -4.12017 0.177599 0
M  V30 94 H 6.8915 -0.60708 0.26898 0
M  V30 95 H 9.4215 -1.52861 1.35995 0
M  V30 96 H 9.4315 -3.95106 1.01762 0
M  V30 97 H 8.1065 -3.58404 2.10997 0
M  V30 98 H 6.6835 -3.71821 0.283421 0
M  V30 99 N 8.8686 -0.792821 -1.36206 0
M  V30 100 C 9.7786 -0.194808 -2.3379 0
M  V30 101 C 10.7946 0.654869 -1.61206 0
M  V30 102 O 11.9706 0.569856 -1.9317 0
M  V30 103 C 9.0356 0.657721 -3.40404 0
M  V30 104 C 8.0966 -0.210849 -4.28782 0
M  V30 105 C 7.3296 0.601086 -5.30304 0
M  V30 106 O 7.5526 1.83682 -5.40016 0
M  V30 107 O 6.4866 -0.000808277 -6.019 0
M  V30 108 H 10.3126 -1.00172 -2.86704 0
M  V30 109 H 7.8976 -0.554341 -1.38735 0
M  V30 110 H 9.7796 1.14375 -4.05581 0
M  V30 111 H 8.4546 1.44247 -2.89784 0
M  V30 112 H 7.3616 -0.743714 -3.66633 0
M  V30 113 H 8.6946 -0.959195 -4.82763 0
M  V30 114 N 10.3467 1.47872 -0.545128 0
M  V30 115 C 11.2787 2.27869 0.246621 0
M  V30 116 C 12.2917 1.36282 0.890561 0
M  V30 117 O 13.4807 1.61207 0.766449 0
M  V30 118 C 10.5807 3.10159 1.36582 0
M  V30 119 C 9.7537 4.29627 0.820954 0
M  V30 120 C 8.8127 4.93607 1.82314 0
M  V30 121 O 7.8387 5.52366 1.37406 0
M  V30 122 N 9.0407 4.87211 3.15603 0
M  V30 123 H 11.8057 2.96459 -0.439539 0
M  V30 124 H 9.3667 1.57367 -0.380421 0
M  V30 125 H 11.3587 3.49829 2.03474 0
M  V30 126 H 9.9287 2.43891 1.9554 0
M  V30 127 H 9.1487 3.94192 -0.0244032 0
M  V30 128 H 10.4367 5.06928 0.436063 0
M  V30 129 H 9.8347 4.40651 3.54744 0
M  V30 130 H 8.3917 5.30937 3.78087 0
M  V30 131 N 11.8248 0.280983 1.55075 0
M  V30 132 C 13.0718 -0.334115 1.99725 0
M  V30 133 C 13.3998 -1.5542 1.1694 0
M  V30 134 O 12.6548 -1.94361 0.228531 0
M  V30 135 C 12.9538 -0.754656 3.49342 0
M  V30 136 C 12.6198 0.361445 4.49449 0
M  V30 137 C 11.2818 0.667893 4.76542 0
M  V30 138 C 13.6338 1.11322 5.09173 0
M  V30 139 C 10.9618 1.7296 5.60626 0
M  V30 140 C 13.3138 2.1647 5.9441 0
M  V30 141 C 11.9778 2.47742 6.19822 0
M  V30 142 H 11.2478 -0.122261 0.730844 0
M  V30 143 H 13.8948 0.395917 1.87363 0
M  V30 144 H 12.1998 -1.56446 3.5921 0
M  V30 145 H 13.8968 -1.24142 3.813 0
M  V30 146 H 10.4868 0.112481 4.28452 0
M  V30 147 H 14.6708 0.88973 4.8826 0
M  V30 148 H 9.9268 1.97684 5.78559 0
M  V30 149 H 14.1008 2.75193 6.3972 0
M  V30 150 H 11.7278 3.30145 6.84769 0
M  V30 151 N 13.3029 -1.57598 0.00835791 0
M  V30 152 C 14.2329 -2.1198 -0.979113 0
M  V30 153 C 15.2139 -1.03091 -1.35301 0
M  V30 154 O 16.3989 -1.30818 -1.43528 0
M  V30 155 C 13.5289 -2.62995 -2.26828 0
M  V30 156 C 12.4829 -3.76485 -2.03576 0
M  V30 157 C 11.8089 -4.13846 -3.38579 0
M  V30 158 C 13.1089 -5.0342 -1.39161 0
M  V30 159 H 14.8029 -2.94738 -0.526281 0
M  V30 160 H 12.3489 -1.41783 -0.251704 0
M  V30 161 H 14.3019 -2.99669 -2.96271 0
M  V30 162 H 13.0259 -1.7737 -2.7424 0
M  V30 163 H 11.6849 -3.40217 -1.36557 0
M  V30 164 H 11.3329 -3.25232 -3.83709 0
M  V30 165 H 11.0329 -4.90312 -3.23834 0
M  V30 166 H 12.5569 -4.53086 -4.09323 0
M  V30 167 H 13.9709 -5.37812 -1.98573 0
M  V30 168 H 12.3679 -5.84746 -1.34878 0
M  V30 169 H 13.4379 -4.83548 -0.361868 0
M  V30 170 N 14.781 0.264519 -1.55364 0
M  V30 171 C 16.009 1.013 -1.80405 0
M  V30 172 C 16.424 1.79618 -0.581622 0
M  V30 173 O 15.781 1.76879 0.449468 0
M  V30 174 C 15.832 1.96487 -3.03439 0
M  V30 175 O 15.553 1.21341 -4.20961 0
M  V30 176 C 17.054 2.83079 -3.41147 0
M  V30 177 H 14.274 0.298875 -0.600762 0
M  V30 178 H 16.818 0.292736 -2.02394 0
M  V30 179 H 14.973 2.63965 -2.83551 0
M  V30 180 H 15.387 1.85573 -4.90574 0
M  V30 181 H 16.861 3.4565 -4.30384 0
M  V30 182 H 17.338 3.53286 -2.60932 0
M  V30 183 H 17.944 2.2108 -3.63323 0
M  V30 184 N 16.2591 1.48442 0.529413 0
M  V30 185 C 17.1691 1.6569 1.66084 0
M  V30 186 C 18.1851 0.539432 1.65427 0
M  V30 187 O 19.3611 0.810572 1.84368 0
M  V30 188 C 16.4261 1.69315 3.02545 0
M  V30 189 C 15.4871 2.92694 3.14052 0
M  V30 190 C 14.7201 2.96137 4.44003 0
M  V30 191 O 14.9431 2.07973 5.31134 0
M  V30 192 O 13.8771 3.88312 4.59888 0
M  V30 193 H 17.7031 2.61483 1.54469 0
M  V30 194 H 15.2881 1.3185 0.702567 0
M  V30 195 H 17.1701 1.74217 3.83701 0
M  V30 196 H 15.8451 0.766966 3.14483 0
M  V30 197 H 14.7521 2.93324 2.32189 0
M  V30 198 H 16.0851 3.84699 3.0703 0
M  V30 199 N 17.7372 -0.778329 1.37039 0
M  V30 200 C 18.6672 -1.90546 1.34962 0
M  V30 201 C 19.6482 -1.68681 0.219274 0
M  V30 202 O 20.8332 -1.89634 0.418624 0
M  V30 203 C 17.9632 -3.27734 1.14925 0
M  V30 204 C 16.9172 -3.64147 2.24902 0
M  V30 205 C 16.2432 -4.99806 1.89996 0
M  V30 206 C 17.5432 -3.71579 3.67051 0
M  V30 207 H 19.2372 -1.92541 2.29277 0
M  V30 208 H 16.7832 -0.924948 1.10366 0
M  V30 209 H 18.7362 -4.06215 1.12104 0
M  V30 210 H 17.4602 -3.26154 0.170631 0
M  V30 211 H 16.1192 -2.8797 2.26868 0
M  V30 212 H 15.7672 -4.94759 0.906796 0
M  V30 213 H 15.4672 -5.25139 2.63634 0
M  V30 214 H 16.9912 -5.80694 1.88749 0
M  V30 215 H 18.4052 -4.40227 3.67251 0
M  V30 216 H 16.8022 -4.08405 4.39688 0
M  V30 217 H 17.8722 -2.72404 4.01154 0
M  V30 218 N 19.2153 -1.21501 -1.00376 0
M  V30 219 C 20.4433 -1.059 -1.77744 0
M  V30 220 C 20.8583 0.391125 -1.84704 0
M  V30 221 O 20.2153 1.27133 -1.30933 0
M  V30 222 C 20.2663 -1.65111 -3.21591 0
M  V30 223 O 19.9873 -3.0445 -3.15027 0
M  V30 224 C 21.4883 -1.54637 -4.15454 0
M  V30 225 H 18.7083 -0.371825 -0.558558 0
M  V30 226 H 21.2523 -1.60865 -1.26264 0
M  V30 227 H 19.4073 -1.14235 -3.70175 0
M  V30 228 H 19.8213 -3.3278 -4.0541 0
M  V30 229 H 21.2953 -2.00808 -5.14179 0
M  V30 230 H 21.7723 -0.501022 -4.36333 0
M  V30 231 H 22.3783 -2.04767 -3.72761 0
M  V30 232 N 20.6934 1.19889 -1.02296 0
M  V30 233 C 22.1094 1.41462 -0.738954 0
M  V30 234 C 22.3094 1.89721 0.678846 0
M  V30 235 O 21.3654 2.07016 1.4457 0
M  V30 236 C 22.6784 2.43083 -1.77005 0
M  V30 237 C 24.2264 2.5684 -1.78892 0
M  V30 238 C 24.7014 3.61709 -2.80945 0
M  V30 239 N 26.1924 3.69199 -2.79725 0
M  V30 240 C 26.9274 4.50019 -3.55345 0
M  V30 241 N 26.4234 5.34592 -4.40662 0
M  V30 242 N 28.2164 4.44612 -3.43914 0
M  V30 243 H 20.3674 0.868827 -1.93817 0
M  V30 244 H 22.6304 0.44399 -0.837602 0
M  V30 245 H 22.3364 2.14636 -2.78612 0
M  V30 246 H 22.2104 3.4217 -1.58744 0
M  V30 247 H 24.5974 2.84614 -0.779674 0
M  V30 248 H 24.6784 1.57927 -2.01228 0
M  V30 249 H 24.3224 3.34678 -3.82038 0
M  V30 250 H 24.2524 4.60259 -2.5587 0
M  V30 251 H 26.7434 3.08794 -2.17842 0
M  V30 252 H 27.0564 5.93363 -4.95116 0
M  V30 253 H 25.4014 5.34073 -4.44737 0
M  V30 254 H 28.5924 3.7758 -2.76679 0
M  V30 255 H 28.7654 5.0736 -4.031 0
M  V30 256 N 22.1715 0.800033 1.35784 0
M  V30 257 C 23.1015 0.220184 2.3246 0
M  V30 258 C 24.0825 -0.65073 1.57161 0
M  V30 259 O 25.2675 -0.582359 1.85263 0
M  V30 260 C 22.3975 -0.637353 3.41402 0
M  V30 261 C 21.3515 0.134531 4.27789 0
M  V30 262 C 20.6775 -0.844285 5.27992 0
M  V30 263 C 21.9775 1.32979 5.05088 0
M  V30 264 H 23.6715 1.02787 2.81203 0
M  V30 265 H 21.2175 0.495717 1.35199 0
M  V30 266 H 23.1705 -1.05302 4.08031 0
M  V30 267 H 21.8945 -1.47785 2.91251 0
M  V30 268 H 20.5535 0.531296 3.6273 0
M  V30 269 H 20.2015 -1.68011 4.74111 0
M  V30 270 H 19.9015 -0.332184 5.8666 0
M  V30 271 H 21.4255 -1.2583 5.97494 0
M  V30 272 H 22.8395 0.98934 5.64699 0
M  V30 273 H 21.2365 1.77593 5.7322 0
M  V30 274 H 22.3065 2.11978 4.36111 0
M  V30 275 N 23.6496 -1.47581 0.552962 0
M  V30 276 C 24.8966 -2.02482 0.0273243 0
M  V30 277 C 25.2246 -1.42776 -1.32081 0
M  V30 278 O 24.4796 -0.571393 -1.87173 0
M  V30 279 C 24.7786 -3.57199 -0.119728 0
M  V30 280 C 24.4446 -4.35804 1.15697 0
M  V30 281 C 23.1066 -4.57 1.50681 0
M  V30 282 C 25.4586 -4.81167 2.00319 0
M  V30 283 C 22.7866 -5.20807 2.70142 0
M  V30 284 C 25.1386 -5.46293 3.18978 0
M  V30 285 C 23.8026 -5.65722 3.54281 0
M  V30 286 H 23.0726 -0.740933 0.00999866 0
M  V30 287 H 25.7196 -1.77302 0.72362 0
M  V30 288 H 24.0246 -3.81348 -0.89896 0
M  V30 289 H 25.7216 -3.97324 -0.541718 0
M  V30 290 H 22.3116 -4.19582 0.874561 0
M  V30 291 H 26.4956 -4.64574 1.74599 0
M  V30 292 H 21.7516 -5.34045 2.97668 0
M  V30 293 H 25.9256 -5.80407 3.84838 0
M  V30 294 H 23.5526 -6.14936 4.46942 0
M  V30 295 N 25.1277 -0.289203 -1.54924 0
M  V30 296 C 26.0597 0.625583 -2.20497 0
M  V30 297 C 27.0727 1.10667 -1.19402 0
M  V30 298 O 28.2617 1.02615 -1.46056 0
M  V30 299 C 25.3617 1.86702 -2.82835 0
M  V30 300 C 24.5347 1.5304 -4.09753 0
M  V30 301 C 23.5937 2.62576 -4.56005 0
M  V30 302 O 22.6197 2.28167 -5.21468 0
M  V30 303 N 23.8217 3.92901 -4.27328 0
M  V30 304 H 26.5867 0.0642801 -2.99631 0
M  V30 305 H 24.1477 -0.110896 -1.6152 0
M  V30 306 H 26.1397 2.59304 -3.10715 0
M  V30 307 H 24.7097 2.33702 -2.07611 0
M  V30 308 H 23.9297 0.637564 -3.8901 0
M  V30 309 H 25.2177 1.28072 -4.92418 0
M  V30 310 H 24.6157 4.23671 -3.74859 0
M  V30 311 H 23.1727 4.61837 -4.59946 0
M  V30 312 N 26.6058 1.57591 -0.0167156 0
M  V30 313 C 27.5528 2.09462 0.969251 0
M  V30 314 C 28.5228 0.99381 1.33089 0
M  V30 315 O 29.7078 1.26726 1.42636 0
M  V30 316 C 26.8478 2.61622 2.25051 0
M  V30 317 C 25.9608 3.85666 1.94642 0
M  V30 318 C 25.0958 4.26266 3.16972 0
M  V30 319 C 24.1348 5.43101 2.82326 0
M  V30 320 N 23.2718 5.78915 3.97243 0
M  V30 321 H 28.1118 2.93428 0.519997 0
M  V30 322 H 25.6488 1.45044 0.245087 0
M  V30 323 H 27.6068 2.89949 2.99976 0
M  V30 324 H 26.2368 1.80505 2.67615 0
M  V30 325 H 25.2888 3.64145 1.10013 0
M  V30 326 H 26.6008 4.70678 1.65117 0
M  V30 327 H 25.7548 4.55963 4.00228 0
M  V30 328 H 24.4938 3.39996 3.49648 0
M  V30 329 H 23.4988 5.1311 1.97479 0
M  V30 330 H 24.7238 6.3106 2.50879 0
M  V30 331 H 22.6698 4.95602 4.29785 0
M  V30 332 H 22.5868 6.58539 3.71299 0
M  V30 333 H 23.8548 6.13212 4.81239 0
M  V30 334 N 28.0839 -0.256276 1.55502 0
M  V30 335 C 29.3239 -0.993081 1.78654 0
M  V30 336 C 29.6879 -1.8288 0.584724 0
M  V30 337 O 30.8889 -2.59665 0.694822 0
M  V30 338 C 29.1599 -1.83856 3.06483 0
M  V30 339 S 30.7189 -2.63573 3.5082 0
M  V30 340 H 27.5369 -0.334199 0.62756 0
M  V30 341 H 30.1389 -0.26184 1.93739 0
M  V30 342 H 28.8429 -1.21414 3.92029 0
M  V30 343 H 28.3739 -2.61271 2.94111 0
M  V30 344 H 30.3889 -3.86312 3.11412 0
M  V30 345 N 29.562 -1.4872 -0.521534 0
M  V30 346 C 30.978 -1.35028 -0.850855 0
M  V30 347 C 31.178 -0.367712 -1.98116 0
M  V30 348 O 30.234 0.208037 -2.51642 0
M  V30 349 C 31.547 -2.75263 -1.21041 0
M  V30 350 C 33.095 -2.83813 -1.31981 0
M  V30 351 C 33.57 -4.24769 -1.71276 0
M  V30 352 N 35.061 -4.27482 -1.78363 0
M  V30 353 C 35.796 -5.33494 -2.1017 0
M  V30 354 N 35.292 -6.49775 -2.40343 0
M  V30 355 N 37.085 -5.20894 -2.11248 0
M  V30 356 H 29.236 -2.11214 0.22413 0
M  V30 357 H 31.499 -0.947252 0.0376439 0
M  V30 358 H 31.205 -3.48765 -0.453415 0
M  V30 359 H 31.079 -3.09327 -2.15863 0
M  V30 360 H 33.466 -2.10561 -2.06756 0
M  V30 361 H 33.547 -2.53358 -0.352596 0
M  V30 362 H 33.191 -4.9854 -0.970588 0
M  V30 363 H 33.121 -4.52673 -2.69062 0
M  V30 364 H 35.612 -3.43611 -1.57288 0
M  V30 365 H 35.925 -7.26402 -2.63743 0
M  V30 366 H 34.27 -6.53035 -2.37844 0
M  V30 367 H 37.461 -4.29065 -1.87139 0
M  V30 368 H 37.634 -6.03612 -2.35704 0
M  V30 369 N 31.0401 0.771051 -1.3745 0
M  V30 370 C 32.2681 1.56015 -1.35893 0
M  V30 371 C 32.6831 1.88718 0.0555523 0
M  V30 372 O 32.0401 1.51502 1.01752 0
M  V30 373 C 32.0911 2.87001 -2.19801 0
M  V30 374 O 31.8121 2.557 -3.55738 0
M  V30 375 C 33.3131 3.81228 -2.26231 0
M  V30 376 H 30.5331 0.483317 -0.465453 0
M  V30 377 H 33.0771 0.955611 -1.80799 0
M  V30 378 H 31.2321 3.43877 -1.78402 0
M  V30 379 H 31.6461 3.39584 -3.99729 0
M  V30 380 H 33.1201 4.70139 -2.89263 0
M  V30 381 H 33.5971 4.20409 -1.27093 0
M  V30 382 H 34.2031 3.30281 -2.67945 0
M  V30 383 N 32.5182 1.22032 0.997298 0
M  V30 384 C 33.7432 1.06921 1.77715 0
M  V30 385 C 34.1682 -0.376226 1.84299 0
M  V30 386 O 33.5262 -1.27165 1.29223 0
M  V30 387 C 33.5742 1.67996 3.19076 0
M  V30 388 O 32.6782 0.930653 4.01762 0
M  V30 389 H 32.0192 0.375814 0.547412 0
M  V30 390 H 34.5492 1.61737 1.25309 0
M  V30 391 H 34.5592 1.72538 3.69723 0
M  V30 392 H 33.2342 2.73182 3.13599 0
M  V30 393 H 31.8112 0.960917 3.60307 0
M  V30 394 N 33.9963 -1.19345 1.0293 0
M  V30 395 C 35.2443 -1.88665 0.724574 0
M  V30 396 C 35.5653 -1.80036 -0.749144 0
M  V30 397 O 34.8353 -1.2111 -1.53978 0
M  V30 398 H 33.4153 -0.698406 0.265025 0
M  V30 399 H 36.0773 -1.44885 1.30362 0
M  V30 400 H 35.1733 -2.94987 1.01926 0
M  V30 401 N 35.4744 -0.807222 -1.35358 0
M  V30 402 C 36.6994 -0.399309 -2.0352 0
M  V30 403 C 37.1244 0.981986 -1.60433 0
M  V30 404 O 36.4824 1.63601 -0.781299 0
M  V30 405 C 36.5304 -0.491552 -3.57234 0
M  V30 406 O 35.6344 0.494754 -4.09421 0
M  V30 407 H 34.9754 -0.166682 -0.642739 0
M  V30 408 H 37.5054 -1.09328 -1.72941 0
M  V30 409 H 37.5154 -0.361588 -4.06395 0
M  V30 410 H 36.1904 -1.49907 -3.87944 0
M  V30 411 H 34.7674 0.324977 -3.71481 0
M  V30 412 N 36.9525 1.47285 -0.560781 0
M  V30 413 C 38.1985 2.02764 -0.0381184 0
M  V30 414 C 38.5315 1.43384 1.30976 0
M  V30 415 O 37.8065 0.590733 1.85312 0
M  V30 416 C 38.0895 3.60064 0.0511427 0
M  V30 417 C 37.9425 4.2987 -1.32408 0
M  V30 418 C 39.2615 4.33439 0.762795 0
M  V30 419 H 36.3805 0.736841 -0.0153264 0
M  V30 420 H 39.0225 1.75675 -0.723759 0
M  V30 421 H 37.1725 3.83274 0.635065 0
M  V30 422 H 38.8445 4.17989 -1.95148 0
M  V30 423 H 37.0875 3.90085 -1.8978 0
M  V30 424 H 37.7585 5.38478 -1.21431 0
M  V30 425 H 40.2345 4.15243 0.266965 0
M  V30 426 H 39.1105 5.43124 0.794221 0
M  V30 427 H 39.3715 4.02915 1.81966 0
M  V30 428 N 38.4306 0.297415 1.54768 0
M  V30 429 C 39.6606 -0.315165 2.04182 0
M  V30 430 C 40.0686 -1.4834 1.17439 0
M  V30 431 O 39.4116 -1.82695 0.191891 0
M  V30 432 C 39.4736 -0.837583 3.49607 0
M  V30 433 C 39.1376 0.204912 4.5654 0
M  V30 434 C 40.1346 1.03214 5.09552 0
M  V30 435 C 37.8196 0.345578 5.0111 0
M  V30 436 C 39.8136 1.986 6.05671 0
M  V30 437 C 37.5006 1.30289 5.97049 0
M  V30 438 C 38.4986 2.12159 6.49213 0
M  V30 439 O 38.1866 3.06268 7.43273 0
M  V30 440 H 37.9186 -0.0729646 0.672051 0
M  V30 441 H 40.4726 0.433907 2.00765 0
M  V30 442 H 38.7026 -1.63712 3.50336 0
M  V30 443 H 40.3916 -1.36566 3.82236 0
M  V30 444 H 41.1576 0.934312 4.75916 0
M  V30 445 H 37.0366 -0.28171 4.60138 0
M  V30 446 H 40.5806 2.62542 6.46311 0
M  V30 447 H 36.4776 1.40145 6.30103 0
M  V30 448 H 37.2456 3.01205 7.61064 0
M  V30 449 N 39.9087 -1.5758 0.0250728 0
M  V30 450 C 41.1577 -1.90811 -0.653767 0
M  V30 451 C 41.4707 -0.90273 -1.73523 0
M  V30 452 O 42.6767 -1.12614 -2.47043 0
M  V30 453 C 41.1327 -3.38804 -1.21409 0
M  V30 454 C 40.7407 -4.47692 -0.166126 0
M  V30 455 C 42.4847 -3.81108 -1.86967 0
M  V30 456 C 40.3917 -5.86779 -0.737856 0
M  V30 457 H 39.3217 -0.712063 -0.247956 0
M  V30 458 H 41.9727 -1.83281 0.0897137 0
M  V30 459 H 40.3547 -3.41252 -2.00905 0
M  V30 460 H 41.5287 -4.56797 0.606079 0
M  V30 461 H 39.8437 -4.14565 0.390466 0
M  V30 462 H 42.4407 -4.82375 -2.30692 0
M  V30 463 H 42.7837 -3.15953 -2.71071 0
M  V30 464 H 43.3167 -3.81065 -1.14167 0
M  V30 465 H 40.0557 -6.55468 0.0649577 0
M  V30 466 H 39.5757 -5.81288 -1.47864 0
M  V30 467 H 41.2547 -6.35223 -1.22884 0
M  V30 468 N 41.3868 0.248026 -1.55636 0
M  V30 469 C 42.6148 0.993808 -1.81469 0
M  V30 470 C 43.0298 1.78991 -0.60064 0
M  V30 471 O 42.3868 1.77345 0.430682 0
M  V30 472 C 42.4378 1.93258 -3.05506 0
M  V30 473 O 42.1588 1.16869 -4.22224 0
M  V30 474 C 43.6598 2.79444 -3.4413 0
M  V30 475 H 40.8798 0.292486 -0.603898 0
M  V30 476 H 43.4238 0.271253 -2.02693 0
M  V30 477 H 41.5788 2.60943 -2.86335 0
M  V30 478 H 41.9928 1.80359 -4.92515 0
M  V30 479 H 43.4668 3.41066 -4.34026 0
M  V30 480 H 43.9438 3.50499 -2.64665 0
M  V30 481 H 44.5498 2.17214 -3.65648 0
M  V30 482 N 42.8649 1.48995 0.513639 0
M  V30 483 C 43.7949 1.67636 1.62544 0
M  V30 484 C 44.7759 0.525087 1.61793 0
M  V30 485 O 45.9609 0.759502 1.78732 0
M  V30 486 C 43.0909 1.73114 3.01079 0
M  V30 487 C 42.0449 2.87905 3.16693 0
M  V30 488 C 41.3709 2.78486 4.56453 0
M  V30 489 C 42.6709 4.29005 2.97913 0
M  V30 490 H 44.3649 2.60716 1.47198 0
M  V30 491 H 41.9109 1.25465 0.706714 0
M  V30 492 H 43.8639 1.84742 3.78746 0
M  V30 493 H 42.5879 0.766241 3.17484 0
M  V30 494 H 41.2469 2.75859 2.41448 0
M  V30 495 H 40.8949 1.7993 4.69717 0
M  V30 496 H 40.5949 3.55523 4.67843 0
M  V30 497 H 42.1189 2.92104 5.36197 0
M  V30 498 H 43.5329 4.41798 3.65359 0
M  V30 499 H 41.9299 5.07166 3.20785 0
M  V30 500 H 42.9999 4.44329 1.94165 0
M  V30 501 N 44.343 -0.763751 1.37857 0
M  V30 502 C 45.29 -1.87726 1.34267 0
M  V30 503 C 46.26 -1.64807 0.206879 0
M  V30 504 O 47.445 -1.86613 0.397508 0
M  V30 505 C 44.585 -3.24896 1.16346 0
M  V30 506 C 43.698 -3.59716 2.39225 0
M  V30 507 C 42.833 -4.86137 2.14114 0
M  V30 508 C 41.872 -5.13711 3.32817 0
M  V30 509 N 41.009 -6.31323 3.07206 0
M  V30 510 H 45.849 -1.90129 2.29466 0
M  V30 511 H 43.386 -0.929433 1.14017 0
M  V30 512 H 45.344 -4.04036 1.03975 0
M  V30 513 H 43.974 -3.21847 0.247909 0
M  V30 514 H 43.026 -2.75498 2.62307 0
M  V30 515 H 44.338 -3.76027 3.27728 0
M  V30 516 H 43.492 -5.73198 1.9882 0
M  V30 517 H 42.231 -4.71945 1.22961 0
M  V30 518 H 41.236 -4.25123 3.48641 0
M  V30 519 H 42.461 -5.29807 4.24832 0
M  V30 520 H 40.407 -6.18474 2.1869 0
M  V30 521 H 40.324 -6.48087 3.89254 0
M  V30 522 H 41.592 -7.213 2.95546 0
M  V30 523 N 45.8211 -1.22559 -0.990812 0
M  V30 524 C 46.7681 -0.997519 -2.0813 0
M  V30 525 C 47.7381 0.0814702 -1.659 0
M  V30 526 O 48.9231 -0.0685424 -1.90677 0
M  V30 527 C 46.0631 -0.583615 -3.40129 0
M  V30 528 C 45.1761 -1.7336 -3.9569 0
M  V30 529 C 44.3111 -1.26748 -5.15857 0
M  V30 530 C 43.3501 -2.38888 -5.63559 0
M  V30 531 N 42.4871 -1.93308 -6.74964 0
M  V30 532 H 47.3271 -1.93099 -2.26973 0
M  V30 533 H 44.8641 -0.962114 -1.11273 0
M  V30 534 H 46.8221 -0.324801 -4.15934 0
M  V30 535 H 45.4521 0.312845 -3.2128 0
M  V30 536 H 44.5041 -2.10669 -3.16738 0
M  V30 537 H 45.8161 -2.57704 -4.27071 0
M  V30 538 H 44.9701 -0.966173 -5.98957 0
M  V30 539 H 43.7091 -0.394272 -4.86104 0
M  V30 540 H 42.7141 -2.69805 -4.79046 0
M  V30 541 H 43.9391 -3.26728 -5.95336 0
M  V30 542 H 41.8851 -1.08352 -6.4699 0
M  V30 543 H 41.8021 -2.71217 -7.05675 0
M  V30 544 H 43.0701 -1.66252 -7.61564 0
M  V30 545 N 47.2992 1.18797 -1.03562 0
M  V30 546 C 48.5292 1.92319 -0.754773 0
M  V30 547 C 48.9372 1.7612 0.691248 0
M  V30 548 O 48.2802 1.08491 1.48241 0
M  V30 549 C 48.3422 3.44284 -1.03484 0
M  V30 550 C 48.0062 3.84258 -2.47376 0
M  V30 551 C 49.0032 3.88459 -3.45537 0
M  V30 552 C 46.6882 4.15701 -2.81954 0
M  V30 553 C 48.6822 4.23545 -4.76328 0
M  V30 554 C 46.3692 4.50458 -4.12954 0
M  V30 555 C 47.3672 4.54356 -5.09951 0
M  V30 556 O 47.0552 4.88305 -6.38603 0
M  V30 557 H 46.7872 0.617527 -0.275021 0
M  V30 558 H 49.3412 1.51683 -1.38497 0
M  V30 559 H 47.5712 3.85135 -0.347513 0
M  V30 560 H 49.2602 3.99049 -0.7426 0
M  V30 561 H 50.0262 3.6431 -3.20162 0
M  V30 562 H 45.9052 4.11847 -2.0713 0
M  V30 563 H 49.4492 4.26502 -5.52035 0
M  V30 564 H 45.3462 4.74067 -4.38099 0
M  V30 565 H 46.1142 5.06227 -6.43177 0
M  V30 566 N 48.7773 0.814389 1.34928 0
M  V30 567 C 50.0543 0.321363 1.92942 0
M  V30 568 C 50.4343 -1.19014 1.74353 0
M  V30 569 O 49.7823 -1.99328 1.11716 0
M  V30 570 C 49.9923 0.741323 3.41036 0
M  V30 571 C 51.3403 0.735266 4.18185 0
M  V30 572 O 52.3643 0.68336 3.49584 0
M  V30 573 O 51.2233 0.800703 5.40602 0
M  V30 574 H 48.3173 0.0858893 0.822528 0
M  V30 575 H 50.8633 0.898609 1.43955 0
M  V30 576 H 49.6353 1.78276 3.4833 0
M  V30 577 H 49.2583 0.139307 3.97356 0
M  V30 578 N 50.2554 -1.46986 0.568584 0
M  V30 579 C 51.5034 -2.02041 0.0487022 0
M  V30 580 C 51.8244 -1.44408 -1.31039 0
M  V30 581 O 51.0944 -0.623477 -1.85714 0
M  V30 582 H 49.6744 -0.746849 0.015014 0
M  V30 583 H 52.3364 -1.80257 0.741168 0
M  V30 584 H 51.4324 -3.12085 -0.0308961 0
M  V30 585 N 51.7335 -0.305618 -1.54608 0
M  V30 586 C 53.1495 0.0476228 -1.59529 0
M  V30 587 C 53.3495 1.52025 -1.32252 0
M  V30 588 O 52.4055 2.27368 -1.09818 0
M  V30 589 C 53.7185 -0.354471 -2.98603 0
M  V30 590 C 55.2665 -0.303622 -3.11524 0
M  V30 591 C 55.7415 -0.680608 -4.52915 0
M  V30 592 N 57.2325 -0.63332 -4.5885 0
M  V30 593 C 57.9675 -0.897432 -5.66334 0
M  V30 594 N 57.4635 -1.22775 -6.81834 0
M  V30 595 N 59.2565 -0.824186 -5.56025 0
M  V30 596 H 51.4075 -1.2653 -1.70599 0
M  V30 597 H 53.6705 -0.513291 -0.797017 0
M  V30 598 H 53.3765 -1.3798 -3.23503 0
M  V30 599 H 53.2505 0.289568 -3.76087 0
M  V30 600 H 55.6375 0.712472 -2.8637 0
M  V30 601 H 55.7185 -0.982348 -2.36185 0
M  V30 602 H 55.3625 -1.69453 -4.78799 0
M  V30 603 H 55.2925 0.0202385 -5.26596 0
M  V30 604 H 57.7835 -0.389138 -3.75891 0
M  V30 605 H 58.0965 -1.41513 -7.59733 0
M  V30 606 H 56.4415 -1.26583 -6.83375 0
M  V30 607 H 59.6325 -0.565748 -4.64669 0
M  V30 608 H 59.8055 -1.03338 -6.39707 0
M  V30 609 N 53.2116 1.57565 -0.0334293 0
M  V30 610 C 54.4396 1.9628 0.654347 0
M  V30 611 C 54.8546 0.910138 1.65414 0
M  V30 612 O 54.2116 -0.107595 1.82183 0
M  V30 613 C 54.2626 3.35067 1.35693 0
M  V30 614 O 53.9836 4.36296 0.397191 0
M  V30 615 C 55.4846 3.88439 2.13613 0
M  V30 616 H 52.7046 0.646369 0.180132 0
M  V30 617 H 55.2486 2.04282 -0.0944721 0
M  V30 618 H 53.4036 3.2827 2.05712 0
M  V30 619 H 53.8176 5.1678 0.896597 0
M  V30 620 H 55.2916 4.8788 2.58219 0
M  V30 621 H 55.7686 3.22914 2.97696 0
M  V30 622 H 56.3746 3.98516 1.48543 0
M  V30 623 N 54.6897 -0.239769 1.55765 0
M  V30 624 C 55.6367 -1.29696 1.90913 0
M  V30 625 C 56.6067 -1.47478 0.764164 0
M  V30 626 O 57.7917 -1.61345 1.01845 0
M  V30 627 C 54.9317 -2.64598 2.21544 0
M  V30 628 C 54.0447 -2.54765 3.48882 0
M  V30 629 C 53.1797 -3.82069 3.69049 0
M  V30 630 C 52.2187 -3.66883 4.89963 0
M  V30 631 N 51.3557 -4.86094 5.06614 0
M  V30 632 H 56.1957 -0.990224 2.81067 0
M  V30 633 H 53.7327 -0.477684 1.39128 0
M  V30 634 H 55.6907 -3.43132 2.3731 0
M  V30 635 H 54.3207 -2.93405 1.34585 0
M  V30 636 H 53.3727 -1.67763 3.41409 0
M  V30 637 H 54.6847 -2.39457 4.37563 0
M  V30 638 H 53.8387 -4.69046 3.84812 0
M  V30 639 H 52.5777 -4.00282 2.78614 0
M  V30 640 H 51.5827 -2.78289 4.74168 0
M  V30 641 H 52.8077 -3.50157 5.81865 0
M  V30 642 H 50.7537 -5.04655 4.19117 0
M  V30 643 H 50.6707 -4.73443 5.89396 0
M  V30 644 H 51.9387 -5.74549 5.26795 0
M  V30 645 N 56.1678 -1.49265 -0.50573 0
M  V30 646 C 57.5788 -1.51769 -1.08734 0
M  V30 647 C 57.9298 -0.301192 -1.93874 0
M  V30 648 O 57.0548 0.589456 -2.08217 0
M  V30 649 C 57.6498 -2.75017 -1.97867 0
M  V30 650 C 56.2088 -2.80314 -2.51199 0
M  V30 651 C 55.3558 -2.4562 -1.28709 0
M  V30 652 H 58.3068 -1.56031 -0.289855 0
M  V30 653 H 58.3278 -2.5491 -2.82491 0
M  V30 654 H 57.8398 -3.63539 -1.35873 0
M  V30 655 H 55.9408 -1.96061 -3.16845 0
M  V30 656 H 56.0538 -3.82366 -2.88675 0
M  V30 657 H 54.4178 -1.97297 -1.61078 0
M  V30 658 H 55.2008 -3.36411 -0.6843 0
M  V30 659 N 57.6459 0.756429 -1.3826 0
M  V30 660 C 58.8949 1.51082 -1.3363 0
M  V30 661 C 59.2079 1.95467 0.0720068 0
M  V30 662 O 60.4139 2.7043 0.240834 0
M  V30 663 C 58.8699 2.72893 -2.34644 0
M  V30 664 C 58.4779 2.35544 -3.81081 0
M  V30 665 C 60.2219 3.50791 -2.39052 0
M  V30 666 C 58.1289 3.53948 -4.73787 0
M  V30 667 H 57.0589 0.56727 -0.49671 0
M  V30 668 H 59.7099 0.827147 -1.638 0
M  V30 669 H 58.0919 3.43227 -1.97513 0
M  V30 670 H 59.2659 1.72894 -4.27135 0
M  V30 671 H 57.5809 1.70786 -3.79764 0
M  V30 672 H 60.1779 4.38823 -3.05513 0
M  V30 673 H 60.5209 3.91745 -1.40861 0
M  V30 674 H 61.0539 2.87467 -2.74968 0
M  V30 675 H 57.7929 3.18064 -5.73163 0
M  V30 676 H 57.3129 4.15651 -4.32428 0
M  V30 677 H 58.9919 4.20566 -4.91663 0
M  V30 678 N 59.124 1.23083 0.984299 0
M  V30 679 C 60.535 1.05609 1.5396 0
M  V30 680 C 60.886 -0.377793 1.92528 0
M  V30 681 O 60.011 -1.26398 1.75649 0
M  V30 682 C 60.606 1.91087 2.7977 0
M  V30 683 C 59.165 1.77885 3.31713 0
M  V30 684 C 58.312 1.87028 2.04733 0
M  V30 685 H 61.263 1.36802 0.804419 0
M  V30 686 H 61.284 1.43336 3.5247 0
M  V30 687 H 60.796 2.9544 2.51668 0
M  V30 688 H 58.897 0.762995 3.64704 0
M  V30 689 H 59.01 2.61047 4.01735 0
M  V30 690 H 57.374 1.30565 2.18689 0
M  V30 691 H 58.157 2.92929 1.79017 0
M  V30 692 N 60.6021 -1.18246 1.0419 0
M  V30 693 C 61.5491 -2.2192 0.634037 0
M  V30 694 C 62.5191 -1.62179 -0.358765 0
M  V30 695 O 63.7041 -1.89122 -0.252466 0
M  V30 696 C 60.8441 -3.451 0.00445535 0
M  V30 697 C 59.9571 -4.19174 1.04487 0
M  V30 698 C 59.0921 -5.29813 0.383676 0
M  V30 699 C 58.1311 -5.9566 1.4091 0
M  V30 700 N 57.2681 -6.97834 0.772784 0
M  V30 701 H 62.1081 -2.56164 1.52263 0
M  V30 702 H 59.6451 -1.25843 0.761701 0
M  V30 703 H 61.6031 -4.15485 -0.377919 0
M  V30 704 H 60.2331 -3.11472 -0.847652 0
M  V30 705 H 59.2851 -3.47604 1.54518 0
M  V30 706 H 60.5971 -4.64267 1.82368 0
M  V30 707 H 59.7511 -6.06677 -0.0528366 0
M  V30 708 H 58.4901 -4.85825 -0.427208 0
M  V30 709 H 57.4951 -5.17535 1.85574 0
M  V30 710 H 58.7201 -6.4173 2.22171 0
M  V30 711 H 56.6661 -6.55998 -0.0177708 0
M  V30 712 H 56.5831 -7.41186 1.48928 0
M  V30 713 H 57.8511 -7.78665 0.36071 0
M  V30 714 N 62.0802 -0.821533 -1.34494 0
M  V30 715 C 63.0272 -0.240397 -2.29545 0
M  V30 716 C 63.9972 0.634031 -1.53523 0
M  V30 717 O 65.1822 0.575966 -1.81899 0
M  V30 718 C 62.3222 0.592869 -3.39969 0
M  V30 719 C 61.4352 -0.30365 -4.30932 0
M  V30 720 C 60.5702 0.539049 -5.28458 0
M  V30 721 C 59.6092 -0.356942 -6.11058 0
M  V30 722 N 58.7462 0.446603 -7.00678 0
M  V30 723 H 63.5862 -1.05632 -2.7865 0
M  V30 724 H 61.1232 -0.532413 -1.37127 0
M  V30 725 H 63.0812 1.09129 -4.02675 0
M  V30 726 H 61.7112 1.37392 -2.92102 0
M  V30 727 H 60.7632 -0.920276 -3.691 0
M  V30 728 H 62.0752 -0.992661 -4.88823 0
M  V30 729 H 61.2292 1.102 -5.96608 0
M  V30 730 H 59.9682 1.26157 -4.71101 0
M  V30 731 H 58.9732 -0.932047 -5.41842 0
M  V30 732 H 60.1982 -1.07755 -6.70497 0
M  V30 733 H 58.1442 1.15282 -6.45791 0
M  V30 734 H 58.0612 -0.184048 -7.55776 0
M  V30 735 H 59.3292 0.992352 -7.73158 0
M  V30 736 N 63.5583 1.46682 -0.576371 0
M  V30 737 C 64.8063 2.02013 -0.0594163 0
M  V30 738 C 65.1273 1.45101 1.30271 0
M  V30 739 O 64.3973 0.633317 1.8538 0
M  V30 740 H 62.9773 0.746759 -0.0189745 0
M  V30 741 H 65.6393 1.79862 -0.750717 0
M  V30 742 H 64.7353 3.12097 0.014345 0
M  V30 743 N 65.0364 0.313813 1.54444 0
M  V30 744 C 66.2644 -0.293918 2.04802 0
M  V30 745 C 66.6794 -1.46537 1.19047 0
M  V30 746 O 66.0364 -1.81182 0.218939 0
M  V30 747 C 66.0874 -0.737806 3.53891 0
M  V30 748 O 65.8084 0.387038 4.36387 0
M  V30 749 C 67.3094 -1.40936 4.203 0
M  V30 750 H 64.5294 -0.0620057 0.668129 0
M  V30 751 H 67.0734 0.457169 1.99324 0
M  V30 752 H 65.2284 -1.43889 3.59687 0
M  V30 753 H 65.6424 0.0391274 5.24485 0
M  V30 754 H 67.1164 -1.67099 5.26101 0
M  V30 755 H 67.5934 -2.35355 3.70816 0
M  V30 756 H 68.1994 -0.751117 4.18615 0
M  V30 757 N 66.5145 -1.57545 0.0417849 0
M  V30 758 C 67.7605 -1.92601 -0.635021 0
M  V30 759 C 68.0935 -0.919627 -1.71045 0
M  V30 760 O 67.3685 0.0557892 -1.9442 0
M  V30 761 C 67.6515 -3.38085 -1.23979 0
M  V30 762 C 67.5045 -4.49467 -0.173057 0
M  V30 763 C 68.8235 -3.83776 -2.15416 0
M  V30 764 H 65.9425 -0.700397 -0.229374 0
M  V30 765 H 68.5845 -1.89728 0.101633 0
M  V30 766 H 66.7345 -3.40664 -1.86762 0
M  V30 767 H 68.4065 -4.59018 0.458312 0
M  V30 768 H 66.6495 -4.30909 0.499996 0
M  V30 769 H 67.3205 -5.48323 -0.636054 0
M  V30 770 H 69.7965 -3.83013 -1.62605 0
M  V30 771 H 68.6725 -4.8624 -2.54679 0
M  V30 772 H 68.9335 -3.19998 -3.05047 0
M  V30 773 N 67.9926 0.231505 -1.5589 0
M  V30 774 C 68.9026 1.308 -1.94752 0
M  V30 775 C 69.9186 1.51826 -0.849989 0
M  V30 776 O 71.0946 1.6515 -1.15271 0
M  V30 777 C 68.1596 2.63968 -2.24771 0
M  V30 778 C 67.2206 2.51331 -3.48039 0
M  V30 779 C 66.4536 3.78148 -3.76616 0
M  V30 780 O 66.6766 4.80722 -3.07022 0
M  V30 781 O 65.6106 3.75857 -4.70123 0
M  V30 782 H 69.4366 1.0083 -2.86474 0
M  V30 783 H 67.0216 0.433547 -1.42971 0
M  V30 784 H 68.9036 3.42633 -2.45318 0
M  V30 785 H 67.5786 2.9364 -1.36225 0
M  V30 786 H 66.4856 1.709 -3.32782 0
M  V30 787 H 67.8186 2.26601 -4.36936 0
M  V30 788 N 69.4707 1.49531 0.497807 0
M  V30 789 C 70.7187 1.58865 1.24926 0
M  V30 790 C 71.0397 0.278721 1.92998 0
M  V30 791 O 70.3097 -0.702144 1.82885 0
M  V30 792 H 68.8897 0.585343 0.464094 0
M  V30 793 H 71.5517 1.86174 0.57666 0
M  V30 794 H 70.6477 2.38633 2.01149 0
M  V30 795 N 70.9488 -0.749086 1.3866 0
M  V30 796 C 72.1958 -1.50833 1.35114 0
M  V30 797 C 72.5238 -1.94415 -0.0574049 0
M  V30 798 O 71.7788 -1.66065 -1.03541 0
M  V30 799 C 72.0778 -2.7712 2.25697 0
M  V30 800 C 71.7438 -2.52477 3.73585 0
M  V30 801 C 70.4058 -2.45466 4.13884 0
M  V30 802 C 72.7578 -2.31066 4.67181 0
M  V30 803 C 70.0858 -2.15064 5.45861 0
M  V30 804 C 72.4378 -2.02183 5.9942 0
M  V30 805 C 71.1018 -1.93631 6.38798 0
M  V30 806 H 70.3718 -0.551936 0.494416 0
M  V30 807 H 73.0188 -0.860979 1.71054 0
M  V30 808 H 71.3238 -3.46528 1.82827 0
M  V30 809 H 73.0208 -3.35096 2.20254 0
M  V30 810 H 69.6108 -2.58807 3.41638 0
M  V30 811 H 73.7948 -2.35459 4.3689 0
M  V30 812 H 69.0508 -2.06954 5.75308 0
M  V30 813 H 73.2248 -1.8462 6.71482 0
M  V30 814 H 70.8518 -1.69839 7.40985 0
M  V30 815 N 72.4269 -1.23603 -0.977757 0
M  V30 816 C 73.3369 -1.03632 -2.1047 0
M  V30 817 C 74.3529 0.0199435 -1.73989 0
M  V30 818 O 75.5289 -0.176076 -2.00629 0
M  V30 819 C 72.5939 -0.63276 -3.40877 0
M  V30 820 C 71.6549 -1.76437 -3.91367 0
M  V30 821 C 70.8879 -1.37997 -5.15551 0
M  V30 822 O 71.1109 -0.265357 -5.69782 0
M  V30 823 O 70.0449 -2.20201 -5.60174 0
M  V30 824 H 73.8709 -1.98086 -2.30208 0
M  V30 825 H 71.4559 -1.02332 -1.08851 0
M  V30 826 H 73.3379 -0.418761 -4.19314 0
M  V30 827 H 72.0129 0.282754 -3.22463 0
M  V30 828 H 70.9199 -2.03304 -3.14036 0
M  V30 829 H 72.2529 -2.6583 -4.14241 0
M  V30 830 N 73.905 1.17692 -1.04816 0
M  V30 831 C 75.316 1.69501 -0.782698 0
M  V30 832 C 75.667 1.83456 0.695577 0
M  V30 833 O 74.792 1.51942 1.54086 0
M  V30 834 C 75.387 3.07874 -1.41419 0
M  V30 835 C 73.946 3.56864 -1.19686 0
M  V30 836 C 73.093 2.3322 -1.50012 0
M  V30 837 H 76.044 1.02262 -1.2136 0
M  V30 838 H 76.065 3.71528 -0.821428 0
M  V30 839 H 75.577 2.97685 -2.49009 0
M  V30 840 H 73.678 3.72337 -0.140043 0
M  V30 841 H 73.791 4.39851 -1.89916 0
M  V30 842 H 72.155 2.37501 -0.920071 0
M  V30 843 H 72.938 2.25644 -2.58727 0
M  V30 844 N 75.3831 0.828654 1.34056 0
M  V30 845 C 76.3461 0.259927 2.27721 0
M  V30 846 C 77.3461 -0.565478 1.50529 0
M  V30 847 O 78.5361 -0.38075 1.69988 0
M  V30 848 C 75.6681 -0.634944 3.34935 0
M  V30 849 H 76.8611 1.0863 2.79534 0
M  V30 850 H 74.4141 0.600951 1.44285 0
M  V30 851 H 75.1491 -1.48416 2.88346 0
M  V30 852 H 74.9341 -0.0444999 3.92075 0
M  V30 853 H 76.4241 -1.02648 4.04788 0
M  V30 854 N 76.8612 -1.46375 0.584142 0
M  V30 855 C 78.1382 -1.956 0.0033388 0
M  V30 856 C 78.5182 -1.52679 -1.45782 0
M  V30 857 O 77.8662 -0.77816 -2.14842 0
M  V30 858 C 78.0762 -3.48551 0.176891 0
M  V30 859 C 79.4242 -4.24576 0.0454609 0
M  V30 860 O 80.4482 -3.56043 0.105801 0
M  V30 861 O 79.3072 -5.46427 -0.0890376 0
M  V30 862 H 76.4012 -0.825547 -0.0490066 0
M  V30 863 H 78.9472 -1.56652 0.65256 0
M  V30 864 H 77.7192 -3.72683 1.1926 0
M  V30 865 H 77.3422 -3.94332 -0.508695 0
M  V30 866 N 78.3393 -0.321999 -1.54275 0
M  V30 867 C 79.2873 0.560206 -2.25753 0
M  V30 868 C 80.2813 1.11984 -1.27106 0
M  V30 869 O 81.4873 1.06806 -1.44888 0
M  V30 870 H 77.8623 0.199304 -0.725108 0
M  V30 871 H 79.8333 -0.0649365 -2.98329 0
M  V30 872 C 78.5823 1.71023 -3.02731 0
M  V30 873 H 77.9053 1.28885 -3.78456 0
M  V30 874 H 79.3453 2.30314 -3.55993 0
M  V30 875 C 77.8043 2.62692 -2.10938 0
M  V30 876 O 78.3343 3.64364 -1.6912 0
M  V30 877 N 76.5403 2.30891 -1.76459 0
M  V30 878 H 76.0873 1.48253 -2.10663 0
M  V30 879 H 76.0453 2.92487 -1.1532 0
M  V30 880 N 79.8174 1.5752 -0.0501392 0
M  V30 881 C 80.7644 2.1147 0.924603 0
M  V30 882 C 81.7344 1.02182 1.30951 0
M  V30 883 O 82.9194 1.29723 1.39916 0
M  V30 884 C 80.0594 2.66337 2.19451 0
M  V30 885 C 79.1724 3.89708 1.86418 0
M  V30 886 C 78.3074 4.32893 3.07859 0
M  V30 887 C 77.3464 5.48967 2.70742 0
M  V30 888 N 76.4834 5.87211 3.84874 0
M  V30 889 H 81.3234 2.94465 0.457639 0
M  V30 890 H 78.8604 1.45531 0.214266 0
M  V30 891 H 80.8184 2.96247 2.93758 0
M  V30 892 H 79.4484 1.86141 2.63726 0
M  V30 893 H 78.5004 3.66396 1.02264 0
M  V30 894 H 79.8124 4.74074 1.55096 0
M  V30 895 H 78.9664 4.6435 3.90466 0
M  V30 896 H 77.7054 3.47336 3.42358 0
M  V30 897 H 76.7104 5.17183 1.86551 0
M  V30 898 H 77.9354 6.3624 2.37436 0
M  V30 899 H 75.8814 5.04607 4.19175 0
M  V30 900 H 75.7984 6.66266 3.57247 0
M  V30 901 H 77.0664 6.23282 4.68123 0
M  V30 902 N 81.2955 -0.223234 1.56011 0
M  V30 903 C 82.5355 -0.954962 1.8072 0
M  V30 904 C 82.8995 -1.81598 0.623384 0
M  V30 905 O 84.1005 -2.58132 0.749745 0
M  V30 906 C 82.3715 -1.77313 3.10314 0
M  V30 907 S 83.9305 -2.56073 3.56332 0
M  V30 908 H 80.7485 -0.320812 0.634508 0
M  V30 909 H 83.3505 -0.220686 1.9425 0
M  V30 910 H 82.0545 -1.13071 3.94516 0
M  V30 911 H 81.5855 -2.54974 2.99586 0
M  V30 912 H 83.6005 -3.79619 3.19536 0
M  V30 913 N 82.7736 -1.49793 -0.48987 0
M  V30 914 C 83.7036 -1.70201 -1.59856 0
M  V30 915 C 84.6846 -0.55076 -1.60937 0
M  V30 916 O 85.8696 -0.787841 -1.77501 0
M  V30 917 C 82.9996 -1.77882 -2.98287 0
M  V30 918 C 81.9536 -2.92907 -3.12073 0
M  V30 919 C 81.2796 -2.85712 -4.51965 0
M  V30 920 C 82.5796 -4.3369 -2.91051 0
M  V30 921 H 84.2736 -2.63025 -1.43032 0
M  V30 922 H 81.8196 -1.26574 -0.686664 0
M  V30 923 H 83.7726 -1.90744 -3.75759 0
M  V30 924 H 82.4966 -0.816653 -3.16225 0
M  V30 925 H 81.1556 -2.79665 -2.37029 0
M  V30 926 H 80.8036 -1.8738 -4.66795 0
M  V30 927 H 80.5036 -3.62921 -4.62128 0
M  V30 928 H 82.0276 -3.00598 -5.31482 0
M  V30 929 H 83.4416 -4.47555 -3.58284 0
M  V30 930 H 81.8386 -5.12205 -3.12675 0
M  V30 931 H 82.9086 -4.47362 -1.87071 0
M  V30 932 N 84.2517 0.741722 -1.39055 0
M  V30 933 C 85.1817 1.869 -1.39966 0
M  V30 934 C 86.1627 1.6804 -0.26392 0
M  V30 935 O 87.3477 1.88458 -0.468755 0
M  V30 936 C 84.4777 3.24572 -1.23574 0
M  V30 937 C 83.4317 3.58056 -2.34477 0
M  V30 938 C 82.7577 4.94593 -2.0318 0
M  V30 939 C 84.0577 3.61716 -3.76774 0
M  V30 940 H 85.7517 1.86395 -2.34302 0
M  V30 941 H 83.2977 0.895361 -1.1278 0
M  V30 942 H 85.2507 4.031 -1.22834 0
M  V30 943 H 83.9747 3.25587 -0.257045 0
M  V30 944 H 82.6337 2.81854 -2.34423 0
M  V30 945 H 82.2817 4.92181 -1.03765 0
M  V30 946 H 81.9817 5.17964 -2.77465 0
M  V30 947 H 83.5057 5.75486 -2.04079 0
M  V30 948 H 84.9197 4.30335 -3.78794 0
M  V30 949 H 83.3167 3.96603 -4.50362 0
M  V30 950 H 84.3867 2.61672 -4.08235 0
M  V30 951 N 85.7298 1.2412 0.971189 0
M  V30 952 C 87.1458 1.00584 1.23916 0
M  V30 953 C 87.3458 -0.287481 1.99439 0
M  V30 954 O 86.4018 -1.00454 2.31658 0
M  V30 955 C 87.7148 2.21864 2.0297 0
M  V30 956 C 89.2628 2.26452 2.16076 0
M  V30 957 C 89.7378 3.47343 2.98524 0
M  V30 958 N 91.2288 3.47639 3.06107 0
M  V30 959 C 91.9638 4.37837 3.70251 0
M  V30 960 N 91.4598 5.38286 4.36142 0
M  V30 961 N 93.2528 4.25558 3.67228 0
M  V30 962 H 85.4038 2.07236 0.465499 0
M  V30 963 H 87.6668 0.909236 0.268315 0
M  V30 964 H 87.3728 3.15771 1.54861 0
M  V30 965 H 87.2468 2.23698 3.03709 0
M  V30 966 H 89.6338 1.33078 2.6339 0
M  V30 967 H 89.7148 2.28645 1.14696 0
M  V30 968 H 89.3588 4.41029 2.51905 0
M  V30 969 H 89.2888 3.42393 4.00093 0
M  V30 970 H 91.7798 2.74966 2.59233 0
M  V30 971 H 92.0928 6.03352 4.82894 0
M  V30 972 H 90.4378 5.42176 4.34822 0
M  V30 973 H 93.6288 3.46322 3.14927 0
M  V30 974 H 93.8018 4.96054 4.16935 0
M  V30 975 N 87.2079 -1.17134 1.05439 0
M  V30 976 C 88.1709 -2.19439 0.661764 0
M  V30 977 C 89.1709 -1.58199 -0.288042 0
M  V30 978 O 90.3609 -1.74053 -0.0715803 0
M  V30 979 C 87.4929 -3.40889 -0.0276209 0
M  V30 980 H 88.6859 -2.55688 1.56728 0
M  V30 981 H 86.2389 -1.31259 0.848567 0
M  V30 982 H 86.9739 -3.10187 -0.94629 0
M  V30 983 H 86.7589 -3.86586 0.655238 0
M  V30 984 H 88.2489 -4.16603 -0.288342 0
M  V30 985 N 88.686 -0.835752 -1.33615 0
M  V30 986 C 89.914 -0.443344 -2.02094 0
M  V30 987 C 90.329 0.954522 -1.62894 0
M  V30 988 O 89.686 1.61982 -0.840723 0
M  V30 989 C 89.737 -0.550775 -3.5728 0
M  V30 990 O 89.458 -1.89356 -3.95065 0
M  V30 991 C 90.959 -0.154919 -4.43029 0
M  V30 992 H 88.179 -0.176359 -0.647409 0
M  V30 993 H 90.723 -1.12746 -1.70612 0
M  V30 994 H 88.878 0.0853997 -3.87306 0
M  V30 995 H 89.292 -1.87687 -4.89769 0
M  V30 996 H 90.766 -0.281144 -5.51284 0
M  V30 997 H 91.243 0.902863 -4.2982 0
M  V30 998 H 91.849 -0.765404 -4.18356 0
M  V30 999 N 90.1641 1.46063 -0.591896 0
M  V30 1000 C 91.4411 1.95595 -0.0137119 0
M  V30 1001 C 91.8211 1.5345 1.4497 0
M  V30 1002 O 91.1691 0.789543 2.14426 0
M  V30 1003 C 91.3791 3.48453 -0.195373 0
M  V30 1004 C 92.7271 4.24546 -0.0679765 0
M  V30 1005 O 93.7511 3.55982 -0.124681 0
M  V30 1006 O 92.6101 5.46467 0.0600579 0
M  V30 1007 H 89.7041 0.825795 0.0446279 0
M  V30 1008 H 92.2501 1.56303 -0.660859 0
M  V30 1009 H 91.0221 3.72045 -1.21235 0
M  V30 1010 H 90.6451 3.94597 0.487775 0
M  V30 1011 N 91.6422 0.330177 1.54103 0
M  V30 1012 C 92.8902 -0.269871 2.0029 0
M  V30 1013 C 93.2112 -1.52133 1.21986 0
M  V30 1014 O 92.4812 -1.93212 0.323438 0
M  V30 1015 H 91.0612 -0.10271 0.739905 0
M  V30 1016 H 93.7232 0.448249 1.89675 0
M  V30 1017 H 92.8192 -0.52166 3.07709 0
M  V30 1018 N 93.1203 -1.57491 0.0584922 0
M  V30 1019 C 94.0673 -2.11958 -0.913376 0
M  V30 1020 C 95.0373 -1.02875 -1.30407 0
M  V30 1021 O 96.2223 -1.30464 -1.39226 0
M  V30 1022 C 93.3623 -2.67497 -2.18035 0
M  V30 1023 C 92.4753 -3.90691 -1.84349 0
M  V30 1024 C 91.6103 -4.3452 -3.05559 0
M  V30 1025 C 90.6493 -5.50395 -2.67827 0
M  V30 1026 N 89.7863 -5.89244 -3.81754 0
M  V30 1027 H 94.6263 -2.94704 -0.442017 0
M  V30 1028 H 92.1633 -1.45643 -0.206545 0
M  V30 1029 H 94.1213 -2.978 -2.92183 0
M  V30 1030 H 92.7513 -1.87537 -2.62735 0
M  V30 1031 H 91.8033 -3.66934 -1.00319 0
M  V30 1032 H 93.1153 -4.7489 -1.5258 0
M  V30 1033 H 92.2693 -4.66414 -3.87998 0
M  V30 1034 H 91.0083 -3.49147 -3.40511 0
M  V30 1035 H 90.0133 -5.18165 -1.83806 0
M  V30 1036 H 91.2383 -6.3749 -2.34059 0
M  V30 1037 H 89.1843 -5.06823 -4.16493 0
M  V30 1038 H 89.1013 -6.68151 -3.53708 0
M  V30 1039 H 90.3693 -6.25756 -4.64811 0
M  V30 1040 N 94.5984 0.214957 -1.56127 0
M  V30 1041 C 95.5454 1.26642 -1.92952 0
M  V30 1042 C 96.5154 1.46244 -0.78753 0
M  V30 1043 O 97.7004 1.59704 -1.04399 0
M  V30 1044 C 94.8404 2.6104 -2.25726 0
M  V30 1045 C 93.9534 2.49183 -3.52891 0
M  V30 1046 C 93.0884 3.76149 -3.7508 0
M  V30 1047 C 92.1274 3.59041 -4.95738 0
M  V30 1048 N 91.2644 4.77972 -5.14283 0
M  V30 1049 H 96.1044 0.945384 -2.82607 0
M  V30 1050 H 93.6414 0.455489 -1.3987 0
M  V30 1051 H 95.5994 3.39313 -2.42739 0
M  V30 1052 H 94.2294 2.91227 -1.39236 0
M  V30 1053 H 93.2814 1.6231 -3.44034 0
M  V30 1054 H 94.5934 2.32466 -4.41318 0
M  V30 1055 H 93.7474 4.62865 -3.92226 0
M  V30 1056 H 92.4864 3.95799 -2.84947 0
M  V30 1057 H 91.4914 2.7071 -4.78535 0
M  V30 1058 H 92.7164 3.40856 -5.87362 0
M  V30 1059 H 90.6624 4.97923 -4.27093 0
M  V30 1060 H 90.5794 4.64006 -5.96853 0
M  V30 1061 H 91.8474 5.66096 -5.35869 0
M  V30 1062 N 96.0765 1.50051 0.48192 0
M  V30 1063 C 97.0235 1.68122 1.58125 0
M  V30 1064 C 97.9935 0.522545 1.57666 0
M  V30 1065 O 99.1785 0.751844 1.75362 0
M  V30 1066 C 96.3185 1.77142 2.96167 0
M  V30 1067 C 95.4315 3.0444 3.06497 0
M  V30 1068 C 94.5665 3.04321 4.35387 0
M  V30 1069 C 93.6055 4.26118 4.3942 0
M  V30 1070 N 92.7425 4.238 5.59766 0
M  V30 1071 H 97.5825 2.6198 1.42022 0
M  V30 1072 H 95.1195 1.29877 0.690687 0
M  V30 1073 H 97.0775 1.80352 3.76203 0
M  V30 1074 H 95.7075 0.867329 3.1093 0
M  V30 1075 H 94.7595 3.10752 2.19402 0
M  V30 1076 H 96.0715 3.94426 3.05336 0
M  V30 1077 H 95.2255 3.062 5.23762 0
M  V30 1078 H 93.9645 2.12147 4.39141 0
M  V30 1079 H 92.9695 4.24463 3.49444 0
M  V30 1080 H 94.1945 5.19507 4.37366 0
M  V30 1081 H 92.1405 3.34474 5.64326 0
M  V30 1082 H 92.0575 5.07542 5.60301 0
M  V30 1083 H 93.3255 4.2981 6.50295 0
M  V30 1084 N 97.5546 -0.734337 1.39446 0
M  V30 1085 C 98.8036 -1.48937 1.36017 0
M  V30 1086 C 99.1166 -1.95557 -0.0409005 0
M  V30 1087 O 100.323 -2.70779 -0.19778 0
M  V30 1088 C 98.7786 -2.69125 2.38955 0
M  V30 1089 C 98.3866 -2.29452 3.8478 0
M  V30 1090 C 100.131 -3.46944 2.44603 0
M  V30 1091 C 98.0376 -3.46366 4.79358 0
M  V30 1092 H 96.9676 -0.559296 0.505672 0
M  V30 1093 H 99.6186 -0.800983 1.65095 0
M  V30 1094 H 98.0006 -3.40041 2.02948 0
M  V30 1095 H 99.1746 -1.66077 4.29831 0
M  V30 1096 H 97.4896 -1.64723 3.82433 0
M  V30 1097 H 100.087 -4.33907 3.12456 0
M  V30 1098 H 100.43 -3.89454 1.47076 0
M  V30 1099 H 100.963 -2.83056 2.79507 0
M  V30 1100 H 97.7016 -3.08905 5.78151 0
M  V30 1101 H 97.2216 -4.08719 4.38986 0
M  V30 1102 H 98.9006 -4.12691 4.98292 0
M  V30 1103 N 99.0327 -1.24633 -0.964593 0
M  V30 1104 C 100.258 -1.11596 -1.74818 0
M  V30 1105 C 100.683 0.32723 -1.85232 0
M  V30 1106 O 100.041 1.23695 -1.32549 0
M  V30 1107 C 100.089 -1.76397 -3.1451 0
M  V30 1108 O 99.1927 -1.03685 -3.99153 0
M  V30 1109 H 98.5337 -0.390196 -0.537255 0
M  V30 1110 H 101.064 -1.65002 -1.20977 0
M  V30 1111 H 101.074 -1.8228 -3.65018 0
M  V30 1112 H 99.7487 -2.81401 -3.06246 0
M  V30 1113 H 98.3257 -1.05611 -3.57632 0
M  V30 1114 N 100.511 1.16574 -1.06058 0
M  V30 1115 C 101.739 1.90952 -0.796552 0
M  V30 1116 C 102.154 1.77302 0.648808 0
M  V30 1117 O 101.511 1.11605 1.44397 0
M  V30 1118 C 101.562 3.41736 -1.17894 0
M  V30 1119 O 101.283 3.54975 -2.56758 0
M  V30 1120 C 102.784 4.33169 -0.942308 0
M  V30 1121 H 100.004 0.605594 -0.288959 0
M  V30 1122 H 102.548 1.47777 -1.41358 0
M  V30 1123 H 100.703 3.82623 -0.606491 0
M  V30 1124 H 101.117 4.4846 -2.72 0
M  V30 1125 H 102.591 5.37439 -1.25952 0
M  V30 1126 H 103.068 4.3903 0.122078 0
M  V30 1127 H 103.674 3.98007 -1.49902 0
M  V30 1128 N 101.989 0.842826 1.3317 0
M  V30 1129 C 103.235 0.441099 1.97945 0
M  V30 1130 C 103.568 -0.998024 1.66593 0
M  V30 1131 O 102.843 -1.69839 0.947898 0
M  V30 1132 C 103.126 0.666841 3.53872 0
M  V30 1133 C 102.979 2.15352 3.94897 0
M  V30 1134 C 104.298 0.115544 4.39948 0
M  V30 1135 H 101.417 0.161739 0.719034 0
M  V30 1136 H 104.059 1.05907 1.57746 0
M  V30 1137 H 102.209 0.140828 3.88245 0
M  V30 1138 H 103.881 2.7447 3.70761 0
M  V30 1139 H 102.124 2.63653 3.44484 0
M  V30 1140 H 102.795 2.26221 5.03516 0
M  V30 1141 H 105.271 0.565213 4.12243 0
M  V30 1142 H 104.147 0.303152 5.48062 0
M  V30 1143 H 104.408 -0.980935 4.3108 0
M  V30 1144 N 103.467 -1.45747 0.599634 0
M  V30 1145 C 104.713 -2.02592 0.0918643 0
M  V30 1146 C 105.046 -1.46806 -1.27128 0
M  V30 1147 O 104.321 -0.639658 -1.83681 0
M  V30 1148 C 104.604 -3.60073 0.0443398 0
M  V30 1149 C 104.457 -4.26208 1.43759 0
M  V30 1150 C 105.776 -4.35309 -0.647608 0
M  V30 1151 H 102.895 -0.736175 0.034857 0
M  V30 1152 H 105.537 -1.73694 0.770081 0
M  V30 1153 H 103.687 -3.84823 -0.533224 0
M  V30 1154 H 105.359 -4.12668 2.06162 0
M  V30 1155 H 103.602 -3.84916 2.00056 0
M  V30 1156 H 104.273 -5.35069 1.35665 0
M  V30 1157 H 106.749 -4.15805 -0.156776 0
M  V30 1158 H 105.625 -5.45038 -0.649942 0
M  V30 1159 H 105.886 -4.07598 -1.71219 0
M  V30 1160 N 104.945 -0.338344 -1.53925 0
M  V30 1161 C 106.17 0.263987 -2.05713 0
M  V30 1162 C 106.595 1.43847 -1.21201 0
M  V30 1163 O 105.953 1.79904 -0.224535 0
M  V30 1164 C 106.001 0.662 -3.54471 0
M  V30 1165 O 105.105 1.76265 -3.72833 0
M  V30 1166 H 104.446 0.0448722 -0.662482 0
M  V30 1167 H 106.976 -0.491048 -1.9862 0
M  V30 1168 H 106.986 0.940594 -3.9701 0
M  V30 1169 H 105.661 -0.196937 -4.15433 0
M  V30 1170 H 104.238 1.48173 -3.42198 0
M  V30 1171 N 106.423 1.57458 -0.0668435 0
M  V30 1172 C 107.648 1.9804 0.616027 0
M  V30 1173 C 108.073 0.944771 1.62652 0
M  V30 1174 O 107.431 -0.0902094 1.81075 0
M  V30 1175 C 107.479 3.37665 1.26549 0
M  V30 1176 O 106.583 3.36701 2.38131 0
M  V30 1177 H 105.924 0.644719 0.158849 0
M  V30 1178 H 108.454 2.04121 -0.139891 0
M  V30 1179 H 108.464 3.7474 1.6135 0
M  V30 1180 H 107.139 4.12573 0.525016 0
M  V30 1181 H 105.716 3.1139 2.0516 0
M  V30 1182 N 107.901 -0.206675 1.56239 0
M  V30 1183 C 108.848 -1.25617 1.93621 0
M  V30 1184 C 109.818 -1.45824 0.795274 0
M  V30 1185 O 111.003 -1.59148 1.05245 0
M  V30 1186 C 108.143 -2.59839 2.27107 0
M  V30 1187 C 107.256 -2.47308 3.54207 0
M  V30 1188 C 106.391 -3.74155 3.7707 0
M  V30 1189 C 105.43 -3.56407 4.97635 0
M  V30 1190 N 104.567 -4.75238 5.1681 0
M  V30 1191 H 109.407 -0.930383 2.83104 0
M  V30 1192 H 106.944 -0.448065 1.4011 0
M  V30 1193 H 108.902 -3.38021 2.44535 0
M  V30 1194 H 107.532 -2.90485 1.40778 0
M  V30 1195 H 106.584 -1.60483 3.4489 0
M  V30 1196 H 107.896 -2.30122 4.42544 0
M  V30 1197 H 107.05 -4.60778 3.94675 0
M  V30 1198 H 105.789 -3.94282 2.87042 0
M  V30 1199 H 104.794 -2.68168 4.79964 0
M  V30 1200 H 106.019 -3.37736 5.89161 0
M  V30 1201 H 103.965 -4.95651 4.29728 0
M  V30 1202 H 103.882 -4.60835 5.99306 0
M  V30 1203 H 105.15 -5.63246 5.38864 0
M  V30 1204 N 109.379 -1.50304 -0.473955 0
M  V30 1205 C 110.289 -1.7174 -1.5982 0
M  V30 1206 C 111.305 -0.600457 -1.63311 0
M  V30 1207 O 112.481 -0.878441 -1.81233 0
M  V30 1208 C 109.546 -1.80427 -2.96052 0
M  V30 1209 C 108.607 -3.04148 -3.02972 0
M  V30 1210 C 107.84 -3.12411 -4.32706 0
M  V30 1211 O 108.063 -2.27542 -5.23049 0
M  V30 1212 O 106.997 -4.05113 -4.45159 0
M  V30 1213 H 110.823 -2.67035 -1.44657 0
M  V30 1214 H 108.408 -1.34366 -0.653148 0
M  V30 1215 H 110.29 -1.88338 -3.7697 0
M  V30 1216 H 108.965 -0.883156 -3.11419 0
M  V30 1217 H 107.872 -3.0174 -2.21142 0
M  V30 1218 H 109.205 -3.95829 -2.92541 0
M  V30 1219 N 110.857 0.726932 -1.39834 0
M  V30 1220 C 112.103 1.48884 -1.377 0
M  V30 1221 C 112.436 1.94185 0.0244852 0
M  V30 1222 O 111.711 1.67361 0.990986 0
M  V30 1223 C 111.994 2.72288 -2.3565 0
M  V30 1224 C 111.847 2.32956 -3.84775 0
M  V30 1225 C 113.166 3.74414 -2.31306 0
M  V30 1226 H 110.285 0.540062 -0.5015 0
M  V30 1227 H 112.927 0.830547 -1.70886 0
M  V30 1228 H 111.077 3.28457 -2.07481 0
M  V30 1229 H 112.749 1.82356 -4.23726 0
M  V30 1230 H 110.992 1.65088 -4.01159 0
M  V30 1231 H 111.663 3.21362 -4.4881 0
M  V30 1232 H 114.139 3.27849 -2.56231 0
M  V30 1233 H 113.015 4.58414 -3.01907 0
M  V30 1234 H 113.276 4.21909 -1.32081 0
M  V30 1235 N 112.336 1.25143 0.95797 0
M  V30 1236 C 113.284 1.05019 2.07542 0
M  V30 1237 C 114.278 -0.0178751 1.69391 0
M  V30 1238 O 115.484 0.137472 1.79474 0
M  V30 1239 H 111.859 0.32265 0.679265 0
M  V30 1240 H 113.83 1.99759 2.21673 0
M  V30 1241 C 112.579 0.682074 3.40944 0
M  V30 1242 H 111.902 1.49573 3.70767 0
M  V30 1243 H 113.342 0.580945 4.20001 0
M  V30 1244 C 111.801 -0.611608 3.31302 0
M  V30 1245 O 112.331 -1.65465 3.66038 0
M  V30 1246 N 110.537 -0.595982 2.84423 0
M  V30 1247 H 110.084 0.253192 2.56353 0
M  V30 1248 H 110.042 -1.46173 2.78354 0
M  V30 1249 N 113.814 -1.1601 1.06675 0
M  V30 1250 C 114.761 -2.20525 0.680967 0
M  V30 1251 C 115.731 -1.62904 -0.324283 0
M  V30 1252 O 116.916 -1.89615 -0.212294 0
M  V30 1253 C 114.056 -3.45013 0.0776551 0
M  V30 1254 C 113.169 -4.16863 1.13355 0
M  V30 1255 C 112.304 -5.2888 0.49597 0
M  V30 1256 C 111.343 -5.92537 1.53513 0
M  V30 1257 N 110.48 -6.96038 0.920631 0
M  V30 1258 H 115.32 -2.52876 1.57663 0
M  V30 1259 H 112.857 -1.24199 0.788223 0
M  V30 1260 H 114.815 -4.16193 -0.289704 0
M  V30 1261 H 113.445 -3.132 -0.781393 0
M  V30 1262 H 112.497 -3.44248 1.61857 0
M  V30 1263 H 113.809 -4.60294 1.92174 0
M  V30 1264 H 112.963 -6.06653 0.0758604 0
M  V30 1265 H 111.702 -4.86622 -0.324062 0
M  V30 1266 H 110.707 -5.13482 1.9651 0
M  V30 1267 H 111.932 -6.36873 2.35733 0
M  V30 1268 H 109.878 -6.55888 0.12138 0
M  V30 1269 H 109.795 -7.3786 1.64616 0
M  V30 1270 H 111.063 -7.77725 0.525795 0
M  V30 1271 N 115.292 -0.849877 -1.32721 0
M  V30 1272 C 116.539 -0.450923 -1.97416 0
M  V30 1273 C 116.867 0.992376 -1.67279 0
M  V30 1274 O 116.122 1.71048 -0.950845 0
M  V30 1275 C 116.421 -0.631272 -3.51781 0
M  V30 1276 C 116.087 -2.04432 -4.01894 0
M  V30 1277 C 114.749 -2.4308 -4.1529 0
M  V30 1278 C 117.101 -2.96679 -4.28522 0
M  V30 1279 C 114.429 -3.73257 -4.52654 0
M  V30 1280 C 116.781 -4.26349 -4.67343 0
M  V30 1281 C 115.445 -4.64939 -4.78945 0
M  V30 1282 H 114.715 -0.165004 -0.722395 0
M  V30 1283 H 117.362 -1.07901 -1.58207 0
M  V30 1284 H 115.667 0.0800767 -3.91718 0
M  V30 1285 H 117.364 -0.302709 -3.99856 0
M  V30 1286 H 113.954 -1.73419 -3.91949 0
M  V30 1287 H 118.138 -2.68054 -4.17685 0
M  V30 1288 H 113.394 -4.02946 -4.59831 0
M  V30 1289 H 117.568 -4.97895 -4.86902 0
M  V30 1290 H 115.195 -5.65855 -5.07654 0
M  V30 1291 N 116.77 1.45427 -0.607355 0
M  V30 1292 C 117.702 2.2871 0.149752 0
M  V30 1293 C 118.715 1.39937 0.831958 0
M  V30 1294 O 119.904 1.64313 0.697385 0
M  V30 1295 C 117.004 3.15673 1.23304 0
M  V30 1296 C 116.177 4.32722 0.637996 0
M  V30 1297 C 115.236 5.00895 1.61215 0
M  V30 1298 O 114.262 5.57697 1.13854 0
M  V30 1299 N 115.464 5.00159 2.94655 0
M  V30 1300 H 118.229 2.94328 -0.564882 0
M  V30 1301 H 115.79 1.55612 -0.446823 0
M  V30 1302 H 117.782 3.58144 1.88454 0
M  V30 1303 H 116.352 2.51965 1.8502 0
M  V30 1304 H 115.572 3.93734 -0.191572 0
M  V30 1305 H 116.86 5.08321 0.220665 0
M  V30 1306 H 116.258 4.553 3.35735 0
M  V30 1307 H 114.815 5.46495 3.55228 0
M  V30 1308 N 118.248 0.346503 1.53744 0
M  V30 1309 C 119.181 -0.552023 2.21423 0
M  V30 1310 C 120.159 -1.09798 1.19929 0
M  V30 1311 O 121.343 -1.1577 1.4876 0
M  V30 1312 C 118.47 -1.75972 2.89398 0
M  V30 1313 C 117.516 -1.34295 4.04805 0
M  V30 1314 S 118.349 -0.360263 5.34287 0
M  V30 1315 C 119.505 -1.57473 6.05767 0
M  V30 1316 H 119.738 0.0228119 2.97291 0
M  V30 1317 H 117.271 0.130579 1.53847 0
M  V30 1318 H 119.229 -2.45256 3.2918 0
M  V30 1319 H 117.89 -2.30578 2.1329 0
M  V30 1320 H 117.083 -2.24349 4.51313 0
M  V30 1321 H 116.685 -0.729555 3.66815 0
M  V30 1322 H 118.977 -2.50875 6.29339 0
M  V30 1323 H 119.92 -1.15138 6.98676 0
M  V30 1324 H 120.328 -1.77212 5.35963 0
M  V30 1325 N 119.726 -1.57421 0.075193 0
M  V30 1326 C 120.689 -2.11791 -0.876203 0
M  V30 1327 C 121.689 -1.04268 -1.22412 0
M  V30 1328 O 122.879 -1.30242 -1.15684 0
M  V30 1329 C 120.011 -2.62207 -2.17854 0
M  V30 1330 H 121.204 -2.9716 -0.40444 0
M  V30 1331 H 118.757 -1.55333 -0.173557 0
M  V30 1332 H 119.492 -1.803 -2.6956 0
M  V30 1333 H 119.277 -3.40802 -1.93897 0
M  V30 1334 H 120.767 -3.04335 -2.85955 0
M  V30 1335 N 121.204 0.198386 -1.56346 0
M  V30 1336 C 122.434 0.934215 -1.84271 0
M  V30 1337 C 122.842 1.77496 -0.655125 0
M  V30 1338 O 122.185 1.7961 0.385488 0
M  V30 1339 C 122.247 1.88278 -3.06254 0
M  V30 1340 C 121.911 1.22431 -4.40295 0
M  V30 1341 C 122.908 0.602839 -5.16393 0
M  V30 1342 C 120.593 1.22915 -4.87029 0
M  V30 1343 C 122.587 -0.0050083 -6.374 0
M  V30 1344 C 120.274 0.617465 -6.07973 0
M  V30 1345 C 121.272 0.00146341 -6.83 0
M  V30 1346 O 120.96 -0.600642 -8.01653 0
M  V30 1347 H 120.692 0.278245 -0.616081 0
M  V30 1348 H 123.246 0.211626 -2.04307 0
M  V30 1349 H 121.476 2.64498 -2.82095 0
M  V30 1350 H 123.165 2.48612 -3.20853 0
M  V30 1351 H 123.931 0.591265 -4.81382 0
M  V30 1352 H 119.81 1.69801 -4.28589 0
M  V30 1353 H 123.354 -0.48643 -6.95902 0
M  V30 1354 H 119.251 0.62653 -6.42452 0
M  V30 1355 H 120.019 -0.497225 -8.16988 0
M  V30 1356 N 122.682 1.50554 0.465978 0
M  V30 1357 C 123.907 1.65838 1.24549 0
M  V30 1358 C 124.332 0.343486 1.84937 0
M  V30 1359 O 123.69 -0.69324 1.67523 0
M  V30 1360 C 123.738 2.75533 2.32624 0
M  V30 1361 O 122.842 2.37142 3.37398 0
M  V30 1362 H 122.183 0.553893 0.366194 0
M  V30 1363 H 124.713 1.96959 0.553927 0
M  V30 1364 H 124.723 2.98763 2.77857 0
M  V30 1365 H 123.398 3.70962 1.88043 0
M  V30 1366 H 121.975 2.24377 2.97841 0
M  V30 1367 N 124.16 -0.719506 1.40217 0
M  V30 1368 C 125.108 -1.85493 1.40339 0
M  V30 1369 C 126.102 -1.66995 0.284415 0
M  V30 1370 O 127.308 -1.74148 0.455252 0
M  V30 1371 H 123.683 -0.610857 0.438586 0
M  V30 1372 H 125.654 -1.82506 2.36081 0
M  V30 1373 C 124.403 -3.23321 1.27901 0
M  V30 1374 H 123.726 -3.38159 2.1328 0
M  V30 1375 H 125.166 -4.02914 1.32045 0
M  V30 1376 C 123.625 -3.36898 -0.0111355 0
M  V30 1377 O 124.155 -3.89674 -0.975538 0
M  V30 1378 N 122.361 -2.90492 -0.0793393 0
M  V30 1379 H 121.908 -2.47731 0.706183 0
M  V30 1380 H 121.866 -2.99955 -0.942038 0
M  V30 1381 N 125.638 -1.25649 -0.95132 0
M  V30 1382 C 126.568 -1.08808 -2.06599 0
M  V30 1383 C 127.549 0.00382547 -1.701 0
M  V30 1384 O 128.734 -0.166325 -1.93486 0
M  V30 1385 C 125.864 -0.709542 -3.39975 0
M  V30 1386 C 124.818 -1.75206 -3.90496 0
M  V30 1387 C 124.144 -1.22811 -5.20405 0
M  V30 1388 C 125.444 -3.15153 -4.16504 0
M  V30 1389 H 127.138 -2.02048 -2.20946 0
M  V30 1390 H 124.684 -0.972835 -1.06169 0
M  V30 1391 H 126.637 -0.578649 -4.17408 0
M  V30 1392 H 125.361 0.258556 -3.25575 0
M  V30 1393 H 124.02 -1.87145 -3.15234 0
M  V30 1394 H 123.668 -0.250145 -5.02378 0
M  V30 1395 H 123.368 -1.92492 -5.55176 0
M  V30 1396 H 124.892 -1.10968 -6.00432 0
M  V30 1397 H 126.306 -3.06349 -4.84586 0
M  V30 1398 H 124.703 -3.82333 -4.62538 0
M  V30 1399 H 125.773 -3.61966 -3.22658 0
M  V30 1400 N 127.117 1.15442 -1.07289 0
M  V30 1401 C 128.047 2.22312 -0.714107 0
M  V30 1402 C 129.028 1.67467 0.298155 0
M  V30 1403 O 130.213 1.93445 0.171048 0
M  V30 1404 C 127.343 3.47124 -0.110448 0
M  V30 1405 C 126.297 4.14926 -1.04979 0
M  V30 1406 C 125.623 5.33807 -0.308924 0
M  V30 1407 C 126.923 4.64762 -2.38314 0
M  V30 1408 H 128.617 2.5258 -1.6076 0
M  V30 1409 H 126.163 1.21404 -0.77441 0
M  V30 1410 H 128.116 4.21124 0.152482 0
M  V30 1411 H 126.84 3.16187 0.81812 0
M  V30 1412 H 125.499 3.42866 -1.29764 0
M  V30 1413 H 125.147 4.99126 0.623084 0
M  V30 1414 H 124.847 5.80113 -0.935036 0
M  V30 1415 H 126.371 6.10576 -0.0537771 0
M  V30 1416 H 127.785 5.30292 -2.1786 0
M  V30 1417 H 126.182 5.21728 -2.96514 0
M  V30 1418 H 127.252 3.80434 -3.00663 0
M  V30 1419 N 128.595 0.856903 1.32268 0
M  V30 1420 C 130.011 0.547061 1.49931 0
M  V30 1421 C 130.211 -0.921781 1.7918 0
M  V30 1422 O 129.267 -1.70469 1.8627 0
M  V30 1423 C 130.58 1.43599 2.64196 0
M  V30 1424 C 132.128 1.43665 2.78081 0
M  V30 1425 C 132.603 2.31085 3.95428 0
M  V30 1426 N 134.094 2.28893 4.02694 0
M  V30 1427 C 134.829 2.93262 4.92732 0
M  V30 1428 N 134.325 3.66751 5.87763 0
M  V30 1429 N 136.118 2.82638 4.85873 0
M  V30 1430 H 128.269 1.8075 1.11549 0
M  V30 1431 H 130.532 0.772144 0.549997 0
M  V30 1432 H 130.238 2.48058 2.49319 0
M  V30 1433 H 130.112 1.12502 3.60032 0
M  V30 1434 H 132.499 0.399701 2.92381 0
M  V30 1435 H 132.58 1.7878 1.82952 0
M  V30 1436 H 132.224 3.34849 3.81888 0
M  V30 1437 H 132.154 1.93302 4.89839 0
M  V30 1438 H 134.645 1.75466 3.34694 0
M  V30 1439 H 134.958 4.13027 6.53168 0
M  V30 1440 H 133.303 3.70859 5.87783 0
M  V30 1441 H 136.494 2.24774 4.10602 0
M  V30 1442 H 136.667 3.33084 5.55841 0
M  V30 1443 N 130.073 -1.45103 0.615059 0
M  V30 1444 C 131.036 -2.29025 -0.0895485 0
M  V30 1445 C 132.036 -1.40174 -0.787906 0
M  V30 1446 O 133.226 -1.62217 -0.634933 0
M  V30 1447 C 130.358 -3.21376 -1.13711 0
M  V30 1448 H 131.551 -2.92807 0.648382 0
M  V30 1449 H 129.104 -1.51749 0.374444 0
M  V30 1450 H 129.839 -2.6241 -1.90556 0
M  V30 1451 H 129.624 -3.86834 -0.640475 0
M  V30 1452 H 131.114 -3.84459 -1.63036 0
M  V30 1453 N 131.551 -0.354651 -1.53558 0
M  V30 1454 C 132.499 0.512195 -2.26891 0
M  V30 1455 C 133.493 1.09263 -1.29452 0
M  V30 1456 O 134.699 1.03709 -1.47121 0
M  V30 1457 H 131.074 0.183878 -0.729173 0
M  V30 1458 H 133.045 -0.128202 -2.98124 0
M  V30 1459 C 131.794 1.64563 -3.06291 0
M  V30 1460 H 131.117 1.20829 -3.81104 0
M  V30 1461 H 132.557 2.22711 -3.60799 0
M  V30 1462 C 131.016 2.58158 -2.16462 0
M  V30 1463 O 131.546 3.60695 -1.76811 0
M  V30 1464 N 129.752 2.27096 -1.81317 0
M  V30 1465 H 129.299 1.43751 -2.1376 0
M  V30 1466 H 129.257 2.89975 -1.21498 0
M  V30 1467 N 133.029 1.57378 -0.0835403 0
M  V30 1468 C 133.962 2.09016 0.915833 0
M  V30 1469 C 134.94 0.997993 1.2837 0
M  V30 1470 O 136.124 1.27219 1.39096 0
M  V30 1471 C 133.251 2.55757 2.22049 0
M  V30 1472 C 132.297 3.76522 2.00333 0
M  V30 1473 S 133.13 5.20661 1.25191 0
M  V30 1474 C 134.286 5.70743 2.56912 0
M  V30 1475 H 134.519 2.93457 0.476492 0
M  V30 1476 H 132.052 1.53856 0.129493 0
M  V30 1477 H 134.01 2.83346 2.97027 0
M  V30 1478 H 132.671 1.71564 2.63106 0
M  V30 1479 H 131.864 4.07256 2.96916 0
M  V30 1480 H 131.466 3.49367 1.33488 0
M  V30 1481 H 133.758 5.78304 3.52946 0
M  V30 1482 H 134.701 6.6944 2.30772 0
M  V30 1483 H 135.109 4.98616 2.64655 0
M  V30 1484 N 134.507 -0.190092 1.56449 0
M  V30 1485 C 135.784 -0.935886 1.71757 0
M  V30 1486 C 136.164 -2.01173 0.639726 0
M  V30 1487 O 135.512 -2.25827 -0.348502 0
M  V30 1488 C 135.722 -1.51775 3.1427 0
M  V30 1489 C 137.07 -1.99794 3.74656 0
M  V30 1490 O 138.094 -1.61607 3.1743 0
M  V30 1491 O 136.953 -2.70079 4.751 0
M  V30 1492 H 134.047 -0.439229 0.700719 0
M  V30 1493 H 136.593 -0.179395 1.68749 0
M  V30 1494 H 135.365 -0.742505 3.84191 0
M  V30 1495 H 134.988 -2.33894 3.21527 0
M  V30 1496 N 135.985 -1.50799 -0.457987 0
M  V30 1497 C 137.233 -1.62121 -1.2067 0
M  V30 1498 C 137.554 -0.329793 -1.92191 0
M  V30 1499 O 136.824 0.653409 -1.84682 0
M  V30 1500 H 135.404 -0.597441 -0.448411 0
M  V30 1501 H 138.066 -1.87637 -0.527096 0
M  V30 1502 H 137.162 -2.43882 -1.94751 0
M  V30 1503 N 137.463 0.71206 -1.40597 0
M  V30 1504 C 138.393 1.83889 -1.43899 0
M  V30 1505 C 139.374 1.67442 -0.299504 0
M  V30 1506 O 140.559 1.87421 -0.508624 0
M  V30 1507 C 137.689 3.21877 -1.30431 0
M  V30 1508 C 136.643 3.53002 -2.42019 0
M  V30 1509 C 135.969 4.90172 -2.13626 0
M  V30 1510 C 137.269 3.53643 -3.84362 0
M  V30 1511 H 138.963 1.81383 -2.38203 0
M  V30 1512 H 136.509 0.871237 -1.14654 0
M  V30 1513 H 138.462 4.00404 -1.31357 0
M  V30 1514 H 137.186 3.24968 -0.326049 0
M  V30 1515 H 135.845 2.76818 -2.40349 0
M  V30 1516 H 135.493 4.89869 -1.14182 0
M  V30 1517 H 135.193 5.11962 -2.88389 0
M  V30 1518 H 136.717 5.71028 -2.1624 0
M  V30 1519 H 138.131 4.22203 -3.87837 0
M  V30 1520 H 136.528 3.86961 -4.58673 0
M  V30 1521 H 137.598 2.52954 -4.13693 0
M  V30 1522 N 138.941 1.26152 0.944643 0
M  V30 1523 C 139.888 1.07408 2.04285 0
M  V30 1524 C 140.858 -0.0198413 1.66088 0
M  V30 1525 O 142.043 0.139264 1.90291 0
M  V30 1526 C 139.183 0.70945 3.37729 0
M  V30 1527 C 138.296 1.87926 3.88983 0
M  V30 1528 C 137.431 1.45807 5.10797 0
M  V30 1529 C 136.47 2.5964 5.54305 0
M  V30 1530 N 135.607 2.18226 6.67324 0
M  V30 1531 H 140.447 2.01389 2.1965 0
M  V30 1532 H 137.984 1.00275 1.07626 0
M  V30 1533 H 139.942 0.478948 4.14442 0
M  V30 1534 H 138.572 -0.193389 3.2222 0
M  V30 1535 H 137.624 2.22279 3.08701 0
M  V30 1536 H 138.936 2.73377 4.17213 0
M  V30 1537 H 138.09 1.18781 5.94959 0
M  V30 1538 H 136.829 0.574414 4.84305 0
M  V30 1539 H 135.834 2.87399 4.68702 0
M  V30 1540 H 137.059 3.48599 5.828 0
M  V30 1541 H 135.005 1.3229 6.42523 0
M  V30 1542 H 134.922 2.97221 6.95123 0
M  V30 1543 H 136.19 1.94403 7.54869 0
M  V30 1544 N 140.419 -1.14872 1.07899 0
M  V30 1545 C 141.366 -2.19791 0.704319 0
M  V30 1546 C 142.336 -1.63238 -0.306987 0
M  V30 1547 O 143.521 -1.8983 -0.192171 0
M  V30 1548 C 140.661 -3.44911 0.114244 0
M  V30 1549 C 139.774 -4.15637 1.1777 0
M  V30 1550 C 138.909 -5.28324 0.552037 0
M  V30 1551 C 137.948 -5.90875 1.59789 0
M  V30 1552 N 137.085 -6.95022 0.994404 0
M  V30 1553 H 141.925 -2.5119 1.60336 0
M  V30 1554 H 139.462 -1.23356 0.801352 0
M  V30 1555 H 141.42 -4.16477 -0.245544 0
M  V30 1556 H 140.05 -3.14011 -0.74813 0
M  V30 1557 H 139.102 -3.42512 1.65499 0
M  V30 1558 H 140.414 -4.5823 1.97046 0
M  V30 1559 H 139.568 -6.06538 0.1402 0
M  V30 1560 H 138.307 -4.86939 -0.272431 0
M  V30 1561 H 137.312 -5.11369 2.01945 0
M  V30 1562 H 138.537 -6.34337 2.42474 0
M  V30 1563 H 136.483 -6.55722 0.190939 0
M  V30 1564 H 136.4 -7.36073 1.72432 0
M  V30 1565 H 137.668 -7.77123 0.608253 0
M  V30 1566 N 141.898 -0.863906 -1.31812 0
M  V30 1567 C 143.314 -0.555004 -1.49639 0
M  V30 1568 C 143.514 0.912266 -1.79666 0
M  V30 1569 O 142.57 1.69479 -1.87171 0
M  V30 1570 C 143.883 -1.44998 -2.63431 0
M  V30 1571 C 145.431 -1.45138 -2.77316 0
M  V30 1572 C 145.906 -2.33179 -3.94197 0
M  V30 1573 N 147.397 -2.31025 -4.01474 0
M  V30 1574 C 148.132 -2.95871 -4.9117 0
M  V30 1575 N 147.628 -3.69863 -5.8581 0
M  V30 1576 N 149.421 -2.85211 -4.84367 0
M  V30 1577 H 141.572 -1.81339 -1.10589 0
M  V30 1578 H 143.835 -0.77505 -0.545895 0
M  V30 1579 H 143.541 -2.49377 -2.48 0
M  V30 1580 H 143.415 -1.14409 -3.59431 0
M  V30 1581 H 145.802 -0.415201 -2.92164 0
M  V30 1582 H 145.883 -1.79747 -1.82001 0
M  V30 1583 H 145.527 -3.3687 -3.80107 0
M  V30 1584 H 145.457 -1.95897 -4.88807 0
M  V30 1585 H 147.948 -1.77238 -3.33759 0
M  V30 1586 H 148.261 -4.16486 -6.50968 0
M  V30 1587 H 146.606 -3.73971 -5.85808 0
M  V30 1588 H 149.797 -2.26948 -4.09405 0
M  V30 1589 H 149.97 -3.36027 -5.54066 0
M  V30 1590 N 143.376 1.44774 -0.622745 0
M  V30 1591 C 144.653 1.95522 -0.0551974 0
M  V30 1592 C 145.033 1.5649 1.41683 0
M  V30 1593 O 144.381 0.834848 2.12703 0
M  V30 1594 C 144.591 3.4796 -0.269242 0
M  V30 1595 C 145.939 4.24306 -0.158014 0
M  V30 1596 O 146.963 3.55637 -0.200162 0
M  V30 1597 O 145.822 5.46471 -0.0558693 0
M  V30 1598 H 142.916 0.826556 0.0271015 0
M  V30 1599 H 145.462 1.54866 -0.693864 0
M  V30 1600 H 144.234 3.6939 -1.29099 0
M  V30 1601 H 143.857 3.95543 0.403966 0
M  V30 1602 N 144.854 0.36279 1.53368 0
M  V30 1603 C 145.801 -0.485008 2.25646 0
M  V30 1604 C 146.771 -1.07982 1.2621 0
M  V30 1605 O 147.956 -1.11284 1.54986 0
M  V30 1606 C 145.096 -1.62023 3.04701 0
M  V30 1607 C 144.209 -1.05086 4.19024 0
M  V30 1608 C 143.344 -2.15496 4.85525 0
M  V30 1609 C 142.383 -1.5601 5.91884 0
M  V30 1610 N 141.52 -2.60241 6.52088 0
M  V30 1611 H 146.36 0.137864 2.97681 0
M  V30 1612 H 143.897 0.0798061 1.46883 0
M  V30 1613 H 145.855 -2.28887 3.48807 0
M  V30 1614 H 144.485 -2.2138 2.34927 0
M  V30 1615 H 143.537 -0.27259 3.79422 0
M  V30 1616 H 144.849 -0.575926 4.95464 0
M  V30 1617 H 144.003 -2.90186 5.32801 0
M  V30 1618 H 142.742 -2.66341 4.08551 0
M  V30 1619 H 141.747 -0.798338 5.43973 0
M  V30 1620 H 142.972 -1.05994 6.70777 0
M  V30 1621 H 140.918 -3.10304 5.77968 0
M  V30 1622 H 140.835 -2.17426 7.24059 0
M  V30 1623 H 142.103 -3.34641 7.04014 0
M  V30 1624 N 146.332 -1.57332 0.0918853 0
M  V30 1625 C 147.279 -2.13847 -0.868211 0
M  V30 1626 C 148.249 -1.05618 -1.28196 0
M  V30 1627 O 149.434 -1.33387 -1.36427 0
M  V30 1628 C 146.574 -2.72062 -2.12312 0
M  V30 1629 C 145.687 -3.94514 -1.7602 0
M  V30 1630 C 144.822 -4.40903 -2.96273 0
M  V30 1631 C 143.861 -5.55953 -2.56092 0
M  V30 1632 N 142.998 -5.97209 -3.69169 0
M  V30 1633 H 147.838 -2.95575 -0.379406 0
M  V30 1634 H 145.375 -1.46048 -0.175606 0
M  V30 1635 H 147.333 -3.03931 -2.858 0
M  V30 1636 H 145.963 -1.93068 -2.58698 0
M  V30 1637 H 145.015 -3.68979 -0.925135 0
M  V30 1638 H 146.327 -4.7802 -1.42472 0
M  V30 1639 H 145.481 -4.74539 -3.78018 0
M  V30 1640 H 144.22 -3.56291 -3.33029 0
M  V30 1641 H 143.225 -5.21948 -1.72773 0
M  V30 1642 H 144.45 -6.42311 -2.20484 0
M  V30 1643 H 142.396 -5.15543 -4.05649 0
M  V30 1644 H 142.313 -6.75504 -3.39456 0
M  V30 1645 H 143.581 -6.35475 -4.51434 0
M  V30 1646 N 147.81 0.181792 -1.56548 0
M  V30 1647 C 148.758 1.24461 -1.965 0
M  V30 1648 C 149.752 1.464 -0.852261 0
M  V30 1649 O 150.958 1.47103 -1.03733 0
M  V30 1650 H 147.333 0.418138 -0.625031 0
M  V30 1651 H 149.304 0.880714 -2.85107 0
M  V30 1652 C 148.053 2.57891 -2.33212 0
M  V30 1653 H 147.376 2.41829 -3.18369 0
M  V30 1654 H 148.816 3.3097 -2.65019 0
M  V30 1655 C 147.275 3.15871 -1.17163 0
M  V30 1656 O 147.805 3.9913 -0.453708 0
M  V30 1657 N 146.011 2.74808 -0.944936 0
M  V30 1658 H 145.558 2.07205 -1.53049 0
M  V30 1659 H 145.516 3.13939 -0.170286 0
M  V30 1660 N 149.288 1.51039 0.449983 0
M  V30 1661 C 150.235 1.71439 1.54523 0
M  V30 1662 C 151.205 0.555871 1.56522 0
M  V30 1663 O 152.39 0.788871 1.73728 0
M  V30 1664 C 149.53 1.83384 2.92343 0
M  V30 1665 C 148.643 3.10873 2.9997 0
M  V30 1666 C 147.778 3.13488 4.28834 0
M  V30 1667 C 146.817 4.35343 4.30282 0
M  V30 1668 N 145.954 4.35579 5.5065 0
M  V30 1669 H 150.794 2.64934 1.36433 0
M  V30 1670 H 148.331 1.31312 0.662982 0
M  V30 1671 H 150.289 1.88291 3.72293 0
M  V30 1672 H 148.919 0.933086 3.0902 0
M  V30 1673 H 147.971 3.15336 2.12761 0
M  V30 1674 H 149.283 4.00814 2.96901 0
M  V30 1675 H 148.437 3.17241 5.17149 0
M  V30 1676 H 147.176 2.21414 4.34543 0
M  V30 1677 H 146.181 4.3178 3.40362 0
M  V30 1678 H 147.406 5.28668 4.26248 0
M  V30 1679 H 145.352 3.46369 5.57104 0
M  V30 1680 H 145.269 5.19313 5.49409 0
M  V30 1681 H 146.537 4.43507 6.41032 0
M  V30 1682 N 150.766 -0.704594 1.40972 0
M  V30 1683 C 151.994 -1.49354 1.43182 0
M  V30 1684 C 152.409 -1.88768 0.0345508 0
M  V30 1685 O 151.766 -1.56184 -0.944081 0
M  V30 1686 C 151.817 -2.76187 2.33244 0
M  V30 1687 O 151.538 -2.38436 3.67532 0
M  V30 1688 C 153.039 -3.7 2.44162 0
M  V30 1689 H 150.259 -0.460559 0.487982 0
M  V30 1690 H 152.803 -0.868261 1.85153 0
M  V30 1691 H 150.958 -3.34974 1.94606 0
M  V30 1692 H 151.372 -3.20126 4.15475 0
M  V30 1693 H 152.846 -4.55803 3.11364 0
M  V30 1694 H 153.323 -4.13867 1.47006 0
M  V30 1695 H 153.929 -3.17121 2.83398 0
M  V30 1696 N 152.244 -1.26651 -0.937939 0
M  V30 1697 C 153.191 -1.0849 -2.03712 0
M  V30 1698 C 154.161 0.011033 -1.66096 0
M  V30 1699 O 155.346 -0.149353 -1.90215 0
M  V30 1700 C 152.486 -0.72735 -3.37348 0
M  V30 1701 C 151.599 -1.89986 -3.87981 0
M  V30 1702 C 150.734 -1.48513 -5.10017 0
M  V30 1703 C 149.773 -2.62575 -5.5292 0
M  V30 1704 N 148.91 -2.21762 -6.66158 0
M  V30 1705 H 153.75 -2.02551 -2.18579 0
M  V30 1706 H 151.287 -1.00844 -1.07093 0
M  V30 1707 H 153.245 -0.50092 -4.14182 0
M  V30 1708 H 151.875 0.176298 -3.22318 0
M  V30 1709 H 150.927 -2.23913 -3.07518 0
M  V30 1710 H 152.239 -2.75586 -4.15757 0
M  V30 1711 H 151.393 -1.21934 -5.94321 0
M  V30 1712 H 150.132 -0.60009 -4.83994 0
M  V30 1713 H 149.137 -2.8988 -4.67172 0
M  V30 1714 H 150.362 -3.51685 -5.80943 0
M  V30 1715 H 148.308 -1.35696 -6.41812 0
M  V30 1716 H 148.225 -3.00903 -6.93537 0
M  V30 1717 H 149.493 -1.98403 -7.53828 0
M  V30 1718 N 153.722 1.14298 -1.08507 0
M  V30 1719 C 154.669 2.19414 -0.715965 0
M  V30 1720 C 155.639 1.63399 0.298326 0
M  V30 1721 O 156.824 1.89929 0.182101 0
M  V30 1722 C 153.964 3.44845 -0.132534 0
M  V30 1723 C 153.077 4.15007 -1.19973 0
M  V30 1724 C 152.212 5.28024 -0.580048 0
M  V30 1725 C 151.251 5.9002 -1.62921 0
M  V30 1726 N 150.388 6.94485 -1.03125 0
M  V30 1727 H 155.228 2.50336 -1.61666 0
M  V30 1728 H 152.765 1.2293 -0.807882 0
M  V30 1729 H 154.723 4.16601 0.223454 0
M  V30 1730 H 153.353 3.14403 0.731467 0
M  V30 1731 H 152.405 3.41629 -1.67313 0
M  V30 1732 H 153.717 4.57178 -1.99473 0
M  V30 1733 H 152.871 6.06455 -0.172364 0
M  V30 1734 H 151.61 4.87076 0.246603 0
M  V30 1735 H 150.615 5.10291 -2.04654 0
M  V30 1736 H 151.84 6.33042 -2.45835 0
M  V30 1737 H 149.786 6.55612 -0.225711 0
M  V30 1738 H 149.703 7.35148 -1.76334 0
M  V30 1739 H 150.971 7.7679 -0.649458 0
M  V30 1740 N 155.201 0.870884 1.31352 0
M  V30 1741 C 156.429 0.49677 2.00848 0
M  V30 1742 C 156.844 -0.910998 1.65367 0
M  V30 1743 O 156.201 -1.59696 0.883374 0
M  V30 1744 C 156.252 0.645308 3.55694 0
M  V30 1745 O 155.973 1.99764 3.89905 0
M  V30 1746 C 157.474 0.272326 4.42463 0
M  V30 1747 H 154.694 0.193462 0.642506 0
M  V30 1748 H 157.238 1.1723 1.67563 0
M  V30 1749 H 155.393 0.0173176 3.87396 0
M  V30 1750 H 155.807 2.00607 4.84621 0
M  V30 1751 H 157.281 0.427208 5.50344 0
M  V30 1752 H 157.758 -0.788587 4.32062 0
M  V30 1753 H 158.364 0.876054 4.1618 0
M  V30 1754 N 156.679 -1.44442 0.630414 0
M  V30 1755 C 157.626 -2.30678 -0.0749355 0
M  V30 1756 C 158.596 -1.4344 -0.837502 0
M  V30 1757 O 159.781 -1.72343 -0.818684 0
M  V30 1758 C 156.921 -3.28706 -1.05103 0
M  V30 1759 C 156.034 -4.31046 -0.286954 0
M  V30 1760 C 155.169 -5.16167 -1.2548 0
M  V30 1761 C 154.208 -6.10216 -0.479843 0
M  V30 1762 N 153.345 -6.88039 -1.39811 0
M  V30 1763 H 158.185 -2.90454 0.666386 0
M  V30 1764 H 155.722 -1.43107 0.340404 0
M  V30 1765 H 157.68 -3.84027 -1.63031 0
M  V30 1766 H 156.31 -2.70632 -1.75949 0
M  V30 1767 H 155.362 -3.78203 0.408243 0
M  V30 1768 H 156.674 -4.97794 0.316657 0
M  V30 1769 H 155.828 -5.76002 -1.90544 0
M  V30 1770 H 154.567 -4.49491 -1.89233 0
M  V30 1771 H 153.572 -5.49491 0.184295 0
M  V30 1772 H 154.797 -6.78928 0.152965 0
M  V30 1773 H 152.743 -6.24032 -2.02287 0
M  V30 1774 H 152.66 -7.51223 -0.848508 0
M  V30 1775 H 153.928 -7.52397 -2.03762 0
M  V30 1776 N 158.157 -0.370918 -1.53173 0
M  V30 1777 C 159.12 0.460778 -2.24521 0
M  V30 1778 C 160.12 1.00536 -1.25496 0
M  V30 1779 O 161.31 0.890266 -1.49733 0
M  V30 1780 C 158.442 1.64457 -2.98608 0
M  V30 1781 H 159.635 -0.163613 -2.99453 0
M  V30 1782 H 157.188 -0.122699 -1.55818 0
M  V30 1783 H 157.923 2.30691 -2.2793 0
M  V30 1784 H 157.708 1.26099 -3.7127 0
M  V30 1785 H 159.198 2.23384 -3.5283 0
M  V30 1786 N 159.635 1.57281 -0.100228 0
M  V30 1787 C 160.598 2.13158 0.842398 0
M  V30 1788 C 161.598 1.06202 1.20738 0
M  V30 1789 O 162.788 1.32066 1.13597 0
M  V30 1790 C 159.92 2.65639 2.13655 0
M  V30 1791 H 161.113 2.97766 0.357114 0
M  V30 1792 H 158.666 1.5559 0.148823 0
M  V30 1793 H 159.401 1.84566 2.66657 0
M  V30 1794 H 159.186 3.43844 1.88451 0
M  V30 1795 H 160.676 3.08846 2.81077 0
M  V30 1796 N 161.113 -0.173488 1.56642 0
M  V30 1797 C 162.076 -1.19859 1.95362 0
M  V30 1798 C 163.076 -1.37296 0.83704 0
M  V30 1799 O 164.266 -1.34739 1.10413 0
M  V30 1800 C 161.398 -2.56405 2.24654 0
M  V30 1801 H 162.591 -0.867062 2.87092 0
M  V30 1802 H 160.144 -0.415853 1.50666 0
M  V30 1803 H 160.879 -2.94576 1.35631 0
M  V30 1804 H 160.664 -2.45115 3.06041 0
M  V30 1805 H 162.154 -3.30287 2.5554 0
M  V30 1806 N 162.591 -1.51276 -0.441967 0
M  V30 1807 C 163.554 -1.7167 -1.51862 0
M  V30 1808 C 164.554 -0.586793 -1.49711 0
M  V30 1809 O 165.744 -0.854276 -1.51815 0
M  V30 1810 C 162.876 -1.76889 -2.91416 0
M  V30 1811 H 164.069 -2.67754 -1.35084 0
M  V30 1812 H 161.622 -1.41196 -0.670333 0
M  V30 1813 H 162.357 -0.826026 -3.13604 0
M  V30 1814 H 162.142 -2.59001 -2.94382 0
M  V30 1815 H 163.632 -1.94522 -3.69528 0
M  V30 1816 N 164.069 0.697108 -1.41344 0
M  V30 1817 C 165.032 1.79281 -1.42797 0
M  V30 1818 C 166.032 1.57607 -0.318837 0
M  V30 1819 O 167.222 1.64309 -0.578642 0
M  V30 1820 C 164.354 3.17632 -1.23785 0
M  V30 1821 H 165.547 1.79385 -2.40335 0
M  V30 1822 H 163.1 0.904582 -1.27464 0
M  V30 1823 H 163.835 3.23167 -0.270814 0
M  V30 1824 H 163.62 3.34765 -2.04144 0
M  V30 1825 H 165.11 3.97617 -1.27633 0
M  V30 1826 N 165.547 1.27147 0.931209 0
M  V30 1827 C 166.51 1.09615 2.01289 0
M  V30 1828 C 167.51 0.0412581 1.60747 0
M  V30 1829 O 168.7 0.285545 1.71844 0
M  V30 1830 C 165.832 0.669447 3.34262 0
M  V30 1831 H 167.025 2.05662 2.18273 0
M  V30 1832 H 164.578 1.09885 1.11153 0
M  V30 1833 H 165.313 -0.292572 3.22978 0
M  V30 1834 H 165.098 1.43127 3.65044 0
M  V30 1835 H 166.588 0.568921 4.13706 0
M  V30 1836 N 167.025 -1.13721 1.09112 0
M  V30 1837 C 167.988 -2.17222 0.731241 0
M  V30 1838 C 168.988 -1.59035 -0.237566 0
M  V30 1839 O 170.178 -1.74192 -0.0161704 0
M  V30 1840 C 167.31 -3.40804 0.0808443 0
M  V30 1841 H 168.503 -2.50573 1.64783 0
M  V30 1842 H 166.056 -1.28493 0.889897 0
M  V30 1843 H 166.791 -3.1304 -0.847127 0
M  V30 1844 H 166.576 -3.84306 0.777896 0
M  V30 1845 H 168.066 -4.1731 -0.155657 0
M  V30 1846 N 168.503 -0.877838 -1.30888 0
M  V30 1847 C 169.466 -0.344265 -2.266 0
M  V30 1848 C 170.466 0.50922 -1.52524 0
M  V30 1849 O 171.656 0.317398 -1.71284 0
M  V30 1850 C 168.788 0.510198 -3.37061 0
M  V30 1851 H 169.981 -1.1893 -2.7531 0
M  V30 1852 H 167.534 -0.654088 -1.41956 0
M  V30 1853 H 168.269 1.37612 -2.93655 0
M  V30 1854 H 168.054 -0.101047 -3.9197 0
M  V30 1855 H 169.544 0.875537 -4.08319 0
M  V30 1856 N 169.982 1.44106 -0.638065 0
M  V30 1857 C 170.945 2.29138 0.0531013 0
M  V30 1858 C 171.945 1.41409 0.765506 0
M  V30 1859 O 173.135 1.63206 0.609046 0
M  V30 1860 C 170.267 3.23144 1.08584 0
M  V30 1861 H 171.46 2.91739 -0.694883 0
M  V30 1862 H 169.013 1.51134 -0.398538 0
M  V30 1863 H 169.748 2.65408 1.86357 0
M  V30 1864 H 169.533 3.87804 0.578852 0
M  V30 1865 H 171.023 3.87004 1.56899 0
M  V30 1866 N 171.46 0.379036 1.52974 0
M  V30 1867 C 172.871 -0.0972525 1.86447 0
M  V30 1868 C 173.222 -1.47027 1.29914 0
M  V30 1869 O 172.347 -2.07135 0.626433 0
M  V30 1870 C 172.942 -0.183248 3.38304 0
M  V30 1871 C 171.501 -0.603812 3.71525 0
M  V30 1872 C 170.648 0.240632 2.76254 0
M  V30 1873 H 173.599 0.597316 1.4703 0
M  V30 1874 H 173.62 -1.00432 3.67006 0
M  V30 1875 H 173.132 0.816191 3.79421 0
M  V30 1876 H 171.233 -1.61099 3.35973 0
M  V30 1877 H 171.346 -0.369086 4.77676 0
M  V30 1878 H 169.71 -0.292548 2.53014 0
M  V30 1879 H 170.493 1.23786 3.20206 0
M  V30 1880 N 172.938 -1.57226 0.108567 0
M  V30 1881 C 173.901 -2.13602 -0.831082 0
M  V30 1882 C 174.901 -1.06841 -1.20173 0
M  V30 1883 O 176.091 -1.32666 -1.12895 0
M  V30 1884 C 173.223 -2.66769 -2.12243 0
M  V30 1885 H 174.416 -2.97951 -0.341317 0
M  V30 1886 H 171.969 -1.55667 -0.14057 0
M  V30 1887 H 172.704 -1.85977 -2.65675 0
M  V30 1888 H 172.489 -3.44839 -1.86625 0
M  V30 1889 H 173.979 -3.10332 -2.79435 0
M  V30 1890 N 174.416 0.165178 -1.56732 0
M  V30 1891 C 175.379 1.18822 -1.95995 0
M  V30 1892 C 176.379 1.3685 -0.84431 0
M  V30 1893 O 177.569 1.34152 -1.11126 0
M  V30 1894 C 174.701 2.5521 -2.26011 0
M  V30 1895 H 175.894 0.851825 -2.87548 0
M  V30 1896 H 173.447 0.407857 -1.50885 0
M  V30 1897 H 174.182 2.93852 -1.37191 0
M  V30 1898 H 173.967 2.43489 -3.07336 0
M  V30 1899 H 175.457 3.28927 -2.57288 0
M  V30 1900 N 175.894 1.51508 0.433938 0
M  V30 1901 C 176.857 1.72473 1.50949 0
M  V30 1902 C 177.857 0.594725 1.49398 0
M  V30 1903 O 179.047 0.862315 1.5136 0
M  V30 1904 C 176.179 1.78431 2.90474 0
M  V30 1905 H 177.372 2.68467 1.33662 0
M  V30 1906 H 174.925 1.41549 0.662836 0
M  V30 1907 H 175.66 0.842645 3.13161 0
M  V30 1908 H 175.445 2.60558 2.93005 0
M  V30 1909 H 176.935 1.96479 3.68491 0
M  V30 1910 N 177.372 -0.689602 1.41712 0
M  V30 1911 C 178.335 -1.78521 1.43746 0
M  V30 1912 C 179.335 -1.57436 0.327191 0
M  V30 1913 O 180.525 -1.64 0.587348 0
M  V30 1914 C 177.657 -3.16971 1.25467 0
M  V30 1915 H 178.85 -1.78108 2.41283 0
M  V30 1916 H 176.403 -0.89781 1.27942 0
M  V30 1917 H 177.138 -3.23019 0.287948 0
M  V30 1918 H 176.923 -3.33678 2.05917 0
M  V30 1919 H 178.413 -3.96935 1.2974 0
M  V30 1920 N 178.85 -1.27639 -0.924453 0
M  V30 1921 C 180.078 -1.16989 -1.70649 0
M  V30 1922 C 180.493 0.272869 -1.86818 0
M  V30 1923 O 179.85 1.18549 -1.38753 0
M  V30 1924 C 179.901 -1.85229 -3.10439 0
M  V30 1925 O 179.622 -3.23868 -2.95028 0
M  V30 1926 C 181.123 -1.80746 -4.04779 0
M  V30 1927 H 178.343 -0.406595 -0.53378 0
M  V30 1928 H 180.887 -1.68569 -1.15778 0
M  V30 1929 H 179.042 -1.37545 -3.6216 0
M  V30 1930 H 179.456 -3.57889 -3.83426 0
M  V30 1931 H 180.93 -2.33101 -5.00368 0
M  V30 1932 H 181.407 -0.777499 -4.32263 0
M  V30 1933 H 182.013 -2.28059 -3.58984 0
M  V30 1934 N 180.328 1.1314 -1.09713 0
M  V30 1935 C 181.291 2.16831 -0.742751 0
M  V30 1936 C 182.291 1.59159 0.229129 0
M  V30 1937 O 183.481 1.74199 0.00693237 0
M  V30 1938 C 180.613 3.40756 -0.0989168 0
M  V30 1939 H 181.806 2.49695 -1.66109 0
M  V30 1940 H 179.359 1.2802 -0.896699 0
M  V30 1941 H 180.094 3.13485 0.830514 0
M  V30 1942 H 179.879 3.83888 -0.798265 0
M  V30 1943 H 181.369 4.17386 0.133524 0
M  V30 1944 N 181.806 0.884767 1.30421 0
M  V30 1945 C 183.217 0.553656 1.78302 0
M  V30 1946 C 183.568 -0.930153 1.7275 0
M  V30 1947 O 182.693 -1.72681 1.30423 0
M  V30 1948 C 183.288 0.998234 3.2376 0
M  V30 1949 C 181.847 0.71854 3.69478 0
M  V30 1950 C 180.994 1.18132 2.50879 0
M  V30 1951 H 183.945 1.06901 1.17294 0
M  V30 1952 H 183.966 0.327118 3.79091 0
M  V30 1953 H 183.478 2.0782 3.27769 0
M  V30 1954 H 181.579 -0.349444 3.70958 0
M  V30 1955 H 181.692 1.30595 4.60958 0
M  V30 1956 H 180.056 0.600669 2.47516 0
M  V30 1957 H 180.839 2.26902 2.57624 0
M  V30 1958 N 183.284 -1.43765 0.645699 0
M  V30 1959 C 184.512 -2.06253 0.163556 0
M  V30 1960 C 184.927 -1.48352 -1.16778 0
M  V30 1961 O 184.284 -0.611932 -1.71935 0
M  V30 1962 C 184.335 -3.61453 0.0583186 0
M  V30 1963 O 184.056 -4.172 1.33702 0
M  V30 1964 C 185.557 -4.41002 -0.450795 0
M  V30 1965 H 182.777 -0.665413 0.0864077 0
M  V30 1966 H 185.321 -1.84396 0.884222 0
M  V30 1967 H 183.476 -3.82522 -0.612865 0
M  V30 1968 H 183.89 -5.10791 1.19131 0
M  V30 1969 H 185.364 -5.49966 -0.473403 0
M  V30 1970 H 185.841 -4.13488 -1.48068 0
M  V30 1971 H 186.447 -4.24886 0.187637 0
M  V30 1972 N 184.763 -0.387143 -1.52771 0
M  V30 1973 C 185.991 0.195869 -2.05971 0
M  V30 1974 C 186.406 1.40691 -1.25903 0
M  V30 1975 O 185.763 1.79931 -0.305134 0
M  V30 1976 C 185.814 0.56812 -3.57008 0
M  V30 1977 O 185.535 -0.594803 -4.34043 0
M  V30 1978 C 187.036 1.20723 -4.26545 0
M  V30 1979 H 184.256 0.0300578 -0.670326 0
M  V30 1980 H 186.8 -0.551749 -1.96916 0
M  V30 1981 H 184.955 1.26564 -3.66143 0
M  V30 1982 H 185.369 -0.289322 -5.23701 0
M  V30 1983 H 186.843 1.41807 -5.33474 0
M  V30 1984 H 187.32 2.17395 -3.81623 0
M  V30 1985 H 187.926 0.550535 -4.21722 0
M  V30 1986 N 186.241 1.57166 -0.116904 0
M  V30 1987 C 187.204 2.14039 0.819742 0
M  V30 1988 C 188.204 1.07477 1.19605 0
M  V30 1989 O 189.394 1.33263 1.1219 0
M  V30 1990 C 186.526 2.67891 2.10826 0
M  V30 1991 H 187.719 2.98128 0.325511 0
M  V30 1992 H 185.272 1.55739 0.132312 0
M  V30 1993 H 186.007 1.87384 2.64685 0
M  V30 1994 H 185.792 3.45823 1.84793 0
M  V30 1995 H 187.282 3.11809 2.77785 0
M  V30 1996 N 187.719 -0.156864 1.56817 0
M  V30 1997 C 188.682 -1.17781 1.96622 0
M  V30 1998 C 189.682 -1.36401 0.851555 0
M  V30 1999 O 190.872 -1.33561 1.11836 0
M  V30 2000 C 188.004 -2.54008 2.27361 0
M  V30 2001 H 189.197 -0.836564 2.87996 0
M  V30 2002 H 186.75 -0.39985 1.51099 0
M  V30 2003 H 187.485 -2.9312 1.38748 0
M  V30 2004 H 187.27 -2.41856 3.08623 0
M  V30 2005 H 188.76 -3.27558 2.59029 0
M  V30 2006 N 189.197 -1.51736 -0.425897 0
M  V30 2007 C 190.425 -1.68794 -1.1965 0
M  V30 2008 C 190.84 -0.390164 -1.84725 0
M  V30 2009 O 190.197 0.632376 -1.71194 0
M  V30 2010 C 190.248 -2.81174 -2.27208 0
M  V30 2011 O 189.969 -4.05925 -1.64793 0
M  V30 2012 C 191.47 -3.09599 -3.17275 0
M  V30 2013 H 188.69 -0.566128 -0.360194 0
M  V30 2014 H 191.234 -1.98211 -0.503249 0
M  V30 2015 H 189.389 -2.54324 -2.9223 0
M  V30 2016 H 189.803 -4.68423 -2.35967 0
M  V30 2017 H 191.277 -3.91786 -3.88854 0
M  V30 2018 H 191.754 -2.22468 -3.78688 0
M  V30 2019 H 192.36 -3.38151 -2.57941 0
M  V30 2020 N 190.675 0.682077 -1.42076 0
M  V30 2021 C 191.903 1.47057 -1.4554 0
M  V30 2022 C 192.318 1.8869 -0.0645779 0
M  V30 2023 O 191.675 1.57666 0.919115 0
M  V30 2024 C 191.726 2.72442 -2.37609 0
M  V30 2025 O 191.447 2.32559 -3.71279 0
M  V30 2026 C 192.948 3.66069 -2.50017 0
M  V30 2027 H 190.168 0.452737 -0.495248 0
M  V30 2028 H 192.712 0.838695 -1.8651 0
M  V30 2029 H 190.867 3.31835 -1.9991 0
M  V30 2030 H 191.281 3.13475 -4.20516 0
M  V30 2031 H 192.755 4.50792 -3.18576 0
M  V30 2032 H 193.232 4.11476 -1.53572 0
M  V30 2033 H 193.838 3.12572 -2.88407 0
M  V30 2034 N 192.153 1.28127 0.917671 0
M  V30 2035 C 193.116 1.11744 2.00115 0
M  V30 2036 C 194.116 0.0583052 1.60694 0
M  V30 2037 O 195.306 0.303755 1.71531 0
M  V30 2038 C 192.438 0.704862 3.33533 0
M  V30 2039 H 193.631 2.07966 2.16079 0
M  V30 2040 H 191.184 1.11058 1.09981 0
M  V30 2041 H 191.919 -0.258299 3.2327 0
M  V30 2042 H 191.704 1.4699 3.63505 0
M  V30 2043 H 193.194 0.612768 4.1308 0
M  V30 2044 N 193.631 -1.12557 1.10312 0
M  V30 2045 C 194.594 -2.16434 0.75424 0
M  V30 2046 C 195.594 -1.59278 -0.220685 0
M  V30 2047 O 196.784 -1.742 0.00230591 0
M  V30 2048 C 193.916 -3.40699 0.116987 0
M  V30 2049 H 195.109 -2.48811 1.67431 0
M  V30 2050 H 192.662 -1.27542 0.903475 0
M  V30 2051 H 193.397 -3.13921 -0.813877 0
M  V30 2052 H 193.182 -3.83459 0.818613 0
M  V30 2053 H 194.672 -4.17451 -0.111387 0
M  V30 2054 N 195.109 -0.891671 -1.2995 0
M  V30 2055 C 196.337 -0.52866 -2.00032 0
M  V30 2056 C 196.752 0.884574 -1.66795 0
M  V30 2057 O 196.109 1.5827 -0.908669 0
M  V30 2058 C 196.16 -0.701814 -3.54622 0
M  V30 2059 O 195.881 -2.05942 -3.86678 0
M  V30 2060 C 197.382 -0.342683 -4.41973 0
M  V30 2061 H 194.602 -0.203659 -0.639347 0
M  V30 2062 H 197.146 -1.19881 -1.65677 0
M  V30 2063 H 195.301 -0.0789468 -3.8732 0
M  V30 2064 H 195.715 -2.08291 -4.81368 0
M  V30 2065 H 197.189 -0.514709 -5.49595 0
M  V30 2066 H 197.666 0.71975 -4.33262 0
M  V30 2067 H 198.272 -0.942154 -4.14733 0
M  V30 2068 N 196.587 1.43421 -0.653314 0
M  V30 2069 C 197.55 2.29182 0.0287951 0
M  V30 2070 C 198.55 1.42213 0.750465 0
M  V30 2071 O 199.74 1.63843 0.591701 0
M  V30 2072 C 196.872 3.24278 1.05151 0
M  V30 2073 H 198.065 2.90985 -0.725786 0
M  V30 2074 H 195.618 1.50702 -0.414545 0
M  V30 2075 H 196.353 2.6737 1.83532 0
M  V30 2076 H 196.138 3.88396 0.537687 0
M  V30 2077 H 197.628 3.88647 1.52786 0
M  V30 2078 N 198.065 0.39524 1.52563 0
M  V30 2079 C 199.028 -0.425001 2.25225 0
M  V30 2080 C 200.028 -0.985266 1.27079 0
M  V30 2081 O 201.218 -0.866332 1.5113 0
M  V30 2082 C 198.35 -1.59686 3.01186 0
M  V30 2083 H 199.543 0.211233 2.99155 0
M  V30 2084 H 197.096 0.147472 1.55603 0
M  V30 2085 H 197.831 -2.27035 2.31572 0
M  V30 2086 H 197.616 -1.20176 3.73229 0
M  V30 2087 H 199.106 -2.17743 3.5634 0
M  V30 2088 N 199.544 -1.57102 0.125237 0
M  V30 2089 C 200.476 -2.12726 -0.853237 0
M  V30 2090 C 201.489 -1.07145 -1.22571 0
M  V30 2091 O 202.678 -1.34497 -1.17358 0
M  V30 2092 C 199.778 -2.61709 -2.15317 0
M  V30 2093 C 198.951 -3.91456 -1.95143 0
M  V30 2094 C 198.01 -4.25973 -3.08923 0
M  V30 2095 O 197.036 -4.94682 -2.81564 0
M  V30 2096 N 198.238 -3.83795 -4.35524 0
M  V30 2097 H 201.003 -2.97307 -0.377964 0
M  V30 2098 H 198.564 -1.61792 -0.0590011 0
M  V30 2099 H 200.556 -2.81826 -2.90441 0
M  V30 2100 H 199.126 -1.81974 -2.54174 0
M  V30 2101 H 198.346 -3.80185 -1.04177 0
M  V30 2102 H 199.634 -4.76283 -1.78976 0
M  V30 2103 H 199.032 -3.2839 -4.60626 0
M  V30 2104 H 197.589 -4.09008 -5.07499 0
M  V30 2105 O 201.061 0.0139771 -1.61494 0
M  V30 2106 H 201.752 0.632534 -1.83081 0
M  V30 END ATOM
M  V30 BEGIN BOND
M  V30 END BOND
M  V30 END CTAB
M  END
$$$$
