drugbank_target|Q9KWT6 AlgQ1 (DB01982; DB02734; DB03652)
 OpenBabel12092120233D

  0  0  0     0  0            999 V3000
M  V30 BEGIN CTAB
M  V30 COUNTS 8452 8573 0 0 0
M  V30 BEGIN ATOM
M  V30 1 H -0.908 1.98254 -0.117106 0
M  V30 2 N 0 1.576 0 0
M  V30 3 C 0.933 2.03868 1.02534 0
M  V30 4 C 1.911 0.928543 1.3348 0
M  V30 5 O 3.095 1.19667 1.45644 0
M  V30 6 C 0.222 2.43627 2.35294 0
M  V30 7 C -0.732 3.65373 2.2001 0
M  V30 8 S 0.101 5.13292 1.52614 0
M  V30 9 C 1.257 5.56322 2.86805 0
M  V30 10 H 1.49 2.90518 0.631377 0
M  V30 11 H -0.977 1.52953 0.210867 0
M  V30 12 H 0.981 2.67203 3.11629 0
M  V30 13 H -0.358 1.57376 2.7183 0
M  V30 14 H -1.165 3.90944 3.18086 0
M  V30 15 H -1.563 3.418 1.51819 0
M  V30 16 H 0.729 5.58782 3.83104 0
M  V30 17 H 1.672 6.56266 2.65933 0
M  V30 18 H 2.08 4.83886 2.90714 0
M  V30 19 N 1.4781 -0.272755 1.55222 0
M  V30 20 C 2.4251 -1.33716 1.88119 0
M  V30 21 C 3.3951 -1.49066 0.73271 0
M  V30 22 O 4.5801 -1.63469 0.984002 0
M  V30 23 C 1.7201 -2.69238 2.15882 0
M  V30 24 C 0.8331 -2.62108 3.43399 0
M  V30 25 C -0.0319 -3.89811 3.60861 0
M  V30 26 C -0.9929 -3.77193 4.8207 0
M  V30 27 N -1.8559 -4.9673 4.96189 0
M  V30 28 H 2.9841 -1.04962 2.78903 0
M  V30 29 H 0.5211 -0.507088 1.38083 0
M  V30 30 H 2.4791 -3.48089 2.29978 0
M  V30 31 H 1.1091 -2.96194 1.28331 0
M  V30 32 H 0.1611 -1.74967 3.37773 0
M  V30 33 H 1.4731 -2.48685 4.32386 0
M  V30 34 H 0.6271 -4.77103 3.74777 0
M  V30 35 H -0.6339 -4.06102 2.7006 0
M  V30 36 H -1.6289 -2.88284 4.68159 0
M  V30 37 H -0.4039 -3.62421 5.74307 0
M  V30 38 H -2.4579 -5.13431 4.08319 0
M  V30 39 H -2.5409 -4.85839 5.79221 0
M  V30 40 H -1.2729 -5.85594 5.1449 0
M  V30 41 N 2.9562 -1.48159 -0.537278 0
M  V30 42 C 3.9032 -1.62138 -1.64256 0
M  V30 43 C 4.8732 -0.463668 -1.59497 0
M  V30 44 O 6.0582 -0.686241 -1.78032 0
M  V30 45 C 3.1982 -1.66028 -3.02537 0
M  V30 46 C 2.3112 -2.92855 -3.17585 0
M  V30 47 C 1.4462 -2.87952 -4.46382 0
M  V30 48 C 0.4852 -4.09516 -4.54932 0
M  V30 49 N -0.3778 -4.02733 -5.75109 0
M  V30 50 H 4.4622 -2.56529 -1.51647 0
M  V30 51 H 1.9992 -1.27224 -0.738414 0
M  V30 52 H 3.9572 -1.66265 -3.82638 0
M  V30 53 H 2.5872 -0.751331 -3.13934 0
M  V30 54 H 1.6392 -3.02395 -2.30784 0
M  V30 55 H 2.9512 -3.82822 -3.19764 0
M  V30 56 H 2.1052 -2.8655 -5.34765 0
M  V30 57 H 0.8442 -1.95702 -4.46712 0
M  V30 58 H -0.1508 -4.11201 -3.64957 0
M  V30 59 H 1.0742 -5.02917 -4.56346 0
M  V30 60 H -0.9798 -3.13299 -5.76351 0
M  V30 61 H -1.0628 -4.86397 -5.78752 0
M  V30 62 H 0.2052 -4.05379 -6.65799 0
M  V30 63 N 4.4343 0.785586 -1.36625 0
M  V30 64 C 5.3643 1.91259 -1.33949 0
M  V30 65 C 6.3453 1.68795 -0.210325 0
M  V30 66 O 7.5303 1.89854 -0.408561 0
M  V30 67 C 4.6603 3.28339 -1.13186 0
M  V30 68 C 3.6143 3.65335 -2.22967 0
M  V30 69 C 2.9403 5.00806 -1.87342 0
M  V30 70 C 4.2403 3.7352 -3.65075 0
M  V30 71 H 5.9343 1.93755 -2.28253 0
M  V30 72 H 3.4803 0.930788 -1.09874 0
M  V30 73 H 5.4333 4.06804 -1.09948 0
M  V30 74 H 4.1573 3.2624 -0.153332 0
M  V30 75 H 2.8163 2.89169 -2.25337 0
M  V30 76 H 2.4643 4.95233 -0.880545 0
M  V30 77 H 2.1643 5.26529 -2.60846 0
M  V30 78 H 3.6883 5.81687 -1.85667 0
M  V30 79 H 5.1023 4.42168 -3.64911 0
M  V30 80 H 3.4993 4.10731 -4.37516 0
M  V30 81 H 4.5693 2.74527 -3.99703 0
M  V30 82 N 5.9124 1.20967 1.01018 0
M  V30 83 C 7.1584 1.02526 1.74975 0
M  V30 84 C 7.4914 -0.4408 1.89131 0
M  V30 85 O 6.7664 -1.32718 1.42184 0
M  V30 86 C 7.0494 1.71699 3.1653 0
M  V30 87 C 6.9024 3.25791 3.10129 0
M  V30 88 C 8.2214 1.45531 4.15342 0
M  V30 89 H 5.3404 0.373863 0.635134 0
M  V30 90 H 7.9824 1.49071 1.17805 0
M  V30 91 H 6.1324 1.32128 3.65341 0
M  V30 92 H 7.8044 3.74697 2.69072 0
M  V30 93 H 6.0474 3.56363 2.47362 0
M  V30 94 H 6.7184 3.69353 4.10222 0
M  V30 95 H 9.1944 1.79872 3.75213 0
M  V30 96 H 8.0704 1.96453 5.1254 0
M  V30 97 H 8.3314 0.384237 4.40427 0
M  V30 98 N 7.3905 -1.2043 1.01659 0
M  V30 99 C 8.3205 -2.25466 0.607226 0
M  V30 100 C 9.3015 -1.65853 -0.377716 0
M  V30 101 O 10.4865 -1.92409 -0.263149 0
M  V30 102 C 7.6165 -3.47256 -0.0552949 0
M  V30 103 C 6.5705 -4.19462 0.850632 0
M  V30 104 C 5.8965 -5.34673 0.0538859 0
M  V30 105 C 7.1965 -4.75603 2.15868 0
M  V30 106 H 8.8905 -2.59962 1.48526 0
M  V30 107 H 6.4365 -1.2496 0.715605 0
M  V30 108 H 8.3895 -4.19917 -0.353233 0
M  V30 109 H 7.1135 -3.11924 -0.968045 0
M  V30 110 H 5.7725 -3.48667 1.13257 0
M  V30 111 H 5.4205 -4.95585 -0.860514 0
M  V30 112 H 5.1205 -5.83913 0.657192 0
M  V30 113 H 6.6445 -6.10138 -0.237598 0
M  V30 114 H 8.0585 -5.40083 1.92311 0
M  V30 115 H 6.4555 -5.3528 2.71284 0
M  V30 116 H 7.5255 -3.94346 2.82169 0
M  V30 117 N 8.8686 -0.792821 -1.36206 0
M  V30 118 C 9.8316 -0.199459 -2.2833 0
M  V30 119 C 10.8316 0.605189 -1.48977 0
M  V30 120 O 12.0216 0.425685 -1.68919 0
M  V30 121 C 9.1536 0.723523 -3.33134 0
M  V30 122 H 10.3466 -1.01181 -2.82316 0
M  V30 123 H 7.8996 -0.562485 -1.45828 0
M  V30 124 H 8.6346 1.56008 -2.84309 0
M  V30 125 H 8.4196 0.148436 -3.91819 0
M  V30 126 H 9.9096 1.13344 -4.01924 0
M  V30 127 N 10.3467 1.47872 -0.545128 0
M  V30 128 C 11.2797 2.2675 0.256885 0
M  V30 129 C 12.2577 1.33293 0.931228 0
M  V30 130 O 13.4417 1.62657 0.95262 0
M  V30 131 C 10.5687 3.09976 1.36501 0
M  V30 132 C 9.6147 4.1892 0.800496 0
M  V30 133 S 10.4477 5.34397 -0.343505 0
M  V30 134 C 11.6037 6.21186 0.766733 0
M  V30 135 H 11.8367 2.94425 -0.412479 0
M  V30 136 H 9.3697 1.50806 -0.331204 0
M  V30 137 H 11.3277 3.585 1.9997 0
M  V30 138 H 9.9887 2.41686 2.00616 0
M  V30 139 H 9.1817 4.76836 1.63227 0
M  V30 140 H 8.7837 3.73215 0.242217 0
M  V30 141 H 11.0757 6.56804 1.66178 0
M  V30 142 H 12.0187 7.07742 0.225204 0
M  V30 143 H 12.4267 5.54574 1.05396 0
M  V30 144 N 11.8248 0.280983 1.55075 0
M  V30 145 C 12.7878 -0.590896 2.21452 0
M  V30 146 C 13.7878 -1.07682 1.19421 0
M  V30 147 O 14.9778 -0.97605 1.44288 0
M  V30 148 C 12.1098 -1.81587 2.88511 0
M  V30 149 H 13.3028 -0.0112554 2.99898 0
M  V30 150 H 10.8558 0.0316438 1.56268 0
M  V30 151 H 11.5908 -2.43587 2.14093 0
M  V30 152 H 11.3758 -1.4753 3.63287 0
M  V30 153 H 12.8658 -2.43575 3.39206 0
M  V30 154 N 13.3029 -1.57598 0.00835791 0
M  V30 155 C 14.5519 -1.90107 -0.673968 0
M  V30 156 C 14.8649 -0.884275 -1.7447 0
M  V30 157 O 16.0709 -1.09987 -2.48224 0
M  V30 158 C 14.5269 -3.37497 -1.24995 0
M  V30 159 C 14.1349 -4.47491 -0.2136 0
M  V30 160 C 15.8789 -3.79104 -1.90999 0
M  V30 161 C 13.7859 -5.85963 -0.80005 0
M  V30 162 H 12.7159 -0.709393 -0.255495 0
M  V30 163 H 15.3669 -1.83365 0.0702693 0
M  V30 164 H 13.7489 -3.39102 -2.04513 0
M  V30 165 H 14.9229 -4.57414 0.557596 0
M  V30 166 H 13.2379 -4.14956 0.346474 0
M  V30 167 H 15.8349 -4.79901 -2.35795 0
M  V30 168 H 16.1779 -3.1306 -2.74407 0
M  V30 169 H 16.7109 -3.79833 -1.18203 0
M  V30 170 H 13.4499 -6.555 -0.00456708 0
M  V30 171 H 12.9699 -5.79687 -1.54021 0
M  V30 172 H 14.6489 -6.33884 -1.29615 0
M  V30 173 N 14.781 0.264519 -1.55364 0
M  V30 174 C 16.029 0.993021 -1.76021 0
M  V30 175 C 16.35 1.86511 -0.569099 0
M  V30 176 O 15.62 1.91438 0.415735 0
M  V30 177 H 14.2 0.369639 -0.649135 0
M  V30 178 H 16.862 0.286707 -1.9278 0
M  V30 179 H 15.958 1.62502 -2.66457 0
M  V30 180 N 16.2591 1.48442 0.529413 0
M  V30 181 C 17.4841 1.60406 1.31471 0
M  V30 182 C 17.9091 0.264738 1.86228 0
M  V30 183 O 17.2671 -0.763668 1.64432 0
M  V30 184 C 17.3151 2.65419 2.44101 0
M  V30 185 O 16.4191 2.22618 3.47153 0
M  V30 186 H 15.7601 0.537863 0.389357 0
M  V30 187 H 18.2901 1.94432 0.636965 0
M  V30 188 H 18.3001 2.86709 2.90279 0
M  V30 189 H 16.9751 3.62652 2.03608 0
M  V30 190 H 15.5521 2.11543 3.0709 0
M  V30 191 N 17.7372 -0.778329 1.37039 0
M  V30 192 C 18.9622 -1.57248 1.35233 0
M  V30 193 C 19.3872 -1.87999 -0.0615568 0
M  V30 194 O 18.7452 -1.48734 -1.03672 0
M  V30 195 C 18.7932 -2.86353 2.19167 0
M  V30 196 O 17.8972 -3.80442 1.59178 0
M  V30 197 H 17.2382 -0.476569 0.462362 0
M  V30 198 H 19.7682 -0.963853 1.80474 0
M  V30 199 H 19.7782 -3.35519 2.32145 0
M  V30 200 H 18.4532 -2.63299 3.21942 0
M  V30 201 H 17.0302 -3.39067 1.55203 0
M  V30 202 N 19.2153 -1.21501 -1.00376 0
M  V30 203 C 20.1783 -0.976927 -2.07337 0
M  V30 204 C 21.1783 0.0525322 -1.60714 0
M  V30 205 O 22.3683 -0.184869 -1.73216 0
M  V30 206 C 19.5003 -0.473423 -3.37597 0
M  V30 207 H 20.6933 -1.92587 -2.29892 0
M  V30 208 H 18.2463 -1.03217 -1.17371 0
M  V30 209 H 18.9813 0.480379 -3.20722 0
M  V30 210 H 18.7663 -1.216 -3.72768 0
M  V30 211 H 20.2563 -0.32675 -4.1632 0
M  V30 212 N 20.6934 1.19889 -1.02296 0
M  V30 213 C 21.6234 2.25141 -0.619174 0
M  V30 214 C 22.6044 1.66051 0.368915 0
M  V30 215 O 23.7894 1.92546 0.252941 0
M  V30 216 C 20.9194 3.4728 0.0368783 0
M  V30 217 C 19.8734 4.19005 -0.872865 0
M  V30 218 C 19.1994 5.34637 -0.0822402 0
M  V30 219 C 20.4994 4.74452 -2.18387 0
M  V30 220 H 22.1934 2.59171 -1.49903 0
M  V30 221 H 19.7394 1.24579 -0.722222 0
M  V30 222 H 21.6924 4.20098 0.330958 0
M  V30 223 H 20.4164 3.12433 0.95149 0
M  V30 224 H 19.0754 3.48061 -1.15105 0
M  V30 225 H 18.7234 4.96034 0.83422 0
M  V30 226 H 18.4234 5.83557 -0.688149 0
M  V30 227 H 19.9474 6.10255 0.205238 0
M  V30 228 H 21.3614 5.39055 -1.95172 0
M  V30 229 H 19.7584 5.33834 -2.74119 0
M  V30 230 H 20.8284 3.92844 -2.84257 0
M  V30 231 N 22.1715 0.800033 1.35784 0
M  V30 232 C 23.1045 0.151499 2.27697 0
M  V30 233 C 24.0825 -0.678663 1.4776 0
M  V30 234 O 25.2665 -0.647358 1.77035 0
M  V30 235 C 22.3935 -0.790492 3.29346 0
M  V30 236 C 21.4395 -0.0407832 4.26481 0
M  V30 237 S 22.2725 1.29077 5.19711 0
M  V30 238 C 23.4285 0.353055 6.24903 0
M  V30 239 H 23.6615 0.930796 2.82353 0
M  V30 240 H 21.1945 0.594767 1.42485 0
M  V30 241 H 23.1525 -1.3285 3.88409 0
M  V30 242 H 21.8135 -1.54312 2.73581 0
M  V30 243 H 21.0065 -0.755971 4.98298 0
M  V30 244 H 20.6085 0.427063 3.71554 0
M  V30 245 H 22.9005 -0.464147 6.75908 0
M  V30 246 H 23.8435 1.04023 7.00418 0
M  V30 247 H 24.2515 -0.0483344 5.64479 0
M  V30 248 N 23.6496 -1.47581 0.552962 0
M  V30 249 C 24.8966 -2.02482 0.0273243 0
M  V30 250 C 25.2246 -1.42776 -1.32081 0
M  V30 251 O 24.4796 -0.571393 -1.87173 0
M  V30 252 C 24.7786 -3.57199 -0.119728 0
M  V30 253 C 24.4446 -4.35804 1.15697 0
M  V30 254 C 23.1066 -4.57 1.50681 0
M  V30 255 C 25.4586 -4.81167 2.00319 0
M  V30 256 C 22.7866 -5.20807 2.70142 0
M  V30 257 C 25.1386 -5.46293 3.18978 0
M  V30 258 C 23.8026 -5.65722 3.54281 0
M  V30 259 H 23.0726 -0.740933 0.00999866 0
M  V30 260 H 25.7196 -1.77302 0.72362 0
M  V30 261 H 24.0246 -3.81348 -0.89896 0
M  V30 262 H 25.7216 -3.97324 -0.541718 0
M  V30 263 H 22.3116 -4.19582 0.874561 0
M  V30 264 H 26.4956 -4.64574 1.74599 0
M  V30 265 H 21.7516 -5.34045 2.97668 0
M  V30 266 H 25.9256 -5.80407 3.84838 0
M  V30 267 H 23.5526 -6.14936 4.46942 0
M  V30 268 N 25.1277 -0.289203 -1.54924 0
M  V30 269 C 26.0907 0.579144 -2.21762 0
M  V30 270 C 27.0907 1.07047 -1.1999 0
M  V30 271 O 28.2807 0.968384 -1.44803 0
M  V30 272 C 25.4127 1.80055 -2.8947 0
M  V30 273 H 26.6057 -0.00464908 -2.999 0
M  V30 274 H 24.1587 -0.0399306 -1.56249 0
M  V30 275 H 24.8937 2.42449 -2.15381 0
M  V30 276 H 24.6787 1.45602 -3.64064 0
M  V30 277 H 26.1687 2.41773 -3.40493 0
M  V30 278 N 26.6058 1.57591 -0.0167156 0
M  V30 279 C 27.5688 2.08393 0.954204 0
M  V30 280 C 28.5688 0.996531 1.26198 0
M  V30 281 O 29.7588 1.25858 1.20438 0
M  V30 282 C 26.8908 2.5394 2.27436 0
M  V30 283 H 28.0838 2.95455 0.514451 0
M  V30 284 H 25.6368 1.54582 0.231089 0
M  V30 285 H 26.3718 1.70171 2.76066 0
M  V30 286 H 26.1568 3.33371 2.06412 0
M  V30 287 H 27.6468 2.93512 2.97053 0
M  V30 288 N 28.0839 -0.256276 1.55502 0
M  V30 289 C 29.4949 -0.826068 1.67431 0
M  V30 290 C 29.8459 -1.86396 0.612446 0
M  V30 291 O 28.9709 -2.15031 -0.243025 0
M  V30 292 C 29.5659 -1.50512 3.03532 0
M  V30 293 C 28.1249 -2.02273 3.17431 0
M  V30 294 C 27.2719 -0.870548 2.63281 0
M  V30 295 H 30.2229 -0.0322728 1.58667 0
M  V30 296 H 30.2439 -2.37279 2.97454 0
M  V30 297 H 29.7559 -0.749484 3.80794 0
M  V30 298 H 27.8569 -2.80746 2.44974 0
M  V30 299 H 27.9699 -2.22655 4.24219 0
M  V30 300 H 26.3339 -1.26851 2.20864 0
M  V30 301 H 27.1169 -0.128149 3.43061 0
M  V30 302 N 29.562 -1.4872 -0.521534 0
M  V30 303 C 30.787 -1.61101 -1.30618 0
M  V30 304 C 31.212 -0.274611 -1.86085 0
M  V30 305 O 30.57 0.754937 -1.64834 0
M  V30 306 C 30.618 -2.66709 -2.4269 0
M  V30 307 O 29.722 -2.24456 -3.45967 0
M  V30 308 H 29.063 -0.539921 -0.386499 0
M  V30 309 H 31.593 -1.94767 -0.626645 0
M  V30 310 H 31.603 -2.88245 -2.88754 0
M  V30 311 H 30.278 -3.63727 -2.01682 0
M  V30 312 H 28.855 -2.13168 -3.05964 0
M  V30 313 N 31.0401 0.771051 -1.3745 0
M  V30 314 C 32.2861 1.5319 -1.32894 0
M  V30 315 C 32.6191 1.94008 0.0862511 0
M  V30 316 O 31.8941 1.64124 1.04373 0
M  V30 317 C 32.1771 2.79648 -2.26868 0
M  V30 318 C 32.0301 2.45079 -3.77169 0
M  V30 319 C 33.3491 3.81583 -2.19277 0
M  V30 320 H 30.4681 0.555744 -0.484064 0
M  V30 321 H 33.1101 0.884492 -1.68157 0
M  V30 322 H 31.2601 3.34891 -1.96926 0
M  V30 323 H 32.9321 1.95745 -4.1771 0
M  V30 324 H 31.1751 1.77767 -3.95704 0
M  V30 325 H 31.8461 3.35478 -4.38359 0
M  V30 326 H 34.3221 3.35835 -2.45671 0
M  V30 327 H 33.1981 4.67787 -2.87171 0
M  V30 328 H 33.4591 4.25897 -1.18592 0
M  V30 329 N 32.5182 1.22032 0.997298 0
M  V30 330 C 33.7642 1.04376 1.73878 0
M  V30 331 C 34.0972 -0.420716 1.89588 0
M  V30 332 O 33.3722 -1.31202 1.43583 0
M  V30 333 C 33.6552 1.75047 3.14691 0
M  V30 334 C 33.5082 3.29062 3.06656 0
M  V30 335 C 34.8272 1.49928 4.13775 0
M  V30 336 H 31.9462 0.380578 0.631133 0
M  V30 337 H 34.5882 1.50312 1.16217 0
M  V30 338 H 32.7382 1.35996 3.63919 0
M  V30 339 H 34.4102 3.7753 2.65083 0
M  V30 340 H 32.6532 3.58967 2.43568 0
M  V30 341 H 33.3242 3.73683 4.06282 0
M  V30 342 H 35.8002 1.83842 3.73285 0
M  V30 343 H 34.6762 2.01878 5.10428 0
M  V30 344 H 34.9372 0.430929 4.39995 0
M  V30 345 N 33.9963 -1.19345 1.0293 0
M  V30 346 C 34.9593 -2.20793 0.615069 0
M  V30 347 C 35.9593 -1.57553 -0.321533 0
M  V30 348 O 37.1493 -1.73862 -0.108483 0
M  V30 349 C 34.2813 -3.40754 -0.0999222 0
M  V30 350 H 35.4743 -2.58955 1.51269 0
M  V30 351 H 33.0273 -1.3303 0.820534 0
M  V30 352 H 33.7623 -3.0811 -1.01187 0
M  V30 353 H 33.5473 -3.87889 0.57309 0
M  V30 354 H 35.0373 -4.15898 -0.376645 0
M  V30 355 N 35.4744 -0.807222 -1.35358 0
M  V30 356 C 36.8904 -0.491038 -1.51858 0
M  V30 357 C 37.0904 0.987648 -1.75635 0
M  V30 358 O 36.1464 1.77265 -1.79815 0
M  V30 359 C 37.4594 -1.33695 -2.69344 0
M  V30 360 C 39.0074 -1.33246 -2.83222 0
M  V30 361 C 39.4824 -2.1625 -4.03733 0
M  V30 362 N 40.9734 -2.1379 -4.10911 0
M  V30 363 C 41.7084 -2.74772 -5.03277 0
M  V30 364 N 41.2044 -3.44684 -6.0097 0
M  V30 365 N 42.9974 -2.6441 -4.96028 0
M  V30 366 H 35.1484 -1.76485 -1.18181 0
M  V30 367 H 37.4114 -0.751199 -0.578276 0
M  V30 368 H 37.1174 -2.38634 -2.58354 0
M  V30 369 H 36.9914 -0.990618 -3.6396 0
M  V30 370 H 39.3784 -0.290911 -2.93663 0
M  V30 371 H 39.4594 -1.71866 -1.89461 0
M  V30 372 H 39.1034 -3.20445 -3.94052 0
M  V30 373 H 39.0334 -1.74989 -4.96675 0
M  V30 374 H 41.5244 -1.62923 -3.40976 0
M  V30 375 H 41.8374 -3.88501 -6.68047 0
M  V30 376 H 40.1824 -3.48788 -6.01142 0
M  V30 377 H 43.3734 -2.0938 -4.18662 0
M  V30 378 H 43.5464 -3.12225 -5.6782 0
M  V30 379 N 36.9525 1.47285 -0.560781 0
M  V30 380 C 37.8625 2.33846 0.187954 0
M  V30 381 C 38.8785 1.48412 0.908293 0
M  V30 382 O 40.0545 1.81332 0.876388 0
M  V30 383 C 37.1195 3.25178 1.2025 0
M  V30 384 C 36.1805 4.26504 0.489208 0
M  V30 385 C 35.4135 5.13472 1.45542 0
M  V30 386 O 35.6365 5.02959 2.6905 0
M  V30 387 O 34.5705 5.93902 0.977963 0
M  V30 388 H 38.3965 2.99177 -0.522177 0
M  V30 389 H 35.9815 1.45903 -0.321364 0
M  V30 390 H 37.8635 3.81584 1.78805 0
M  V30 391 H 36.5385 2.6247 1.89449 0
M  V30 392 H 35.4455 3.73847 -0.137627 0
M  V30 393 H 36.7785 4.91935 -0.161399 0
M  V30 394 N 38.4306 0.297415 1.54768 0
M  V30 395 C 39.3936 -0.567375 2.22066 0
M  V30 396 C 40.3936 -1.06409 1.20556 0
M  V30 397 O 41.5836 -0.960691 1.45315 0
M  V30 398 C 38.7156 -1.78517 2.90421 0
M  V30 399 H 39.9086 0.0205534 2.99893 0
M  V30 400 H 37.4616 0.0482163 1.56226 0
M  V30 401 H 38.1966 -2.41303 2.16664 0
M  V30 402 H 37.9816 -1.43669 3.64831 0
M  V30 403 H 39.4716 -2.39964 3.41771 0
M  V30 404 N 39.9087 -1.5758 0.0250728 0
M  V30 405 C 41.1367 -1.9593 -0.664747 0
M  V30 406 C 41.5517 -0.901352 -1.65895 0
M  V30 407 O 40.9087 0.117255 -1.82123 0
M  V30 408 C 40.9597 -3.34342 -1.37468 0
M  V30 409 O 40.6807 -4.36079 -0.420324 0
M  V30 410 C 42.1817 -3.873 -2.1567 0
M  V30 411 H 39.4017 -0.645405 -0.183557 0
M  V30 412 H 41.9457 -2.04329 0.0836372 0
M  V30 413 H 40.1007 -3.27175 -2.0745 0
M  V30 414 H 40.5147 -5.16297 -0.923991 0
M  V30 415 H 41.9887 -4.86504 -2.60803 0
M  V30 416 H 42.4657 -3.21331 -2.99405 0
M  V30 417 H 43.0717 -3.97723 -1.50654 0
M  V30 418 N 41.3868 0.248026 -1.55636 0
M  V30 419 C 42.6328 0.973427 -1.78594 0
M  V30 420 C 42.9878 1.83007 -0.593823 0
M  V30 421 O 42.2808 1.87097 0.412961 0
M  V30 422 C 42.4748 1.86819 -3.04686 0
M  V30 423 C 42.3038 1.09965 -4.36048 0
M  V30 424 C 41.0738 0.805204 -4.98843 0
M  V30 425 C 43.2718 0.477783 -5.12076 0
M  V30 426 N 41.2538 0.0124859 -6.13899 0
M  V30 427 C 42.6248 -0.179565 -6.1974 0
M  V30 428 C 44.6798 0.388136 -4.96385 0
M  V30 429 C 43.3828 -0.91795 -7.13419 0
M  V30 430 C 45.4088 -0.336716 -5.90441 0
M  V30 431 C 44.7708 -0.982705 -6.97511 0
M  V30 432 H 40.8698 0.337348 -0.705493 0
M  V30 433 H 43.4538 0.24667 -1.93131 0
M  V30 434 H 41.6248 2.56698 -2.9148 0
M  V30 435 H 43.3568 2.52907 -3.15944 0
M  V30 436 H 40.1118 1.11671 -4.60246 0
M  V30 437 H 40.5358 -0.371933 -6.75978 0
M  V30 438 H 45.1778 0.873237 -4.13684 0
M  V30 439 H 42.8958 -1.41466 -7.95621 0
M  V30 440 H 46.4818 -0.406731 -5.80377 0
M  V30 441 H 45.3618 -1.53464 -7.69037 0
M  V30 442 N 42.8649 1.48995 0.513639 0
M  V30 443 C 44.1109 1.58076 1.27042 0
M  V30 444 C 44.4439 0.261026 1.92438 0
M  V30 445 O 43.7189 -0.734393 1.80103 0
M  V30 446 C 44.0019 2.73091 2.34719 0
M  V30 447 C 43.8549 4.14821 1.73907 0
M  V30 448 C 45.1739 2.83796 3.36375 0
M  V30 449 H 42.2929 0.575391 0.460536 0
M  V30 450 H 44.9349 1.81232 0.570516 0
M  V30 451 H 43.0849 2.53479 2.94416 0
M  V30 452 H 44.7569 4.45917 1.18135 0
M  V30 453 H 42.9999 4.21058 1.0437 0
M  V30 454 H 43.6709 4.91147 2.51949 0
M  V30 455 H 46.1469 3.01611 2.86653 0
M  V30 456 H 45.0229 3.65971 4.09093 0
M  V30 457 H 45.2839 1.92624 3.9793 0
M  V30 458 N 44.343 -0.763751 1.37857 0
M  V30 459 C 45.571 -1.55293 1.36718 0
M  V30 460 C 45.986 -1.88745 -0.0455434 0
M  V30 461 O 45.343 -1.52039 -1.00947 0
M  V30 462 C 45.394 -2.85831 2.2132 0
M  V30 463 O 45.115 -2.5381 3.57089 0
M  V30 464 C 46.616 -3.80023 2.28249 0
M  V30 465 H 43.836 -0.480841 0.468009 0
M  V30 466 H 46.38 -0.946009 1.81303 0
M  V30 467 H 44.535 -3.42926 1.80223 0
M  V30 468 H 44.949 -3.37459 4.01524 0
M  V30 469 H 46.423 -4.68599 2.91752 0
M  V30 470 H 46.9 -4.1973 1.2932 0
M  V30 471 H 47.506 -3.28855 2.69693 0
M  V30 472 N 45.8211 -1.22559 -0.990812 0
M  V30 473 C 46.7311 -1.01394 -2.11557 0
M  V30 474 C 47.7471 0.0383962 -1.73958 0
M  V30 475 O 48.9231 -0.154787 -2.00804 0
M  V30 476 C 45.9881 -0.596569 -3.41529 0
M  V30 477 C 45.0491 -1.72276 -3.93217 0
M  V30 478 C 44.2821 -1.32521 -5.16985 0
M  V30 479 O 44.5051 -0.204909 -5.70032 0
M  V30 480 O 43.4391 -2.14247 -5.62478 0
M  V30 481 H 47.2651 -1.95633 -2.32296 0
M  V30 482 H 44.8501 -1.01172 -1.0993 0
M  V30 483 H 46.7321 -0.374263 -4.19735 0
M  V30 484 H 45.4071 0.316939 -3.22145 0
M  V30 485 H 44.3141 -1.99961 -3.16174 0
M  V30 486 H 45.6471 -2.61421 -4.17037 0
M  V30 487 N 47.2992 1.18797 -1.03562 0
M  V30 488 C 48.2462 2.22253 -0.622259 0
M  V30 489 C 49.2162 1.61987 0.36736 0
M  V30 490 O 50.4012 1.88986 0.262492 0
M  V30 491 C 47.5412 3.45097 0.0138462 0
M  V30 492 C 46.6542 4.19722 -1.02263 0
M  V30 493 C 45.7892 5.30009 -0.355573 0
M  V30 494 C 44.8282 5.96399 -1.37749 0
M  V30 495 N 43.9652 6.98234 -0.735766 0
M  V30 496 H 48.8052 2.56968 -1.50903 0
M  V30 497 H 46.3422 1.26245 -0.755017 0
M  V30 498 H 48.3002 4.15279 0.399948 0
M  V30 499 H 46.9302 3.11018 0.864158 0
M  V30 500 H 45.9822 3.48418 -1.52673 0
M  V30 501 H 47.2942 4.65227 -1.79903 0
M  V30 502 H 46.4482 6.0664 0.0850095 0
M  V30 503 H 45.1872 4.85592 0.452967 0
M  V30 504 H 44.1922 5.18512 -1.82826 0
M  V30 505 H 45.4172 6.42899 -2.18764 0
M  V30 506 H 43.3632 6.55979 0.0525597 0
M  V30 507 H 43.2802 7.41965 -1.44995 0
M  V30 508 H 44.5482 7.78845 -0.31941 0
M  V30 509 N 48.7773 0.814389 1.34928 0
M  V30 510 C 50.1883 0.458364 1.80986 0
M  V30 511 C 50.5393 -1.02042 1.67577 0
M  V30 512 O 49.6643 -1.79352 1.21086 0
M  V30 513 C 50.2593 0.825212 3.28597 0
M  V30 514 C 48.8183 0.521677 3.72767 0
M  V30 515 C 47.9653 1.04668 2.56788 0
M  V30 516 H 50.9163 1.00533 1.22795 0
M  V30 517 H 50.9373 0.12571 3.80292 0
M  V30 518 H 50.4493 1.90154 3.38324 0
M  V30 519 H 48.5503 -0.545589 3.68584 0
M  V30 520 H 48.6633 1.05977 4.67232 0
M  V30 521 H 47.0273 0.468622 2.50352 0
M  V30 522 H 47.8103 2.12927 2.6929 0
M  V30 523 N 50.2554 -1.46986 0.568584 0
M  V30 524 C 51.1854 -2.32946 -0.160753 0
M  V30 525 C 52.1664 -1.44487 -0.897631 0
M  V30 526 O 53.3514 -1.73327 -0.875867 0
M  V30 527 C 50.4814 -3.26494 -1.18403 0
M  V30 528 C 49.4354 -4.24282 -0.562895 0
M  V30 529 C 48.7614 -5.07236 -1.69163 0
M  V30 530 C 50.0614 -5.19989 0.490761 0
M  V30 531 H 51.7554 -2.94175 0.556916 0
M  V30 532 H 49.3014 -1.4146 0.26927 0
M  V30 533 H 51.2544 -3.85477 -1.70251 0
M  V30 534 H 49.9784 -2.63343 -1.93179 0
M  V30 535 H 48.6374 -3.66541 -0.0656164 0
M  V30 536 H 48.2854 -4.4048 -2.42871 0
M  V30 537 H 47.9854 -5.7345 -1.28174 0
M  V30 538 H 49.5094 -5.6908 -2.21314 0
M  V30 539 H 50.9234 -5.73271 0.0579047 0
M  V30 540 H 49.3204 -5.94469 0.820165 0
M  V30 541 H 50.3904 -4.64777 1.3824 0
M  V30 542 N 51.7335 -0.305618 -1.54608 0
M  V30 543 C 52.9615 0.304775 -2.04643 0
M  V30 544 C 53.3765 1.47167 -1.18268 0
M  V30 545 O 52.7335 1.81296 -0.209328 0
M  V30 546 C 52.7845 0.756564 -3.53495 0
M  V30 547 O 52.5055 -0.36389 -4.36586 0
M  V30 548 C 54.0065 1.43163 -4.19546 0
M  V30 549 H 51.2265 0.0655481 -0.667791 0
M  V30 550 H 53.7705 -0.446592 -1.99564 0
M  V30 551 H 51.9255 1.45794 -3.58919 0
M  V30 552 H 52.3395 -0.0113121 -5.24499 0
M  V30 553 H 53.8135 1.69886 -5.25207 0
M  V30 554 H 54.2905 2.37318 -3.69563 0
M  V30 555 H 54.8965 0.773307 -4.18211 0
M  V30 556 N 53.2116 1.57565 -0.0334293 0
M  V30 557 C 54.1416 2.13511 0.945265 0
M  V30 558 C 55.1226 1.05231 1.33643 0
M  V30 559 O 56.3076 1.33084 1.41429 0
M  V30 560 C 53.4376 2.6657 2.22616 0
M  V30 561 C 52.3916 3.79676 1.97561 0
M  V30 562 C 51.7176 4.1918 3.31952 0
M  V30 563 C 53.0176 5.0557 1.31135 0
M  V30 564 H 54.7116 2.95538 0.479325 0
M  V30 565 H 52.2576 1.42166 0.229115 0
M  V30 566 H 54.2106 3.04344 2.91466 0
M  V30 567 H 52.9346 1.8171 2.71384 0
M  V30 568 H 51.5936 3.42347 1.31127 0
M  V30 569 H 51.2416 3.31296 3.78487 0
M  V30 570 H 50.9416 4.95402 3.15992 0
M  V30 571 H 52.4656 4.59541 4.02063 0
M  V30 572 H 53.8796 5.40903 1.89992 0
M  V30 573 H 52.2766 5.86818 1.25559 0
M  V30 574 H 53.3466 4.84062 0.284894 0
M  V30 575 N 54.6897 -0.239769 1.55765 0
M  V30 576 C 55.6367 -1.29696 1.90913 0
M  V30 577 C 56.6067 -1.47478 0.764164 0
M  V30 578 O 57.7917 -1.61345 1.01845 0
M  V30 579 C 54.9317 -2.64598 2.21544 0
M  V30 580 C 54.0447 -2.54765 3.48882 0
M  V30 581 C 53.1797 -3.82069 3.69049 0
M  V30 582 C 52.2187 -3.66883 4.89963 0
M  V30 583 N 51.3557 -4.86094 5.06614 0
M  V30 584 H 56.1957 -0.990224 2.81067 0
M  V30 585 H 53.7327 -0.477684 1.39128 0
M  V30 586 H 55.6907 -3.43132 2.3731 0
M  V30 587 H 54.3207 -2.93405 1.34585 0
M  V30 588 H 53.3727 -1.67763 3.41409 0
M  V30 589 H 54.6847 -2.39457 4.37563 0
M  V30 590 H 53.8387 -4.69046 3.84812 0
M  V30 591 H 52.5777 -4.00282 2.78614 0
M  V30 592 H 51.5827 -2.78289 4.74168 0
M  V30 593 H 52.8077 -3.50157 5.81865 0
M  V30 594 H 50.7537 -5.04655 4.19117 0
M  V30 595 H 50.6707 -4.73443 5.89396 0
M  V30 596 H 51.9387 -5.74549 5.26795 0
M  V30 597 N 56.1678 -1.49265 -0.50573 0
M  V30 598 C 57.4168 -1.57761 -1.25675 0
M  V30 599 C 57.7298 -0.267371 -1.93764 0
M  V30 600 O 58.9358 -0.230827 -2.70517 0
M  V30 601 C 57.3918 -2.78332 -2.28165 0
M  V30 602 C 56.9998 -4.16096 -1.66037 0
M  V30 603 C 58.7438 -2.96155 -3.04125 0
M  V30 604 C 56.6508 -5.27895 -2.6661 0
M  V30 605 H 55.5808 -0.587391 -0.472745 0
M  V30 606 H 58.2318 -1.75644 -0.53118 0
M  V30 607 H 56.6138 -2.53934 -3.03865 0
M  V30 608 H 57.7878 -4.50612 -0.963622 0
M  V30 609 H 56.1028 -4.03591 -1.02484 0
M  V30 610 H 58.6998 -3.76849 -3.79327 0
M  V30 611 H 59.0428 -2.06534 -3.61455 0
M  V30 612 H 59.5758 -3.2057 -2.35541 0
M  V30 613 H 56.3148 -6.1956 -2.14068 0
M  V30 614 H 55.8348 -4.97839 -3.34539 0
M  V30 615 H 57.5138 -5.57031 -3.29129 0
M  V30 616 N 57.6459 0.756429 -1.3826 0
M  V30 617 C 58.5959 1.86069 -1.31766 0
M  V30 618 C 59.5799 1.59621 -0.202483 0
M  V30 619 O 60.7719 1.7149 -0.438211 0
M  V30 620 C 57.9009 3.23742 -1.1422 0
M  V30 621 C 56.9869 3.56091 -2.30348 0
M  V30 622 N 57.3779 3.59517 -3.55783 0
M  V30 623 C 55.6759 3.86341 -2.22838 0
M  V30 624 C 56.3769 3.89052 -4.32451 0
M  V30 625 N 55.3529 4.05736 -3.61772 0
M  V30 626 H 59.1549 1.86992 -2.26741 0
M  V30 627 H 56.6689 0.953643 -1.31451 0
M  V30 628 H 58.6659 4.02761 -1.07652 0
M  V30 629 H 57.3259 3.24073 -0.201763 0
M  V30 630 H 58.3369 3.41347 -3.89491 0
M  V30 631 H 55.0139 3.94404 -1.36937 0
M  V30 632 H 56.4039 3.98349 -5.4108 0
M  V30 633 N 59.124 1.23083 0.984299 0
M  V30 634 C 60.057 0.951786 2.07404 0
M  V30 635 C 61.035 -0.10848 1.62238 0
M  V30 636 O 62.219 0.0249467 1.88483 0
M  V30 637 C 59.346 0.433142 3.35919 0
M  V30 638 C 58.392 1.47941 4.0002 0
M  V30 639 S 59.225 3.05556 4.39768 0
M  V30 640 C 60.381 2.55351 5.71442 0
M  V30 641 H 60.614 1.87456 2.30754 0
M  V30 642 H 58.147 1.06284 1.11996 0
M  V30 643 H 60.105 0.140506 4.10259 0
M  V30 644 H 58.766 -0.468656 3.10584 0
M  V30 645 H 57.959 1.06658 4.92585 0
M  V30 646 H 57.561 1.7212 3.3204 0
M  V30 647 H 59.853 1.97128 6.48187 0
M  V30 648 H 60.796 3.46441 6.17563 0
M  V30 649 H 61.204 1.96339 5.29255 0
M  V30 650 N 60.6021 -1.18246 1.0419 0
M  V30 651 C 61.5521 -2.19843 0.604392 0
M  V30 652 C 62.5361 -1.56962 -0.353814 0
M  V30 653 O 63.7281 -1.76156 -0.17267 0
M  V30 654 C 60.8571 -3.43287 -0.0298975 0
M  V30 655 C 59.9431 -4.13288 0.951531 0
M  V30 656 N 60.3341 -4.59271 2.11906 0
M  V30 657 C 58.6321 -4.39165 0.7778 0
M  V30 658 C 59.3331 -5.13173 2.73912 0
M  V30 659 N 58.3091 -5.04763 2.01779 0
M  V30 660 H 62.1111 -2.53089 1.4941 0
M  V30 661 H 59.6251 -1.34465 0.910658 0
M  V30 662 H 61.6221 -4.15334 -0.361037 0
M  V30 663 H 60.2821 -3.11537 -0.915127 0
M  V30 664 H 61.2931 -4.5368 2.49789 0
M  V30 665 H 57.9701 -4.17461 -0.0572331 0
M  V30 666 H 59.3601 -5.58947 3.72864 0
M  V30 667 N 62.0802 -0.821533 -1.34494 0
M  V30 668 C 63.3272 -0.408946 -1.98328 0
M  V30 669 C 63.6552 1.02764 -1.65136 0
M  V30 670 O 62.9102 1.73026 -0.914349 0
M  V30 671 C 63.2092 -0.556512 -3.53041 0
M  V30 672 C 62.8752 -1.95861 -4.0614 0
M  V30 673 C 61.5372 -2.34217 -4.20352 0
M  V30 674 C 63.8892 -2.87523 -4.34718 0
M  V30 675 C 61.2172 -3.63572 -4.6047 0
M  V30 676 C 63.5692 -4.1634 -4.76281 0
M  V30 677 C 62.2332 -4.54675 -4.88699 0
M  V30 678 H 61.5032 -0.149644 -0.725732 0
M  V30 679 H 64.1502 -1.04521 -1.6046 0
M  V30 680 H 62.4552 0.163148 -3.9146 0
M  V30 681 H 64.1522 -0.217826 -4.00408 0
M  V30 682 H 60.7422 -1.65066 -3.95539 0
M  V30 683 H 64.9262 -2.59133 -4.23277 0
M  V30 684 H 60.1822 -3.93101 -4.68275 0
M  V30 685 H 64.3562 -4.87455 -4.97354 0
M  V30 686 H 61.9832 -5.54959 -5.19542 0
M  V30 687 N 63.5583 1.46682 -0.576371 0
M  V30 688 C 64.9743 1.57822 -0.237562 0
M  V30 689 C 65.1743 1.57237 1.26011 0
M  V30 690 O 64.2303 1.48596 2.04146 0
M  V30 691 C 65.5433 2.87499 -0.881168 0
M  V30 692 C 67.0913 3.01119 -0.85417 0
M  V30 693 C 67.5663 4.33524 -1.4772 0
M  V30 694 N 69.0573 4.40207 -1.44125 0
M  V30 695 C 69.7923 5.4126 -1.89276 0
M  V30 696 N 69.2883 6.49021 -2.42371 0
M  V30 697 N 71.0813 5.32422 -1.80231 0
M  V30 698 H 63.2323 1.45306 -1.54919 0
M  V30 699 H 65.4953 0.692733 -0.647167 0
M  V30 700 H 65.2013 2.9372 -1.93447 0
M  V30 701 H 65.0753 3.75224 -0.385592 0
M  V30 702 H 67.4623 2.94485 0.190491 0
M  V30 703 H 67.5433 2.14887 -1.3877 0
M  V30 704 H 67.1873 4.40916 -2.52103 0
M  V30 705 H 67.1173 5.1852 -0.918947 0
M  V30 706 H 69.6083 3.62931 -1.05307 0
M  V30 707 H 69.9213 7.2233 -2.74698 0
M  V30 708 H 68.2663 6.49858 -2.46393 0
M  V30 709 H 71.4573 4.47137 -1.38514 0
M  V30 710 H 71.6303 6.11034 -2.15735 0
M  V30 711 N 65.0364 0.313813 1.54444 0
M  V30 712 C 66.3134 -0.345447 1.92525 0
M  V30 713 C 66.6934 -1.70667 1.24242 0
M  V30 714 O 66.0414 -2.25273 0.382654 0
M  V30 715 C 66.2514 -0.44737 3.46121 0
M  V30 716 C 67.5994 -0.712238 4.18584 0
M  V30 717 O 68.6234 -0.530678 3.52225 0
M  V30 718 O 67.4824 -1.06183 5.36085 0
M  V30 719 H 64.5764 -0.195407 0.803583 0
M  V30 720 H 67.1224 0.362813 1.65776 0
M  V30 721 H 65.8944 0.509043 3.87975 0
M  V30 722 H 65.5174 -1.20359 3.78945 0
M  V30 723 N 66.5145 -1.57545 0.0417849 0
M  V30 724 C 67.4615 -2.10977 -0.935805 0
M  V30 725 C 68.4315 -1.01486 -1.31491 0
M  V30 726 O 69.6165 -1.2898 -1.40602 0
M  V30 727 C 66.7565 -2.65169 -2.2086 0
M  V30 728 C 65.8695 -3.88714 -1.88482 0
M  V30 729 C 65.0045 -4.31254 -3.1015 0
M  V30 730 C 64.0435 -5.47524 -2.7365 0
M  V30 731 N 63.1805 -5.85162 -3.87982 0
M  V30 732 H 68.0205 -2.94218 -0.473249 0
M  V30 733 H 65.5575 -1.45415 -0.221981 0
M  V30 734 H 67.5155 -2.94685 -2.95325 0
M  V30 735 H 66.1455 -1.8474 -2.64709 0
M  V30 736 H 65.1975 -3.65849 -1.04205 0
M  V30 737 H 66.5095 -4.73245 -1.57608 0
M  V30 738 H 65.6635 -4.62273 -3.92923 0
M  V30 739 H 64.4025 -3.45516 -3.44195 0
M  V30 740 H 63.4075 -5.16187 -1.89291 0
M  V30 741 H 64.6325 -6.34971 -2.40807 0
M  V30 742 H 62.5785 -5.02377 -4.21846 0
M  V30 743 H 62.4955 -6.64362 -3.60775 0
M  V30 744 H 63.7635 -6.20791 -4.71422 0
M  V30 745 N 67.9926 0.231505 -1.5589 0
M  V30 746 C 69.2386 0.954429 -1.79617 0
M  V30 747 C 69.5936 1.82367 -0.613199 0
M  V30 748 O 68.8866 1.87524 0.393094 0
M  V30 749 C 69.0806 1.83577 -3.0665 0
M  V30 750 C 68.9096 1.05334 -4.3719 0
M  V30 751 C 67.6796 0.75225 -4.99669 0
M  V30 752 C 69.8776 0.423444 -5.12554 0
M  V30 753 N 67.8596 -0.052627 -6.13877 0
M  V30 754 C 69.2306 -0.245287 -6.19515 0
M  V30 755 C 71.2856 0.335466 -4.96769 0
M  V30 756 C 69.9886 -0.993566 -7.12405 0
M  V30 757 C 72.0146 -0.399321 -5.9005 0
M  V30 758 C 71.3766 -1.05663 -6.9643 0
M  V30 759 H 67.4756 0.329846 -0.709031 0
M  V30 760 H 70.0596 0.226172 -1.93382 0
M  V30 761 H 68.2306 2.53592 -2.94186 0
M  V30 762 H 69.9626 2.49541 -3.18608 0
M  V30 763 H 66.7176 1.06783 -4.61405 0
M  V30 764 H 67.1416 -0.443609 -6.75545 0
M  V30 765 H 71.7836 0.829311 -4.14587 0
M  V30 766 H 69.5016 -1.49896 -7.94076 0
M  V30 767 H 73.0876 -0.468265 -5.79913 0
M  V30 768 H 71.9676 -1.61612 -7.67366 0
M  V30 769 N 69.4707 1.49531 0.497807 0
M  V30 770 C 70.7167 1.59415 1.25358 0
M  V30 771 C 71.0497 0.281422 1.9215 0
M  V30 772 O 70.3247 -0.715249 1.80871 0
M  V30 773 C 70.6077 2.75566 2.3181 0
M  V30 774 C 70.4607 4.16642 1.69498 0
M  V30 775 C 71.7797 2.87347 3.33346 0
M  V30 776 H 68.8987 0.580244 0.454408 0
M  V30 777 H 71.5407 1.81827 0.551262 0
M  V30 778 H 69.6907 2.56587 2.91711 0
M  V30 779 H 71.3627 4.47145 1.13399 0
M  V30 780 H 69.6057 4.22141 0.998978 0
M  V30 781 H 70.2767 4.93792 2.46725 0
M  V30 782 H 72.7527 3.04634 2.83438 0
M  V30 783 H 71.6287 3.70289 4.05188 0
M  V30 784 H 71.8897 1.96834 3.95865 0
M  V30 785 N 70.9488 -0.749086 1.3866 0
M  V30 786 C 72.1948 -1.50959 1.36319 0
M  V30 787 C 72.5498 -1.92347 -0.0452451 0
M  V30 788 O 71.8428 -1.6289 -1.00884 0
M  V30 789 C 72.0368 -2.7712 2.25697 0
M  V30 790 C 71.8658 -2.48067 3.7509 0
M  V30 791 C 70.6358 -2.41062 4.44091 0
M  V30 792 C 72.8338 -2.14544 4.67414 0
M  V30 793 N 70.8158 -2.04331 5.78897 0
M  V30 794 C 72.1868 -1.88141 5.90765 0
M  V30 795 C 74.2418 -2.00892 4.55573 0
M  V30 796 C 72.9448 -1.49463 7.036 0
M  V30 797 C 74.9708 -1.63616 5.68317 0
M  V30 798 C 74.3328 -1.38088 6.90732 0
M  V30 799 H 70.4318 -0.551804 0.554108 0
M  V30 800 H 73.0158 -0.871886 1.74087 0
M  V30 801 H 71.1868 -3.38693 1.9011 0
M  V30 802 H 72.9188 -3.4321 2.1445 0
M  V30 803 H 69.6738 -2.57685 3.9736 0
M  V30 804 H 70.0978 -1.88598 6.502 0
M  V30 805 H 74.7398 -2.19301 3.61479 0
M  V30 806 H 72.4578 -1.29794 7.97608 0
M  V30 807 H 76.0438 -1.53678 5.61137 0
M  V30 808 H 74.9238 -1.09674 7.76493 0
M  V30 809 N 72.4269 -1.23603 -0.977757 0
M  V30 810 C 73.7039 -0.977897 -1.69401 0
M  V30 811 C 74.0839 0.502738 -2.05026 0
M  V30 812 O 73.4319 1.47459 -1.74551 0
M  V30 813 C 73.6419 -1.89077 -2.93345 0
M  V30 814 C 74.9899 -2.15579 -3.65802 0
M  V30 815 O 76.0139 -1.86648 -3.03383 0
M  V30 816 O 74.8729 -2.64658 -4.78141 0
M  V30 817 H 71.9669 -0.369025 -0.740101 0
M  V30 818 H 74.5129 -1.34657 -1.03274 0
M  V30 819 H 73.2849 -2.89158 -2.63634 0
M  V30 820 H 72.9079 -1.52463 -3.67207 0
M  V30 821 N 73.905 1.17692 -1.04816 0
M  V30 822 C 74.815 2.25229 -0.65643 0
M  V30 823 C 75.831 1.71018 0.320761 0
M  V30 824 O 77.007 2.00649 0.173805 0
M  V30 825 C 74.072 3.46684 -0.0332629 0
M  V30 826 C 73.133 4.15997 -1.06042 0
M  V30 827 C 72.366 5.31654 -0.466893 0
M  V30 828 O 72.589 5.65777 0.724758 0
M  V30 829 O 71.523 5.89831 -1.1993 0
M  V30 830 H 75.349 2.61016 -1.55255 0
M  V30 831 H 72.934 1.24919 -0.81949 0
M  V30 832 H 74.816 4.20234 0.313256 0
M  V30 833 H 73.491 3.12703 0.836566 0
M  V30 834 H 72.398 3.44482 -1.45886 0
M  V30 835 H 73.731 4.53996 -1.90127 0
M  V30 836 N 75.3831 0.828654 1.34056 0
M  V30 837 C 76.3311 0.242973 2.31327 0
M  V30 838 C 77.3251 -0.61944 1.57668 0
M  V30 839 O 78.5311 -0.51014 1.7262 0
M  V30 840 H 74.9061 0.059834 0.749616 0
M  V30 841 H 76.8771 1.07809 2.78244 0
M  V30 842 C 75.6261 -0.575733 3.429 0
M  V30 843 H 74.9491 0.0785582 3.99723 0
M  V30 844 H 76.3891 -0.951547 4.13185 0
M  V30 845 C 74.8481 -1.75044 2.87856 0
M  V30 846 O 75.3781 -2.84882 2.83205 0
M  V30 847 N 73.5841 -1.56903 2.44602 0
M  V30 848 H 73.1311 -0.675547 2.48584 0
M  V30 849 H 73.0891 -2.35652 2.08124 0
M  V30 850 N 76.8612 -1.46375 0.584142 0
M  V30 851 C 78.1072 -2.03248 0.0787103 0
M  V30 852 C 78.4622 -1.44737 -1.26763 0
M  V30 853 O 77.7552 -0.603625 -1.81843 0
M  V30 854 C 77.9492 -3.57373 -0.0439342 0
M  V30 855 C 77.7782 -4.30831 1.28897 0
M  V30 856 C 76.5482 -4.69683 1.8635 0
M  V30 857 C 78.7462 -4.64278 2.21248 0
M  V30 858 N 76.7282 -5.27898 3.13365 0
M  V30 859 C 78.0992 -5.23078 3.32851 0
M  V30 860 C 80.1542 -4.46209 2.20911 0
M  V30 861 C 78.8572 -5.65715 4.44251 0
M  V30 862 C 80.8832 -4.89864 3.31341 0
M  V30 863 C 80.2452 -5.48736 4.41665 0
M  V30 864 H 76.3442 -0.778714 0.0716144 0
M  V30 865 H 78.9282 -1.78509 0.777355 0
M  V30 866 H 77.0992 -3.81823 -0.711749 0
M  V30 867 H 78.8312 -4.00892 -0.553881 0
M  V30 868 H 75.5862 -4.52488 1.39826 0
M  V30 869 H 76.0102 -5.61525 3.78178 0
M  V30 870 H 80.6522 -4.00027 1.36888 0
M  V30 871 H 78.3702 -6.10875 5.29015 0
M  V30 872 H 81.9562 -4.77634 3.322 0
M  V30 873 H 80.8362 -5.81898 5.25704 0
M  V30 874 N 78.3393 -0.321999 -1.54275 0
M  V30 875 C 79.7503 0.166384 -1.85957 0
M  V30 876 C 80.1013 1.51747 -1.24367 0
M  V30 877 O 79.2263 2.09317 -0.549124 0
M  V30 878 C 79.8213 0.308681 -3.37391 0
M  V30 879 C 78.3803 0.741286 -3.69028 0
M  V30 880 C 77.5273 -0.137937 -2.76957 0
M  V30 881 H 80.4783 -0.542335 -1.49146 0
M  V30 882 H 80.4993 1.13984 -3.63026 0
M  V30 883 H 80.0113 -0.674809 -3.82188 0
M  V30 884 H 78.1123 1.73458 -3.29762 0
M  V30 885 H 78.2253 0.546118 -4.75977 0
M  V30 886 H 76.5893 0.386251 -2.51754 0
M  V30 887 H 77.3723 -1.11816 -3.2458 0
M  V30 888 N 79.8174 1.5752 -0.0501392 0
M  V30 889 C 81.0634 1.92936 0.624798 0
M  V30 890 C 81.3964 0.928685 1.70555 0
M  V30 891 O 80.6714 -0.0454779 1.94447 0
M  V30 892 C 80.9544 3.38737 1.22185 0
M  V30 893 C 80.8074 4.49552 0.149218 0
M  V30 894 C 82.1264 3.84913 2.13378 0
M  V30 895 H 79.2454 0.701604 0.225657 0
M  V30 896 H 81.8874 1.89671 -0.111693 0
M  V30 897 H 80.0374 3.4165 1.84953 0
M  V30 898 H 81.7094 4.58768 -0.482648 0
M  V30 899 H 79.9524 4.30638 -0.522841 0
M  V30 900 H 80.6234 5.48653 0.606966 0
M  V30 901 H 83.0994 3.8387 1.60572 0
M  V30 902 H 81.9754 4.87584 2.52097 0
M  V30 903 H 82.2364 3.21611 3.03346 0
M  V30 904 N 81.2955 -0.223234 1.56011 0
M  V30 905 C 82.2585 -1.26014 1.9145 0
M  V30 906 C 83.2585 -1.3989 0.792937 0
M  V30 907 O 84.4485 -1.38184 1.0607 0
M  V30 908 C 81.5805 -2.63422 2.16383 0
M  V30 909 H 82.7735 -0.95796 2.84189 0
M  V30 910 H 80.3265 -0.463576 1.49267 0
M  V30 911 H 81.0615 -2.98741 1.2619 0
M  V30 912 H 80.8465 -2.54728 2.98088 0
M  V30 913 H 82.3365 -3.38249 2.44903 0
M  V30 914 N 82.7736 -1.49793 -0.48987 0
M  V30 915 C 84.1896 -1.36803 -0.822022 0
M  V30 916 C 84.3896 -0.409652 -1.97292 0
M  V30 917 O 83.4456 0.154614 -2.52026 0
M  V30 918 C 84.7586 -2.77768 -1.15175 0
M  V30 919 C 86.3066 -2.86549 -1.25931 0
M  V30 920 C 86.7816 -4.28306 -1.62228 0
M  V30 921 N 88.2726 -4.31169 -1.69256 0
M  V30 922 C 89.0076 -5.37832 -1.98807 0
M  V30 923 N 88.5036 -6.54726 -2.26507 0
M  V30 924 N 90.2966 -5.25258 -2.00152 0
M  V30 925 H 82.4476 -2.10691 0.268881 0
M  V30 926 H 84.7106 -0.946241 0.057728 0
M  V30 927 H 84.4166 -3.49648 -0.379335 0
M  V30 928 H 84.2906 -3.13836 -2.09253 0
M  V30 929 H 86.6776 -2.14899 -2.02243 0
M  V30 930 H 86.7586 -2.54049 -0.298776 0
M  V30 931 H 86.4026 -5.00486 -0.864622 0
M  V30 932 H 86.3326 -4.58279 -2.594 0
M  V30 933 H 88.8236 -3.4687 -1.49965 0
M  V30 934 H 89.1366 -7.31833 -2.48276 0
M  V30 935 H 87.4816 -6.57933 -2.23939 0
M  V30 936 H 90.6726 -4.32938 -1.77996 0
M  V30 937 H 90.8456 -6.08476 -2.22848 0
M  V30 938 N 84.2517 0.741722 -1.39055 0
M  V30 939 C 85.1617 1.88621 -1.39496 0
M  V30 940 C 86.1777 1.71557 -0.290578 0
M  V30 941 O 87.3537 1.94275 -0.530954 0
M  V30 942 C 84.4187 3.24134 -1.23037 0
M  V30 943 C 83.4797 3.5364 -2.43387 0
M  V30 944 C 82.7127 4.82687 -2.27703 0
M  V30 945 O 82.9357 5.55922 -1.27696 0
M  V30 946 O 81.8697 5.1194 -3.16545 0
M  V30 947 H 85.6957 1.91203 -2.35956 0
M  V30 948 H 83.2807 0.888625 -1.20099 0
M  V30 949 H 85.1627 4.0513 -1.15964 0
M  V30 950 H 83.8377 3.22337 -0.296691 0
M  V30 951 H 82.7447 2.72758 -2.56035 0
M  V30 952 H 84.0777 3.60209 -3.35425 0
M  V30 953 N 85.7298 1.2412 0.971189 0
M  V30 954 C 86.9758 1.08041 1.71625 0
M  V30 955 C 87.3088 -0.380407 1.90438 0
M  V30 956 O 86.5838 -1.28127 1.46334 0
M  V30 957 C 86.8668 1.81682 3.10908 0
M  V30 958 C 86.7198 3.35493 2.99608 0
M  V30 959 C 88.0388 1.58671 4.10501 0
M  V30 960 H 85.1578 0.39388 0.622919 0
M  V30 961 H 87.7998 1.52743 1.13003 0
M  V30 962 H 85.9498 1.43684 3.60953 0
M  V30 963 H 87.6218 3.83068 2.57015 0
M  V30 964 H 85.8648 3.64052 2.35899 0
M  V30 965 H 86.5358 3.82217 3.98264 0
M  V30 966 H 89.0118 1.91719 3.69301 0
M  V30 967 H 87.8878 2.1266 5.06031 0
M  V30 968 H 88.1488 0.524161 4.38982 0
M  V30 969 N 87.2079 -1.17134 1.05439 0
M  V30 970 C 88.1709 -2.19439 0.661764 0
M  V30 971 C 89.1709 -1.58199 -0.288042 0
M  V30 972 O 90.3609 -1.74053 -0.0715803 0
M  V30 973 C 87.4929 -3.40889 -0.0276209 0
M  V30 974 H 88.6859 -2.55688 1.56728 0
M  V30 975 H 86.2389 -1.31259 0.848567 0
M  V30 976 H 86.9739 -3.10187 -0.94629 0
M  V30 977 H 86.7589 -3.86586 0.655238 0
M  V30 978 H 88.2489 -4.16603 -0.288342 0
M  V30 979 N 88.686 -0.835752 -1.33615 0
M  V30 980 C 90.102 -0.523139 -1.50783 0
M  V30 981 C 90.302 0.950171 -1.77691 0
M  V30 982 O 89.358 1.73411 -1.83534 0
M  V30 983 C 90.671 -1.39378 -2.66448 0
M  V30 984 C 92.219 -1.39223 -2.80332 0
M  V30 985 C 92.694 -2.24765 -3.99055 0
M  V30 986 N 94.185 -2.22458 -4.06284 0
M  V30 987 C 94.92 -2.85386 -4.97336 0
M  V30 988 N 94.416 -3.57354 -5.93523 0
M  V30 989 N 96.209 -2.74872 -4.90308 0
M  V30 990 H 88.36 -1.78952 -1.14411 0
M  V30 991 H 90.623 -0.763297 -0.562212 0
M  V30 992 H 90.329 -2.44061 -2.53234 0
M  V30 993 H 90.203 -1.0676 -3.61776 0
M  V30 994 H 92.59 -0.353136 -2.92979 0
M  V30 995 H 92.671 -1.75846 -1.85773 0
M  V30 996 H 92.315 -3.28732 -3.87167 0
M  V30 997 H 92.245 -1.85485 -4.92852 0
M  V30 998 H 94.736 -1.70119 -3.37443 0
M  V30 999 H 95.049 -4.02584 -6.59656 0
M  V30 1000 H 93.394 -3.61461 -5.93608 0
M  V30 1001 H 96.585 -2.18213 -4.14126 0
M  V30 1002 H 96.758 -3.24199 -5.61069 0
M  V30 1003 N 90.1641 1.46063 -0.591896 0
M  V30 1004 C 91.0941 2.33172 0.123673 0
M  V30 1005 C 92.0751 1.45897 0.87453 0
M  V30 1006 O 93.2601 1.74698 0.848181 0
M  V30 1007 C 90.3901 3.28336 1.13194 0
M  V30 1008 C 89.3441 4.25124 0.495324 0
M  V30 1009 C 88.6701 5.09863 1.61071 0
M  V30 1010 C 89.9701 5.19143 -0.573425 0
M  V30 1011 H 91.6641 2.93252 -0.603646 0
M  V30 1012 H 89.2101 1.41014 -0.291741 0
M  V30 1013 H 91.1631 3.88137 1.64097 0
M  V30 1014 H 89.8871 2.66383 1.88965 0
M  V30 1015 H 88.5461 3.66599 0.00729452 0
M  V30 1016 H 88.1941 4.44288 2.35832 0
M  V30 1017 H 87.8941 5.75417 1.19035 0
M  V30 1018 H 89.4181 5.72529 2.12233 0
M  V30 1019 H 90.8321 5.73106 -0.1491 0
M  V30 1020 H 89.2291 5.93089 -0.914636 0
M  V30 1021 H 90.2991 4.62519 -1.45617 0
M  V30 1022 N 91.6422 0.330177 1.54103 0
M  V30 1023 C 92.8702 -0.272179 2.05102 0
M  V30 1024 C 93.2852 -1.45267 1.20595 0
M  V30 1025 O 92.6422 -1.8094 0.238144 0
M  V30 1026 C 92.6932 -0.70023 3.54653 0
M  V30 1027 O 92.4142 0.433301 4.35952 0
M  V30 1028 C 93.9152 -1.3647 4.21771 0
M  V30 1029 H 91.1352 -0.0549159 0.668749 0
M  V30 1030 H 93.6792 0.478285 1.98828 0
M  V30 1031 H 91.8342 -1.40066 3.61193 0
M  V30 1032 H 92.2482 0.0947539 5.24414 0
M  V30 1033 H 93.7222 -1.61509 5.27843 0
M  V30 1034 H 94.1992 -2.31409 3.73292 0
M  V30 1035 H 94.8052 -0.706675 4.19388 0
M  V30 1036 N 93.1203 -1.57491 0.0584922 0
M  V30 1037 C 94.0683 -2.13148 -0.931168 0
M  V30 1038 C 95.0623 -1.06507 -1.31729 0
M  V30 1039 O 96.2683 -1.24906 -1.29609 0
M  V30 1040 H 92.6433 -0.68137 -0.31818 0
M  V30 1041 H 94.6143 -2.95187 -0.436707 0
M  V30 1042 C 93.3633 -2.69732 -2.19408 0
M  V30 1043 H 92.6863 -3.51454 -1.90578 0
M  V30 1044 H 94.1263 -3.12287 -2.86798 0
M  V30 1045 C 92.5853 -1.63855 -2.94369 0
M  V30 1046 O 93.1153 -1.05565 -3.87581 0
M  V30 1047 N 91.3213 -1.35202 -2.57233 0
M  V30 1048 H 90.8683 -1.82791 -1.81508 0
M  V30 1049 H 90.8263 -0.645922 -3.07693 0
M  V30 1050 N 94.5984 0.214957 -1.56127 0
M  V30 1051 C 95.8444 0.939762 -1.79712 0
M  V30 1052 C 96.1774 1.83723 -0.629247 0
M  V30 1053 O 95.4524 1.90925 0.371197 0
M  V30 1054 C 95.7354 1.77306 -3.13424 0
M  V30 1055 C 95.5884 0.90164 -4.40671 0
M  V30 1056 C 96.9074 2.74956 -3.43638 0
M  V30 1057 H 94.0264 0.340214 -0.653776 0
M  V30 1058 H 96.6684 0.20824 -1.88855 0
M  V30 1059 H 94.8184 2.39673 -3.0576 0
M  V30 1060 H 96.4904 0.294206 -4.60361 0
M  V30 1061 H 94.7334 0.207368 -4.33304 0
M  V30 1062 H 95.4044 1.51923 -5.30682 0
M  V30 1063 H 97.8804 2.22724 -3.51473 0
M  V30 1064 H 96.7564 3.30358 -4.38355 0
M  V30 1065 H 97.0174 3.53023 -2.66134 0
M  V30 1066 N 96.0765 1.50051 0.48192 0
M  V30 1067 C 97.0235 1.68122 1.58125 0
M  V30 1068 C 97.9935 0.522545 1.57666 0
M  V30 1069 O 99.1785 0.751844 1.75362 0
M  V30 1070 C 96.3185 1.77142 2.96167 0
M  V30 1071 C 95.4315 3.0444 3.06497 0
M  V30 1072 C 94.5665 3.04321 4.35387 0
M  V30 1073 C 93.6055 4.26118 4.3942 0
M  V30 1074 N 92.7425 4.238 5.59766 0
M  V30 1075 H 97.5825 2.6198 1.42022 0
M  V30 1076 H 95.1195 1.29877 0.690687 0
M  V30 1077 H 97.0775 1.80352 3.76203 0
M  V30 1078 H 95.7075 0.867329 3.1093 0
M  V30 1079 H 94.7595 3.10752 2.19402 0
M  V30 1080 H 96.0715 3.94426 3.05336 0
M  V30 1081 H 95.2255 3.062 5.23762 0
M  V30 1082 H 93.9645 2.12147 4.39141 0
M  V30 1083 H 92.9695 4.24463 3.49444 0
M  V30 1084 H 94.1945 5.19507 4.37366 0
M  V30 1085 H 92.1405 3.34474 5.64326 0
M  V30 1086 H 92.0575 5.07542 5.60301 0
M  V30 1087 H 93.3255 4.2981 6.50295 0
M  V30 1088 N 97.5546 -0.734337 1.39446 0
M  V30 1089 C 98.4846 -1.86155 1.40955 0
M  V30 1090 C 99.4656 -1.67898 0.272827 0
M  V30 1091 O 100.651 -1.88207 0.478743 0
M  V30 1092 C 97.7806 -3.23912 1.25294 0
M  V30 1093 C 96.7346 -3.56808 2.36373 0
M  V30 1094 C 96.0606 -4.93508 2.058 0
M  V30 1095 C 97.3606 -3.59713 3.78687 0
M  V30 1096 H 99.0546 -1.8515 2.35287 0
M  V30 1097 H 96.6006 -0.889367 1.13253 0
M  V30 1098 H 98.5536 -4.02443 1.2497 0
M  V30 1099 H 97.2776 -3.25446 0.274308 0
M  V30 1100 H 95.9366 -2.80606 2.35914 0
M  V30 1101 H 95.5846 -4.91623 1.06374 0
M  V30 1102 H 95.2846 -5.16486 2.80208 0
M  V30 1103 H 96.8086 -5.74396 2.07128 0
M  V30 1104 H 98.2226 -4.2832 3.81071 0
M  V30 1105 H 96.6196 -3.94209 4.52459 0
M  V30 1106 H 97.6896 -2.59504 4.09617 0
M  V30 1107 N 99.0327 -1.24633 -0.964593 0
M  V30 1108 C 100.279 -1.08949 -1.71049 0
M  V30 1109 C 100.612 0.370302 -1.90637 0
M  V30 1110 O 99.8867 1.27349 -1.47011 0
M  V30 1111 C 100.17 -1.83329 -3.0994 0
M  V30 1112 C 100.023 -3.37077 -2.97824 0
M  V30 1113 C 101.342 -1.60846 -4.09654 0
M  V30 1114 H 98.4607 -0.397178 -0.620821 0
M  V30 1115 H 101.103 -1.5334 -1.12191 0
M  V30 1116 H 99.2527 -1.45597 -3.60186 0
M  V30 1117 H 100.925 -3.84425 -2.5498 0
M  V30 1118 H 99.1677 -3.65298 -2.33965 0
M  V30 1119 H 99.8387 -3.84324 -3.96231 0
M  V30 1120 H 102.315 -1.93674 -3.68279 0
M  V30 1121 H 101.191 -2.1534 -5.04896 0
M  V30 1122 H 101.452 -0.547434 -4.38698 0
M  V30 1123 N 100.511 1.16574 -1.06058 0
M  V30 1124 C 101.759 1.86677 -0.77434 0
M  V30 1125 C 102.08 1.81959 0.701147 0
M  V30 1126 O 101.35 1.2515 1.50713 0
M  V30 1127 H 99.9298 0.691134 -0.283449 0
M  V30 1128 H 102.592 1.41378 -1.34158 0
M  V30 1129 H 101.688 2.92181 -1.09711 0
M  V30 1130 N 101.989 0.842826 1.3317 0
M  V30 1131 C 103.235 0.441099 1.97945 0
M  V30 1132 C 103.568 -0.998024 1.66593 0
M  V30 1133 O 102.843 -1.69839 0.947898 0
M  V30 1134 C 103.126 0.666841 3.53872 0
M  V30 1135 C 102.979 2.15352 3.94897 0
M  V30 1136 C 104.298 0.115544 4.39948 0
M  V30 1137 H 101.417 0.161739 0.719034 0
M  V30 1138 H 104.059 1.05907 1.57746 0
M  V30 1139 H 102.209 0.140828 3.88245 0
M  V30 1140 H 103.881 2.7447 3.70761 0
M  V30 1141 H 102.124 2.63653 3.44484 0
M  V30 1142 H 102.795 2.26221 5.03516 0
M  V30 1143 H 105.271 0.565213 4.12243 0
M  V30 1144 H 104.147 0.303152 5.48062 0
M  V30 1145 H 104.408 -0.980935 4.3108 0
M  V30 1146 N 103.467 -1.45747 0.599634 0
M  V30 1147 C 104.43 -2.28917 -0.113835 0
M  V30 1148 C 105.43 -1.3933 -0.802729 0
M  V30 1149 O 106.62 -1.61534 -0.652103 0
M  V30 1150 C 103.752 -3.20152 -1.17114 0
M  V30 1151 H 104.945 -2.93478 0.617289 0
M  V30 1152 H 102.498 -1.52137 0.358327 0
M  V30 1153 H 103.233 -2.60374 -1.93329 0
M  V30 1154 H 103.018 -3.86133 -0.681468 0
M  V30 1155 H 104.508 -3.82708 -1.67105 0
M  V30 1156 N 104.945 -0.338344 -1.53925 0
M  V30 1157 C 105.893 0.536231 -2.26335 0
M  V30 1158 C 106.887 1.1063 -1.28286 0
M  V30 1159 O 108.093 1.05264 -1.46012 0
M  V30 1160 H 104.468 0.191602 -0.727181 0
M  V30 1161 H 106.439 -0.0965747 -2.98244 0
M  V30 1162 C 105.188 1.67803 -3.04528 0
M  V30 1163 H 104.511 1.24864 -3.79801 0
M  V30 1164 H 105.951 2.26526 -3.58416 0
M  V30 1165 C 104.41 2.60439 -2.13712 0
M  V30 1166 O 104.94 3.6255 -1.72975 0
M  V30 1167 N 103.146 2.29006 -1.78898 0
M  V30 1168 H 102.693 1.46011 -2.12223 0
M  V30 1169 H 102.651 2.91248 -1.18416 0
M  V30 1170 N 106.423 1.57458 -0.0668435 0
M  V30 1171 C 107.839 1.56947 0.289772 0
M  V30 1172 C 108.039 1.07584 1.70376 0
M  V30 1173 O 107.095 0.739486 2.41429 0
M  V30 1174 C 108.408 3.0052 0.103943 0
M  V30 1175 C 109.956 3.12517 0.173857 0
M  V30 1176 C 110.431 4.57997 0.0163682 0
M  V30 1177 N 111.922 4.63144 0.0721352 0
M  V30 1178 C 112.657 5.73394 -0.0253794 0
M  V30 1179 N 112.153 6.92576 -0.176133 0
M  V30 1180 N 113.946 5.62091 0.0313305 0
M  V30 1181 H 106.097 1.87863 -0.991027 0
M  V30 1182 H 108.36 0.86583 -0.38606 0
M  V30 1183 H 108.066 3.40729 -0.871572 0
M  V30 1184 H 107.94 3.67304 0.858366 0
M  V30 1185 H 110.327 2.72197 1.13985 0
M  V30 1186 H 110.408 2.48381 -0.611586 0
M  V30 1187 H 110.052 4.99005 -0.946374 0
M  V30 1188 H 109.982 5.20158 0.821153 0
M  V30 1189 H 112.473 3.77436 0.187263 0
M  V30 1190 H 112.786 7.72418 -0.242821 0
M  V30 1191 H 111.131 6.94678 -0.211429 0
M  V30 1192 H 114.322 4.67867 0.147773 0
M  V30 1193 H 114.495 6.47982 -0.048121 0
M  V30 1194 N 107.901 -0.206675 1.56239 0
M  V30 1195 C 108.864 -1.23976 1.92776 0
M  V30 1196 C 109.864 -1.39041 0.807729 0
M  V30 1197 O 111.054 -1.37051 1.0753 0
M  V30 1198 C 108.186 -2.61112 2.19165 0
M  V30 1199 H 109.379 -0.927764 2.85189 0
M  V30 1200 H 106.932 -0.447718 1.4975 0
M  V30 1201 H 107.667 -2.97386 1.29352 0
M  V30 1202 H 107.452 -2.51552 3.00772 0
M  V30 1203 H 108.942 -3.35633 2.48476 0
M  V30 1204 N 109.379 -1.50304 -0.473955 0
M  V30 1205 C 110.342 -1.6841 -1.55469 0
M  V30 1206 C 111.342 -0.554905 -1.50922 0
M  V30 1207 O 112.532 -0.821882 -1.53593 0
M  V30 1208 C 109.664 -1.70667 -2.95102 0
M  V30 1209 H 110.857 -2.64828 -1.40733 0
M  V30 1210 H 108.41 -1.39742 -0.700132 0
M  V30 1211 H 109.145 -0.75932 -3.15285 0
M  V30 1212 H 108.93 -2.52698 -2.9981 0
M  V30 1213 H 110.42 -1.8664 -3.73571 0
M  V30 1214 N 110.857 0.726932 -1.39834 0
M  V30 1215 C 112.085 1.51613 -1.40787 0
M  V30 1216 C 112.5 1.88799 -0.00451505 0
M  V30 1217 O 111.857 1.54662 0.968809 0
M  V30 1218 C 111.908 2.79863 -2.28821 0
M  V30 1219 O 111.629 2.44253 -3.63692 0
M  V30 1220 C 113.13 3.73837 -2.38245 0
M  V30 1221 H 110.35 0.468264 -0.480593 0
M  V30 1222 H 112.894 0.897607 -1.83748 0
M  V30 1223 H 111.049 3.38027 -1.89252 0
M  V30 1224 H 111.463 3.26695 -4.1033 0
M  V30 1225 H 112.937 4.60699 -3.04073 0
M  V30 1226 H 113.414 4.16153 -1.40403 0
M  V30 1227 H 114.02 3.21589 -2.78317 0
M  V30 1228 N 112.336 1.25143 0.95797 0
M  V30 1229 C 113.284 1.05019 2.07542 0
M  V30 1230 C 114.278 -0.0178751 1.69391 0
M  V30 1231 O 115.484 0.137472 1.79474 0
M  V30 1232 H 111.859 0.32265 0.679265 0
M  V30 1233 H 113.83 1.99759 2.21673 0
M  V30 1234 C 112.579 0.682074 3.40944 0
M  V30 1235 H 111.902 1.49573 3.70767 0
M  V30 1236 H 113.342 0.580945 4.20001 0
M  V30 1237 C 111.801 -0.611608 3.31302 0
M  V30 1238 O 112.331 -1.65465 3.66038 0
M  V30 1239 N 110.537 -0.595982 2.84423 0
M  V30 1240 H 110.084 0.253192 2.56353 0
M  V30 1241 H 110.042 -1.46173 2.78354 0
M  V30 1242 N 113.814 -1.1601 1.06675 0
M  V30 1243 C 115.039 -1.91068 0.806706 0
M  V30 1244 C 115.464 -1.77112 -0.633485 0
M  V30 1245 O 114.822 -1.09908 -1.44187 0
M  V30 1246 C 114.87 -3.39655 1.21106 0
M  V30 1247 O 113.974 -4.10893 0.352189 0
M  V30 1248 H 113.315 -0.595125 0.294486 0
M  V30 1249 H 115.845 -1.46955 1.42356 0
M  V30 1250 H 115.855 -3.90434 1.18428 0
M  V30 1251 H 114.53 -3.49132 2.26008 0
M  V30 1252 H 113.107 -3.70285 0.440868 0
M  V30 1253 N 115.292 -0.849877 -1.32721 0
M  V30 1254 C 116.224 -0.248332 -2.27851 0
M  V30 1255 C 117.237 0.577218 -1.52224 0
M  V30 1256 O 118.426 0.402489 -1.73903 0
M  V30 1257 C 115.526 0.668107 -3.32249 0
M  V30 1258 C 114.699 -0.120534 -4.37234 0
M  V30 1259 C 113.758 0.720932 -5.21238 0
M  V30 1260 O 112.784 0.156166 -5.68986 0
M  V30 1261 N 113.986 2.03647 -5.43607 0
M  V30 1262 H 116.751 -1.06575 -2.80111 0
M  V30 1263 H 114.312 -0.709395 -1.45531 0
M  V30 1264 H 116.304 1.23627 -3.85355 0
M  V30 1265 H 114.874 1.38621 -2.80184 0
M  V30 1266 H 114.094 -0.870108 -3.84477 0
M  V30 1267 H 115.382 -0.662406 -5.0447 0
M  V30 1268 H 114.78 2.51871 -5.06535 0
M  V30 1269 H 113.337 2.55287 -5.99727 0
M  V30 1270 N 116.77 1.45427 -0.607355 0
M  V30 1271 C 117.68 2.34325 0.113463 0
M  V30 1272 C 118.696 1.51226 0.860617 0
M  V30 1273 O 119.872 1.84029 0.818255 0
M  V30 1274 C 116.937 3.28839 1.09844 0
M  V30 1275 C 115.998 4.27844 0.353271 0
M  V30 1276 C 115.231 5.17842 1.29133 0
M  V30 1277 O 115.454 5.11264 2.52913 0
M  V30 1278 O 114.388 5.96713 0.788523 0
M  V30 1279 H 118.214 2.97364 -0.617094 0
M  V30 1280 H 115.799 1.44807 -0.367619 0
M  V30 1281 H 117.681 3.8708 1.66575 0
M  V30 1282 H 116.356 2.68365 1.81003 0
M  V30 1283 H 115.263 3.7322 -0.256494 0
M  V30 1284 H 116.596 4.91173 -0.317822 0
M  V30 1285 N 118.248 0.346503 1.53744 0
M  V30 1286 C 119.18 -0.543316 2.22667 0
M  V30 1287 C 120.193 -1.06159 1.23427 0
M  V30 1288 O 121.382 -0.971235 1.49764 0
M  V30 1289 C 118.482 -1.76076 2.89569 0
M  V30 1290 C 117.655 -1.37727 4.15151 0
M  V30 1291 C 116.714 -2.45471 4.65436 0
M  V30 1292 O 115.74 -2.08655 5.29577 0
M  V30 1293 N 116.942 -3.7677 4.41616 0
M  V30 1294 H 119.707 0.0469703 2.99663 0
M  V30 1295 H 117.268 0.170766 1.60997 0
M  V30 1296 H 119.26 -2.47593 3.20125 0
M  V30 1297 H 117.83 -2.25835 2.16142 0
M  V30 1298 H 117.05 -0.492746 3.91108 0
M  V30 1299 H 118.338 -1.09708 4.96832 0
M  V30 1300 H 117.736 -4.09467 3.90325 0
M  V30 1301 H 116.293 -4.44448 4.7677 0
M  V30 1302 N 119.726 -1.57421 0.075193 0
M  V30 1303 C 120.973 -1.93618 -0.593146 0
M  V30 1304 C 121.301 -0.955484 -1.69413 0
M  V30 1305 O 120.556 0.0283251 -1.9568 0
M  V30 1306 C 120.855 -3.36428 -1.20626 0
M  V30 1307 C 120.521 -4.50307 -0.231078 0
M  V30 1308 C 119.183 -4.81186 0.0371936 0
M  V30 1309 C 121.535 -5.19374 0.435888 0
M  V30 1310 C 118.863 -5.78466 0.979461 0
M  V30 1311 C 121.215 -6.17665 1.3665 0
M  V30 1312 C 119.879 -6.46958 1.6432 0
M  V30 1313 H 119.149 -0.708499 -0.217047 0
M  V30 1314 H 121.796 -1.90937 0.146793 0
M  V30 1315 H 120.101 -3.35592 -2.02201 0
M  V30 1316 H 121.798 -3.61727 -1.73073 0
M  V30 1317 H 118.388 -4.26227 -0.450357 0
M  V30 1318 H 122.572 -4.95711 0.241748 0
M  V30 1319 H 117.828 -5.99487 1.20106 0
M  V30 1320 H 122.002 -6.70284 1.88924 0
M  V30 1321 H 119.629 -7.2215 2.37494 0
M  V30 1322 N 121.204 0.198386 -1.56346 0
M  V30 1323 C 122.152 1.26538 -1.95169 0
M  V30 1324 C 123.146 1.47295 -0.836685 0
M  V30 1325 O 124.352 1.48195 -1.02167 0
M  V30 1326 H 120.727 0.424744 -0.620561 0
M  V30 1327 H 122.698 0.910904 -2.84157 0
M  V30 1328 C 121.447 2.6035 -2.30463 0
M  V30 1329 H 120.77 2.45192 -3.15786 0
M  V30 1330 H 122.21 3.33762 -2.61494 0
M  V30 1331 C 120.669 3.17096 -1.13806 0
M  V30 1332 O 121.199 3.99588 -0.41135 0
M  V30 1333 N 119.405 2.75795 -0.915736 0
M  V30 1334 H 118.952 2.08816 -1.50843 0
M  V30 1335 H 118.91 3.14101 -0.136979 0
M  V30 1336 N 122.682 1.50554 0.465978 0
M  V30 1337 C 123.612 1.72722 1.57128 0
M  V30 1338 C 124.593 0.576294 1.6004 0
M  V30 1339 O 125.778 0.81598 1.76225 0
M  V30 1340 C 122.908 1.82605 2.95419 0
M  V30 1341 C 121.862 2.97835 3.07373 0
M  V30 1342 C 121.188 2.92867 4.47363 0
M  V30 1343 C 122.488 4.38265 2.84114 0
M  V30 1344 H 124.182 2.65267 1.38829 0
M  V30 1345 H 121.728 1.2765 0.666441 0
M  V30 1346 H 123.681 1.96698 3.72677 0
M  V30 1347 H 122.405 0.866858 3.14886 0
M  V30 1348 H 121.064 2.83401 2.3255 0
M  V30 1349 H 120.712 1.94783 4.63755 0
M  V30 1350 H 120.412 3.70227 4.56296 0
M  V30 1351 H 121.936 3.09015 5.26633 0
M  V30 1352 H 123.35 4.53198 3.51118 0
M  V30 1353 H 121.747 5.17115 3.04487 0
M  V30 1354 H 122.817 4.50281 1.7993 0
M  V30 1355 N 124.16 -0.719506 1.40217 0
M  V30 1356 C 125.093 -1.84298 1.34571 0
M  V30 1357 C 126.071 -1.61149 0.216741 0
M  V30 1358 O 127.255 -1.84212 0.399756 0
M  V30 1359 C 124.382 -3.20568 1.09335 0
M  V30 1360 C 123.428 -3.62551 2.24631 0
M  V30 1361 S 124.261 -3.7012 3.87004 0
M  V30 1362 C 125.417 -5.09154 3.64024 0
M  V30 1363 H 125.65 -1.88807 2.2965 0
M  V30 1364 H 123.183 -0.885901 1.26456 0
M  V30 1365 H 125.141 -3.99246 0.954602 0
M  V30 1366 H 123.802 -3.13696 0.159164 0
M  V30 1367 H 122.995 -4.61483 2.02606 0
M  V30 1368 H 122.597 -2.91119 2.34789 0
M  V30 1369 H 124.889 -5.95955 3.22248 0
M  V30 1370 H 125.832 -5.36213 4.62473 0
M  V30 1371 H 126.24 -4.79562 2.97793 0
M  V30 1372 N 125.638 -1.25649 -0.95132 0
M  V30 1373 C 126.571 -1.00644 -2.04807 0
M  V30 1374 C 127.549 0.0654271 -1.62468 0
M  V30 1375 O 128.733 -0.074911 -1.88351 0
M  V30 1376 C 125.86 -0.522052 -3.34653 0
M  V30 1377 C 124.906 -1.58495 -3.95957 0
M  V30 1378 S 125.739 -3.17108 -4.31512 0
M  V30 1379 C 126.895 -2.70412 -5.64471 0
M  V30 1380 H 127.128 -1.93508 -2.25703 0
M  V30 1381 H 124.661 -1.09216 -1.09139 0
M  V30 1382 H 126.619 -0.24923 -4.09743 0
M  V30 1383 H 125.28 0.386146 -3.11717 0
M  V30 1384 H 124.473 -1.1968 -4.89584 0
M  V30 1385 H 124.075 -1.80862 -3.2736 0
M  V30 1386 H 126.367 -2.14245 -6.42733 0
M  V30 1387 H 127.31 -3.62693 -6.08161 0
M  V30 1388 H 127.718 -2.10302 -5.23864 0
M  V30 1389 N 127.117 1.15442 -1.07289 0
M  V30 1390 C 128.08 2.18358 -0.696591 0
M  V30 1391 C 129.08 1.58637 0.262837 0
M  V30 1392 O 130.27 1.74145 0.0438809 0
M  V30 1393 C 127.402 3.4089 -0.0266151 0
M  V30 1394 H 128.595 2.53162 -1.60776 0
M  V30 1395 H 126.148 1.29893 -0.869342 0
M  V30 1396 H 126.883 3.11653 0.896822 0
M  V30 1397 H 126.668 3.85495 -0.716657 0
M  V30 1398 H 128.158 4.17009 0.222028 0
M  V30 1399 N 128.595 0.856903 1.32268 0
M  V30 1400 C 129.82 0.474569 2.01897 0
M  V30 1401 C 130.245 -0.921766 1.63967 0
M  V30 1402 O 129.603 -1.60589 0.84148 0
M  V30 1403 C 129.651 0.623799 3.55164 0
M  V30 1404 O 128.755 -0.342459 4.10976 0
M  V30 1405 H 128.096 0.190422 0.63611 0
M  V30 1406 H 130.626 1.15672 1.68764 0
M  V30 1407 H 130.636 0.512169 4.04773 0
M  V30 1408 H 129.311 1.64202 3.82113 0
M  V30 1409 H 127.888 -0.18688 3.72431 0
M  V30 1410 N 130.073 -1.45103 0.615059 0
M  V30 1411 C 131.321 -2.01784 0.112955 0
M  V30 1412 C 131.642 -1.48504 -1.26378 0
M  V30 1413 O 130.912 -0.682245 -1.83636 0
M  V30 1414 H 129.492 -0.745993 0.0387668 0
M  V30 1415 H 132.154 -1.77808 0.798141 0
M  V30 1416 H 131.25 -3.12025 0.0684069 0
M  V30 1417 N 131.551 -0.354651 -1.53558 0
M  V30 1418 C 132.483 0.5315 -2.22952 0
M  V30 1419 C 133.496 1.05503 -1.23988 0
M  V30 1420 O 134.685 0.963279 -1.50277 0
M  V30 1421 C 131.785 1.74538 -2.90499 0
M  V30 1422 C 130.958 1.35524 -4.15875 0
M  V30 1423 C 130.017 2.42999 -4.66731 0
M  V30 1424 O 129.043 2.05844 -5.30676 0
M  V30 1425 N 130.245 3.74423 -4.43608 0
M  V30 1426 H 133.01 -0.0628615 -2.99634 0
M  V30 1427 H 130.571 -0.179302 -1.60904 0
M  V30 1428 H 132.563 2.45892 -3.21433 0
M  V30 1429 H 131.133 2.24686 -2.17336 0
M  V30 1430 H 130.353 0.471998 -3.91364 0
M  V30 1431 H 131.641 1.07071 -4.97406 0
M  V30 1432 H 131.039 4.07391 -3.92491 0
M  V30 1433 H 129.596 4.41913 -4.7912 0
M  V30 1434 N 133.029 1.57378 -0.0835403 0
M  V30 1435 C 133.959 2.1641 0.87686 0
M  V30 1436 C 134.94 1.09429 1.30228 0
M  V30 1437 O 136.125 1.37516 1.37124 0
M  V30 1438 C 133.255 2.73517 2.14022 0
M  V30 1439 C 132.209 3.85769 1.85381 0
M  V30 1440 C 131.535 4.29529 3.18448 0
M  V30 1441 C 132.835 5.09486 1.14984 0
M  V30 1442 H 134.529 2.96914 0.385059 0
M  V30 1443 H 132.075 1.42823 0.18377 0
M  V30 1444 H 134.028 3.13463 2.81636 0
M  V30 1445 H 132.752 1.90252 2.65465 0
M  V30 1446 H 131.411 3.46345 1.20169 0
M  V30 1447 H 131.059 3.43169 3.67755 0
M  V30 1448 H 130.759 5.05204 3.00071 0
M  V30 1449 H 132.283 4.72099 3.8724 0
M  V30 1450 H 133.697 5.46674 1.72687 0
M  V30 1451 H 132.094 5.90515 1.06826 0
M  V30 1452 H 133.164 4.84724 0.130749 0
M  V30 1453 N 134.507 -0.190092 1.56449 0
M  V30 1454 C 135.918 -0.754312 1.70784 0
M  V30 1455 C 136.269 -1.83631 0.690951 0
M  V30 1456 O 135.394 -2.15868 -0.151604 0
M  V30 1457 C 135.989 -1.37503 3.09642 0
M  V30 1458 C 134.548 -1.88628 3.25725 0
M  V30 1459 C 133.695 -0.758098 2.66736 0
M  V30 1460 H 136.646 0.0350524 1.58661 0
M  V30 1461 H 136.667 -2.2445 3.0725 0
M  V30 1462 H 136.179 -0.587302 3.83631 0
M  V30 1463 H 134.28 -2.70103 2.56661 0
M  V30 1464 H 134.393 -2.04462 4.3328 0
M  V30 1465 H 132.757 -1.17369 2.26046 0
M  V30 1466 H 133.54 0.0174705 3.43296 0
M  V30 1467 N 135.985 -1.50799 -0.457987 0
M  V30 1468 C 137.262 -1.52968 -1.21902 0
M  V30 1469 C 137.642 -0.281906 -2.09209 0
M  V30 1470 O 136.99 0.734076 -2.16388 0
M  V30 1471 C 137.2 -2.8326 -2.03875 0
M  V30 1472 C 138.548 -3.34425 -2.6162 0
M  V30 1473 O 139.572 -2.8467 -2.14106 0
M  V30 1474 O 138.431 -4.21188 -3.48228 0
M  V30 1475 H 135.525 -0.614129 -0.553873 0
M  V30 1476 H 138.071 -1.63098 -0.468739 0
M  V30 1477 H 136.843 -3.65543 -1.39621 0
M  V30 1478 H 136.466 -2.76195 -2.8601 0
M  V30 1479 N 137.463 0.71206 -1.40597 0
M  V30 1480 C 138.712 1.46754 -1.38369 0
M  V30 1481 C 139.025 1.95598 0.0097839 0
M  V30 1482 O 140.231 2.71059 0.154677 0
M  V30 1483 C 138.687 2.65289 -2.43207 0
M  V30 1484 C 138.295 2.23301 -3.88382 0
M  V30 1485 C 140.039 3.43008 -2.50091 0
M  V30 1486 C 137.946 3.38696 -4.84808 0
M  V30 1487 H 136.876 0.55118 -0.514506 0
M  V30 1488 H 139.527 0.774616 -1.66349 0
M  V30 1489 H 137.909 3.36769 -2.08332 0
M  V30 1490 H 139.083 1.59218 -4.32419 0
M  V30 1491 H 137.398 1.58618 -3.85006 0
M  V30 1492 H 139.995 4.28881 -3.1932 0
M  V30 1493 H 140.338 3.87065 -1.53253 0
M  V30 1494 H 140.871 2.78574 -2.83974 0
M  V30 1495 H 137.61 2.99668 -5.82992 0
M  V30 1496 H 137.13 4.01683 -4.45433 0
M  V30 1497 H 138.809 4.04712 -5.04794 0
M  V30 1498 N 138.941 1.26152 0.944643 0
M  V30 1499 C 140.187 1.11657 1.69294 0
M  V30 1500 C 140.52 -0.339926 1.91202 0
M  V30 1501 O 139.795 -1.24994 1.49019 0
M  V30 1502 C 140.078 1.88236 3.06984 0
M  V30 1503 C 139.931 3.41772 2.92424 0
M  V30 1504 C 141.25 1.67343 4.07043 0
M  V30 1505 H 138.369 0.407004 0.614424 0
M  V30 1506 H 141.011 1.55106 1.09737 0
M  V30 1507 H 139.161 1.51308 3.57824 0
M  V30 1508 H 140.833 3.88433 2.48832 0
M  V30 1509 H 139.076 3.68974 2.28124 0
M  V30 1510 H 139.747 3.90579 3.90067 0
M  V30 1511 H 142.223 1.99509 3.65151 0
M  V30 1512 H 141.099 2.23346 5.01406 0
M  V30 1513 H 141.36 0.617158 4.37771 0
M  V30 1514 N 140.419 -1.14872 1.07899 0
M  V30 1515 C 141.667 -1.85422 0.803941 0
M  V30 1516 C 141.988 -1.83051 -0.67211 0
M  V30 1517 O 141.258 -1.27532 -1.48703 0
M  V30 1518 H 139.838 -0.686537 0.294408 0
M  V30 1519 H 142.5 -1.39226 1.3639 0
M  V30 1520 H 141.596 -2.90399 1.14346 0
M  V30 1521 N 141.898 -0.863906 -1.31812 0
M  V30 1522 C 143.146 -0.470904 -1.96537 0
M  V30 1523 C 143.467 0.978771 -1.68657 0
M  V30 1524 O 142.737 1.6853 -0.998717 0
M  V30 1525 H 141.317 -0.171148 -0.72713 0
M  V30 1526 H 143.979 -1.10236 -1.60729 0
M  V30 1527 H 143.075 -0.623616 -3.05806 0
M  V30 1528 N 143.376 1.44774 -0.622745 0
M  V30 1529 C 144.653 1.95522 -0.0551974 0
M  V30 1530 C 145.033 1.5649 1.41683 0
M  V30 1531 O 144.381 0.834848 2.12703 0
M  V30 1532 C 144.591 3.4796 -0.269242 0
M  V30 1533 C 145.939 4.24306 -0.158014 0
M  V30 1534 O 146.963 3.55637 -0.200162 0
M  V30 1535 O 145.822 5.46471 -0.0558693 0
M  V30 1536 H 142.916 0.826556 0.0271015 0
M  V30 1537 H 145.462 1.54866 -0.693864 0
M  V30 1538 H 144.234 3.6939 -1.29099 0
M  V30 1539 H 143.857 3.95543 0.403966 0
M  V30 1540 N 144.854 0.36279 1.53368 0
M  V30 1541 C 145.802 -0.500155 2.27159 0
M  V30 1542 C 146.796 -1.08575 1.3003 0
M  V30 1543 O 148.002 -1.02927 1.47668 0
M  V30 1544 H 144.377 -0.180009 0.730138 0
M  V30 1545 H 146.348 0.14401 2.98052 0
M  V30 1546 C 145.097 -1.62937 3.07159 0
M  V30 1547 H 144.42 -1.18806 3.8174 0
M  V30 1548 H 145.86 -2.20795 3.61975 0
M  V30 1549 C 144.319 -2.57007 2.17829 0
M  V30 1550 O 144.849 -3.59752 1.78721 0
M  V30 1551 N 143.055 -2.26131 1.82518 0
M  V30 1552 H 142.602 -1.42616 2.14519 0
M  V30 1553 H 142.56 -2.89327 1.23034 0
M  V30 1554 N 146.332 -1.57332 0.0918853 0
M  V30 1555 C 147.262 -2.16872 -0.865371 0
M  V30 1556 C 148.243 -1.10118 -1.29646 0
M  V30 1557 O 149.428 -1.38242 -1.36392 0
M  V30 1558 C 146.558 -2.74649 -2.12569 0
M  V30 1559 C 145.512 -3.86747 -1.83333 0
M  V30 1560 C 144.838 -4.31212 -3.16166 0
M  V30 1561 C 146.138 -5.10089 -1.1228 0
M  V30 1562 H 147.832 -2.97114 -0.369307 0
M  V30 1563 H 145.378 -1.42918 -0.176194 0
M  V30 1564 H 147.331 -3.14952 -2.7997 0
M  V30 1565 H 146.055 -1.91657 -2.64452 0
M  V30 1566 H 144.714 -3.46978 -1.18331 0
M  V30 1567 H 144.362 -3.45115 -3.6593 0
M  V30 1568 H 144.062 -5.06788 -2.97388 0
M  V30 1569 H 145.586 -4.74146 -3.84731 0
M  V30 1570 H 147 -5.47582 -1.69785 0
M  V30 1571 H 145.397 -5.91073 -1.03693 0
M  V30 1572 H 146.467 -4.84786 -0.105041 0
M  V30 1573 N 147.81 0.181792 -1.56548 0
M  V30 1574 C 148.757 1.22521 -1.95595 0
M  V30 1575 C 149.727 1.4454 -0.818373 0
M  V30 1576 O 150.912 1.57454 -1.07763 0
M  V30 1577 C 148.052 2.56193 -2.31212 0
M  V30 1578 C 147.165 2.41641 -3.58097 0
M  V30 1579 C 146.3 3.68108 -3.82975 0
M  V30 1580 C 145.339 3.48445 -5.03242 0
M  V30 1581 N 144.476 4.66956 -5.24306 0
M  V30 1582 H 149.316 0.885226 -2.84548 0
M  V30 1583 H 146.853 0.425718 -1.40805 0
M  V30 1584 H 148.811 3.34088 -2.49882 0
M  V30 1585 H 147.441 2.88208 -1.45382 0
M  V30 1586 H 146.493 1.54976 -3.474 0
M  V30 1587 H 147.805 2.23052 -4.46149 0
M  V30 1588 H 146.959 4.54441 -4.01956 0
M  V30 1589 H 145.698 3.89666 -2.93278 0
M  V30 1590 H 144.703 2.60499 -4.8417 0
M  V30 1591 H 145.928 3.2832 -5.9446 0
M  V30 1592 H 143.874 4.88752 -4.37559 0
M  V30 1593 H 143.791 4.51242 -6.06561 0
M  V30 1594 H 145.059 5.54602 -5.47756 0
M  V30 1595 N 149.288 1.51039 0.449983 0
M  V30 1596 C 150.565 1.53612 1.21089 0
M  V30 1597 C 150.945 0.292997 2.09057 0
M  V30 1598 O 150.293 -0.72259 2.16774 0
M  V30 1599 C 150.503 2.84337 2.0237 0
M  V30 1600 C 151.851 3.35807 2.59843 0
M  V30 1601 O 152.875 2.85802 2.12593 0
M  V30 1602 O 151.734 4.23029 3.45989 0
M  V30 1603 H 148.828 0.617057 0.550608 0
M  V30 1604 H 151.374 1.63344 0.460082 0
M  V30 1605 H 150.146 3.66278 1.37681 0
M  V30 1606 H 149.769 2.77708 2.84542 0
M  V30 1607 N 150.766 -0.704594 1.40972 0
M  V30 1608 C 151.713 -1.81862 1.42109 0
M  V30 1609 C 152.683 -1.63781 0.276593 0
M  V30 1610 O 153.868 -1.84759 0.4763 0
M  V30 1611 C 151.008 -3.19669 1.30022 0
M  V30 1612 C 150.121 -3.49246 2.54267 0
M  V30 1613 C 149.256 -4.76618 2.3454 0
M  V30 1614 C 148.295 -4.99133 3.54306 0
M  V30 1615 N 147.432 -6.17726 3.33706 0
M  V30 1616 H 152.272 -1.80226 2.37324 0
M  V30 1617 H 149.809 -0.880238 1.17857 0
M  V30 1618 H 151.767 -3.99263 1.21018 0
M  V30 1619 H 150.397 -3.20506 0.384192 0
M  V30 1620 H 149.449 -2.64125 2.73756 0
M  V30 1621 H 150.761 -3.61788 3.43381 0
M  V30 1622 H 149.915 -5.64249 2.22952 0
M  V30 1623 H 148.654 -4.66305 1.42867 0
M  V30 1624 H 147.659 -4.09953 3.66359 0
M  V30 1625 H 148.884 -5.11311 4.4692 0
M  V30 1626 H 146.83 -6.08642 2.44725 0
M  V30 1627 H 146.747 -6.30995 4.16391 0
M  V30 1628 H 148.015 -7.08115 3.25873 0
M  V30 1629 N 152.244 -1.26651 -0.937939 0
M  V30 1630 C 153.491 -1.12387 -1.6845 0
M  V30 1631 C 153.819 0.332208 -1.91642 0
M  V30 1632 O 153.074 1.2602 -1.49725 0
M  V30 1633 C 153.373 -1.84168 -3.06295 0
M  V30 1634 C 153.039 -3.34056 -3.02849 0
M  V30 1635 C 151.701 -3.74942 -3.01616 0
M  V30 1636 C 154.053 -4.29741 -2.9491 0
M  V30 1637 C 151.381 -5.09894 -2.90215 0
M  V30 1638 C 153.733 -5.64738 -2.8505 0
M  V30 1639 C 152.397 -6.0493 -2.82162 0
M  V30 1640 H 151.667 -0.411252 -0.616403 0
M  V30 1641 H 154.314 -1.57134 -1.09459 0
M  V30 1642 H 152.619 -1.319 -3.6893 0
M  V30 1643 H 154.316 -1.70569 -3.62915 0
M  V30 1644 H 150.906 -3.01534 -3.0459 0
M  V30 1645 H 155.09 -3.99133 -2.94969 0
M  V30 1646 H 150.346 -5.40194 -2.86358 0
M  V30 1647 H 154.52 -6.38561 -2.77872 0
M  V30 1648 H 152.147 -7.09457 -2.73084 0
M  V30 1649 N 153.722 1.14298 -1.08507 0
M  V30 1650 C 154.971 1.84708 -0.810305 0
M  V30 1651 C 155.284 1.83903 0.666271 0
M  V30 1652 O 156.49 2.50112 1.05624 0
M  V30 1653 C 154.946 3.31572 -1.39957 0
M  V30 1654 C 154.554 3.40791 -2.90801 0
M  V30 1655 C 156.298 4.07087 -1.20334 0
M  V30 1656 C 154.205 4.81872 -3.4286 0
M  V30 1657 H 153.135 0.691985 -0.299454 0
M  V30 1658 H 155.786 1.28841 -1.30661 0
M  V30 1659 H 154.168 3.87183 -0.830976 0
M  V30 1660 H 155.342 2.95225 -3.53806 0
M  V30 1661 H 153.657 2.78732 -3.0935 0
M  V30 1662 H 156.254 5.11225 -1.56693 0
M  V30 1663 H 156.597 4.16054 -0.143237 0
M  V30 1664 H 157.13 3.57779 -1.73893 0
M  V30 1665 H 153.869 4.78094 -4.48449 0
M  V30 1666 H 153.389 5.27972 -2.84615 0
M  V30 1667 H 155.068 5.50765 -3.39509 0
M  V30 1668 N 155.201 0.870884 1.31352 0
M  V30 1669 C 156.617 0.562932 1.49343 0
M  V30 1670 C 156.817 -0.902725 1.80148 0
M  V30 1671 O 155.873 -1.68484 1.88067 0
M  V30 1672 C 157.186 1.46393 2.62659 0
M  V30 1673 C 158.734 1.46607 2.76542 0
M  V30 1674 C 159.209 2.35266 3.92955 0
M  V30 1675 N 160.7 2.33151 4.00243 0
M  V30 1676 C 161.435 2.98471 4.89594 0
M  V30 1677 N 160.931 3.72964 5.8384 0
M  V30 1678 N 162.724 2.87775 4.82848 0
M  V30 1679 H 154.875 1.81923 1.09626 0
M  V30 1680 H 157.138 0.777934 0.541777 0
M  V30 1681 H 156.844 2.50689 2.46674 0
M  V30 1682 H 156.718 1.16314 3.58819 0
M  V30 1683 H 159.105 0.43069 2.9194 0
M  V30 1684 H 159.186 1.8071 1.81046 0
M  V30 1685 H 158.83 3.38881 3.78315 0
M  V30 1686 H 158.76 1.98487 4.87761 0
M  V30 1687 H 161.251 1.79006 3.32814 0
M  V30 1688 H 161.564 4.19932 6.4875 0
M  V30 1689 H 159.909 3.77073 5.83816 0
M  V30 1690 H 163.1 2.29116 4.08195 0
M  V30 1691 H 163.273 3.38961 5.52277 0
M  V30 1692 N 156.679 -1.44442 0.630414 0
M  V30 1693 C 157.909 -2.06115 0.141465 0
M  V30 1694 C 158.317 -1.47179 -1.1889 0
M  V30 1695 O 157.66 -0.588873 -1.74006 0
M  V30 1696 C 157.722 -3.59467 -0.0484355 0
M  V30 1697 C 157.386 -4.40864 1.20366 0
M  V30 1698 C 158.383 -4.74391 2.12719 0
M  V30 1699 C 156.068 -4.8125 1.43887 0
M  V30 1700 C 158.062 -5.47186 3.26904 0
M  V30 1701 C 155.749 -5.53795 2.5837 0
M  V30 1702 C 156.747 -5.86682 3.49705 0
M  V30 1703 O 156.435 -6.57749 4.62191 0
M  V30 1704 H 156.167 -0.671648 0.0765792 0
M  V30 1705 H 158.721 -1.86312 0.864695 0
M  V30 1706 H 156.951 -3.77758 -0.826803 0
M  V30 1707 H 158.64 -4.02909 -0.491849 0
M  V30 1708 H 159.406 -4.43728 1.95781 0
M  V30 1709 H 155.285 -4.55073 0.736853 0
M  V30 1710 H 158.829 -5.72773 3.98217 0
M  V30 1711 H 154.726 -5.83872 2.75251 0
M  V30 1712 H 155.494 -6.76217 4.61164 0
M  V30 1713 N 158.157 -0.370918 -1.53173 0
M  V30 1714 C 159.405 0.216673 -2.00935 0
M  V30 1715 C 159.726 1.48845 -1.25977 0
M  V30 1716 O 158.996 1.92286 -0.374551 0
M  V30 1717 H 157.576 0.0830565 -0.742368 0
M  V30 1718 H 160.238 -0.49838 -1.8842 0
M  V30 1719 H 159.334 0.439893 -3.08984 0
M  V30 1720 N 159.635 1.57281 -0.100228 0
M  V30 1721 C 160.568 2.09976 0.893612 0
M  V30 1722 C 161.546 1.01155 1.27304 0
M  V30 1723 O 162.73 1.28687 1.37739 0
M  V30 1724 C 159.857 2.58098 2.19324 0
M  V30 1725 C 158.903 3.78626 1.96328 0
M  V30 1726 S 159.736 5.21959 1.19662 0
M  V30 1727 C 160.892 5.73435 2.50844 0
M  V30 1728 H 161.125 2.93946 0.44534 0
M  V30 1729 H 158.658 1.53985 0.113167 0
M  V30 1730 H 160.616 2.8648 2.94005 0
M  V30 1731 H 159.277 1.74344 2.61272 0
M  V30 1732 H 158.47 4.10382 2.92579 0
M  V30 1733 H 158.072 3.50763 1.29775 0
M  V30 1734 H 160.364 5.82015 3.46792 0
M  V30 1735 H 161.307 6.7185 2.23659 0
M  V30 1736 H 161.715 5.01395 2.59352 0
M  V30 1737 N 161.113 -0.173488 1.56642 0
M  V30 1738 C 162.023 -1.23482 1.99473 0
M  V30 1739 C 163.039 -1.48567 0.905752 0
M  V30 1740 O 164.215 -1.60758 1.21321 0
M  V30 1741 C 161.28 -2.55444 2.34413 0
M  V30 1742 C 160.341 -2.38241 3.57127 0
M  V30 1743 C 159.574 -3.63909 3.90392 0
M  V30 1744 O 159.797 -4.68996 3.24653 0
M  V30 1745 O 158.731 -3.58149 4.83749 0
M  V30 1746 H 162.557 -0.901279 2.90018 0
M  V30 1747 H 160.142 -0.380185 1.44482 0
M  V30 1748 H 162.024 -3.33292 2.57865 0
M  V30 1749 H 160.699 -2.88382 1.4703 0
M  V30 1750 H 159.606 -1.58431 3.38896 0
M  V30 1751 H 160.939 -2.10228 4.45045 0
M  V30 1752 N 162.591 -1.51276 -0.441967 0
M  V30 1753 C 163.839 -1.63392 -1.18943 0
M  V30 1754 C 164.16 -0.350159 -1.9183 0
M  V30 1755 O 163.43 0.633784 -1.85364 0
M  V30 1756 H 162.01 -0.602164 -0.442049 0
M  V30 1757 H 164.672 -1.88186 -0.507165 0
M  V30 1758 H 163.768 -2.45934 -1.92154 0
M  V30 1759 N 164.069 0.697108 -1.41344 0
M  V30 1760 C 165.032 1.79281 -1.42797 0
M  V30 1761 C 166.032 1.57607 -0.318837 0
M  V30 1762 O 167.222 1.64309 -0.578642 0
M  V30 1763 C 164.354 3.17632 -1.23785 0
M  V30 1764 H 165.547 1.79385 -2.40335 0
M  V30 1765 H 163.1 0.904582 -1.27464 0
M  V30 1766 H 163.835 3.23167 -0.270814 0
M  V30 1767 H 163.62 3.34765 -2.04144 0
M  V30 1768 H 165.11 3.97617 -1.27633 0
M  V30 1769 N 165.547 1.27147 0.931209 0
M  V30 1770 C 166.794 1.13278 1.67852 0
M  V30 1771 C 167.122 -0.32204 1.91815 0
M  V30 1772 O 166.377 -1.25224 1.50391 0
M  V30 1773 C 166.676 1.8579 3.05314 0
M  V30 1774 C 166.342 3.35657 3.01073 0
M  V30 1775 C 165.004 3.76536 2.99623 0
M  V30 1776 C 167.356 4.31299 2.92627 0
M  V30 1777 C 164.684 5.11426 2.87506 0
M  V30 1778 C 167.036 5.66242 2.82051 0
M  V30 1779 C 165.7 6.06418 2.7895 0
M  V30 1780 H 164.97 0.414515 0.614214 0
M  V30 1781 H 167.617 1.57712 1.08624 0
M  V30 1782 H 165.922 1.33854 3.68226 0
M  V30 1783 H 167.619 1.72491 3.62005 0
M  V30 1784 H 164.209 3.03146 3.02986 0
M  V30 1785 H 168.393 4.00692 2.92848 0
M  V30 1786 H 163.649 5.41705 2.83489 0
M  V30 1787 H 167.823 6.40026 2.74481 0
M  V30 1788 H 165.45 7.10895 2.69318 0
M  V30 1789 N 167.025 -1.13721 1.09112 0
M  V30 1790 C 168.274 -1.84275 0.82009 0
M  V30 1791 C 168.587 -1.84253 -0.656509 0
M  V30 1792 O 169.793 -2.50668 -1.04296 0
M  V30 1793 C 168.249 -3.30825 1.41714 0
M  V30 1794 C 167.857 -3.39244 2.92605 0
M  V30 1795 C 169.601 -4.06443 1.22492 0
M  V30 1796 C 167.508 -4.80047 3.45411 0
M  V30 1797 H 166.438 -0.690387 0.30312 0
M  V30 1798 H 169.089 -1.28146 1.31343 0
M  V30 1799 H 167.471 -3.86737 0.851498 0
M  V30 1800 H 168.645 -2.93344 3.55367 0
M  V30 1801 H 166.96 -2.77088 3.10823 0
M  V30 1802 H 169.557 -5.10387 1.59402 0
M  V30 1803 H 169.9 -4.15972 0.165299 0
M  V30 1804 H 170.433 -3.56852 1.75788 0
M  V30 1805 H 167.172 -4.75709 4.50978 0
M  V30 1806 H 166.692 -5.26455 2.87411 0
M  V30 1807 H 168.371 -5.48957 3.42425 0
M  V30 1808 N 168.503 -0.877838 -1.30888 0
M  V30 1809 C 169.914 -0.544193 -1.78593 0
M  V30 1810 C 170.265 0.939301 -1.72254 0
M  V30 1811 O 169.39 1.7337 -1.29505 0
M  V30 1812 C 169.985 -0.98105 -3.24285 0
M  V30 1813 C 168.544 -0.698935 -3.69854 0
M  V30 1814 C 167.691 -1.168 -2.51502 0
M  V30 1815 H 170.642 -1.06278 -1.17859 0
M  V30 1816 H 170.663 -0.307009 -3.79259 0
M  V30 1817 H 170.175 -2.06079 -3.28866 0
M  V30 1818 H 168.276 0.369112 -3.70767 0
M  V30 1819 H 168.389 -1.28148 -4.61644 0
M  V30 1820 H 166.753 -0.587535 -2.47831 0
M  V30 1821 H 167.536 -2.25533 -2.58824 0
M  V30 1822 N 169.982 1.44106 -0.638065 0
M  V30 1823 C 170.912 2.33448 0.0494287 0
M  V30 1824 C 171.893 1.48606 0.827672 0
M  V30 1825 O 173.078 1.77308 0.792173 0
M  V30 1826 C 170.208 3.31771 1.02691 0
M  V30 1827 C 169.162 4.26485 0.359823 0
M  V30 1828 C 168.488 5.14729 1.44769 0
M  V30 1829 C 169.788 5.17056 -0.738296 0
M  V30 1830 H 171.482 2.91183 -0.696636 0
M  V30 1831 H 169.028 1.40014 -0.336456 0
M  V30 1832 H 170.981 3.93161 1.51666 0
M  V30 1833 H 169.705 2.7226 1.80395 0
M  V30 1834 H 168.364 3.66437 -0.10934 0
M  V30 1835 H 168.012 4.51566 2.21578 0
M  V30 1836 H 167.712 5.78913 1.00668 0
M  V30 1837 H 169.236 5.78991 1.93911 0
M  V30 1838 H 170.65 5.72342 -0.331354 0
M  V30 1839 H 169.047 5.89879 -1.10286 0
M  V30 1840 H 170.117 4.57652 -1.60258 0
M  V30 1841 N 171.46 0.379036 1.52974 0
M  V30 1842 C 172.408 -0.476033 2.27677 0
M  V30 1843 C 173.402 -1.0719 1.31174 0
M  V30 1844 O 174.608 -1.01355 1.48752 0
M  V30 1845 H 170.983 -0.172255 0.732006 0
M  V30 1846 H 172.954 0.175615 2.97883 0
M  V30 1847 C 171.703 -1.5967 3.0887 0
M  V30 1848 H 171.026 -1.1475 3.82978 0
M  V30 1849 H 172.466 -2.16943 3.64296 0
M  V30 1850 C 170.925 -2.54682 2.20542 0
M  V30 1851 O 171.455 -3.57836 1.82527 0
M  V30 1852 N 169.661 -2.24183 1.84907 0
M  V30 1853 H 169.208 -1.40333 2.1602 0
M  V30 1854 H 169.166 -2.88006 1.26096 0
M  V30 1855 N 172.938 -1.57226 0.108567 0
M  V30 1856 C 173.885 -2.14756 -0.845481 0
M  V30 1857 C 174.855 -1.06971 -1.27068 0
M  V30 1858 O 176.04 -1.34827 -1.35005 0
M  V30 1859 C 173.18 -2.74298 -2.09415 0
M  V30 1860 C 172.293 -3.96358 -1.71826 0
M  V30 1861 C 171.428 -4.44021 -2.9158 0
M  V30 1862 C 170.467 -5.58637 -2.50181 0
M  V30 1863 N 169.604 -6.01091 -3.62814 0
M  V30 1864 H 174.444 -2.95961 -0.348035 0
M  V30 1865 H 171.981 -1.46226 -0.160106 0
M  V30 1866 H 173.939 -3.06945 -2.82561 0
M  V30 1867 H 172.569 -1.95801 -2.56636 0
M  V30 1868 H 171.621 -3.69939 -0.885947 0
M  V30 1869 H 172.933 -4.79504 -1.37394 0
M  V30 1870 H 172.087 -4.78522 -3.72963 0
M  V30 1871 H 170.826 -3.59803 -3.29231 0
M  V30 1872 H 169.831 -5.23751 -1.67228 0
M  V30 1873 H 171.056 -6.44613 -2.13659 0
M  V30 1874 H 169.002 -5.19817 -4.00158 0
M  V30 1875 H 168.919 -6.79066 -3.32273 0
M  V30 1876 H 170.187 -6.40227 -4.44668 0
M  V30 1877 N 174.416 0.165178 -1.56732 0
M  V30 1878 C 175.346 1.20651 -1.99914 0
M  V30 1879 C 176.327 1.45827 -0.875705 0
M  V30 1880 O 177.512 1.57057 -1.14223 0
M  V30 1881 C 174.642 2.54401 -2.36427 0
M  V30 1882 C 173.596 2.43782 -3.51787 0
M  V30 1883 C 172.922 3.82078 -3.7406 0
M  V30 1884 C 174.222 1.93732 -4.85041 0
M  V30 1885 H 175.916 0.847534 -2.87154 0
M  V30 1886 H 173.462 0.40625 -1.38151 0
M  V30 1887 H 175.415 3.27458 -2.65234 0
M  V30 1888 H 174.139 2.92098 -1.46103 0
M  V30 1889 H 172.798 1.73178 -3.23117 0
M  V30 1890 H 172.446 4.17179 -2.81017 0
M  V30 1891 H 172.146 3.7584 -4.51684 0
M  V30 1892 H 173.67 4.56712 -4.05274 0
M  V30 1893 H 175.084 2.56569 -5.12684 0
M  V30 1894 H 173.481 1.98428 -5.66345 0
M  V30 1895 H 174.551 0.891962 -4.76626 0
M  V30 1896 N 175.894 1.51508 0.433938 0
M  V30 1897 C 177.143 1.63578 1.18005 0
M  V30 1898 C 177.456 0.359514 1.92268 0
M  V30 1899 O 178.662 0.359632 2.69108 0
M  V30 1900 C 177.118 2.88901 2.14626 0
M  V30 1901 C 176.726 4.23544 1.45995 0
M  V30 1902 C 178.47 3.10328 2.89649 0
M  V30 1903 C 176.377 5.40014 2.4112 0
M  V30 1904 H 175.307 0.609277 0.444182 0
M  V30 1905 H 177.958 1.77978 0.446773 0
M  V30 1906 H 176.34 2.68142 2.91403 0
M  V30 1907 H 177.514 4.54696 0.747532 0
M  V30 1908 H 175.829 4.08021 0.831115 0
M  V30 1909 H 178.426 3.94518 3.60915 0
M  V30 1910 H 178.769 2.23544 3.51189 0
M  V30 1911 H 179.302 3.31443 2.19978 0
M  V30 1912 H 176.041 6.29068 1.84264 0
M  V30 1913 H 175.561 5.13233 3.10406 0
M  V30 1914 H 177.24 5.72099 3.02177 0
M  V30 1915 N 177.372 -0.689602 1.41712 0
M  V30 1916 C 178.649 -1.44457 1.31877 0
M  V30 1917 C 179.029 -2.11039 -0.0508537 0
M  V30 1918 O 178.377 -2.02138 -1.06547 0
M  V30 1919 C 178.587 -2.45913 2.47645 0
M  V30 1920 C 179.935 -3.10991 2.89084 0
M  V30 1921 O 180.959 -2.56238 2.47428 0
M  V30 1922 O 179.818 -4.10174 3.61137 0
M  V30 1923 H 176.912 -0.64362 0.519309 0
M  V30 1924 H 179.458 -0.719576 1.53689 0
M  V30 1925 H 178.23 -1.95409 3.39015 0
M  V30 1926 H 177.853 -3.25913 2.27742 0
M  V30 1927 N 178.85 -1.27639 -0.924453 0
M  V30 1928 C 179.782 -1.06442 -2.02985 0
M  V30 1929 C 180.795 -0.0194771 -1.62788 0
M  V30 1930 O 181.984 -0.261388 -1.76576 0
M  V30 1931 C 179.084 -0.59327 -3.33667 0
M  V30 1932 C 178.257 -1.71123 -4.02537 0
M  V30 1933 C 177.316 -1.23527 -5.11495 0
M  V30 1934 O 176.342 -1.93553 -5.35281 0
M  V30 1935 N 177.544 -0.0926678 -5.80426 0
M  V30 1936 H 180.309 -2.01633 -2.2173 0
M  V30 1937 H 177.87 -1.19248 -1.09505 0
M  V30 1938 H 179.862 -0.258686 -4.03872 0
M  V30 1939 H 178.432 0.265502 -3.1147 0
M  V30 1940 H 177.652 -2.21593 -3.26022 0
M  V30 1941 H 178.94 -2.46145 -4.45298 0
M  V30 1942 H 178.338 0.491741 -5.63559 0
M  V30 1943 H 176.895 0.182714 -6.51544 0
M  V30 1944 N 180.328 1.1314 -1.09713 0
M  V30 1945 C 181.276 2.20717 -0.733934 0
M  V30 1946 C 182.27 1.6729 0.266506 0
M  V30 1947 O 183.476 1.79547 0.127656 0
M  V30 1948 H 179.851 0.719292 -0.21937 0
M  V30 1949 H 181.822 2.48611 -1.6503 0
M  V30 1950 C 180.571 3.47265 -0.173849 0
M  V30 1951 H 179.894 3.88716 -0.934873 0
M  V30 1952 H 181.334 4.23979 0.0423126 0
M  V30 1953 C 179.793 3.18724 1.09164 0
M  V30 1954 O 180.323 3.37762 2.17439 0
M  V30 1955 N 178.529 2.72583 1.00732 0
M  V30 1956 H 178.076 2.57291 0.126121 0
M  V30 1957 H 178.034 2.53862 1.85476 0
M  V30 1958 N 181.806 0.884767 1.30421 0
M  V30 1959 C 182.769 0.356277 2.26414 0
M  V30 1960 C 183.769 -0.501124 1.52792 0
M  V30 1961 O 184.959 -0.30831 1.7145 0
M  V30 1962 C 182.091 -0.492316 3.37326 0
M  V30 1963 H 183.284 1.20389 2.74675 0
M  V30 1964 H 180.837 0.661607 1.41607 0
M  V30 1965 H 181.572 -1.36052 2.94381 0
M  V30 1966 H 181.357 0.121832 3.91911 0
M  V30 1967 H 182.847 -0.853871 4.08777 0
M  V30 1968 N 183.284 -1.43765 0.645699 0
M  V30 1969 C 184.695 -1.85193 0.236719 0
M  V30 1970 C 185.046 -1.54045 -1.21509 0
M  V30 1971 O 184.171 -0.985694 -1.92647 0
M  V30 1972 C 184.766 -3.36151 0.422845 0
M  V30 1973 C 183.325 -3.76338 0.0682492 0
M  V30 1974 C 182.472 -2.67538 0.729306 0
M  V30 1975 H 185.423 -1.34025 0.849883 0
M  V30 1976 H 185.444 -3.79032 -0.333904 0
M  V30 1977 H 184.956 -3.5879 1.47958 0
M  V30 1978 H 183.057 -3.59312 -0.986179 0
M  V30 1979 H 183.17 -4.76603 0.488469 0
M  V30 1980 H 181.534 -2.54176 0.163235 0
M  V30 1981 H 182.317 -2.93006 1.78892 0
M  V30 1982 N 184.763 -0.387143 -1.52771 0
M  V30 1983 C 185.711 0.463953 -2.27926 0
M  V30 1984 C 186.705 1.06493 -1.31741 0
M  V30 1985 O 187.911 1.00565 -1.49287 0
M  V30 1986 H 184.286 0.16837 -0.732909 0
M  V30 1987 H 186.257 -0.19141 -2.97785 0
M  V30 1988 C 185.006 1.5803 -3.09713 0
M  V30 1989 H 184.329 1.12718 -3.83581 0
M  V30 1990 H 185.769 2.15008 -3.65442 0
M  V30 1991 C 184.228 2.53509 -2.2189 0
M  V30 1992 O 184.758 3.56863 -1.84422 0
M  V30 1993 N 182.964 2.23199 -1.86093 0
M  V30 1994 H 182.511 1.39185 -2.16761 0
M  V30 1995 H 182.469 2.87333 -1.27621 0
M  V30 1996 N 186.241 1.57166 -0.116904 0
M  V30 1997 C 187.171 2.18222 0.830759 0
M  V30 1998 C 188.152 1.12167 1.27877 0
M  V30 1999 O 189.337 1.40394 1.34176 0
M  V30 2000 C 186.467 2.77996 2.08172 0
M  V30 2001 C 185.421 3.89614 1.77157 0
M  V30 2002 C 184.747 4.36187 3.09265 0
M  V30 2003 C 186.047 5.1181 1.04151 0
M  V30 2004 H 187.741 2.97664 0.321992 0
M  V30 2005 H 185.287 1.4318 0.153434 0
M  V30 2006 H 187.24 3.19366 2.74924 0
M  V30 2007 H 185.964 1.9584 2.6137 0
M  V30 2008 H 184.623 3.48816 1.12796 0
M  V30 2009 H 184.271 3.50893 3.60393 0
M  V30 2010 H 183.971 5.11455 2.89288 0
M  V30 2011 H 185.495 4.80207 3.77139 0
M  V30 2012 H 186.909 5.50214 1.61052 0
M  V30 2013 H 185.306 5.92648 0.942762 0
M  V30 2014 H 186.376 4.84892 0.0279022 0
M  V30 2015 N 187.719 -0.156864 1.56817 0
M  V30 2016 C 188.666 -1.19394 1.97519 0
M  V30 2017 C 189.636 -1.4322 0.841265 0
M  V30 2018 O 190.821 -1.55719 1.10255 0
M  V30 2019 C 187.961 -2.52483 2.35258 0
M  V30 2020 C 187.074 -2.35914 3.61896 0
M  V30 2021 C 186.209 -3.61969 3.88782 0
M  V30 2022 C 185.248 -3.40395 5.08722 0
M  V30 2023 N 184.385 -4.58556 5.31668 0
M  V30 2024 H 189.225 -0.839845 2.85921 0
M  V30 2025 H 186.762 -0.403264 1.41464 0
M  V30 2026 H 188.72 -3.30071 2.55165 0
M  V30 2027 H 187.35 -2.85859 1.49949 0
M  V30 2028 H 186.402 -1.49429 3.49821 0
M  V30 2029 H 187.714 -2.15926 4.49641 0
M  V30 2030 H 186.868 -4.47989 4.09135 0
M  V30 2031 H 185.607 -3.84951 2.9944 0
M  V30 2032 H 184.612 -2.52763 4.88253 0
M  V30 2033 H 185.837 -3.18822 5.99608 0
M  V30 2034 H 183.783 -4.81729 4.45279 0
M  V30 2035 H 183.7 -4.41535 6.13664 0
M  V30 2036 H 184.968 -5.45817 5.5651 0
M  V30 2037 N 189.197 -1.51736 -0.425897 0
M  V30 2038 C 190.16 -1.73271 -1.50032 0
M  V30 2039 C 191.16 -0.602639 -1.4908 0
M  V30 2040 O 192.35 -0.87033 -1.509 0
M  V30 2041 C 189.482 -1.79969 -2.89523 0
M  V30 2042 H 190.675 -2.69172 -1.32237 0
M  V30 2043 H 188.228 -1.41899 -0.65532 0
M  V30 2044 H 188.963 -0.859241 -3.1271 0
M  V30 2045 H 188.748 -2.62109 -2.91619 0
M  V30 2046 H 190.238 -1.9843 -3.67444 0
M  V30 2047 N 190.675 0.682077 -1.42076 0
M  V30 2048 C 191.922 1.44215 -1.42156 0
M  V30 2049 C 192.25 1.94468 -0.0354186 0
M  V30 2050 O 191.505 1.70816 0.955002 0
M  V30 2051 C 191.804 2.66036 -2.38662 0
M  V30 2052 C 191.47 2.34366 -3.85206 0
M  V30 2053 C 190.132 2.25439 -4.25124 0
M  V30 2054 C 192.484 2.08513 -4.77673 0
M  V30 2055 C 189.812 1.88775 -5.55501 0
M  V30 2056 C 192.164 1.73354 -6.08384 0
M  V30 2057 C 190.828 1.62933 -6.47309 0
M  V30 2058 H 190.098 0.527718 -0.520187 0
M  V30 2059 H 192.745 0.778387 -1.74967 0
M  V30 2060 H 191.05 3.3741 -1.99152 0
M  V30 2061 H 192.747 3.24205 -2.35991 0
M  V30 2062 H 189.337 2.42213 -3.53597 0
M  V30 2063 H 193.521 2.14346 -4.47626 0
M  V30 2064 H 188.777 1.7927 -5.84527 0
M  V30 2065 H 192.951 1.52373 -6.79526 0
M  V30 2066 H 190.578 1.34292 -7.48244 0
M  V30 2067 N 192.153 1.28127 0.917671 0
M  V30 2068 C 193.4 1.15052 1.66641 0
M  V30 2069 C 193.728 -0.301677 1.92146 0
M  V30 2070 O 192.983 -1.23622 1.51711 0
M  V30 2071 C 193.282 1.89018 3.03327 0
M  V30 2072 C 192.948 3.38832 2.97496 0
M  V30 2073 C 191.61 3.79693 2.95613 0
M  V30 2074 C 193.962 4.34378 2.88036 0
M  V30 2075 C 191.29 5.14447 2.82066 0
M  V30 2076 C 193.642 5.69201 2.7603 0
M  V30 2077 C 192.306 6.09343 2.72502 0
M  V30 2078 H 191.576 0.421006 0.609783 0
M  V30 2079 H 194.223 1.58855 1.06945 0
M  V30 2080 H 192.528 1.37752 3.66785 0
M  V30 2081 H 194.225 1.76321 3.60156 0
M  V30 2082 H 190.815 3.06342 2.99754 0
M  V30 2083 H 194.999 4.03775 2.88581 0
M  V30 2084 H 190.255 5.44681 2.77728 0
M  V30 2085 H 194.429 6.42901 2.67678 0
M  V30 2086 H 192.056 7.13712 2.61762 0
M  V30 2087 N 193.631 -1.12557 1.10312 0
M  V30 2088 C 194.578 -2.18247 0.750781 0
M  V30 2089 C 195.548 -1.63853 -0.272293 0
M  V30 2090 O 196.733 -1.90195 -0.151862 0
M  V30 2091 C 193.873 -3.44591 0.187379 0
M  V30 2092 C 192.986 -4.13046 1.2656 0
M  V30 2093 C 192.121 -5.27034 0.663978 0
M  V30 2094 C 191.16 -5.87353 1.72287 0
M  V30 2095 N 190.297 -6.92757 1.1416 0
M  V30 2096 H 195.137 -2.47732 1.65628 0
M  V30 2097 H 192.674 -1.21629 0.827337 0
M  V30 2098 H 194.632 -4.16904 -0.157148 0
M  V30 2099 H 193.262 -3.15527 -0.681355 0
M  V30 2100 H 192.314 -3.38924 1.72727 0
M  V30 2101 H 193.626 -4.53947 2.06721 0
M  V30 2102 H 192.78 -6.06104 0.268824 0
M  V30 2103 H 191.519 -4.87407 -0.169082 0
M  V30 2104 H 190.524 -5.06971 2.12746 0
M  V30 2105 H 191.749 -6.29051 2.55875 0
M  V30 2106 H 189.695 -6.5517 0.329984 0
M  V30 2107 H 189.612 -7.3225 1.88007 0
M  V30 2108 H 190.88 -7.75658 0.772956 0
M  V30 2109 N 195.109 -0.891671 -1.2995 0
M  V30 2110 C 196.337 -0.52866 -2.00032 0
M  V30 2111 C 196.752 0.884574 -1.66795 0
M  V30 2112 O 196.109 1.5827 -0.908669 0
M  V30 2113 C 196.16 -0.701814 -3.54622 0
M  V30 2114 O 195.881 -2.05942 -3.86678 0
M  V30 2115 C 197.382 -0.342683 -4.41973 0
M  V30 2116 H 194.602 -0.203659 -0.639347 0
M  V30 2117 H 197.146 -1.19881 -1.65677 0
M  V30 2118 H 195.301 -0.0789468 -3.8732 0
M  V30 2119 H 195.715 -2.08291 -4.81368 0
M  V30 2120 H 197.189 -0.514709 -5.49595 0
M  V30 2121 H 197.666 0.71975 -4.33262 0
M  V30 2122 H 198.272 -0.942154 -4.14733 0
M  V30 2123 N 196.587 1.43421 -0.653314 0
M  V30 2124 C 197.537 2.2792 0.060558 0
M  V30 2125 C 198.521 1.39906 0.794677 0
M  V30 2126 O 199.713 1.63536 0.677128 0
M  V30 2127 C 196.842 3.27603 1.0262 0
M  V30 2128 C 195.928 4.23104 0.290551 0
M  V30 2129 N 196.319 5.01031 -0.692967 0
M  V30 2130 C 194.617 4.42816 0.531984 0
M  V30 2131 C 195.318 5.70626 -1.12963 0
M  V30 2132 N 194.294 5.41617 -0.463867 0
M  V30 2133 H 198.096 2.85585 -0.694143 0
M  V30 2134 H 195.61 1.55126 -0.480602 0
M  V30 2135 H 197.607 3.86918 1.55242 0
M  V30 2136 H 196.267 2.71499 1.78096 0
M  V30 2137 H 197.278 5.0669 -1.07169 0
M  V30 2138 H 193.955 3.97782 1.26791 0
M  V30 2139 H 195.345 6.4318 -1.94343 0
M  V30 2140 N 198.065 0.39524 1.52563 0
M  V30 2141 C 199.476 -0.0774719 1.86539 0
M  V30 2142 C 199.827 -1.45641 1.31466 0
M  V30 2143 O 198.952 -2.06459 0.648367 0
M  V30 2144 C 199.547 -0.147356 3.38479 0
M  V30 2145 C 198.106 -0.564373 3.72145 0
M  V30 2146 C 197.253 0.269919 2.75983 0
M  V30 2147 H 200.204 0.612876 1.46388 0
M  V30 2148 H 200.225 -0.965343 3.68051 0
M  V30 2149 H 199.737 0.856387 3.78534 0
M  V30 2150 H 197.838 -1.57527 3.37663 0
M  V30 2151 H 197.951 -0.318402 4.78041 0
M  V30 2152 H 196.315 -0.265696 2.5331 0
M  V30 2153 H 197.098 1.27175 3.18875 0
M  V30 2154 N 199.544 -1.57102 0.125237 0
M  V30 2155 C 200.454 -2.19191 -0.8362 0
M  V30 2156 C 201.47 -1.16985 -1.28805 0
M  V30 2157 O 202.646 -1.49479 -1.34974 0
M  V30 2158 C 199.711 -2.78407 -2.06617 0
M  V30 2159 C 198.772 -3.9567 -1.66565 0
M  V30 2160 C 198.005 -4.52052 -2.83698 0
M  V30 2161 O 198.228 -4.07326 -3.99302 0
M  V30 2162 O 197.162 -5.42645 -2.60423 0
M  V30 2163 H 200.988 -3.01816 -0.337776 0
M  V30 2164 H 198.573 -1.4906 -0.100695 0
M  V30 2165 H 200.455 -3.16129 -2.7864 0
M  V30 2166 H 199.13 -1.9881 -2.55453 0
M  V30 2167 H 198.037 -3.62705 -0.916296 0
M  V30 2168 H 199.37 -4.76722 -1.22464 0
M  V30 2169 N 201.022 0.148545 -1.56898 0
M  V30 2170 C 202.268 0.862694 -1.83536 0
M  V30 2171 C 202.601 1.80889 -0.706604 0
M  V30 2172 O 201.876 1.92328 0.289885 0
M  V30 2173 C 202.159 1.63853 -3.20662 0
M  V30 2174 C 202.012 0.713925 -4.44098 0
M  V30 2175 C 203.331 2.60133 -3.54991 0
M  V30 2176 H 200.45 0.312179 -0.667618 0
M  V30 2177 H 203.092 0.127953 -1.89569 0
M  V30 2178 H 201.242 2.26489 -3.1565 0
M  V30 2179 H 202.914 0.098686 -4.61194 0
M  V30 2180 H 201.157 0.0234019 -4.33794 0
M  V30 2181 H 201.828 1.29278 -5.36648 0
M  V30 2182 H 204.304 2.07616 -3.60603 0
M  V30 2183 H 203.18 3.11468 -4.51972 0
M  V30 2184 H 203.441 3.41417 -2.80868 0
M  V30 2185 N 202.5 1.5196 0.417844 0
M  V30 2186 C 203.432 1.70895 1.52733 0
M  V30 2187 C 204.445 0.589405 1.51756 0
M  V30 2188 O 205.634 0.864312 1.56179 0
M  V30 2189 C 202.734 1.72627 2.91639 0
M  V30 2190 C 201.907 3.01479 3.16905 0
M  V30 2191 C 200.966 2.95139 4.35637 0
M  V30 2192 O 199.992 3.69059 4.3334 0
M  V30 2193 N 201.194 2.12328 5.40275 0
M  V30 2194 H 203.959 2.66612 1.36888 0
M  V30 2195 H 201.52 1.50089 0.607037 0
M  V30 2196 H 203.512 1.65928 3.6912 0
M  V30 2197 H 202.082 0.844216 3.00985 0
M  V30 2198 H 201.302 3.21895 2.27546 0
M  V30 2199 H 202.59 3.86736 3.30625 0
M  V30 2200 H 201.988 1.51685 5.44985 0
M  V30 2201 H 200.545 2.11494 6.16534 0
M  V30 2202 N 203.978 -0.674533 1.42435 0
M  V30 2203 C 205.394 -0.98769 1.25367 0
M  V30 2204 C 205.594 -2.00879 0.158044 0
M  V30 2205 O 204.65 -2.48075 -0.470633 0
M  V30 2206 C 205.963 -1.49224 2.6106 0
M  V30 2207 C 207.511 -1.61 2.68417 0
M  V30 2208 C 207.986 -2.14852 4.04478 0
M  V30 2209 N 209.477 -2.22185 4.06434 0
M  V30 2210 C 210.212 -2.64928 5.08528 0
M  V30 2211 N 209.708 -3.07121 6.21006 0
M  V30 2212 N 211.501 -2.64679 4.95885 0
M  V30 2213 H 203.652 0.00152503 2.124 0
M  V30 2214 H 205.915 -0.0618434 0.945981 0
M  V30 2215 H 205.621 -0.816453 3.42092 0
M  V30 2216 H 205.495 -2.47094 2.84999 0
M  V30 2217 H 207.882 -2.27686 1.87732 0
M  V30 2218 H 207.963 -0.616195 2.48267 0
M  V30 2219 H 207.607 -1.48775 4.85622 0
M  V30 2220 H 207.537 -3.15024 4.2198 0
M  V30 2221 H 210.028 -1.92435 3.25234 0
M  V30 2222 H 210.341 -3.38423 6.94759 0
M  V30 2223 H 208.686 -3.04978 6.24511 0
M  V30 2224 H 211.877 -2.31078 4.07088 0
M  V30 2225 H 212.05 -2.9767 5.75584 0
M  V30 2226 N 205.456 -1.28612 -0.910864 0
M  V30 2227 C 206.419 -1.12803 -1.9952 0
M  V30 2228 C 207.419 -0.0668264 -1.60661 0
M  V30 2229 O 208.609 -0.312847 -1.71368 0
M  V30 2230 C 205.741 -0.72254 -3.33155 0
M  V30 2231 H 206.934 -2.09109 -2.14973 0
M  V30 2232 H 204.487 -1.11639 -1.09391 0
M  V30 2233 H 205.222 0.241152 -3.23402 0
M  V30 2234 H 205.007 -1.48916 -3.62721 0
M  V30 2235 H 206.497 -0.634666 -4.12749 0
M  V30 2236 N 206.934 1.1197 -1.10907 0
M  V30 2237 C 208.183 1.82947 -0.849302 0
M  V30 2238 C 208.496 1.85275 0.627112 0
M  V30 2239 O 209.702 2.52296 1.00295 0
M  V30 2240 C 208.158 3.28529 -1.46959 0
M  V30 2241 C 207.766 3.34546 -2.97965 0
M  V30 2242 C 209.51 4.04443 -1.28942 0
M  V30 2243 C 207.417 4.74491 -3.53004 0
M  V30 2244 H 206.347 0.685477 -0.314065 0
M  V30 2245 H 208.998 1.2604 -1.33365 0
M  V30 2246 H 207.38 3.85333 -0.912917 0
M  V30 2247 H 208.554 2.87654 -3.59989 0
M  V30 2248 H 206.869 2.72108 -3.15192 0
M  V30 2249 H 209.466 5.07787 -1.67502 0
M  V30 2250 H 209.809 4.15656 -0.231456 0
M  V30 2251 H 210.342 3.5401 -1.81443 0
M  V30 2252 H 207.081 4.68474 -4.58489 0
M  V30 2253 H 206.601 5.21816 -2.9575 0
M  V30 2254 H 208.28 5.4344 -3.51115 0
M  V30 2255 N 208.412 0.89855 1.29475 0
M  V30 2256 C 209.64 0.539261 1.99749 0
M  V30 2257 C 210.055 -0.875716 1.67262 0
M  V30 2258 O 209.412 -1.57786 0.917049 0
M  V30 2259 C 209.463 0.72061 3.54245 0
M  V30 2260 O 209.184 2.07989 3.8558 0
M  V30 2261 C 210.685 0.366118 4.41786 0
M  V30 2262 H 207.905 0.207047 0.638258 0
M  V30 2263 H 210.449 1.20758 1.65039 0
M  V30 2264 H 208.604 0.0994862 3.87272 0
M  V30 2265 H 209.018 2.10841 4.80257 0
M  V30 2266 H 210.492 0.543848 5.49314 0
M  V30 2267 H 210.969 -0.696763 4.33638 0
M  V30 2268 H 211.575 0.964135 4.14228 0
M  V30 2269 N 209.89 -1.43072 0.660911 0
M  V30 2270 C 210.853 -2.29194 -0.0166406 0
M  V30 2271 C 211.853 -1.42609 -0.742912 0
M  V30 2272 O 213.043 -1.64155 -0.583004 0
M  V30 2273 C 210.175 -3.24831 -1.0343 0
M  V30 2274 H 211.368 -2.90596 0.741208 0
M  V30 2275 H 208.921 -1.5048 0.422532 0
M  V30 2276 H 209.656 -2.68339 -1.82111 0
M  V30 2277 H 209.441 -3.88676 -0.517082 0
M  V30 2278 H 210.931 -3.89451 -1.50723 0
M  V30 2279 N 211.368 -0.403325 -1.52352 0
M  V30 2280 C 212.779 0.0675782 -1.86578 0
M  V30 2281 C 213.13 1.44941 -1.32236 0
M  V30 2282 O 212.255 2.06112 -0.659307 0
M  V30 2283 C 212.85 0.129404 -3.38553 0
M  V30 2284 C 211.409 0.544629 -3.72439 0
M  V30 2285 C 210.556 -0.284551 -2.75836 0
M  V30 2286 H 213.507 -0.620631 -1.46061 0
M  V30 2287 H 213.528 0.94581 -3.68558 0
M  V30 2288 H 213.04 -0.87645 -3.78074 0
M  V30 2289 H 211.141 1.55734 -3.38493 0
M  V30 2290 H 211.254 0.293046 -4.78203 0
M  V30 2291 H 209.618 0.252258 -2.53448 0
M  V30 2292 H 210.401 -1.28865 -3.18196 0
M  V30 2293 N 212.846 1.57033 -0.133567 0
M  V30 2294 C 214.123 1.87256 0.56522 0
M  V30 2295 C 214.503 1.03726 1.83859 0
M  V30 2296 O 213.851 0.120247 2.28183 0
M  V30 2297 C 214.061 3.3865 0.843636 0
M  V30 2298 C 215.409 4.07574 1.19032 0
M  V30 2299 O 216.433 3.43752 0.933429 0
M  V30 2300 O 215.292 5.20259 1.67312 0
M  V30 2301 H 212.386 0.775678 0.286796 0
M  V30 2302 H 214.932 1.68855 -0.169168 0
M  V30 2303 H 213.704 3.91257 -0.0581149 0
M  V30 2304 H 213.327 3.62532 1.63268 0
M  V30 2305 N 214.325 -0.140222 1.56975 0
M  V30 2306 C 215.573 -0.850005 1.83356 0
M  V30 2307 C 215.894 -1.81399 0.71551 0
M  V30 2308 O 215.164 -1.94136 -0.262294 0
M  V30 2309 H 213.744 -0.316886 0.676456 0
M  V30 2310 H 216.406 -0.132608 1.94448 0
M  V30 2311 H 215.502 -1.40814 2.78528 0
M  V30 2312 N 215.803 -1.52179 -0.40978 0
M  V30 2313 C 216.751 -1.76086 -1.51975 0
M  V30 2314 C 217.745 -0.627964 -1.57331 0
M  V30 2315 O 218.951 -0.809993 -1.60745 0
M  V30 2316 H 215.326 -0.556829 -0.505416 0
M  V30 2317 H 217.297 -2.69077 -1.28996 0
M  V30 2318 C 216.046 -1.92799 -2.8935 0
M  V30 2319 H 215.369 -2.79392 -2.85972 0
M  V30 2320 H 216.809 -2.13527 -3.66309 0
M  V30 2321 C 215.268 -0.694923 -3.29655 0
M  V30 2322 O 215.798 0.13751 -4.01465 0
M  V30 2323 N 214.004 -0.53101 -2.85707 0
M  V30 2324 H 213.551 -1.20952 -2.27439 0
M  V30 2325 H 213.509 0.292718 -3.13034 0
M  V30 2326 N 217.281 0.66697 -1.42791 0
M  V30 2327 C 218.53 1.42278 -1.42968 0
M  V30 2328 C 218.843 1.9553 -0.0524489 0
M  V30 2329 O 220.049 2.71414 0.068363 0
M  V30 2330 C 218.505 2.57418 -2.51524 0
M  V30 2331 C 218.113 2.10832 -3.9529 0
M  V30 2332 C 219.857 3.34878 -2.60877 0
M  V30 2333 C 217.764 3.23101 -4.95338 0
M  V30 2334 H 216.694 0.534533 -0.531781 0
M  V30 2335 H 219.345 0.721302 -1.68729 0
M  V30 2336 H 217.727 3.29971 -2.18941 0
M  V30 2337 H 218.901 1.4538 -4.37266 0
M  V30 2338 H 217.216 1.46289 -3.89857 0
M  V30 2339 H 219.813 4.18505 -3.32802 0
M  V30 2340 H 220.156 3.81993 -1.6549 0
M  V30 2341 H 220.689 2.69398 -2.92693 0
M  V30 2342 H 217.428 2.80969 -5.9223 0
M  V30 2343 H 216.948 3.87309 -4.57987 0
M  V30 2344 H 218.627 3.88447 -5.17415 0
M  V30 2345 N 218.759 1.29093 0.90403 0
M  V30 2346 C 219.989 1.19516 1.68522 0
M  V30 2347 C 220.397 -0.24738 1.87576 0
M  V30 2348 O 219.74 -1.17798 1.40959 0
M  V30 2349 C 219.802 1.83249 3.0929 0
M  V30 2350 C 219.466 3.32531 3.13484 0
M  V30 2351 C 220.463 4.28821 2.93953 0
M  V30 2352 C 218.148 3.73656 3.35688 0
M  V30 2353 C 220.142 5.64212 2.96553 0
M  V30 2354 C 217.829 5.0917 3.37919 0
M  V30 2355 C 218.827 6.04258 3.18373 0
M  V30 2356 O 218.515 7.37298 3.20385 0
M  V30 2357 H 218.247 0.415467 0.533257 0
M  V30 2358 H 220.801 1.70912 1.13922 0
M  V30 2359 H 219.031 1.26358 3.65473 0
M  V30 2360 H 220.72 1.68054 3.69476 0
M  V30 2361 H 221.486 3.98382 2.76616 0
M  V30 2362 H 217.365 3.00101 3.49943 0
M  V30 2363 H 220.909 6.38407 2.81216 0
M  V30 2364 H 216.806 5.39256 3.54787 0
M  V30 2365 H 217.574 7.46048 3.36681 0
M  V30 2366 N 220.237 -1.11381 1.11499 0
M  V30 2367 C 221.467 -1.86663 0.885464 0
M  V30 2368 C 221.875 -1.80464 -0.568281 0
M  V30 2369 O 221.218 -1.18445 -1.40415 0
M  V30 2370 C 221.28 -3.36337 1.26956 0
M  V30 2371 C 220.944 -3.66304 2.73259 0
M  V30 2372 C 221.941 -3.63733 3.71476 0
M  V30 2373 C 219.626 -3.9529 3.09921 0
M  V30 2374 C 221.62 -3.89725 5.04374 0
M  V30 2375 C 219.307 -4.20941 4.43004 0
M  V30 2376 C 220.305 -4.18147 5.40039 0
M  V30 2377 O 219.993 -4.43153 6.70724 0
M  V30 2378 H 219.725 -0.597114 0.316908 0
M  V30 2379 H 222.279 -1.41782 1.48617 0
M  V30 2380 H 220.509 -3.81826 0.611999 0
M  V30 2381 H 222.198 -3.92986 1.01573 0
M  V30 2382 H 222.964 -3.41389 3.44498 0
M  V30 2383 H 218.843 -3.966 2.35009 0
M  V30 2384 H 222.387 -3.8746 5.80104 0
M  V30 2385 H 218.284 -4.42761 4.69716 0
M  V30 2386 H 219.052 -4.60717 6.76522 0
M  V30 2387 N 221.715 -0.905404 -1.28997 0
M  V30 2388 C 222.645 -0.404212 -2.29975 0
M  V30 2389 C 223.626 0.523784 -1.61835 0
M  V30 2390 O 224.811 0.433298 -1.89304 0
M  V30 2391 C 221.941 0.364042 -3.45387 0
M  V30 2392 C 220.895 -0.474048 -4.25367 0
M  V30 2393 C 220.221 0.422045 -5.33032 0
M  V30 2394 C 221.521 -1.72696 -4.92923 0
M  V30 2395 H 223.215 -1.24807 -2.72146 0
M  V30 2396 H 220.761 -0.601585 -1.30832 0
M  V30 2397 H 222.714 0.725447 -4.15109 0
M  V30 2398 H 221.438 1.24174 -3.02074 0
M  V30 2399 H 220.097 -0.81786 -3.57361 0
M  V30 2400 H 219.745 1.29804 -4.85963 0
M  V30 2401 H 219.445 -0.135057 -5.87445 0
M  V30 2402 H 220.969 0.779517 -6.05604 0
M  V30 2403 H 222.383 -1.43495 -5.55051 0
M  V30 2404 H 220.78 -2.22582 -5.57295 0
M  V30 2405 H 221.85 -2.45964 -4.17887 0
M  V30 2406 N 223.193 1.4272 -0.668489 0
M  V30 2407 C 224.604 1.84793 -0.266151 0
M  V30 2408 C 224.955 1.55959 1.19043 0
M  V30 2409 O 224.08 1.01622 1.91055 0
M  V30 2410 C 224.675 3.35436 -0.476271 0
M  V30 2411 C 223.234 3.76182 -0.128113 0
M  V30 2412 C 222.381 2.66344 -0.771777 0
M  V30 2413 H 225.332 1.32656 -0.871098 0
M  V30 2414 H 225.353 3.79515 0.273561 0
M  V30 2415 H 224.865 3.5639 -1.53647 0
M  V30 2416 H 222.966 3.60836 0.928891 0
M  V30 2417 H 223.079 4.75766 -0.564231 0
M  V30 2418 H 221.443 2.53885 -0.203652 0
M  V30 2419 H 222.226 2.90123 -1.83531 0
M  V30 2420 N 224.671 0.411399 1.52136 0
M  V30 2421 C 225.901 -0.16284 2.05957 0
M  V30 2422 C 226.309 -1.3922 1.28119 0
M  V30 2423 O 225.652 -1.80768 0.326881 0
M  V30 2424 C 225.714 -0.575946 3.54856 0
M  V30 2425 C 225.378 0.542998 4.53763 0
M  V30 2426 C 226.375 1.40726 5.00492 0
M  V30 2427 C 224.06 0.716337 4.97166 0
M  V30 2428 C 226.054 2.4298 5.8927 0
M  V30 2429 C 223.741 1.74218 5.8574 0
M  V30 2430 C 224.739 2.59731 6.31687 0
M  V30 2431 O 224.427 3.60558 7.18507 0
M  V30 2432 H 224.159 -0.0229125 0.675612 0
M  V30 2433 H 226.713 0.581634 1.96993 0
M  V30 2434 H 224.943 -1.37274 3.61515 0
M  V30 2435 H 226.632 -1.07836 3.91313 0
M  V30 2436 H 227.398 1.28476 4.67674 0
M  V30 2437 H 223.277 0.0603857 4.6096 0
M  V30 2438 H 226.821 3.0976 6.25055 0
M  V30 2439 H 222.718 1.86498 6.17971 0
M  V30 2440 H 223.486 3.56829 7.36624 0
M  V30 2441 N 226.149 -1.5696 0.141893 0
M  V30 2442 C 227.395 -1.9625 -0.511248 0
M  V30 2443 C 227.728 -1.02654 -1.64851 0
M  V30 2444 O 227.003 -0.0679676 -1.94381 0
M  V30 2445 C 227.286 -3.45285 -1.02227 0
M  V30 2446 C 227.139 -4.49658 0.113138 0
M  V30 2447 C 228.458 -3.96698 -1.90574 0
M  V30 2448 H 225.577 -0.713567 -0.184367 0
M  V30 2449 H 228.219 -1.88698 0.222087 0
M  V30 2450 H 226.369 -3.51852 -1.64719 0
M  V30 2451 H 228.041 -4.55174 0.749302 0
M  V30 2452 H 226.284 -4.26857 0.773026 0
M  V30 2453 H 226.955 -5.51258 -0.286053 0
M  V30 2454 H 229.431 -3.92578 -1.37918 0
M  V30 2455 H 228.307 -5.01453 -2.2324 0
M  V30 2456 H 228.568 -3.3875 -2.84079 0
M  V30 2457 N 227.627 0.131896 -1.57047 0
M  V30 2458 C 229.038 0.690407 -1.73465 0
M  V30 2459 C 229.389 1.8094 -0.758629 0
M  V30 2460 O 228.514 2.16282 0.0713813 0
M  V30 2461 C 229.109 1.25916 -3.14532 0
M  V30 2462 C 227.668 1.76409 -3.32501 0
M  V30 2463 C 226.815 0.658579 -2.69366 0
M  V30 2464 H 229.766 -0.0939144 -1.58422 0
M  V30 2465 H 229.787 2.12892 -3.15369 0
M  V30 2466 H 229.299 0.444515 -3.85546 0
M  V30 2467 H 227.4 2.60391 -2.66509 0
M  V30 2468 H 227.513 1.88241 -4.4057 0
M  V30 2469 H 225.877 1.08899 -2.30246 0
M  V30 2470 H 226.66 -0.14487 -3.42994 0
M  V30 2471 N 229.106 1.52395 0.401703 0
M  V30 2472 C 230.383 1.57387 1.16141 0
M  V30 2473 C 230.763 0.359359 2.08019 0
M  V30 2474 O 230.111 -0.65326 2.18963 0
M  V30 2475 C 230.321 2.90631 1.93221 0
M  V30 2476 C 231.669 3.43904 2.49028 0
M  V30 2477 O 232.693 2.92421 2.03393 0
M  V30 2478 O 231.552 4.33823 3.32356 0
M  V30 2479 H 228.646 0.634262 0.530698 0
M  V30 2480 H 231.192 1.64725 0.407883 0
M  V30 2481 H 229.964 3.70473 1.25958 0
M  V30 2482 H 229.587 2.8662 2.75563 0
M  V30 2483 N 230.584 -0.659388 1.43143 0
M  V30 2484 C 231.832 -1.41654 1.44147 0
M  V30 2485 C 232.153 -1.94893 0.0645739 0
M  V30 2486 O 231.423 -1.74044 -0.899198 0
M  V30 2487 H 230.003 -0.525708 0.530697 0
M  V30 2488 H 232.665 -0.778097 1.78694 0
M  V30 2489 H 231.761 -2.26195 2.1504 0
M  V30 2490 N 232.062 -1.29571 -0.897171 0
M  V30 2491 C 232.992 -1.17473 -2.01798 0
M  V30 2492 C 233.973 -0.068323 -1.69963 0
M  V30 2493 O 235.158 -0.248239 -1.92607 0
M  V30 2494 C 232.288 -0.853099 -3.36659 0
M  V30 2495 C 231.242 -1.9161 -3.82713 0
M  V30 2496 C 230.568 -1.44773 -5.14728 0
M  V30 2497 C 231.868 -3.32535 -4.02763 0
M  V30 2498 H 233.562 -2.11237 -2.12177 0
M  V30 2499 H 231.108 -1.01699 -1.01948 0
M  V30 2500 H 233.061 -0.755165 -4.14578 0
M  V30 2501 H 231.785 0.120236 -3.26379 0
M  V30 2502 H 230.444 -2.00346 -3.07013 0
M  V30 2503 H 230.092 -0.462995 -5.00865 0
M  V30 2504 H 229.792 -2.15865 -5.46513 0
M  V30 2505 H 231.316 -1.36334 -5.95185 0
M  V30 2506 H 232.73 -3.26626 -4.71156 0
M  V30 2507 H 231.127 -4.01607 -4.45905 0
M  V30 2508 H 232.197 -3.75326 -3.07016 0
M  V30 2509 N 233.54 1.10788 -1.12088 0
M  V30 2510 C 234.786 1.82942 -0.875226 0
M  V30 2511 C 235.119 1.84779 0.597538 0
M  V30 2512 O 234.394 1.30578 1.44152 0
M  V30 2513 C 234.677 3.29789 -1.44606 0
M  V30 2514 C 234.53 3.36307 -2.98693 0
M  V30 2515 C 235.849 4.26064 -1.10261 0
M  V30 2516 H 232.968 0.664195 -0.319397 0
M  V30 2517 H 235.61 1.29867 -1.38689 0
M  V30 2518 H 233.76 3.75118 -1.01089 0
M  V30 2519 H 235.432 2.99487 -3.50864 0
M  V30 2520 H 233.675 2.76318 -3.34411 0
M  V30 2521 H 234.346 4.39694 -3.33726 0
M  V30 2522 H 236.822 3.88951 -1.4784 0
M  V30 2523 H 235.698 5.27183 -1.52869 0
M  V30 2524 H 235.959 4.42098 -0.0142953 0
M  V30 2525 N 235.018 0.912232 1.28515 0
M  V30 2526 C 236.243 0.559774 1.99703 0
M  V30 2527 C 236.668 -0.851393 1.67729 0
M  V30 2528 O 236.026 -1.56875 0.908834 0
M  V30 2529 C 236.074 0.773874 3.52198 0
M  V30 2530 O 235.178 -0.167842 4.12058 0
M  V30 2531 H 234.519 0.21723 0.627461 0
M  V30 2532 H 237.049 1.22725 1.63706 0
M  V30 2533 H 237.059 0.683386 4.02236 0
M  V30 2534 H 235.734 1.80261 3.74805 0
M  V30 2535 H 234.311 -0.0287509 3.72889 0
M  V30 2536 N 236.496 -1.42363 0.676048 0
M  V30 2537 C 237.912 -1.55811 0.345718 0
M  V30 2538 C 238.112 -1.65544 -1.14879 0
M  V30 2539 O 237.168 -1.62306 -1.93424 0
M  V30 2540 C 238.481 -2.80746 1.07713 0
M  V30 2541 C 240.029 -2.9452 1.05958 0
M  V30 2542 C 240.504 -4.22318 1.77233 0
M  V30 2543 N 241.995 -4.29233 1.74108 0
M  V30 2544 C 242.73 -5.26935 2.26113 0
M  V30 2545 N 242.226 -6.30783 2.86505 0
M  V30 2546 N 244.019 -5.18741 2.1648 0
M  V30 2547 H 236.17 -1.34289 1.6456 0
M  V30 2548 H 238.433 -0.646506 0.69335 0
M  V30 2549 H 238.139 -2.79696 2.13221 0
M  V30 2550 H 238.013 -3.71676 0.64316 0
M  V30 2551 H 240.4 -2.95097 0.0128255 0
M  V30 2552 H 240.481 -2.04817 1.53244 0
M  V30 2553 H 240.125 -4.22502 2.81877 0
M  V30 2554 H 240.055 -5.10958 1.27396 0
M  V30 2555 H 242.546 -3.54814 1.30059 0
M  V30 2556 H 242.859 -7.01691 3.23805 0
M  V30 2557 H 241.204 -6.31341 2.90575 0
M  V30 2558 H 244.395 -4.36533 1.68987 0
M  V30 2559 H 244.568 -5.94721 2.57316 0
M  V30 2560 N 237.974 -0.419461 -1.51915 0
M  V30 2561 C 239.222 0.152637 -2.01523 0
M  V30 2562 C 239.543 1.44762 -1.30649 0
M  V30 2563 O 238.813 1.90997 -0.435535 0
M  V30 2564 H 237.393 0.0593966 -0.744635 0
M  V30 2565 H 240.055 -0.558073 -1.86739 0
M  V30 2566 H 239.151 0.341369 -3.10227 0
M  V30 2567 N 239.452 1.56882 -0.150215 0
M  V30 2568 C 240.682 2.00302 0.506213 0
M  V30 2569 C 241.09 1.02934 1.58749 0
M  V30 2570 O 240.433 0.0188384 1.8369 0
M  V30 2571 C 240.495 3.40156 1.16337 0
M  V30 2572 C 240.159 4.56439 0.226311 0
M  V30 2573 C 241.156 5.17012 -0.547265 0
M  V30 2574 C 238.841 5.02136 0.128279 0
M  V30 2575 C 240.835 6.21693 -1.40629 0
M  V30 2576 C 238.522 6.06672 -0.734345 0
M  V30 2577 C 239.52 6.6632 -1.50023 0
M  V30 2578 O 239.208 7.68831 -2.34848 0
M  V30 2579 H 238.94 0.662182 0.135984 0
M  V30 2580 H 241.494 2.03961 -0.242746 0
M  V30 2581 H 239.724 3.33346 1.96004 0
M  V30 2582 H 241.413 3.67663 1.71985 0
M  V30 2583 H 242.179 4.82603 -0.48158 0
M  V30 2584 H 238.058 4.55435 0.714157 0
M  V30 2585 H 241.602 6.68179 -2.00455 0
M  V30 2586 H 237.499 6.40507 -0.801309 0
M  V30 2587 H 238.267 7.86065 -2.28131 0
M  V30 2588 N 240.93 -0.123565 1.57115 0
M  V30 2589 C 242.177 -0.832153 1.84612 0
M  V30 2590 C 242.505 -1.80093 0.734627 0
M  V30 2591 O 241.76 -1.93766 -0.27442 0
M  V30 2592 C 242.059 -1.62016 3.18568 0
M  V30 2593 C 241.725 -0.796084 4.43817 0
M  V30 2594 C 240.387 -0.568816 4.77826 0
M  V30 2595 C 242.739 -0.221364 5.2073 0
M  V30 2596 C 240.067 0.243499 5.86194 0
M  V30 2597 C 242.419 0.578117 6.29953 0
M  V30 2598 C 241.083 0.815744 6.62497 0
M  V30 2599 H 240.353 -0.304507 0.675542 0
M  V30 2600 H 243 -0.0947248 1.91266 0
M  V30 2601 H 241.305 -2.42837 3.0747 0
M  V30 2602 H 243.002 -2.17231 3.37064 0
M  V30 2603 H 239.592 -0.983307 4.17168 0
M  V30 2604 H 243.776 -0.384173 4.94811 0
M  V30 2605 H 239.032 0.436871 6.09837 0
M  V30 2606 H 243.206 1.03046 6.88734 0
M  V30 2607 H 240.833 1.44701 7.46301 0
M  V30 2608 N 242.408 -1.52605 -0.393616 0
M  V30 2609 C 243.657 -1.66649 -1.13627 0
M  V30 2610 C 243.97 -0.410364 -1.91247 0
M  V30 2611 O 245.176 -0.430854 -2.68059 0
M  V30 2612 C 243.632 -2.9449 -2.06891 0
M  V30 2613 C 243.24 -4.27266 -1.34714 0
M  V30 2614 C 244.984 -3.17899 -2.81319 0
M  V30 2615 C 242.891 -5.46217 -2.26717 0
M  V30 2616 H 241.821 -0.62084 -0.427871 0
M  V30 2617 H 244.472 -1.791 -0.399428 0
M  V30 2618 H 242.854 -2.75774 -2.84191 0
M  V30 2619 H 244.028 -4.56518 -0.626714 0
M  V30 2620 H 242.343 -4.10081 -0.722643 0
M  V30 2621 H 244.94 -4.03949 -3.50328 0
M  V30 2622 H 245.283 -2.32777 -3.45139 0
M  V30 2623 H 245.816 -3.37159 -2.11113 0
M  V30 2624 H 242.555 -6.33733 -1.67521 0
M  V30 2625 H 242.075 -5.21283 -2.96689 0
M  V30 2626 H 243.754 -5.7991 -2.86903 0
M  V30 2627 N 243.887 0.651787 -1.4349 0
M  V30 2628 C 245.303 0.96762 -1.26922 0
M  V30 2629 C 245.503 2.00602 -0.189982 0
M  V30 2630 O 244.559 2.48793 0.431107 0
M  V30 2631 C 245.872 1.45052 -2.63401 0
M  V30 2632 C 247.42 1.5671 -2.70945 0
M  V30 2633 C 247.895 2.0839 -4.07845 0
M  V30 2634 N 249.386 2.1569 -4.09917 0
M  V30 2635 C 250.121 2.56804 -5.12679 0
M  V30 2636 N 249.617 2.97203 -6.25813 0
M  V30 2637 N 251.41 2.56756 -5.00033 0
M  V30 2638 H 243.561 -0.0353158 -2.12371 0
M  V30 2639 H 245.824 0.0467858 -0.946845 0
M  V30 2640 H 245.53 0.761926 -3.43348 0
M  V30 2641 H 245.404 2.42529 -2.88894 0
M  V30 2642 H 247.791 2.2467 -1.9133 0
M  V30 2643 H 247.872 0.57662 -2.49216 0
M  V30 2644 H 247.516 1.41031 -4.87927 0
M  V30 2645 H 247.446 3.08271 -4.26938 0
M  V30 2646 H 249.937 1.87237 -3.28254 0
M  V30 2647 H 250.25 3.27328 -7.00055 0
M  V30 2648 H 248.595 2.95004 -6.29283 0
M  V30 2649 H 251.786 2.24572 -4.10713 0
M  V30 2650 H 251.959 2.88475 -5.80247 0
M  V30 2651 N 245.365 1.30045 0.890287 0
M  V30 2652 C 246.297 1.11786 2.00091 0
M  V30 2653 C 247.31 0.0626307 1.62679 0
M  V30 2654 O 248.499 0.308112 1.75821 0
M  V30 2655 C 245.599 0.681527 3.31977 0
M  V30 2656 C 244.772 1.81735 3.97858 0
M  V30 2657 C 243.831 1.37045 5.08041 0
M  V30 2658 O 242.857 2.07677 5.29961 0
M  V30 2659 N 244.059 0.246525 5.79976 0
M  V30 2660 H 246.824 2.07441 2.16306 0
M  V30 2661 H 244.385 1.2211 1.06305 0
M  V30 2662 H 246.377 0.365675 4.03045 0
M  V30 2663 H 244.947 -0.182828 3.12065 0
M  V30 2664 H 244.167 2.30159 3.20032 0
M  V30 2665 H 245.455 2.57865 4.38615 0
M  V30 2666 H 244.853 -0.34215 5.64664 0
M  V30 2667 H 243.41 -0.00990438 6.51799 0
M  V30 2668 N 246.843 -1.10192 1.12674 0
M  V30 2669 C 248.12 -1.78717 0.794965 0
M  V30 2670 C 248.5 -1.98628 -0.714853 0
M  V30 2671 O 247.848 -1.58135 -1.64941 0
M  V30 2672 C 248.058 -3.11546 1.5729 0
M  V30 2673 C 249.406 -3.86382 1.76052 0
M  V30 2674 O 250.43 -3.21274 1.53823 0
M  V30 2675 O 249.289 -5.03246 2.13087 0
M  V30 2676 H 246.383 -0.774702 0.289423 0
M  V30 2677 H 248.929 -1.16819 1.23091 0
M  V30 2678 H 247.701 -2.92489 2.59935 0
M  V30 2679 H 247.324 -3.81164 1.13137 0
M  V30 2680 N 248.321 -0.919034 -1.28029 0
M  V30 2681 C 249.567 -0.565221 -1.95389 0
M  V30 2682 C 249.922 0.882325 -1.70976 0
M  V30 2683 O 249.215 1.61988 -1.02325 0
M  V30 2684 C 249.409 -0.816855 -3.4794 0
M  V30 2685 C 249.238 -2.28731 -3.87185 0
M  V30 2686 C 248.008 -2.93841 -4.11079 0
M  V30 2687 C 250.206 -3.26415 -3.97439 0
M  V30 2688 N 248.188 -4.31129 -4.37037 0
M  V30 2689 C 249.559 -4.48884 -4.27672 0
M  V30 2690 C 251.614 -3.21742 -3.79982 0
M  V30 2691 C 250.317 -5.67268 -4.42266 0
M  V30 2692 C 252.343 -4.39431 -3.95796 0
M  V30 2693 C 251.705 -5.60675 -4.26407 0
M  V30 2694 H 247.804 -0.256797 -0.738633 0
M  V30 2695 H 250.388 -1.18386 -1.54573 0
M  V30 2696 H 248.559 -0.227445 -3.87733 0
M  V30 2697 H 250.291 -0.426542 -4.02446 0
M  V30 2698 H 247.046 -2.44547 -4.05578 0
M  V30 2699 H 247.47 -5.02127 -4.5409 0
M  V30 2700 H 252.112 -2.29079 -3.55363 0
M  V30 2701 H 249.83 -6.60406 -4.65714 0
M  V30 2702 H 253.416 -4.37323 -3.83719 0
M  V30 2703 H 252.296 -6.50223 -4.38383 0
M  V30 2704 N 249.799 1.42003 -0.683588 0
M  V30 2705 C 250.729 2.33487 -0.024866 0
M  V30 2706 C 251.71 1.51163 0.779975 0
M  V30 2707 O 252.895 1.79739 0.735362 0
M  V30 2708 C 250.025 3.3487 0.920836 0
M  V30 2709 C 248.979 4.27414 0.223958 0
M  V30 2710 C 248.305 5.19074 1.2832 0
M  V30 2711 C 249.605 5.14445 -0.90242 0
M  V30 2712 H 251.299 2.88819 -0.788921 0
M  V30 2713 H 248.845 1.38873 -0.38083 0
M  V30 2714 H 250.798 3.97787 1.39081 0
M  V30 2715 H 249.522 2.77861 1.71642 0
M  V30 2716 H 248.181 3.65904 -0.225864 0
M  V30 2717 H 247.829 4.58387 2.071 0
M  V30 2718 H 247.529 5.81822 0.821995 0
M  V30 2719 H 249.053 5.84867 1.75392 0
M  V30 2720 H 250.467 5.70998 -0.513272 0
M  V30 2721 H 248.864 5.86072 -1.28997 0
M  V30 2722 H 249.934 4.52322 -1.74737 0
M  V30 2723 N 251.277 0.427512 1.51691 0
M  V30 2724 C 252.554 -0.201684 1.94557 0
M  V30 2725 C 252.934 -1.60981 1.36559 0
M  V30 2726 O 252.282 -2.21814 0.548702 0
M  V30 2727 C 252.492 -0.189394 3.48486 0
M  V30 2728 C 253.84 -0.39978 4.22714 0
M  V30 2729 O 254.864 -0.267945 3.55191 0
M  V30 2730 O 253.723 -0.661249 5.42485 0
M  V30 2731 H 250.817 -0.135261 0.815864 0
M  V30 2732 H 253.363 0.484782 1.62628 0
M  V30 2733 H 252.135 0.795431 3.8313 0
M  V30 2734 H 251.758 -0.919187 3.86829 0
M  V30 2735 N 252.755 -1.56801 0.158532 0
M  V30 2736 C 253.702 -2.17337 -0.776729 0
M  V30 2737 C 254.672 -1.1096 -1.23601 0
M  V30 2738 O 255.857 -1.39054 -1.30647 0
M  V30 2739 C 252.997 -2.80822 -2.00582 0
M  V30 2740 C 252.11 -4.01624 -1.59129 0
M  V30 2741 C 251.245 -4.53072 -2.77306 0
M  V30 2742 C 250.284 -5.66314 -2.32282 0
M  V30 2743 N 249.421 -6.12329 -3.43508 0
M  V30 2744 H 254.261 -2.96918 -0.253701 0
M  V30 2745 H 251.798 -1.46661 -0.113504 0
M  V30 2746 H 253.756 -3.15779 -2.72652 0
M  V30 2747 H 252.386 -2.03866 -2.50277 0
M  V30 2748 H 251.438 -3.72571 -0.767806 0
M  V30 2749 H 252.75 -4.83633 -1.2207 0
M  V30 2750 H 251.904 -4.90145 -3.57551 0
M  V30 2751 H 250.643 -3.70095 -3.17617 0
M  V30 2752 H 249.648 -5.28806 -1.5048 0
M  V30 2753 H 250.873 -6.51085 -1.93043 0
M  V30 2754 H 248.819 -5.32284 -3.83418 0
M  V30 2755 H 248.736 -6.89293 -3.105 0
M  V30 2756 H 250.004 -6.5405 -4.24075 0
M  V30 2757 N 254.233 0.115231 -1.57178 0
M  V30 2758 C 255.163 1.1423 -2.03651 0
M  V30 2759 C 256.144 1.42967 -0.921655 0
M  V30 2760 O 257.329 1.53343 -1.19162 0
M  V30 2761 C 254.459 2.4675 -2.44401 0
M  V30 2762 C 253.413 2.32467 -3.59365 0
M  V30 2763 C 252.739 3.69984 -3.86026 0
M  V30 2764 C 254.039 1.78203 -4.90959 0
M  V30 2765 H 255.733 0.755749 -2.89705 0
M  V30 2766 H 253.279 0.362093 -1.39373 0
M  V30 2767 H 255.232 3.18854 -2.75517 0
M  V30 2768 H 253.956 2.87302 -1.55322 0
M  V30 2769 H 252.615 1.62811 -3.28463 0
M  V30 2770 H 252.263 4.08028 -2.94147 0
M  V30 2771 H 251.963 3.61279 -4.63412 0
M  V30 2772 H 253.487 4.43587 -4.19599 0
M  V30 2773 H 254.901 2.40128 -5.20587 0
M  V30 2774 H 253.298 1.8031 -5.72371 0
M  V30 2775 H 254.368 0.739876 -4.79222 0
M  V30 2776 N 255.711 1.52812 0.385517 0
M  V30 2777 C 256.661 1.74219 1.47078 0
M  V30 2778 C 257.645 0.59632 1.49442 0
M  V30 2779 O 258.837 0.85428 1.5502 0
M  V30 2780 C 255.966 1.9176 2.84751 0
M  V30 2781 C 255.052 3.12289 2.86943 0
M  V30 2782 N 255.443 4.34575 2.58802 0
M  V30 2783 C 253.741 3.12605 3.1811 0
M  V30 2784 C 254.442 5.162 2.68166 0
M  V30 2785 N 253.418 4.51964 3.02043 0
M  V30 2786 H 257.22 2.6639 1.24152 0
M  V30 2787 H 254.734 1.51166 0.593504 0
M  V30 2788 H 256.731 2.05218 3.62893 0
M  V30 2789 H 255.391 1.00805 3.08656 0
M  V30 2790 H 256.402 4.62649 2.32759 0
M  V30 2791 H 253.079 2.31472 3.47458 0
M  V30 2792 H 254.469 6.23689 2.49923 0
M  V30 2793 N 257.189 -0.644168 1.43834 0
M  V30 2794 C 258.119 -1.76814 1.52509 0
M  V30 2795 C 259.1 -1.65823 0.379052 0
M  V30 2796 O 260.285 -1.84781 0.597466 0
M  V30 2797 C 257.415 -3.15288 1.4564 0
M  V30 2798 C 256.369 -3.41053 2.58586 0
M  V30 2799 C 255.695 -4.79421 2.36769 0
M  V30 2800 C 256.995 -3.34902 4.00797 0
M  V30 2801 H 258.689 -1.69812 2.46586 0
M  V30 2802 H 256.235 -0.815542 1.1868 0
M  V30 2803 H 258.188 -3.93681 1.50311 0
M  V30 2804 H 256.912 -3.23043 0.480725 0
M  V30 2805 H 255.571 -2.65035 2.53282 0
M  V30 2806 H 255.219 -4.83863 1.37424 0
M  V30 2807 H 254.919 -4.9762 3.12487 0
M  V30 2808 H 256.443 -5.6006 2.43238 0
M  V30 2809 H 257.857 -4.03218 4.07539 0
M  V30 2810 H 256.254 -3.64637 4.76613 0
M  V30 2811 H 257.324 -2.32928 4.25291 0
M  V30 2812 N 258.668 -1.30515 -0.883378 0
M  V30 2813 C 259.615 -1.17032 -1.98927 0
M  V30 2814 C 260.585 -0.0594241 -1.65994 0
M  V30 2815 O 261.77 -0.229895 -1.8941 0
M  V30 2816 C 258.91 -0.869777 -3.33959 0
M  V30 2817 C 258.023 -2.06271 -3.79574 0
M  V30 2818 C 257.158 -1.70011 -5.03259 0
M  V30 2819 C 256.197 -2.8579 -5.41286 0
M  V30 2820 N 255.334 -2.49816 -6.56153 0
M  V30 2821 H 260.174 -2.1164 -2.09792 0
M  V30 2822 H 257.711 -1.05296 -1.02719 0
M  V30 2823 H 259.669 -0.676138 -4.11685 0
M  V30 2824 H 258.299 0.0394332 -3.22776 0
M  V30 2825 H 257.351 -2.36755 -2.97744 0
M  V30 2826 H 258.663 -2.92971 -4.03694 0
M  V30 2827 H 257.817 -1.47032 -5.88614 0
M  V30 2828 H 256.556 -0.804829 -4.81013 0
M  V30 2829 H 255.561 -3.09434 -4.54456 0
M  V30 2830 H 256.786 -3.76008 -5.65504 0
M  V30 2831 H 254.732 -1.62795 -6.35479 0
M  V30 2832 H 254.649 -3.30048 -6.8015 0
M  V30 2833 H 255.917 -2.30197 -7.44735 0
M  V30 2834 N 260.146 1.09593 -1.13257 0
M  V30 2835 C 261.374 1.855 -0.916378 0
M  V30 2836 C 261.789 1.81069 0.534738 0
M  V30 2837 O 261.146 1.20562 1.37007 0
M  V30 2838 C 261.197 3.33546 -1.39388 0
M  V30 2839 O 260.918 3.37927 -2.78813 0
M  V30 2840 C 262.419 4.26299 -1.21588 0
M  V30 2841 H 259.639 0.585991 -0.326887 0
M  V30 2842 H 262.183 1.38488 -1.5047 0
M  V30 2843 H 260.338 3.77992 -0.848597 0
M  V30 2844 H 260.752 4.30254 -2.9997 0
M  V30 2845 H 262.226 5.28341 -1.59876 0
M  V30 2846 H 262.703 4.38918 -0.157376 0
M  V30 2847 H 263.309 3.87668 -1.7491 0
M  V30 2848 N 261.624 0.925811 1.2754 0
M  V30 2849 C 263.035 0.610102 1.7645 0
M  V30 2850 C 263.386 -0.874723 1.75622 0
M  V30 2851 O 262.511 -1.68444 1.35851 0
M  V30 2852 C 263.106 1.10073 3.20421 0
M  V30 2853 C 261.665 0.835723 3.67005 0
M  V30 2854 C 260.812 1.26054 2.46993 0
M  V30 2855 H 263.763 1.10579 1.13833 0
M  V30 2856 H 263.784 0.447557 3.77859 0
M  V30 2857 H 263.296 2.18143 3.20991 0
M  V30 2858 H 261.397 -0.231249 3.71882 0
M  V30 2859 H 261.51 1.45193 4.56569 0
M  V30 2860 H 259.874 0.679111 2.45479 0
M  V30 2861 H 260.657 2.34984 2.50275 0
M  V30 2862 N 263.102 -1.41638 0.69111 0
M  V30 2863 C 264.034 -2.29194 -0.0161523 0
M  V30 2864 C 265.047 -1.44549 -0.748955 0
M  V30 2865 O 266.236 -1.681 -0.6004 0
M  V30 2866 C 263.336 -3.22325 -1.0469 0
M  V30 2867 C 262.509 -4.35706 -0.384621 0
M  V30 2868 C 261.568 -5.09443 -1.31737 0
M  V30 2869 O 260.594 -5.63386 -0.811451 0
M  V30 2870 N 261.796 -5.16487 -2.64993 0
M  V30 2871 H 264.561 -2.90534 0.735523 0
M  V30 2872 H 262.122 -1.52742 0.53679 0
M  V30 2873 H 264.114 -3.68522 -1.67252 0
M  V30 2874 H 262.684 -2.62323 -1.70015 0
M  V30 2875 H 261.904 -3.91948 0.420804 0
M  V30 2876 H 263.192 -5.08743 0.0760765 0
M  V30 2877 H 262.59 -4.741 -3.08619 0
M  V30 2878 H 261.147 -5.66276 -3.22761 0
M  V30 2879 N 264.58 -0.43555 -1.51462 0
M  V30 2880 C 265.808 0.130242 -2.0649 0
M  V30 2881 C 266.223 1.36614 -1.30315 0
M  V30 2882 O 265.58 1.78869 -0.362223 0
M  V30 2883 C 265.631 0.454253 -3.58635 0
M  V30 2884 O 265.352 -0.73259 -4.31931 0
M  V30 2885 C 266.853 1.07091 -4.3017 0
M  V30 2886 H 264.073 0.00871669 -0.670943 0
M  V30 2887 H 266.617 -0.614117 -1.95061 0
M  V30 2888 H 264.772 1.14851 -3.69984 0
M  V30 2889 H 265.186 -0.455787 -5.22516 0
M  V30 2890 H 266.66 1.24764 -5.37716 0
M  V30 2891 H 267.137 2.05144 -3.88346 0
M  V30 2892 H 267.743 0.416089 -4.2326 0
M  V30 2893 N 266.058 1.56714 -0.166846 0
M  V30 2894 C 267.304 1.97039 0.479962 0
M  V30 2895 C 267.637 1.05264 1.63197 0
M  V30 2896 O 266.912 0.0988833 1.94248 0
M  V30 2897 C 267.195 3.46867 0.967212 0
M  V30 2898 C 267.048 4.49421 -0.18466 0
M  V30 2899 C 268.367 3.9968 1.84238 0
M  V30 2900 H 265.486 0.71641 0.172992 0
M  V30 2901 H 268.128 1.8832 -0.252079 0
M  V30 2902 H 266.278 3.54428 1.59101 0
M  V30 2903 H 267.95 4.53924 -0.821621 0
M  V30 2904 H 266.193 4.25573 -0.840837 0
M  V30 2905 H 266.864 5.51644 0.198317 0
M  V30 2906 H 269.34 3.94723 1.31655 0
M  V30 2907 H 268.216 5.04941 2.15234 0
M  V30 2908 H 268.477 3.43226 2.78654 0
M  V30 2909 N 267.536 -0.106894 1.57237 0
M  V30 2910 C 268.813 -0.843526 1.76477 0
M  V30 2911 C 269.193 -1.97499 0.745464 0
M  V30 2912 O 268.541 -2.27357 -0.228306 0
M  V30 2913 C 268.751 -1.34903 3.21873 0
M  V30 2914 C 270.099 -1.79654 3.8472 0
M  V30 2915 O 271.123 -1.44554 3.2555 0
M  V30 2916 O 269.982 -2.44515 4.88748 0
M  V30 2917 H 267.076 -0.401468 0.723016 0
M  V30 2918 H 269.622 -0.0896927 1.69463 0
M  V30 2919 H 268.394 -0.53781 3.87586 0
M  V30 2920 H 268.017 -2.16522 3.33473 0
M  V30 2921 N 269.014 -1.53014 -0.377408 0
M  V30 2922 C 269.924 -1.81557 -1.48574 0
M  V30 2923 C 270.94 -0.703102 -1.59162 0
M  V30 2924 O 272.116 -0.99192 -1.75279 0
M  V30 2925 C 269.181 -1.9889 -2.83978 0
M  V30 2926 C 268.242 -3.22801 -2.83016 0
M  V30 2927 C 267.475 -3.39298 -4.11962 0
M  V30 2928 O 267.698 -2.60345 -5.0752 0
M  V30 2929 O 266.632 -4.32604 -4.18494 0
M  V30 2930 H 270.458 -2.75695 -1.27382 0
M  V30 2931 H 268.043 -1.38248 -0.566373 0
M  V30 2932 H 269.925 -2.11931 -3.6423 0
M  V30 2933 H 268.6 -1.07942 -3.05172 0
M  V30 2934 H 267.507 -3.15193 -2.01505 0
M  V30 2935 H 268.84 -4.13632 -2.66775 0
M  V30 2936 N 270.492 0.636531 -1.44174 0
M  V30 2937 C 271.422 1.76003 -1.53444 0
M  V30 2938 C 272.403 1.65619 -0.387841 0
M  V30 2939 O 273.588 1.84461 -0.607257 0
M  V30 2940 C 270.718 3.14511 -1.4731 0
M  V30 2941 C 269.672 3.39677 -2.60391 0
M  V30 2942 C 268.998 4.78159 -2.39308 0
M  V30 2943 C 270.298 3.32772 -4.02567 0
M  V30 2944 H 271.992 1.68501 -2.47483 0
M  V30 2945 H 269.538 0.809237 -1.19111 0
M  V30 2946 H 271.491 3.92878 -1.52397 0
M  V30 2947 H 270.215 3.22783 -0.49785 0
M  V30 2948 H 268.874 2.63688 -2.54684 0
M  V30 2949 H 268.522 4.83128 -1.39988 0
M  V30 2950 H 268.222 4.95956 -3.15122 0
M  V30 2951 H 269.746 5.58762 -2.46205 0
M  V30 2952 H 271.16 4.01051 -4.09672 0
M  V30 2953 H 269.557 3.62104 -4.7854 0
M  V30 2954 H 270.627 2.30669 -4.2652 0
M  V30 2955 N 271.97 1.30982 0.876444 0
M  V30 2956 C 273.2 1.23063 1.65949 0
M  V30 2957 C 273.608 -0.207537 1.88058 0
M  V30 2958 O 272.951 -1.14781 1.43426 0
M  V30 2959 C 273.013 1.89768 3.05333 0
M  V30 2960 C 272.677 3.39106 3.0636 0
M  V30 2961 C 273.674 4.3496 2.84791 0
M  V30 2962 C 271.359 3.80693 3.27686 0
M  V30 2963 C 273.353 5.70375 2.84519 0
M  V30 2964 C 271.04 5.16223 3.27043 0
M  V30 2965 C 272.038 6.10875 3.05485 0
M  V30 2966 O 271.726 7.43928 3.04674 0
M  V30 2967 H 271.458 0.426685 0.524324 0
M  V30 2968 H 274.012 1.7329 1.10271 0
M  V30 2969 H 272.242 1.34082 3.6271 0
M  V30 2970 H 273.931 1.75853 3.65829 0
M  V30 2971 H 274.697 4.0416 2.68103 0
M  V30 2972 H 270.576 3.07457 3.43499 0
M  V30 2973 H 274.12 6.44228 2.67611 0
M  V30 2974 H 270.017 5.4666 3.43269 0
M  V30 2975 H 270.785 7.53022 3.2078 0
M  V30 2976 N 273.449 -1.08991 1.13837 0
M  V30 2977 C 274.677 -1.85011 0.926202 0
M  V30 2978 C 275.092 -1.8135 -0.525127 0
M  V30 2979 O 274.449 -1.21287 -1.36366 0
M  V30 2980 C 274.5 -3.32802 1.41155 0
M  V30 2981 O 274.221 -3.36444 2.80601 0
M  V30 2982 C 275.722 -4.25649 1.23847 0
M  V30 2983 H 272.942 -0.584249 0.32999 0
M  V30 2984 H 275.486 -1.37688 1.51202 0
M  V30 2985 H 273.641 -3.77536 0.868631 0
M  V30 2986 H 274.055 -4.28657 3.02248 0
M  V30 2987 H 275.529 -5.27485 1.62675 0
M  V30 2988 H 276.006 -4.38828 0.18065 0
M  V30 2989 H 276.612 -3.86735 1.76964 0
M  V30 2990 N 274.927 -0.932562 -1.27047 0
M  V30 2991 C 276.173 -0.576412 -1.94436 0
M  V30 2992 C 276.506 0.880891 -1.73072 0
M  V30 2993 O 275.781 1.62905 -1.06264 0
M  V30 2994 C 276.064 -0.909031 -3.48437 0
M  V30 2995 C 275.917 -2.42044 -3.79123 0
M  V30 2996 C 277.236 -0.418341 -4.38107 0
M  V30 2997 H 274.355 -0.210888 -0.706184 0
M  V30 2998 H 276.997 -1.16522 -1.50075 0
M  V30 2999 H 275.147 -0.407947 -3.86352 0
M  V30 3000 H 276.819 -2.99359 -3.50973 0
M  V30 3001 H 275.062 -2.86758 -3.25503 0
M  V30 3002 H 275.733 -2.6037 -4.86736 0
M  V30 3003 H 278.209 -0.847856 -4.0737 0
M  V30 3004 H 277.085 -0.679981 -5.44672 0
M  V30 3005 H 277.346 0.681642 -4.36814 0
M  V30 3006 N 276.405 1.4127 -0.698611 0
M  V30 3007 C 277.335 2.33447 -0.049629 0
M  V30 3008 C 278.316 1.51982 0.763898 0
M  V30 3009 O 279.501 1.80509 0.716257 0
M  V30 3010 C 276.631 3.35828 0.885267 0
M  V30 3011 C 275.585 4.27627 0.178613 0
M  V30 3012 C 274.911 5.20406 1.22807 0
M  V30 3013 C 276.211 5.13459 -0.956933 0
M  V30 3014 H 277.905 2.87966 -0.81951 0
M  V30 3015 H 275.451 1.38461 -0.395538 0
M  V30 3016 H 277.404 3.9924 1.34854 0
M  V30 3017 H 276.128 2.79666 1.68685 0
M  V30 3018 H 274.787 3.65643 -0.26466 0
M  V30 3019 H 274.435 4.60558 2.02226 0
M  V30 3020 H 274.135 5.82661 0.760239 0
M  V30 3021 H 275.659 5.86695 1.69179 0
M  V30 3022 H 277.073 5.70421 -0.573805 0
M  V30 3023 H 275.47 5.8467 -1.35205 0
M  V30 3024 H 276.54 4.50443 -1.79524 0
M  V30 3025 N 277.883 0.443576 1.51229 0
M  V30 3026 C 278.83 -0.364716 2.279 0
M  V30 3027 C 279.8 -1.0114 1.31757 0
M  V30 3028 O 280.985 -1.02912 1.60667 0
M  V30 3029 C 278.125 -1.45644 3.12861 0
M  V30 3030 C 277.238 -0.827269 4.24005 0
M  V30 3031 C 276.373 -1.89456 4.96266 0
M  V30 3032 C 275.412 -1.24416 5.99322 0
M  V30 3033 N 274.549 -2.25309 6.64966 0
M  V30 3034 H 279.389 0.295464 2.96532 0
M  V30 3035 H 276.926 0.157554 1.46254 0
M  V30 3036 H 278.884 -2.10076 3.6045 0
M  V30 3037 H 277.514 -2.08616 2.46331 0
M  V30 3038 H 276.566 -0.0710839 3.80334 0
M  V30 3039 H 277.878 -0.312481 4.9782 0
M  V30 3040 H 277.032 -2.61535 5.47434 0
M  V30 3041 H 275.771 -2.4431 4.22095 0
M  V30 3042 H 274.776 -0.508868 5.4744 0
M  V30 3043 H 276.001 -0.702882 6.75453 0
M  V30 3044 H 273.947 -2.79231 5.93604 0
M  V30 3045 H 273.864 -1.78739 7.34567 0
M  V30 3046 H 275.132 -2.96853 7.20763 0
M  V30 3047 N 279.361 -1.56624 0.175154 0
M  V30 3048 C 280.324 -2.16934 -0.739738 0
M  V30 3049 C 281.324 -1.11842 -1.15533 0
M  V30 3050 O 282.514 -1.37335 -1.07167 0
M  V30 3051 C 279.646 -2.75531 -2.00738 0
M  V30 3052 H 280.839 -2.99131 -0.214639 0
M  V30 3053 H 278.392 -1.56123 -0.0744197 0
M  V30 3054 H 279.127 -1.97078 -2.57548 0
M  V30 3055 H 278.912 -3.52444 -1.71831 0
M  V30 3056 H 280.402 -3.21904 -2.66021 0
M  V30 3057 N 280.839 0.0985539 -1.57292 0
M  V30 3058 C 282.086 0.802678 -1.85912 0
M  V30 3059 C 282.414 1.78901 -0.763186 0
M  V30 3060 O 281.669 1.94178 0.243559 0
M  V30 3061 C 281.968 1.56927 -3.21105 0
M  V30 3062 C 281.634 0.725376 -4.45027 0
M  V30 3063 C 280.296 0.492726 -4.78671 0
M  V30 3064 C 282.648 0.138493 -5.21016 0
M  V30 3065 C 279.976 -0.336727 -5.85733 0
M  V30 3066 C 282.328 -0.678264 -6.28953 0
M  V30 3067 C 280.992 -0.921039 -6.61115 0
M  V30 3068 H 280.262 0.293721 -0.680301 0
M  V30 3069 H 282.909 0.0642841 -1.91392 0
M  V30 3070 H 281.214 2.37914 -3.11294 0
M  V30 3071 H 282.911 2.11841 -3.40477 0
M  V30 3072 H 279.501 0.916815 -4.18679 0
M  V30 3073 H 283.685 0.305404 -4.95359 0
M  V30 3074 H 278.941 -0.533836 -6.09065 0
M  V30 3075 H 283.115 -1.1399 -6.87007 0
M  V30 3076 H 280.742 -1.56556 -7.43905 0
M  V30 3077 N 282.317 1.53212 0.369288 0
M  V30 3078 C 283.264 1.79388 1.45219 0
M  V30 3079 C 284.234 0.638059 1.53356 0
M  V30 3080 O 285.419 0.879852 1.69302 0
M  V30 3081 C 282.559 1.98623 2.82211 0
M  V30 3082 C 281.672 3.26337 2.8307 0
M  V30 3083 C 280.807 3.35779 4.11614 0
M  V30 3084 C 279.846 4.5754 4.06601 0
M  V30 3085 N 278.983 4.64155 5.26787 0
M  V30 3086 H 283.823 2.71794 1.22198 0
M  V30 3087 H 281.36 1.34642 0.592444 0
M  V30 3088 H 283.318 2.07761 3.61789 0
M  V30 3089 H 281.948 1.09558 3.03639 0
M  V30 3090 H 281 3.26171 1.95747 0
M  V30 3091 H 282.312 4.15988 2.75237 0
M  V30 3092 H 281.466 3.44208 4.99606 0
M  V30 3093 H 280.205 2.44137 4.22195 0
M  V30 3094 H 279.21 4.49215 3.16996 0
M  V30 3095 H 280.435 5.50519 3.97625 0
M  V30 3096 H 278.381 3.75413 5.3796 0
M  V30 3097 H 278.298 5.47706 5.21109 0
M  V30 3098 H 279.566 4.76863 6.16621 0
M  V30 3099 N 283.795 -0.628877 1.44509 0
M  V30 3100 C 284.705 -1.7694 1.54044 0
M  V30 3101 C 285.721 -1.68705 0.425987 0
M  V30 3102 O 286.897 -1.89442 0.683656 0
M  V30 3103 C 283.962 -3.13332 1.48405 0
M  V30 3104 C 283.023 -3.33181 2.70719 0
M  V30 3105 C 282.256 -4.63067 2.6534 0
M  V30 3106 O 282.479 -5.44017 1.71469 0
M  V30 3107 O 281.413 -4.85167 3.56226 0
M  V30 3108 H 285.239 -1.71848 2.50403 0
M  V30 3109 H 282.824 -0.790378 1.26781 0
M  V30 3110 H 284.706 -3.94634 1.47791 0
M  V30 3111 H 283.381 -3.1896 0.551898 0
M  V30 3112 H 282.288 -2.51549 2.769 0
M  V30 3113 H 283.621 -3.32416 3.62988 0
M  V30 3114 N 285.273 -1.31445 -0.869486 0
M  V30 3115 C 286.22 -1.19135 -1.97675 0
M  V30 3116 C 287.19 -0.0770266 -1.65921 0
M  V30 3117 O 288.375 -0.249972 -1.89155 0
M  V30 3118 C 285.515 -0.905149 -3.33018 0
M  V30 3119 C 284.628 -2.10285 -3.77365 0
M  V30 3120 C 283.763 -1.75339 -5.01427 0
M  V30 3121 C 282.802 -2.91515 -5.38224 0
M  V30 3122 N 281.939 -2.56762 -6.53466 0
M  V30 3123 H 286.779 -2.13853 -2.07535 0
M  V30 3124 H 284.316 -1.06379 -1.01597 0
M  V30 3125 H 286.274 -0.719765 -4.10944 0
M  V30 3126 H 284.904 0.00519624 -3.228 0
M  V30 3127 H 283.956 -2.39899 -2.95216 0
M  V30 3128 H 285.268 -2.97237 -4.00564 0
M  V30 3129 H 284.422 -1.53266 -5.87022 0
M  V30 3130 H 283.161 -0.855801 -4.80133 0
M  V30 3131 H 282.166 -3.14237 -4.51149 0
M  V30 3132 H 283.391 -3.81985 -5.61484 0
M  V30 3133 H 281.337 -1.69526 -6.33717 0
M  V30 3134 H 281.254 -3.37243 -6.76612 0
M  V30 3135 H 282.522 -2.38083 -7.42251 0
M  V30 3136 N 286.751 1.08385 -1.14413 0
M  V30 3137 C 288.028 1.77429 -0.823297 0
M  V30 3138 C 288.408 1.9974 0.683163 0
M  V30 3139 O 287.756 1.60739 1.62405 0
M  V30 3140 C 287.966 3.09004 -1.62227 0
M  V30 3141 C 289.314 3.83532 -1.82177 0
M  V30 3142 O 290.338 3.18786 -1.58915 0
M  V30 3143 O 289.197 4.99792 -2.21067 0
M  V30 3144 H 286.291 0.769999 -0.301712 0
M  V30 3145 H 288.837 1.14846 -1.24934 0
M  V30 3146 H 287.609 2.88316 -2.64555 0
M  V30 3147 H 287.232 3.79316 -1.19187 0
M  V30 3148 N 288.23 0.939286 1.26551 0
M  V30 3149 C 289.641 0.628782 1.75793 0
M  V30 3150 C 289.992 -0.856046 1.7654 0
M  V30 3151 O 289.117 -1.66994 1.3763 0
M  V30 3152 C 289.712 1.13465 3.19235 0
M  V30 3153 C 288.271 0.874601 3.66098 0
M  V30 3154 C 287.418 1.28667 2.45642 0
M  V30 3155 H 290.369 1.1178 1.12654 0
M  V30 3156 H 290.39 0.487609 3.77363 0
M  V30 3157 H 289.902 2.21535 3.1866 0
M  V30 3158 H 288.003 -0.191793 3.72106 0
M  V30 3159 H 288.116 1.50028 4.55004 0
M  V30 3160 H 286.48 0.705109 2.44745 0
M  V30 3161 H 287.263 2.37625 2.47769 0
M  V30 3162 N 289.708 -1.40897 0.706093 0
M  V30 3163 C 290.656 -2.32572 0.0361893 0
M  V30 3164 C 291.65 -1.51532 -0.757266 0
M  V30 3165 O 292.856 -1.67396 -0.661703 0
M  V30 3166 H 289.231 -0.751966 -0.00709935 0
M  V30 3167 H 291.202 -2.86733 0.826249 0
M  V30 3168 C 289.951 -3.36418 -0.87854 0
M  V30 3169 H 289.274 -3.98836 -0.277401 0
M  V30 3170 H 290.714 -4.0308 -1.3154 0
M  V30 3171 C 289.173 -2.71141 -1.99961 0
M  V30 3172 O 289.703 -2.56735 -3.0895 0
M  V30 3173 N 287.909 -2.29671 -1.78043 0
M  V30 3174 H 287.456 -2.41588 -0.894042 0
M  V30 3175 H 287.414 -1.86332 -2.53235 0
M  V30 3176 N 291.186 -0.45159 -1.50991 0
M  V30 3177 C 292.434 0.109857 -2.01801 0
M  V30 3178 C 292.755 1.41958 -1.3369 0
M  V30 3179 O 292.025 1.9003 -0.475951 0
M  V30 3180 H 290.605 0.0435884 -0.745727 0
M  V30 3181 H 293.267 -0.597557 -1.85514 0
M  V30 3182 H 292.363 0.275489 -3.10882 0
M  V30 3183 N 292.664 1.56529 -0.183458 0
M  V30 3184 C 293.612 2.19873 0.758845 0
M  V30 3185 C 294.606 1.16638 1.22849 0
M  V30 3186 O 295.812 1.3481 1.19274 0
M  V30 3187 H 292.187 0.7045 0.263029 0
M  V30 3188 H 294.158 2.97724 0.200755 0
M  V30 3189 C 292.907 2.86314 1.9728 0
M  V30 3190 H 292.23 3.65487 1.62047 0
M  V30 3191 H 293.67 3.3409 2.61075 0
M  V30 3192 C 292.129 1.86729 2.80418 0
M  V30 3193 O 292.659 1.36031 3.77966 0
M  V30 3194 N 290.865 1.55216 2.45675 0
M  V30 3195 H 290.412 1.96636 1.66409 0
M  V30 3196 H 290.37 0.888388 3.01588 0
M  V30 3197 N 294.142 -0.090211 1.57342 0
M  V30 3198 C 295.39 -0.791241 1.85967 0
M  V30 3199 C 295.711 -1.7903 0.772859 0
M  V30 3200 O 294.981 -1.94872 -0.200398 0
M  V30 3201 H 293.561 -0.295205 0.686195 0
M  V30 3202 H 296.223 -0.0706782 1.94772 0
M  V30 3203 H 295.319 -1.31882 2.82867 0
M  V30 3204 N 295.62 -1.53406 -0.361157 0
M  V30 3205 C 296.567 -1.80156 -1.44265 0
M  V30 3206 C 297.537 -0.646183 -1.53015 0
M  V30 3207 O 298.722 -0.888818 -1.68833 0
M  V30 3208 C 295.862 -2.00116 -2.81154 0
M  V30 3209 C 294.975 -3.27833 -2.81335 0
M  V30 3210 C 294.11 -3.37957 -4.09828 0
M  V30 3211 C 293.149 -4.59689 -4.04168 0
M  V30 3212 N 292.286 -4.66942 -5.24318 0
M  V30 3213 H 297.126 -2.72438 -1.20754 0
M  V30 3214 H 294.663 -1.34954 -0.585296 0
M  V30 3215 H 296.621 -2.09677 -3.60682 0
M  V30 3216 H 295.251 -1.11167 -3.03054 0
M  V30 3217 H 294.303 -3.27204 -1.94014 0
M  V30 3218 H 295.615 -4.17442 -2.73027 0
M  V30 3219 H 294.769 -3.46853 -4.97773 0
M  V30 3220 H 293.508 -2.46372 -4.20894 0
M  V30 3221 H 292.513 -4.50889 -3.14609 0
M  V30 3222 H 293.738 -5.5262 -3.947 0
M  V30 3223 H 291.684 -3.7826 -5.35962 0
M  V30 3224 H 291.601 -5.50462 -5.18197 0
M  V30 3225 H 292.869 -4.80127 -6.14084 0
M  V30 3226 N 297.098 0.621204 -1.44841 0
M  V30 3227 C 298.061 1.71459 -1.521 0
M  V30 3228 C 299.061 1.55696 -0.401933 0
M  V30 3229 O 300.251 1.61011 -0.664925 0
M  V30 3230 C 297.383 3.10624 -1.40447 0
M  V30 3231 H 298.576 1.66394 -2.49506 0
M  V30 3232 H 296.129 0.835745 -1.3208 0
M  V30 3233 H 296.864 3.21277 -0.441737 0
M  V30 3234 H 296.649 3.23473 -2.21602 0
M  V30 3235 H 298.139 3.90293 -1.4853 0
M  V30 3236 N 298.576 1.31904 0.862503 0
M  V30 3237 C 299.853 1.12644 1.59908 0
M  V30 3238 C 300.233 -0.316104 2.0872 0
M  V30 3239 O 299.581 -1.31145 1.87118 0
M  V30 3240 C 299.791 2.1472 2.7513 0
M  V30 3241 C 301.139 2.47637 3.44907 0
M  V30 3242 O 302.163 2.13205 2.85346 0
M  V30 3243 O 301.022 3.06632 4.52371 0
M  V30 3244 H 298.116 0.43416 0.703871 0
M  V30 3245 H 300.662 1.43408 0.907314 0
M  V30 3246 H 299.434 3.1172 2.3653 0
M  V30 3247 H 299.057 1.84905 3.51989 0
M  V30 3248 N 300.054 -1.07777 1.14986 0
M  V30 3249 C 300.964 -2.18404 0.856546 0
M  V30 3250 C 301.98 -1.73211 -0.165485 0
M  V30 3251 O 303.156 -2.01399 0.00755219 0
M  V30 3252 C 300.221 -3.44977 0.34526 0
M  V30 3253 C 299.282 -4.0476 1.43065 0
M  V30 3254 C 298.515 -5.25291 0.943663 0
M  V30 3255 O 298.738 -5.70004 -0.212426 0
M  V30 3256 O 297.672 -5.76638 1.72547 0
M  V30 3257 H 301.498 -2.45978 1.78125 0
M  V30 3258 H 299.083 -1.17033 0.928631 0
M  V30 3259 H 300.965 -4.21348 0.0663671 0
M  V30 3260 H 299.64 -3.18965 -0.551631 0
M  V30 3261 H 298.547 -3.29949 1.76309 0
M  V30 3262 H 299.88 -4.35035 2.30229 0
M  V30 3263 N 301.532 -0.945985 -1.26051 0
M  V30 3264 C 302.781 -0.591836 -1.92822 0
M  V30 3265 C 303.094 0.873956 -1.7499 0
M  V30 3266 O 304.3 1.33769 -2.36259 0
M  V30 3267 C 302.756 -1.00776 -3.45503 0
M  V30 3268 C 302.364 -2.4955 -3.7206 0
M  V30 3269 C 304.108 -0.725735 -4.1825 0
M  V30 3270 C 302.015 -2.84988 -5.18205 0
M  V30 3271 H 300.945 -0.217635 -0.721908 0
M  V30 3272 H 303.596 -1.14927 -1.43052 0
M  V30 3273 H 301.978 -0.378812 -3.94184 0
M  V30 3274 H 303.152 -3.1739 -3.34066 0
M  V30 3275 H 301.467 -2.75133 -3.12555 0
M  V30 3276 H 304.064 -0.966771 -5.25887 0
M  V30 3277 H 304.407 0.337639 -4.14929 0
M  V30 3278 H 304.94 -1.31463 -3.7545 0
M  V30 3279 H 301.679 -3.90307 -5.26631 0
M  V30 3280 H 301.199 -2.21813 -5.57278 0
M  V30 3281 H 302.878 -2.73712 -5.86252 0
M  V30 3282 N 303.011 1.40521 -0.713556 0
M  V30 3283 C 304.422 1.83853 -0.324807 0
M  V30 3284 C 304.773 1.59667 1.14021 0
M  V30 3285 O 303.898 1.07649 1.87725 0
M  V30 3286 C 304.493 3.33751 -0.582746 0
M  V30 3287 C 303.052 3.75584 -0.247727 0
M  V30 3288 C 302.199 2.63753 -0.856121 0
M  V30 3289 H 305.15 1.29817 -0.91286 0
M  V30 3290 H 305.171 3.80194 0.152682 0
M  V30 3291 H 304.683 3.51322 -1.64908 0
M  V30 3292 H 302.784 3.63608 0.813624 0
M  V30 3293 H 302.897 4.7373 -0.715307 0
M  V30 3294 H 301.261 2.53108 -0.28432 0
M  V30 3295 H 302.044 2.84137 -1.92668 0
M  V30 3296 N 304.489 0.459591 1.5075 0
M  V30 3297 C 305.736 -0.0993495 2.02256 0
M  V30 3298 C 306.064 -1.40751 1.34237 0
M  V30 3299 O 305.319 -1.90379 0.453228 0
M  V30 3300 C 305.618 -0.342866 3.55752 0
M  V30 3301 C 305.284 0.88218 4.42186 0
M  V30 3302 C 303.946 1.21808 4.65528 0
M  V30 3303 C 306.298 1.69837 4.92752 0
M  V30 3304 C 303.626 2.37045 5.36681 0
M  V30 3305 C 305.978 2.84192 5.65171 0
M  V30 3306 C 304.642 3.1821 5.8677 0
M  V30 3307 H 303.912 -0.0363545 0.740108 0
M  V30 3308 H 306.559 0.611329 1.8148 0
M  V30 3309 H 304.864 -1.13567 3.7498 0
M  V30 3310 H 306.561 -0.789121 3.93159 0
M  V30 3311 H 303.151 0.610467 4.2423 0
M  V30 3312 H 307.335 1.45205 4.74583 0
M  V30 3313 H 302.591 2.63689 5.51614 0
M  V30 3314 H 306.765 3.4779 6.03337 0
M  V30 3315 H 304.392 4.07613 6.41682 0
M  V30 3316 N 305.967 -1.56429 0.191757 0
M  V30 3317 C 307.216 -1.9666 -0.448088 0
M  V30 3318 C 307.529 -1.08136 -1.62991 0
M  V30 3319 O 308.735 -1.38135 -2.33733 0
M  V30 3320 C 307.191 -3.49753 -0.848585 0
M  V30 3321 C 306.799 -4.46935 0.308764 0
M  V30 3322 C 308.543 -3.9876 -1.4557 0
M  V30 3323 C 306.45 -5.91293 -0.112506 0
M  V30 3324 H 305.38 -0.734312 -0.171179 0
M  V30 3325 H 308.031 -1.81301 0.283242 0
M  V30 3326 H 306.413 -3.60604 -1.63649 0
M  V30 3327 H 307.587 -4.47813 1.08627 0
M  V30 3328 H 305.902 -4.08102 0.827158 0
M  V30 3329 H 308.499 -5.04086 -1.78328 0
M  V30 3330 H 308.842 -3.42875 -2.36099 0
M  V30 3331 H 309.375 -3.9101 -0.731836 0
M  V30 3332 H 306.114 -6.51097 0.758514 0
M  V30 3333 H 305.634 -5.93676 -0.854941 0
M  V30 3334 H 307.313 -6.44663 -0.549448 0
M  V30 3335 N 307.445 0.0818655 -1.57387 0
M  V30 3336 C 308.393 1.11712 -2.04018 0
M  V30 3337 C 309.387 1.40683 -0.94364 0
M  V30 3338 O 310.593 1.40209 -1.12878 0
M  V30 3339 H 306.968 0.377542 -0.650358 0
M  V30 3340 H 308.939 0.697614 -2.90131 0
M  V30 3341 C 307.688 2.42537 -2.49141 0
M  V30 3342 H 307.011 2.21092 -3.33104 0
M  V30 3343 H 308.451 3.13446 -2.85531 0
M  V30 3344 C 306.91 3.0778 -1.37014 0
M  V30 3345 O 307.44 3.95436 -0.706621 0
M  V30 3346 N 305.646 2.68242 -1.11779 0
M  V30 3347 H 305.193 1.97052 -1.65917 0
M  V30 3348 H 305.151 3.1222 -0.369594 0
M  V30 3349 N 308.923 1.53595 0.353017 0
M  V30 3350 C 310.339 1.43648 0.695516 0
M  V30 3351 C 310.539 0.585617 1.92802 0
M  V30 3352 O 309.595 0.0729223 2.52395 0
M  V30 3353 C 310.908 2.8701 0.896991 0
M  V30 3354 C 312.456 2.96723 0.996209 0
M  V30 3355 C 312.931 4.41173 1.23007 0
M  V30 3356 N 314.422 4.44657 1.29749 0
M  V30 3357 C 315.157 5.53547 1.49577 0
M  V30 3358 N 314.653 6.72461 1.66639 0
M  V30 3359 N 316.446 5.41145 1.52048 0
M  V30 3360 H 308.597 2.07415 -0.457481 0
M  V30 3361 H 310.86 0.9372 -0.142687 0
M  V30 3362 H 310.566 3.51644 0.0629938 0
M  V30 3363 H 310.44 3.31401 1.80148 0
M  V30 3364 H 312.827 2.32235 1.82074 0
M  V30 3365 H 312.908 2.55707 0.0688331 0
M  V30 3366 H 312.552 5.06238 0.410505 0
M  V30 3367 H 312.482 4.79772 2.17086 0
M  V30 3368 H 314.973 3.58963 1.18126 0
M  V30 3369 H 315.286 7.51214 1.81378 0
M  V30 3370 H 313.631 6.75423 1.63794 0
M  V30 3371 H 316.822 4.47205 1.38294 0
M  V30 3372 H 316.995 6.26068 1.67159 0
M  V30 3373 N 310.401 -0.613514 1.45168 0
M  V30 3374 C 311.678 -1.37263 1.39349 0
M  V30 3375 C 312.058 -2.11012 0.0610848 0
M  V30 3376 O 311.406 -2.07502 -0.956825 0
M  V30 3377 C 311.616 -2.3244 2.60332 0
M  V30 3378 C 312.964 -2.9523 3.05163 0
M  V30 3379 O 313.988 -2.42762 2.60663 0
M  V30 3380 O 312.847 -3.90454 3.82372 0
M  V30 3381 H 309.941 -0.615188 0.552696 0
M  V30 3382 H 312.487 -0.637097 1.57287 0
M  V30 3383 H 311.259 -1.77164 3.48896 0
M  V30 3384 H 310.882 -3.13383 2.44698 0
M  V30 3385 N 311.879 -1.3236 -0.855495 0
M  V30 3386 C 313.29 -1.2056 -1.42556 0
M  V30 3387 C 313.641 0.182209 -1.95352 0
M  V30 3388 O 312.766 1.08088 -1.87472 0
M  V30 3389 C 313.361 -2.1826 -2.59129 0
M  V30 3390 C 311.92 -2.10351 -3.12137 0
M  V30 3391 C 311.067 -2.06674 -1.84882 0
M  V30 3392 H 314.018 -1.442 -0.662727 0
M  V30 3393 H 314.039 -1.78064 -3.36264 0
M  V30 3394 H 313.551 -3.19257 -2.20673 0
M  V30 3395 H 311.652 -1.12599 -3.55179 0
M  V30 3396 H 311.765 -3.00135 -3.73438 0
M  V30 3397 H 310.129 -1.51901 -2.04446 0
M  V30 3398 H 310.912 -3.09451 -1.48643 0
M  V30 3399 N 313.357 1.07166 -1.15556 0
M  V30 3400 C 314.267 2.17947 -0.868116 0
M  V30 3401 C 315.283 1.73297 0.156297 0
M  V30 3402 O 316.459 2.01392 -0.0182327 0
M  V30 3403 C 313.524 3.44789 -0.36355 0
M  V30 3404 C 312.585 4.03996 -1.45209 0
M  V30 3405 C 311.818 5.24783 -0.971508 0
M  V30 3406 O 312.041 5.70109 0.182194 0
M  V30 3407 O 310.975 5.75715 -1.75603 0
M  V30 3408 H 314.801 2.4503 -1.79427 0
M  V30 3409 H 312.386 1.16539 -0.934824 0
M  V30 3410 H 314.268 4.21307 -0.0887113 0
M  V30 3411 H 312.943 3.19253 0.534708 0
M  V30 3412 H 311.85 3.29009 -1.78056 0
M  V30 3413 H 313.183 4.33808 -2.32533 0
M  V30 3414 N 314.835 0.952656 1.25548 0
M  V30 3415 C 315.745 0.47782 2.29682 0
M  V30 3416 C 316.761 -0.453859 1.67977 0
M  V30 3417 O 317.937 -0.330587 1.98668 0
M  V30 3418 C 315.002 -0.238655 3.45878 0
M  V30 3419 C 314.063 0.730994 4.23031 0
M  V30 3420 C 313.296 0.0486165 5.33678 0
M  V30 3421 O 313.519 -1.16612 5.58353 0
M  V30 3422 O 312.453 0.733152 5.97418 0
M  V30 3423 H 316.279 1.34312 2.72386 0
M  V30 3424 H 313.864 0.719026 1.30959 0
M  V30 3425 H 315.746 -0.641774 4.16484 0
M  V30 3426 H 314.421 -1.07916 3.05181 0
M  V30 3427 H 313.328 1.18428 3.5486 0
M  V30 3428 H 314.661 1.53946 4.67506 0
M  V30 3429 N 316.313 -1.40141 0.720998 0
M  V30 3430 C 317.559 -2.01084 0.263231 0
M  V30 3431 C 317.892 -1.57052 -1.14229 0
M  V30 3432 O 317.167 -0.793027 -1.77599 0
M  V30 3433 C 317.45 -3.58401 0.349344 0
M  V30 3434 C 317.303 -4.12491 1.79363 0
M  V30 3435 C 318.622 -4.39231 -0.276351 0
M  V30 3436 H 315.741 -0.730572 0.0971228 0
M  V30 3437 H 318.383 -1.66543 0.914518 0
M  V30 3438 H 316.533 -3.87958 -0.205165 0
M  V30 3439 H 318.205 -3.93711 2.40394 0
M  V30 3440 H 316.448 -3.66576 2.31958 0
M  V30 3441 H 317.119 -5.21646 1.80524 0
M  V30 3442 H 319.595 -4.15637 0.196184 0
M  V30 3443 H 318.471 -5.48586 -0.185681 0
M  V30 3444 H 318.732 -4.20643 -1.36059 0
M  V30 3445 N 317.792 -0.46758 -1.50504 0
M  V30 3446 C 319.039 0.0886219 -2.02306 0
M  V30 3447 C 319.367 1.40037 -1.34981 0
M  V30 3448 O 318.622 1.90136 -0.463318 0
M  V30 3449 C 318.921 0.323995 -3.55928 0
M  V30 3450 C 318.587 -0.905618 -4.41712 0
M  V30 3451 C 317.249 -1.24275 -4.64875 0
M  V30 3452 C 319.601 -1.72448 -4.91845 0
M  V30 3453 C 316.929 -2.39888 -5.35417 0
M  V30 3454 C 319.281 -2.87185 -5.63656 0
M  V30 3455 C 317.945 -3.21317 -5.85074 0
M  V30 3456 H 317.215 0.0324291 -0.74029 0
M  V30 3457 H 319.862 -0.620945 -1.81153 0
M  V30 3458 H 318.167 1.11577 -3.75577 0
M  V30 3459 H 319.864 0.76826 -3.93572 0
M  V30 3460 H 316.454 -0.632956 -4.239 0
M  V30 3461 H 320.638 -1.4772 -4.73806 0
M  V30 3462 H 315.894 -2.66611 -5.50208 0
M  V30 3463 H 320.068 -3.50985 -6.01484 0
M  V30 3464 H 317.695 -4.1101 -6.39511 0
M  V30 3465 N 319.27 1.56325 -0.20005 0
M  V30 3466 C 320.686 1.58839 0.155716 0
M  V30 3467 C 320.886 1.21636 1.60645 0
M  V30 3468 O 319.942 0.941437 2.34293 0
M  V30 3469 C 321.255 3.0032 -0.151124 0
M  V30 3470 C 322.803 3.12866 -0.0916284 0
M  V30 3471 C 323.278 4.56488 -0.371845 0
M  V30 3472 N 324.769 4.62089 -0.320641 0
M  V30 3473 C 325.504 5.71116 -0.511243 0
M  V30 3474 N 325 6.88592 -0.762461 0
M  V30 3475 N 326.793 5.60335 -0.445157 0
M  V30 3476 H 318.944 1.78788 -1.14668 0
M  V30 3477 H 321.207 0.829996 -0.458051 0
M  V30 3478 H 320.913 3.32117 -1.15721 0
M  V30 3479 H 320.787 3.73257 0.543986 0
M  V30 3480 H 323.174 2.80878 0.905065 0
M  V30 3481 H 323.255 2.42304 -0.81989 0
M  V30 3482 H 322.899 4.89189 -1.36588 0
M  V30 3483 H 322.829 5.25246 0.377362 0
M  V30 3484 H 325.32 3.77665 -0.13329 0
M  V30 3485 H 325.633 7.67581 -0.896576 0
M  V30 3486 H 323.978 6.90387 -0.799412 0
M  V30 3487 H 327.169 4.67436 -0.249278 0
M  V30 3488 H 327.342 6.45243 -0.597116 0
M  V30 3489 N 320.748 -0.0735177 1.57428 0
M  V30 3490 C 321.678 -1.0879 2.06608 0
M  V30 3491 C 322.659 -1.40473 0.959237 0
M  V30 3492 O 323.844 -1.5013 1.23185 0
M  V30 3493 C 320.974 -2.40183 2.50857 0
M  V30 3494 C 319.928 -2.22858 3.65402 0
M  V30 3495 C 319.254 -3.59619 3.957 0
M  V30 3496 C 320.554 -1.65123 4.95511 0
M  V30 3497 H 322.248 -0.678673 2.91607 0
M  V30 3498 H 319.794 -0.325013 1.40284 0
M  V30 3499 H 321.747 -3.11437 2.83874 0
M  V30 3500 H 320.471 -2.83083 1.62885 0
M  V30 3501 H 319.13 -1.54045 3.32664 0
M  V30 3502 H 318.778 -4.00086 3.04861 0
M  V30 3503 H 318.478 -3.48866 4.72828 0
M  V30 3504 H 320.002 -4.32306 4.31212 0
M  V30 3505 H 321.416 -2.26241 5.26771 0
M  V30 3506 H 319.813 -1.65071 5.7695 0
M  V30 3507 H 320.883 -0.612559 4.81015 0
M  V30 3508 N 322.226 -1.5378 -0.344866 0
M  V30 3509 C 323.472 -1.71216 -1.08687 0
M  V30 3510 C 323.805 -0.473281 -1.88345 0
M  V30 3511 O 323.08 0.52968 -1.87149 0
M  V30 3512 C 323.363 -2.97486 -2.02914 0
M  V30 3513 C 323.216 -4.31579 -1.26727 0
M  V30 3514 C 324.535 -3.19422 -3.0275 0
M  V30 3515 H 321.654 -0.62301 -0.393735 0
M  V30 3516 H 324.296 -1.8645 -0.365563 0
M  V30 3517 H 322.446 -2.84629 -2.64421 0
M  V30 3518 H 324.118 -4.56284 -0.67845 0
M  V30 3519 H 322.361 -4.30049 -0.569273 0
M  V30 3520 H 323.032 -5.16106 -1.95803 0
M  V30 3521 H 325.508 -3.316 -2.51357 0
M  V30 3522 H 324.384 -4.09169 -3.65885 0
M  V30 3523 H 324.645 -2.35656 -3.74057 0
M  V30 3524 N 323.704 0.605807 -1.45491 0
M  V30 3525 C 324.652 1.73754 -1.54636 0
M  V30 3526 C 325.646 1.64207 -0.416219 0
M  V30 3527 O 326.852 1.69979 -0.592199 0
M  V30 3528 H 323.227 0.574073 -0.485741 0
M  V30 3529 H 325.198 1.63169 -2.49837 0
M  V30 3530 C 323.947 3.12135 -1.53189 0
M  V30 3531 H 323.27 3.20141 -2.39478 0
M  V30 3532 H 324.71 3.91147 -1.63645 0
M  V30 3533 C 323.169 3.35921 -0.256616 0
M  V30 3534 O 323.699 3.96194 0.662798 0
M  V30 3535 N 321.905 2.90204 -0.151751 0
M  V30 3536 H 321.452 2.41336 -0.90081 0
M  V30 3537 H 321.41 3.06492 0.700699 0
M  V30 3538 N 325.182 1.32811 0.848464 0
M  V30 3539 C 326.429 1.23724 1.60308 0
M  V30 3540 C 326.757 -0.1994 1.93475 0
M  V30 3541 O 326.012 -1.15406 1.5805 0
M  V30 3542 C 326.311 2.04831 2.92881 0
M  V30 3543 C 325.977 3.54125 2.79117 0
M  V30 3544 C 324.639 3.94829 2.7507 0
M  V30 3545 C 326.991 4.49036 2.64606 0
M  V30 3546 C 324.319 5.28675 2.544 0
M  V30 3547 C 326.671 5.83033 2.4547 0
M  V30 3548 C 325.335 6.22931 2.39819 0
M  V30 3549 H 324.605 0.452737 0.586609 0
M  V30 3550 H 327.252 1.64301 0.983743 0
M  V30 3551 H 325.557 1.57001 3.58968 0
M  V30 3552 H 327.254 1.95164 3.50303 0
M  V30 3553 H 323.844 3.21801 2.83094 0
M  V30 3554 H 328.028 4.18505 2.66772 0
M  V30 3555 H 323.284 5.58637 2.48465 0
M  V30 3556 H 327.458 6.56186 2.33222 0
M  V30 3557 H 325.085 7.26584 2.23562 0
M  V30 3558 N 326.66 -1.06551 1.16123 0
M  V30 3559 C 327.906 -1.79719 0.952505 0
M  V30 3560 C 328.261 -1.85396 -0.514385 0
M  V30 3561 O 327.554 -1.33263 -1.37665 0
M  V30 3562 C 327.748 -3.23911 1.51052 0
M  V30 3563 C 327.577 -3.32284 3.03013 0
M  V30 3564 C 326.347 -3.42371 3.71632 0
M  V30 3565 C 328.545 -3.22363 4.00732 0
M  V30 3566 N 326.527 -3.39732 5.11327 0
M  V30 3567 C 327.898 -3.26937 5.26794 0
M  V30 3568 C 329.953 -3.0623 3.92591 0
M  V30 3569 C 328.656 -3.17035 6.45663 0
M  V30 3570 C 330.682 -2.97665 5.11028 0
M  V30 3571 C 330.044 -3.02858 6.35969 0
M  V30 3572 H 326.143 -0.670585 0.402293 0
M  V30 3573 H 328.727 -1.27125 1.4747 0
M  V30 3574 H 326.898 -3.74907 1.01484 0
M  V30 3575 H 328.63 -3.85242 1.2398 0
M  V30 3576 H 325.385 -3.47058 3.22254 0
M  V30 3577 H 325.809 -3.41919 5.84312 0
M  V30 3578 H 330.451 -3.01063 2.96852 0
M  V30 3579 H 328.169 -3.2096 7.41627 0
M  V30 3580 H 331.755 -2.86273 5.06497 0
M  V30 3581 H 330.635 -2.96286 7.26075 0
M  V30 3582 N 328.138 -0.959301 -1.25041 0
M  V30 3583 C 329.386 -0.615393 -1.92503 0
M  V30 3584 C 329.707 0.850969 -1.75452 0
M  V30 3585 O 328.977 1.60658 -1.12098 0
M  V30 3586 H 327.557 -0.224613 -0.712431 0
M  V30 3587 H 330.219 -1.21855 -1.5211 0
M  V30 3588 H 329.315 -0.848738 -3.00338 0
M  V30 3589 N 329.616 1.39756 -0.72842 0
M  V30 3590 C 330.579 2.29012 -0.0927297 0
M  V30 3591 C 331.579 1.45992 0.674025 0
M  V30 3592 O 332.769 1.66749 0.50402 0
M  V30 3593 C 329.901 3.29396 0.878137 0
M  V30 3594 H 331.094 2.86729 -0.879011 0
M  V30 3595 H 328.647 1.48293 -0.493847 0
M  V30 3596 H 329.382 2.76722 1.69101 0
M  V30 3597 H 329.167 3.907 0.331051 0
M  V30 3598 H 330.657 3.96199 1.3197 0
M  V30 3599 N 331.094 0.475555 1.50254 0
M  V30 3600 C 332.51 0.12997 1.5907 0
M  V30 3601 C 332.71 -1.36385 1.48328 0
M  V30 3602 O 331.766 -2.13754 1.34407 0
M  V30 3603 C 333.079 0.684139 2.92814 0
M  V30 3604 C 334.627 0.647965 3.0622 0
M  V30 3605 C 335.102 1.17975 4.42545 0
M  V30 3606 N 336.593 1.13936 4.48969 0
M  V30 3607 C 337.328 1.52129 5.52851 0
M  V30 3608 N 336.824 1.97793 6.63965 0
M  V30 3609 N 338.617 1.43704 5.4342 0
M  V30 3610 H 330.768 1.44706 1.55479 0
M  V30 3611 H 333.031 0.598691 0.735033 0
M  V30 3612 H 332.737 1.73079 3.06164 0
M  V30 3613 H 332.611 0.130204 3.76975 0
M  V30 3614 H 334.998 -0.38979 2.92514 0
M  V30 3615 H 335.079 1.23876 2.23805 0
M  V30 3616 H 334.723 2.21616 4.57 0
M  V30 3617 H 334.653 0.565138 5.23559 0
M  V30 3618 H 337.144 0.804488 3.69238 0
M  V30 3619 H 337.457 2.25072 7.39299 0
M  V30 3620 H 335.802 2.01749 6.65073 0
M  V30 3621 H 338.993 1.07867 4.55502 0
M  V30 3622 H 339.166 1.73794 6.24259 0
M  V30 3623 N 332.573 -1.56217 0.208337 0
M  V30 3624 C 333.798 -2.02782 -0.435222 0
M  V30 3625 C 334.223 -1.08738 -1.53485 0
M  V30 3626 O 333.581 -0.0731855 -1.81152 0
M  V30 3627 C 333.629 -3.47687 -0.956335 0
M  V30 3628 O 332.733 -3.56773 -2.06849 0
M  V30 3629 H 332.074 -0.656403 -0.100158 0
M  V30 3630 H 334.604 -2.02033 0.3231 0
M  V30 3631 H 334.614 -3.87745 -1.26955 0
M  V30 3632 H 333.289 -4.15624 -0.15143 0
M  V30 3633 H 331.866 -3.28597 -1.76292 0
M  V30 3634 N 334.051 0.0651679 -1.57465 0
M  V30 3635 C 335.279 0.775808 -1.91804 0
M  V30 3636 C 335.694 1.70782 -0.804916 0
M  V30 3637 O 335.051 1.81153 0.221311 0
M  V30 3638 C 335.102 1.56381 -3.25925 0
M  V30 3639 O 334.823 0.669248 -4.32958 0
M  V30 3640 C 336.324 2.37485 -3.7432 0
M  V30 3641 H 333.544 0.2202 -0.63384 0
M  V30 3642 H 336.088 0.0334587 -2.04473 0
M  V30 3643 H 334.243 2.25837 -3.14764 0
M  V30 3644 H 334.657 1.21801 -5.10162 0
M  V30 3645 H 336.131 2.88223 -4.70778 0
M  V30 3646 H 336.608 3.17307 -3.03666 0
M  V30 3647 H 337.214 1.73173 -3.88447 0
M  V30 3648 N 335.529 1.53961 0.336706 0
M  V30 3649 C 336.777 1.71197 1.07405 0
M  V30 3650 C 337.098 0.481475 1.88962 0
M  V30 3651 O 336.368 -0.504585 1.8929 0
M  V30 3652 H 334.948 0.631185 0.399517 0
M  V30 3653 H 337.61 1.91232 0.376323 0
M  V30 3654 H 336.706 2.58587 1.74755 0
M  V30 3655 N 337.007 -0.598083 1.45811 0
M  V30 3656 C 338.232 -1.3881 1.54099 0
M  V30 3657 C 338.657 -1.8726 0.177578 0
M  V30 3658 O 338.015 -1.6069 -0.839541 0
M  V30 3659 C 338.063 -2.56217 2.53743 0
M  V30 3660 O 337.167 -3.5716 2.06182 0
M  V30 3661 H 336.508 -0.414024 0.519115 0
M  V30 3662 H 339.038 -0.726971 1.91249 0
M  V30 3663 H 339.048 -3.03337 2.72856 0
M  V30 3664 H 337.723 -2.20303 3.5276 0
M  V30 3665 H 336.3 -3.16624 1.96987 0
M  V30 3666 N 338.485 -1.33259 -0.841409 0
M  V30 3667 C 339.433 -1.23279 -1.97244 0
M  V30 3668 C 340.427 -0.134706 -1.68864 0
M  V30 3669 O 341.633 -0.298501 -1.77508 0
M  V30 3670 H 338.008 -0.382497 -0.647457 0
M  V30 3671 H 339.979 -2.18906 -2.02787 0
M  V30 3672 C 338.728 -0.986268 -3.33419 0
M  V30 3673 H 338.051 -1.82347 -3.55794 0
M  V30 3674 H 339.491 -0.956728 -4.13065 0
M  V30 3675 C 337.95 0.310842 -3.35463 0
M  V30 3676 O 338.48 1.31838 -3.79449 0
M  V30 3677 N 336.686 0.337485 -2.88634 0
M  V30 3678 H 336.233 -0.482967 -2.53032 0
M  V30 3679 H 336.191 1.20518 -2.90384 0
M  V30 3680 N 339.963 1.05934 -1.16686 0
M  V30 3681 C 341.191 1.8249 -0.974929 0
M  V30 3682 C 341.606 1.82679 0.476861 0
M  V30 3683 O 340.963 1.2486 1.33103 0
M  V30 3684 C 341.014 3.28943 -1.49929 0
M  V30 3685 O 340.735 3.28886 -2.89423 0
M  V30 3686 C 342.236 4.22215 -1.35089 0
M  V30 3687 H 339.456 0.575295 -0.345365 0
M  V30 3688 H 342 1.33631 -1.548 0
M  V30 3689 H 340.155 3.751 -0.968423 0
M  V30 3690 H 340.569 4.20493 -3.13506 0
M  V30 3691 H 342.043 5.22987 -1.76603 0
M  V30 3692 H 342.52 4.38195 -0.296935 0
M  V30 3693 H 343.126 3.81907 -1.87155 0
M  V30 3694 N 341.441 0.965919 1.2453 0
M  V30 3695 C 342.687 0.637349 1.93156 0
M  V30 3696 C 343.042 -0.818261 1.74133 0
M  V30 3697 O 342.335 -1.58079 1.08266 0
M  V30 3698 C 342.529 0.945428 3.44669 0
M  V30 3699 C 342.358 2.42944 3.78429 0
M  V30 3700 C 341.128 3.08895 3.9989 0
M  V30 3701 C 343.326 3.40941 3.8505 0
M  V30 3702 N 341.308 4.47052 4.20735 0
M  V30 3703 C 342.679 4.64448 4.10717 0
M  V30 3704 C 344.734 3.35624 3.67779 0
M  V30 3705 C 343.437 5.83292 4.20907 0
M  V30 3706 C 345.463 4.53818 3.79214 0
M  V30 3707 C 344.825 5.76114 4.05304 0
M  V30 3708 H 340.924 0.284034 0.728594 0
M  V30 3709 H 343.508 1.24041 1.50073 0
M  V30 3710 H 341.679 0.371193 3.86622 0
M  V30 3711 H 343.411 0.575613 4.00586 0
M  V30 3712 H 340.166 2.59432 3.96222 0
M  V30 3713 H 340.59 5.18634 4.35141 0
M  V30 3714 H 345.232 2.4211 3.46616 0
M  V30 3715 H 342.95 6.77236 4.40883 0
M  V30 3716 H 346.536 4.51263 3.67224 0
M  V30 3717 H 345.416 6.66045 4.13949 0
M  V30 3718 N 342.919 -1.39368 0.735821 0
M  V30 3719 C 343.852 -2.28155 0.0451175 0
M  V30 3720 C 344.83 -1.44433 -0.746852 0
M  V30 3721 O 346.014 -1.73823 -0.729237 0
M  V30 3722 C 343.141 -3.253 -0.943266 0
M  V30 3723 C 342.187 -4.25826 -0.239685 0
M  V30 3724 S 343.02 -5.25166 1.04693 0
M  V30 3725 C 344.176 -6.2587 0.0611639 0
M  V30 3726 H 344.409 -2.86388 0.79807 0
M  V30 3727 H 341.942 -1.45104 0.527653 0
M  V30 3728 H 343.9 -3.81789 -1.50824 0
M  V30 3729 H 342.561 -2.66085 -1.66906 0
M  V30 3730 H 341.754 -4.94229 -0.987596 0
M  V30 3731 H 341.356 -3.73141 0.253274 0
M  V30 3732 H 343.648 -6.73007 -0.778941 0
M  V30 3733 H 344.591 -7.04508 0.712362 0
M  V30 3734 H 344.999 -5.63639 -0.311602 0
M  V30 3735 N 344.397 -0.483516 -1.5 0
M  V30 3736 C 345.674 0.129337 -1.95172 0
M  V30 3737 C 346.054 1.55802 -1.4244 0
M  V30 3738 O 345.402 2.19625 -0.630649 0
M  V30 3739 C 345.612 0.0599251 -3.48949 0
M  V30 3740 C 346.96 0.242617 -4.23906 0
M  V30 3741 O 347.984 0.135933 -3.55941 0
M  V30 3742 O 346.843 0.459454 -5.44565 0
M  V30 3743 H 343.937 0.104887 -0.820322 0
M  V30 3744 H 346.483 -0.544807 -1.60717 0
M  V30 3745 H 345.255 -0.937079 -3.79914 0
M  V30 3746 H 344.878 0.774984 -3.89974 0
M  V30 3747 N 345.875 1.56104 -0.216619 0
M  V30 3748 C 347.122 1.98172 0.416416 0
M  V30 3749 C 347.45 1.10413 1.60122 0
M  V30 3750 O 346.705 0.147967 1.9514 0
M  V30 3751 C 347.004 3.45923 0.898464 0
M  V30 3752 C 346.67 4.50559 -0.175288 0
M  V30 3753 C 345.332 4.78897 -0.470271 0
M  V30 3754 C 347.684 5.1334 -0.901728 0
M  V30 3755 C 345.012 5.67299 -1.4963 0
M  V30 3756 C 347.364 6.02853 -1.91705 0
M  V30 3757 C 346.028 6.29537 -2.21901 0
M  V30 3758 H 345.298 0.725164 0.152377 0
M  V30 3759 H 347.945 1.88839 -0.318103 0
M  V30 3760 H 346.25 3.52434 1.71165 0
M  V30 3761 H 347.947 3.75841 1.39803 0
M  V30 3762 H 344.537 4.28551 0.0647806 0
M  V30 3763 H 348.721 4.91521 -0.687072 0
M  V30 3764 H 343.977 5.86239 -1.73592 0
M  V30 3765 H 348.151 6.50552 -2.48505 0
M  V30 3766 H 345.778 6.97835 -3.01548 0
M  V30 3767 N 347.353 -0.0568162 1.57498 0
M  V30 3768 C 348.583 -0.764515 1.91934 0
M  V30 3769 C 348.991 -1.70877 0.81227 0
M  V30 3770 O 348.334 -1.82351 -0.222213 0
M  V30 3771 C 348.396 -1.5994 3.21962 0
M  V30 3772 C 348.06 -0.822925 4.4953 0
M  V30 3773 C 349.057 -0.135464 5.19723 0
M  V30 3774 C 346.742 -0.785666 4.96117 0
M  V30 3775 C 348.736 0.578861 6.34766 0
M  V30 3776 C 346.423 -0.0675784 6.11063 0
M  V30 3777 C 347.421 0.613471 6.80239 0
M  V30 3778 O 347.109 1.31996 7.92989 0
M  V30 3779 H 346.841 -0.221647 0.63863 0
M  V30 3780 H 349.395 -0.0268218 2.05382 0
M  V30 3781 H 347.625 -2.38026 3.04763 0
M  V30 3782 H 349.314 -2.18715 3.41934 0
M  V30 3783 H 350.08 -0.155458 4.84751 0
M  V30 3784 H 345.959 -1.30524 4.42136 0
M  V30 3785 H 349.503 1.111 6.88696 0
M  V30 3786 H 345.4 -0.0455636 6.45484 0
M  V30 3787 H 346.168 1.23077 8.09194 0
M  V30 3788 N 348.832 -1.54138 -0.328536 0
M  V30 3789 C 350.078 -1.7236 -1.06865 0
M  V30 3790 C 350.411 -0.493231 -1.87832 0
M  V30 3791 O 349.686 0.5098 -1.877 0
M  V30 3792 C 349.969 -2.99621 -1.99747 0
M  V30 3793 C 349.822 -4.32899 -1.22143 0
M  V30 3794 C 351.141 -3.22615 -2.99345 0
M  V30 3795 H 348.26 -0.627151 -0.387105 0
M  V30 3796 H 350.902 -1.86827 -0.345767 0
M  V30 3797 H 349.052 -2.87418 -2.61387 0
M  V30 3798 H 350.724 -4.56978 -0.630017 0
M  V30 3799 H 348.967 -4.30628 -0.523628 0
M  V30 3800 H 349.638 -5.18154 -1.90318 0
M  V30 3801 H 352.114 -3.34248 -2.47826 0
M  V30 3802 H 350.99 -4.13027 -3.61524 0
M  V30 3803 H 351.251 -2.3961 -3.71536 0
M  V30 3804 N 350.31 0.590341 -1.46126 0
M  V30 3805 C 351.22 1.72793 -1.58681 0
M  V30 3806 C 352.236 1.67516 -0.470566 0
M  V30 3807 O 353.412 1.87562 -0.733642 0
M  V30 3808 C 350.477 3.09287 -1.5666 0
M  V30 3809 C 349.538 3.25886 -2.79458 0
M  V30 3810 C 348.771 4.55869 -2.77524 0
M  V30 3811 O 348.994 5.3928 -1.85832 0
M  V30 3812 O 347.928 4.75552 -3.68964 0
M  V30 3813 H 351.754 1.65149 -2.54872 0
M  V30 3814 H 349.339 0.756486 -1.28832 0
M  V30 3815 H 351.221 3.90577 -1.58202 0
M  V30 3816 H 349.896 3.17385 -0.636271 0
M  V30 3817 H 348.803 2.44119 -2.83472 0
M  V30 3818 H 350.136 3.22675 -3.71674 0
M  V30 3819 N 351.788 1.33704 0.83433 0
M  V30 3820 C 352.736 1.24323 1.96587 0
M  V30 3821 C 353.73 0.143659 1.6879 0
M  V30 3822 O 354.936 0.30791 1.77347 0
M  V30 3823 H 351.311 0.385925 0.645419 0
M  V30 3824 H 353.282 2.19978 2.01624 0
M  V30 3825 C 352.031 1.00394 3.32891 0
M  V30 3826 H 351.354 1.84231 3.54822 0
M  V30 3827 H 352.794 0.97862 4.12552 0
M  V30 3828 C 351.253 -0.293047 3.35623 0
M  V30 3829 O 351.783 -1.29823 3.80143 0
M  V30 3830 N 349.989 -0.322174 2.88809 0
M  V30 3831 H 349.536 0.496379 2.52772 0
M  V30 3832 H 349.494 -1.18977 2.91019 0
M  V30 3833 N 353.266 -1.05314 1.17247 0
M  V30 3834 C 354.514 -1.77941 0.958194 0
M  V30 3835 C 354.835 -1.88089 -0.514556 0
M  V30 3836 O 354.105 -1.39676 -1.37359 0
M  V30 3837 H 352.685 -0.659116 0.351533 0
M  V30 3838 H 355.347 -1.27166 1.47699 0
M  V30 3839 H 354.443 -2.79663 1.38546 0
M  V30 3840 N 354.744 -0.972509 -1.24016 0
M  V30 3841 C 355.691 -0.505969 -2.25186 0
M  V30 3842 C 356.661 0.451009 -1.5986 0
M  V30 3843 O 357.846 0.360307 -1.87367 0
M  V30 3844 C 354.986 0.193089 -3.44559 0
M  V30 3845 C 354.099 -0.803222 -4.24467 0
M  V30 3846 C 353.234 -0.0797793 -5.3114 0
M  V30 3847 C 352.273 -1.06583 -6.02749 0
M  V30 3848 N 351.41 -0.372074 -7.01113 0
M  V30 3849 H 356.25 -1.37351 -2.64459 0
M  V30 3850 H 353.787 -0.688419 -1.29997 0
M  V30 3851 H 355.745 0.615125 -4.1264 0
M  V30 3852 H 354.375 1.02455 -3.06109 0
M  V30 3853 H 353.427 -1.34368 -3.55878 0
M  V30 3854 H 354.739 -1.55494 -4.73944 0
M  V30 3855 H 353.893 0.400015 -6.0538 0
M  V30 3856 H 352.632 0.704597 -4.82583 0
M  V30 3857 H 351.637 -1.55645 -5.27309 0
M  V30 3858 H 352.862 -1.85074 -6.53395 0
M  V30 3859 H 350.808 0.393238 -6.5482 0
M  V30 3860 H 350.725 -1.06258 -7.48495 0
M  V30 3861 H 351.993 0.0855932 -7.79453 0
M  V30 3862 N 356.222 1.38976 -0.743202 0
M  V30 3863 C 357.471 1.99581 -0.291592 0
M  V30 3864 C 357.784 1.59656 1.13001 0
M  V30 3865 O 358.99 2.13157 1.68156 0
M  V30 3866 C 357.446 3.56813 -0.470391 0
M  V30 3867 C 357.054 4.05695 -1.90041 0
M  V30 3868 C 358.798 4.24423 -0.0809709 0
M  V30 3869 C 356.705 5.5553 -2.02832 0
M  V30 3870 H 355.635 0.746615 -0.105272 0
M  V30 3871 H 358.286 1.58872 -0.918258 0
M  V30 3872 H 356.668 3.95359 0.225299 0
M  V30 3873 H 357.842 3.78464 -2.62872 0
M  V30 3874 H 356.157 3.50775 -2.24379 0
M  V30 3875 H 358.754 5.34474 -0.155445 0
M  V30 3876 H 359.097 4.04962 0.96497 0
M  V30 3877 H 359.63 3.9108 -0.728124 0
M  V30 3878 H 356.369 5.79881 -3.05643 0
M  V30 3879 H 355.889 5.84537 -1.34448 0
M  V30 3880 H 357.568 6.21069 -1.81335 0
M  V30 3881 N 357.7 0.491464 1.49741 0
M  V30 3882 C 358.647 -0.292027 2.28945 0
M  V30 3883 C 359.617 -0.968973 1.34908 0
M  V30 3884 O 360.802 -0.97748 1.6386 0
M  V30 3885 C 357.942 -1.35617 3.17336 0
M  V30 3886 C 357.055 -0.691957 4.26422 0
M  V30 3887 C 356.19 -1.73572 5.02042 0
M  V30 3888 C 355.229 -1.05286 6.02977 0
M  V30 3889 N 354.366 -2.0404 6.71798 0
M  V30 3890 H 359.206 0.389654 2.95442 0
M  V30 3891 H 356.743 0.204003 1.45679 0
M  V30 3892 H 358.701 -1.98502 3.66951 0
M  V30 3893 H 357.331 -2.00674 2.52844 0
M  V30 3894 H 356.383 0.0499523 3.80367 0
M  V30 3895 H 357.695 -0.153946 4.98562 0
M  V30 3896 H 356.849 -2.43987 5.55478 0
M  V30 3897 H 355.588 -2.30757 4.29654 0
M  V30 3898 H 354.593 -0.334446 5.48782 0
M  V30 3899 H 355.818 -0.487636 6.77347 0
M  V30 3900 H 353.764 -2.60205 6.02187 0
M  V30 3901 H 353.681 -1.55279 7.39881 0
M  V30 3902 H 354.949 -2.73772 7.29842 0
M  V30 3903 N 359.178 -1.55987 0.224894 0
M  V30 3904 C 360.128 -2.17076 -0.697296 0
M  V30 3905 C 361.112 -1.12006 -1.15514 0
M  V30 3906 O 362.304 -1.37985 -1.10857 0
M  V30 3907 C 359.433 -2.85679 -1.90374 0
M  V30 3908 C 358.519 -3.97977 -1.46543 0
M  V30 3909 N 358.91 -5.00359 -0.739909 0
M  V30 3910 C 357.208 -4.10128 -1.75245 0
M  V30 3911 C 357.909 -5.79407 -0.515939 0
M  V30 3912 N 356.885 -5.32892 -1.07364 0
M  V30 3913 H 360.687 -2.93592 -0.134594 0
M  V30 3914 H 358.201 -1.62379 0.0262885 0
M  V30 3915 H 360.198 -3.27857 -2.57518 0
M  V30 3916 H 358.858 -2.1066 -2.47088 0
M  V30 3917 H 359.869 -5.16412 -0.392253 0
M  V30 3918 H 356.546 -3.46263 -2.33255 0
M  V30 3919 H 357.936 -6.71872 0.0617349 0
M  V30 3920 N 360.656 0.0484629 -1.57525 0
M  V30 3921 C 362.067 0.597486 -1.76881 0
M  V30 3922 C 362.418 1.76664 -0.853475 0
M  V30 3923 O 361.543 2.16357 -0.0433656 0
M  V30 3924 C 362.138 1.09066 -3.20765 0
M  V30 3925 C 360.697 1.58535 -3.41385 0
M  V30 3926 C 359.844 0.514868 -2.72478 0
M  V30 3927 H 362.795 -0.177758 -1.57701 0
M  V30 3928 H 362.816 1.95875 -3.2621 0
M  V30 3929 H 362.328 0.239521 -3.8736 0
M  V30 3930 H 360.429 2.45898 -2.79937 0
M  V30 3931 H 360.542 1.64622 -4.49929 0
M  V30 3932 H 358.906 0.965407 -2.35695 0
M  V30 3933 H 359.689 -0.32648 -3.41744 0
M  V30 3934 N 362.134 1.5431 0.320358 0
M  V30 3935 C 363.381 1.72668 1.05792 0
M  V30 3936 C 363.709 0.502084 1.87908 0
M  V30 3937 O 362.964 -0.516149 1.88771 0
M  V30 3938 C 363.263 2.95639 2.00828 0
M  V30 3939 C 362.929 4.30265 1.34843 0
M  V30 3940 C 361.591 4.66865 1.16578 0
M  V30 3941 C 363.943 5.13801 0.875095 0
M  V30 3942 C 361.271 5.84597 0.496336 0
M  V30 3943 C 363.623 6.32219 0.219463 0
M  V30 3944 C 362.287 6.67495 0.0246915 0
M  V30 3945 H 361.557 0.631837 0.387121 0
M  V30 3946 H 364.204 1.88552 0.334735 0
M  V30 3947 H 362.509 2.74456 2.79609 0
M  V30 3948 H 364.206 3.07038 2.57932 0
M  V30 3949 H 360.796 4.01472 1.50061 0
M  V30 3950 H 364.98 4.86039 1.00398 0
M  V30 3951 H 360.236 6.10486 0.334264 0
M  V30 3952 H 364.41 6.96227 -0.155291 0
M  V30 3953 H 362.037 7.5858 -0.496065 0
M  V30 3954 N 363.613 -0.582584 1.46437 0
M  V30 3955 C 364.576 -1.67366 1.56592 0
M  V30 3956 C 365.576 -1.54575 0.443072 0
M  V30 3957 O 366.766 -1.59191 0.707381 0
M  V30 3958 C 363.898 -3.06791 1.48634 0
M  V30 3959 H 365.091 -1.5972 2.5383 0
M  V30 3960 H 362.644 -0.800432 1.34249 0
M  V30 3961 H 363.379 -3.19993 0.526763 0
M  V30 3962 H 363.164 -3.17484 2.30101 0
M  V30 3963 H 364.654 -3.86218 1.58826 0
M  V30 3964 N 365.091 -1.34144 -0.827227 0
M  V30 3965 C 366.001 -1.27428 -1.96975 0
M  V30 3966 C 367.017 -0.182728 -1.73038 0
M  V30 3967 O 368.193 -0.408426 -1.97215 0
M  V30 3968 C 365.258 -1.02526 -3.31194 0
M  V30 3969 C 364.319 -2.20796 -3.68168 0
M  V30 3970 C 363.552 -1.97073 -4.95982 0
M  V30 3971 O 363.775 -0.926822 -5.6282 0
M  V30 3972 O 362.709 -2.83912 -5.30733 0
M  V30 3973 H 366.535 -2.23537 -2.05584 0
M  V30 3974 H 364.12 -1.14307 -0.961989 0
M  V30 3975 H 366.002 -0.904026 -4.11589 0
M  V30 3976 H 364.677 -0.0945389 -3.23562 0
M  V30 3977 H 363.584 -2.38477 -2.88235 0
M  V30 3978 H 364.917 -3.12243 -3.8048 0
M  V30 3979 N 366.569 1.04691 -1.17803 0
M  V30 3980 C 367.815 1.78045 -0.970969 0
M  V30 3981 C 368.148 1.87686 0.498751 0
M  V30 3982 O 367.423 1.38035 1.37027 0
M  V30 3983 C 367.706 3.2166 -1.61884 0
M  V30 3984 C 367.559 3.20001 -3.161 0
M  V30 3985 C 368.878 4.1962 -1.3269 0
M  V30 3986 H 365.997 0.64633 -0.354155 0
M  V30 3987 H 368.639 1.22333 -1.45378 0
M  V30 3988 H 366.789 3.69232 -1.20831 0
M  V30 3989 H 368.461 2.80467 -3.66246 0
M  V30 3990 H 366.704 2.58203 -3.48588 0
M  V30 3991 H 367.375 4.21386 -3.56564 0
M  V30 3992 H 369.851 3.80567 -1.68249 0
M  V30 3993 H 368.727 5.18339 -1.80599 0
M  V30 3994 H 368.988 4.414 -0.248622 0
M  V30 3995 N 368.047 0.979072 1.23499 0
M  V30 3996 C 369.01 0.523244 2.23147 0
M  V30 3997 C 370.01 -0.386406 1.56088 0
M  V30 3998 O 371.2 -0.180283 1.73265 0
M  V30 3999 C 368.332 -0.240739 3.40049 0
M  V30 4000 H 369.525 1.40432 2.64989 0
M  V30 4001 H 367.078 0.764824 1.36309 0
M  V30 4002 H 367.813 -1.13841 3.03662 0
M  V30 4003 H 367.598 0.412207 3.89927 0
M  V30 4004 H 369.088 -0.548297 4.13985 0
M  V30 4005 N 369.525 -1.3858 0.750561 0
M  V30 4006 C 370.772 -2.00184 0.305373 0
M  V30 4007 C 371.1 -1.59575 -1.11203 0
M  V30 4008 O 370.355 -0.823236 -1.77542 0
M  V30 4009 C 370.654 -3.55455 0.372373 0
M  V30 4010 C 370.32 -4.15765 1.745 0
M  V30 4011 C 368.982 -4.31951 2.12065 0
M  V30 4012 C 371.334 -4.49067 2.64553 0
M  V30 4013 C 368.662 -4.78734 3.39162 0
M  V30 4014 C 371.014 -4.97265 3.91038 0
M  V30 4015 C 369.678 -5.11658 4.28676 0
M  V30 4016 H 368.948 -0.732526 0.111744 0
M  V30 4017 H 371.595 -1.65673 0.960451 0
M  V30 4018 H 369.9 -3.90084 -0.366272 0
M  V30 4019 H 371.597 -4.00999 0.00953918 0
M  V30 4020 H 368.187 -4.03579 1.44297 0
M  V30 4021 H 372.371 -4.36166 2.36796 0
M  V30 4022 H 367.627 -4.88062 3.68246 0
M  V30 4023 H 371.801 -5.22003 4.60962 0
M  V30 4024 H 369.428 -5.47668 5.27222 0
M  V30 4025 N 371.003 -0.499398 -1.49478 0
M  V30 4026 C 371.95 0.279881 -2.29097 0
M  V30 4027 C 372.92 0.961805 -1.3542 0
M  V30 4028 O 374.105 0.968777 -1.64376 0
M  V30 4029 C 371.245 1.33932 -3.18051 0
M  V30 4030 C 370.358 0.669333 -4.26783 0
M  V30 4031 C 369.493 1.70907 -5.02955 0
M  V30 4032 C 368.532 1.02087 -6.03527 0
M  V30 4033 N 367.669 2.00474 -6.7287 0
M  V30 4034 H 372.509 -0.405317 -2.95231 0
M  V30 4035 H 370.046 -0.211726 -1.45568 0
M  V30 4036 H 372.004 1.96553 -3.67998 0
M  V30 4037 H 370.634 1.9933 -2.53904 0
M  V30 4038 H 369.686 -0.0701234 -3.80335 0
M  V30 4039 H 370.998 0.127503 -4.98637 0
M  V30 4040 H 370.152 2.41037 -5.56764 0
M  V30 4041 H 368.891 2.28476 -4.30871 0
M  V30 4042 H 367.896 0.305338 -5.48951 0
M  V30 4043 H 369.121 0.451708 -6.77596 0
M  V30 4044 H 367.067 2.57007 -6.03559 0
M  V30 4045 H 366.984 1.51353 -7.40694 0
M  V30 4046 H 368.252 2.69897 -7.31284 0
M  V30 4047 N 372.481 1.55866 -0.233164 0
M  V30 4048 C 373.758 1.90471 0.444988 0
M  V30 4049 C 374.138 1.15209 1.7689 0
M  V30 4050 O 373.486 0.265119 2.26957 0
M  V30 4051 C 373.696 3.4333 0.626559 0
M  V30 4052 C 375.044 4.14319 0.92871 0
M  V30 4053 O 376.068 3.48993 0.712926 0
M  V30 4054 O 374.927 5.29846 1.33887 0
M  V30 4055 H 372.021 0.792347 0.236885 0
M  V30 4056 H 374.567 1.67437 -0.276211 0
M  V30 4057 H 373.339 3.90095 -0.306822 0
M  V30 4058 H 372.962 3.72181 1.39881 0
M  V30 4059 N 373.959 -0.0401083 1.57549 0
M  V30 4060 C 375.207 -0.731677 1.8839 0
M  V30 4061 C 375.528 -1.76481 0.829425 0
M  V30 4062 O 374.798 -1.95411 -0.1383 0
M  V30 4063 H 373.378 -0.273225 0.695239 0
M  V30 4064 H 376.04 -0.00867725 1.94898 0
M  V30 4065 H 375.136 -1.22816 2.86919 0
M  V30 4066 N 375.437 -1.54477 -0.31217 0
M  V30 4067 C 376.686 -1.72438 -1.04633 0
M  V30 4068 C 376.999 -0.511163 -1.88803 0
M  V30 4069 O 378.205 -0.572341 -2.65399 0
M  V30 4070 C 376.661 -3.05043 -1.9099 0
M  V30 4071 C 376.269 -4.33806 -1.11877 0
M  V30 4072 C 378.013 -3.32364 -2.64073 0
M  V30 4073 C 375.92 -5.57467 -1.97445 0
M  V30 4074 H 374.85 -0.642647 -0.394361 0
M  V30 4075 H 377.501 -1.80966 -0.303929 0
M  V30 4076 H 375.883 -2.90451 -2.69173 0
M  V30 4077 H 377.057 -4.59199 -0.383843 0
M  V30 4078 H 375.372 -4.13336 -0.504252 0
M  V30 4079 H 377.969 -4.21951 -3.28423 0
M  V30 4080 H 378.312 -2.50745 -3.32314 0
M  V30 4081 H 378.845 -3.47875 -1.92944 0
M  V30 4082 H 375.584 -6.41722 -1.33692 0
M  V30 4083 H 375.104 -5.36277 -2.6864 0
M  V30 4084 H 376.783 -5.94303 -2.5576 0
M  V30 4085 N 376.915 0.57481 -1.46744 0
M  V30 4086 C 377.862 1.68329 -1.57905 0
M  V30 4087 C 378.832 1.60625 -0.422927 0
M  V30 4088 O 380.017 1.79721 -0.640711 0
M  V30 4089 C 377.157 3.06665 -1.58274 0
M  V30 4090 C 376.27 3.24935 -2.84678 0
M  V30 4091 C 375.405 4.53566 -2.76499 0
M  V30 4092 C 374.444 4.65207 -3.97806 0
M  V30 4093 N 373.581 5.85172 -3.87967 0
M  V30 4094 H 378.421 1.58127 -2.52587 0
M  V30 4095 H 375.958 0.770552 -1.25303 0
M  V30 4096 H 377.916 3.86745 -1.56473 0
M  V30 4097 H 376.546 3.15745 -0.671194 0
M  V30 4098 H 375.598 2.38405 -2.96424 0
M  V30 4099 H 376.91 3.29403 -3.7456 0
M  V30 4100 H 376.064 5.41885 -2.72848 0
M  V30 4101 H 374.803 4.51548 -1.8427 0
M  V30 4102 H 373.808 3.75304 -4.0178 0
M  V30 4103 H 375.033 4.68997 -4.9114 0
M  V30 4104 H 372.979 5.84137 -2.98529 0
M  V30 4105 H 372.896 5.90943 -4.71511 0
M  V30 4106 H 374.164 6.759 -3.88303 0
M  V30 4107 N 378.394 1.34581 0.820102 0
M  V30 4108 C 379.344 1.22943 1.92013 0
M  V30 4109 C 380.328 0.127802 1.60392 0
M  V30 4110 O 381.52 0.357737 1.73347 0
M  V30 4111 C 378.649 0.989938 3.28717 0
M  V30 4112 C 377.735 2.13486 3.66449 0
M  V30 4113 N 378.126 3.38625 3.75722 0
M  V30 4114 C 376.424 2.04573 3.96315 0
M  V30 4115 C 377.125 4.13832 4.08801 0
M  V30 4116 N 376.101 3.42451 4.22171 0
M  V30 4117 H 379.903 2.17771 1.97365 0
M  V30 4118 H 377.417 1.2686 1.01392 0
M  V30 4119 H 379.414 0.887462 4.07345 0
M  V30 4120 H 378.074 0.0503691 3.24661 0
M  V30 4121 H 379.085 3.73143 3.59144 0
M  V30 4122 H 375.762 1.1839 4.00362 0
M  V30 4123 H 377.152 5.21909 4.23156 0
M  V30 4124 N 379.872 -1.04064 1.18357 0
M  V30 4125 C 381.118 -1.77528 0.980397 0
M  V30 4126 C 381.451 -1.87948 -0.48879 0
M  V30 4127 O 380.726 -1.3876 -1.36293 0
M  V30 4128 C 381.009 -3.20797 1.63588 0
M  V30 4129 C 380.862 -3.1832 3.17793 0
M  V30 4130 C 382.181 -4.18911 1.34914 0
M  V30 4131 H 379.3 -0.644443 0.357578 0
M  V30 4132 H 381.942 -1.2156 1.46024 0
M  V30 4133 H 380.092 -3.68586 1.22788 0
M  V30 4134 H 381.764 -2.78521 3.67728 0
M  V30 4135 H 380.007 -2.56351 3.49952 0
M  V30 4136 H 380.678 -4.19489 3.58794 0
M  V30 4137 H 383.154 -3.7967 1.70265 0
M  V30 4138 H 382.03 -5.17374 1.83346 0
M  V30 4139 H 382.291 -4.41262 0.272027 0
M  V30 4140 N 381.35 -0.985608 -1.22978 0
M  V30 4141 C 382.313 -0.535071 -2.22867 0
M  V30 4142 C 383.313 0.378123 -1.56291 0
M  V30 4143 O 384.503 0.171092 -1.73358 0
M  V30 4144 C 381.635 0.222702 -3.40172 0
M  V30 4145 H 382.828 -1.41835 -2.6424 0
M  V30 4146 H 380.381 -0.772042 -1.35901 0
M  V30 4147 H 381.116 1.12229 -3.04262 0
M  V30 4148 H 380.901 -0.43288 -3.89703 0
M  V30 4149 H 382.391 0.526335 -4.1427 0
M  V30 4150 N 382.828 1.3818 -0.7579 0
M  V30 4151 C 383.76 2.2901 -0.0932177 0
M  V30 4152 C 384.773 1.47958 0.679136 0
M  V30 4153 O 385.962 1.70773 0.519514 0
M  V30 4154 C 383.062 3.26953 0.89192 0
M  V30 4155 C 382.235 4.37045 0.176303 0
M  V30 4156 C 381.294 5.15148 1.07281 0
M  V30 4157 O 380.32 5.66616 0.541728 0
M  V30 4158 N 381.522 5.28542 2.40049 0
M  V30 4159 H 384.287 2.86694 -0.873303 0
M  V30 4160 H 381.848 1.50007 -0.609054 0
M  V30 4161 H 383.84 3.76083 1.49479 0
M  V30 4162 H 382.41 2.70136 1.57306 0
M  V30 4163 H 381.63 3.89493 -0.607328 0
M  V30 4164 H 382.918 5.07801 -0.318718 0
M  V30 4165 H 382.316 4.88285 2.85647 0
M  V30 4166 H 380.873 5.8103 2.95376 0
M  V30 4167 N 384.306 0.507319 1.49211 0
M  V30 4168 C 385.552 -0.0269732 2.03382 0
M  V30 4169 C 385.907 -1.34111 1.37957 0
M  V30 4170 O 385.2 -1.84733 0.508351 0
M  V30 4171 C 385.394 -0.229513 3.56662 0
M  V30 4172 C 385.223 1.06344 4.36945 0
M  V30 4173 C 383.993 1.617 4.78729 0
M  V30 4174 C 386.191 1.96833 4.75143 0
M  V30 4175 N 384.173 2.8552 5.43463 0
M  V30 4176 C 385.544 3.0523 5.39661 0
M  V30 4177 C 387.599 1.97434 4.57082 0
M  V30 4178 C 386.302 4.14265 5.88028 0
M  V30 4179 C 388.328 3.05448 5.06414 0
M  V30 4180 C 387.69 4.12564 5.70938 0
M  V30 4181 H 383.789 0.0310673 0.781383 0
M  V30 4182 H 386.373 0.683579 1.82305 0
M  V30 4183 H 384.544 -0.909127 3.7761 0
M  V30 4184 H 386.276 -0.761377 3.97473 0
M  V30 4185 H 383.031 1.16132 4.59141 0
M  V30 4186 H 383.455 3.48499 5.80412 0
M  V30 4187 H 388.097 1.15924 4.06597 0
M  V30 4188 H 385.815 4.96569 6.3753 0
M  V30 4189 H 389.401 3.06941 4.94246 0
M  V30 4190 H 388.281 4.94767 6.0842 0
M  V30 4191 N 385.784 -1.5574 0.241426 0
M  V30 4192 C 387.014 -2.02913 -0.38857 0
M  V30 4193 C 387.422 -1.12014 -1.52478 0
M  V30 4194 O 386.765 -0.125903 -1.83268 0
M  V30 4195 C 386.827 -3.4636 -0.963075 0
M  V30 4196 C 386.491 -4.56982 0.0401916 0
M  V30 4197 C 387.488 -5.12941 0.847766 0
M  V30 4198 C 385.173 -5.0203 0.164699 0
M  V30 4199 C 387.167 -6.12437 1.76636 0
M  V30 4200 C 384.854 -6.01358 1.0868 0
M  V30 4201 C 385.852 -6.5644 1.88616 0
M  V30 4202 O 385.54 -7.53831 2.79273 0
M  V30 4203 H 385.272 -0.668983 -0.0971452 0
M  V30 4204 H 387.826 -2.02198 0.361248 0
M  V30 4205 H 386.056 -3.44206 -1.76235 0
M  V30 4206 H 387.745 -3.77065 -1.50257 0
M  V30 4207 H 388.511 -4.78974 0.762133 0
M  V30 4208 H 384.39 -4.58824 -0.447411 0
M  V30 4209 H 387.934 -6.55355 2.39071 0
M  V30 4210 H 383.831 -6.34746 1.17338 0
M  V30 4211 H 384.599 -7.71428 2.73572 0
M  V30 4212 N 387.262 0.0317525 -1.57568 0
M  V30 4213 C 388.209 1.0332 -2.06382 0
M  V30 4214 C 389.179 1.36082 -0.952414 0
M  V30 4215 O 390.364 1.46466 -1.2228 0
M  V30 4216 C 387.504 2.32989 -2.54578 0
M  V30 4217 C 386.617 2.0641 -3.79498 0
M  V30 4218 C 385.752 3.2993 -4.16317 0
M  V30 4219 C 384.791 2.98893 -5.34162 0
M  V30 4220 N 383.928 4.14857 -5.66426 0
M  V30 4221 H 388.768 0.609982 -2.9169 0
M  V30 4222 H 386.305 0.289573 -1.44222 0
M  V30 4223 H 388.263 3.0875 -2.80587 0
M  V30 4224 H 386.893 2.73039 -1.7219 0
M  V30 4225 H 385.945 1.21158 -3.6059 0
M  V30 4226 H 387.257 1.79513 -4.65378 0
M  V30 4227 H 386.411 4.1406 -4.4344 0
M  V30 4228 H 385.15 3.59938 -3.29083 0
M  V30 4229 H 384.155 2.13164 -5.06795 0
M  V30 4230 H 385.38 2.70165 -6.23047 0
M  V30 4231 H 383.326 4.44821 -4.82151 0
M  V30 4232 H 383.243 3.91374 -6.4681 0
M  V30 4233 H 384.511 4.99868 -5.98124 0
M  V30 4234 N 388.74 1.54641 0.303973 0
M  V30 4235 C 389.65 1.88439 1.39743 0
M  V30 4236 C 390.666 0.778239 1.55626 0
M  V30 4237 O 391.842 1.07442 1.70347 0
M  V30 4238 C 388.907 2.12212 2.74166 0
M  V30 4239 C 387.968 3.35936 2.67293 0
M  V30 4240 C 387.201 3.58566 3.95305 0
M  V30 4241 O 387.424 2.84263 4.9452 0
M  V30 4242 O 386.358 4.52078 3.97378 0
M  V30 4243 H 390.184 2.81458 1.14083 0
M  V30 4244 H 387.769 1.40793 0.499768 0
M  V30 4245 H 389.651 2.29067 3.53704 0
M  V30 4246 H 388.326 1.22379 2.99675 0
M  V30 4247 H 387.233 3.24448 1.86237 0
M  V30 4248 H 388.566 4.2589 2.46736 0
M  V30 4249 N 390.218 -0.567019 1.47046 0
M  V30 4250 C 391.466 -1.322 1.52864 0
M  V30 4251 C 391.787 -1.94088 0.188388 0
M  V30 4252 O 391.057 -1.7941 -0.786693 0
M  V30 4253 H 389.637 -0.490894 0.563056 0
M  V30 4254 H 392.299 -0.662879 1.83281 0
M  V30 4255 H 391.395 -2.12062 2.2899 0
M  V30 4256 N 391.696 -1.35014 -0.812953 0
M  V30 4257 C 392.626 -1.30069 -1.93919 0
M  V30 4258 C 393.607 -0.176275 -1.69184 0
M  V30 4259 O 394.792 -0.370227 -1.90638 0
M  V30 4260 C 391.922 -1.06547 -3.30552 0
M  V30 4261 C 390.876 -2.15561 -3.69753 0
M  V30 4262 C 390.202 -1.77214 -5.04479 0
M  V30 4263 C 391.502 -3.57476 -3.808 0
M  V30 4264 H 393.196 -2.24303 -1.98314 0
M  V30 4265 H 390.742 -1.07977 -0.952736 0
M  V30 4266 H 392.695 -1.01729 -4.08937 0
M  V30 4267 H 391.419 -0.0875719 -3.26483 0
M  V30 4268 H 390.078 -2.19466 -2.9365 0
M  V30 4269 H 389.726 -0.780589 -4.96906 0
M  V30 4270 H 389.426 -2.50184 -5.31678 0
M  V30 4271 H 390.95 -1.7391 -5.8531 0
M  V30 4272 H 392.364 -3.55929 -4.4943 0
M  V30 4273 H 390.761 -4.29152 -4.19462 0
M  V30 4274 H 391.831 -3.94091 -2.82525 0
M  V30 4275 N 393.175 1.03435 -1.18907 0
M  V30 4276 C 394.424 1.76143 -0.982669 0
M  V30 4277 C 394.737 1.89416 0.487953 0
M  V30 4278 O 395.943 2.59041 0.813036 0
M  V30 4279 C 394.399 3.16722 -1.70924 0
M  V30 4280 C 394.007 3.11522 -3.21959 0
M  V30 4281 C 395.751 3.93764 -1.58588 0
M  V30 4282 C 393.658 4.46999 -3.87228 0
M  V30 4283 H 392.588 0.660292 -0.364047 0
M  V30 4284 H 395.239 1.158 -1.42347 0
M  V30 4285 H 393.621 3.775 -1.19623 0
M  V30 4286 H 394.795 2.60158 -3.80335 0
M  V30 4287 H 393.11 2.47978 -3.34508 0
M  V30 4288 H 395.707 4.93963 -2.04707 0
M  V30 4289 H 396.05 4.12794 -0.539142 0
M  V30 4290 H 396.583 3.39576 -2.07203 0
M  V30 4291 H 393.322 4.33174 -4.91976 0
M  V30 4292 H 392.842 4.98441 -3.33642 0
M  V30 4293 H 394.521 5.15898 -3.90459 0
M  V30 4294 N 394.653 0.992116 1.22453 0
M  V30 4295 C 395.93 0.583508 1.86694 0
M  V30 4296 C 396.31 -0.9392 1.89056 0
M  V30 4297 O 395.658 -1.82081 1.38053 0
M  V30 4298 C 395.868 1.20304 3.2761 0
M  V30 4299 C 397.216 1.30308 4.0411 0
M  V30 4300 O 398.24 1.15737 3.36873 0
M  V30 4301 O 397.099 1.53615 5.24466 0
M  V30 4302 H 394.193 0.198129 0.802916 0
M  V30 4303 H 396.739 1.08794 1.30238 0
M  V30 4304 H 395.511 2.24461 3.2052 0
M  V30 4305 H 395.134 0.684144 3.9167 0
M  V30 4306 N 396.131 -1.37776 0.765217 0
M  V30 4307 C 397.542 -1.82521 0.392819 0
M  V30 4308 C 397.893 -1.63789 -1.08017 0
M  V30 4309 O 397.018 -1.14542 -1.83601 0
M  V30 4310 C 397.613 -3.31358 0.706214 0
M  V30 4311 C 396.172 -3.74406 0.386952 0
M  V30 4312 C 395.319 -2.60394 0.953422 0
M  V30 4313 H 398.27 -1.2634 0.960412 0
M  V30 4314 H 398.291 -3.80498 -0.0114706 0
M  V30 4315 H 397.803 -3.44959 1.77833 0
M  V30 4316 H 395.904 -3.66377 -0.678112 0
M  V30 4317 H 396.017 -4.70749 0.890636 0
M  V30 4318 H 394.381 -2.51878 0.378064 0
M  V30 4319 H 395.164 -2.76791 2.03081 0
M  V30 4320 N 397.609 -0.515225 -1.4894 0
M  V30 4321 C 398.519 0.259774 -2.33157 0
M  V30 4322 C 399.535 0.953501 -1.45548 0
M  V30 4323 O 400.711 0.931735 -1.78552 0
M  V30 4324 C 397.776 1.30193 -3.21326 0
M  V30 4325 C 396.837 0.620129 -4.24797 0
M  V30 4326 C 396.07 1.61263 -5.08753 0
M  V30 4327 O 396.293 2.84389 -4.94448 0
M  V30 4328 O 395.227 1.16013 -5.90614 0
M  V30 4329 H 399.053 -0.429932 -3.00641 0
M  V30 4330 H 396.638 -0.276346 -1.46822 0
M  V30 4331 H 398.52 1.90455 -3.75905 0
M  V30 4332 H 397.195 1.97431 -2.56521 0
M  V30 4333 H 396.102 -0.0226019 -3.74093 0
M  V30 4334 H 397.435 -0.0100493 -4.92199 0
M  V30 4335 N 399.087 1.5561 -0.249682 0
M  V30 4336 C 400.336 1.98187 0.37479 0
M  V30 4337 C 400.649 1.14111 1.58865 0
M  V30 4338 O 401.855 1.46714 2.28445 0
M  V30 4339 C 400.311 3.52661 0.718192 0
M  V30 4340 C 399.919 4.45481 -0.474428 0
M  V30 4341 C 401.663 4.03888 1.3067 0
M  V30 4342 C 399.57 5.91303 -0.107026 0
M  V30 4343 H 398.5 0.740159 0.143808 0
M  V30 4344 H 401.151 1.80125 -0.350336 0
M  V30 4345 H 399.533 3.66429 1.50152 0
M  V30 4346 H 400.707 4.43473 -1.25172 0
M  V30 4347 H 399.022 4.04751 -0.978052 0
M  V30 4348 H 401.619 5.10358 1.59496 0
M  V30 4349 H 401.962 3.51401 2.23211 0
M  V30 4350 H 402.495 3.93457 0.586211 0
M  V30 4351 H 399.234 6.47833 -0.999642 0
M  V30 4352 H 398.754 5.9644 0.634013 0
M  V30 4353 H 400.433 6.46258 0.309807 0
M  V30 4354 N 400.565 -0.0233959 1.57583 0
M  V30 4355 C 401.812 -0.713063 1.8953 0
M  V30 4356 C 402.14 -1.75056 0.847673 0
M  V30 4357 O 401.395 -1.95119 -0.150636 0
M  V30 4358 C 401.694 -1.41428 3.28227 0
M  V30 4359 C 401.36 -0.512222 4.47981 0
M  V30 4360 C 400.022 -0.263785 4.80476 0
M  V30 4361 C 402.374 0.110248 5.21083 0
M  V30 4362 C 399.702 0.615804 5.83459 0
M  V30 4363 C 402.054 0.977573 6.25001 0
M  V30 4364 C 400.718 1.23542 6.55968 0
M  V30 4365 H 399.988 -0.260928 0.69354 0
M  V30 4366 H 402.635 0.0271047 1.91481 0
M  V30 4367 H 400.94 -2.22791 3.22291 0
M  V30 4368 H 402.637 -1.95355 3.50196 0
M  V30 4369 H 399.227 -0.716013 4.22577 0
M  V30 4370 H 403.411 -0.0687137 4.96252 0
M  V30 4371 H 398.667 0.82382 6.05824 0
M  V30 4372 H 402.841 1.46638 6.80786 0
M  V30 4373 H 400.468 1.91871 7.35588 0
M  V30 4374 N 402.043 -1.548 -0.295768 0
M  V30 4375 C 403.271 -1.78327 -1.04914 0
M  V30 4376 C 403.686 -0.545316 -1.80753 0
M  V30 4377 O 403.043 0.485013 -1.75937 0
M  V30 4378 C 403.094 -2.99418 -2.02561 0
M  V30 4379 O 402.815 -4.18431 -1.29798 0
M  V30 4380 C 404.316 -3.35375 -2.89895 0
M  V30 4381 H 401.536 -0.594618 -0.310918 0
M  V30 4382 H 404.08 -2.01763 -0.333454 0
M  V30 4383 H 402.235 -2.78175 -2.69624 0
M  V30 4384 H 402.649 -4.86736 -1.95419 0
M  V30 4385 H 404.123 -4.23332 -3.54251 0
M  V30 4386 H 404.6 -2.53761 -3.58472 0
M  V30 4387 H 405.206 -3.58796 -2.28355 0
M  V30 4388 N 403.521 0.559213 -1.47345 0
M  V30 4389 C 404.937 0.884943 -1.32819 0
M  V30 4390 C 405.137 1.98988 -0.317173 0
M  V30 4391 O 404.193 2.51031 0.272011 0
M  V30 4392 C 405.506 1.28007 -2.72093 0
M  V30 4393 C 407.054 1.39161 -2.80363 0
M  V30 4394 C 407.529 1.82031 -4.20272 0
M  V30 4395 N 409.02 1.89185 -4.22804 0
M  V30 4396 C 409.755 2.2368 -5.27973 0
M  V30 4397 N 409.251 2.56802 -6.43447 0
M  V30 4398 N 411.044 2.24436 -5.15349 0
M  V30 4399 H 403.195 -0.170304 -2.11716 0
M  V30 4400 H 405.458 -0.0135247 -0.947904 0
M  V30 4401 H 405.164 0.542027 -3.47498 0
M  V30 4402 H 405.038 2.23665 -3.03733 0
M  V30 4403 H 407.425 2.12048 -2.05231 0
M  V30 4404 H 407.506 0.41696 -2.52379 0
M  V30 4405 H 407.15 1.09715 -4.95908 0
M  V30 4406 H 407.08 2.80495 -4.45679 0
M  V30 4407 H 409.571 1.65982 -3.39497 0
M  V30 4408 H 409.884 2.82144 -7.19454 0
M  V30 4409 H 408.229 2.54387 -6.46771 0
M  V30 4410 H 411.42 1.97998 -4.24163 0
M  V30 4411 H 411.593 2.50989 -5.97418 0
M  V30 4412 N 404.999 1.35443 0.805782 0
M  V30 4413 C 405.946 1.28431 1.91766 0
M  V30 4414 C 406.916 0.156102 1.65365 0
M  V30 4415 O 408.101 0.339936 1.87747 0
M  V30 4416 C 405.241 1.06301 3.2832 0
M  V30 4417 C 404.354 2.2805 3.66902 0
M  V30 4418 C 403.489 1.99064 4.92491 0
M  V30 4419 C 402.528 3.16863 5.23703 0
M  V30 4420 N 401.665 2.87647 6.40471 0
M  V30 4421 H 406.505 2.23511 1.97096 0
M  V30 4422 H 404.042 1.11105 0.964054 0
M  V30 4423 H 406 0.915012 4.07042 0
M  V30 4424 H 404.63 0.148822 3.22457 0
M  V30 4425 H 403.682 2.53711 2.83434 0
M  V30 4426 H 404.994 3.1601 3.85927 0
M  V30 4427 H 404.148 1.81099 5.7904 0
M  V30 4428 H 402.887 1.0839 4.75503 0
M  V30 4429 H 401.892 3.35404 4.35642 0
M  V30 4430 H 403.117 4.08339 5.4262 0
M  V30 4431 H 401.063 1.99568 6.24907 0
M  V30 4432 H 400.98 3.69141 6.59751 0
M  V30 4433 H 402.248 2.73226 7.30047 0
M  V30 4434 N 406.477 -1.02803 1.19454 0
M  V30 4435 C 407.44 -2.09264 0.934955 0
M  V30 4436 C 408.44 -1.60576 -0.0849015 0
M  V30 4437 O 409.63 -1.73554 0.149933 0
M  V30 4438 C 406.762 -3.38482 0.40531 0
M  V30 4439 H 407.955 -2.33726 1.87916 0
M  V30 4440 H 405.508 -1.19426 1.00832 0
M  V30 4441 H 406.243 -3.19689 -0.544899 0
M  V30 4442 H 406.028 -3.75142 1.14065 0
M  V30 4443 H 407.518 -4.16894 0.242806 0
M  V30 4444 N 407.956 -0.998596 -1.21925 0
M  V30 4445 C 409.372 -0.710303 -1.42923 0
M  V30 4446 C 409.572 0.716933 -1.88314 0
M  V30 4447 O 408.628 1.48712 -2.04062 0
M  V30 4448 C 409.941 -1.72072 -2.466 0
M  V30 4449 C 411.489 -1.73681 -2.60392 0
M  V30 4450 C 411.964 -2.73601 -3.67296 0
M  V30 4451 N 413.455 -2.7223 -3.7476 0
M  V30 4452 C 414.19 -3.46206 -4.57087 0
M  V30 4453 N 413.686 -4.29802 -5.43362 0
M  V30 4454 N 415.479 -3.34886 -4.51451 0
M  V30 4455 H 407.63 -1.92028 -0.9077 0
M  V30 4456 H 409.893 -0.828487 -0.460775 0
M  V30 4457 H 409.599 -2.74231 -2.20206 0
M  V30 4458 H 409.473 -1.51818 -3.45299 0
M  V30 4459 H 411.86 -0.722173 -2.86127 0
M  V30 4460 H 411.941 -1.98005 -1.61949 0
M  V30 4461 H 411.585 -3.75217 -3.42307 0
M  V30 4462 H 411.515 -2.46545 -4.65321 0
M  V30 4463 H 414.006 -2.11576 -3.1312 0
M  V30 4464 H 414.319 -4.83061 -6.03218 0
M  V30 4465 H 412.664 -4.33887 -5.42925 0
M  V30 4466 H 415.855 -2.69015 -3.83078 0
M  V30 4467 H 416.028 -3.92796 -5.15379 0
M  V30 4468 N 409.434 1.37368 -0.772513 0
M  V30 4469 C 410.659 2.0447 -0.347386 0
M  V30 4470 C 411.084 1.57882 1.0225 0
M  V30 4471 O 410.442 0.73941 1.65537 0
M  V30 4472 C 410.49 3.58369 -0.400479 0
M  V30 4473 O 409.594 4.0803 0.598789 0
M  V30 4474 H 408.935 0.646773 -0.15027 0
M  V30 4475 H 411.465 1.75667 -1.04892 0
M  V30 4476 H 411.475 4.07183 -0.258045 0
M  V30 4477 H 410.15 3.91633 -1.39986 0
M  V30 4478 H 408.727 3.70534 0.419411 0
M  V30 4479 N 410.912 0.523116 1.48665 0
M  V30 4480 C 412.328 0.180511 1.58576 0
M  V30 4481 C 412.528 -1.31597 1.52592 0
M  V30 4482 O 411.584 -2.0937 1.4114 0
M  V30 4483 C 412.897 0.776949 2.90489 0
M  V30 4484 C 414.445 0.745058 3.04003 0
M  V30 4485 C 414.92 1.31995 4.38567 0
M  V30 4486 N 416.411 1.28162 4.45117 0
M  V30 4487 C 417.146 1.6964 5.47731 0
M  V30 4488 N 416.642 2.18816 6.57337 0
M  V30 4489 N 418.435 1.6092 5.38573 0
M  V30 4490 H 410.586 1.4958 1.50797 0
M  V30 4491 H 412.849 0.621772 0.715614 0
M  V30 4492 H 412.555 1.82732 3.00503 0
M  V30 4493 H 412.429 0.25007 3.7637 0
M  V30 4494 H 414.816 -0.296532 2.93606 0
M  V30 4495 H 414.897 1.30933 2.1975 0
M  V30 4496 H 414.541 2.36043 4.49718 0
M  V30 4497 H 414.471 0.731418 5.21496 0
M  V30 4498 H 416.962 0.92155 3.66491 0
M  V30 4499 H 417.275 2.48478 7.31764 0
M  V30 4500 H 415.62 2.22805 6.58318 0
M  V30 4501 H 418.811 1.22304 4.5184 0
M  V30 4502 H 418.984 1.93567 6.18414 0
M  V30 4503 N 412.39 -1.55475 0.257931 0
M  V30 4504 C 413.3 -2.2549 -0.647425 0
M  V30 4505 C 414.316 -1.2748 -1.18427 0
M  V30 4506 O 415.492 -1.6038 -1.2182 0
M  V30 4507 C 412.557 -2.94916 -1.82278 0
M  V30 4508 C 411.618 -4.08363 -1.32432 0
M  V30 4509 C 410.851 -4.74469 -2.44366 0
M  V30 4510 O 411.074 -4.39701 -3.63344 0
M  V30 4511 O 410.008 -5.62763 -2.13497 0
M  V30 4512 H 413.834 -3.03593 -0.0807707 0
M  V30 4513 H 411.419 -1.49377 0.0259962 0
M  V30 4514 H 413.301 -3.38606 -2.50846 0
M  V30 4515 H 411.976 -2.19744 -2.37685 0
M  V30 4516 H 410.883 -3.69166 -0.605605 0
M  V30 4517 H 412.216 -4.85385 -0.816211 0
M  V30 4518 N 413.868 0.0150385 -1.57593 0
M  V30 4519 C 414.8 1.03912 -2.04291 0
M  V30 4520 C 415.813 1.31618 -0.958146 0
M  V30 4521 O 417.002 1.28859 -1.23522 0
M  V30 4522 C 414.102 2.37749 -2.41514 0
M  V30 4523 C 413.275 2.29198 -3.72541 0
M  V30 4524 C 412.334 3.45598 -3.96797 0
M  V30 4525 O 411.36 3.24461 -4.67668 0
M  V30 4526 N 412.562 4.67945 -3.43523 0
M  V30 4527 H 415.327 0.64099 -2.92765 0
M  V30 4528 H 412.888 0.20272 -1.60626 0
M  V30 4529 H 414.88 3.14364 -2.54867 0
M  V30 4530 H 413.45 2.69357 -1.58637 0
M  V30 4531 H 412.67 1.3759 -3.69408 0
M  V30 4532 H 413.958 2.20642 -4.5847 0
M  V30 4533 H 413.356 4.88017 -2.86104 0
M  V30 4534 H 411.913 5.41878 -3.62232 0
M  V30 4535 N 415.346 1.54954 0.287554 0
M  V30 4536 C 416.574 1.78881 1.03967 0
M  V30 4537 C 416.989 0.554894 1.80462 0
M  V30 4538 O 416.346 -0.475676 1.76192 0
M  V30 4539 C 416.397 3.00488 2.0097 0
M  V30 4540 O 416.118 4.19113 1.27577 0
M  V30 4541 C 417.619 3.36907 2.88112 0
M  V30 4542 H 414.839 0.596259 0.307761 0
M  V30 4543 H 417.383 2.01937 0.322749 0
M  V30 4544 H 415.538 2.79601 2.68145 0
M  V30 4545 H 415.952 4.87765 1.92835 0
M  V30 4546 H 417.426 4.25205 3.52001 0
M  V30 4547 H 417.903 2.55659 3.57121 0
M  V30 4548 H 418.509 3.60001 2.26449 0
M  V30 4549 N 416.824 -0.551391 1.4764 0
M  V30 4550 C 418.071 -1.3083 1.54563 0
M  V30 4551 C 418.399 -1.93359 0.210361 0
M  V30 4552 O 417.654 -1.78721 -0.797332 0
M  V30 4553 C 417.953 -2.43469 2.61644 0
M  V30 4554 C 417.619 -1.98732 4.04742 0
M  V30 4555 C 416.281 -1.86248 4.43695 0
M  V30 4556 C 418.633 -1.64659 4.94507 0
M  V30 4557 C 415.961 -1.37995 5.70241 0
M  V30 4558 C 418.313 -1.17875 6.21521 0
M  V30 4559 C 416.977 -1.03992 6.5935 0
M  V30 4560 H 416.247 -0.478741 0.565587 0
M  V30 4561 H 418.894 -0.617697 1.81264 0
M  V30 4562 H 417.199 -3.18109 2.28722 0
M  V30 4563 H 418.896 -3.01642 2.64222 0
M  V30 4564 H 415.486 -2.09393 3.73968 0
M  V30 4565 H 419.67 -1.73174 4.65107 0
M  V30 4566 H 414.926 -1.25915 5.98294 0
M  V30 4567 H 419.1 -0.905739 6.90485 0
M  V30 4568 H 416.727 -0.663794 7.57296 0
M  V30 4569 N 418.302 -1.35869 -0.798587 0
M  V30 4570 C 419.55 -1.29332 -1.55298 0
M  V30 4571 C 419.871 0.129729 -1.94568 0
M  V30 4572 O 419.141 1.06796 -1.6423 0
M  V30 4573 H 417.721 -0.475737 -0.57592 0
M  V30 4574 H 420.383 -1.70062 -0.952093 0
M  V30 4575 H 419.479 -1.91458 -2.46476 0
M  V30 4576 N 419.78 1.02168 -1.19998 0
M  V30 4577 C 420.728 2.12717 -0.940967 0
M  V30 4578 C 421.722 1.69069 0.105841 0
M  V30 4579 O 422.928 1.79946 -0.0440583 0
M  V30 4580 H 419.303 0.695108 -0.28693 0
M  V30 4581 H 421.274 2.3175 -1.87975 0
M  V30 4582 C 420.023 3.44027 -0.504049 0
M  V30 4583 H 419.346 3.78036 -1.30112 0
M  V30 4584 H 420.786 4.22452 -0.361991 0
M  V30 4585 C 419.245 3.27678 0.782878 0
M  V30 4586 O 419.775 3.56949 1.84256 0
M  V30 4587 N 417.981 2.80943 0.742921 0
M  V30 4588 H 417.528 2.57322 -0.119687 0
M  V30 4589 H 417.486 2.70385 1.60435 0
M  V30 4590 N 421.258 1.00505 1.21394 0
M  V30 4591 C 422.206 0.558623 2.25792 0
M  V30 4592 C 423.2 -0.396848 1.64686 0
M  V30 4593 O 424.406 -0.268035 1.77993 0
M  V30 4594 H 420.781 0.1623 0.734277 0
M  V30 4595 H 422.752 1.4503 2.60785 0
M  V30 4596 C 421.501 -0.0989574 3.47559 0
M  V30 4597 H 420.824 0.627225 3.94849 0
M  V30 4598 H 422.264 -0.3746 4.22342 0
M  V30 4599 C 420.723 -1.33817 3.09184 0
M  V30 4600 O 421.253 -2.43252 3.19674 0
M  V30 4601 N 419.459 -1.21793 2.63846 0
M  V30 4602 H 419.006 -0.32746 2.5551 0
M  V30 4603 H 418.964 -2.04809 2.38539 0
M  V30 4604 N 422.737 -1.36956 0.779787 0
M  V30 4605 C 423.986 -1.98738 0.344405 0
M  V30 4606 C 424.299 -1.62596 -1.08728 0
M  V30 4607 O 425.505 -2.1754 -1.62445 0
M  V30 4608 C 423.961 -3.5544 0.564829 0
M  V30 4609 C 423.569 -4.00514 2.0073 0
M  V30 4610 C 425.313 -4.24059 0.193471 0
M  V30 4611 C 423.22 -5.49957 2.17489 0
M  V30 4612 H 422.15 -0.743561 0.12503 0
M  V30 4613 H 424.801 -1.56381 0.960057 0
M  V30 4614 H 423.183 -3.95817 -0.120397 0
M  V30 4615 H 424.357 -3.71362 2.72814 0
M  V30 4616 H 422.672 -3.44703 2.336 0
M  V30 4617 H 425.269 -5.33874 0.297097 0
M  V30 4618 H 425.612 -4.07378 -0.857263 0
M  V30 4619 H 426.145 -3.89012 0.831556 0
M  V30 4620 H 422.884 -5.71574 3.2091 0
M  V30 4621 H 422.404 -5.80767 1.49899 0
M  V30 4622 H 424.083 -6.16043 1.97738 0
M  V30 4623 N 424.215 -0.530993 -1.48385 0
M  V30 4624 C 425.463 0.00273189 -2.021 0
M  V30 4625 C 425.784 1.34672 -1.41027 0
M  V30 4626 O 425.054 1.8724 -0.576012 0
M  V30 4627 H 423.634 0.00399774 -0.746989 0
M  V30 4628 H 426.296 -0.695054 -1.82085 0
M  V30 4629 H 425.392 0.11031 -3.11905 0
M  V30 4630 N 425.693 1.55336 -0.266172 0
M  V30 4631 C 426.941 1.99003 0.35246 0
M  V30 4632 C 427.262 1.15591 1.57047 0
M  V30 4633 O 426.532 0.243268 1.94384 0
M  V30 4634 H 425.112 0.735025 0.133217 0
M  V30 4635 H 427.774 1.91367 -0.369434 0
M  V30 4636 H 426.87 3.05289 0.648453 0
M  V30 4637 N 427.171 -0.0066808 1.57599 0
M  V30 4638 C 428.104 -1.03397 2.03431 0
M  V30 4639 C 429.082 -1.33872 0.922877 0
M  V30 4640 O 430.266 -1.4615 1.19048 0
M  V30 4641 C 427.393 -2.36325 2.42628 0
M  V30 4642 C 426.439 -2.21557 3.64438 0
M  V30 4643 S 427.272 -1.54789 5.12641 0
M  V30 4644 C 428.428 -2.8916 5.55101 0
M  V30 4645 H 428.661 -0.643687 2.90248 0
M  V30 4646 H 426.194 -0.217349 1.52863 0
M  V30 4647 H 428.152 -3.12759 2.65879 0
M  V30 4648 H 426.813 -2.72495 1.56222 0
M  V30 4649 H 426.006 -3.1974 3.89592 0
M  V30 4650 H 425.608 -1.53267 3.41153 0
M  V30 4651 H 427.9 -3.8547 5.57153 0
M  V30 4652 H 428.843 -2.68713 6.55133 0
M  V30 4653 H 429.251 -2.92762 4.82649 0
M  V30 4654 N 428.649 -1.55105 -0.279332 0
M  V30 4655 C 429.877 -1.7943 -1.03017 0
M  V30 4656 C 430.292 -0.564456 -1.80165 0
M  V30 4657 O 429.649 0.466326 -1.76442 0
M  V30 4658 C 429.7 -3.0155 -1.99374 0
M  V30 4659 O 429.421 -4.19784 -1.25352 0
M  V30 4660 C 430.922 -3.3843 -2.86321 0
M  V30 4661 H 428.142 -0.597882 -0.304594 0
M  V30 4662 H 430.686 -2.02105 -0.312035 0
M  V30 4663 H 428.841 -2.81019 -2.66659 0
M  V30 4664 H 429.255 -4.88781 -1.90246 0
M  V30 4665 H 430.729 -4.27066 -3.49741 0
M  V30 4666 H 431.206 -2.57549 -3.5576 0
M  V30 4667 H 431.812 -3.61197 -2.24536 0
M  V30 4668 N 430.127 0.543554 -1.4793 0
M  V30 4669 C 431.077 1.64527 -1.57844 0
M  V30 4670 C 432.061 1.54869 -0.436408 0
M  V30 4671 O 433.253 1.63119 -0.687101 0
M  V30 4672 C 430.382 3.03281 -1.6086 0
M  V30 4673 C 429.468 3.18093 -2.80495 0
M  V30 4674 N 429.859 3.02923 -4.05057 0
M  V30 4675 C 428.157 3.49121 -2.77543 0
M  V30 4676 C 428.858 3.20791 -4.85251 0
M  V30 4677 N 427.834 3.47749 -4.17818 0
M  V30 4678 H 431.636 1.51388 -2.5191 0
M  V30 4679 H 429.15 0.748671 -1.44113 0
M  V30 4680 H 431.147 3.82403 -1.66054 0
M  V30 4681 H 429.807 3.17521 -0.678996 0
M  V30 4682 H 430.818 2.79966 -4.35705 0
M  V30 4683 H 427.495 3.69804 -1.93781 0
M  V30 4684 H 428.885 3.13915 -5.9406 0
M  V30 4685 N 431.605 1.3629 0.791371 0
M  V30 4686 C 432.882 1.20962 1.53712 0
M  V30 4687 C 433.262 -0.205021 2.10102 0
M  V30 4688 O 432.61 -1.21042 1.93807 0
M  V30 4689 C 432.82 2.29002 2.63361 0
M  V30 4690 C 434.168 2.65572 3.31295 0
M  V30 4691 O 435.192 2.2803 2.73643 0
M  V30 4692 O 434.051 3.3018 4.35481 0
M  V30 4693 H 431.145 0.47086 0.679867 0
M  V30 4694 H 433.691 1.48016 0.830021 0
M  V30 4695 H 432.463 3.2382 2.19674 0
M  V30 4696 H 432.086 2.03303 3.41692 0
M  V30 4697 N 433.083 -1.0153 1.20538 0
M  V30 4698 C 434.329 -1.75517 1.02787 0
M  V30 4699 C 434.684 -1.87411 -0.435289 0
M  V30 4700 O 433.977 -1.38982 -1.31889 0
M  V30 4701 C 434.171 -3.17213 1.64654 0
M  V30 4702 C 434 -3.19134 3.16834 0
M  V30 4703 C 432.77 -3.26301 3.85818 0
M  V30 4704 C 434.968 -3.05077 4.14044 0
M  V30 4705 N 432.95 -3.17739 5.25276 0
M  V30 4706 C 434.321 -3.04299 5.40187 0
M  V30 4707 C 436.376 -2.89303 4.05226 0
M  V30 4708 C 435.079 -2.89365 6.58529 0
M  V30 4709 C 437.105 -2.75723 5.23193 0
M  V30 4710 C 436.467 -2.75612 6.48242 0
M  V30 4711 H 432.566 -0.652919 0.430373 0
M  V30 4712 H 435.15 -1.20755 1.52729 0
M  V30 4713 H 433.321 -3.70266 1.17294 0
M  V30 4714 H 435.053 -3.79637 1.40208 0
M  V30 4715 H 431.808 -3.33078 3.36684 0
M  V30 4716 H 432.232 -3.16829 5.98288 0
M  V30 4717 H 436.874 -2.88201 3.09354 0
M  V30 4718 H 434.592 -2.89216 7.54573 0
M  V30 4719 H 438.178 -2.64533 5.18183 0
M  V30 4720 H 437.058 -2.65224 7.37988 0
M  V30 4721 N 434.561 -1.01147 -1.20859 0
M  V30 4722 C 435.808 -0.697865 -1.90095 0
M  V30 4723 C 436.136 0.772014 -1.78522 0
M  V30 4724 O 435.391 1.57595 -1.16027 0
M  V30 4725 C 435.69 -1.0727 -3.40922 0
M  V30 4726 C 435.356 -2.53792 -3.72693 0
M  V30 4727 C 434.018 -2.93829 -3.81075 0
M  V30 4728 C 436.37 -3.48674 -3.87397 0
M  V30 4729 C 433.698 -4.27696 -4.01613 0
M  V30 4730 C 436.05 -4.82223 -4.09444 0
M  V30 4731 C 434.714 -5.21973 -4.16054 0
M  V30 4732 H 433.984 -0.255367 -0.695607 0
M  V30 4733 H 436.631 -1.27111 -1.43231 0
M  V30 4734 H 434.936 -0.417799 -3.89566 0
M  V30 4735 H 436.633 -0.807818 -3.92779 0
M  V30 4736 H 433.223 -2.21768 -3.66765 0
M  V30 4737 H 437.407 -3.18904 -3.80281 0
M  V30 4738 H 432.663 -4.58055 -4.04964 0
M  V30 4739 H 436.837 -5.55672 -4.19763 0
M  V30 4740 H 434.464 -6.25717 -4.31721 0
M  V30 4741 N 436.039 1.36541 -0.78704 0
M  V30 4742 C 437.002 2.28413 -0.189778 0
M  V30 4743 C 438.002 1.48719 0.611499 0
M  V30 4744 O 439.192 1.68737 0.432842 0
M  V30 4745 C 436.324 3.32824 0.737638 0
M  V30 4746 H 437.517 2.82743 -0.999831 0
M  V30 4747 H 435.07 1.46065 -0.556298 0
M  V30 4748 H 435.805 2.83646 1.57212 0
M  V30 4749 H 435.59 3.91752 0.165044 0
M  V30 4750 H 437.08 4.0144 1.15047 0
M  V30 4751 N 437.518 0.538854 1.48102 0
M  V30 4752 C 438.743 0.0102694 2.07397 0
M  V30 4753 C 439.168 -1.26562 1.39153 0
M  V30 4754 O 438.526 -1.75357 0.460387 0
M  V30 4755 C 438.574 -0.187602 3.60112 0
M  V30 4756 O 437.678 -1.25432 3.92862 0
M  V30 4757 H 437.019 0.0430975 0.6626 0
M  V30 4758 H 439.549 0.749301 1.90385 0
M  V30 4759 H 439.559 -0.407517 4.0596 0
M  V30 4760 H 438.234 0.744386 4.09184 0
M  V30 4761 H 436.811 -1.01636 3.58782 0
M  V30 4762 N 438.996 -1.55193 0.274407 0
M  V30 4763 C 440.224 -2.03987 -0.345943 0
M  V30 4764 C 440.639 -1.15279 -1.4952 0
M  V30 4765 O 439.996 -0.172759 -1.8168 0
M  V30 4766 C 440.047 -3.51898 -0.827631 0
M  V30 4767 O 439.768 -4.37231 0.275855 0
M  V30 4768 C 441.269 -4.16577 -1.51587 0
M  V30 4769 H 438.489 -0.666335 -0.0789892 0
M  V30 4770 H 441.033 -2.00423 0.406294 0
M  V30 4771 H 439.188 -3.55909 -1.52996 0
M  V30 4772 H 439.602 -5.24415 -0.0943638 0
M  V30 4773 H 441.076 -5.21678 -1.80433 0
M  V30 4774 H 441.553 -3.64707 -2.44716 0
M  V30 4775 H 442.159 -4.16568 -0.857409 0
M  V30 4776 N 440.474 -0.00167713 -1.576 0
M  V30 4777 C 441.437 0.974046 -2.07473 0
M  V30 4778 C 442.437 1.27143 -0.984444 0
M  V30 4779 O 443.627 1.21633 -1.24703 0
M  V30 4780 C 440.759 2.29849 -2.51759 0
M  V30 4781 H 441.952 0.54262 -2.9495 0
M  V30 4782 H 439.505 0.245829 -1.54355 0
M  V30 4783 H 440.24 2.77677 -1.67529 0
M  V30 4784 H 440.025 2.09584 -3.31386 0
M  V30 4785 H 441.515 2.9984 -2.90664 0
M  V30 4786 N 441.952 1.55251 0.271103 0
M  V30 4787 C 442.882 1.9127 1.33933 0
M  V30 4788 C 443.863 0.77478 1.5143 0
M  V30 4789 O 445.048 1.03307 1.64442 0
M  V30 4790 C 442.178 2.18627 2.69851 0
M  V30 4791 C 441.132 3.34442 2.67081 0
M  V30 4792 C 440.458 3.47284 4.06569 0
M  V30 4793 C 441.758 4.70784 2.26185 0
M  V30 4794 H 443.452 2.80744 1.04035 0
M  V30 4795 H 440.998 1.35077 0.499017 0
M  V30 4796 H 442.951 2.42413 3.44694 0
M  V30 4797 H 441.675 1.25955 3.01335 0
M  V30 4798 H 440.334 3.10627 1.94695 0
M  V30 4799 H 439.982 2.52074 4.35279 0
M  V30 4800 H 439.682 4.25152 4.0561 0
M  V30 4801 H 441.206 3.73363 4.83148 0
M  V30 4802 H 442.62 4.94102 2.90751 0
M  V30 4803 H 441.017 5.51582 2.36384 0
M  V30 4804 H 442.087 4.69478 1.21319 0
M  V30 4805 N 443.43 -0.535701 1.48216 0
M  V30 4806 C 444.677 -1.29183 1.55942 0
M  V30 4807 C 445.005 -1.93125 0.230857 0
M  V30 4808 O 444.26 -1.79556 -0.778331 0
M  V30 4809 C 444.559 -2.4068 2.64212 0
M  V30 4810 C 444.225 -1.94428 4.06827 0
M  V30 4811 C 442.887 -1.81532 4.45645 0
M  V30 4812 C 445.239 -1.59405 4.96225 0
M  V30 4813 C 442.567 -1.31939 5.71672 0
M  V30 4814 C 444.919 -1.11276 6.22736 0
M  V30 4815 C 443.583 -0.969924 6.60416 0
M  V30 4816 H 442.853 -0.472715 0.570632 0
M  V30 4817 H 445.5 -0.598437 1.81909 0
M  V30 4818 H 443.805 -3.15666 2.32083 0
M  V30 4819 H 445.502 -2.98822 2.67407 0
M  V30 4820 H 442.092 -2.05415 3.76168 0
M  V30 4821 H 446.276 -1.68231 4.66917 0
M  V30 4822 H 441.532 -1.19562 5.99596 0
M  V30 4823 H 445.706 -0.832453 6.91407 0
M  V30 4824 H 443.333 -0.583436 7.57958 0
M  V30 4825 N 444.908 -1.36708 -0.784132 0
M  V30 4826 C 445.856 -1.31533 -1.91838 0
M  V30 4827 C 446.85 -0.206205 -1.6814 0
M  V30 4828 O 448.056 -0.373519 -1.76082 0
M  V30 4829 H 444.431 -0.409613 -0.630651 0
M  V30 4830 H 446.402 -2.2731 -1.9332 0
M  V30 4831 C 445.151 -1.12679 -3.28936 0
M  V30 4832 H 444.474 -1.97274 -3.4774 0
M  V30 4833 H 445.914 -1.13106 -4.08636 0
M  V30 4834 C 444.373 0.168281 -3.36479 0
M  V30 4835 O 444.903 1.15625 -3.84699 0
M  V30 4836 N 443.109 0.214762 -2.89805 0
M  V30 4837 H 442.656 -0.589852 -2.50756 0
M  V30 4838 H 442.614 1.08094 -2.95234 0
M  V30 4839 N 446.386 1.0089 -1.21074 0
M  V30 4840 C 447.663 1.71834 -0.934469 0
M  V30 4841 C 448.043 2.0368 0.554753 0
M  V30 4842 O 447.391 1.70742 1.51854 0
M  V30 4843 C 447.601 2.98061 -1.8155 0
M  V30 4844 C 448.949 3.7117 -2.06199 0
M  V30 4845 O 449.973 3.08034 -1.78867 0
M  V30 4846 O 448.832 4.84721 -2.52404 0
M  V30 4847 H 445.926 0.749253 -0.35007 0
M  V30 4848 H 448.472 1.06668 -1.31985 0
M  V30 4849 H 447.244 2.70908 -2.82355 0
M  V30 4850 H 446.867 3.70968 -1.43068 0
M  V30 4851 N 447.864 1.01787 1.20321 0
M  V30 4852 C 448.827 0.593972 2.2137 0
M  V30 4853 C 449.827 -0.336553 1.57239 0
M  V30 4854 O 451.017 -0.125069 1.7375 0
M  V30 4855 C 448.149 -0.132433 3.40643 0
M  V30 4856 H 449.342 1.48791 2.60387 0
M  V30 4857 H 446.895 0.807803 1.33807 0
M  V30 4858 H 447.63 -1.04123 3.0713 0
M  V30 4859 H 447.415 0.53605 3.88418 0
M  V30 4860 H 448.905 -0.416314 4.1552 0
M  V30 4861 N 449.342 -1.36122 0.79427 0
M  V30 4862 C 450.272 -2.32551 0.210328 0
M  V30 4863 C 451.253 -1.56884 -0.657386 0
M  V30 4864 O 452.438 -1.85014 -0.590207 0
M  V30 4865 C 449.568 -3.41128 -0.651819 0
M  V30 4866 C 448.522 -4.27842 0.116395 0
M  V30 4867 C 447.848 -5.2763 -0.86666 0
M  V30 4868 C 449.148 -5.05647 1.30837 0
M  V30 4869 H 450.842 -2.81636 1.01594 0
M  V30 4870 H 448.388 -1.35407 0.489981 0
M  V30 4871 H 450.341 -4.07581 -1.07031 0
M  V30 4872 H 449.065 -2.90622 -1.49019 0
M  V30 4873 H 447.724 -3.62952 0.515915 0
M  V30 4874 H 447.372 -4.73395 -1.70019 0
M  V30 4875 H 447.072 -5.86514 -0.35705 0
M  V30 4876 H 448.596 -5.96955 -1.28361 0
M  V30 4877 H 450.01 -5.65113 0.965393 0
M  V30 4878 H 448.407 -5.73967 1.75161 0
M  V30 4879 H 449.477 -4.37006 2.10128 0
M  V30 4880 N 450.82 -0.546701 -1.47814 0
M  V30 4881 C 452.045 -0.021268 -2.07389 0
M  V30 4882 C 452.47 1.25822 -1.39822 0
M  V30 4883 O 451.828 1.75111 -0.46968 0
M  V30 4884 C 451.876 0.168502 -3.60206 0
M  V30 4885 O 450.98 1.23347 -3.93522 0
M  V30 4886 H 450.321 -0.0466108 -0.662362 0
M  V30 4887 H 452.851 -0.759387 -1.89985 0
M  V30 4888 H 452.861 0.385982 -4.0617 0
M  V30 4889 H 451.536 -0.766075 -4.08784 0
M  V30 4890 H 450.113 0.997319 -3.59316 0
M  V30 4891 N 452.299 1.55045 -0.282633 0
M  V30 4892 C 453.246 2.22822 0.601566 0
M  V30 4893 C 454.216 1.20431 1.14392 0
M  V30 4894 O 455.401 1.48996 1.19184 0
M  V30 4895 C 452.541 2.95873 1.77632 0
M  V30 4896 C 451.654 4.12999 1.26711 0
M  V30 4897 C 450.789 4.73676 2.40426 0
M  V30 4898 C 449.828 5.82981 1.86545 0
M  V30 4899 N 448.965 6.3769 2.93762 0
M  V30 4900 H 453.805 2.97995 0.0169528 0
M  V30 4901 H 451.342 1.471 -0.00339964 0
M  V30 4902 H 453.3 3.36447 2.46697 0
M  V30 4903 H 451.93 2.2311 2.33285 0
M  V30 4904 H 450.982 3.77494 0.469314 0
M  V30 4905 H 452.294 4.91803 0.832518 0
M  V30 4906 H 451.448 5.17008 3.17471 0
M  V30 4907 H 450.187 3.94164 2.87203 0
M  V30 4908 H 449.192 5.39092 1.07983 0
M  V30 4909 H 450.417 6.64366 1.40694 0
M  V30 4910 H 448.363 5.61069 3.39908 0
M  V30 4911 H 448.28 7.11788 2.54744 0
M  V30 4912 H 449.548 6.8568 3.7076 0
M  V30 4913 N 453.777 0.010035 1.57597 0
M  V30 4914 C 454.725 -0.996272 2.10184 0
M  V30 4915 C 455.719 -1.34942 1.02406 0
M  V30 4916 O 456.925 -1.33389 1.20861 0
M  V30 4917 H 453.3 -0.338982 0.671264 0
M  V30 4918 H 455.271 -0.527272 2.93705 0
M  V30 4919 C 454.02 -2.27599 2.62857 0
M  V30 4920 H 453.343 -2.01295 3.45428 0
M  V30 4921 H 454.783 -2.96265 3.0332 0
M  V30 4922 C 453.242 -2.99269 1.54725 0
M  V30 4923 O 453.772 -3.90644 0.93597 0
M  V30 4924 N 451.978 -2.61269 1.27228 0
M  V30 4925 H 451.525 -1.87043 1.77123 0
M  V30 4926 H 451.483 -3.09534 0.550999 0
M  V30 4927 N 455.255 -1.55392 -0.262866 0
M  V30 4928 C 456.504 -1.75679 -0.990943 0
M  V30 4929 C 456.817 -0.57097 -1.87081 0
M  V30 4930 O 458.023 -0.656486 -2.63444 0
M  V30 4931 C 456.479 -3.10964 -1.81188 0
M  V30 4932 C 456.087 -4.37146 -0.980188 0
M  V30 4933 C 457.831 -3.40597 -2.53365 0
M  V30 4934 C 455.738 -5.63466 -1.7961 0
M  V30 4935 H 454.668 -0.654868 -0.373716 0
M  V30 4936 H 457.319 -1.81841 -0.246203 0
M  V30 4937 H 455.701 -2.98867 -2.59797 0
M  V30 4938 H 456.875 -4.60187 -0.237558 0
M  V30 4939 H 455.19 -4.14731 -0.372497 0
M  V30 4940 H 457.787 -4.32186 -3.14833 0
M  V30 4941 H 458.13 -2.6119 -3.24169 0
M  V30 4942 H 458.663 -3.53838 -1.81779 0
M  V30 4943 H 455.402 -6.4565 -1.13209 0
M  V30 4944 H 454.922 -5.44552 -2.51443 0
M  V30 4945 H 456.601 -6.02139 -2.36723 0
M  V30 4946 N 456.733 0.527833 -1.48498 0
M  V30 4947 C 458.144 1.10975 -1.50138 0
M  V30 4948 C 458.495 1.943 -0.272378 0
M  V30 4949 O 457.62 2.07319 0.620301 0
M  V30 4950 C 458.215 2.01927 -2.72049 0
M  V30 4951 C 456.774 2.55332 -2.76554 0
M  V30 4952 C 455.921 1.32341 -2.43683 0
M  V30 4953 H 458.872 0.312986 -1.55583 0
M  V30 4954 H 458.893 2.86244 -2.50689 0
M  V30 4955 H 458.405 1.41254 -3.61481 0
M  V30 4956 H 456.506 3.19721 -1.91336 0
M  V30 4957 H 456.619 2.94319 -3.78038 0
M  V30 4958 H 454.983 1.63989 -1.94884 0
M  V30 4959 H 455.766 0.734165 -3.35358 0
M  V30 4960 N 458.211 1.37122 0.776871 0
M  V30 4961 C 459.459 1.31787 1.53221 0
M  V30 4962 C 459.78 -0.0987589 1.9475 0
M  V30 4963 O 459.05 -1.0417 1.65908 0
M  V30 4964 H 457.63 0.484839 0.568278 0
M  V30 4965 H 460.292 1.71556 0.924917 0
M  V30 4966 H 459.388 1.95355 2.43398 0
M  V30 4967 N 459.689 -1.00246 1.21608 0
M  V30 4968 C 460.936 -1.74061 1.03485 0
M  V30 4969 C 461.264 -1.89658 -0.431308 0
M  V30 4970 O 460.519 -1.42976 -1.33627 0
M  V30 4971 C 460.818 -3.15448 1.68009 0
M  V30 4972 C 460.484 -3.19792 3.17874 0
M  V30 4973 C 459.146 -3.20685 3.58768 0
M  V30 4974 C 461.498 -3.16835 4.13842 0
M  V30 4975 C 458.826 -3.16309 4.94131 0
M  V30 4976 C 461.178 -3.14001 5.49169 0
M  V30 4977 C 459.842 -3.13204 5.89457 0
M  V30 4978 H 459.112 -0.636934 0.378677 0
M  V30 4979 H 461.759 -1.17473 1.51236 0
M  V30 4980 H 460.064 -3.75284 1.12557 0
M  V30 4981 H 461.761 -3.71285 1.51487 0
M  V30 4982 H 458.351 -3.19842 2.85305 0
M  V30 4983 H 462.535 -3.15303 3.83272 0
M  V30 4984 H 457.791 -3.14032 5.24589 0
M  V30 4985 H 461.965 -3.10667 6.23265 0
M  V30 4986 H 459.592 -3.09568 6.94314 0
M  V30 4987 N 461.167 -1.02423 -1.1978 0
M  V30 4988 C 462.114 -0.601023 -2.22837 0
M  V30 4989 C 463.084 0.382801 -1.61629 0
M  V30 4990 O 464.269 0.280514 -1.88727 0
M  V30 4991 C 461.409 0.0467755 -3.45068 0
M  V30 4992 C 460.522 -0.98253 -4.20678 0
M  V30 4993 C 459.657 -0.304982 -5.30324 0
M  V30 4994 C 458.696 -1.32052 -5.97686 0
M  V30 4995 N 457.833 -0.669105 -6.98904 0
M  V30 4996 H 462.673 -1.48444 -2.58396 0
M  V30 4997 H 460.21 -0.742936 -1.2696 0
M  V30 4998 H 462.168 0.439556 -4.14878 0
M  V30 4999 H 460.798 0.893796 -3.10179 0
M  V30 5000 H 459.85 -1.49341 -3.49859 0
M  V30 5001 H 461.162 -1.75455 -4.66923 0
M  V30 5002 H 460.316 0.142893 -6.06532 0
M  V30 5003 H 459.055 0.499283 -4.85138 0
M  V30 5004 H 458.06 -1.7787 -5.20233 0
M  V30 5005 H 459.285 -2.1262 -6.44957 0
M  V30 5006 H 457.231 0.115152 -6.55899 0
M  V30 5007 H 457.148 -1.37908 -7.43315 0
M  V30 5008 H 458.416 -0.245076 -7.79115 0
M  V30 5009 N 462.645 1.35699 -0.801477 0
M  V30 5010 C 463.575 2.32436 -0.222658 0
M  V30 5011 C 464.556 1.5723 0.649057 0
M  V30 5012 O 465.741 1.85324 0.580387 0
M  V30 5013 C 462.871 3.41469 0.633719 0
M  V30 5014 C 461.825 4.27774 -0.139083 0
M  V30 5015 C 461.151 5.28082 0.838666 0
M  V30 5016 C 462.451 5.04946 -1.33517 0
M  V30 5017 H 464.145 2.81094 -1.03086 0
M  V30 5018 H 461.691 1.35146 -0.497155 0
M  V30 5019 H 463.644 4.08143 1.04868 0
M  V30 5020 H 462.368 2.91408 1.47475 0
M  V30 5021 H 461.027 3.62673 -0.535156 0
M  V30 5022 H 460.675 4.7429 1.67506 0
M  V30 5023 H 460.375 5.86695 0.32594 0
M  V30 5024 H 461.899 5.97628 1.25194 0
M  V30 5025 H 463.313 5.64593 -0.995349 0
M  V30 5026 H 461.71 5.7303 -1.78202 0
M  V30 5027 H 462.78 4.35886 -2.12442 0
M  V30 5028 N 464.123 0.554532 1.47522 0
M  V30 5029 C 465.369 0.0295227 2.02779 0
M  V30 5030 C 465.702 -1.31582 1.42828 0
M  V30 5031 O 464.977 -1.85561 0.582872 0
M  V30 5032 C 465.26 -0.0664057 3.60039 0
M  V30 5033 C 465.113 1.30585 4.30427 0
M  V30 5034 C 466.432 -0.781162 4.33112 0
M  V30 5035 H 463.551 0.0122027 0.736899 0
M  V30 5036 H 466.193 0.716305 1.7598 0
M  V30 5037 H 464.343 -0.651307 3.83002 0
M  V30 5038 H 466.015 1.93374 4.18813 0
M  V30 5039 H 464.258 1.88125 3.90886 0
M  V30 5040 H 464.929 1.19147 5.38988 0
M  V30 5041 H 467.405 -0.284565 4.15126 0
M  V30 5042 H 466.281 -0.817237 5.42782 0
M  V30 5043 H 466.542 -1.83672 4.0214 0
M  V30 5044 N 465.601 -1.54893 0.290851 0
M  V30 5045 C 467.012 -1.85584 -0.203816 0
M  V30 5046 C 467.363 -1.21285 -1.54222 0
M  V30 5047 O 466.488 -0.506841 -2.10381 0
M  V30 5048 C 467.083 -3.367 -0.376595 0
M  V30 5049 C 465.642 -3.6746 -0.815485 0
M  V30 5050 C 464.789 -2.77178 0.0821087 0
M  V30 5051 H 467.74 -1.50208 0.512175 0
M  V30 5052 H 467.761 -3.60656 -1.21275 0
M  V30 5053 H 467.273 -3.8347 0.59767 0
M  V30 5054 H 465.374 -3.26201 -1.80066 0
M  V30 5055 H 465.487 -4.7478 -0.641905 0
M  V30 5056 H 463.851 -2.50925 -0.436895 0
M  V30 5057 H 464.634 -3.26767 1.05254 0
M  V30 5058 N 467.08 -0.0183926 -1.57589 0
M  V30 5059 C 468.013 1.00148 -2.0505 0
M  V30 5060 C 468.991 1.32387 -0.944058 0
M  V30 5061 O 470.175 1.44237 -1.21358 0
M  V30 5062 C 467.302 2.32435 -2.46357 0
M  V30 5063 C 466.348 2.15731 -3.67916 0
M  V30 5064 S 467.181 1.46613 -5.15039 0
M  V30 5065 C 468.337 2.80293 -5.59631 0
M  V30 5066 H 468.57 0.597429 -2.91235 0
M  V30 5067 H 466.103 0.193002 -1.53189 0
M  V30 5068 H 468.061 3.0849 -2.70822 0
M  V30 5069 H 466.722 2.69975 -1.60537 0
M  V30 5070 H 465.915 3.13502 -3.9463 0
M  V30 5071 H 465.517 1.4782 -3.43548 0
M  V30 5072 H 467.809 3.76557 -5.63215 0
M  V30 5073 H 468.752 2.58256 -6.59325 0
M  V30 5074 H 469.16 2.85047 -4.87246 0
M  V30 5075 N 468.558 1.5553 0.254621 0
M  V30 5076 C 469.521 1.88872 1.29846 0
M  V30 5077 C 470.521 0.764591 1.41459 0
M  V30 5078 O 471.711 1.03265 1.40293 0
M  V30 5079 C 468.843 2.11032 2.67728 0
M  V30 5080 H 470.036 2.82201 1.01502 0
M  V30 5081 H 467.589 1.48303 0.493556 0
M  V30 5082 H 468.324 1.20146 3.01223 0
M  V30 5083 H 468.109 2.92895 2.60682 0
M  V30 5084 H 469.599 2.38038 3.43115 0
M  V30 5085 N 470.036 -0.519951 1.48776 0
M  V30 5086 C 471.447 -1.10177 1.50725 0
M  V30 5087 C 471.798 -1.94153 0.282678 0
M  V30 5088 O 470.923 -2.07645 -0.609298 0
M  V30 5089 C 471.518 -2.00482 2.73116 0
M  V30 5090 C 470.077 -2.53862 2.77905 0
M  V30 5091 C 469.224 -1.31047 2.44381 0
M  V30 5092 H 472.175 -0.30473 1.55747 0
M  V30 5093 H 472.196 -2.8491 2.52203 0
M  V30 5094 H 471.708 -1.39335 3.62225 0
M  V30 5095 H 469.809 -3.18702 1.93029 0
M  V30 5096 H 469.922 -2.9231 3.79594 0
M  V30 5097 H 468.286 -1.62953 1.95751 0
M  V30 5098 H 469.069 -0.71637 3.35743 0
M  V30 5099 N 471.514 -1.37532 -0.769588 0
M  V30 5100 C 472.925 -1.29382 -1.346 0
M  V30 5101 C 473.276 0.0576039 -1.96115 0
M  V30 5102 O 472.401 0.95947 -1.93967 0
M  V30 5103 C 472.996 -2.34298 -2.44724 0
M  V30 5104 C 471.555 -2.29776 -2.98128 0
M  V30 5105 C 470.702 -2.18013 -1.71364 0
M  V30 5106 H 473.653 -1.48123 -0.56968 0
M  V30 5107 H 473.674 -1.99089 -3.24259 0
M  V30 5108 H 473.186 -3.32645 -1.99922 0
M  V30 5109 H 471.287 -1.34959 -3.47299 0
M  V30 5110 H 471.4 -3.23276 -3.53595 0
M  V30 5111 H 469.764 -1.64595 -1.94372 0
M  V30 5112 H 470.547 -3.18278 -1.28662 0
M  V30 5113 N 472.992 0.995999 -1.22138 0
M  V30 5114 C 474.241 1.72928 -1.03821 0
M  V30 5115 C 474.554 1.90872 0.427444 0
M  V30 5116 O 475.76 2.61496 0.730212 0
M  V30 5117 C 474.216 3.11124 -1.80913 0
M  V30 5118 C 473.824 3.01122 -3.31707 0
M  V30 5119 C 475.568 3.8852 -1.71035 0
M  V30 5120 C 473.475 4.34453 -4.01253 0
M  V30 5121 H 472.405 0.648376 -0.384869 0
M  V30 5122 H 475.056 1.11213 -1.45959 0
M  V30 5123 H 473.438 3.73503 -1.31573 0
M  V30 5124 H 474.612 2.47926 -3.88419 0
M  V30 5125 H 472.927 2.3721 -3.42228 0
M  V30 5126 H 475.524 4.872 -2.20318 0
M  V30 5127 H 475.867 4.1087 -0.670196 0
M  V30 5128 H 476.4 3.32812 -2.17902 0
M  V30 5129 H 473.139 4.17303 -5.05508 0
M  V30 5130 H 472.659 4.87574 -3.49331 0
M  V30 5131 H 474.338 5.03215 -4.06674 0
M  V30 5132 N 474.47 1.03057 1.19235 0
M  V30 5133 C 475.418 0.606391 2.24557 0
M  V30 5134 C 476.412 -0.361826 1.65491 0
M  V30 5135 O 477.618 -0.23022 1.78522 0
M  V30 5136 H 473.993 0.177838 0.730669 0
M  V30 5137 H 475.964 1.50529 2.5765 0
M  V30 5138 C 474.713 -0.0252127 3.47691 0
M  V30 5139 H 474.036 0.710838 3.9343 0
M  V30 5140 H 475.476 -0.284931 4.23042 0
M  V30 5141 C 473.935 -1.27229 3.11953 0
M  V30 5142 O 474.465 -2.36416 3.24762 0
M  V30 5143 N 472.671 -1.16169 2.6637 0
M  V30 5144 H 472.218 -0.273189 2.56147 0
M  V30 5145 H 472.176 -1.99703 2.42829 0
M  V30 5146 N 475.948 -1.35272 0.808662 0
M  V30 5147 C 477.173 -2.03477 0.401475 0
M  V30 5148 C 477.598 -1.60537 -0.980279 0
M  V30 5149 O 476.956 -0.78304 -1.63518 0
M  V30 5150 C 477.004 -3.57181 0.495354 0
M  V30 5151 O 476.108 -4.09474 -0.490397 0
M  V30 5152 H 475.449 -0.642561 0.167366 0
M  V30 5153 H 477.979 -1.72824 1.09512 0
M  V30 5154 H 477.989 -4.06356 0.365912 0
M  V30 5155 H 476.664 -3.87784 1.5032 0
M  V30 5156 H 475.241 -3.71516 -0.321023 0
M  V30 5157 N 477.426 -0.562348 -1.47226 0
M  V30 5158 C 478.373 0.182461 -2.30078 0
M  V30 5159 C 479.343 0.903503 -1.39377 0
M  V30 5160 O 480.528 0.898188 -1.68337 0
M  V30 5161 C 477.668 1.20322 -3.23445 0
M  V30 5162 C 476.781 0.487717 -4.29238 0
M  V30 5163 C 475.916 1.49422 -5.09752 0
M  V30 5164 C 474.955 0.763976 -6.07314 0
M  V30 5165 N 474.092 1.71755 -6.80768 0
M  V30 5166 H 478.932 -0.530169 -2.93246 0
M  V30 5167 H 476.469 -0.273276 -1.44539 0
M  V30 5168 H 478.427 1.80768 -3.76004 0
M  V30 5169 H 477.057 1.88382 -2.6213 0
M  V30 5170 H 476.109 -0.231374 -3.79696 0
M  V30 5171 H 477.421 -0.0841003 -4.98729 0
M  V30 5172 H 476.575 2.17206 -5.66486 0
M  V30 5173 H 475.314 2.09995 -4.40174 0
M  V30 5174 H 474.319 0.0722344 -5.49753 0
M  V30 5175 H 475.544 0.16391 -6.78902 0
M  V30 5176 H 473.49 2.31177 -6.13916 0
M  V30 5177 H 473.407 1.19802 -7.46447 0
M  V30 5178 H 474.675 2.38638 -7.42073 0
M  V30 5179 N 478.904 1.54736 -0.299062 0
M  V30 5180 C 480.152 1.99706 0.31017 0
M  V30 5181 C 480.473 1.18896 1.54559 0
M  V30 5182 O 479.743 0.284445 1.93824 0
M  V30 5183 H 478.323 0.737686 0.117596 0
M  V30 5184 H 480.985 1.9054 -0.409943 0
M  V30 5185 H 480.081 3.06596 0.58355 0
M  V30 5186 N 480.382 0.0267497 1.57577 0
M  V30 5187 C 481.314 -0.984594 2.06974 0
M  V30 5188 C 482.327 -1.29032 0.992705 0
M  V30 5189 O 483.516 -1.25539 1.26895 0
M  V30 5190 C 480.616 -2.31262 2.47732 0
M  V30 5191 C 479.789 -2.1924 3.78487 0
M  V30 5192 C 478.848 -3.34956 4.05821 0
M  V30 5193 O 477.874 -3.11948 4.76106 0
M  V30 5194 N 479.076 -4.58672 3.55809 0
M  V30 5195 H 481.841 -0.563143 2.94362 0
M  V30 5196 H 479.402 -0.160061 1.61107 0
M  V30 5197 H 481.394 -3.07496 2.63112 0
M  V30 5198 H 479.964 -2.65056 1.65723 0
M  V30 5199 H 479.184 -1.27747 3.72927 0
M  V30 5200 H 480.472 -2.08409 4.64158 0
M  V30 5201 H 479.87 -4.8026 2.98942 0
M  V30 5202 H 478.427 -5.32083 3.76472 0
M  V30 5203 N 481.861 -1.55662 -0.24637 0
M  V30 5204 C 483.277 -1.48098 -0.594907 0
M  V30 5205 C 483.477 -0.717044 -1.8831 0
M  V30 5206 O 482.533 -0.246618 -2.51293 0
M  V30 5207 C 483.846 -2.92507 -0.697146 0
M  V30 5208 C 485.394 -3.02881 -0.789436 0
M  V30 5209 C 485.869 -4.48598 -0.923232 0
M  V30 5210 N 487.36 -4.52538 -0.988088 0
M  V30 5211 C 488.095 -5.62536 -1.11089 0
M  V30 5212 N 487.591 -6.82342 -1.19919 0
M  V30 5213 N 489.384 -5.50334 -1.14408 0
M  V30 5214 H 481.535 -2.0377 0.599278 0
M  V30 5215 H 483.798 -0.925145 0.20691 0
M  V30 5216 H 483.504 -3.51242 0.179396 0
M  V30 5217 H 483.378 -3.43024 -1.5689 0
M  V30 5218 H 485.765 -2.44226 -1.65643 0
M  V30 5219 H 485.846 -2.55574 0.107482 0
M  V30 5220 H 485.49 -5.07864 -0.0607927 0
M  V30 5221 H 485.42 -4.93587 -1.8352 0
M  V30 5222 H 487.911 -3.66248 -0.931167 0
M  V30 5223 H 488.224 -7.61924 -1.29197 0
M  V30 5224 H 486.569 -6.85102 -1.16876 0
M  V30 5225 H 489.76 -4.5567 -1.07158 0
M  V30 5226 H 489.933 -6.36096 -1.23634 0
M  V30 5227 N 483.339 0.512053 -1.4905 0
M  V30 5228 C 484.585 1.26613 -1.59187 0
M  V30 5229 C 484.94 1.90494 -0.270163 0
M  V30 5230 O 484.233 1.77204 0.728648 0
M  V30 5231 C 484.427 2.36446 -2.68008 0
M  V30 5232 C 484.256 1.83334 -4.10632 0
M  V30 5233 C 483.026 1.65131 -4.77556 0
M  V30 5234 C 485.224 1.35153 -4.96224 0
M  V30 5235 N 483.206 1.06833 -6.04533 0
M  V30 5236 C 484.577 0.889186 -6.13591 0
M  V30 5237 C 486.632 1.23623 -4.82309 0
M  V30 5238 C 485.335 0.322953 -7.18575 0
M  V30 5239 C 487.361 0.683978 -5.87431 0
M  V30 5240 C 486.723 0.2318 -7.04018 0
M  V30 5241 H 482.822 0.453678 -0.636946 0
M  V30 5242 H 485.406 0.575217 -1.86009 0
M  V30 5243 H 483.577 3.03012 -2.42978 0
M  V30 5244 H 485.309 3.03485 -2.67729 0
M  V30 5245 H 482.064 1.89178 -4.34176 0
M  V30 5246 H 482.488 0.796425 -6.72299 0
M  V30 5247 H 487.13 1.57184 -3.92496 0
M  V30 5248 H 484.848 -0.024943 -8.08096 0
M  V30 5249 H 488.434 0.597694 -5.78722 0
M  V30 5250 H 487.314 -0.188869 -7.83973 0
M  V30 5251 N 484.817 1.37938 0.762283 0
M  V30 5252 C 485.727 1.36681 1.90671 0
M  V30 5253 C 486.743 0.265078 1.71969 0
M  V30 5254 O 487.919 0.502055 1.95042 0
M  V30 5255 C 484.984 1.18211 3.25925 0
M  V30 5256 C 484.045 2.3811 3.57214 0
M  V30 5257 C 483.278 2.20512 4.86014 0
M  V30 5258 O 483.501 1.19429 5.57757 0
M  V30 5259 O 482.435 3.08911 5.16583 0
M  V30 5260 H 486.261 2.33091 1.94685 0
M  V30 5261 H 483.846 1.18767 0.906356 0
M  V30 5262 H 485.728 1.09937 4.06807 0
M  V30 5263 H 484.403 0.248807 3.22742 0
M  V30 5264 H 483.31 2.51958 2.76529 0
M  V30 5265 H 484.643 3.30041 3.65149 0
M  V30 5266 N 486.295 -0.989507 1.22664 0
M  V30 5267 C 487.205 -2.11449 1.01619 0
M  V30 5268 C 488.221 -1.73962 -0.036545 0
M  V30 5269 O 489.397 -2.00788 0.156924 0
M  V30 5270 C 486.462 -3.41465 0.600204 0
M  V30 5271 C 485.523 -3.93033 1.72695 0
M  V30 5272 C 484.756 -5.16844 1.33071 0
M  V30 5273 O 484.979 -5.7001 0.210975 0
M  V30 5274 O 483.913 -5.6225 2.14845 0
M  V30 5275 H 487.739 -2.32088 1.9588 0
M  V30 5276 H 485.324 -1.09823 1.01289 0
M  V30 5277 H 487.206 -4.19695 0.37873 0
M  V30 5278 H 485.881 -3.22178 -0.313511 0
M  V30 5279 H 484.788 -3.15961 2.00298 0
M  V30 5280 H 486.121 -4.16758 2.61865 0
M  V30 5281 N 487.773 -1.03688 -1.18687 0
M  V30 5282 C 489.05 -0.652397 -1.84399 0
M  V30 5283 C 489.43 0.868386 -1.92412 0
M  V30 5284 O 488.778 1.76832 -1.44716 0
M  V30 5285 C 488.988 -1.3238 -3.22919 0
M  V30 5286 C 490.336 -1.45216 -3.98996 0
M  V30 5287 O 491.36 -1.2816 -3.32345 0
M  V30 5288 O 490.219 -1.72975 -5.18403 0
M  V30 5289 H 487.313 -0.227793 -0.795009 0
M  V30 5290 H 489.859 -1.13553 -1.2611 0
M  V30 5291 H 488.631 -2.36202 -3.11968 0
M  V30 5292 H 488.254 -0.829039 -3.88861 0
M  V30 5293 N 489.251 1.34841 -0.815825 0
M  V30 5294 C 490.214 2.27959 -0.238185 0
M  V30 5295 C 491.214 1.49983 0.579816 0
M  V30 5296 O 492.404 1.69617 0.396953 0
M  V30 5297 C 489.536 3.34314 0.666876 0
M  V30 5298 H 490.729 2.80558 -1.05958 0
M  V30 5299 H 488.282 1.44852 -0.587156 0
M  V30 5300 H 489.017 2.86916 1.5116 0
M  V30 5301 H 488.802 3.92014 0.0819106 0
M  V30 5302 H 490.292 4.0379 1.06506 0
M  V30 5303 N 490.729 0.570148 1.46925 0
M  V30 5304 C 492.145 0.23087 1.57921 0
M  V30 5305 C 492.345 -1.26676 1.56702 0
M  V30 5306 O 491.401 -2.04774 1.47729 0
M  V30 5307 C 492.714 0.868973 2.8787 0
M  V30 5308 C 494.262 0.841397 3.01479 0
M  V30 5309 C 494.737 1.45881 4.34146 0
M  V30 5310 N 496.228 1.42258 4.40814 0
M  V30 5311 C 496.963 1.8698 5.42057 0
M  V30 5312 N 496.459 2.39618 6.50042 0
M  V30 5313 N 498.252 1.77972 5.33181 0
M  V30 5314 H 490.403 1.54301 1.45962 0
M  V30 5315 H 492.666 0.644224 0.69547 0
M  V30 5316 H 492.372 1.922 2.94537 0
M  V30 5317 H 492.246 0.369682 3.75384 0
M  V30 5318 H 494.633 -0.202973 2.94401 0
M  V30 5319 H 494.714 1.37858 2.15474 0
M  V30 5320 H 494.358 2.50231 4.4198 0
M  V30 5321 H 494.288 0.896958 5.18905 0
M  V30 5322 H 496.779 1.03768 3.63374 0
M  V30 5323 H 497.092 2.71633 7.23488 0
M  V30 5324 H 495.437 2.43636 6.50897 0
M  V30 5325 H 498.628 1.36617 4.4772 0
M  V30 5326 H 498.801 2.13143 6.11943 0
M  V30 5327 N 492.207 -1.54576 0.307264 0
M  V30 5328 C 493.139 -2.21212 -0.599807 0
M  V30 5329 C 494.152 -1.20685 -1.09266 0
M  V30 5330 O 495.341 -1.47244 -1.00903 0
M  V30 5331 C 492.441 -2.84994 -1.83389 0
M  V30 5332 C 491.614 -4.11511 -1.48248 0
M  V30 5333 C 490.673 -4.59038 -2.57237 0
M  V30 5334 O 489.699 -5.24095 -2.22065 0
M  V30 5335 N 490.901 -4.31884 -3.87887 0
M  V30 5336 H 493.666 -2.99686 -0.0293075 0
M  V30 5337 H 491.227 -1.61379 0.129738 0
M  V30 5338 H 493.219 -3.1372 -2.5566 0
M  V30 5339 H 491.789 -2.10324 -2.31263 0
M  V30 5340 H 491.009 -3.89728 -0.592122 0
M  V30 5341 H 492.297 -4.93879 -1.22316 0
M  V30 5342 H 491.695 -3.79778 -4.19268 0
M  V30 5343 H 490.252 -4.65304 -4.56438 0
M  V30 5344 N 493.685 -0.035106 -1.57561 0
M  V30 5345 C 494.934 0.641604 -1.91223 0
M  V30 5346 C 495.247 1.72944 -0.913761 0
M  V30 5347 O 496.453 2.46321 -1.14185 0
M  V30 5348 C 494.909 1.19249 -3.3957 0
M  V30 5349 C 494.517 0.137616 -4.47789 0
M  V30 5350 C 496.261 1.84537 -3.82291 0
M  V30 5351 C 494.168 0.700478 -5.87237 0
M  V30 5352 H 493.098 0.243417 -0.713627 0
M  V30 5353 H 495.749 -0.101382 -1.8322 0
M  V30 5354 H 494.131 1.98728 -3.42525 0
M  V30 5355 H 495.305 -0.635153 -4.56402 0
M  V30 5356 H 493.62 -0.416855 -4.14308 0
M  V30 5357 H 496.217 2.27616 -4.83834 0
M  V30 5358 H 496.56 2.69054 -3.17672 0
M  V30 5359 H 497.093 1.11739 -3.81784 0
M  V30 5360 H 493.832 -0.106693 -6.55413 0
M  V30 5361 H 493.352 1.4416 -5.82218 0
M  V30 5362 H 495.031 1.18837 -6.35993 0
M  V30 5363 N 495.163 1.55791 0.238111 0
M  V30 5364 C 496.574 1.68383 0.806472 0
M  V30 5365 C 496.925 0.634157 1.85669 0
M  V30 5366 O 496.05 -0.217913 2.153 0
M  V30 5367 C 496.645 3.05268 1.46959 0
M  V30 5368 C 495.204 3.1977 1.98555 0
M  V30 5369 C 494.351 2.64279 0.839763 0
M  V30 5370 H 497.302 1.58694 0.0137535 0
M  V30 5371 H 497.323 3.00203 2.33792 0
M  V30 5372 H 496.835 3.81643 0.704993 0
M  V30 5373 H 494.936 2.48234 2.77868 0
M  V30 5374 H 495.049 4.26788 2.17689 0
M  V30 5375 H 493.413 2.22329 1.24265 0
M  V30 5376 H 494.196 3.43187 0.0881032 0
M  V30 5377 N 496.642 -0.504142 1.49319 0
M  V30 5378 C 498.058 -0.835039 1.36012 0
M  V30 5379 C 498.258 -1.97674 0.390808 0
M  V30 5380 O 497.314 -2.51867 -0.178655 0
M  V30 5381 C 498.627 -1.17821 2.76656 0
M  V30 5382 C 500.175 -1.2866 2.85334 0
M  V30 5383 C 500.65 -1.66307 4.26739 0
M  V30 5384 N 502.141 -1.73362 4.29534 0
M  V30 5385 C 502.876 -2.0393 5.35911 0
M  V30 5386 N 502.372 -2.32744 6.52535 0
M  V30 5387 N 504.165 -2.05155 5.23324 0
M  V30 5388 H 496.316 0.248764 2.10938 0
M  V30 5389 H 498.579 0.0486962 0.946748 0
M  V30 5390 H 498.285 -0.412682 3.4927 0
M  V30 5391 H 498.159 -2.12239 3.11825 0
M  V30 5392 H 500.546 -2.04285 2.1296 0
M  V30 5393 H 500.627 -0.323004 2.53752 0
M  V30 5394 H 500.271 -0.91234 4.99639 0
M  V30 5395 H 500.201 -2.63761 4.55782 0
M  V30 5396 H 502.692 -1.53268 3.45424 0
M  V30 5397 H 503.005 -2.55248 7.2943 0
M  V30 5398 H 501.35 -2.30207 6.55767 0
M  V30 5399 H 504.541 -1.82119 4.3122 0
M  V30 5400 H 504.714 -2.28644 6.06322 0
M  V30 5401 N 498.12 -1.38341 -0.754957 0
M  V30 5402 C 499.531 -1.30803 -1.3322 0
M  V30 5403 C 499.882 0.0368 -1.96165 0
M  V30 5404 O 499.007 0.938844 -1.94974 0
M  V30 5405 C 499.602 -2.3688 -2.42225 0
M  V30 5406 C 498.161 -2.32925 -2.95674 0
M  V30 5407 C 497.308 -2.19819 -1.69042 0
M  V30 5408 H 500.259 -1.48719 -0.553937 0
M  V30 5409 H 500.28 -2.02517 -3.22129 0
M  V30 5410 H 499.792 -3.34747 -1.96383 0
M  V30 5411 H 497.893 -1.38635 -3.45848 0
M  V30 5412 H 498.006 -3.27008 -3.50146 0
M  V30 5413 H 496.37 -1.66648 -1.92615 0
M  V30 5414 H 497.153 -3.19625 -1.25279 0
M  V30 5415 N 499.598 0.982988 -1.23187 0
M  V30 5416 C 500.875 1.69814 -0.970707 0
M  V30 5417 C 501.255 2.04811 0.511424 0
M  V30 5418 O 500.603 1.73924 1.48198 0
M  V30 5419 C 500.813 2.94143 -1.87831 0
M  V30 5420 C 502.161 3.66712 -2.14026 0
M  V30 5421 O 503.185 3.04171 -1.8536 0
M  V30 5422 O 502.044 4.79258 -2.62629 0
M  V30 5423 H 499.138 0.741659 -0.365884 0
M  V30 5424 H 501.684 1.03844 -1.34218 0
M  V30 5425 H 500.456 2.64858 -2.88038 0
M  V30 5426 H 500.079 3.6785 -1.50905 0
M  V30 5427 N 501.076 1.04316 1.18135 0
M  V30 5428 C 502.324 0.746542 1.87806 0
M  V30 5429 C 502.645 -0.728082 1.80898 0
M  V30 5430 O 501.915 -1.52554 1.22899 0
M  V30 5431 H 500.495 0.273157 0.695265 0
M  V30 5432 H 503.157 1.32044 1.43354 0
M  V30 5433 H 502.253 1.05362 2.93778 0
M  V30 5434 N 502.554 -1.34406 0.822964 0
M  V30 5435 C 503.8 -1.98999 0.420847 0
M  V30 5436 C 504.155 -1.64067 -1.00498 0
M  V30 5437 O 503.448 -0.902071 -1.69036 0
M  V30 5438 C 503.642 -3.52981 0.560268 0
M  V30 5439 C 503.471 -4.02873 1.99809 0
M  V30 5440 C 502.241 -4.31463 2.62998 0
M  V30 5441 C 504.439 -4.20241 2.96483 0
M  V30 5442 N 502.421 -4.6739 3.9802 0
M  V30 5443 C 503.792 -4.59348 4.16413 0
M  V30 5444 C 505.847 -4.02489 2.93098 0
M  V30 5445 C 504.55 -4.82559 5.33413 0
M  V30 5446 C 506.576 -4.26866 4.09315 0
M  V30 5447 C 505.938 -4.6626 5.27997 0
M  V30 5448 H 502.037 -0.755432 0.202104 0
M  V30 5449 H 504.621 -1.62815 1.06767 0
M  V30 5450 H 502.792 -3.88359 -0.0566596 0
M  V30 5451 H 504.524 -4.04487 0.131146 0
M  V30 5452 H 501.279 -4.22373 2.14238 0
M  V30 5453 H 501.703 -4.89588 4.67582 0
M  V30 5454 H 506.345 -3.71161 2.02483 0
M  V30 5455 H 504.063 -5.12754 6.24587 0
M  V30 5456 H 507.649 -4.14667 4.08096 0
M  V30 5457 H 506.529 -4.84752 6.16429 0
M  V30 5458 N 504.032 -0.577932 -1.46621 0
M  V30 5459 C 504.995 0.147805 -2.28723 0
M  V30 5460 C 505.995 0.823325 -1.38123 0
M  V30 5461 O 507.185 0.676011 -1.60548 0
M  V30 5462 C 504.317 1.21853 -3.18378 0
M  V30 5463 H 505.51 -0.573654 -2.94362 0
M  V30 5464 H 503.063 -0.335703 -1.52652 0
M  V30 5465 H 503.798 1.97173 -2.57475 0
M  V30 5466 H 503.583 0.738714 -3.85078 0
M  V30 5467 H 505.073 1.72768 -3.80186 0
M  V30 5468 N 505.51 1.54411 -0.315457 0
M  V30 5469 C 506.759 1.99599 0.290395 0
M  V30 5470 C 507.072 1.20746 1.53882 0
M  V30 5471 O 508.278 1.56272 2.22017 0
M  V30 5472 C 506.734 3.5539 0.56797 0
M  V30 5473 C 506.342 4.43068 -0.662945 0
M  V30 5474 C 508.086 4.09067 1.13422 0
M  V30 5475 C 505.993 5.90317 -0.357722 0
M  V30 5476 H 504.923 0.745592 0.112286 0
M  V30 5477 H 507.574 1.78477 -0.426418 0
M  V30 5478 H 505.956 3.72468 1.34476 0
M  V30 5479 H 507.13 4.37765 -1.43869 0
M  V30 5480 H 505.445 4.00238 -1.14884 0
M  V30 5481 H 508.042 5.16663 1.37707 0
M  V30 5482 H 508.385 3.60552 2.08106 0
M  V30 5483 H 508.918 3.95589 0.418805 0
M  V30 5484 H 505.657 6.4301 -1.27351 0
M  V30 5485 H 505.177 5.98592 0.380472 0
M  V30 5486 H 506.856 6.4699 0.0354284 0
M  V30 5487 N 506.988 0.0434614 1.5754 0
M  V30 5488 C 508.216 -0.641835 1.96693 0
M  V30 5489 C 508.631 -1.64832 0.920652 0
M  V30 5490 O 507.988 -1.82247 -0.095993 0
M  V30 5491 C 508.039 -1.33557 3.35924 0
M  V30 5492 O 507.76 -0.369403 4.3654 0
M  V30 5493 C 509.261 -2.11135 3.89791 0
M  V30 5494 H 506.481 -0.176013 0.647503 0
M  V30 5495 H 509.025 0.107478 2.04217 0
M  V30 5496 H 507.18 -2.03617 3.29574 0
M  V30 5497 H 507.594 -0.863674 5.1734 0
M  V30 5498 H 509.068 -2.55107 4.89514 0
M  V30 5499 H 509.545 -2.95634 3.24803 0
M  V30 5500 H 510.151 -1.46002 3.99454 0
M  V30 5501 N 508.466 -1.55915 -0.229846 0
M  V30 5502 C 509.429 -1.90914 -1.26824 0
M  V30 5503 C 510.429 -0.786999 -1.40225 0
M  V30 5504 O 511.619 -1.05484 -1.38632 0
M  V30 5505 C 508.751 -2.15264 -2.64337 0
M  V30 5506 H 509.944 -2.8378 -0.969998 0
M  V30 5507 H 507.497 -1.49069 -0.4699 0
M  V30 5508 H 508.232 -1.24923 -2.99274 0
M  V30 5509 H 508.017 -2.97005 -2.55989 0
M  V30 5510 H 509.507 -2.43467 -3.39284 0
M  V30 5511 N 509.944 0.496216 -1.49584 0
M  V30 5512 C 511.172 1.27394 -1.63029 0
M  V30 5513 C 511.587 1.86344 -0.303569 0
M  V30 5514 O 510.944 1.68057 0.711547 0
M  V30 5515 C 510.995 2.40077 -2.70269 0
M  V30 5516 O 510.716 1.83549 -3.97796 0
M  V30 5517 C 512.217 3.31372 -2.94462 0
M  V30 5518 H 509.437 0.386211 -0.54871 0
M  V30 5519 H 511.981 0.595163 -1.95648 0
M  V30 5520 H 510.136 3.03775 -2.40415 0
M  V30 5521 H 510.55 2.57561 -4.56905 0
M  V30 5522 H 512.024 4.06707 -3.73221 0
M  V30 5523 H 512.501 3.88654 -2.0456 0
M  V30 5524 H 513.107 2.73435 -3.25751 0
M  V30 5525 N 511.423 1.38739 0.74761 0
M  V30 5526 C 512.371 1.36573 1.88283 0
M  V30 5527 C 513.365 0.250712 1.67534 0
M  V30 5528 O 514.571 0.420073 1.7503 0
M  V30 5529 H 510.946 0.42619 0.619569 0
M  V30 5530 H 512.917 2.32356 1.87226 0
M  V30 5531 C 511.666 1.21361 3.25832 0
M  V30 5532 H 510.989 2.06424 3.42388 0
M  V30 5533 H 512.429 1.23901 4.05493 0
M  V30 5534 C 510.888 -0.0790099 3.36807 0
M  V30 5535 O 511.418 -1.05385 3.8763 0
M  V30 5536 N 509.624 -0.13785 2.90273 0
M  V30 5537 H 509.171 0.656128 2.49104 0
M  V30 5538 H 509.129 -1.00228 2.97996 0
M  V30 5539 N 512.901 -0.976442 1.23707 0
M  V30 5540 C 513.848 -2.06952 1.02174 0
M  V30 5541 C 514.818 -1.65984 -0.0621034 0
M  V30 5542 O 516.003 -1.90584 0.0907906 0
M  V30 5543 C 513.143 -3.39425 0.62327 0
M  V30 5544 C 512.256 -3.9364 1.77966 0
M  V30 5545 C 511.391 -5.14343 1.3276 0
M  V30 5546 C 510.43 -5.60733 2.45449 0
M  V30 5547 N 509.567 -6.72662 2.01172 0
M  V30 5548 H 514.407 -2.24704 1.95734 0
M  V30 5549 H 511.944 -1.10143 0.975034 0
M  V30 5550 H 513.902 -4.15526 0.37332 0
M  V30 5551 H 512.532 -3.21624 -0.275329 0
M  V30 5552 H 511.584 -3.14258 2.14351 0
M  V30 5553 H 512.896 -4.24035 2.62671 0
M  V30 5554 H 512.05 -5.97789 1.03601 0
M  V30 5555 H 510.789 -4.8561 0.450975 0
M  V30 5556 H 509.794 -4.75865 2.75378 0
M  V30 5557 H 511.019 -5.91483 3.33654 0
M  V30 5558 H 508.965 -6.45681 1.15895 0
M  V30 5559 H 508.882 -7.02462 2.79434 0
M  V30 5560 H 510.15 -7.59572 1.75129 0
M  V30 5561 N 514.379 -1.04941 -1.1758 0
M  V30 5562 C 515.327 -0.64204 -2.23563 0
M  V30 5563 C 516.321 0.335453 -1.66045 0
M  V30 5564 O 517.527 0.20179 -1.78865 0
M  V30 5565 H 513.902 -0.18944 -0.727748 0
M  V30 5566 H 515.873 -1.54609 -2.55223 0
M  V30 5567 C 514.622 -0.0301051 -3.47687 0
M  V30 5568 H 513.945 -0.773339 -3.92249 0
M  V30 5569 H 515.385 0.217592 -4.23441 0
M  V30 5570 C 513.844 1.2225 -3.13937 0
M  V30 5571 O 514.374 2.3122 -3.28482 0
M  V30 5572 N 512.58 1.11917 -2.68185 0
M  V30 5573 H 512.127 0.232403 -2.5655 0
M  V30 5574 H 512.085 1.95814 -2.45976 0
M  V30 5575 N 515.857 1.33968 -0.830081 0
M  V30 5576 C 517.268 1.80439 -0.479455 0
M  V30 5577 C 517.619 1.68756 1.00079 0
M  V30 5578 O 516.744 1.23171 1.77927 0
M  V30 5579 C 517.339 3.27611 -0.863505 0
M  V30 5580 C 515.898 3.72133 -0.565145 0
M  V30 5581 C 515.045 2.55549 -1.07657 0
M  V30 5582 H 517.996 1.21614 -1.0196 0
M  V30 5583 H 518.017 3.8012 -0.170083 0
M  V30 5584 H 517.529 3.36082 -1.94089 0
M  V30 5585 H 515.63 3.69196 0.502536 0
M  V30 5586 H 515.743 4.65963 -1.11422 0
M  V30 5587 H 514.107 2.49788 -0.497807 0
M  V30 5588 H 514.89 2.66786 -2.16055 0
M  V30 5589 N 517.335 0.585699 1.46312 0
M  V30 5590 C 518.581 0.0725284 2.0267 0
M  V30 5591 C 518.914 -1.28523 1.45586 0
M  V30 5592 O 518.189 -1.84283 0.622101 0
M  V30 5593 C 518.472 0.0099788 3.60099 0
M  V30 5594 C 518.325 1.39685 4.27561 0
M  V30 5595 C 519.644 -0.689117 4.34671 0
M  V30 5596 H 516.763 0.0278307 0.736474 0
M  V30 5597 H 519.405 0.753472 1.74421 0
M  V30 5598 H 517.555 -0.56992 3.84297 0
M  V30 5599 H 519.227 2.02215 4.14617 0
M  V30 5600 H 517.47 1.96374 3.86807 0
M  V30 5601 H 518.141 1.30553 5.36339 0
M  V30 5602 H 520.617 -0.196446 4.15636 0
M  V30 5603 H 519.493 -0.701921 5.44393 0
M  V30 5604 H 519.754 -1.75101 4.05946 0
M  V30 5605 N 518.813 -1.54241 0.323641 0
M  V30 5606 C 519.723 -2.28033 -0.551205 0
M  V30 5607 C 520.739 -1.32388 -1.12913 0
M  V30 5608 O 521.915 -1.65403 -1.14908 0
M  V30 5609 C 518.98 -3.02382 -1.69606 0
M  V30 5610 C 518.041 -4.13612 -1.14993 0
M  V30 5611 C 517.274 -4.84407 -2.24022 0
M  V30 5612 O 517.497 -4.54716 -3.44368 0
M  V30 5613 O 516.431 -5.71312 -1.89436 0
M  V30 5614 H 520.257 -3.03662 0.048066 0
M  V30 5615 H 517.842 -1.49133 0.0893289 0
M  V30 5616 H 519.724 -3.48941 -2.36259 0
M  V30 5617 H 518.399 -2.29628 -2.28151 0
M  V30 5618 H 517.306 -3.71402 -0.448484 0
M  V30 5619 H 518.639 -4.8841 -0.609608 0
M  V30 5620 N 520.291 -0.0518155 -1.57515 0
M  V30 5621 C 521.519 0.631395 -1.9703 0
M  V30 5622 C 521.934 1.64341 -0.92938 0
M  V30 5623 O 521.291 1.82296 0.0863266 0
M  V30 5624 C 521.342 1.31774 -3.36627 0
M  V30 5625 O 521.063 0.346247 -4.3673 0
M  V30 5626 C 522.564 2.09065 -3.90905 0
M  V30 5627 H 519.784 0.172576 -0.648428 0
M  V30 5628 H 522.328 -0.118306 -2.04158 0
M  V30 5629 H 520.483 2.01867 -3.30649 0
M  V30 5630 H 520.897 0.836226 -5.17791 0
M  V30 5631 H 522.371 2.52508 -4.9086 0
M  V30 5632 H 522.848 2.93908 -3.26366 0
M  V30 5633 H 523.454 1.43882 -4.00223 0
M  V30 5634 N 521.769 1.56035 0.221574 0
M  V30 5635 C 523.018 1.78245 0.944016 0
M  V30 5636 C 523.331 0.620371 1.85501 0
M  V30 5637 O 524.537 0.726103 2.6161 0
M  V30 5638 C 522.993 3.15659 1.7288 0
M  V30 5639 C 522.601 4.39591 0.863942 0
M  V30 5640 C 524.345 3.47195 2.44246 0
M  V30 5641 C 522.252 5.6803 1.64607 0
M  V30 5642 H 521.182 0.664547 0.356222 0
M  V30 5643 H 523.833 1.8243 0.197904 0
M  V30 5644 H 522.215 3.0565 2.51781 0
M  V30 5645 H 523.389 4.60655 0.115464 0
M  V30 5646 H 521.704 4.15572 0.262407 0
M  V30 5647 H 524.301 4.40381 3.03263 0
M  V30 5648 H 524.644 2.69693 3.1713 0
M  V30 5649 H 525.177 3.58533 1.72334 0
M  V30 5650 H 521.916 6.48425 0.960507 0
M  V30 5651 H 521.436 5.51027 2.36917 0
M  V30 5652 H 523.115 6.08203 2.20675 0
M  V30 5653 N 523.247 -0.488276 1.49845 0
M  V30 5654 C 524.194 -1.58836 1.67451 0
M  V30 5655 C 525.164 -1.57886 0.515857 0
M  V30 5656 O 526.349 -1.75679 0.744403 0
M  V30 5657 C 523.489 -2.96915 1.75885 0
M  V30 5658 C 522.602 -3.07784 3.03138 0
M  V30 5659 C 521.737 -4.36673 3.02473 0
M  V30 5660 C 520.776 -4.41222 4.24252 0
M  V30 5661 N 519.913 -5.61557 4.21424 0
M  V30 5662 H 524.753 -1.43131 2.61376 0
M  V30 5663 H 522.29 -0.696186 1.29583 0
M  V30 5664 H 524.248 -3.76965 1.78755 0
M  V30 5665 H 522.878 -3.11295 0.85414 0
M  V30 5666 H 521.93 -2.20717 3.09819 0
M  V30 5667 H 523.242 -3.07005 3.93128 0
M  V30 5668 H 522.396 -5.25055 3.03977 0
M  V30 5669 H 521.135 -4.40037 2.10283 0
M  V30 5670 H 520.14 -3.5124 4.22978 0
M  V30 5671 H 521.365 -4.39564 5.17649 0
M  V30 5672 H 519.311 -5.65738 3.32078 0
M  V30 5673 H 519.228 -5.62447 5.05163 0
M  V30 5674 H 520.496 -6.52111 4.2705 0
M  V30 5675 N 524.725 -1.39134 -0.740242 0
M  V30 5676 C 525.655 -1.40165 -1.86751 0
M  V30 5677 C 526.636 -0.265708 -1.68012 0
M  V30 5678 O 527.821 -0.47076 -1.88408 0
M  V30 5679 C 524.951 -1.2392 -3.2444 0
M  V30 5680 C 523.905 -2.34858 -3.57807 0
M  V30 5681 C 523.231 -2.03707 -4.94376 0
M  V30 5682 C 524.531 -3.77159 -3.61315 0
M  V30 5683 H 526.225 -2.345 -1.86145 0
M  V30 5684 H 523.771 -1.12875 -0.89416 0
M  V30 5685 H 525.724 -1.23263 -4.02969 0
M  V30 5686 H 524.448 -0.26051 -3.25559 0
M  V30 5687 H 523.107 -2.34723 -2.81604 0
M  V30 5688 H 522.755 -1.04289 -4.9207 0
M  V30 5689 H 522.455 -2.78016 -5.17669 0
M  V30 5690 H 523.979 -2.04691 -5.75268 0
M  V30 5691 H 525.393 -3.79252 -4.29931 0
M  V30 5692 H 523.79 -4.50784 -3.96124 0
M  V30 5693 H 524.86 -4.08513 -2.61238 0
M  V30 5694 N 526.204 0.969867 -1.24223 0
M  V30 5695 C 527.451 1.71256 -1.08063 0
M  V30 5696 C 527.779 1.90734 0.380872 0
M  V30 5697 O 527.034 1.46469 1.29789 0
M  V30 5698 C 527.333 3.10883 -1.76314 0
M  V30 5699 C 526.999 3.11252 -3.26241 0
M  V30 5700 C 525.661 3.1106 -3.67144 0
M  V30 5701 C 528.013 3.05751 -4.22097 0
M  V30 5702 C 525.341 3.03097 -5.02344 0
M  V30 5703 C 527.693 2.9933 -5.57301 0
M  V30 5704 C 526.357 2.97466 -5.97554 0
M  V30 5705 H 525.627 0.62667 -0.395431 0
M  V30 5706 H 528.274 1.13422 -1.54297 0
M  V30 5707 H 526.579 3.72168 -1.22468 0
M  V30 5708 H 528.276 3.67138 -1.61277 0
M  V30 5709 H 524.866 3.12165 -2.93685 0
M  V30 5710 H 529.05 3.05031 -3.91497 0
M  V30 5711 H 524.306 3.00013 -5.32731 0
M  V30 5712 H 528.48 2.94033 -6.31283 0
M  V30 5713 H 526.107 2.91051 -7.02277 0
M  V30 5714 N 527.682 1.05563 1.17022 0
M  V30 5715 C 528.959 0.68165 1.83338 0
M  V30 5716 C 529.339 -0.837665 1.93769 0
M  V30 5717 O 528.687 -1.74507 1.47511 0
M  V30 5718 C 528.897 1.375 3.20772 0
M  V30 5719 C 530.245 1.51545 3.96635 0
M  V30 5720 O 531.269 1.33431 3.30264 0
M  V30 5721 O 530.128 1.812 5.15586 0
M  V30 5722 H 527.222 0.240412 0.791285 0
M  V30 5723 H 529.768 1.15545 1.24288 0
M  V30 5724 H 528.54 2.41135 3.08171 0
M  V30 5725 H 528.163 0.890798 3.87493 0
M  V30 5726 N 529.16 -1.33526 0.837174 0
M  V30 5727 C 530.407 -1.97837 0.432064 0
M  V30 5728 C 530.735 -1.66324 -1.00829 0
M  V30 5729 O 529.99 -0.93448 -1.71948 0
M  V30 5730 C 530.289 -3.52367 0.597675 0
M  V30 5731 C 529.955 -4.03826 2.00587 0
M  V30 5732 C 528.617 -4.1759 2.39106 0
M  V30 5733 C 530.969 -4.31333 2.92576 0
M  V30 5734 C 528.297 -4.56195 3.68921 0
M  V30 5735 C 530.649 -4.7139 4.2187 0
M  V30 5736 C 529.313 -4.8336 4.60347 0
M  V30 5737 H 528.583 -0.723937 0.158104 0
M  V30 5738 H 531.23 -1.5923 1.06387 0
M  V30 5739 H 529.535 -3.91624 -0.117452 0
M  V30 5740 H 531.232 -4.00126 0.26454 0
M  V30 5741 H 527.822 -3.93586 1.69671 0
M  V30 5742 H 532.006 -4.20224 2.64056 0
M  V30 5743 H 527.262 -4.63655 3.9854 0
M  V30 5744 H 531.436 -4.91631 4.93226 0
M  V30 5745 H 529.063 -5.1303 5.60985 0
M  V30 5746 N 530.638 -0.59345 -1.46 0
M  V30 5747 C 531.868 -0.0889642 -2.06408 0
M  V30 5748 C 532.276 1.22597 -1.44106 0
M  V30 5749 O 531.619 1.75448 -0.544398 0
M  V30 5750 C 531.681 0.139902 -3.59228 0
M  V30 5751 C 531.345 -1.09107 -4.43784 0
M  V30 5752 C 532.342 -2.00577 -4.79651 0
M  V30 5753 C 530.027 -1.31593 -4.84756 0
M  V30 5754 C 532.021 -3.12873 -5.55328 0
M  V30 5755 C 529.708 -2.44192 -5.60191 0
M  V30 5756 C 530.706 -3.34661 -5.95392 0
M  V30 5757 O 530.394 -4.45302 -6.69299 0
M  V30 5758 H 530.126 -0.0594613 -0.67338 0
M  V30 5759 H 532.68 -0.817 -1.88452 0
M  V30 5760 H 530.91 0.922672 -3.75531 0
M  V30 5761 H 532.599 0.594228 -4.01527 0
M  V30 5762 H 533.365 -1.84425 -4.48567 0
M  V30 5763 H 529.244 -0.620801 -4.56801 0
M  V30 5764 H 532.788 -3.83511 -5.82722 0
M  V30 5765 H 528.685 -2.60303 -5.90688 0
M  V30 5766 H 529.453 -4.43805 -6.87735 0
M  V30 5767 N 532.116 1.54067 -0.331816 0
M  V30 5768 C 533.363 2.00715 0.268269 0
M  V30 5769 C 533.691 1.21986 1.51491 0
M  V30 5770 O 532.946 0.292309 1.93505 0
M  V30 5771 C 533.245 3.51634 0.639392 0
M  V30 5772 C 532.911 4.48018 -0.509019 0
M  V30 5773 C 531.573 4.74089 -0.824209 0
M  V30 5774 C 533.925 5.05237 -1.28003 0
M  V30 5775 C 531.253 5.54637 -1.91298 0
M  V30 5776 C 533.605 5.86972 -2.35895 0
M  V30 5777 C 532.269 6.11342 -2.67987 0
M  V30 5778 H 531.539 0.734469 0.0981667 0
M  V30 5779 H 534.186 1.8596 -0.457304 0
M  V30 5780 H 532.491 3.6416 1.44551 0
M  V30 5781 H 534.188 3.85175 1.11539 0
M  V30 5782 H 530.778 4.27851 -0.253287 0
M  V30 5783 H 534.962 4.8507 -1.04978 0
M  V30 5784 H 530.218 5.71747 -2.16599 0
M  V30 5785 H 534.392 6.30327 -2.96076 0
M  V30 5786 H 532.019 6.73544 -3.5248 0
M  V30 5787 N 533.594 0.0601682 1.57485 0
M  V30 5788 C 534.842 -0.610386 1.92662 0
M  V30 5789 C 535.163 -1.70849 0.939981 0
M  V30 5790 O 534.433 -1.95895 -0.0137455 0
M  V30 5791 H 533.013 -0.228457 0.711208 0
M  V30 5792 H 535.675 0.115288 1.94559 0
M  V30 5793 H 534.771 -1.0432 2.94149 0
M  V30 5794 N 535.072 -1.5615 -0.213296 0
M  V30 5795 C 536.483 -1.69645 -0.779582 0
M  V30 5796 C 536.834 -0.663615 -1.84636 0
M  V30 5797 O 535.959 0.183633 -2.15619 0
M  V30 5798 C 536.554 -3.07567 -1.42084 0
M  V30 5799 C 535.113 -3.22889 -1.93442 0
M  V30 5800 C 534.26 -2.65581 -0.797612 0
M  V30 5801 H 537.211 -1.58696 0.0114951 0
M  V30 5802 H 537.232 -3.03884 -2.28986 0
M  V30 5803 H 536.744 -3.82716 -0.644187 0
M  V30 5804 H 534.845 -2.52623 -2.73884 0
M  V30 5805 H 534.958 -4.30197 -2.10872 0
M  V30 5806 H 533.322 -2.24278 -1.20712 0
M  V30 5807 H 534.105 -3.43284 -0.033494 0
M  V30 5808 N 536.55 0.480323 -1.50102 0
M  V30 5809 C 537.497 1.57946 -1.6829 0
M  V30 5810 C 538.467 1.57611 -0.524223 0
M  V30 5811 O 539.652 1.75282 -0.753709 0
M  V30 5812 C 536.792 2.95978 -1.77457 0
M  V30 5813 C 535.905 3.06173 -3.04766 0
M  V30 5814 C 535.04 4.35063 -3.04784 0
M  V30 5815 C 534.079 4.38966 -4.26586 0
M  V30 5816 N 533.216 5.59314 -4.24396 0
M  V30 5817 H 538.056 1.41743 -2.62131 0
M  V30 5818 H 535.593 0.689304 -1.2995 0
M  V30 5819 H 537.551 3.76011 -1.80752 0
M  V30 5820 H 536.181 3.10837 -0.870637 0
M  V30 5821 H 535.233 2.19071 -3.10986 0
M  V30 5822 H 536.545 3.04916 -3.9475 0
M  V30 5823 H 535.699 5.23436 -3.06757 0
M  V30 5824 H 534.438 4.38915 -2.12614 0
M  V30 5825 H 533.443 3.48992 -4.24835 0
M  V30 5826 H 534.668 4.36813 -5.19972 0
M  V30 5827 H 532.614 5.63969 -3.35074 0
M  V30 5828 H 532.531 5.5976 -5.08138 0
M  V30 5829 H 533.799 6.49837 -4.30502 0
M  V30 5830 N 538.028 1.39524 0.732853 0
M  V30 5831 C 539.276 1.36594 1.48951 0
M  V30 5832 C 539.597 -0.0367507 1.94965 0
M  V30 5833 O 538.867 -0.988391 1.69138 0
M  V30 5834 H 537.447 0.502673 0.552566 0
M  V30 5835 H 540.109 1.74411 0.869869 0
M  V30 5836 H 539.205 2.03 2.3706 0
M  V30 5837 N 539.506 -0.963266 1.24736 0
M  V30 5838 C 540.922 -1.23273 1.01371 0
M  V30 5839 C 541.122 -1.99618 -0.274776 0
M  V30 5840 O 540.178 -2.32293 -0.989769 0
M  V30 5841 C 541.491 -2.01554 2.23152 0
M  V30 5842 C 543.039 -2.14629 2.27823 0
M  V30 5843 C 543.514 -2.96307 3.49237 0
M  V30 5844 N 545.005 -3.03887 3.49581 0
M  V30 5845 C 545.74 -3.67456 4.40186 0
M  V30 5846 N 545.236 -4.32706 5.41052 0
M  V30 5847 N 547.029 -3.64511 4.27888 0
M  V30 5848 H 539.18 -0.452294 2.07528 0
M  V30 5849 H 541.443 -0.262521 0.910926 0
M  V30 5850 H 541.149 -1.52847 3.1675 0
M  V30 5851 H 541.023 -3.02278 2.25628 0
M  V30 5852 H 543.41 -2.62537 1.34753 0
M  V30 5853 H 543.491 -1.13238 2.2937 0
M  V30 5854 H 543.135 -2.49091 4.42624 0
M  V30 5855 H 543.065 -3.97905 3.44933 0
M  V30 5856 H 545.556 -2.57477 2.76611 0
M  V30 5857 H 545.869 -4.79042 6.06415 0
M  V30 5858 H 544.214 -4.31361 5.44934 0
M  V30 5859 H 547.405 -3.12715 3.4832 0
M  V30 5860 H 547.578 -4.13768 4.98698 0
M  V30 5861 N 540.985 -1.06182 -1.16461 0
M  V30 5862 C 541.895 -0.682671 -2.24448 0
M  V30 5863 C 542.911 0.30078 -1.71381 0
M  V30 5864 O 544.087 0.150376 -2.00838 0
M  V30 5865 C 541.152 -0.0737202 -3.46622 0
M  V30 5866 C 540.213 -1.10889 -4.14731 0
M  V30 5867 C 539.446 -0.528908 -5.31073 0
M  V30 5868 O 539.669 0.65868 -5.66584 0
M  V30 5869 O 538.603 -1.26805 -5.88391 0
M  V30 5870 H 542.429 -1.58291 -2.59187 0
M  V30 5871 H 540.014 -0.834013 -1.23954 0
M  V30 5872 H 541.896 0.264192 -4.20571 0
M  V30 5873 H 540.571 0.800015 -3.13658 0
M  V30 5874 H 539.478 -1.49896 -3.42756 0
M  V30 5875 H 540.811 -1.95412 -4.51747 0
M  V30 5876 N 542.463 1.3308 -0.844243 0
M  V30 5877 C 543.393 2.3161 -0.296493 0
M  V30 5878 C 544.374 1.59215 0.598707 0
M  V30 5879 O 545.559 1.87077 0.521134 0
M  V30 5880 C 542.689 3.43313 0.524762 0
M  V30 5881 C 541.643 4.27115 -0.275106 0
M  V30 5882 C 540.969 5.30483 0.670236 0
M  V30 5883 C 542.269 5.00443 -1.49514 0
M  V30 5884 H 543.963 2.77672 -1.11976 0
M  V30 5885 H 541.509 1.33496 -0.539899 0
M  V30 5886 H 543.462 4.11273 0.918298 0
M  V30 5887 H 542.186 2.95952 1.3813 0
M  V30 5888 H 540.845 3.60787 -0.650267 0
M  V30 5889 H 540.493 4.79379 1.52332 0
M  V30 5890 H 540.193 5.87435 0.139123 0
M  V30 5891 H 541.717 6.01308 1.06117 0
M  V30 5892 H 543.131 5.61141 -1.17447 0
M  V30 5893 H 541.528 5.67071 -1.96343 0
M  V30 5894 H 542.598 4.28906 -2.26202 0
M  V30 5895 N 543.941 0.601185 1.45683 0
M  V30 5896 C 545.166 0.0982245 2.07167 0
M  V30 5897 C 545.591 -1.20546 1.44396 0
M  V30 5898 O 544.949 -1.73247 0.534347 0
M  V30 5899 C 544.997 -0.0346976 3.60583 0
M  V30 5900 O 544.101 -1.08657 3.97828 0
M  V30 5901 H 543.442 0.0711618 0.660176 0
M  V30 5902 H 545.972 0.829376 1.87036 0
M  V30 5903 H 545.982 -0.234969 4.07323 0
M  V30 5904 H 544.657 0.917265 4.05659 0
M  V30 5905 H 543.234 -0.863275 3.6277 0
M  V30 5906 N 545.419 -1.53889 0.339982 0
M  V30 5907 C 546.367 -2.26391 -0.533822 0
M  V30 5908 C 547.361 -1.28404 -1.10493 0
M  V30 5909 O 548.567 -1.46124 -1.05108 0
M  V30 5910 H 544.942 -0.727385 -0.190828 0
M  V30 5911 H 546.913 -2.98233 0.0997484 0
M  V30 5912 C 545.662 -3.04707 -1.67479 0
M  V30 5913 H 544.985 -3.79934 -1.2446 0
M  V30 5914 H 546.425 -3.58657 -2.26144 0
M  V30 5915 C 544.884 -2.13989 -2.60212 0
M  V30 5916 O 545.414 -1.73361 -3.62366 0
M  V30 5917 N 543.62 -1.79141 -2.28816 0
M  V30 5918 H 543.167 -2.12378 -1.45785 0
M  V30 5919 H 543.125 -1.18725 -2.91121 0
M  V30 5920 N 546.897 -0.0685191 -1.57451 0
M  V30 5921 C 548.144 0.601348 -1.93365 0
M  V30 5922 C 548.472 1.69816 -0.948294 0
M  V30 5923 O 547.727 1.95666 0.0366199 0
M  V30 5924 C 548.026 1.22051 -3.35914 0
M  V30 5925 C 547.692 0.250165 -4.50205 0
M  V30 5926 C 546.354 -0.0167954 -4.81197 0
M  V30 5927 C 548.706 -0.413867 -5.19554 0
M  V30 5928 C 546.034 -0.95493 -5.78876 0
M  V30 5929 C 548.386 -1.3403 -6.18238 0
M  V30 5930 C 547.05 -1.61576 -6.47649 0
M  V30 5931 H 546.32 0.220049 -0.707573 0
M  V30 5932 H 548.967 -0.138697 -1.90997 0
M  V30 5933 H 547.272 2.03622 -3.34732 0
M  V30 5934 H 548.969 1.74605 -3.6099 0
M  V30 5935 H 545.559 0.468421 -4.26033 0
M  V30 5936 H 549.743 -0.220733 -4.95809 0
M  V30 5937 H 544.999 -1.17563 -5.99991 0
M  V30 5938 H 549.173 -1.86081 -6.71079 0
M  V30 5939 H 546.8 -2.34431 -7.2315 0
M  V30 5940 N 548.375 1.56261 0.205012 0
M  V30 5941 C 549.623 1.79684 0.925096 0
M  V30 5942 C 549.944 0.63989 1.84202 0
M  V30 5943 O 549.214 -0.342345 1.92885 0
M  V30 5944 H 547.794 0.662774 0.344587 0
M  V30 5945 H 550.456 1.93734 0.212899 0
M  V30 5946 H 549.552 2.72467 1.52211 0
M  V30 5947 N 549.853 -0.472356 1.50355 0
M  V30 5948 C 551.099 -1.22634 1.6152 0
M  V30 5949 C 551.432 -1.91645 0.313995 0
M  V30 5950 O 550.707 -1.82059 -0.684446 0
M  V30 5951 C 550.99 -2.27099 2.7946 0
M  V30 5952 C 550.843 -1.62402 4.19459 0
M  V30 5953 C 552.162 -3.28421 2.92964 0
M  V30 5954 H 549.281 -0.444494 0.587873 0
M  V30 5955 H 551.923 -0.520321 1.82737 0
M  V30 5956 H 550.073 -2.87314 2.61501 0
M  V30 5957 H 551.745 -1.05793 4.49005 0
M  V30 5958 H 549.988 -0.927184 4.23776 0
M  V30 5959 H 550.659 -2.38309 4.97909 0
M  V30 5960 H 553.135 -2.78227 3.09401 0
M  V30 5961 H 552.011 -3.98845 3.77113 0
M  V30 5962 H 552.272 -3.92467 2.03525 0
M  V30 5963 N 551.331 -1.39911 -0.725443 0
M  V30 5964 C 552.742 -1.33599 -1.30415 0
M  V30 5965 C 553.093 -0.00481792 -1.96199 0
M  V30 5966 O 552.218 0.897275 -1.96921 0
M  V30 5967 C 552.813 -2.41965 -2.37146 0
M  V30 5968 C 551.372 -2.39144 -2.90667 0
M  V30 5969 C 550.519 -2.23355 -1.64341 0
M  V30 5970 H 553.47 -1.4986 -0.522267 0
M  V30 5971 H 553.491 -2.09304 -3.17761 0
M  V30 5972 H 553.003 -3.38837 -1.89238 0
M  V30 5973 H 551.104 -1.4594 -3.4283 0
M  V30 5974 H 551.217 -3.34362 -3.43131 0
M  V30 5975 H 549.581 -1.70696 -1.89037 0
M  V30 5976 H 550.364 -3.2221 -1.18471 0
M  V30 5977 N 552.809 0.956637 -1.25245 0
M  V30 5978 C 554.057 1.69764 -1.09657 0
M  V30 5979 C 554.378 1.91583 0.363464 0
M  V30 5980 O 553.648 1.50149 1.25825 0
M  V30 5981 H 552.228 0.629097 -0.402798 0
M  V30 5982 H 554.89 1.15026 -1.57337 0
M  V30 5983 H 553.986 2.67769 -1.60331 0
M  V30 5984 N 554.287 1.06798 1.15896 0
M  V30 5985 C 555.217 0.704677 2.22613 0
M  V30 5986 C 556.198 -0.305252 1.67339 0
M  V30 5987 O 557.383 -0.179247 1.93371 0
M  V30 5988 C 554.513 0.0957325 3.47168 0
M  V30 5989 C 553.467 1.0322 4.15367 0
M  V30 5990 C 552.793 0.286293 5.33933 0
M  V30 5991 C 554.093 2.36341 4.65768 0
M  V30 5992 H 555.787 1.59688 2.53259 0
M  V30 5993 H 553.333 0.769257 1.21731 0
M  V30 5994 H 555.286 -0.170333 4.21056 0
M  V30 5995 H 554.01 -0.831516 3.15838 0
M  V30 5996 H 552.669 1.28309 3.43413 0
M  V30 5997 H 552.317 -0.644237 4.98857 0
M  V30 5998 H 552.017 0.910436 5.80504 0
M  V30 5999 H 553.541 0.0278938 6.10594 0
M  V30 6000 H 554.955 2.1561 5.31211 0
M  V30 6001 H 553.352 2.94299 5.2298 0
M  V30 6002 H 554.422 2.99047 3.81705 0
M  V30 6003 N 555.766 -1.3263 0.851289 0
M  V30 6004 C 556.994 -2.01563 0.466899 0
M  V30 6005 C 557.409 -1.63996 -0.935447 0
M  V30 6006 O 556.766 -0.85957 -1.6099 0
M  V30 6007 C 556.817 -3.56613 0.592433 0
M  V30 6008 O 556.538 -3.92828 1.93954 0
M  V30 6009 C 558.039 -4.42818 0.206612 0
M  V30 6010 H 555.259 -0.645307 0.183902 0
M  V30 6011 H 557.803 -1.69285 1.1473 0
M  V30 6012 H 555.958 -3.87379 -0.0401936 0
M  V30 6013 H 556.372 -4.87545 1.9339 0
M  V30 6014 H 557.846 -5.50918 0.345462 0
M  V30 6015 H 558.323 -4.30844 -0.85264 0
M  V30 6016 H 558.929 -4.17434 0.814176 0
M  V30 6017 N 557.244 -0.608902 -1.45362 0
M  V30 6018 C 558.474 -0.110852 -2.06302 0
M  V30 6019 C 558.882 1.21062 -1.45398 0
M  V30 6020 O 558.225 1.74861 -0.562976 0
M  V30 6021 C 558.287 0.101793 -3.59356 0
M  V30 6022 C 557.951 -1.13808 -4.42602 0
M  V30 6023 C 558.948 -2.05653 -4.77496 0
M  V30 6024 C 556.633 -1.36727 -4.83333 0
M  V30 6025 C 558.627 -3.18745 -5.51978 0
M  V30 6026 C 556.314 -2.5012 -5.57569 0
M  V30 6027 C 557.312 -3.40957 -5.91809 0
M  V30 6028 O 557 -4.52376 -6.64538 0
M  V30 6029 H 556.732 -0.0666001 -0.672711 0
M  V30 6030 H 559.286 -0.836942 -1.87575 0
M  V30 6031 H 557.516 0.88279 -3.76489 0
M  V30 6032 H 559.205 0.551607 -4.02134 0
M  V30 6033 H 559.971 -1.89172 -4.46586 0
M  V30 6034 H 555.85 -0.669216 -4.56117 0
M  V30 6035 H 559.394 -3.8967 -5.78622 0
M  V30 6036 H 555.291 -2.66553 -5.87894 0
M  V30 6037 H 556.059 -4.51075 -6.82989 0
M  V30 6038 N 558.722 1.53707 -0.348139 0
M  V30 6039 C 559.999 1.93247 0.302475 0
M  V30 6040 C 560.379 1.28012 1.67857 0
M  V30 6041 O 559.727 0.43274 2.24365 0
M  V30 6042 C 559.937 3.47031 0.370159 0
M  V30 6043 C 561.285 4.20066 0.61882 0
M  V30 6044 O 562.309 3.53319 0.452087 0
M  V30 6045 O 561.168 5.38318 0.94215 0
M  V30 6046 H 558.262 0.807736 0.177458 0
M  V30 6047 H 560.808 1.64927 -0.399651 0
M  V30 6048 H 559.58 3.86745 -0.59534 0
M  V30 6049 H 559.203 3.81532 1.11888 0
M  V30 6050 N 560.2 0.0768682 1.57412 0
M  V30 6051 C 561.449 -0.590679 1.92857 0
M  V30 6052 C 561.762 -1.70461 0.959293 0
M  V30 6053 O 562.968 -2.43207 1.20675 0
M  V30 6054 C 561.424 -1.10204 3.42612 0
M  V30 6055 C 561.032 -0.0188447 4.47996 0
M  V30 6056 C 562.776 -1.74336 3.87049 0
M  V30 6057 C 560.683 -0.544536 5.88888 0
M  V30 6058 H 559.613 -0.224411 0.71983 0
M  V30 6059 H 562.264 0.149924 1.82887 0
M  V30 6060 H 560.646 -1.89577 3.47673 0
M  V30 6061 H 561.82 0.755936 4.54557 0
M  V30 6062 H 560.135 0.526555 4.13057 0
M  V30 6063 H 562.732 -2.14708 4.89699 0
M  V30 6064 H 563.075 -2.60537 3.24694 0
M  V30 6065 H 563.608 -1.01577 3.84613 0
M  V30 6066 H 560.347 0.280426 6.549 0
M  V30 6067 H 559.867 -1.28673 5.85836 0
M  V30 6068 H 561.546 -1.01933 6.3892 0
M  V30 6069 N 561.678 -1.56367 -0.196722 0
M  V30 6070 C 562.625 -1.94417 -1.24382 0
M  V30 6071 C 563.595 -0.804543 -1.45315 0
M  V30 6072 O 564.78 -1.06256 -1.58475 0
M  V30 6073 C 561.92 -2.28757 -2.58388 0
M  V30 6074 C 561.033 -3.55775 -2.45047 0
M  V30 6075 C 560.168 -3.79445 -3.71746 0
M  V30 6076 C 559.207 -4.99894 -3.53231 0
M  V30 6077 N 558.344 -5.19826 -4.71938 0
M  V30 6078 H 563.184 -2.83691 -0.912338 0
M  V30 6079 H 560.721 -1.40392 -0.439135 0
M  V30 6080 H 562.679 -2.46682 -3.36457 0
M  V30 6081 H 561.309 -1.42625 -2.89582 0
M  V30 6082 H 560.361 -3.45905 -1.58284 0
M  V30 6083 H 561.673 -4.44 -2.27299 0
M  V30 6084 H 560.827 -3.97601 -4.58256 0
M  V30 6085 H 559.566 -2.89546 -3.92446 0
M  V30 6086 H 558.571 -4.81662 -2.65107 0
M  V30 6087 H 559.796 -5.913 -3.33978 0
M  V30 6088 H 557.742 -4.32875 -4.92905 0
M  V30 6089 H 557.659 -6.02228 -4.57009 0
M  V30 6090 H 558.927 -5.42439 -5.59803 0
M  V30 6091 N 563.156 0.464375 -1.50603 0
M  V30 6092 C 564.104 1.58224 -1.70493 0
M  V30 6093 C 565.098 1.59492 -0.570836 0
M  V30 6094 O 566.304 1.63561 -0.751517 0
M  V30 6095 H 562.679 0.525161 -0.538247 0
M  V30 6096 H 564.65 1.38613 -2.64252 0
M  V30 6097 C 563.399 2.96113 -1.82243 0
M  V30 6098 H 562.722 2.95858 -2.68901 0
M  V30 6099 H 564.162 3.73769 -2.00182 0
M  V30 6100 C 562.621 3.31946 -0.575628 0
M  V30 6101 O 563.151 4.00708 0.282152 0
M  V30 6102 N 561.357 2.87436 -0.427665 0
M  V30 6103 H 560.904 2.31652 -1.12674 0
M  V30 6104 H 560.862 3.11776 0.405379 0
M  V30 6105 N 564.634 1.40294 0.718013 0
M  V30 6106 C 565.882 1.38167 1.47494 0
M  V30 6107 C 566.203 -0.01607 1.94993 0
M  V30 6108 O 565.473 -0.970396 1.70177 0
M  V30 6109 H 564.053 0.508505 0.547203 0
M  V30 6110 H 566.715 1.75324 0.851322 0
M  V30 6111 H 565.811 2.05503 2.34894 0
M  V30 6112 N 566.112 -0.949982 1.2575 0
M  V30 6113 C 567.059 -2.04738 1.06541 0
M  V30 6114 C 568.029 -1.66078 -0.0268818 0
M  V30 6115 O 569.214 -1.90348 0.131196 0
M  V30 6116 C 566.354 -3.38027 0.695127 0
M  V30 6117 C 565.467 -3.89776 1.86276 0
M  V30 6118 C 564.602 -5.11411 1.4364 0
M  V30 6119 C 563.641 -5.554 2.57287 0
M  V30 6120 N 562.778 -6.68244 2.15395 0
M  V30 6121 H 567.618 -2.20502 2.00457 0
M  V30 6122 H 565.155 -1.0805 0.998178 0
M  V30 6123 H 567.113 -4.14641 0.461375 0
M  V30 6124 H 565.743 -3.22135 -0.207046 0
M  V30 6125 H 564.795 -3.0964 2.20969 0
M  V30 6126 H 566.107 -4.18368 2.71606 0
M  V30 6127 H 565.261 -5.95457 1.16257 0
M  V30 6128 H 564 -4.84545 0.553879 0
M  V30 6129 H 563.005 -4.69916 2.85409 0
M  V30 6130 H 564.23 -5.84272 3.46125 0
M  V30 6131 H 562.176 -6.43078 1.29565 0
M  V30 6132 H 562.093 -6.96377 2.94272 0
M  V30 6133 H 563.361 -7.55687 1.91201 0
M  V30 6134 N 567.59 -1.07411 -1.15328 0
M  V30 6135 C 569.001 -0.820261 -1.67716 0
M  V30 6136 C 569.352 0.654539 -1.8496 0
M  V30 6137 O 568.477 1.50664 -1.55337 0
M  V30 6138 C 569.072 -1.48242 -3.04647 0
M  V30 6139 C 567.631 -1.27606 -3.5411 0
M  V30 6140 C 566.778 -1.5517 -2.29821 0
M  V30 6141 H 569.729 -1.23608 -0.995332 0
M  V30 6142 H 569.75 -0.903984 -3.69606 0
M  V30 6143 H 569.262 -2.55578 -2.92064 0
M  V30 6144 H 567.363 -0.222948 -3.71932 0
M  V30 6145 H 567.476 -1.99667 -4.35511 0
M  V30 6146 H 565.84 -0.972747 -2.35393 0
M  V30 6147 H 566.623 -2.63689 -2.19824 0
M  V30 6148 N 569.068 1.32177 -0.85831 0
M  V30 6149 C 570.314 1.97417 -0.46417 0
M  V30 6150 C 570.647 1.67746 0.978514 0
M  V30 6151 O 569.922 0.967654 1.68721 0
M  V30 6152 C 570.205 3.53069 -0.708094 0
M  V30 6153 C 570.058 3.92357 -2.19946 0
M  V30 6154 C 571.377 4.39783 -0.166881 0
M  V30 6155 H 568.496 0.717097 -0.17012 0
M  V30 6156 H 571.138 1.56499 -1.07741 0
M  V30 6157 H 569.288 3.88054 -0.186128 0
M  V30 6158 H 570.96 3.67533 -2.78779 0
M  V30 6159 H 569.203 3.41384 -2.67656 0
M  V30 6160 H 569.874 5.00841 -2.32082 0
M  V30 6161 H 572.35 4.11556 -0.613285 0
M  V30 6162 H 571.226 5.47671 -0.367093 0
M  V30 6163 H 571.487 4.32196 0.930559 0
M  V30 6164 N 570.547 0.616602 1.45037 0
M  V30 6165 C 571.777 0.121791 2.06241 0
M  V30 6166 C 572.185 -1.20289 1.46038 0
M  V30 6167 O 571.528 -1.7456 0.572242 0
M  V30 6168 C 571.59 -0.0827345 3.59405 0
M  V30 6169 C 571.254 1.16153 4.41993 0
M  V30 6170 C 572.251 2.08183 4.76399 0
M  V30 6171 C 569.936 1.39288 4.82601 0
M  V30 6172 C 571.93 3.21668 5.5028 0
M  V30 6173 C 569.617 2.53073 5.56235 0
M  V30 6174 C 570.615 3.44091 5.89992 0
M  V30 6175 O 570.303 4.55894 6.6213 0
M  V30 6176 H 570.035 0.0701667 0.672349 0
M  V30 6177 H 572.589 0.846877 1.87129 0
M  V30 6178 H 570.819 -0.862812 3.76952 0
M  V30 6179 H 572.508 -0.530273 4.02421 0
M  V30 6180 H 573.274 1.91538 4.45576 0
M  V30 6181 H 569.153 0.693396 4.55755 0
M  V30 6182 H 572.697 3.92733 5.76547 0
M  V30 6183 H 568.594 2.69667 5.86472 0
M  V30 6184 H 569.362 4.5469 6.80587 0
M  V30 6185 N 572.025 -1.5352 0.356285 0
M  V30 6186 C 572.972 -2.25439 -0.494569 0
M  V30 6187 C 573.942 -1.25752 -1.08516 0
M  V30 6188 O 575.127 -1.54513 -1.1194 0
M  V30 6189 C 572.267 -3.04011 -1.63313 0
M  V30 6190 C 571.38 -4.18574 -1.06862 0
M  V30 6191 C 570.515 -4.84607 -2.17552 0
M  V30 6192 C 569.554 -5.91218 -1.58518 0
M  V30 6193 N 568.691 -6.50979 -2.63003 0
M  V30 6194 H 573.531 -2.97737 0.125244 0
M  V30 6195 H 571.068 -1.46916 0.0735789 0
M  V30 6196 H 573.026 -3.47834 -2.30363 0
M  V30 6197 H 571.656 -2.33986 -2.22374 0
M  V30 6198 H 570.708 -3.79303 -0.288672 0
M  V30 6199 H 572.02 -4.95215 -0.596924 0
M  V30 6200 H 571.174 -5.31566 -2.92442 0
M  V30 6201 H 569.913 -4.07418 -2.6807 0
M  V30 6202 H 568.918 -5.4363 -0.821391 0
M  V30 6203 H 570.143 -6.70322 -1.08836 0
M  V30 6204 H 568.089 -5.76648 -3.12751 0
M  V30 6205 H 568.006 -7.23131 -2.20493 0
M  V30 6206 H 569.274 -7.02589 -3.37623 0
M  V30 6207 N 573.503 -0.0852151 -1.57369 0
M  V30 6208 C 574.78 0.622534 -1.85429 0
M  V30 6209 C 575.16 1.86962 -0.980229 0
M  V30 6210 O 574.508 2.28445 -0.0500219 0
M  V30 6211 C 574.718 0.947374 -3.35896 0
M  V30 6212 C 576.066 1.31509 -4.03721 0
M  V30 6213 O 577.09 1.03869 -3.40719 0
M  V30 6214 O 575.949 1.83231 -5.14868 0
M  V30 6215 H 573.043 0.310513 -0.766492 0
M  V30 6216 H 575.589 -0.117164 -1.69295 0
M  V30 6217 H 574.361 0.0622264 -3.91251 0
M  V30 6218 H 573.984 1.74338 -3.5734 0
M  V30 6219 N 574.981 1.5647 0.188427 0
M  V30 6220 C 576.209 1.85131 0.923803 0
M  V30 6221 C 576.624 0.668537 1.76567 0
M  V30 6222 O 575.981 -0.362662 1.7886 0
M  V30 6223 C 576.032 3.12661 1.81453 0
M  V30 6224 O 575.753 4.26378 1.00665 0
M  V30 6225 C 577.254 3.54548 2.66103 0
M  V30 6226 H 574.474 0.614624 0.269218 0
M  V30 6227 H 577.018 2.03581 0.193671 0
M  V30 6228 H 575.173 2.96088 2.49821 0
M  V30 6229 H 575.587 4.99041 1.61425 0
M  V30 6230 H 577.061 4.4673 3.24247 0
M  V30 6231 H 577.538 2.77853 3.40139 0
M  V30 6232 H 578.144 3.73674 2.03096 0
M  V30 6233 N 576.459 -0.456382 1.50847 0
M  V30 6234 C 577.705 -1.20914 1.62811 0
M  V30 6235 C 578.038 -1.91301 0.334304 0
M  V30 6236 O 577.313 -1.82775 -0.665098 0
M  V30 6237 C 577.596 -2.24122 2.81853 0
M  V30 6238 C 577.449 -1.57944 4.21158 0
M  V30 6239 C 578.768 -3.25295 2.96431 0
M  V30 6240 H 575.887 -0.438233 0.592554 0
M  V30 6241 H 578.529 -0.50091 1.83278 0
M  V30 6242 H 576.679 -2.84524 2.64534 0
M  V30 6243 H 578.351 -1.01025 4.50102 0
M  V30 6244 H 576.594 -0.882185 4.24735 0
M  V30 6245 H 577.265 -2.33014 5.00408 0
M  V30 6246 H 579.741 -2.7493 3.12335 0
M  V30 6247 H 578.617 -3.94822 3.81322 0
M  V30 6248 H 578.878 -3.90286 2.07676 0
M  V30 6249 N 577.937 -1.40673 -0.710563 0
M  V30 6250 C 578.867 -1.44095 -1.83736 0
M  V30 6251 C 579.848 -0.301286 -1.67411 0
M  V30 6252 O 581.033 -0.510618 -1.87367 0
M  V30 6253 C 578.163 -1.30773 -3.21738 0
M  V30 6254 C 577.117 -2.42395 -3.52745 0
M  V30 6255 C 576.443 -2.14147 -4.89944 0
M  V30 6256 C 577.743 -3.84738 -3.53234 0
M  V30 6257 H 579.437 -2.38396 -1.81129 0
M  V30 6258 H 576.983 -1.14746 -0.870017 0
M  V30 6259 H 578.936 -1.31783 -4.00264 0
M  V30 6260 H 577.66 -0.329507 -3.24934 0
M  V30 6261 H 576.319 -2.40643 -2.76562 0
M  V30 6262 H 575.967 -1.14703 -4.89747 0
M  V30 6263 H 575.667 -2.88934 -5.11655 0
M  V30 6264 H 577.191 -2.16848 -5.70797 0
M  V30 6265 H 578.605 -3.88286 -4.2179 0
M  V30 6266 H 577.002 -4.59085 -3.86473 0
M  V30 6267 H 578.072 -4.13962 -2.52514 0
M  V30 6268 N 579.415 0.9433 -1.26252 0
M  V30 6269 C 580.362 2.0417 -1.07625 0
M  V30 6270 C 581.332 1.6609 0.0180738 0
M  V30 6271 O 582.517 1.90276 -0.141289 0
M  V30 6272 C 579.657 3.37653 -0.713043 0
M  V30 6273 C 578.77 3.88783 -1.8834 0
M  V30 6274 C 577.905 5.10642 -1.4635 0
M  V30 6275 C 576.944 5.54028 -2.60229 0
M  V30 6276 N 576.081 6.67092 -2.18936 0
M  V30 6277 H 580.921 2.19436 -2.01623 0
M  V30 6278 H 578.458 1.07519 -1.00389 0
M  V30 6279 H 580.416 4.14391 -0.483358 0
M  V30 6280 H 579.046 3.22241 0.18996 0
M  V30 6281 H 578.098 3.08464 -2.22608 0
M  V30 6282 H 579.41 4.16922 -2.73821 0
M  V30 6283 H 578.564 5.94832 -1.19414 0
M  V30 6284 H 577.303 4.84244 -0.579568 0
M  V30 6285 H 576.308 4.68396 -2.87898 0
M  V30 6286 H 577.533 5.82429 -3.49219 0
M  V30 6287 H 575.479 6.42381 -1.32974 0
M  V30 6288 H 575.396 6.94806 -2.97961 0
M  V30 6289 H 576.664 7.54662 -1.95206 0
M  V30 6290 N 580.893 1.08022 1.14757 0
M  V30 6291 C 581.856 0.71048 2.1791 0
M  V30 6292 C 582.856 -0.252731 1.58801 0
M  V30 6293 O 584.046 -0.0327915 1.74169 0
M  V30 6294 C 581.178 0.0483203 3.40866 0
M  V30 6295 H 582.371 1.62384 2.52134 0
M  V30 6296 H 579.924 0.877595 1.29337 0
M  V30 6297 H 580.659 -0.876959 3.12218 0
M  V30 6298 H 580.444 0.741189 3.85031 0
M  V30 6299 H 581.934 -0.195471 4.17142 0
M  V30 6300 N 582.371 -1.3172 0.865308 0
M  V30 6301 C 583.334 -2.26918 0.322627 0
M  V30 6302 C 584.334 -1.52031 -0.523751 0
M  V30 6303 O 585.524 -1.70973 -0.333727 0
M  V30 6304 C 582.656 -3.36558 -0.542338 0
M  V30 6305 H 583.849 -2.76432 1.16298 0
M  V30 6306 H 581.402 -1.42573 0.640512 0
M  V30 6307 H 582.137 -2.92329 -1.40407 0
M  V30 6308 H 581.922 -3.92048 0.0636395 0
M  V30 6309 H 583.412 -4.07465 -0.91446 0
M  V30 6310 N 583.85 -0.624285 -1.44708 0
M  V30 6311 C 584.782 0.12305 -2.28869 0
M  V30 6312 C 585.795 0.81557 -1.40898 0
M  V30 6313 O 586.984 0.678162 -1.65116 0
M  V30 6314 C 584.084 1.19612 -3.1709 0
M  V30 6315 C 583.257 0.587452 -4.33437 0
M  V30 6316 C 582.316 1.55358 -5.02743 0
M  V30 6317 O 581.341 1.07338 -5.58988 0
M  V30 6318 N 582.543 2.88798 -5.03563 0
M  V30 6319 H 585.308 -0.599193 -2.93649 0
M  V30 6320 H 582.87 -0.464954 -1.5508 0
M  V30 6321 H 584.861 1.84261 -3.60319 0
M  V30 6322 H 583.432 1.82067 -2.54107 0
M  V30 6323 H 582.652 -0.237509 -3.93484 0
M  V30 6324 H 583.94 0.161326 -5.08544 0
M  V30 6325 H 583.338 3.30399 -4.59188 0
M  V30 6326 H 581.894 3.48826 -5.50603 0
M  V30 6327 N 585.328 1.53329 -0.364422 0
M  V30 6328 C 586.739 1.86345 0.115039 0
M  V30 6329 C 587.09 1.28505 1.4826 0
M  V30 6330 O 586.215 0.606639 2.07723 0
M  V30 6331 C 586.81 3.38114 0.215522 0
M  V30 6332 C 585.369 3.70932 0.639237 0
M  V30 6333 C 584.516 2.76471 -0.214261 0
M  V30 6334 H 587.467 1.47593 -0.583258 0
M  V30 6335 H 587.488 3.66031 1.0393 0
M  V30 6336 H 587 3.80182 -0.779948 0
M  V30 6337 H 585.101 3.3442 1.64298 0
M  V30 6338 H 585.214 4.77302 0.41465 0
M  V30 6339 H 583.578 2.52724 0.316678 0
M  V30 6340 H 584.361 3.21373 -1.20725 0
M  V30 6341 N 586.806 0.0935595 1.57322 0
M  V30 6342 C 588.052 -0.571355 1.94585 0
M  V30 6343 C 588.385 -1.67929 0.975366 0
M  V30 6344 O 587.66 -1.94498 0.00816206 0
M  V30 6345 C 587.943 -1.12797 3.41978 0
M  V30 6346 C 587.796 -0.0251881 4.49793 0
M  V30 6347 C 589.115 -2.02682 3.90651 0
M  V30 6348 H 586.234 -0.206223 0.70756 0
M  V30 6349 H 588.876 0.163956 1.89291 0
M  V30 6350 H 587.026 -1.75461 3.4662 0
M  V30 6351 H 588.698 0.608979 4.57263 0
M  V30 6352 H 586.941 0.641399 4.29032 0
M  V30 6353 H 587.612 -0.455433 5.50118 0
M  V30 6354 H 590.088 -1.49925 3.88152 0
M  V30 6355 H 588.964 -2.38555 4.94351 0
M  V30 6356 H 589.225 -2.94362 3.29854 0
M  V30 6357 N 588.284 -1.56567 -0.180126 0
M  V30 6358 C 589.232 -1.96632 -1.24251 0
M  V30 6359 C 590.226 -0.853818 -1.46309 0
M  V30 6360 O 591.432 -1.0389 -1.46993 0
M  V30 6361 H 587.807 -0.625476 -0.417473 0
M  V30 6362 H 589.778 -2.85201 -0.877679 0
M  V30 6363 C 588.527 -2.33486 -2.57642 0
M  V30 6364 H 587.85 -3.18626 -2.4149 0
M  V30 6365 H 589.29 -2.65371 -3.30688 0
M  V30 6366 C 587.749 -1.17499 -3.15746 0
M  V30 6367 O 588.279 -0.457956 -3.99081 0
M  V30 6368 N 586.485 -0.94786 -2.74707 0
M  V30 6369 H 586.032 -1.53269 -2.07042 0
M  V30 6370 H 585.99 -0.173626 -3.1392 0
M  V30 6371 N 589.762 0.448376 -1.51087 0
M  V30 6372 C 590.71 1.56407 -1.72161 0
M  V30 6373 C 591.704 1.58878 -0.587721 0
M  V30 6374 O 592.91 1.62755 -0.768822 0
M  V30 6375 H 589.285 0.519423 -0.543786 0
M  V30 6376 H 591.256 1.35803 -2.65707 0
M  V30 6377 C 590.005 2.94163 -1.85373 0
M  V30 6378 H 589.328 2.9299 -2.72024 0
M  V30 6379 H 590.768 3.71625 -2.04135 0
M  V30 6380 C 589.227 3.31317 -0.610803 0
M  V30 6381 O 589.757 4.00985 0.239636 0
M  V30 6382 N 587.963 2.86966 -0.458127 0
M  V30 6383 H 587.51 2.30443 -1.15124 0
M  V30 6384 H 587.468 3.12188 0.372289 0
M  V30 6385 N 591.24 1.41047 0.703093 0
M  V30 6386 C 592.172 1.38228 1.82827 0
M  V30 6387 C 593.185 0.285637 1.60275 0
M  V30 6388 O 594.374 0.54685 1.69917 0
M  V30 6389 C 591.474 1.13136 3.19458 0
M  V30 6390 C 590.647 2.34695 3.69103 0
M  V30 6391 C 589.706 2.05574 4.84382 0
M  V30 6392 O 588.732 2.78549 4.96386 0
M  V30 6393 N 589.934 1.04135 5.71083 0
M  V30 6394 H 592.699 2.35203 1.85741 0
M  V30 6395 H 590.26 1.35562 0.885125 0
M  V30 6396 H 592.252 0.916183 3.94193 0
M  V30 6397 H 590.822 0.247836 3.11616 0
M  V30 6398 H 590.042 2.71963 2.85359 0
M  V30 6399 H 591.33 3.15705 3.99009 0
M  V30 6400 H 590.728 0.43722 5.64008 0
M  V30 6401 H 589.285 0.886078 6.45749 0
M  V30 6402 N 592.718 -0.936591 1.26751 0
M  V30 6403 C 593.651 -2.03619 1.03027 0
M  V30 6404 C 594.629 -1.62534 -0.0464619 0
M  V30 6405 O 595.813 -1.88251 0.0968873 0
M  V30 6406 C 592.94 -3.3402 0.561072 0
M  V30 6407 C 591.986 -3.9408 1.63105 0
M  V30 6408 S 592.819 -4.27782 3.22122 0
M  V30 6409 C 593.975 -5.61277 2.76982 0
M  V30 6410 H 594.208 -2.23429 1.96129 0
M  V30 6411 H 591.741 -1.07857 1.10482 0
M  V30 6412 H 593.699 -4.09424 0.297031 0
M  V30 6413 H 592.36 -3.12147 -0.349741 0
M  V30 6414 H 591.553 -4.88154 1.25386 0
M  V30 6415 H 591.155 -3.25227 1.84671 0
M  V30 6416 H 593.447 -6.40189 2.21731 0
M  V30 6417 H 594.39 -6.03887 3.69766 0
M  V30 6418 H 594.798 -5.21374 2.16402 0
M  V30 6419 N 594.196 -1.08629 -1.14182 0
M  V30 6420 C 595.426 -0.837673 -1.88856 0
M  V30 6421 C 595.834 0.614024 -1.78959 0
M  V30 6422 O 595.177 1.43384 -1.14833 0
M  V30 6423 C 595.239 -1.18355 -3.39459 0
M  V30 6424 C 594.903 -2.63848 -3.73139 0
M  V30 6425 C 595.9 -3.62099 -3.73069 0
M  V30 6426 C 593.585 -2.99761 -4.03049 0
M  V30 6427 C 595.579 -4.94292 -4.02435 0
M  V30 6428 C 593.266 -4.32147 -4.32078 0
M  V30 6429 C 594.264 -5.29223 -4.31755 0
M  V30 6430 O 593.952 -6.59229 -4.60079 0
M  V30 6431 H 593.684 -0.301609 -0.604986 0
M  V30 6432 H 596.238 -1.44961 -1.45518 0
M  V30 6433 H 594.468 -0.514628 -3.8326 0
M  V30 6434 H 596.157 -0.915391 -3.95443 0
M  V30 6435 H 596.923 -3.35698 -3.50046 0
M  V30 6436 H 592.802 -2.2484 -4.02453 0
M  V30 6437 H 596.346 -5.70055 -4.02098 0
M  V30 6438 H 592.243 -4.58296 -4.54571 0
M  V30 6439 H 593.011 -6.64578 -4.77785 0
M  V30 6440 N 595.674 1.31259 -0.872281 0
M  V30 6441 C 596.951 1.91362 -0.404943 0
M  V30 6442 C 597.331 1.79362 1.11321 0
M  V30 6443 O 596.679 1.20277 1.94283 0
M  V30 6444 C 596.889 3.3749 -0.888893 0
M  V30 6445 C 598.237 4.14593 -0.916384 0
M  V30 6446 O 599.261 3.46282 -0.834701 0
M  V30 6447 O 598.12 5.3661 -1.03498 0
M  V30 6448 H 595.214 0.818016 -0.121569 0
M  V30 6449 H 597.76 1.39912 -0.960346 0
M  V30 6450 H 596.532 3.40249 -1.93251 0
M  V30 6451 H 596.155 3.96375 -0.311932 0
M  V30 6452 N 597.152 0.631951 1.44375 0
M  V30 6453 C 598.401 0.134214 2.01253 0
M  V30 6454 C 598.714 -1.25171 1.50305 0
M  V30 6455 O 599.92 -1.8435 1.99317 0
M  V30 6456 C 598.376 0.189187 3.59402 0
M  V30 6457 C 597.984 1.57647 4.19346 0
M  V30 6458 C 599.728 -0.252044 4.23751 0
M  V30 6459 C 597.635 1.58651 5.69722 0
M  V30 6460 H 596.565 0.0464101 0.75257 0
M  V30 6461 H 599.216 0.790868 1.65582 0
M  V30 6462 H 597.598 -0.534584 3.92375 0
M  V30 6463 H 598.772 2.32389 3.97909 0
M  V30 6464 H 597.087 1.96186 3.67288 0
M  V30 6465 H 599.684 -0.264084 5.34047 0
M  V30 6466 H 600.027 -1.27951 3.96149 0
M  V30 6467 H 600.56 0.41926 3.95584 0
M  V30 6468 H 597.299 2.59237 6.0206 0
M  V30 6469 H 596.819 0.882039 5.93279 0
M  V30 6470 H 598.498 1.32082 6.33375 0
M  V30 6471 N 598.631 -1.53133 0.372548 0
M  V30 6472 C 599.879 -2.00958 -0.214534 0
M  V30 6473 C 600.2 -1.26135 -1.48711 0
M  V30 6474 O 599.47 -0.376597 -1.92246 0
M  V30 6475 H 598.05 -0.742456 -0.0822664 0
M  V30 6476 H 600.712 -1.88367 0.500385 0
M  V30 6477 H 599.808 -3.09031 -0.436605 0
M  V30 6478 N 600.109 -0.101901 -1.5727 0
M  V30 6479 C 601.072 0.840129 -2.13247 0
M  V30 6480 C 602.072 1.20625 -1.06331 0
M  V30 6481 O 603.262 1.13456 -1.32186 0
M  V30 6482 C 600.394 2.13372 -2.65867 0
M  V30 6483 H 601.587 0.353945 -2.97804 0
M  V30 6484 H 599.14 0.147167 -1.55606 0
M  V30 6485 H 599.875 2.66461 -1.84849 0
M  V30 6486 H 599.66 1.88085 -3.44044 0
M  V30 6487 H 601.15 2.80748 -3.09145 0
M  V30 6488 N 601.587 1.56661 0.17182 0
M  V30 6489 C 602.519 1.92934 1.2373 0
M  V30 6490 C 603.532 0.822385 1.40502 0
M  V30 6491 O 604.721 1.10083 1.40514 0
M  V30 6492 C 601.821 2.16651 2.60607 0
M  V30 6493 C 600.994 3.47878 2.6514 0
M  V30 6494 C 600.053 3.60429 3.83377 0
M  V30 6495 O 599.079 4.33051 3.69398 0
M  V30 6496 N 600.281 2.95241 4.99813 0
M  V30 6497 H 603.046 2.84931 0.929205 0
M  V30 6498 H 600.607 1.5781 0.361588 0
M  V30 6499 H 602.599 2.22312 3.38171 0
M  V30 6500 H 601.169 1.3104 2.83809 0
M  V30 6501 H 600.389 3.53879 1.73675 0
M  V30 6502 H 601.677 4.34232 2.6518 0
M  V30 6503 H 601.075 2.3611 5.14071 0
M  V30 6504 H 599.632 3.06499 5.75241 0
M  V30 6505 N 603.065 -0.440357 1.51323 0
M  V30 6506 C 604.314 -1.18697 1.63076 0
M  V30 6507 C 604.627 -1.92418 0.35136 0
M  V30 6508 O 605.833 -2.69258 0.348221 0
M  V30 6509 C 604.289 -2.15849 2.87988 0
M  V30 6510 C 603.897 -1.47789 4.22921 0
M  V30 6511 C 605.641 -2.90962 3.09098 0
M  V30 6512 C 603.548 -2.43407 5.38987 0
M  V30 6513 H 602.478 -0.44676 0.607389 0
M  V30 6514 H 605.129 -0.454313 1.77787 0
M  V30 6515 H 603.511 -2.92537 2.66905 0
M  V30 6516 H 604.685 -0.7668 4.54375 0
M  V30 6517 H 603 -0.848404 4.07665 0
M  V30 6518 H 605.597 -3.62584 3.92985 0
M  V30 6519 H 605.94 -3.52133 2.22053 0
M  V30 6520 H 606.473 -2.21381 3.30507 0
M  V30 6521 H 603.212 -1.86929 6.28282 0
M  V30 6522 H 602.732 -3.12579 5.11913 0
M  V30 6523 H 604.411 -3.046 5.70813 0
M  V30 6524 N 604.543 -1.41418 -0.695603 0
M  V30 6525 C 605.954 -1.36335 -1.27552 0
M  V30 6526 C 606.305 -0.0464336 -1.96145 0
M  V30 6527 O 605.43 0.855304 -1.9878 0
M  V30 6528 C 606.025 -2.46941 -2.3196 0
M  V30 6529 C 604.584 -2.45256 -2.85529 0
M  V30 6530 C 603.731 -2.2679 -1.59566 0
M  V30 6531 H 606.682 -1.50934 -0.490362 0
M  V30 6532 H 606.703 -2.15997 -3.1325 0
M  V30 6533 H 606.215 -3.42775 -1.82008 0
M  V30 6534 H 604.316 -1.53179 -3.39657 0
M  V30 6535 H 604.429 -3.41565 -3.35961 0
M  V30 6536 H 602.793 -1.74667 -1.85374 0
M  V30 6537 H 603.576 -3.24651 -1.1161 0
M  V30 6538 N 606.021 0.929856 -1.27246 0
M  V30 6539 C 607.27 1.67182 -1.12842 0
M  V30 6540 C 607.583 1.9287 0.325666 0
M  V30 6541 O 608.789 2.64999 0.590572 0
M  V30 6542 C 607.245 3.01097 -1.97151 0
M  V30 6543 C 606.853 2.83115 -3.47203 0
M  V30 6544 C 608.597 3.78907 -1.91389 0
M  V30 6545 C 606.504 4.12573 -4.23719 0
M  V30 6546 H 605.434 0.627064 -0.418697 0
M  V30 6547 H 608.085 1.0332 -1.51649 0
M  V30 6548 H 606.467 3.66004 -1.51186 0
M  V30 6549 H 607.641 2.26989 -4.01015 0
M  V30 6550 H 605.956 2.18736 -3.54321 0
M  V30 6551 H 608.553 4.74837 -2.45834 0
M  V30 6552 H 608.896 4.0674 -0.887047 0
M  V30 6553 H 609.429 3.20794 -2.35237 0
M  V30 6554 H 606.168 3.8992 -5.26918 0
M  V30 6555 H 605.688 4.68371 -3.74685 0
M  V30 6556 H 607.367 4.8095 -4.32777 0
M  V30 6557 N 607.499 1.09233 1.13605 0
M  V30 6558 C 608.747 0.825525 1.84471 0
M  V30 6559 C 609.068 -0.650702 1.83823 0
M  V30 6560 O 608.338 -1.47204 1.29259 0
M  V30 6561 H 606.918 0.3024 0.683054 0
M  V30 6562 H 609.58 1.38006 1.37624 0
M  V30 6563 H 608.676 1.17727 2.89045 0
M  V30 6564 N 608.977 -1.30795 0.87923 0
M  V30 6565 C 610.224 -1.96362 0.494786 0
M  V30 6566 C 610.552 -1.69448 -0.954868 0
M  V30 6567 O 609.807 -0.988711 -1.68888 0
M  V30 6568 C 610.106 -3.50287 0.709476 0
M  V30 6569 C 609.772 -3.9724 2.13333 0
M  V30 6570 C 608.434 -4.09772 2.52271 0
M  V30 6571 C 610.786 -4.21807 3.06151 0
M  V30 6572 C 608.114 -4.44227 3.83248 0
M  V30 6573 C 610.466 -4.5773 4.36654 0
M  V30 6574 C 609.13 -4.68469 4.75492 0
M  V30 6575 H 608.4 -0.71854 0.181055 0
M  V30 6576 H 611.047 -1.55764 1.11399 0
M  V30 6577 H 609.352 -3.91799 0.0072 0
M  V30 6578 H 611.049 -3.99082 0.391703 0
M  V30 6579 H 607.639 -3.87988 1.82107 0
M  V30 6580 H 611.823 -4.11611 2.77291 0
M  V30 6581 H 607.079 -4.50741 4.13089 0
M  V30 6582 H 611.253 -4.7569 5.08617 0
M  V30 6583 H 608.88 -4.94923 5.77022 0
M  V30 6584 N 610.455 -0.639598 -1.44038 0
M  V30 6585 C 611.701 -0.156248 -2.02799 0
M  V30 6586 C 612.056 1.21145 -1.49471 0
M  V30 6587 O 611.349 1.79406 -0.672608 0
M  V30 6588 C 611.543 -0.0925348 -3.5728 0
M  V30 6589 C 611.372 -1.45252 -4.25596 0
M  V30 6590 C 610.142 -2.04145 -4.62226 0
M  V30 6591 C 612.34 -2.38812 -4.55492 0
M  V30 6592 N 610.322 -3.3329 -5.15549 0
M  V30 6593 C 611.693 -3.52578 -5.09989 0
M  V30 6594 C 613.748 -2.37785 -4.3745 0
M  V30 6595 C 612.451 -4.65525 -5.48342 0
M  V30 6596 C 614.477 -3.49802 -4.76857 0
M  V30 6597 C 613.839 -4.62292 -5.31475 0
M  V30 6598 H 609.938 -0.101292 -0.775412 0
M  V30 6599 H 612.522 -0.844938 -1.75411 0
M  V30 6600 H 610.693 0.565459 -3.84262 0
M  V30 6601 H 612.425 0.400426 -4.02714 0
M  V30 6602 H 609.18 -1.56999 -4.4682 0
M  V30 6603 H 609.604 -3.9934 -5.46678 0
M  V30 6604 H 614.246 -1.52061 -3.94509 0
M  V30 6605 H 611.964 -5.51951 -5.90233 0
M  V30 6606 H 615.55 -3.50193 -4.64603 0
M  V30 6607 H 614.43 -5.47536 -5.61403 0
M  V30 6608 N 611.933 1.52934 -0.380664 0
M  V30 6609 C 612.865 2.23822 0.493581 0
M  V30 6610 C 613.878 1.25761 1.03383 0
M  V30 6611 O 615.067 1.5189 0.937633 0
M  V30 6612 C 612.167 2.9342 1.69582 0
M  V30 6613 C 611.34 4.18115 1.28445 0
M  V30 6614 C 610.399 4.70788 2.35042 0
M  V30 6615 O 609.425 5.34093 1.96807 0
M  V30 6616 N 610.627 4.49899 3.66839 0
M  V30 6617 H 613.392 2.99484 -0.11371 0
M  V30 6618 H 610.953 1.60577 -0.206587 0
M  V30 6619 H 612.945 3.2556 2.40401 0
M  V30 6620 H 611.515 2.21119 2.20965 0
M  V30 6621 H 610.735 3.92109 0.405503 0
M  V30 6622 H 612.023 4.99152 0.986132 0
M  V30 6623 H 611.421 3.99349 4.0067 0
M  V30 6624 H 609.978 4.86551 4.33718 0
M  V30 6625 N 613.412 0.11024 1.57214 0
M  V30 6626 C 614.689 -0.592956 1.86396 0
M  V30 6627 C 615.069 -1.85379 1.00985 0
M  V30 6628 O 614.417 -2.28337 0.0863592 0
M  V30 6629 C 614.627 -0.893816 3.3736 0
M  V30 6630 C 615.975 -1.25069 4.05762 0
M  V30 6631 O 616.999 -0.984356 3.42329 0
M  V30 6632 O 615.858 -1.75017 5.17718 0
M  V30 6633 H 612.952 -0.29828 0.771335 0
M  V30 6634 H 615.498 0.144083 1.69087 0
M  V30 6635 H 614.27 2.6031e-05 3.913 0
M  V30 6636 H 613.893 -1.68631 3.60068 0
M  V30 6637 N 614.89 -1.56749 -0.16351 0
M  V30 6638 C 616.12 -1.86307 -0.892936 0
M  V30 6639 C 616.528 -0.6945 -1.75992 0
M  V30 6640 O 615.871 0.345384 -1.80424 0
M  V30 6641 C 615.933 -3.10372 -1.81409 0
M  V30 6642 C 615.597 -4.42913 -1.12593 0
M  V30 6643 C 616.594 -5.17608 -0.487661 0
M  V30 6644 C 614.279 -4.89646 -1.12035 0
M  V30 6645 C 616.273 -6.3723 0.14699 0
M  V30 6646 C 613.96 -6.09197 -0.481883 0
M  V30 6647 C 614.958 -6.82834 0.150678 0
M  V30 6648 O 614.646 -8.00116 0.779065 0
M  V30 6649 H 614.378 -0.622126 -0.264452 0
M  V30 6650 H 616.932 -2.04728 -0.166063 0
M  V30 6651 H 615.162 -2.87917 -2.58148 0
M  V30 6652 H 616.851 -3.26312 -2.41403 0
M  V30 6653 H 617.617 -4.8258 -0.483888 0
M  V30 6654 H 613.496 -4.32265 -1.60212 0
M  V30 6655 H 617.04 -6.94646 0.641325 0
M  V30 6656 H 612.937 -6.43688 -0.483266 0
M  V30 6657 H 613.705 -8.15678 0.679089 0
M  V30 6658 N 616.368 0.432326 -1.51554 0
M  V30 6659 C 617.278 1.55023 -1.76082 0
M  V30 6660 C 618.294 1.61593 -0.645265 0
M  V30 6661 O 619.47 1.78742 -0.928086 0
M  V30 6662 C 616.535 2.90964 -1.88523 0
M  V30 6663 C 615.596 2.9447 -3.12388 0
M  V30 6664 C 614.829 4.23926 -3.24225 0
M  V30 6665 O 615.052 5.16576 -2.4188 0
M  V30 6666 O 613.986 4.33818 -4.17235 0
M  V30 6667 H 617.812 1.37238 -2.70923 0
M  V30 6668 H 615.397 0.615845 -1.36117 0
M  V30 6669 H 617.279 3.71633 -1.98662 0
M  V30 6670 H 615.954 3.08865 -0.9687 0
M  V30 6671 H 614.861 2.12737 -3.07723 0
M  V30 6672 H 616.194 2.81514 -4.03746 0
M  V30 6673 N 617.846 1.41785 0.688094 0
M  V30 6674 C 619.076 1.44705 1.47459 0
M  V30 6675 C 619.484 0.052916 1.89126 0
M  V30 6676 O 618.827 -0.939781 1.57841 0
M  V30 6677 C 618.889 2.29935 2.76352 0
M  V30 6678 C 618.553 3.77996 2.56843 0
M  V30 6679 C 619.55 4.69976 2.22304 0
M  V30 6680 C 617.235 4.2212 2.7225 0
M  V30 6681 C 619.229 6.04068 2.03421 0
M  V30 6682 C 616.916 5.56275 2.52985 0
M  V30 6683 C 617.914 6.47065 2.18621 0
M  V30 6684 O 617.602 7.78744 1.9953 0
M  V30 6685 H 617.334 0.494703 0.460701 0
M  V30 6686 H 619.888 1.86802 0.854057 0
M  V30 6687 H 618.118 1.82664 3.40839 0
M  V30 6688 H 619.807 2.24467 3.38186 0
M  V30 6689 H 620.573 4.37175 2.10008 0
M  V30 6690 H 616.452 3.51752 2.97979 0
M  V30 6691 H 619.996 6.74897 1.76523 0
M  V30 6692 H 615.893 5.88653 2.64873 0
M  V30 6693 H 616.661 7.89966 2.14234 0
M  V30 6694 N 619.324 -0.923095 1.27737 0
M  V30 6695 C 620.234 -2.05765 1.12685 0
M  V30 6696 C 621.25 -1.73911 0.0557197 0
M  V30 6697 O 622.426 -1.99674 0.263137 0
M  V30 6698 C 619.491 -3.37804 0.780363 0
M  V30 6699 C 618.552 -3.83326 1.93286 0
M  V30 6700 C 617.785 -5.09064 1.60281 0
M  V30 6701 O 618.008 -5.6809 0.512828 0
M  V30 6702 O 616.942 -5.50071 2.44347 0
M  V30 6703 H 620.768 -2.21378 2.07907 0
M  V30 6704 H 618.353 -1.04299 1.06968 0
M  V30 6705 H 620.235 -4.17097 0.600668 0
M  V30 6706 H 618.91 -3.23387 -0.142291 0
M  V30 6707 H 617.817 -3.049 2.16764 0
M  V30 6708 H 619.15 -4.02292 2.83588 0
M  V30 6709 N 620.802 -1.09834 -1.13024 0
M  V30 6710 C 622.218 -0.828875 -1.36388 0
M  V30 6711 C 622.418 0.554756 -1.93713 0
M  V30 6712 O 621.474 1.30882 -2.15931 0
M  V30 6713 C 622.787 -1.92352 -2.3113 0
M  V30 6714 C 624.335 -1.95124 -2.44735 0
M  V30 6715 C 624.81 -3.03745 -3.42787 0
M  V30 6716 N 626.301 -3.03012 -3.5034 0
M  V30 6717 C 627.036 -3.83699 -4.26101 0
M  V30 6718 N 626.532 -4.74306 -5.04981 0
M  V30 6719 N 628.325 -3.71942 -4.21445 0
M  V30 6720 H 620.476 -1.99029 -0.74169 0
M  V30 6721 H 622.739 -0.864557 -0.388903 0
M  V30 6722 H 622.445 -2.91906 -1.96172 0
M  V30 6723 H 622.319 -1.80536 -3.3119 0
M  V30 6724 H 624.706 -0.962069 -2.78977 0
M  V30 6725 H 624.787 -2.11018 -1.44586 0
M  V30 6726 H 624.431 -4.02878 -3.09276 0
M  V30 6727 H 624.361 -2.85094 -4.42752 0
M  V30 6728 H 626.852 -2.37352 -2.94062 0
M  V30 6729 H 627.165 -5.32446 -5.60108 0
M  V30 6730 H 625.51 -4.78339 -5.04199 0
M  V30 6731 H 628.701 -3.00513 -3.589 0
M  V30 6732 H 628.874 -4.35062 -4.80235 0
M  V30 6733 N 622.28 1.30327 -0.886154 0
M  V30 6734 C 623.212 2.27079 -0.311072 0
M  V30 6735 C 624.225 1.53758 0.53502 0
M  V30 6736 O 625.414 1.74947 0.354378 0
M  V30 6737 C 622.514 3.33965 0.576228 0
M  V30 6738 C 621.687 4.36735 -0.241064 0
M  V30 6739 C 620.746 5.23028 0.576916 0
M  V30 6740 O 619.772 5.692 -0.000802231 0
M  V30 6741 N 620.974 5.49016 1.88579 0
M  V30 6742 H 623.739 2.77065 -1.14259 0
M  V30 6743 H 621.3 1.43519 -0.749258 0
M  V30 6744 H 623.292 3.88618 1.12953 0
M  V30 6745 H 621.862 2.839 1.30842 0
M  V30 6746 H 621.082 3.81932 -0.975805 0
M  V30 6747 H 622.37 5.02451 -0.801272 0
M  V30 6748 H 621.768 5.13288 2.37806 0
M  V30 6749 H 620.325 6.06539 2.38651 0
M  V30 6750 N 623.758 0.647228 1.43697 0
M  V30 6751 C 625.004 0.167001 2.02713 0
M  V30 6752 C 625.359 -1.20351 1.50111 0
M  V30 6753 O 624.652 -1.79047 0.682113 0
M  V30 6754 C 624.846 0.111481 3.57226 0
M  V30 6755 C 624.675 1.47507 4.2482 0
M  V30 6756 C 623.445 2.06594 4.61137 0
M  V30 6757 C 625.643 2.41224 4.54219 0
M  V30 6758 N 623.625 3.3602 5.13774 0
M  V30 6759 C 624.996 3.55278 5.08112 0
M  V30 6760 C 627.051 2.40102 4.36183 0
M  V30 6761 C 625.754 4.68426 5.45866 0
M  V30 6762 C 627.78 3.52326 4.74995 0
M  V30 6763 C 627.142 4.65104 5.29015 0
M  V30 6764 H 623.241 0.105402 0.774864 0
M  V30 6765 H 625.825 0.854229 1.7496 0
M  V30 6766 H 623.996 -0.545073 3.84556 0
M  V30 6767 H 625.728 -0.379063 4.02921 0
M  V30 6768 H 622.483 1.59366 4.45981 0
M  V30 6769 H 622.907 4.02233 5.44552 0
M  V30 6770 H 627.549 1.54151 3.93697 0
M  V30 6771 H 625.267 5.55074 5.87298 0
M  V30 6772 H 628.853 3.52652 4.6274 0
M  V30 6773 H 627.733 5.50506 5.58492 0
M  V30 6774 N 625.236 -1.5273 0.388769 0
M  V30 6775 C 626.464 -2.05992 -0.193677 0
M  V30 6776 C 626.879 -1.26053 -1.40557 0
M  V30 6777 O 626.236 -0.307049 -1.79898 0
M  V30 6778 C 626.287 -3.57068 -0.564321 0
M  V30 6779 O 626.008 -4.3398 0.599422 0
M  V30 6780 C 627.509 -4.26674 -1.20269 0
M  V30 6781 H 624.729 -0.670358 -0.0293445 0
M  V30 6782 H 627.273 -1.96857 0.553844 0
M  V30 6783 H 625.428 -3.66277 -1.26174 0
M  V30 6784 H 625.842 -5.2367 0.294895 0
M  V30 6785 H 627.316 -5.33625 -1.4124 0
M  V30 6786 H 627.793 -3.81854 -2.16989 0
M  V30 6787 H 628.399 -4.2178 -0.546047 0
M  V30 6788 N 626.714 -0.118576 -1.57153 0
M  V30 6789 C 627.662 0.849114 -2.16547 0
M  V30 6790 C 628.656 1.27567 -1.11458 0
M  V30 6791 O 629.862 1.24746 -1.29763 0
M  V30 6792 H 626.237 0.291935 -0.693021 0
M  V30 6793 H 628.208 0.323693 -2.96639 0
M  V30 6794 C 626.957 2.08951 -2.77912 0
M  V30 6795 H 626.28 1.77021 -3.58474 0
M  V30 6796 H 627.72 2.74666 -3.23008 0
M  V30 6797 C 626.179 2.87899 -1.74974 0
M  V30 6798 O 626.709 3.83268 -1.20285 0
M  V30 6799 N 624.915 2.51884 -1.44924 0
M  V30 6800 H 624.462 1.74397 -1.89587 0
M  V30 6801 H 624.42 3.05003 -0.762921 0
M  V30 6802 N 628.193 1.56834 0.155195 0
M  V30 6803 C 629.47 1.73799 0.897395 0
M  V30 6804 C 629.85 0.684379 1.99698 0
M  V30 6805 O 629.198 -0.298111 2.26547 0
M  V30 6806 C 629.408 3.17572 1.44737 0
M  V30 6807 C 630.756 3.79014 1.91399 0
M  V30 6808 O 631.78 3.20951 1.54496 0
M  V30 6809 O 630.639 4.80998 2.59429 0
M  V30 6810 H 627.733 0.710329 0.423511 0
M  V30 6811 H 630.279 1.69107 0.141761 0
M  V30 6812 H 629.051 3.85749 0.656741 0
M  V30 6813 H 628.674 3.26657 2.26674 0
M  V30 6814 N 629.671 -0.424282 1.51781 0
M  V30 6815 C 630.917 -1.17434 1.6534 0
M  V30 6816 C 631.25 -1.90549 0.374806 0
M  V30 6817 O 630.525 -1.84145 -0.626179 0
M  V30 6818 C 630.808 -2.18093 2.86544 0
M  V30 6819 C 630.661 -1.48975 4.24413 0
M  V30 6820 C 631.98 -3.18934 3.03264 0
M  V30 6821 H 629.099 -0.425566 0.601716 0
M  V30 6822 H 631.741 -0.461921 1.84299 0
M  V30 6823 H 629.891 -2.78849 2.7051 0
M  V30 6824 H 631.563 -0.914551 4.52143 0
M  V30 6825 H 629.806 -0.791893 4.26511 0
M  V30 6826 H 630.477 -2.22347 5.05238 0
M  V30 6827 H 632.953 -2.68243 3.18096 0
M  V30 6828 H 631.829 -3.86645 3.89611 0
M  V30 6829 H 632.09 -3.85793 2.15908 0
M  V30 6830 N 631.149 -1.42148 -0.680565 0
M  V30 6831 C 632.112 -1.4488 -1.77602 0
M  V30 6832 C 633.112 -0.337209 -1.57224 0
M  V30 6833 O 634.302 -0.597778 -1.63622 0
M  V30 6834 C 631.434 -1.27483 -3.16166 0
M  V30 6835 H 632.627 -2.42412 -1.76568 0
M  V30 6836 H 630.18 -1.28511 -0.889645 0
M  V30 6837 H 630.915 -0.30851 -3.22829 0
M  V30 6838 H 630.7 -2.08037 -3.3236 0
M  V30 6839 H 632.19 -1.32265 -3.96101 0
M  V30 6840 N 632.627 0.916307 -1.28225 0
M  V30 6841 C 633.557 2.0352 -1.14464 0
M  V30 6842 C 634.538 1.70045 -0.0430844 0
M  V30 6843 O 635.723 1.92954 -0.219619 0
M  V30 6844 C 632.853 3.37889 -0.803027 0
M  V30 6845 C 631.807 3.85516 -1.85908 0
M  V30 6846 C 631.133 5.1682 -1.37116 0
M  V30 6847 C 632.433 4.07655 -3.26519 0
M  V30 6848 H 634.127 2.1529 -2.08064 0
M  V30 6849 H 631.673 1.03446 -1.00174 0
M  V30 6850 H 633.626 4.15654 -0.693537 0
M  V30 6851 H 632.35 3.26164 0.168674 0
M  V30 6852 H 631.009 3.09953 -1.95767 0
M  V30 6853 H 630.657 5.01497 -0.38859 0
M  V30 6854 H 630.357 5.49657 -2.07728 0
M  V30 6855 H 631.881 5.97143 -1.27484 0
M  V30 6856 H 633.295 4.75953 -3.19596 0
M  V30 6857 H 631.692 4.51818 -3.94943 0
M  V30 6858 H 632.762 3.12553 -3.70727 0
M  V30 6859 N 634.105 1.10431 1.1244 0
M  V30 6860 C 635.037 0.710945 2.17895 0
M  V30 6861 C 636.05 -0.252315 1.60833 0
M  V30 6862 O 637.239 -0.03679 1.78462 0
M  V30 6863 C 634.339 0.0284262 3.38888 0
M  V30 6864 C 633.512 1.01585 4.2544 0
M  V30 6865 C 632.571 0.364826 5.24934 0
M  V30 6866 O 631.597 1.01561 5.60066 0
M  V30 6867 N 632.799 -0.87674 5.73841 0
M  V30 6868 H 635.564 1.61826 2.52255 0
M  V30 6869 H 633.125 0.993132 1.27861 0
M  V30 6870 H 635.117 -0.418568 4.0253 0
M  V30 6871 H 633.687 -0.781294 3.02679 0
M  V30 6872 H 632.907 1.64111 3.58415 0
M  V30 6873 H 634.195 1.68425 4.80115 0
M  V30 6874 H 633.593 -1.42483 5.47462 0
M  V30 6875 H 632.15 -1.26688 6.39369 0
M  V30 6876 N 635.583 -1.29855 0.893053 0
M  V30 6877 C 636.831 -1.9544 0.514566 0
M  V30 6878 C 637.152 -1.70795 -0.940959 0
M  V30 6879 O 636.422 -1.03601 -1.66264 0
M  V30 6880 H 635.002 -0.723137 0.187302 0
M  V30 6881 H 637.664 -1.58234 1.13789 0
M  V30 6882 H 636.76 -3.04341 0.691581 0
M  V30 6883 N 637.061 -0.65484 -1.43351 0
M  V30 6884 C 638.31 -0.166215 -2.01014 0
M  V30 6885 C 638.623 1.22764 -1.52278 0
M  V30 6886 O 639.829 1.81156 -2.02224 0
M  V30 6887 C 638.285 -0.246341 -3.59056 0
M  V30 6888 C 637.893 -1.64299 -4.16785 0
M  V30 6889 C 639.637 0.184597 -4.24098 0
M  V30 6890 C 637.544 -1.67695 -5.67126 0
M  V30 6891 H 636.474 -0.0583769 -0.751737 0
M  V30 6892 H 639.125 -0.817111 -1.64303 0
M  V30 6893 H 637.507 0.472092 -3.93176 0
M  V30 6894 H 638.681 -2.3869 -3.94162 0
M  V30 6895 H 636.996 -2.02004 -3.6412 0
M  V30 6896 H 639.593 0.179088 -5.344 0
M  V30 6897 H 639.936 1.21632 -3.98135 0
M  V30 6898 H 640.469 -0.482141 -3.94867 0
M  V30 6899 H 637.208 -2.68783 -5.9786 0
M  V30 6900 H 636.728 -0.976313 -5.91801 0
M  V30 6901 H 638.407 -1.42142 -6.31193 0
M  V30 6902 N 638.539 1.52521 -0.396863 0
M  V30 6903 C 639.816 1.94112 0.240842 0
M  V30 6904 C 640.196 1.33288 1.637 0
M  V30 6905 O 639.544 0.503901 2.22875 0
M  V30 6906 C 639.754 3.48033 0.259567 0
M  V30 6907 C 641.102 4.21822 0.484866 0
M  V30 6908 O 642.126 3.54579 0.339453 0
M  V30 6909 O 640.985 5.41042 0.770412 0
M  V30 6910 H 638.079 0.812973 0.151671 0
M  V30 6911 H 640.625 1.63572 -0.451918 0
M  V30 6912 H 639.397 3.84655 -0.718078 0
M  V30 6913 H 639.02 3.84899 0.996937 0
M  V30 6914 N 640.017 0.126909 1.57088 0
M  V30 6915 C 640.95 -0.857844 2.11462 0
M  V30 6916 C 641.928 -1.25569 1.03301 0
M  V30 6917 O 643.112 -1.35535 1.31006 0
M  V30 6918 C 640.239 -2.14912 2.61784 0
M  V30 6919 C 639.285 -1.89874 3.81903 0
M  V30 6920 S 640.118 -1.10785 5.23915 0
M  V30 6921 C 641.274 -2.41075 5.7761 0
M  V30 6922 H 641.507 -0.395384 2.94659 0
M  V30 6923 H 639.04 -0.0870151 1.54155 0
M  V30 6924 H 640.998 -2.89101 2.91429 0
M  V30 6925 H 639.659 -2.58275 1.78754 0
M  V30 6926 H 638.852 -2.85572 4.15289 0
M  V30 6927 H 638.454 -1.23802 3.52915 0
M  V30 6928 H 640.746 -3.36864 5.87817 0
M  V30 6929 H 641.689 -2.12223 6.75549 0
M  V30 6930 H 642.097 -2.50804 5.05725 0
M  V30 6931 N 641.495 -1.56914 -0.146875 0
M  V30 6932 C 642.725 -1.87243 -0.873126 0
M  V30 6933 C 643.133 -0.713127 -1.75246 0
M  V30 6934 O 642.476 0.326228 -1.8078 0
M  V30 6935 C 642.538 -3.12279 -1.78107 0
M  V30 6936 C 642.202 -4.44082 -1.07889 0
M  V30 6937 C 643.199 -5.18096 -0.432734 0
M  V30 6938 C 640.884 -4.90807 -1.06836 0
M  V30 6939 C 642.878 -6.37039 0.214569 0
M  V30 6940 C 640.565 -6.09674 -0.417243 0
M  V30 6941 C 641.563 -6.82636 0.223093 0
M  V30 6942 O 641.251 -7.99245 0.863884 0
M  V30 6943 H 640.983 -0.624896 -0.257839 0
M  V30 6944 H 643.537 -2.04892 -0.14434 0
M  V30 6945 H 641.767 -2.90639 -2.5508 0
M  V30 6946 H 643.456 -3.28854 -2.37929 0
M  V30 6947 H 644.222 -4.83066 -0.432677 0
M  V30 6948 H 640.101 -4.3394 -1.55618 0
M  V30 6949 H 643.645 -6.93927 0.714965 0
M  V30 6950 H 639.542 -6.44165 -0.414967 0
M  V30 6951 H 640.31 -8.14912 0.765564 0
M  V30 6952 N 642.974 0.416227 -1.52004 0
M  V30 6953 C 644.223 1.16088 -1.64944 0
M  V30 6954 C 644.536 1.91835 -0.381928 0
M  V30 6955 O 645.742 2.6867 -0.391013 0
M  V30 6956 C 644.198 2.1124 -2.91386 0
M  V30 6957 C 643.806 1.41042 -4.25219 0
M  V30 6958 C 645.55 2.86008 -3.13688 0
M  V30 6959 C 643.457 2.34801 -5.42791 0
M  V30 6960 H 642.387 0.437041 -0.61442 0
M  V30 6961 H 645.038 0.425971 -1.78487 0
M  V30 6962 H 643.42 2.88254 -2.71525 0
M  V30 6963 H 644.594 0.694416 -4.55538 0
M  V30 6964 H 642.909 0.78344 -4.08964 0
M  V30 6965 H 645.506 3.56286 -3.98703 0
M  V30 6966 H 645.849 3.48556 -2.27628 0
M  V30 6967 H 646.382 2.16095 -3.33988 0
M  V30 6968 H 643.121 1.7691 -6.31176 0
M  V30 6969 H 642.641 3.04395 -5.16821 0
M  V30 6970 H 644.32 2.9548 -5.75587 0
M  V30 6971 N 644.452 1.42507 0.673017 0
M  V30 6972 C 645.399 1.46124 1.78651 0
M  V30 6973 C 646.369 0.313007 1.63124 0
M  V30 6974 O 647.554 0.517337 1.83653 0
M  V30 6975 C 644.694 1.3711 3.16694 0
M  V30 6976 C 643.807 2.61983 3.43495 0
M  V30 6977 C 642.942 2.45098 4.71275 0
M  V30 6978 C 641.981 3.65336 4.91117 0
M  V30 6979 N 641.118 3.47383 6.10139 0
M  V30 6980 H 645.958 2.4128 1.74895 0
M  V30 6981 H 643.495 1.19788 0.853766 0
M  V30 6982 H 645.453 1.29881 3.96468 0
M  V30 6983 H 644.083 0.45549 3.1957 0
M  V30 6984 H 643.135 2.79571 2.57961 0
M  V30 6985 H 644.447 3.51355 3.5405 0
M  V30 6986 H 643.601 2.35466 5.59143 0
M  V30 6987 H 642.34 1.53219 4.63007 0
M  V30 6988 H 641.345 3.754 4.0169 0
M  V30 6989 H 642.57 4.58199 5.01229 0
M  V30 6990 H 640.516 2.58222 6.0304 0
M  V30 6991 H 640.433 4.30344 6.21563 0
M  V30 6992 H 641.701 3.41565 7.00681 0
M  V30 6993 N 645.93 -0.909495 1.28709 0
M  V30 6994 C 646.878 -2.03381 1.12866 0
M  V30 6995 C 647.872 -1.69335 0.0468074 0
M  V30 6996 O 649.078 -1.78819 0.205891 0
M  V30 6997 H 645.453 -0.666452 0.348348 0
M  V30 6998 H 647.424 -2.13885 2.08077 0
M  V30 6999 C 646.173 -3.38092 0.811742 0
M  V30 7000 H 645.496 -3.64786 1.63619 0
M  V30 7001 H 646.936 -4.17477 0.740869 0
M  V30 7002 C 645.395 -3.33395 -0.484679 0
M  V30 7003 O 645.925 -3.72089 -1.5137 0
M  V30 7004 N 644.131 -2.86491 -0.486961 0
M  V30 7005 H 643.678 -2.55199 0.350877 0
M  V30 7006 H 643.636 -2.83731 -1.3544 0
M  V30 7007 N 647.408 -1.11026 -1.11852 0
M  V30 7008 C 648.355 -0.764662 -2.17765 0
M  V30 7009 C 649.325 0.261854 -1.64023 0
M  V30 7010 O 650.51 0.139748 -1.90288 0
M  V30 7011 C 647.65 -0.209317 -3.44465 0
M  V30 7012 C 646.763 -1.29187 -4.12231 0
M  V30 7013 C 645.898 -0.697523 -5.266 0
M  V30 7014 C 644.937 -1.76023 -5.86244 0
M  V30 7015 N 644.074 -1.18569 -6.92016 0
M  V30 7016 H 648.914 -1.67202 -2.46673 0
M  V30 7017 H 646.451 -0.835065 -1.21099 0
M  V30 7018 H 648.409 0.130599 -4.16996 0
M  V30 7019 H 647.039 0.661251 -3.15955 0
M  V30 7020 H 646.091 -1.74881 -3.37818 0
M  V30 7021 H 647.403 -2.09607 -4.52622 0
M  V30 7022 H 646.557 -0.307412 -6.05921 0
M  V30 7023 H 645.296 0.138044 -4.87505 0
M  V30 7024 H 644.301 -2.1597 -5.05606 0
M  V30 7025 H 645.526 -2.59875 -6.27409 0
M  V30 7026 H 643.472 -0.371695 -6.54946 0
M  V30 7027 H 643.389 -1.92666 -7.31038 0
M  V30 7028 H 644.657 -0.82233 -7.7515 0
M  V30 7029 N 648.886 1.2938 -0.899927 0
M  V30 7030 C 650.116 1.99402 -0.540601 0
M  V30 7031 C 650.524 1.67534 0.87914 0
M  V30 7032 O 649.867 0.916821 1.59186 0
M  V30 7033 C 649.929 3.53514 -0.653326 0
M  V30 7034 C 649.593 4.08937 -2.04009 0
M  V30 7035 C 650.59 4.23815 -3.01126 0
M  V30 7036 C 648.275 4.43962 -2.34953 0
M  V30 7037 C 650.269 4.72951 -4.27313 0
M  V30 7038 C 647.956 4.92795 -3.61382 0
M  V30 7039 C 648.954 5.07244 -4.57376 0
M  V30 7040 O 648.642 5.55017 -5.8156 0
M  V30 7041 H 648.374 0.64383 -0.206057 0
M  V30 7042 H 650.928 1.65878 -1.21134 0
M  V30 7043 H 649.158 3.86628 0.0744449 0
M  V30 7044 H 650.847 4.04767 -0.303118 0
M  V30 7045 H 651.613 3.97043 -2.78535 0
M  V30 7046 H 647.492 4.31974 -1.60994 0
M  V30 7047 H 651.036 4.84144 -5.02245 0
M  V30 7048 H 646.933 5.19004 -3.83804 0
M  V30 7049 H 647.701 5.73331 -5.84153 0
M  V30 7050 N 650.364 0.662433 1.43002 0
M  V30 7051 C 651.61 0.179857 2.02001 0
M  V30 7052 C 651.943 -1.20625 1.52195 0
M  V30 7053 O 651.218 -1.80726 0.718911 0
M  V30 7054 C 651.501 0.200845 3.59539 0
M  V30 7055 C 651.354 1.62153 4.19555 0
M  V30 7056 C 652.673 -0.457738 4.37713 0
M  V30 7057 H 649.792 0.0668305 0.733964 0
M  V30 7058 H 652.434 0.84487 1.70182 0
M  V30 7059 H 650.584 -0.365411 3.86778 0
M  V30 7060 H 652.256 2.23908 4.03315 0
M  V30 7061 H 650.499 2.16601 3.75854 0
M  V30 7062 H 651.17 1.58799 5.28665 0
M  V30 7063 H 653.646 0.0241495 4.16093 0
M  V30 7064 H 652.522 -0.412363 5.47349 0
M  V30 7065 H 652.783 -1.53336 4.14657 0
M  V30 7066 N 651.842 -1.52309 0.404946 0
M  V30 7067 C 652.772 -2.29805 -0.41376 0
M  V30 7068 C 653.753 -1.3384 -1.0498 0
M  V30 7069 O 654.938 -1.62745 -1.05961 0
M  V30 7070 C 652.068 -3.11639 -1.53292 0
M  V30 7071 C 651.022 -4.15616 -1.02211 0
M  V30 7072 C 650.348 -4.8577 -2.23455 0
M  V30 7073 C 651.648 -5.2224 -0.0790725 0
M  V30 7074 H 653.342 -2.98493 0.232878 0
M  V30 7075 H 650.888 -1.43552 0.113441 0
M  V30 7076 H 652.841 -3.64618 -2.11262 0
M  V30 7077 H 651.565 -2.40712 -2.20738 0
M  V30 7078 H 650.224 -3.63641 -0.46484 0
M  V30 7079 H 649.872 -4.11376 -2.89445 0
M  V30 7080 H 649.572 -5.56058 -1.89929 0
M  V30 7081 H 651.096 -5.4156 -2.82038 0
M  V30 7082 H 652.51 -5.70485 -0.567438 0
M  V30 7083 H 650.907 -5.99867 0.167167 0
M  V30 7084 H 651.977 -4.77078 0.867447 0
M  V30 7085 N 653.32 -0.135238 -1.57019 0
M  V30 7086 C 654.731 0.387521 -1.82634 0
M  V30 7087 C 655.082 1.65528 -1.05332 0
M  V30 7088 O 654.207 2.14381 -0.294926 0
M  V30 7089 C 654.802 0.709852 -3.3128 0
M  V30 7090 C 653.361 1.17718 -3.57518 0
M  V30 7091 C 652.508 0.194183 -2.76619 0
M  V30 7092 H 655.459 -0.360126 -1.5456 0
M  V30 7093 H 655.48 1.5657 -3.46794 0
M  V30 7094 H 654.992 -0.213024 -3.87515 0
M  V30 7095 H 653.093 2.1164 -3.06658 0
M  V30 7096 H 653.206 1.11128 -4.66034 0
M  V30 7097 H 651.57 0.684478 -2.4533 0
M  V30 7098 H 652.353 -0.722076 -3.3562 0
M  V30 7099 N 654.798 1.5699 0.138552 0
M  V30 7100 C 655.73 1.95515 1.1961 0
M  V30 7101 C 656.743 0.852002 1.38726 0
M  V30 7102 O 657.932 1.13038 1.38147 0
M  V30 7103 C 655.032 2.2213 2.55952 0
M  V30 7104 C 654.205 3.53424 2.57702 0
M  V30 7105 C 653.264 3.6848 3.75645 0
M  V30 7106 O 652.29 4.4079 3.60129 0
M  V30 7107 N 653.492 3.05777 4.93438 0
M  V30 7108 H 656.257 2.86838 0.868557 0
M  V30 7109 H 653.818 1.58542 0.328033 0
M  V30 7110 H 655.81 2.29435 3.33379 0
M  V30 7111 H 654.38 1.3703 2.80965 0
M  V30 7112 H 653.6 3.57484 1.6613 0
M  V30 7113 H 654.888 4.39759 2.55909 0
M  V30 7114 H 654.286 2.46961 5.08947 0
M  V30 7115 H 652.843 3.18631 5.6861 0
M  V30 7116 N 656.276 -0.40816 1.52223 0
M  V30 7117 C 657.523 -1.15502 1.66329 0
M  V30 7118 C 657.851 -1.90474 0.393701 0
M  V30 7119 O 657.106 -1.85507 -0.623356 0
M  V30 7120 C 657.405 -2.17422 2.83659 0
M  V30 7121 C 657.071 -1.5925 4.21841 0
M  V30 7122 C 655.733 -1.4311 4.59427 0
M  V30 7123 C 658.085 -1.16776 5.0795 0
M  V30 7124 C 655.413 -0.830148 5.80797 0
M  V30 7125 C 657.765 -0.580988 6.29926 0
M  V30 7126 C 656.429 -0.406729 6.6626 0
M  V30 7127 H 655.699 -0.422653 0.608642 0
M  V30 7128 H 658.346 -0.442114 1.86327 0
M  V30 7129 H 656.651 -2.94861 2.58001 0
M  V30 7130 H 658.348 -2.75084 2.9177 0
M  V30 7131 H 654.938 -1.72796 3.92224 0
M  V30 7132 H 659.122 -1.28055 4.79495 0
M  V30 7133 H 654.378 -0.68316 6.07571 0
M  V30 7134 H 658.552 -0.243488 6.95974 0
M  V30 7135 H 656.179 0.0610366 7.60175 0
M  V30 7136 N 657.755 -1.42862 -0.66545 0
M  V30 7137 C 658.983 -1.47246 -1.45349 0
M  V30 7138 C 659.398 -0.0865944 -1.88601 0
M  V30 7139 O 658.755 0.900652 -1.58728 0
M  V30 7140 C 658.806 -2.40772 -2.6965 0
M  V30 7141 O 658.527 -3.73968 -2.2821 0
M  V30 7142 C 660.028 -2.54272 -3.63126 0
M  V30 7143 H 657.248 -0.500497 -0.446927 0
M  V30 7144 H 659.792 -1.87477 -0.816871 0
M  V30 7145 H 657.947 -2.0377 -3.29479 0
M  V30 7146 H 658.361 -4.24146 -3.08546 0
M  V30 7147 H 659.835 -3.23815 -4.47043 0
M  V30 7148 H 660.312 -1.58364 -4.09656 0
M  V30 7149 H 660.918 -2.92036 -3.09185 0
M  V30 7150 N 659.233 0.902656 -1.29189 0
M  V30 7151 C 660.481 1.6496 -1.16758 0
M  V30 7152 C 660.802 1.92952 0.28188 0
M  V30 7153 O 660.072 1.55351 1.19344 0
M  V30 7154 H 658.652 0.611447 -0.429118 0
M  V30 7155 H 661.314 1.0825 -1.62074 0
M  V30 7156 H 660.41 2.60728 -1.71544 0
M  V30 7157 N 660.711 1.11618 1.11262 0
M  V30 7158 C 661.957 0.867463 1.83311 0
M  V30 7159 C 662.29 -0.605366 1.84524 0
M  V30 7160 O 661.565 -1.44704 1.29965 0
M  V30 7161 C 661.848 1.43207 3.30399 0
M  V30 7162 C 661.701 2.97265 3.3757 0
M  V30 7163 C 663.02 1.08454 4.26528 0
M  V30 7164 H 660.139 0.316578 0.665543 0
M  V30 7165 H 662.781 1.38137 1.30454 0
M  V30 7166 H 660.931 0.994982 3.75543 0
M  V30 7167 H 662.603 3.49591 3.00971 0
M  V30 7168 H 660.846 3.33237 2.77733 0
M  V30 7169 H 661.517 3.31859 4.41105 0
M  V30 7170 H 663.993 1.4619 3.89574 0
M  V30 7171 H 662.869 1.50633 5.27826 0
M  V30 7172 H 663.13 -0.00444568 4.421 0
M  V30 7173 N 662.189 -1.289 0.906776 0
M  V30 7174 C 663.137 -2.29477 0.379873 0
M  V30 7175 C 664.131 -1.61068 -0.524747 0
M  V30 7176 O 665.337 -1.75344 -0.406765 0
M  V30 7177 H 661.712 -0.744742 0.10423 0
M  V30 7178 H 663.683 -2.71353 1.24137 0
M  V30 7179 C 662.432 -3.45713 -0.371154 0
M  V30 7180 H 661.755 -3.98551 0.315716 0
M  V30 7181 H 663.195 -4.18105 -0.704581 0
M  V30 7182 C 661.654 -2.9774 -1.57646 0
M  V30 7183 O 662.184 -2.99618 -2.67567 0
M  V30 7184 N 660.39 -2.53485 -1.42105 0
M  V30 7185 H 659.937 -2.52156 -0.526783 0
M  V30 7186 H 659.895 -2.21747 -2.22881 0
M  V30 7187 N 663.667 -0.670007 -1.42649 0
M  V30 7188 C 664.597 -0.00258501 -2.335 0
M  V30 7189 C 665.578 0.794364 -1.50412 0
M  V30 7190 O 666.763 0.75248 -1.79029 0
M  V30 7191 C 663.893 0.952748 -3.33976 0
M  V30 7192 C 662.847 0.264733 -4.2718 0
M  V30 7193 C 662.173 1.33267 -5.17826 0
M  V30 7194 C 663.473 -0.853289 -5.15283 0
M  V30 7195 H 665.167 -0.761326 -2.89559 0
M  V30 7196 H 662.713 -0.367561 -1.3923 0
M  V30 7197 H 664.666 1.4287 -3.96442 0
M  V30 7198 H 663.39 1.74285 -2.7621 0
M  V30 7199 H 662.049 -0.190938 -3.66102 0
M  V30 7200 H 661.697 2.11464 -4.5639 0
M  V30 7201 H 661.397 0.877476 -5.81011 0
M  V30 7202 H 662.921 1.80965 -5.83167 0
M  V30 7203 H 664.335 -0.458763 -5.71462 0
M  V30 7204 H 662.732 -1.23398 -5.87276 0
M  V30 7205 H 663.802 -1.70412 -4.53969 0
M  V30 7206 N 665.145 1.52092 -0.413018 0
M  V30 7207 C 666.373 2.06274 0.160881 0
M  V30 7208 C 666.788 1.28273 1.38533 0
M  V30 7209 O 666.145 0.33563 1.79387 0
M  V30 7210 C 666.196 3.57921 0.507443 0
M  V30 7211 O 665.917 4.32971 -0.668388 0
M  V30 7212 C 667.418 4.28533 1.13465 0
M  V30 7213 H 664.638 0.67074 0.0186759 0
M  V30 7214 H 667.182 1.95951 -0.585092 0
M  V30 7215 H 665.337 3.68238 1.20331 0
M  V30 7216 H 665.751 5.23135 -0.378169 0
M  V30 7217 H 667.225 5.35804 1.32732 0
M  V30 7218 H 667.702 3.85258 2.10886 0
M  V30 7219 H 668.308 4.22595 0.478876 0
M  V30 7220 N 666.623 0.143563 1.56945 0
M  V30 7221 C 667.869 -0.50916 1.96304 0
M  V30 7222 C 668.202 -1.64741 1.0283 0
M  V30 7223 O 667.477 -1.94374 0.0700361 0
M  V30 7224 C 667.76 -1.0186 3.45393 0
M  V30 7225 C 667.613 0.117923 4.49645 0
M  V30 7226 C 668.932 -1.90151 3.96901 0
M  V30 7227 H 666.051 -0.183608 0.713763 0
M  V30 7228 H 668.693 0.224095 1.88674 0
M  V30 7229 H 666.843 -1.64345 3.52027 0
M  V30 7230 H 668.515 0.754145 4.55094 0
M  V30 7231 H 666.758 0.777568 4.26774 0
M  V30 7232 H 667.429 -0.280187 5.51288 0
M  V30 7233 H 669.905 -1.375 3.92725 0
M  V30 7234 H 668.781 -2.22707 5.0169 0
M  V30 7235 H 669.042 -2.83718 3.39052 0
M  V30 7236 N 668.101 -1.57061 -0.130224 0
M  V30 7237 C 669.011 -2.02802 -1.17934 0
M  V30 7238 C 670.027 -0.946378 -1.46013 0
M  V30 7239 O 671.203 -1.25708 -1.57351 0
M  V30 7240 C 668.268 -2.41368 -2.48882 0
M  V30 7241 C 667.329 -3.63561 -2.28301 0
M  V30 7242 C 666.562 -4.00279 -3.53005 0
M  V30 7243 O 666.785 -3.37463 -4.59864 0
M  V30 7244 O 665.719 -4.93441 -3.44673 0
M  V30 7245 H 669.545 -2.92394 -0.820958 0
M  V30 7246 H 667.13 -1.45475 -0.340197 0
M  V30 7247 H 669.012 -2.66958 -3.26054 0
M  V30 7248 H 667.687 -1.54926 -2.84217 0
M  V30 7249 H 666.594 -3.43136 -1.49025 0
M  V30 7250 H 667.927 -4.50673 -1.97875 0
M  V30 7251 N 669.579 0.400081 -1.52437 0
M  V30 7252 C 670.489 1.51253 -1.79331 0
M  V30 7253 C 671.505 1.60188 -0.679396 0
M  V30 7254 O 672.681 1.76733 -0.965791 0
M  V30 7255 C 669.746 2.869 -1.94652 0
M  V30 7256 C 668.807 2.87777 -3.18564 0
M  V30 7257 C 668.04 4.16954 -3.33145 0
M  V30 7258 O 668.263 5.11329 -2.52783 0
M  V30 7259 O 667.197 4.2487 -4.26343 0
M  V30 7260 H 671.023 1.31461 -2.73773 0
M  V30 7261 H 668.608 0.586834 -1.37392 0
M  V30 7262 H 670.49 3.67336 -2.065 0
M  V30 7263 H 669.165 3.06741 -1.034 0
M  V30 7264 H 668.072 2.06162 -3.12167 0
M  V30 7265 H 669.405 2.72886 -4.09627 0
M  V30 7266 N 671.057 1.43213 0.657864 0
M  V30 7267 C 672.473 1.26511 0.972992 0
M  V30 7268 C 672.673 0.181477 2.00681 0
M  V30 7269 O 671.729 -0.441649 2.48608 0
M  V30 7270 C 673.042 2.62784 1.46168 0
M  V30 7271 C 674.59 2.70278 1.57857 0
M  V30 7272 C 675.065 4.06958 2.10117 0
M  V30 7273 N 676.556 4.08999 2.17426 0
M  V30 7274 C 677.291 5.11585 2.58975 0
M  V30 7275 N 676.787 6.24548 2.99853 0
M  V30 7276 N 678.58 4.9894 2.58873 0
M  V30 7277 H 670.731 2.12384 -0.0263129 0
M  V30 7278 H 672.994 0.946638 0.0507992 0
M  V30 7279 H 672.7 3.43022 0.776474 0
M  V30 7280 H 672.574 2.87863 2.43751 0
M  V30 7281 H 674.961 1.90376 2.25479 0
M  V30 7282 H 675.042 2.4897 0.587179 0
M  V30 7283 H 674.686 4.87325 1.43098 0
M  V30 7284 H 674.616 4.25628 3.10078 0
M  V30 7285 H 677.107 3.27457 1.88627 0
M  V30 7286 H 677.42 6.98661 3.30292 0
M  V30 7287 H 675.765 6.28027 2.97669 0
M  V30 7288 H 678.956 4.09757 2.26311 0
M  V30 7289 H 679.129 5.79019 2.90932 0
M  V30 7290 N 672.536 -0.895792 1.29666 0
M  V30 7291 C 673.446 -2.03329 1.17024 0
M  V30 7292 C 674.462 -1.73753 0.0925962 0
M  V30 7293 O 675.638 -1.99071 0.305431 0
M  V30 7294 C 672.703 -3.36072 0.851841 0
M  V30 7295 C 671.764 -3.7914 2.01373 0
M  V30 7296 C 670.997 -5.05549 1.71043 0
M  V30 7297 O 671.22 -5.66874 0.633213 0
M  V30 7298 O 670.154 -5.44764 2.5596 0
M  V30 7299 H 673.98 -2.16918 2.12556 0
M  V30 7300 H 671.565 -1.02007 1.09156 0
M  V30 7301 H 673.447 -4.15729 0.689006 0
M  V30 7302 H 672.122 -3.23616 -0.0736634 0
M  V30 7303 H 671.029 -3.00233 2.23183 0
M  V30 7304 H 672.362 -3.96186 2.92058 0
M  V30 7305 N 674.014 -1.12206 -1.10668 0
M  V30 7306 C 675.263 -0.870595 -1.81944 0
M  V30 7307 C 675.576 0.605447 -1.85994 0
M  V30 7308 O 676.782 0.973433 -2.53449 0
M  V30 7309 C 675.238 -1.50783 -3.26791 0
M  V30 7310 C 674.846 -3.01849 -3.31046 0
M  V30 7311 C 676.59 -1.33653 -4.02911 0
M  V30 7312 C 674.497 -3.58518 -4.70339 0
M  V30 7313 H 673.427 -0.322043 -0.681765 0
M  V30 7314 H 676.078 -1.34827 -1.24475 0
M  V30 7315 H 674.46 -0.957825 -3.84242 0
M  V30 7316 H 675.634 -3.63321 -2.83433 0
M  V30 7317 H 673.949 -3.18346 -2.68411 0
M  V30 7318 H 676.546 -1.73416 -5.05797 0
M  V30 7319 H 676.889 -0.279949 -4.15358 0
M  V30 7320 H 677.422 -1.85562 -3.51868 0
M  V30 7321 H 674.161 -4.63925 -4.63091 0
M  V30 7322 H 673.681 -3.01819 -5.18329 0
M  V30 7323 H 675.36 -3.57434 -5.39305 0
M  V30 7324 N 675.492 1.28418 -0.913599 0
M  V30 7325 C 676.722 1.98817 -0.56172 0
M  V30 7326 C 677.13 1.68457 0.861321 0
M  V30 7327 O 676.473 0.933653 1.58204 0
M  V30 7328 C 676.535 3.52801 -0.690785 0
M  V30 7329 C 676.199 4.0675 -2.08334 0
M  V30 7330 C 677.196 4.20597 -3.05604 0
M  V30 7331 C 674.881 4.41445 -2.39648 0
M  V30 7332 C 676.875 4.68392 -4.32305 0
M  V30 7333 C 674.562 4.88934 -3.66588 0
M  V30 7334 C 675.56 5.02364 -4.6273 0
M  V30 7335 O 675.248 5.48817 -5.87414 0
M  V30 7336 H 674.98 0.641608 -0.212874 0
M  V30 7337 H 677.534 1.64584 -1.22887 0
M  V30 7338 H 675.764 3.86686 0.0334336 0
M  V30 7339 H 677.453 4.04422 -0.346031 0
M  V30 7340 H 678.219 3.94067 -2.8273 0
M  V30 7341 H 674.098 4.30242 -1.65567 0
M  V30 7342 H 677.642 4.7879 -5.07352 0
M  V30 7343 H 673.539 5.14904 -3.89287 0
M  V30 7344 H 674.307 5.67103 -5.90201 0
M  V30 7345 N 676.97 0.677563 1.42291 0
M  V30 7346 C 678.247 0.129803 1.95169 0
M  V30 7347 C 678.627 -1.35605 1.61786 0
M  V30 7348 O 677.975 -2.09361 0.915444 0
M  V30 7349 C 678.185 0.401889 3.46678 0
M  V30 7350 C 679.533 0.319889 4.23393 0
M  V30 7351 O 680.557 0.33579 3.54614 0
M  V30 7352 O 679.416 0.264459 5.4586 0
M  V30 7353 H 676.51 0.00447433 0.826988 0
M  V30 7354 H 679.056 0.752483 1.52105 0
M  V30 7355 H 677.828 1.43108 3.64192 0
M  V30 7356 H 677.451 -0.252662 3.96796 0
M  V30 7357 N 678.448 -1.51871 0.421078 0
M  V30 7358 C 679.395 -2.27334 -0.398508 0
M  V30 7359 C 680.365 -1.30241 -1.03085 0
M  V30 7360 O 681.55 -1.59121 -1.05285 0
M  V30 7361 C 678.69 -3.10664 -1.50272 0
M  V30 7362 C 677.803 -4.2273 -0.890122 0
M  V30 7363 C 676.938 -4.93399 -1.96803 0
M  V30 7364 C 675.977 -5.97409 -1.333 0
M  V30 7365 N 675.114 -6.61548 -2.35156 0
M  V30 7366 H 679.954 -2.96938 0.251411 0
M  V30 7367 H 677.491 -1.46472 0.135825 0
M  V30 7368 H 679.449 -3.57292 -2.15403 0
M  V30 7369 H 678.079 -2.43207 -2.1225 0
M  V30 7370 H 677.131 -3.80186 -0.127537 0
M  V30 7371 H 678.443 -4.97302 -0.386349 0
M  V30 7372 H 677.597 -5.43491 -2.69633 0
M  V30 7373 H 676.336 -4.18421 -2.50549 0
M  V30 7374 H 675.341 -5.46624 -0.59008 0
M  V30 7375 H 676.566 -6.74335 -0.803076 0
M  V30 7376 H 674.512 -5.89394 -2.88012 0
M  V30 7377 H 674.429 -7.31832 -1.89624 0
M  V30 7378 H 675.697 -7.16276 -3.0752 0
M  V30 7379 N 679.926 -0.151884 -1.56866 0
M  V30 7380 C 681.156 0.504081 -2.00356 0
M  V30 7381 C 681.564 1.58639 -1.03103 0
M  V30 7382 O 680.907 1.83688 -0.0207931 0
M  V30 7383 C 680.969 1.15975 -3.40279 0
M  V30 7384 C 680.633 0.221453 -4.56463 0
M  V30 7385 C 681.63 -0.552766 -5.16953 0
M  V30 7386 C 679.315 0.122936 -5.0215 0
M  V30 7387 C 681.309 -1.4129 -6.21543 0
M  V30 7388 C 678.996 -0.740801 -6.06593 0
M  V30 7389 C 679.994 -1.50732 -6.6616 0
M  V30 7390 O 679.682 -2.35666 -7.68581 0
M  V30 7391 H 679.414 0.135279 -0.662326 0
M  V30 7392 H 681.968 -0.244916 -2.03935 0
M  V30 7393 H 680.198 1.95649 -3.33554 0
M  V30 7394 H 681.887 1.71594 -3.67846 0
M  V30 7395 H 682.653 -0.486716 -4.82552 0
M  V30 7396 H 678.532 0.70931 -4.5551 0
M  V30 7397 H 682.076 -2.01166 -6.67966 0
M  V30 7398 H 677.973 -0.808125 -6.40421 0
M  V30 7399 H 678.741 -2.28967 -7.85822 0
M  V30 7400 N 681.404 1.57128 0.121893 0
M  V30 7401 C 682.65 1.85853 0.826451 0
M  V30 7402 C 683.005 0.739262 1.77631 0
M  V30 7403 O 682.298 -0.260959 1.89815 0
M  V30 7404 C 682.492 3.1874 1.61677 0
M  V30 7405 C 682.321 4.43487 0.744944 0
M  V30 7406 C 681.091 5.03707 0.400891 0
M  V30 7407 C 683.289 5.1426 0.0638779 0
M  V30 7408 N 681.271 6.12006 -0.481902 0
M  V30 7409 C 682.642 6.16281 -0.678033 0
M  V30 7410 C 684.697 4.97898 -0.0128424 0
M  V30 7411 C 683.4 7.0371 -1.48946 0
M  V30 7412 C 685.426 5.85812 -0.81108 0
M  V30 7413 C 684.788 6.87333 -1.54119 0
M  V30 7414 H 680.887 0.730367 0.279442 0
M  V30 7415 H 683.471 1.9449 0.0903486 0
M  V30 7416 H 681.642 3.11204 2.32393 0
M  V30 7417 H 683.374 3.35283 2.26644 0
M  V30 7418 H 680.129 4.67744 0.742469 0
M  V30 7419 H 680.553 6.70787 -0.915063 0
M  V30 7420 H 685.195 4.19372 0.537278 0
M  V30 7421 H 682.913 7.81646 -2.05074 0
M  V30 7422 H 686.499 5.75217 -0.872764 0
M  V30 7423 H 685.379 7.54182 -2.14893 0
M  V30 7424 N 682.882 -0.391992 1.52647 0
M  V30 7425 C 684.293 -0.970064 1.5952 0
M  V30 7426 C 684.644 -1.91059 0.446207 0
M  V30 7427 O 683.769 -2.12062 -0.431125 0
M  V30 7428 C 684.364 -1.76614 2.89125 0
M  V30 7429 C 682.923 -2.29396 2.9842 0
M  V30 7430 C 682.07 -1.09864 2.54608 0
M  V30 7431 H 685.021 -0.171638 1.57769 0
M  V30 7432 H 685.042 -2.62511 2.75442 0
M  V30 7433 H 684.554 -1.08135 3.72731 0
M  V30 7434 H 682.655 -3.01196 2.19344 0
M  V30 7435 H 682.768 -2.59088 4.03002 0
M  V30 7436 H 681.132 -1.45777 2.08857 0
M  V30 7437 H 681.915 -0.429249 3.40606 0
M  V30 7438 N 684.36 -1.4356 -0.65026 0
M  V30 7439 C 685.637 -1.35811 -1.40765 0
M  V30 7440 C 686.017 -0.00736379 -2.11099 0
M  V30 7441 O 685.365 1.00932 -2.05 0
M  V30 7442 C 685.575 -2.54332 -2.3899 0
M  V30 7443 C 686.923 -2.97551 -3.02901 0
M  V30 7444 O 687.947 -2.544 -2.49317 0
M  V30 7445 O 686.806 -3.72311 -4.00059 0
M  V30 7446 H 683.9 -0.536861 -0.629054 0
M  V30 7447 H 686.446 -1.55615 -0.676919 0
M  V30 7448 H 685.218 -3.44274 -1.85986 0
M  V30 7449 H 684.841 -2.36643 -3.19509 0
M  V30 7450 N 685.838 0.888903 -1.30139 0
M  V30 7451 C 687.084 1.6428 -1.18912 0
M  V30 7452 C 687.417 1.92499 0.256477 0
M  V30 7453 O 686.692 1.54312 1.18397 0
M  V30 7454 C 686.975 2.9851 -2.01405 0
M  V30 7455 C 686.828 2.77288 -3.54163 0
M  V30 7456 C 688.147 3.99383 -1.84882 0
M  V30 7457 H 685.266 0.596148 -0.433333 0
M  V30 7458 H 687.908 1.0289 -1.5973 0
M  V30 7459 H 686.058 3.50907 -1.66722 0
M  V30 7460 H 687.73 2.31709 -3.98884 0
M  V30 7461 H 685.973 2.11867 -3.78543 0
M  V30 7462 H 686.644 3.72717 -4.07168 0
M  V30 7463 H 689.12 3.56132 -2.15196 0
M  V30 7464 H 687.996 4.91222 -2.44934 0
M  V30 7465 H 688.257 4.34674 -0.806902 0
M  V30 7466 N 687.317 1.12792 1.10072 0
M  V30 7467 C 688.264 0.79921 2.16521 0
M  V30 7468 C 689.234 -0.235726 1.64419 0
M  V30 7469 O 690.419 -0.109457 1.90486 0
M  V30 7470 C 687.559 0.264091 3.44088 0
M  V30 7471 C 686.672 1.35729 4.10124 0
M  V30 7472 C 685.807 0.781212 5.25424 0
M  V30 7473 C 684.846 1.85327 5.8337 0
M  V30 7474 N 683.983 1.29564 6.90042 0
M  V30 7475 H 688.823 1.71105 2.43981 0
M  V30 7476 H 686.36 0.854225 1.19756 0
M  V30 7477 H 688.318 -0.0642423 4.17151 0
M  V30 7478 H 686.948 -0.610901 3.16967 0
M  V30 7479 H 686 1.80234 3.34993 0
M  V30 7480 H 687.312 2.16782 4.4923 0
M  V30 7481 H 686.466 0.403769 6.05355 0
M  V30 7482 H 685.205 -0.0604686 4.87663 0
M  V30 7483 H 684.21 2.23986 5.02106 0
M  V30 7484 H 685.435 2.69824 6.23195 0
M  V30 7485 H 683.381 0.475844 6.54272 0
M  V30 7486 H 683.298 2.04271 7.2788 0
M  V30 7487 H 684.566 0.945545 7.73744 0
M  V30 7488 N 688.795 -1.27931 0.920396 0
M  V30 7489 C 690.023 -1.98805 0.573087 0
M  V30 7490 C 690.438 -1.68724 -0.847201 0
M  V30 7491 O 689.795 -0.943699 -1.56207 0
M  V30 7492 C 689.846 -3.52971 0.780633 0
M  V30 7493 O 689.567 -3.81994 2.14504 0
M  V30 7494 C 691.068 -4.411 0.44105 0
M  V30 7495 H 688.288 -0.634651 0.21785 0
M  V30 7496 H 690.832 -1.62965 1.23542 0
M  V30 7497 H 688.987 -3.87048 0.165204 0
M  V30 7498 H 689.401 -4.76609 2.18962 0
M  V30 7499 H 690.875 -5.48312 0.637006 0
M  V30 7500 H 691.352 -4.34758 -0.62306 0
M  V30 7501 H 691.958 -4.12532 1.0343 0
M  V30 7502 N 690.273 -0.685099 -1.4193 0
M  V30 7503 C 691.503 -0.220052 -2.05425 0
M  V30 7504 C 691.911 1.13185 -1.51611 0
M  V30 7505 O 691.254 1.71631 -0.654875 0
M  V30 7506 C 691.316 -0.0888364 -3.5939 0
M  V30 7507 C 690.98 -1.37109 -4.35947 0
M  V30 7508 C 691.977 -2.30675 -4.65924 0
M  V30 7509 C 689.662 -1.62155 -4.75406 0
M  V30 7510 C 691.656 -3.47556 -5.34306 0
M  V30 7511 C 689.343 -2.79324 -5.43527 0
M  V30 7512 C 690.341 -3.71848 -5.72903 0
M  V30 7513 O 690.029 -4.86966 -6.39624 0
M  V30 7514 H 689.761 -0.102165 -0.668235 0
M  V30 7515 H 692.315 -0.935194 -1.82875 0
M  V30 7516 H 690.545 0.681981 -3.80639 0
M  V30 7517 H 692.234 0.337669 -4.04493 0
M  V30 7518 H 693 -2.12579 -4.3593 0
M  V30 7519 H 688.879 -0.910053 -4.51928 0
M  V30 7520 H 692.423 -4.19794 -5.57153 0
M  V30 7521 H 688.32 -2.97342 -5.72938 0
M  V30 7522 H 689.088 -4.86644 -6.58118 0
M  V30 7523 N 691.751 1.51645 -0.429126 0
M  V30 7524 C 692.684 2.24083 0.431492 0
M  V30 7525 C 693.662 1.25691 1.03153 0
M  V30 7526 O 694.846 1.54802 1.07557 0
M  V30 7527 C 691.973 2.9849 1.60067 0
M  V30 7528 C 691.019 4.11474 1.12211 0
M  V30 7529 S 691.852 5.35453 0.0708449 0
M  V30 7530 C 693.008 6.13395 1.24488 0
M  V30 7531 H 693.241 2.96733 -0.183525 0
M  V30 7532 H 690.774 1.52916 -0.213574 0
M  V30 7533 H 692.732 3.4196 2.27099 0
M  V30 7534 H 691.393 2.25445 2.18708 0
M  V30 7535 H 690.586 4.62784 1.99618 0
M  V30 7536 H 690.188 3.70223 0.530149 0
M  V30 7537 H 692.48 6.41984 2.16479 0
M  V30 7538 H 693.423 7.0388 0.771921 0
M  V30 7539 H 693.831 5.44761 1.47973 0
M  V30 7540 N 693.229 0.160201 1.56784 0
M  V30 7541 C 694.476 -0.487588 1.96542 0
M  V30 7542 C 694.804 -1.63999 1.04569 0
M  V30 7543 O 694.059 -1.95546 0.0775211 0
M  V30 7544 C 694.358 -1.02259 3.42459 0
M  V30 7545 C 694.024 0.0127436 4.50898 0
M  V30 7546 C 692.686 0.297318 4.80281 0
M  V30 7547 C 695.038 0.716078 5.16257 0
M  V30 7548 C 692.366 1.29081 5.72324 0
M  V30 7549 C 694.718 1.69847 6.09372 0
M  V30 7550 C 693.382 1.99061 6.37127 0
M  V30 7551 H 692.652 -0.178421 0.719199 0
M  V30 7552 H 695.299 0.249818 1.89864 0
M  V30 7553 H 693.604 -1.8376 3.46034 0
M  V30 7554 H 695.301 -1.53261 3.70556 0
M  V30 7555 H 691.891 -0.219235 4.28039 0
M  V30 7556 H 696.075 0.509428 4.93679 0
M  V30 7557 H 691.331 1.52344 5.92116 0
M  V30 7558 H 695.505 2.2489 6.59088 0
M  V30 7559 H 693.132 2.76194 7.08252 0
M  V30 7560 N 694.707 -1.5719 -0.113559 0
M  V30 7561 C 695.617 -2.04041 -1.15777 0
M  V30 7562 C 696.633 -0.961812 -1.45001 0
M  V30 7563 O 697.809 -1.2737 -1.56009 0
M  V30 7564 C 694.874 -2.43994 -2.46308 0
M  V30 7565 C 693.935 -3.65962 -2.24433 0
M  V30 7566 C 693.168 -4.04 -3.4874 0
M  V30 7567 O 693.391 -3.42321 -4.56259 0
M  V30 7568 O 692.325 -4.97069 -3.3942 0
M  V30 7569 H 696.151 -2.93248 -0.789899 0
M  V30 7570 H 693.736 -1.45828 -0.324748 0
M  V30 7571 H 695.618 -2.70401 -3.23204 0
M  V30 7572 H 694.293 -1.57932 -2.82558 0
M  V30 7573 H 693.2 -3.44697 -1.45377 0
M  V30 7574 H 694.533 -4.52746 -1.93084 0
M  V30 7575 N 696.185 0.383891 -1.52853 0
M  V30 7576 C 697.118 1.49105 -1.72751 0
M  V30 7577 C 698.096 1.52077 -0.575438 0
M  V30 7578 O 699.28 1.70406 -0.805854 0
M  V30 7579 C 696.407 2.87551 -1.78975 0
M  V30 7580 C 695.453 3.02383 -3.00777 0
M  V30 7581 S 696.286 2.73048 -4.60657 0
M  V30 7582 C 697.442 4.13678 -4.69704 0
M  V30 7583 H 697.675 1.32002 -2.66388 0
M  V30 7584 H 695.208 0.577088 -1.4321 0
M  V30 7585 H 697.166 3.6733 -1.83246 0
M  V30 7586 H 695.827 3.01977 -0.864215 0
M  V30 7587 H 695.02 4.03733 -3.01688 0
M  V30 7588 H 694.622 2.30504 -2.94523 0
M  V30 7589 H 696.914 5.07676 -4.48633 0
M  V30 7590 H 697.857 4.1778 -5.71721 0
M  V30 7591 H 698.265 3.99825 -3.98497 0
M  V30 7592 N 697.663 1.43903 0.642637 0
M  V30 7593 C 698.911 1.45791 1.39962 0
M  V30 7594 C 699.232 0.0873144 1.94804 0
M  V30 7595 O 698.502 -0.878825 1.75081 0
M  V30 7596 H 697.082 0.536797 0.519479 0
M  V30 7597 H 699.744 1.7959 0.757189 0
M  V30 7598 H 698.84 2.17665 2.2367 0
M  V30 7599 N 699.141 -0.881989 1.30609 0
M  V30 7600 C 700.073 -1.99375 1.13058 0
M  V30 7601 C 701.086 -1.62636 0.0729879 0
M  V30 7602 O 702.275 -1.75621 0.319301 0
M  V30 7603 C 699.375 -3.31536 0.702651 0
M  V30 7604 C 698.548 -3.96693 1.84265 0
M  V30 7605 C 697.607 -5.07158 1.40277 0
M  V30 7606 O 696.633 -5.28628 2.11048 0
M  V30 7607 N 697.835 -5.79808 0.283449 0
M  V30 7608 H 700.6 -2.14981 2.08814 0
M  V30 7609 H 698.161 -1.05526 1.22784 0
M  V30 7610 H 700.153 -4.02804 0.391331 0
M  V30 7611 H 698.723 -3.12175 -0.162954 0
M  V30 7612 H 697.943 -3.1856 2.32192 0
M  V30 7613 H 699.231 -4.36964 2.60653 0
M  V30 7614 H 698.629 -5.64871 -0.306189 0
M  V30 7615 H 697.186 -6.51792 0.0315985 0
M  V30 7616 N 700.619 -1.13374 -1.09472 0
M  V30 7617 C 701.844 -0.918711 -1.85942 0
M  V30 7618 C 702.269 0.527225 -1.8056 0
M  V30 7619 O 701.627 1.37408 -1.18274 0
M  V30 7620 C 701.675 -1.41056 -3.31867 0
M  V30 7621 O 700.779 -0.595496 -4.08078 0
M  V30 7622 H 700.12 -0.329297 -0.576593 0
M  V30 7623 H 702.65 -1.50829 -1.38245 0
M  V30 7624 H 702.66 -1.41398 -3.82715 0
M  V30 7625 H 701.335 -2.46335 -3.35099 0
M  V30 7626 H 699.912 -0.659911 -3.67014 0
M  V30 7627 N 702.098 1.27442 -0.927168 0
M  V30 7628 C 703.344 1.95025 -0.577651 0
M  V30 7629 C 703.699 1.71534 0.871421 0
M  V30 7630 O 702.992 1.03354 1.61333 0
M  V30 7631 C 703.186 3.47413 -0.838994 0
M  V30 7632 C 703.015 3.85721 -2.31192 0
M  V30 7633 C 701.785 4.09199 -2.96452 0
M  V30 7634 C 703.983 3.95352 -3.28939 0
M  V30 7635 N 701.965 4.34283 -4.33903 0
M  V30 7636 C 703.336 4.24805 -4.51598 0
M  V30 7637 C 705.391 3.77926 -3.24155 0
M  V30 7638 C 704.094 4.38645 -5.70073 0
M  V30 7639 C 706.12 3.9299 -4.41942 0
M  V30 7640 C 705.482 4.22829 -5.63379 0
M  V30 7641 H 701.581 0.736983 -0.261495 0
M  V30 7642 H 704.165 1.53816 -1.19368 0
M  V30 7643 H 702.336 3.87581 -0.252129 0
M  V30 7644 H 704.068 4.02166 -0.452158 0
M  V30 7645 H 700.823 4.04013 -2.47125 0
M  V30 7646 H 701.247 4.50883 -5.05008 0
M  V30 7647 H 705.889 3.53897 -2.31337 0
M  V30 7648 H 703.607 4.615 -6.63358 0
M  V30 7649 H 707.193 3.80926 -4.39757 0
M  V30 7650 H 706.073 4.34234 -6.53001 0
M  V30 7651 N 703.576 0.692616 1.41565 0
M  V30 7652 C 704.822 0.222664 2.01574 0
M  V30 7653 C 705.155 -1.1737 1.54719 0
M  V30 7654 O 704.43 -1.79161 0.757084 0
M  V30 7655 C 704.713 0.277064 3.59033 0
M  V30 7656 C 704.566 1.71016 4.16021 0
M  V30 7657 C 705.885 -0.36479 4.38586 0
M  V30 7658 H 703.004 0.0823839 0.732381 0
M  V30 7659 H 705.646 0.880778 1.68352 0
M  V30 7660 H 703.796 -0.283288 3.87466 0
M  V30 7661 H 705.468 2.32413 3.98475 0
M  V30 7662 H 703.711 2.24525 3.71175 0
M  V30 7663 H 704.382 1.69978 5.25178 0
M  V30 7664 H 706.858 0.112404 4.15948 0
M  V30 7665 H 705.734 -0.296169 5.481 0
M  V30 7666 H 705.995 -1.44506 4.17816 0
M  V30 7667 N 705.054 -1.51416 0.437162 0
M  V30 7668 C 705.987 -2.24309 -0.419602 0
M  V30 7669 C 706.965 -1.26236 -1.02485 0
M  V30 7670 O 708.149 -1.5537 -1.06735 0
M  V30 7671 C 705.276 -2.99335 -1.58482 0
M  V30 7672 C 704.322 -4.12064 -1.10027 0
M  V30 7673 S 705.155 -5.35483 -0.0424476 0
M  V30 7674 C 706.311 -6.14047 -1.21234 0
M  V30 7675 H 706.544 -2.96632 0.199259 0
M  V30 7676 H 704.077 -1.528 0.22168 0
M  V30 7677 H 706.035 -3.43159 -2.25282 0
M  V30 7678 H 704.696 -2.26602 -2.17509 0
M  V30 7679 H 703.889 -4.63836 -1.97161 0
M  V30 7680 H 703.491 -3.70499 -0.510507 0
M  V30 7681 H 705.783 -6.43123 -2.13072 0
M  V30 7682 H 706.726 -7.04279 -0.734582 0
M  V30 7683 H 707.134 -5.45538 -1.45082 0
M  V30 7684 N 706.532 -0.168513 -1.56696 0
M  V30 7685 C 707.78 0.476216 -1.96409 0
M  V30 7686 C 708.101 1.63968 -1.05544 0
M  V30 7687 O 707.371 1.95525 -0.121235 0
M  V30 7688 H 705.951 0.178921 -0.725256 0
M  V30 7689 H 708.613 -0.249042 -1.93302 0
M  V30 7690 H 707.709 0.838094 -3.00637 0
M  V30 7691 N 708.01 1.57248 0.105221 0
M  V30 7692 C 709.238 1.89768 0.82437 0
M  V30 7693 C 709.653 0.761192 1.72775 0
M  V30 7694 O 709.01 -0.267342 1.80531 0
M  V30 7695 C 709.061 3.2184 1.64625 0
M  V30 7696 O 708.782 4.31115 0.779217 0
M  V30 7697 C 710.283 3.68155 2.46935 0
M  V30 7698 H 707.503 0.628031 0.236259 0
M  V30 7699 H 710.047 2.04321 0.085485 0
M  V30 7700 H 708.202 3.08915 2.33775 0
M  V30 7701 H 708.616 5.06897 1.34745 0
M  V30 7702 H 710.09 4.6329 3.00111 0
M  V30 7703 H 710.567 2.95492 3.24932 0
M  V30 7704 H 711.173 3.83914 1.83002 0
M  V30 7705 N 709.488 -0.375779 1.53054 0
M  V30 7706 C 710.435 -1.45978 1.78771 0
M  V30 7707 C 711.405 -1.53625 0.631552 0
M  V30 7708 O 712.59 -1.69674 0.872667 0
M  V30 7709 C 709.73 -2.8305 1.97425 0
M  V30 7710 C 708.843 -2.84451 3.25134 0
M  V30 7711 C 707.978 -4.13034 3.34031 0
M  V30 7712 C 707.017 -4.08536 4.55812 0
M  V30 7713 N 706.154 -5.2875 4.61918 0
M  V30 7714 H 710.994 -1.23349 2.71273 0
M  V30 7715 H 708.531 -0.598147 1.3439 0
M  V30 7716 H 710.489 -3.62666 2.06225 0
M  V30 7717 H 709.119 -3.04101 1.0827 0
M  V30 7718 H 708.171 -1.97127 3.25338 0
M  V30 7719 H 709.483 -2.76998 4.14818 0
M  V30 7720 H 708.637 -5.0106 3.42087 0
M  V30 7721 H 707.376 -4.23226 2.42345 0
M  V30 7722 H 706.381 -3.18897 4.47867 0
M  V30 7723 H 707.606 -3.99955 5.48828 0
M  V30 7724 H 705.552 -5.39547 3.73129 0
M  V30 7725 H 705.469 -5.23426 5.45492 0
M  V30 7726 H 706.737 -6.18637 4.74245 0
M  V30 7727 N 710.966 -1.44241 -0.634997 0
M  V30 7728 C 712.243 -1.37296 -1.39317 0
M  V30 7729 C 712.623 -0.0297532 -2.11079 0
M  V30 7730 O 711.971 0.987524 -2.06059 0
M  V30 7731 C 712.181 -2.56853 -2.36279 0
M  V30 7732 C 713.529 -3.00747 -2.99728 0
M  V30 7733 O 714.553 -2.5703 -2.46605 0
M  V30 7734 O 713.412 -3.76533 -3.96087 0
M  V30 7735 H 710.506 -0.543503 -0.623325 0
M  V30 7736 H 713.052 -1.56324 -0.660376 0
M  V30 7737 H 711.824 -3.46228 -1.82324 0
M  V30 7738 H 711.447 -2.40019 -3.16981 0
M  V30 7739 N 712.444 0.87505 -1.31075 0
M  V30 7740 C 713.855 1.4433 -1.18431 0
M  V30 7741 C 714.206 1.9506 0.211189 0
M  V30 7742 O 713.331 1.85847 1.10859 0
M  V30 7743 C 713.926 2.62341 -2.14389 0
M  V30 7744 C 712.485 3.15225 -2.05694 0
M  V30 7745 C 711.632 1.87929 -2.03907 0
M  V30 7746 H 714.583 0.684061 -1.432 0
M  V30 7747 H 714.604 3.3887 -1.73053 0
M  V30 7748 H 714.116 2.25388 -3.15946 0
M  V30 7749 H 712.217 3.56812 -1.07314 0
M  V30 7750 H 712.33 3.77853 -2.94558 0
M  V30 7751 H 710.694 2.06679 -1.48849 0
M  V30 7752 H 711.477 1.53221 -3.07211 0
M  V30 7753 N 713.922 1.13953 1.08869 0
M  V30 7754 C 714.832 0.835666 2.19212 0
M  V30 7755 C 715.848 -0.182005 1.73045 0
M  V30 7756 O 717.024 -0.0116661 2.01397 0
M  V30 7757 C 714.089 0.312325 3.4529 0
M  V30 7758 C 713.15 1.39196 4.06107 0
M  V30 7759 C 712.383 0.893496 5.26168 0
M  V30 7760 O 712.606 -0.266807 5.69776 0
M  V30 7761 O 711.54 1.67037 5.78258 0
M  V30 7762 H 715.366 1.75769 2.47667 0
M  V30 7763 H 712.951 0.917421 1.17914 0
M  V30 7764 H 714.833 0.0261582 4.21392 0
M  V30 7765 H 713.508 -0.582042 3.18424 0
M  V30 7766 H 712.415 1.73152 3.31616 0
M  V30 7767 H 713.748 2.26068 4.37212 0
M  V30 7768 N 715.4 -1.26948 0.933913 0
M  V30 7769 C 716.347 -2.26635 0.436484 0
M  V30 7770 C 717.317 -1.58397 -0.499953 0
M  V30 7771 O 718.502 -1.86171 -0.417753 0
M  V30 7772 C 715.642 -3.43803 -0.298951 0
M  V30 7773 C 714.755 -4.26736 0.672316 0
M  V30 7774 C 713.89 -5.31134 -0.0835872 0
M  V30 7775 C 712.929 -6.05742 0.879979 0
M  V30 7776 N 712.066 -7.01926 0.156301 0
M  V30 7777 H 716.906 -2.68558 1.29154 0
M  V30 7778 H 714.443 -1.32052 0.648118 0
M  V30 7779 H 716.401 -4.10554 -0.741723 0
M  V30 7780 H 715.031 -3.02814 -1.1182 0
M  V30 7781 H 714.083 -3.59842 1.23361 0
M  V30 7782 H 715.395 -4.78502 1.40846 0
M  V30 7783 H 714.549 -6.03863 -0.585984 0
M  V30 7784 H 713.288 -4.80188 -0.852661 0
M  V30 7785 H 712.293 -5.31846 1.39357 0
M  V30 7786 H 713.518 -6.58777 1.64894 0
M  V30 7787 H 711.464 -6.53301 -0.594413 0
M  V30 7788 H 711.381 -7.51409 0.831906 0
M  V30 7789 H 712.649 -7.78821 -0.325239 0
M  V30 7790 N 716.879 -0.700114 -1.41195 0
M  V30 7791 C 718.107 -0.242179 -2.05478 0
M  V30 7792 C 718.522 1.11029 -1.52702 0
M  V30 7793 O 717.879 1.69473 -0.677127 0
M  V30 7794 C 717.93 -0.196271 -3.60967 0
M  V30 7795 O 717.651 -1.49532 -4.11791 0
M  V30 7796 C 719.152 0.282102 -4.42401 0
M  V30 7797 H 716.372 -0.111749 -0.661629 0
M  V30 7798 H 718.916 -0.953975 -1.80885 0
M  V30 7799 H 717.071 0.46638 -3.84582 0
M  V30 7800 H 717.485 -1.38545 -5.05871 0
M  V30 7801 H 718.959 0.263093 -5.51373 0
M  V30 7802 H 719.436 1.32174 -4.1884 0
M  V30 7803 H 720.042 -0.349712 -4.2386 0
M  V30 7804 N 718.357 1.51182 -0.445186 0
M  V30 7805 C 719.603 2.03097 0.111049 0
M  V30 7806 C 719.958 1.32293 1.397 0
M  V30 7807 O 719.251 0.431529 1.86677 0
M  V30 7808 C 719.445 3.55408 0.376797 0
M  V30 7809 C 719.274 4.40969 -0.88185 0
M  V30 7810 C 718.044 4.85006 -1.41766 0
M  V30 7811 C 720.242 4.82876 -1.77017 0
M  V30 7812 N 718.224 5.54804 -2.62803 0
M  V30 7813 C 719.595 5.51821 -2.82654 0
M  V30 7814 C 721.65 4.64855 -1.78365 0
M  V30 7815 C 720.353 6.04655 -3.89595 0
M  V30 7816 C 722.379 5.18612 -2.84246 0
M  V30 7817 C 721.741 5.87509 -3.88603 0
M  V30 7818 H 717.84 0.781999 0.0012696 0
M  V30 7819 H 720.424 1.84976 -0.60761 0
M  V30 7820 H 718.595 3.73528 1.06449 0
M  V30 7821 H 720.327 3.93985 0.925082 0
M  V30 7822 H 717.082 4.6355 -0.970476 0
M  V30 7823 H 717.506 5.94326 -3.24201 0
M  V30 7824 H 722.148 4.11043 -0.990119 0
M  V30 7825 H 719.866 6.57518 -4.69782 0
M  V30 7826 H 723.452 5.06515 -2.86241 0
M  V30 7827 H 722.332 6.28358 -4.69186 0
M  V30 7828 N 719.835 0.176821 1.56605 0
M  V30 7829 C 720.783 -0.768159 2.1955 0
M  V30 7830 C 721.777 -1.23343 1.16116 0
M  V30 7831 O 722.983 -1.19844 1.34303 0
M  V30 7832 H 719.358 -0.266013 0.703378 0
M  V30 7833 H 721.329 -0.213374 2.97636 0
M  V30 7834 C 720.078 -1.98492 2.85475 0
M  V30 7835 H 719.401 -1.63595 3.64797 0
M  V30 7836 H 720.841 -2.62489 3.3298 0
M  V30 7837 C 719.3 -2.81207 1.85538 0
M  V30 7838 O 719.83 -3.7854 1.34427 0
M  V30 7839 N 718.036 -2.46331 1.54173 0
M  V30 7840 H 717.583 -1.67241 1.95929 0
M  V30 7841 H 717.541 -3.01961 0.875595 0
M  V30 7842 N 721.313 -1.57302 -0.09688 0
M  V30 7843 C 722.59 -1.7701 -0.832272 0
M  V30 7844 C 722.97 -0.758025 -1.97021 0
M  V30 7845 O 722.318 0.213824 -2.27497 0
M  V30 7846 C 722.528 -3.22725 -1.32851 0
M  V30 7847 C 723.876 -3.85856 -1.772 0
M  V30 7848 O 724.9 -3.26464 -1.42478 0
M  V30 7849 O 723.759 -4.90295 -2.41398 0
M  V30 7850 H 720.853 -0.725558 -0.396856 0
M  V30 7851 H 723.399 -1.69516 -0.0789005 0
M  V30 7852 H 722.171 -3.87921 -0.51312 0
M  V30 7853 H 721.794 -3.34845 -2.14394 0
M  V30 7854 N 722.791 0.367657 -1.53252 0
M  V30 7855 C 724.021 1.12955 -1.72988 0
M  V30 7856 C 724.429 1.8358 -0.457708 0
M  V30 7857 O 723.772 1.74336 0.579006 0
M  V30 7858 C 723.834 2.20545 -2.83902 0
M  V30 7859 C 723.498 1.69704 -4.24323 0
M  V30 7860 C 724.495 1.16223 -5.06743 0
M  V30 7861 C 722.18 1.7528 -4.70725 0
M  V30 7862 C 724.174 0.689935 -6.33655 0
M  V30 7863 C 721.861 1.27662 -5.97617 0
M  V30 7864 C 722.859 0.746083 -6.78913 0
M  V30 7865 O 722.547 0.276925 -8.03423 0
M  V30 7866 H 722.279 0.343753 -0.582074 0
M  V30 7867 H 724.833 0.433106 -2.00782 0
M  V30 7868 H 723.063 2.93676 -2.51577 0
M  V30 7869 H 724.752 2.82111 -2.91836 0
M  V30 7870 H 725.518 1.11256 -4.72067 0
M  V30 7871 H 721.397 2.15515 -4.07522 0
M  V30 7872 H 724.941 0.275164 -6.97057 0
M  V30 7873 H 720.838 1.32322 -6.31792 0
M  V30 7874 H 721.606 0.396445 -8.17539 0
M  V30 7875 N 724.269 1.44576 0.627338 0
M  V30 7876 C 725.201 1.47724 1.75243 0
M  V30 7877 C 726.214 0.370193 1.58535 0
M  V30 7878 O 727.403 0.636151 1.66779 0
M  V30 7879 C 724.503 1.2991 3.13012 0
M  V30 7880 C 723.676 2.5393 3.56143 0
M  V30 7881 C 722.735 2.30961 4.72804 0
M  V30 7882 O 721.761 3.04469 4.80923 0
M  V30 7883 N 722.963 1.34261 5.6476 0
M  V30 7884 H 725.728 2.44718 1.73012 0
M  V30 7885 H 723.289 1.40064 0.812022 0
M  V30 7886 H 725.281 1.12385 3.88782 0
M  V30 7887 H 723.851 0.412668 3.09864 0
M  V30 7888 H 723.071 2.86707 2.70542 0
M  V30 7889 H 724.359 3.36411 3.81713 0
M  V30 7890 H 723.757 0.735573 5.60897 0
M  V30 7891 H 722.314 1.22713 6.40144 0
M  V30 7892 N 725.747 -0.868086 1.31537 0
M  V30 7893 C 726.679 -1.98165 1.15166 0
M  V30 7894 C 727.692 -1.6255 0.0902335 0
M  V30 7895 O 728.881 -1.75272 0.33791 0
M  V30 7896 C 725.981 -3.30772 0.737776 0
M  V30 7897 C 725.154 -3.94716 1.88462 0
M  V30 7898 C 724.213 -5.05641 1.45648 0
M  V30 7899 O 723.239 -5.2636 2.16642 0
M  V30 7900 N 724.441 -5.79474 0.34493 0
M  V30 7901 H 727.206 -2.12754 2.11083 0
M  V30 7902 H 724.767 -1.04217 1.23897 0
M  V30 7903 H 726.759 -4.02366 0.434032 0
M  V30 7904 H 725.329 -3.1233 -0.129834 0
M  V30 7905 H 724.549 -3.16079 2.35558 0
M  V30 7906 H 725.837 -4.34175 2.65273 0
M  V30 7907 H 725.235 -5.65164 -0.246259 0
M  V30 7908 H 723.792 -6.51722 0.100728 0
M  V30 7909 N 727.225 -1.14528 -1.08264 0
M  V30 7910 C 728.157 -0.791325 -2.15106 0
M  V30 7911 C 729.17 0.192449 -1.61659 0
M  V30 7912 O 730.359 -0.0294704 -1.78476 0
M  V30 7913 C 727.459 -0.154183 -3.38549 0
M  V30 7914 C 726.632 -1.17305 -4.21377 0
M  V30 7915 C 725.691 -0.559401 -5.23218 0
M  V30 7916 O 724.717 -1.22277 -5.55911 0
M  V30 7917 N 725.919 0.663159 -5.767 0
M  V30 7918 H 728.684 -1.71076 -2.46075 0
M  V30 7919 H 726.245 -1.0399 -1.24087 0
M  V30 7920 H 728.237 0.268884 -4.03806 0
M  V30 7921 H 726.807 0.668418 -3.0537 0
M  V30 7922 H 726.027 -1.773 -3.52077 0
M  V30 7923 H 727.315 -1.86128 -4.73533 0
M  V30 7924 H 726.713 1.22066 -5.52373 0
M  V30 7925 H 725.27 1.02871 -6.43631 0
M  V30 7926 N 728.703 1.26451 -0.940633 0
M  V30 7927 C 729.633 2.28773 -0.467479 0
M  V30 7928 C 730.614 1.63218 0.478955 0
M  V30 7929 O 731.799 1.90427 0.380929 0
M  V30 7930 C 728.929 3.46259 0.268656 0
M  V30 7931 C 727.883 4.23898 -0.591171 0
M  V30 7932 C 727.209 5.33993 0.274891 0
M  V30 7933 C 728.509 4.87974 -1.86223 0
M  V30 7934 H 730.203 2.68601 -1.32265 0
M  V30 7935 H 727.749 1.29123 -0.637436 0
M  V30 7936 H 729.702 4.16951 0.610696 0
M  V30 7937 H 728.426 3.05383 1.15796 0
M  V30 7938 H 727.085 3.54969 -0.916098 0
M  V30 7939 H 726.733 4.89358 1.16353 0
M  V30 7940 H 726.433 5.86849 -0.297006 0
M  V30 7941 H 727.957 6.07523 0.612213 0
M  V30 7942 H 729.371 5.50883 -1.58747 0
M  V30 7943 H 727.768 5.50945 -2.37866 0
M  V30 7944 H 728.838 4.10945 -2.57394 0
M  V30 7945 N 730.181 0.707592 1.40822 0
M  V30 7946 C 731.128 0.0499029 2.30746 0
M  V30 7947 C 732.098 -0.758718 1.47759 0
M  V30 7948 O 733.283 -0.724299 1.76518 0
M  V30 7949 C 730.423 -0.871756 3.33908 0
M  V30 7950 C 729.536 -0.0534655 4.31967 0
M  V30 7951 C 728.671 -0.973869 5.22197 0
M  V30 7952 C 727.71 -0.149194 6.11918 0
M  V30 7953 N 726.847 -1.02404 6.94592 0
M  V30 7954 H 731.687 0.822461 2.86426 0
M  V30 7955 H 729.224 0.417285 1.41057 0
M  V30 7956 H 731.182 -1.42028 3.9228 0
M  V30 7957 H 729.812 -1.61058 2.7975 0
M  V30 7958 H 728.864 0.612142 3.75442 0
M  V30 7959 H 730.176 0.585354 4.95353 0
M  V30 7960 H 729.33 -1.59121 5.85462 0
M  V30 7961 H 728.069 -1.64652 4.59065 0
M  V30 7962 H 727.074 0.481137 5.47691 0
M  V30 7963 H 728.299 0.519841 6.77107 0
M  V30 7964 H 726.245 -1.6825 6.34057 0
M  V30 7965 H 726.162 -0.441076 7.54712 0
M  V30 7966 H 727.43 -1.62782 7.62314 0
M  V30 7967 N 731.66 -1.50943 0.453197 0
M  V30 7968 C 732.608 -2.29728 -0.364419 0
M  V30 7969 C 733.602 -1.36246 -1.00664 0
M  V30 7970 O 734.808 -1.53518 -0.939794 0
M  V30 7971 H 731.183 -0.739536 -0.136347 0
M  V30 7972 H 733.154 -2.96672 0.320696 0
M  V30 7973 C 731.903 -3.1629 -1.44415 0
M  V30 7974 H 731.226 -3.88119 -0.959343 0
M  V30 7975 H 732.666 -3.74444 -1.98917 0
M  V30 7976 C 731.125 -2.32702 -2.43622 0
M  V30 7977 O 731.655 -1.99763 -3.48508 0
M  V30 7978 N 729.861 -1.95621 -2.14897 0
M  V30 7979 H 729.408 -2.22607 -1.29629 0
M  V30 7980 H 729.366 -1.39993 -2.81513 0
M  V30 7981 N 733.138 -0.185124 -1.56509 0
M  V30 7982 C 734.554 0.170865 -1.58683 0
M  V30 7983 C 734.754 1.61799 -1.20098 0
M  V30 7984 O 733.81 2.35181 -0.919038 0
M  V30 7985 C 735.123 -0.122459 -3.00451 0
M  V30 7986 C 736.671 -0.0617699 -3.12939 0
M  V30 7987 C 737.146 -0.328269 -4.56822 0
M  V30 7988 N 738.637 -0.276533 -4.62374 0
M  V30 7989 C 739.372 -0.456722 -5.71578 0
M  V30 7990 N 738.868 -0.69672 -6.89288 0
M  V30 7991 N 740.661 -0.391669 -5.60734 0
M  V30 7992 H 732.812 -1.12956 -1.79874 0
M  V30 7993 H 735.075 -0.45011 -0.834329 0
M  V30 7994 H 734.781 -1.12546 -3.33206 0
M  V30 7995 H 734.655 0.579578 -3.72721 0
M  V30 7996 H 737.042 0.931826 -2.80002 0
M  V30 7997 H 737.123 -0.796732 -2.43076 0
M  V30 7998 H 736.767 -1.31914 -4.9047 0
M  V30 7999 H 736.697 0.427465 -5.24862 0
M  V30 8000 H 739.188 -0.0972458 -3.77775 0
M  V30 8001 H 739.501 -0.823291 -7.68402 0
M  V30 8002 H 737.846 -0.733497 -6.91119 0
M  V30 8003 H 741.037 -0.204663 -4.67652 0
M  V30 8004 H 741.21 -0.535518 -6.45783 0
M  V30 8005 N 734.616 1.57351 0.0885366 0
M  V30 8006 C 735.864 1.86051 0.789262 0
M  V30 8007 C 736.185 0.774763 1.78948 0
M  V30 8008 O 735.455 -0.198324 1.94894 0
M  V30 8009 H 734.035 0.686508 0.294475 0
M  V30 8010 H 736.697 1.94779 0.0686055 0
M  V30 8011 H 735.793 2.83007 1.31581 0
M  V30 8012 N 736.094 -0.359525 1.53444 0
M  V30 8013 C 737.341 -1.10152 1.6992 0
M  V30 8014 C 737.669 -1.89125 0.4541 0
M  V30 8015 O 736.924 -1.87396 -0.564023 0
M  V30 8016 C 737.223 -2.08287 2.90433 0
M  V30 8017 C 736.889 -1.45749 4.26694 0
M  V30 8018 C 735.551 -1.28421 4.63747 0
M  V30 8019 C 737.903 -1.00557 5.11408 0
M  V30 8020 C 735.231 -0.644951 5.83144 0
M  V30 8021 C 737.583 -0.380288 6.31456 0
M  V30 8022 C 736.247 -0.194557 6.67216 0
M  V30 8023 H 735.517 -0.403076 0.621781 0
M  V30 8024 H 738.164 -0.382612 1.87639 0
M  V30 8025 H 736.469 -2.86503 2.67251 0
M  V30 8026 H 738.166 -2.65662 3.00374 0
M  V30 8027 H 734.756 -1.6023 3.97523 0
M  V30 8028 H 738.94 -1.12735 4.83326 0
M  V30 8029 H 734.196 -0.48952 6.09437 0
M  V30 8030 H 738.37 -0.0219455 6.96397 0
M  V30 8031 H 735.997 0.30285 7.59597 0
M  V30 8032 N 737.572 -1.44907 -0.619662 0
M  V30 8033 C 738.802 -1.51575 -1.40387 0
M  V30 8034 C 739.21 -0.14309 -1.88658 0
M  V30 8035 O 738.553 0.863403 -1.62145 0
M  V30 8036 C 738.615 -2.42858 -2.65067 0
M  V30 8037 C 738.279 -3.8982 -2.38515 0
M  V30 8038 C 739.276 -4.80047 -1.99627 0
M  V30 8039 C 736.961 -4.34628 -2.51801 0
M  V30 8040 C 738.955 -6.13086 -1.74369 0
M  V30 8041 C 736.642 -5.67712 -2.26156 0
M  V30 8042 C 737.64 -6.56759 -1.875 0
M  V30 8043 O 737.328 -7.87377 -1.62148 0
M  V30 8044 H 737.06 -0.51612 -0.436573 0
M  V30 8045 H 739.614 -1.90664 -0.763959 0
M  V30 8046 H 737.844 -1.98717 -3.31735 0
M  V30 8047 H 739.533 -2.40346 -3.27091 0
M  V30 8048 H 740.299 -4.46697 -1.8891 0
M  V30 8049 H 736.178 -3.65568 -2.80857 0
M  V30 8050 H 739.722 -6.8255 -1.44122 0
M  V30 8051 H 735.619 -6.0062 -2.36486 0
M  V30 8052 H 736.387 -7.99288 -1.763 0
M  V30 8053 N 739.05 0.861098 -1.31996 0
M  V30 8054 C 739.982 1.97551 -1.16216 0
M  V30 8055 C 740.995 1.625 -0.0988527 0
M  V30 8056 O 742.184 1.75091 -0.3472 0
M  V30 8057 C 739.284 3.30376 -0.755307 0
M  V30 8058 C 738.457 3.93711 -1.90552 0
M  V30 8059 C 737.516 5.04862 -1.48328 0
M  V30 8060 O 736.542 5.25204 -2.19431 0
M  V30 8061 N 737.744 5.79283 -0.375656 0
M  V30 8062 H 740.509 2.11632 -2.12208 0
M  V30 8063 H 738.07 1.03559 -1.24448 0
M  V30 8064 H 740.062 4.0213 -0.455364 0
M  V30 8065 H 738.632 3.12395 0.113269 0
M  V30 8066 H 737.852 3.14825 -2.37231 0
M  V30 8067 H 739.14 4.32762 -2.67571 0
M  V30 8068 H 738.538 5.65286 0.216284 0
M  V30 8069 H 737.095 6.5166 -0.135289 0
M  V30 8070 N 740.528 1.15101 1.07655 0
M  V30 8071 C 741.774 0.925343 1.80458 0
M  V30 8072 C 742.107 -0.546354 1.86356 0
M  V30 8073 O 741.382 -1.40496 1.34503 0
M  V30 8074 C 741.665 1.53646 3.25676 0
M  V30 8075 C 741.518 3.07854 3.27942 0
M  V30 8076 C 742.837 1.21968 4.22861 0
M  V30 8077 H 739.956 0.337592 0.655134 0
M  V30 8078 H 742.598 1.42217 1.25993 0
M  V30 8079 H 740.748 1.11395 3.72187 0
M  V30 8080 H 742.42 3.58989 2.89697 0
M  V30 8081 H 740.663 3.41904 2.66991 0
M  V30 8082 H 741.334 3.45725 4.30324 0
M  V30 8083 H 743.81 1.5851 3.84726 0
M  V30 8084 H 742.686 1.67349 5.22767 0
M  V30 8085 H 742.947 0.136207 4.4189 0
M  V30 8086 N 742.006 -1.2595 0.947325 0
M  V30 8087 C 742.939 -2.24559 0.406009 0
M  V30 8088 C 743.917 -1.54441 -0.508598 0
M  V30 8089 O 745.101 -1.83181 -0.444644 0
M  V30 8090 C 742.228 -3.36136 -0.415987 0
M  V30 8091 C 741.274 -4.24245 0.437969 0
M  V30 8092 S 742.107 -5.01948 1.86572 0
M  V30 8093 C 743.263 -6.16997 1.05194 0
M  V30 8094 H 743.496 -2.70128 1.24171 0
M  V30 8095 H 741.029 -1.34912 0.750874 0
M  V30 8096 H 742.987 -4.00861 -0.88433 0
M  V30 8097 H 741.648 -2.89167 -1.22643 0
M  V30 8098 H 740.841 -5.03634 -0.192127 0
M  V30 8099 H 740.443 -3.64416 0.841235 0
M  V30 8100 H 742.735 -6.76848 0.297126 0
M  V30 8101 H 743.678 -6.84324 1.8195 0
M  V30 8102 H 744.086 -5.61458 0.585294 0
M  V30 8103 N 743.484 -0.715051 -1.40445 0
M  V30 8104 C 744.733 -0.251322 -2.00128 0
M  V30 8105 C 745.046 1.16194 -1.57347 0
M  V30 8106 O 746.252 1.72416 -2.09726 0
M  V30 8107 C 744.708 -0.398407 -3.57688 0
M  V30 8108 C 744.316 -1.81828 -4.09442 0
M  V30 8109 C 746.06 0.00455625 -4.245 0
M  V30 8110 C 743.967 -1.91598 -5.59503 0
M  V30 8111 H 742.897 -0.0902081 -0.748584 0
M  V30 8112 H 745.548 -0.886062 -1.6069 0
M  V30 8113 H 743.93 0.304908 -3.94824 0
M  V30 8114 H 745.104 -2.55193 -3.83684 0
M  V30 8115 H 743.419 -2.17266 -3.55225 0
M  V30 8116 H 746.016 -0.0477303 -5.34679 0
M  V30 8117 H 746.359 1.04636 -4.02935 0
M  V30 8118 H 746.892 -0.649184 -3.92467 0
M  V30 8119 H 743.631 -2.93898 -5.85922 0
M  V30 8120 H 743.151 -1.22644 -5.87127 0
M  V30 8121 H 744.83 -1.68785 -6.24596 0
M  V30 8122 N 744.962 1.50701 -0.461195 0
M  V30 8123 C 746.208 2.02566 0.0973411 0
M  V30 8124 C 746.541 1.3432 1.40257 0
M  V30 8125 O 745.816 0.465692 1.88843 0
M  V30 8126 C 746.099 3.58919 0.291423 0
M  V30 8127 C 745.952 4.37751 -1.03413 0
M  V30 8128 C 747.271 4.27379 1.05048 0
M  V30 8129 H 744.39 0.73622 0.0339026 0
M  V30 8130 H 747.032 1.80115 -0.604855 0
M  V30 8131 H 745.182 3.78179 0.889539 0
M  V30 8132 H 746.854 4.30085 -1.66806 0
M  V30 8133 H 745.097 4.01885 -1.63313 0
M  V30 8134 H 745.768 5.45384 -0.852085 0
M  V30 8135 H 748.244 4.12534 0.543603 0
M  V30 8136 H 747.12 5.36609 1.15506 0
M  V30 8137 H 747.381 3.89868 2.0846 0
M  V30 8138 N 746.441 0.193421 1.56409 0
M  V30 8139 C 747.374 -0.767384 2.1491 0
M  V30 8140 C 748.352 -1.21075 1.08534 0
M  V30 8141 O 749.536 -1.29856 1.36637 0
M  V30 8142 C 746.663 -2.03615 2.70663 0
M  V30 8143 C 745.709 -1.73505 3.89613 0
M  V30 8144 S 746.542 -0.884645 5.28142 0
M  V30 8145 C 747.698 -2.1636 5.87315 0
M  V30 8146 H 747.931 -0.270053 2.96071 0
M  V30 8147 H 745.464 -0.0215546 1.54385 0
M  V30 8148 H 747.422 -2.7648 3.03429 0
M  V30 8149 H 746.083 -2.50461 1.89547 0
M  V30 8150 H 745.276 -2.67701 4.27027 0
M  V30 8151 H 744.878 -1.08723 3.57848 0
M  V30 8152 H 747.17 -3.11629 6.01576 0
M  V30 8153 H 748.113 -1.8338 6.83943 0
M  V30 8154 H 748.521 -2.29129 5.15907 0
M  V30 8155 N 747.919 -1.57396 -0.0801906 0
M  V30 8156 C 748.851 -1.9982 -1.12271 0
M  V30 8157 C 749.864 -0.902902 -1.35468 0
M  V30 8158 O 751.053 -1.18088 -1.33856 0
M  V30 8159 C 748.153 -2.31476 -2.47532 0
M  V30 8160 C 747.326 -3.62745 -2.44407 0
M  V30 8161 C 746.385 -3.82168 -3.6171 0
M  V30 8162 O 745.411 -4.53852 -3.43522 0
M  V30 8163 N 746.613 -3.2388 -4.81749 0
M  V30 8164 H 749.378 -2.89864 -0.761501 0
M  V30 8165 H 746.939 -1.5965 -0.268965 0
M  V30 8166 H 748.931 -2.4165 -3.24634 0
M  V30 8167 H 747.501 -1.47364 -2.75686 0
M  V30 8168 H 746.721 -3.63403 -1.52747 0
M  V30 8169 H 748.009 -4.48954 -2.39412 0
M  V30 8170 H 747.407 -2.6568 -4.9943 0
M  V30 8171 H 745.964 -3.39515 -5.56392 0
M  V30 8172 N 749.397 0.351382 -1.53633 0
M  V30 8173 C 750.344 1.43115 -1.81071 0
M  V30 8174 C 751.314 1.52601 -0.655913 0
M  V30 8175 O 752.499 1.68264 -0.89955 0
M  V30 8176 C 749.639 2.79874 -2.01903 0
M  V30 8177 C 748.752 2.79242 -3.29618 0
M  V30 8178 C 747.887 4.07667 -3.40559 0
M  V30 8179 C 746.926 4.01233 -4.62254 0
M  V30 8180 N 746.063 5.21334 -4.70271 0
M  V30 8181 H 750.903 1.19017 -2.73201 0
M  V30 8182 H 748.44 0.576691 -1.35324 0
M  V30 8183 H 750.398 3.5934 -2.11969 0
M  V30 8184 H 749.028 3.0234 -1.13094 0
M  V30 8185 H 748.08 1.91927 -3.28433 0
M  V30 8186 H 749.392 2.70363 -4.19172 0
M  V30 8187 H 748.546 4.95555 -3.50015 0
M  V30 8188 H 747.285 4.19317 -2.49047 0
M  V30 8189 H 746.29 3.11732 -4.52884 0
M  V30 8190 H 747.515 3.91173 -5.55122 0
M  V30 8191 H 745.461 5.33543 -3.81665 0
M  V30 8192 H 745.378 5.14681 -5.5375 0
M  V30 8193 H 746.646 6.11014 -4.84027 0
M  V30 8194 N 750.875 1.45233 0.611969 0
M  V30 8195 C 751.838 1.53189 1.70487 0
M  V30 8196 C 752.838 0.411839 1.55437 0
M  V30 8197 O 754.028 0.675164 1.60584 0
M  V30 8198 C 751.16 1.42422 3.09723 0
M  V30 8199 H 752.353 2.5056 1.64802 0
M  V30 8200 H 749.906 1.32609 0.827318 0
M  V30 8201 H 750.641 0.462185 3.2099 0
M  V30 8202 H 750.426 2.23658 3.22055 0
M  V30 8203 H 751.916 1.51012 3.89339 0
M  V30 8204 N 752.353 -0.854086 1.3245 0
M  V30 8205 C 753.583 -1.63836 1.25862 0
M  V30 8206 C 753.991 -1.88383 -0.175588 0
M  V30 8207 O 753.334 -1.45353 -1.1233 0
M  V30 8208 C 753.396 -3.02068 1.94923 0
M  V30 8209 C 753.06 -3.0056 3.44257 0
M  V30 8210 C 754.057 -2.77368 4.39731 0
M  V30 8211 C 751.742 -3.21177 3.862 0
M  V30 8212 C 753.736 -2.74797 5.75122 0
M  V30 8213 C 751.423 -3.18234 5.217 0
M  V30 8214 C 752.421 -2.95072 6.15972 0
M  V30 8215 O 752.109 -2.92003 7.48992 0
M  V30 8216 H 751.841 -0.517007 0.435523 0
M  V30 8217 H 754.395 -1.07314 1.75137 0
M  V30 8218 H 752.625 -3.60382 1.40219 0
M  V30 8219 H 754.314 -3.62791 1.82037 0
M  V30 8220 H 755.08 -2.61205 4.08653 0
M  V30 8221 H 750.959 -3.38231 3.13243 0
M  V30 8222 H 754.503 -2.56638 6.48678 0
M  V30 8223 H 750.4 -3.33941 5.52407 0
M  V30 8224 H 751.168 -3.07953 7.58358 0
M  V30 8225 N 753.831 -1.1567 -1.07043 0
M  V30 8226 C 755.108 -0.843948 -1.76456 0
M  V30 8227 C 755.488 0.659806 -2.00524 0
M  V30 8228 O 754.836 1.60518 -1.62623 0
M  V30 8229 C 755.046 -1.65822 -3.0709 0
M  V30 8230 C 756.394 -1.8664 -3.8138 0
M  V30 8231 O 757.418 -1.62624 -3.1691 0
M  V30 8232 O 756.277 -2.26884 -4.97178 0
M  V30 8233 H 753.371 -0.310677 -0.766426 0
M  V30 8234 H 755.917 -1.26266 -1.1338 0
M  V30 8235 H 754.689 -2.67902 -2.85209 0
M  V30 8236 H 754.312 -1.23605 -3.77899 0
M  V30 8237 N 755.309 1.25446 -0.953992 0
M  V30 8238 C 756.725 1.4539 -0.658316 0
M  V30 8239 C 756.925 1.85607 0.784356 0
M  V30 8240 O 755.981 1.98568 1.55972 0
M  V30 8241 C 757.294 2.52643 -1.6307 0
M  V30 8242 C 758.842 2.66484 -1.64181 0
M  V30 8243 C 759.317 3.76921 -2.60182 0
M  V30 8244 N 760.808 3.84331 -2.58542 0
M  V30 8245 C 761.543 4.69271 -3.29503 0
M  V30 8246 N 761.039 5.58503 -4.09934 0
M  V30 8247 N 762.832 4.6323 -3.18393 0
M  V30 8248 H 754.983 0.976337 -1.8863 0
M  V30 8249 H 757.246 0.490343 -0.811337 0
M  V30 8250 H 756.952 2.29949 -2.66114 0
M  V30 8251 H 756.826 3.50547 -1.39271 0
M  V30 8252 H 759.213 2.88545 -0.618552 0
M  V30 8253 H 759.294 1.68982 -1.92038 0
M  V30 8254 H 758.938 3.55612 -3.62633 0
M  V30 8255 H 758.868 4.73906 -2.29609 0
M  V30 8256 H 761.359 3.20544 -2.0015 0
M  V30 8257 H 761.672 6.20241 -4.61 0
M  V30 8258 H 760.017 5.58214 -4.14032 0
M  V30 8259 H 763.208 3.92527 -2.5503 0
M  V30 8260 H 763.381 5.29204 -3.73961 0
M  V30 8261 N 756.787 0.722489 1.40064 0
M  V30 8262 C 757.719 0.0349057 2.29173 0
M  V30 8263 C 758.732 -0.716571 1.46182 0
M  V30 8264 O 759.921 -0.562806 1.69395 0
M  V30 8265 C 757.021 -0.974839 3.24577 0
M  V30 8266 C 756.194 -0.287471 4.36454 0
M  V30 8267 C 755.253 -1.20356 5.12251 0
M  V30 8268 O 754.279 -0.685753 5.65054 0
M  V30 8269 N 755.481 -2.53422 5.22262 0
M  V30 8270 H 758.246 0.800058 2.88824 0
M  V30 8271 H 755.807 0.57068 1.51509 0
M  V30 8272 H 757.799 -1.59002 3.72157 0
M  V30 8273 H 756.369 -1.6413 2.66046 0
M  V30 8274 H 755.589 0.508008 3.90913 0
M  V30 8275 H 756.877 0.189382 5.08447 0
M  V30 8276 H 756.275 -2.97981 4.80857 0
M  V30 8277 H 754.832 -3.10067 5.73325 0
M  V30 8278 N 758.265 -1.50454 0.469181 0
M  V30 8279 C 759.495 -2.06429 -0.0840913 0
M  V30 8280 C 759.903 -1.3334 -1.34227 0
M  V30 8281 O 759.246 -0.395656 -1.79389 0
M  V30 8282 C 759.308 -3.56797 -0.440049 0
M  V30 8283 C 758.972 -4.51359 0.715838 0
M  V30 8284 C 759.969 -4.94754 1.59732 0
M  V30 8285 C 757.654 -4.94069 0.905621 0
M  V30 8286 C 759.648 -5.79564 2.653 0
M  V30 8287 C 757.335 -5.78662 1.96453 0
M  V30 8288 C 758.333 -6.21311 2.83658 0
M  V30 8289 O 758.021 -7.04218 3.87727 0
M  V30 8290 H 757.753 -0.675994 0.00289751 0
M  V30 8291 H 760.307 -1.94629 0.656417 0
M  V30 8292 H 758.537 -3.66492 -1.23372 0
M  V30 8293 H 760.226 -3.95145 -0.928181 0
M  V30 8294 H 760.992 -4.62428 1.46237 0
M  V30 8295 H 756.871 -4.60394 0.236326 0
M  V30 8296 H 760.415 -6.12774 3.33398 0
M  V30 8297 H 756.312 -6.10401 2.09955 0
M  V30 8298 H 757.08 -7.22464 3.84692 0
M  V30 8299 N 759.743 -0.201713 -1.56304 0
M  V30 8300 C 760.991 0.434447 -1.97375 0
M  V30 8301 C 761.312 1.61692 -1.08998 0
M  V30 8302 O 760.582 1.95223 -0.162682 0
M  V30 8303 H 759.162 0.163497 -0.728888 0
M  V30 8304 H 761.824 -0.289988 -1.92731 0
M  V30 8305 H 760.92 0.774136 -3.02347 0
M  V30 8306 N 761.222 1.57436 0.0718424 0
M  V30 8307 C 762.47 1.86878 0.769484 0
M  V30 8308 C 762.791 0.7937 1.78116 0
M  V30 8309 O 762.061 -0.177642 1.95093 0
M  V30 8310 H 760.641 0.689593 0.287177 0
M  V30 8311 H 763.303 1.94841 0.0479427 0
M  V30 8312 H 762.399 2.84387 1.28572 0
M  V30 8313 N 762.7 -0.34323 1.53817 0
M  V30 8314 C 763.663 -1.40444 1.8113 0
M  V30 8315 C 764.663 -1.45604 0.682366 0
M  V30 8316 O 765.853 -1.45974 0.950649 0
M  V30 8317 C 762.985 -2.79369 1.95361 0
M  V30 8318 H 764.178 -1.17489 2.75928 0
M  V30 8319 H 761.731 -0.577636 1.45234 0
M  V30 8320 H 762.466 -3.07607 1.02707 0
M  V30 8321 H 762.251 -2.7702 2.77493 0
M  V30 8322 H 763.741 -3.56178 2.18008 0
M  V30 8323 N 764.178 -1.45556 -0.604258 0
M  V30 8324 C 765.141 -1.54091 -1.69672 0
M  V30 8325 C 766.141 -0.420076 -1.55216 0
M  V30 8326 O 767.331 -0.683671 -1.60224 0
M  V30 8327 C 764.463 -1.44063 -3.08964 0
M  V30 8328 H 765.656 -2.51431 -1.6347 0
M  V30 8329 H 763.209 -1.33046 -0.820273 0
M  V30 8330 H 763.944 -0.479201 -3.2074 0
M  V30 8331 H 763.729 -2.25362 -3.20865 0
M  V30 8332 H 765.219 -1.53075 -3.88533 0
M  V30 8333 N 765.656 0.84705 -1.32902 0
M  V30 8334 C 766.603 1.95624 -1.22473 0
M  V30 8335 C 767.573 1.65767 -0.105178 0
M  V30 8336 O 768.758 1.88704 -0.282042 0
M  V30 8337 C 765.898 3.31434 -0.961542 0
M  V30 8338 C 765.011 3.73741 -2.1666 0
M  V30 8339 C 764.146 4.98379 -1.83825 0
M  V30 8340 C 763.185 5.33199 -3.00609 0
M  V30 8341 N 762.322 6.49014 -2.67816 0
M  V30 8342 H 767.162 2.03875 -2.17345 0
M  V30 8343 H 764.699 0.997764 -1.08088 0
M  V30 8344 H 766.657 4.09663 -0.789411 0
M  V30 8345 H 765.287 3.22762 -0.0495938 0
M  V30 8346 H 764.339 2.91102 -2.44875 0
M  V30 8347 H 765.651 3.95462 -3.03993 0
M  V30 8348 H 764.805 5.84336 -1.63208 0
M  V30 8349 H 763.544 4.78611 -0.937172 0
M  V30 8350 H 762.549 4.4575 -3.21849 0
M  V30 8351 H 763.774 5.5492 -3.9146 0
M  V30 8352 H 761.72 6.30748 -1.80258 0
M  V30 8353 H 761.637 6.7079 -3.48679 0
M  V30 8354 H 762.905 7.38103 -2.50647 0
M  V30 8355 N 767.134 1.16236 1.06428 0
M  V30 8356 C 768.545 0.950942 1.60667 0
M  V30 8357 C 768.896 -0.505491 1.89576 0
M  V30 8358 O 768.021 -1.37843 1.66818 0
M  V30 8359 C 768.616 1.71982 2.91904 0
M  V30 8360 C 767.175 1.55342 3.4285 0
M  V30 8361 C 766.322 1.72942 2.16763 0
M  V30 8362 H 769.273 1.31126 0.893959 0
M  V30 8363 H 769.294 1.19483 3.61253 0
M  V30 8364 H 768.806 2.77978 2.70831 0
M  V30 8365 H 766.907 0.5178 3.68985 0
M  V30 8366 H 767.02 2.33643 4.18267 0
M  V30 8367 H 765.384 1.15673 2.26918 0
M  V30 8368 H 766.167 2.80324 1.98175 0
M  V30 8369 N 768.612 -1.24939 0.960631 0
M  V30 8370 C 769.575 -2.239 0.49006 0
M  V30 8371 C 770.575 -1.55497 -0.409535 0
M  V30 8372 O 771.765 -1.72978 -0.205984 0
M  V30 8373 C 768.897 -3.39654 -0.291193 0
M  V30 8374 H 770.09 -2.67044 1.36482 0
M  V30 8375 H 767.643 -1.37429 0.744505 0
M  V30 8376 H 768.378 -3.01939 -1.18336 0
M  V30 8377 H 768.163 -3.90496 0.354276 0
M  V30 8378 H 769.653 -4.13125 -0.609693 0
M  V30 8379 N 770.09 -0.729906 -1.39679 0
M  V30 8380 C 771.022 -0.0470588 -2.29152 0
M  V30 8381 C 772.035 0.708808 -1.4656 0
M  V30 8382 O 773.224 0.553815 -1.69691 0
M  V30 8383 C 770.324 0.957612 -3.25089 0
M  V30 8384 C 769.497 0.264321 -4.36601 0
M  V30 8385 C 768.556 1.17638 -5.12882 0
M  V30 8386 O 767.582 0.655777 -5.6541 0
M  V30 8387 N 768.784 2.50649 -5.23598 0
M  V30 8388 H 771.549 -0.815364 -2.88395 0
M  V30 8389 H 769.11 -0.578707 -1.51204 0
M  V30 8390 H 771.102 1.57026 -3.72995 0
M  V30 8391 H 769.672 1.62716 -2.66912 0
M  V30 8392 H 768.892 -0.528732 -3.90638 0
M  V30 8393 H 770.18 -0.216344 -5.0834 0
M  V30 8394 H 769.578 2.95427 -4.82431 0
M  V30 8395 H 768.135 3.07022 -5.74961 0
M  V30 8396 N 771.568 1.50203 -0.477153 0
M  V30 8397 C 772.814 2.02658 0.0758507 0
M  V30 8398 C 773.147 1.358 1.38824 0
M  V30 8399 O 772.422 0.485696 1.88338 0
M  V30 8400 C 772.705 3.59208 0.253339 0
M  V30 8401 C 772.558 4.36629 -1.0805 0
M  V30 8402 C 773.877 4.28469 1.00509 0
M  V30 8403 H 770.996 0.736538 0.0260921 0
M  V30 8404 H 773.638 1.79464 -0.623925 0
M  V30 8405 H 771.788 3.79101 0.849378 0
M  V30 8406 H 773.46 4.28292 -1.71358 0
M  V30 8407 H 771.703 4.0013 -1.67566 0
M  V30 8408 H 772.374 5.44449 -0.909883 0
M  V30 8409 H 774.85 4.13087 0.499818 0
M  V30 8410 H 773.726 5.37804 1.09808 0
M  V30 8411 H 773.987 3.92057 2.04314 0
M  V30 8412 N 773.046 0.209999 1.56195 0
M  V30 8413 C 774.294 -0.423974 1.97603 0
M  V30 8414 C 774.615 -1.61112 1.09854 0
M  V30 8415 O 773.885 -1.95134 0.173032 0
M  V30 8416 H 772.465 -0.159629 0.729745 0
M  V30 8417 H 775.127 0.300205 1.92574 0
M  V30 8418 H 774.223 -0.75809 3.02753 0
M  V30 8419 N 774.524 -1.57472 -0.0634922 0
M  V30 8420 C 775.487 -2.03268 -1.059 0
M  V30 8421 C 776.487 -0.931028 -1.31105 0
M  V30 8422 O 777.677 -1.19567 -1.26686 0
M  V30 8423 C 774.809 -2.42039 -2.40062 0
M  V30 8424 H 776.002 -2.92454 -0.664119 0
M  V30 8425 H 773.555 -1.53206 -0.309444 0
M  V30 8426 H 774.29 -1.55904 -2.84367 0
M  V30 8427 H 774.075 -3.22437 -2.23108 0
M  V30 8428 H 775.565 -2.78017 -3.11603 0
M  V30 8429 N 776.003 0.335068 -1.53997 0
M  V30 8430 C 776.95 1.41187 -1.82579 0
M  V30 8431 C 777.92 1.51897 -0.672061 0
M  V30 8432 O 779.105 1.673 -0.917346 0
M  V30 8433 C 776.245 2.77717 -2.0486 0
M  V30 8434 C 775.358 2.7573 -3.32561 0
M  V30 8435 C 774.493 4.04032 -3.44864 0
M  V30 8436 C 773.532 3.96308 -4.66483 0
M  V30 8437 N 772.669 5.16317 -4.75774 0
M  V30 8438 H 777.509 1.16113 -2.74448 0
M  V30 8439 H 775.046 0.562305 -1.35928 0
M  V30 8440 H 777.004 3.57071 -2.15768 0
M  V30 8441 H 775.634 3.01124 -1.16294 0
M  V30 8442 H 774.686 1.88432 -3.3045 0
M  V30 8443 H 775.998 2.65902 -4.22016 0
M  V30 8444 H 775.152 4.91814 -3.55251 0
M  V30 8445 H 773.891 4.16652 -2.53481 0
M  V30 8446 H 772.896 3.06911 -4.56164 0
M  V30 8447 H 774.121 3.85263 -5.5924 0
M  V30 8448 H 772.067 5.29464 -3.87303 0
M  V30 8449 H 771.984 5.08779 -5.59178 0
M  V30 8450 H 773.252 6.05846 -4.9048 0
M  V30 8451 O 777.52 1.5417 0.481036 0
M  V30 8452 H 778.211 1.5692 1.1356 0
M  V30 END ATOM
M  V30 BEGIN BOND
M  V30 END BOND
M  V30 END CTAB
M  END
$$$$
