drugbank_target|P03372 Estrogen receptor (DB00255; DB00269; DB00286; DB00304; DB00367; DB00396; DB00431; DB00481; DB00539; DB00603; DB00624; DB00648; DB00655; DB00675; DB00756; DB00783; DB00823; DB00841; DB00882; DB00890; DB00947; DB00957; DB00977; DB01065; DB01108; DB01183; DB01185; DB01196; DB01357; DB01406; DB01428; DB01431; DB01593; DB01645; DB01708; DB01878; DB02187; DB02615; DB02709; DB02715; DB02746; DB02757; DB02901; DB03467; DB03742; DB03802; DB04216; DB04468; DB04471; DB04573; DB04574; DB04575; DB04824; DB04930; DB04938; DB05233; DB05487; DB05662; DB05882; DB05966; DB06202; DB06249; DB06374; DB06401; DB06710; DB06732; DB06871; DB06898; DB06927; DB07086; DB07087; DB07195; DB07567; DB07638; DB07678; DB07707; DB07708; DB07712; DB07931; DB07932; DB07933; DB07991; DB08020; DB08047; DB08048; DB08320; DB08398; DB08595; DB08737; DB08773; DB09070; DB09086; DB09317; DB09318; DB09369; DB09371; DB09535; DB11064; DB11219; DB11478; DB11541; DB11619; DB12450; DB13869; DB13943; DB13944; DB13946; DB13951; DB13952; DB13953; DB13954; DB13955; DB13956; DB14487; DB14533; DB14548; DB14641; DB15690)
 OpenBabel12092119243D

  0  0  0     0  0            999 V3000
M  V30 BEGIN CTAB
M  V30 COUNTS 9245 9349 0 0 0
M  V30 BEGIN ATOM
M  V30 1 H -0.908 1.98254 -0.117106 0
M  V30 2 N 0 1.576 0 0
M  V30 3 C 0.933 2.03868 1.02534 0
M  V30 4 C 1.911 0.928543 1.3348 0
M  V30 5 O 3.095 1.19667 1.45644 0
M  V30 6 C 0.222 2.43627 2.35294 0
M  V30 7 C -0.732 3.65373 2.2001 0
M  V30 8 S 0.101 5.13292 1.52614 0
M  V30 9 C 1.257 5.56322 2.86805 0
M  V30 10 H 1.49 2.90518 0.631377 0
M  V30 11 H -0.977 1.52953 0.210867 0
M  V30 12 H 0.981 2.67203 3.11629 0
M  V30 13 H -0.358 1.57376 2.7183 0
M  V30 14 H -1.165 3.90944 3.18086 0
M  V30 15 H -1.563 3.418 1.51819 0
M  V30 16 H 0.729 5.58782 3.83104 0
M  V30 17 H 1.672 6.56266 2.65933 0
M  V30 18 H 2.08 4.83886 2.90714 0
M  V30 19 N 1.4781 -0.272755 1.55222 0
M  V30 20 C 2.7061 -1.02255 1.79865 0
M  V30 21 C 3.1211 -1.79924 0.572088 0
M  V30 22 O 2.4781 -1.76638 -0.458842 0
M  V30 23 C 2.5291 -1.98094 3.02392 0
M  V30 24 O 2.2501 -1.23572 4.20311 0
M  V30 25 C 3.7511 -2.84884 3.39641 0
M  V30 26 H 0.9711 -0.302057 0.599168 0
M  V30 27 H 3.5151 -0.303465 2.02236 0
M  V30 28 H 1.6701 -2.65465 2.82147 0
M  V30 29 H 2.0841 -1.88172 4.89583 0
M  V30 30 H 3.5581 -3.47927 4.28545 0
M  V30 31 H 4.0351 -3.54665 2.59055 0
M  V30 32 H 4.6411 -2.23003 3.62146 0
M  V30 33 N 2.9562 -1.48159 -0.537278 0
M  V30 34 C 3.8892 -1.567 -1.65893 0
M  V30 35 C 4.8672 -0.41787 -1.57139 0
M  V30 36 O 6.0512 -0.628461 -1.77715 0
M  V30 37 C 3.1782 -1.48818 -3.04255 0
M  V30 38 C 2.2242 -2.68482 -3.31391 0
M  V30 39 S 3.0572 -4.30516 -3.1846 0
M  V30 40 C 4.2132 -4.2522 -4.59281 0
M  V30 41 H 4.4462 -2.5159 -1.58397 0
M  V30 42 H 1.9792 -1.36602 -0.719672 0
M  V30 43 H 3.9372 -1.44958 -3.84054 0
M  V30 44 H 2.5982 -0.552777 -3.09198 0
M  V30 45 H 1.7912 -2.59085 -4.32309 0
M  V30 46 H 1.3932 -2.69567 -2.59248 0
M  V30 47 H 3.6852 -3.94703 -5.5065 0
M  V30 48 H 4.6282 -5.26292 -4.73732 0
M  V30 49 H 5.0362 -3.55791 -4.38261 0
M  V30 50 N 4.4343 0.785586 -1.36625 0
M  V30 51 C 5.6623 1.57448 -1.3423 0
M  V30 52 C 6.0773 1.88649 0.0755653 0
M  V30 53 O 5.4343 1.50414 1.03354 0
M  V30 54 C 5.4853 2.89316 -2.16745 0
M  V30 55 O 5.2063 2.59459 -3.53005 0
M  V30 56 C 6.7073 3.83606 -2.22174 0
M  V30 57 H 3.9273 0.488226 -0.4603 0
M  V30 58 H 6.4713 0.974733 -1.79775 0
M  V30 59 H 4.6263 3.4575 -1.74745 0
M  V30 60 H 5.0403 3.43804 -3.96105 0
M  V30 61 H 6.5143 4.73181 -2.8426 0
M  V30 62 H 6.9913 4.21734 -1.22627 0
M  V30 63 H 7.5973 3.33104 -2.64427 0
M  V30 64 N 5.9124 1.20967 1.01018 0
M  V30 65 C 6.8424 0.988272 2.11555 0
M  V30 66 C 7.8234 -0.0849778 1.69888 0
M  V30 67 O 9.0084 0.0738202 1.9406 0
M  V30 68 C 6.1384 0.546528 3.42973 0
M  V30 69 C 5.0924 1.56375 3.9841 0
M  V30 70 C 4.4184 0.97842 5.25672 0
M  V30 71 C 5.7184 2.94922 4.31066 0
M  V30 72 H 7.4124 1.91276 2.30334 0
M  V30 73 H 4.9584 0.921073 1.1069 0
M  V30 74 H 6.9114 0.378839 4.19694 0
M  V30 75 H 5.6354 -0.413598 3.23971 0
M  V30 76 H 4.2944 1.71891 3.23804 0
M  V30 77 H 3.9424 0.0101688 5.02999 0
M  V30 78 H 3.6424 1.65784 5.63728 0
M  V30 79 H 5.1664 0.821939 6.05043 0
M  V30 80 H 6.5804 2.8288 4.9865 0
M  V30 81 H 4.9774 3.5983 4.80253 0
M  V30 82 H 6.0474 3.4616 3.39561 0
M  V30 83 N 7.3905 -1.2043 1.01659 0
M  V30 84 C 8.3405 -2.21076 0.557623 0
M  V30 85 C 9.3245 -1.56176 -0.387029 0
M  V30 86 O 10.5165 -1.7575 -0.209996 0
M  V30 87 C 7.6455 -3.43146 -0.102707 0
M  V30 88 C 6.7315 -4.15213 0.863652 0
M  V30 89 N 7.1225 -4.63662 2.02117 0
M  V30 90 C 5.4205 -4.40716 0.684472 0
M  V30 91 C 6.1215 -5.18868 2.62966 0
M  V30 92 N 5.0975 -5.0893 1.91027 0
M  V30 93 H 8.8995 -2.56201 1.44008 0
M  V30 94 H 6.4135 -1.36366 0.881931 0
M  V30 95 H 8.4105 -4.14475 -0.449054 0
M  V30 96 H 7.0705 -3.09526 -0.981003 0
M  V30 97 H 8.0815 -4.58877 2.40109 0
M  V30 98 H 4.7585 -4.17245 -0.14577 0
M  V30 99 H 6.1485 -5.6673 3.60924 0
M  V30 100 N 8.8686 -0.792821 -1.36206 0
M  V30 101 C 10.0966 -0.378825 -2.03402 0
M  V30 102 C 10.5116 1.00586 -1.59774 0
M  V30 103 O 9.8686 1.64574 -0.788764 0
M  V30 104 C 9.9196 -0.43683 -3.58851 0
M  V30 105 O 9.6406 -1.76691 -4.00889 0
M  V30 106 C 11.1416 -0.0138943 -4.43298 0
M  V30 107 H 8.3616 -0.155673 -0.652692 0
M  V30 108 H 10.9056 -1.07261 -1.74113 0
M  V30 109 H 9.0606 0.208575 -3.86838 0
M  V30 110 H 9.4746 -1.72011 -4.95492 0
M  V30 111 H 10.9486 -0.105615 -5.51899 0
M  V30 112 H 11.4256 1.03915 -4.2673 0
M  V30 113 H 12.0316 -0.63192 -4.20579 0
M  V30 114 N 10.3467 1.47872 -0.545128 0
M  V30 115 C 11.2937 2.29849 0.2093 0
M  V30 116 C 12.2637 1.38313 0.919707 0
M  V30 117 O 13.4487 1.67277 0.917772 0
M  V30 118 C 10.5887 3.22019 1.24088 0
M  V30 119 C 9.7017 4.2864 0.537778 0
M  V30 120 C 8.8367 5.07973 1.5536 0
M  V30 121 C 7.8757 6.06381 0.8348 0
M  V30 122 N 7.0127 6.78717 1.79688 0
M  V30 123 H 11.8527 2.93845 -0.49591 0
M  V30 124 H 9.3897 1.44848 -0.256389 0
M  V30 125 H 11.3477 3.73868 1.85144 0
M  V30 126 H 9.9777 2.59914 1.91428 0
M  V30 127 H 9.0297 3.7994 -0.187046 0
M  V30 128 H 10.3417 4.98793 -0.0258907 0
M  V30 129 H 9.4957 5.63912 2.23803 0
M  V30 130 H 8.2347 4.37693 2.15118 0
M  V30 131 H 7.2397 5.49631 0.136388 0
M  V30 132 H 8.4647 6.78665 0.24313 0
M  V30 133 H 6.4107 6.11177 2.38326 0
M  V30 134 H 6.3277 7.44998 1.28505 0
M  V30 135 H 7.5957 7.39237 2.47282 0
M  V30 136 N 11.8248 0.280983 1.55075 0
M  V30 137 C 12.7878 -0.590896 2.21452 0
M  V30 138 C 13.7878 -1.07682 1.19421 0
M  V30 139 O 14.9778 -0.97605 1.44288 0
M  V30 140 C 12.1098 -1.81587 2.88511 0
M  V30 141 H 13.3028 -0.0112554 2.99898 0
M  V30 142 H 10.8558 0.0316438 1.56268 0
M  V30 143 H 11.5908 -2.43587 2.14093 0
M  V30 144 H 11.3758 -1.4753 3.63287 0
M  V30 145 H 12.8658 -2.43575 3.39206 0
M  V30 146 N 13.3029 -1.57598 0.00835791 0
M  V30 147 C 14.5279 -1.95617 -0.689103 0
M  V30 148 C 14.9529 -0.883753 -1.66046 0
M  V30 149 O 14.3109 0.157352 -1.80616 0
M  V30 150 C 14.3589 -3.32736 -1.38994 0
M  V30 151 O 13.4629 -3.27631 -2.50463 0
M  V30 152 H 12.8039 -0.638379 -0.182668 0
M  V30 153 H 15.3339 -2.045 0.064036 0
M  V30 154 H 15.3439 -3.68494 -1.75147 0
M  V30 155 H 14.0189 -4.1034 -0.677778 0
M  V30 156 H 12.5959 -3.03561 -2.16576 0
M  V30 157 N 14.781 0.264519 -1.55364 0
M  V30 158 C 16.029 0.993021 -1.76021 0
M  V30 159 C 16.35 1.86511 -0.569099 0
M  V30 160 O 15.62 1.91438 0.415735 0
M  V30 161 H 14.2 0.369639 -0.649135 0
M  V30 162 H 16.862 0.286707 -1.9278 0
M  V30 163 H 15.958 1.62502 -2.66457 0
M  V30 164 N 16.2591 1.48442 0.529413 0
M  V30 165 C 17.1921 1.57577 1.65059 0
M  V30 166 C 18.1701 0.426198 1.56915 0
M  V30 167 O 19.3541 0.637877 1.77379 0
M  V30 168 C 16.4811 1.5043 3.03461 0
M  V30 169 C 15.5271 2.70235 3.29962 0
M  V30 170 S 16.3601 4.32198 3.16172 0
M  V30 171 C 17.5161 4.2765 4.57019 0
M  V30 172 H 17.7491 2.52427 1.5706 0
M  V30 173 H 15.2821 1.36982 0.712417 0
M  V30 174 H 17.2401 1.46992 3.8328 0
M  V30 175 H 15.9011 0.569167 3.089 0
M  V30 176 H 15.0941 2.61374 4.30929 0
M  V30 177 H 14.6961 2.70938 2.57815 0
M  V30 178 H 16.9881 3.97618 5.48549 0
M  V30 179 H 17.9311 5.28797 4.70934 0
M  V30 180 H 18.3391 3.5811 4.36368 0
M  V30 181 N 17.7372 -0.778329 1.37039 0
M  V30 182 C 18.7002 -1.87301 1.32102 0
M  V30 183 C 19.7002 -1.59198 0.226405 0
M  V30 184 O 20.8902 -1.67403 0.481861 0
M  V30 185 C 18.0222 -3.24309 1.05055 0
M  V30 186 H 19.2152 -1.93093 2.29467 0
M  V30 187 H 16.7682 -0.977358 1.21973 0
M  V30 188 H 17.5032 -3.24196 0.0819373 0
M  V30 189 H 17.2882 -3.46098 1.84279 0
M  V30 190 H 18.7782 -4.04382 1.04234 0
M  V30 191 N 19.2153 -1.21501 -1.00376 0
M  V30 192 C 20.1453 -0.999478 -2.11028 0
M  V30 193 C 21.1263 0.0759671 -1.6993 0
M  V30 194 O 22.3113 -0.0841106 -1.94018 0
M  V30 195 C 19.4413 -0.564709 -3.42678 0
M  V30 196 C 18.3953 -1.58486 -3.97576 0
M  V30 197 C 17.7213 -1.00628 -5.25146 0
M  V30 198 C 19.0213 -2.97204 -4.29496 0
M  V30 199 H 20.7153 -1.92495 -2.29317 0
M  V30 200 H 18.2613 -0.92693 -1.102 0
M  V30 201 H 20.2143 -0.401091 -4.19487 0
M  V30 202 H 18.9383 0.396411 -3.24185 0
M  V30 203 H 17.5973 -1.73606 -3.22888 0
M  V30 204 H 17.2453 -0.0368439 -5.02987 0
M  V30 205 H 16.9453 -1.68771 -5.62841 0
M  V30 206 H 18.4693 -0.854015 -6.04598 0
M  V30 207 H 19.8833 -2.8552 -4.97143 0
M  V30 208 H 18.2803 -3.62372 -4.78338 0
M  V30 209 H 19.3503 -3.47956 -3.3772 0
M  V30 210 N 20.6934 1.19889 -1.02296 0
M  V30 211 C 21.6234 2.25141 -0.619174 0
M  V30 212 C 22.6044 1.66051 0.368915 0
M  V30 213 O 23.7894 1.92546 0.252941 0
M  V30 214 C 20.9194 3.4728 0.0368783 0
M  V30 215 C 19.8734 4.19005 -0.872865 0
M  V30 216 C 19.1994 5.34637 -0.0822402 0
M  V30 217 C 20.4994 4.74452 -2.18387 0
M  V30 218 H 22.1934 2.59171 -1.49903 0
M  V30 219 H 19.7394 1.24579 -0.722222 0
M  V30 220 H 21.6924 4.20098 0.330958 0
M  V30 221 H 20.4164 3.12433 0.95149 0
M  V30 222 H 19.0754 3.48061 -1.15105 0
M  V30 223 H 18.7234 4.96034 0.83422 0
M  V30 224 H 18.4234 5.83557 -0.688149 0
M  V30 225 H 19.9474 6.10255 0.205238 0
M  V30 226 H 21.3614 5.39055 -1.95172 0
M  V30 227 H 19.7584 5.33834 -2.74119 0
M  V30 228 H 20.8284 3.92844 -2.84257 0
M  V30 229 N 22.1715 0.800033 1.35784 0
M  V30 230 C 23.1215 0.178654 2.27299 0
M  V30 231 C 24.1055 -0.643667 1.47464 0
M  V30 232 O 25.2975 -0.502 1.69732 0
M  V30 233 C 22.4265 -0.677194 3.36555 0
M  V30 234 C 21.5125 0.154497 4.23818 0
M  V30 235 N 21.9035 1.21427 4.91008 0
M  V30 236 C 20.2015 -0.0649462 4.45953 0
M  V30 237 C 20.9025 1.72147 5.55644 0
M  V30 238 N 19.8785 1.02897 5.33773 0
M  V30 239 H 23.6805 0.989637 2.76737 0
M  V30 240 H 21.1945 0.64054 1.49234 0
M  V30 241 H 23.1915 -1.13835 4.01058 0
M  V30 242 H 21.8515 -1.4866 2.8867 0
M  V30 243 H 22.8625 1.59684 4.92668 0
M  V30 244 H 19.5395 -0.844016 4.0888 0
M  V30 245 H 20.9295 2.60683 6.19269 0
M  V30 246 N 23.6496 -1.47581 0.552962 0
M  V30 247 C 24.5816 -2.27997 -0.234533 0
M  V30 248 C 25.5946 -1.36753 -0.883321 0
M  V30 249 O 26.7836 -1.61612 -0.757889 0
M  V30 250 C 23.8836 -3.10879 -1.34935 0
M  V30 251 C 23.0566 -4.30056 -0.798158 0
M  V30 252 C 22.1156 -4.94567 -1.79694 0
M  V30 253 O 21.1416 -5.53087 -1.34474 0
M  V30 254 N 22.3436 -4.88878 -3.13015 0
M  V30 255 H 25.1086 -2.96222 0.455255 0
M  V30 256 H 22.6696 -1.57163 0.388761 0
M  V30 257 H 24.6616 -3.50903 -2.01616 0
M  V30 258 H 23.2316 -2.44924 -1.94244 0
M  V30 259 H 22.4516 -3.94174 0.0453079 0
M  V30 260 H 23.7396 -5.07152 -0.409173 0
M  V30 261 H 23.1376 -4.42526 -3.52402 0
M  V30 262 H 21.6946 -5.32934 -3.75266 0
M  V30 263 N 25.1277 -0.289203 -1.54924 0
M  V30 264 C 26.3767 0.324231 -1.99077 0
M  V30 265 C 26.6897 1.5591 -1.18117 0
M  V30 266 O 27.8957 2.24637 -1.52481 0
M  V30 267 C 26.3517 0.628209 -3.54375 0
M  V30 268 C 25.9597 -0.587647 -4.44129 0
M  V30 269 C 27.7037 1.20349 -4.07083 0
M  V30 270 C 25.6107 -0.257475 -5.90839 0
M  V30 271 H 24.5407 0.124924 -0.743579 0
M  V30 272 H 27.1917 -0.396063 -1.79175 0
M  V30 273 H 25.5737 1.40778 -3.70132 0
M  V30 274 H 26.7477 -1.36418 -4.40144 0
M  V30 275 H 25.0627 -1.08074 -4.0213 0
M  V30 276 H 27.6597 1.46456 -5.14252 0
M  V30 277 H 28.0027 2.14195 -3.56968 0
M  V30 278 H 28.5357 0.485889 -3.94821 0
M  V30 279 H 25.2747 -1.16419 -6.45079 0
M  V30 280 H 24.7947 0.482018 -5.9786 0
M  V30 281 H 26.4737 0.145238 -6.46837 0
M  V30 282 N 26.6058 1.57591 -0.0167156 0
M  V30 283 C 27.5378 2.06343 0.997753 0
M  V30 284 C 28.5508 0.984469 1.29661 0
M  V30 285 O 29.7398 1.26093 1.26344 0
M  V30 286 C 26.8398 2.46255 2.32834 0
M  V30 287 C 26.0128 3.77083 2.21646 0
M  V30 288 C 25.0718 4.0368 3.37534 0
M  V30 289 O 24.0978 4.7411 3.14973 0
M  V30 290 N 25.2998 3.52881 4.60929 0
M  V30 291 H 28.0648 2.93997 0.581875 0
M  V30 292 H 25.6258 1.61002 0.170316 0
M  V30 293 H 27.6178 2.61149 3.09166 0
M  V30 294 H 26.1878 1.64032 2.66106 0
M  V30 295 H 25.4078 3.72106 1.30119 0
M  V30 296 H 26.6958 4.62822 2.11361 0
M  V30 297 H 26.0938 2.95878 4.82154 0
M  V30 298 H 24.6508 3.73076 5.34469 0
M  V30 299 N 28.0839 -0.256276 1.55502 0
M  V30 300 C 29.3319 -0.983672 1.76545 0
M  V30 301 C 29.6529 -1.86206 0.578982 0
M  V30 302 O 28.9229 -1.91656 -0.405577 0
M  V30 303 H 27.5029 -0.366191 0.651086 0
M  V30 304 H 30.1649 -0.276479 1.92929 0
M  V30 305 H 29.2609 -1.61087 2.67315 0
M  V30 306 N 29.562 -1.4872 -0.521534 0
M  V30 307 C 30.51 -1.64328 -1.64618 0
M  V30 308 C 31.504 -0.50953 -1.61555 0
M  V30 309 O 32.71 -0.688525 -1.66311 0
M  V30 310 H 29.085 -0.517805 -0.545328 0
M  V30 311 H 31.056 -2.58767 -1.48601 0
M  V30 312 C 29.805 -1.70805 -3.02855 0
M  V30 313 H 29.128 -2.5741 -3.05909 0
M  V30 314 H 30.568 -1.85766 -3.81139 0
M  V30 315 C 29.027 -0.448479 -3.33902 0
M  V30 316 O 29.557 0.434928 -3.99339 0
M  V30 317 N 27.763 -0.317616 -2.88859 0
M  V30 318 H 27.31 -1.03748 -2.35784 0
M  V30 319 H 27.268 0.524113 -3.10001 0
M  V30 320 N 31.0401 0.771051 -1.3745 0
M  V30 321 C 31.9501 1.91538 -1.35464 0
M  V30 322 C 32.9661 1.72134 -0.254123 0
M  V30 323 O 34.1421 1.95358 -0.489626 0
M  V30 324 C 31.2071 3.26671 -1.16134 0
M  V30 325 C 30.2681 3.58723 -2.35831 0
M  V30 326 C 29.5011 4.87409 -2.17413 0
M  V30 327 O 29.7241 5.58506 -1.15876 0
M  V30 328 O 28.6581 5.18539 -3.05615 0
M  V30 329 H 32.4841 1.96165 -2.31847 0
M  V30 330 H 30.0691 0.9139 -1.18187 0
M  V30 331 H 31.9511 4.07499 -1.07345 0
M  V30 332 H 30.6261 3.22894 -0.228251 0
M  V30 333 H 29.5331 2.78127 -2.50192 0
M  V30 334 H 30.8661 3.67243 -3.27709 0
M  V30 335 N 32.5182 1.22032 0.997298 0
M  V30 336 C 33.4482 1.01065 2.10495 0
M  V30 337 C 34.4292 -0.0669542 1.69968 0
M  V30 338 O 35.6142 0.0943987 1.9397 0
M  V30 339 C 32.7442 0.582874 3.42374 0
M  V30 340 C 31.6982 1.60592 3.96729 0
M  V30 341 C 31.0242 1.03412 5.24605 0
M  V30 342 C 32.3242 2.99478 4.27914 0
M  V30 343 H 34.0182 1.93708 2.28292 0
M  V30 344 H 31.5642 0.932761 1.09707 0
M  V30 345 H 33.5172 0.423332 4.19268 0
M  V30 346 H 32.2412 -0.379213 3.24391 0
M  V30 347 H 30.9002 1.75316 3.21963 0
M  V30 348 H 30.5482 0.063518 5.0296 0
M  V30 349 H 30.2482 1.71754 5.61938 0
M  V30 350 H 31.7722 0.886066 6.04137 0
M  V30 351 H 33.1862 2.88153 4.95622 0
M  V30 352 H 31.5832 3.64903 4.76409 0
M  V30 353 H 32.6532 3.49742 3.3587 0
M  V30 354 N 33.9963 -1.19345 1.0293 0
M  V30 355 C 34.9063 -2.26245 0.620515 0
M  V30 356 C 35.9223 -1.70486 -0.347928 0
M  V30 357 O 37.0983 -2.00347 -0.205704 0
M  V30 358 C 34.1633 -3.46693 -0.0218957 0
M  V30 359 C 33.2243 -4.17632 0.994102 0
M  V30 360 C 32.4573 -5.32329 0.382253 0
M  V30 361 O 32.6803 -5.64552 -0.814676 0
M  V30 362 O 31.6143 -5.91664 1.10531 0
M  V30 363 H 35.4403 -2.63453 1.51083 0
M  V30 364 H 33.0253 -1.26207 0.799513 0
M  V30 365 H 34.9073 -4.19683 -0.380072 0
M  V30 366 H 33.5823 -3.11333 -0.886209 0
M  V30 367 H 32.4893 -3.4676 1.40387 0
M  V30 368 H 33.8223 -4.56964 1.8288 0
M  V30 369 N 35.4744 -0.807222 -1.35358 0
M  V30 370 C 36.8854 -0.44876 -1.81226 0
M  V30 371 C 37.2364 1.02929 -1.67033 0
M  V30 372 O 36.3614 1.79991 -1.20133 0
M  V30 373 C 36.9564 -0.807774 -3.2903 0
M  V30 374 C 35.5154 -0.501901 -3.73039 0
M  V30 375 C 34.6624 -1.03304 -2.57339 0
M  V30 376 H 37.6134 -0.998808 -1.23327 0
M  V30 377 H 37.6344 -0.10554 -3.80354 0
M  V30 378 H 37.1464 -1.88357 -3.39328 0
M  V30 379 H 35.2474 0.565128 -3.68289 0
M  V30 380 H 35.3604 -1.03497 -4.67787 0
M  V30 381 H 33.7244 -0.455339 -2.50597 0
M  V30 382 H 34.5074 -2.11496 -2.70415 0
M  V30 383 N 36.9525 1.47285 -0.560781 0
M  V30 384 C 37.8825 2.32857 0.173105 0
M  V30 385 C 38.8635 1.44009 0.905281 0
M  V30 386 O 40.0485 1.7286 0.885046 0
M  V30 387 C 37.1785 3.25861 1.20133 0
M  V30 388 C 36.1325 4.23978 0.585388 0
M  V30 389 C 35.4585 5.06332 1.7185 0
M  V30 390 C 36.7585 5.20242 -0.463178 0
M  V30 391 H 38.4525 2.94466 -0.541307 0
M  V30 392 H 35.9985 1.41601 -0.261764 0
M  V30 393 H 37.9515 3.84569 1.72293 0
M  V30 394 H 36.6755 2.62315 1.94573 0
M  V30 395 H 35.3345 3.66501 0.085054 0
M  V30 396 H 34.9825 4.39186 2.45203 0
M  V30 397 H 34.6825 5.72762 1.31213 0
M  V30 398 H 36.2065 5.67899 2.24329 0
M  V30 399 H 37.6205 5.73293 -0.027502 0
M  V30 400 H 36.0175 5.94896 -0.788627 0
M  V30 401 H 37.0875 4.65504 -1.35773 0
M  V30 402 N 38.4306 0.297415 1.54768 0
M  V30 403 C 39.3786 -0.596051 2.24833 0
M  V30 404 C 40.3726 -1.13992 1.25308 0
M  V30 405 O 41.5786 -1.09098 1.4317 0
M  V30 406 H 37.9536 -0.210814 0.721846 0
M  V30 407 H 39.9246 0.0174667 2.98395 0
M  V30 408 C 38.6736 -1.75818 2.99972 0
M  V30 409 H 37.9966 -1.3489 3.76357 0
M  V30 410 H 39.4366 -2.35949 3.52284 0
M  V30 411 C 37.8956 -2.66014 2.06732 0
M  V30 412 O 38.4256 -3.67009 1.63302 0
M  V30 413 N 36.6316 -2.33669 1.72763 0
M  V30 414 H 36.1786 -1.51586 2.08277 0
M  V30 415 H 36.1366 -2.94285 1.10652 0
M  V30 416 N 39.9087 -1.5758 0.0250728 0
M  V30 417 C 41.3247 -1.56124 -0.331282 0
M  V30 418 C 41.5247 -1.03029 -1.73169 0
M  V30 419 O 40.5807 -0.675215 -2.43305 0
M  V30 420 C 41.8937 -3.00139 -0.183584 0
M  V30 421 C 43.4417 -3.11946 -0.256654 0
M  V30 422 C 43.9167 -4.57793 -0.137792 0
M  V30 423 N 45.4077 -4.6279 -0.194904 0
M  V30 424 C 46.1427 -5.7326 -0.126655 0
M  V30 425 N 45.6387 -6.928 -0.00755288 0
M  V30 426 N 47.4317 -5.61811 -0.180348 0
M  V30 427 H 39.5827 -1.90424 0.94087 0
M  V30 428 H 41.8457 -0.875761 0.362968 0
M  V30 429 H 41.5517 -3.4292 0.780927 0
M  V30 430 H 41.4257 -3.64899 -0.955448 0
M  V30 431 H 43.8127 -2.69079 -1.21162 0
M  V30 432 H 43.8937 -2.49915 0.545517 0
M  V30 433 H 43.5377 -5.01339 0.813739 0
M  V30 434 H 43.4677 -5.17798 -0.958775 0
M  V30 435 H 45.9587 -3.76807 -0.287267 0
M  V30 436 H 46.2717 -7.72791 0.0379428 0
M  V30 437 H 44.6167 -6.94995 0.0271731 0
M  V30 438 H 47.8077 -4.6731 -0.271767 0
M  V30 439 H 47.9807 -6.47882 -0.123697 0
M  V30 440 N 41.3868 0.248026 -1.55636 0
M  V30 441 C 42.7978 0.817177 -1.67866 0
M  V30 442 C 43.1488 1.86069 -0.622322 0
M  V30 443 O 42.2738 2.15157 0.231618 0
M  V30 444 C 42.8688 1.489 -3.04326 0
M  V30 445 C 41.4278 2.00587 -3.185 0
M  V30 446 C 40.5748 0.856573 -2.63739 0
M  V30 447 H 43.5258 0.0238579 -1.58682 0
M  V30 448 H 43.5468 2.35698 -2.98708 0
M  V30 449 H 43.0588 0.729279 -3.81186 0
M  V30 450 H 41.1598 2.79443 -2.4646 0
M  V30 451 H 41.2728 2.20402 -4.25393 0
M  V30 452 H 39.6368 1.25678 -2.21534 0
M  V30 453 H 40.4198 0.109953 -3.43124 0
M  V30 454 N 42.8649 1.48995 0.513639 0
M  V30 455 C 43.7969 1.60836 1.63293 0
M  V30 456 C 44.8099 0.491701 1.55197 0
M  V30 457 O 45.9989 0.763238 1.6136 0
M  V30 458 C 43.0989 1.53731 3.02027 0
M  V30 459 C 42.2719 2.80715 3.35437 0
M  V30 460 C 41.3309 2.66837 4.53525 0
M  V30 461 O 40.3569 3.40753 4.55934 0
M  V30 462 N 41.5589 1.77539 5.52684 0
M  V30 463 H 44.3239 2.57366 1.53566 0
M  V30 464 H 41.8849 1.45925 0.701259 0
M  V30 465 H 43.8769 1.42118 3.78926 0
M  V30 466 H 42.4469 0.651092 3.05744 0
M  V30 467 H 41.6669 3.06772 2.47557 0
M  V30 468 H 42.9549 3.64927 3.54551 0
M  V30 469 H 42.3529 1.16719 5.53528 0
M  V30 470 H 40.9099 1.71856 6.28736 0
M  V30 471 N 44.343 -0.763751 1.37857 0
M  V30 472 C 45.273 -1.89103 1.36975 0
M  V30 473 C 46.254 -1.68439 0.237152 0
M  V30 474 O 47.439 -1.8918 0.438713 0
M  V30 475 C 44.569 -3.26496 1.18395 0
M  V30 476 C 43.523 -3.61741 2.28751 0
M  V30 477 C 42.849 -4.97762 1.95286 0
M  V30 478 C 44.149 -3.67665 3.70972 0
M  V30 479 H 45.843 -1.90099 2.31307 0
M  V30 480 H 43.389 -0.91319 1.11341 0
M  V30 481 H 45.342 -4.05003 1.16406 0
M  V30 482 H 44.066 -3.25955 0.205215 0
M  V30 483 H 42.725 -2.85547 2.29909 0
M  V30 484 H 42.373 -4.93769 0.959221 0
M  V30 485 H 42.073 -5.22313 2.69189 0
M  V30 486 H 43.597 -5.7866 1.94898 0
M  V30 487 H 45.011 -4.36307 3.719 0
M  V30 488 H 43.408 -4.03718 4.43995 0
M  V30 489 H 44.478 -2.68134 4.0402 0
M  V30 490 N 45.8211 -1.22559 -0.990812 0
M  V30 491 C 46.7681 -0.997519 -2.0813 0
M  V30 492 C 47.7381 0.0814702 -1.659 0
M  V30 493 O 48.9231 -0.0685424 -1.90677 0
M  V30 494 C 46.0631 -0.583615 -3.40129 0
M  V30 495 C 45.1761 -1.7336 -3.9569 0
M  V30 496 C 44.3111 -1.26748 -5.15857 0
M  V30 497 C 43.3501 -2.38888 -5.63559 0
M  V30 498 N 42.4871 -1.93308 -6.74964 0
M  V30 499 H 47.3271 -1.93099 -2.26973 0
M  V30 500 H 44.8641 -0.962114 -1.11273 0
M  V30 501 H 46.8221 -0.324801 -4.15934 0
M  V30 502 H 45.4521 0.312845 -3.2128 0
M  V30 503 H 44.5041 -2.10669 -3.16738 0
M  V30 504 H 45.8161 -2.57704 -4.27071 0
M  V30 505 H 44.9701 -0.966173 -5.98957 0
M  V30 506 H 43.7091 -0.394272 -4.86104 0
M  V30 507 H 42.7141 -2.69805 -4.79046 0
M  V30 508 H 43.9391 -3.26728 -5.95336 0
M  V30 509 H 41.8851 -1.08352 -6.4699 0
M  V30 510 H 41.8021 -2.71217 -7.05675 0
M  V30 511 H 43.0701 -1.66252 -7.61564 0
M  V30 512 N 47.2992 1.18797 -1.03562 0
M  V30 513 C 48.5482 1.87978 -0.731235 0
M  V30 514 C 48.8612 1.80911 0.743671 0
M  V30 515 O 50.0672 2.45407 1.16137 0
M  V30 516 C 48.5232 3.3721 -1.25768 0
M  V30 517 C 48.1312 3.52818 -2.76085 0
M  V30 518 C 49.8752 4.11825 -1.0296 0
M  V30 519 C 47.7822 4.9598 -3.22114 0
M  V30 520 H 46.7122 0.704063 -0.269835 0
M  V30 521 H 49.3632 1.34266 -1.25079 0
M  V30 522 H 47.7452 3.90359 -0.666011 0
M  V30 523 H 48.9192 3.09965 -3.40966 0
M  V30 524 H 47.2342 2.91602 -2.97249 0
M  V30 525 H 49.8312 5.17411 -1.34869 0
M  V30 526 H 50.1742 4.16287 0.0333546 0
M  V30 527 H 50.7072 3.64833 -1.58562 0
M  V30 528 H 47.4462 4.96684 -4.27768 0
M  V30 529 H 46.9662 5.39569 -2.61965 0
M  V30 530 H 48.6452 5.6467 -3.15844 0
M  V30 531 N 48.7773 0.814389 1.34928 0
M  V30 532 C 50.1883 0.458364 1.80986 0
M  V30 533 C 50.5393 -1.02042 1.67577 0
M  V30 534 O 49.6643 -1.79352 1.21086 0
M  V30 535 C 50.2593 0.825212 3.28597 0
M  V30 536 C 48.8183 0.521677 3.72767 0
M  V30 537 C 47.9653 1.04668 2.56788 0
M  V30 538 H 50.9163 1.00533 1.22795 0
M  V30 539 H 50.9373 0.12571 3.80292 0
M  V30 540 H 50.4493 1.90154 3.38324 0
M  V30 541 H 48.5503 -0.545589 3.68584 0
M  V30 542 H 48.6633 1.05977 4.67232 0
M  V30 543 H 47.0273 0.468622 2.50352 0
M  V30 544 H 47.8103 2.12927 2.6929 0
M  V30 545 N 50.2554 -1.46986 0.568584 0
M  V30 546 C 51.1854 -2.32946 -0.160753 0
M  V30 547 C 52.1664 -1.44487 -0.897631 0
M  V30 548 O 53.3514 -1.73327 -0.875867 0
M  V30 549 C 50.4814 -3.26494 -1.18403 0
M  V30 550 C 49.4354 -4.24282 -0.562895 0
M  V30 551 C 48.7614 -5.07236 -1.69163 0
M  V30 552 C 50.0614 -5.19989 0.490761 0
M  V30 553 H 51.7554 -2.94175 0.556916 0
M  V30 554 H 49.3014 -1.4146 0.26927 0
M  V30 555 H 51.2544 -3.85477 -1.70251 0
M  V30 556 H 49.9784 -2.63343 -1.93179 0
M  V30 557 H 48.6374 -3.66541 -0.0656164 0
M  V30 558 H 48.2854 -4.4048 -2.42871 0
M  V30 559 H 47.9854 -5.7345 -1.28174 0
M  V30 560 H 49.5094 -5.6908 -2.21314 0
M  V30 561 H 50.9234 -5.73271 0.0579047 0
M  V30 562 H 49.3204 -5.94469 0.820165 0
M  V30 563 H 50.3904 -4.64777 1.3824 0
M  V30 564 N 51.7335 -0.305618 -1.54608 0
M  V30 565 C 52.6435 0.57778 -2.27374 0
M  V30 566 C 53.6595 1.14451 -1.31061 0
M  V30 567 O 54.8355 1.16831 -1.6405 0
M  V30 568 C 51.9005 1.73123 -3.00382 0
M  V30 569 C 50.9615 1.19812 -4.12242 0
M  V30 570 C 50.1945 2.2966 -4.81759 0
M  V30 571 O 50.4175 3.49651 -4.50666 0
M  V30 572 O 49.3515 1.96091 -5.69062 0
M  V30 573 H 53.1775 -0.012624 -3.03697 0
M  V30 574 H 50.7625 -0.0719184 -1.49227 0
M  V30 575 H 52.6445 2.40315 -3.4616 0
M  V30 576 H 51.3195 2.30815 -2.26949 0
M  V30 577 H 50.2265 0.491798 -3.70853 0
M  V30 578 H 51.5595 0.666566 -4.87666 0
M  V30 579 N 53.2116 1.57565 -0.0334293 0
M  V30 580 C 54.6276 1.56297 0.322997 0
M  V30 581 C 54.8276 1.03945 1.7262 0
M  V30 582 O 53.8836 0.688109 2.42943 0
M  V30 583 C 55.1966 3.00232 0.167664 0
M  V30 584 C 56.7446 3.12078 0.240107 0
M  V30 585 C 57.2196 4.57859 0.113513 0
M  V30 586 N 58.7106 4.62887 0.170359 0
M  V30 587 C 59.4456 5.73319 0.0962517 0
M  V30 588 N 58.9416 6.92794 -0.0291881 0
M  V30 589 N 60.7346 5.61898 0.150551 0
M  V30 590 H 52.8856 1.89923 -0.950956 0
M  V30 591 H 55.1486 0.873824 -0.367608 0
M  V30 592 H 54.8546 3.42501 -0.799102 0
M  V30 593 H 54.7286 3.654 0.936083 0
M  V30 594 H 57.1156 2.69718 1.19733 0
M  V30 595 H 57.1966 2.49623 -0.558763 0
M  V30 596 H 56.8406 5.009 -0.840314 0
M  V30 597 H 56.7706 5.18299 0.931302 0
M  V30 598 H 59.2616 3.76954 0.26728 0
M  V30 599 H 59.5746 7.7276 -0.0789252 0
M  V30 600 H 57.9196 6.94971 -0.0640299 0
M  V30 601 H 61.1106 4.67448 0.246981 0
M  V30 602 H 61.2836 6.47938 0.0893365 0
M  V30 603 N 54.6897 -0.239769 1.55765 0
M  V30 604 C 56.1007 -0.808263 1.68297 0
M  V30 605 C 56.4517 -1.85736 0.632181 0
M  V30 606 O 55.5767 -2.15277 -0.220204 0
M  V30 607 C 56.1717 -1.47284 3.05111 0
M  V30 608 C 54.7307 -1.98895 3.19559 0
M  V30 609 C 53.8777 -0.842575 2.64189 0
M  V30 610 H 56.8287 -0.0154422 1.58692 0
M  V30 611 H 56.8497 -2.34111 2.99954 0
M  V30 612 H 56.3617 -0.709053 3.81568 0
M  V30 613 H 54.4627 -2.78132 2.47938 0
M  V30 614 H 54.5757 -2.18143 4.26556 0
M  V30 615 H 52.9397 -1.24501 2.22197 0
M  V30 616 H 53.7227 -0.0917552 3.43177 0
M  V30 617 N 56.1678 -1.49265 -0.50573 0
M  V30 618 C 57.0978 -1.68495 -1.61653 0
M  V30 619 C 58.0788 -0.53366 -1.61512 0
M  V30 620 O 59.2638 -0.76897 -1.78327 0
M  V30 621 C 56.3938 -1.74709 -3.00157 0
M  V30 622 C 55.3478 -2.89581 -3.15162 0
M  V30 623 C 54.6738 -2.80903 -4.5497 0
M  V30 624 C 55.9738 -4.30578 -2.95634 0
M  V30 625 H 57.6678 -2.61493 -1.45814 0
M  V30 626 H 55.2138 -1.25838 -0.70005 0
M  V30 627 H 57.1668 -1.86748 -3.77761 0
M  V30 628 H 55.8908 -0.783067 -3.17074 0
M  V30 629 H 54.5498 -2.77136 -2.39982 0
M  V30 630 H 54.1978 -1.82419 -4.68756 0
M  V30 631 H 53.8978 -3.57999 -4.65951 0
M  V30 632 H 55.4218 -2.94944 -5.34641 0
M  V30 633 H 56.8358 -4.4373 -3.63011 0
M  V30 634 H 55.2328 -5.0886 -3.18091 0
M  V30 635 H 56.3028 -4.45352 -1.91806 0
M  V30 636 N 57.6459 0.756429 -1.3826 0
M  V30 637 C 58.8939 1.51248 -1.34047 0
M  V30 638 C 59.2149 1.94875 0.0698372 0
M  V30 639 O 58.4849 1.67436 1.01696 0
M  V30 640 H 57.0649 0.561018 -0.493222 0
M  V30 641 H 59.7269 0.899347 -1.7291 0
M  V30 642 H 58.8229 2.40472 -1.98947 0
M  V30 643 N 59.124 1.23083 0.984299 0
M  V30 644 C 60.034 1.02515 2.11016 0
M  V30 645 C 61.05 -0.0291702 1.73976 0
M  V30 646 O 62.226 0.165434 2.00719 0
M  V30 647 C 59.291 0.614673 3.41208 0
M  V30 648 C 58.352 1.74359 3.92297 0
M  V30 649 C 57.585 1.35261 5.16275 0
M  V30 650 O 57.808 0.235136 5.69915 0
M  V30 651 O 56.742 2.17227 5.61334 0
M  V30 652 H 60.568 1.96862 2.31255 0
M  V30 653 H 58.153 1.01753 1.09392 0
M  V30 654 H 60.035 0.396518 4.1953 0
M  V30 655 H 58.71 -0.299851 3.22308 0
M  V30 656 H 57.617 2.01635 3.1511 0
M  V30 657 H 58.95 2.63629 4.15645 0
M  V30 658 N 60.6021 -1.18246 1.0419 0
M  V30 659 C 61.8481 -1.88536 0.747122 0
M  V30 660 C 62.1811 -1.80223 -0.723409 0
M  V30 661 O 61.4561 -1.20337 -1.52804 0
M  V30 662 C 61.7391 -3.38968 1.21544 0
M  V30 663 C 61.5921 -3.56084 2.74816 0
M  V30 664 C 62.9111 -4.32648 0.806482 0
M  V30 665 H 60.0301 -0.684619 0.272883 0
M  V30 666 H 62.6721 -1.39113 1.29413 0
M  V30 667 H 60.8221 -3.8119 0.750081 0
M  V30 668 H 62.4941 -3.22946 3.29399 0
M  V30 669 H 60.7371 -2.98699 3.14582 0
M  V30 670 H 61.4081 -4.61639 3.02644 0
M  V30 671 H 63.8841 -3.98211 1.20695 0
M  V30 672 H 62.7601 -5.36462 1.1619 0
M  V30 673 H 63.0211 -4.41146 -0.29029 0
M  V30 674 N 62.0802 -0.821533 -1.34494 0
M  V30 675 C 63.3102 -0.421272 -2.02259 0
M  V30 676 C 63.7182 0.977047 -1.6202 0
M  V30 677 O 63.0612 1.64348 -0.820703 0
M  V30 678 C 63.1232 -0.44231 -3.56769 0
M  V30 679 C 62.7872 -1.79372 -4.20327 0
M  V30 680 C 63.7842 -2.75435 -4.40944 0
M  V30 681 C 61.4692 -2.08182 -4.57127 0
M  V30 682 C 63.4632 -3.98482 -4.97484 0
M  V30 683 C 61.1502 -3.31489 -5.13379 0
M  V30 684 C 62.1482 -4.26457 -5.33501 0
M  V30 685 O 61.8362 -5.47585 -5.88562 0
M  V30 686 H 61.5682 -0.167473 -0.654927 0
M  V30 687 H 64.1222 -1.11073 -1.72777 0
M  V30 688 H 62.3522 0.303836 -3.85505 0
M  V30 689 H 64.0412 -0.0622925 -4.05852 0
M  V30 690 H 64.8072 -2.54473 -4.12878 0
M  V30 691 H 60.6862 -1.35066 -4.4077 0
M  V30 692 H 64.2302 -4.72618 -5.13106 0
M  V30 693 H 60.1272 -3.52316 -5.40873 0
M  V30 694 H 60.8952 -5.49086 -6.06998 0
M  V30 695 N 63.5583 1.46682 -0.576371 0
M  V30 696 C 64.4883 2.33028 0.148397 0
M  V30 697 C 65.4693 1.44961 0.889956 0
M  V30 698 O 66.6543 1.73789 0.866662 0
M  V30 699 C 63.7843 3.27117 1.1667 0
M  V30 700 C 62.7383 4.24575 0.540386 0
M  V30 701 C 62.0643 5.08126 1.6647 0
M  V30 702 C 63.3643 5.19722 -0.518331 0
M  V30 703 H 65.0583 2.93875 -0.572509 0
M  V30 704 H 62.6043 1.41315 -0.276768 0
M  V30 705 H 64.5573 3.86374 1.68204 0
M  V30 706 H 63.2813 2.64364 1.9178 0
M  V30 707 H 61.9403 3.66571 0.0461769 0
M  V30 708 H 61.5883 4.41762 2.40531 0
M  V30 709 H 61.2883 5.74122 1.25131 0
M  V30 710 H 62.8123 5.70246 2.18293 0
M  V30 711 H 64.2263 5.73232 -0.0883058 0
M  V30 712 H 62.6233 5.94026 -0.851679 0
M  V30 713 H 63.6933 4.64037 -1.40703 0
M  V30 714 N 65.0364 0.313813 1.54444 0
M  V30 715 C 66.3134 -0.345447 1.92525 0
M  V30 716 C 66.6934 -1.70667 1.24242 0
M  V30 717 O 66.0414 -2.25273 0.382654 0
M  V30 718 C 66.2514 -0.44737 3.46121 0
M  V30 719 C 67.5994 -0.712238 4.18584 0
M  V30 720 O 68.6234 -0.530678 3.52225 0
M  V30 721 O 67.4824 -1.06183 5.36085 0
M  V30 722 H 64.5764 -0.195407 0.803583 0
M  V30 723 H 67.1224 0.362813 1.65776 0
M  V30 724 H 65.8944 0.509043 3.87975 0
M  V30 725 H 65.5174 -1.20359 3.78945 0
M  V30 726 N 66.5145 -1.57545 0.0417849 0
M  V30 727 C 67.7395 -1.97035 -0.647455 0
M  V30 728 C 68.1645 -0.918775 -1.64135 0
M  V30 729 O 67.5225 0.119006 -1.80909 0
M  V30 730 C 67.5705 -3.35609 -1.31905 0
M  V30 731 O 66.6745 -3.3287 -2.43457 0
M  V30 732 H 66.0155 -0.64211 -0.169086 0
M  V30 733 H 68.5455 -2.04318 0.107399 0
M  V30 734 H 68.5555 -3.72126 -1.67291 0
M  V30 735 H 67.2305 -4.11685 -0.590586 0
M  V30 736 H 65.8075 -3.08087 -2.10088 0
M  V30 737 N 67.9926 0.231505 -1.5589 0
M  V30 738 C 69.2176 0.978689 -1.82856 0
M  V30 739 C 69.6426 1.77559 -0.620846 0
M  V30 740 O 69.0006 1.76119 0.430305 0
M  V30 741 C 69.0486 1.87997 -3.07716 0
M  V30 742 O 68.1526 2.97393 -2.85712 0
M  V30 743 H 67.4936 0.277663 -0.603158 0
M  V30 744 H 70.0236 0.24783 -2.03093 0
M  V30 745 H 70.0336 2.2917 -3.37558 0
M  V30 746 H 68.7086 1.29417 -3.95252 0
M  V30 747 H 67.2856 2.60238 -2.67078 0
M  V30 748 N 69.4707 1.49531 0.497807 0
M  V30 749 C 70.4177 1.66436 1.59899 0
M  V30 750 C 71.3877 0.505793 1.58212 0
M  V30 751 O 72.5727 0.733202 1.7615 0
M  V30 752 C 69.7127 1.7399 2.98029 0
M  V30 753 C 68.8257 3.01172 3.09708 0
M  V30 754 C 67.9607 2.99686 4.38591 0
M  V30 755 C 66.9997 4.21434 4.43914 0
M  V30 756 N 66.1367 4.1784 5.64229 0
M  V30 757 H 70.9767 2.60459 1.44793 0
M  V30 758 H 68.5137 1.29137 0.704423 0
M  V30 759 H 70.4717 1.76352 3.78095 0
M  V30 760 H 69.1017 0.834301 3.11832 0
M  V30 761 H 68.1537 3.08408 2.22685 0
M  V30 762 H 69.4657 3.91165 3.09502 0
M  V30 763 H 68.6197 3.00628 5.2698 0
M  V30 764 H 67.3587 2.07477 4.41367 0
M  V30 765 H 66.3637 4.20733 3.53926 0
M  V30 766 H 67.5887 5.14839 4.42851 0
M  V30 767 H 65.5347 3.28469 5.67841 0
M  V30 768 H 65.4517 5.01571 5.65652 0
M  V30 769 H 66.7197 4.22889 6.54817 0
M  V30 770 N 70.9488 -0.749086 1.3866 0
M  V30 771 C 72.3598 -1.32664 1.31366 0
M  V30 772 C 72.7108 -1.96179 -0.028484 0
M  V30 773 O 71.8358 -1.9537 -0.93057 0
M  V30 774 C 72.4308 -2.41219 2.37905 0
M  V30 775 C 70.9898 -2.94684 2.34176 0
M  V30 776 C 70.1368 -1.68108 2.20533 0
M  V30 777 H 73.0878 -0.547628 1.48952 0
M  V30 778 H 73.1088 -3.21268 2.0388 0
M  V30 779 H 72.6208 -1.94962 3.35576 0
M  V30 780 H 70.7218 -3.45258 1.401 0
M  V30 781 H 70.8348 -3.48757 3.2849 0
M  V30 782 H 69.1988 -1.91907 1.67463 0
M  V30 783 H 69.9818 -1.23923 3.20153 0
M  V30 784 N 72.4269 -1.23603 -0.977757 0
M  V30 785 C 73.3899 -1.02069 -2.05218 0
M  V30 786 C 74.3899 0.0184305 -1.60789 0
M  V30 787 O 75.5799 -0.221569 -1.72785 0
M  V30 788 C 72.7119 -0.544926 -3.36517 0
M  V30 789 H 73.9049 -1.9742 -2.25755 0
M  V30 790 H 71.4579 -1.05684 -1.15155 0
M  V30 791 H 72.1929 0.412241 -3.21669 0
M  V30 792 H 71.9779 -1.2948 -3.70105 0
M  V30 793 H 73.4679 -0.414985 -4.15533 0
M  V30 794 N 73.905 1.17692 -1.04816 0
M  V30 795 C 75.151 1.88137 -0.75711 0
M  V30 796 C 75.484 1.80604 0.713841 0
M  V30 797 O 74.759 1.21146 1.52164 0
M  V30 798 C 75.042 3.38318 -1.2334 0
M  V30 799 C 74.895 3.54622 -2.76701 0
M  V30 800 C 76.214 4.32214 -0.829415 0
M  V30 801 H 73.333 0.683163 -0.27651 0
M  V30 802 H 75.975 1.38424 -1.30149 0
M  V30 803 H 74.125 3.80787 -0.770286 0
M  V30 804 H 75.797 3.21194 -3.31107 0
M  V30 805 H 74.04 2.97026 -3.16161 0
M  V30 806 H 74.711 4.60028 -3.05088 0
M  V30 807 H 77.187 3.97565 -1.22805 0
M  V30 808 H 76.063 5.35838 -1.19033 0
M  V30 809 H 76.324 4.41294 0.266891 0
M  V30 810 N 75.3831 0.828654 1.34056 0
M  V30 811 C 76.6131 0.431993 2.02033 0
M  V30 812 C 77.0211 -0.96844 1.62536 0
M  V30 813 O 76.3641 -1.6391 0.829408 0
M  V30 814 C 76.4261 0.461224 3.56529 0
M  V30 815 C 76.0901 1.81599 4.1937 0
M  V30 816 C 77.0871 2.7777 4.39477 0
M  V30 817 C 74.7721 2.10604 4.56017 0
M  V30 818 C 76.7661 4.01115 4.95364 0
M  V30 819 C 74.4531 3.34207 5.11614 0
M  V30 820 C 75.4511 4.2928 5.31232 0
M  V30 821 O 75.1391 5.50699 5.8565 0
M  V30 822 H 74.8711 0.170943 0.654029 0
M  V30 823 H 77.4251 1.11988 1.72185 0
M  V30 824 H 75.6551 -0.283388 3.8566 0
M  V30 825 H 77.3441 0.0838149 4.05813 0
M  V30 826 H 78.1101 2.56659 4.11523 0
M  V30 827 H 73.9891 1.37402 4.40047 0
M  V30 828 H 77.5331 4.75333 5.10592 0
M  V30 829 H 73.4301 3.55179 5.38997 0
M  V30 830 H 74.1981 5.52298 6.04077 0
M  V30 831 N 76.8612 -1.46375 0.584142 0
M  V30 832 C 77.8092 -2.32042 -0.161047 0
M  V30 833 C 78.8032 -1.44569 -0.882966 0
M  V30 834 O 80.0092 -1.61186 -0.801191 0
M  V30 835 H 76.3842 -0.748659 -0.0708033 0
M  V30 836 H 78.3552 -2.92704 0.580269 0
M  V30 837 C 77.1042 -3.27762 -1.1605 0
M  V30 838 H 76.4272 -3.95051 -0.614419 0
M  V30 839 H 77.8672 -3.90481 -1.65228 0
M  V30 840 C 76.3262 -2.53218 -2.22221 0
M  V30 841 O 76.8562 -2.29628 -3.29597 0
M  V30 842 N 75.0622 -2.13756 -1.96868 0
M  V30 843 H 74.6092 -2.33142 -1.09557 0
M  V30 844 H 74.5672 -1.642 -2.68115 0
M  V30 845 N 78.3393 -0.321999 -1.54275 0
M  V30 846 C 79.5693 0.282642 -2.04658 0
M  V30 847 C 79.9773 1.46453 -1.19784 0
M  V30 848 O 79.3203 1.82367 -0.220932 0
M  V30 849 C 79.3823 0.781857 -3.50895 0
M  V30 850 C 79.0463 -0.277517 -4.56157 0
M  V30 851 C 80.0433 -1.11307 -5.07845 0
M  V30 852 C 77.7283 -0.425256 -5.00497 0
M  V30 853 C 79.7223 -2.08211 -6.02434 0
M  V30 854 C 77.4093 -1.39771 -5.94901 0
M  V30 855 C 78.4073 -2.2246 -6.45756 0
M  V30 856 O 78.0953 -3.18054 -7.38307 0
M  V30 857 H 77.8273 0.0622636 -0.673126 0
M  V30 858 H 80.3813 -0.465792 -2.00049 0
M  V30 859 H 78.6113 1.58118 -3.52896 0
M  V30 860 H 80.3003 1.30467 -3.84361 0
M  V30 861 H 81.0663 -1.00991 -4.74369 0
M  V30 862 H 76.9453 0.20847 -4.60528 0
M  V30 863 H 80.4893 -2.72791 -6.42052 0
M  V30 864 H 76.3863 -1.50152 -6.27794 0
M  V30 865 H 77.1543 -3.13275 -7.56175 0
M  V30 866 N 79.8174 1.5752 -0.0501392 0
M  V30 867 C 81.2284 1.80271 0.485705 0
M  V30 868 C 81.5794 0.96228 1.70981 0
M  V30 869 O 80.7044 0.178578 2.15662 0
M  V30 870 C 81.2994 3.26957 0.887938 0
M  V30 871 C 79.8584 3.5063 1.36877 0
M  V30 872 C 79.0054 2.75165 0.343468 0
M  V30 873 H 81.9564 1.56281 -0.276028 0
M  V30 874 H 81.9774 3.37821 1.75093 0
M  V30 875 H 81.4894 3.881 -0.0031809 0
M  V30 876 H 79.5904 2.94766 2.27911 0
M  V30 877 H 79.7034 4.59343 1.36164 0
M  V30 878 H 78.0674 2.4127 0.816128 0
M  V30 879 H 78.8504 3.39034 -0.539548 0
M  V30 880 N 81.2955 -0.223234 1.56011 0
M  V30 881 C 82.2055 -1.29766 1.95443 0
M  V30 882 C 83.2215 -1.51373 0.858028 0
M  V30 883 O 84.3975 -1.64536 1.16146 0
M  V30 884 C 81.4625 -2.62772 2.26167 0
M  V30 885 C 80.5235 -2.49482 3.49367 0
M  V30 886 C 79.7565 -3.76145 3.78616 0
M  V30 887 O 79.9795 -4.79087 3.09568 0
M  V30 888 O 78.9135 -3.73358 4.72109 0
M  V30 889 H 82.7395 -0.99309 2.87004 0
M  V30 890 H 80.3245 -0.425958 1.43199 0
M  V30 891 H 82.2065 -3.41327 2.47131 0
M  V30 892 H 80.8815 -2.92913 1.37781 0
M  V30 893 H 79.7885 -1.69133 3.33684 0
M  V30 894 H 81.1215 -2.2428 4.38131 0
M  V30 895 N 82.7736 -1.49793 -0.48987 0
M  V30 896 C 84.0216 -1.59525 -1.24081 0
M  V30 897 C 84.3426 -0.288953 -1.92847 0
M  V30 898 O 83.6126 0.692436 -1.83254 0
M  V30 899 H 82.1926 -0.587796 -0.460983 0
M  V30 900 H 84.8546 -1.86477 -0.566778 0
M  V30 901 H 83.9506 -2.39696 -1.99881 0
M  V30 902 N 84.2517 0.741722 -1.39055 0
M  V30 903 C 85.2147 1.83733 -1.37021 0
M  V30 904 C 86.2147 1.58542 -0.268534 0
M  V30 905 O 87.4047 1.66067 -0.526076 0
M  V30 906 C 84.5367 3.2141 -1.13617 0
M  V30 907 H 85.7297 1.86941 -2.34506 0
M  V30 908 H 83.2827 0.944676 -1.24521 0
M  V30 909 H 84.0177 3.23865 -0.167863 0
M  V30 910 H 83.8027 3.4109 -1.93391 0
M  V30 911 H 85.2927 4.01477 -1.14918 0
M  V30 912 N 85.7298 1.2412 0.971189 0
M  V30 913 C 86.6928 1.03156 2.04674 0
M  V30 914 C 87.6928 -0.00990322 1.60797 0
M  V30 915 O 88.8828 0.230729 1.72665 0
M  V30 916 C 86.0148 0.562765 3.36223 0
M  V30 917 H 87.2078 1.98614 2.24705 0
M  V30 918 H 84.7608 1.06293 1.14593 0
M  V30 919 H 85.4958 -0.395176 3.21883 0
M  V30 920 H 85.2808 1.31441 3.69413 0
M  V30 921 H 86.7708 0.437015 4.15307 0
M  V30 922 N 87.2079 -1.17134 1.05439 0
M  V30 923 C 88.4379 -1.91094 0.785274 0
M  V30 924 C 88.8459 -1.77198 -0.663142 0
M  V30 925 O 88.1889 -1.10835 -1.46497 0
M  V30 926 C 88.2509 -3.42594 1.08949 0
M  V30 927 C 87.9149 -3.80274 2.53458 0
M  V30 928 C 88.9119 -3.82912 3.51673 0
M  V30 929 C 86.5969 -4.11162 2.88532 0
M  V30 930 C 88.5909 -4.15913 4.83006 0
M  V30 931 C 86.2779 -4.43831 4.20068 0
M  V30 932 C 87.2759 -4.46185 5.17115 0
M  V30 933 O 86.9639 -4.78083 6.46291 0
M  V30 934 H 86.6959 -0.613073 0.284811 0
M  V30 935 H 89.2499 -1.49461 1.40893 0
M  V30 936 H 87.4799 -3.84534 0.408741 0
M  V30 937 H 89.1689 -3.97817 0.805991 0
M  V30 938 H 89.9349 -3.5917 3.25917 0
M  V30 939 H 85.8139 -4.085 2.13656 0
M  V30 940 H 89.3579 -4.17665 5.5875 0
M  V30 941 H 85.2549 -4.67037 4.45586 0
M  V30 942 H 86.0229 -4.9593 6.51149 0
M  V30 943 N 88.686 -0.835752 -1.33615 0
M  V30 944 C 89.596 -0.269088 -2.33052 0
M  V30 945 C 90.612 0.603251 -1.63208 0
M  V30 946 O 91.788 0.508112 -1.94885 0
M  V30 947 C 88.853 0.549091 -3.42324 0
M  V30 948 C 87.914 -0.347156 -4.27894 0
M  V30 949 C 87.147 0.43207 -5.31948 0
M  V30 950 O 87.37 1.66409 -5.45586 0
M  V30 951 O 86.304 -0.192298 -6.01593 0
M  V30 952 H 90.13 -1.09243 -2.83372 0
M  V30 953 H 87.715 -0.598198 -1.36901 0
M  V30 954 H 89.597 1.01414 -4.09015 0
M  V30 955 H 88.272 1.34955 -2.94226 0
M  V30 956 H 87.179 -0.859979 -3.64081 0
M  V30 957 H 88.512 -1.1123 -4.79467 0
M  V30 958 N 90.1641 1.46063 -0.591896 0
M  V30 959 C 91.4111 2.02338 -0.0809991 0
M  V30 960 C 91.7391 1.46228 1.28249 0
M  V30 961 O 90.9941 0.620818 1.85592 0
M  V30 962 C 91.2931 3.57391 0.0249813 0
M  V30 963 C 90.9591 4.32583 -1.27211 0
M  V30 964 C 89.6211 4.52844 -1.62745 0
M  V30 965 C 91.9731 4.75687 -2.13005 0
M  V30 966 C 89.3011 5.13462 -2.83855 0
M  V30 967 C 91.6531 5.37644 -3.3335 0
M  V30 968 C 90.3171 5.5613 -3.69155 0
M  V30 969 H 89.5871 0.740407 -0.0296397 0
M  V30 970 H 92.2341 1.75321 -0.770374 0
M  V30 971 H 90.5391 3.83597 0.797537 0
M  V30 972 H 92.2361 3.98621 0.436184 0
M  V30 973 H 88.8261 4.17116 -0.985499 0
M  V30 974 H 93.0101 4.59782 -1.86855 0
M  V30 975 H 88.2661 5.25965 -3.11722 0
M  V30 976 H 92.4401 5.7 -4.00092 0
M  V30 977 H 90.0671 6.0287 -4.63089 0
M  V30 978 N 91.6422 0.330177 1.54103 0
M  V30 979 C 92.5902 -0.548226 2.26047 0
M  V30 980 C 93.5842 -1.11309 1.27698 0
M  V30 981 O 94.7902 -1.06036 1.45452 0
M  V30 982 H 91.1652 -0.195456 0.726155 0
M  V30 983 H 93.1362 0.0807567 2.98291 0
M  V30 984 C 91.8852 -1.69415 3.03634 0
M  V30 985 H 91.2082 -1.26876 3.79134 0
M  V30 986 H 92.6482 -2.28423 3.5721 0
M  V30 987 C 91.1072 -2.61569 2.12328 0
M  V30 988 O 91.6372 -3.63462 1.7105 0
M  V30 989 N 89.8432 -2.29952 1.77681 0
M  V30 990 H 89.3902 -1.47134 2.11446 0
M  V30 991 H 89.3482 -2.91871 1.16869 0
M  V30 992 N 93.1203 -1.57491 0.0584922 0
M  V30 993 C 94.0833 -2.1085 -0.898617 0
M  V30 994 C 95.0833 -1.02964 -1.23511 0
M  V30 995 O 96.2733 -1.29007 -1.17059 0
M  V30 996 C 93.4053 -2.59881 -2.20623 0
M  V30 997 H 94.5983 -2.96715 -0.435936 0
M  V30 998 H 92.1513 -1.55141 -0.190023 0
M  V30 999 H 92.8863 -1.77431 -2.71457 0
M  V30 1000 H 92.6713 -3.38727 -1.97501 0
M  V30 1001 H 94.1613 -3.01285 -2.89166 0
M  V30 1002 N 94.5984 0.214957 -1.56127 0
M  V30 1003 C 95.5614 1.24997 -1.92116 0
M  V30 1004 C 96.5614 1.39467 -0.800344 0
M  V30 1005 O 97.7514 1.37619 -1.06802 0
M  V30 1006 C 94.8834 2.62271 -2.17777 0
M  V30 1007 H 96.0764 0.942875 -2.84693 0
M  V30 1008 H 93.6294 0.455654 -1.49511 0
M  V30 1009 H 94.3644 2.98068 -1.27773 0
M  V30 1010 H 94.1494 2.53143 -2.99434 0
M  V30 1011 H 95.6394 3.36946 -2.46693 0
M  V30 1012 N 96.0765 1.50051 0.48192 0
M  V30 1013 C 97.0395 1.67584 1.5636 0
M  V30 1014 C 98.0395 0.546894 1.51214 0
M  V30 1015 O 99.2295 0.813725 1.54026 0
M  V30 1016 C 96.3615 1.691 2.96003 0
M  V30 1017 H 97.5545 2.64078 1.42136 0
M  V30 1018 H 95.1075 1.39369 0.707533 0
M  V30 1019 H 95.8425 0.742589 3.15684 0
M  V30 1020 H 95.6275 2.51105 3.01146 0
M  V30 1021 H 97.1175 1.84656 3.74556 0
M  V30 1022 N 97.5546 -0.734337 1.39446 0
M  V30 1023 C 98.5176 -1.83004 1.37994 0
M  V30 1024 C 99.5176 -1.58397 0.276938 0
M  V30 1025 O 100.708 -1.65785 0.534875 0
M  V30 1026 C 97.8396 -3.20802 1.1532 0
M  V30 1027 H 99.0326 -1.85694 2.35494 0
M  V30 1028 H 96.5856 -0.938059 1.25021 0
M  V30 1029 H 97.3206 -3.23772 0.185036 0
M  V30 1030 H 97.1056 -3.4006 1.95197 0
M  V30 1031 H 98.5956 -4.00862 1.17046 0
M  V30 1032 N 99.0327 -1.24633 -0.964593 0
M  V30 1033 C 99.9957 -1.0424 -2.04124 0
M  V30 1034 C 100.996 0.00137563 -1.608 0
M  V30 1035 O 102.186 -0.239883 -1.7254 0
M  V30 1036 C 99.3177 -0.580588 -3.3592 0
M  V30 1037 H 100.511 -1.99803 -2.23649 0
M  V30 1038 H 98.0637 -1.06899 -1.14027 0
M  V30 1039 H 98.7987 0.3781 -3.22088 0
M  V30 1040 H 98.5837 -1.33398 -3.6871 0
M  V30 1041 H 100.074 -0.459034 -4.15069 0
M  V30 1042 N 100.511 1.16574 -1.06058 0
M  V30 1043 C 101.459 2.22941 -0.663343 0
M  V30 1044 C 102.453 1.66358 0.319593 0
M  V30 1045 O 103.659 1.7905 0.184713 0
M  V30 1046 H 100.034 0.725907 -0.196376 0
M  V30 1047 H 102.005 2.53736 -1.57037 0
M  V30 1048 C 100.754 3.47642 -0.0632808 0
M  V30 1049 H 100.077 3.91493 -0.810733 0
M  V30 1050 H 101.517 4.2363 0.177177 0
M  V30 1051 C 99.9758 3.1509 1.19248 0
M  V30 1052 O 100.506 3.30673 2.28075 0
M  V30 1053 N 98.7118 2.6924 1.09353 0
M  V30 1054 H 98.2588 2.5676 0.207912 0
M  V30 1055 H 98.2168 2.47833 1.93458 0
M  V30 1056 N 101.989 0.842826 1.3317 0
M  V30 1057 C 102.952 0.284065 2.27433 0
M  V30 1058 C 103.952 -0.54948 1.5112 0
M  V30 1059 O 105.142 -0.362699 1.70382 0
M  V30 1060 C 102.274 -0.599384 3.35589 0
M  V30 1061 H 103.467 1.11589 2.78366 0
M  V30 1062 H 101.02 0.616221 1.4364 0
M  V30 1063 H 101.755 -1.45349 2.89904 0
M  V30 1064 H 101.54 -0.00291266 3.921 0
M  V30 1065 H 103.03 -0.983488 4.05854 0
M  V30 1066 N 103.467 -1.45747 0.599634 0
M  V30 1067 C 104.399 -2.28628 -0.161879 0
M  V30 1068 C 105.412 -1.39494 -0.839367 0
M  V30 1069 O 106.601 -1.63941 -0.706089 0
M  V30 1070 C 103.701 -3.15014 -1.24976 0
M  V30 1071 C 102.874 -4.32378 -0.660935 0
M  V30 1072 C 101.933 -5.00033 -1.63869 0
M  V30 1073 O 100.959 -5.57085 -1.1681 0
M  V30 1074 N 102.161 -4.98589 -2.97303 0
M  V30 1075 H 104.926 -2.94624 0.549265 0
M  V30 1076 H 102.487 -1.55847 0.438565 0
M  V30 1077 H 104.479 -3.5714 -1.9035 0
M  V30 1078 H 103.049 -2.5098 -1.86354 0
M  V30 1079 H 102.269 -3.9383 0.170688 0
M  V30 1080 H 103.557 -5.08197 -0.247619 0
M  V30 1081 H 102.955 -4.53514 -3.38145 0
M  V30 1082 H 101.512 -5.44603 -3.58121 0
M  V30 1083 N 104.945 -0.338344 -1.53925 0
M  V30 1084 C 106.191 0.260143 -2.01125 0
M  V30 1085 C 106.524 1.50617 -1.22589 0
M  V30 1086 O 105.799 1.91979 -0.312113 0
M  V30 1087 C 106.082 0.579499 -3.55407 0
M  V30 1088 C 105.935 -0.678264 -4.44657 0
M  V30 1089 C 107.254 1.39122 -4.17532 0
M  V30 1090 H 104.373 0.0930772 -0.731099 0
M  V30 1091 H 107.015 -0.457852 -1.84401 0
M  V30 1092 H 105.165 1.19118 -3.69788 0
M  V30 1093 H 106.837 -1.31631 -4.42121 0
M  V30 1094 H 105.08 -1.3042 -4.13731 0
M  V30 1095 H 105.751 -0.410143 -5.50474 0
M  V30 1096 H 108.227 0.874035 -4.06817 0
M  V30 1097 H 107.103 1.58342 -5.25565 0
M  V30 1098 H 107.364 2.39178 -3.71815 0
M  V30 1099 N 106.423 1.57458 -0.0668435 0
M  V30 1100 C 107.653 1.97337 0.611677 0
M  V30 1101 C 108.061 0.943744 1.63982 0
M  V30 1102 O 107.404 -0.0785584 1.83532 0
M  V30 1103 C 107.466 3.33511 1.34205 0
M  V30 1104 C 107.13 4.54598 0.467941 0
M  V30 1105 C 108.127 5.19186 -0.272439 0
M  V30 1106 C 105.812 5.0075 0.39427 0
M  V30 1107 C 107.806 6.28274 -1.07476 0
M  V30 1108 C 105.493 6.09711 -0.411729 0
M  V30 1109 C 106.491 6.73335 -1.14492 0
M  V30 1110 O 106.179 7.80199 -1.93763 0
M  V30 1111 H 105.911 0.654042 0.170893 0
M  V30 1112 H 108.465 2.04961 -0.134289 0
M  V30 1113 H 106.695 3.22487 2.13398 0
M  V30 1114 H 108.384 3.58029 1.91233 0
M  V30 1115 H 109.15 4.84477 -0.225086 0
M  V30 1116 H 105.029 4.51009 0.954569 0
M  V30 1117 H 108.573 6.77866 -1.64755 0
M  V30 1118 H 104.47 6.43854 -0.460664 0
M  V30 1119 H 105.238 7.97053 -1.86142 0
M  V30 1120 N 107.901 -0.206675 1.56239 0
M  V30 1121 C 109.149 -0.927007 1.79586 0
M  V30 1122 C 109.47 -1.8427 0.637929 0
M  V30 1123 O 108.74 -1.92849 -0.344398 0
M  V30 1124 H 107.32 -0.345292 0.662407 0
M  V30 1125 H 109.982 -0.21496 1.93711 0
M  V30 1126 H 109.078 -1.52501 2.72305 0
M  V30 1127 N 109.379 -1.50304 -0.473955 0
M  V30 1128 C 110.311 -1.65109 -1.58971 0
M  V30 1129 C 111.324 -0.532676 -1.53839 0
M  V30 1130 O 112.513 -0.805751 -1.59279 0
M  V30 1131 C 109.613 -1.61684 -2.97845 0
M  V30 1132 C 108.786 -2.8951 -3.27876 0
M  V30 1133 C 107.845 -2.78768 -4.4629 0
M  V30 1134 O 106.871 -3.52722 -4.46739 0
M  V30 1135 N 108.073 -1.9213 -5.47783 0
M  V30 1136 H 110.838 -2.61347 -1.46689 0
M  V30 1137 H 108.399 -1.47732 -0.662324 0
M  V30 1138 H 110.391 -1.52114 -3.75024 0
M  V30 1139 H 108.961 -0.731925 -3.03911 0
M  V30 1140 H 108.181 -3.13228 -2.39336 0
M  V30 1141 H 109.469 -3.74199 -3.4475 0
M  V30 1142 H 108.867 -1.31353 -5.50239 0
M  V30 1143 H 107.424 -1.88466 -6.23958 0
M  V30 1144 N 110.857 0.726932 -1.39834 0
M  V30 1145 C 112.085 1.51613 -1.40787 0
M  V30 1146 C 112.5 1.88799 -0.00451505 0
M  V30 1147 O 111.857 1.54662 0.968809 0
M  V30 1148 C 111.908 2.79863 -2.28821 0
M  V30 1149 O 111.629 2.44253 -3.63692 0
M  V30 1150 C 113.13 3.73837 -2.38245 0
M  V30 1151 H 110.35 0.468264 -0.480593 0
M  V30 1152 H 112.894 0.897607 -1.83748 0
M  V30 1153 H 111.049 3.38027 -1.89252 0
M  V30 1154 H 111.463 3.26695 -4.1033 0
M  V30 1155 H 112.937 4.60699 -3.04073 0
M  V30 1156 H 113.414 4.16153 -1.40403 0
M  V30 1157 H 114.02 3.21589 -2.78317 0
M  V30 1158 N 112.336 1.25143 0.95797 0
M  V30 1159 C 113.584 1.09476 1.69881 0
M  V30 1160 C 113.905 -0.365502 1.91544 0
M  V30 1161 O 113.175 -1.25985 1.50015 0
M  V30 1162 H 111.755 0.402128 0.629525 0
M  V30 1163 H 114.417 1.57214 1.15194 0
M  V30 1164 H 113.513 1.60046 2.6794 0
M  V30 1165 N 113.814 -1.1601 1.06675 0
M  V30 1166 C 114.744 -2.22688 0.702307 0
M  V30 1167 C 115.725 -1.67306 -0.307032 0
M  V30 1168 O 116.91 -1.93352 -0.181305 0
M  V30 1169 C 114.04 -3.47178 0.092038 0
M  V30 1170 C 112.994 -4.15477 1.02777 0
M  V30 1171 C 112.32 -5.33963 0.28061 0
M  V30 1172 C 113.62 -4.66019 2.35846 0
M  V30 1173 H 115.314 -2.53429 1.59419 0
M  V30 1174 H 112.86 -1.21813 0.767961 0
M  V30 1175 H 114.813 -4.21037 -0.174814 0
M  V30 1176 H 113.537 -3.15749 -0.834877 0
M  V30 1177 H 112.196 -3.43549 1.27944 0
M  V30 1178 H 111.844 -4.98788 -0.649545 0
M  V30 1179 H 111.544 -5.806 0.904258 0
M  V30 1180 H 113.068 -6.10596 0.021396 0
M  V30 1181 H 114.482 -5.3144 2.15045 0
M  V30 1182 H 112.879 -5.23293 2.93743 0
M  V30 1183 H 113.949 -3.82023 2.98641 0
M  V30 1184 N 115.292 -0.849877 -1.32721 0
M  V30 1185 C 116.703 -0.506188 -1.79707 0
M  V30 1186 C 117.054 0.975627 -1.70223 0
M  V30 1187 O 116.179 1.76078 -1.25799 0
M  V30 1188 C 116.774 -0.912044 -3.26293 0
M  V30 1189 C 115.333 -0.620326 -3.71253 0
M  V30 1190 C 114.48 -1.11439 -2.53922 0
M  V30 1191 H 117.431 -1.03754 -1.20087 0
M  V30 1192 H 117.452 -0.226493 -3.79825 0
M  V30 1193 H 116.964 -1.99057 -3.33164 0
M  V30 1194 H 115.065 0.447674 -3.69901 0
M  V30 1195 H 115.178 -1.18327 -4.64258 0
M  V30 1196 H 113.542 -0.534834 -2.49021 0
M  V30 1197 H 114.325 -2.19992 -2.6355 0
M  V30 1198 N 116.77 1.45427 -0.607355 0
M  V30 1199 C 118 2.06314 -0.108656 0
M  V30 1200 C 118.408 1.45269 1.21217 0
M  V30 1201 O 117.751 0.561115 1.74921 0
M  V30 1202 C 117.813 3.59345 0.105618 0
M  V30 1203 C 117.477 4.42723 -1.13337 0
M  V30 1204 C 118.474 4.77715 -2.05145 0
M  V30 1205 C 116.159 4.83478 -1.36213 0
M  V30 1206 C 118.153 5.52317 -3.18158 0
M  V30 1207 C 115.84 5.57835 -2.49527 0
M  V30 1208 C 116.838 5.92171 -3.40327 0
M  V30 1209 O 116.526 6.65019 -4.51669 0
M  V30 1210 H 116.258 0.672782 -0.0658842 0
M  V30 1211 H 118.812 1.87664 -0.834945 0
M  V30 1212 H 117.042 3.76394 0.886796 0
M  V30 1213 H 118.731 4.02076 0.555886 0
M  V30 1214 H 119.497 4.46787 -1.88697 0
M  V30 1215 H 115.376 4.56188 -0.664362 0
M  V30 1216 H 118.92 5.79036 -3.89054 0
M  V30 1217 H 114.817 5.88177 -2.65928 0
M  V30 1218 H 115.585 6.83469 -4.50348 0
M  V30 1219 N 118.248 0.346503 1.53744 0
M  V30 1220 C 119.496 -0.248612 2.00565 0
M  V30 1221 C 119.817 -1.5083 1.23593 0
M  V30 1222 O 119.087 -1.92858 0.343912 0
M  V30 1223 H 117.667 -0.0948564 0.740953 0
M  V30 1224 H 120.329 0.468341 1.89189 0
M  V30 1225 H 119.425 -0.488994 3.08245 0
M  V30 1226 N 119.726 -1.57421 0.075193 0
M  V30 1227 C 121.137 -1.81021 -0.456964 0
M  V30 1228 C 121.488 -0.98936 -1.69429 0
M  V30 1229 O 120.613 -0.212865 -2.15351 0
M  V30 1230 C 121.208 -3.28329 -0.83581 0
M  V30 1231 C 119.767 -3.52764 -1.31281 0
M  V30 1232 C 118.914 -2.75676 -0.299648 0
M  V30 1233 H 121.865 -1.55822 0.300856 0
M  V30 1234 H 121.886 -3.40564 -1.69696 0
M  V30 1235 H 121.398 -3.88046 0.0649238 0
M  V30 1236 H 119.499 -2.98355 -2.23193 0
M  V30 1237 H 119.612 -4.61451 -1.28839 0
M  V30 1238 H 117.976 -2.42538 -0.777641 0
M  V30 1239 H 118.759 -3.38132 0.593417 0
M  V30 1240 N 121.204 0.198386 -1.56346 0
M  V30 1241 C 122.452 0.91747 -1.80075 0
M  V30 1242 C 122.773 1.83929 -0.647692 0
M  V30 1243 O 122.043 1.93029 0.334166 0
M  V30 1244 H 120.623 0.341774 -0.664228 0
M  V30 1245 H 123.285 0.204684 -1.93822 0
M  V30 1246 H 122.381 1.51055 -2.7311 0
M  V30 1247 N 122.682 1.50554 0.465978 0
M  V30 1248 C 123.907 1.65838 1.24549 0
M  V30 1249 C 124.332 0.343486 1.84937 0
M  V30 1250 O 123.69 -0.69324 1.67523 0
M  V30 1251 C 123.738 2.75533 2.32624 0
M  V30 1252 O 122.842 2.37142 3.37398 0
M  V30 1253 H 122.183 0.553893 0.366194 0
M  V30 1254 H 124.713 1.96959 0.553927 0
M  V30 1255 H 124.723 2.98763 2.77857 0
M  V30 1256 H 123.398 3.70962 1.88043 0
M  V30 1257 H 121.975 2.24377 2.97841 0
M  V30 1258 N 124.16 -0.719506 1.40217 0
M  V30 1259 C 125.07 -1.86378 1.42479 0
M  V30 1260 C 126.086 -1.71073 0.317834 0
M  V30 1261 O 127.262 -1.93406 0.561794 0
M  V30 1262 C 124.327 -3.22136 1.28178 0
M  V30 1263 C 123.388 -3.49723 2.48982 0
M  V30 1264 C 122.621 -4.79004 2.35353 0
M  V30 1265 O 122.844 -5.53821 1.36524 0
M  V30 1266 O 121.778 -5.06839 3.2465 0
M  V30 1267 H 125.604 -1.87425 2.38968 0
M  V30 1268 H 123.189 -0.869405 1.21498 0
M  V30 1269 H 125.071 -4.03234 1.22395 0
M  V30 1270 H 123.746 -3.21825 0.347934 0
M  V30 1271 H 122.653 -2.6865 2.60342 0
M  V30 1272 H 123.986 -3.54828 3.41113 0
M  V30 1273 N 125.638 -1.25649 -0.95132 0
M  V30 1274 C 126.601 -1.06399 -2.03007 0
M  V30 1275 C 127.601 -0.0156794 -1.60792 0
M  V30 1276 O 128.791 -0.25817 -1.72276 0
M  V30 1277 C 125.923 -0.616184 -3.35285 0
M  V30 1278 H 127.116 -2.02164 -2.21517 0
M  V30 1279 H 124.669 -1.08103 -1.12887 0
M  V30 1280 H 125.404 0.343917 -3.22471 0
M  V30 1281 H 125.189 -1.37301 -3.67275 0
M  V30 1282 H 126.679 -0.503032 -4.14559 0
M  V30 1283 N 127.117 1.15442 -1.07289 0
M  V30 1284 C 128.08 2.18358 -0.696591 0
M  V30 1285 C 129.08 1.58637 0.262837 0
M  V30 1286 O 130.27 1.74145 0.0438809 0
M  V30 1287 C 127.402 3.4089 -0.0266151 0
M  V30 1288 H 128.595 2.53162 -1.60776 0
M  V30 1289 H 126.148 1.29893 -0.869342 0
M  V30 1290 H 126.883 3.11653 0.896822 0
M  V30 1291 H 126.668 3.85495 -0.716657 0
M  V30 1292 H 128.158 4.17009 0.222028 0
M  V30 1293 N 128.595 0.856903 1.32268 0
M  V30 1294 C 129.558 0.308171 2.27119 0
M  V30 1295 C 130.558 -0.533421 1.51695 0
M  V30 1296 O 131.748 -0.344607 1.70757 0
M  V30 1297 C 128.88 -0.563757 3.36206 0
M  V30 1298 H 130.073 1.14535 2.77167 0
M  V30 1299 H 127.626 0.631421 1.42978 0
M  V30 1300 H 128.361 -1.42266 2.91429 0
M  V30 1301 H 128.146 0.0386749 3.92081 0
M  V30 1302 H 129.636 -0.940386 4.06874 0
M  V30 1303 N 130.073 -1.45103 0.615059 0
M  V30 1304 C 131.32 -2.02183 0.113179 0
M  V30 1305 C 131.648 -1.48249 -1.25906 0
M  V30 1306 O 130.903 -0.650265 -1.84581 0
M  V30 1307 C 131.202 -3.57386 0.0318797 0
M  V30 1308 C 130.868 -4.30505 1.34077 0
M  V30 1309 C 129.53 -4.50197 1.69929 0
M  V30 1310 C 131.882 -4.72238 2.20546 0
M  V30 1311 C 129.21 -5.08881 2.91988 0
M  V30 1312 C 131.562 -5.32272 3.41861 0
M  V30 1313 C 130.226 -5.50187 3.77956 0
M  V30 1314 H 129.496 -0.739842 0.0414151 0
M  V30 1315 H 132.143 -1.74073 0.798168 0
M  V30 1316 H 130.448 -3.84817 -0.736409 0
M  V30 1317 H 132.145 -3.99264 -0.372712 0
M  V30 1318 H 128.735 -4.15496 1.05173 0
M  V30 1319 H 132.919 -4.56751 1.94146 0
M  V30 1320 H 128.175 -5.20939 3.2005 0
M  V30 1321 H 132.349 -5.63563 4.09109 0
M  V30 1322 H 129.976 -5.95427 4.72622 0
M  V30 1323 N 131.551 -0.354651 -1.53558 0
M  V30 1324 C 132.799 0.237972 -2.00694 0
M  V30 1325 C 133.12 1.50173 -1.24391 0
M  V30 1326 O 132.39 1.92673 -0.354135 0
M  V30 1327 H 130.97 0.0909256 -0.741446 0
M  V30 1328 H 133.632 -0.478368 -1.88938 0
M  V30 1329 H 132.728 0.47264 -3.085 0
M  V30 1330 N 133.029 1.57378 -0.0835403 0
M  V30 1331 C 134.254 1.98682 0.594987 0
M  V30 1332 C 134.679 0.961969 1.61641 0
M  V30 1333 O 134.037 -0.0709989 1.81161 0
M  V30 1334 C 134.085 3.38988 1.2296 0
M  V30 1335 O 133.189 3.39208 2.34546 0
M  V30 1336 H 132.53 0.646368 0.152002 0
M  V30 1337 H 135.06 2.03961 -0.161533 0
M  V30 1338 H 135.07 3.76431 1.57366 0
M  V30 1339 H 133.745 4.13107 0.481228 0
M  V30 1340 H 132.322 3.13548 2.01846 0
M  V30 1341 N 134.507 -0.190092 1.56449 0
M  V30 1342 C 135.455 -1.25501 1.95837 0
M  V30 1343 C 136.449 -1.4685 0.844485 0
M  V30 1344 O 137.655 -1.47651 1.02952 0
M  V30 1345 H 134.03 -0.421447 0.622805 0
M  V30 1346 H 136.001 -0.895821 2.84636 0
M  V30 1347 C 134.75 -2.59124 2.31841 0
M  V30 1348 H 134.073 -2.43514 3.17082 0
M  V30 1349 H 135.513 -3.32371 2.6326 0
M  V30 1350 C 133.972 -3.16488 1.15486 0
M  V30 1351 O 134.502 -3.99365 0.432535 0
M  V30 1352 N 132.708 -2.75305 0.930349 0
M  V30 1353 H 132.255 -2.08013 1.51948 0
M  V30 1354 H 132.213 -3.14024 0.153634 0
M  V30 1355 N 135.985 -1.50799 -0.457987 0
M  V30 1356 C 137.233 -1.62121 -1.2067 0
M  V30 1357 C 137.554 -0.329793 -1.92191 0
M  V30 1358 O 136.824 0.653409 -1.84682 0
M  V30 1359 H 135.404 -0.597441 -0.448411 0
M  V30 1360 H 138.066 -1.87637 -0.527096 0
M  V30 1361 H 137.162 -2.43882 -1.94751 0
M  V30 1362 N 137.463 0.71206 -1.40597 0
M  V30 1363 C 138.393 1.83889 -1.43899 0
M  V30 1364 C 139.374 1.67442 -0.299504 0
M  V30 1365 O 140.559 1.87421 -0.508624 0
M  V30 1366 C 137.689 3.21877 -1.30431 0
M  V30 1367 C 136.643 3.53002 -2.42019 0
M  V30 1368 C 135.969 4.90172 -2.13626 0
M  V30 1369 C 137.269 3.53643 -3.84362 0
M  V30 1370 H 138.963 1.81383 -2.38203 0
M  V30 1371 H 136.509 0.871237 -1.14654 0
M  V30 1372 H 138.462 4.00404 -1.31357 0
M  V30 1373 H 137.186 3.24968 -0.326049 0
M  V30 1374 H 135.845 2.76818 -2.40349 0
M  V30 1375 H 135.493 4.89869 -1.14182 0
M  V30 1376 H 135.193 5.11962 -2.88389 0
M  V30 1377 H 136.717 5.71028 -2.1624 0
M  V30 1378 H 138.131 4.22203 -3.87837 0
M  V30 1379 H 136.528 3.86961 -4.58673 0
M  V30 1380 H 137.598 2.52954 -4.13693 0
M  V30 1381 N 138.941 1.26152 0.944643 0
M  V30 1382 C 140.189 1.11271 1.6871 0
M  V30 1383 C 140.51 -0.345166 1.91921 0
M  V30 1384 O 139.78 -1.24387 1.51343 0
M  V30 1385 H 138.36 0.408783 0.625224 0
M  V30 1386 H 141.022 1.58427 1.1352 0
M  V30 1387 H 140.118 1.62879 2.66227 0
M  V30 1388 N 140.419 -1.14872 1.07899 0
M  V30 1389 C 141.667 -1.85422 0.803941 0
M  V30 1390 C 141.988 -1.83051 -0.67211 0
M  V30 1391 O 141.258 -1.27532 -1.48703 0
M  V30 1392 H 139.838 -0.686537 0.294408 0
M  V30 1393 H 142.5 -1.39226 1.3639 0
M  V30 1394 H 141.596 -2.90399 1.14346 0
M  V30 1395 N 141.898 -0.863906 -1.31812 0
M  V30 1396 C 143.145 -0.471836 -1.96926 0
M  V30 1397 C 143.473 0.974578 -1.68322 0
M  V30 1398 O 142.728 1.7003 -0.968933 0
M  V30 1399 C 143.027 -0.668547 -3.51091 0
M  V30 1400 C 142.693 -2.08683 -3.99703 0
M  V30 1401 C 141.355 -2.47471 -4.12688 0
M  V30 1402 C 143.707 -3.01207 -4.25351 0
M  V30 1403 C 141.035 -3.78037 -4.4867 0
M  V30 1404 C 143.387 -4.31282 -4.62794 0
M  V30 1405 C 142.051 -4.69992 -4.73987 0
M  V30 1406 H 141.321 -0.172657 -0.720604 0
M  V30 1407 H 143.968 -1.09573 -1.57054 0
M  V30 1408 H 142.273 0.0385252 -3.91781 0
M  V30 1409 H 143.97 -0.345102 -3.99512 0
M  V30 1410 H 140.56 -1.77566 -3.90087 0
M  V30 1411 H 144.744 -2.72469 -4.14819 0
M  V30 1412 H 140 -4.078 -4.55532 0
M  V30 1413 H 144.174 -5.03031 -4.81594 0
M  V30 1414 H 141.801 -5.71207 -5.01624 0
M  V30 1415 N 143.376 1.44774 -0.622745 0
M  V30 1416 C 144.787 1.85546 -0.207226 0
M  V30 1417 C 145.138 1.52093 1.23944 0
M  V30 1418 O 144.263 0.95492 1.94191 0
M  V30 1419 C 144.858 3.36781 -0.369313 0
M  V30 1420 C 143.417 3.76399 -0.00836847 0
M  V30 1421 C 142.564 2.68664 -0.686651 0
M  V30 1422 H 145.515 1.3536 -0.828454 0
M  V30 1423 H 145.536 3.78453 0.394162 0
M  V30 1424 H 145.048 3.61098 -1.42231 0
M  V30 1425 H 143.149 3.57698 1.04322 0
M  V30 1426 H 143.262 4.7732 -0.412584 0
M  V30 1427 H 141.626 2.54404 -0.122777 0
M  V30 1428 H 142.409 2.95815 -1.74208 0
M  V30 1429 N 144.854 0.36279 1.53368 0
M  V30 1430 C 146.265 -0.117022 1.86333 0
M  V30 1431 C 146.616 -1.48397 1.28347 0
M  V30 1432 O 145.741 -2.07787 0.604428 0
M  V30 1433 C 146.336 -0.21912 3.38091 0
M  V30 1434 C 144.895 -0.643184 3.70864 0
M  V30 1435 C 144.042 0.211318 2.76494 0
M  V30 1436 H 146.993 0.581687 1.47655 0
M  V30 1437 H 147.014 -1.04319 3.6592 0
M  V30 1438 H 146.526 0.775902 3.80265 0
M  V30 1439 H 144.627 -1.64654 3.34245 0
M  V30 1440 H 144.74 -0.41973 4.77258 0
M  V30 1441 H 143.104 -0.319367 2.5269 0
M  V30 1442 H 143.887 1.20383 3.21501 0
M  V30 1443 N 146.332 -1.57332 0.0918853 0
M  V30 1444 C 147.262 -2.16872 -0.865371 0
M  V30 1445 C 148.243 -1.10118 -1.29646 0
M  V30 1446 O 149.428 -1.38242 -1.36392 0
M  V30 1447 C 146.558 -2.74649 -2.12569 0
M  V30 1448 C 145.512 -3.86747 -1.83333 0
M  V30 1449 C 144.838 -4.31212 -3.16166 0
M  V30 1450 C 146.138 -5.10089 -1.1228 0
M  V30 1451 H 147.832 -2.97114 -0.369307 0
M  V30 1452 H 145.378 -1.42918 -0.176194 0
M  V30 1453 H 147.331 -3.14952 -2.7997 0
M  V30 1454 H 146.055 -1.91657 -2.64452 0
M  V30 1455 H 144.714 -3.46978 -1.18331 0
M  V30 1456 H 144.362 -3.45115 -3.6593 0
M  V30 1457 H 144.062 -5.06788 -2.97388 0
M  V30 1458 H 145.586 -4.74146 -3.84731 0
M  V30 1459 H 147 -5.47582 -1.69785 0
M  V30 1460 H 145.397 -5.91073 -1.03693 0
M  V30 1461 H 146.467 -4.84786 -0.105041 0
M  V30 1462 N 147.81 0.181792 -1.56548 0
M  V30 1463 C 148.758 1.24461 -1.965 0
M  V30 1464 C 149.752 1.464 -0.852261 0
M  V30 1465 O 150.958 1.47103 -1.03733 0
M  V30 1466 H 147.333 0.418138 -0.625031 0
M  V30 1467 H 149.304 0.880714 -2.85107 0
M  V30 1468 C 148.053 2.57891 -2.33212 0
M  V30 1469 H 147.376 2.41829 -3.18369 0
M  V30 1470 H 148.816 3.3097 -2.65019 0
M  V30 1471 C 147.275 3.15871 -1.17163 0
M  V30 1472 O 147.805 3.9913 -0.453708 0
M  V30 1473 N 146.011 2.74808 -0.944936 0
M  V30 1474 H 145.558 2.07205 -1.53049 0
M  V30 1475 H 145.516 3.13939 -0.170286 0
M  V30 1476 N 149.288 1.51039 0.449983 0
M  V30 1477 C 150.513 1.6715 1.22783 0
M  V30 1478 C 150.938 0.363081 1.84563 0
M  V30 1479 O 150.296 -0.675433 1.68249 0
M  V30 1480 C 150.344 2.77985 2.29689 0
M  V30 1481 O 149.448 2.40707 3.34864 0
M  V30 1482 H 148.789 0.557746 0.360299 0
M  V30 1483 H 151.319 1.97535 0.533005 0
M  V30 1484 H 151.329 3.01693 2.74673 0
M  V30 1485 H 150.004 3.72935 1.84098 0
M  V30 1486 H 148.581 2.27523 2.95445 0
M  V30 1487 N 150.766 -0.704594 1.40972 0
M  V30 1488 C 152.012 -1.46675 1.40051 0
M  V30 1489 C 152.345 -1.94199 0.00641102 0
M  V30 1490 O 151.62 -1.68916 -0.964235 0
M  V30 1491 C 151.903 -2.68505 2.39952 0
M  V30 1492 C 151.756 -2.26805 3.88432 0
M  V30 1493 C 153.075 -3.70686 2.37233 0
M  V30 1494 H 150.194 -0.532015 0.510028 0
M  V30 1495 H 152.836 -0.803255 1.72185 0
M  V30 1496 H 150.986 -3.25114 2.1268 0
M  V30 1497 H 152.658 -1.75592 4.26574 0
M  V30 1498 H 150.901 -1.58685 4.03734 0
M  V30 1499 H 151.572 -3.14181 4.53866 0
M  V30 1500 H 154.048 -3.23731 2.61415 0
M  V30 1501 H 152.924 -4.53553 3.09162 0
M  V30 1502 H 153.185 -4.19754 1.38777 0
M  V30 1503 N 152.244 -1.26651 -0.937939 0
M  V30 1504 C 153.469 -1.15279 -1.72411 0
M  V30 1505 C 153.894 0.287866 -1.85884 0
M  V30 1506 O 153.252 1.20855 -1.35143 0
M  V30 1507 C 153.3 -1.83028 -3.10698 0
M  V30 1508 O 152.404 -1.12128 -3.96864 0
M  V30 1509 H 151.745 -0.401504 -0.528858 0
M  V30 1510 H 154.275 -1.67531 -1.1745 0
M  V30 1511 H 154.285 -1.89981 -3.6107 0
M  V30 1512 H 152.96 -2.87833 -3.00208 0
M  V30 1513 H 151.537 -1.13173 -3.55312 0
M  V30 1514 N 153.722 1.14298 -1.08507 0
M  V30 1515 C 155.133 1.66926 -0.836227 0
M  V30 1516 C 155.484 1.85576 0.63686 0
M  V30 1517 O 154.609 1.56767 1.49175 0
M  V30 1518 C 155.204 3.03219 -1.51142 0
M  V30 1519 C 153.763 3.52876 -1.30979 0
M  V30 1520 C 152.91 2.2833 -1.57356 0
M  V30 1521 H 155.861 0.983491 -1.24552 0
M  V30 1522 H 155.882 3.68726 -0.939211 0
M  V30 1523 H 155.394 2.89612 -2.58353 0
M  V30 1524 H 153.495 3.71703 -0.258429 0
M  V30 1525 H 153.608 4.33586 -2.03814 0
M  V30 1526 H 151.972 2.34454 -0.995164 0
M  V30 1527 H 152.755 2.17298 -2.65775 0
M  V30 1528 N 155.201 0.870884 1.31352 0
M  V30 1529 C 156.426 0.495957 2.01383 0
M  V30 1530 C 156.851 -0.904324 1.64935 0
M  V30 1531 O 156.209 -1.59687 0.858466 0
M  V30 1532 C 156.257 0.661433 3.54482 0
M  V30 1533 O 155.361 -0.298851 4.11316 0
M  V30 1534 H 154.702 0.197158 0.634054 0
M  V30 1535 H 157.232 1.17455 1.67527 0
M  V30 1536 H 157.242 0.555072 4.04207 0
M  V30 1537 H 155.917 1.68246 3.8035 0
M  V30 1538 H 154.494 -0.147368 3.72609 0
M  V30 1539 N 156.679 -1.44442 0.630414 0
M  V30 1540 C 158.09 -1.85434 0.217063 0
M  V30 1541 C 158.441 -1.52748 -1.23136 0
M  V30 1542 O 157.566 -0.965205 -1.93682 0
M  V30 1543 C 158.161 -3.36581 0.387168 0
M  V30 1544 C 156.72 -3.76389 0.0283297 0
M  V30 1545 C 155.867 -2.68296 0.700889 0
M  V30 1546 H 158.818 -1.34919 0.83562 0
M  V30 1547 H 158.839 -3.78657 -0.374086 0
M  V30 1548 H 158.351 -3.60339 1.44144 0
M  V30 1549 H 156.452 -3.58246 -1.02423 0
M  V30 1550 H 156.565 -4.77095 0.437892 0
M  V30 1551 H 154.929 -2.54335 0.136267 0
M  V30 1552 H 155.712 -2.94887 1.75774 0
M  V30 1553 N 158.157 -0.370918 -1.53173 0
M  V30 1554 C 159.087 0.464847 -2.28826 0
M  V30 1555 C 160.068 1.07936 -1.31468 0
M  V30 1556 O 161.253 1.0956 -1.60344 0
M  V30 1557 C 158.383 1.60196 -3.08147 0
M  V30 1558 C 157.337 1.11443 -4.13237 0
M  V30 1559 C 156.663 2.3422 -4.80672 0
M  V30 1560 C 157.963 0.195384 -5.21934 0
M  V30 1561 H 159.657 -0.166329 -2.98938 0
M  V30 1562 H 157.203 -0.0814359 -1.4377 0
M  V30 1563 H 159.156 2.19332 -3.59822 0
M  V30 1564 H 157.88 2.26045 -2.35735 0
M  V30 1565 H 156.539 0.545727 -3.62515 0
M  V30 1566 H 156.187 2.98537 -4.04827 0
M  V30 1567 H 155.887 2.02269 -5.51689 0
M  V30 1568 H 157.411 2.94032 -5.35143 0
M  V30 1569 H 158.825 0.694375 -5.69079 0
M  V30 1570 H 157.222 -0.0335027 -6.00091 0
M  V30 1571 H 158.292 -0.760961 -4.78892 0
M  V30 1572 N 159.635 1.57281 -0.100228 0
M  V30 1573 C 160.568 2.09976 0.893612 0
M  V30 1574 C 161.546 1.01155 1.27304 0
M  V30 1575 O 162.73 1.28687 1.37739 0
M  V30 1576 C 159.857 2.58098 2.19324 0
M  V30 1577 C 158.903 3.78626 1.96328 0
M  V30 1578 S 159.736 5.21959 1.19662 0
M  V30 1579 C 160.892 5.73435 2.50844 0
M  V30 1580 H 161.125 2.93946 0.44534 0
M  V30 1581 H 158.658 1.53985 0.113167 0
M  V30 1582 H 160.616 2.8648 2.94005 0
M  V30 1583 H 159.277 1.74344 2.61272 0
M  V30 1584 H 158.47 4.10382 2.92579 0
M  V30 1585 H 158.072 3.50763 1.29775 0
M  V30 1586 H 160.364 5.82015 3.46792 0
M  V30 1587 H 161.307 6.7185 2.23659 0
M  V30 1588 H 161.715 5.01395 2.59352 0
M  V30 1589 N 161.113 -0.173488 1.56642 0
M  V30 1590 C 162.043 -1.2171 1.99271 0
M  V30 1591 C 163.024 -1.46289 0.867959 0
M  V30 1592 O 164.209 -1.5766 1.13388 0
M  V30 1593 C 161.339 -2.55651 2.35074 0
M  V30 1594 C 160.293 -2.45645 3.50489 0
M  V30 1595 C 159.619 -3.84056 3.72028 0
M  V30 1596 C 160.919 -1.96302 4.84007 0
M  V30 1597 H 162.613 -0.86275 2.867 0
M  V30 1598 H 160.159 -0.413571 1.37933 0
M  V30 1599 H 162.112 -3.2886 2.63494 0
M  V30 1600 H 160.836 -2.92869 1.44552 0
M  V30 1601 H 159.495 -1.7489 3.22194 0
M  V30 1602 H 159.143 -4.18664 2.788 0
M  V30 1603 H 158.843 -3.7823 4.49684 0
M  V30 1604 H 160.367 -4.58854 4.02846 0
M  V30 1605 H 161.781 -2.59284 5.11317 0
M  V30 1606 H 160.178 -2.01429 5.65284 0
M  V30 1607 H 161.248 -0.917226 4.76146 0
M  V30 1608 N 162.591 -1.51276 -0.441967 0
M  V30 1609 C 163.521 -1.752 -1.54361 0
M  V30 1610 C 164.502 -0.601682 -1.59103 0
M  V30 1611 O 165.687 -0.843913 -1.74905 0
M  V30 1612 C 162.817 -1.87282 -2.92477 0
M  V30 1613 C 161.771 -3.02687 -3.02596 0
M  V30 1614 C 161.097 -2.99947 -4.42647 0
M  V30 1615 C 162.397 -4.4273 -2.77106 0
M  V30 1616 H 164.091 -2.67442 -1.34592 0
M  V30 1617 H 161.637 -1.28694 -0.646048 0
M  V30 1618 H 163.59 -2.02602 -3.695 0
M  V30 1619 H 162.314 -0.916844 -3.13467 0
M  V30 1620 H 160.973 -2.87065 -2.28012 0
M  V30 1621 H 160.621 -2.02136 -4.60597 0
M  V30 1622 H 160.321 -3.77439 -4.50348 0
M  V30 1623 H 161.845 -3.17354 -5.2165 0
M  V30 1624 H 163.259 -4.58727 -3.43864 0
M  V30 1625 H 161.656 -5.21893 -2.96222 0
M  V30 1626 H 162.726 -4.53087 -1.72744 0
M  V30 1627 N 164.069 0.697108 -1.41344 0
M  V30 1628 C 165.019 1.80313 -1.39539 0
M  V30 1629 C 166.003 1.58618 -0.270001 0
M  V30 1630 O 167.195 1.69477 -0.510551 0
M  V30 1631 C 164.324 3.18606 -1.27848 0
M  V30 1632 C 163.41 3.46001 -2.45244 0
M  V30 1633 N 163.801 3.44103 -3.70711 0
M  V30 1634 C 162.099 3.76542 -2.39023 0
M  V30 1635 C 162.8 3.7036 -4.48563 0
M  V30 1636 N 161.776 3.90027 -3.78655 0
M  V30 1637 H 165.578 1.77207 -2.34468 0
M  V30 1638 H 163.092 0.897031 -1.35378 0
M  V30 1639 H 165.089 3.97833 -1.24637 0
M  V30 1640 H 163.749 3.22925 -0.339032 0
M  V30 1641 H 164.76 3.2452 -4.03618 0
M  V30 1642 H 161.437 3.88241 -1.53542 0
M  V30 1643 H 162.827 3.75042 -5.57488 0
M  V30 1644 N 165.547 1.27147 0.931209 0
M  V30 1645 C 166.958 1.12044 1.49342 0
M  V30 1646 C 167.309 -0.295795 1.93957 0
M  V30 1647 O 166.434 -1.18835 1.80852 0
M  V30 1648 C 167.029 2.02781 2.71414 0
M  V30 1649 C 165.588 1.91794 3.2387 0
M  V30 1650 C 164.735 1.95543 1.96617 0
M  V30 1651 H 167.686 1.40091 0.745672 0
M  V30 1652 H 167.707 1.58156 3.46074 0
M  V30 1653 H 167.219 3.05848 2.38911 0
M  V30 1654 H 165.32 0.916992 3.6114 0
M  V30 1655 H 165.433 2.77852 3.90302 0
M  V30 1656 H 163.797 1.39722 2.12955 0
M  V30 1657 H 164.58 3.00259 1.66432 0
M  V30 1658 N 167.025 -1.13721 1.09112 0
M  V30 1659 C 168.436 -1.6648 0.845068 0
M  V30 1660 C 168.787 -1.85911 -0.62701 0
M  V30 1661 O 167.912 -1.57556 -1.48341 0
M  V30 1662 C 168.507 -3.02413 1.52748 0
M  V30 1663 C 167.066 -3.52176 1.32849 0
M  V30 1664 C 166.213 -2.27492 1.58564 0
M  V30 1665 H 169.164 -0.976872 1.25072 0
M  V30 1666 H 169.185 -3.68223 0.958752 0
M  V30 1667 H 168.697 -2.88238 2.59885 0
M  V30 1668 H 166.798 -3.7156 0.278137 0
M  V30 1669 H 166.911 -4.32499 2.0611 0
M  V30 1670 H 165.275 -2.33923 1.00758 0
M  V30 1671 H 166.058 -2.15886 2.66924 0
M  V30 1672 N 168.503 -0.877838 -1.30888 0
M  V30 1673 C 169.914 -0.544193 -1.78593 0
M  V30 1674 C 170.265 0.939301 -1.72254 0
M  V30 1675 O 169.39 1.7337 -1.29505 0
M  V30 1676 C 169.985 -0.98105 -3.24285 0
M  V30 1677 C 168.544 -0.698935 -3.69854 0
M  V30 1678 C 167.691 -1.168 -2.51502 0
M  V30 1679 H 170.642 -1.06278 -1.17859 0
M  V30 1680 H 170.663 -0.307009 -3.79259 0
M  V30 1681 H 170.175 -2.06079 -3.28866 0
M  V30 1682 H 168.276 0.369112 -3.70767 0
M  V30 1683 H 168.389 -1.28148 -4.61644 0
M  V30 1684 H 166.753 -0.587535 -2.47831 0
M  V30 1685 H 167.536 -2.25533 -2.58824 0
M  V30 1686 N 169.982 1.44106 -0.638065 0
M  V30 1687 C 170.914 2.28976 0.101205 0
M  V30 1688 C 171.927 1.4167 0.802088 0
M  V30 1689 O 173.116 1.65755 0.662375 0
M  V30 1690 C 170.216 3.18217 1.16581 0
M  V30 1691 C 169.389 4.33978 0.546066 0
M  V30 1692 C 168.448 5.04202 1.50554 0
M  V30 1693 O 167.474 5.59986 1.01999 0
M  V30 1694 N 168.676 5.06296 2.8398 0
M  V30 1695 H 171.441 2.93064 -0.627186 0
M  V30 1696 H 169.002 1.54629 -0.479731 0
M  V30 1697 H 170.994 3.62061 1.80815 0
M  V30 1698 H 169.564 2.55833 1.79634 0
M  V30 1699 H 168.784 3.93239 -0.275046 0
M  V30 1700 H 170.072 5.08675 0.112793 0
M  V30 1701 H 169.47 4.62319 3.26002 0
M  V30 1702 H 168.027 5.53907 3.43556 0
M  V30 1703 N 171.46 0.379036 1.52974 0
M  V30 1704 C 172.39 -0.452706 2.29069 0
M  V30 1705 C 173.371 -1.07237 1.32039 0
M  V30 1706 O 174.556 -1.08708 1.60923 0
M  V30 1707 C 171.686 -1.5856 3.08992 0
M  V30 1708 C 170.64 -1.0925 4.13822 0
M  V30 1709 C 169.966 -2.31668 4.81907 0
M  V30 1710 C 171.266 -0.167702 5.22031 0
M  V30 1711 H 172.96 0.182181 2.98845 0
M  V30 1712 H 170.506 0.0890592 1.43724 0
M  V30 1713 H 172.459 -2.1742 3.6098 0
M  V30 1714 H 171.183 -2.24792 2.36931 0
M  V30 1715 H 169.842 -0.526494 3.628 0
M  V30 1716 H 169.49 -2.96386 4.06404 0
M  V30 1717 H 169.19 -1.9934 5.52754 0
M  V30 1718 H 170.714 -2.91189 5.36695 0
M  V30 1719 H 172.128 -0.664186 5.6944 0
M  V30 1720 H 170.525 0.0653265 6.00064 0
M  V30 1721 H 171.595 0.786347 4.78482 0
M  V30 1722 N 172.938 -1.57226 0.108567 0
M  V30 1723 C 174.163 -1.99604 -0.563303 0
M  V30 1724 C 174.588 -0.987563 -1.6009 0
M  V30 1725 O 173.946 0.0421687 -1.81251 0
M  V30 1726 C 173.994 -3.40902 -1.17552 0
M  V30 1727 O 173.098 -3.42896 -2.2912 0
M  V30 1728 H 172.439 -0.648704 -0.1417 0
M  V30 1729 H 174.969 -2.03679 0.193961 0
M  V30 1730 H 174.979 -3.78886 -1.51357 0
M  V30 1731 H 173.654 -4.1382 -0.415445 0
M  V30 1732 H 172.231 -3.1672 -1.96832 0
M  V30 1733 N 174.416 0.165178 -1.56732 0
M  V30 1734 C 175.827 0.727046 -1.71962 0
M  V30 1735 C 176.178 1.82508 -0.720078 0
M  V30 1736 O 175.303 2.16082 0.117242 0
M  V30 1737 C 175.898 1.32559 -3.11791 0
M  V30 1738 C 174.457 1.83422 -3.28684 0
M  V30 1739 C 173.604 0.715567 -2.67908 0
M  V30 1740 H 176.555 -0.0602896 -1.58585 0
M  V30 1741 H 176.576 2.19533 -3.10782 0
M  V30 1742 H 176.088 0.526195 -3.84516 0
M  V30 1743 H 174.189 2.65986 -2.60926 0
M  V30 1744 H 174.302 1.97543 -4.36478 0
M  V30 1745 H 172.666 1.13758 -2.27884 0
M  V30 1746 H 173.449 -0.0720836 -3.43224 0
M  V30 1747 N 175.894 1.51508 0.433938 0
M  V30 1748 C 177.141 1.64345 1.18309 0
M  V30 1749 C 177.469 0.361315 1.91115 0
M  V30 1750 O 176.724 -0.654753 1.84422 0
M  V30 1751 C 177.023 2.79928 2.22205 0
M  V30 1752 C 176.689 4.19078 1.66387 0
M  V30 1753 C 175.351 4.56932 1.50887 0
M  V30 1754 C 177.703 5.05894 1.25381 0
M  V30 1755 C 175.031 5.79305 0.928608 0
M  V30 1756 C 177.383 6.2885 0.687823 0
M  V30 1757 C 176.047 6.65473 0.519755 0
M  V30 1758 H 175.317 0.601381 0.432923 0
M  V30 1759 H 177.964 1.85549 0.473676 0
M  V30 1760 H 176.269 2.52959 2.99197 0
M  V30 1761 H 177.966 2.87059 2.79997 0
M  V30 1762 H 174.556 3.89234 1.79428 0
M  V30 1763 H 178.74 4.77253 1.36175 0
M  V30 1764 H 173.996 6.06324 0.786186 0
M  V30 1765 H 178.17 6.95461 0.361581 0
M  V30 1766 H 175.797 7.6017 0.0679979 0
M  V30 1767 N 177.372 -0.689602 1.41712 0
M  V30 1768 C 178.302 -1.81577 1.46806 0
M  V30 1769 C 179.283 -1.66945 0.326105 0
M  V30 1770 O 180.468 -1.86588 0.538377 0
M  V30 1771 C 177.598 -3.19762 1.35535 0
M  V30 1772 C 176.552 -3.49107 2.47605 0
M  V30 1773 C 175.878 -4.86711 2.21397 0
M  V30 1774 C 177.178 -3.47483 3.89939 0
M  V30 1775 H 178.872 -1.7757 2.41058 0
M  V30 1776 H 176.418 -0.852887 1.16025 0
M  V30 1777 H 178.371 -3.98263 1.3771 0
M  V30 1778 H 177.095 -3.24409 0.377708 0
M  V30 1779 H 175.754 -2.72959 2.44722 0
M  V30 1780 H 175.402 -4.8799 1.21961 0
M  V30 1781 H 175.102 -5.0731 2.96497 0
M  V30 1782 H 176.626 -5.67515 2.25297 0
M  V30 1783 H 178.04 -4.1598 3.94505 0
M  V30 1784 H 176.437 -3.79615 4.64771 0
M  V30 1785 H 177.507 -2.46341 4.17665 0
M  V30 1786 N 178.85 -1.27639 -0.924453 0
M  V30 1787 C 179.782 -1.06442 -2.02985 0
M  V30 1788 C 180.795 -0.0194771 -1.62788 0
M  V30 1789 O 181.984 -0.261388 -1.76576 0
M  V30 1790 C 179.084 -0.59327 -3.33667 0
M  V30 1791 C 178.257 -1.71123 -4.02537 0
M  V30 1792 C 177.316 -1.23527 -5.11495 0
M  V30 1793 O 176.342 -1.93553 -5.35281 0
M  V30 1794 N 177.544 -0.0926678 -5.80426 0
M  V30 1795 H 180.309 -2.01633 -2.2173 0
M  V30 1796 H 177.87 -1.19248 -1.09505 0
M  V30 1797 H 179.862 -0.258686 -4.03872 0
M  V30 1798 H 178.432 0.265502 -3.1147 0
M  V30 1799 H 177.652 -2.21593 -3.26022 0
M  V30 1800 H 178.94 -2.46145 -4.45298 0
M  V30 1801 H 178.338 0.491741 -5.63559 0
M  V30 1802 H 176.895 0.182714 -6.51544 0
M  V30 1803 N 180.328 1.1314 -1.09713 0
M  V30 1804 C 181.739 1.66029 -0.853885 0
M  V30 1805 C 182.09 1.86241 0.617142 0
M  V30 1806 O 181.215 1.5834 1.47503 0
M  V30 1807 C 181.81 3.01599 -1.5435 0
M  V30 1808 C 180.369 3.51467 -1.34714 0
M  V30 1809 C 179.516 2.26648 -1.59769 0
M  V30 1810 H 182.467 0.970226 -1.25588 0
M  V30 1811 H 182.488 3.67709 -0.978267 0
M  V30 1812 H 182 2.86856 -2.6141 0
M  V30 1813 H 180.101 3.71408 -0.297838 0
M  V30 1814 H 180.214 4.314 -2.08401 0
M  V30 1815 H 178.578 2.33385 -1.01998 0
M  V30 1816 H 179.361 2.14467 -2.68065 0
M  V30 1817 N 181.806 0.884767 1.30421 0
M  V30 1818 C 182.756 0.322846 2.25703 0
M  V30 1819 C 183.74 -0.548582 1.51259 0
M  V30 1820 O 184.932 -0.39304 1.72581 0
M  V30 1821 C 182.061 -0.461787 3.4018 0
M  V30 1822 C 181.147 0.423717 4.21978 0
M  V30 1823 N 181.538 1.52408 4.82292 0
M  V30 1824 C 179.836 0.218795 4.45463 0
M  V30 1825 C 180.537 2.07136 5.43571 0
M  V30 1826 N 179.513 1.36635 5.26148 0
M  V30 1827 H 183.315 1.16363 2.69883 0
M  V30 1828 H 180.829 0.73415 1.44859 0
M  V30 1829 H 182.826 -0.880985 4.07485 0
M  V30 1830 H 181.486 -1.30001 2.9754 0
M  V30 1831 H 182.497 1.90693 4.81515 0
M  V30 1832 H 179.174 -0.582275 4.1342 0
M  V30 1833 H 180.564 2.99538 6.01437 0
M  V30 1834 N 183.284 -1.43765 0.645699 0
M  V30 1835 C 184.532 -2.01499 0.155731 0
M  V30 1836 C 184.853 -1.51151 -1.232 0
M  V30 1837 O 184.123 -0.721044 -1.82148 0
M  V30 1838 H 182.703 -0.745003 0.0545817 0
M  V30 1839 H 185.365 -1.76075 0.835677 0
M  V30 1840 H 184.461 -3.1181 0.134577 0
M  V30 1841 N 184.763 -0.387143 -1.52771 0
M  V30 1842 C 185.695 0.484089 -2.2403 0
M  V30 1843 C 186.708 1.02849 -1.26198 0
M  V30 1844 O 187.897 0.931186 -1.52286 0
M  V30 1845 C 184.997 1.68337 -2.94136 0
M  V30 1846 C 184.17 1.26672 -4.18656 0
M  V30 1847 C 183.229 2.33045 -4.7178 0
M  V30 1848 O 182.255 1.94541 -5.34923 0
M  V30 1849 N 183.457 3.64929 -4.5145 0
M  V30 1850 H 186.222 -0.126404 -2.99433 0
M  V30 1851 H 183.783 -0.213392 -1.60488 0
M  V30 1852 H 185.775 2.39019 -3.26577 0
M  V30 1853 H 184.345 2.20025 -2.22053 0
M  V30 1854 H 183.565 0.388878 -3.92277 0
M  V30 1855 H 184.853 0.964964 -4.99566 0
M  V30 1856 H 184.251 3.98974 -4.01044 0
M  V30 1857 H 182.808 4.31651 -4.88386 0
M  V30 1858 N 186.241 1.57166 -0.116904 0
M  V30 1859 C 187.173 2.12271 0.864507 0
M  V30 1860 C 188.186 1.06494 1.23138 0
M  V30 1861 O 189.375 1.33873 1.18069 0
M  V30 1862 C 186.475 2.60564 2.16702 0
M  V30 1863 C 185.648 3.90416 1.97216 0
M  V30 1864 C 184.707 4.24329 3.11178 0
M  V30 1865 O 183.733 4.93182 2.84184 0
M  V30 1866 N 184.935 3.8148 4.37554 0
M  V30 1867 H 187.7 2.97102 0.393726 0
M  V30 1868 H 185.261 1.61759 0.0675805 0
M  V30 1869 H 187.253 2.80282 2.91932 0
M  V30 1870 H 185.823 1.80623 2.55135 0
M  V30 1871 H 185.043 3.79627 1.06192 0
M  V30 1872 H 186.331 4.75327 1.81499 0
M  V30 1873 H 185.729 3.25943 4.62361 0
M  V30 1874 H 184.286 4.06311 5.09661 0
M  V30 1875 N 187.719 -0.156864 1.56817 0
M  V30 1876 C 188.965 -0.872416 1.83076 0
M  V30 1877 C 189.298 -1.81261 0.697001 0
M  V30 1878 O 188.573 -1.92171 -0.30008 0
M  V30 1879 C 188.856 -1.65551 3.19789 0
M  V30 1880 C 188.709 -0.737467 4.43713 0
M  V30 1881 C 190.028 -2.62012 3.53606 0
M  V30 1882 H 187.147 -0.315715 0.665953 0
M  V30 1883 H 189.789 -0.138004 1.89498 0
M  V30 1884 H 187.939 -2.28159 3.14445 0
M  V30 1885 H 189.611 -0.123143 4.61136 0
M  V30 1886 H 187.854 -0.0464067 4.33775 0
M  V30 1887 H 188.525 -1.32122 5.35955 0
M  V30 1888 H 191.001 -2.09525 3.59497 0
M  V30 1889 H 189.877 -3.13861 4.50314 0
M  V30 1890 H 190.138 -3.42902 2.79053 0
M  V30 1891 N 189.197 -1.51736 -0.425897 0
M  V30 1892 C 190.608 -1.5732 -1.00536 0
M  V30 1893 C 190.959 -0.403537 -1.92005 0
M  V30 1894 O 190.084 0.478256 -2.11049 0
M  V30 1895 C 190.679 -2.85119 -1.8301 0
M  V30 1896 C 189.238 -2.93236 -2.35987 0
M  V30 1897 C 188.385 -2.52098 -1.15508 0
M  V30 1898 H 191.336 -1.57348 -0.206739 0
M  V30 1899 H 191.357 -2.69526 -2.68581 0
M  V30 1900 H 190.869 -3.7023 -1.16411 0
M  V30 1901 H 188.97 -2.12581 -3.06007 0
M  V30 1902 H 189.083 -3.9713 -2.68001 0
M  V30 1903 H 187.447 -2.05558 -1.50393 0
M  V30 1904 H 188.23 -3.39565 -0.505014 0
M  V30 1905 N 190.675 0.682077 -1.42076 0
M  V30 1906 C 191.905 1.46844 -1.45329 0
M  V30 1907 C 192.313 1.89102 -0.0609328 0
M  V30 1908 O 191.656 1.58238 0.933082 0
M  V30 1909 C 191.718 2.75375 -2.31104 0
M  V30 1910 C 191.382 2.55238 -3.79081 0
M  V30 1911 C 192.379 2.20309 -4.70914 0
M  V30 1912 C 190.064 2.70459 -4.2327 0
M  V30 1913 C 192.058 2.00859 -6.04925 0
M  V30 1914 C 189.745 2.50624 -5.57343 0
M  V30 1915 C 190.743 2.15876 -6.47986 0
M  V30 1916 O 190.431 1.96227 -7.79583 0
M  V30 1917 H 190.163 0.4586 -0.496651 0
M  V30 1918 H 192.717 0.846131 -1.87162 0
M  V30 1919 H 190.947 3.40061 -1.84107 0
M  V30 1920 H 192.636 3.37231 -2.25898 0
M  V30 1921 H 193.402 2.08153 -4.38061 0
M  V30 1922 H 189.281 2.96485 -3.53012 0
M  V30 1923 H 192.825 1.7366 -6.75639 0
M  V30 1924 H 188.722 2.62375 -5.89771 0
M  V30 1925 H 189.49 2.10883 -7.90867 0
M  V30 1926 N 192.153 1.28127 0.917671 0
M  V30 1927 C 193.383 1.17722 1.6978 0
M  V30 1928 C 193.791 -0.267261 1.87303 0
M  V30 1929 O 193.134 -1.19286 1.39702 0
M  V30 1930 C 193.196 1.79958 3.11216 0
M  V30 1931 C 192.86 3.29187 3.16993 0
M  V30 1932 C 193.857 4.25679 2.98485 0
M  V30 1933 C 191.542 3.70075 3.39632 0
M  V30 1934 C 193.536 5.61035 3.02521 0
M  V30 1935 C 191.223 5.05557 3.433 0
M  V30 1936 C 192.221 6.00847 3.24764 0
M  V30 1937 O 191.909 7.33859 3.28187 0
M  V30 1938 H 191.641 0.409788 0.537634 0
M  V30 1939 H 194.195 1.69694 1.15728 0
M  V30 1940 H 192.425 1.22475 3.66793 0
M  V30 1941 H 194.114 1.64125 3.71238 0
M  V30 1942 H 194.88 3.95426 2.80826 0
M  V30 1943 H 190.759 2.96373 3.53106 0
M  V30 1944 H 194.303 6.35388 2.87971 0
M  V30 1945 H 190.2 5.35462 3.60486 0
M  V30 1946 H 190.968 7.42436 3.44575 0
M  V30 1947 N 193.631 -1.12557 1.10312 0
M  V30 1948 C 194.561 -2.20341 0.772798 0
M  V30 1949 C 195.542 -1.68198 -0.25365 0
M  V30 1950 O 196.727 -1.93831 -0.119699 0
M  V30 1951 C 193.857 -3.46709 0.202443 0
M  V30 1952 C 192.811 -4.11996 1.15943 0
M  V30 1953 C 192.137 -5.328 0.450345 0
M  V30 1954 C 193.437 -4.5828 2.50552 0
M  V30 1955 H 195.131 -2.48229 1.674 0
M  V30 1956 H 192.677 -1.19308 0.806326 0
M  V30 1957 H 194.63 -4.2138 -0.0407752 0
M  V30 1958 H 193.354 -3.18245 -0.734001 0
M  V30 1959 H 192.013 -3.39305 1.38808 0
M  V30 1960 H 191.661 -5.00602 -0.490531 0
M  V30 1961 H 191.361 -5.7743 1.08851 0
M  V30 1962 H 192.885 -6.10219 0.215642 0
M  V30 1963 H 194.299 -5.2433 2.31843 0
M  V30 1964 H 192.696 -5.13683 3.10242 0
M  V30 1965 H 193.766 -3.72329 3.10643 0
M  V30 1966 N 195.109 -0.891671 -1.2995 0
M  V30 1967 C 196.019 -0.367691 -2.31701 0
M  V30 1968 C 197.035 0.533486 -1.6562 0
M  V30 1969 O 198.211 0.424997 -1.96865 0
M  V30 1970 C 195.276 0.403406 -3.44345 0
M  V30 1971 C 194.337 -0.528328 -4.26037 0
M  V30 1972 C 193.57 0.206063 -5.33302 0
M  V30 1973 O 193.793 1.43119 -5.52153 0
M  V30 1974 O 192.727 -0.447281 -6.00236 0
M  V30 1975 H 196.553 -1.21163 -2.78484 0
M  V30 1976 H 194.138 -0.655725 -1.34241 0
M  V30 1977 H 196.02 0.839753 -4.12948 0
M  V30 1978 H 194.695 1.22354 -2.99685 0
M  V30 1979 H 193.602 -1.01362 -3.60106 0
M  V30 1980 H 194.935 -1.31465 -4.74318 0
M  V30 1981 N 196.587 1.43421 -0.653314 0
M  V30 1982 C 197.535 2.32546 0.0501531 0
M  V30 1983 C 198.529 1.48617 0.812985 0
M  V30 1984 O 199.735 1.64825 0.723375 0
M  V30 1985 H 196.11 0.751185 0.0350032 0
M  V30 1986 H 198.081 2.89602 -0.719261 0
M  V30 1987 C 196.83 3.32925 1.00279 0
M  V30 1988 H 196.153 3.97532 0.425236 0
M  V30 1989 H 197.593 3.9792 1.46409 0
M  V30 1990 C 196.052 2.63532 2.09886 0
M  V30 1991 O 196.582 2.45092 3.18265 0
M  V30 1992 N 194.788 2.22905 1.86445 0
M  V30 1993 H 194.335 2.38103 0.98309 0
M  V30 1994 H 194.293 1.76805 2.59976 0
M  V30 1995 N 198.065 0.39524 1.52563 0
M  V30 1996 C 198.975 -0.444232 2.30356 0
M  V30 1997 C 199.991 -1.06615 1.37511 0
M  V30 1998 O 201.167 -1.07067 1.70583 0
M  V30 1999 C 198.232 -1.55315 3.09964 0
M  V30 2000 C 197.293 -0.955734 4.18526 0
M  V30 2001 C 196.526 -2.01181 4.9433 0
M  V30 2002 O 196.749 -3.22781 4.70285 0
M  V30 2003 O 195.683 -1.62579 5.79527 0
M  V30 2004 H 199.509 0.189667 3.03107 0
M  V30 2005 H 197.094 0.1588 1.48554 0
M  V30 2006 H 198.976 -2.19724 3.59582 0
M  V30 2007 H 197.651 -2.17191 2.4002 0
M  V30 2008 H 196.558 -0.274743 3.7309 0
M  V30 2009 H 197.891 -0.381109 4.90722 0
M  V30 2010 N 199.544 -1.57102 0.125237 0
M  V30 2011 C 200.955 -1.82384 -0.399142 0
M  V30 2012 C 201.306 -1.04276 -1.66195 0
M  V30 2013 O 200.431 -0.281269 -2.14564 0
M  V30 2014 C 201.026 -3.30821 -0.730932 0
M  V30 2015 C 199.585 -3.56762 -1.19992 0
M  V30 2016 C 198.732 -2.7649 -0.211792 0
M  V30 2017 H 201.683 -1.54786 0.350277 0
M  V30 2018 H 201.704 -3.4579 -1.58775 0
M  V30 2019 H 201.216 -3.87643 0.188345 0
M  V30 2020 H 199.317 -3.05305 -2.13588 0
M  V30 2021 H 199.43 -4.65317 -1.14093 0
M  V30 2022 H 197.794 -2.4489 -0.700085 0
M  V30 2023 H 198.577 -3.36073 0.700691 0
M  V30 2024 N 201.022 0.148545 -1.56898 0
M  V30 2025 C 202.247 0.880385 -1.87787 0
M  V30 2026 C 202.672 1.74018 -0.714093 0
M  V30 2027 O 202.03 1.78153 0.336343 0
M  V30 2028 C 202.078 1.71422 -3.17249 0
M  V30 2029 O 201.182 2.8183 -3.01074 0
M  V30 2030 H 200.523 0.245301 -0.617028 0
M  V30 2031 H 203.053 0.139826 -2.04122 0
M  V30 2032 H 203.063 2.10954 -3.49231 0
M  V30 2033 H 201.738 1.08284 -4.01556 0
M  V30 2034 H 200.315 2.45715 -2.80497 0
M  V30 2035 N 202.5 1.5196 0.417844 0
M  V30 2036 C 203.748 1.65263 1.16329 0
M  V30 2037 C 204.069 0.380634 1.91249 0
M  V30 2038 O 203.339 -0.604214 1.86349 0
M  V30 2039 H 201.919 0.60912 0.432414 0
M  V30 2040 H 204.581 1.88969 0.477162 0
M  V30 2041 H 203.677 2.4896 1.88217 0
M  V30 2042 N 203.978 -0.674533 1.42435 0
M  V30 2043 C 205.208 -1.46071 1.46105 0
M  V30 2044 C 205.616 -1.89067 0.0709605 0
M  V30 2045 O 204.959 -1.58731 -0.924677 0
M  V30 2046 C 205.021 -2.74145 2.32561 0
M  V30 2047 C 204.685 -2.53224 3.8043 0
M  V30 2048 C 205.682 -2.17809 4.72075 0
M  V30 2049 C 203.367 -2.6821 4.24698 0
M  V30 2050 C 205.361 -1.97648 6.05982 0
M  V30 2051 C 203.048 -2.47665 5.58664 0
M  V30 2052 C 204.046 -2.12437 6.49122 0
M  V30 2053 O 203.734 -1.9209 7.80613 0
M  V30 2054 H 203.466 -0.455959 0.499076 0
M  V30 2055 H 206.02 -0.836193 1.87609 0
M  V30 2056 H 204.25 -3.3908 1.85908 0
M  V30 2057 H 205.939 -3.36028 2.27683 0
M  V30 2058 H 206.705 -2.05826 4.39159 0
M  V30 2059 H 202.584 -2.94609 3.54579 0
M  V30 2060 H 206.128 -1.70075 6.7655 0
M  V30 2061 H 202.025 -2.59244 5.91154 0
M  V30 2062 H 202.793 -2.06686 7.91974 0
M  V30 2063 N 205.456 -1.28612 -0.910864 0
M  V30 2064 C 206.684 -1.18792 -1.69399 0
M  V30 2065 C 207.099 0.253039 -1.87097 0
M  V30 2066 O 206.456 1.17071 -1.40003 0
M  V30 2067 C 206.507 -1.88511 -3.08457 0
M  V30 2068 O 206.228 -3.26979 -2.91576 0
M  V30 2069 C 207.729 -1.85029 -4.02839 0
M  V30 2070 H 204.949 -0.412233 -0.529438 0
M  V30 2071 H 207.493 -1.69788 -1.13984 0
M  V30 2072 H 205.648 -1.41379 -3.60681 0
M  V30 2073 H 206.062 -3.61936 -3.79608 0
M  V30 2074 H 207.536 -2.38395 -4.97867 0
M  V30 2075 H 208.013 -0.823303 -4.31414 0
M  V30 2076 H 208.619 -2.31853 -3.56545 0
M  V30 2077 N 206.934 1.1197 -1.10907 0
M  V30 2078 C 208.18 1.8386 -0.855773 0
M  V30 2079 C 208.513 1.84134 0.617103 0
M  V30 2080 O 207.788 1.29041 1.45529 0
M  V30 2081 C 208.071 3.31305 -1.411 0
M  V30 2082 C 207.924 3.39456 -2.9511 0
M  V30 2083 C 209.243 4.2721 -1.05736 0
M  V30 2084 H 206.362 0.667545 -0.312334 0
M  V30 2085 H 209.004 1.31331 -1.37303 0
M  V30 2086 H 207.154 3.76169 -0.97105 0
M  V30 2087 H 208.826 3.03191 -3.47668 0
M  V30 2088 H 207.069 2.79849 -3.31462 0
M  V30 2089 H 207.74 4.43209 -3.29044 0
M  V30 2090 H 210.216 3.90497 -1.43706 0
M  V30 2091 H 209.092 5.28775 -1.47269 0
M  V30 2092 H 209.353 4.42088 0.0325958 0
M  V30 2093 N 208.412 0.89855 1.29475 0
M  V30 2094 C 209.828 0.594483 1.48115 0
M  V30 2095 C 210.028 -0.86431 1.82022 0
M  V30 2096 O 209.084 -1.64457 1.91599 0
M  V30 2097 C 210.397 1.51932 2.59494 0
M  V30 2098 C 211.945 1.5244 2.7337 0
M  V30 2099 C 212.42 2.43548 3.87877 0
M  V30 2100 N 213.911 2.41589 3.95208 0
M  V30 2101 C 214.646 3.08789 4.83153 0
M  V30 2102 N 214.142 3.85265 5.75798 0
M  V30 2103 N 215.935 2.97952 4.76635 0
M  V30 2104 H 208.086 1.84207 1.05742 0
M  V30 2105 H 210.349 0.789251 0.525154 0
M  V30 2106 H 210.055 2.55865 2.41301 0
M  V30 2107 H 209.929 1.23899 3.56271 0
M  V30 2108 H 212.316 0.492518 2.90961 0
M  V30 2109 H 212.397 1.8451 1.77172 0
M  V30 2110 H 212.041 3.46829 3.71041 0
M  V30 2111 H 211.971 2.08788 4.83441 0
M  V30 2112 H 214.462 1.86025 3.28943 0
M  V30 2113 H 214.775 4.33598 6.39697 0
M  V30 2114 H 213.12 3.89371 5.75687 0
M  V30 2115 H 216.311 2.37723 4.03244 0
M  V30 2116 H 216.484 3.50599 5.44962 0
M  V30 2117 N 209.89 -1.43072 0.660911 0
M  V30 2118 C 210.8 -2.34585 -0.0264163 0
M  V30 2119 C 211.816 -1.54316 -0.803898 0
M  V30 2120 O 212.992 -1.86939 -0.749391 0
M  V30 2121 C 210.057 -3.32689 -0.975639 0
M  V30 2122 C 209.118 -4.2886 -0.194236 0
M  V30 2123 C 208.351 -5.22278 -1.09825 0
M  V30 2124 O 208.574 -5.20299 -2.33763 0
M  V30 2125 O 207.508 -5.99228 -0.566513 0
M  V30 2126 H 211.334 -2.94869 0.727034 0
M  V30 2127 H 208.919 -1.43342 0.42111 0
M  V30 2128 H 210.801 -3.92995 -1.52094 0
M  V30 2129 H 209.476 -2.74898 -1.70918 0
M  V30 2130 H 208.383 -3.72011 0.394835 0
M  V30 2131 H 209.716 -4.89655 0.499899 0
M  V30 2132 N 211.368 -0.403325 -1.52352 0
M  V30 2133 C 212.331 0.413051 -2.25447 0
M  V30 2134 C 213.331 0.978513 -1.276 0
M  V30 2135 O 214.521 0.858305 -1.51587 0
M  V30 2136 C 211.653 1.58087 -3.02029 0
M  V30 2137 H 212.846 -0.227094 -2.99039 0
M  V30 2138 H 210.399 -0.155722 -1.55522 0
M  V30 2139 H 211.134 2.25804 -2.32772 0
M  V30 2140 H 210.919 1.18195 -3.73861 0
M  V30 2141 H 212.409 2.1585 -3.57489 0
M  V30 2142 N 212.846 1.57033 -0.133567 0
M  V30 2143 C 214.094 1.953 0.519848 0
M  V30 2144 C 214.415 1.01866 1.66278 0
M  V30 2145 O 213.685 0.0776513 1.95746 0
M  V30 2146 H 212.265 0.721091 0.195032 0
M  V30 2147 H 214.927 1.93809 -0.205921 0
M  V30 2148 H 214.023 2.98695 0.904854 0
M  V30 2149 N 214.325 -0.140222 1.56975 0
M  V30 2150 C 215.736 -0.699596 1.73097 0
M  V30 2151 C 216.087 -1.8134 0.749022 0
M  V30 2152 O 215.212 -2.16241 -0.0828503 0
M  V30 2153 C 215.807 -1.27582 3.1386 0
M  V30 2154 C 214.366 -1.78169 3.31561 0
M  V30 2155 C 213.513 -0.672855 2.69013 0
M  V30 2156 H 216.464 0.0855115 1.58469 0
M  V30 2157 H 216.485 -2.14561 3.14235 0
M  V30 2158 H 215.997 -0.464955 3.85305 0
M  V30 2159 H 214.098 -2.61801 2.65124 0
M  V30 2160 H 214.211 -1.90574 4.39566 0
M  V30 2161 H 212.575 -1.10118 2.29665 0
M  V30 2162 H 213.358 0.126679 3.43066 0
M  V30 2163 N 215.803 -1.52179 -0.40978 0
M  V30 2164 C 217.214 -1.58377 -0.988615 0
M  V30 2165 C 217.565 -0.423879 -1.91566 0
M  V30 2166 O 216.69 0.455844 -2.11544 0
M  V30 2167 C 217.285 -2.87044 -1.79976 0
M  V30 2168 C 215.844 -2.95722 -2.32863 0
M  V30 2169 C 214.991 -2.53309 -1.12828 0
M  V30 2170 H 217.942 -1.57558 -0.190039 0
M  V30 2171 H 217.963 -2.7236 -2.65707 0
M  V30 2172 H 217.475 -3.71444 -1.12478 0
M  V30 2173 H 215.576 -2.15814 -3.03735 0
M  V30 2174 H 215.689 -3.99951 -2.63773 0
M  V30 2175 H 214.053 -2.07142 -1.48204 0
M  V30 2176 H 214.836 -3.40082 -0.46897 0
M  V30 2177 N 217.281 0.66697 -1.42791 0
M  V30 2178 C 218.244 1.76211 -1.46568 0
M  V30 2179 C 219.244 1.56896 -0.352196 0
M  V30 2180 O 220.434 1.63044 -0.613364 0
M  V30 2181 C 217.566 3.14935 -1.30494 0
M  V30 2182 H 218.759 1.74247 -2.44086 0
M  V30 2183 H 216.312 0.877342 -1.29354 0
M  V30 2184 H 217.047 3.2252 -0.339301 0
M  V30 2185 H 216.832 3.30359 -2.11199 0
M  V30 2186 H 218.322 3.94821 -1.36038 0
M  V30 2187 N 218.759 1.29093 0.90403 0
M  V30 2188 C 220.006 1.16813 1.65411 0
M  V30 2189 C 220.334 -0.28128 1.92455 0
M  V30 2190 O 219.589 -1.22006 1.53013 0
M  V30 2191 C 219.888 1.92224 3.01305 0
M  V30 2192 C 219.554 3.41968 2.93885 0
M  V30 2193 C 218.216 3.82807 2.91569 0
M  V30 2194 C 220.568 4.37409 2.83413 0
M  V30 2195 C 217.896 5.1741 2.76594 0
M  V30 2196 C 220.248 5.72097 2.69977 0
M  V30 2197 C 218.912 6.12199 2.66024 0
M  V30 2198 H 218.182 0.42745 0.605283 0
M  V30 2199 H 220.829 1.59981 1.05254 0
M  V30 2200 H 219.134 1.41635 3.65304 0
M  V30 2201 H 220.831 1.80131 3.58265 0
M  V30 2202 H 217.421 3.09504 2.96488 0
M  V30 2203 H 221.605 4.06813 2.84283 0
M  V30 2204 H 216.861 5.47596 2.71935 0
M  V30 2205 H 221.035 6.45704 2.60844 0
M  V30 2206 H 218.662 7.16448 2.54178 0
M  V30 2207 N 220.237 -1.11381 1.11499 0
M  V30 2208 C 221.467 -1.86663 0.885464 0
M  V30 2209 C 221.875 -1.80464 -0.568281 0
M  V30 2210 O 221.218 -1.18445 -1.40415 0
M  V30 2211 C 221.28 -3.36337 1.26956 0
M  V30 2212 C 220.944 -3.66304 2.73259 0
M  V30 2213 C 221.941 -3.63733 3.71476 0
M  V30 2214 C 219.626 -3.9529 3.09921 0
M  V30 2215 C 221.62 -3.89725 5.04374 0
M  V30 2216 C 219.307 -4.20941 4.43004 0
M  V30 2217 C 220.305 -4.18147 5.40039 0
M  V30 2218 O 219.993 -4.43153 6.70724 0
M  V30 2219 H 219.725 -0.597114 0.316908 0
M  V30 2220 H 222.279 -1.41782 1.48617 0
M  V30 2221 H 220.509 -3.81826 0.611999 0
M  V30 2222 H 222.198 -3.92986 1.01573 0
M  V30 2223 H 222.964 -3.41389 3.44498 0
M  V30 2224 H 218.843 -3.966 2.35009 0
M  V30 2225 H 222.387 -3.8746 5.80104 0
M  V30 2226 H 218.284 -4.42761 4.69716 0
M  V30 2227 H 219.052 -4.60717 6.76522 0
M  V30 2228 N 221.715 -0.905404 -1.28997 0
M  V30 2229 C 223.131 -0.60233 -1.47798 0
M  V30 2230 C 223.331 0.854645 -1.82478 0
M  V30 2231 O 222.387 1.63439 -1.92468 0
M  V30 2232 C 223.7 -1.53306 -2.58685 0
M  V30 2233 C 225.248 -1.53887 -2.72558 0
M  V30 2234 C 225.723 -2.45602 -3.86579 0
M  V30 2235 N 227.214 -2.43681 -3.93921 0
M  V30 2236 C 227.949 -3.11347 -4.81509 0
M  V30 2237 N 227.445 -3.88313 -5.73746 0
M  V30 2238 N 229.238 -3.00476 -4.75048 0
M  V30 2239 H 221.389 -1.84765 -1.04764 0
M  V30 2240 H 223.652 -0.792025 -0.520961 0
M  V30 2241 H 223.358 -2.57141 -2.39941 0
M  V30 2242 H 223.232 -1.25787 -3.55609 0
M  V30 2243 H 225.619 -0.507941 -2.90696 0
M  V30 2244 H 225.7 -1.85447 -1.76191 0
M  V30 2245 H 225.344 -3.48792 -3.69197 0
M  V30 2246 H 225.274 -2.11349 -4.82327 0
M  V30 2247 H 227.765 -1.87767 -3.27951 0
M  V30 2248 H 228.078 -4.36985 -6.37389 0
M  V30 2249 H 226.423 -3.92419 -5.73614 0
M  V30 2250 H 229.614 -2.39858 -4.01977 0
M  V30 2251 H 229.787 -3.53485 -5.43095 0
M  V30 2252 N 223.193 1.4272 -0.668489 0
M  V30 2253 C 224.604 1.84793 -0.266151 0
M  V30 2254 C 224.955 1.55959 1.19043 0
M  V30 2255 O 224.08 1.01622 1.91055 0
M  V30 2256 C 224.675 3.35436 -0.476271 0
M  V30 2257 C 223.234 3.76182 -0.128113 0
M  V30 2258 C 222.381 2.66344 -0.771777 0
M  V30 2259 H 225.332 1.32656 -0.871098 0
M  V30 2260 H 225.353 3.79515 0.273561 0
M  V30 2261 H 224.865 3.5639 -1.53647 0
M  V30 2262 H 222.966 3.60836 0.928891 0
M  V30 2263 H 223.079 4.75766 -0.564231 0
M  V30 2264 H 221.443 2.53885 -0.203652 0
M  V30 2265 H 222.226 2.90123 -1.83531 0
M  V30 2266 N 224.671 0.411399 1.52136 0
M  V30 2267 C 225.619 -0.427633 2.28635 0
M  V30 2268 C 226.613 -1.04383 1.33419 0
M  V30 2269 O 227.819 -0.981772 1.50868 0
M  V30 2270 H 224.194 -0.156689 0.735495 0
M  V30 2271 H 226.165 0.238761 2.97443 0
M  V30 2272 C 224.914 -1.53082 3.12188 0
M  V30 2273 H 224.237 -1.06601 3.85326 0
M  V30 2274 H 225.677 -2.09167 3.68816 0
M  V30 2275 C 224.136 -2.49946 2.25895 0
M  V30 2276 O 224.666 -3.53884 1.90076 0
M  V30 2277 N 222.872 -2.2021 1.8962 0
M  V30 2278 H 222.419 -1.35719 2.18948 0
M  V30 2279 H 222.377 -2.85266 1.32176 0
M  V30 2280 N 226.149 -1.5696 0.141893 0
M  V30 2281 C 227.374 -2.00754 -0.520838 0
M  V30 2282 C 227.799 -1.0213 -1.57959 0
M  V30 2283 O 227.157 0.00371324 -1.813 0
M  V30 2284 C 227.205 -3.43318 -1.10294 0
M  V30 2285 O 226.309 -3.47679 -2.21795 0
M  V30 2286 H 225.65 -0.651564 -0.127908 0
M  V30 2287 H 228.18 -2.03221 0.23712 0
M  V30 2288 H 228.19 -3.82012 -1.43287 0
M  V30 2289 H 226.865 -4.14608 -0.327574 0
M  V30 2290 H 225.442 -3.20824 -1.9007 0
M  V30 2291 N 227.627 0.131896 -1.57047 0
M  V30 2292 C 228.904 0.871495 -1.75112 0
M  V30 2293 C 229.284 1.9866 -0.713949 0
M  V30 2294 O 228.632 2.26965 0.264447 0
M  V30 2295 C 228.842 1.40007 -3.19686 0
M  V30 2296 C 230.19 1.85752 -3.81813 0
M  V30 2297 O 231.214 1.49715 -3.23209 0
M  V30 2298 O 230.073 2.5226 -4.84796 0
M  V30 2299 H 227.167 0.412919 -0.716538 0
M  V30 2300 H 229.713 0.116641 -1.69299 0
M  V30 2301 H 228.485 0.599404 -3.86682 0
M  V30 2302 H 228.108 2.218 -3.29986 0
M  V30 2303 N 229.106 1.52395 0.401703 0
M  V30 2304 C 230.054 1.7689 1.51039 0
M  V30 2305 C 231.048 0.636298 1.56996 0
M  V30 2306 O 232.254 0.818507 1.60314 0
M  V30 2307 H 228.629 0.559502 0.502456 0
M  V30 2308 H 230.6 2.69757 1.27568 0
M  V30 2309 C 229.349 1.94331 2.88324 0
M  V30 2310 H 228.672 2.80905 2.84486 0
M  V30 2311 H 230.112 2.15466 3.65172 0
M  V30 2312 C 228.571 0.712396 3.29282 0
M  V30 2313 O 229.101 -0.116218 4.01532 0
M  V30 2314 N 227.307 0.546154 2.85422 0
M  V30 2315 H 226.854 1.22156 2.26794 0
M  V30 2316 H 226.812 -0.276113 3.13185 0
M  V30 2317 N 230.584 -0.659388 1.43143 0
M  V30 2318 C 232 -0.974337 1.26407 0
M  V30 2319 C 232.2 -2.007 0.179341 0
M  V30 2320 O 231.256 -2.4856 -0.444295 0
M  V30 2321 C 232.569 -1.46447 2.62628 0
M  V30 2322 C 234.117 -1.58144 2.7011 0
M  V30 2323 C 234.592 -2.1055 4.06734 0
M  V30 2324 N 236.083 -2.17861 4.08767 0
M  V30 2325 C 236.818 -2.59519 5.1131 0
M  V30 2326 N 236.314 -3.00518 6.24228 0
M  V30 2327 N 238.107 -2.59404 4.98664 0
M  V30 2328 H 230.258 0.0240528 2.12386 0
M  V30 2329 H 232.521 -0.0518065 0.946583 0
M  V30 2330 H 232.227 -0.780123 3.42939 0
M  V30 2331 H 232.101 -2.44058 2.87603 0
M  V30 2332 H 234.488 -2.25682 1.90136 0
M  V30 2333 H 234.569 -0.589828 2.48907 0
M  V30 2334 H 234.213 -1.43616 4.87172 0
M  V30 2335 H 234.143 -3.10531 4.25298 0
M  V30 2336 H 236.634 -1.88975 3.27257 0
M  V30 2337 H 236.947 -3.31036 6.98309 0
M  V30 2338 H 235.292 -2.98337 6.2771 0
M  V30 2339 H 238.483 -2.26747 4.09516 0
M  V30 2340 H 238.656 -2.91548 5.78709 0
M  V30 2341 N 232.062 -1.29571 -0.897171 0
M  V30 2342 C 233.478 -1.07637 -1.17841 0
M  V30 2343 C 233.678 0.170713 -2.00776 0
M  V30 2344 O 232.734 0.867768 -2.3712 0
M  V30 2345 C 234.047 -2.3332 -1.8969 0
M  V30 2346 C 235.595 -2.38664 -2.02505 0
M  V30 2347 C 236.07 -3.64157 -2.77765 0
M  V30 2348 N 237.561 -3.64894 -2.85318 0
M  V30 2349 C 238.296 -4.58679 -3.44094 0
M  V30 2350 N 237.792 -5.62799 -4.04017 0
M  V30 2351 N 239.585 -4.46245 -3.41793 0
M  V30 2352 H 231.736 -2.09598 -0.343883 0
M  V30 2353 H 233.999 -0.923333 -0.214848 0
M  V30 2354 H 233.705 -3.24262 -1.36187 0
M  V30 2355 H 233.579 -2.41025 -2.9015 0
M  V30 2356 H 235.966 -1.48208 -2.55183 0
M  V30 2357 H 236.047 -2.34943 -1.01171 0
M  V30 2358 H 235.691 -4.54965 -2.25763 0
M  V30 2359 H 235.621 -3.65137 -3.7945 0
M  V30 2360 H 238.112 -2.89613 -2.42761 0
M  V30 2361 H 238.425 -6.3048 -4.46895 0
M  V30 2362 H 236.77 -5.66605 -4.02472 0
M  V30 2363 H 239.961 -3.64094 -2.94199 0
M  V30 2364 H 240.134 -5.19518 -3.87304 0
M  V30 2365 N 233.54 1.10788 -1.12088 0
M  V30 2366 C 234.472 2.16816 -0.743213 0
M  V30 2367 C 235.485 1.6119 0.228412 0
M  V30 2368 O 236.674 1.78497 0.0102931 0
M  V30 2369 C 233.774 3.38809 -0.0787313 0
M  V30 2370 C 232.947 4.23885 -1.0789 0
M  V30 2371 C 232.006 5.24334 -0.442713 0
M  V30 2372 O 231.032 5.58497 -1.09864 0
M  V30 2373 N 232.234 5.75079 0.791457 0
M  V30 2374 H 234.999 2.49825 -1.65552 0
M  V30 2375 H 232.56 1.26373 -1.012 0
M  V30 2376 H 234.552 4.03107 0.358766 0
M  V30 2377 H 233.122 3.03805 0.736275 0
M  V30 2378 H 232.342 3.55939 -1.69414 0
M  V30 2379 H 233.63 4.77562 -1.75533 0
M  V30 2380 H 233.028 5.49517 1.3434 0
M  V30 2381 H 231.585 6.4118 1.17183 0
M  V30 2382 N 235.018 0.912232 1.28515 0
M  V30 2383 C 236.266 0.543523 1.94654 0
M  V30 2384 C 236.587 -0.9155 1.72173 0
M  V30 2385 O 235.857 -1.64708 1.06058 0
M  V30 2386 H 234.437 0.198017 0.720277 0
M  V30 2387 H 237.099 1.16126 1.56527 0
M  V30 2388 H 236.195 0.736684 3.03281 0
M  V30 2389 N 236.496 -1.42363 0.676048 0
M  V30 2390 C 237.744 -2.01123 0.198437 0
M  V30 2391 C 238.065 -1.53731 -1.19966 0
M  V30 2392 O 237.335 -0.759518 -1.80577 0
M  V30 2393 H 235.915 -0.743678 0.0703721 0
M  V30 2394 H 238.577 -1.74263 0.872837 0
M  V30 2395 H 237.673 -3.11454 0.200686 0
M  V30 2396 N 237.974 -0.419461 -1.51915 0
M  V30 2397 C 239.39 -0.0708431 -1.59443 0
M  V30 2398 C 239.59 1.41796 -1.43164 0
M  V30 2399 O 238.646 2.18596 -1.26381 0
M  V30 2400 C 239.959 -0.574991 -2.95151 0
M  V30 2401 C 241.507 -0.533867 -3.08413 0
M  V30 2402 C 241.982 -1.01469 -4.46618 0
M  V30 2403 N 243.473 -0.971939 -4.52888 0
M  V30 2404 C 244.208 -1.31505 -5.58116 0
M  V30 2405 N 243.704 -1.73014 -6.70849 0
M  V30 2406 N 245.497 -1.23436 -5.48379 0
M  V30 2407 H 237.648 -1.38836 -1.60743 0
M  V30 2408 H 239.911 -0.570998 -0.756747 0
M  V30 2409 H 239.617 -1.61597 -3.12377 0
M  V30 2410 H 239.491 0.00979777 -3.77199 0
M  V30 2411 H 241.878 0.498086 -2.90866 0
M  V30 2412 H 241.959 -1.15484 -2.28248 0
M  V30 2413 H 241.603 -2.04502 -4.6491 0
M  V30 2414 H 241.533 -0.370433 -5.25295 0
M  V30 2415 H 244.024 -0.666893 -3.71969 0
M  V30 2416 H 244.337 -1.97479 -7.47143 0
M  V30 2417 H 242.682 -1.76926 -6.72103 0
M  V30 2418 H 245.873 -0.908869 -4.59192 0
M  V30 2419 H 246.046 -1.50506 -6.30279 0
M  V30 2420 N 239.452 1.56882 -0.150215 0
M  V30 2421 C 240.362 2.20494 0.801222 0
M  V30 2422 C 241.378 1.19019 1.26927 0
M  V30 2423 O 242.554 1.51607 1.32579 0
M  V30 2424 C 239.619 2.81659 2.02161 0
M  V30 2425 C 238.68 3.9827 1.60249 0
M  V30 2426 C 237.913 4.56508 2.7647 0
M  V30 2427 O 238.136 4.13627 3.92771 0
M  V30 2428 O 237.07 5.46719 2.51757 0
M  V30 2429 H 240.896 3.02315 0.289717 0
M  V30 2430 H 238.481 1.49202 0.0769684 0
M  V30 2431 H 240.363 3.20522 2.73576 0
M  V30 2432 H 239.038 2.02849 2.52258 0
M  V30 2433 H 237.945 3.64117 0.858477 0
M  V30 2434 H 239.278 4.78609 1.14864 0
M  V30 2435 N 240.93 -0.123565 1.57115 0
M  V30 2436 C 242.346 -0.476961 1.52306 0
M  V30 2437 C 242.546 -1.82109 0.86248 0
M  V30 2438 O 241.602 -2.48586 0.442884 0
M  V30 2439 C 242.915 -0.465661 2.97073 0
M  V30 2440 C 244.463 -0.549534 3.08138 0
M  V30 2441 C 244.938 -0.568669 4.54456 0
M  V30 2442 N 246.429 -0.630237 4.58892 0
M  V30 2443 C 247.164 -0.666415 5.69514 0
M  V30 2444 N 246.66 -0.660514 6.89644 0
M  V30 2445 N 248.453 -0.709077 5.5761 0
M  V30 2446 H 240.604 0.757198 1.98445 0
M  V30 2447 H 242.867 0.278808 0.906074 0
M  V30 2448 H 242.573 0.454232 3.48754 0
M  V30 2449 H 242.447 -1.29513 3.54269 0
M  V30 2450 H 244.834 -1.45985 2.56461 0
M  V30 2451 H 244.915 0.307532 2.53945 0
M  V30 2452 H 244.559 0.337581 5.06777 0
M  V30 2453 H 244.489 -1.44256 5.06456 0
M  V30 2454 H 246.98 -0.641146 3.72421 0
M  V30 2455 H 247.293 -0.690616 7.69708 0
M  V30 2456 H 245.638 -0.628012 6.92157 0
M  V30 2457 H 248.829 -0.711019 4.62668 0
M  V30 2458 H 249.002 -0.733804 6.43832 0
M  V30 2459 N 242.408 -1.52605 -0.393616 0
M  V30 2460 C 243.338 -1.80022 -1.48709 0
M  V30 2461 C 244.319 -0.651995 -1.57108 0
M  V30 2462 O 245.504 -0.89913 -1.72132 0
M  V30 2463 C 242.634 -1.96492 -2.86371 0
M  V30 2464 C 241.588 -3.12161 -2.92813 0
M  V30 2465 C 240.914 -3.13877 -4.3288 0
M  V30 2466 C 242.214 -4.51322 -2.6288 0
M  V30 2467 H 243.908 -2.71589 -1.26015 0
M  V30 2468 H 241.454 -1.30684 -0.604778 0
M  V30 2469 H 243.407 -2.14255 -3.62867 0
M  V30 2470 H 242.131 -1.01611 -3.10391 0
M  V30 2471 H 240.79 -2.94173 -2.18764 0
M  V30 2472 H 240.438 -2.16687 -4.53933 0
M  V30 2473 H 240.138 -3.91576 -4.38112 0
M  V30 2474 H 241.662 -3.33789 -5.1129 0
M  V30 2475 H 243.076 -4.69435 -3.29096 0
M  V30 2476 H 241.473 -5.31053 -2.79468 0
M  V30 2477 H 242.543 -4.58353 -1.58242 0
M  V30 2478 N 243.887 0.651787 -1.4349 0
M  V30 2479 C 244.85 1.74647 -1.48429 0
M  V30 2480 C 245.85 1.56513 -0.368817 0
M  V30 2481 O 247.04 1.62385 -0.630623 0
M  V30 2482 C 244.172 3.13533 -1.33827 0
M  V30 2483 H 245.365 1.71649 -2.4592 0
M  V30 2484 H 242.918 0.863573 -1.30277 0
M  V30 2485 H 243.653 3.22142 -0.37349 0
M  V30 2486 H 243.438 3.28101 -2.14691 0
M  V30 2487 H 244.928 3.93356 -1.40218 0
M  V30 2488 N 245.365 1.30045 0.890287 0
M  V30 2489 C 246.59 1.21598 1.68014 0
M  V30 2490 C 247.015 -0.218678 1.86825 0
M  V30 2491 O 246.373 -1.15756 1.39536 0
M  V30 2492 C 246.421 1.94434 3.03691 0
M  V30 2493 O 245.525 1.2678 3.92429 0
M  V30 2494 H 244.866 0.420856 0.513592 0
M  V30 2495 H 247.396 1.71775 1.11151 0
M  V30 2496 H 247.406 2.03251 3.5377 0
M  V30 2497 H 246.081 2.98777 2.89318 0
M  V30 2498 H 244.658 1.26282 3.50866 0
M  V30 2499 N 246.843 -1.10192 1.12674 0
M  V30 2500 C 248.071 -1.85983 0.906527 0
M  V30 2501 C 248.486 -1.80783 -0.544333 0
M  V30 2502 O 247.843 -1.19834 -1.37645 0
M  V30 2503 C 247.894 -3.34281 1.37618 0
M  V30 2504 O 247.615 -3.39401 2.77017 0
M  V30 2505 C 249.116 -4.26938 1.19325 0
M  V30 2506 H 246.336 -0.587716 0.323775 0
M  V30 2507 H 248.88 -1.39284 1.49734 0
M  V30 2508 H 247.035 -3.78436 0.828539 0
M  V30 2509 H 247.449 -4.31838 2.97684 0
M  V30 2510 H 248.923 -5.29181 1.57071 0
M  V30 2511 H 249.4 -4.38995 0.134097 0
M  V30 2512 H 250.006 -3.8859 1.72852 0
M  V30 2513 N 248.321 -0.919034 -1.28029 0
M  V30 2514 C 249.269 -0.401753 -2.29104 0
M  V30 2515 C 250.263 0.509354 -1.61561 0
M  V30 2516 O 251.469 0.390014 -1.75724 0
M  V30 2517 H 247.844 -0.111331 -0.743713 0
M  V30 2518 H 249.815 -1.2672 -2.70156 0
M  V30 2519 C 248.564 0.338148 -3.46052 0
M  V30 2520 H 247.887 -0.353732 -3.98232 0
M  V30 2521 H 249.327 0.664653 -4.18758 0
M  V30 2522 C 247.786 1.54798 -2.99231 0
M  V30 2523 O 248.316 2.64696 -3.02157 0
M  V30 2524 N 246.522 1.3968 -2.54829 0
M  V30 2525 H 246.069 0.502698 -2.52647 0
M  V30 2526 H 246.027 2.20755 -2.23863 0
M  V30 2527 N 249.799 1.42003 -0.683588 0
M  V30 2528 C 251.076 1.95112 -0.138075 0
M  V30 2529 C 251.456 1.62359 1.34918 0
M  V30 2530 O 250.804 0.924311 2.08971 0
M  V30 2531 C 251.014 3.46505 -0.416581 0
M  V30 2532 C 252.362 4.23254 -0.337834 0
M  V30 2533 O 253.386 3.54468 -0.35082 0
M  V30 2534 O 252.245 5.45743 -0.287596 0
M  V30 2535 H 249.339 0.826961 -0.00797996 0
M  V30 2536 H 251.885 1.51784 -0.758924 0
M  V30 2537 H 250.657 3.63582 -1.4465 0
M  V30 2538 H 250.28 3.969 0.235839 0
M  V30 2539 N 251.277 0.427512 1.51691 0
M  V30 2540 C 252.224 -0.388867 2.275 0
M  V30 2541 C 253.194 -1.02532 1.30677 0
M  V30 2542 O 254.379 -1.0461 1.59566 0
M  V30 2543 C 251.519 -1.48954 3.11298 0
M  V30 2544 C 250.632 -0.872194 4.23104 0
M  V30 2545 C 249.767 -1.94709 4.94228 0
M  V30 2546 C 248.806 -1.30766 5.97969 0
M  V30 2547 N 247.943 -2.32349 6.62539 0
M  V30 2548 H 252.783 0.263997 2.96828 0
M  V30 2549 H 250.32 0.142033 1.46413 0
M  V30 2550 H 252.278 -2.13887 3.58201 0
M  V30 2551 H 250.908 -2.11217 2.44105 0
M  V30 2552 H 249.96 -0.111419 3.80237 0
M  V30 2553 H 251.272 -0.365264 4.97461 0
M  V30 2554 H 250.426 -2.67327 5.44629 0
M  V30 2555 H 249.165 -2.48773 4.1948 0
M  V30 2556 H 248.17 -0.566902 5.4687 0
M  V30 2557 H 249.395 -0.774483 6.74669 0
M  V30 2558 H 247.341 -2.85511 5.90609 0
M  V30 2559 H 247.258 -1.8652 7.3263 0
M  V30 2560 H 248.526 -3.04481 7.17574 0
M  V30 2561 N 252.755 -1.56801 0.158532 0
M  V30 2562 C 254.003 -1.96102 -0.488712 0
M  V30 2563 C 254.324 -1.04498 -1.64636 0
M  V30 2564 O 253.594 -0.108783 -1.95598 0
M  V30 2565 H 252.174 -0.724102 -0.183535 0
M  V30 2566 H 254.836 -1.93457 0.236728 0
M  V30 2567 H 253.932 -3.00097 -0.857219 0
M  V30 2568 N 254.233 0.115231 -1.57178 0
M  V30 2569 C 255.458 0.840354 -1.89612 0
M  V30 2570 C 255.883 1.72464 -0.750845 0
M  V30 2571 O 255.241 1.78826 0.298478 0
M  V30 2572 C 255.289 1.64654 -3.20814 0
M  V30 2573 O 254.393 2.7538 -3.06985 0
M  V30 2574 H 253.734 0.232158 -0.622092 0
M  V30 2575 H 256.264 0.0964977 -2.04372 0
M  V30 2576 H 256.274 2.03499 -3.53627 0
M  V30 2577 H 254.949 0.997416 -4.03763 0
M  V30 2578 H 253.526 2.3971 -2.85646 0
M  V30 2579 N 255.711 1.52812 0.385517 0
M  V30 2580 C 256.644 1.72592 1.49289 0
M  V30 2581 C 257.622 0.573819 1.52138 0
M  V30 2582 O 258.806 0.80404 1.70492 0
M  V30 2583 C 255.933 1.78669 2.87741 0
M  V30 2584 C 254.979 3.00455 3.02703 0
M  V30 2585 S 255.812 4.60366 2.73538 0
M  V30 2586 C 256.968 4.69263 4.14177 0
M  V30 2587 H 257.201 2.66248 1.32285 0
M  V30 2588 H 254.734 1.43148 0.578611 0
M  V30 2589 H 256.692 1.82855 3.67524 0
M  V30 2590 H 255.353 0.861 3.02069 0
M  V30 2591 H 254.546 3.01258 4.04054 0
M  V30 2592 H 254.148 2.94278 2.30817 0
M  V30 2593 H 256.44 4.48092 5.08153 0
M  V30 2594 H 257.383 5.71276 4.18388 0
M  V30 2595 H 257.791 3.98072 4.00249 0
M  V30 2596 N 257.189 -0.644168 1.43834 0
M  V30 2597 C 258.152 -1.73857 1.49353 0
M  V30 2598 C 259.152 -1.56315 0.377112 0
M  V30 2599 O 260.342 -1.62048 0.639226 0
M  V30 2600 C 257.474 -3.12819 1.35488 0
M  V30 2601 H 258.667 -1.70342 2.46827 0
M  V30 2602 H 256.22 -0.856652 1.30733 0
M  V30 2603 H 256.955 -3.2194 0.390569 0
M  V30 2604 H 256.74 -3.26958 2.16428 0
M  V30 2605 H 258.23 -3.92606 1.42302 0
M  V30 2606 N 258.668 -1.30515 -0.883378 0
M  V30 2607 C 259.601 -1.11359 -1.99184 0
M  V30 2608 C 260.579 -0.0207858 -1.62587 0
M  V30 2609 O 261.763 -0.174646 -1.87689 0
M  V30 2610 C 258.89 -0.69871 -3.31415 0
M  V30 2611 C 257.936 -1.79261 -3.86998 0
M  V30 2612 S 258.769 -3.39536 -4.14096 0
M  V30 2613 C 259.925 -2.99954 -5.49344 0
M  V30 2614 H 260.158 -2.052 -2.15128 0
M  V30 2615 H 257.691 -1.14847 -1.03196 0
M  V30 2616 H 259.649 -0.466075 -4.07846 0
M  V30 2617 H 258.31 0.220368 -3.13326 0
M  V30 2618 H 257.503 -1.45464 -4.82552 0
M  V30 2619 H 257.105 -1.97961 -3.17313 0
M  V30 2620 H 259.397 -2.48013 -6.30473 0
M  V30 2621 H 260.34 -3.9442 -5.8808 0
M  V30 2622 H 260.748 -2.37775 -5.1198 0
M  V30 2623 N 260.146 1.09593 -1.13257 0
M  V30 2624 C 261.056 2.19739 -0.821691 0
M  V30 2625 C 262.072 1.72926 0.19302 0
M  V30 2626 O 263.248 2.01385 0.0244895 0
M  V30 2627 C 260.313 3.45482 -0.290333 0
M  V30 2628 C 259.374 4.06985 -1.36607 0
M  V30 2629 C 258.607 5.26726 -0.859975 0
M  V30 2630 O 258.83 5.69594 0.303082 0
M  V30 2631 O 257.764 5.7931 -1.63351 0
M  V30 2632 H 261.59 2.48781 -1.74189 0
M  V30 2633 H 259.175 1.18496 -0.909894 0
M  V30 2634 H 261.057 4.214 0.000674022 0
M  V30 2635 H 259.732 3.18047 0.602306 0
M  V30 2636 H 258.639 3.32712 -1.71037 0
M  V30 2637 H 259.972 4.38643 -2.23279 0
M  V30 2638 N 261.624 0.925811 1.2754 0
M  V30 2639 C 262.849 0.580924 1.99098 0
M  V30 2640 C 263.274 -0.833555 1.68622 0
M  V30 2641 O 262.632 -1.55903 0.925422 0
M  V30 2642 C 262.68 0.811186 3.51358 0
M  V30 2643 O 261.784 -0.124129 4.12213 0
M  V30 2644 H 261.125 0.223873 0.625122 0
M  V30 2645 H 263.655 1.24455 1.62395 0
M  V30 2646 H 263.665 0.72601 4.01489 0
M  V30 2647 H 262.34 1.84227 3.72872 0
M  V30 2648 H 260.917 0.0108006 3.72898 0
M  V30 2649 N 263.102 -1.41638 0.69111 0
M  V30 2650 C 264.065 -2.29178 0.0319786 0
M  V30 2651 C 265.065 -1.44153 -0.712496 0
M  V30 2652 O 266.255 -1.65354 -0.548053 0
M  V30 2653 C 263.387 -3.26952 -0.965161 0
M  V30 2654 H 264.58 -2.88959 0.802681 0
M  V30 2655 H 262.133 -1.4955 0.454356 0
M  V30 2656 H 262.868 -2.72142 -1.76378 0
M  V30 2657 H 262.653 -3.89685 -0.434522 0
M  V30 2658 H 264.143 -3.92561 -1.42428 0
M  V30 2659 N 264.58 -0.43555 -1.51462 0
M  V30 2660 C 265.527 0.376797 -2.27703 0
M  V30 2661 C 266.497 1.01838 -1.31219 0
M  V30 2662 O 267.682 1.03762 -1.60119 0
M  V30 2663 C 264.822 1.47301 -3.12084 0
M  V30 2664 C 263.935 0.849744 -4.2356 0
M  V30 2665 C 263.07 1.92086 -4.95254 0
M  V30 2666 C 262.109 1.27593 -5.98654 0
M  V30 2667 N 261.246 2.28833 -6.63762 0
M  V30 2668 H 266.086 -0.279734 -2.96684 0
M  V30 2669 H 263.623 -0.149795 -1.46335 0
M  V30 2670 H 265.581 2.11984 -3.59331 0
M  V30 2671 H 264.211 2.0992 -2.45221 0
M  V30 2672 H 263.263 0.0912529 -3.80291 0
M  V30 2673 H 264.575 0.338878 -4.97648 0
M  V30 2674 H 263.729 2.64435 -5.46039 0
M  V30 2675 H 262.468 2.46545 -4.20793 0
M  V30 2676 H 261.473 0.537893 -5.47162 0
M  V30 2677 H 262.698 0.738693 -6.7507 0
M  V30 2678 H 260.644 2.82375 -5.92115 0
M  V30 2679 H 260.561 1.82632 -7.33608 0
M  V30 2680 H 261.829 3.00671 -7.19178 0
M  V30 2681 N 266.058 1.56714 -0.166846 0
M  V30 2682 C 266.968 2.21331 0.777791 0
M  V30 2683 C 267.984 1.20358 1.25658 0
M  V30 2684 O 269.16 1.53005 1.30964 0
M  V30 2685 C 266.225 2.83787 1.99163 0
M  V30 2686 C 265.286 3.99947 1.56016 0
M  V30 2687 C 264.519 4.59415 2.71613 0
M  V30 2688 O 264.742 4.17769 3.88362 0
M  V30 2689 O 263.676 5.49359 2.45945 0
M  V30 2690 H 267.502 3.02605 0.257636 0
M  V30 2691 H 265.087 1.49275 0.0611393 0
M  V30 2692 H 266.969 3.23405 2.70161 0
M  V30 2693 H 265.644 2.05513 2.50092 0
M  V30 2694 H 264.551 3.65007 0.819809 0
M  V30 2695 H 265.884 4.79801 1.09782 0
M  V30 2696 N 267.536 -0.106894 1.57237 0
M  V30 2697 C 268.764 -0.826389 1.8968 0
M  V30 2698 C 269.179 -1.72856 0.759353 0
M  V30 2699 O 268.536 -1.80503 -0.269263 0
M  V30 2700 C 268.587 -1.64967 3.21665 0
M  V30 2701 O 268.308 -0.783804 4.31031 0
M  V30 2702 C 269.809 -2.47326 3.67892 0
M  V30 2703 H 267.029 -0.236927 0.627779 0
M  V30 2704 H 269.573 -0.0876593 2.04312 0
M  V30 2705 H 267.728 -2.34103 3.08666 0
M  V30 2706 H 268.142 -1.35284 5.06753 0
M  V30 2707 H 269.616 -3.00604 4.6297 0
M  V30 2708 H 270.093 -3.25247 2.95146 0
M  V30 2709 H 270.699 -1.83411 3.83719 0
M  V30 2710 N 269.014 -1.53014 -0.377408 0
M  V30 2711 C 270.43 -1.42523 -0.718281 0
M  V30 2712 C 270.63 -0.55487 -1.9371 0
M  V30 2713 O 269.686 -0.0327593 -2.52479 0
M  V30 2714 C 270.999 -2.85546 -0.942539 0
M  V30 2715 C 272.547 -2.95101 -1.04329 0
M  V30 2716 C 273.022 -4.3916 -1.3001 0
M  V30 2717 N 274.513 -4.42536 -1.36806 0
M  V30 2718 C 275.248 -5.51097 -1.58364 0
M  V30 2719 N 274.744 -6.69724 -1.77317 0
M  V30 2720 N 276.537 -5.38657 -1.60638 0
M  V30 2721 H 268.688 -2.08116 0.424426 0
M  V30 2722 H 270.951 -0.939352 0.127759 0
M  V30 2723 H 270.657 -3.51499 -0.118929 0
M  V30 2724 H 270.531 -3.28493 -1.85397 0
M  V30 2725 H 272.918 -2.29309 -1.85745 0
M  V30 2726 H 272.999 -2.55566 -0.109505 0
M  V30 2727 H 272.643 -5.05521 -0.490991 0
M  V30 2728 H 272.573 -4.76258 -2.24691 0
M  V30 2729 H 275.064 -3.57039 -1.23821 0
M  V30 2730 H 275.377 -7.48233 -1.93306 0
M  V30 2731 H 273.722 -6.72732 -1.74518 0
M  V30 2732 H 276.913 -4.44948 -1.45391 0
M  V30 2733 H 277.086 -6.2333 -1.77098 0
M  V30 2734 N 270.492 0.636531 -1.44174 0
M  V30 2735 C 271.722 1.42146 -1.49927 0
M  V30 2736 C 272.13 1.88812 -0.121063 0
M  V30 2737 O 271.473 1.61126 0.882267 0
M  V30 2738 C 271.535 2.67883 -2.39748 0
M  V30 2739 C 271.199 2.43048 -3.8701 0
M  V30 2740 C 272.196 2.05216 -4.77684 0
M  V30 2741 C 269.881 2.56856 -4.3166 0
M  V30 2742 C 271.875 1.81512 -6.11009 0
M  V30 2743 C 269.562 2.32766 -5.65034 0
M  V30 2744 C 270.56 1.95152 -6.54526 0
M  V30 2745 O 270.248 1.71326 -7.85431 0
M  V30 2746 H 269.98 0.442567 -0.51099 0
M  V30 2747 H 272.534 0.786158 -1.8976 0
M  V30 2748 H 270.764 3.34032 -1.94832 0
M  V30 2749 H 272.453 3.29874 -2.36513 0
M  V30 2750 H 273.219 1.94111 -4.44462 0
M  V30 2751 H 269.098 2.85104 -3.62266 0
M  V30 2752 H 272.642 1.52077 -6.80822 0
M  V30 2753 H 268.539 2.43479 -5.97819 0
M  V30 2754 H 269.307 1.85616 -7.97176 0
M  V30 2755 N 271.97 1.30982 0.876444 0
M  V30 2756 C 273.21 1.21589 1.64303 0
M  V30 2757 C 273.574 -0.223962 1.90689 0
M  V30 2758 O 274.775 -0.44128 2.65153 0
M  V30 2759 C 273.046 2.03007 2.94148 0
M  V30 2760 S 274.605 2.10405 3.85065 0
M  V30 2761 H 271.423 0.433161 0.563819 0
M  V30 2762 H 274.025 1.65565 1.03964 0
M  V30 2763 H 272.729 3.06719 2.72675 0
M  V30 2764 H 272.26 1.59725 3.59515 0
M  V30 2765 H 274.275 1.23765 4.80517 0
M  V30 2766 N 273.449 -1.08991 1.13837 0
M  V30 2767 C 274.412 -2.13925 0.822715 0
M  V30 2768 C 275.412 -1.599 -0.1699 0
M  V30 2769 O 276.602 -1.74104 0.0577251 0
M  V30 2770 C 273.734 -3.40155 0.225318 0
M  V30 2771 H 274.927 -2.43358 1.75262 0
M  V30 2772 H 272.48 -1.24603 0.943594 0
M  V30 2773 H 273.215 -3.16352 -0.713594 0
M  V30 2774 H 273 -3.80661 0.940193 0
M  V30 2775 H 274.49 -4.17594 0.0214784 0
M  V30 2776 N 274.927 -0.932562 -1.27047 0
M  V30 2777 C 276.173 -0.576412 -1.94436 0
M  V30 2778 C 276.506 0.880891 -1.73072 0
M  V30 2779 O 275.781 1.62905 -1.06264 0
M  V30 2780 C 276.064 -0.909031 -3.48437 0
M  V30 2781 C 275.917 -2.42044 -3.79123 0
M  V30 2782 C 277.236 -0.418341 -4.38107 0
M  V30 2783 H 274.355 -0.210888 -0.706184 0
M  V30 2784 H 276.997 -1.16522 -1.50075 0
M  V30 2785 H 275.147 -0.407947 -3.86352 0
M  V30 2786 H 276.819 -2.99359 -3.50973 0
M  V30 2787 H 275.062 -2.86758 -3.25503 0
M  V30 2788 H 275.733 -2.6037 -4.86736 0
M  V30 2789 H 278.209 -0.847856 -4.0737 0
M  V30 2790 H 277.085 -0.679981 -5.44672 0
M  V30 2791 H 277.346 0.681642 -4.36814 0
M  V30 2792 N 276.405 1.4127 -0.698611 0
M  V30 2793 C 277.645 2.03044 -0.235062 0
M  V30 2794 C 278.009 1.54146 1.14468 0
M  V30 2795 O 279.21 2.07867 1.70425 0
M  V30 2796 C 277.481 3.56192 -0.293651 0
M  V30 2797 S 279.04 4.38696 0.0954053 0
M  V30 2798 H 275.858 0.704697 -0.0944648 0
M  V30 2799 H 278.46 1.72656 -0.917064 0
M  V30 2800 H 277.164 3.89274 -1.29977 0
M  V30 2801 H 276.695 3.91285 0.407397 0
M  V30 2802 H 278.71 4.78257 1.3223 0
M  V30 2803 N 277.883 0.443576 1.51229 0
M  V30 2804 C 278.831 -0.37904 2.29491 0
M  V30 2805 C 279.825 -1.0153 1.35603 0
M  V30 2806 O 281.031 -0.94955 1.52917 0
M  V30 2807 H 277.406 -0.141053 0.738653 0
M  V30 2808 H 279.377 0.301799 2.9687 0
M  V30 2809 C 278.126 -1.46426 3.15364 0
M  V30 2810 H 277.449 -0.984037 3.87501 0
M  V30 2811 H 278.889 -2.01297 3.7317 0
M  V30 2812 C 277.348 -2.45099 2.31146 0
M  V30 2813 O 277.878 -3.49773 1.9754 0
M  V30 2814 N 276.084 -2.16139 1.94249 0
M  V30 2815 H 275.631 -1.31044 2.21777 0
M  V30 2816 H 275.589 -2.82398 1.38198 0
M  V30 2817 N 279.361 -1.56624 0.175154 0
M  V30 2818 C 280.638 -1.88688 -0.515373 0
M  V30 2819 C 281.018 -1.08564 -1.81044 0
M  V30 2820 O 280.366 -0.180703 -2.27784 0
M  V30 2821 C 280.576 -3.40768 -0.753552 0
M  V30 2822 C 281.924 -4.10587 -1.08184 0
M  V30 2823 O 282.948 -3.46106 -0.841961 0
M  V30 2824 O 281.807 -5.24512 -1.53459 0
M  V30 2825 H 278.901 -0.78301 -0.26613 0
M  V30 2826 H 281.447 -1.68347 0.213877 0
M  V30 2827 H 280.219 -3.90965 0.161829 0
M  V30 2828 H 279.842 -3.66733 -1.53598 0
M  V30 2829 N 280.839 0.0985539 -1.57292 0
M  V30 2830 C 282.069 0.815135 -1.8984 0
M  V30 2831 C 282.477 1.7297 -0.766679 0
M  V30 2832 O 281.82 1.81698 0.270483 0
M  V30 2833 C 281.882 1.6842 -3.17608 0
M  V30 2834 C 281.546 0.94182 -4.4719 0
M  V30 2835 C 282.543 0.273212 -5.19182 0
M  V30 2836 C 280.228 0.916927 -4.9386 0
M  V30 2837 C 282.222 -0.410361 -6.36078 0
M  V30 2838 C 279.909 0.229567 -6.10669 0
M  V30 2839 C 280.907 -0.432902 -6.81627 0
M  V30 2840 O 280.595 -1.10925 -7.9621 0
M  V30 2841 H 280.327 0.238501 -0.632529 0
M  V30 2842 H 282.881 0.0812659 -2.05239 0
M  V30 2843 H 281.111 2.46022 -2.98345 0
M  V30 2844 H 282.8 2.27704 -3.36015 0
M  V30 2845 H 283.566 0.283927 -4.84168 0
M  V30 2846 H 279.445 1.42201 -4.3852 0
M  V30 2847 H 282.989 -0.928013 -6.914 0
M  V30 2848 H 278.886 0.216686 -6.45136 0
M  V30 2849 H 279.654 -1.01579 -8.12172 0
M  V30 2850 N 282.317 1.53212 0.369288 0
M  V30 2851 C 283.28 1.7872 1.43498 0
M  V30 2852 C 284.28 0.657554 1.46741 0
M  V30 2853 O 285.47 0.925736 1.47566 0
M  V30 2854 C 282.602 1.90591 2.82645 0
M  V30 2855 H 283.795 2.73894 1.22156 0
M  V30 2856 H 281.348 1.44233 0.602203 0
M  V30 2857 H 282.083 0.974709 3.09306 0
M  V30 2858 H 281.868 2.72751 2.8169 0
M  V30 2859 H 283.358 2.11931 3.59826 0
M  V30 2860 N 283.795 -0.628877 1.44509 0
M  V30 2861 C 285.02 -1.42048 1.5112 0
M  V30 2862 C 285.445 -1.87594 0.137818 0
M  V30 2863 O 284.803 -1.58873 -0.873437 0
M  V30 2864 C 284.851 -2.61541 2.48251 0
M  V30 2865 O 283.955 -3.61453 1.98559 0
M  V30 2866 H 283.296 -0.424942 0.510216 0
M  V30 2867 H 285.826 -0.767374 1.89664 0
M  V30 2868 H 285.836 -3.09057 2.66361 0
M  V30 2869 H 284.511 -2.27736 3.48007 0
M  V30 2870 H 283.088 -3.20731 1.90227 0
M  V30 2871 N 285.273 -1.31445 -0.869486 0
M  V30 2872 C 286.521 -1.20918 -1.61936 0
M  V30 2873 C 286.842 0.232683 -1.93607 0
M  V30 2874 O 286.112 1.15352 -1.58338 0
M  V30 2875 H 284.692 -0.44454 -0.600328 0
M  V30 2876 H 287.354 -1.64776 -1.0409 0
M  V30 2877 H 286.45 -1.78124 -2.56278 0
M  V30 2878 N 286.751 1.08385 -1.14413 0
M  V30 2879 C 287.981 1.8425 -0.934644 0
M  V30 2880 C 288.389 1.81907 0.520234 0
M  V30 2881 O 287.732 1.22126 1.37226 0
M  V30 2882 C 287.794 3.32853 -1.35828 0
M  V30 2883 C 287.458 3.5893 -2.82875 0
M  V30 2884 C 288.455 3.53756 -3.80989 0
M  V30 2885 C 286.14 3.86934 -3.20293 0
M  V30 2886 C 288.134 3.76216 -5.14529 0
M  V30 2887 C 285.821 4.09047 -4.54008 0
M  V30 2888 C 286.819 4.03682 -5.50936 0
M  V30 2889 O 286.507 4.25214 -6.82238 0
M  V30 2890 H 286.239 0.588502 -0.332628 0
M  V30 2891 H 288.793 1.37792 -1.52324 0
M  V30 2892 H 287.023 3.8007 -0.713019 0
M  V30 2893 H 288.712 3.90154 -1.11957 0
M  V30 2894 H 289.478 3.32135 -3.53428 0
M  V30 2895 H 285.357 3.9023 -2.45442 0
M  V30 2896 H 288.901 3.71943 -5.90173 0
M  V30 2897 H 284.798 4.30151 -4.8129 0
M  V30 2898 H 285.566 4.42619 -6.88499 0
M  V30 2899 N 288.23 0.939286 1.26551 0
M  V30 2900 C 289.18 0.418284 2.2413 0
M  V30 2901 C 290.164 -0.483935 1.5345 0
M  V30 2902 O 291.356 -0.319489 1.74093 0
M  V30 2903 C 288.485 -0.31709 3.41832 0
M  V30 2904 C 287.571 0.602311 4.19801 0
M  V30 2905 N 287.962 1.72726 4.75394 0
M  V30 2906 C 286.26 0.407534 4.44134 0
M  V30 2907 C 286.961 2.30004 5.34297 0
M  V30 2908 N 285.937 1.58828 5.1988 0
M  V30 2909 H 289.739 1.27705 2.64705 0
M  V30 2910 H 287.253 0.794929 1.41614 0
M  V30 2911 H 289.25 -0.707364 4.10855 0
M  V30 2912 H 287.91 -1.17264 3.02786 0
M  V30 2913 H 288.921 2.10944 4.72994 0
M  V30 2914 H 285.598 -0.406406 4.15517 0
M  V30 2915 H 286.988 3.24778 5.88191 0
M  V30 2916 N 289.708 -1.40897 0.706093 0
M  V30 2917 C 290.938 -2.05075 0.250523 0
M  V30 2918 C 291.346 -1.53275 -1.10921 0
M  V30 2919 O 290.689 -0.680281 -1.7064 0
M  V30 2920 C 290.751 -3.59219 0.142178 0
M  V30 2921 C 290.415 -4.33864 1.43566 0
M  V30 2922 C 291.412 -4.62448 2.37566 0
M  V30 2923 C 289.097 -4.72946 1.69195 0
M  V30 2924 C 291.091 -5.29088 3.5545 0
M  V30 2925 C 288.778 -5.3932 2.87362 0
M  V30 2926 C 289.776 -5.6732 3.80312 0
M  V30 2927 O 289.464 -6.32325 4.96408 0
M  V30 2928 H 289.196 -0.666645 0.112074 0
M  V30 2929 H 291.75 -1.81467 0.962239 0
M  V30 2930 H 289.98 -3.81609 -0.6254 0
M  V30 2931 H 291.669 -4.0495 -0.277584 0
M  V30 2932 H 292.435 -4.32727 2.19027 0
M  V30 2933 H 288.314 -4.50527 0.977042 0
M  V30 2934 H 291.858 -5.50859 4.28018 0
M  V30 2935 H 287.755 -5.68461 3.05814 0
M  V30 2936 H 288.523 -6.50821 4.9636 0
M  V30 2937 N 291.186 -0.45159 -1.50991 0
M  V30 2938 C 292.434 0.109857 -2.01801 0
M  V30 2939 C 292.755 1.41958 -1.3369 0
M  V30 2940 O 292.025 1.9003 -0.475951 0
M  V30 2941 H 290.605 0.0435884 -0.745727 0
M  V30 2942 H 293.267 -0.597557 -1.85514 0
M  V30 2943 H 292.363 0.275489 -3.10882 0
M  V30 2944 N 292.664 1.56529 -0.183458 0
M  V30 2945 C 293.91 1.97537 0.459036 0
M  V30 2946 C 294.243 1.06989 1.62071 0
M  V30 2947 O 293.518 0.11948 1.94133 0
M  V30 2948 C 293.801 3.47874 0.930368 0
M  V30 2949 C 293.654 4.492 -0.232317 0
M  V30 2950 C 294.973 4.01612 1.79989 0
M  V30 2951 H 292.092 0.718204 0.165383 0
M  V30 2952 H 294.734 1.88042 -0.272038 0
M  V30 2953 H 292.884 3.56095 1.55333 0
M  V30 2954 H 294.556 4.53027 -0.86972 0
M  V30 2955 H 292.799 4.24657 -0.885928 0
M  V30 2956 H 293.47 5.51823 0.139796 0
M  V30 2957 H 295.946 3.96097 1.27461 0
M  V30 2958 H 294.822 5.07195 2.09867 0
M  V30 2959 H 295.083 3.46163 2.74998 0
M  V30 2960 N 294.142 -0.090211 1.57342 0
M  V30 2961 C 295.388 -0.788838 1.8748 0
M  V30 2962 C 295.743 -1.76105 0.7749 0
M  V30 2963 O 295.036 -1.90302 -0.222663 0
M  V30 2964 C 295.23 -1.55222 3.21933 0
M  V30 2965 C 295.059 -0.655441 4.44898 0
M  V30 2966 C 293.829 -0.299325 5.04413 0
M  V30 2967 C 296.027 0.0397458 5.14285 0
M  V30 2968 N 294.009 0.605108 6.10911 0
M  V30 2969 C 295.38 0.802061 6.1479 0
M  V30 2970 C 297.435 0.113154 4.97771 0
M  V30 2971 C 296.138 1.63093 7.00566 0
M  V30 2972 C 298.164 0.928942 5.84059 0
M  V30 2973 C 297.526 1.67936 6.84088 0
M  V30 2974 H 293.625 -0.26467 0.735849 0
M  V30 2975 H 296.209 -0.0511453 1.94633 0
M  V30 2976 H 294.38 -2.26076 3.15823 0
M  V30 2977 H 296.112 -2.19843 3.39781 0
M  V30 2978 H 292.867 -0.648079 4.69145 0
M  V30 2979 H 293.291 1.05002 6.68808 0
M  V30 2980 H 297.933 -0.452676 4.2037 0
M  V30 2981 H 295.651 2.20781 7.77355 0
M  V30 2982 H 299.237 0.988478 5.73341 0
M  V30 2983 H 298.117 2.30044 7.49699 0
M  V30 2984 N 295.62 -1.53406 -0.361157 0
M  V30 2985 C 296.845 -1.74024 -1.12829 0
M  V30 2986 C 297.27 -0.470069 -1.82132 0
M  V30 2987 O 296.628 0.57619 -1.719 0
M  V30 2988 C 296.676 -2.90903 -2.13091 0
M  V30 2989 O 295.78 -2.59821 -3.20261 0
M  V30 2990 H 295.121 -0.577804 -0.327168 0
M  V30 2991 H 297.651 -2.00307 -0.41693 0
M  V30 2992 H 297.661 -3.17194 -2.56616 0
M  V30 2993 H 296.336 -3.83034 -1.62042 0
M  V30 2994 H 294.913 -2.44362 -2.81677 0
M  V30 2995 N 297.098 0.621204 -1.44841 0
M  V30 2996 C 298.338 1.39201 -1.49674 0
M  V30 2997 C 298.702 1.91561 -0.129764 0
M  V30 2998 O 299.903 2.68748 -0.0527814 0
M  V30 2999 C 298.174 2.519 -2.53537 0
M  V30 3000 S 299.733 3.39916 -2.77494 0
M  V30 3001 H 296.551 0.474758 -0.529269 0
M  V30 3002 H 299.153 0.718171 -1.81831 0
M  V30 3003 H 297.857 2.11761 -3.51547 0
M  V30 3004 H 297.388 3.241 -2.22986 0
M  V30 3005 H 299.403 4.49646 -2.0984 0
M  V30 3006 N 298.576 1.31904 0.862503 0
M  V30 3007 C 299.486 1.22161 2.00285 0
M  V30 3008 C 300.502 0.136785 1.73462 0
M  V30 3009 O 301.678 0.355994 1.98229 0
M  V30 3010 C 298.743 0.937093 3.33796 0
M  V30 3011 C 297.804 2.10957 3.73893 0
M  V30 3012 C 297.037 1.83853 5.01033 0
M  V30 3013 O 297.26 0.777274 5.65079 0
M  V30 3014 O 296.194 2.69741 5.38074 0
M  V30 3015 H 300.02 2.18008 2.11439 0
M  V30 3016 H 297.605 1.11716 0.991957 0
M  V30 3017 H 299.487 0.794583 4.13841 0
M  V30 3018 H 298.162 0.00871894 3.23699 0
M  V30 3019 H 297.069 2.30752 2.94456 0
M  V30 3020 H 298.402 3.02046 3.88625 0
M  V30 3021 N 300.054 -1.07777 1.14986 0
M  V30 3022 C 301.302 -1.79934 0.920235 0
M  V30 3023 C 301.623 -1.86955 -0.554336 0
M  V30 3024 O 300.893 -1.36731 -1.40291 0
M  V30 3025 H 299.473 -0.666424 0.337473 0
M  V30 3026 H 302.135 -1.3027 1.44968 0
M  V30 3027 H 301.231 -2.82539 1.32583 0
M  V30 3028 N 301.532 -0.945985 -1.26051 0
M  V30 3029 C 302.772 -0.603665 -1.95282 0
M  V30 3030 C 303.136 0.842377 -1.72534 0
M  V30 3031 O 304.337 1.29387 -2.35611 0
M  V30 3032 C 302.608 -0.942292 -3.44754 0
M  V30 3033 S 304.167 -0.711242 -4.32997 0
M  V30 3034 H 300.985 -0.222176 -0.675395 0
M  V30 3035 H 303.587 -1.21832 -1.52896 0
M  V30 3036 H 302.291 -1.99203 -3.58812 0
M  V30 3037 H 301.822 -0.317546 -3.92116 0
M  V30 3038 H 303.837 0.422221 -4.944 0
M  V30 3039 N 303.011 1.40521 -0.713556 0
M  V30 3040 C 303.958 2.30723 -0.059684 0
M  V30 3041 C 304.928 1.48079 0.752448 0
M  V30 3042 O 306.113 1.76823 0.71681 0
M  V30 3043 C 303.253 3.34274 0.857594 0
M  V30 3044 C 302.366 4.31986 0.0351536 0
M  V30 3045 C 301.501 5.22605 0.951724 0
M  V30 3046 C 300.54 6.11976 0.123253 0
M  V30 3047 N 299.677 6.9502 0.99459 0
M  V30 3048 H 304.517 2.86074 -0.834596 0
M  V30 3049 H 302.054 1.40879 -0.42326 0
M  V30 3050 H 304.012 3.92879 1.40364 0
M  V30 3051 H 302.642 2.8043 1.59871 0
M  V30 3052 H 301.694 3.7518 -0.628052 0
M  V30 3053 H 303.006 4.95101 -0.606347 0
M  V30 3054 H 302.16 5.86131 1.56638 0
M  V30 3055 H 300.899 4.59759 1.62705 0
M  V30 3056 H 299.904 5.47482 -0.50435 0
M  V30 3057 H 301.129 6.76881 -0.548539 0
M  V30 3058 H 299.075 6.34764 1.6556 0
M  V30 3059 H 298.992 7.54892 0.40908 0
M  V30 3060 H 300.26 7.62997 1.59549 0
M  V30 3061 N 304.489 0.459591 1.5075 0
M  V30 3062 C 305.452 -0.329093 2.26825 0
M  V30 3063 C 306.452 -0.930481 1.31144 0
M  V30 3064 O 307.642 -0.801453 1.54669 0
M  V30 3065 C 304.774 -1.46768 3.07688 0
M  V30 3066 H 305.967 0.337924 2.9799 0
M  V30 3067 H 303.52 0.213336 1.54837 0
M  V30 3068 H 304.255 -2.17009 2.40993 0
M  V30 3069 H 304.04 -1.04238 3.77991 0
M  V30 3070 H 305.53 -2.02433 3.65254 0
M  V30 3071 N 305.967 -1.56429 0.191757 0
M  V30 3072 C 307.214 -1.97485 -0.447891 0
M  V30 3073 C 307.542 -1.07852 -1.61859 0
M  V30 3074 O 306.797 -0.116903 -1.95351 0
M  V30 3075 C 307.096 -3.44449 -0.953384 0
M  V30 3076 C 306.762 -4.50781 0.103586 0
M  V30 3077 C 305.424 -4.79584 0.394023 0
M  V30 3078 C 307.776 -5.1471 0.819946 0
M  V30 3079 C 305.104 -5.69607 1.40585 0
M  V30 3080 C 307.456 -6.05827 1.8209 0
M  V30 3081 C 306.12 -6.32987 2.11857 0
M  V30 3082 H 305.39 -0.722648 -0.163895 0
M  V30 3083 H 308.037 -1.89322 0.28802 0
M  V30 3084 H 306.342 -3.49666 -1.76751 0
M  V30 3085 H 308.039 -3.73569 -1.45765 0
M  V30 3086 H 304.629 -4.28394 -0.132951 0
M  V30 3087 H 308.813 -4.92552 0.608789 0
M  V30 3088 H 304.069 -5.88926 1.64243 0
M  V30 3089 H 308.243 -6.54424 2.38123 0
M  V30 3090 H 305.87 -7.02544 2.90407 0
M  V30 3091 N 307.445 0.0818655 -1.57387 0
M  V30 3092 C 308.692 0.782914 -1.86753 0
M  V30 3093 C 309.02 1.78082 -0.782118 0
M  V30 3094 O 308.275 1.94426 0.22295 0
M  V30 3095 C 308.574 1.53513 -3.22752 0
M  V30 3096 C 308.24 0.678134 -4.45771 0
M  V30 3097 C 306.902 0.441929 -4.79166 0
M  V30 3098 C 309.254 0.0832243 -5.21134 0
M  V30 3099 C 306.582 -0.398833 -5.85343 0
M  V30 3100 C 308.934 -0.744935 -6.28199 0
M  V30 3101 C 307.598 -0.991107 -6.60101 0
M  V30 3102 H 306.868 0.286489 -0.683378 0
M  V30 3103 H 309.515 0.0439808 -1.91449 0
M  V30 3104 H 307.82 2.34599 -3.138 0
M  V30 3105 H 309.517 2.08218 -3.42705 0
M  V30 3106 H 306.107 0.872357 -4.19628 0
M  V30 3107 H 310.291 0.252847 -4.95655 0
M  V30 3108 H 305.547 -0.598405 -6.08465 0
M  V30 3109 H 309.721 -1.21271 -6.8576 0
M  V30 3110 H 307.348 -1.64437 -7.42202 0
M  V30 3111 N 308.923 1.53595 0.353017 0
M  V30 3112 C 309.87 1.80919 1.43308 0
M  V30 3113 C 310.84 0.654288 1.5267 0
M  V30 3114 O 312.025 0.897759 1.6836 0
M  V30 3115 C 309.165 2.01605 2.80089 0
M  V30 3116 C 308.278 3.29321 2.79593 0
M  V30 3117 C 307.413 3.40125 4.0803 0
M  V30 3118 C 306.452 4.61826 4.01725 0
M  V30 3119 N 305.589 4.69716 5.21834 0
M  V30 3120 H 310.429 2.73074 1.19308 0
M  V30 3121 H 307.966 1.35263 0.578131 0
M  V30 3122 H 309.924 2.11586 3.59565 0
M  V30 3123 H 308.554 1.12772 3.0246 0
M  V30 3124 H 307.606 3.28229 1.92276 0
M  V30 3125 H 308.918 4.18884 2.70809 0
M  V30 3126 H 308.072 3.49488 4.95927 0
M  V30 3127 H 306.811 2.48601 4.19582 0
M  V30 3128 H 305.816 4.52552 3.12213 0
M  V30 3129 H 307.041 5.54705 3.91764 0
M  V30 3130 H 304.987 3.81097 5.33948 0
M  V30 3131 H 304.904 5.53202 5.1527 0
M  V30 3132 H 306.172 4.83376 6.11529 0
M  V30 3133 N 310.401 -0.613514 1.45168 0
M  V30 3134 C 311.817 -0.933629 1.29443 0
M  V30 3135 C 312.017 -2.00028 0.243101 0
M  V30 3136 O 311.073 -2.49848 -0.364992 0
M  V30 3137 C 312.386 -1.38018 2.67155 0
M  V30 3138 C 313.934 -1.49471 2.75004 0
M  V30 3139 C 314.409 -1.97503 4.13227 0
M  V30 3140 N 315.9 -2.04746 4.15491 0
M  V30 3141 C 316.635 -2.43121 5.19307 0
M  V30 3142 N 316.131 -2.80506 6.33473 0
M  V30 3143 N 317.924 -2.43408 5.06664 0
M  V30 3144 H 310.075 0.0916097 2.12202 0
M  V30 3145 H 312.338 -0.0216655 0.947752 0
M  V30 3146 H 312.044 -0.670625 3.45247 0
M  V30 3147 H 311.918 -2.34784 2.95222 0
M  V30 3148 H 314.305 -2.19519 1.9722 0
M  V30 3149 H 314.386 -0.510342 2.50657 0
M  V30 3150 H 314.03 -1.28045 4.91495 0
M  V30 3151 H 313.96 -2.96843 4.34962 0
M  V30 3152 H 316.451 -1.78468 3.33103 0
M  V30 3153 H 316.764 -3.08652 7.08487 0
M  V30 3154 H 315.109 -2.78216 6.36884 0
M  V30 3155 H 318.3 -2.13604 4.16523 0
M  V30 3156 H 318.473 -2.72989 5.87691 0
M  V30 3157 N 311.879 -1.3236 -0.855495 0
M  V30 3158 C 313.104 -1.2601 -1.64731 0
M  V30 3159 C 313.529 0.169068 -1.87339 0
M  V30 3160 O 312.887 1.12016 -1.42556 0
M  V30 3161 C 312.935 -2.02417 -2.98429 0
M  V30 3162 O 312.039 -1.3714 -3.8893 0
M  V30 3163 H 311.38 -0.434325 -0.502253 0
M  V30 3164 H 313.91 -1.74661 -1.06558 0
M  V30 3165 H 313.92 -2.12559 -3.48257 0
M  V30 3166 H 312.595 -3.06343 -2.81295 0
M  V30 3167 H 311.172 -1.3554 -3.47395 0
M  V30 3168 N 313.357 1.07166 -1.15556 0
M  V30 3169 C 314.606 1.79181 -0.926132 0
M  V30 3170 C 314.919 1.87768 0.547967 0
M  V30 3171 O 316.125 2.56323 0.895036 0
M  V30 3172 C 314.581 3.22 -1.60761 0
M  V30 3173 C 314.189 3.21607 -3.11886 0
M  V30 3174 C 315.933 3.9861 -1.4598 0
M  V30 3175 C 313.84 4.59092 -3.72812 0
M  V30 3176 H 312.77 0.67154 -0.342856 0
M  V30 3177 H 315.421 1.2027 -1.3859 0
M  V30 3178 H 313.803 3.81115 -1.07553 0
M  V30 3179 H 314.977 2.72127 -3.71865 0
M  V30 3180 H 313.292 2.58495 -3.2645 0
M  V30 3181 H 315.889 5.00225 -1.88888 0
M  V30 3182 H 316.232 4.143 -0.407541 0
M  V30 3183 H 316.765 3.45996 -1.96295 0
M  V30 3184 H 313.504 4.48606 -4.77946 0
M  V30 3185 H 313.024 5.08803 -3.17616 0
M  V30 3186 H 314.703 5.28059 -3.73848 0
M  V30 3187 N 314.835 0.952656 1.25548 0
M  V30 3188 C 315.767 0.428609 2.25157 0
M  V30 3189 C 316.78 -0.454428 1.56329 0
M  V30 3190 O 317.969 -0.263023 1.76552 0
M  V30 3191 C 315.069 -0.401972 3.36508 0
M  V30 3192 C 314.242 0.467601 4.34893 0
M  V30 3193 C 313.301 -0.30445 5.25319 0
M  V30 3194 O 312.327 0.296473 5.68427 0
M  V30 3195 N 313.529 -1.59805 5.5807 0
M  V30 3196 H 316.294 1.28497 2.70756 0
M  V30 3197 H 313.855 0.822798 1.39433 0
M  V30 3198 H 315.847 -0.926134 3.9396 0
M  V30 3199 H 314.417 -1.15918 2.90313 0
M  V30 3200 H 313.637 1.17288 3.76347 0
M  V30 3201 H 314.925 1.06119 4.97611 0
M  V30 3202 H 314.323 -2.10823 5.24948 0
M  V30 3203 H 312.88 -2.06822 6.18116 0
M  V30 3204 N 316.313 -1.40141 0.720998 0
M  V30 3205 C 317.561 -2.0039 0.262323 0
M  V30 3206 C 317.882 -1.57469 -1.15015 0
M  V30 3207 O 317.152 -0.816582 -1.78069 0
M  V30 3208 H 315.732 -0.741063 0.093996 0
M  V30 3209 H 318.394 -1.71398 0.927835 0
M  V30 3210 H 317.49 -3.10658 0.299671 0
M  V30 3211 N 317.792 -0.46758 -1.50504 0
M  V30 3212 C 318.742 0.34698 -2.25344 0
M  V30 3213 C 319.726 0.964469 -1.2879 0
M  V30 3214 O 320.918 0.8776 -1.53711 0
M  V30 3215 C 318.047 1.43042 -3.1208 0
M  V30 3216 C 317.133 0.82084 -4.16081 0
M  V30 3217 N 317.524 -0.0567602 -5.05768 0
M  V30 3218 C 315.822 1.08517 -4.32597 0
M  V30 3219 C 316.523 -0.402343 -5.80307 0
M  V30 3220 N 315.499 0.221607 -5.43148 0
M  V30 3221 H 319.301 -0.329129 -2.92051 0
M  V30 3222 H 316.815 -0.281508 -1.59942 0
M  V30 3223 H 318.812 2.02712 -3.64299 0
M  V30 3224 H 317.472 2.10856 -2.46921 0
M  V30 3225 H 318.483 -0.425349 -5.1615 0
M  V30 3226 H 315.16 1.75855 -3.78657 0
M  V30 3227 H 316.55 -1.11834 -6.62528 0
M  V30 3228 N 319.27 1.56325 -0.20005 0
M  V30 3229 C 320.218 2.20666 0.735482 0
M  V30 3230 C 321.212 1.17934 1.21605 0
M  V30 3231 O 322.418 1.36068 1.17837 0
M  V30 3232 H 318.793 0.70725 0.255542 0
M  V30 3233 H 320.764 2.9792 0.169166 0
M  V30 3234 C 319.513 2.88391 1.94232 0
M  V30 3235 H 318.836 3.67185 1.58161 0
M  V30 3236 H 320.276 3.3684 2.57517 0
M  V30 3237 C 318.735 1.89692 2.78421 0
M  V30 3238 O 319.265 1.40032 3.76502 0
M  V30 3239 N 317.471 1.57813 2.44015 0
M  V30 3240 H 317.018 1.9839 1.64314 0
M  V30 3241 H 316.976 0.920325 3.00628 0
M  V30 3242 N 320.748 -0.0735177 1.57428 0
M  V30 3243 C 322.025 -0.805903 1.78226 0
M  V30 3244 C 322.405 -1.95874 0.787189 0
M  V30 3245 O 321.753 -2.2779 -0.180029 0
M  V30 3246 C 321.963 -1.28045 3.24662 0
M  V30 3247 C 323.311 -1.71453 3.88444 0
M  V30 3248 O 324.335 -1.37616 3.28543 0
M  V30 3249 O 323.194 -2.34093 4.93825 0
M  V30 3250 H 320.288 -0.386041 0.73137 0
M  V30 3251 H 322.834 -0.0537269 1.69615 0
M  V30 3252 H 321.606 -0.455476 3.8864 0
M  V30 3253 H 321.229 -2.094 3.37991 0
M  V30 3254 N 322.226 -1.5378 -0.344866 0
M  V30 3255 C 323.456 -1.74646 -1.10374 0
M  V30 3256 C 323.864 -0.48491 -1.8288 0
M  V30 3257 O 323.207 0.553062 -1.75177 0
M  V30 3258 C 323.269 -2.87145 -2.16306 0
M  V30 3259 C 322.933 -4.26795 -1.63386 0
M  V30 3260 C 323.93 -5.08412 -1.08688 0
M  V30 3261 C 321.615 -4.73276 -1.68272 0
M  V30 3262 C 323.609 -6.34609 -0.595792 0
M  V30 3263 C 321.296 -5.99446 -1.18776 0
M  V30 3264 C 322.294 -6.79946 -0.645215 0
M  V30 3265 O 321.982 -8.03745 -0.157626 0
M  V30 3266 H 321.714 -0.587112 -0.335075 0
M  V30 3267 H 324.268 -2.01403 -0.403252 0
M  V30 3268 H 322.498 -2.55909 -2.89909 0
M  V30 3269 H 324.187 -2.95992 -2.77747 0
M  V30 3270 H 324.953 -4.73666 -1.04236 0
M  V30 3271 H 320.832 -4.10677 -2.09442 0
M  V30 3272 H 324.376 -6.97389 -0.171654 0
M  V30 3273 H 320.273 -6.33687 -1.22928 0
M  V30 3274 H 321.041 -8.18038 -0.275037 0
M  V30 3275 N 323.704 0.605807 -1.45491 0
M  V30 3276 C 324.637 1.73022 -1.48791 0
M  V30 3277 C 325.615 1.58917 -0.344112 0
M  V30 3278 O 326.799 1.80453 -0.544876 0
M  V30 3279 C 323.926 3.10865 -1.34463 0
M  V30 3280 C 322.972 3.43554 -2.5273 0
M  V30 3281 S 323.805 3.38196 -4.15191 0
M  V30 3282 C 324.961 4.78616 -4.03333 0
M  V30 3283 H 325.194 1.69961 -2.43928 0
M  V30 3284 H 322.727 0.782611 -1.33096 0
M  V30 3285 H 324.685 3.90398 -1.26884 0
M  V30 3286 H 323.346 3.1144 -0.40794 0
M  V30 3287 H 322.539 4.43924 -2.38637 0
M  V30 3288 H 322.141 2.71541 -2.5718 0
M  V30 3289 H 324.433 5.68463 -3.68587 0
M  V30 3290 H 325.376 4.97767 -5.03621 0
M  V30 3291 H 325.784 4.54381 -3.34959 0
M  V30 3292 N 325.182 1.32811 0.848464 0
M  V30 3293 C 326.422 1.25046 1.61687 0
M  V30 3294 C 326.786 -0.183464 1.91121 0
M  V30 3295 O 327.987 -0.384937 2.66029 0
M  V30 3296 C 326.258 2.09201 2.89775 0
M  V30 3297 S 327.817 2.18526 3.80515 0
M  V30 3298 H 324.635 0.445023 0.554505 0
M  V30 3299 H 327.237 1.67733 1.00429 0
M  V30 3300 H 325.941 3.12433 2.66108 0
M  V30 3301 H 325.472 1.67315 3.56047 0
M  V30 3302 H 327.487 1.3393 4.77784 0
M  V30 3303 N 326.66 -1.06551 1.16123 0
M  V30 3304 C 328.071 -1.60768 0.949232 0
M  V30 3305 C 328.422 -1.89523 -0.507508 0
M  V30 3306 O 327.547 -1.66671 -1.38021 0
M  V30 3307 C 328.142 -2.92086 1.71671 0
M  V30 3308 C 326.701 -3.43015 1.54977 0
M  V30 3309 C 325.848 -2.16947 1.72711 0
M  V30 3310 H 328.799 -0.895354 1.31031 0
M  V30 3311 H 328.82 -3.6138 1.19099 0
M  V30 3312 H 328.332 -2.71127 2.7769 0
M  V30 3313 H 326.433 -3.69039 0.513873 0
M  V30 3314 H 326.546 -4.18516 2.33198 0
M  V30 3315 H 324.91 -2.27041 1.15431 0
M  V30 3316 H 325.693 -1.98473 2.80113 0
M  V30 3317 N 328.138 -0.959301 -1.25041 0
M  V30 3318 C 329.101 -0.487677 -2.23952 0
M  V30 3319 C 330.101 0.41119 -1.55454 0
M  V30 3320 O 331.291 0.207825 -1.72956 0
M  V30 3321 C 328.423 0.294807 -3.39623 0
M  V30 3322 H 329.616 -1.36198 -2.67189 0
M  V30 3323 H 327.169 -0.743042 -1.37508 0
M  V30 3324 H 327.904 1.18658 -3.01813 0
M  V30 3325 H 327.689 -0.35012 -3.90534 0
M  V30 3326 H 329.179 0.614089 -4.1306 0
M  V30 3327 N 329.616 1.39756 -0.72842 0
M  V30 3328 C 330.844 2.04948 -0.283528 0
M  V30 3329 C 331.259 1.54908 1.0793 0
M  V30 3330 O 330.616 0.711135 1.68075 0
M  V30 3331 C 330.667 3.60498 -0.268957 0
M  V30 3332 O 330.388 4.08695 -1.57798 0
M  V30 3333 C 331.889 4.4288 0.192912 0
M  V30 3334 H 329.109 0.659243 -0.125056 0
M  V30 3335 H 331.653 1.78927 -0.990226 0
M  V30 3336 H 329.808 3.85444 0.388801 0
M  V30 3337 H 330.222 5.02977 -1.48709 0
M  V30 3338 H 331.696 5.51791 0.151952 0
M  V30 3339 H 332.173 4.21418 1.23708 0
M  V30 3340 H 332.779 4.23069 -0.435039 0
M  V30 3341 N 331.094 0.475555 1.50254 0
M  V30 3342 C 332.042 -0.330276 2.30243 0
M  V30 3343 C 333.036 -0.986306 1.37726 0
M  V30 3344 O 334.242 -0.9169 1.54897 0
M  V30 3345 H 330.617 -0.125353 0.741479 0
M  V30 3346 H 332.588 0.364702 2.96163 0
M  V30 3347 C 331.337 -1.39704 3.18399 0
M  V30 3348 H 330.66 -0.901621 3.89501 0
M  V30 3349 H 332.1 -1.93336 3.77355 0
M  V30 3350 C 330.559 -2.4014 2.36293 0
M  V30 3351 O 331.089 -3.45504 2.04914 0
M  V30 3352 N 329.295 -2.1197 1.98789 0
M  V30 3353 H 328.842 -1.2631 2.24507 0
M  V30 3354 H 328.8 -2.79403 1.44157 0
M  V30 3355 N 332.573 -1.56217 0.208337 0
M  V30 3356 C 333.505 -2.1695 -0.739276 0
M  V30 3357 C 334.518 -1.13492 -1.1672 0
M  V30 3358 O 335.707 -1.40529 -1.10063 0
M  V30 3359 C 332.807 -2.72755 -2.01142 0
M  V30 3360 C 331.98 -4.0125 -1.74118 0
M  V30 3361 C 331.039 -4.41749 -2.85909 0
M  V30 3362 O 330.065 -5.08912 -2.54946 0
M  V30 3363 N 331.267 -4.06342 -4.14568 0
M  V30 3364 H 334.032 -2.98893 -0.219837 0
M  V30 3365 H 331.593 -1.61878 0.0268445 0
M  V30 3366 H 333.585 -2.96826 -2.75094 0
M  V30 3367 H 332.155 -1.95191 -2.4417 0
M  V30 3368 H 331.375 -3.85173 -0.838775 0
M  V30 3369 H 332.663 -4.851 -1.53477 0
M  V30 3370 H 332.061 -3.52345 -4.42571 0
M  V30 3371 H 330.618 -4.35335 -4.85105 0
M  V30 3372 N 334.051 0.0651679 -1.57465 0
M  V30 3373 C 335.291 0.768329 -1.8941 0
M  V30 3374 C 335.655 1.74406 -0.802894 0
M  V30 3375 O 336.856 2.49281 -1.0056 0
M  V30 3376 C 335.127 1.45199 -3.26576 0
M  V30 3377 S 336.686 2.1893 -3.80283 0
M  V30 3378 H 333.504 0.255359 -0.663561 0
M  V30 3379 H 336.106 0.024167 -1.95485 0
M  V30 3380 H 334.81 0.728123 -4.03889 0
M  V30 3381 H 334.341 2.23545 -3.23715 0
M  V30 3382 H 336.356 3.45551 -3.56102 0
M  V30 3383 N 335.529 1.53961 0.336706 0
M  V30 3384 C 336.757 1.75483 1.09605 0
M  V30 3385 C 337.172 0.4972 1.82136 0
M  V30 3386 O 336.529 -0.53149 1.74589 0
M  V30 3387 C 336.58 2.93943 2.10428 0
M  V30 3388 O 336.301 4.14842 1.40846 0
M  V30 3389 C 337.802 3.27571 2.98684 0
M  V30 3390 H 335.022 0.586166 0.326574 0
M  V30 3391 H 337.566 2.00808 0.38683 0
M  V30 3392 H 335.721 2.70929 2.76905 0
M  V30 3393 H 336.135 4.81383 2.08255 0
M  V30 3394 H 337.609 4.13791 3.6535 0
M  V30 3395 H 338.086 2.44168 3.65074 0
M  V30 3396 H 338.692 3.52615 2.37787 0
M  V30 3397 N 337.007 -0.598083 1.45811 0
M  V30 3398 C 338.256 -1.35295 1.49594 0
M  V30 3399 C 338.569 -1.95057 0.145679 0
M  V30 3400 O 339.775 -2.71431 0.0612099 0
M  V30 3401 C 338.231 -2.45124 2.63519 0
M  V30 3402 C 337.839 -1.91732 4.04899 0
M  V30 3403 C 339.583 -3.2205 2.76558 0
M  V30 3404 C 337.49 -2.991 5.1019 0
M  V30 3405 H 336.42 -0.508552 0.556679 0
M  V30 3406 H 339.071 -0.639977 1.71978 0
M  V30 3407 H 337.453 -3.19149 2.34435 0
M  V30 3408 H 338.627 -1.24352 4.43704 0
M  V30 3409 H 336.942 -1.27522 3.96393 0
M  V30 3410 H 339.539 -4.0215 3.52391 0
M  V30 3411 H 339.882 -3.73663 1.83526 0
M  V30 3412 H 340.415 -2.55127 3.05213 0
M  V30 3413 H 337.154 -2.52393 6.04961 0
M  V30 3414 H 336.674 -3.65017 4.75944 0
M  V30 3415 H 338.353 -3.63318 5.35359 0
M  V30 3416 N 338.485 -1.33259 -0.841409 0
M  V30 3417 C 339.762 -1.15174 -1.58096 0
M  V30 3418 C 340.142 0.282858 -2.09196 0
M  V30 3419 O 339.49 1.28151 -1.89181 0
M  V30 3420 C 339.7 -2.1907 -2.71679 0
M  V30 3421 C 341.048 -2.53093 -3.40924 0
M  V30 3422 O 342.072 -2.17717 -2.81918 0
M  V30 3423 O 340.931 -3.1379 -4.47435 0
M  V30 3424 H 338.025 -0.445303 -0.696875 0
M  V30 3425 H 340.571 -1.44833 -0.884385 0
M  V30 3426 H 339.343 -3.15443 -2.31541 0
M  V30 3427 H 338.966 -1.90481 -3.49002 0
M  V30 3428 N 339.963 1.05934 -1.16686 0
M  V30 3429 C 340.91 2.13499 -0.876748 0
M  V30 3430 C 341.88 1.65162 0.176299 0
M  V30 3431 O 343.065 1.90757 0.0407143 0
M  V30 3432 C 340.205 3.42912 -0.387967 0
M  V30 3433 C 339.318 4.04964 -1.50426 0
M  V30 3434 C 338.453 5.22266 -0.970125 0
M  V30 3435 C 337.492 5.76309 -2.06238 0
M  V30 3436 N 336.629 6.84922 -1.54356 0
M  V30 3437 H 341.469 2.37654 -1.7979 0
M  V30 3438 H 339.006 1.16598 -0.896843 0
M  V30 3439 H 340.964 4.17111 -0.086186 0
M  V30 3440 H 339.594 3.18963 0.496235 0
M  V30 3441 H 338.646 3.28277 -1.92193 0
M  V30 3442 H 339.958 4.41122 -2.32836 0
M  V30 3443 H 339.112 6.03506 -0.621743 0
M  V30 3444 H 337.851 4.87564 -0.115377 0
M  V30 3445 H 336.856 4.93704 -2.41942 0
M  V30 3446 H 338.081 6.13062 -2.92115 0
M  V30 3447 H 336.027 6.52131 -0.711406 0
M  V30 3448 H 335.944 7.20043 -2.30379 0
M  V30 3449 H 337.212 7.69832 -1.22387 0
M  V30 3450 N 341.441 0.965919 1.2453 0
M  V30 3451 C 342.389 0.486506 2.27455 0
M  V30 3452 C 343.383 -0.449041 1.6334 0
M  V30 3453 O 344.589 -0.324527 1.7705 0
M  V30 3454 H 340.964 0.138857 0.739069 0
M  V30 3455 H 342.935 1.3666 2.65267 0
M  V30 3456 C 341.684 -0.209481 3.47068 0
M  V30 3457 H 341.007 0.50129 3.96645 0
M  V30 3458 H 342.447 -0.508775 4.20936 0
M  V30 3459 C 340.906 -1.43586 3.0477 0
M  V30 3460 O 341.436 -2.53299 3.11773 0
M  V30 3461 N 339.642 -1.30126 2.59838 0
M  V30 3462 H 339.189 -0.408583 2.54339 0
M  V30 3463 H 339.147 -2.12294 2.31902 0
M  V30 3464 N 342.919 -1.39368 0.735821 0
M  V30 3465 C 344.335 -1.54204 0.411492 0
M  V30 3466 C 344.535 -1.70268 -1.07755 0
M  V30 3467 O 343.591 -1.70364 -1.86366 0
M  V30 3468 C 344.904 -2.75925 1.19523 0
M  V30 3469 C 346.452 -2.89761 1.18354 0
M  V30 3470 C 346.927 -4.14421 1.94986 0
M  V30 3471 N 348.418 -4.21462 1.92156 0
M  V30 3472 C 349.153 -5.16871 2.48258 0
M  V30 3473 N 348.649 -6.18063 3.13001 0
M  V30 3474 N 350.442 -5.09093 2.38287 0
M  V30 3475 H 342.593 -1.27189 1.70108 0
M  V30 3476 H 344.856 -0.616517 0.720147 0
M  V30 3477 H 344.562 -2.70401 2.24892 0
M  V30 3478 H 344.436 -3.68614 0.800222 0
M  V30 3479 H 346.823 -2.94777 0.137975 0
M  V30 3480 H 346.904 -1.98133 1.61793 0
M  V30 3481 H 346.548 -4.10166 2.99543 0
M  V30 3482 H 346.478 -5.05095 1.48953 0
M  V30 3483 H 348.969 -3.48979 1.44991 0
M  V30 3484 H 349.282 -6.87326 3.53275 0
M  V30 3485 H 347.627 -6.18448 3.17091 0
M  V30 3486 H 350.818 -4.28973 1.8735 0
M  V30 3487 H 350.991 -5.83272 2.82308 0
M  V30 3488 N 344.397 -0.483516 -1.5 0
M  V30 3489 C 345.813 -0.138404 -1.58999 0
M  V30 3490 C 346.013 1.35597 -1.4905 0
M  V30 3491 O 345.069 2.13039 -1.35539 0
M  V30 3492 C 346.382 -0.699658 -2.92447 0
M  V30 3493 C 347.93 -0.664195 -3.05872 0
M  V30 3494 C 348.405 -1.20321 -4.41913 0
M  V30 3495 N 349.896 -1.16315 -4.48358 0
M  V30 3496 C 350.631 -1.55058 -5.52037 0
M  V30 3497 N 350.127 -2.01311 -6.62907 0
M  V30 3498 N 351.92 -1.46584 -5.42651 0
M  V30 3499 H 344.071 -1.45529 -1.5471 0
M  V30 3500 H 346.334 -0.60258 -0.731848 0
M  V30 3501 H 346.04 -1.747 -3.05242 0
M  V30 3502 H 345.914 -0.150194 -3.76901 0
M  V30 3503 H 348.301 0.374272 -2.92717 0
M  V30 3504 H 348.382 -1.25061 -2.23144 0
M  V30 3505 H 348.026 -2.24037 -4.55818 0
M  V30 3506 H 347.956 -0.592896 -5.23252 0
M  V30 3507 H 350.447 -0.824058 -3.68806 0
M  V30 3508 H 350.76 -2.2899 -7.38095 0
M  V30 3509 H 349.105 -2.05273 -6.63994 0
M  V30 3510 H 352.296 -1.10281 -4.54924 0
M  V30 3511 H 352.469 -1.77103 -6.23329 0
M  V30 3512 N 345.875 1.56104 -0.216619 0
M  V30 3513 C 346.822 2.2007 0.695531 0
M  V30 3514 C 347.792 1.15471 1.19397 0
M  V30 3515 O 348.977 1.43807 1.25396 0
M  V30 3516 C 346.117 2.88073 1.90021 0
M  V30 3517 C 345.23 4.07253 1.44113 0
M  V30 3518 C 344.365 4.63052 2.603 0
M  V30 3519 C 343.404 5.74545 2.11103 0
M  V30 3520 N 342.541 6.24656 3.20545 0
M  V30 3521 H 347.381 2.97655 0.143327 0
M  V30 3522 H 344.918 1.46982 0.0589934 0
M  V30 3523 H 346.876 3.25681 2.60745 0
M  V30 3524 H 345.506 2.13015 2.42538 0
M  V30 3525 H 344.558 3.75164 0.628999 0
M  V30 3526 H 345.87 4.8783 1.04036 0
M  V30 3527 H 345.024 5.03078 3.39113 0
M  V30 3528 H 343.763 3.81628 3.03663 0
M  V30 3529 H 342.768 5.34027 1.3075 0
M  V30 3530 H 343.993 6.57801 1.68746 0
M  V30 3531 H 341.939 5.46148 3.63399 0
M  V30 3532 H 341.856 7.00343 2.84704 0
M  V30 3533 H 343.124 6.69338 3.99508 0
M  V30 3534 N 347.353 -0.0568162 1.57498 0
M  V30 3535 C 348.578 -0.769402 1.92601 0
M  V30 3536 C 349.003 -1.69559 0.814336 0
M  V30 3537 O 348.361 -1.79811 -0.231903 0
M  V30 3538 C 348.409 -1.52634 3.26704 0
M  V30 3539 O 347.513 -2.63797 3.16994 0
M  V30 3540 H 346.854 -0.208909 0.63028 0
M  V30 3541 H 349.384 -0.0205798 2.0459 0
M  V30 3542 H 349.394 -1.90234 3.60936 0
M  V30 3543 H 348.069 -0.846875 4.07186 0
M  V30 3544 H 346.646 -2.28943 2.94346 0
M  V30 3545 N 348.832 -1.54138 -0.328536 0
M  V30 3546 C 350.072 -1.73827 -1.07534 0
M  V30 3547 C 350.436 -0.498777 -1.85408 0
M  V30 3548 O 351.637 -0.572937 -2.62623 0
M  V30 3549 C 349.908 -2.97573 -1.97952 0
M  V30 3550 S 351.467 -3.38143 -2.79652 0
M  V30 3551 H 348.285 -0.611287 -0.36311 0
M  V30 3552 H 350.887 -1.92306 -0.351931 0
M  V30 3553 H 349.591 -3.85939 -1.39569 0
M  V30 3554 H 349.122 -2.81603 -2.74706 0
M  V30 3555 H 351.137 -2.93052 -4.00418 0
M  V30 3556 N 350.31 0.590341 -1.46126 0
M  V30 3557 C 351.242 1.71427 -1.52136 0
M  V30 3558 C 352.255 1.57542 -0.41042 0
M  V30 3559 O 353.444 1.65106 -0.678389 0
M  V30 3560 C 350.544 3.09605 -1.37834 0
M  V30 3561 C 349.717 3.49566 -2.62912 0
M  V30 3562 C 348.776 4.66773 -2.42918 0
M  V30 3563 O 347.802 4.73019 -3.1661 0
M  V30 3564 N 349.004 5.61161 -1.4859 0
M  V30 3565 H 351.769 1.66728 -2.49042 0
M  V30 3566 H 349.33 0.776113 -1.42085 0
M  V30 3567 H 351.322 3.85796 -1.22243 0
M  V30 3568 H 349.892 3.08714 -0.491393 0
M  V30 3569 H 349.112 2.63158 -2.93499 0
M  V30 3570 H 350.4 3.73028 -3.46017 0
M  V30 3571 H 349.798 5.58844 -0.87808 0
M  V30 3572 H 348.355 6.36814 -1.38965 0
M  V30 3573 N 351.788 1.33704 0.83433 0
M  V30 3574 C 352.751 1.24244 1.92603 0
M  V30 3575 C 353.751 0.160383 1.59998 0
M  V30 3576 O 354.941 0.412228 1.69252 0
M  V30 3577 C 352.073 0.91555 3.28376 0
M  V30 3578 H 353.266 2.21287 2.02416 0
M  V30 3579 H 350.819 1.17827 1.02696 0
M  V30 3580 H 351.554 -0.0521886 3.24258 0
M  V30 3581 H 351.339 1.69811 3.53422 0
M  V30 3582 H 352.829 0.874231 4.08347 0
M  V30 3583 N 353.266 -1.05314 1.17247 0
M  V30 3584 C 354.506 -1.79869 0.970898 0
M  V30 3585 C 354.87 -1.85594 -0.491808 0
M  V30 3586 O 356.071 -2.56229 -0.812409 0
M  V30 3587 C 354.342 -3.19937 1.59295 0
M  V30 3588 S 355.901 -4.10986 1.53741 0
M  V30 3589 H 352.719 -0.61949 0.348931 0
M  V30 3590 H 355.321 -1.26368 1.49169 0
M  V30 3591 H 354.025 -3.13372 2.65003 0
M  V30 3592 H 353.556 -3.78515 1.07191 0
M  V30 3593 H 355.571 -4.93203 0.544537 0
M  V30 3594 N 354.744 -0.972509 -1.24016 0
M  V30 3595 C 356.16 -0.679827 -1.44397 0
M  V30 3596 C 356.36 0.756716 -1.86751 0
M  V30 3597 O 355.416 1.53007 -2.00861 0
M  V30 3598 C 356.729 -1.66803 -2.50195 0
M  V30 3599 C 358.277 -1.68119 -2.64017 0
M  V30 3600 C 358.752 -2.65748 -3.73017 0
M  V30 3601 N 360.243 -2.64219 -3.8045 0
M  V30 3602 C 360.978 -3.36433 -4.64328 0
M  V30 3603 N 360.474 -4.1818 -5.52356 0
M  V30 3604 N 362.267 -3.25235 -4.58453 0
M  V30 3605 H 354.418 -1.90059 -0.948228 0
M  V30 3606 H 356.681 -0.818527 -0.478245 0
M  V30 3607 H 356.387 -2.69498 -2.25973 0
M  V30 3608 H 356.261 -1.4446 -3.48441 0
M  V30 3609 H 358.648 -0.661319 -2.87594 0
M  V30 3610 H 358.729 -1.94525 -1.66113 0
M  V30 3611 H 358.373 -3.67872 -3.50189 0
M  V30 3612 H 358.303 -2.36619 -4.70446 0
M  V30 3613 H 360.794 -2.04887 -3.17537 0
M  V30 3614 H 361.107 -4.70157 -6.13329 0
M  V30 3615 H 359.452 -4.22273 -5.52006 0
M  V30 3616 H 362.643 -2.60829 -3.88698 0
M  V30 3617 H 362.816 -3.81776 -5.23594 0
M  V30 3618 N 356.222 1.38976 -0.743202 0
M  V30 3619 C 357.152 2.33171 -0.123873 0
M  V30 3620 C 358.133 1.54336 0.71516 0
M  V30 3621 O 359.318 1.82696 0.658467 0
M  V30 3622 C 356.448 3.38474 0.777978 0
M  V30 3623 C 355.402 4.27979 0.0424758 0
M  V30 3624 C 354.728 5.2405 1.06189 0
M  V30 3625 C 356.028 5.10155 -1.1198 0
M  V30 3626 H 357.722 2.85213 -0.910709 0
M  V30 3627 H 355.268 1.37133 -0.439388 0
M  V30 3628 H 357.221 4.03328 1.22084 0
M  V30 3629 H 355.945 2.84891 1.59702 0
M  V30 3630 H 354.604 3.64616 -0.380853 0
M  V30 3631 H 354.252 4.66758 1.87472 0
M  V30 3632 H 353.952 5.84785 0.574485 0
M  V30 3633 H 355.476 5.9178 1.50428 0
M  V30 3634 H 356.89 5.68307 -0.75499 0
M  V30 3635 H 355.287 5.80073 -1.53738 0
M  V30 3636 H 356.357 4.44504 -1.93764 0
M  V30 3637 N 357.7 0.491464 1.49741 0
M  V30 3638 C 359.116 0.146835 1.58923 0
M  V30 3639 C 359.316 -1.34804 1.49767 0
M  V30 3640 O 358.372 -2.12317 1.36667 0
M  V30 3641 C 359.685 0.715157 2.92072 0
M  V30 3642 C 361.233 0.680407 3.05515 0
M  V30 3643 C 361.708 1.22663 4.41269 0
M  V30 3644 N 363.199 1.18691 4.47735 0
M  V30 3645 C 363.934 1.57984 5.51207 0
M  V30 3646 N 363.43 2.04824 6.6183 0
M  V30 3647 N 365.223 1.49459 5.41866 0
M  V30 3648 H 357.374 1.46347 1.53936 0
M  V30 3649 H 359.637 0.606453 0.728642 0
M  V30 3650 H 359.343 1.76317 3.04311 0
M  V30 3651 H 359.217 0.17018 3.76816 0
M  V30 3652 H 361.604 -0.358743 2.92911 0
M  V30 3653 H 361.685 1.26242 2.22478 0
M  V30 3654 H 361.329 2.26451 4.54623 0
M  V30 3655 H 361.259 0.620637 5.2293 0
M  V30 3656 H 363.75 0.843605 3.68364 0
M  V30 3657 H 364.063 2.32901 7.3687 0
M  V30 3658 H 362.408 2.08791 6.62896 0
M  V30 3659 H 365.599 1.12692 4.54333 0
M  V30 3660 H 365.772 1.80406 6.22381 0
M  V30 3661 N 359.178 -1.55987 0.224894 0
M  V30 3662 C 360.125 -2.20436 -0.68385 0
M  V30 3663 C 361.095 -1.16102 -1.18783 0
M  V30 3664 O 362.28 -1.4447 -1.24632 0
M  V30 3665 C 359.42 -2.89076 -1.88491 0
M  V30 3666 C 358.533 -4.08012 -1.41951 0
M  V30 3667 C 357.668 -4.64426 -2.5784 0
M  V30 3668 C 356.707 -5.75656 -2.08053 0
M  V30 3669 N 355.844 -6.26347 -3.17227 0
M  V30 3670 H 360.684 -2.97727 -0.12754 0
M  V30 3671 H 358.221 -1.47011 -0.0511978 0
M  V30 3672 H 360.179 -3.27059 -2.59014 0
M  V30 3673 H 358.809 -2.14298 -2.41405 0
M  V30 3674 H 357.861 -3.75492 -0.609095 0
M  V30 3675 H 359.173 -4.88375 -1.01447 0
M  V30 3676 H 358.327 -5.04869 -3.3644 0
M  V30 3677 H 357.066 -3.83233 -3.01635 0
M  V30 3678 H 356.071 -5.34712 -1.27916 0
M  V30 3679 H 357.296 -6.58686 -1.65255 0
M  V30 3680 H 355.242 -5.48067 -3.60497 0
M  V30 3681 H 355.159 -7.01843 -2.80986 0
M  V30 3682 H 356.427 -6.71447 -3.95953 0
M  V30 3683 N 360.656 0.0484629 -1.57525 0
M  V30 3684 C 361.896 0.748196 -1.90214 0
M  V30 3685 C 362.26 1.73545 -0.821347 0
M  V30 3686 O 363.461 2.48201 -1.03198 0
M  V30 3687 C 361.732 1.41727 -3.28098 0
M  V30 3688 S 363.291 2.14884 -3.82584 0
M  V30 3689 H 360.109 0.248307 -0.666232 0
M  V30 3690 H 362.711 0.00343188 -1.955 0
M  V30 3691 H 361.415 0.685244 -4.04639 0
M  V30 3692 H 360.946 2.20099 -3.26068 0
M  V30 3693 H 362.961 3.41755 -3.59747 0
M  V30 3694 N 362.134 1.5431 0.320358 0
M  V30 3695 C 363.364 1.7638 1.07582 0
M  V30 3696 C 363.772 0.513944 1.82086 0
M  V30 3697 O 363.115 -0.525123 1.76035 0
M  V30 3698 C 363.177 2.9055 2.1171 0
M  V30 3699 C 362.841 4.2934 1.56575 0
M  V30 3700 C 363.838 5.10077 1.00586 0
M  V30 3701 C 361.523 4.75893 1.60722 0
M  V30 3702 C 363.517 6.35477 0.494756 0
M  V30 3703 C 361.204 6.0126 1.09224 0
M  V30 3704 C 362.202 6.80886 0.53696 0
M  V30 3705 O 361.89 8.03894 0.0297371 0
M  V30 3706 H 361.622 0.592369 0.325692 0
M  V30 3707 H 364.176 2.02019 0.37116 0
M  V30 3708 H 362.406 2.60489 2.85801 0
M  V30 3709 H 364.095 3.00373 2.73003 0
M  V30 3710 H 364.861 4.75265 0.966869 0
M  V30 3711 H 360.74 4.13957 2.02882 0
M  V30 3712 H 364.284 6.97574 0.0606842 0
M  V30 3713 H 360.181 6.35562 1.12831 0
M  V30 3714 H 360.949 8.18372 0.14486 0
M  V30 3715 N 363.613 -0.582584 1.46437 0
M  V30 3716 C 364.523 -1.71949 1.59595 0
M  V30 3717 C 365.539 -1.67264 0.479443 0
M  V30 3718 O 366.715 -1.87171 0.743579 0
M  V30 3719 C 363.78 -3.08452 1.58298 0
M  V30 3720 C 362.841 -3.244 2.81182 0
M  V30 3721 C 362.074 -4.54391 2.79937 0
M  V30 3722 O 362.297 -5.38287 1.8869 0
M  V30 3723 O 361.231 -4.73588 3.71481 0
M  V30 3724 H 365.057 -1.63795 2.55744 0
M  V30 3725 H 362.642 -0.749643 1.29231 0
M  V30 3726 H 364.524 -3.89732 1.60271 0
M  V30 3727 H 363.199 -3.17043 0.653094 0
M  V30 3728 H 362.106 -2.42613 2.84763 0
M  V30 3729 H 363.439 -3.20699 3.7338 0
M  V30 3730 N 365.091 -1.34144 -0.827227 0
M  V30 3731 C 366.337 -1.26446 -1.58554 0
M  V30 3732 C 366.67 0.1664 -1.93486 0
M  V30 3733 O 365.945 1.1107 -1.59667 0
M  V30 3734 C 366.228 -2.15111 -2.8879 0
M  V30 3735 C 366.081 -3.66712 -2.60465 0
M  V30 3736 C 367.4 -2.03311 -3.90324 0
M  V30 3737 H 364.519 -0.46067 -0.575284 0
M  V30 3738 H 367.161 -1.64356 -0.953269 0
M  V30 3739 H 365.311 -1.8291 -3.42748 0
M  V30 3740 H 366.983 -4.09259 -2.1285 0
M  V30 3741 H 365.226 -3.88014 -1.93978 0
M  V30 3742 H 365.897 -4.24112 -3.53317 0
M  V30 3743 H 368.373 -2.31574 -3.45706 0
M  V30 3744 H 367.249 -2.67582 -4.79261 0
M  V30 3745 H 367.51 -1.00879 -4.30437 0
M  V30 3746 N 366.569 1.04691 -1.17803 0
M  V30 3747 C 367.817 1.7743 -0.967617 0
M  V30 3748 C 368.138 1.88359 0.504574 0
M  V30 3749 O 367.408 1.40402 1.36617 0
M  V30 3750 H 365.988 0.657242 -0.355024 0
M  V30 3751 H 368.65 1.2638 -1.48371 0
M  V30 3752 H 367.746 2.78924 -1.40027 0
M  V30 3753 N 368.047 0.979072 1.23499 0
M  V30 3754 C 368.98 0.463027 2.23453 0
M  V30 3755 C 369.958 -0.469128 1.55685 0
M  V30 3756 O 371.142 -0.397882 1.84253 0
M  V30 3757 C 368.269 -0.330308 3.37086 0
M  V30 3758 C 367.315 0.545795 4.22993 0
M  V30 3759 S 368.148 1.99285 4.97037 0
M  V30 3760 C 369.304 1.20862 6.1412 0
M  V30 3761 H 369.537 1.31005 2.6688 0
M  V30 3762 H 367.07 0.784965 1.32957 0
M  V30 3763 H 369.028 -0.782027 4.02982 0
M  V30 3764 H 367.689 -1.15244 2.92194 0
M  V30 3765 H 366.882 -0.0638928 5.03959 0
M  V30 3766 H 366.484 0.933705 3.62157 0
M  V30 3767 H 368.776 0.469284 6.75873 0
M  V30 3768 H 369.719 1.99307 6.79472 0
M  V30 3769 H 370.127 0.727992 5.59786 0
M  V30 3770 N 369.525 -1.3858 0.750561 0
M  V30 3771 C 370.458 -2.28095 0.0693139 0
M  V30 3772 C 371.436 -1.45217 -0.731491 0
M  V30 3773 O 372.62 -1.74587 -0.71076 0
M  V30 3774 C 369.747 -3.26282 -0.90871 0
M  V30 3775 C 368.793 -4.26056 -0.194507 0
M  V30 3776 S 369.626 -5.24026 1.10257 0
M  V30 3777 C 370.782 -6.2577 0.127542 0
M  V30 3778 H 371.015 -2.85526 0.8284 0
M  V30 3779 H 368.548 -1.44536 0.543014 0
M  V30 3780 H 370.506 -3.83367 -1.46766 0
M  V30 3781 H 369.167 -2.6784 -1.64075 0
M  V30 3782 H 368.36 -4.95249 -0.93512 0
M  V30 3783 H 367.962 -3.72852 0.292837 0
M  V30 3784 H 370.254 -6.73796 -0.707516 0
M  V30 3785 H 371.197 -7.03712 0.787044 0
M  V30 3786 H 371.605 -5.63938 -0.251803 0
M  V30 3787 N 371.003 -0.499398 -1.49478 0
M  V30 3788 C 371.95 0.279881 -2.29097 0
M  V30 3789 C 372.92 0.961805 -1.3542 0
M  V30 3790 O 374.105 0.968777 -1.64376 0
M  V30 3791 C 371.245 1.33932 -3.18051 0
M  V30 3792 C 370.358 0.669333 -4.26783 0
M  V30 3793 C 369.493 1.70907 -5.02955 0
M  V30 3794 C 368.532 1.02087 -6.03527 0
M  V30 3795 N 367.669 2.00474 -6.7287 0
M  V30 3796 H 372.509 -0.405317 -2.95231 0
M  V30 3797 H 370.046 -0.211726 -1.45568 0
M  V30 3798 H 372.004 1.96553 -3.67998 0
M  V30 3799 H 370.634 1.9933 -2.53904 0
M  V30 3800 H 369.686 -0.0701234 -3.80335 0
M  V30 3801 H 370.998 0.127503 -4.98637 0
M  V30 3802 H 370.152 2.41037 -5.56764 0
M  V30 3803 H 368.891 2.28476 -4.30871 0
M  V30 3804 H 367.896 0.305338 -5.48951 0
M  V30 3805 H 369.121 0.451708 -6.77596 0
M  V30 3806 H 367.067 2.57007 -6.03559 0
M  V30 3807 H 366.984 1.51353 -7.40694 0
M  V30 3808 H 368.252 2.69897 -7.31284 0
M  V30 3809 N 372.481 1.55866 -0.233164 0
M  V30 3810 C 373.729 1.9821 0.394593 0
M  V30 3811 C 374.05 1.12234 1.59463 0
M  V30 3812 O 373.32 0.201981 1.94856 0
M  V30 3813 H 371.9 0.732034 0.148778 0
M  V30 3814 H 374.562 1.92107 -0.32876 0
M  V30 3815 H 373.658 3.03845 0.713063 0
M  V30 3816 N 373.959 -0.0401083 1.57549 0
M  V30 3817 C 375.207 -0.731677 1.8839 0
M  V30 3818 C 375.528 -1.76481 0.829425 0
M  V30 3819 O 374.798 -1.95411 -0.1383 0
M  V30 3820 H 373.378 -0.273225 0.695239 0
M  V30 3821 H 376.04 -0.00867725 1.94898 0
M  V30 3822 H 375.136 -1.22816 2.86919 0
M  V30 3823 N 375.437 -1.54477 -0.31217 0
M  V30 3824 C 376.686 -1.72438 -1.04633 0
M  V30 3825 C 376.999 -0.511163 -1.88803 0
M  V30 3826 O 378.205 -0.572341 -2.65399 0
M  V30 3827 C 376.661 -3.05043 -1.9099 0
M  V30 3828 C 376.269 -4.33806 -1.11877 0
M  V30 3829 C 378.013 -3.32364 -2.64073 0
M  V30 3830 C 375.92 -5.57467 -1.97445 0
M  V30 3831 H 374.85 -0.642647 -0.394361 0
M  V30 3832 H 377.501 -1.80966 -0.303929 0
M  V30 3833 H 375.883 -2.90451 -2.69173 0
M  V30 3834 H 377.057 -4.59199 -0.383843 0
M  V30 3835 H 375.372 -4.13336 -0.504252 0
M  V30 3836 H 377.969 -4.21951 -3.28423 0
M  V30 3837 H 378.312 -2.50745 -3.32314 0
M  V30 3838 H 378.845 -3.47875 -1.92944 0
M  V30 3839 H 375.584 -6.41722 -1.33692 0
M  V30 3840 H 375.104 -5.36277 -2.6864 0
M  V30 3841 H 376.783 -5.94303 -2.5576 0
M  V30 3842 N 376.915 0.57481 -1.46744 0
M  V30 3843 C 378.331 0.898981 -1.31873 0
M  V30 3844 C 378.531 1.99313 -0.29605 0
M  V30 3845 O 377.587 2.50728 0.298621 0
M  V30 3846 C 378.9 1.30886 -2.7072 0
M  V30 3847 C 380.448 1.42127 -2.78871 0
M  V30 3848 C 380.923 1.86478 -4.18318 0
M  V30 3849 N 382.414 1.93658 -4.20774 0
M  V30 3850 C 383.149 2.29267 -5.2557 0
M  V30 3851 N 382.645 2.63612 -6.40688 0
M  V30 3852 N 384.438 2.29889 -5.1294 0
M  V30 3853 H 376.589 -0.147839 -2.11885 0
M  V30 3854 H 378.852 -0.00347013 -0.947994 0
M  V30 3855 H 378.558 0.578853 -3.46904 0
M  V30 3856 H 378.432 2.26874 -3.01343 0
M  V30 3857 H 380.819 2.14213 -2.0297 0
M  V30 3858 H 380.9 0.443705 -2.51922 0
M  V30 3859 H 380.544 1.14968 -4.94717 0
M  V30 3860 H 380.474 2.85207 -4.42679 0
M  V30 3861 H 382.965 1.69574 -3.37718 0
M  V30 3862 H 383.278 2.89759 -7.16421 0
M  V30 3863 H 381.623 2.61232 -6.44036 0
M  V30 3864 H 384.814 2.02485 -4.22039 0
M  V30 3865 H 384.987 2.57312 -5.94722 0
M  V30 3866 N 378.394 1.34581 0.820102 0
M  V30 3867 C 379.341 1.2639 1.93117 0
M  V30 3868 C 380.311 0.138554 1.65521 0
M  V30 3869 O 381.496 0.320004 1.88097 0
M  V30 3870 C 378.636 1.02812 3.29429 0
M  V30 3871 C 377.749 2.24146 3.693 0
M  V30 3872 C 376.884 1.93829 4.94574 0
M  V30 3873 C 375.923 3.1129 5.27034 0
M  V30 3874 N 375.06 2.80838 6.43486 0
M  V30 3875 H 379.9 2.21408 1.99455 0
M  V30 3876 H 377.437 1.10077 0.975784 0
M  V30 3877 H 379.395 0.871788 4.0799 0
M  V30 3878 H 378.025 0.114612 3.22596 0
M  V30 3879 H 377.077 2.50691 2.86109 0
M  V30 3880 H 378.389 3.11899 3.89257 0
M  V30 3881 H 377.543 1.74948 5.80929 0
M  V30 3882 H 376.282 1.03341 4.76626 0
M  V30 3883 H 375.287 3.30764 4.39175 0
M  V30 3884 H 376.512 4.02561 5.4692 0
M  V30 3885 H 374.458 1.92929 6.26988 0
M  V30 3886 H 374.375 3.62123 6.63629 0
M  V30 3887 H 375.643 2.65467 7.32903 0
M  V30 3888 N 379.872 -1.04064 1.18357 0
M  V30 3889 C 381.149 -1.74252 0.888581 0
M  V30 3890 C 381.529 -2.02138 -0.60856 0
M  V30 3891 O 380.877 -1.66656 -1.56327 0
M  V30 3892 C 381.087 -3.0277 1.73584 0
M  V30 3893 C 382.435 -3.76506 1.96286 0
M  V30 3894 O 383.459 -3.12668 1.70637 0
M  V30 3895 O 382.318 -4.91243 2.39464 0
M  V30 3896 H 379.412 -0.758271 0.330082 0
M  V30 3897 H 381.958 -1.1013 1.2911 0
M  V30 3898 H 380.73 -2.78299 2.75073 0
M  V30 3899 H 380.353 -3.74631 1.33183 0
M  V30 3900 N 381.35 -0.985608 -1.22978 0
M  V30 3901 C 382.766 -0.695104 -1.43668 0
M  V30 3902 C 382.966 0.736866 -1.87543 0
M  V30 3903 O 382.022 1.50868 -2.02473 0
M  V30 3904 C 383.335 -1.69447 -2.48412 0
M  V30 3905 C 384.883 -1.70909 -2.62219 0
M  V30 3906 C 385.358 -2.6969 -3.70178 0
M  V30 3907 N 386.849 -2.6824 -3.77626 0
M  V30 3908 C 387.584 -3.41339 -4.60733 0
M  V30 3909 N 387.08 -4.24015 -5.4789 0
M  V30 3910 N 388.873 -3.30079 -4.54977 0
M  V30 3911 H 381.024 -1.91054 -0.928016 0
M  V30 3912 H 383.287 -0.823553 -0.469536 0
M  V30 3913 H 382.993 -2.7188 -2.23102 0
M  V30 3914 H 382.867 -1.48147 -3.46889 0
M  V30 3915 H 385.254 -0.691785 -2.86877 0
M  V30 3916 H 385.335 -1.96276 -1.6404 0
M  V30 3917 H 384.979 -3.71566 -3.46268 0
M  V30 3918 H 384.909 -2.41595 -4.67909 0
M  V30 3919 H 387.4 -2.08243 -3.15346 0
M  V30 3920 H 387.713 -4.76636 -6.08308 0
M  V30 3921 H 386.058 -4.28104 -5.47496 0
M  V30 3922 H 389.249 -2.64937 -3.85909 0
M  V30 3923 H 389.422 -3.87308 -5.19516 0
M  V30 3924 N 382.828 1.3818 -0.7579 0
M  V30 3925 C 384.244 1.5353 -0.435972 0
M  V30 3926 C 384.444 1.71961 1.05032 0
M  V30 3927 O 383.5 1.73307 1.83633 0
M  V30 3928 C 384.813 2.73989 -1.23898 0
M  V30 3929 C 386.361 2.87841 -1.22949 0
M  V30 3930 C 386.836 4.11266 -2.01554 0
M  V30 3931 N 388.327 4.18352 -1.98837 0
M  V30 3932 C 389.062 5.12856 -2.5645 0
M  V30 3933 N 388.558 6.13005 -3.22794 0
M  V30 3934 N 390.351 5.05238 -2.46356 0
M  V30 3935 H 382.502 1.24467 -1.7211 0
M  V30 3936 H 384.765 0.604982 -0.729864 0
M  V30 3937 H 384.471 2.66789 -2.29165 0
M  V30 3938 H 384.345 3.67294 -0.858764 0
M  V30 3939 H 386.732 2.9452 -0.184854 0
M  V30 3940 H 386.813 1.95534 -1.64924 0
M  V30 3941 H 386.457 4.05349 -3.06031 0
M  V30 3942 H 386.387 5.02661 -1.5697 0
M  V30 3943 H 388.878 3.46628 -1.50524 0
M  V30 3944 H 389.191 6.81619 -3.64165 0
M  V30 3945 H 387.536 6.13325 -3.2689 0
M  V30 3946 H 390.727 4.25938 -1.9415 0
M  V30 3947 H 390.9 5.78707 -2.91552 0
M  V30 3948 N 384.306 0.507319 1.49211 0
M  V30 3949 C 385.554 -0.0348839 2.0207 0
M  V30 3950 C 385.875 -1.36898 1.38866 0
M  V30 3951 O 385.145 -1.88133 0.546151 0
M  V30 3952 H 383.725 -0.0158812 0.746831 0
M  V30 3953 H 386.387 0.665998 1.83168 0
M  V30 3954 H 385.483 -0.159917 3.1169 0
M  V30 3955 N 385.784 -1.5574 0.241426 0
M  V30 3956 C 387.032 -1.98417 -0.384075 0
M  V30 3957 C 387.353 -1.13078 -1.58866 0
M  V30 3958 O 386.623 -0.212312 -1.94746 0
M  V30 3959 H 385.203 -0.732813 -0.144894 0
M  V30 3960 H 387.865 -1.9193 0.338943 0
M  V30 3961 H 386.961 -3.04219 -0.696939 0
M  V30 3962 N 387.262 0.0317525 -1.57568 0
M  V30 3963 C 388.678 0.38735 -1.54828 0
M  V30 3964 C 388.878 1.7677 -0.967187 0
M  V30 3965 O 387.934 2.45581 -0.587063 0
M  V30 3966 C 389.247 0.291667 -2.99282 0
M  V30 3967 C 390.795 0.368946 -3.10818 0
M  V30 3968 C 391.27 0.302741 -4.56998 0
M  V30 3969 N 392.761 0.361617 -4.61786 0
M  V30 3970 C 393.496 0.333238 -5.72431 0
M  V30 3971 N 392.992 0.257308 -6.92322 0
M  V30 3972 N 394.785 0.382769 -5.60795 0
M  V30 3973 H 386.936 -0.871609 -1.93692 0
M  V30 3974 H 389.199 -0.331161 -0.888277 0
M  V30 3975 H 388.905 -0.656794 -3.45513 0
M  V30 3976 H 388.779 1.08638 -3.61217 0
M  V30 3977 H 391.166 1.30784 -2.64536 0
M  V30 3978 H 391.247 -0.455066 -2.5172 0
M  V30 3979 H 390.891 -0.632473 -5.03947 0
M  V30 3980 H 390.821 1.14482 -5.14005 0
M  V30 3981 H 393.312 0.422923 -3.75526 0
M  V30 3982 H 393.625 0.24068 -7.72425 0
M  V30 3983 H 391.97 0.223396 -6.94641 0
M  V30 3984 H 395.161 0.44006 -4.66027 0
M  V30 3985 H 395.334 0.357184 -6.47015 0
M  V30 3986 N 388.74 1.54641 0.303973 0
M  V30 3987 C 389.673 1.80263 1.3993 0
M  V30 3988 C 390.651 0.653657 1.48883 0
M  V30 3989 O 391.835 0.893284 1.6599 0
M  V30 3990 C 388.962 1.9367 2.77866 0
M  V30 3991 C 388.008 3.16078 2.86351 0
M  V30 3992 S 388.841 4.74219 2.4875 0
M  V30 3993 C 389.997 4.90558 3.88721 0
M  V30 3994 H 390.23 2.72886 1.17986 0
M  V30 3995 H 387.763 1.46014 0.501918 0
M  V30 3996 H 389.721 2.0208 3.57315 0
M  V30 3997 H 388.382 1.01991 2.9708 0
M  V30 3998 H 387.575 3.22252 3.87517 0
M  V30 3999 H 387.177 3.06099 2.14893 0
M  V30 4000 H 389.469 4.74398 4.83687 0
M  V30 4001 H 390.412 5.92651 3.87518 0
M  V30 4002 H 390.82 4.18728 3.78585 0
M  V30 4003 N 390.218 -0.567019 1.47046 0
M  V30 4004 C 391.148 -1.68482 1.61667 0
M  V30 4005 C 392.129 -1.6358 0.466418 0
M  V30 4006 O 393.314 -1.81354 0.694574 0
M  V30 4007 C 390.444 -3.07124 1.62148 0
M  V30 4008 C 389.398 -3.26867 2.76301 0
M  V30 4009 C 388.724 -4.66196 2.61849 0
M  V30 4010 C 390.024 -3.13186 4.17986 0
M  V30 4011 H 391.718 -1.56502 2.5524 0
M  V30 4012 H 389.264 -0.751486 1.22836 0
M  V30 4013 H 391.217 -3.8516 1.70968 0
M  V30 4014 H 389.941 -3.2004 0.651287 0
M  V30 4015 H 388.6 -2.51237 2.66975 0
M  V30 4016 H 388.248 -4.75898 1.62879 0
M  V30 4017 H 387.948 -4.80356 3.38425 0
M  V30 4018 H 389.472 -5.46379 2.72584 0
M  V30 4019 H 390.886 -3.81049 4.2834 0
M  V30 4020 H 389.283 -3.3886 4.95272 0
M  V30 4021 H 390.353 -2.10057 4.3704 0
M  V30 4022 N 391.696 -1.35014 -0.812953 0
M  V30 4023 C 392.643 -1.27412 -1.92444 0
M  V30 4024 C 393.613 -0.14733 -1.65445 0
M  V30 4025 O 394.798 -0.329974 -1.87925 0
M  V30 4026 C 391.938 -1.04558 -3.28879 0
M  V30 4027 C 391.051 -2.26101 -3.68106 0
M  V30 4028 C 390.186 -1.96449 -4.9354 0
M  V30 4029 C 389.225 -3.14081 -5.25376 0
M  V30 4030 N 388.362 -2.84246 -6.41988 0
M  V30 4031 H 393.202 -2.22463 -1.98278 0
M  V30 4032 H 390.739 -1.10593 -0.969933 0
M  V30 4033 H 392.697 -0.893413 -4.07522 0
M  V30 4034 H 391.327 -0.131719 -3.22531 0
M  V30 4035 H 390.379 -2.52204 -2.84775 0
M  V30 4036 H 391.691 -3.13959 -3.87597 0
M  V30 4037 H 390.845 -1.78026 -5.79993 0
M  V30 4038 H 389.584 -1.05867 -4.76071 0
M  V30 4039 H 388.589 -3.33089 -4.37415 0
M  V30 4040 H 389.814 -4.05455 -5.44778 0
M  V30 4041 H 387.76 -1.96252 -6.25956 0
M  V30 4042 H 387.677 -3.65637 -6.61699 0
M  V30 4043 H 388.945 -2.6935 -7.31485 0
M  V30 4044 N 393.175 1.03435 -1.18907 0
M  V30 4045 C 394.125 2.09924 -0.889706 0
M  V30 4046 C 395.109 1.60261 0.143216 0
M  V30 4047 O 396.301 1.76892 -0.0617122 0
M  V30 4048 C 393.43 3.40669 -0.424168 0
M  V30 4049 C 392.516 3.97082 -1.48952 0
M  V30 4050 N 392.907 4.27227 -2.70759 0
M  V30 4051 C 391.205 4.25029 -1.35152 0
M  V30 4052 C 391.906 4.7246 -3.39347 0
M  V30 4053 N 390.882 4.7366 -2.66735 0
M  V30 4054 H 394.684 2.31116 -1.81555 0
M  V30 4055 H 392.198 1.21246 -1.08042 0
M  V30 4056 H 394.195 4.16461 -0.191176 0
M  V30 4057 H 392.855 3.20901 0.495263 0
M  V30 4058 H 393.866 4.16678 -3.0757 0
M  V30 4059 H 390.543 4.14554 -0.495126 0
M  V30 4060 H 391.933 5.04751 -4.43481 0
M  V30 4061 N 394.653 0.992116 1.22453 0
M  V30 4062 C 395.6 0.541731 2.24352 0
M  V30 4063 C 396.57 -0.425519 1.60557 0
M  V30 4064 O 397.755 -0.330453 1.87917 0
M  V30 4065 C 394.895 -0.138248 3.44823 0
M  V30 4066 C 394.008 0.870649 4.23136 0
M  V30 4067 C 393.143 0.164269 5.30946 0
M  V30 4068 C 392.182 1.16159 6.00977 0
M  V30 4069 N 391.319 0.483568 7.00433 0
M  V30 4070 H 396.159 1.41541 2.62241 0
M  V30 4071 H 393.696 0.709013 1.28885 0
M  V30 4072 H 395.654 -0.5494 4.13567 0
M  V30 4073 H 394.284 -0.975721 3.077 0
M  V30 4074 H 393.336 1.40013 3.53696 0
M  V30 4075 H 394.648 1.63014 4.7141 0
M  V30 4076 H 393.802 -0.303653 6.0594 0
M  V30 4077 H 392.541 -0.627733 4.83643 0
M  V30 4078 H 391.546 1.64015 5.24766 0
M  V30 4079 H 392.771 1.95445 6.50368 0
M  V30 4080 H 390.717 -0.289012 6.55363 0
M  V30 4081 H 390.634 1.18152 7.4671 0
M  V30 4082 H 391.902 0.0384219 7.79491 0
M  V30 4083 N 396.131 -1.37776 0.765217 0
M  V30 4084 C 397.547 -1.53297 0.444108 0
M  V30 4085 C 397.747 -1.72515 -1.04119 0
M  V30 4086 O 396.803 -1.74278 -1.82711 0
M  V30 4087 C 398.116 -2.73328 1.25349 0
M  V30 4088 C 399.664 -2.87185 1.24473 0
M  V30 4089 C 400.139 -4.10191 2.03733 0
M  V30 4090 N 401.63 -4.17291 2.01053 0
M  V30 4091 C 402.365 -5.11488 2.59166 0
M  V30 4092 N 401.861 -6.11285 3.26041 0
M  V30 4093 N 403.654 -5.03924 2.49032 0
M  V30 4094 H 395.805 -1.23552 1.72768 0
M  V30 4095 H 398.068 -0.601103 0.733062 0
M  V30 4096 H 397.774 -2.6557 2.30577 0
M  V30 4097 H 397.648 -3.66834 0.87823 0
M  V30 4098 H 400.035 -2.94418 0.20047 0
M  V30 4099 H 400.116 -1.94657 1.65959 0
M  V30 4100 H 399.76 -4.0372 3.08176 0
M  V30 4101 H 399.69 -5.01821 1.59633 0
M  V30 4102 H 402.181 -3.45825 1.5236 0
M  V30 4103 H 402.494 -6.79678 3.67774 0
M  V30 4104 H 400.839 -6.11583 3.30138 0
M  V30 4105 H 404.03 -4.24902 1.96407 0
M  V30 4106 H 404.203 -5.77152 2.94617 0
M  V30 4107 N 397.609 -0.515225 -1.4894 0
M  V30 4108 C 398.541 0.292481 -2.27326 0
M  V30 4109 C 399.554 0.917838 -1.3446 0
M  V30 4110 O 400.743 0.798772 -1.5963 0
M  V30 4111 C 397.843 1.42803 -3.07344 0
M  V30 4112 C 397.016 0.907347 -4.27885 0
M  V30 4113 C 396.075 1.92222 -4.89834 0
M  V30 4114 O 395.101 1.48506 -5.49486 0
M  V30 4115 N 396.303 3.25355 -4.80754 0
M  V30 4116 H 399.068 -0.379721 -2.97285 0
M  V30 4117 H 396.629 -0.348638 -1.58102 0
M  V30 4118 H 398.621 2.10481 -3.45658 0
M  V30 4119 H 397.191 2.00414 -2.39902 0
M  V30 4120 H 396.411 0.0550218 -3.94162 0
M  V30 4121 H 397.699 0.538108 -5.05946 0
M  V30 4122 H 397.097 3.6355 -4.33414 0
M  V30 4123 H 395.654 3.88707 -5.23211 0
M  V30 4124 N 399.087 1.5561 -0.249682 0
M  V30 4125 C 400.503 1.59254 0.105103 0
M  V30 4126 C 400.703 1.26685 1.56694 0
M  V30 4127 O 399.759 1.0155 2.31179 0
M  V30 4128 C 401.072 2.99687 -0.246592 0
M  V30 4129 C 402.62 3.12416 -0.191118 0
M  V30 4130 C 403.095 4.55074 -0.516885 0
M  V30 4131 N 404.586 4.60835 -0.467489 0
M  V30 4132 C 405.321 5.69201 -0.69268 0
M  V30 4133 N 404.817 6.85817 -0.981146 0
M  V30 4134 N 406.61 5.58635 -0.623198 0
M  V30 4135 H 398.761 1.75049 -1.20298 0
M  V30 4136 H 401.024 0.815003 -0.484225 0
M  V30 4137 H 400.73 3.28267 -1.26228 0
M  V30 4138 H 400.604 3.74798 0.424962 0
M  V30 4139 H 402.991 2.83615 0.815247 0
M  V30 4140 H 403.072 2.39573 -0.896563 0
M  V30 4141 H 402.716 4.84596 -1.52082 0
M  V30 4142 H 402.646 5.26181 0.210068 0
M  V30 4143 H 405.137 3.7705 -0.253373 0
M  V30 4144 H 405.45 7.64341 -1.14032 0
M  V30 4145 H 403.795 6.87494 -1.01865 0
M  V30 4146 H 406.986 4.66406 -0.397863 0
M  V30 4147 H 407.159 6.43017 -0.802093 0
M  V30 4148 N 400.565 -0.0233959 1.57583 0
M  V30 4149 C 401.842 -0.748794 1.807 0
M  V30 4150 C 402.222 -1.9327 0.849106 0
M  V30 4151 O 401.57 -2.28247 -0.107468 0
M  V30 4152 C 401.78 -1.17651 3.28571 0
M  V30 4153 C 403.128 -1.59008 3.93702 0
M  V30 4154 O 404.152 -1.27094 3.32755 0
M  V30 4155 O 403.011 -2.18264 5.01022 0
M  V30 4156 H 400.105 -0.362578 0.743281 0
M  V30 4157 H 402.651 0.000261958 1.697 0
M  V30 4158 H 401.423 -0.331603 3.89892 0
M  V30 4159 H 401.046 -1.98541 3.44481 0
M  V30 4160 N 402.043 -1.548 -0.295768 0
M  V30 4161 C 403.32 -1.65014 -1.05023 0
M  V30 4162 C 403.7 -0.501805 -2.05049 0
M  V30 4163 O 403.048 0.500869 -2.22943 0
M  V30 4164 C 403.258 -3.03252 -1.72741 0
M  V30 4165 C 404.606 -3.60242 -2.24746 0
M  V30 4166 O 405.63 -3.05737 -1.82765 0
M  V30 4167 O 404.489 -4.55687 -3.01681 0
M  V30 4168 H 401.583 -0.669314 -0.485744 0
M  V30 4169 H 404.129 -1.67144 -0.293438 0
M  V30 4170 H 402.901 -3.7827 -1.00138 0
M  V30 4171 H 402.524 -3.04922 -2.55163 0
M  V30 4172 N 403.521 0.559213 -1.47345 0
M  V30 4173 C 404.769 1.31388 -1.53563 0
M  V30 4174 C 405.09 1.93985 -0.198678 0
M  V30 4175 O 404.36 1.79825 0.777167 0
M  V30 4176 H 402.94 0.487901 -0.565652 0
M  V30 4177 H 405.602 0.65315 -1.8363 0
M  V30 4178 H 404.698 2.10844 -2.30111 0
M  V30 4179 N 404.999 1.35443 0.805782 0
M  V30 4180 C 405.909 1.30546 1.94923 0
M  V30 4181 C 406.925 0.210233 1.72725 0
M  V30 4182 O 408.101 0.43975 1.9654 0
M  V30 4183 C 405.166 1.07782 3.29521 0
M  V30 4184 C 404.227 2.26625 3.64609 0
M  V30 4185 C 403.46 2.04938 4.92784 0
M  V30 4186 O 403.683 1.01624 5.61274 0
M  V30 4187 O 402.617 2.9232 5.26149 0
M  V30 4188 H 406.443 2.26779 2.02002 0
M  V30 4189 H 404.028 1.15823 0.943682 0
M  V30 4190 H 405.91 0.969392 4.10098 0
M  V30 4191 H 404.585 0.146003 3.23371 0
M  V30 4192 H 403.492 2.43033 2.84404 0
M  V30 4193 H 404.825 3.18257 3.75464 0
M  V30 4194 N 406.477 -1.02803 1.19454 0
M  V30 4195 C 407.725 -1.75869 0.995722 0
M  V30 4196 C 408.046 -1.89138 -0.474543 0
M  V30 4197 O 407.316 -1.42558 -1.34366 0
M  V30 4198 H 405.896 -0.651511 0.365435 0
M  V30 4199 H 408.558 -1.24004 1.50363 0
M  V30 4200 H 407.654 -2.76661 1.44447 0
M  V30 4201 N 407.956 -0.998596 -1.21925 0
M  V30 4202 C 409.372 -0.710303 -1.42923 0
M  V30 4203 C 409.572 0.716933 -1.88314 0
M  V30 4204 O 408.628 1.48712 -2.04062 0
M  V30 4205 C 409.941 -1.72072 -2.466 0
M  V30 4206 C 411.489 -1.73681 -2.60392 0
M  V30 4207 C 411.964 -2.73601 -3.67296 0
M  V30 4208 N 413.455 -2.7223 -3.7476 0
M  V30 4209 C 414.19 -3.46206 -4.57087 0
M  V30 4210 N 413.686 -4.29802 -5.43362 0
M  V30 4211 N 415.479 -3.34886 -4.51451 0
M  V30 4212 H 407.63 -1.92028 -0.9077 0
M  V30 4213 H 409.893 -0.828487 -0.460775 0
M  V30 4214 H 409.599 -2.74231 -2.20206 0
M  V30 4215 H 409.473 -1.51818 -3.45299 0
M  V30 4216 H 411.86 -0.722173 -2.86127 0
M  V30 4217 H 411.941 -1.98005 -1.61949 0
M  V30 4218 H 411.585 -3.75217 -3.42307 0
M  V30 4219 H 411.515 -2.46545 -4.65321 0
M  V30 4220 H 414.006 -2.11576 -3.1312 0
M  V30 4221 H 414.319 -4.83061 -6.03218 0
M  V30 4222 H 412.664 -4.33887 -5.42925 0
M  V30 4223 H 415.855 -2.69015 -3.83078 0
M  V30 4224 H 416.028 -3.92796 -5.15379 0
M  V30 4225 N 409.434 1.37368 -0.772513 0
M  V30 4226 C 410.682 1.99279 -0.336516 0
M  V30 4227 C 411.003 1.6163 1.09091 0
M  V30 4228 O 410.273 0.882109 1.74916 0
M  V30 4229 H 408.853 0.737063 -0.121435 0
M  V30 4230 H 411.515 1.67836 -0.990809 0
M  V30 4231 H 410.611 3.09332 -0.414763 0
M  V30 4232 N 410.912 0.523116 1.48665 0
M  V30 4233 C 411.822 -0.247406 2.33292 0
M  V30 4234 C 412.838 -0.945769 1.46052 0
M  V30 4235 O 414.014 -0.922253 1.79043 0
M  V30 4236 C 411.079 -1.28487 3.22012 0
M  V30 4237 C 410.14 -0.597592 4.2512 0
M  V30 4238 C 409.373 -1.58563 5.09601 0
M  V30 4239 O 409.596 -2.81763 4.95949 0
M  V30 4240 O 408.53 -1.12879 5.91221 0
M  V30 4241 H 412.356 0.445869 3.00409 0
M  V30 4242 H 409.941 0.284128 1.46673 0
M  V30 4243 H 411.823 -1.88459 3.7691 0
M  V30 4244 H 410.498 -1.96068 2.57564 0
M  V30 4245 H 409.405 0.0424407 3.74076 0
M  V30 4246 H 410.738 0.0361517 4.92187 0
M  V30 4247 N 412.39 -1.55475 0.257931 0
M  V30 4248 C 413.636 -1.99502 -0.364266 0
M  V30 4249 C 413.969 -1.146 -1.56782 0
M  V30 4250 O 413.244 -0.211968 -1.93342 0
M  V30 4251 C 413.527 -3.51917 -0.763333 0
M  V30 4252 C 413.38 -4.4758 0.446371 0
M  V30 4253 C 414.699 -4.09742 -1.60623 0
M  V30 4254 H 411.818 -0.725277 -0.130929 0
M  V30 4255 H 414.46 -1.8653 0.361446 0
M  V30 4256 H 412.61 -3.63101 -1.38166 0
M  V30 4257 H 414.282 -4.48362 1.08487 0
M  V30 4258 H 412.525 -4.19947 1.08753 0
M  V30 4259 H 413.196 -5.51862 0.123645 0
M  V30 4260 H 415.672 -4.01727 -1.08418 0
M  V30 4261 H 414.548 -5.16631 -1.85429 0
M  V30 4262 H 414.809 -3.58889 -2.58169 0
M  V30 4263 N 413.868 0.0150385 -1.57593 0
M  V30 4264 C 415.116 0.701613 -1.8953 0
M  V30 4265 C 415.437 1.75139 -0.857396 0
M  V30 4266 O 414.707 1.95607 0.107194 0
M  V30 4267 H 413.287 0.26213 -0.699498 0
M  V30 4268 H 415.949 -0.0223304 -1.94887 0
M  V30 4269 H 415.045 1.18236 -2.88837 0
M  V30 4270 N 415.346 1.54954 0.287554 0
M  V30 4271 C 416.571 1.79209 1.04397 0
M  V30 4272 C 416.996 0.556431 1.79682 0
M  V30 4273 O 416.354 -0.493518 1.74454 0
M  V30 4274 C 416.402 3.00739 1.98969 0
M  V30 4275 O 415.506 2.74805 3.075 0
M  V30 4276 H 414.847 0.592755 0.299227 0
M  V30 4277 H 417.377 2.02068 0.320886 0
M  V30 4278 H 417.387 3.29077 2.4119 0
M  V30 4279 H 416.062 3.90329 1.43582 0
M  V30 4280 H 414.639 2.57523 2.69697 0
M  V30 4281 N 416.824 -0.551391 1.4764 0
M  V30 4282 C 417.787 -1.64007 1.60107 0
M  V30 4283 C 418.787 -1.53601 0.47576 0
M  V30 4284 O 419.977 -1.57655 0.740988 0
M  V30 4285 C 417.109 -3.03569 1.55108 0
M  V30 4286 H 418.302 -1.543 2.57161 0
M  V30 4287 H 415.855 -0.771776 1.35917 0
M  V30 4288 H 416.59 -3.18804 0.594519 0
M  V30 4289 H 416.375 -3.12532 2.36783 0
M  V30 4290 H 417.865 -3.82762 1.66982 0
M  V30 4291 N 418.302 -1.35869 -0.798587 0
M  V30 4292 C 419.55 -1.29332 -1.55298 0
M  V30 4293 C 419.871 0.129729 -1.94568 0
M  V30 4294 O 419.141 1.06796 -1.6423 0
M  V30 4295 H 417.721 -0.475737 -0.57592 0
M  V30 4296 H 420.383 -1.70062 -0.952093 0
M  V30 4297 H 419.479 -1.91458 -2.46476 0
M  V30 4298 N 419.78 1.02168 -1.19998 0
M  V30 4299 C 421.057 1.72816 -0.916191 0
M  V30 4300 C 421.437 2.03081 0.576325 0
M  V30 4301 O 420.785 1.69122 1.53656 0
M  V30 4302 C 420.995 2.9997 -1.78378 0
M  V30 4303 C 422.343 3.73336 -2.02251 0
M  V30 4304 O 423.367 3.09914 -1.75589 0
M  V30 4305 O 422.226 4.87371 -2.47249 0
M  V30 4306 H 419.32 0.752924 -0.342103 0
M  V30 4307 H 421.866 1.08062 -1.30846 0
M  V30 4308 H 420.638 2.73888 -2.79466 0
M  V30 4309 H 420.261 3.72464 -1.39126 0
M  V30 4310 N 421.258 1.00505 1.21394 0
M  V30 4311 C 422.191 0.51032 2.22421 0
M  V30 4312 C 423.169 -0.436 1.56645 0
M  V30 4313 O 424.353 -0.358709 1.85055 0
M  V30 4314 C 421.48 -0.258733 3.3771 0
M  V30 4315 C 420.526 0.635395 4.2174 0
M  V30 4316 S 421.359 2.09783 4.92698 0
M  V30 4317 C 422.515 1.33862 6.11418 0
M  V30 4318 H 422.748 1.36637 2.64041 0
M  V30 4319 H 420.281 0.812991 1.31262 0
M  V30 4320 H 422.239 -0.696372 4.0455 0
M  V30 4321 H 420.9 -1.0902 2.94573 0
M  V30 4322 H 420.093 0.0430189 5.03982 0
M  V30 4323 H 419.695 1.01031 3.60095 0
M  V30 4324 H 421.987 0.612541 6.74725 0
M  V30 4325 H 422.93 2.13675 6.75092 0
M  V30 4326 H 423.338 0.846568 5.58116 0
M  V30 4327 N 422.737 -1.36956 0.779787 0
M  V30 4328 C 424.153 -1.52817 0.460342 0
M  V30 4329 C 424.353 -1.7361 -1.02283 0
M  V30 4330 O 423.409 -1.76207 -1.80852 0
M  V30 4331 C 424.722 -2.71983 1.28241 0
M  V30 4332 C 426.27 -2.85849 1.27512 0
M  V30 4333 C 426.745 -4.08008 2.08072 0
M  V30 4334 N 428.236 -4.15135 2.05467 0
M  V30 4335 C 428.971 -5.08711 2.64577 0
M  V30 4336 N 428.467 -6.07792 3.32506 0
M  V30 4337 N 430.26 -5.01254 2.54363 0
M  V30 4338 H 422.411 -1.21713 1.74068 0
M  V30 4339 H 424.674 -0.593294 0.739396 0
M  V30 4340 H 424.38 -2.63109 2.33381 0
M  V30 4341 H 424.254 -3.65882 0.917088 0
M  V30 4342 H 426.641 -2.94189 0.231686 0
M  V30 4343 H 426.722 -1.92886 1.68014 0
M  V30 4344 H 426.366 -4.00429 3.12441 0
M  V30 4345 H 426.296 -5.001 1.64947 0
M  V30 4346 H 428.787 -3.44189 1.5602 0
M  V30 4347 H 429.1 -6.75739 3.74963 0
M  V30 4348 H 427.445 -6.08047 3.36606 0
M  V30 4349 H 430.636 -4.22795 2.00902 0
M  V30 4350 H 430.809 -5.73995 3.00722 0
M  V30 4351 N 424.215 -0.530993 -1.48385 0
M  V30 4352 C 425.178 0.220497 -2.28137 0
M  V30 4353 C 426.178 0.866851 -1.35434 0
M  V30 4354 O 427.368 0.726746 -1.58316 0
M  V30 4355 C 424.5 1.31921 -3.1434 0
M  V30 4356 H 425.693 -0.479714 -2.96038 0
M  V30 4357 H 423.246 -0.286968 -1.53643 0
M  V30 4358 H 423.981 2.05264 -2.51072 0
M  V30 4359 H 423.766 0.86085 -3.82533 0
M  V30 4360 H 425.256 1.84776 -3.74497 0
M  V30 4361 N 425.693 1.55336 -0.266172 0
M  V30 4362 C 426.656 2.20878 0.612001 0
M  V30 4363 C 427.656 1.18388 1.08816 0
M  V30 4364 O 428.846 1.4335 0.989774 0
M  V30 4365 C 425.978 2.86765 1.84332 0
M  V30 4366 H 427.171 2.99873 0.0398718 0
M  V30 4367 H 424.724 1.56291 -0.0167309 0
M  V30 4368 H 425.459 2.11759 2.45619 0
M  V30 4369 H 425.244 3.61862 1.5099 0
M  V30 4370 H 426.734 3.36867 2.46801 0
M  V30 4371 N 427.171 -0.0066808 1.57599 0
M  V30 4372 C 428.119 -1.01851 2.09115 0
M  V30 4373 C 429.113 -1.36021 1.00969 0
M  V30 4374 O 430.319 -1.34663 1.19439 0
M  V30 4375 H 426.694 -0.346083 0.667631 0
M  V30 4376 H 428.665 -0.558394 2.93129 0
M  V30 4377 C 427.414 -2.30374 2.60429 0
M  V30 4378 H 426.737 -2.04947 3.43273 0
M  V30 4379 H 428.177 -2.99466 3.00161 0
M  V30 4380 C 426.636 -3.00893 1.51542 0
M  V30 4381 O 427.166 -3.91614 0.894484 0
M  V30 4382 N 425.372 -2.62603 1.2445 0
M  V30 4383 H 424.919 -1.88911 1.75129 0
M  V30 4384 H 424.877 -3.10101 0.518137 0
M  V30 4385 N 428.649 -1.55105 -0.279332 0
M  V30 4386 C 429.579 -1.90557 -1.34945 0
M  V30 4387 C 430.56 -0.766738 -1.51839 0
M  V30 4388 O 431.745 -1.02434 -1.64988 0
M  V30 4389 C 428.875 -2.17193 -2.71006 0
M  V30 4390 C 427.829 -3.33021 -2.68851 0
M  V30 4391 C 427.155 -3.45123 -4.08405 0
M  V30 4392 C 428.455 -4.69578 -2.28678 0
M  V30 4393 H 430.149 -2.80188 -1.05522 0
M  V30 4394 H 427.695 -1.34811 -0.506173 0
M  V30 4395 H 429.648 -2.40581 -3.45975 0
M  V30 4396 H 428.372 -1.24355 -3.01999 0
M  V30 4397 H 427.031 -3.0959 -1.9634 0
M  V30 4398 H 426.679 -2.49762 -4.3661 0
M  V30 4399 H 426.379 -4.22995 -4.07859 0
M  V30 4400 H 427.903 -3.70796 -4.85121 0
M  V30 4401 H 429.317 -4.92553 -2.93368 0
M  V30 4402 H 427.714 -5.5032 -2.39306 0
M  V30 4403 H 428.784 -4.68828 -1.23807 0
M  V30 4404 N 430.127 0.543554 -1.4793 0
M  V30 4405 C 431.373 1.29961 -1.56466 0
M  V30 4406 C 431.728 1.91024 -0.229696 0
M  V30 4407 O 431.021 1.75619 0.766072 0
M  V30 4408 C 431.215 2.42078 -2.62932 0
M  V30 4409 C 431.044 1.92003 -4.06651 0
M  V30 4410 C 429.814 1.75223 -4.73946 0
M  V30 4411 C 432.012 1.45648 -4.93245 0
M  V30 4412 N 429.994 1.19632 -6.02131 0
M  V30 4413 C 431.365 1.01914 -6.11566 0
M  V30 4414 C 433.42 1.33826 -4.79578 0
M  V30 4415 C 432.123 0.475301 -7.17728 0
M  V30 4416 C 434.149 0.808427 -5.85848 0
M  V30 4417 C 433.511 0.381081 -7.03368 0
M  V30 4418 H 429.61 0.467086 -0.62718 0
M  V30 4419 H 432.194 0.614543 -1.84747 0
M  V30 4420 H 430.365 3.08098 -2.36496 0
M  V30 4421 H 432.097 3.09096 -2.61231 0
M  V30 4422 H 428.852 1.98345 -4.30065 0
M  V30 4423 H 429.276 0.93885 -6.70458 0
M  V30 4424 H 433.918 1.65474 -3.89074 0
M  V30 4425 H 431.636 0.146472 -8.07967 0
M  V30 4426 H 435.222 0.720315 -5.77324 0
M  V30 4427 H 434.102 -0.0225344 -7.84197 0
M  V30 4428 N 431.605 1.3629 0.791371 0
M  V30 4429 C 433.016 1.27225 1.36641 0
M  V30 4430 C 433.367 -0.0887968 1.95999 0
M  V30 4431 O 432.492 -0.990207 1.92416 0
M  V30 4432 C 433.087 2.30375 2.48421 0
M  V30 4433 C 431.646 2.25004 3.01746 0
M  V30 4434 C 430.793 2.15259 1.7481 0
M  V30 4435 H 433.744 1.47198 0.593173 0
M  V30 4436 H 433.765 1.93905 3.27385 0
M  V30 4437 H 433.277 3.29422 2.05189 0
M  V30 4438 H 431.378 1.29417 3.49403 0
M  V30 4439 H 431.491 3.1761 3.58693 0
M  V30 4440 H 429.855 1.61482 1.96966 0
M  V30 4441 H 430.638 3.16191 1.33709 0
M  V30 4442 N 433.083 -1.0153 1.20538 0
M  V30 4443 C 434.308 -1.79283 1.04271 0
M  V30 4444 C 434.733 -1.8372 -0.403544 0
M  V30 4445 O 434.091 -1.27321 -1.2907 0
M  V30 4446 C 434.139 -3.21535 1.63241 0
M  V30 4447 O 433.243 -4.03099 0.870908 0
M  V30 4448 H 432.584 -0.55293 0.367647 0
M  V30 4449 H 435.114 -1.27696 1.59859 0
M  V30 4450 H 435.124 -3.72243 1.6703 0
M  V30 4451 H 433.799 -3.1762 2.68497 0
M  V30 4452 H 432.376 -3.61693 0.907323 0
M  V30 4453 N 434.561 -1.01147 -1.20859 0
M  V30 4454 C 435.972 -0.730205 -1.71828 0
M  V30 4455 C 436.323 0.751662 -1.8123 0
M  V30 4456 O 435.448 1.58686 -1.47132 0
M  V30 4457 C 436.043 -1.31885 -3.12077 0
M  V30 4458 C 434.602 -1.08656 -3.60376 0
M  V30 4459 C 433.749 -1.42769 -2.37723 0
M  V30 4460 H 436.7 -1.18158 -1.05945 0
M  V30 4461 H 436.721 -0.706793 -3.73878 0
M  V30 4462 H 436.233 -2.39737 -3.05201 0
M  V30 4463 H 434.334 -0.0254814 -3.72591 0
M  V30 4464 H 434.447 -1.76301 -4.45483 0
M  V30 4465 H 432.811 -0.846603 -2.40218 0
M  V30 4466 H 433.594 -2.51666 -2.33493 0
M  V30 4467 N 436.039 1.36541 -0.78704 0
M  V30 4468 C 436.969 2.32659 -0.197992 0
M  V30 4469 C 437.95 1.56533 0.665697 0
M  V30 4470 O 439.135 1.84698 0.60001 0
M  V30 4471 C 436.265 3.40778 0.669901 0
M  V30 4472 C 435.219 4.27897 -0.0937039 0
M  V30 4473 C 434.545 5.27163 0.894629 0
M  V30 4474 C 435.845 5.06334 -1.28154 0
M  V30 4475 H 437.539 2.82171 -1.00099 0
M  V30 4476 H 435.085 1.35665 -0.482793 0
M  V30 4477 H 437.038 4.07008 1.09191 0
M  V30 4478 H 435.762 2.89827 1.50558 0
M  V30 4479 H 434.421 3.6322 -0.49666 0
M  V30 4480 H 434.069 4.72486 1.72527 0
M  V30 4481 H 433.769 5.86317 0.388149 0
M  V30 4482 H 435.293 5.96266 1.31525 0
M  V30 4483 H 436.707 5.65617 -0.93541 0
M  V30 4484 H 435.104 5.74888 -1.72115 0
M  V30 4485 H 436.174 4.38114 -2.07807 0
M  V30 4486 N 437.518 0.538854 1.48102 0
M  V30 4487 C 438.451 -0.266495 2.26639 0
M  V30 4488 C 439.429 -0.93687 1.32897 0
M  V30 4489 O 440.613 -0.959507 1.62252 0
M  V30 4490 C 437.74 -1.37814 3.09394 0
M  V30 4491 C 436.786 -0.818247 4.18577 0
M  V30 4492 S 437.619 0.320848 5.34538 0
M  V30 4493 C 438.775 -0.793059 6.20855 0
M  V30 4494 H 439.008 0.399994 2.94597 0
M  V30 4495 H 436.541 0.324808 1.50945 0
M  V30 4496 H 438.499 -2.01488 3.57649 0
M  V30 4497 H 437.16 -2.01639 2.40833 0
M  V30 4498 H 436.353 -1.65247 4.7614 0
M  V30 4499 H 435.955 -0.258036 3.73109 0
M  V30 4500 H 438.247 -1.68961 6.56093 0
M  V30 4501 H 439.19 -0.255204 7.0764 0
M  V30 4502 H 439.598 -1.07746 5.54122 0
M  V30 4503 N 438.996 -1.55193 0.274407 0
M  V30 4504 C 440.245 -1.98758 -0.343213 0
M  V30 4505 C 440.558 -1.16624 -1.5703 0
M  V30 4506 O 441.764 -1.5033 -2.26082 0
M  V30 4507 C 440.22 -3.53759 -0.661996 0
M  V30 4508 C 439.828 -4.4467 0.54524 0
M  V30 4509 C 441.572 -4.05916 -1.24228 0
M  V30 4510 C 439.479 -5.91058 0.201084 0
M  V30 4511 H 438.409 -0.742353 -0.132014 0
M  V30 4512 H 441.06 -1.79545 0.378948 0
M  V30 4513 H 439.442 -3.68772 -1.44304 0
M  V30 4514 H 440.616 -4.41426 1.32212 0
M  V30 4515 H 438.931 -4.03143 1.04232 0
M  V30 4516 H 441.528 -5.12831 -1.51357 0
M  V30 4517 H 441.871 -3.54908 -2.17592 0
M  V30 4518 H 442.404 -3.9434 -0.523542 0
M  V30 4519 H 439.143 -6.46161 1.10258 0
M  V30 4520 H 438.663 -5.97373 -0.539045 0
M  V30 4521 H 440.342 -6.46669 -0.206954 0
M  V30 4522 N 440.474 -0.00167713 -1.576 0
M  V30 4523 C 441.421 0.989195 -2.08527 0
M  V30 4524 C 442.391 1.34031 -0.981065 0
M  V30 4525 O 443.576 1.43839 -1.2536 0
M  V30 4526 C 440.716 2.27537 -2.59463 0
M  V30 4527 C 439.829 1.98314 -3.83791 0
M  V30 4528 C 438.964 3.21025 -4.23222 0
M  V30 4529 C 438.003 2.87495 -5.40382 0
M  V30 4530 N 437.14 4.02749 -5.75098 0
M  V30 4531 H 441.98 0.547973 -2.92919 0
M  V30 4532 H 439.517 0.258917 -1.44803 0
M  V30 4533 H 441.475 3.02729 -2.87073 0
M  V30 4534 H 440.105 2.69325 -1.77943 0
M  V30 4535 H 439.157 1.13482 -3.63078 0
M  V30 4536 H 440.469 1.69601 -4.69081 0
M  V30 4537 H 439.623 4.04561 -4.52123 0
M  V30 4538 H 438.362 3.52877 -3.36644 0
M  V30 4539 H 437.367 2.02367 -5.11202 0
M  V30 4540 H 438.592 2.56889 -6.28637 0
M  V30 4541 H 436.538 4.34494 -4.91478 0
M  V30 4542 H 436.455 3.77566 -6.54966 0
M  V30 4543 H 437.723 4.87068 -6.08592 0
M  V30 4544 N 441.952 1.55251 0.271103 0
M  V30 4545 C 443.368 1.47133 0.618393 0
M  V30 4546 C 443.568 0.686994 1.89427 0
M  V30 4547 O 442.624 0.206609 2.51653 0
M  V30 4548 C 443.937 2.91361 0.743593 0
M  V30 4549 C 445.485 3.01587 0.837522 0
M  V30 4550 C 445.96 4.47073 0.994483 0
M  V30 4551 N 447.451 4.50909 1.05996 0
M  V30 4552 C 448.186 5.60698 1.20024 0
M  V30 4553 N 447.682 6.80348 1.30759 0
M  V30 4554 N 449.475 5.48444 1.23149 0
M  V30 4555 H 441.626 2.04698 -0.566784 0
M  V30 4556 H 443.889 0.928319 -0.192165 0
M  V30 4557 H 443.595 3.51483 -0.123493 0
M  V30 4558 H 443.469 3.40484 1.62328 0
M  V30 4559 H 445.856 2.4156 1.69507 0
M  V30 4560 H 445.937 2.55713 -0.0668086 0
M  V30 4561 H 445.581 5.07703 0.141582 0
M  V30 4562 H 445.511 4.90605 1.91349 0
M  V30 4563 H 448.002 3.6472 0.989316 0
M  V30 4564 H 448.315 7.59772 1.41303 0
M  V30 4565 H 446.66 6.83156 1.27761 0
M  V30 4566 H 449.851 4.53907 1.14394 0
M  V30 4567 H 450.024 6.34049 1.33738 0
M  V30 4568 N 443.43 -0.535701 1.48216 0
M  V30 4569 C 444.655 -1.32149 1.59848 0
M  V30 4570 C 445.08 -1.86338 0.256842 0
M  V30 4571 O 444.438 -1.64107 -0.770632 0
M  V30 4572 C 444.486 -2.45224 2.64381 0
M  V30 4573 O 443.59 -3.48093 2.21144 0
M  V30 4574 H 442.931 -0.391634 0.536208 0
M  V30 4575 H 445.461 -0.645202 1.94161 0
M  V30 4576 H 445.471 -2.91491 2.85476 0
M  V30 4577 H 444.146 -2.05143 3.61786 0
M  V30 4578 H 442.723 -3.07984 2.10239 0
M  V30 4579 N 444.908 -1.36708 -0.784132 0
M  V30 4580 C 445.855 -1.31466 -1.89698 0
M  V30 4581 C 446.825 -0.18239 -1.65096 0
M  V30 4582 O 448.01 -0.369762 -1.87183 0
M  V30 4583 C 445.15 -1.1151 -3.26588 0
M  V30 4584 C 444.263 -2.33859 -3.63227 0
M  V30 4585 C 443.398 -2.06873 -4.89262 0
M  V30 4586 C 442.437 -3.25154 -5.18595 0
M  V30 4587 N 441.574 -2.978 -6.35814 0
M  V30 4588 H 446.414 -2.26619 -1.93515 0
M  V30 4589 H 443.951 -1.12625 -0.946256 0
M  V30 4590 H 445.909 -0.979653 -4.05535 0
M  V30 4591 H 444.539 -0.200103 -3.22179 0
M  V30 4592 H 443.591 -2.58188 -2.79362 0
M  V30 4593 H 444.903 -3.22109 -3.8085 0
M  V30 4594 H 444.057 -1.90289 -5.76086 0
M  V30 4595 H 442.796 -1.15942 -4.73718 0
M  V30 4596 H 441.801 -3.42292 -4.30251 0
M  V30 4597 H 443.026 -4.1692 -5.36055 0
M  V30 4598 H 440.972 -2.09485 -6.21653 0
M  V30 4599 H 440.889 -3.7959 -6.53794 0
M  V30 4600 H 442.157 -2.84805 -7.25607 0
M  V30 4601 N 446.386 1.0089 -1.21074 0
M  V30 4602 C 447.333 2.09588 -0.966512 0
M  V30 4603 C 448.303 1.65761 0.106089 0
M  V30 4604 O 449.488 1.90758 -0.0402287 0
M  V30 4605 C 446.628 3.40958 -0.533058 0
M  V30 4606 C 445.741 3.9822 -1.67467 0
M  V30 4607 C 444.876 5.17682 -1.19076 0
M  V30 4608 C 443.915 5.67043 -2.30496 0
M  V30 4609 N 443.052 6.77759 -1.83267 0
M  V30 4610 H 447.892 2.29815 -1.89708 0
M  V30 4611 H 445.429 1.12689 -0.945489 0
M  V30 4612 H 447.387 4.1637 -0.263019 0
M  V30 4613 H 446.017 3.20781 0.360505 0
M  V30 4614 H 445.069 3.1983 -2.05944 0
M  V30 4615 H 446.381 4.3085 -2.51336 0
M  V30 4616 H 445.535 6.00326 -0.877151 0
M  V30 4617 H 444.274 4.86635 -0.322066 0
M  V30 4618 H 443.279 4.82999 -2.62664 0
M  V30 4619 H 444.504 6.00121 -3.17855 0
M  V30 4620 H 442.45 6.48527 -0.987356 0
M  V30 4621 H 442.367 7.09624 -2.60711 0
M  V30 4622 H 443.635 7.63949 -1.54928 0
M  V30 4623 N 447.864 1.01787 1.20321 0
M  V30 4624 C 448.812 0.58254 2.25187 0
M  V30 4625 C 449.806 -0.379359 1.65098 0
M  V30 4626 O 451.012 -0.249142 1.78267 0
M  V30 4627 H 447.387 0.170078 0.732514 0
M  V30 4628 H 449.358 1.47788 2.59232 0
M  V30 4629 C 448.107 -0.0620885 3.47645 0
M  V30 4630 H 447.43 0.669069 3.94162 0
M  V30 4631 H 448.87 -0.329784 4.22716 0
M  V30 4632 C 447.329 -1.3053 3.10586 0
M  V30 4633 O 447.859 -2.39848 3.22236 0
M  V30 4634 N 446.065 -1.18988 2.65123 0
M  V30 4635 H 445.612 -0.300341 2.55843 0
M  V30 4636 H 445.57 -2.02267 2.40698 0
M  V30 4637 N 449.342 -1.36122 0.79427 0
M  V30 4638 C 450.567 -2.03891 0.379871 0
M  V30 4639 C 450.992 -1.59488 -0.997251 0
M  V30 4640 O 450.35 -0.765652 -1.64339 0
M  V30 4641 C 450.398 -3.57687 0.457442 0
M  V30 4642 O 449.502 -4.08931 -0.5338 0
M  V30 4643 H 448.843 -0.6443 0.160541 0
M  V30 4644 H 451.373 -1.73976 1.07673 0
M  V30 4645 H 451.383 -4.06721 0.322792 0
M  V30 4646 H 450.058 -3.89357 1.46199 0
M  V30 4647 H 448.635 -3.71154 -0.360409 0
M  V30 4648 N 450.82 -0.546701 -1.47814 0
M  V30 4649 C 451.75 0.195317 -2.32682 0
M  V30 4650 C 452.731 0.918981 -1.43139 0
M  V30 4651 O 453.916 0.901501 -1.72008 0
M  V30 4652 C 451.046 1.23237 -3.247 0
M  V30 4653 C 450 0.625818 -4.234 0
M  V30 4654 C 449.326 1.76674 -5.04669 0
M  V30 4655 C 450.626 -0.413515 -5.2066 0
M  V30 4656 H 452.32 -0.513184 -2.94969 0
M  V30 4657 H 449.866 -0.248241 -1.41844 0
M  V30 4658 H 451.819 1.75955 -3.82907 0
M  V30 4659 H 450.543 1.97067 -2.60446 0
M  V30 4660 H 449.202 0.120023 -3.66403 0
M  V30 4661 H 448.85 2.49383 -4.36826 0
M  V30 4662 H 448.55 1.36673 -5.71484 0
M  V30 4663 H 450.074 2.29738 -5.65732 0
M  V30 4664 H 451.488 0.0272042 -5.73294 0
M  V30 4665 H 449.885 -0.731825 -5.95621 0
M  V30 4666 H 450.955 -1.31325 -4.66778 0
M  V30 4667 N 452.299 1.55045 -0.282633 0
M  V30 4668 C 453.262 2.21515 0.588539 0
M  V30 4669 C 454.262 1.19535 1.07554 0
M  V30 4670 O 455.452 1.44391 0.974514 0
M  V30 4671 C 452.584 2.88704 1.8128 0
M  V30 4672 H 453.777 2.99899 0.00806397 0
M  V30 4673 H 451.33 1.56265 -0.0333067 0
M  V30 4674 H 452.065 2.14352 2.43359 0
M  V30 4675 H 451.85 3.63443 1.47144 0
M  V30 4676 H 453.34 3.39465 2.43214 0
M  V30 4677 N 453.777 0.010035 1.57597 0
M  V30 4678 C 454.707 -0.976857 2.12084 0
M  V30 4679 C 455.688 -1.35191 1.03235 0
M  V30 4680 O 456.873 -1.43389 1.3097 0
M  V30 4681 C 454.003 -2.26548 2.63236 0
M  V30 4682 C 452.957 -2.03175 3.76701 0
M  V30 4683 C 452.283 -3.38138 4.14206 0
M  V30 4684 C 453.583 -1.38625 5.03568 0
M  V30 4685 H 455.277 -0.523145 2.94794 0
M  V30 4686 H 452.823 -0.250195 1.4181 0
M  V30 4687 H 454.776 -2.95952 2.99984 0
M  V30 4688 H 453.5 -2.74051 1.77661 0
M  V30 4689 H 452.159 -1.36195 3.40362 0
M  V30 4690 H 451.807 -3.83363 3.25641 0
M  V30 4691 H 451.507 -3.23312 4.90656 0
M  V30 4692 H 453.031 -4.08841 4.53521 0
M  V30 4693 H 454.445 -1.98 5.38023 0
M  V30 4694 H 452.842 -1.34256 5.84889 0
M  V30 4695 H 453.912 -0.356722 4.83586 0
M  V30 4696 N 455.255 -1.55392 -0.262866 0
M  V30 4697 C 456.48 -1.80847 -1.01533 0
M  V30 4698 C 456.905 -0.584946 -1.78774 0
M  V30 4699 O 456.263 0.465701 -1.75217 0
M  V30 4700 C 456.311 -3.03866 -1.94159 0
M  V30 4701 O 455.415 -2.79662 -3.03089 0
M  V30 4702 H 454.756 -0.597441 -0.289759 0
M  V30 4703 H 457.286 -2.02553 -0.288698 0
M  V30 4704 H 457.296 -3.32872 -2.35924 0
M  V30 4705 H 455.971 -3.92564 -1.37354 0
M  V30 4706 H 454.548 -2.61781 -2.65566 0
M  V30 4707 N 456.733 0.527833 -1.48498 0
M  V30 4708 C 457.663 1.64136 -1.66077 0
M  V30 4709 C 458.644 1.62286 -0.509625 0
M  V30 4710 O 459.829 1.79449 -0.742413 0
M  V30 4711 C 456.959 3.02717 -1.70234 0
M  V30 4712 C 455.913 3.19426 -2.8487 0
M  V30 4713 C 455.239 4.5909 -2.74118 0
M  V30 4714 C 456.539 3.01993 -4.26142 0
M  V30 4715 H 458.233 1.4968 -2.593 0
M  V30 4716 H 455.779 0.718654 -1.24785 0
M  V30 4717 H 457.732 3.80491 -1.8112 0
M  V30 4718 H 456.456 3.18201 -0.735911 0
M  V30 4719 H 455.115 2.4407 -2.73542 0
M  V30 4720 H 454.763 4.71413 -1.7544 0
M  V30 4721 H 454.463 4.71214 -3.51042 0
M  V30 4722 H 455.987 5.3896 -2.86974 0
M  V30 4723 H 457.401 3.69558 -4.38292 0
M  V30 4724 H 455.798 3.2561 -5.04082 0
M  V30 4725 H 456.868 1.98396 -4.42456 0
M  V30 4726 N 458.211 1.37122 0.776871 0
M  V30 4727 C 459.439 1.3523 1.5659 0
M  V30 4728 C 459.854 -0.0635518 1.88693 0
M  V30 4729 O 459.211 -1.02394 1.51069 0
M  V30 4730 C 459.262 2.18583 2.8793 0
M  V30 4731 O 458.983 3.5465 2.57206 0
M  V30 4732 C 460.484 2.24612 3.82183 0
M  V30 4733 H 457.704 0.4634 0.485285 0
M  V30 4734 H 460.248 1.80392 0.963266 0
M  V30 4735 H 458.403 1.76943 3.4463 0
M  V30 4736 H 458.817 3.98286 3.41275 0
M  V30 4737 H 460.291 2.87267 4.71361 0
M  V30 4738 H 460.768 1.25309 4.20944 0
M  V30 4739 H 461.374 2.66543 3.31414 0
M  V30 4740 N 459.689 -1.00246 1.21608 0
M  V30 4741 C 460.652 -2.07233 0.979133 0
M  V30 4742 C 461.652 -1.6072 -0.0508219 0
M  V30 4743 O 462.842 -1.73196 0.186712 0
M  V30 4744 C 459.974 -3.37546 0.477016 0
M  V30 4745 H 461.167 -2.29687 1.92831 0
M  V30 4746 H 458.72 -1.17261 1.03342 0
M  V30 4747 H 459.455 -3.20773 -0.476966 0
M  V30 4748 H 459.24 -3.72638 1.21997 0
M  V30 4749 H 460.73 -4.16285 0.331181 0
M  V30 4750 N 461.167 -1.02423 -1.1978 0
M  V30 4751 C 462.444 -0.632802 -1.85081 0
M  V30 4752 C 462.824 0.888745 -1.9148 0
M  V30 4753 O 462.172 1.78357 -1.42832 0
M  V30 4754 C 462.382 -1.28947 -3.24305 0
M  V30 4755 C 463.73 -1.40976 -4.00513 0
M  V30 4756 O 464.754 -1.24628 -3.33686 0
M  V30 4757 O 463.613 -1.67467 -5.20209 0
M  V30 4758 H 460.707 -0.219348 -0.79738 0
M  V30 4759 H 463.253 -1.12209 -1.27307 0
M  V30 4760 H 462.025 -2.3288 -3.14456 0
M  V30 4761 H 461.648 -0.787748 -3.89718 0
M  V30 4762 N 462.645 1.35699 -0.801477 0
M  V30 4763 C 463.577 2.28598 -0.166028 0
M  V30 4764 C 464.59 1.50044 0.631721 0
M  V30 4765 O 465.779 1.72339 0.464921 0
M  V30 4766 C 462.879 3.29625 0.787451 0
M  V30 4767 C 462.052 4.37384 0.037171 0
M  V30 4768 C 461.111 5.183 0.908375 0
M  V30 4769 O 460.137 5.68053 0.361189 0
M  V30 4770 N 461.339 5.35912 2.23112 0
M  V30 4771 H 464.104 2.83771 -0.964071 0
M  V30 4772 H 461.665 1.47994 -0.656469 0
M  V30 4773 H 463.657 3.80648 1.37439 0
M  V30 4774 H 462.227 2.75004 1.48632 0
M  V30 4775 H 461.447 3.87364 -0.730935 0
M  V30 4776 H 462.735 5.0653 -0.480109 0
M  V30 4777 H 462.133 4.97125 2.69968 0
M  V30 4778 H 460.69 5.90133 2.76741 0
M  V30 4779 N 464.123 0.554532 1.47522 0
M  V30 4780 C 465.056 -0.242442 2.26908 0
M  V30 4781 C 466.034 -0.922722 1.33883 0
M  V30 4782 O 467.218 -0.942244 1.63261 0
M  V30 4783 C 464.345 -1.34525 3.10839 0
M  V30 4784 C 463.391 -0.773805 4.19422 0
M  V30 4785 S 464.224 0.377525 5.34168 0
M  V30 4786 C 465.38 -0.727164 6.21662 0
M  V30 4787 H 465.613 0.431218 2.94156 0
M  V30 4788 H 463.146 0.3408 1.50592 0
M  V30 4789 H 465.104 -1.97683 3.59766 0
M  V30 4790 H 463.765 -1.99073 2.42958 0
M  V30 4791 H 462.958 -1.60187 4.77866 0
M  V30 4792 H 462.56 -0.218448 3.73361 0
M  V30 4793 H 464.852 -1.61992 6.57849 0
M  V30 4794 H 465.795 -0.180135 7.07871 0
M  V30 4795 H 466.203 -1.01863 5.55233 0
M  V30 4796 N 465.601 -1.54893 0.290851 0
M  V30 4797 C 466.847 -2.0023 -0.321867 0
M  V30 4798 C 467.18 -1.179 -1.54316 0
M  V30 4799 O 466.455 -0.25293 -1.92848 0
M  V30 4800 C 466.738 -3.53456 -0.688515 0
M  V30 4801 C 466.591 -4.46532 0.541209 0
M  V30 4802 C 467.91 -4.13057 -1.51895 0
M  V30 4803 H 465.029 -0.727891 -0.115515 0
M  V30 4804 H 467.671 -1.85722 0.400931 0
M  V30 4805 H 465.821 -3.6595 -1.30433 0
M  V30 4806 H 467.493 -4.4596 1.17973 0
M  V30 4807 H 465.736 -4.17545 1.17636 0
M  V30 4808 H 466.407 -5.51475 0.240675 0
M  V30 4809 H 468.883 -4.03937 -0.99872 0
M  V30 4810 H 467.759 -5.20448 -1.74429 0
M  V30 4811 H 468.02 -3.64284 -2.50498 0
M  V30 4812 N 467.08 -0.0183926 -1.57589 0
M  V30 4813 C 468.305 0.676634 -1.96052 0
M  V30 4814 C 468.73 1.6548 -0.894307 0
M  V30 4815 O 468.088 1.80712 0.145849 0
M  V30 4816 C 468.136 1.36872 -3.33614 0
M  V30 4817 O 467.24 2.48372 -3.29219 0
M  V30 4818 H 466.581 0.1786 -0.63953 0
M  V30 4819 H 469.111 -0.077056 -2.04455 0
M  V30 4820 H 469.121 1.72797 -3.69601 0
M  V30 4821 H 467.796 0.651636 -4.10763 0
M  V30 4822 H 466.373 2.14639 -3.04934 0
M  V30 4823 N 468.558 1.5553 0.254621 0
M  V30 4824 C 469.521 1.88872 1.29846 0
M  V30 4825 C 470.521 0.764591 1.41459 0
M  V30 4826 O 471.711 1.03265 1.40293 0
M  V30 4827 C 468.843 2.11032 2.67728 0
M  V30 4828 H 470.036 2.82201 1.01502 0
M  V30 4829 H 467.589 1.48303 0.493556 0
M  V30 4830 H 468.324 1.20146 3.01223 0
M  V30 4831 H 468.109 2.92895 2.60682 0
M  V30 4832 H 469.599 2.38038 3.43115 0
M  V30 4833 N 470.036 -0.519951 1.48776 0
M  V30 4834 C 470.966 -1.63253 1.66945 0
M  V30 4835 C 471.947 -1.62014 0.518224 0
M  V30 4836 O 473.132 -1.79053 0.751919 0
M  V30 4837 C 470.262 -3.0181 1.71836 0
M  V30 4838 C 469.216 -3.17911 2.8656 0
M  V30 4839 C 468.542 -4.5763 2.76548 0
M  V30 4840 C 469.842 -2.99729 4.27738 0
M  V30 4841 H 471.536 -1.48302 2.6009 0
M  V30 4842 H 469.082 -0.712026 1.25165 0
M  V30 4843 H 471.035 -3.79525 1.83135 0
M  V30 4844 H 469.759 -3.17806 0.752775 0
M  V30 4845 H 468.418 -2.42616 2.74833 0
M  V30 4846 H 468.066 -4.70476 1.77937 0
M  V30 4847 H 467.766 -4.69346 3.53536 0
M  V30 4848 H 469.29 -5.37431 2.89828 0
M  V30 4849 H 470.704 -3.67228 4.40246 0
M  V30 4850 H 469.101 -3.22932 5.05801 0
M  V30 4851 H 470.171 -1.96047 4.43502 0
M  V30 4852 N 471.514 -1.37532 -0.769588 0
M  V30 4853 C 472.444 -1.36172 -1.89682 0
M  V30 4854 C 473.425 -0.23001 -1.68538 0
M  V30 4855 O 474.61 -0.43069 -1.89364 0
M  V30 4856 C 471.74 -1.1701 -3.26995 0
M  V30 4857 C 470.694 -2.27216 -3.62708 0
M  V30 4858 C 470.02 -1.93174 -4.98586 0
M  V30 4859 C 471.32 -3.6941 -3.69234 0
M  V30 4860 H 473.014 -2.30499 -1.91078 0
M  V30 4861 H 470.56 -1.10953 -0.917902 0
M  V30 4862 H 472.513 -1.14688 -4.05493 0
M  V30 4863 H 471.237 -0.191395 -3.26039 0
M  V30 4864 H 469.896 -2.28697 -2.86519 0
M  V30 4865 H 469.544 -0.938281 -4.94171 0
M  V30 4866 H 469.244 -2.66973 -5.23449 0
M  V30 4867 H 470.768 -1.92443 -5.79481 0
M  V30 4868 H 472.182 -3.70047 -4.37879 0
M  V30 4869 H 470.579 -4.4228 -4.05597 0
M  V30 4870 H 471.649 -4.0288 -2.69844 0
M  V30 4871 N 472.992 0.995999 -1.22138 0
M  V30 4872 C 474.269 1.70834 -0.952642 0
M  V30 4873 C 474.649 2.04257 0.533119 0
M  V30 4874 O 473.997 1.72343 1.50034 0
M  V30 4875 C 474.207 2.96119 -1.84701 0
M  V30 4876 C 475.555 3.68962 -2.10124 0
M  V30 4877 O 476.579 3.0612 -1.82124 0
M  V30 4878 O 475.438 4.82017 -2.57531 0
M  V30 4879 H 472.532 0.745498 -0.357997 0
M  V30 4880 H 475.078 1.05262 -1.33109 0
M  V30 4881 H 473.85 2.67898 -2.85213 0
M  V30 4882 H 473.473 3.6943 -1.46995 0
M  V30 4883 N 474.47 1.03057 1.19235 0
M  V30 4884 C 475.433 0.617418 2.20727 0
M  V30 4885 C 476.433 -0.319856 1.57587 0
M  V30 4886 O 477.623 -0.106633 1.73873 0
M  V30 4887 C 474.755 -0.096296 3.40764 0
M  V30 4888 H 475.948 1.51544 2.58794 0
M  V30 4889 H 473.501 0.821949 1.32942 0
M  V30 4890 H 474.236 -1.00859 3.08217 0
M  V30 4891 H 474.021 0.577217 3.87828 0
M  V30 4892 H 475.511 -0.372219 4.15938 0
M  V30 4893 N 475.948 -1.35272 0.808662 0
M  V30 4894 C 476.858 -2.33546 0.222079 0
M  V30 4895 C 477.874 -1.6196 -0.636011 0
M  V30 4896 O 479.05 -1.93822 -0.547274 0
M  V30 4897 C 476.115 -3.41148 -0.61795 0
M  V30 4898 C 475.176 -4.28507 0.260875 0
M  V30 4899 C 474.409 -5.3097 -0.539156 0
M  V30 4900 O 474.632 -5.42123 -1.77367 0
M  V30 4901 O 473.566 -6.01858 0.0710526 0
M  V30 4902 H 477.392 -2.85515 1.03512 0
M  V30 4903 H 474.977 -1.38079 0.570495 0
M  V30 4904 H 476.859 -4.06889 -1.09634 0
M  V30 4905 H 475.534 -2.91447 -1.40855 0
M  V30 4906 H 474.441 -3.6574 0.786451 0
M  V30 4907 H 475.774 -4.81611 1.01547 0
M  V30 4908 N 477.426 -0.562348 -1.47226 0
M  V30 4909 C 478.837 -0.130325 -1.86245 0
M  V30 4910 C 479.188 1.30128 -1.46838 0
M  V30 4911 O 478.313 1.97974 -0.873805 0
M  V30 4912 C 478.908 -0.229738 -3.3802 0
M  V30 4913 C 477.467 0.14728 -3.76112 0
M  V30 4914 C 476.614 -0.574971 -2.71274 0
M  V30 4915 H 479.565 -0.771773 -1.3867 0
M  V30 4916 H 479.586 0.550316 -3.76499 0
M  V30 4917 H 479.098 -1.27178 -3.66671 0
M  V30 4918 H 477.199 1.19023 -3.53078 0
M  V30 4919 H 477.312 -0.214858 -4.78618 0
M  V30 4920 H 475.676 -0.0174756 -2.54694 0
M  V30 4921 H 476.459 -1.61827 -3.02766 0
M  V30 4922 N 478.904 1.54736 -0.299062 0
M  V30 4923 C 480.315 1.8569 0.193971 0
M  V30 4924 C 480.666 1.22101 1.53577 0
M  V30 4925 O 479.791 0.51799 2.10109 0
M  V30 4926 C 480.386 3.36895 0.358733 0
M  V30 4927 C 478.945 3.67887 0.795986 0
M  V30 4928 C 478.092 2.77131 -0.096807 0
M  V30 4929 H 481.043 1.49934 -0.520134 0
M  V30 4930 H 481.064 3.61294 1.19361 0
M  V30 4931 H 480.576 3.83148 -0.617998 0
M  V30 4932 H 478.677 3.27151 1.78334 0
M  V30 4933 H 478.79 4.75114 0.616718 0
M  V30 4934 H 477.154 2.51153 0.423581 0
M  V30 4935 H 477.937 3.26204 -1.06986 0
M  V30 4936 N 480.382 0.0267497 1.57577 0
M  V30 4937 C 481.631 -0.651736 1.9088 0
M  V30 4938 C 481.944 -1.73427 0.904576 0
M  V30 4939 O 483.15 -2.46923 1.12877 0
M  V30 4940 C 481.606 -1.21048 3.38933 0
M  V30 4941 C 481.214 -0.161362 4.47709 0
M  V30 4942 C 482.958 -1.86562 3.81307 0
M  V30 4943 C 480.865 -0.731611 5.86857 0
M  V30 4944 H 479.795 -0.247198 0.712326 0
M  V30 4945 H 482.446 0.0916641 1.83271 0
M  V30 4946 H 480.828 -2.00542 3.41466 0
M  V30 4947 H 482.002 0.61094 4.56732 0
M  V30 4948 H 480.317 0.394877 4.14523 0
M  V30 4949 H 482.914 -2.30178 4.8262 0
M  V30 4950 H 483.257 -2.70735 3.16241 0
M  V30 4951 H 483.79 -1.13762 3.81186 0
M  V30 4952 H 480.529 0.0719329 6.55461 0
M  V30 4953 H 480.049 -1.47245 5.81445 0
M  V30 4954 H 481.728 -1.22208 6.35354 0
M  V30 4955 N 481.861 -1.55662 -0.24637 0
M  V30 4956 C 482.791 -1.93377 -1.30873 0
M  V30 4957 C 483.772 -0.798773 -1.50179 0
M  V30 4958 O 484.957 -1.0591 -1.62778 0
M  V30 4959 C 482.087 -2.22893 -2.66338 0
M  V30 4960 C 481.041 -3.38649 -2.61727 0
M  V30 4961 C 480.367 -3.53708 -4.00992 0
M  V30 4962 C 481.667 -4.74323 -2.18666 0
M  V30 4963 H 483.361 -2.82363 -0.995552 0
M  V30 4964 H 480.907 -1.35854 -0.477464 0
M  V30 4965 H 482.86 -2.47866 -3.40794 0
M  V30 4966 H 481.584 -1.30733 -2.99293 0
M  V30 4967 H 480.243 -3.13685 -1.89729 0
M  V30 4968 H 479.891 -2.58967 -4.31214 0
M  V30 4969 H 479.591 -4.31551 -3.98795 0
M  V30 4970 H 481.115 -3.81003 -4.77147 0
M  V30 4971 H 482.529 -4.98665 -2.82854 0
M  V30 4972 H 480.926 -5.55273 -2.27579 0
M  V30 4973 H 481.996 -4.71349 -1.13834 0
M  V30 4974 N 483.339 0.512053 -1.4905 0
M  V30 4975 C 484.569 1.28928 -1.61434 0
M  V30 4976 C 484.977 1.87107 -0.280647 0
M  V30 4977 O 484.32 1.68024 0.742537 0
M  V30 4978 C 484.382 2.466 -2.61588 0
M  V30 4979 C 484.046 2.09375 -4.06216 0
M  V30 4980 C 485.043 1.63994 -4.93358 0
M  V30 4981 C 482.728 2.19348 -4.51876 0
M  V30 4982 C 484.722 1.29076 -6.24194 0
M  V30 4983 C 482.409 1.84041 -5.82728 0
M  V30 4984 C 483.407 1.38978 -6.68711 0
M  V30 4985 O 483.095 1.04144 -7.97126 0
M  V30 4986 H 482.827 0.397668 -0.546659 0
M  V30 4987 H 485.381 0.622507 -1.9574 0
M  V30 4988 H 483.611 3.16318 -2.22441 0
M  V30 4989 H 485.3 3.08642 -2.63619 0
M  V30 4990 H 486.066 1.55744 -4.59313 0
M  V30 4991 H 481.945 2.53376 -3.85125 0
M  V30 4992 H 485.489 0.938303 -6.91261 0
M  V30 4993 H 481.386 1.91938 -6.16304 0
M  V30 4994 H 482.154 1.17387 -8.10039 0
M  V30 4995 N 484.817 1.37938 0.762283 0
M  V30 4996 C 486.042 1.37059 1.55659 0
M  V30 4997 C 486.467 -0.0396123 1.88058 0
M  V30 4998 O 485.825 -1.01929 1.49934 0
M  V30 4999 C 485.873 2.22494 2.83776 0
M  V30 5000 O 484.977 1.63607 3.78559 0
M  V30 5001 H 484.318 0.467892 0.47114 0
M  V30 5002 H 486.848 1.81587 0.942725 0
M  V30 5003 H 486.858 2.36045 3.32786 0
M  V30 5004 H 485.533 3.24993 2.59524 0
M  V30 5005 H 484.11 1.5915 3.37233 0
M  V30 5006 N 486.295 -0.989507 1.22664 0
M  V30 5007 C 487.205 -2.11449 1.01619 0
M  V30 5008 C 488.221 -1.73962 -0.036545 0
M  V30 5009 O 489.397 -2.00788 0.156924 0
M  V30 5010 C 486.462 -3.41465 0.600204 0
M  V30 5011 C 485.523 -3.93033 1.72695 0
M  V30 5012 C 484.756 -5.16844 1.33071 0
M  V30 5013 O 484.979 -5.7001 0.210975 0
M  V30 5014 O 483.913 -5.6225 2.14845 0
M  V30 5015 H 487.739 -2.32088 1.9588 0
M  V30 5016 H 485.324 -1.09823 1.01289 0
M  V30 5017 H 487.206 -4.19695 0.37873 0
M  V30 5018 H 485.881 -3.22178 -0.313511 0
M  V30 5019 H 484.788 -3.15961 2.00298 0
M  V30 5020 H 486.121 -4.16758 2.61865 0
M  V30 5021 N 487.773 -1.03688 -1.18687 0
M  V30 5022 C 489.003 -0.756819 -1.92239 0
M  V30 5023 C 489.411 0.689374 -1.76194 0
M  V30 5024 O 488.754 1.48126 -1.08648 0
M  V30 5025 C 488.816 -1.03851 -3.44173 0
M  V30 5026 C 488.48 -2.47785 -3.83994 0
M  V30 5027 C 489.477 -3.4595 -3.88091 0
M  V30 5028 C 487.162 -2.82397 -4.154 0
M  V30 5029 C 489.156 -4.76779 -4.23038 0
M  V30 5030 C 486.843 -4.13433 -4.50018 0
M  V30 5031 C 487.841 -5.10434 -4.53813 0
M  V30 5032 O 487.529 -6.39122 -4.87625 0
M  V30 5033 H 487.261 -0.275678 -0.617234 0
M  V30 5034 H 489.815 -1.38658 -1.51536 0
M  V30 5035 H 488.045 -0.351612 -3.85098 0
M  V30 5036 H 489.734 -0.746846 -3.9897 0
M  V30 5037 H 490.5 -3.20549 -3.63969 0
M  V30 5038 H 486.379 -2.07568 -4.11627 0
M  V30 5039 H 489.923 -5.52488 -4.25914 0
M  V30 5040 H 485.82 -4.38604 -4.736 0
M  V30 5041 H 486.588 -6.43715 -5.05542 0
M  V30 5042 N 489.251 1.34841 -0.815825 0
M  V30 5043 C 490.528 1.92908 -0.323416 0
M  V30 5044 C 490.908 1.74479 1.18828 0
M  V30 5045 O 490.256 1.11928 1.99209 0
M  V30 5046 C 490.466 3.40957 -0.744952 0
M  V30 5047 C 491.814 4.18107 -0.739716 0
M  V30 5048 O 492.838 3.49511 -0.68708 0
M  V30 5049 O 491.697 5.40517 -0.806456 0
M  V30 5050 H 488.791 0.822436 -0.0867646 0
M  V30 5051 H 491.337 1.4386 -0.90014 0
M  V30 5052 H 490.109 3.4814 -1.78646 0
M  V30 5053 H 489.732 3.97341 -0.143535 0
M  V30 5054 N 490.729 0.570148 1.46925 0
M  V30 5055 C 492.14 0.1402 1.86173 0
M  V30 5056 C 492.491 -1.29347 1.47526 0
M  V30 5057 O 491.616 -1.97508 0.884292 0
M  V30 5058 C 492.211 0.247661 3.37894 0
M  V30 5059 C 490.77 -0.127332 3.76185 0
M  V30 5060 C 489.917 0.589349 2.70965 0
M  V30 5061 H 492.868 0.779117 1.38259 0
M  V30 5062 H 492.889 -0.530341 3.76786 0
M  V30 5063 H 492.401 1.29121 3.65991 0
M  V30 5064 H 490.502 -1.17149 3.53704 0
M  V30 5065 H 490.615 0.240238 4.78497 0
M  V30 5066 H 488.979 0.0309824 2.54681 0
M  V30 5067 H 489.762 1.6343 3.01903 0
M  V30 5068 N 492.207 -1.54576 0.307264 0
M  V30 5069 C 493.435 -2.04675 -0.302597 0
M  V30 5070 C 493.85 -1.18425 -1.47041 0
M  V30 5071 O 493.207 -0.211257 -1.81273 0
M  V30 5072 C 493.258 -3.53575 -0.752801 0
M  V30 5073 O 492.979 -4.36547 0.368536 0
M  V30 5074 C 494.48 -4.19699 -1.42717 0
M  V30 5075 H 491.7 -0.66786 -0.0648374 0
M  V30 5076 H 494.244 -1.99516 0.448716 0
M  V30 5077 H 492.399 -3.59074 -1.45412 0
M  V30 5078 H 492.813 -5.24497 0.0168937 0
M  V30 5079 H 494.287 -5.25388 -1.69327 0
M  V30 5080 H 494.764 -3.69815 -2.36925 0
M  V30 5081 H 495.37 -4.18293 -0.768856 0
M  V30 5082 N 493.685 -0.035106 -1.57561 0
M  V30 5083 C 495.101 0.321334 -1.56332 0
M  V30 5084 C 495.301 1.72509 -1.04129 0
M  V30 5085 O 494.357 2.4287 -0.690694 0
M  V30 5086 C 495.67 0.164469 -3.0025 0
M  V30 5087 C 497.218 0.236786 -3.12103 0
M  V30 5088 C 497.693 0.10864 -4.57871 0
M  V30 5089 N 499.184 0.165433 -4.62904 0
M  V30 5090 C 499.919 0.0901506 -5.73329 0
M  V30 5091 N 499.415 -0.0365606 -6.9279 0
M  V30 5092 N 501.208 0.144572 -5.61914 0
M  V30 5093 H 493.359 -0.952976 -1.89821 0
M  V30 5094 H 495.622 -0.368537 -0.873432 0
M  V30 5095 H 495.328 -0.802746 -3.42416 0
M  V30 5096 H 495.202 0.932194 -3.655 0
M  V30 5097 H 497.589 1.19446 -2.69845 0
M  V30 5098 H 497.67 -0.561419 -2.49563 0
M  V30 5099 H 497.314 -0.845644 -5.00811 0
M  V30 5100 H 497.244 0.925786 -5.18398 0
M  V30 5101 H 499.735 0.263269 -3.76982 0
M  V30 5102 H 500.048 -0.0871487 -7.72751 0
M  V30 5103 H 498.393 -0.0714256 -6.94963 0
M  V30 5104 H 501.584 0.242006 -4.67474 0
M  V30 5105 H 501.757 0.0824413 -6.47948 0
M  V30 5106 N 495.163 1.55791 0.238111 0
M  V30 5107 C 496.574 1.68383 0.806472 0
M  V30 5108 C 496.925 0.634157 1.85669 0
M  V30 5109 O 496.05 -0.217913 2.153 0
M  V30 5110 C 496.645 3.05268 1.46959 0
M  V30 5111 C 495.204 3.1977 1.98555 0
M  V30 5112 C 494.351 2.64279 0.839763 0
M  V30 5113 H 497.302 1.58694 0.0137535 0
M  V30 5114 H 497.323 3.00203 2.33792 0
M  V30 5115 H 496.835 3.81643 0.704993 0
M  V30 5116 H 494.936 2.48234 2.77868 0
M  V30 5117 H 495.049 4.26788 2.17689 0
M  V30 5118 H 493.413 2.22329 1.24265 0
M  V30 5119 H 494.196 3.43187 0.0881032 0
M  V30 5120 N 496.642 -0.504142 1.49319 0
M  V30 5121 C 497.889 -1.25846 1.58647 0
M  V30 5122 C 498.217 -1.92592 0.27177 0
M  V30 5123 O 497.472 -1.81167 -0.74007 0
M  V30 5124 C 497.771 -2.35021 2.69258 0
M  V30 5125 C 497.437 -1.85755 4.1086 0
M  V30 5126 C 496.099 -1.72038 4.49395 0
M  V30 5127 C 498.451 -1.48844 4.99495 0
M  V30 5128 C 495.779 -1.19783 5.74342 0
M  V30 5129 C 498.131 -0.980422 6.24956 0
M  V30 5130 C 496.795 -0.829622 6.62324 0
M  V30 5131 H 496.065 -0.460505 0.580531 0
M  V30 5132 H 498.712 -0.559716 1.83138 0
M  V30 5133 H 497.017 -3.10672 2.38726 0
M  V30 5134 H 498.714 -2.93083 2.73685 0
M  V30 5135 H 495.304 -1.9739 3.80441 0
M  V30 5136 H 499.488 -1.5829 4.70381 0
M  V30 5137 H 494.744 -1.06817 6.01997 0
M  V30 5138 H 498.918 -0.685608 6.93017 0
M  V30 5139 H 496.545 -0.42253 7.59025 0
M  V30 5140 N 498.12 -1.38341 -0.754957 0
M  V30 5141 C 499.345 -1.37882 -1.5493 0
M  V30 5142 C 499.77 0.0296385 -1.88077 0
M  V30 5143 O 499.128 1.01133 -1.50472 0
M  V30 5144 C 499.176 -2.23996 -2.82592 0
M  V30 5145 O 498.28 -1.65612 -3.77686 0
M  V30 5146 H 497.621 -0.470384 -0.468652 0
M  V30 5147 H 500.151 -1.82084 -0.933082 0
M  V30 5148 H 500.161 -2.37806 -3.3153 0
M  V30 5149 H 498.836 -3.26365 -2.57796 0
M  V30 5150 H 497.413 -1.60936 -3.36384 0
M  V30 5151 N 499.598 0.982988 -1.23187 0
M  V30 5152 C 500.508 2.10907 -1.02739 0
M  V30 5153 C 501.524 1.73979 0.0273188 0
M  V30 5154 O 502.7 2.00702 -0.16757 0
M  V30 5155 C 499.765 3.41142 -0.618304 0
M  V30 5156 C 498.826 3.92112 -1.74777 0
M  V30 5157 C 498.059 5.16131 -1.3581 0
M  V30 5158 O 498.282 5.6989 -0.241201 0
M  V30 5159 O 497.216 5.61103 -2.17824 0
M  V30 5160 H 501.042 2.31046 -1.97108 0
M  V30 5161 H 498.627 1.09284 -1.01869 0
M  V30 5162 H 500.509 4.19488 -0.400982 0
M  V30 5163 H 499.184 3.2234 0.296421 0
M  V30 5164 H 498.091 3.14895 -2.0197 0
M  V30 5165 H 499.424 4.15364 -2.64071 0
M  V30 5166 N 501.076 1.04316 1.18135 0
M  V30 5167 C 502.039 0.640794 2.2006 0
M  V30 5168 C 503.039 -0.303124 1.57917 0
M  V30 5169 O 504.229 -0.0881855 1.73977 0
M  V30 5170 C 501.361 -0.060148 3.40847 0
M  V30 5171 H 502.554 1.54281 2.57172 0
M  V30 5172 H 500.107 0.836004 1.32063 0
M  V30 5173 H 500.842 -0.975845 3.0927 0
M  V30 5174 H 500.627 0.618319 3.87194 0
M  V30 5175 H 502.117 -0.328082 4.16309 0
M  V30 5176 N 502.554 -1.34406 0.822964 0
M  V30 5177 C 503.779 -2.0304 0.423034 0
M  V30 5178 C 504.204 -1.61568 -0.963196 0
M  V30 5179 O 503.562 -0.800339 -1.62678 0
M  V30 5180 C 503.61 -3.56636 0.53321 0
M  V30 5181 O 502.714 -4.09971 -0.446939 0
M  V30 5182 H 502.055 -0.64075 0.174171 0
M  V30 5183 H 504.585 -1.71653 1.11339 0
M  V30 5184 H 504.595 -4.05945 0.408991 0
M  V30 5185 H 503.27 -3.86168 1.54425 0
M  V30 5186 H 501.847 -3.71835 -0.281601 0
M  V30 5187 N 504.032 -0.577932 -1.46621 0
M  V30 5188 C 504.965 0.206312 -2.27265 0
M  V30 5189 C 505.943 0.901306 -1.35334 0
M  V30 5190 O 507.127 0.916151 -1.64739 0
M  V30 5191 C 504.254 1.29563 -3.1294 0
M  V30 5192 C 503.3 0.706981 -4.206 0
M  V30 5193 S 504.133 -0.462459 -5.33499 0
M  V30 5194 C 505.289 0.628171 -6.2274 0
M  V30 5195 H 505.522 -0.477961 -2.93433 0
M  V30 5196 H 503.055 -0.364715 -1.50031 0
M  V30 5197 H 505.013 1.91935 -3.62865 0
M  V30 5198 H 503.674 1.95183 -2.46095 0
M  V30 5199 H 502.867 1.52565 -4.80354 0
M  V30 5200 H 502.469 0.159022 -3.73662 0
M  V30 5201 H 504.761 1.51506 -6.60342 0
M  V30 5202 H 505.704 0.0674961 -7.08068 0
M  V30 5203 H 506.112 0.930167 -5.56784 0
M  V30 5204 N 505.51 1.54411 -0.315457 0
M  V30 5205 C 506.443 2.20265 0.596522 0
M  V30 5206 C 507.421 1.17693 1.12192 0
M  V30 5207 O 508.605 1.46397 1.18744 0
M  V30 5208 C 505.732 2.85794 1.81767 0
M  V30 5209 C 504.778 4.02017 1.42424 0
M  V30 5210 S 505.611 5.33452 0.467836 0
M  V30 5211 C 506.767 6.02471 1.69645 0
M  V30 5212 H 507 2.97277 0.0370896 0
M  V30 5213 H 504.533 1.54079 -0.0995562 0
M  V30 5214 H 506.491 3.24172 2.51839 0
M  V30 5215 H 505.152 2.08601 2.34828 0
M  V30 5216 H 504.345 4.46701 2.33396 0
M  V30 5217 H 503.947 3.65271 0.803311 0
M  V30 5218 H 506.239 6.24157 2.63504 0
M  V30 5219 H 507.182 6.96215 1.29192 0
M  V30 5220 H 507.59 5.32284 1.87974 0
M  V30 5221 N 506.988 0.0434614 1.5754 0
M  V30 5222 C 508.236 -0.630786 1.92004 0
M  V30 5223 C 508.557 -1.71836 0.921807 0
M  V30 5224 O 507.827 -1.9587 -0.034522 0
M  V30 5225 H 506.407 -0.235988 0.708745 0
M  V30 5226 H 509.069 0.0946462 1.9467 0
M  V30 5227 H 508.165 -1.07434 2.93026 0
M  V30 5228 N 508.466 -1.55915 -0.229846 0
M  V30 5229 C 509.396 -1.94754 -1.28815 0
M  V30 5230 C 510.377 -0.814657 -1.49323 0
M  V30 5231 O 511.562 -1.07631 -1.61645 0
M  V30 5232 C 508.692 -2.25705 -2.63959 0
M  V30 5233 C 507.646 -3.41406 -2.5812 0
M  V30 5234 C 506.972 -3.57941 -3.97218 0
M  V30 5235 C 508.272 -4.76616 -2.13623 0
M  V30 5236 H 509.966 -2.83404 -0.965547 0
M  V30 5237 H 507.512 -1.36353 -0.463028 0
M  V30 5238 H 509.465 -2.51467 -3.38146 0
M  V30 5239 H 508.189 -1.339 -2.9789 0
M  V30 5240 H 506.848 -3.1568 -1.86391 0
M  V30 5241 H 506.496 -2.63526 -4.28443 0
M  V30 5242 H 506.196 -4.35757 -3.94195 0
M  V30 5243 H 507.72 -3.86042 -4.73079 0
M  V30 5244 H 509.134 -5.01637 -2.77549 0
M  V30 5245 H 507.531 -5.57655 -2.21677 0
M  V30 5246 H 508.601 -4.7253 -1.08829 0
M  V30 5247 N 509.944 0.496216 -1.49584 0
M  V30 5248 C 510.874 1.60576 -1.69521 0
M  V30 5249 C 511.855 1.61169 -0.543933 0
M  V30 5250 O 513.04 1.77834 -0.78031 0
M  V30 5251 C 510.17 2.99038 -1.76616 0
M  V30 5252 C 509.124 3.13312 -2.91581 0
M  V30 5253 C 508.45 4.53172 -2.83794 0
M  V30 5254 C 509.75 2.92886 -4.32452 0
M  V30 5255 H 511.444 1.44146 -2.62416 0
M  V30 5256 H 508.99 0.692024 -1.26282 0
M  V30 5257 H 510.943 3.76564 -1.8915 0
M  V30 5258 H 509.667 3.16568 -0.80324 0
M  V30 5259 H 508.326 2.38213 -2.78658 0
M  V30 5260 H 507.974 4.67585 -1.854 0
M  V30 5261 H 507.674 4.63662 -3.60958 0
M  V30 5262 H 509.198 5.32752 -2.98342 0
M  V30 5263 H 510.612 3.60178 -4.46032 0
M  V30 5264 H 509.009 3.14844 -5.10875 0
M  V30 5265 H 510.079 1.88966 -4.46565 0
M  V30 5266 N 511.423 1.38739 0.74761 0
M  V30 5267 C 512.651 1.38521 1.53686 0
M  V30 5268 C 513.066 -0.0235129 1.88785 0
M  V30 5269 O 512.423 -0.991662 1.53207 0
M  V30 5270 C 512.474 2.24641 2.83229 0
M  V30 5271 O 512.195 3.60026 2.49625 0
M  V30 5272 C 513.696 2.32669 3.77333 0
M  V30 5273 H 510.916 0.473589 0.475347 0
M  V30 5274 H 513.46 1.82395 0.924786 0
M  V30 5275 H 511.615 1.84213 3.40799 0
M  V30 5276 H 512.029 4.05435 3.3275 0
M  V30 5277 H 513.503 2.97201 4.65162 0
M  V30 5278 H 513.98 1.3421 4.18192 0
M  V30 5279 H 514.586 2.73512 3.25685 0
M  V30 5280 N 512.901 -0.976442 1.23707 0
M  V30 5281 C 513.849 -2.09078 1.01927 0
M  V30 5282 C 514.843 -1.69345 -0.0430193 0
M  V30 5283 O 516.049 -1.79659 0.110814 0
M  V30 5284 H 512.424 -0.68398 0.312531 0
M  V30 5285 H 514.395 -2.24614 1.96447 0
M  V30 5286 C 513.144 -3.41919 0.631385 0
M  V30 5287 H 512.467 -3.72946 1.44053 0
M  V30 5288 H 513.907 -4.20817 0.518532 0
M  V30 5289 C 512.366 -3.30357 -0.660723 0
M  V30 5290 O 512.896 -3.63542 -1.70881 0
M  V30 5291 N 511.102 -2.83507 -0.638139 0
M  V30 5292 H 510.649 -2.567 0.215108 0
M  V30 5293 H 510.607 -2.76153 -1.50289 0
M  V30 5294 N 514.379 -1.04941 -1.1758 0
M  V30 5295 C 515.309 -0.669172 -2.23706 0
M  V30 5296 C 516.29 0.331835 -1.66832 0
M  V30 5297 O 517.475 0.209988 -1.93061 0
M  V30 5298 C 514.605 -0.0404889 -3.47276 0
M  V30 5299 C 513.559 -0.965983 -4.16957 0
M  V30 5300 C 512.885 -0.201312 -5.34321 0
M  V30 5301 C 514.185 -2.28902 -4.69469 0
M  V30 5302 H 515.879 -1.55639 -2.55767 0
M  V30 5303 H 513.425 -0.749793 -1.22939 0
M  V30 5304 H 515.378 0.237298 -4.20731 0
M  V30 5305 H 514.102 0.881658 -3.14475 0
M  V30 5306 H 512.761 -1.22829 -3.45411 0
M  V30 5307 H 512.409 0.723519 -4.97769 0
M  V30 5308 H 512.109 -0.817968 -5.81879 0
M  V30 5309 H 513.633 0.0692499 -6.10561 0
M  V30 5310 H 515.047 -2.07132 -5.34574 0
M  V30 5311 H 513.444 -2.85942 -5.27596 0
M  V30 5312 H 514.514 -2.92937 -3.86414 0
M  V30 5313 N 515.857 1.33968 -0.830081 0
M  V30 5314 C 516.82 2.27694 -0.26235 0
M  V30 5315 C 517.82 1.50589 0.563876 0
M  V30 5316 O 519.01 1.70028 0.378941 0
M  V30 5317 C 516.142 3.35002 0.63138 0
M  V30 5318 H 517.335 2.79419 -1.08928 0
M  V30 5319 H 514.888 1.44221 -0.602486 0
M  V30 5320 H 515.623 2.88504 1.48109 0
M  V30 5321 H 515.408 3.92079 0.0403276 0
M  V30 5322 H 516.898 4.04897 1.02217 0
M  V30 5323 N 517.335 0.585699 1.46312 0
M  V30 5324 C 518.612 0.00542031 1.95599 0
M  V30 5325 C 518.992 -1.45619 1.52834 0
M  V30 5326 O 518.34 -2.14759 0.780446 0
M  V30 5327 C 518.55 0.180601 3.48532 0
M  V30 5328 C 519.898 0.049979 4.24571 0
M  V30 5329 O 520.922 0.109589 3.56031 0
M  V30 5330 O 519.781 -0.0832226 5.46437 0
M  V30 5331 H 516.875 -0.0481281 0.825598 0
M  V30 5332 H 519.421 0.654227 1.56582 0
M  V30 5333 H 518.193 1.19657 3.72556 0
M  V30 5334 H 517.816 -0.504498 3.94386 0
M  V30 5335 N 518.813 -1.54241 0.323641 0
M  V30 5336 C 520.229 -1.59574 -0.0290018 0
M  V30 5337 C 520.429 -1.34017 -1.50472 0
M  V30 5338 O 519.485 -1.12464 -2.26071 0
M  V30 5339 C 520.798 -2.98169 0.389295 0
M  V30 5340 C 522.346 -3.11148 0.339958 0
M  V30 5341 C 522.821 -4.5209 0.733418 0
M  V30 5342 N 524.312 -4.5808 0.686827 0
M  V30 5343 C 525.047 -5.65248 0.963464 0
M  V30 5344 N 524.543 -6.80355 1.30724 0
M  V30 5345 N 526.336 -5.55025 0.88902 0
M  V30 5346 H 518.487 -1.6911 1.28512 0
M  V30 5347 H 520.75 -0.790972 0.522558 0
M  V30 5348 H 520.456 -3.21871 1.41746 0
M  V30 5349 H 520.33 -3.76399 -0.245657 0
M  V30 5350 H 522.717 -2.87182 -0.679002 0
M  V30 5351 H 522.798 -2.35023 1.00985 0
M  V30 5352 H 522.442 -4.76788 1.75029 0
M  V30 5353 H 522.372 -5.26584 0.0412189 0
M  V30 5354 H 524.863 -3.75411 0.43298 0
M  V30 5355 H 525.176 -7.58029 1.5037 0
M  V30 5356 H 523.521 -6.81851 1.3455 0
M  V30 5357 H 526.712 -4.63977 0.619939 0
M  V30 5358 H 526.885 -6.38458 1.10797 0
M  V30 5359 N 520.291 -0.0518155 -1.57515 0
M  V30 5360 C 521.201 0.937539 -2.15052 0
M  V30 5361 C 522.217 1.34121 -1.10849 0
M  V30 5362 O 523.393 1.418 -1.4302 0
M  V30 5363 C 520.458 2.19379 -2.68466 0
M  V30 5364 C 519.519 1.84841 -3.87469 0
M  V30 5365 C 518.752 3.04477 -4.38326 0
M  V30 5366 O 518.975 4.17868 -3.88256 0
M  V30 5367 O 517.909 2.85453 -5.29906 0
M  V30 5368 H 521.735 0.478201 -2.99912 0
M  V30 5369 H 519.32 0.17012 -1.48428 0
M  V30 5370 H 521.202 2.93084 -3.02787 0
M  V30 5371 H 519.877 2.64449 -1.86677 0
M  V30 5372 H 518.784 1.08449 -3.58036 0
M  V30 5373 H 520.117 1.44569 -4.7049 0
M  V30 5374 N 521.769 1.56035 0.221574 0
M  V30 5375 C 522.699 1.95434 1.2778 0
M  V30 5376 C 523.68 0.822564 1.48889 0
M  V30 5377 O 524.865 1.08486 1.61072 0
M  V30 5378 C 521.995 2.27102 2.62759 0
M  V30 5379 C 520.949 3.4277 2.56306 0
M  V30 5380 C 520.275 3.60043 3.95314 0
M  V30 5381 C 521.575 4.77742 2.11093 0
M  V30 5382 H 523.269 2.83912 0.950504 0
M  V30 5383 H 520.815 1.36596 0.455791 0
M  V30 5384 H 522.768 2.53256 3.36807 0
M  V30 5385 H 521.492 1.35478 2.97176 0
M  V30 5386 H 520.151 3.16664 1.84715 0
M  V30 5387 H 519.799 2.65794 4.27039 0
M  V30 5388 H 519.499 4.37841 3.91879 0
M  V30 5389 H 521.023 3.88545 4.71025 0
M  V30 5390 H 522.437 5.03102 2.74885 0
M  V30 5391 H 520.834 5.58823 2.18716 0
M  V30 5392 H 521.904 4.731 1.06321 0
M  V30 5393 N 523.247 -0.488276 1.49845 0
M  V30 5394 C 524.493 -1.24341 1.6021 0
M  V30 5395 C 524.826 -1.91967 0.293651 0
M  V30 5396 O 524.101 -1.81323 -0.703718 0
M  V30 5397 C 524.384 -2.3005 2.77036 0
M  V30 5398 C 524.237 -1.66842 4.17713 0
M  V30 5399 C 525.556 -3.31509 2.89464 0
M  V30 5400 H 522.675 -0.450704 0.583125 0
M  V30 5401 H 525.317 -0.539673 1.82174 0
M  V30 5402 H 523.467 -2.90071 2.58439 0
M  V30 5403 H 525.139 -1.1055 4.47858 0
M  V30 5404 H 523.382 -0.972079 4.22768 0
M  V30 5405 H 524.053 -2.43576 4.95353 0
M  V30 5406 H 526.529 -2.81493 3.06433 0
M  V30 5407 H 525.405 -4.02822 3.72861 0
M  V30 5408 H 525.666 -3.94603 1.99351 0
M  V30 5409 N 524.725 -1.39134 -0.740242 0
M  V30 5410 C 525.675 -1.33928 -1.84519 0
M  V30 5411 C 526.659 -0.221097 -1.59374 0
M  V30 5412 O 527.851 -0.458195 -1.70967 0
M  V30 5413 C 524.98 -1.17991 -3.22387 0
M  V30 5414 C 524.066 -2.34488 -3.53378 0
M  V30 5415 N 524.457 -3.59954 -3.5534 0
M  V30 5416 C 522.755 -2.27331 -3.83714 0
M  V30 5417 C 523.456 -4.36962 -3.83978 0
M  V30 5418 N 522.432 -3.66482 -4.01487 0
M  V30 5419 H 526.234 -2.28907 -1.84333 0
M  V30 5420 H 523.748 -1.32555 -0.938237 0
M  V30 5421 H 525.745 -1.12345 -4.01478 0
M  V30 5422 H 524.405 -0.23957 -3.23815 0
M  V30 5423 H 525.416 -3.93448 -3.36778 0
M  V30 5424 H 522.093 -1.41531 -3.92779 0
M  V30 5425 H 523.483 -5.45692 -3.92008 0
M  V30 5426 N 526.204 0.969867 -1.24223 0
M  V30 5427 C 527.137 2.06279 -0.975926 0
M  V30 5428 C 528.115 1.62353 0.0895385 0
M  V30 5429 O 529.299 1.88442 -0.0469418 0
M  V30 5430 C 526.426 3.35391 -0.472315 0
M  V30 5431 C 525.472 3.98266 -1.526 0
M  V30 5432 S 526.305 4.36172 -3.10667 0
M  V30 5433 C 527.461 5.68423 -2.62003 0
M  V30 5434 H 527.694 2.28551 -1.90137 0
M  V30 5435 H 525.227 1.10748 -1.07584 0
M  V30 5436 H 527.185 4.10068 -0.188376 0
M  V30 5437 H 525.846 3.1111 0.432378 0
M  V30 5438 H 525.039 4.91307 -1.12399 0
M  V30 5439 H 524.641 3.30009 -1.75983 0
M  V30 5440 H 526.933 6.45842 -2.0468 0
M  V30 5441 H 527.876 6.13478 -3.53625 0
M  V30 5442 H 528.284 5.26928 -2.02502 0
M  V30 5443 N 527.682 1.05563 1.17022 0
M  V30 5444 C 528.931 0.763036 1.8671 0
M  V30 5445 C 529.244 -0.712857 1.82147 0
M  V30 5446 O 530.45 -1.11955 2.47343 0
M  V30 5447 C 528.906 1.31474 3.35026 0
M  V30 5448 C 528.514 2.82034 3.48081 0
M  V30 5449 C 530.258 1.09935 4.10018 0
M  V30 5450 C 528.165 3.30486 4.90442 0
M  V30 5451 H 527.095 0.281747 0.699382 0
M  V30 5452 H 529.746 1.2734 1.32124 0
M  V30 5453 H 528.128 0.732171 3.89173 0
M  V30 5454 H 529.302 3.46178 3.04133 0
M  V30 5455 H 527.617 3.02156 2.86515 0
M  V30 5456 H 530.214 1.43632 5.15048 0
M  V30 5457 H 530.557 0.0373072 4.16283 0
M  V30 5458 H 531.09 1.64732 3.62089 0
M  V30 5459 H 527.829 4.36137 4.89352 0
M  V30 5460 H 527.349 2.71086 5.35044 0
M  V30 5461 H 529.028 3.25382 5.59227 0
M  V30 5462 N 529.16 -1.33526 0.837174 0
M  V30 5463 C 530.108 -2.31168 0.257698 0
M  V30 5464 C 531.102 -1.5806 -0.609388 0
M  V30 5465 O 532.308 -1.72941 -0.499139 0
M  V30 5466 H 528.683 -0.74922 0.0646058 0
M  V30 5467 H 530.654 -2.77552 1.09578 0
M  V30 5468 C 529.403 -3.4326 -0.553887 0
M  V30 5469 H 528.726 -3.99665 0.104008 0
M  V30 5470 H 530.166 -4.13782 -0.925219 0
M  V30 5471 C 528.625 -2.88965 -1.73207 0
M  V30 5472 O 529.155 -2.85013 -2.83073 0
M  V30 5473 N 527.361 -2.45596 -1.55342 0
M  V30 5474 H 526.908 -2.49009 -0.659705 0
M  V30 5475 H 526.866 -2.0962 -2.34322 0
M  V30 5476 N 530.638 -0.59345 -1.46 0
M  V30 5477 C 531.884 -0.0916503 -2.03193 0
M  V30 5478 C 532.239 1.25839 -1.45541 0
M  V30 5479 O 531.532 1.81455 -0.615191 0
M  V30 5480 C 531.726 0.021178 -3.57394 0
M  V30 5481 C 531.555 -1.31638 -4.30002 0
M  V30 5482 C 530.325 -1.89336 -4.68487 0
M  V30 5483 C 532.523 -2.242 -4.62859 0
M  V30 5484 N 530.505 -3.1672 -5.25891 0
M  V30 5485 C 531.876 -3.36175 -5.20948 0
M  V30 5486 C 533.931 -2.23748 -4.44794 0
M  V30 5487 C 532.634 -4.47844 -5.62875 0
M  V30 5488 C 534.66 -3.34454 -4.87744 0
M  V30 5489 C 534.022 -4.4515 -5.45913 0
M  V30 5490 H 530.121 -0.0765713 -0.778242 0
M  V30 5491 H 532.705 -0.788705 -1.7801 0
M  V30 5492 H 530.876 0.687423 -3.82268 0
M  V30 5493 H 532.608 0.528343 -4.01236 0
M  V30 5494 H 529.363 -1.42704 -4.51589 0
M  V30 5495 H 529.787 -3.81746 -5.59106 0
M  V30 5496 H 534.429 -1.39433 -3.99147 0
M  V30 5497 H 532.147 -5.32894 -6.07495 0
M  V30 5498 H 535.733 -3.35234 -4.75509 0
M  V30 5499 H 534.613 -5.29398 -5.78539 0
M  V30 5500 N 532.116 1.54067 -0.331816 0
M  V30 5501 C 533.079 2.23275 0.517768 0
M  V30 5502 C 534.079 1.22897 1.03697 0
M  V30 5503 O 535.269 1.47419 0.928084 0
M  V30 5504 C 532.401 2.94326 1.72004 0
M  V30 5505 H 533.594 2.99773 -0.0873507 0
M  V30 5506 H 531.147 1.56079 -0.0830042 0
M  V30 5507 H 531.882 2.21986 2.36417 0
M  V30 5508 H 531.667 3.67941 1.35507 0
M  V30 5509 H 533.157 3.47031 2.32291 0
M  V30 5510 N 533.594 0.0601682 1.57485 0
M  V30 5511 C 534.541 -0.91112 2.12055 0
M  V30 5512 C 535.511 -1.30298 1.03013 0
M  V30 5513 O 536.696 -1.39087 1.30612 0
M  V30 5514 C 533.836 -2.1775 2.67729 0
M  V30 5515 C 532.949 -1.83933 3.90887 0
M  V30 5516 C 532.084 -3.05096 4.34845 0
M  V30 5517 C 531.123 -2.67241 5.5068 0
M  V30 5518 N 530.26 -3.81127 5.8965 0
M  V30 5519 H 535.1 -0.43888 2.9475 0
M  V30 5520 H 532.637 -0.204995 1.45665 0
M  V30 5521 H 534.595 -2.91866 2.98111 0
M  V30 5522 H 533.225 -2.62535 1.87816 0
M  V30 5523 H 532.277 -0.999287 3.6704 0
M  V30 5524 H 533.589 -1.52074 4.75052 0
M  V30 5525 H 532.743 -3.87502 4.66827 0
M  V30 5526 H 531.482 -3.40139 3.49509 0
M  V30 5527 H 530.487 -1.83254 5.18361 0
M  V30 5528 H 531.712 -2.3338 6.37738 0
M  V30 5529 H 529.658 -4.15954 5.07266 0
M  V30 5530 H 529.575 -3.52997 6.68528 0
M  V30 5531 H 530.843 -4.64145 6.2625 0
M  V30 5532 N 535.072 -1.5615 -0.213296 0
M  V30 5533 C 536.488 -1.49327 -0.56336 0
M  V30 5534 C 536.688 -0.756826 -1.86747 0
M  V30 5535 O 535.744 -0.299866 -2.50713 0
M  V30 5536 C 537.057 -2.9392 -0.634944 0
M  V30 5537 C 538.605 -3.04487 -0.725013 0
M  V30 5538 C 539.08 -4.50456 -0.82787 0
M  V30 5539 N 540.571 -4.54533 -0.891876 0
M  V30 5540 C 541.306 -5.64766 -0.991315 0
M  V30 5541 N 540.802 -6.84733 -1.05419 0
M  V30 5542 N 542.595 -5.52637 -1.02709 0
M  V30 5543 H 534.746 -2.02453 0.642366 0
M  V30 5544 H 537.009 -0.920548 0.226487 0
M  V30 5545 H 536.715 -3.50783 0.253859 0
M  V30 5546 H 536.589 -3.46274 -1.49579 0
M  V30 5547 H 538.976 -2.47685 -1.60425 0
M  V30 5548 H 539.057 -2.55289 0.161669 0
M  V30 5549 H 538.701 -5.07878 0.0469464 0
M  V30 5550 H 538.631 -4.97369 -1.73009 0
M  V30 5551 H 541.122 -3.68141 -0.85327 0
M  V30 5552 H 541.435 -7.64493 -1.13007 0
M  V30 5553 H 539.78 -6.87427 -1.02318 0
M  V30 5554 H 542.971 -4.5784 -0.974687 0
M  V30 5555 H 543.144 -6.38576 -1.10113 0
M  V30 5556 N 536.55 0.480323 -1.50102 0
M  V30 5557 C 537.796 1.23489 -1.60867 0
M  V30 5558 C 538.129 1.91809 -0.303827 0
M  V30 5559 O 537.404 1.81694 0.694092 0
M  V30 5560 C 537.687 2.28578 -2.78252 0
M  V30 5561 C 537.54 1.64624 -4.18592 0
M  V30 5562 C 538.859 3.2997 -2.91218 0
M  V30 5563 H 535.978 0.447605 -0.585507 0
M  V30 5564 H 538.62 0.530005 -1.82458 0
M  V30 5565 H 536.77 2.88697 -2.59974 0
M  V30 5566 H 538.442 1.08173 -4.48438 0
M  V30 5567 H 536.685 0.949645 -4.23278 0
M  V30 5568 H 537.356 2.40946 -4.96638 0
M  V30 5569 H 539.832 2.79864 -3.07921 0
M  V30 5570 H 538.708 4.00839 -3.74993 0
M  V30 5571 H 538.969 3.93541 -2.0144 0
M  V30 5572 N 538.028 1.39524 0.732853 0
M  V30 5573 C 539.439 1.32905 1.31122 0
M  V30 5574 C 539.79 -0.00558708 1.96199 0
M  V30 5575 O 538.915 -0.907706 1.96443 0
M  V30 5576 C 539.51 2.40704 2.38426 0
M  V30 5577 C 538.069 2.37599 2.91931 0
M  V30 5578 C 537.216 2.2248 1.65523 0
M  V30 5579 H 540.167 1.49581 0.530207 0
M  V30 5580 H 540.188 2.07616 3.18867 0
M  V30 5581 H 539.7 3.37829 1.91033 0
M  V30 5582 H 537.801 1.44119 3.43599 0
M  V30 5583 H 537.914 3.32538 3.44899 0
M  V30 5584 H 536.278 1.69691 1.8994 0
M  V30 5585 H 537.061 3.21577 1.20178 0
M  V30 5586 N 539.506 -0.963266 1.24736 0
M  V30 5587 C 540.754 -1.70343 1.08755 0
M  V30 5588 C 541.075 -1.91387 -0.373619 0
M  V30 5589 O 540.345 -1.4948 -1.2662 0
M  V30 5590 H 538.925 -0.631224 0.399456 0
M  V30 5591 H 541.587 -1.15859 1.56725 0
M  V30 5592 H 540.683 -2.68616 1.58909 0
M  V30 5593 N 540.985 -1.06182 -1.16461 0
M  V30 5594 C 542.232 -0.777863 -1.86964 0
M  V30 5595 C 542.56 0.695602 -1.81636 0
M  V30 5596 O 541.815 1.52532 -1.22607 0
M  V30 5597 C 542.114 -1.21633 -3.36066 0
M  V30 5598 C 541.78 -2.69371 -3.61594 0
M  V30 5599 C 540.442 -3.09727 -3.6827 0
M  V30 5600 C 542.794 -3.64791 -3.7226 0
M  V30 5601 C 540.122 -4.44345 -3.83112 0
M  V30 5602 C 542.474 -4.99155 -3.88623 0
M  V30 5603 C 541.138 -5.39149 -3.93541 0
M  V30 5604 H 540.408 -0.28464 -0.68415 0
M  V30 5605 H 543.055 -1.33071 -1.37711 0
M  V30 5606 H 541.36 -0.582651 -3.87443 0
M  V30 5607 H 543.057 -0.973682 -3.88999 0
M  V30 5608 H 539.647 -2.37124 -3.57029 0
M  V30 5609 H 543.831 -3.34746 -3.66413 0
M  V30 5610 H 539.087 -4.74819 -3.85172 0
M  V30 5611 H 543.261 -5.72976 -3.95817 0
M  V30 5612 H 540.888 -6.43464 -4.04794 0
M  V30 5613 N 542.463 1.3308 -0.844243 0
M  V30 5614 C 543.709 1.97898 -0.443206 0
M  V30 5615 C 544.042 1.66699 0.99625 0
M  V30 5616 O 543.317 0.949704 1.69738 0
M  V30 5617 C 543.6 3.53801 -0.670606 0
M  V30 5618 C 543.453 3.94667 -2.15772 0
M  V30 5619 C 544.772 4.39936 -0.120226 0
M  V30 5620 H 541.891 0.718861 -0.162504 0
M  V30 5621 H 544.533 1.57633 -1.06075 0
M  V30 5622 H 542.683 3.88229 -0.14496 0
M  V30 5623 H 544.355 3.70469 -2.74865 0
M  V30 5624 H 542.598 3.44203 -2.6402 0
M  V30 5625 H 543.269 5.03275 -2.26757 0
M  V30 5626 H 545.745 4.12183 -0.5696 0
M  V30 5627 H 544.621 5.4803 -0.308984 0
M  V30 5628 H 544.882 4.31184 0.976347 0
M  V30 5629 N 543.941 0.601185 1.45683 0
M  V30 5630 C 545.218 0.0261659 1.95582 0
M  V30 5631 C 545.598 -1.4399 1.5437 0
M  V30 5632 O 544.946 -2.13919 0.80318 0
M  V30 5633 C 545.156 0.217557 3.48321 0
M  V30 5634 C 546.504 0.0950076 4.24494 0
M  V30 5635 O 547.528 0.147345 3.55895 0
M  V30 5636 O 546.387 -0.025261 5.46494 0
M  V30 5637 H 543.481 -0.0393688 0.826062 0
M  V30 5638 H 546.027 0.670798 1.55879 0
M  V30 5639 H 544.799 1.23601 3.71266 0
M  V30 5640 H 544.422 -0.46264 3.94899 0
M  V30 5641 N 545.419 -1.53889 0.339982 0
M  V30 5642 C 546.349 -2.27843 -0.510856 0
M  V30 5643 C 547.33 -1.29267 -1.10563 0
M  V30 5644 O 548.515 -1.58104 -1.12768 0
M  V30 5645 C 545.645 -3.04857 -1.66372 0
M  V30 5646 C 544.599 -4.10907 -1.19746 0
M  V30 5647 C 543.925 -4.75855 -2.43857 0
M  V30 5648 C 545.225 -5.21435 -0.300501 0
M  V30 5649 H 546.919 -2.99212 0.106067 0
M  V30 5650 H 544.465 -1.43904 0.0524533 0
M  V30 5651 H 546.418 -3.5533 -2.26537 0
M  V30 5652 H 545.142 -2.31133 -2.30749 0
M  V30 5653 H 543.801 -3.61342 -0.618654 0
M  V30 5654 H 543.449 -3.9873 -3.06633 0
M  V30 5655 H 543.149 -5.47502 -2.13343 0
M  V30 5656 H 544.673 -5.2911 -3.04754 0
M  V30 5657 H 546.087 -5.67565 -0.80889 0
M  V30 5658 H 544.484 -6.00036 -0.0874076 0
M  V30 5659 H 545.554 -4.80328 0.664321 0
M  V30 5660 N 546.897 -0.0685191 -1.57451 0
M  V30 5661 C 548.125 0.610462 -1.97689 0
M  V30 5662 C 548.54 1.63346 -0.946758 0
M  V30 5663 O 547.897 1.82377 0.0669868 0
M  V30 5664 C 547.948 1.28196 -3.38006 0
M  V30 5665 O 547.669 0.299906 -4.37072 0
M  V30 5666 C 549.17 2.04907 -3.931 0
M  V30 5667 H 546.39 0.165689 -0.650222 0
M  V30 5668 H 548.934 -0.139953 -2.04021 0
M  V30 5669 H 547.089 1.98348 -3.32771 0
M  V30 5670 H 547.503 0.78126 -5.18649 0
M  V30 5671 H 548.977 2.47287 -4.93511 0
M  V30 5672 H 549.454 2.9043 -3.29465 0
M  V30 5673 H 550.06 1.39629 -4.01726 0
M  V30 5674 N 548.375 1.56261 0.205012 0
M  V30 5675 C 549.305 1.96779 1.257 0
M  V30 5676 C 550.286 0.838309 1.48008 0
M  V30 5677 O 551.471 1.10189 1.59913 0
M  V30 5678 C 548.601 2.29876 2.60335 0
M  V30 5679 C 547.555 3.45469 2.52656 0
M  V30 5680 C 546.881 3.64215 3.91473 0
M  V30 5681 C 548.181 4.79954 2.06014 0
M  V30 5682 H 549.875 2.84904 0.920338 0
M  V30 5683 H 547.421 1.37072 0.441277 0
M  V30 5684 H 549.374 2.56814 3.34102 0
M  V30 5685 H 548.098 1.38622 2.95722 0
M  V30 5686 H 546.757 3.18605 1.81345 0
M  V30 5687 H 546.405 2.70309 4.24196 0
M  V30 5688 H 546.105 4.41973 3.87213 0
M  V30 5689 H 547.629 3.93519 4.66878 0
M  V30 5690 H 549.043 5.05989 2.69533 0
M  V30 5691 H 547.44 5.61111 2.12777 0
M  V30 5692 H 548.51 4.74201 1.01297 0
M  V30 5693 N 549.853 -0.472356 1.50355 0
M  V30 5694 C 550.803 -1.56809 1.65514 0
M  V30 5695 C 551.787 -1.5261 0.509801 0
M  V30 5696 O 552.979 -1.59655 0.764145 0
M  V30 5697 C 550.108 -2.9526 1.75146 0
M  V30 5698 C 549.194 -3.04348 2.95353 0
M  V30 5699 N 549.585 -2.83253 4.19048 0
M  V30 5700 C 547.883 -3.35482 2.93884 0
M  V30 5701 C 548.584 -2.97273 5.00003 0
M  V30 5702 N 547.56 -3.27418 4.33934 0
M  V30 5703 H 551.362 -1.39197 2.58846 0
M  V30 5704 H 548.876 -0.67906 1.47521 0
M  V30 5705 H 550.873 -3.74044 1.8411 0
M  V30 5706 H 549.533 -3.1392 0.829717 0
M  V30 5707 H 550.544 -2.5886 4.48567 0
M  V30 5708 H 547.221 -3.60138 2.11204 0
M  V30 5709 H 548.611 -2.85214 6.08361 0
M  V30 5710 N 551.331 -1.39911 -0.725443 0
M  V30 5711 C 552.608 -1.28158 -1.47766 0
M  V30 5712 C 552.988 0.104545 -2.10841 0
M  V30 5713 O 552.336 1.11657 -1.99361 0
M  V30 5714 C 552.546 -2.41306 -2.52135 0
M  V30 5715 C 553.894 -2.81076 -3.18247 0
M  V30 5716 O 554.918 -2.40827 -2.62452 0
M  V30 5717 O 553.777 -3.50581 -4.19231 0
M  V30 5718 H 550.871 -0.502761 -0.656628 0
M  V30 5719 H 553.417 -1.51808 -0.758456 0
M  V30 5720 H 552.189 -3.33932 -2.03974 0
M  V30 5721 H 551.812 -2.19374 -3.31603 0
M  V30 5722 N 552.809 0.956637 -1.25245 0
M  V30 5723 C 553.741 2.05628 -1.01242 0
M  V30 5724 C 554.754 1.62785 0.0219579 0
M  V30 5725 O 555.943 1.77184 -0.216365 0
M  V30 5726 C 553.043 3.35069 -0.508161 0
M  V30 5727 C 552.216 4.06761 -1.60823 0
M  V30 5728 C 551.275 5.14473 -1.1047 0
M  V30 5729 O 550.301 5.40033 -1.79868 0
M  V30 5730 N 551.503 5.80474 0.0550773 0
M  V30 5731 H 554.268 2.2679 -1.95925 0
M  V30 5732 H 551.829 1.12505 -1.16423 0
M  V30 5733 H 553.821 4.044 -0.155819 0
M  V30 5734 H 552.391 3.10694 0.344683 0
M  V30 5735 H 551.611 3.31555 -2.13224 0
M  V30 5736 H 552.899 4.51418 -2.34733 0
M  V30 5737 H 552.297 5.62125 0.635004 0
M  V30 5738 H 550.854 6.50868 0.348469 0
M  V30 5739 N 554.287 1.06798 1.15896 0
M  V30 5740 C 555.533 0.788934 1.86825 0
M  V30 5741 C 555.866 -0.683084 1.8179 0
M  V30 5742 O 555.141 -1.50086 1.23711 0
M  V30 5743 C 555.424 1.29065 3.36176 0
M  V30 5744 C 555.277 2.8268 3.49874 0
M  V30 5745 C 556.596 0.902655 4.30744 0
M  V30 5746 H 553.715 0.288066 0.678371 0
M  V30 5747 H 556.357 1.32479 1.36195 0
M  V30 5748 H 554.507 0.834806 3.79425 0
M  V30 5749 H 556.179 3.36511 3.15528 0
M  V30 5750 H 554.422 3.21157 2.91617 0
M  V30 5751 H 555.093 3.12852 4.54783 0
M  V30 5752 H 557.569 1.29535 3.95424 0
M  V30 5753 H 556.445 1.28111 5.3374 0
M  V30 5754 H 556.706 -0.191951 4.41683 0
M  V30 5755 N 555.766 -1.3263 0.851289 0
M  V30 5756 C 556.716 -2.26451 0.265302 0
M  V30 5757 C 557.7 -1.49814 -0.586899 0
M  V30 5758 O 558.892 -1.71525 -0.436834 0
M  V30 5759 C 556.021 -3.38895 -0.548212 0
M  V30 5760 C 555.107 -4.2292 0.316189 0
M  V30 5761 N 555.498 -4.86014 1.40084 0
M  V30 5762 C 553.796 -4.45876 0.105356 0
M  V30 5763 C 554.497 -5.48667 1.93235 0
M  V30 5764 N 553.473 -5.29455 1.232 0
M  V30 5765 H 557.275 -2.72757 1.09457 0
M  V30 5766 H 554.789 -1.4668 0.697047 0
M  V30 5767 H 556.786 -4.05111 -0.984402 0
M  V30 5768 H 555.446 -2.94135 -1.37531 0
M  V30 5769 H 556.457 -4.86212 1.78377 0
M  V30 5770 H 553.134 -4.11804 -0.687299 0
M  V30 5771 H 554.524 -6.08865 2.84135 0
M  V30 5772 N 557.244 -0.608902 -1.45362 0
M  V30 5773 C 558.174 0.0964526 -2.33301 0
M  V30 5774 C 559.155 0.857444 -1.46908 0
M  V30 5775 O 560.34 0.827735 -1.75676 0
M  V30 5776 C 557.47 1.09354 -3.29635 0
M  V30 5777 C 556.424 0.445676 -4.25673 0
M  V30 5778 C 555.75 1.5511 -5.11708 0
M  V30 5779 C 557.05 -0.633972 -5.18438 0
M  V30 5780 H 558.744 -0.637829 -2.92527 0
M  V30 5781 H 556.29 -0.308178 -1.40664 0
M  V30 5782 H 558.243 1.59556 -3.90025 0
M  V30 5783 H 556.967 1.85843 -2.6857 0
M  V30 5784 H 555.626 -0.0354897 -3.66583 0
M  V30 5785 H 555.274 2.30631 -4.4701 0
M  V30 5786 H 554.974 1.12311 -5.76767 0
M  V30 5787 H 556.498 2.05537 -5.74967 0
M  V30 5788 H 557.912 -0.215974 -5.72893 0
M  V30 5789 H 556.309 -0.983789 -5.91981 0
M  V30 5790 H 557.379 -1.51005 -4.60788 0
M  V30 5791 N 558.722 1.53707 -0.348139 0
M  V30 5792 C 559.652 2.28111 0.498766 0
M  V30 5793 C 560.633 1.29851 1.09876 0
M  V30 5794 O 561.818 1.587 1.11928 0
M  V30 5795 C 558.948 3.05735 1.64753 0
M  V30 5796 C 557.902 4.11537 1.17565 0
M  V30 5797 C 557.228 4.77142 2.4133 0
M  V30 5798 C 558.528 5.21587 0.272844 0
M  V30 5799 H 560.222 2.99152 -0.121934 0
M  V30 5800 H 557.768 1.43875 -0.0600842 0
M  V30 5801 H 559.721 3.56526 2.24649 0
M  V30 5802 H 558.445 2.32354 2.2952 0
M  V30 5803 H 557.104 3.61665 0.599483 0
M  V30 5804 H 556.752 4.0035 3.04514 0
M  V30 5805 H 556.452 5.48626 2.10436 0
M  V30 5806 H 557.976 5.30719 3.01943 0
M  V30 5807 H 559.39 5.67986 0.778779 0
M  V30 5808 H 557.787 6.00074 0.0555849 0
M  V30 5809 H 558.857 4.79969 -0.689785 0
M  V30 5810 N 560.2 0.0768682 1.57412 0
M  V30 5811 C 561.11 -0.903207 2.16516 0
M  V30 5812 C 562.126 -1.32341 1.12968 0
M  V30 5813 O 563.302 -1.39507 1.45258 0
M  V30 5814 C 560.367 -2.1508 2.71922 0
M  V30 5815 C 559.428 -1.78653 3.90361 0
M  V30 5816 C 558.661 -2.97465 4.43114 0
M  V30 5817 O 558.884 -4.11638 3.94854 0
M  V30 5818 O 557.818 -2.76987 5.3438 0
M  V30 5819 H 561.644 -0.430427 3.00634 0
M  V30 5820 H 559.229 -0.146485 1.4868 0
M  V30 5821 H 561.111 -2.8823 3.07411 0
M  V30 5822 H 559.786 -2.61446 1.9086 0
M  V30 5823 H 558.693 -1.0274 3.59716 0
M  V30 5824 H 560.026 -1.37066 4.7273 0
M  V30 5825 N 561.678 -1.56367 -0.196722 0
M  V30 5826 C 562.918 -1.82315 -0.92415 0
M  V30 5827 C 563.282 -0.654117 -1.80514 0
M  V30 5828 O 564.483 -0.79345 -2.56823 0
M  V30 5829 C 562.754 -3.13279 -1.72021 0
M  V30 5830 S 564.313 -3.60627 -2.49988 0
M  V30 5831 H 561.131 -0.639862 -0.309997 0
M  V30 5832 H 563.733 -1.94597 -0.187684 0
M  V30 5833 H 562.437 -3.96379 -1.06358 0
M  V30 5834 H 561.968 -3.03871 -2.49852 0
M  V30 5835 H 563.983 -3.25934 -3.74141 0
M  V30 5836 N 563.156 0.464375 -1.50603 0
M  V30 5837 C 564.119 1.54393 -1.69397 0
M  V30 5838 C 565.119 1.50566 -0.564504 0
M  V30 5839 O 566.309 1.53066 -0.831645 0
M  V30 5840 C 563.441 2.9401 -1.72543 0
M  V30 5841 H 564.634 1.39044 -2.65719 0
M  V30 5842 H 562.187 0.69122 -1.40185 0
M  V30 5843 H 562.922 3.14795 -0.77938 0
M  V30 5844 H 562.707 2.98195 -2.54602 0
M  V30 5845 H 564.197 3.72375 -1.89015 0
M  V30 5846 N 564.634 1.40294 0.718013 0
M  V30 5847 C 565.88 1.39648 1.47885 0
M  V30 5848 C 566.235 -0.0023879 1.924 0
M  V30 5849 O 565.528 -0.972304 1.65096 0
M  V30 5850 C 565.722 2.31814 2.72024 0
M  V30 5851 C 565.551 3.80523 2.3965 0
M  V30 5852 C 564.321 4.49351 2.3111 0
M  V30 5853 C 566.519 4.72077 2.04079 0
M  V30 5854 N 564.501 5.83305 1.91385 0
M  V30 5855 C 565.872 5.94809 1.74935 0
M  V30 5856 C 567.927 4.59935 1.90694 0
M  V30 5857 C 566.63 7.06755 1.33753 0
M  V30 5858 C 568.656 5.7182 1.50915 0
M  V30 5859 C 568.018 6.93637 1.22668 0
M  V30 5860 H 564.117 0.566263 0.539324 0
M  V30 5861 H 566.701 1.75986 0.832891 0
M  V30 5862 H 564.872 1.97607 3.34374 0
M  V30 5863 H 566.604 2.22042 3.38348 0
M  V30 5864 H 563.359 4.03002 2.4877 0
M  V30 5865 H 563.783 6.54239 1.74068 0
M  V30 5866 H 568.425 3.66274 2.11194 0
M  V30 5867 H 566.143 8.00302 1.11995 0
M  V30 5868 H 569.729 5.64421 1.4114 0
M  V30 5869 H 568.609 7.78743 0.923502 0
M  V30 5870 N 566.112 -0.949982 1.2575 0
M  V30 5871 C 567.042 -2.06483 1.09028 0
M  V30 5872 C 568.023 -1.701 -0.00201532 0
M  V30 5873 O 569.208 -1.93469 0.168383 0
M  V30 5874 C 566.338 -3.39899 0.71316 0
M  V30 5875 C 565.292 -3.90309 1.75621 0
M  V30 5876 C 564.618 -5.20274 1.23365 0
M  V30 5877 C 565.918 -4.16169 3.15596 0
M  V30 5878 H 567.612 -2.20731 2.02283 0
M  V30 5879 H 565.158 -1.06066 0.973964 0
M  V30 5880 H 567.111 -4.17346 0.58309 0
M  V30 5881 H 565.835 -3.25602 -0.255091 0
M  V30 5882 H 564.494 -3.15035 1.8748 0
M  V30 5883 H 564.142 -5.02351 0.255491 0
M  V30 5884 H 563.842 -5.54971 1.93082 0
M  V30 5885 H 565.366 -6.00314 1.11607 0
M  V30 5886 H 566.78 -4.84259 3.06864 0
M  V30 5887 H 565.177 -4.62131 3.82825 0
M  V30 5888 H 566.247 -3.22273 3.6231 0
M  V30 5889 N 567.59 -1.07411 -1.15328 0
M  V30 5890 C 568.5 -0.706438 -2.23711 0
M  V30 5891 C 569.516 0.282586 -1.7169 0
M  V30 5892 O 570.692 0.129066 -2.00986 0
M  V30 5893 C 567.757 -0.11048 -3.46524 0
M  V30 5894 C 566.818 -1.15282 -4.13532 0
M  V30 5895 C 566.051 -0.585205 -5.30482 0
M  V30 5896 O 566.274 0.598549 -5.67251 0
M  V30 5897 O 565.208 -1.33039 -5.87013 0
M  V30 5898 H 569.034 -1.61031 -2.57493 0
M  V30 5899 H 566.619 -0.847113 -1.23062 0
M  V30 5900 H 568.501 0.21957 -4.20828 0
M  V30 5901 H 567.176 0.766703 -3.14489 0
M  V30 5902 H 566.083 -1.53523 -3.41147 0
M  V30 5903 H 567.416 -2.00192 -4.49649 0
M  V30 5904 N 569.068 1.32177 -0.85831 0
M  V30 5905 C 570.317 1.96392 -0.459689 0
M  V30 5906 C 570.63 1.68659 0.990632 0
M  V30 5907 O 571.836 2.26641 1.49485 0
M  V30 5908 C 570.292 3.51542 -0.7711 0
M  V30 5909 C 569.9 3.8813 -2.2374 0
M  V30 5910 C 571.644 4.2221 -0.44038 0
M  V30 5911 C 569.551 5.36341 -2.49183 0
M  V30 5912 H 568.481 0.735007 -0.168169 0
M  V30 5913 H 571.132 1.50518 -1.0496 0
M  V30 5914 H 569.514 3.95846 -0.11058 0
M  V30 5915 H 570.688 3.54824 -2.94001 0
M  V30 5916 H 569.003 3.30497 -2.533 0
M  V30 5917 H 571.6 5.31234 -0.607855 0
M  V30 5918 H 571.943 4.11683 0.618291 0
M  V30 5919 H 572.476 3.83502 -1.05695 0
M  V30 5920 H 569.215 5.51892 -3.53689 0
M  V30 5921 H 568.735 5.7104 -1.83504 0
M  V30 5922 H 570.414 6.03466 -2.33318 0
M  V30 5923 N 570.547 0.616602 1.45037 0
M  V30 5924 C 571.477 -0.0840787 2.33349 0
M  V30 5925 C 572.458 -0.849641 1.4736 0
M  V30 5926 O 573.643 -0.818407 1.76113 0
M  V30 5927 C 570.773 -1.07604 3.3021 0
M  V30 5928 C 569.727 -0.423096 4.25904 0
M  V30 5929 C 569.053 -1.52394 5.12523 0
M  V30 5930 C 570.353 0.661457 5.18095 0
M  V30 5931 H 572.047 0.653333 2.92185 0
M  V30 5932 H 569.593 0.315634 1.40498 0
M  V30 5933 H 571.546 -1.57485 3.90866 0
M  V30 5934 H 570.27 -1.84416 2.69552 0
M  V30 5935 H 568.929 0.05493 3.66559 0
M  V30 5936 H 568.577 -2.28257 4.48227 0
M  V30 5937 H 568.277 -1.09251 5.77354 0
M  V30 5938 H 569.801 -2.02485 5.76049 0
M  V30 5939 H 571.215 0.246353 5.7277 0
M  V30 5940 H 569.612 1.01517 5.91451 0
M  V30 5941 H 570.682 1.53446 4.59981 0
M  V30 5942 N 572.025 -1.5352 0.356285 0
M  V30 5943 C 572.958 -2.2177 -0.537913 0
M  V30 5944 C 573.936 -1.20626 -1.09033 0
M  V30 5945 O 575.12 -1.49494 -1.1482 0
M  V30 5946 C 572.247 -2.90513 -1.74126 0
M  V30 5947 C 571.293 -4.05652 -1.31715 0
M  V30 5948 S 572.126 -5.34505 -0.326236 0
M  V30 5949 C 573.282 -6.06757 -1.53612 0
M  V30 5950 H 573.515 -2.97271 0.0417411 0
M  V30 5951 H 571.048 -1.53761 0.140372 0
M  V30 5952 H 573.006 -3.30735 -2.43155 0
M  V30 5953 H 571.667 -2.14754 -2.29215 0
M  V30 5954 H 570.86 -4.52733 -2.21471 0
M  V30 5955 H 570.462 -3.67272 -0.706183 0
M  V30 5956 H 572.754 -6.30924 -2.46863 0
M  V30 5957 H 573.697 -6.99395 -1.10687 0
M  V30 5958 H 574.105 -5.3708 -1.73796 0
M  V30 5959 N 573.503 -0.0852151 -1.57369 0
M  V30 5960 C 574.752 0.580443 -1.93168 0
M  V30 5961 C 575.065 1.6995 -0.968319 0
M  V30 5962 O 576.271 2.42564 -1.21963 0
M  V30 5963 C 574.727 1.08386 -3.43192 0
M  V30 5964 C 574.335 -0.00491388 -4.48 0
M  V30 5965 C 576.079 1.72281 -3.87968 0
M  V30 5966 C 573.986 0.513299 -5.89168 0
M  V30 5967 H 572.916 0.22059 -0.72101 0
M  V30 5968 H 575.567 -0.159621 -1.82804 0
M  V30 5969 H 573.949 1.8773 -3.48674 0
M  V30 5970 H 575.123 -0.780032 -4.5415 0
M  V30 5971 H 573.438 -0.548453 -4.12772 0
M  V30 5972 H 576.035 2.12108 -4.9083 0
M  V30 5973 H 576.378 2.58811 -3.26071 0
M  V30 5974 H 576.911 0.995359 -3.85146 0
M  V30 5975 H 573.65 -0.315153 -6.54742 0
M  V30 5976 H 573.17 1.25564 -5.8651 0
M  V30 5977 H 574.849 0.985433 -6.39451 0
M  V30 5978 N 574.981 1.5647 0.188427 0
M  V30 5979 C 576.229 1.80655 0.905986 0
M  V30 5980 C 576.55 0.659391 1.83513 0
M  V30 5981 O 575.82 -0.321868 1.93238 0
M  V30 5982 H 574.4 0.666391 0.337538 0
M  V30 5983 H 577.062 1.93949 0.192339 0
M  V30 5984 H 576.158 2.74066 1.49313 0
M  V30 5985 N 576.459 -0.456382 1.50847 0
M  V30 5986 C 577.389 -1.56025 1.73719 0
M  V30 5987 C 578.37 -1.5967 0.586473 0
M  V30 5988 O 579.555 -1.75702 0.827185 0
M  V30 5989 C 576.685 -2.94251 1.84483 0
M  V30 5990 C 575.639 -3.05471 2.99786 0
M  V30 5991 C 574.965 -4.45489 2.95709 0
M  V30 5992 C 576.265 -2.81318 4.40065 0
M  V30 5993 H 577.959 -1.37138 2.66146 0
M  V30 5994 H 575.505 -0.658299 1.28072 0
M  V30 5995 H 577.458 -3.71417 1.99067 0
M  V30 5996 H 576.182 -3.14328 0.886891 0
M  V30 5997 H 574.841 -2.30741 2.84876 0
M  V30 5998 H 574.489 -4.62505 1.97732 0
M  V30 5999 H 574.189 -4.53929 3.73125 0
M  V30 6000 H 575.713 -5.24655 3.12362 0
M  V30 6001 H 577.127 -3.48226 4.55425 0
M  V30 6002 H 575.524 -3.01188 5.19043 0
M  V30 6003 H 576.594 -1.7706 4.51418 0
M  V30 6004 N 577.937 -1.40673 -0.710563 0
M  V30 6005 C 579.183 -1.39428 -1.47267 0
M  V30 6006 C 579.516 0.00182129 -1.942 0
M  V30 6007 O 578.791 0.971387 -1.68506 0
M  V30 6008 C 579.074 -2.38812 -2.6952 0
M  V30 6009 C 578.927 -3.87467 -2.28449 0
M  V30 6010 C 580.246 -2.3566 -3.71689 0
M  V30 6011 H 577.365 -0.507768 -0.534173 0
M  V30 6012 H 580.007 -1.71843 -0.810547 0
M  V30 6013 H 578.157 -2.113 -3.26013 0
M  V30 6014 H 579.829 -4.25825 -1.77399 0
M  V30 6015 H 578.072 -4.03058 -1.60395 0
M  V30 6016 H 578.743 -4.5253 -3.16103 0
M  V30 6017 H 581.219 -2.6004 -3.24836 0
M  V30 6018 H 580.095 -3.07237 -4.54859 0
M  V30 6019 H 580.356 -1.36996 -4.20339 0
M  V30 6020 N 579.415 0.9433 -1.26252 0
M  V30 6021 C 580.661 1.69226 -1.12846 0
M  V30 6022 C 581.016 1.8963 0.325282 0
M  V30 6023 O 580.309 1.46435 1.23561 0
M  V30 6024 C 580.503 3.07073 -1.82868 0
M  V30 6025 C 580.332 3.00118 -3.34902 0
M  V30 6026 C 579.102 3.03251 -4.04186 0
M  V30 6027 C 581.3 2.80418 -4.31127 0
M  V30 6028 N 579.282 2.86573 -5.42908 0
M  V30 6029 C 580.653 2.72287 -5.5701 0
M  V30 6030 C 582.708 2.65185 -4.21404 0
M  V30 6031 C 581.411 2.50479 -6.74279 0
M  V30 6032 C 583.437 2.4475 -5.38378 0
M  V30 6033 C 582.799 2.37349 -6.63208 0
M  V30 6034 H 578.898 0.626716 -0.467708 0
M  V30 6035 H 581.482 1.11645 -1.5951 0
M  V30 6036 H 579.653 3.62797 -1.38682 0
M  V30 6037 H 581.385 3.70816 -1.62103 0
M  V30 6038 H 578.14 3.12882 -3.55531 0
M  V30 6039 H 578.564 2.81408 -6.15742 0
M  V30 6040 H 583.206 2.69675 -3.25631 0
M  V30 6041 H 580.924 2.4473 -7.70151 0
M  V30 6042 H 584.51 2.33872 -5.32724 0
M  V30 6043 H 583.39 2.21746 -7.52196 0
M  V30 6044 N 580.893 1.08022 1.14757 0
M  V30 6045 C 582.309 0.807072 1.3769 0
M  V30 6046 C 582.509 -0.585504 1.92806 0
M  V30 6047 O 581.565 -1.34301 2.13821 0
M  V30 6048 C 582.878 1.88651 2.34161 0
M  V30 6049 C 584.426 1.91206 2.47809 0
M  V30 6050 C 584.901 2.98253 3.47576 0
M  V30 6051 N 586.392 2.974 3.55117 0
M  V30 6052 C 587.127 3.76872 4.32152 0
M  V30 6053 N 586.623 4.66212 5.12463 0
M  V30 6054 N 588.416 3.6519 4.27309 0
M  V30 6055 H 580.567 1.97824 0.77326 0
M  V30 6056 H 582.83 0.85826 0.402608 0
M  V30 6057 H 582.536 2.88749 2.00791 0
M  V30 6058 H 582.41 1.75244 3.3402 0
M  V30 6059 H 584.797 0.917564 2.80472 0
M  V30 6060 H 584.878 2.08691 1.47925 0
M  V30 6061 H 584.522 3.97907 3.15646 0
M  V30 6062 H 584.452 2.78014 4.47231 0
M  V30 6063 H 586.943 2.32643 2.97801 0
M  V30 6064 H 587.256 5.23468 5.68508 0
M  V30 6065 H 585.601 4.70257 5.11745 0
M  V30 6066 H 588.792 2.94765 3.63636 0
M  V30 6067 H 588.965 4.27366 4.87095 0
M  V30 6068 N 582.371 -1.3172 0.865308 0
M  V30 6069 C 583.596 -2.01591 0.487415 0
M  V30 6070 C 584.021 -1.6455 -0.911307 0
M  V30 6071 O 583.379 -0.851689 -1.6005 0
M  V30 6072 C 583.427 -3.54759 0.646401 0
M  V30 6073 O 582.531 -4.11185 -0.316284 0
M  V30 6074 H 581.872 -0.634884 0.194468 0
M  V30 6075 H 584.402 -1.68024 1.16744 0
M  V30 6076 H 584.412 -4.04438 0.537932 0
M  V30 6077 H 583.087 -3.8106 1.66632 0
M  V30 6078 H 581.664 -3.72543 -0.163162 0
M  V30 6079 N 583.85 -0.624285 -1.44708 0
M  V30 6080 C 584.783 0.133905 -2.27807 0
M  V30 6081 C 585.76 0.857794 -1.38133 0
M  V30 6082 O 586.945 0.863277 -1.6757 0
M  V30 6083 C 584.072 1.19541 -3.16903 0
M  V30 6084 C 583.118 0.572813 -4.22636 0
M  V30 6085 S 583.951 -0.631953 -5.31758 0
M  V30 6086 C 585.106 0.429733 -6.24423 0
M  V30 6087 H 585.34 -0.571072 -2.91764 0
M  V30 6088 H 582.873 -0.412261 -1.48794 0
M  V30 6089 H 584.831 1.80293 -3.68788 0
M  V30 6090 H 583.492 1.87255 -2.5218 0
M  V30 6091 H 582.685 1.37205 -4.84965 0
M  V30 6092 H 582.287 0.0400641 -3.73979 0
M  V30 6093 H 584.579 1.30421 -6.64828 0
M  V30 6094 H 585.522 -0.157804 -7.07924 0
M  V30 6095 H 585.93 0.75256 -5.59461 0
M  V30 6096 N 585.328 1.53329 -0.364422 0
M  V30 6097 C 586.238 2.29414 0.490552 0
M  V30 6098 C 587.254 1.35335 1.09363 0
M  V30 6099 O 588.43 1.68391 1.10483 0
M  V30 6100 C 585.495 3.06772 1.61529 0
M  V30 6101 C 584.556 4.16516 1.03986 0
M  V30 6102 C 583.789 4.90176 2.111 0
M  V30 6103 O 584.012 4.63687 3.32191 0
M  V30 6104 O 582.946 5.76134 1.74222 0
M  V30 6105 H 586.772 3.03428 -0.12856 0
M  V30 6106 H 584.357 1.48843 -0.128837 0
M  V30 6107 H 586.239 3.55082 2.26924 0
M  V30 6108 H 584.914 2.35596 2.21983 0
M  V30 6109 H 583.821 3.7246 0.349856 0
M  V30 6110 H 585.154 4.89855 0.4799 0
M  V30 6111 N 586.806 0.0935595 1.57322 0
M  V30 6112 C 587.756 -0.876521 2.10478 0
M  V30 6113 C 588.74 -1.24482 1.01946 0
M  V30 6114 O 589.932 -1.22016 1.28223 0
M  V30 6115 C 587.061 -2.13615 2.68745 0
M  V30 6116 C 586.147 -1.79335 3.84317 0
M  V30 6117 N 586.538 -1.15606 4.92411 0
M  V30 6118 C 584.836 -2.08954 3.94023 0
M  V30 6119 C 585.537 -0.999036 5.73057 0
M  V30 6120 N 584.513 -1.51585 5.22037 0
M  V30 6121 H 588.315 -0.379829 2.91435 0
M  V30 6122 H 585.829 -0.109699 1.62029 0
M  V30 6123 H 587.826 -2.84053 3.05155 0
M  V30 6124 H 586.486 -2.63851 1.89242 0
M  V30 6125 H 587.497 -0.823063 5.11318 0
M  V30 6126 H 584.174 -2.61416 3.25527 0
M  V30 6127 H 585.564 -0.500772 6.70031 0
M  V30 6128 N 588.284 -1.56567 -0.180126 0
M  V30 6129 C 589.695 -1.7126 -0.743422 0
M  V30 6130 C 590.046 -0.70263 -1.83187 0
M  V30 6131 O 589.171 0.137856 -2.1596 0
M  V30 6132 C 589.766 -3.10512 -1.35528 0
M  V30 6133 C 588.325 -3.26919 -1.8655 0
M  V30 6134 C 587.472 -2.67213 -0.741099 0
M  V30 6135 H 590.423 -1.58636 0.0451543 0
M  V30 6136 H 590.444 -3.08673 -2.22489 0
M  V30 6137 H 589.956 -3.83997 -0.562862 0
M  V30 6138 H 588.057 -2.58376 -2.68464 0
M  V30 6139 H 588.17 -4.34574 -2.01699 0
M  V30 6140 H 586.534 -2.26788 -1.15927 0
M  V30 6141 H 587.317 -3.43277 0.0393291 0
M  V30 6142 N 589.762 0.448376 -1.51087 0
M  V30 6143 C 591.01 1.19635 -1.62886 0
M  V30 6144 C 591.331 1.91977 -0.342024 0
M  V30 6145 O 590.601 1.85094 0.641636 0
M  V30 6146 H 589.181 0.444598 -0.600285 0
M  V30 6147 H 591.843 0.515138 -1.87969 0
M  V30 6148 H 590.939 1.93194 -2.45117 0
M  V30 6149 N 591.24 1.41047 0.703093 0
M  V30 6150 C 592.187 1.42302 1.81711 0
M  V30 6151 C 593.157 0.278336 1.63751 0
M  V30 6152 O 594.342 0.478266 1.84709 0
M  V30 6153 C 591.482 1.30362 3.19531 0
M  V30 6154 C 590.595 2.54638 3.48975 0
M  V30 6155 C 589.73 2.35047 4.76368 0
M  V30 6156 C 588.769 3.54837 4.98756 0
M  V30 6157 N 587.906 3.34363 6.1737 0
M  V30 6158 H 592.746 2.37516 1.79973 0
M  V30 6159 H 590.283 1.1795 0.878983 0
M  V30 6160 H 592.241 1.21443 3.99134 0
M  V30 6161 H 590.871 0.387602 3.20464 0
M  V30 6162 H 589.923 2.74037 2.63833 0
M  V30 6163 H 591.235 3.43766 3.61423 0
M  V30 6164 H 590.389 2.23552 5.64012 0
M  V30 6165 H 589.128 1.43363 4.66153 0
M  V30 6166 H 588.133 3.66795 4.09563 0
M  V30 6167 H 589.358 4.47464 5.10835 0
M  V30 6168 H 587.304 2.45373 6.08382 0
M  V30 6169 H 587.221 4.17063 6.30551 0
M  V30 6170 H 588.489 3.26626 7.07768 0
M  V30 6171 N 592.718 -0.936591 1.26751 0
M  V30 6172 C 593.648 -2.05315 1.11212 0
M  V30 6173 C 594.629 -1.70092 0.0160262 0
M  V30 6174 O 595.814 -1.93279 0.188894 0
M  V30 6175 C 592.944 -3.39123 0.749171 0
M  V30 6176 C 591.898 -3.88425 1.79751 0
M  V30 6177 C 591.224 -5.18936 1.28876 0
M  V30 6178 C 592.524 -4.12798 3.19992 0
M  V30 6179 H 594.218 -2.18573 2.04613 0
M  V30 6180 H 591.764 -1.05027 0.985159 0
M  V30 6181 H 593.717 -4.16704 0.627323 0
M  V30 6182 H 592.441 -3.25855 -0.220543 0
M  V30 6183 H 591.1 -3.13028 1.90811 0
M  V30 6184 H 590.748 -5.02051 0.308757 0
M  V30 6185 H 590.448 -5.52892 1.98958 0
M  V30 6186 H 591.972 -5.99096 1.17967 0
M  V30 6187 H 593.386 -4.80977 3.11983 0
M  V30 6188 H 591.783 -4.58044 3.87705 0
M  V30 6189 H 592.853 -3.18412 3.65707 0
M  V30 6190 N 594.196 -1.08629 -1.14182 0
M  V30 6191 C 595.126 -0.740003 -2.21464 0
M  V30 6192 C 596.107 0.278591 -1.67803 0
M  V30 6193 O 597.292 0.148461 -1.93632 0
M  V30 6194 C 594.422 -0.150952 -3.46972 0
M  V30 6195 C 593.376 -1.09815 -4.13672 0
M  V30 6196 C 592.702 -0.3712 -5.3341 0
M  V30 6197 C 594.002 -2.43722 -4.61949 0
M  V30 6198 H 595.696 -1.63697 -2.50686 0
M  V30 6199 H 593.242 -0.788526 -1.20492 0
M  V30 6200 H 595.195 0.103325 -4.21273 0
M  V30 6201 H 593.919 0.781164 -3.1712 0
M  V30 6202 H 592.578 -1.33756 -3.41328 0
M  V30 6203 H 592.226 0.564792 -4.99819 0
M  V30 6204 H 591.926 -1.00267 -5.78982 0
M  V30 6205 H 593.45 -0.12503 -6.10472 0
M  V30 6206 H 594.864 -2.24034 -5.27714 0
M  V30 6207 H 593.261 -3.02582 -5.18232 0
M  V30 6208 H 594.331 -3.05082 -3.76899 0
M  V30 6209 N 595.674 1.31259 -0.872281 0
M  V30 6210 C 596.921 1.96622 -0.484365 0
M  V30 6211 C 597.249 1.68939 0.963841 0
M  V30 6212 O 596.504 0.97974 1.6941 0
M  V30 6213 C 596.803 3.50659 -0.690889 0
M  V30 6214 C 596.469 3.98366 -2.11224 0
M  V30 6215 C 595.131 4.11104 -2.50094 0
M  V30 6216 C 597.483 4.23425 -3.0391 0
M  V30 6217 C 594.811 4.46254 -3.80887 0
M  V30 6218 C 597.163 4.60039 -4.3422 0
M  V30 6219 C 595.827 4.70984 -4.73001 0
M  V30 6220 H 595.097 0.71949 -0.177242 0
M  V30 6221 H 597.744 1.56353 -1.10571 0
M  V30 6222 H 596.049 3.91798 0.0135782 0
M  V30 6223 H 597.746 3.99284 -0.370534 0
M  V30 6224 H 594.336 3.88949 -1.80047 0
M  V30 6225 H 598.52 4.13075 -2.75104 0
M  V30 6226 H 593.776 4.52926 -4.10692 0
M  V30 6227 H 597.95 4.78381 -5.06088 0
M  V30 6228 H 595.577 4.97977 -5.7439 0
M  V30 6229 N 597.152 0.631951 1.44375 0
M  V30 6230 C 598.115 -0.0628142 2.29114 0
M  V30 6231 C 599.115 -0.771494 1.41084 0
M  V30 6232 O 600.305 -0.615959 1.62947 0
M  V30 6233 C 597.437 -1.09953 3.22681 0
M  V30 6234 H 598.63 0.682509 2.92031 0
M  V30 6235 H 596.183 0.392128 1.51301 0
M  V30 6236 H 596.918 -1.87481 2.64616 0
M  V30 6237 H 596.703 -0.595286 3.87555 0
M  V30 6238 H 598.193 -1.58538 3.86336 0
M  V30 6239 N 598.631 -1.53133 0.372548 0
M  V30 6240 C 600.042 -1.86404 -0.105155 0
M  V30 6241 C 600.393 -1.29289 -1.47576 0
M  V30 6242 O 599.518 -0.617646 -2.07398 0
M  V30 6243 C 600.113 -3.38223 -0.197588 0
M  V30 6244 C 598.672 -3.71266 -0.619556 0
M  V30 6245 C 597.819 -2.76353 0.228919 0
M  V30 6246 H 600.77 -1.47282 0.591077 0
M  V30 6247 H 600.791 -3.66577 -1.01987 0
M  V30 6248 H 600.303 -3.79763 0.800099 0
M  V30 6249 H 598.404 -3.35287 -1.62522 0
M  V30 6250 H 598.517 -4.77515 -0.389332 0
M  V30 6251 H 596.881 -2.52888 -0.303271 0
M  V30 6252 H 597.664 -3.20728 1.22428 0
M  V30 6253 N 600.109 -0.101901 -1.5727 0
M  V30 6254 C 601.057 0.872034 -2.15635 0
M  V30 6255 C 602.051 1.28742 -1.10099 0
M  V30 6256 O 603.257 1.26116 -1.28432 0
M  V30 6257 H 599.632 0.299269 -0.689886 0
M  V30 6258 H 601.603 0.355137 -2.96279 0
M  V30 6259 C 600.352 2.11886 -2.7568 0
M  V30 6260 H 599.675 1.80813 -3.56576 0
M  V30 6261 H 601.115 2.78077 -3.20077 0
M  V30 6262 C 599.574 2.89739 -1.7191 0
M  V30 6263 O 600.104 3.84522 -1.16213 0
M  V30 6264 N 598.31 2.53407 -1.42245 0
M  V30 6265 H 597.857 1.76398 -1.87727 0
M  V30 6266 H 597.815 3.05795 -0.730529 0
M  V30 6267 N 601.587 1.56661 0.17182 0
M  V30 6268 C 602.517 1.99401 1.21498 0
M  V30 6269 C 603.498 0.869516 1.46197 0
M  V30 6270 O 604.683 1.13556 1.57539 0
M  V30 6271 C 601.813 2.35346 2.55401 0
M  V30 6272 C 600.767 3.5075 2.45272 0
M  V30 6273 C 600.093 3.72437 3.8366 0
M  V30 6274 C 601.393 4.84216 1.95787 0
M  V30 6275 H 603.087 2.86792 0.859699 0
M  V30 6276 H 600.633 1.37977 0.412103 0
M  V30 6277 H 602.586 2.63843 3.2858 0
M  V30 6278 H 601.31 1.44864 2.92715 0
M  V30 6279 H 599.969 3.2238 1.74547 0
M  V30 6280 H 599.617 2.79246 4.18367 0
M  V30 6281 H 599.317 4.50087 3.77751 0
M  V30 6282 H 600.841 4.03334 4.58426 0
M  V30 6283 H 602.255 5.11592 2.5874 0
M  V30 6284 H 600.652 5.65498 2.00827 0
M  V30 6285 H 601.722 4.76243 0.912159 0
M  V30 6286 N 603.065 -0.440357 1.51323 0
M  V30 6287 C 603.995 -1.54174 1.75364 0
M  V30 6288 C 604.976 -1.59039 0.603375 0
M  V30 6289 O 606.161 -1.74815 0.845774 0
M  V30 6290 C 603.291 -2.92277 1.87593 0
M  V30 6291 C 602.245 -3.02274 3.03009 0
M  V30 6292 C 601.571 -4.42327 3.00418 0
M  V30 6293 C 602.871 -2.76634 4.43024 0
M  V30 6294 H 604.565 -1.34307 2.67585 0
M  V30 6295 H 602.111 -0.644678 1.28763 0
M  V30 6296 H 604.064 -3.69284 2.02995 0
M  V30 6297 H 602.788 -3.13369 0.920179 0
M  V30 6298 H 601.447 -2.27706 2.87307 0
M  V30 6299 H 601.095 -4.60382 2.02626 0
M  V30 6300 H 600.795 -4.49946 3.77918 0
M  V30 6301 H 602.319 -5.21312 3.17909 0
M  V30 6302 H 603.733 -3.43376 4.59093 0
M  V30 6303 H 602.13 -2.95666 5.22208 0
M  V30 6304 H 603.2 -1.72262 4.5327 0
M  V30 6305 N 604.543 -1.41418 -0.695603 0
M  V30 6306 C 605.473 -1.46035 -1.82197 0
M  V30 6307 C 606.454 -0.319025 -1.67082 0
M  V30 6308 O 607.639 -0.530462 -1.86815 0
M  V30 6309 C 604.769 -1.34179 -3.20333 0
M  V30 6310 C 603.723 -2.46123 -3.50154 0
M  V30 6311 C 603.049 -2.19332 -4.87645 0
M  V30 6312 C 604.349 -3.88463 -3.49133 0
M  V30 6313 H 606.043 -2.40303 -1.78591 0
M  V30 6314 H 603.589 -1.15663 -0.857797 0
M  V30 6315 H 605.542 -1.36021 -3.98844 0
M  V30 6316 H 604.266 -0.363952 -3.24566 0
M  V30 6317 H 602.925 -2.43563 -2.73994 0
M  V30 6318 H 602.573 -1.19891 -4.88503 0
M  V30 6319 H 602.273 -2.94344 -5.08562 0
M  V30 6320 H 603.797 -2.22889 -5.68465 0
M  V30 6321 H 605.211 -3.92738 -4.17648 0
M  V30 6322 H 603.608 -4.63158 -3.81582 0
M  V30 6323 H 604.678 -4.16617 -2.48109 0
M  V30 6324 N 606.021 0.929856 -1.27246 0
M  V30 6325 C 607.298 1.65544 -1.04186 0
M  V30 6326 C 607.678 2.06796 0.424097 0
M  V30 6327 O 607.026 1.80053 1.40688 0
M  V30 6328 C 607.236 2.85912 -2.00138 0
M  V30 6329 C 608.584 3.57305 -2.29387 0
M  V30 6330 O 609.608 2.96036 -1.98094 0
M  V30 6331 O 608.467 4.67688 -2.82719 0
M  V30 6332 H 605.561 0.725473 -0.397011 0
M  V30 6333 H 608.107 0.980583 -1.38501 0
M  V30 6334 H 606.879 2.52403 -2.99013 0
M  V30 6335 H 606.502 3.61118 -1.66371 0
M  V30 6336 N 607.499 1.09233 1.13605 0
M  V30 6337 C 608.915 0.82163 1.36826 0
M  V30 6338 C 609.115 -0.565021 1.93416 0
M  V30 6339 O 608.171 -1.32026 2.15234 0
M  V30 6340 C 609.484 1.91124 2.32147 0
M  V30 6341 C 611.032 1.93824 2.45767 0
M  V30 6342 C 611.507 3.01923 3.44393 0
M  V30 6343 N 612.998 3.01149 3.51942 0
M  V30 6344 C 613.733 3.81434 4.2813 0
M  V30 6345 N 613.229 4.71621 5.07489 0
M  V30 6346 N 615.022 3.69702 4.23411 0
M  V30 6347 H 607.173 1.98633 0.752234 0
M  V30 6348 H 609.436 0.862482 0.393482 0
M  V30 6349 H 609.142 2.90862 1.97717 0
M  V30 6350 H 609.016 1.78777 3.32142 0
M  V30 6351 H 611.403 0.94726 2.79483 0
M  V30 6352 H 611.484 2.10248 1.45703 0
M  V30 6353 H 611.128 4.01232 3.11408 0
M  V30 6354 H 611.058 2.82742 4.44257 0
M  V30 6355 H 613.549 2.35789 2.95317 0
M  V30 6356 H 613.862 5.29468 5.62924 0
M  V30 6357 H 612.207 4.75658 5.06729 0
M  V30 6358 H 615.398 2.98606 3.60489 0
M  V30 6359 H 615.571 4.32509 4.82535 0
M  V30 6360 N 608.977 -1.30795 0.87923 0
M  V30 6361 C 609.925 -2.30231 0.331112 0
M  V30 6362 C 610.919 -1.59918 -0.558794 0
M  V30 6363 O 612.125 -1.74441 -0.443866 0
M  V30 6364 H 608.5 -0.746785 0.088409 0
M  V30 6365 H 610.471 -2.73925 1.18353 0
M  V30 6366 C 609.22 -3.44848 -0.444401 0
M  V30 6367 H 608.543 -3.99131 0.231106 0
M  V30 6368 H 609.983 -4.16516 -0.793109 0
M  V30 6369 C 608.442 -2.94329 -1.63926 0
M  V30 6370 O 608.972 -2.93875 -2.73862 0
M  V30 6371 N 607.178 -2.50413 -1.4745 0
M  V30 6372 H 606.725 -2.50982 -0.58015 0
M  V30 6373 H 606.683 -2.16969 -2.27534 0
M  V30 6374 N 610.455 -0.639598 -1.44038 0
M  V30 6375 C 611.387 0.0987684 -2.28987 0
M  V30 6376 C 612.4 0.80058 -1.41755 0
M  V30 6377 O 613.589 0.660611 -1.65826 0
M  V30 6378 C 610.689 1.16242 -3.18341 0
M  V30 6379 C 609.862 0.541447 -4.34036 0
M  V30 6380 C 608.921 1.50017 -5.04362 0
M  V30 6381 O 607.947 1.01403 -5.60095 0
M  V30 6382 N 609.149 2.83441 -5.06598 0
M  V30 6383 H 611.914 -0.630305 -2.92997 0
M  V30 6384 H 609.475 -0.481376 -1.54578 0
M  V30 6385 H 611.467 1.80429 -3.62253 0
M  V30 6386 H 610.037 1.79362 -2.56024 0
M  V30 6387 H 609.257 -0.27923 -3.9321 0
M  V30 6388 H 610.545 0.107379 -5.08687 0
M  V30 6389 H 609.943 3.2551 -4.62666 0
M  V30 6390 H 608.5 3.42966 -5.54272 0
M  V30 6391 N 611.933 1.52934 -0.380664 0
M  V30 6392 C 613.181 2.01069 0.203874 0
M  V30 6393 C 613.502 1.26922 1.4804 0
M  V30 6394 O 612.772 0.386787 1.92044 0
M  V30 6395 H 611.352 0.742882 0.0783279 0
M  V30 6396 H 614.014 1.88099 -0.510368 0
M  V30 6397 H 613.11 3.09258 0.42021 0
M  V30 6398 N 613.412 0.11024 1.57214 0
M  V30 6399 C 614.359 -0.843195 2.14846 0
M  V30 6400 C 615.329 -1.26954 1.07107 0
M  V30 6401 O 616.514 -1.34861 1.34971 0
M  V30 6402 C 613.654 -2.09123 2.74521 0
M  V30 6403 C 612.767 -1.71404 3.96541 0
M  V30 6404 C 611.902 -2.91107 4.44331 0
M  V30 6405 C 610.941 -2.49586 5.58903 0
M  V30 6406 N 610.078 -3.62175 6.01477 0
M  V30 6407 H 614.918 -0.344886 2.95998 0
M  V30 6408 H 612.455 -0.15855 1.46243 0
M  V30 6409 H 614.413 -2.82234 3.07246 0
M  V30 6410 H 613.043 -2.56427 1.96074 0
M  V30 6411 H 612.095 -0.88201 3.70033 0
M  V30 6412 H 613.407 -1.36884 4.7965 0
M  V30 6413 H 612.561 -3.72454 4.78919 0
M  V30 6414 H 611.3 -3.28848 3.60153 0
M  V30 6415 H 610.305 -1.6667 5.23929 0
M  V30 6416 H 611.53 -2.12973 6.4484 0
M  V30 6417 H 609.476 -3.99605 5.20242 0
M  V30 6418 H 609.393 -3.3155 6.79419 0
M  V30 6419 H 610.661 -4.43987 6.407 0
M  V30 6420 N 614.89 -1.56749 -0.16351 0
M  V30 6421 C 616.13 -1.84234 -0.885271 0
M  V30 6422 C 616.494 -0.692259 -1.79086 0
M  V30 6423 O 617.695 -0.847747 -2.55082 0
M  V30 6424 C 615.966 -3.16857 -1.65337 0
M  V30 6425 S 617.525 -3.65848 -2.42282 0
M  V30 6426 H 614.343 -0.646293 -0.296354 0
M  V30 6427 H 616.945 -1.94951 -0.146365 0
M  V30 6428 H 615.649 -3.98546 -0.979266 0
M  V30 6429 H 615.18 -3.09102 -2.4335 0
M  V30 6430 H 617.195 -3.33796 -3.67143 0
M  V30 6431 N 616.368 0.432326 -1.51554 0
M  V30 6432 C 617.614 1.18309 -1.64714 0
M  V30 6433 C 617.947 1.90745 -0.364696 0
M  V30 6434 O 617.222 1.8381 0.635936 0
M  V30 6435 C 617.505 2.1961 -2.85383 0
M  V30 6436 C 617.358 1.51223 -4.23617 0
M  V30 6437 C 618.677 3.20538 -3.01569 0
M  V30 6438 H 615.796 0.428751 -0.599451 0
M  V30 6439 H 618.438 0.471689 -1.84052 0
M  V30 6440 H 616.588 2.8028 -2.69027 0
M  V30 6441 H 618.26 0.938516 -4.51652 0
M  V30 6442 H 616.503 0.814501 -4.26085 0
M  V30 6443 H 617.174 2.25024 -5.04052 0
M  V30 6444 H 619.65 2.69926 -3.16669 0
M  V30 6445 H 618.526 3.88706 -3.87555 0
M  V30 6446 H 618.787 3.86933 -2.13859 0
M  V30 6447 N 617.846 1.41785 0.688094 0
M  V30 6448 C 618.756 1.46596 1.83158 0
M  V30 6449 C 619.772 0.355862 1.70322 0
M  V30 6450 O 620.948 0.604737 1.92106 0
M  V30 6451 C 618.013 1.35322 3.192 0
M  V30 6452 C 617.074 2.56711 3.4409 0
M  V30 6453 C 616.307 2.45965 4.73642 0
M  V30 6454 O 616.53 1.48827 5.50642 0
M  V30 6455 O 615.464 3.35859 4.99482 0
M  V30 6456 H 619.29 2.43083 1.82056 0
M  V30 6457 H 616.875 1.23404 0.842126 0
M  V30 6458 H 618.757 1.31347 4.00407 0
M  V30 6459 H 617.432 0.419536 3.2097 0
M  V30 6460 H 616.339 2.66262 2.62784 0
M  V30 6461 H 617.672 3.48933 3.47141 0
M  V30 6462 N 619.324 -0.923095 1.27737 0
M  V30 6463 C 620.572 -1.66797 1.14119 0
M  V30 6464 C 620.893 -1.92479 -0.312541 0
M  V30 6465 O 620.163 -1.53432 -1.218 0
M  V30 6466 H 618.743 -0.618196 0.419336 0
M  V30 6467 H 621.405 -1.10815 1.60331 0
M  V30 6468 H 620.501 -2.63424 1.67374 0
M  V30 6469 N 620.802 -1.09834 -1.13024 0
M  V30 6470 C 621.735 -0.685453 -2.17662 0
M  V30 6471 C 622.713 0.310142 -1.59615 0
M  V30 6472 O 623.897 0.21052 -1.87321 0
M  V30 6473 C 621.024 -0.0104476 -3.38698 0
M  V30 6474 C 620.07 -0.968522 -4.15358 0
M  V30 6475 S 620.903 -2.48272 -4.74469 0
M  V30 6476 C 622.059 -1.82025 -5.98847 0
M  V30 6477 H 622.292 -1.57187 -2.52348 0
M  V30 6478 H 619.825 -0.914728 -1.24387 0
M  V30 6479 H 621.783 0.372694 -4.08805 0
M  V30 6480 H 620.444 0.852673 -3.02305 0
M  V30 6481 H 619.637 -0.443373 -5.02046 0
M  V30 6482 H 619.239 -1.29327 -3.50928 0
M  V30 6483 H 621.531 -1.14678 -6.67724 0
M  V30 6484 H 622.474 -2.66645 -6.55977 0
M  V30 6485 H 622.882 -1.2874 -5.49624 0
M  V30 6486 N 622.28 1.30327 -0.886154 0
M  V30 6487 C 623.526 1.96388 -0.505941 0
M  V30 6488 C 623.859 1.69784 0.942712 0
M  V30 6489 O 623.134 1.00322 1.6663 0
M  V30 6490 C 623.417 3.51488 -0.782826 0
M  V30 6491 C 623.27 3.87603 -2.28219 0
M  V30 6492 C 624.589 4.39331 -0.260128 0
M  V30 6493 H 621.708 0.713327 -0.185292 0
M  V30 6494 H 624.35 1.54178 -1.11036 0
M  V30 6495 H 622.5 3.87572 -0.268399 0
M  V30 6496 H 624.172 3.61537 -2.86512 0
M  V30 6497 H 622.415 3.3563 -2.74837 0
M  V30 6498 H 623.086 4.95806 -2.42653 0
M  V30 6499 H 625.562 4.10162 -0.700444 0
M  V30 6500 H 624.438 5.46769 -0.483179 0
M  V30 6501 H 624.699 4.34072 0.838674 0
M  V30 6502 N 623.758 0.647228 1.43697 0
M  V30 6503 C 624.668 -0.0487997 2.34549 0
M  V30 6504 C 625.684 -0.818586 1.53542 0
M  V30 6505 O 626.86 -0.767195 1.86215 0
M  V30 6506 C 623.925 -1.00734 3.31743 0
M  V30 6507 C 622.986 -0.23515 4.28655 0
M  V30 6508 C 622.219 -1.14803 5.21206 0
M  V30 6509 O 622.442 -2.38717 5.18045 0
M  V30 6510 O 621.376 -0.623667 5.9866 0
M  V30 6511 H 625.202 0.698863 2.9555 0
M  V30 6512 H 622.787 0.407412 1.43738 0
M  V30 6513 H 624.669 -1.55837 3.91526 0
M  V30 6514 H 623.344 -1.73534 2.73254 0
M  V30 6515 H 622.251 0.359319 3.7237 0
M  V30 6516 H 623.584 0.453152 4.9011 0
M  V30 6517 N 625.236 -1.5273 0.388769 0
M  V30 6518 C 626.485 -2.00757 -0.194833 0
M  V30 6519 C 626.798 -1.27951 -1.47946 0
M  V30 6520 O 628.004 -1.66686 -2.14308 0
M  V30 6521 C 626.46 -3.57695 -0.397762 0
M  V30 6522 C 626.068 -4.394 0.873583 0
M  V30 6523 C 627.812 -4.14012 -0.937759 0
M  V30 6524 C 625.719 -5.87938 0.638962 0
M  V30 6525 H 624.649 -0.750101 -0.0765845 0
M  V30 6526 H 627.3 -1.76239 0.511086 0
M  V30 6527 H 625.682 -3.7846 -1.16552 0
M  V30 6528 H 626.856 -4.30403 1.64591 0
M  V30 6529 H 625.171 -3.94301 1.33849 0
M  V30 6530 H 627.768 -5.22645 -1.12899 0
M  V30 6531 H 628.111 -3.7007 -1.90666 0
M  V30 6532 H 628.644 -3.97137 -0.229588 0
M  V30 6533 H 625.383 -6.36202 1.57885 0
M  V30 6534 H 624.903 -5.99726 -0.094443 0
M  V30 6535 H 626.582 -6.46423 0.273299 0
M  V30 6536 N 626.714 -0.118576 -1.57153 0
M  V30 6537 C 627.961 0.539526 -1.9518 0
M  V30 6538 C 628.289 1.66714 -1.00184 0
M  V30 6539 O 627.544 1.95683 -0.0256482 0
M  V30 6540 C 627.843 1.11303 -3.39627 0
M  V30 6541 C 627.509 0.106809 -4.50773 0
M  V30 6542 C 626.171 -0.169876 -4.809 0
M  V30 6543 C 628.523 -0.57895 -5.17975 0
M  V30 6544 C 625.851 -1.13861 -5.75545 0
M  V30 6545 C 628.203 -1.53631 -6.13661 0
M  V30 6546 C 626.867 -1.82099 -6.42181 0
M  V30 6547 H 626.137 0.197427 -0.714215 0
M  V30 6548 H 628.784 -0.199391 -1.90459 0
M  V30 6549 H 627.089 1.92869 -3.4104 0
M  V30 6550 H 628.786 1.63032 -3.66363 0
M  V30 6551 H 625.376 0.332645 -4.27307 0
M  V30 6552 H 629.56 -0.378359 -4.94856 0
M  V30 6553 H 624.816 -1.36592 -5.95947 0
M  V30 6554 H 628.99 -2.07337 -6.64819 0
M  V30 6555 H 626.617 -2.57319 -7.15326 0
M  V30 6556 N 628.193 1.56834 0.155195 0
M  V30 6557 C 629.47 1.73799 0.897395 0
M  V30 6558 C 629.85 0.684379 1.99698 0
M  V30 6559 O 629.198 -0.298111 2.26547 0
M  V30 6560 C 629.408 3.17572 1.44737 0
M  V30 6561 C 630.756 3.79014 1.91399 0
M  V30 6562 O 631.78 3.20951 1.54496 0
M  V30 6563 O 630.639 4.80998 2.59429 0
M  V30 6564 H 627.733 0.710329 0.423511 0
M  V30 6565 H 630.279 1.69107 0.141761 0
M  V30 6566 H 629.051 3.85749 0.656741 0
M  V30 6567 H 628.674 3.26657 2.26674 0
M  V30 6568 N 629.671 -0.424282 1.51781 0
M  V30 6569 C 630.604 -1.53633 1.68737 0
M  V30 6570 C 631.582 -1.53549 0.534915 0
M  V30 6571 O 632.766 -1.72483 0.760391 0
M  V30 6572 C 629.893 -2.92195 1.71288 0
M  V30 6573 C 628.939 -3.10251 2.92654 0
M  V30 6574 S 629.772 -2.85166 4.53256 0
M  V30 6575 C 630.928 -4.25986 4.58571 0
M  V30 6576 H 631.161 -1.39018 2.62795 0
M  V30 6577 H 628.694 -0.614854 1.41629 0
M  V30 6578 H 630.652 -3.72059 1.73443 0
M  V30 6579 H 629.313 -3.04162 0.783847 0
M  V30 6580 H 628.506 -4.1159 2.90877 0
M  V30 6581 H 628.108 -2.38231 2.88308 0
M  V30 6582 H 630.4 -5.19392 4.35015 0
M  V30 6583 H 631.343 -4.32792 5.60444 0
M  V30 6584 H 631.751 -4.1025 3.87757 0
M  V30 6585 N 631.149 -1.42148 -0.680565 0
M  V30 6586 C 632.079 -1.4796 -1.80638 0
M  V30 6587 C 633.06 -0.336728 -1.66734 0
M  V30 6588 O 634.245 -0.550247 -1.86242 0
M  V30 6589 C 631.375 -1.37569 -3.18892 0
M  V30 6590 C 630.329 -2.49823 -3.47524 0
M  V30 6591 C 629.655 -2.24491 -4.85291 0
M  V30 6592 C 630.955 -3.92144 -3.44994 0
M  V30 6593 H 632.649 -2.42184 -1.76032 0
M  V30 6594 H 630.195 -1.16566 -0.845481 0
M  V30 6595 H 632.148 -1.40243 -3.97379 0
M  V30 6596 H 630.872 -0.398357 -3.24162 0
M  V30 6597 H 629.531 -2.46455 -2.71395 0
M  V30 6598 H 629.179 -1.25066 -4.87204 0
M  V30 6599 H 628.879 -2.99722 -5.05411 0
M  V30 6600 H 630.403 -2.28906 -5.66069 0
M  V30 6601 H 631.817 -3.97145 -4.13459 0
M  V30 6602 H 630.214 -4.67179 -3.76648 0
M  V30 6603 H 631.284 -4.19225 -2.43676 0
M  V30 6604 N 632.627 0.916307 -1.28225 0
M  V30 6605 C 633.557 2.0352 -1.14464 0
M  V30 6606 C 634.538 1.70045 -0.0430844 0
M  V30 6607 O 635.723 1.92954 -0.219619 0
M  V30 6608 C 632.853 3.37889 -0.803027 0
M  V30 6609 C 631.807 3.85516 -1.85908 0
M  V30 6610 C 631.133 5.1682 -1.37116 0
M  V30 6611 C 632.433 4.07655 -3.26519 0
M  V30 6612 H 634.127 2.1529 -2.08064 0
M  V30 6613 H 631.673 1.03446 -1.00174 0
M  V30 6614 H 633.626 4.15654 -0.693537 0
M  V30 6615 H 632.35 3.26164 0.168674 0
M  V30 6616 H 631.009 3.09953 -1.95767 0
M  V30 6617 H 630.657 5.01497 -0.38859 0
M  V30 6618 H 630.357 5.49657 -2.07728 0
M  V30 6619 H 631.881 5.97143 -1.27484 0
M  V30 6620 H 633.295 4.75953 -3.19596 0
M  V30 6621 H 631.692 4.51818 -3.94943 0
M  V30 6622 H 632.762 3.12553 -3.70727 0
M  V30 6623 N 634.105 1.10431 1.1244 0
M  V30 6624 C 635.068 0.756542 2.16354 0
M  V30 6625 C 636.068 -0.21899 1.59302 0
M  V30 6626 O 637.258 0.00415969 1.742 0
M  V30 6627 C 634.39 0.120612 3.40687 0
M  V30 6628 H 635.583 1.67696 2.48632 0
M  V30 6629 H 633.136 0.904832 1.27446 0
M  V30 6630 H 633.871 -0.810536 3.14008 0
M  V30 6631 H 633.656 0.822693 3.83372 0
M  V30 6632 H 635.146 -0.106945 4.17463 0
M  V30 6633 N 635.583 -1.29855 0.893053 0
M  V30 6634 C 636.811 -1.99976 0.530788 0
M  V30 6635 C 637.226 -1.66889 -0.882799 0
M  V30 6636 O 636.583 -0.910352 -1.58173 0
M  V30 6637 C 636.634 -3.54547 0.705587 0
M  V30 6638 O 636.355 -3.86458 2.06353 0
M  V30 6639 C 637.856 -4.41937 0.347387 0
M  V30 6640 H 635.076 -0.639129 0.204339 0
M  V30 6641 H 637.62 -1.65549 1.20057 0
M  V30 6642 H 635.775 -3.87311 0.0830685 0
M  V30 6643 H 636.189 -4.81146 2.08803 0
M  V30 6644 H 637.663 -5.4954 0.520557 0
M  V30 6645 H 638.14 -4.33339 -0.715139 0
M  V30 6646 H 638.746 -4.14633 0.946567 0
M  V30 6647 N 637.061 -0.65484 -1.43351 0
M  V30 6648 C 638.286 -0.175046 -2.0666 0
M  V30 6649 C 638.711 1.15104 -1.4877 0
M  V30 6650 O 638.069 1.71144 -0.598279 0
M  V30 6651 C 638.117 -0.0991544 -3.60464 0
M  V30 6652 O 637.221 0.938169 -4.01587 0
M  V30 6653 H 636.562 -0.0956148 -0.65708 0
M  V30 6654 H 639.092 -0.898222 -1.83829 0
M  V30 6655 H 639.102 0.083632 -4.07914 0
M  V30 6656 H 637.777 -1.06719 -4.01975 0
M  V30 6657 H 636.354 0.72804 -3.65724 0
M  V30 6658 N 638.539 1.52521 -0.396863 0
M  V30 6659 C 639.764 2.06571 0.185258 0
M  V30 6660 C 640.189 1.26605 1.39115 0
M  V30 6661 O 639.547 0.293055 1.78916 0
M  V30 6662 C 639.595 3.5674 0.526189 0
M  V30 6663 O 638.699 3.7929 1.61903 0
M  V30 6664 H 638.04 0.663712 0.0195474 0
M  V30 6665 H 640.57 1.966 -0.566519 0
M  V30 6666 H 640.58 4.00311 0.788338 0
M  V30 6667 H 639.255 4.14379 -0.355397 0
M  V30 6668 H 637.832 3.47605 1.35 0
M  V30 6669 N 640.017 0.126909 1.57088 0
M  V30 6670 C 641.433 -0.229641 1.57939 0
M  V30 6671 C 641.633 -1.66145 1.1401 0
M  V30 6672 O 640.689 -2.3843 0.831119 0
M  V30 6673 C 642.002 0.0108648 3.00698 0
M  V30 6674 C 643.55 -0.054418 3.12953 0
M  V30 6675 C 644.025 0.158497 4.57726 0
M  V30 6676 N 645.516 0.104735 4.63082 0
M  V30 6677 C 646.251 0.24427 5.72879 0
M  V30 6678 N 645.747 0.440415 6.91399 0
M  V30 6679 N 647.54 0.183286 5.61801 0
M  V30 6680 H 639.691 1.06203 1.83942 0
M  V30 6681 H 641.954 0.418834 0.85046 0
M  V30 6682 H 641.66 1.00102 3.37154 0
M  V30 6683 H 641.534 -0.717512 3.70313 0
M  V30 6684 H 643.921 -1.0351 2.7635 0
M  V30 6685 H 644.002 0.705967 2.45865 0
M  V30 6686 H 643.646 1.13619 4.95028 0
M  V30 6687 H 643.576 -0.62197 5.22914 0
M  V30 6688 H 646.067 -0.0430298 3.77876 0
M  V30 6689 H 646.38 0.537536 7.70928 0
M  V30 6690 H 644.725 0.476488 6.93365 0
M  V30 6691 H 647.916 0.0309561 4.6809 0
M  V30 6692 H 648.089 0.295471 6.47326 0
M  V30 6693 N 641.495 -1.56914 -0.146875 0
M  V30 6694 C 642.742 -1.83356 -0.859467 0
M  V30 6695 C 643.07 -0.707811 -1.81164 0
M  V30 6696 O 642.325 0.303155 -1.93338 0
M  V30 6697 C 642.624 -3.16128 -1.66727 0
M  V30 6698 C 642.29 -4.42586 -0.861881 0
M  V30 6699 C 640.952 -4.76929 -0.639687 0
M  V30 6700 C 643.304 -5.20344 -0.298643 0
M  V30 6701 C 640.632 -5.86491 0.156451 0
M  V30 6702 C 642.984 -6.30742 0.484536 0
M  V30 6703 C 641.648 -6.63635 0.717306 0
M  V30 6704 H 640.918 -0.670947 -0.314501 0
M  V30 6705 H 643.565 -1.91104 -0.123108 0
M  V30 6706 H 641.87 -3.03831 -2.47374 0
M  V30 6707 H 643.567 -3.33802 -2.2221 0
M  V30 6708 H 640.157 -4.15662 -1.04513 0
M  V30 6709 H 644.341 -4.94186 -0.457585 0
M  V30 6710 H 639.597 -6.10419 0.346292 0
M  V30 6711 H 643.771 -6.90188 0.928105 0
M  V30 6712 H 641.398 -7.48367 1.33607 0
M  V30 6713 N 642.974 0.416227 -1.52004 0
M  V30 6714 C 644.39 0.754319 -1.40649 0
M  V30 6715 C 644.59 1.95059 -0.505392 0
M  V30 6716 O 643.646 2.5248 0.0315057 0
M  V30 6717 C 644.959 1.0149 -2.83055 0
M  V30 6718 C 646.507 1.11805 -2.9235 0
M  V30 6719 C 646.982 1.41144 -4.35709 0
M  V30 6720 N 648.473 1.48024 -4.38911 0
M  V30 6721 C 649.208 1.72338 -5.46889 0
M  V30 6722 N 648.704 1.94303 -6.64995 0
M  V30 6723 N 650.497 1.74294 -5.34395 0
M  V30 6724 H 642.648 -0.371324 -2.09129 0
M  V30 6725 H 644.911 -0.103811 -0.942299 0
M  V30 6726 H 644.617 0.208345 -3.51082 0
M  V30 6727 H 644.491 1.93697 -3.23668 0
M  V30 6728 H 646.878 1.91521 -2.24508 0
M  V30 6729 H 646.959 0.17451 -2.55204 0
M  V30 6730 H 646.603 0.619484 -5.04108 0
M  V30 6731 H 646.533 2.36739 -4.70385 0
M  V30 6732 H 649.024 1.32868 -3.53772 0
M  V30 6733 H 649.337 2.12286 -7.43071 0
M  V30 6734 H 647.682 1.91582 -6.68073 0
M  V30 6735 H 650.873 1.56667 -4.41104 0
M  V30 6736 H 651.046 1.92904 -6.18621 0
M  V30 6737 N 644.452 1.42507 0.673017 0
M  V30 6738 C 645.385 1.40557 1.79774 0
M  V30 6739 C 646.363 0.269606 1.60349 0
M  V30 6740 O 647.547 0.460105 1.82798 0
M  V30 6741 C 644.674 1.19815 3.168 0
M  V30 6742 C 643.72 2.36429 3.5497 0
M  V30 6743 S 644.553 3.98963 3.57196 0
M  V30 6744 C 645.709 3.80567 4.9691 0
M  V30 6745 H 645.942 2.35734 1.81154 0
M  V30 6746 H 643.475 1.293 0.843846 0
M  V30 6747 H 645.433 1.08535 3.95892 0
M  V30 6748 H 644.094 0.262215 3.13004 0
M  V30 6749 H 643.287 2.17669 4.54573 0
M  V30 6750 H 642.889 2.44233 2.83242 0
M  V30 6751 H 645.181 3.41668 5.85038 0
M  V30 6752 H 646.124 4.79852 5.20718 0
M  V30 6753 H 646.532 3.13399 4.69512 0
M  V30 6754 N 645.93 -0.909495 1.28709 0
M  V30 6755 C 646.863 -2.01388 1.07323 0
M  V30 6756 C 647.841 -1.62596 -0.0119757 0
M  V30 6757 O 649.025 -1.88003 0.136796 0
M  V30 6758 C 646.152 -3.32755 0.631797 0
M  V30 6759 C 645.198 -3.90532 1.71428 0
M  V30 6760 S 646.031 -4.20853 3.31124 0
M  V30 6761 C 647.187 -5.55276 2.88825 0
M  V30 6762 H 647.42 -2.19219 2.00824 0
M  V30 6763 H 644.953 -1.05489 1.12745 0
M  V30 6764 H 646.911 -4.08702 0.38381 0
M  V30 6765 H 645.572 -3.12818 -0.283451 0
M  V30 6766 H 644.765 -4.85385 1.35712 0
M  V30 6767 H 644.367 -3.21237 1.91528 0
M  V30 6768 H 646.659 -6.35341 2.3526 0
M  V30 6769 H 647.602 -5.95907 3.82492 0
M  V30 6770 H 648.01 -5.16666 2.27412 0
M  V30 6771 N 647.408 -1.11026 -1.11852 0
M  V30 6772 C 648.356 -0.759643 -2.19846 0
M  V30 6773 C 649.35 0.246964 -1.6759 0
M  V30 6774 O 650.556 0.106693 -1.79684 0
M  V30 6775 H 646.931 -0.22775 -0.716683 0
M  V30 6776 H 648.902 -1.6792 -2.46669 0
M  V30 6777 C 647.651 -0.214364 -3.47039 0
M  V30 6778 H 646.974 -0.980175 -3.87599 0
M  V30 6779 H 648.414 -0.00717047 -4.23999 0
M  V30 6780 C 646.873 1.05436 -3.19976 0
M  V30 6781 O 647.403 2.13483 -3.40276 0
M  V30 6782 N 645.609 0.975436 -2.7374 0
M  V30 6783 H 645.156 0.0960853 -2.57421 0
M  V30 6784 H 645.114 1.82501 -2.5601 0
M  V30 6785 N 648.886 1.2938 -0.899927 0
M  V30 6786 C 649.816 2.30144 -0.39446 0
M  V30 6787 C 650.797 1.61611 0.530639 0
M  V30 6788 O 651.982 1.89119 0.441319 0
M  V30 6789 C 649.112 3.45229 0.37868 0
M  V30 6790 C 648.066 4.25564 -0.456012 0
M  V30 6791 C 647.392 5.32848 0.444637 0
M  V30 6792 C 648.692 4.93651 -1.70605 0
M  V30 6793 H 650.386 2.72673 -1.23653 0
M  V30 6794 H 647.932 1.31086 -0.596034 0
M  V30 6795 H 649.885 4.14797 0.743037 0
M  V30 6796 H 648.609 3.01545 1.25453 0
M  V30 6797 H 647.268 3.57704 -0.802704 0
M  V30 6798 H 646.916 4.85408 1.31863 0
M  V30 6799 H 646.616 5.87497 -0.110154 0
M  V30 6800 H 648.14 6.05268 0.805182 0
M  V30 6801 H 649.554 5.55655 -1.41141 0
M  V30 6802 H 647.951 5.58233 -2.20217 0
M  V30 6803 H 649.021 4.18926 -2.4419 0
M  V30 6804 N 650.364 0.662433 1.43002 0
M  V30 6805 C 651.296 -0.062326 2.29115 0
M  V30 6806 C 652.309 -0.777926 1.43011 0
M  V30 6807 O 653.498 -0.634146 1.66856 0
M  V30 6808 C 650.598 -1.11163 3.2015 0
M  V30 6809 C 649.771 -0.472327 4.34842 0
M  V30 6810 C 648.83 -1.41974 5.06685 0
M  V30 6811 O 647.856 -0.924795 5.61637 0
M  V30 6812 N 649.058 -2.75345 5.11043 0
M  V30 6813 H 651.823 0.676838 2.91957 0
M  V30 6814 H 649.384 0.505907 1.53793 0
M  V30 6815 H 651.376 -1.74643 3.65078 0
M  V30 6816 H 649.946 -1.75266 2.58845 0
M  V30 6817 H 649.166 0.341751 3.92716 0
M  V30 6818 H 650.454 -0.0264381 5.08793 0
M  V30 6819 H 649.852 -3.18108 4.67786 0
M  V30 6820 H 648.409 -3.34105 5.59658 0
M  V30 6821 N 651.842 -1.52309 0.404946 0
M  V30 6822 C 653.09 -2.01368 -0.17186 0
M  V30 6823 C 653.411 -1.29261 -1.46002 0
M  V30 6824 O 652.681 -0.41729 -1.91404 0
M  V30 6825 H 651.261 -0.744034 -0.0664993 0
M  V30 6826 H 653.923 -1.87263 0.540228 0
M  V30 6827 H 653.019 -3.09888 -0.370957 0
M  V30 6828 N 653.32 -0.135238 -1.57019 0
M  V30 6829 C 654.23 0.822226 -2.19719 0
M  V30 6830 C 655.246 1.28057 -1.17802 0
M  V30 6831 O 656.422 1.3402 -1.50335 0
M  V30 6832 C 653.487 2.0484 -2.79717 0
M  V30 6833 C 652.548 1.64042 -3.96723 0
M  V30 6834 C 651.781 2.80814 -4.53849 0
M  V30 6835 O 652.004 3.967 -4.0986 0
M  V30 6836 O 650.938 2.56963 -5.44292 0
M  V30 6837 H 654.764 0.318552 -3.02025 0
M  V30 6838 H 652.349 0.0912021 -1.49121 0
M  V30 6839 H 654.231 2.76622 -3.17897 0
M  V30 6840 H 652.906 2.54182 -2.00432 0
M  V30 6841 H 651.813 0.893182 -3.63281 0
M  V30 6842 H 653.146 1.19426 -4.77492 0
M  V30 6843 N 654.798 1.5699 0.138552 0
M  V30 6844 C 655.708 2.02174 1.19008 0
M  V30 6845 C 656.724 0.938622 1.46512 0
M  V30 6846 O 657.9 1.24872 1.58016 0
M  V30 6847 C 654.965 2.40045 2.50159 0
M  V30 6848 C 654.026 3.62346 2.30226 0
M  V30 6849 C 653.259 3.98401 3.55123 0
M  V30 6850 O 653.482 3.35019 4.61647 0
M  V30 6851 O 652.416 4.91606 3.47285 0
M  V30 6852 H 656.242 2.91954 0.836452 0
M  V30 6853 H 653.827 1.45293 0.347907 0
M  V30 6854 H 655.709 2.65225 3.27465 0
M  V30 6855 H 654.384 1.53417 2.85035 0
M  V30 6856 H 653.291 3.42341 1.50843 0
M  V30 6857 H 654.624 4.49617 2.00262 0
M  V30 6858 N 656.276 -0.40816 1.52223 0
M  V30 6859 C 657.523 -1.15502 1.66329 0
M  V30 6860 C 657.851 -1.90474 0.393701 0
M  V30 6861 O 657.106 -1.85507 -0.623356 0
M  V30 6862 C 657.405 -2.17422 2.83659 0
M  V30 6863 C 657.071 -1.5925 4.21841 0
M  V30 6864 C 655.733 -1.4311 4.59427 0
M  V30 6865 C 658.085 -1.16776 5.0795 0
M  V30 6866 C 655.413 -0.830148 5.80797 0
M  V30 6867 C 657.765 -0.580988 6.29926 0
M  V30 6868 C 656.429 -0.406729 6.6626 0
M  V30 6869 H 655.699 -0.422653 0.608642 0
M  V30 6870 H 658.346 -0.442114 1.86327 0
M  V30 6871 H 656.651 -2.94861 2.58001 0
M  V30 6872 H 658.348 -2.75084 2.9177 0
M  V30 6873 H 654.938 -1.72796 3.92224 0
M  V30 6874 H 659.122 -1.28055 4.79495 0
M  V30 6875 H 654.378 -0.68316 6.07571 0
M  V30 6876 H 658.552 -0.243488 6.95974 0
M  V30 6877 H 656.179 0.0610366 7.60175 0
M  V30 6878 N 657.755 -1.42862 -0.66545 0
M  V30 6879 C 659.001 -1.44043 -1.42757 0
M  V30 6880 C 659.334 -0.0599629 -1.94107 0
M  V30 6881 O 658.609 0.917286 -1.71511 0
M  V30 6882 C 658.892 -2.47266 -2.61786 0
M  V30 6883 C 658.745 -3.94539 -2.16007 0
M  V30 6884 C 660.064 -2.47365 -3.64003 0
M  V30 6885 H 657.183 -0.524506 -0.517748 0
M  V30 6886 H 659.825 -1.74335 -0.755466 0
M  V30 6887 H 657.975 -2.21565 -3.19126 0
M  V30 6888 H 659.647 -4.31254 -1.63762 0
M  V30 6889 H 657.89 -4.07957 -1.47491 0
M  V30 6890 H 658.561 -4.62357 -3.01546 0
M  V30 6891 H 661.037 -2.70243 -3.16399 0
M  V30 6892 H 659.913 -3.21552 -4.44854 0
M  V30 6893 H 660.174 -1.50299 -4.15767 0
M  V30 6894 N 659.233 0.902656 -1.29189 0
M  V30 6895 C 660.473 1.6672 -1.18254 0
M  V30 6896 C 660.837 1.90199 0.262336 0
M  V30 6897 O 662.038 2.6421 0.494612 0
M  V30 6898 C 660.309 2.98178 -1.9704 0
M  V30 6899 S 661.868 3.89226 -2.02605 0
M  V30 6900 H 658.686 0.572432 -0.421714 0
M  V30 6901 H 661.288 1.07279 -1.63436 0
M  V30 6902 H 659.992 2.788 -3.01163 0
M  V30 6903 H 659.523 3.62661 -1.5245 0
M  V30 6904 H 661.538 4.82913 -1.14059 0
M  V30 6905 N 660.711 1.11618 1.11262 0
M  V30 6906 C 661.641 0.79846 2.19424 0
M  V30 6907 C 662.622 -0.234003 1.68483 0
M  V30 6908 O 663.807 -0.0970704 1.93957 0
M  V30 6909 C 660.937 0.242892 3.4645 0
M  V30 6910 C 659.891 1.20744 4.10615 0
M  V30 6911 C 659.217 0.512494 5.32238 0
M  V30 6912 C 660.517 2.55884 4.55325 0
M  V30 6913 H 662.211 1.70286 2.46258 0
M  V30 6914 H 659.757 0.820195 1.18359 0
M  V30 6915 H 661.71 0.00840447 4.21399 0
M  V30 6916 H 660.434 -0.696811 3.1908 0
M  V30 6917 H 659.093 1.42759 3.37662 0
M  V30 6918 H 658.741 -0.432075 5.01141 0
M  V30 6919 H 658.441 1.15583 5.7612 0
M  V30 6920 H 659.965 0.286842 6.09926 0
M  V30 6921 H 661.379 2.37946 5.21588 0
M  V30 6922 H 659.776 3.16216 5.10027 0
M  V30 6923 H 660.846 3.14968 3.68678 0
M  V30 6924 N 662.189 -1.289 0.906776 0
M  V30 6925 C 663.136 -2.2751 0.388313 0
M  V30 6926 C 664.106 -1.57301 -0.533439 0
M  V30 6927 O 665.291 -1.85243 -0.457148 0
M  V30 6928 C 662.431 -3.43091 -0.37181 0
M  V30 6929 C 661.544 -4.28066 0.581647 0
M  V30 6930 C 660.679 -5.30837 -0.19623 0
M  V30 6931 C 659.718 -6.07472 0.751294 0
M  V30 6932 N 658.855 -7.021 0.00737727 0
M  V30 6933 H 663.695 -2.71237 1.23428 0
M  V30 6934 H 661.232 -1.33397 0.619962 0
M  V30 6935 H 663.19 -4.08888 -0.828641 0
M  V30 6936 H 661.82 -3.00374 -1.18218 0
M  V30 6937 H 660.872 -3.62378 1.157 0
M  V30 6938 H 662.184 -4.81382 1.30665 0
M  V30 6939 H 661.338 -6.02485 -0.71394 0
M  V30 6940 H 660.077 -4.78272 -0.954324 0
M  V30 6941 H 659.082 -5.34682 1.28044 0
M  V30 6942 H 660.307 -6.62126 1.50883 0
M  V30 6943 H 658.253 -6.51894 -0.732854 0
M  V30 6944 H 658.17 -7.53004 0.672334 0
M  V30 6945 H 659.438 -7.77956 -0.490365 0
M  V30 6946 N 663.667 -0.670007 -1.42649 0
M  V30 6947 C 664.892 -0.196955 -2.06463 0
M  V30 6948 C 665.317 1.1352 -1.49983 0
M  V30 6949 O 664.675 1.705 -0.616397 0
M  V30 6950 C 664.723 -0.137381 -3.60338 0
M  V30 6951 O 663.827 0.895523 -4.02559 0
M  V30 6952 H 663.168 -0.102579 -0.656029 0
M  V30 6953 H 665.698 -0.917669 -1.82866 0
M  V30 6954 H 665.708 0.0403625 -4.0798 0
M  V30 6955 H 664.383 -1.10977 -4.0082 0
M  V30 6956 H 662.96 0.689209 -3.66476 0
M  V30 6957 N 665.145 1.52092 -0.413018 0
M  V30 6958 C 666.394 2.01041 0.16287 0
M  V30 6959 C 666.707 1.30288 1.45892 0
M  V30 6960 O 667.913 1.70075 2.11629 0
M  V30 6961 C 666.369 3.58283 0.340806 0
M  V30 6962 C 665.977 4.37955 -0.943377 0
M  V30 6963 C 667.721 4.15452 0.871774 0
M  V30 6964 C 665.628 5.86847 -0.732417 0
M  V30 6965 H 664.558 0.751224 0.0646414 0
M  V30 6966 H 667.209 1.75404 -0.539059 0
M  V30 6967 H 665.591 3.80266 1.10516 0
M  V30 6968 H 666.765 4.2773 -1.71418 0
M  V30 6969 H 665.08 3.92122 -1.40105 0
M  V30 6970 H 667.677 5.24375 1.0457 0
M  V30 6971 H 668.02 3.73057 1.84755 0
M  V30 6972 H 668.553 3.97452 0.166377 0
M  V30 6973 H 665.292 6.33609 -1.67986 0
M  V30 6974 H 664.812 5.998 -0.000980058 0
M  V30 6975 H 666.491 6.45906 -0.376105 0
M  V30 6976 N 666.623 0.143563 1.56945 0
M  V30 6977 C 667.872 -0.50835 1.95189 0
M  V30 6978 C 668.185 -1.66239 1.03073 0
M  V30 6979 O 669.391 -2.3787 1.30882 0
M  V30 6980 C 667.847 -0.955735 3.46978 0
M  V30 6981 C 667.455 0.171183 4.47673 0
M  V30 6982 C 669.199 -1.57763 3.94095 0
M  V30 6983 C 667.106 -0.294279 5.90667 0
M  V30 6984 H 666.036 -0.193679 0.728701 0
M  V30 6985 H 668.687 0.227357 1.82086 0
M  V30 6986 H 667.069 -1.7466 3.55401 0
M  V30 6987 H 668.243 0.948049 4.50942 0
M  V30 6988 H 666.558 0.701273 4.10452 0
M  V30 6989 H 669.155 -1.93745 4.98364 0
M  V30 6990 H 669.498 -2.46531 3.35452 0
M  V30 6991 H 670.031 -0.851728 3.88575 0
M  V30 6992 H 666.77 0.557939 6.53121 0
M  V30 6993 H 666.29 -1.0371 5.90766 0
M  V30 6994 H 667.969 -0.747426 6.42668 0
M  V30 6995 N 668.101 -1.57061 -0.130224 0
M  V30 6996 C 669.031 -2.02552 -1.16168 0
M  V30 6997 C 670.012 -0.907971 -1.4384 0
M  V30 6998 O 671.197 -1.17693 -1.54473 0
M  V30 6999 C 668.327 -2.42035 -2.49071 0
M  V30 7000 C 667.281 -3.5713 -2.35886 0
M  V30 7001 C 666.607 -3.82478 -3.7365 0
M  V30 7002 C 667.907 -4.89236 -1.8288 0
M  V30 7003 H 669.601 -2.8897 -0.783359 0
M  V30 7004 H 667.147 -1.39021 -0.375376 0
M  V30 7005 H 669.1 -2.72462 -3.21469 0
M  V30 7006 H 667.824 -1.52573 -2.88771 0
M  V30 7007 H 666.483 -3.26895 -1.65938 0
M  V30 7008 H 666.131 -2.9024 -4.10816 0
M  V30 7009 H 665.831 -4.59944 -3.65685 0
M  V30 7010 H 667.355 -4.15347 -4.47571 0
M  V30 7011 H 668.769 -5.18272 -2.45085 0
M  V30 7012 H 667.166 -5.70624 -1.85763 0
M  V30 7013 H 668.236 -4.78494 -0.785571 0
M  V30 7014 N 669.579 0.400081 -1.52437 0
M  V30 7015 C 670.509 1.4947 -1.7939 0
M  V30 7016 C 671.49 1.57383 -0.645329 0
M  V30 7017 O 672.675 1.72511 -0.891826 0
M  V30 7018 C 669.805 2.87201 -1.95276 0
M  V30 7019 C 668.759 2.94134 -3.10917 0
M  V30 7020 C 668.085 4.34207 -3.1204 0
M  V30 7021 C 669.385 2.64791 -4.50203 0
M  V30 7022 H 671.079 1.27165 -2.71052 0
M  V30 7023 H 668.625 0.610312 -1.30427 0
M  V30 7024 H 670.578 3.63772 -2.12715 0
M  V30 7025 H 669.302 3.10819 -1.00294 0
M  V30 7026 H 667.961 2.20009 -2.93243 0
M  V30 7027 H 667.609 4.54848 -2.14761 0
M  V30 7028 H 667.309 4.39768 -3.89715 0
M  V30 7029 H 668.833 5.127 -3.31619 0
M  V30 7030 H 670.247 3.31083 -4.68035 0
M  V30 7031 H 668.644 2.81717 -5.29864 0
M  V30 7032 H 669.714 1.60184 -4.57678 0
M  V30 7033 N 671.057 1.43213 0.657864 0
M  V30 7034 C 672.005 1.48271 1.79216 0
M  V30 7035 C 672.999 0.35675 1.65601 0
M  V30 7036 O 674.205 0.530535 1.72004 0
M  V30 7037 H 670.58 0.464729 0.591211 0
M  V30 7038 H 672.551 2.43792 1.7207 0
M  V30 7039 C 671.3 1.41837 3.17455 0
M  V30 7040 H 670.623 2.27781 3.28567 0
M  V30 7041 H 672.063 1.49438 3.96793 0
M  V30 7042 C 670.522 0.135347 3.36628 0
M  V30 7043 O 671.052 -0.805199 3.93547 0
M  V30 7044 N 669.258 0.0470316 2.90562 0
M  V30 7045 H 668.805 0.813221 2.44427 0
M  V30 7046 H 668.763 -0.810737 3.03767 0
M  V30 7047 N 672.536 -0.895792 1.29666 0
M  V30 7048 C 673.761 -1.68528 1.20885 0
M  V30 7049 C 674.186 -1.8673 -0.226595 0
M  V30 7050 O 673.544 -1.39044 -1.16347 0
M  V30 7051 C 673.592 -3.04512 1.93144 0
M  V30 7052 O 672.696 -3.92963 1.25115 0
M  V30 7053 H 672.037 -0.515371 0.418675 0
M  V30 7054 H 674.567 -1.11878 1.71302 0
M  V30 7055 H 674.577 -3.54628 2.0175 0
M  V30 7056 H 673.252 -2.90582 2.97548 0
M  V30 7057 H 671.829 -3.51399 1.24794 0
M  V30 7058 N 674.014 -1.12206 -1.10668 0
M  V30 7059 C 675.262 -0.874144 -1.82217 0
M  V30 7060 C 675.583 0.601736 -1.85484 0
M  V30 7061 O 674.853 1.43725 -1.33116 0
M  V30 7062 H 673.433 -0.320404 -0.674797 0
M  V30 7063 H 676.095 -1.41606 -1.33917 0
M  V30 7064 H 675.191 -1.25349 -2.85822 0
M  V30 7065 N 675.492 1.28418 -0.913599 0
M  V30 7066 C 676.738 1.9527 -0.547484 0
M  V30 7067 C 677.071 1.71745 0.906486 0
M  V30 7068 O 676.346 1.03834 1.64465 0
M  V30 7069 C 676.629 3.49748 -0.857205 0
M  V30 7070 C 676.482 3.82675 -2.3639 0
M  V30 7071 C 677.801 4.3868 -0.353258 0
M  V30 7072 H 674.92 0.709236 -0.200381 0
M  V30 7073 H 677.562 1.51789 -1.14281 0
M  V30 7074 H 675.712 3.86915 -0.350548 0
M  V30 7075 H 677.384 3.55378 -2.94116 0
M  V30 7076 H 675.627 3.29724 -2.81894 0
M  V30 7077 H 676.298 4.90547 -2.53115 0
M  V30 7078 H 678.774 4.08584 -0.787288 0
M  V30 7079 H 677.65 5.45621 -0.599049 0
M  V30 7080 H 677.911 4.35753 0.746413 0
M  V30 7081 N 676.97 0.677563 1.42291 0
M  V30 7082 C 678.2 0.209155 2.05539 0
M  V30 7083 C 678.608 -1.13987 1.51009 0
M  V30 7084 O 677.951 -1.71976 0.645764 0
M  V30 7085 C 678.013 0.0697758 3.59432 0
M  V30 7086 C 677.677 1.34795 4.36668 0
M  V30 7087 C 678.674 2.28201 4.67141 0
M  V30 7088 C 676.359 1.59632 4.76259 0
M  V30 7089 C 678.353 3.44718 5.36142 0
M  V30 7090 C 676.04 2.76437 5.45 0
M  V30 7091 C 677.038 3.68805 5.74867 0
M  V30 7092 O 676.726 4.83567 6.42198 0
M  V30 7093 H 676.458 0.0986202 0.668768 0
M  V30 7094 H 679.012 0.925483 1.83368 0
M  V30 7095 H 677.242 -0.702157 3.80272 0
M  V30 7096 H 678.931 -0.359115 4.04308 0
M  V30 7097 H 679.697 2.10264 4.37052 0
M  V30 7098 H 675.576 0.886073 4.52404 0
M  V30 7099 H 679.12 4.16833 5.59371 0
M  V30 7100 H 675.017 2.94299 5.74507 0
M  V30 7101 H 675.785 4.83147 6.6069 0
M  V30 7102 N 678.448 -1.51871 0.421078 0
M  V30 7103 C 679.676 -2.06356 -0.14994 0
M  V30 7104 C 680.091 -1.29006 -1.37851 0
M  V30 7105 O 679.448 -0.345139 -1.79207 0
M  V30 7106 C 679.499 -3.58185 -0.488454 0
M  V30 7107 O 679.22 -4.32611 0.691341 0
M  V30 7108 C 680.721 -4.29129 -1.11191 0
M  V30 7109 H 677.941 -0.67083 -0.0151186 0
M  V30 7110 H 680.485 -1.95638 0.595476 0
M  V30 7111 H 678.64 -3.68871 -1.18376 0
M  V30 7112 H 679.054 -5.22927 0.405906 0
M  V30 7113 H 680.528 -5.36501 -1.29889 0
M  V30 7114 H 681.005 -3.86371 -2.0884 0
M  V30 7115 H 681.611 -4.22843 -0.456458 0
M  V30 7116 N 679.926 -0.151884 -1.56866 0
M  V30 7117 C 681.173 0.498004 -1.96281 0
M  V30 7118 C 681.501 1.64551 -1.03698 0
M  V30 7119 O 680.756 1.95585 -0.0671497 0
M  V30 7120 C 681.055 1.04074 -3.41911 0
M  V30 7121 C 680.721 0.0111688 -4.50899 0
M  V30 7122 C 679.383 -0.271844 -4.80432 0
M  V30 7123 C 681.735 -0.68869 -5.1663 0
M  V30 7124 C 679.063 -1.26044 -5.73001 0
M  V30 7125 C 681.415 -1.66613 -6.10264 0
M  V30 7126 C 680.079 -1.9568 -6.38174 0
M  V30 7127 H 679.349 0.182233 -0.718242 0
M  V30 7128 H 681.996 -0.239746 -1.89993 0
M  V30 7129 H 680.301 1.85592 -3.45055 0
M  V30 7130 H 681.998 1.55224 -3.69738 0
M  V30 7131 H 678.588 0.241932 -4.27917 0
M  V30 7132 H 682.772 -0.48324 -4.93942 0
M  V30 7133 H 678.028 -1.49202 -5.92915 0
M  V30 7134 H 682.202 -2.21392 -6.60272 0
M  V30 7135 H 679.829 -2.72434 -7.09707 0
M  V30 7136 N 681.404 1.57128 0.121893 0
M  V30 7137 C 682.334 2.03165 1.15092 0
M  V30 7138 C 683.315 0.915587 1.43356 0
M  V30 7139 O 684.5 1.1851 1.53847 0
M  V30 7140 C 681.63 2.43352 2.47784 0
M  V30 7141 C 680.584 3.58376 2.33989 0
M  V30 7142 C 679.91 3.84454 3.71617 0
M  V30 7143 C 681.21 4.90199 1.80283 0
M  V30 7144 H 682.904 2.89382 0.768023 0
M  V30 7145 H 680.45 1.39218 0.367998 0
M  V30 7146 H 682.403 2.74163 3.20019 0
M  V30 7147 H 681.127 1.54103 2.87958 0
M  V30 7148 H 679.786 3.2777 1.64202 0
M  V30 7149 H 679.434 2.92414 4.09271 0
M  V30 7150 H 679.134 4.61877 3.6324 0
M  V30 7151 H 680.658 4.17714 4.45362 0
M  V30 7152 H 682.072 5.19565 2.42333 0
M  V30 7153 H 680.469 5.71601 1.82735 0
M  V30 7154 H 681.539 4.78904 0.760184 0
M  V30 7155 N 682.882 -0.391992 1.52647 0
M  V30 7156 C 684.107 -1.16312 1.71716 0
M  V30 7157 C 684.532 -1.83042 0.433279 0
M  V30 7158 O 683.89 -1.70705 -0.610707 0
M  V30 7159 C 683.938 -2.18908 2.86551 0
M  V30 7160 O 683.042 -3.2543 2.53316 0
M  V30 7161 H 682.383 -0.338743 0.571095 0
M  V30 7162 H 684.913 -0.457202 1.99426 0
M  V30 7163 H 684.923 -2.62954 3.1196 0
M  V30 7164 H 683.598 -1.69726 3.79692 0
M  V30 7165 H 682.175 -2.86543 2.38637 0
M  V30 7166 N 684.36 -1.4356 -0.65026 0
M  V30 7167 C 685.585 -1.48995 -1.44275 0
M  V30 7168 C 686.01 -0.109954 -1.87778 0
M  V30 7169 O 685.368 0.896926 -1.57559 0
M  V30 7170 C 685.416 -2.44341 -2.65198 0
M  V30 7171 O 684.52 -1.93172 -3.6436 0
M  V30 7172 H 683.861 -0.503852 -0.432469 0
M  V30 7173 H 686.391 -1.88504 -0.795446 0
M  V30 7174 H 686.401 -2.61743 -3.12977 0
M  V30 7175 H 685.076 -3.44588 -2.32877 0
M  V30 7176 H 683.653 -1.85445 -3.23519 0
M  V30 7177 N 685.838 0.888903 -1.30139 0
M  V30 7178 C 687.066 1.67358 -1.21651 0
M  V30 7179 C 687.481 1.87499 0.221246 0
M  V30 7180 O 686.838 1.41969 1.14677 0
M  V30 7181 C 686.889 3.05213 -1.93719 0
M  V30 7182 O 686.61 2.85984 -3.31881 0
M  V30 7183 C 688.111 3.9964 -1.9184 0
M  V30 7184 H 685.331 0.522365 -0.42116 0
M  V30 7185 H 687.875 1.11086 -1.71698 0
M  V30 7186 H 686.03 3.5823 -1.4748 0
M  V30 7187 H 686.444 3.73411 -3.68327 0
M  V30 7188 H 687.918 4.93749 -2.46811 0
M  V30 7189 H 688.395 4.29955 -0.896409 0
M  V30 7190 H 689.001 3.52558 -2.37872 0
M  V30 7191 N 687.317 1.12792 1.10072 0
M  V30 7192 C 688.247 0.821688 2.18565 0
M  V30 7193 C 689.228 -0.21612 1.68721 0
M  V30 7194 O 690.413 -0.0764932 1.94049 0
M  V30 7195 C 687.543 0.279624 3.46172 0
M  V30 7196 C 686.497 1.25092 4.09312 0
M  V30 7197 C 685.823 0.568916 5.31665 0
M  V30 7198 C 687.123 2.60699 4.52585 0
M  V30 7199 H 688.817 1.72888 2.44438 0
M  V30 7200 H 686.363 0.832702 1.17482 0
M  V30 7201 H 688.316 0.053099 4.21367 0
M  V30 7202 H 687.04 -0.662929 3.19801 0
M  V30 7203 H 685.699 1.46332 3.36129 0
M  V30 7204 H 685.347 -0.378898 5.01571 0
M  V30 7205 H 685.047 1.21687 5.74862 0
M  V30 7206 H 686.571 0.351517 6.09587 0
M  V30 7207 H 687.985 2.43465 5.19035 0
M  V30 7208 H 686.382 3.21608 5.06644 0
M  V30 7209 H 687.452 3.1886 3.65317 0
M  V30 7210 N 688.795 -1.27931 0.920396 0
M  V30 7211 C 689.742 -2.27085 0.412422 0
M  V30 7212 C 690.712 -1.57858 -0.516725 0
M  V30 7213 O 691.897 -1.85717 -0.437475 0
M  V30 7214 C 689.037 -3.43466 -0.335399 0
M  V30 7215 C 688.15 -4.27425 0.627017 0
M  V30 7216 C 687.285 -5.31016 -0.139916 0
M  V30 7217 C 686.324 -6.06641 0.815683 0
M  V30 7218 N 685.461 -7.02052 0.0818439 0
M  V30 7219 H 690.301 -2.69913 1.26298 0
M  V30 7220 H 687.838 -1.32732 0.634076 0
M  V30 7221 H 689.796 -4.09744 -0.785226 0
M  V30 7222 H 688.426 -3.01611 -1.15025 0
M  V30 7223 H 687.478 -3.6113 1.19537 0
M  V30 7224 H 688.79 -4.79969 1.35763 0
M  V30 7225 H 687.944 -6.03208 -0.649998 0
M  V30 7226 H 686.683 -4.79257 -0.903543 0
M  V30 7227 H 685.688 -5.33294 1.33708 0
M  V30 7228 H 686.913 -6.60489 1.57897 0
M  V30 7229 H 684.859 -6.52634 -0.663671 0
M  V30 7230 H 684.776 -7.52249 0.752163 0
M  V30 7231 H 686.044 -7.78432 -0.407825 0
M  V30 7232 N 690.273 -0.685099 -1.4193 0
M  V30 7233 C 691.498 -0.218842 -2.06242 0
M  V30 7234 C 691.923 1.11923 -1.51178 0
M  V30 7235 O 691.281 1.69837 -0.634446 0
M  V30 7236 C 691.329 -0.175592 -3.60172 0
M  V30 7237 O 690.433 0.852776 -4.03487 0
M  V30 7238 H 689.774 -0.109531 -0.654904 0
M  V30 7239 H 692.304 -0.937013 -1.81882 0
M  V30 7240 H 692.314 -0.00291151 -4.08 0
M  V30 7241 H 690.989 -1.15222 -3.99621 0
M  V30 7242 H 689.566 0.650301 -3.67186 0
M  V30 7243 N 691.751 1.51645 -0.429126 0
M  V30 7244 C 692.681 2.30434 0.377148 0
M  V30 7245 C 693.662 1.35493 1.02838 0
M  V30 7246 O 694.847 1.6441 1.03359 0
M  V30 7247 C 691.977 3.14038 1.48315 0
M  V30 7248 C 690.931 4.1719 0.955855 0
M  V30 7249 C 690.257 4.89263 2.15698 0
M  V30 7250 C 691.557 5.223 -0.00402136 0
M  V30 7251 H 693.251 2.98085 -0.280336 0
M  V30 7252 H 690.797 1.43354 -0.136265 0
M  V30 7253 H 692.75 3.67933 2.05435 0
M  V30 7254 H 691.474 2.44193 2.16881 0
M  V30 7255 H 690.133 3.64335 0.406929 0
M  V30 7256 H 689.781 4.15929 2.82864 0
M  V30 7257 H 689.481 5.59009 1.81059 0
M  V30 7258 H 691.005 5.45978 2.73387 0
M  V30 7259 H 692.419 5.71315 0.476607 0
M  V30 7260 H 690.816 5.99525 -0.26258 0
M  V30 7261 H 691.886 4.75638 -0.943236 0
M  V30 7262 N 693.229 0.160201 1.56784 0
M  V30 7263 C 694.139 -0.787167 2.21 0
M  V30 7264 C 695.155 -1.26167 1.19825 0
M  V30 7265 O 696.331 -1.31611 1.52448 0
M  V30 7266 C 693.396 -2.00364 2.8294 0
M  V30 7267 C 692.457 -1.5771 3.99282 0
M  V30 7268 C 691.69 -2.73558 4.58259 0
M  V30 7269 O 691.913 -3.90129 4.16119 0
M  V30 7270 O 690.847 -2.48271 5.48311 0
M  V30 7271 H 694.673 -0.270462 3.02493 0
M  V30 7272 H 692.258 -0.0674666 1.49248 0
M  V30 7273 H 694.14 -2.71529 3.22257 0
M  V30 7274 H 692.815 -2.50961 2.04451 0
M  V30 7275 H 691.722 -0.835274 3.64656 0
M  V30 7276 H 693.055 -1.11815 4.79331 0
M  V30 7277 N 694.707 -1.5719 -0.113559 0
M  V30 7278 C 695.617 -2.04041 -1.15777 0
M  V30 7279 C 696.633 -0.961812 -1.45001 0
M  V30 7280 O 697.809 -1.2737 -1.56009 0
M  V30 7281 C 694.874 -2.43994 -2.46308 0
M  V30 7282 C 693.935 -3.65962 -2.24433 0
M  V30 7283 C 693.168 -4.04 -3.4874 0
M  V30 7284 O 693.391 -3.42321 -4.56259 0
M  V30 7285 O 692.325 -4.97069 -3.3942 0
M  V30 7286 H 696.151 -2.93248 -0.789899 0
M  V30 7287 H 693.736 -1.45828 -0.324748 0
M  V30 7288 H 695.618 -2.70401 -3.23204 0
M  V30 7289 H 694.293 -1.57932 -2.82558 0
M  V30 7290 H 693.2 -3.44697 -1.45377 0
M  V30 7291 H 694.533 -4.52746 -1.93084 0
M  V30 7292 N 696.185 0.383891 -1.52853 0
M  V30 7293 C 697.132 1.46924 -1.77995 0
M  V30 7294 C 698.102 1.53958 -0.623396 0
M  V30 7295 O 699.287 1.70134 -0.863657 0
M  V30 7296 C 696.427 2.84093 -1.95921 0
M  V30 7297 C 695.54 2.86171 -3.23621 0
M  V30 7298 C 694.675 4.14799 -3.31836 0
M  V30 7299 C 693.714 4.10948 -4.53639 0
M  V30 7300 N 692.851 5.31192 -4.59107 0
M  V30 7301 H 697.691 1.24786 -2.70615 0
M  V30 7302 H 695.228 0.605265 -1.34071 0
M  V30 7303 H 697.186 3.63755 -2.04299 0
M  V30 7304 H 695.816 3.04671 -1.06656 0
M  V30 7305 H 694.868 1.9885 -3.24288 0
M  V30 7306 H 696.18 2.79194 -4.13343 0
M  V30 7307 H 695.334 5.02867 -3.39425 0
M  V30 7308 H 694.073 4.24505 -2.40097 0
M  V30 7309 H 693.078 3.21268 -4.46169 0
M  V30 7310 H 694.303 4.0286 -5.467 0
M  V30 7311 H 692.249 5.41518 -3.70262 0
M  V30 7312 H 692.166 5.26311 -5.42708 0
M  V30 7313 H 693.434 6.21143 -4.70958 0
M  V30 7314 N 697.663 1.43903 0.642637 0
M  V30 7315 C 698.94 1.36556 1.40043 0
M  V30 7316 C 699.32 0.0185588 2.11092 0
M  V30 7317 O 698.668 -0.998438 2.05532 0
M  V30 7318 C 698.878 2.55596 2.37638 0
M  V30 7319 C 700.226 2.99153 3.01318 0
M  V30 7320 O 701.25 2.55719 2.47965 0
M  V30 7321 O 700.109 3.74427 3.98078 0
M  V30 7322 H 697.203 0.540189 0.626198 0
M  V30 7323 H 699.749 1.55971 0.668657 0
M  V30 7324 H 698.521 3.45256 1.84158 0
M  V30 7325 H 698.144 2.38334 3.18249 0
M  V30 7326 N 699.141 -0.881989 1.30609 0
M  V30 7327 C 700.091 -1.97539 1.13852 0
M  V30 7328 C 701.075 -1.60813 0.0528428 0
M  V30 7329 O 702.267 -1.74827 0.276484 0
M  V30 7330 C 699.396 -3.32977 0.835519 0
M  V30 7331 C 698.482 -3.76008 1.96159 0
M  V30 7332 N 698.873 -3.91109 3.20729 0
M  V30 7333 C 697.171 -4.05427 1.85863 0
M  V30 7334 C 697.872 -4.27661 3.94311 0
M  V30 7335 N 696.848 -4.37686 3.22385 0
M  V30 7336 H 700.65 -2.07309 2.08327 0
M  V30 7337 H 698.164 -1.072 1.21992 0
M  V30 7338 H 700.161 -4.11041 0.696477 0
M  V30 7339 H 698.821 -3.24542 -0.101135 0
M  V30 7340 H 699.832 -3.7616 3.55984 0
M  V30 7341 H 696.509 -4.05449 0.995847 0
M  V30 7342 H 697.899 -4.47042 5.01601 0
M  V30 7343 N 700.619 -1.13374 -1.09472 0
M  V30 7344 C 701.868 -0.889844 -1.8101 0
M  V30 7345 C 702.181 0.585686 -1.86625 0
M  V30 7346 O 703.387 0.946497 -2.54467 0
M  V30 7347 C 701.843 -1.54241 -3.25174 0
M  V30 7348 C 701.451 -3.05343 -3.27826 0
M  V30 7349 C 703.195 -1.37919 -4.0147 0
M  V30 7350 C 701.102 -3.63486 -4.6651 0
M  V30 7351 H 700.032 -0.329256 -0.678311 0
M  V30 7352 H 702.683 -1.36139 -1.23038 0
M  V30 7353 H 701.065 -0.998525 -3.83204 0
M  V30 7354 H 702.239 -3.66307 -2.79563 0
M  V30 7355 H 700.554 -3.21175 -2.65019 0
M  V30 7356 H 703.151 -1.78771 -5.03929 0
M  V30 7357 H 703.494 -0.323987 -4.15037 0
M  V30 7358 H 704.027 -1.89284 -3.49881 0
M  V30 7359 H 700.766 -4.68811 -4.58145 0
M  V30 7360 H 700.286 -3.073 -5.15099 0
M  V30 7361 H 701.965 -3.63134 -5.35484 0
M  V30 7362 N 702.098 1.27442 -0.927168 0
M  V30 7363 C 703.048 2.24519 -0.396878 0
M  V30 7364 C 704.032 1.52981 0.498555 0
M  V30 7365 O 705.224 1.7378 0.336087 0
M  V30 7366 C 702.353 3.41514 0.349694 0
M  V30 7367 C 701.439 4.20357 -0.562226 0
M  V30 7368 N 701.83 4.7702 -1.68182 0
M  V30 7369 C 700.128 4.44503 -0.365135 0
M  V30 7370 C 700.829 5.36467 -2.24895 0
M  V30 7371 N 699.805 5.21371 -1.5386 0
M  V30 7372 H 703.607 2.65911 -1.25173 0
M  V30 7373 H 701.121 1.42366 -0.78138 0
M  V30 7374 H 703.118 4.10161 0.746536 0
M  V30 7375 H 701.778 3.01653 1.20148 0
M  V30 7376 H 702.789 4.74985 -2.06421 0
M  V30 7377 H 699.466 4.15111 0.446037 0
M  V30 7378 H 700.856 5.91264 -3.1915 0
M  V30 7379 N 703.576 0.692616 1.41565 0
M  V30 7380 C 704.992 0.363878 1.55397 0
M  V30 7381 C 705.192 -1.1294 1.66874 0
M  V30 7382 O 704.248 -1.91517 1.64552 0
M  V30 7383 C 705.561 1.10982 2.7947 0
M  V30 7384 C 707.109 1.09387 2.93263 0
M  V30 7385 C 707.584 1.8215 4.20221 0
M  V30 7386 N 709.075 1.79105 4.27172 0
M  V30 7387 C 709.81 2.32247 5.2426 0
M  V30 7388 N 709.306 2.93847 6.27396 0
M  V30 7389 N 711.099 2.22519 5.1618 0
M  V30 7390 H 703.25 1.66116 1.3236 0
M  V30 7391 H 705.513 0.700848 0.63837 0
M  V30 7392 H 705.219 2.1647 2.77188 0
M  V30 7393 H 705.093 0.686492 3.709 0
M  V30 7394 H 707.48 0.0472638 2.95062 0
M  V30 7395 H 707.561 1.55623 2.03015 0
M  V30 7396 H 707.205 2.86789 4.19183 0
M  V30 7397 H 707.135 1.33351 5.09436 0
M  V30 7398 H 709.626 1.34191 3.53272 0
M  V30 7399 H 709.939 3.31972 6.97864 0
M  V30 7400 H 708.284 2.97924 6.27906 0
M  V30 7401 H 711.475 1.7407 4.34531 0
M  V30 7402 H 711.648 2.64239 5.91677 0
M  V30 7403 N 705.054 -1.51416 0.437162 0
M  V30 7404 C 706.3 -2.02386 -0.129555 0
M  V30 7405 C 706.633 -1.32071 -1.42376 0
M  V30 7406 O 705.908 -0.43559 -1.8956 0
M  V30 7407 C 706.191 -3.5841 -0.348487 0
M  V30 7408 C 706.044 -4.39341 0.964352 0
M  V30 7409 C 707.363 -4.25654 -1.11834 0
M  V30 7410 H 704.482 -0.735587 -0.0456109 0
M  V30 7411 H 707.124 -1.81055 0.576124 0
M  V30 7412 H 705.274 -3.76716 -0.949592 0
M  V30 7413 H 706.946 -4.32685 1.59942 0
M  V30 7414 H 705.189 -4.04432 1.56898 0
M  V30 7415 H 705.86 -5.4667 0.765212 0
M  V30 7416 H 708.336 -4.11617 -0.609165 0
M  V30 7417 H 707.212 -5.34704 -1.24029 0
M  V30 7418 H 707.473 -3.86502 -2.14636 0
M  V30 7419 N 706.532 -0.168513 -1.56696 0
M  V30 7420 C 707.462 0.758563 -2.20835 0
M  V30 7421 C 708.443 1.24121 -1.1631 0
M  V30 7422 O 709.628 1.29487 -1.4473 0
M  V30 7423 C 706.758 1.9892 -2.8469 0
M  V30 7424 C 705.712 1.64252 -3.95228 0
M  V30 7425 C 705.038 2.94757 -4.46119 0
M  V30 7426 C 706.338 0.872675 -5.14958 0
M  V30 7427 H 708.032 0.223953 -2.98561 0
M  V30 7428 H 705.578 0.106277 -1.43607 0
M  V30 7429 H 707.531 2.64275 -3.28233 0
M  V30 7430 H 706.255 2.5479 -2.04327 0
M  V30 7431 H 704.914 1.01266 -3.52336 0
M  V30 7432 H 704.562 3.48662 -3.62552 0
M  V30 7433 H 704.262 2.72316 -5.2069 0
M  V30 7434 H 705.786 3.61147 -4.92347 0
M  V30 7435 H 707.2 1.42875 -5.55211 0
M  V30 7436 H 705.597 0.747402 -5.95428 0
M  V30 7437 H 706.667 -0.131535 -4.84722 0
M  V30 7438 N 708.01 1.57248 0.105221 0
M  V30 7439 C 709.287 1.76566 0.841647 0
M  V30 7440 C 709.667 0.747566 1.9742 0
M  V30 7441 O 709.015 -0.225886 2.27381 0
M  V30 7442 C 709.225 3.22016 1.3456 0
M  V30 7443 C 710.573 3.84911 1.79244 0
M  V30 7444 O 711.597 3.25703 1.44207 0
M  V30 7445 O 710.456 4.89008 2.43995 0
M  V30 7446 H 707.55 0.723443 0.400698 0
M  V30 7447 H 710.096 1.69472 0.0878893 0
M  V30 7448 H 708.868 3.87644 0.533685 0
M  V30 7449 H 708.491 3.33703 2.16167 0
M  V30 7450 N 709.488 -0.375779 1.53054 0
M  V30 7451 C 710.435 -1.45978 1.78771 0
M  V30 7452 C 711.405 -1.53625 0.631552 0
M  V30 7453 O 712.59 -1.69674 0.872667 0
M  V30 7454 C 709.73 -2.8305 1.97425 0
M  V30 7455 C 708.843 -2.84451 3.25134 0
M  V30 7456 C 707.978 -4.13034 3.34031 0
M  V30 7457 C 707.017 -4.08536 4.55812 0
M  V30 7458 N 706.154 -5.2875 4.61918 0
M  V30 7459 H 710.994 -1.23349 2.71273 0
M  V30 7460 H 708.531 -0.598147 1.3439 0
M  V30 7461 H 710.489 -3.62666 2.06225 0
M  V30 7462 H 709.119 -3.04101 1.0827 0
M  V30 7463 H 708.171 -1.97127 3.25338 0
M  V30 7464 H 709.483 -2.76998 4.14818 0
M  V30 7465 H 708.637 -5.0106 3.42087 0
M  V30 7466 H 707.376 -4.23226 2.42345 0
M  V30 7467 H 706.381 -3.18897 4.47867 0
M  V30 7468 H 707.606 -3.99955 5.48828 0
M  V30 7469 H 705.552 -5.39547 3.73129 0
M  V30 7470 H 705.469 -5.23426 5.45492 0
M  V30 7471 H 706.737 -6.18637 4.74245 0
M  V30 7472 N 710.966 -1.44241 -0.634997 0
M  V30 7473 C 712.215 -1.46102 -1.39058 0
M  V30 7474 C 712.528 -0.0959909 -1.95364 0
M  V30 7475 O 713.734 0.00788751 -2.71499 0
M  V30 7476 C 712.19 -2.57195 -2.51751 0
M  V30 7477 C 711.798 -3.99888 -2.01974 0
M  V30 7478 C 713.542 -2.68272 -3.28984 0
M  V30 7479 C 711.449 -5.02412 -3.11987 0
M  V30 7480 H 710.379 -0.543556 -0.522554 0
M  V30 7481 H 713.03 -1.70294 -0.683538 0
M  V30 7482 H 711.412 -2.26237 -3.25012 0
M  V30 7483 H 712.586 -4.40396 -1.35604 0
M  V30 7484 H 710.901 -3.93019 -1.37568 0
M  V30 7485 H 713.498 -3.42042 -4.10988 0
M  V30 7486 H 713.841 -1.73957 -3.78212 0
M  V30 7487 H 714.374 -2.98622 -2.62812 0
M  V30 7488 H 711.113 -5.98342 -2.67707 0
M  V30 7489 H 710.633 -4.66501 -3.77011 0
M  V30 7490 H 712.312 -5.25939 -3.76825 0
M  V30 7491 N 712.444 0.87505 -1.31075 0
M  V30 7492 C 713.672 1.66058 -1.23419 0
M  V30 7493 C 714.087 1.87723 0.201347 0
M  V30 7494 O 713.444 1.43178 1.13165 0
M  V30 7495 C 713.495 3.03142 -1.96945 0
M  V30 7496 O 713.216 2.82448 -3.34895 0
M  V30 7497 C 714.717 3.97583 -1.96067 0
M  V30 7498 H 711.937 0.517868 -0.426677 0
M  V30 7499 H 714.481 1.09258 -1.72867 0
M  V30 7500 H 712.636 3.56645 -1.51271 0
M  V30 7501 H 713.05 3.69483 -3.72267 0
M  V30 7502 H 714.524 4.91104 -2.52034 0
M  V30 7503 H 715.001 4.2898 -0.941961 0
M  V30 7504 H 715.607 3.50015 -2.41597 0
M  V30 7505 N 713.922 1.13953 1.08869 0
M  V30 7506 C 715.199 0.815768 1.77777 0
M  V30 7507 C 715.579 -0.691624 1.99449 0
M  V30 7508 O 714.927 -1.63085 1.60049 0
M  V30 7509 C 715.137 1.60916 3.09689 0
M  V30 7510 C 716.485 1.80549 3.84301 0
M  V30 7511 O 717.509 1.57562 3.19457 0
M  V30 7512 O 716.368 2.18946 5.00724 0
M  V30 7513 H 713.462 0.298445 0.771271 0
M  V30 7514 H 716.008 1.24446 1.15374 0
M  V30 7515 H 714.78 2.6333 2.89435 0
M  V30 7516 H 714.403 1.17578 3.79817 0
M  V30 7517 N 715.4 -1.26948 0.933913 0
M  V30 7518 C 716.628 -1.98186 0.59414 0
M  V30 7519 C 717.043 -1.69614 -0.829257 0
M  V30 7520 O 716.4 -0.960213 -1.55197 0
M  V30 7521 C 716.451 -3.52123 0.818026 0
M  V30 7522 O 716.172 -3.79698 2.18543 0
M  V30 7523 C 717.673 -4.40608 0.48781 0
M  V30 7524 H 714.893 -0.632305 0.224569 0
M  V30 7525 H 717.437 -1.61646 1.25263 0
M  V30 7526 H 715.592 -3.86851 0.206246 0
M  V30 7527 H 716.006 -4.7426 2.24005 0
M  V30 7528 H 717.48 -5.47606 0.695126 0
M  V30 7529 H 717.957 -4.35394 -0.576913 0
M  V30 7530 H 718.563 -4.11411 1.078 0
M  V30 7531 N 716.879 -0.700114 -1.41195 0
M  V30 7532 C 717.809 -0.0521132 -2.33442 0
M  V30 7533 C 718.79 0.76228 -1.52063 0
M  V30 7534 O 719.975 0.714336 -1.80585 0
M  V30 7535 C 717.105 0.881693 -3.35922 0
M  V30 7536 C 716.059 0.174062 -4.27646 0
M  V30 7537 C 715.385 1.22254 -5.20536 0
M  V30 7538 C 716.685 -0.962396 -5.13357 0
M  V30 7539 H 718.379 -0.822574 -2.87879 0
M  V30 7540 H 715.925 -0.397011 -1.38419 0
M  V30 7541 H 717.878 1.34429 -3.99383 0
M  V30 7542 H 716.602 1.68387 -2.79845 0
M  V30 7543 H 715.261 -0.268551 -3.65615 0
M  V30 7544 H 714.909 2.01736 -4.60773 0
M  V30 7545 H 714.609 0.754038 -5.82742 0
M  V30 7546 H 716.133 1.68555 -5.86874 0
M  V30 7547 H 717.547 -0.579875 -5.7036 0
M  V30 7548 H 715.944 -1.35828 -5.84526 0
M  V30 7549 H 717.014 -1.80003 -4.50252 0
M  V30 7550 N 718.357 1.51182 -0.445186 0
M  V30 7551 C 719.606 2.01342 0.120189 0
M  V30 7552 C 719.919 1.33353 1.43095 0
M  V30 7553 O 721.125 1.74525 2.07974 0
M  V30 7554 C 719.581 3.58925 0.264732 0
M  V30 7555 C 719.189 4.35855 -1.03606 0
M  V30 7556 C 720.933 4.17208 0.783455 0
M  V30 7557 C 718.84 5.85162 -0.856731 0
M  V30 7558 H 717.77 0.752426 0.0486922 0
M  V30 7559 H 720.421 1.74221 -0.576143 0
M  V30 7560 H 718.803 3.82525 1.02425 0
M  V30 7561 H 719.977 4.23997 -1.80452 0
M  V30 7562 H 718.292 3.89062 -1.48391 0
M  V30 7563 H 720.889 5.26475 0.934239 0
M  V30 7564 H 721.232 3.76892 1.768 0
M  V30 7565 H 721.765 3.97715 0.0820346 0
M  V30 7566 H 718.504 6.29904 -1.81388 0
M  V30 7567 H 718.024 5.99663 -0.128206 0
M  V30 7568 H 719.703 6.44963 -0.513027 0
M  V30 7569 N 719.835 0.176821 1.56605 0
M  V30 7570 C 720.785 -0.763718 2.14829 0
M  V30 7571 C 721.769 -1.18903 1.08401 0
M  V30 7572 O 722.961 -1.15048 1.3451 0
M  V30 7573 C 720.09 -1.99069 2.7969 0
M  V30 7574 C 719.176 -1.58711 3.93283 0
M  V30 7575 N 719.567 -0.893423 4.97847 0
M  V30 7576 C 717.865 -1.87774 4.04545 0
M  V30 7577 C 718.566 -0.693866 5.77547 0
M  V30 7578 N 717.542 -1.23699 5.29339 0
M  V30 7579 H 721.344 -0.224811 2.93039 0
M  V30 7580 H 718.858 -0.0236563 1.62383 0
M  V30 7581 H 720.855 -2.67478 3.19783 0
M  V30 7582 H 719.515 -2.53449 2.02962 0
M  V30 7583 H 720.526 -0.550868 5.14962 0
M  V30 7584 H 717.203 -2.43793 3.38927 0
M  V30 7585 H 718.593 -0.144899 6.71744 0
M  V30 7586 N 721.313 -1.57302 -0.09688 0
M  V30 7587 C 722.243 -2.0497 -1.11846 0
M  V30 7588 C 723.224 -0.938278 -1.41882 0
M  V30 7589 O 724.409 -1.20943 -1.51942 0
M  V30 7590 C 721.539 -2.47264 -2.43881 0
M  V30 7591 C 720.493 -3.62053 -2.28257 0
M  V30 7592 C 719.819 -3.90318 -3.65453 0
M  V30 7593 C 721.119 -4.93005 -1.72461 0
M  V30 7594 H 722.813 -2.90567 -0.721888 0
M  V30 7595 H 720.359 -1.39786 -0.345803 0
M  V30 7596 H 722.312 -2.7922 -3.15617 0
M  V30 7597 H 721.036 -1.58664 -2.8547 0
M  V30 7598 H 719.695 -3.30341 -1.58967 0
M  V30 7599 H 719.343 -2.98889 -4.04567 0
M  V30 7600 H 719.043 -4.67597 -3.55846 0
M  V30 7601 H 720.567 -4.24747 -4.3866 0
M  V30 7602 H 721.981 -5.23354 -2.34036 0
M  V30 7603 H 720.378 -5.74436 -1.73618 0
M  V30 7604 H 721.448 -4.80053 -0.683898 0
M  V30 7605 N 722.791 0.367657 -1.53252 0
M  V30 7606 C 723.724 1.47264 -1.74323 0
M  V30 7607 C 724.702 1.51458 -0.591535 0
M  V30 7608 O 725.886 1.69542 -0.823883 0
M  V30 7609 C 723.013 2.85637 -1.82015 0
M  V30 7610 C 722.059 2.99176 -3.03967 0
M  V30 7611 S 722.892 2.68147 -4.63527 0
M  V30 7612 C 724.048 4.08673 -4.74065 0
M  V30 7613 H 724.281 1.29169 -2.67773 0
M  V30 7614 H 721.814 0.561866 -1.43814 0
M  V30 7615 H 723.772 3.65365 -1.87132 0
M  V30 7616 H 722.433 3.01043 -0.896195 0
M  V30 7617 H 721.626 4.00511 -3.05953 0
M  V30 7618 H 721.228 2.27367 -2.96952 0
M  V30 7619 H 723.52 5.02889 -4.53992 0
M  V30 7620 H 724.463 4.11693 -5.7612 0
M  V30 7621 H 724.871 3.95576 -4.02716 0
M  V30 7622 N 724.269 1.44576 0.627338 0
M  V30 7623 C 725.232 1.51372 1.72102 0
M  V30 7624 C 726.232 0.395329 1.55865 0
M  V30 7625 O 727.422 0.658094 1.61291 0
M  V30 7626 C 724.554 1.39129 3.11217 0
M  V30 7627 H 725.747 2.48798 1.6745 0
M  V30 7628 H 723.3 1.31724 0.841336 0
M  V30 7629 H 724.035 0.428114 3.21462 0
M  V30 7630 H 723.82 2.20229 3.24409 0
M  V30 7631 H 725.31 1.46874 3.90919 0
M  V30 7632 N 725.747 -0.868086 1.31537 0
M  V30 7633 C 726.694 -1.97548 1.19346 0
M  V30 7634 C 727.664 -1.65913 0.0787922 0
M  V30 7635 O 728.849 -1.89129 0.251985 0
M  V30 7636 C 725.989 -3.32922 0.908692 0
M  V30 7637 C 725.102 -3.77141 2.10687 0
M  V30 7638 C 724.237 -5.01241 1.75873 0
M  V30 7639 C 723.276 -5.37914 2.92088 0
M  V30 7640 N 722.413 -6.53192 2.57457 0
M  V30 7641 H 727.253 -2.07307 2.14074 0
M  V30 7642 H 724.79 -1.01483 1.06487 0
M  V30 7643 H 726.748 -4.10867 0.724138 0
M  V30 7644 H 725.378 -3.228 -0.0017611 0
M  V30 7645 H 724.43 -2.94961 2.40213 0
M  V30 7646 H 725.742 -4.00248 2.97663 0
M  V30 7647 H 724.896 -5.86858 1.53891 0
M  V30 7648 H 723.635 -4.80041 0.86091 0
M  V30 7649 H 722.64 -4.50814 3.14717 0
M  V30 7650 H 723.865 -5.61077 3.82582 0
M  V30 7651 H 721.811 -6.33536 1.702 0
M  V30 7652 H 721.728 -6.76252 3.37963 0
M  V30 7653 H 722.996 -7.41997 2.38873 0
M  V30 7654 N 727.225 -1.14528 -1.08264 0
M  V30 7655 C 728.188 -0.83632 -2.13397 0
M  V30 7656 C 729.188 0.159715 -1.60005 0
M  V30 7657 O 730.378 -0.0688098 -1.74064 0
M  V30 7658 C 727.51 -0.246973 -3.40004 0
M  V30 7659 H 728.703 -1.76808 -2.42237 0
M  V30 7660 H 726.256 -0.951509 -1.24 0
M  V30 7661 H 726.991 0.693436 -3.168 0
M  V30 7662 H 726.776 -0.964412 -3.80055 0
M  V30 7663 H 728.266 -0.0480679 -4.17572 0
M  V30 7664 N 728.703 1.26451 -0.940633 0
M  V30 7665 C 729.951 1.93395 -0.586748 0
M  V30 7666 C 730.272 1.7417 0.876921 0
M  V30 7667 O 729.542 1.097 1.62304 0
M  V30 7668 H 728.122 0.715687 -0.214012 0
M  V30 7669 H 730.784 1.53902 -1.19584 0
M  V30 7670 H 729.88 3.01565 -0.804059 0
M  V30 7671 N 730.181 0.707592 1.40822 0
M  V30 7672 C 731.111 0.0644925 2.33411 0
M  V30 7673 C 732.092 -0.754205 1.52466 0
M  V30 7674 O 733.277 -0.704749 1.80961 0
M  V30 7675 C 730.407 -0.863865 3.36385 0
M  V30 7676 C 729.361 -0.15138 4.27732 0
M  V30 7677 C 728.687 -1.19491 5.21177 0
M  V30 7678 C 729.987 0.989607 5.12839 0
M  V30 7679 H 731.681 0.837829 2.87438 0
M  V30 7680 H 729.227 0.404346 1.38207 0
M  V30 7681 H 731.18 -1.32309 4.0009 0
M  V30 7682 H 729.904 -1.66901 2.80734 0
M  V30 7683 H 728.563 0.287937 3.65467 0
M  V30 7684 H 728.211 -1.9929 4.61836 0
M  V30 7685 H 727.911 -0.723123 5.83134 0
M  V30 7686 H 729.435 -1.6544 5.8776 0
M  V30 7687 H 730.849 0.610114 5.70044 0
M  V30 7688 H 729.246 1.38926 5.83798 0
M  V30 7689 H 730.316 1.82389 4.49291 0
M  V30 7690 N 731.66 -1.50943 0.453197 0
M  V30 7691 C 732.888 -2.06628 -0.106135 0
M  V30 7692 C 733.303 -1.31901 -1.35084 0
M  V30 7693 O 732.66 -0.383074 -1.78434 0
M  V30 7694 C 732.711 -3.5914 -0.412368 0
M  V30 7695 O 732.432 -4.31047 0.782948 0
M  V30 7696 C 733.933 -4.31391 -1.02064 0
M  V30 7697 H 731.153 -0.670999 -0.000885896 0
M  V30 7698 H 733.697 -1.94331 0.63684 0
M  V30 7699 H 731.852 -3.71299 -1.10526 0
M  V30 7700 H 732.266 -5.21948 0.516736 0
M  V30 7701 H 733.74 -5.39135 -1.1848 0
M  V30 7702 H 734.217 -3.90714 -2.00598 0
M  V30 7703 H 734.823 -4.23716 -0.366664 0
M  V30 7704 N 733.138 -0.185124 -1.56509 0
M  V30 7705 C 734.068 0.735098 -2.21627 0
M  V30 7706 C 735.049 1.2288 -1.1762 0
M  V30 7707 O 736.234 1.27945 -1.46095 0
M  V30 7708 C 733.364 1.95889 -2.86783 0
M  V30 7709 C 732.318 1.6005 -3.96948 0
M  V30 7710 C 731.644 2.90009 -4.4922 0
M  V30 7711 C 732.944 0.818008 -5.15855 0
M  V30 7712 H 734.638 0.192274 -2.98782 0
M  V30 7713 H 732.184 0.0910393 -1.43712 0
M  V30 7714 H 734.137 2.60779 -3.31017 0
M  V30 7715 H 732.861 2.52608 -2.07018 0
M  V30 7716 H 731.52 0.975237 -3.5339 0
M  V30 7717 H 731.168 3.44797 -3.6623 0
M  V30 7718 H 730.868 2.66778 -5.23549 0
M  V30 7719 H 732.392 3.55904 -4.9615 0
M  V30 7720 H 733.806 1.36979 -5.56695 0
M  V30 7721 H 732.203 0.684207 -5.96187 0
M  V30 7722 H 733.273 -0.182939 -4.84555 0
M  V30 7723 N 734.616 1.57351 0.0885366 0
M  V30 7724 C 735.548 1.99221 1.13329 0
M  V30 7725 C 736.561 0.895705 1.35945 0
M  V30 7726 O 737.75 1.17376 1.34481 0
M  V30 7727 C 734.85 2.3016 2.48756 0
M  V30 7728 C 734.023 3.61444 2.46327 0
M  V30 7729 C 733.082 3.80244 3.63732 0
M  V30 7730 O 732.108 4.52024 3.45924 0
M  V30 7731 N 733.31 3.2132 4.8346 0
M  V30 7732 H 736.075 2.89456 0.776862 0
M  V30 7733 H 733.636 1.59505 0.277428 0
M  V30 7734 H 735.628 2.39925 3.25911 0
M  V30 7735 H 734.198 1.459 2.76464 0
M  V30 7736 H 733.418 3.62588 1.54673 0
M  V30 7737 H 734.706 4.47678 2.41789 0
M  V30 7738 H 734.104 2.63028 5.00832 0
M  V30 7739 H 732.661 3.3656 5.58185 0
M  V30 7740 N 736.094 -0.359525 1.53444 0
M  V30 7741 C 737.026 -1.46098 1.76602 0
M  V30 7742 C 738.039 -1.49395 0.646912 0
M  V30 7743 O 739.228 -1.52765 0.923307 0
M  V30 7744 C 736.328 -2.84836 1.83635 0
M  V30 7745 C 735.501 -3.05164 3.13358 0
M  V30 7746 C 734.56 -4.24051 3.11556 0
M  V30 7747 O 733.586 -4.18935 3.85334 0
M  V30 7748 N 734.788 -5.31775 2.328 0
M  V30 7749 H 737.553 -1.2661 2.71643 0
M  V30 7750 H 735.114 -0.549294 1.52297 0
M  V30 7751 H 737.106 -3.62516 1.799 0
M  V30 7752 H 735.676 -2.97542 0.958509 0
M  V30 7753 H 734.896 -2.15091 3.30348 0
M  V30 7754 H 736.184 -3.15619 3.99076 0
M  V30 7755 H 735.582 -5.38796 1.7238 0
M  V30 7756 H 734.139 -6.0801 2.34877 0
M  V30 7757 N 737.572 -1.44907 -0.619662 0
M  V30 7758 C 738.504 -1.48652 -1.74457 0
M  V30 7759 C 739.517 -0.378596 -1.58337 0
M  V30 7760 O 740.706 -0.644987 -1.6644 0
M  V30 7761 C 737.806 -1.31568 -3.12319 0
M  V30 7762 C 736.979 -2.55816 -3.54792 0
M  V30 7763 C 736.038 -2.33465 -4.71573 0
M  V30 7764 O 735.064 -3.07015 -4.79302 0
M  V30 7765 N 736.266 -1.37254 -5.6404 0
M  V30 7766 H 739.031 -2.45632 -1.71712 0
M  V30 7767 H 736.592 -1.40492 -0.804582 0
M  V30 7768 H 738.584 -1.14445 -3.88181 0
M  V30 7769 H 737.154 -0.429095 -3.09641 0
M  V30 7770 H 736.374 -2.88137 -2.69018 0
M  V30 7771 H 737.662 -3.38431 -3.79924 0
M  V30 7772 H 737.06 -0.765309 -5.60499 0
M  V30 7773 H 735.617 -1.26106 -6.39485 0
M  V30 7774 N 739.05 0.861098 -1.31996 0
M  V30 7775 C 740 1.95703 -1.1698 0
M  V30 7776 C 740.984 1.60709 -0.0784201 0
M  V30 7777 O 742.176 1.74365 -0.304262 0
M  V30 7778 C 739.305 3.31606 -0.888388 0
M  V30 7779 C 738.391 3.7284 -2.02117 0
M  V30 7780 N 738.782 3.85957 -3.26911 0
M  V30 7781 C 737.08 4.02419 -1.92289 0
M  V30 7782 C 737.781 4.21333 -4.01065 0
M  V30 7783 N 736.757 4.32502 -3.29307 0
M  V30 7784 H 740.559 2.03968 -2.11599 0
M  V30 7785 H 738.073 1.05245 -1.23682 0
M  V30 7786 H 740.07 4.09881 -0.761782 0
M  V30 7787 H 738.73 3.24662 0.0494898 0
M  V30 7788 H 739.741 3.70449 -3.61923 0
M  V30 7789 H 736.418 4.03814 -1.06022 0
M  V30 7790 H 737.808 4.39005 -5.08649 0
M  V30 7791 N 740.528 1.15101 1.07655 0
M  V30 7792 C 741.46 0.802722 2.14684 0
M  V30 7793 C 742.473 -0.183874 1.61758 0
M  V30 7794 O 743.662 0.0389349 1.78458 0
M  V30 7795 C 740.762 0.172135 3.38463 0
M  V30 7796 C 739.935 1.19538 4.20749 0
M  V30 7797 C 738.994 0.58714 5.22914 0
M  V30 7798 O 738.02 1.25224 5.55255 0
M  V30 7799 N 739.222 -0.632566 5.77043 0
M  V30 7800 H 741.987 1.72379 2.45164 0
M  V30 7801 H 739.548 1.04647 1.23534 0
M  V30 7802 H 741.54 -0.247465 4.03943 0
M  V30 7803 H 740.11 -0.652214 3.0572 0
M  V30 7804 H 739.33 1.79165 3.51132 0
M  V30 7805 H 740.618 1.88636 4.7254 0
M  V30 7806 H 740.016 -1.19135 5.53013 0
M  V30 7807 H 738.573 -0.994566 6.44167 0
M  V30 7808 N 742.006 -1.2595 0.947325 0
M  V30 7809 C 743.422 -1.45737 0.650597 0
M  V30 7810 C 743.622 -1.85189 -0.794188 0
M  V30 7811 O 742.678 -1.97738 -1.57022 0
M  V30 7812 C 743.991 -2.53505 1.61728 0
M  V30 7813 C 745.539 -2.67351 1.62765 0
M  V30 7814 C 746.014 -3.78296 2.58179 0
M  V30 7815 N 747.505 -3.85696 2.56501 0
M  V30 7816 C 748.24 -4.71012 3.2701 0
M  V30 7817 N 747.736 -5.60669 4.06966 0
M  V30 7818 N 749.529 -4.64912 3.15932 0
M  V30 7819 H 741.68 -0.986327 1.8811 0
M  V30 7820 H 743.943 -0.494639 0.808725 0
M  V30 7821 H 743.649 -2.31357 2.6489 0
M  V30 7822 H 743.523 -3.51281 1.3741 0
M  V30 7823 H 745.91 -2.88869 0.603241 0
M  V30 7824 H 745.991 -1.69998 1.91139 0
M  V30 7825 H 745.635 -3.5753 3.60742 0
M  V30 7826 H 745.565 -4.75117 2.27093 0
M  V30 7827 H 748.056 -3.21601 1.98447 0
M  V30 7828 H 748.369 -6.22677 4.57704 0
M  V30 7829 H 746.714 -5.60402 4.11066 0
M  V30 7830 H 749.905 -3.93874 2.52945 0
M  V30 7831 H 750.078 -5.3118 3.71149 0
M  V30 7832 N 743.484 -0.715051 -1.40445 0
M  V30 7833 C 744.414 -0.0768699 -2.33373 0
M  V30 7834 C 745.395 0.746109 -1.52863 0
M  V30 7835 O 746.58 0.695142 -1.81332 0
M  V30 7836 C 743.71 0.846014 -3.36838 0
M  V30 7837 C 742.664 0.128694 -4.27806 0
M  V30 7838 C 741.99 1.16726 -5.21804 0
M  V30 7839 C 743.29 -1.01679 -5.12307 0
M  V30 7840 H 744.984 -0.853061 -2.8699 0
M  V30 7841 H 742.53 -0.41167 -1.3799 0
M  V30 7842 H 744.483 1.30185 -4.00786 0
M  V30 7843 H 743.207 1.6541 -2.81615 0
M  V30 7844 H 741.866 -0.307314 -3.6531 0
M  V30 7845 H 741.514 1.96838 -4.62887 0
M  V30 7846 H 741.214 0.692188 -5.83509 0
M  V30 7847 H 742.738 1.62321 -5.88629 0
M  V30 7848 H 744.152 -0.640337 -5.69713 0
M  V30 7849 H 742.549 -1.4202 -5.83053 0
M  V30 7850 H 743.619 -1.84769 -4.48317 0
M  V30 7851 N 744.962 1.50701 -0.461195 0
M  V30 7852 C 745.925 2.2686 0.326679 0
M  V30 7853 C 746.925 1.31243 0.929085 0
M  V30 7854 O 748.115 1.54754 0.799807 0
M  V30 7855 C 745.247 3.07844 1.46441 0
M  V30 7856 H 746.44 2.97954 -0.341095 0
M  V30 7857 H 743.993 1.54814 -0.214984 0
M  V30 7858 H 744.728 2.41223 2.16753 0
M  V30 7859 H 744.513 3.78101 1.03836 0
M  V30 7860 H 746.003 3.65469 2.02044 0
M  V30 7861 N 746.441 0.193421 1.56409 0
M  V30 7862 C 747.373 -0.759944 2.16235 0
M  V30 7863 C 748.386 -1.17797 1.12373 0
M  V30 7864 O 749.575 -1.11399 1.39472 0
M  V30 7865 C 746.675 -2.03735 2.70823 0
M  V30 7866 C 745.848 -1.77939 3.9957 0
M  V30 7867 C 744.907 -2.90111 4.39001 0
M  V30 7868 O 743.933 -2.59791 5.06456 0
M  V30 7869 N 745.135 -4.18426 4.02368 0
M  V30 7870 H 747.9 -0.248348 2.98669 0
M  V30 7871 H 745.461 0.0113966 1.61896 0
M  V30 7872 H 747.453 -2.77914 2.94187 0
M  V30 7873 H 746.023 -2.46022 1.92852 0
M  V30 7874 H 745.243 -0.875491 3.84355 0
M  V30 7875 H 746.531 -1.58099 4.83614 0
M  V30 7876 H 745.929 -4.45913 3.48106 0
M  V30 7877 H 744.486 -4.89237 4.30686 0
M  V30 7878 N 747.919 -1.57396 -0.0801906 0
M  V30 7879 C 748.849 -2.06145 -1.09665 0
M  V30 7880 C 749.83 -0.953273 -1.40878 0
M  V30 7881 O 751.015 -1.22548 -1.50651 0
M  V30 7882 C 748.145 -2.49836 -2.41245 0
M  V30 7883 C 747.099 -3.64454 -2.24405 0
M  V30 7884 C 746.425 -3.94172 -3.61293 0
M  V30 7885 C 747.725 -4.94807 -1.67223 0
M  V30 7886 H 749.419 -2.91316 -0.691028 0
M  V30 7887 H 746.965 -1.40145 -0.330957 0
M  V30 7888 H 748.918 -2.82552 -3.12638 0
M  V30 7889 H 747.642 -1.61683 -2.83771 0
M  V30 7890 H 746.301 -3.32008 -1.55454 0
M  V30 7891 H 745.949 -3.03163 -4.01374 0
M  V30 7892 H 745.649 -4.71345 -3.50867 0
M  V30 7893 H 747.173 -4.29376 -4.3413 0
M  V30 7894 H 748.587 -5.25807 -2.28472 0
M  V30 7895 H 746.984 -5.76245 -1.67515 0
M  V30 7896 H 748.054 -4.80751 -0.632944 0
M  V30 7897 N 749.397 0.351382 -1.53633 0
M  V30 7898 C 750.327 1.43688 -1.84055 0
M  V30 7899 C 751.308 1.55251 -0.695073 0
M  V30 7900 O 752.493 1.69587 -0.946257 0
M  V30 7901 C 749.623 2.80843 -2.04315 0
M  V30 7902 C 748.577 2.84094 -3.20117 0
M  V30 7903 C 747.903 4.2406 -3.25696 0
M  V30 7904 C 749.203 2.50334 -4.58399 0
M  V30 7905 H 750.897 1.18478 -2.74961 0
M  V30 7906 H 748.443 0.568509 -1.32303 0
M  V30 7907 H 750.396 3.56821 -2.2418 0
M  V30 7908 H 749.12 3.07471 -1.10132 0
M  V30 7909 H 747.779 2.10568 -3.00094 0
M  V30 7910 H 747.427 4.47785 -2.29123 0
M  V30 7911 H 747.127 4.27147 -4.03509 0
M  V30 7912 H 748.651 5.0189 -3.47762 0
M  V30 7913 H 750.065 3.16025 -4.78332 0
M  V30 7914 H 748.462 2.64717 -5.38558 0
M  V30 7915 H 749.532 1.45542 -4.62543 0
M  V30 7916 N 750.875 1.45233 0.611969 0
M  V30 7917 C 751.805 1.5641 1.73373 0
M  V30 7918 C 752.786 0.415896 1.64937 0
M  V30 7919 O 753.971 0.638478 1.83404 0
M  V30 7920 C 751.101 1.52627 3.11965 0
M  V30 7921 C 750.055 2.66119 3.35208 0
M  V30 7922 C 749.381 2.4739 4.74028 0
M  V30 7923 C 750.681 4.08157 3.25891 0
M  V30 7924 H 752.375 2.50307 1.64277 0
M  V30 7925 H 749.921 1.20467 0.788904 0
M  V30 7926 H 751.874 1.59043 3.90235 0
M  V30 7927 H 750.598 0.552564 3.21892 0
M  V30 7928 H 749.257 2.59123 2.59327 0
M  V30 7929 H 748.905 1.48168 4.80682 0
M  V30 7930 H 748.605 3.23494 4.90536 0
M  V30 7931 H 750.129 2.55653 5.54503 0
M  V30 7932 H 751.543 4.1642 3.9404 0
M  V30 7933 H 749.94 4.84617 3.5393 0
M  V30 7934 H 751.01 4.30374 2.23397 0
M  V30 7935 N 752.353 -0.854086 1.3245 0
M  V30 7936 C 753.602 -1.60318 1.22397 0
M  V30 7937 C 753.915 -1.9444 -0.212664 0
M  V30 7938 O 755.121 -2.67991 -0.435066 0
M  V30 7939 C 753.577 -2.8909 2.1437 0
M  V30 7940 C 753.185 -2.62391 3.63119 0
M  V30 7941 C 754.929 -3.67104 2.13155 0
M  V30 7942 C 752.836 -3.87167 4.47052 0
M  V30 7943 H 751.766 -0.601586 0.454544 0
M  V30 7944 H 754.417 -0.943023 1.57415 0
M  V30 7945 H 752.799 -3.56567 1.72268 0
M  V30 7946 H 753.973 -2.03222 4.13567 0
M  V30 7947 H 752.288 -1.97706 3.66471 0
M  V30 7948 H 754.885 -4.59696 2.731 0
M  V30 7949 H 755.228 -4.00876 1.12268 0
M  V30 7950 H 755.761 -3.06533 2.5354 0
M  V30 7951 H 752.5 -3.58536 5.48755 0
M  V30 7952 H 752.02 -4.45729 4.01355 0
M  V30 7953 H 753.699 -4.549 4.60081 0
M  V30 7954 N 753.831 -1.1567 -1.07043 0
M  V30 7955 C 754.761 -0.879348 -2.16309 0
M  V30 7956 C 755.742 0.171311 -1.69235 0
M  V30 7957 O 756.927 0.0250175 -1.94184 0
M  V30 7958 C 754.057 -0.371307 -3.45309 0
M  V30 7959 C 753.011 -1.359 -4.05851 0
M  V30 7960 C 752.337 -0.709678 -5.29969 0
M  V30 7961 C 753.637 -2.72606 -4.45514 0
M  V30 7962 H 755.331 -1.79308 -2.39768 0
M  V30 7963 H 752.877 -0.863558 -1.15233 0
M  V30 7964 H 754.83 -0.164798 -4.21078 0
M  V30 7965 H 753.554 0.577906 -3.21446 0
M  V30 7966 H 752.213 -1.55193 -3.32131 0
M  V30 7967 H 751.861 0.245782 -5.02399 0
M  V30 7968 H 751.561 -1.36886 -5.71433 0
M  V30 7969 H 753.085 -0.513015 -6.08441 0
M  V30 7970 H 754.499 -2.57141 -5.12398 0
M  V30 7971 H 752.896 -3.34927 -4.97939 0
M  V30 7972 H 753.966 -3.28434 -3.56734 0
M  V30 7973 N 755.309 1.25446 -0.953992 0
M  V30 7974 C 756.534 1.97755 -0.625129 0
M  V30 7975 C 756.959 1.70437 0.795787 0
M  V30 7976 O 756.317 0.95992 1.53803 0
M  V30 7977 C 756.365 3.49463 -0.889251 0
M  V30 7978 O 755.469 4.12387 0.0322757 0
M  V30 7979 H 754.81 0.61998 -0.237742 0
M  V30 7980 H 757.34 1.59582 -1.28041 0
M  V30 7981 H 757.35 3.99772 -0.815263 0
M  V30 7982 H 756.025 3.68676 -1.92487 0
M  V30 7983 H 754.602 3.72782 -0.0938625 0
M  V30 7984 N 756.787 0.722489 1.40064 0
M  V30 7985 C 757.737 0.0506801 2.27944 0
M  V30 7986 C 758.721 -0.725493 1.43615 0
M  V30 7987 O 759.913 -0.596559 1.66644 0
M  V30 7988 C 757.042 -0.865195 3.32219 0
M  V30 7989 C 756.128 -0.0838393 4.24017 0
M  V30 7990 N 756.519 0.936516 4.97054 0
M  V30 7991 C 754.817 -0.315371 4.44884 0
M  V30 7992 C 755.518 1.4066 5.64437 0
M  V30 7993 N 754.494 0.727485 5.3871 0
M  V30 7994 H 758.296 0.832609 2.8186 0
M  V30 7995 H 755.81 0.555691 1.52597 0
M  V30 7996 H 757.807 -1.36186 3.94029 0
M  V30 7997 H 756.467 -1.64642 2.79862 0
M  V30 7998 H 757.478 1.31755 5.0086 0
M  V30 7999 H 754.155 -1.07238 4.03492 0
M  V30 8000 H 755.545 2.25482 6.32936 0
M  V30 8001 N 758.265 -1.50454 0.469181 0
M  V30 8002 C 759.514 -2.01507 -0.0881425 0
M  V30 8003 C 759.827 -1.35613 -1.40956 0
M  V30 8004 O 761.033 -1.77812 -2.05171 0
M  V30 8005 C 759.489 -3.59301 -0.207596 0
M  V30 8006 C 759.097 -4.34152 1.10527 0
M  V30 8007 C 760.841 -4.18401 -0.716981 0
M  V30 8008 C 758.748 -5.83725 0.949717 0
M  V30 8009 H 757.678 -0.753106 -0.0367156 0
M  V30 8010 H 760.329 -1.73282 0.603788 0
M  V30 8011 H 758.711 -3.84106 -0.963265 0
M  V30 8012 H 759.885 -4.21073 1.87175 0
M  V30 8013 H 758.2 -3.86652 1.54562 0
M  V30 8014 H 760.797 -5.27895 -0.850363 0
M  V30 8015 H 761.14 -3.79657 -1.70782 0
M  V30 8016 H 761.673 -3.97796 -0.0187511 0
M  V30 8017 H 758.412 -6.26938 1.91387 0
M  V30 8018 H 757.932 -5.99383 0.223591 0
M  V30 8019 H 759.611 -6.44065 0.61557 0
M  V30 8020 N 759.743 -0.201713 -1.56304 0
M  V30 8021 C 761.159 0.154025 -1.58855 0
M  V30 8022 C 761.359 1.60516 -1.21807 0
M  V30 8023 O 760.415 2.34193 -0.94393 0
M  V30 8024 C 761.728 -0.154319 -3.00304 0
M  V30 8025 C 763.276 -0.0949578 -3.12856 0
M  V30 8026 C 763.751 -0.376703 -4.56448 0
M  V30 8027 N 765.242 -0.325558 -4.62054 0
M  V30 8028 C 765.977 -0.51732 -5.71062 0
M  V30 8029 N 765.473 -0.769789 -6.8851 0
M  V30 8030 N 767.266 -0.45112 -5.60287 0
M  V30 8031 H 759.417 -1.14858 -1.78666 0
M  V30 8032 H 761.68 -0.458934 -0.829508 0
M  V30 8033 H 761.386 -1.16074 -3.31994 0
M  V30 8034 H 761.26 0.540014 -3.73314 0
M  V30 8035 H 763.647 0.902075 -2.80974 0
M  V30 8036 H 763.728 -0.822468 -2.42217 0
M  V30 8037 H 763.372 -1.37108 -4.89044 0
M  V30 8038 H 763.302 0.371772 -5.25286 0
M  V30 8039 H 765.793 -0.137308 -3.7765 0
M  V30 8040 H 766.106 -0.904744 -7.67486 0
M  V30 8041 H 764.451 -0.806758 -6.90302 0
M  V30 8042 H 767.642 -0.254253 -4.67409 0
M  V30 8043 H 767.815 -0.603982 -6.45179 0
M  V30 8044 N 761.222 1.57436 0.0718424 0
M  V30 8045 C 762.172 2.00132 1.09229 0
M  V30 8046 C 763.156 0.883379 1.34481 0
M  V30 8047 O 764.348 1.14728 1.34783 0
M  V30 8048 C 761.477 2.44876 2.40605 0
M  V30 8049 C 760.563 3.63405 2.18627 0
M  V30 8050 N 760.954 4.77583 1.66579 0
M  V30 8051 C 759.252 3.69953 2.491 0
M  V30 8052 C 759.953 5.5943 1.59415 0
M  V30 8053 N 758.929 5.03275 2.05464 0
M  V30 8054 H 762.731 2.85849 0.683185 0
M  V30 8055 H 760.245 1.59987 0.278914 0
M  V30 8056 H 762.242 2.73703 3.14471 0
M  V30 8057 H 760.902 1.60546 2.82232 0
M  V30 8058 H 761.913 4.99875 1.35443 0
M  V30 8059 H 758.59 2.96336 2.94094 0
M  V30 8060 H 759.98 6.61093 1.20026 0
M  V30 8061 N 762.7 -0.34323 1.53817 0
M  V30 8062 C 763.633 -1.44472 1.76644 0
M  V30 8063 C 764.611 -1.50498 0.615556 0
M  V30 8064 O 765.795 -1.6821 0.850751 0
M  V30 8065 C 762.922 -2.82705 1.86536 0
M  V30 8066 C 761.968 -2.94302 3.08688 0
M  V30 8067 S 762.801 -2.60739 4.67735 0
M  V30 8068 C 763.957 -4.01079 4.80506 0
M  V30 8069 H 764.19 -1.24893 2.69794 0
M  V30 8070 H 761.723 -0.538915 1.4469 0
M  V30 8071 H 763.681 -3.62342 1.92921 0
M  V30 8072 H 762.342 -2.9958 0.943975 0
M  V30 8073 H 761.535 -3.95593 3.12286 0
M  V30 8074 H 761.137 -2.22614 3.00531 0
M  V30 8075 H 763.429 -4.95603 4.61935 0
M  V30 8076 H 764.372 -4.02475 5.82597 0
M  V30 8077 H 764.78 -3.89119 4.08958 0
M  V30 8078 N 764.178 -1.45556 -0.604258 0
M  V30 8079 C 765.403 -1.53509 -1.39462 0
M  V30 8080 C 765.828 -0.169638 -1.87333 0
M  V30 8081 O 765.186 0.846346 -1.60333 0
M  V30 8082 C 765.234 -2.52654 -2.5729 0
M  V30 8083 O 764.338 -2.04666 -3.5803 0
M  V30 8084 H 763.679 -0.517355 -0.416221 0
M  V30 8085 H 766.209 -1.90939 -0.735072 0
M  V30 8086 H 766.219 -2.71568 -3.04491 0
M  V30 8087 H 764.894 -3.51823 -2.21797 0
M  V30 8088 H 763.471 -1.95643 -3.17456 0
M  V30 8089 N 765.656 0.84705 -1.32902 0
M  V30 8090 C 766.604 1.97765 -1.22441 0
M  V30 8091 C 767.598 1.68919 -0.127546 0
M  V30 8092 O 768.804 1.77633 -0.290973 0
M  V30 8093 H 765.179 0.649072 -0.379748 0
M  V30 8094 H 767.15 2.03713 -2.18044 0
M  V30 8095 C 765.899 3.33834 -0.972125 0
M  V30 8096 H 765.222 3.56564 -1.80837 0
M  V30 8097 H 766.662 4.13467 -0.939209 0
M  V30 8098 C 765.121 3.35328 0.325059 0
M  V30 8099 O 765.651 3.78887 1.33445 0
M  V30 8100 N 763.857 2.88488 0.349718 0
M  V30 8101 H 763.404 2.53234 -0.472236 0
M  V30 8102 H 763.362 2.8987 1.21748 0
M  V30 8103 N 767.134 1.16236 1.06428 0
M  V30 8104 C 768.081 0.86769 2.13869 0
M  V30 8105 C 769.051 -0.183298 1.65086 0
M  V30 8106 O 770.236 -0.0488002 1.90738 0
M  V30 8107 C 767.376 0.373427 3.43074 0
M  V30 8108 C 766.489 1.48708 4.05598 0
M  V30 8109 C 765.624 0.947977 5.22673 0
M  V30 8110 C 764.663 2.03793 5.77178 0
M  V30 8111 N 763.8 1.51451 6.85571 0
M  V30 8112 H 768.64 1.78781 2.38414 0
M  V30 8113 H 766.177 0.891892 1.16977 0
M  V30 8114 H 768.135 0.0685035 4.17144 0
M  V30 8115 H 766.765 -0.509752 3.1875 0
M  V30 8116 H 765.817 1.908 3.29089 0
M  V30 8117 H 767.129 2.30964 4.42105 0
M  V30 8118 H 766.283 0.596154 6.03764 0
M  V30 8119 H 765.022 0.0947081 4.87608 0
M  V30 8120 H 764.027 2.39847 4.94726 0
M  V30 8121 H 765.252 2.89514 6.14295 0
M  V30 8122 H 763.198 0.683755 6.52427 0
M  V30 8123 H 763.115 2.27325 7.21013 0
M  V30 8124 H 764.383 1.19123 7.70344 0
M  V30 8125 N 768.612 -1.24939 0.960631 0
M  V30 8126 C 769.86 -1.92437 0.617441 0
M  V30 8127 C 770.181 -1.75543 -0.849101 0
M  V30 8128 O 769.451 -1.12269 -1.60538 0
M  V30 8129 H 768.031 -0.712192 0.225371 0
M  V30 8130 H 770.693 -1.5198 1.22017 0
M  V30 8131 H 769.789 -3.00247 0.851933 0
M  V30 8132 N 770.09 -0.729906 -1.39679 0
M  V30 8133 C 771.023 -0.0354454 -2.28172 0
M  V30 8134 C 772.001 0.752968 -1.44115 0
M  V30 8135 O 773.185 0.736599 -1.73512 0
M  V30 8136 C 770.312 0.957047 -3.24897 0
M  V30 8137 C 769.358 0.257734 -4.25721 0
M  V30 8138 S 770.191 -1.02466 -5.25605 0
M  V30 8139 C 771.347 -0.0346322 -6.2589 0
M  V30 8140 H 771.58 -0.785922 -2.86724 0
M  V30 8141 H 769.113 -0.521497 -1.45326 0
M  V30 8142 H 771.071 1.52441 -3.81146 0
M  V30 8143 H 769.732 1.68033 -2.65375 0
M  V30 8144 H 768.925 1.00854 -4.93806 0
M  V30 8145 H 768.527 -0.237454 -3.73245 0
M  V30 8146 H 770.819 0.807464 -6.72671 0
M  V30 8147 H 771.762 -0.682491 -7.04803 0
M  V30 8148 H 772.17 0.335492 -5.63502 0
M  V30 8149 N 771.568 1.50203 -0.477153 0
M  V30 8150 C 772.478 2.32421 0.319027 0
M  V30 8151 C 773.494 1.43075 0.990233 0
M  V30 8152 O 774.67 1.76123 0.976873 0
M  V30 8153 C 771.735 3.17909 1.38328 0
M  V30 8154 C 770.796 4.23082 0.728036 0
M  V30 8155 C 770.029 5.04484 1.74158 0
M  V30 8156 O 770.252 4.8705 2.96881 0
M  V30 8157 O 769.186 5.8747 1.31006 0
M  V30 8158 H 773.012 3.01638 -0.353281 0
M  V30 8159 H 770.597 1.47478 -0.238891 0
M  V30 8160 H 772.479 3.70937 1.9996 0
M  V30 8161 H 771.154 2.51413 2.03895 0
M  V30 8162 H 770.061 3.7403 0.07261 0
M  V30 8163 H 771.394 4.92065 0.115216 0
M  V30 8164 N 773.046 0.209999 1.56195 0
M  V30 8165 C 773.996 -0.717978 2.164 0
M  V30 8166 C 774.98 -1.16577 1.10899 0
M  V30 8167 O 776.172 -1.12169 1.3692 0
M  V30 8168 C 773.301 -1.93091 2.8385 0
M  V30 8169 C 772.387 -1.50333 3.96561 0
M  V30 8170 N 772.778 -0.787621 4.9963 0
M  V30 8171 C 771.076 -1.79151 4.08437 0
M  V30 8172 C 771.777 -0.571204 5.78889 0
M  V30 8173 N 770.753 -1.12444 5.31843 0
M  V30 8174 H 774.555 -0.162603 2.9345 0
M  V30 8175 H 772.069 0.0107928 1.62396 0
M  V30 8176 H 774.066 -2.60635 3.25384 0
M  V30 8177 H 772.726 -2.49087 2.08293 0
M  V30 8178 H 773.737 -0.441513 5.16015 0
M  V30 8179 H 770.414 -2.36549 3.44022 0
M  V30 8180 H 771.804 -0.00237941 6.719 0
M  V30 8181 N 774.524 -1.57472 -0.0634922 0
M  V30 8182 C 775.454 -2.07297 -1.07473 0
M  V30 8183 C 776.435 -0.968162 -1.39859 0
M  V30 8184 O 777.62 -1.24139 -1.49343 0
M  V30 8185 C 774.75 -2.52381 -2.38581 0
M  V30 8186 C 773.704 -3.66813 -2.20526 0
M  V30 8187 C 773.03 -3.97982 -3.57092 0
M  V30 8188 C 774.33 -4.96553 -1.61965 0
M  V30 8189 H 776.024 -2.92033 -0.660092 0
M  V30 8190 H 773.57 -1.40488 -0.316074 0
M  V30 8191 H 775.523 -2.85852 -3.09624 0
M  V30 8192 H 774.247 -1.64684 -2.8204 0
M  V30 8193 H 772.906 -3.33639 -1.51924 0
M  V30 8194 H 772.554 -3.07403 -3.98136 0
M  V30 8195 H 772.254 -4.7504 -3.45848 0
M  V30 8196 H 773.778 -4.33956 -4.29552 0
M  V30 8197 H 775.192 -5.28201 -2.22883 0
M  V30 8198 H 773.589 -5.7799 -1.61394 0
M  V30 8199 H 774.659 -4.81396 -0.581918 0
M  V30 8200 N 776.003 0.335068 -1.53997 0
M  V30 8201 C 777.233 1.0926 -1.75345 0
M  V30 8202 C 777.641 1.82568 -0.496545 0
M  V30 8203 O 776.984 1.75525 0.541897 0
M  V30 8204 C 777.046 2.14473 -2.88516 0
M  V30 8205 C 776.71 1.60665 -4.27827 0
M  V30 8206 C 777.707 1.05448 -5.09094 0
M  V30 8207 C 775.392 1.65255 -4.74337 0
M  V30 8208 C 777.386 0.555372 -6.34976 0
M  V30 8209 C 775.073 1.14956 -6.0019 0
M  V30 8210 C 776.071 0.601907 -6.80343 0
M  V30 8211 O 775.759 0.106445 -8.0383 0
M  V30 8212 H 775.491 0.331329 -0.589234 0
M  V30 8213 H 778.045 0.39042 -2.01655 0
M  V30 8214 H 776.275 2.88274 -2.5775 0
M  V30 8215 H 777.964 2.75857 -2.97755 0
M  V30 8216 H 778.73 1.01218 -4.74321 0
M  V30 8217 H 774.609 2.06822 -4.12002 0
M  V30 8218 H 778.153 0.127245 -6.97484 0
M  V30 8219 H 774.05 1.18891 -6.34457 0
M  V30 8220 H 774.818 0.222944 -8.18196 0
M  V30 8221 N 777.481 1.45874 0.596531 0
M  V30 8222 C 778.706 1.54247 1.38646 0
M  V30 8223 C 779.131 0.179571 1.87241 0
M  V30 8224 O 778.489 -0.837831 1.6078 0
M  V30 8225 C 778.537 2.54015 2.55946 0
M  V30 8226 O 777.641 2.06561 3.5694 0
M  V30 8227 H 776.982 0.519555 0.413471 0
M  V30 8228 H 779.512 1.91327 0.724936 0
M  V30 8229 H 779.522 2.73179 3.03047 0
M  V30 8230 H 778.197 3.52994 2.19928 0
M  V30 8231 H 776.774 1.97324 3.16414 0
M  V30 8232 N 778.959 -0.83999 1.33349 0
M  V30 8233 C 779.892 -1.95415 1.17848 0
M  V30 8234 C 780.87 -1.6243 0.0742296 0
M  V30 8235 O 782.054 -1.87014 0.23626 0
M  V30 8236 C 779.181 -3.28938 0.807295 0
M  V30 8237 C 778.227 -3.80895 1.91888 0
M  V30 8238 S 779.06 -4.02709 3.52967 0
M  V30 8239 C 780.216 -5.39185 3.17853 0
M  V30 8240 H 780.449 -2.08265 2.12162 0
M  V30 8241 H 777.982 -0.993643 1.18178 0
M  V30 8242 H 779.94 -4.06093 0.599914 0
M  V30 8243 H 778.601 -3.13881 -0.117234 0
M  V30 8244 H 777.794 -4.77508 1.6125 0
M  V30 8245 H 777.396 -3.10633 2.08286 0
M  V30 8246 H 779.688 -6.21978 2.68608 0
M  V30 8247 H 780.631 -5.74795 4.13542 0
M  V30 8248 H 781.039 -5.03885 2.5448 0
M  V30 8249 N 780.437 -1.16799 -1.0581 0
M  V30 8250 C 781.384 -0.87902 -2.13405 0
M  V30 8251 C 782.354 0.174541 -1.6518 0
M  V30 8252 O 783.539 0.0386843 -1.90761 0
M  V30 8253 C 780.679 -0.391616 -3.42871 0
M  V30 8254 C 779.792 -1.50857 -4.04804 0
M  V30 8255 C 778.927 -0.975682 -5.22163 0
M  V30 8256 C 777.966 -2.06851 -5.76089 0
M  V30 8257 N 777.103 -1.55085 -6.84758 0
M  V30 8258 H 781.943 -1.80043 -2.37463 0
M  V30 8259 H 779.48 -0.898083 -1.16503 0
M  V30 8260 H 781.438 -0.0906247 -4.17102 0
M  V30 8261 H 780.068 0.49284 -3.19016 0
M  V30 8262 H 779.12 -1.92542 -3.28073 0
M  V30 8263 H 780.432 -2.33305 -4.40874 0
M  V30 8264 H 779.586 -0.628165 -6.03439 0
M  V30 8265 H 778.325 -0.120566 -4.87551 0
M  V30 8266 H 777.33 -2.42467 -4.93447 0
M  V30 8267 H 778.555 -2.92768 -6.12751 0
M  V30 8268 H 776.501 -0.718345 -6.52055 0
M  V30 8269 H 776.418 -2.31145 -7.19797 0
M  V30 8270 H 777.686 -1.23206 -7.69702 0
M  V30 8271 N 781.915 1.24427 -0.967243 0
M  V30 8272 C 783.155 1.9423 -0.636723 0
M  V30 8273 C 783.519 1.73939 0.812971 0
M  V30 8274 O 784.72 2.37773 1.25369 0
M  V30 8275 C 782.991 3.43105 -1.00067 0
M  V30 8276 S 784.55 4.31728 -0.784633 0
M  V30 8277 H 781.368 0.671527 -0.233607 0
M  V30 8278 H 783.97 1.50806 -1.2441 0
M  V30 8279 H 782.674 3.5538 -2.05264 0
M  V30 8280 H 782.205 3.91521 -0.384054 0
M  V30 8281 H 784.22 4.95046 0.338244 0
M  V30 8282 N 783.393 0.737304 1.3929 0
M  V30 8283 C 784.34 0.0988364 2.30588 0
M  V30 8284 C 785.31 -0.727206 1.49335 0
M  V30 8285 O 786.495 -0.686694 1.78014 0
M  V30 8286 C 783.635 -0.800734 3.35682 0
M  V30 8287 C 782.748 0.0381731 4.31983 0
M  V30 8288 C 781.883 -0.862884 5.24145 0
M  V30 8289 C 780.922 -0.0193639 6.12097 0
M  V30 8290 N 780.059 -0.87648 6.96608 0
M  V30 8291 H 784.899 0.883031 2.84617 0
M  V30 8292 H 782.436 0.447111 1.4014 0
M  V30 8293 H 784.394 -1.33676 3.95205 0
M  V30 8294 H 783.024 -1.55088 2.83103 0
M  V30 8295 H 782.076 0.691641 3.74059 0
M  V30 8296 H 783.388 0.690294 4.94 0
M  V30 8297 H 782.542 -1.46667 5.88705 0
M  V30 8298 H 781.281 -1.54878 4.62454 0
M  V30 8299 H 780.286 0.597202 5.46547 0
M  V30 8300 H 781.511 0.663348 6.75852 0
M  V30 8301 H 779.457 -1.54762 6.37483 0
M  V30 8302 H 779.374 -0.280892 7.55478 0
M  V30 8303 H 780.642 -1.46575 7.65595 0
M  V30 8304 N 784.871 -1.49948 0.485112 0
M  V30 8305 C 785.819 -2.30449 -0.315609 0
M  V30 8306 C 786.813 -1.38351 -0.977516 0
M  V30 8307 O 788.019 -1.55477 -0.907019 0
M  V30 8308 H 784.394 -0.742262 -0.120629 0
M  V30 8309 H 786.365 -2.95925 0.383552 0
M  V30 8310 C 785.114 -3.19283 -1.37673 0
M  V30 8311 H 784.437 -3.90067 -0.876801 0
M  V30 8312 H 785.877 -3.78579 -1.90929 0
M  V30 8313 C 784.336 -2.37817 -2.38631 0
M  V30 8314 O 784.866 -2.0711 -3.44192 0
M  V30 8315 N 783.072 -2.00135 -2.107 0
M  V30 8316 H 782.619 -2.25307 -1.24878 0
M  V30 8317 H 782.577 -1.45933 -2.7848 0
M  V30 8318 N 786.349 -0.21828 -1.56081 0
M  V30 8319 C 787.595 0.414921 -1.9851 0
M  V30 8320 C 787.928 1.59648 -1.10573 0
M  V30 8321 O 787.203 1.93818 -0.162695 0
M  V30 8322 C 787.486 0.852647 -3.4986 0
M  V30 8323 C 787.339 -0.33232 -4.48571 0
M  V30 8324 C 788.658 1.70998 -4.05521 0
M  V30 8325 H 785.777 0.149344 -0.72171 0
M  V30 8326 H 788.419 -0.313858 -1.8739 0
M  V30 8327 H 786.569 1.47362 -3.59467 0
M  V30 8328 H 788.241 -0.970418 -4.50977 0
M  V30 8329 H 786.484 -0.980302 -4.22578 0
M  V30 8330 H 787.155 0.0168407 -5.51997 0
M  V30 8331 H 789.631 1.18606 -3.98838 0
M  V30 8332 H 788.507 1.98517 -5.11744 0
M  V30 8333 H 788.768 2.67219 -3.52202 0
M  V30 8334 N 787.827 1.57504 0.0551401 0
M  V30 8335 C 789.073 1.88334 0.752216 0
M  V30 8336 C 789.406 0.812742 1.76375 0
M  V30 8337 O 788.681 -0.175198 1.93709 0
M  V30 8338 C 788.964 3.29824 1.44528 0
M  V30 8339 C 788.817 4.47553 0.449026 0
M  V30 8340 C 790.136 3.69808 2.38601 0
M  V30 8341 H 787.255 0.684973 0.271995 0
M  V30 8342 H 789.897 1.89994 0.0151895 0
M  V30 8343 H 788.047 3.28539 2.07351 0
M  V30 8344 H 789.719 4.60967 -0.175277 0
M  V30 8345 H 787.962 4.33168 -0.234162 0
M  V30 8346 H 788.633 5.43376 0.971917 0
M  V30 8347 H 791.109 3.72293 1.85842 0
M  V30 8348 H 789.985 4.69665 2.84088 0
M  V30 8349 H 790.246 3.00641 3.24141 0
M  V30 8350 N 789.305 -0.326896 1.54172 0
M  V30 8351 C 790.716 -0.901533 1.63491 0
M  V30 8352 C 791.067 -1.88994 0.52684 0
M  V30 8353 O 790.192 -2.137 -0.340794 0
M  V30 8354 C 790.787 -1.64192 2.96355 0
M  V30 8355 C 789.346 -2.16533 3.07881 0
M  V30 8356 C 788.493 -0.98966 2.59039 0
M  V30 8357 H 791.444 -0.104568 1.58355 0
M  V30 8358 H 791.465 -2.50592 2.86328 0
M  V30 8359 H 790.977 -0.922291 3.76982 0
M  V30 8360 H 789.078 -2.91622 2.31922 0
M  V30 8361 H 789.191 -2.41762 4.13628 0
M  V30 8362 H 787.555 -1.36787 2.14852 0
M  V30 8363 H 788.338 -0.284401 3.4212 0
M  V30 8364 N 790.784 -1.46188 -0.588786 0
M  V30 8365 C 791.714 -1.59148 -1.70863 0
M  V30 8366 C 792.695 -0.442083 -1.64255 0
M  V30 8367 O 793.88 -0.667575 -1.82365 0
M  V30 8368 C 791.01 -1.5757 -3.09498 0
M  V30 8369 C 789.964 -2.71418 -3.30932 0
M  V30 8370 C 789.29 -2.549 -4.70032 0
M  V30 8371 C 790.59 -4.1329 -3.19356 0
M  V30 8372 H 792.284 -2.52889 -1.60274 0
M  V30 8373 H 789.83 -1.21707 -0.769638 0
M  V30 8374 H 791.783 -1.65231 -3.87655 0
M  V30 8375 H 790.507 -0.603705 -3.20972 0
M  V30 8376 H 789.166 -2.63216 -2.55172 0
M  V30 8377 H 788.814 -1.55797 -4.78264 0
M  V30 8378 H 788.514 -3.31257 -4.85327 0
M  V30 8379 H 790.038 -2.64443 -5.50366 0
M  V30 8380 H 791.452 -4.22636 -3.87365 0
M  V30 8381 H 789.849 -4.90187 -3.46175 0
M  V30 8382 H 790.919 -4.33874 -2.16522 0
M  V30 8383 N 792.262 0.832906 -1.33792 0
M  V30 8384 C 793.492 1.61813 -1.28453 0
M  V30 8385 C 793.9 1.88639 0.145595 0
M  V30 8386 O 793.243 1.47122 1.10004 0
M  V30 8387 C 793.305 2.98929 -1.99704 0
M  V30 8388 C 792.969 2.95045 -3.48995 0
M  V30 8389 C 793.966 2.70337 -4.44088 0
M  V30 8390 C 791.651 3.14993 -3.91261 0
M  V30 8391 C 793.645 2.65612 -5.79421 0
M  V30 8392 C 791.332 3.09893 -5.26697 0
M  V30 8393 C 792.33 2.85235 -6.20588 0
M  V30 8394 O 792.018 2.8005 -7.53543 0
M  V30 8395 H 791.75 0.510013 -0.443693 0
M  V30 8396 H 794.304 1.04514 -1.76822 0
M  V30 8397 H 792.534 3.58106 -1.45935 0
M  V30 8398 H 794.223 3.59849 -1.87786 0
M  V30 8399 H 794.989 2.54671 -4.12756 0
M  V30 8400 H 790.868 3.33204 -3.18584 0
M  V30 8401 H 794.412 2.46285 -6.52679 0
M  V30 8402 H 790.309 3.2511 -5.5765 0
M  V30 8403 H 791.077 2.95849 -7.63162 0
M  V30 8404 N 793.74 1.17359 1.05189 0
M  V30 8405 C 795.017 0.871914 1.75091 0
M  V30 8406 C 795.397 -0.627821 2.01548 0
M  V30 8407 O 794.745 -1.5791 1.65156 0
M  V30 8408 C 794.955 1.70687 3.04413 0
M  V30 8409 C 796.303 1.92684 3.78362 0
M  V30 8410 O 797.327 1.67645 3.14282 0
M  V30 8411 O 796.186 2.34765 4.93505 0
M  V30 8412 H 793.28 0.322831 0.761386 0
M  V30 8413 H 795.826 1.28054 1.11357 0
M  V30 8414 H 794.598 2.72405 2.80911 0
M  V30 8415 H 794.221 1.29602 3.75884 0
M  V30 8416 N 795.218 -1.23913 0.973828 0
M  V30 8417 C 796.148 -2.27453 0.527969 0
M  V30 8418 C 797.129 -1.6443 -0.435513 0
M  V30 8419 O 798.314 -1.9137 -0.330306 0
M  V30 8420 C 795.444 -3.4685 -0.176757 0
M  V30 8421 C 794.398 -4.22181 0.703352 0
M  V30 8422 C 793.724 -5.34534 -0.133215 0
M  V30 8423 C 795.024 -4.82865 1.99096 0
M  V30 8424 H 796.718 -2.65 1.3934 0
M  V30 8425 H 794.264 -1.27388 0.671446 0
M  V30 8426 H 796.217 -4.18424 -0.499934 0
M  V30 8427 H 794.941 -3.08346 -1.07659 0
M  V30 8428 H 793.6 -3.52416 1.00989 0
M  V30 8429 H 793.248 -4.92271 -1.03338 0
M  V30 8430 H 792.948 -5.85855 0.452494 0
M  V30 8431 H 794.472 -6.08933 -0.450924 0
M  V30 8432 H 795.886 -5.46481 1.73297 0
M  V30 8433 H 794.283 -5.44444 2.52389 0
M  V30 8434 H 795.353 -4.03977 2.68199 0
M  V30 8435 N 796.696 -0.74468 -1.38897 0
M  V30 8436 C 797.626 -0.126355 -2.33158 0
M  V30 8437 C 798.607 0.713517 -1.54412 0
M  V30 8438 O 799.792 0.656523 -1.82766 0
M  V30 8439 C 796.922 0.774375 -3.38557 0
M  V30 8440 C 795.876 0.0379214 -4.27983 0
M  V30 8441 C 795.202 1.05631 -5.24162 0
M  V30 8442 C 796.502 -1.12523 -5.10035 0
M  V30 8443 H 798.196 -0.913744 -2.85116 0
M  V30 8444 H 795.742 -0.440847 -1.37086 0
M  V30 8445 H 797.695 1.21655 -4.03458 0
M  V30 8446 H 796.419 1.59399 -2.85061 0
M  V30 8447 H 795.078 -0.384733 -3.64576 0
M  V30 8448 H 794.726 1.86975 -4.66958 0
M  V30 8449 H 794.426 0.568261 -5.84846 0
M  V30 8450 H 795.95 1.49799 -5.9194 0
M  V30 8451 H 797.364 -0.761037 -5.68226 0
M  V30 8452 H 795.761 -1.54355 -5.79909 0
M  V30 8453 H 796.831 -1.94237 -4.44297 0
M  V30 8454 N 798.174 1.49689 -0.493057 0
M  V30 8455 C 799.104 2.31826 0.279073 0
M  V30 8456 C 800.085 1.39733 0.969987 0
M  V30 8457 O 801.27 1.68646 0.962925 0
M  V30 8458 C 798.4 3.20046 1.34862 0
M  V30 8459 C 797.354 4.20869 0.77805 0
M  V30 8460 C 796.68 4.97971 1.94753 0
M  V30 8461 C 797.98 5.21813 -0.225543 0
M  V30 8462 H 799.674 2.96627 -0.406512 0
M  V30 8463 H 797.22 1.42647 -0.196943 0
M  V30 8464 H 799.173 3.76315 1.89645 0
M  V30 8465 H 797.897 2.53172 2.06328 0
M  V30 8466 H 796.556 3.65733 0.252036 0
M  V30 8467 H 796.204 4.27552 2.64969 0
M  V30 8468 H 795.904 5.66186 1.57187 0
M  V30 8469 H 797.428 5.57082 2.49984 0
M  V30 8470 H 798.842 5.72823 0.233864 0
M  V30 8471 H 797.239 5.97872 -0.516622 0
M  V30 8472 H 798.309 4.71209 -1.14412 0
M  V30 8473 N 799.652 0.226554 1.55963 0
M  V30 8474 C 800.562 -0.692725 2.24139 0
M  V30 8475 C 801.578 -1.20971 1.25068 0
M  V30 8476 O 802.754 -1.25027 1.57893 0
M  V30 8477 C 799.819 -1.88183 2.91184 0
M  V30 8478 C 798.88 -1.40633 4.05612 0
M  V30 8479 C 798.113 -2.53875 4.6945 0
M  V30 8480 O 798.336 -3.72129 4.32292 0
M  V30 8481 O 797.27 -2.24792 5.58348 0
M  V30 8482 H 801.096 -0.141921 3.03368 0
M  V30 8483 H 798.681 -0.0041049 1.49399 0
M  V30 8484 H 800.563 -2.57617 3.33484 0
M  V30 8485 H 799.238 -2.42064 2.14911 0
M  V30 8486 H 798.145 -0.67986 3.67871 0
M  V30 8487 H 799.478 -0.913838 4.83642 0
M  V30 8488 N 801.13 -1.57531 -0.0467866 0
M  V30 8489 C 802.063 -2.00734 -1.08541 0
M  V30 8490 C 803.041 -0.888508 -1.36177 0
M  V30 8491 O 804.225 -1.1529 -1.49132 0
M  V30 8492 C 801.352 -2.36535 -2.42423 0
M  V30 8493 C 800.398 -3.58681 -2.3076 0
M  V30 8494 S 801.231 -5.08536 -1.67785 0
M  V30 8495 C 802.387 -5.47562 -3.03194 0
M  V30 8496 H 802.62 -2.88516 -0.717345 0
M  V30 8497 H 800.153 -1.5226 -0.256181 0
M  V30 8498 H 802.111 -2.57834 -3.19424 0
M  V30 8499 H 800.772 -1.49236 -2.76382 0
M  V30 8500 H 799.965 -3.81329 -3.29552 0
M  V30 8501 H 799.567 -3.37142 -1.61899 0
M  V30 8502 H 801.859 -5.47163 -3.99524 0
M  V30 8503 H 802.802 -6.48082 -2.85299 0
M  V30 8504 H 803.21 -4.75042 -3.04951 0
M  V30 8505 N 802.608 0.318715 -1.54344 0
M  V30 8506 C 803.538 1.39751 -1.87061 0
M  V30 8507 C 804.519 1.53741 -0.727848 0
M  V30 8508 O 805.704 1.67541 -0.982016 0
M  V30 8509 C 802.834 2.76446 -2.10226 0
M  V30 8510 C 801.788 2.77239 -3.26071 0
M  V30 8511 C 801.114 4.17056 -3.34617 0
M  V30 8512 C 802.414 2.40555 -4.63606 0
M  V30 8513 H 804.108 1.12619 -2.77412 0
M  V30 8514 H 801.654 0.540318 -1.33479 0
M  V30 8515 H 803.607 3.51985 -2.31699 0
M  V30 8516 H 802.331 3.05066 -1.16629 0
M  V30 8517 H 800.99 2.04155 -3.04493 0
M  V30 8518 H 800.638 4.42824 -2.3857 0
M  V30 8519 H 800.338 4.18492 -4.12478 0
M  V30 8520 H 801.862 4.94401 -3.5833 0
M  V30 8521 H 803.276 3.05808 -4.84927 0
M  V30 8522 H 801.673 2.53234 -5.44052 0
M  V30 8523 H 802.743 1.35698 -4.65526 0
M  V30 8524 N 804.086 1.46499 0.581025 0
M  V30 8525 C 805.363 1.42372 1.34125 0
M  V30 8526 C 805.743 0.108073 2.10823 0
M  V30 8527 O 805.091 -0.910366 2.09582 0
M  V30 8528 C 805.301 2.65445 2.26583 0
M  V30 8529 C 806.649 3.11664 2.88359 0
M  V30 8530 O 807.673 2.66006 2.36896 0
M  V30 8531 O 806.532 3.90974 3.81839 0
M  V30 8532 H 803.626 0.566262 0.602724 0
M  V30 8533 H 806.172 1.58667 0.601903 0
M  V30 8534 H 804.944 3.52756 1.69348 0
M  V30 8535 H 804.567 2.51618 3.07854 0
M  V30 8536 N 805.565 -0.825799 1.34232 0
M  V30 8537 C 806.528 -1.91808 1.25468 0
M  V30 8538 C 807.528 -1.59893 0.170567 0
M  V30 8539 O 808.718 -1.68986 0.422996 0
M  V30 8540 C 805.85 -3.27786 0.93644 0
M  V30 8541 H 807.043 -2.01003 2.22571 0
M  V30 8542 H 804.596 -1.01944 1.18479 0
M  V30 8543 H 805.331 -3.24285 -0.0315408 0
M  V30 8544 H 805.116 -3.52333 1.72057 0
M  V30 8545 H 806.606 -4.07782 0.900214 0
M  V30 8546 N 807.043 -1.17915 -1.04565 0
M  V30 8547 C 807.993 -0.869634 -2.10764 0
M  V30 8548 C 808.977 0.158502 -1.60117 0
M  V30 8549 O 810.169 -0.04483 -1.76943 0
M  V30 8550 C 807.298 -0.391642 -3.41059 0
M  V30 8551 C 806.384 -1.45156 -3.98485 0
M  V30 8552 N 806.775 -2.6667 -4.29792 0
M  V30 8553 C 805.073 -1.3109 -4.263 0
M  V30 8554 C 805.774 -3.34823 -4.75677 0
M  V30 8555 N 804.75 -2.62203 -4.76183 0
M  V30 8556 H 808.552 -1.79342 -2.32838 0
M  V30 8557 H 806.066 -1.0688 -1.22272 0
M  V30 8558 H 808.063 -0.151428 -4.16625 0
M  V30 8559 H 806.723 0.525862 -3.20413 0
M  V30 8560 H 807.734 -3.0358 -4.19594 0
M  V30 8561 H 804.411 -0.455545 -4.15007 0
M  V30 8562 H 805.801 -4.38645 -5.0896 0
M  V30 8563 N 808.521 1.23394 -0.980386 0
M  V30 8564 C 809.937 1.43961 -0.689008 0
M  V30 8565 C 810.137 1.87229 0.744809 0
M  V30 8566 O 809.193 2.01831 1.51725 0
M  V30 8567 C 810.506 2.49128 -1.68392 0
M  V30 8568 C 812.054 2.62941 -1.69796 0
M  V30 8569 C 812.529 3.71317 -2.68118 0
M  V30 8570 N 814.02 3.7876 -2.66636 0
M  V30 8571 C 814.755 4.62176 -3.39383 0
M  V30 8572 N 814.251 5.49682 -4.21688 0
M  V30 8573 N 816.044 4.56372 -3.28147 0
M  V30 8574 H 808.195 0.936106 -1.90659 0
M  V30 8575 H 810.458 0.473023 -0.821555 0
M  V30 8576 H 810.164 2.24252 -2.70931 0
M  V30 8577 H 810.038 3.47514 -1.46675 0
M  V30 8578 H 812.425 2.87168 -0.679617 0
M  V30 8579 H 812.506 1.64871 -1.95579 0
M  V30 8580 H 812.15 3.4784 -3.70095 0
M  V30 8581 H 812.08 4.68929 -2.3961 0
M  V30 8582 H 814.571 3.16226 -2.06904 0
M  V30 8583 H 814.884 6.10323 -4.74053 0
M  V30 8584 H 813.229 5.49306 -4.25779 0
M  V30 8585 H 816.42 3.87029 -2.63299 0
M  V30 8586 H 816.593 5.21153 -3.85102 0
M  V30 8587 N 809.999 0.752036 1.385 0
M  V30 8588 C 810.929 0.138718 2.33088 0
M  V30 8589 C 811.91 -0.705318 1.54788 0
M  V30 8590 O 813.095 -0.646821 1.83112 0
M  V30 8591 C 810.225 -0.75641 3.38963 0
M  V30 8592 C 809.179 -0.0152239 4.27997 0
M  V30 8593 C 808.505 -1.0285 5.24715 0
M  V30 8594 C 809.805 1.15226 5.09431 0
M  V30 8595 H 811.499 0.928852 2.84627 0
M  V30 8596 H 809.045 0.448111 1.3685 0
M  V30 8597 H 810.998 -1.19513 4.04097 0
M  V30 8598 H 809.722 -1.57885 2.85902 0
M  V30 8599 H 808.381 0.404061 3.64366 0
M  V30 8600 H 808.029 -1.84496 4.67943 0
M  V30 8601 H 807.729 -0.537238 5.85139 0
M  V30 8602 H 809.253 -1.46657 5.92726 0
M  V30 8603 H 810.667 0.791161 5.67815 0
M  V30 8604 H 809.064 1.57428 5.79082 0
M  V30 8605 H 810.134 1.9659 4.43261 0
M  V30 8606 N 811.477 -1.49425 0.500989 0
M  V30 8607 C 812.427 -2.26061 -0.296698 0
M  V30 8608 C 813.411 -1.30906 -0.935541 0
M  V30 8609 O 814.603 -1.55628 -0.843142 0
M  V30 8610 C 811.732 -3.15189 -1.36055 0
M  V30 8611 C 810.818 -4.17806 -0.727952 0
M  V30 8612 N 811.209 -5.05516 0.169408 0
M  V30 8613 C 809.507 -4.34907 -0.988535 0
M  V30 8614 C 810.208 -5.79267 0.531509 0
M  V30 8615 N 809.184 -5.43507 -0.100564 0
M  V30 8616 H 812.986 -2.91246 0.394103 0
M  V30 8617 H 810.5 -1.59275 0.317065 0
M  V30 8618 H 812.497 -3.68724 -1.94547 0
M  V30 8619 H 811.157 -2.51556 -2.05303 0
M  V30 8620 H 812.168 -5.15075 0.540218 0
M  V30 8621 H 808.845 -3.82481 -1.67376 0
M  V30 8622 H 810.235 -6.59872 1.26564 0
M  V30 8623 N 812.955 -0.234822 -1.55841 0
M  V30 8624 C 813.918 0.656378 -2.196 0
M  V30 8625 C 814.918 1.11179 -1.16171 0
M  V30 8626 O 816.108 1.01845 -1.41326 0
M  V30 8627 C 813.24 1.90072 -2.82993 0
M  V30 8628 H 814.433 0.100281 -2.99732 0
M  V30 8629 H 811.986 0.0147613 -1.56293 0
M  V30 8630 H 812.721 2.49836 -2.06767 0
M  V30 8631 H 812.506 1.5825 -3.58747 0
M  V30 8632 H 813.996 2.53538 -3.31826 0
M  V30 8633 N 814.433 1.57553 0.0384317 0
M  V30 8634 C 815.844 1.77258 0.586211 0
M  V30 8635 C 816.195 0.864706 1.76117 0
M  V30 8636 O 815.32 0.057141 2.16325 0
M  V30 8637 C 815.915 3.21453 1.07021 0
M  V30 8638 C 814.474 3.42387 1.56358 0
M  V30 8639 C 813.621 2.72801 0.497508 0
M  V30 8640 H 816.572 1.57585 -0.187796 0
M  V30 8641 H 816.593 3.27451 1.93794 0
M  V30 8642 H 816.105 3.87505 0.214851 0
M  V30 8643 H 814.206 2.81497 2.44111 0
M  V30 8644 H 814.319 4.50968 1.61754 0
M  V30 8645 H 812.683 2.36305 0.95038 0
M  V30 8646 H 813.466 3.41529 -0.348234 0
M  V30 8647 N 815.911 -0.310526 1.54511 0
M  V30 8648 C 817.139 -1.06611 1.77318 0
M  V30 8649 C 817.554 -1.81265 0.528043 0
M  V30 8650 O 816.911 -1.75466 -0.50178 0
M  V30 8651 C 816.962 -2.05409 2.97472 0
M  V30 8652 O 816.683 -1.33785 4.17173 0
M  V30 8653 C 818.184 -2.93082 3.32593 0
M  V30 8654 H 815.404 -0.316578 0.591624 0
M  V30 8655 H 817.948 -0.352691 2.01436 0
M  V30 8656 H 816.103 -2.72266 2.7559 0
M  V30 8657 H 816.517 -2.00055 4.84849 0
M  V30 8658 H 817.991 -3.58274 4.19933 0
M  V30 8659 H 818.468 -3.60877 2.50329 0
M  V30 8660 H 819.074 -2.31768 3.566 0
M  V30 8661 N 817.389 -1.46805 -0.573248 0
M  V30 8662 C 818.614 -1.56433 -1.36175 0
M  V30 8663 C 819.039 -0.209336 -1.86932 0
M  V30 8664 O 818.397 0.812146 -1.62092 0
M  V30 8665 C 818.445 -2.58055 -2.51873 0
M  V30 8666 O 817.549 -2.12214 -3.53609 0
M  V30 8667 H 816.89 -0.526068 -0.405153 0
M  V30 8668 H 819.42 -1.92456 -0.694405 0
M  V30 8669 H 819.43 -2.77966 -2.98662 0
M  V30 8670 H 818.105 -3.56448 -2.14284 0
M  V30 8671 H 816.682 -2.02333 -3.13234 0
M  V30 8672 N 818.867 0.818669 -1.34668 0
M  V30 8673 C 820.283 1.11243 -1.14443 0
M  V30 8674 C 820.483 2.01435 0.0512212 0
M  V30 8675 O 819.539 2.41854 0.725471 0
M  V30 8676 C 820.852 1.75504 -2.4417 0
M  V30 8677 C 822.4 1.8798 -2.50265 0
M  V30 8678 C 822.875 2.55657 -3.80004 0
M  V30 8679 N 824.366 2.63153 -3.81189 0
M  V30 8680 C 825.101 3.16258 -4.78298 0
M  V30 8681 N 824.597 3.69893 -5.85791 0
M  V30 8682 N 826.39 3.14698 -4.65748 0
M  V30 8683 H 818.541 0.218848 -2.1127 0
M  V30 8684 H 820.804 0.159655 -0.934459 0
M  V30 8685 H 820.51 1.16697 -3.31775 0
M  V30 8686 H 820.384 2.75329 -2.57825 0
M  V30 8687 H 822.771 2.45934 -1.63096 0
M  V30 8688 H 822.852 0.870447 -2.40535 0
M  V30 8689 H 822.496 1.98356 -4.67565 0
M  V30 8690 H 822.426 3.57105 -3.87019 0
M  V30 8691 H 824.917 2.2514 -3.03513 0
M  V30 8692 H 825.23 4.08678 -6.55898 0
M  V30 8693 H 823.575 3.68125 -5.89499 0
M  V30 8694 H 826.766 2.72066 -3.80917 0
M  V30 8695 H 826.939 3.5578 -5.41594 0
M  V30 8696 N 820.346 1.18468 1.03938 0
M  V30 8697 C 821.594 0.978895 1.76811 0
M  V30 8698 C 821.915 -0.49257 1.88676 0
M  V30 8699 O 821.185 -1.3572 1.41269 0
M  V30 8700 H 819.765 0.359201 0.654968 0
M  V30 8701 H 822.427 1.49173 1.25433 0
M  V30 8702 H 821.523 1.418 2.78027 0
M  V30 8703 N 821.824 -1.22873 0.986916 0
M  V30 8704 C 823.072 -1.91084 0.658121 0
M  V30 8705 C 823.393 -1.77304 -0.811675 0
M  V30 8706 O 822.663 -1.15649 -1.58121 0
M  V30 8707 H 821.243 -0.707251 0.240427 0
M  V30 8708 H 823.905 -1.49357 1.25213 0
M  V30 8709 H 823.001 -2.98373 0.915428 0
M  V30 8710 N 823.302 -0.75937 -1.38099 0
M  V30 8711 C 824.265 -0.14372 -2.28749 0
M  V30 8712 C 825.265 0.641338 -1.47457 0
M  V30 8713 O 826.455 0.466751 -1.67831 0
M  V30 8714 C 823.587 0.804545 -3.3127 0
M  V30 8715 H 824.78 -0.942663 -2.847 0
M  V30 8716 H 822.333 -0.526757 -1.47156 0
M  V30 8717 H 823.068 1.62895 -2.80421 0
M  V30 8718 H 822.853 0.243939 -3.9134 0
M  V30 8719 H 824.343 1.23111 -3.99041 0
M  V30 8720 N 824.78 1.49157 -0.508906 0
M  V30 8721 C 826.005 2.07376 0.0315182 0
M  V30 8722 C 826.43 1.36575 1.2934 0
M  V30 8723 O 825.788 0.424963 1.76249 0
M  V30 8724 C 825.836 3.59661 0.260118 0
M  V30 8725 O 824.94 3.90255 1.33322 0
M  V30 8726 H 824.281 0.663334 -0.029739 0
M  V30 8727 H 826.811 1.91857 -0.710791 0
M  V30 8728 H 826.821 4.05056 0.489225 0
M  V30 8729 H 825.496 4.10601 -0.661794 0
M  V30 8730 H 824.073 3.56661 1.08844 0
M  V30 8731 N 826.258 0.243083 1.55714 0
M  V30 8732 C 827.504 -0.383287 1.99145 0
M  V30 8733 C 827.837 -1.57868 1.13098 0
M  V30 8734 O 827.112 -1.93535 0.193509 0
M  V30 8735 C 827.395 -0.796879 3.51172 0
M  V30 8736 C 827.248 0.403642 4.47985 0
M  V30 8737 C 828.567 -1.64525 4.08191 0
M  V30 8738 H 825.686 -0.137843 0.723995 0
M  V30 8739 H 828.328 0.343631 1.86867 0
M  V30 8740 H 826.478 -1.41625 3.61766 0
M  V30 8741 H 828.15 1.04204 4.49376 0
M  V30 8742 H 826.393 1.04741 4.20965 0
M  V30 8743 H 827.064 0.0709794 5.51954 0
M  V30 8744 H 829.54 -1.12246 4.00674 0
M  V30 8745 H 828.416 -1.9035 5.14838 0
M  V30 8746 H 828.677 -2.61582 3.56409 0
M  V30 8747 N 827.736 -1.57571 -0.0300757 0
M  V30 8748 C 828.646 -2.09892 -1.04798 0
M  V30 8749 C 829.662 -1.03732 -1.39698 0
M  V30 8750 O 830.838 -1.35461 -1.49038 0
M  V30 8751 C 827.903 -2.56707 -2.33028 0
M  V30 8752 C 826.964 -3.77345 -2.04718 0
M  V30 8753 C 826.197 -4.21918 -3.26834 0
M  V30 8754 O 826.42 -3.66025 -4.37472 0
M  V30 8755 O 825.354 -5.14362 -3.12594 0
M  V30 8756 H 829.18 -2.97023 -0.633344 0
M  V30 8757 H 826.765 -1.47344 -0.246991 0
M  V30 8758 H 828.647 -2.87154 -3.08417 0
M  V30 8759 H 827.322 -1.72688 -2.73789 0
M  V30 8760 H 826.229 -3.51919 -1.26901 0
M  V30 8761 H 827.562 -4.62345 -1.68813 0
M  V30 8762 N 829.214 0.302327 -1.54673 0
M  V30 8763 C 830.124 1.39542 -1.88587 0
M  V30 8764 C 831.14 1.55543 -0.779895 0
M  V30 8765 O 832.316 1.70233 -1.07623 0
M  V30 8766 C 829.381 2.7394 -2.12504 0
M  V30 8767 C 828.442 2.66935 -3.3622 0
M  V30 8768 C 827.675 3.94923 -3.58987 0
M  V30 8769 O 827.898 4.94218 -2.84789 0
M  V30 8770 O 826.832 3.96896 -4.52501 0
M  V30 8771 H 830.658 1.13784 -2.81579 0
M  V30 8772 H 828.243 0.49827 -1.40846 0
M  V30 8773 H 830.125 3.5346 -2.29443 0
M  V30 8774 H 828.8 2.99544 -1.22698 0
M  V30 8775 H 827.707 1.85892 -3.24646 0
M  V30 8776 H 829.04 2.46283 -4.26152 0
M  V30 8777 N 830.692 1.47107 0.565454 0
M  V30 8778 C 831.92 1.56909 1.3486 0
M  V30 8779 C 832.335 0.216312 1.87557 0
M  V30 8780 O 831.692 -0.789168 1.64555 0
M  V30 8781 C 831.743 2.58776 2.52423 0
M  V30 8782 O 831.464 3.888 2.01906 0
M  V30 8783 C 832.965 2.78683 3.44747 0
M  V30 8784 H 830.185 0.530096 0.411387 0
M  V30 8785 H 832.729 1.92658 0.685782 0
M  V30 8786 H 830.884 2.25983 3.1466 0
M  V30 8787 H 831.298 4.44393 2.78595 0
M  V30 8788 H 832.772 3.53842 4.23674 0
M  V30 8789 H 833.249 1.86208 3.97773 0
M  V30 8790 H 833.855 3.12641 2.88333 0
M  V30 8791 N 832.17 -0.811516 1.35101 0
M  V30 8792 C 833.447 -1.55491 1.18667 0
M  V30 8793 C 833.827 -2.09775 -0.236189 0
M  V30 8794 O 833.175 -1.91989 -1.23905 0
M  V30 8795 C 833.385 -2.66732 2.25067 0
M  V30 8796 C 834.733 -3.35201 2.60625 0
M  V30 8797 O 835.757 -2.76998 2.23943 0
M  V30 8798 O 834.616 -4.40334 3.23679 0
M  V30 8799 H 831.71 -0.686783 0.460716 0
M  V30 8800 H 834.256 -0.851903 1.46768 0
M  V30 8801 H 833.028 -2.24457 3.20523 0
M  V30 8802 H 832.651 -3.44673 1.98208 0
M  V30 8803 N 833.648 -1.19017 -1.03309 0
M  V30 8804 C 834.58 -0.881847 -2.11556 0
M  V30 8805 C 835.593 0.123711 -1.62329 0
M  V30 8806 O 836.782 -0.105141 -1.7819 0
M  V30 8807 C 833.882 -0.297634 -3.37591 0
M  V30 8808 C 833.055 -1.35072 -4.16022 0
M  V30 8809 C 832.114 -0.780812 -5.20375 0
M  V30 8810 O 831.14 -1.45745 -5.50224 0
M  V30 8811 N 832.342 0.417964 -5.78993 0
M  V30 8812 H 835.107 -1.81359 -2.38598 0
M  V30 8813 H 832.668 -1.0916 -1.19565 0
M  V30 8814 H 834.66 0.097374 -4.04583 0
M  V30 8815 H 833.23 0.538299 -3.0793 0
M  V30 8816 H 832.45 -1.92074 -3.4424 0
M  V30 8817 H 833.738 -2.06044 -4.65213 0
M  V30 8818 H 833.136 0.985281 -5.57054 0
M  V30 8819 H 831.693 0.754802 -6.47415 0
M  V30 8820 N 835.127 1.22348 -0.993418 0
M  V30 8821 C 836.352 1.95666 -0.687727 0
M  V30 8822 C 836.777 1.72883 0.741161 0
M  V30 8823 O 836.135 1.00837 1.50671 0
M  V30 8824 C 836.183 3.46457 -0.99998 0
M  V30 8825 O 835.287 4.12281 -0.0989386 0
M  V30 8826 H 834.628 0.612102 -0.257346 0
M  V30 8827 H 837.158 1.55428 -1.33054 0
M  V30 8828 H 837.168 3.96976 -0.942035 0
M  V30 8829 H 835.843 3.62365 -2.04118 0
M  V30 8830 H 834.42 3.72295 -0.212413 0
M  V30 8831 N 836.605 0.766683 1.37694 0
M  V30 8832 C 837.555 0.123173 2.27667 0
M  V30 8833 C 838.539 -0.679436 1.45851 0
M  V30 8834 O 839.731 -0.54324 1.68457 0
M  V30 8835 C 836.86 -0.759064 3.34803 0
M  V30 8836 C 835.946 0.0511009 4.24069 0
M  V30 8837 N 836.337 1.09418 4.93823 0
M  V30 8838 C 834.635 -0.173675 4.45662 0
M  V30 8839 C 835.336 1.58546 5.59677 0
M  V30 8840 N 834.312 0.898503 5.36123 0
M  V30 8841 H 838.114 0.921859 2.79068 0
M  V30 8842 H 835.628 0.603957 1.50752 0
M  V30 8843 H 837.625 -1.23581 3.98163 0
M  V30 8844 H 836.285 -1.55655 2.84959 0
M  V30 8845 H 837.296 1.47623 4.96415 0
M  V30 8846 H 833.973 -0.943473 4.067 0
M  V30 8847 H 835.363 2.45504 6.25442 0
M  V30 8848 N 838.083 -1.48885 0.516809 0
M  V30 8849 C 839.013 -2.32241 -0.242157 0
M  V30 8850 C 839.994 -1.41258 -0.947633 0
M  V30 8851 O 841.179 -1.70156 -0.935973 0
M  V30 8852 C 838.309 -3.22151 -1.29754 0
M  V30 8853 C 837.263 -4.22053 -0.710995 0
M  V30 8854 C 836.589 -5.01007 -1.86806 0
M  V30 8855 C 837.889 -5.21388 0.30853 0
M  V30 8856 H 839.583 -2.95943 0.453651 0
M  V30 8857 H 837.129 -1.42316 0.219612 0
M  V30 8858 H 839.082 -3.79284 -1.83634 0
M  V30 8859 H 837.806 -2.56423 -2.02274 0
M  V30 8860 H 836.465 -3.66087 -0.193819 0
M  V30 8861 H 836.113 -4.31713 -2.58133 0
M  V30 8862 H 835.813 -5.68615 -1.48159 0
M  V30 8863 H 837.337 -5.60989 -2.4109 0
M  V30 8864 H 838.751 -5.73122 -0.142703 0
M  V30 8865 H 837.148 -5.96975 0.611673 0
M  V30 8866 H 838.218 -4.69329 1.21894 0
M  V30 8867 N 839.561 -0.251338 -1.55583 0
M  V30 8868 C 840.524 0.63305 -2.20284 0
M  V30 8869 C 841.524 1.09941 -1.17344 0
M  V30 8870 O 842.714 1.00341 -1.42399 0
M  V30 8871 C 839.846 1.8706 -2.84993 0
M  V30 8872 H 841.039 0.0684846 -2.99822 0
M  V30 8873 H 838.592 -0.00181653 -1.563 0
M  V30 8874 H 839.327 2.47629 -2.09405 0
M  V30 8875 H 839.112 1.54436 -3.60405 0
M  V30 8876 H 840.602 2.50004 -3.34496 0
M  V30 8877 N 841.039 1.57585 0.0217189 0
M  V30 8878 C 842.267 1.93871 0.722619 0
M  V30 8879 C 842.682 0.851706 1.68498 0
M  V30 8880 O 842.039 -0.17127 1.81695 0
M  V30 8881 C 842.09 3.30114 1.47333 0
M  V30 8882 O 841.811 4.34639 0.549597 0
M  V30 8883 C 843.312 3.80727 2.27072 0
M  V30 8884 H 840.532 0.639671 0.202637 0
M  V30 8885 H 843.076 2.04487 -0.0229414 0
M  V30 8886 H 841.231 3.20872 2.17071 0
M  V30 8887 H 841.645 5.13326 1.07686 0
M  V30 8888 H 843.119 4.78547 2.75131 0
M  V30 8889 H 843.596 3.12301 3.08812 0
M  V30 8890 H 844.202 3.93075 1.62395 0
M  V30 8891 N 842.517 -0.29412 1.54831 0
M  V30 8892 C 843.48 -1.3461 1.85507 0
M  V30 8893 C 844.48 -1.43359 0.728343 0
M  V30 8894 O 845.67 -1.42875 0.996609 0
M  V30 8895 C 842.802 -2.73012 2.0415 0
M  V30 8896 H 843.995 -1.08651 2.79526 0
M  V30 8897 H 841.548 -0.531138 1.46999 0
M  V30 8898 H 842.283 -3.04183 1.12441 0
M  V30 8899 H 842.068 -2.68051 2.86166 0
M  V30 8900 H 843.558 -3.49061 2.29229 0
M  V30 8901 N 843.995 -1.47404 -0.557645 0
M  V30 8902 C 845.243 -1.53703 -1.31224 0
M  V30 8903 C 845.564 -0.200742 -1.93964 0
M  V30 8904 O 844.834 0.775253 -1.79907 0
M  V30 8905 H 843.414 -0.566171 -0.487299 0
M  V30 8906 H 846.076 -1.83699 -0.651195 0
M  V30 8907 H 845.172 -2.30335 -2.10599 0
M  V30 8908 N 845.473 0.80434 -1.35529 0
M  V30 8909 C 846.698 1.598 -1.32207 0
M  V30 8910 C 847.123 1.87848 0.0974226 0
M  V30 8911 O 846.481 1.46728 1.06492 0
M  V30 8912 C 846.529 2.90483 -2.13663 0
M  V30 8913 O 845.633 3.83411 -1.51888 0
M  V30 8914 H 844.974 0.485305 -0.453183 0
M  V30 8915 H 847.504 0.998119 -1.78602 0
M  V30 8916 H 847.514 3.39888 -2.257 0
M  V30 8917 H 846.189 2.69395 -3.16859 0
M  V30 8918 H 844.766 3.41967 -1.48704 0
M  V30 8919 N 846.951 1.19563 1.02676 0
M  V30 8920 C 848.179 1.02488 1.79732 0
M  V30 8921 C 848.594 -0.426302 1.83924 0
M  V30 8922 O 847.951 -1.29609 1.28483 0
M  V30 8923 C 848.002 1.58944 3.24683 0
M  V30 8924 O 847.723 2.98382 3.2078 0
M  V30 8925 C 849.224 1.46681 4.1833 0
M  V30 8926 H 846.444 0.361098 0.565552 0
M  V30 8927 H 848.988 1.58426 1.29311 0
M  V30 8928 H 847.143 1.0715 3.72287 0
M  V30 8929 H 847.557 3.24983 4.11687 0
M  V30 8930 H 849.031 1.90959 5.17918 0
M  V30 8931 H 849.508 0.417663 4.3721 0
M  V30 8932 H 850.114 1.97616 3.76601 0
M  V30 8933 N 848.429 -1.21819 0.999893 0
M  V30 8934 C 849.654 -1.95298 0.698094 0
M  V30 8935 C 850.079 -1.73273 -0.731982 0
M  V30 8936 O 849.437 -1.01634 -1.50134 0
M  V30 8937 C 849.485 -3.45922 1.01834 0
M  V30 8938 O 848.589 -4.12223 0.120801 0
M  V30 8939 H 847.93 -0.610729 0.260588 0
M  V30 8940 H 850.46 -1.5472 1.33876 0
M  V30 8941 H 850.47 -3.96471 0.963074 0
M  V30 8942 H 849.145 -3.61278 2.06037 0
M  V30 8943 H 847.722 -3.72177 0.232153 0
M  V30 8944 N 849.908 -0.773975 -1.37286 0
M  V30 8945 C 851.133 -0.349561 -2.04433 0
M  V30 8946 C 851.558 1.02082 -1.5799 0
M  V30 8947 O 850.916 1.65458 -0.741172 0
M  V30 8948 C 850.964 -0.404292 -3.58326 0
M  V30 8949 O 850.068 0.594447 -4.08093 0
M  V30 8950 H 849.409 -0.150959 -0.646612 0
M  V30 8951 H 851.939 -1.05079 -1.75555 0
M  V30 8952 H 851.949 -0.262378 -4.07155 0
M  V30 8953 H 850.624 -1.40403 -3.91484 0
M  V30 8954 H 849.201 0.415468 -3.70578 0
M  V30 8955 N 851.386 1.48609 -0.524698 0
M  V30 8956 C 852.336 2.26505 0.260696 0
M  V30 8957 C 853.32 1.32378 0.914597 0
M  V30 8958 O 854.512 1.5695 0.818277 0
M  V30 8959 C 851.641 3.17313 1.31024 0
M  V30 8960 C 850.727 4.18911 0.661391 0
M  V30 8961 N 851.118 5.05183 -0.24981 0
M  V30 8962 C 849.416 4.36425 0.91922 0
M  V30 8963 C 850.117 5.78348 -0.623598 0
M  V30 8964 N 849.093 5.43598 0.0140839 0
M  V30 8965 H 852.895 2.90582 -0.440388 0
M  V30 8966 H 850.409 1.5875 -0.342364 0
M  V30 8967 H 852.406 3.71772 1.88656 0
M  V30 8968 H 851.066 2.54791 2.01275 0
M  V30 8969 H 852.077 5.1415 -0.622093 0
M  V30 8970 H 848.754 3.85095 1.6127 0
M  V30 8971 H 850.144 6.57775 -1.37046 0
M  V30 8972 N 852.864 0.259585 1.55447 0
M  V30 8973 C 854.089 -0.368317 2.04103 0
M  V30 8974 C 854.514 -1.49827 1.13725 0
M  V30 8975 O 853.872 -1.80814 0.132705 0
M  V30 8976 C 853.92 -0.841506 3.50644 0
M  V30 8977 O 853.024 -1.95008 3.63381 0
M  V30 8978 H 852.365 -0.0785227 0.659341 0
M  V30 8979 H 854.895 0.389349 2.00861 0
M  V30 8980 H 854.905 -1.14138 3.9171 0
M  V30 8981 H 853.58 -0.0147001 4.15897 0
M  V30 8982 H 852.157 -1.65393 3.34215 0
M  V30 8983 N 854.342 -1.57594 -0.0133615 0
M  V30 8984 C 855.272 -2.10611 -1.00823 0
M  V30 8985 C 856.253 -1.01217 -1.36708 0
M  V30 8986 O 857.438 -1.28827 -1.45318 0
M  V30 8987 C 854.568 -2.59844 -2.30431 0
M  V30 8988 C 853.522 -3.73644 -2.08745 0
M  V30 8989 C 852.848 -4.09141 -3.4425 0
M  V30 8990 C 854.148 -5.01454 -1.46086 0
M  V30 8991 H 855.842 -2.93985 -0.566849 0
M  V30 8992 H 853.388 -1.41423 -0.271219 0
M  V30 8993 H 855.341 -2.95557 -3.00373 0
M  V30 8994 H 854.065 -1.73573 -2.76658 0
M  V30 8995 H 852.724 -3.38303 -1.41232 0
M  V30 8996 H 852.372 -3.19914 -3.88155 0
M  V30 8997 H 852.072 -4.85802 -3.3056 0
M  V30 8998 H 853.596 -4.47402 -4.15528 0
M  V30 8999 H 855.01 -5.35024 -2.05966 0
M  V30 9000 H 853.407 -5.82832 -1.42924 0
M  V30 9001 H 854.477 -4.83003 -0.428471 0
M  V30 9002 N 855.82 0.285905 -1.54985 0
M  V30 9003 C 856.752 1.37505 -1.83371 0
M  V30 9004 C 857.765 1.46138 -0.717454 0
M  V30 9005 O 858.954 1.48186 -0.995142 0
M  V30 9006 C 856.054 2.7575 -1.97016 0
M  V30 9007 C 855.227 2.89866 -3.27561 0
M  V30 9008 C 854.286 4.08704 -3.31433 0
M  V30 9009 O 853.312 4.00073 -4.04883 0
M  V30 9010 N 854.514 5.20062 -2.57907 0
M  V30 9011 H 857.279 1.13505 -2.77375 0
M  V30 9012 H 854.84 0.476006 -1.54744 0
M  V30 9013 H 856.832 3.5352 -1.96991 0
M  V30 9014 H 855.402 2.9263 -1.09938 0
M  V30 9015 H 854.622 1.99085 -3.40234 0
M  V30 9016 H 855.91 2.96219 -4.13681 0
M  V30 9017 H 855.308 5.29958 -1.97891 0
M  V30 9018 H 853.865 5.96111 -2.63619 0
M  V30 9019 N 857.298 1.47698 0.54982 0
M  V30 9020 C 858.245 1.60739 1.65625 0
M  V30 9021 C 859.215 0.450129 1.59884 0
M  V30 9022 O 860.4 0.671123 1.78607 0
M  V30 9023 C 857.54 1.63457 3.03934 0
M  V30 9024 C 856.653 2.90152 3.20056 0
M  V30 9025 C 855.788 2.84157 4.48807 0
M  V30 9026 C 854.827 4.05644 4.58387 0
M  V30 9027 N 853.964 3.97843 5.78503 0
M  V30 9028 H 858.804 2.55234 1.53817 0
M  V30 9029 H 856.341 1.26593 0.749173 0
M  V30 9030 H 858.299 1.63015 3.84034 0
M  V30 9031 H 856.929 0.724689 3.1456 0
M  V30 9032 H 855.981 3.00428 2.33339 0
M  V30 9033 H 857.293 3.80097 3.22998 0
M  V30 9034 H 856.447 2.82006 5.37175 0
M  V30 9035 H 855.186 1.91908 4.48356 0
M  V30 9036 H 854.191 4.08092 3.6843 0
M  V30 9037 H 855.416 4.9903 4.60593 0
M  V30 9038 H 853.362 3.08401 5.78986 0
M  V30 9039 H 853.279 4.81473 5.82855 0
M  V30 9040 H 854.547 3.99719 6.69212 0
M  V30 9041 N 858.776 -0.797141 1.35954 0
M  V30 9042 C 860.006 -1.5835 1.32698 0
M  V30 9043 C 860.414 -1.88959 -0.0955298 0
M  V30 9044 O 859.757 -1.49987 -1.06064 0
M  V30 9045 C 859.819 -2.93529 2.0756 0
M  V30 9046 C 859.483 -2.85688 3.56695 0
M  V30 9047 C 860.48 -2.58467 4.51099 0
M  V30 9048 C 858.165 -3.04508 3.99475 0
M  V30 9049 C 860.159 -2.50157 5.8626 0
M  V30 9050 C 857.846 -2.9582 5.34728 0
M  V30 9051 C 858.844 -2.68681 6.27933 0
M  V30 9052 O 858.532 -2.59973 7.60703 0
M  V30 9053 H 858.264 -0.49807 0.457059 0
M  V30 9054 H 860.818 -0.997889 1.79531 0
M  V30 9055 H 859.048 -3.54111 1.55378 0
M  V30 9056 H 860.737 -3.54744 1.9726 0
M  V30 9057 H 861.503 -2.43638 4.19363 0
M  V30 9058 H 857.382 -3.24641 3.27306 0
M  V30 9059 H 860.926 -2.28894 6.58979 0
M  V30 9060 H 856.823 -3.10211 5.66074 0
M  V30 9061 H 857.591 -2.75511 7.70737 0
M  V30 9062 N 860.254 -1.20106 -1.0204 0
M  V30 9063 C 861.484 -1.0329 -1.78927 0
M  V30 9064 C 861.892 0.421115 -1.84454 0
M  V30 9065 O 861.235 1.30422 -1.29367 0
M  V30 9066 C 861.297 -1.53627 -3.25021 0
M  V30 9067 C 860.961 -3.01869 -3.4311 0
M  V30 9068 C 861.958 -3.9956 -3.32638 0
M  V30 9069 C 859.643 -3.40746 -3.6905 0
M  V30 9070 C 861.637 -5.34119 -3.47844 0
M  V30 9071 C 859.324 -4.75462 -3.839 0
M  V30 9072 C 860.322 -5.71957 -3.73302 0
M  V30 9073 O 860.01 -7.04231 -3.87703 0
M  V30 9074 H 859.742 -0.363962 -0.569656 0
M  V30 9075 H 862.296 -1.59551 -1.29354 0
M  V30 9076 H 860.526 -0.917481 -3.75658 0
M  V30 9077 H 862.215 -1.32889 -3.8353 0
M  V30 9078 H 862.981 -3.70869 -3.12539 0
M  V30 9079 H 858.86 -2.66182 -3.76388 0
M  V30 9080 H 862.404 -6.09421 -3.39488 0
M  V30 9081 H 858.301 -5.03844 -4.03499 0
M  V30 9082 H 859.069 -7.11425 -4.04744 0
M  V30 9083 N 861.732 1.21287 -1.00634 0
M  V30 9084 C 862.981 1.89706 -0.685178 0
M  V30 9085 C 863.294 1.79044 0.787566 0
M  V30 9086 O 864.5 2.42502 1.22086 0
M  V30 9087 C 862.956 3.40176 -1.17508 0
M  V30 9088 C 862.564 3.59446 -2.674 0
M  V30 9089 C 864.308 4.14213 -0.928869 0
M  V30 9090 C 862.215 5.03688 -3.09923 0
M  V30 9091 H 861.145 0.710434 -0.252586 0
M  V30 9092 H 863.796 1.37277 -1.21768 0
M  V30 9093 H 862.178 3.91867 -0.570622 0
M  V30 9094 H 863.352 3.18188 -3.33306 0
M  V30 9095 H 861.667 2.98764 -2.9005 0
M  V30 9096 H 864.264 5.20546 -1.22212 0
M  V30 9097 H 864.607 4.16082 0.134859 0
M  V30 9098 H 865.14 3.68591 -1.49619 0
M  V30 9099 H 861.879 5.06968 -4.15529 0
M  V30 9100 H 861.399 5.45796 -2.4873 0
M  V30 9101 H 863.078 5.72204 -3.0198 0
M  V30 9102 N 863.21 0.781244 1.36873 0
M  V30 9103 C 864.438 0.361566 2.03716 0
M  V30 9104 C 864.853 -1.01937 1.58916 0
M  V30 9105 O 864.21 -1.65237 0.774783 0
M  V30 9106 C 864.261 0.406391 3.59208 0
M  V30 9107 O 863.982 1.73286 4.02372 0
M  V30 9108 C 865.483 -0.0236894 4.43294 0
M  V30 9109 H 862.703 0.150133 0.653988 0
M  V30 9110 H 865.247 1.05781 1.75016 0
M  V30 9111 H 863.402 -0.241364 3.86647 0
M  V30 9112 H 863.816 1.67804 4.96933 0
M  V30 9113 H 865.29 0.0588205 5.51969 0
M  V30 9114 H 865.767 -1.07529 4.25833 0
M  V30 9115 H 866.373 0.59624 4.211 0
M  V30 9116 N 864.689 -1.48329 0.532571 0
M  V30 9117 C 865.937 -2.021 -0.000581206 0
M  V30 9118 C 866.258 -1.4117 -1.34522 0
M  V30 9119 O 865.528 -0.578005 -1.87179 0
M  V30 9120 H 864.108 -0.746993 -0.00320281 0
M  V30 9121 H 866.77 -1.82011 0.696991 0
M  V30 9122 H 865.866 -3.11917 -0.106991 0
M  V30 9123 N 866.167 -0.267825 -1.55308 0
M  V30 9124 C 867.077 0.633055 -2.25897 0
M  V30 9125 C 868.093 1.17613 -1.28231 0
M  V30 9126 O 869.269 1.20797 -1.61153 0
M  V30 9127 C 866.334 1.80397 -2.96071 0
M  V30 9128 C 865.395 1.29829 -4.09198 0
M  V30 9129 C 864.628 2.4134 -4.76016 0
M  V30 9130 O 864.851 3.60537 -4.42006 0
M  V30 9131 O 863.785 2.09909 -5.64111 0
M  V30 9132 H 867.611 0.0614381 -3.03638 0
M  V30 9133 H 865.196 -0.0355072 -1.49358 0
M  V30 9134 H 867.078 2.48685 -3.40197 0
M  V30 9135 H 865.753 2.36281 -2.21253 0
M  V30 9136 H 864.66 0.582086 -3.69544 0
M  V30 9137 H 865.993 0.785288 -4.85895 0
M  V30 9138 N 867.645 1.57599 0.00500368 0
M  V30 9139 C 868.608 2.07058 0.982832 0
M  V30 9140 C 869.608 0.979045 1.27559 0
M  V30 9141 O 870.798 1.24187 1.22161 0
M  V30 9142 C 867.93 2.50782 2.30914 0
M  V30 9143 H 869.123 2.94718 0.555119 0
M  V30 9144 H 866.676 1.54249 0.25237 0
M  V30 9145 H 867.411 1.66351 2.78385 0
M  V30 9146 H 867.196 3.30495 2.10987 0
M  V30 9147 H 868.686 2.89391 3.0107 0
M  V30 9148 N 869.123 -0.277682 1.55134 0
M  V30 9149 C 870.033 -1.36524 1.90783 0
M  V30 9150 C 871.049 -1.54283 0.804542 0
M  V30 9151 O 872.225 -1.68499 1.10318 0
M  V30 9152 C 869.29 -2.70524 2.16835 0
M  V30 9153 C 868.351 -2.61552 3.40424 0
M  V30 9154 C 867.584 -3.89162 3.65224 0
M  V30 9155 O 867.807 -4.89624 2.92616 0
M  V30 9156 O 866.741 -3.89647 4.58758 0
M  V30 9157 H 870.567 -1.0929 2.83354 0
M  V30 9158 H 868.152 -0.475799 1.41621 0
M  V30 9159 H 870.034 -3.49765 2.35038 0
M  V30 9160 H 868.709 -2.97555 1.27448 0
M  V30 9161 H 867.616 -1.80704 3.27562 0
M  V30 9162 H 868.949 -2.39472 4.30016 0
M  V30 9163 N 870.601 -1.47988 -0.541979 0
M  V30 9164 C 871.849 -1.55086 -1.29587 0
M  V30 9165 C 872.17 -0.221304 -1.9374 0
M  V30 9166 O 871.44 0.756128 -1.80719 0
M  V30 9167 H 870.02 -0.571307 -0.481266 0
M  V30 9168 H 872.682 -1.8438 -0.631675 0
M  V30 9169 H 871.778 -2.32556 -2.08144 0
M  V30 9170 N 872.079 0.78992 -1.36375 0
M  V30 9171 C 873.326 1.54777 -1.30576 0
M  V30 9172 C 873.654 1.94159 0.115095 0
M  V30 9173 O 872.909 1.62918 1.08426 0
M  V30 9174 C 873.208 2.83698 -2.17371 0
M  V30 9175 C 872.874 2.63457 -3.65925 0
M  V30 9176 C 871.536 2.57645 -4.06415 0
M  V30 9177 C 873.888 2.44833 -4.60115 0
M  V30 9178 C 871.216 2.31174 -5.39236 0
M  V30 9179 C 873.568 2.19889 -5.93154 0
M  V30 9180 C 872.232 2.1251 -6.32768 0
M  V30 9181 H 871.502 0.566371 -0.477813 0
M  V30 9182 H 874.149 0.91138 -1.68422 0
M  V30 9183 H 872.454 3.51802 -1.72459 0
M  V30 9184 H 874.151 3.41487 -2.10209 0
M  V30 9185 H 870.741 2.68836 -3.33804 0
M  V30 9186 H 874.925 2.48325 -4.29707 0
M  V30 9187 H 870.181 2.23942 -5.68911 0
M  V30 9188 H 874.355 2.04473 -6.65705 0
M  V30 9189 H 871.982 1.91761 -7.35616 0
M  V30 9190 N 873.557 1.20646 1.01402 0
M  V30 9191 C 874.968 1.01823 1.56489 0
M  V30 9192 C 875.319 -0.42463 1.9155 0
M  V30 9193 O 874.444 -1.30644 1.72514 0
M  V30 9194 C 875.039 1.84208 2.84347 0
M  V30 9195 C 873.598 1.69743 3.35953 0
M  V30 9196 C 872.745 1.8198 2.09233 0
M  V30 9197 H 875.696 1.348 0.837539 0
M  V30 9198 H 875.717 1.34698 3.55861 0
M  V30 9199 H 875.229 2.89215 2.58798 0
M  V30 9200 H 873.33 0.673833 3.66456 0
M  V30 9201 H 873.443 2.51173 4.07981 0
M  V30 9202 H 871.807 1.25193 2.21808 0
M  V30 9203 H 872.59 2.88477 1.86107 0
M  V30 9204 N 875.035 -1.20752 1.01276 0
M  V30 9205 C 875.998 -2.2162 0.584583 0
M  V30 9206 C 876.998 -1.57094 -0.343215 0
M  V30 9207 O 878.188 -1.73696 -0.132433 0
M  V30 9208 C 875.32 -3.40583 -0.146872 0
M  V30 9209 H 876.513 -2.61015 1.47686 0
M  V30 9210 H 874.066 -1.34148 0.802123 0
M  V30 9211 H 874.801 -3.06686 -1.05424 0
M  V30 9212 H 874.586 -3.88642 0.51958 0
M  V30 9213 H 876.076 -4.15339 -0.433924 0
M  V30 9214 N 876.513 -0.788492 -1.36457 0
M  V30 9215 C 877.741 -0.372365 -2.03522 0
M  V30 9216 C 878.156 1.01093 -1.59454 0
M  V30 9217 O 877.513 1.64824 -0.783535 0
M  V30 9218 C 877.564 -0.425435 -3.58988 0
M  V30 9219 O 877.285 -1.75418 -4.01448 0
M  V30 9220 C 878.786 0.000180167 -4.433 0
M  V30 9221 H 876.006 -0.1536 -0.653183 0
M  V30 9222 H 878.55 -1.06708 -1.74452 0
M  V30 9223 H 876.705 0.220856 -3.8677 0
M  V30 9224 H 877.119 -1.70437 -4.96036 0
M  V30 9225 H 878.593 -0.0880919 -5.5193 0
M  V30 9226 H 879.07 1.05269 -4.26398 0
M  V30 9227 H 879.676 -0.618563 -4.20778 0
M  V30 9228 N 877.991 1.48044 -0.54043 0
M  V30 9229 C 879.237 2.02797 -0.0101718 0
M  V30 9230 C 879.57 1.41565 1.32939 0
M  V30 9231 O 878.845 0.565139 1.86109 0
M  V30 9232 C 879.128 3.59959 0.100758 0
M  V30 9233 C 878.981 4.31654 -1.26471 0
M  V30 9234 C 880.3 4.32347 0.822455 0
M  V30 9235 H 877.419 0.736982 -0.00517052 0
M  V30 9236 H 880.061 1.76656 -0.69948 0
M  V30 9237 H 878.211 3.82363 0.687824 0
M  V30 9238 H 879.883 4.20639 -1.89369 0
M  V30 9239 H 878.126 3.92663 -1.84386 0
M  V30 9240 H 878.797 5.401 -1.13998 0
M  V30 9241 H 881.273 4.14835 0.324164 0
M  V30 9242 H 880.149 5.41978 0.868993 0
M  V30 9243 H 880.41 4.00369 1.87501 0
M  V30 9244 O 879.508 0.418012 1.55996 0
M  V30 9245 H 880.199 -0.120381 1.93326 0
M  V30 END ATOM
M  V30 BEGIN BOND
M  V30 END BOND
M  V30 END CTAB
M  END
$$$$
