drugbank_target|P31644 Gamma-aminobutyric acid receptor subunit alpha-5 (DB00186; DB00189; DB00228; DB00231; DB00237; DB00241; DB00252; DB00292; DB00306; DB00312; DB00349; DB00371; DB00402; DB00404; DB00463; DB00475; DB00543; DB00546; DB00555; DB00603; DB00628; DB00659; DB00683; DB00690; DB00753; DB00794; DB00801; DB00818; DB00829; DB00842; DB00897; DB01028; DB01043; DB01068; DB01107; DB01159; DB01189; DB01205; DB01215; DB01236; DB01437; DB01489; DB01511; DB01544; DB01545; DB01553; DB01558; DB01559; DB01587; DB01588; DB01589; DB01594; DB01595; DB01708; DB01956; DB09017; DB09118; DB09166; DB11582; DB11859; DB11901; DB12404; DB12537; DB13335; DB13437; DB13643; DB13837; DB13872; DB14028; DB14672; DB14715; DB14719; DB15489)
 OpenBabel12092119323D

  0  0  0     0  0            999 V3000
M  V30 BEGIN CTAB
M  V30 COUNTS 7345 7434 0 0 0
M  V30 BEGIN ATOM
M  V30 1 H -0.908 1.98254 -0.117106 0
M  V30 2 N 0 1.576 0 0
M  V30 3 C 0.933 2.03868 1.02534 0
M  V30 4 C 1.911 0.928543 1.3348 0
M  V30 5 O 3.095 1.19667 1.45644 0
M  V30 6 C 0.222 2.43627 2.35294 0
M  V30 7 C -0.732 3.65373 2.2001 0
M  V30 8 S 0.101 5.13292 1.52614 0
M  V30 9 C 1.257 5.56322 2.86805 0
M  V30 10 H 1.49 2.90518 0.631377 0
M  V30 11 H -0.977 1.52953 0.210867 0
M  V30 12 H 0.981 2.67203 3.11629 0
M  V30 13 H -0.358 1.57376 2.7183 0
M  V30 14 H -1.165 3.90944 3.18086 0
M  V30 15 H -1.563 3.418 1.51819 0
M  V30 16 H 0.729 5.58782 3.83104 0
M  V30 17 H 1.672 6.56266 2.65933 0
M  V30 18 H 2.08 4.83886 2.90714 0
M  V30 19 N 1.4781 -0.272755 1.55222 0
M  V30 20 C 2.7551 -1.02562 1.66555 0
M  V30 21 C 3.1351 -2.04282 0.532189 0
M  V30 22 O 2.4831 -2.23662 -0.467717 0
M  V30 23 C 2.6931 -1.6822 3.05782 0
M  V30 24 C 4.0411 -2.19373 3.63539 0
M  V30 25 O 5.0651 -1.78206 3.08417 0
M  V30 26 O 3.9241 -2.94883 4.60115 0
M  V30 27 H 1.0181 -0.475755 0.676451 0
M  V30 28 H 3.5641 -0.268593 1.67561 0
M  V30 29 H 2.3361 -0.945112 3.79715 0
M  V30 30 H 1.9591 -2.50609 3.08676 0
M  V30 31 N 2.9562 -1.48159 -0.537278 0
M  V30 32 C 3.9042 -1.62573 -1.66352 0
M  V30 33 C 4.8982 -0.492366 -1.62087 0
M  V30 34 O 6.1042 -0.670847 -1.67032 0
M  V30 35 H 2.4792 -0.511992 -0.550789 0
M  V30 36 H 4.4502 -2.57176 -1.51337 0
M  V30 37 C 3.1992 -1.67583 -3.04649 0
M  V30 38 H 2.5222 -2.54151 -3.08622 0
M  V30 39 H 3.9622 -1.81713 -3.83088 0
M  V30 40 C 2.4212 -0.413039 -3.34358 0
M  V30 41 O 2.9512 0.477259 -3.98855 0
M  V30 42 N 1.1572 -0.286961 -2.8918 0
M  V30 43 H 0.7042 -1.01241 -2.36871 0
M  V30 44 H 0.6622 0.556963 -3.09427 0
M  V30 45 N 4.4343 0.785586 -1.36625 0
M  V30 46 C 5.6823 1.54057 -1.30808 0
M  V30 47 C 6.0033 1.94683 0.111157 0
M  V30 48 O 5.2733 1.65241 1.05224 0
M  V30 49 H 3.8533 0.571354 -0.481211 0
M  V30 50 H 6.5153 0.935821 -1.70963 0
M  V30 51 H 5.6113 2.44637 -1.93801 0
M  V30 52 N 5.9124 1.20967 1.01018 0
M  V30 53 C 6.8454 0.907578 2.09376 0
M  V30 54 C 7.8234 -0.142868 1.61971 0
M  V30 55 O 9.0074 -0.0150391 1.88494 0
M  V30 56 C 6.1344 0.361791 3.36762 0
M  V30 57 C 5.1804 1.39423 4.03068 0
M  V30 58 S 6.0134 2.96159 4.4615 0
M  V30 59 C 7.1694 2.43173 5.7673 0
M  V30 60 H 7.4024 1.82519 2.34678 0
M  V30 61 H 4.9354 1.03884 1.14225 0
M  V30 62 H 6.8934 0.0534523 4.10465 0
M  V30 63 H 5.5544 -0.53443 3.0952 0
M  V30 64 H 4.7474 0.961853 4.94737 0
M  V30 65 H 4.3494 1.65038 3.35617 0
M  V30 66 H 6.6414 1.83335 6.52223 0
M  V30 67 H 7.5844 3.33264 6.24773 0
M  V30 68 H 7.9924 1.85069 5.33301 0
M  V30 69 N 7.3905 -1.2043 1.01659 0
M  V30 70 C 8.6375 -1.89797 0.705917 0
M  V30 71 C 8.9655 -1.78848 -0.764439 0
M  V30 72 O 8.2205 -1.16694 -1.57102 0
M  V30 73 C 8.5195 -3.40464 1.08714 0
M  V30 74 C 8.1855 -3.71614 2.5537 0
M  V30 75 C 6.8475 -3.79826 2.95441 0
M  V30 76 C 9.1995 -3.85915 3.50313 0
M  V30 77 C 6.5275 -3.99797 4.29394 0
M  V30 78 C 8.8795 -4.07396 4.83954 0
M  V30 79 C 7.5435 -4.13837 5.23732 0
M  V30 80 H 6.8135 -0.694518 0.258313 0
M  V30 81 H 9.4605 -1.42691 1.27717 0
M  V30 82 H 7.7655 -3.89385 0.434309 0
M  V30 83 H 9.4625 -3.92433 0.824461 0
M  V30 84 H 6.0525 -3.65822 2.23321 0
M  V30 85 H 10.2365 -3.78926 3.20513 0
M  V30 86 H 5.4925 -4.03018 4.59768 0
M  V30 87 H 9.6665 -4.17404 5.57447 0
M  V30 88 H 7.2935 -4.29064 6.27541 0
M  V30 89 N 8.8686 -0.792821 -1.36206 0
M  V30 90 C 10.0936 -0.377701 -2.03932 0
M  V30 91 C 10.5186 0.998947 -1.59382 0
M  V30 92 O 9.8766 1.64421 -0.763903 0
M  V30 93 C 9.9246 -0.453635 -3.57735 0
M  V30 94 O 9.0286 0.538151 -4.08874 0
M  V30 95 H 8.3696 -0.159855 -0.644471 0
M  V30 96 H 10.8996 -1.07488 -1.7409 0
M  V30 97 H 10.9096 -0.318464 -4.06755 0
M  V30 98 H 9.5846 -1.45784 -3.89512 0
M  V30 99 H 8.1616 0.364359 -3.71116 0
M  V30 100 N 10.3467 1.47872 -0.545128 0
M  V30 101 C 11.5947 2.02093 -0.016553 0
M  V30 102 C 11.9157 1.42305 1.3332 0
M  V30 103 O 11.1857 0.593853 1.86682 0
M  V30 104 H 9.7657 0.746993 -0.00313038 0
M  V30 105 H 12.4277 1.81414 -0.712397 0
M  V30 106 H 11.5237 3.11996 0.0805422 0
M  V30 107 N 11.8248 0.280983 1.55075 0
M  V30 108 C 13.0718 -0.334115 1.99725 0
M  V30 109 C 13.3998 -1.5542 1.1694 0
M  V30 110 O 12.6548 -1.94361 0.228531 0
M  V30 111 C 12.9538 -0.754656 3.49342 0
M  V30 112 C 12.6198 0.361445 4.49449 0
M  V30 113 C 11.2818 0.667893 4.76542 0
M  V30 114 C 13.6338 1.11322 5.09173 0
M  V30 115 C 10.9618 1.7296 5.60626 0
M  V30 116 C 13.3138 2.1647 5.9441 0
M  V30 117 C 11.9778 2.47742 6.19822 0
M  V30 118 H 11.2478 -0.122261 0.730844 0
M  V30 119 H 13.8948 0.395917 1.87363 0
M  V30 120 H 12.1998 -1.56446 3.5921 0
M  V30 121 H 13.8968 -1.24142 3.813 0
M  V30 122 H 10.4868 0.112481 4.28452 0
M  V30 123 H 14.6708 0.88973 4.8826 0
M  V30 124 H 9.9268 1.97684 5.78559 0
M  V30 125 H 14.1008 2.75193 6.3972 0
M  V30 126 H 11.7278 3.30145 6.84769 0
M  V30 127 N 13.3029 -1.57598 0.00835791 0
M  V30 128 C 14.5519 -1.90107 -0.673968 0
M  V30 129 C 14.8649 -0.884275 -1.7447 0
M  V30 130 O 16.0709 -1.09987 -2.48224 0
M  V30 131 C 14.5269 -3.37497 -1.24995 0
M  V30 132 C 14.1349 -4.47491 -0.2136 0
M  V30 133 C 15.8789 -3.79104 -1.90999 0
M  V30 134 C 13.7859 -5.85963 -0.80005 0
M  V30 135 H 12.7159 -0.709393 -0.255495 0
M  V30 136 H 15.3669 -1.83365 0.0702693 0
M  V30 137 H 13.7489 -3.39102 -2.04513 0
M  V30 138 H 14.9229 -4.57414 0.557596 0
M  V30 139 H 13.2379 -4.14956 0.346474 0
M  V30 140 H 15.8349 -4.79901 -2.35795 0
M  V30 141 H 16.1779 -3.1306 -2.74407 0
M  V30 142 H 16.7109 -3.79833 -1.18203 0
M  V30 143 H 13.4499 -6.555 -0.00456708 0
M  V30 144 H 12.9699 -5.79687 -1.54021 0
M  V30 145 H 14.6489 -6.33884 -1.29615 0
M  V30 146 N 14.781 0.264519 -1.55364 0
M  V30 147 C 15.714 1.35297 -1.83766 0
M  V30 148 C 16.692 1.47171 -0.691336 0
M  V30 149 O 17.876 1.63663 -0.935238 0
M  V30 150 C 15.003 2.72847 -2.00679 0
M  V30 151 C 14.049 2.78214 -3.23263 0
M  V30 152 S 14.882 2.36601 -4.80396 0
M  V30 153 C 16.038 3.7611 -5.00292 0
M  V30 154 H 16.271 1.11003 -2.758 0
M  V30 155 H 13.804 0.464596 -1.47244 0
M  V30 156 H 15.762 3.52057 -2.11108 0
M  V30 157 H 14.423 2.94388 -1.09518 0
M  V30 158 H 13.616 3.7919 -3.3201 0
M  V30 159 H 13.218 2.07034 -3.11469 0
M  V30 160 H 15.51 4.71457 -4.86554 0
M  V30 161 H 16.453 3.7231 -6.02321 0
M  V30 162 H 16.861 3.67806 -4.28228 0
M  V30 163 N 16.2591 1.48442 0.529413 0
M  V30 164 C 17.5081 1.55742 1.28169 0
M  V30 165 C 17.8211 0.236511 1.94165 0
M  V30 166 O 19.0271 0.187761 2.7085 0
M  V30 167 C 17.4831 2.74667 2.32564 0
M  V30 168 C 17.0911 4.13402 1.72636 0
M  V30 169 C 18.8351 2.9128 3.08798 0
M  V30 170 C 16.7421 5.23587 2.74975 0
M  V30 171 H 15.6721 0.579796 0.48203 0
M  V30 172 H 18.3231 1.74776 0.559056 0
M  V30 173 H 16.7051 2.49067 3.07866 0
M  V30 174 H 17.8791 4.49022 1.03519 0
M  V30 175 H 16.1941 4.0191 1.08892 0
M  V30 176 H 18.7911 3.70767 3.85274 0
M  V30 177 H 19.1341 2.00757 3.64695 0
M  V30 178 H 19.6671 3.16782 2.40611 0
M  V30 179 H 16.4061 6.16076 2.23897 0
M  V30 180 H 15.9261 4.92454 3.42417 0
M  V30 181 H 17.6051 5.51724 3.37949 0
M  V30 182 N 17.7372 -0.778329 1.37039 0
M  V30 183 C 18.6842 -1.89139 1.32269 0
M  V30 184 C 19.6542 -1.65017 0.189387 0
M  V30 185 O 20.8392 -1.87024 0.377693 0
M  V30 186 C 17.9792 -3.26112 1.12894 0
M  V30 187 C 17.0922 -3.62233 2.35396 0
M  V30 188 C 16.2272 -4.8838 2.08946 0
M  V30 189 C 15.2662 -5.17212 3.2735 0
M  V30 190 N 14.4032 -6.34546 3.00492 0
M  V30 191 H 19.2432 -1.92552 2.27437 0
M  V30 192 H 16.7802 -0.941473 1.13025 0
M  V30 193 H 18.7382 -4.05116 0.996835 0
M  V30 194 H 17.3682 -3.22091 0.213758 0
M  V30 195 H 16.4202 -2.78265 2.5937 0
M  V30 196 H 17.7322 -3.79481 3.23721 0
M  V30 197 H 16.8862 -5.75274 1.92729 0
M  V30 198 H 15.6252 -4.73222 1.17949 0
M  V30 199 H 14.6302 -4.28796 3.44113 0
M  V30 200 H 15.8552 -5.34283 4.19188 0
M  V30 201 H 13.8012 -6.20759 2.12118 0
M  V30 202 H 13.7182 -6.52179 3.82358 0
M  V30 203 H 14.9862 -7.24394 2.87879 0
M  V30 204 N 19.2153 -1.21501 -1.00376 0
M  V30 205 C 20.1633 -0.972442 -2.11297 0
M  V30 206 C 21.1573 0.080731 -1.69208 0
M  V30 207 O 22.3633 -0.0707666 -1.79861 0
M  V30 208 H 18.7383 -0.297218 -0.690772 0
M  V30 209 H 20.7093 -1.91394 -2.28934 0
M  V30 210 C 19.4583 -0.555065 -3.43241 0
M  V30 211 H 18.7813 -1.35709 -3.76062 0
M  V30 212 H 20.2213 -0.424664 -4.21868 0
M  V30 213 C 18.6803 0.734147 -3.28804 0
M  V30 214 O 19.2103 1.78937 -3.59645 0
M  V30 215 N 17.4163 0.701133 -2.82015 0
M  V30 216 H 16.9633 -0.157874 -2.57116 0
M  V30 217 H 16.9213 1.56403 -2.72737 0
M  V30 218 N 20.6934 1.19889 -1.02296 0
M  V30 219 C 21.6234 2.25141 -0.619174 0
M  V30 220 C 22.6044 1.66051 0.368915 0
M  V30 221 O 23.7894 1.92546 0.252941 0
M  V30 222 C 20.9194 3.4728 0.0368783 0
M  V30 223 C 19.8734 4.19005 -0.872865 0
M  V30 224 C 19.1994 5.34637 -0.0822402 0
M  V30 225 C 20.4994 4.74452 -2.18387 0
M  V30 226 H 22.1934 2.59171 -1.49903 0
M  V30 227 H 19.7394 1.24579 -0.722222 0
M  V30 228 H 21.6924 4.20098 0.330958 0
M  V30 229 H 20.4164 3.12433 0.95149 0
M  V30 230 H 19.0754 3.48061 -1.15105 0
M  V30 231 H 18.7234 4.96034 0.83422 0
M  V30 232 H 18.4234 5.83557 -0.688149 0
M  V30 233 H 19.9474 6.10255 0.205238 0
M  V30 234 H 21.3614 5.39055 -1.95172 0
M  V30 235 H 19.7584 5.33834 -2.74119 0
M  V30 236 H 20.8284 3.92844 -2.84257 0
M  V30 237 N 22.1715 0.800033 1.35784 0
M  V30 238 C 23.1015 0.220184 2.3246 0
M  V30 239 C 24.0825 -0.65073 1.57161 0
M  V30 240 O 25.2675 -0.582359 1.85263 0
M  V30 241 C 22.3975 -0.637353 3.41402 0
M  V30 242 C 21.3515 0.134531 4.27789 0
M  V30 243 C 20.6775 -0.844285 5.27992 0
M  V30 244 C 21.9775 1.32979 5.05088 0
M  V30 245 H 23.6715 1.02787 2.81203 0
M  V30 246 H 21.2175 0.495717 1.35199 0
M  V30 247 H 23.1705 -1.05302 4.08031 0
M  V30 248 H 21.8945 -1.47785 2.91251 0
M  V30 249 H 20.5535 0.531296 3.6273 0
M  V30 250 H 20.2015 -1.68011 4.74111 0
M  V30 251 H 19.9015 -0.332184 5.8666 0
M  V30 252 H 21.4255 -1.2583 5.97494 0
M  V30 253 H 22.8395 0.98934 5.64699 0
M  V30 254 H 21.2365 1.77593 5.7322 0
M  V30 255 H 22.3065 2.11978 4.36111 0
M  V30 256 N 23.6496 -1.47581 0.552962 0
M  V30 257 C 24.5796 -2.32762 -0.185451 0
M  V30 258 C 25.5606 -1.43527 -0.912905 0
M  V30 259 O 26.7456 -1.72388 -0.894201 0
M  V30 260 C 23.8756 -3.25219 -1.21859 0
M  V30 261 C 22.8296 -4.23661 -0.607864 0
M  V30 262 C 22.1556 -5.05413 -1.74533 0
M  V30 263 C 23.4556 -5.20481 0.435582 0
M  V30 264 H 25.1496 -2.94749 0.525684 0
M  V30 265 H 22.6956 -1.41738 0.254251 0
M  V30 266 H 24.6486 -3.8365 -1.7433 0
M  V30 267 H 23.3726 -2.61279 -1.95961 0
M  V30 268 H 22.0316 -3.66451 -0.104489 0
M  V30 269 H 21.6796 -4.3788 -2.47529 0
M  V30 270 H 21.3796 -5.72059 -1.34249 0
M  V30 271 H 22.9036 -5.66701 -2.27338 0
M  V30 272 H 24.3176 -5.733 -0.00290157 0
M  V30 273 H 22.7146 -5.95305 0.757067 0
M  V30 274 H 23.7846 -4.66217 1.33303 0
M  V30 275 N 25.1277 -0.289203 -1.54924 0
M  V30 276 C 26.3747 0.323519 -1.99899 0
M  V30 277 C 26.7027 1.54797 -1.17762 0
M  V30 278 O 25.9577 1.94237 -0.238835 0
M  V30 279 C 26.2567 0.736119 -3.49737 0
M  V30 280 C 25.9227 -0.385276 -4.49251 0
M  V30 281 C 24.5847 -0.693156 -4.76181 0
M  V30 282 C 26.9367 -1.14021 -5.08575 0
M  V30 283 C 24.2647 -1.7593 -5.59701 0
M  V30 284 C 26.6167 -2.19619 -5.93254 0
M  V30 285 C 25.2807 -2.51026 -6.185 0
M  V30 286 H 24.5507 0.118384 -0.731482 0
M  V30 287 H 27.1977 -0.405847 -1.8715 0
M  V30 288 H 25.5027 1.54539 -3.60035 0
M  V30 289 H 27.1997 1.22118 -3.81953 0
M  V30 290 H 23.7897 -0.135202 -4.28387 0
M  V30 291 H 27.9737 -0.915611 -4.87781 0
M  V30 292 H 23.2297 -2.0075 -5.77503 0
M  V30 293 H 27.4037 -2.78581 -6.38252 0
M  V30 294 H 25.0307 -3.33772 -6.83008 0
M  V30 295 N 26.6058 1.57591 -0.0167156 0
M  V30 296 C 27.8458 1.93145 0.668902 0
M  V30 297 C 28.2098 0.892406 1.7 0
M  V30 298 O 29.4108 1.13373 2.43721 0
M  V30 299 C 27.6818 3.33678 1.28039 0
M  V30 300 S 29.2408 3.91142 1.9888 0
M  V30 301 H 26.0588 0.67593 0.220545 0
M  V30 302 H 28.6608 1.95347 -0.0774105 0
M  V30 303 H 27.3648 4.07126 0.517339 0
M  V30 304 H 26.8958 3.3489 2.06427 0
M  V30 305 H 28.9108 3.73571 3.26587 0
M  V30 306 N 28.0839 -0.256276 1.55502 0
M  V30 307 C 29.3329 -0.983486 1.76098 0
M  V30 308 C 29.6459 -1.86837 0.578896 0
M  V30 309 O 30.8519 -2.63163 0.667648 0
M  V30 310 C 29.3079 -1.79868 3.1173 0
M  V30 311 C 28.9159 -0.961648 4.37557 0
M  V30 312 C 30.6599 -2.51919 3.41668 0
M  V30 313 C 28.5669 -1.77219 5.64223 0
M  V30 314 H 27.4969 -0.370936 0.656447 0
M  V30 315 H 30.1479 -0.238492 1.81944 0
M  V30 316 H 28.5299 -2.58527 2.99966 0
M  V30 317 H 29.7039 -0.218048 4.60284 0
M  V30 318 H 28.0189 -0.354913 4.14885 0
M  V30 319 H 30.6159 -3.12998 4.33516 0
M  V30 320 H 30.9589 -3.23059 2.62562 0
M  V30 321 H 31.4919 -1.80278 3.54605 0
M  V30 322 H 28.2309 -1.10471 6.46124 0
M  V30 323 H 27.7509 -2.49132 5.45613 0
M  V30 324 H 29.4299 -2.34169 6.03137 0
M  V30 325 N 29.562 -1.4872 -0.521534 0
M  V30 326 C 30.787 -1.61101 -1.30618 0
M  V30 327 C 31.212 -0.274611 -1.86085 0
M  V30 328 O 30.57 0.754937 -1.64834 0
M  V30 329 C 30.618 -2.66709 -2.4269 0
M  V30 330 O 29.722 -2.24456 -3.45967 0
M  V30 331 H 29.063 -0.539921 -0.386499 0
M  V30 332 H 31.593 -1.94767 -0.626645 0
M  V30 333 H 31.603 -2.88245 -2.88754 0
M  V30 334 H 30.278 -3.63727 -2.01682 0
M  V30 335 H 28.855 -2.13168 -3.05964 0
M  V30 336 N 31.0401 0.771051 -1.3745 0
M  V30 337 C 31.9731 1.89166 -1.27638 0
M  V30 338 C 32.9511 1.61842 -0.156782 0
M  V30 339 O 34.1351 1.85569 -0.331111 0
M  V30 340 C 31.2621 3.24405 -0.973621 0
M  V30 341 C 30.3081 3.70638 -2.1102 0
M  V30 342 S 31.1411 3.84228 -3.73 0
M  V30 343 C 32.2971 5.22313 -3.44876 0
M  V30 344 H 32.5301 1.972 -2.22485 0
M  V30 345 H 30.0631 0.932224 -1.23081 0
M  V30 346 H 32.0211 4.02514 -0.805766 0
M  V30 347 H 30.6821 3.14071 -0.0426279 0
M  V30 348 H 29.8751 4.68685 -1.85338 0
M  V30 349 H 29.4771 2.99632 -2.23822 0
M  V30 350 H 31.7691 6.07505 -2.99908 0
M  V30 351 H 32.7121 5.53008 -4.42253 0
M  V30 352 H 33.1201 4.90284 -2.79789 0
M  V30 353 N 32.5182 1.22032 0.997298 0
M  V30 354 C 33.4662 0.983634 2.10778 0
M  V30 355 C 34.4602 -0.0717564 1.69248 0
M  V30 356 O 35.6662 0.080304 1.79821 0
M  V30 357 H 32.0412 0.300877 0.689186 0
M  V30 358 H 34.0122 1.92606 2.27916 0
M  V30 359 C 32.7612 0.57326 3.42942 0
M  V30 360 H 32.0842 1.37702 3.75338 0
M  V30 361 H 33.5242 0.447031 4.21637 0
M  V30 362 C 31.9832 -0.7167 3.29188 0
M  V30 363 O 32.5132 -1.77027 3.60589 0
M  V30 364 N 30.7192 -0.686167 2.82383 0
M  V30 365 H 30.2662 0.171507 2.57028 0
M  V30 366 H 30.2242 -1.54955 2.73562 0
M  V30 367 N 33.9963 -1.19345 1.0293 0
M  V30 368 C 34.9263 -2.2481 0.631105 0
M  V30 369 C 35.9073 -1.66245 -0.360104 0
M  V30 370 O 37.0923 -1.92677 -0.242726 0
M  V30 371 C 34.2223 -3.47295 -0.0184607 0
M  V30 372 C 33.1763 -4.18536 0.895073 0
M  V30 373 C 32.5023 -5.34586 0.110592 0
M  V30 374 C 33.8023 -4.73287 2.209 0
M  V30 375 H 35.4963 -2.58372 1.51275 0
M  V30 376 H 33.0423 -1.24194 0.728818 0
M  V30 377 H 34.9953 -4.20268 -0.308675 0
M  V30 378 H 33.7193 -3.12933 -0.934907 0
M  V30 379 H 32.3783 -3.47446 1.16949 0
M  V30 380 H 32.0263 -4.96469 -0.807902 0
M  V30 381 H 31.7263 -5.83183 0.719087 0
M  V30 382 H 33.2503 -6.10355 -0.172871 0
M  V30 383 H 34.6643 -5.38013 1.98028 0
M  V30 384 H 33.0613 -5.32373 2.76946 0
M  V30 385 H 34.1313 -3.91331 2.86336 0
M  V30 386 N 35.4744 -0.807222 -1.35358 0
M  V30 387 C 36.6994 -0.399309 -2.0352 0
M  V30 388 C 37.1244 0.981986 -1.60433 0
M  V30 389 O 36.4824 1.63601 -0.781299 0
M  V30 390 C 36.5304 -0.491552 -3.57234 0
M  V30 391 O 35.6344 0.494754 -4.09421 0
M  V30 392 H 34.9754 -0.166682 -0.642739 0
M  V30 393 H 37.5054 -1.09328 -1.72941 0
M  V30 394 H 37.5154 -0.361588 -4.06395 0
M  V30 395 H 36.1904 -1.49907 -3.87944 0
M  V30 396 H 34.7674 0.324977 -3.71481 0
M  V30 397 N 36.9525 1.47285 -0.560781 0
M  V30 398 C 38.1775 2.07359 -0.0410566 0
M  V30 399 C 38.6025 1.41017 1.24483 0
M  V30 400 O 37.9605 0.486368 1.74654 0
M  V30 401 C 38.0085 3.6035 0.134123 0
M  V30 402 O 37.1125 3.94681 1.19587 0
M  V30 403 H 36.4535 0.661887 -0.0529291 0
M  V30 404 H 38.9835 1.89252 -0.777482 0
M  V30 405 H 38.9935 4.0652 0.347207 0
M  V30 406 H 37.6685 4.08034 -0.805047 0
M  V30 407 H 36.2455 3.60251 0.962987 0
M  V30 408 N 38.4306 0.297415 1.54768 0
M  V30 409 C 39.3806 -0.595275 2.20092 0
M  V30 410 C 40.3646 -1.10163 1.17273 0
M  V30 411 O 41.5566 -1.043 1.43006 0
M  V30 412 C 38.6856 -1.7684 2.94249 0
M  V30 413 C 37.7716 -1.27818 4.0438 0
M  V30 414 N 38.1626 -0.505695 5.03266 0
M  V30 415 C 36.4606 -1.55923 4.17857 0
M  V30 416 C 37.1616 -0.245094 5.81183 0
M  V30 417 N 36.1376 -0.823881 5.3732 0
M  V30 418 H 39.9396 0.00250837 2.939 0
M  V30 419 H 37.4536 0.102007 1.62079 0
M  V30 420 H 39.4506 -2.41944 3.39513 0
M  V30 421 H 38.1106 -2.36992 2.21957 0
M  V30 422 H 39.1216 -0.150928 5.1768 0
M  V30 423 H 35.7986 -2.16849 3.56767 0
M  V30 424 H 37.1886 0.375084 6.70852 0
M  V30 425 N 39.9087 -1.5758 0.0250728 0
M  V30 426 C 41.1557 -1.91633 -0.654444 0
M  V30 427 C 41.4837 -0.901103 -1.72367 0
M  V30 428 O 40.7387 0.0905647 -1.9549 0
M  V30 429 C 41.0377 -3.32421 -1.31268 0
M  V30 430 C 40.7037 -4.49344 -0.374223 0
M  V30 431 C 39.3657 -4.8106 -0.115911 0
M  V30 432 C 41.7177 -5.20498 0.270432 0
M  V30 433 C 39.0457 -5.8129 0.79493 0
M  V30 434 C 41.3977 -6.21699 1.1693 0
M  V30 435 C 40.0617 -6.51859 1.43655 0
M  V30 436 H 39.3317 -0.701236 -0.239478 0
M  V30 437 H 41.9787 -1.91307 0.0859734 0
M  V30 438 H 40.2837 -3.28989 -2.12775 0
M  V30 439 H 41.9807 -3.56038 -1.84494 0
M  V30 440 H 38.5707 -4.24579 -0.58573 0
M  V30 441 H 42.7547 -4.96229 0.0839194 0
M  V30 442 H 38.0107 -6.03005 1.00973 0
M  V30 443 H 42.1847 -6.75955 1.67504 0
M  V30 444 H 39.8117 -7.2934 2.144 0
M  V30 445 N 41.3868 0.248026 -1.55636 0
M  V30 446 C 42.6348 0.974295 -1.77065 0
M  V30 447 C 42.9558 1.85897 -0.588849 0
M  V30 448 O 42.2258 1.91868 0.395407 0
M  V30 449 H 40.8058 0.362733 -0.653019 0
M  V30 450 H 43.4678 0.266244 -1.93073 0
M  V30 451 H 42.5638 1.59667 -2.68166 0
M  V30 452 N 42.8649 1.48995 0.513639 0
M  V30 453 C 44.1119 1.57843 1.26854 0
M  V30 454 C 44.4399 0.259501 1.92761 0
M  V30 455 O 43.6949 -0.75159 1.80692 0
M  V30 456 C 43.9939 2.67756 2.36731 0
M  V30 457 C 43.6599 4.09669 1.88368 0
M  V30 458 C 42.3219 4.48291 1.74896 0
M  V30 459 C 44.6739 4.98537 1.52021 0
M  V30 460 C 42.0019 5.73568 1.23438 0
M  V30 461 C 44.3539 6.24319 1.0202 0
M  V30 462 C 43.0179 6.61783 0.871778 0
M  V30 463 H 42.2879 0.577587 0.464192 0
M  V30 464 H 44.9349 1.82778 0.571366 0
M  V30 465 H 43.2399 2.36743 3.12185 0
M  V30 466 H 44.9369 2.71813 2.9482 0
M  V30 467 H 41.5269 3.79176 1.99808 0
M  V30 468 H 45.7109 4.69363 1.61281 0
M  V30 469 H 40.9669 6.01304 1.10648 0
M  V30 470 H 45.1409 6.92566 0.729722 0
M  V30 471 H 42.7679 7.5874 0.470852 0
M  V30 472 N 44.343 -0.763751 1.37857 0
M  V30 473 C 45.568 -1.55805 1.36893 0
M  V30 474 C 45.993 -1.88054 -0.0416135 0
M  V30 475 O 45.351 -1.49825 -1.02089 0
M  V30 476 C 45.399 -2.84012 2.22192 0
M  V30 477 O 44.503 -3.78732 1.63204 0
M  V30 478 H 43.844 -0.471638 0.46739 0
M  V30 479 H 46.374 -0.944657 1.81487 0
M  V30 480 H 46.384 -3.33037 2.35691 0
M  V30 481 H 45.059 -2.59869 3.24716 0
M  V30 482 H 43.636 -3.37402 1.58791 0
M  V30 483 N 45.8211 -1.22559 -0.990812 0
M  V30 484 C 46.7531 -0.955325 -2.08342 0
M  V30 485 C 47.7661 0.0668408 -1.62663 0
M  V30 486 O 48.9551 -0.167421 -1.77713 0
M  V30 487 C 46.0551 -0.415566 -3.36342 0
M  V30 488 C 45.2281 -1.49544 -4.11042 0
M  V30 489 C 44.2871 -0.962399 -5.17324 0
M  V30 490 O 43.3131 -1.64907 -5.44788 0
M  V30 491 N 44.5151 0.215134 -5.80101 0
M  V30 492 H 47.2801 -1.89596 -2.32106 0
M  V30 493 H 44.8411 -1.13276 -1.15673 0
M  V30 494 H 46.8331 -0.0442386 -4.04676 0
M  V30 495 H 45.4031 0.430232 -3.09625 0
M  V30 496 H 44.6231 -2.04 -3.37309 0
M  V30 497 H 45.9111 -2.22195 -4.57719 0
M  V30 498 H 45.3091 0.789779 -5.6016 0
M  V30 499 H 43.8661 0.527826 -6.49659 0
M  V30 500 N 47.2992 1.18797 -1.03562 0
M  V30 501 C 48.2322 2.2105 -0.56676 0
M  V30 502 C 49.2102 1.57704 0.395993 0
M  V30 503 O 50.3942 1.85908 0.311498 0
M  V30 504 C 47.5212 3.38259 0.172704 0
M  V30 505 C 46.5672 4.19987 -0.74252 0
M  V30 506 S 47.4002 4.87199 -2.22254 0
M  V30 507 C 48.5562 6.07813 -1.49379 0
M  V30 508 H 48.7892 2.60478 -1.43312 0
M  V30 509 H 46.3222 1.29151 -0.846133 0
M  V30 510 H 48.2802 4.06191 0.593191 0
M  V30 511 H 46.9412 2.97252 1.01488 0
M  V30 512 H 46.1342 5.03709 -0.171265 0
M  V30 513 H 45.7362 3.57408 -1.10163 0
M  V30 514 H 48.0282 6.72948 -0.784056 0
M  V30 515 H 48.9712 6.69435 -2.30786 0
M  V30 516 H 49.3792 5.55781 -0.988331 0
M  V30 517 N 48.7773 0.814389 1.34928 0
M  V30 518 C 50.1883 0.458364 1.80986 0
M  V30 519 C 50.5393 -1.02042 1.67577 0
M  V30 520 O 49.6643 -1.79352 1.21086 0
M  V30 521 C 50.2593 0.825212 3.28597 0
M  V30 522 C 48.8183 0.521677 3.72767 0
M  V30 523 C 47.9653 1.04668 2.56788 0
M  V30 524 H 50.9163 1.00533 1.22795 0
M  V30 525 H 50.9373 0.12571 3.80292 0
M  V30 526 H 50.4493 1.90154 3.38324 0
M  V30 527 H 48.5503 -0.545589 3.68584 0
M  V30 528 H 48.6633 1.05977 4.67232 0
M  V30 529 H 47.0273 0.468622 2.50352 0
M  V30 530 H 47.8103 2.12927 2.6929 0
M  V30 531 N 50.2554 -1.46986 0.568584 0
M  V30 532 C 51.4834 -2.0683 0.0539956 0
M  V30 533 C 51.8984 -1.41953 -1.24478 0
M  V30 534 O 51.2554 -0.519933 -1.74937 0
M  V30 535 C 51.3064 -3.61254 -0.133362 0
M  V30 536 O 51.0274 -4.237 1.11399 0
M  V30 537 C 52.5284 -4.37992 -0.683927 0
M  V30 538 H 49.7484 -0.669058 0.0510141 0
M  V30 539 H 52.2924 -1.88824 0.785234 0
M  V30 540 H 50.4474 -3.78735 -0.81477 0
M  V30 541 H 50.8614 -5.16388 0.91888 0
M  V30 542 H 52.3354 -5.46684 -0.764263 0
M  V30 543 H 52.8124 -4.05058 -1.69778 0
M  V30 544 H 53.4184 -4.25283 -0.0378494 0
M  V30 545 N 51.7335 -0.305618 -1.54608 0
M  V30 546 C 52.9585 0.307562 -2.05107 0
M  V30 547 C 53.3835 1.46385 -1.18123 0
M  V30 548 O 52.7415 1.8034 -0.186324 0
M  V30 549 C 52.7895 0.73704 -3.52987 0
M  V30 550 O 51.8935 1.84134 -3.6901 0
M  V30 551 H 51.2345 0.0589143 -0.661381 0
M  V30 552 H 53.7645 -0.448807 -1.99617 0
M  V30 553 H 53.7745 1.02459 -3.94925 0
M  V30 554 H 52.4495 -0.108773 -4.15758 0
M  V30 555 H 51.0265 1.55398 -3.38978 0
M  V30 556 N 53.2116 1.57565 -0.0334293 0
M  V30 557 C 54.4366 1.96689 0.657895 0
M  V30 558 C 54.8616 0.910057 1.64619 0
M  V30 559 O 54.2196 -0.128598 1.80843 0
M  V30 560 C 54.2676 3.34905 1.33683 0
M  V30 561 O 53.3716 3.31574 2.45219 0
M  V30 562 H 52.7126 0.641205 0.172489 0
M  V30 563 H 55.2426 2.04372 -0.0965621 0
M  V30 564 H 55.2526 3.71234 1.69262 0
M  V30 565 H 53.9276 4.11366 0.612411 0
M  V30 566 H 52.5046 3.06968 2.11719 0
M  V30 567 N 54.6897 -0.239769 1.55765 0
M  V30 568 C 55.9357 -0.968234 1.78194 0
M  V30 569 C 56.2687 -1.84701 0.599938 0
M  V30 570 O 55.5437 -1.9031 -0.401524 0
M  V30 571 C 55.8267 -1.8227 3.10564 0
M  V30 572 C 55.6797 -0.971633 4.3918 0
M  V30 573 C 56.9987 -2.80388 3.39221 0
M  V30 574 H 54.1177 -0.350572 0.648281 0
M  V30 575 H 56.7597 -0.238259 1.885 0
M  V30 576 H 54.9097 -2.44507 3.01908 0
M  V30 577 H 56.5817 -0.367408 4.59835 0
M  V30 578 H 54.8247 -0.276276 4.32919 0
M  V30 579 H 55.4957 -1.60346 5.28198 0
M  V30 580 H 57.9717 -2.28287 3.47885 0
M  V30 581 H 56.8477 -3.3729 4.33044 0
M  V30 582 H 57.1087 -3.57212 2.60484 0
M  V30 583 N 56.1678 -1.49265 -0.50573 0
M  V30 584 C 57.1148 -1.65585 -1.6078 0
M  V30 585 C 58.0848 -0.497396 -1.58478 0
M  V30 586 O 59.2698 -0.72385 -1.76536 0
M  V30 587 C 56.4098 -1.72408 -2.98948 0
M  V30 588 C 55.5228 -2.99525 -3.11301 0
M  V30 589 C 54.6578 -2.97356 -4.40174 0
M  V30 590 C 53.6968 -4.19074 -4.46143 0
M  V30 591 N 52.8338 -4.14841 -5.66437 0
M  V30 592 H 57.6738 -2.59688 -1.46172 0
M  V30 593 H 55.2108 -1.28761 -0.711261 0
M  V30 594 H 57.1688 -1.74344 -3.79025 0
M  V30 595 H 55.7988 -0.817753 -3.1227 0
M  V30 596 H 54.8508 -3.07222 -2.24318 0
M  V30 597 H 56.1628 -3.89518 -3.11572 0
M  V30 598 H 55.3168 -2.97829 -5.28567 0
M  V30 599 H 54.0558 -2.05133 -4.42461 0
M  V30 600 H 53.0608 -4.1885 -3.56153 0
M  V30 601 H 54.2858 -5.12483 -4.45575 0
M  V30 602 H 52.2318 -3.25453 -5.69575 0
M  V30 603 H 52.1488 -4.98564 -5.68304 0
M  V30 604 H 53.4168 -4.1941 -6.57051 0
M  V30 605 N 57.6459 0.756429 -1.3826 0
M  V30 606 C 58.9229 1.50584 -1.24835 0
M  V30 607 C 59.3029 2.10556 0.151485 0
M  V30 608 O 58.6509 1.96825 1.1607 0
M  V30 609 C 58.8609 2.57448 -2.3563 0
M  V30 610 C 60.2089 3.24429 -2.73917 0
M  V30 611 O 61.2329 2.67751 -2.34921 0
M  V30 612 O 60.0919 4.26937 -3.41156 0
M  V30 613 H 57.1859 0.667664 -0.48801 0
M  V30 614 H 59.7319 0.792083 -1.5008 0
M  V30 615 H 58.5039 2.11362 -3.29305 0
M  V30 616 H 58.1269 3.36408 -2.11933 0
M  V30 617 N 59.124 1.23083 0.984299 0
M  V30 618 C 60.034 1.02515 2.11016 0
M  V30 619 C 61.05 -0.0291702 1.73976 0
M  V30 620 O 62.226 0.165434 2.00719 0
M  V30 621 C 59.291 0.614673 3.41208 0
M  V30 622 C 58.352 1.74359 3.92297 0
M  V30 623 C 57.585 1.35261 5.16275 0
M  V30 624 O 57.808 0.235136 5.69915 0
M  V30 625 O 56.742 2.17227 5.61334 0
M  V30 626 H 60.568 1.96862 2.31255 0
M  V30 627 H 58.153 1.01753 1.09392 0
M  V30 628 H 60.035 0.396518 4.1953 0
M  V30 629 H 58.71 -0.299851 3.22308 0
M  V30 630 H 57.617 2.01635 3.1511 0
M  V30 631 H 58.95 2.63629 4.15645 0
M  V30 632 N 60.6021 -1.18246 1.0419 0
M  V30 633 C 61.8301 -1.92195 0.766072 0
M  V30 634 C 62.2451 -1.76247 -0.676933 0
M  V30 635 O 61.6021 -1.09293 -1.46155 0
M  V30 636 C 61.6531 -3.43568 1.12442 0
M  V30 637 O 61.3741 -3.59015 2.51078 0
M  V30 638 C 62.8751 -4.34613 0.873275 0
M  V30 639 H 60.0951 -0.610114 0.279288 0
M  V30 640 H 62.6391 -1.50007 1.38989 0
M  V30 641 H 60.7941 -3.8354 0.545542 0
M  V30 642 H 61.2081 -4.5273 2.64831 0
M  V30 643 H 62.6821 -5.39374 1.17385 0
M  V30 644 H 63.1591 -4.38781 -0.191909 0
M  V30 645 H 63.7651 -4.00341 1.43551 0
M  V30 646 N 62.0802 -0.821533 -1.34494 0
M  V30 647 C 63.0282 -0.230702 -2.31453 0
M  V30 648 C 64.0222 0.627793 -1.57338 0
M  V30 649 O 65.2282 0.519288 -1.72347 0
M  V30 650 H 61.6032 -0.0558577 -0.749923 0
M  V30 651 H 63.5742 -1.06332 -2.78812 0
M  V30 652 C 62.3232 0.59391 -3.4259 0
M  V30 653 H 61.6462 -0.0573588 -3.99759 0
M  V30 654 H 63.0862 0.973446 -4.12674 0
M  V30 655 C 61.5452 1.76568 -2.86924 0
M  V30 656 O 62.0752 2.8638 -2.81691 0
M  V30 657 N 60.2812 1.58198 -2.43766 0
M  V30 658 H 59.8282 0.68872 -2.48222 0
M  V30 659 H 59.7862 2.36752 -2.06871 0
M  V30 660 N 63.5583 1.46682 -0.576371 0
M  V30 661 C 64.8353 1.95599 0.00703437 0
M  V30 662 C 65.2153 1.51904 1.46589 0
M  V30 663 O 64.5633 0.766755 2.15251 0
M  V30 664 C 64.7733 3.4864 -0.158404 0
M  V30 665 C 66.1213 4.24594 -0.0229439 0
M  V30 666 O 67.1453 3.56094 -0.0869173 0
M  V30 667 O 66.0043 5.46373 0.118015 0
M  V30 668 H 63.0983 0.825275 0.053384 0
M  V30 669 H 65.6443 1.56996 -0.644244 0
M  V30 670 H 64.4163 3.7331 -1.17282 0
M  V30 671 H 64.0393 3.94057 0.5296 0
M  V30 672 N 65.0364 0.313813 1.54444 0
M  V30 673 C 65.9844 -0.572171 2.25453 0
M  V30 674 C 66.9784 -1.12657 1.2651 0
M  V30 675 O 68.1844 -1.07573 1.44319 0
M  V30 676 H 64.5594 -0.203146 0.724041 0
M  V30 677 H 66.5304 0.0491145 2.9836 0
M  V30 678 C 65.2794 -1.72626 3.0182 0
M  V30 679 H 64.6024 -1.30891 3.77767 0
M  V30 680 H 66.0424 -2.32199 3.54767 0
M  V30 681 C 64.5014 -2.63806 2.09542 0
M  V30 682 O 65.0314 -3.65256 1.67185 0
M  V30 683 N 63.2374 -2.31824 1.75232 0
M  V30 684 H 62.7844 -1.49368 2.09873 0
M  V30 685 H 62.7424 -2.93095 1.13767 0
M  V30 686 N 66.5145 -1.57545 0.0417849 0
M  V30 687 C 67.7635 -1.91494 -0.633492 0
M  V30 688 C 68.0765 -0.921084 -1.72556 0
M  V30 689 O 69.2825 -1.15228 -2.45835 0
M  V30 690 C 67.7385 -3.40072 -1.17808 0
M  V30 691 C 67.3465 -4.47843 -0.118633 0
M  V30 692 C 69.0905 -3.8307 -1.82915 0
M  V30 693 C 66.9975 -5.87529 -0.675578 0
M  V30 694 H 65.9275 -0.714653 -0.24039 0
M  V30 695 H 68.5785 -1.83175 0.109148 0
M  V30 696 H 66.9605 -3.43364 -1.97274 0
M  V30 697 H 68.1345 -4.56128 0.654494 0
M  V30 698 H 66.4495 -4.14128 0.434414 0
M  V30 699 H 69.0465 -4.84794 -2.25563 0
M  V30 700 H 69.3895 -3.1881 -2.67705 0
M  V30 701 H 69.9225 -3.82255 -1.10119 0
M  V30 702 H 66.6615 -6.55362 0.134475 0
M  V30 703 H 66.1815 -5.82824 -1.4169 0
M  V30 704 H 67.8605 -6.36491 -1.1614 0
M  V30 705 N 67.9926 0.231505 -1.5589 0
M  V30 706 C 69.2206 0.974505 -1.82513 0
M  V30 707 C 69.6356 1.78344 -0.619591 0
M  V30 708 O 68.9926 1.77792 0.411848 0
M  V30 709 C 69.0436 1.90007 -3.07538 0
M  V30 710 O 68.7646 1.12385 -4.2344 0
M  V30 711 C 70.2656 2.75779 -3.47075 0
M  V30 712 H 67.4856 0.286065 -0.606966 0
M  V30 713 H 70.0296 0.249739 -2.02969 0
M  V30 714 H 68.1846 2.57891 -2.89086 0
M  V30 715 H 68.5986 1.75125 -4.944 0
M  V30 716 H 70.0726 3.36443 -4.37619 0
M  V30 717 H 70.5496 3.47672 -2.68367 0
M  V30 718 H 71.1556 2.13323 -3.67931 0
M  V30 719 N 69.4707 1.49531 0.497807 0
M  V30 720 C 70.7197 1.58426 1.24837 0
M  V30 721 C 71.0327 0.277643 1.93619 0
M  V30 722 O 72.2387 0.24517 2.70391 0
M  V30 723 C 70.6947 2.79538 2.26686 0
M  V30 724 C 70.3027 4.16971 1.63828 0
M  V30 725 C 72.0467 2.97764 3.0255 0
M  V30 726 C 69.9537 5.29301 2.63807 0
M  V30 727 H 68.8837 0.58989 0.469623 0
M  V30 728 H 71.5347 1.75923 0.521857 0
M  V30 729 H 69.9167 2.55542 3.02514 0
M  V30 730 H 71.0907 4.51116 0.939711 0
M  V30 731 H 69.4057 4.04129 1.00342 0
M  V30 732 H 72.0027 3.78856 3.77323 0
M  V30 733 H 72.3457 2.08448 3.60354 0
M  V30 734 H 72.8787 3.21815 2.33838 0
M  V30 735 H 69.6177 6.20687 2.10779 0
M  V30 736 H 69.1377 4.99606 3.31894 0
M  V30 737 H 70.8167 5.58768 3.2617 0
M  V30 738 N 70.9488 -0.749086 1.3866 0
M  V30 739 C 72.1958 -1.50833 1.35114 0
M  V30 740 C 72.5238 -1.94415 -0.0574049 0
M  V30 741 O 71.7788 -1.66065 -1.03541 0
M  V30 742 C 72.0778 -2.7712 2.25697 0
M  V30 743 C 71.7438 -2.52477 3.73585 0
M  V30 744 C 70.4058 -2.45466 4.13884 0
M  V30 745 C 72.7578 -2.31066 4.67181 0
M  V30 746 C 70.0858 -2.15064 5.45861 0
M  V30 747 C 72.4378 -2.02183 5.9942 0
M  V30 748 C 71.1018 -1.93631 6.38798 0
M  V30 749 H 70.3718 -0.551936 0.494416 0
M  V30 750 H 73.0188 -0.860979 1.71054 0
M  V30 751 H 71.3238 -3.46528 1.82827 0
M  V30 752 H 73.0208 -3.35096 2.20254 0
M  V30 753 H 69.6108 -2.58807 3.41638 0
M  V30 754 H 73.7948 -2.35459 4.3689 0
M  V30 755 H 69.0508 -2.06954 5.75308 0
M  V30 756 H 73.2248 -1.8462 6.71482 0
M  V30 757 H 70.8518 -1.69839 7.40985 0
M  V30 758 N 72.4269 -1.23603 -0.977757 0
M  V30 759 C 73.6549 -1.09646 -1.75458 0
M  V30 760 C 74.0699 0.351859 -1.85492 0
M  V30 761 O 73.4269 1.24327 -1.336 0
M  V30 762 C 73.4779 -1.71895 -3.18016 0
M  V30 763 O 73.1989 -3.11063 -3.08498 0
M  V30 764 C 74.6999 -1.63415 -4.12081 0
M  V30 765 H 71.9199 -0.38359 -0.550545 0
M  V30 766 H 74.4639 -1.63507 -1.22824 0
M  V30 767 H 72.6189 -1.22061 -3.67668 0
M  V30 768 H 73.0329 -3.41305 -3.9826 0
M  V30 769 H 74.5069 -2.11669 -5.09804 0
M  V30 770 H 74.9839 -0.593462 -4.35172 0
M  V30 771 H 75.5899 -2.12628 -3.68334 0
M  V30 772 N 73.905 1.17692 -1.04816 0
M  V30 773 C 75.321 1.39863 -0.768794 0
M  V30 774 C 75.521 1.91118 0.638451 0
M  V30 775 O 74.577 2.10036 1.40146 0
M  V30 776 C 75.89 2.39274 -1.82122 0
M  V30 777 C 77.438 2.52987 -1.843 0
M  V30 778 C 77.913 3.55669 -2.88555 0
M  V30 779 N 79.404 3.63183 -2.87493 0
M  V30 780 C 80.139 4.42381 -3.64811 0
M  V30 781 N 79.635 5.25125 -4.51903 0
M  V30 782 N 81.428 4.37217 -3.53267 0
M  V30 783 H 73.579 0.82752 -1.95617 0
M  V30 784 H 75.842 0.426123 -0.846831 0
M  V30 785 H 75.548 2.08678 -2.83102 0
M  V30 786 H 75.422 3.38725 -1.65967 0
M  V30 787 H 77.809 2.82896 -0.839869 0
M  V30 788 H 77.89 1.53623 -2.04532 0
M  V30 789 H 77.534 3.26499 -3.89051 0
M  V30 790 H 77.464 4.54728 -2.65575 0
M  V30 791 H 79.955 3.04103 -2.24343 0
M  V30 792 H 80.268 5.82728 -5.07591 0
M  V30 793 H 78.613 5.24519 -4.55966 0
M  V30 794 H 81.804 3.71626 -2.84625 0
M  V30 795 H 81.977 4.98696 -4.13771 0
M  V30 796 N 75.3831 0.828654 1.34056 0
M  V30 797 C 76.6321 0.415828 1.97367 0
M  V30 798 C 76.9451 -1.02796 1.6641 0
M  V30 799 O 78.1511 -1.54497 2.23255 0
M  V30 800 C 76.6071 0.692601 3.53173 0
M  V30 801 C 76.2151 2.15038 3.93017 0
M  V30 802 C 77.9591 0.346222 4.23086 0
M  V30 803 C 75.8661 2.37174 5.41758 0
M  V30 804 H 74.7961 0.151755 0.738571 0
M  V30 805 H 77.4471 1.01581 1.52819 0
M  V30 806 H 75.8291 0.0223764 3.95994 0
M  V30 807 H 77.0031 2.86024 3.61285 0
M  V30 808 H 75.3181 2.45875 3.36057 0
M  V30 809 H 77.9151 0.48937 5.32456 0
M  V30 810 H 78.2581 -0.709842 4.10204 0
M  V30 811 H 78.7911 0.971258 3.85761 0
M  V30 812 H 75.5301 3.41308 5.59633 0
M  V30 813 H 75.0501 1.70738 5.74986 0
M  V30 814 H 76.7291 2.19818 6.08514 0
M  V30 815 N 76.8612 -1.46375 0.584142 0
M  V30 816 C 77.7912 -2.33103 -0.136037 0
M  V30 817 C 78.7722 -1.45431 -0.882255 0
M  V30 818 O 79.9572 -1.74246 -0.857434 0
M  V30 819 C 77.0872 -3.27731 -1.14933 0
M  V30 820 C 76.0412 -4.24855 -0.517862 0
M  V30 821 C 75.3672 -5.09001 -1.63773 0
M  V30 822 C 76.6672 -5.19439 0.545886 0
M  V30 823 H 78.3612 -2.93568 0.588086 0
M  V30 824 H 75.9072 -1.41166 0.284259 0
M  V30 825 H 77.8602 -3.87261 -1.66153 0
M  V30 826 H 76.5842 -2.65377 -1.90375 0
M  V30 827 H 75.2432 -3.6659 -0.0267361 0
M  V30 828 H 74.8912 -4.43031 -2.38185 0
M  V30 829 H 74.5912 -5.74777 -1.22085 0
M  V30 830 H 76.1152 -5.71396 -2.15266 0
M  V30 831 H 77.5292 -5.73177 0.118704 0
M  V30 832 H 75.9262 -5.93566 0.88317 0
M  V30 833 H 76.9962 -4.63285 1.43162 0
M  V30 834 N 78.3393 -0.321999 -1.54275 0
M  V30 835 C 79.6163 0.335232 -1.92706 0
M  V30 836 C 79.9963 1.70006 -1.25145 0
M  V30 837 O 79.3443 2.25067 -0.394596 0
M  V30 838 C 79.5543 0.429008 -3.46353 0
M  V30 839 C 80.9023 0.690029 -4.18956 0
M  V30 840 O 81.9263 0.511992 -3.52501 0
M  V30 841 O 80.7853 1.03338 -5.36641 0
M  V30 842 H 77.8793 0.191143 -0.804608 0
M  V30 843 H 80.4253 -0.3716 -1.65581 0
M  V30 844 H 79.1973 -0.529611 -3.87699 0
M  V30 845 H 78.8203 1.18348 -3.79578 0
M  V30 846 N 79.8174 1.5752 -0.0501392 0
M  V30 847 C 81.0654 1.9227 0.622642 0
M  V30 848 C 81.3864 0.929083 1.71444 0
M  V30 849 O 80.6564 -0.0262186 1.95882 0
M  V30 850 H 79.2364 0.709739 0.232981 0
M  V30 851 H 81.8984 1.94628 -0.102898 0
M  V30 852 H 80.9944 2.93479 1.06191 0
M  V30 853 N 81.2955 -0.223234 1.56011 0
M  V30 854 C 82.2255 -1.27988 1.95298 0
M  V30 855 C 83.2065 -1.48976 0.820979 0
M  V30 856 O 84.3915 -1.61188 1.08315 0
M  V30 857 C 81.5215 -2.63 2.26822 0
M  V30 858 C 80.4755 -2.56671 3.42497 0
M  V30 859 C 79.8015 -3.95697 3.59622 0
M  V30 860 C 81.1015 -2.11601 4.77517 0
M  V30 861 H 82.7955 -0.953525 2.8381 0
M  V30 862 H 80.3415 -0.457244 1.36548 0
M  V30 863 H 82.2945 -3.37077 2.52898 0
M  V30 864 H 81.0185 -2.9732 1.35161 0
M  V30 865 H 79.6775 -1.85051 3.16467 0
M  V30 866 H 79.3255 -4.27322 2.6534 0
M  V30 867 H 79.0255 -3.92345 4.37424 0
M  V30 868 H 80.5495 -4.71438 3.88044 0
M  V30 869 H 81.9635 -2.7542 5.02809 0
M  V30 870 H 80.3605 -2.19311 5.5859 0
M  V30 871 H 81.4305 -1.06824 4.72987 0
M  V30 872 N 82.7736 -1.49793 -0.48987 0
M  V30 873 C 83.7036 -1.70201 -1.59856 0
M  V30 874 C 84.6846 -0.55076 -1.60937 0
M  V30 875 O 85.8696 -0.787841 -1.77501 0
M  V30 876 C 82.9996 -1.77882 -2.98287 0
M  V30 877 C 81.9536 -2.92907 -3.12073 0
M  V30 878 C 81.2796 -2.85712 -4.51965 0
M  V30 879 C 82.5796 -4.3369 -2.91051 0
M  V30 880 H 84.2736 -2.63025 -1.43032 0
M  V30 881 H 81.8196 -1.26574 -0.686664 0
M  V30 882 H 83.7726 -1.90744 -3.75759 0
M  V30 883 H 82.4966 -0.816653 -3.16225 0
M  V30 884 H 81.1556 -2.79665 -2.37029 0
M  V30 885 H 80.8036 -1.8738 -4.66795 0
M  V30 886 H 80.5036 -3.62921 -4.62128 0
M  V30 887 H 82.0276 -3.00598 -5.31482 0
M  V30 888 H 83.4416 -4.47555 -3.58284 0
M  V30 889 H 81.8386 -5.12205 -3.12675 0
M  V30 890 H 82.9086 -4.47362 -1.87071 0
M  V30 891 N 84.2517 0.741722 -1.39055 0
M  V30 892 C 85.5287 1.49252 -1.26425 0
M  V30 893 C 85.9087 2.10705 0.129144 0
M  V30 894 O 85.2567 1.98045 1.13976 0
M  V30 895 C 85.4667 2.54934 -2.38347 0
M  V30 896 C 86.8147 3.21506 -2.77343 0
M  V30 897 O 87.8387 2.65245 -2.37747 0
M  V30 898 O 86.6977 4.23294 -3.45665 0
M  V30 899 H 83.7917 0.662451 -0.495064 0
M  V30 900 H 86.3377 0.776121 -1.50912 0
M  V30 901 H 85.1097 2.07857 -3.31529 0
M  V30 902 H 84.7327 3.34141 -2.15489 0
M  V30 903 N 85.7298 1.2412 0.971189 0
M  V30 904 C 86.9778 1.07668 1.71032 0
M  V30 905 C 87.2988 -0.385797 1.91146 0
M  V30 906 O 86.5688 -1.27569 1.4867 0
M  V30 907 H 85.1488 0.395429 0.633755 0
M  V30 908 H 87.8108 1.55984 1.16855 0
M  V30 909 H 86.9068 1.57195 2.69622 0
M  V30 910 N 87.2079 -1.17134 1.05439 0
M  V30 911 C 88.4379 -1.91094 0.785274 0
M  V30 912 C 88.8459 -1.77198 -0.663142 0
M  V30 913 O 88.1889 -1.10835 -1.46497 0
M  V30 914 C 88.2509 -3.42594 1.08949 0
M  V30 915 C 87.9149 -3.80274 2.53458 0
M  V30 916 C 88.9119 -3.82912 3.51673 0
M  V30 917 C 86.5969 -4.11162 2.88532 0
M  V30 918 C 88.5909 -4.15913 4.83006 0
M  V30 919 C 86.2779 -4.43831 4.20068 0
M  V30 920 C 87.2759 -4.46185 5.17115 0
M  V30 921 O 86.9639 -4.78083 6.46291 0
M  V30 922 H 86.6959 -0.613073 0.284811 0
M  V30 923 H 89.2499 -1.49461 1.40893 0
M  V30 924 H 87.4799 -3.84534 0.408741 0
M  V30 925 H 89.1689 -3.97817 0.805991 0
M  V30 926 H 89.9349 -3.5917 3.25917 0
M  V30 927 H 85.8139 -4.085 2.13656 0
M  V30 928 H 89.3579 -4.17665 5.5875 0
M  V30 929 H 85.2549 -4.67037 4.45586 0
M  V30 930 H 86.0229 -4.9593 6.51149 0
M  V30 931 N 88.686 -0.835752 -1.33615 0
M  V30 932 C 89.963 -0.352017 -1.92406 0
M  V30 933 C 90.343 1.16225 -1.76224 0
M  V30 934 O 89.691 1.97526 -1.14873 0
M  V30 935 C 89.901 -0.795485 -3.39813 0
M  V30 936 C 91.249 -0.801703 -4.16963 0
M  V30 937 O 92.273 -0.738889 -3.48452 0
M  V30 938 O 91.132 -0.886607 -5.3926 0
M  V30 939 H 88.226 -0.0989641 -0.821057 0
M  V30 940 H 90.772 -0.921397 -1.42507 0
M  V30 941 H 89.544 -1.83795 -3.45449 0
M  V30 942 H 89.167 -0.202505 -3.97084 0
M  V30 943 N 90.1641 1.46063 -0.591896 0
M  V30 944 C 91.1121 2.32124 0.148739 0
M  V30 945 C 92.1061 1.45035 0.875286 0
M  V30 946 O 93.3121 1.61609 0.792632 0
M  V30 947 H 89.6871 0.749024 0.066832 0
M  V30 948 H 91.6581 2.92392 -0.595783 0
M  V30 949 C 90.4071 3.28373 1.1431 0
M  V30 950 H 89.7301 3.95371 0.59346 0
M  V30 951 H 91.1701 3.91352 1.63155 0
M  V30 952 C 89.6291 2.54393 2.20875 0
M  V30 953 O 90.1591 2.31373 3.28374 0
M  V30 954 N 88.3651 2.14797 1.95731 0
M  V30 955 H 87.9121 2.33719 1.08319 0
M  V30 956 H 87.8701 1.65619 2.67241 0
M  V30 957 N 91.6422 0.330177 1.54103 0
M  V30 958 C 93.0582 -0.0222371 1.59585 0
M  V30 959 C 93.2582 -1.49902 1.34654 0
M  V30 960 O 92.3142 -2.25592 1.13421 0
M  V30 961 C 93.6272 0.401932 2.98002 0
M  V30 962 C 95.1752 0.353145 3.11001 0
M  V30 963 C 95.6502 0.752576 4.51775 0
M  V30 964 N 97.1412 0.706239 4.57784 0
M  V30 965 C 97.8762 0.987417 5.64834 0
M  V30 966 N 97.3722 1.33607 6.79795 0
M  V30 967 N 99.1652 0.91254 5.54643 0
M  V30 968 H 91.3162 1.29228 1.68564 0
M  V30 969 H 93.5792 0.525906 0.78875 0
M  V30 970 H 93.2852 1.4311 3.21267 0
M  V30 971 H 93.1592 -0.229699 3.765 0
M  V30 972 H 95.5462 -0.666822 2.87467 0
M  V30 973 H 95.6272 1.0198 2.34593 0
M  V30 974 H 95.2712 1.77049 4.76042 0
M  V30 975 H 95.2012 0.0635409 5.26562 0
M  V30 976 H 97.6922 0.44889 3.75224 0
M  V30 977 H 98.0052 1.53582 7.57385 0
M  V30 978 H 96.3502 1.37439 6.81275 0
M  V30 979 H 99.5412 0.639601 4.6371 0
M  V30 980 H 99.7142 1.13503 6.37982 0
M  V30 981 N 93.1203 -1.57491 0.0584922 0
M  V30 982 C 94.0503 -2.14988 -0.911178 0
M  V30 983 C 95.0313 -1.07343 -1.31952 0
M  V30 984 O 96.2163 -1.35318 -1.39294 0
M  V30 985 C 93.3463 -2.70078 -2.18347 0
M  V30 986 C 92.3003 -3.82771 -1.91495 0
M  V30 987 C 91.6263 -4.24408 -3.25241 0
M  V30 988 C 92.9263 -5.07592 -1.23075 0
M  V30 989 H 94.6203 -2.96263 -0.432246 0
M  V30 990 H 92.1663 -1.42512 -0.206469 0
M  V30 991 H 94.1193 -3.08943 -2.86587 0
M  V30 992 H 92.8433 -1.86005 -2.68458 0
M  V30 993 H 91.5023 -3.44389 -1.25664 0
M  V30 994 H 91.1503 -3.37275 -3.73168 0
M  V30 995 H 90.8503 -5.00366 -3.08071 0
M  V30 996 H 92.3743 -4.65879 -3.94701 0
M  V30 997 H 93.7883 -5.43857 -1.81362 0
M  V30 998 H 92.1853 -5.88741 -1.16207 0
M  V30 999 H 93.2553 -4.84454 -0.207847 0
M  V30 1000 N 94.5984 0.214957 -1.56127 0
M  V30 1001 C 96.0144 0.564948 -1.49267 0
M  V30 1002 C 96.2144 1.86827 -0.754838 0
M  V30 1003 O 95.2704 2.50745 -0.297198 0
M  V30 1004 C 96.5834 0.638071 -2.93852 0
M  V30 1005 C 98.1314 0.728253 -3.0441 0
M  V30 1006 C 98.6064 0.832663 -4.50367 0
M  V30 1007 N 100.097 0.896712 -4.54437 0
M  V30 1008 C 100.832 0.997324 -5.6466 0
M  V30 1009 N 100.328 1.06147 -6.8462 0
M  V30 1010 N 102.121 1.03297 -5.52527 0
M  V30 1011 H 94.2724 -0.640211 -2.02522 0
M  V30 1012 H 96.5354 -0.225507 -0.920788 0
M  V30 1013 H 96.2414 -0.250126 -3.50809 0
M  V30 1014 H 96.1154 1.49947 -3.46115 0
M  V30 1015 H 98.5024 1.60689 -2.47514 0
M  V30 1016 H 98.5834 -0.158952 -2.55306 0
M  V30 1017 H 98.2274 -0.0415417 -5.07883 0
M  V30 1018 H 98.1574 1.73538 -4.97184 0
M  V30 1019 H 100.648 0.857188 -3.6805 0
M  V30 1020 H 100.961 1.1382 -7.64372 0
M  V30 1021 H 99.3064 1.03049 -6.87318 0
M  V30 1022 H 102.497 0.979558 -4.57736 0
M  V30 1023 H 102.67 1.10793 -6.38458 0
M  V30 1024 N 96.0765 1.50051 0.48192 0
M  V30 1025 C 97.4875 1.5348 1.06305 0
M  V30 1026 C 97.8385 0.331997 1.93371 0
M  V30 1027 O 96.9635 -0.556256 2.09129 0
M  V30 1028 C 97.5585 2.7813 1.93466 0
M  V30 1029 C 96.1175 2.84275 2.46707 0
M  V30 1030 C 95.2645 2.47637 1.24785 0
M  V30 1031 H 98.2155 1.56472 0.264995 0
M  V30 1032 H 98.2365 2.59372 2.78399 0
M  V30 1033 H 97.7485 3.65654 1.30072 0
M  V30 1034 H 95.8495 2.01077 3.13686 0
M  V30 1035 H 95.9625 3.8691 2.82555 0
M  V30 1036 H 94.3265 1.99835 1.57918 0
M  V30 1037 H 95.1095 3.37457 0.630694 0
M  V30 1038 N 97.5546 -0.734337 1.39446 0
M  V30 1039 C 98.8026 -1.49096 1.36436 0
M  V30 1040 C 99.1236 -1.94961 -0.0388255 0
M  V30 1041 O 98.3936 -1.69033 -0.990191 0
M  V30 1042 H 96.9736 -0.5531 0.502085 0
M  V30 1043 H 99.6356 -0.871725 1.74319 0
M  V30 1044 H 98.7316 -2.37276 2.02747 0
M  V30 1045 N 99.0327 -1.24633 -0.964593 0
M  V30 1046 C 99.9627 -1.06611 -2.07741 0
M  V30 1047 C 100.944 0.0218666 -1.70086 0
M  V30 1048 O 102.129 -0.145793 -1.93652 0
M  V30 1049 C 99.2587 -0.673444 -3.40708 0
M  V30 1050 C 98.2127 -1.71054 -3.92332 0
M  V30 1051 C 97.5387 -1.17285 -5.21678 0
M  V30 1052 C 98.8387 -3.10718 -4.19824 0
M  V30 1053 H 100.533 -1.99693 -2.23076 0
M  V30 1054 H 98.0787 -0.96152 -1.07195 0
M  V30 1055 H 100.032 -0.534345 -4.17998 0
M  V30 1056 H 98.7557 0.293073 -3.25282 0
M  V30 1057 H 97.4147 -1.83791 -3.17201 0
M  V30 1058 H 97.0627 -0.196847 -5.02615 0
M  V30 1059 H 96.7627 -1.86592 -5.57187 0
M  V30 1060 H 98.2867 -1.04593 -6.01575 0
M  V30 1061 H 99.7007 -3.01192 -4.87808 0
M  V30 1062 H 98.0977 -3.77406 -4.66567 0
M  V30 1063 H 99.1677 -3.58524 -3.26479 0
M  V30 1064 N 100.511 1.16574 -1.06058 0
M  V30 1065 C 101.759 1.86677 -0.77434 0
M  V30 1066 C 102.08 1.81959 0.701147 0
M  V30 1067 O 101.35 1.2515 1.50713 0
M  V30 1068 H 99.9298 0.691134 -0.283449 0
M  V30 1069 H 102.592 1.41378 -1.34158 0
M  V30 1070 H 101.688 2.92181 -1.09711 0
M  V30 1071 N 101.989 0.842826 1.3317 0
M  V30 1072 C 102.899 0.281444 2.32906 0
M  V30 1073 C 103.915 -0.594587 1.63526 0
M  V30 1074 O 105.091 -0.49777 1.95152 0
M  V30 1075 C 102.156 -0.530929 3.42611 0
M  V30 1076 C 101.217 0.369843 4.27704 0
M  V30 1077 C 100.45 -0.403853 5.3217 0
M  V30 1078 O 100.673 -1.63513 5.46461 0
M  V30 1079 O 99.6069 0.224199 6.01482 0
M  V30 1080 H 103.433 1.10744 2.82789 0
M  V30 1081 H 101.018 0.60545 1.36582 0
M  V30 1082 H 102.9 -0.992437 4.09547 0
M  V30 1083 H 101.575 -1.33392 2.94938 0
M  V30 1084 H 100.482 0.879275 3.6362 0
M  V30 1085 H 101.815 1.13771 4.78871 0
M  V30 1086 N 103.467 -1.45747 0.599634 0
M  V30 1087 C 104.883 -1.57424 0.26264 0
M  V30 1088 C 105.083 -1.59222 -1.23493 0
M  V30 1089 O 104.139 -1.51825 -2.01756 0
M  V30 1090 C 105.452 -2.86061 0.926795 0
M  V30 1091 C 107 -2.99722 0.901967 0
M  V30 1092 C 107.475 -4.31119 1.54598 0
M  V30 1093 N 108.966 -4.37858 1.5111 0
M  V30 1094 C 109.701 -5.3818 1.97863 0
M  V30 1095 N 109.197 -6.45083 2.52666 0
M  V30 1096 N 110.99 -5.29487 1.88679 0
M  V30 1097 H 103.141 -1.42823 1.57211 0
M  V30 1098 H 105.404 -0.68235 0.658105 0
M  V30 1099 H 105.11 -2.90605 1.98095 0
M  V30 1100 H 104.984 -3.74563 0.445238 0
M  V30 1101 H 107.371 -2.9475 -0.143617 0
M  V30 1102 H 107.452 -2.12652 1.42171 0
M  V30 1103 H 107.096 -4.36849 2.59085 0
M  V30 1104 H 107.026 -5.16992 1.00132 0
M  V30 1105 H 109.517 -3.61209 1.11068 0
M  V30 1106 H 109.83 -7.17869 2.86155 0
M  V30 1107 H 108.175 -6.45856 2.56701 0
M  V30 1108 H 111.366 -4.44877 1.4561 0
M  V30 1109 H 111.539 -6.07524 2.25429 0
M  V30 1110 N 104.945 -0.338344 -1.53925 0
M  V30 1111 C 106.194 0.260732 -2.00008 0
M  V30 1112 C 106.507 1.52073 -1.23017 0
M  V30 1113 O 107.713 2.19672 -1.5955 0
M  V30 1114 C 106.169 0.51515 -3.56194 0
M  V30 1115 C 105.777 -0.728645 -4.42035 0
M  V30 1116 C 107.521 1.07337 -4.10706 0
M  V30 1117 C 105.428 -0.445315 -5.89721 0
M  V30 1118 H 104.358 0.101205 -0.747177 0
M  V30 1119 H 107.009 -0.452866 -1.77824 0
M  V30 1120 H 105.391 1.28932 -3.74423 0
M  V30 1121 H 106.565 -1.50352 -4.35581 0
M  V30 1122 H 104.88 -1.20813 -3.98489 0
M  V30 1123 H 107.477 1.30022 -5.18651 0
M  V30 1124 H 107.82 2.0273 -3.63602 0
M  V30 1125 H 108.353 0.360034 -3.96167 0
M  V30 1126 H 105.092 -1.36883 -6.41049 0
M  V30 1127 H 104.612 0.291569 -5.99091 0
M  V30 1128 H 106.291 -0.0606218 -6.46972 0
M  V30 1129 N 106.423 1.57458 -0.0668435 0
M  V30 1130 C 107.651 1.97624 0.612565 0
M  V30 1131 C 108.066 0.94502 1.63447 0
M  V30 1132 O 107.423 -0.0689276 1.8237 0
M  V30 1133 C 107.474 3.37869 1.28555 0
M  V30 1134 O 107.195 4.3704 0.304557 0
M  V30 1135 C 108.696 3.92882 2.05325 0
M  V30 1136 H 105.916 0.650045 0.166381 0
M  V30 1137 H 108.46 2.04035 -0.137782 0
M  V30 1138 H 106.615 3.3256 1.98702 0
M  V30 1139 H 107.029 5.18565 0.786779 0
M  V30 1140 H 108.503 4.93247 2.47812 0
M  V30 1141 H 108.98 3.29156 2.9078 0
M  V30 1142 H 109.586 4.01577 1.40056 0
M  V30 1143 N 107.901 -0.206675 1.56239 0
M  V30 1144 C 108.833 -1.27997 1.9013 0
M  V30 1145 C 109.846 -1.42299 0.790883 0
M  V30 1146 O 111.035 -1.42931 1.06925 0
M  V30 1147 C 108.135 -2.65368 2.10792 0
M  V30 1148 C 107.308 -2.72824 3.41886 0
M  V30 1149 C 106.367 -3.9131 3.51799 0
M  V30 1150 O 105.393 -3.78953 4.24716 0
M  V30 1151 N 106.595 -5.06265 2.84035 0
M  V30 1152 H 109.36 -0.992444 2.82791 0
M  V30 1153 H 106.921 -0.396652 1.56966 0
M  V30 1154 H 108.913 -3.43039 2.14724 0
M  V30 1155 H 107.483 -2.86657 1.24685 0
M  V30 1156 H 106.703 -1.81515 3.49923 0
M  V30 1157 H 107.991 -2.74786 4.28217 0
M  V30 1158 H 107.389 -5.19203 2.246 0
M  V30 1159 H 105.946 -5.81925 2.93609 0
M  V30 1160 N 109.379 -1.50304 -0.473955 0
M  V30 1161 C 110.625 -1.61389 -1.22806 0
M  V30 1162 C 110.958 -0.311955 -1.91678 0
M  V30 1163 O 110.233 0.686384 -1.81986 0
M  V30 1164 C 110.516 -2.79219 -2.27396 0
M  V30 1165 C 110.369 -4.19286 -1.62848 0
M  V30 1166 C 111.688 -2.92614 -3.28732 0
M  V30 1167 H 108.807 -0.587399 -0.445119 0
M  V30 1168 H 111.449 -1.82681 -0.522265 0
M  V30 1169 H 109.599 -2.61195 -2.87592 0
M  V30 1170 H 111.271 -4.48892 -1.06271 0
M  V30 1171 H 109.514 -4.23677 -0.931693 0
M  V30 1172 H 110.185 -4.97655 -2.38838 0
M  V30 1173 H 112.661 -3.09105 -2.78556 0
M  V30 1174 H 111.537 -3.76688 -3.99246 0
M  V30 1175 H 111.798 -2.03107 -3.92683 0
M  V30 1176 N 110.857 0.726932 -1.39834 0
M  V30 1177 C 112.273 1.03354 -1.21615 0
M  V30 1178 C 112.473 2.01327 -0.08338 0
M  V30 1179 O 111.529 2.46158 0.56238 0
M  V30 1180 C 112.842 1.58811 -2.55342 0
M  V30 1181 C 114.39 1.70851 -2.62257 0
M  V30 1182 C 114.865 2.29716 -3.96225 0
M  V30 1183 N 116.356 2.37116 -3.97907 0
M  V30 1184 C 117.091 2.83619 -4.98345 0
M  V30 1185 N 116.587 3.29958 -6.09179 0
M  V30 1186 N 118.38 2.82901 -4.8572 0
M  V30 1187 H 110.531 0.0773069 -2.12259 0
M  V30 1188 H 112.794 0.0969102 -0.943034 0
M  V30 1189 H 112.5 0.942855 -3.38826 0
M  V30 1190 H 112.374 2.57502 -2.75632 0
M  V30 1191 H 114.761 2.34497 -1.79152 0
M  V30 1192 H 114.842 0.707913 -2.45809 0
M  V30 1193 H 114.486 1.66696 -4.79765 0
M  V30 1194 H 114.416 3.30469 -4.09997 0
M  V30 1195 H 116.907 2.04374 -3.17868 0
M  V30 1196 H 117.22 3.63976 -6.8172 0
M  V30 1197 H 115.565 3.27946 -6.12761 0
M  V30 1198 H 118.756 2.46027 -3.98231 0
M  V30 1199 H 118.929 3.18827 -5.6414 0
M  V30 1200 N 112.336 1.25143 0.95797 0
M  V30 1201 C 113.564 1.12424 1.73691 0
M  V30 1202 C 113.979 -0.322304 1.86029 0
M  V30 1203 O 113.336 -1.22186 1.35561 0
M  V30 1204 C 113.387 1.76933 3.15241 0
M  V30 1205 O 113.108 3.15932 3.03511 0
M  V30 1206 C 114.609 1.6995 4.09429 0
M  V30 1207 H 111.829 0.3923 0.544373 0
M  V30 1208 H 114.373 1.6544 1.20207 0
M  V30 1209 H 112.528 1.27895 3.6568 0
M  V30 1210 H 112.942 3.47598 3.9278 0
M  V30 1211 H 114.416 2.19753 5.06372 0
M  V30 1212 H 114.893 0.662619 4.34173 0
M  V30 1213 H 115.499 2.18461 3.64904 0
M  V30 1214 N 113.814 -1.1601 1.06675 0
M  V30 1215 C 115.091 -1.82679 0.699114 0
M  V30 1216 C 115.471 -1.94559 -0.819137 0
M  V30 1217 O 114.819 -1.49169 -1.73092 0
M  V30 1218 C 115.029 -3.19445 1.40555 0
M  V30 1219 C 116.377 -3.95171 1.55323 0
M  V30 1220 O 117.401 -3.28976 1.36577 0
M  V30 1221 O 116.26 -5.13833 1.86112 0
M  V30 1222 H 113.354 -0.788954 0.247951 0
M  V30 1223 H 115.9 -1.23179 1.16726 0
M  V30 1224 H 114.672 -3.05856 2.44065 0
M  V30 1225 H 114.295 -3.86625 0.927733 0
M  V30 1226 N 115.292 -0.849877 -1.32721 0
M  V30 1227 C 116.541 -0.447175 -1.96681 0
M  V30 1228 C 116.854 1.00135 -1.68025 0
M  V30 1229 O 118.06 1.50926 -2.25685 0
M  V30 1230 C 116.516 -0.7487 -3.52026 0
M  V30 1231 C 116.124 -2.21264 -3.89546 0
M  V30 1232 C 117.868 -0.413487 -4.22481 0
M  V30 1233 C 115.775 -2.45763 -5.37917 0
M  V30 1234 H 114.705 -0.163486 -0.736063 0
M  V30 1235 H 117.356 -1.03999 -1.51183 0
M  V30 1236 H 115.738 -0.0853727 -3.95908 0
M  V30 1237 H 116.912 -2.91736 -3.56689 0
M  V30 1238 H 115.227 -2.5119 -3.32103 0
M  V30 1239 H 117.824 -0.574017 -5.3161 0
M  V30 1240 H 118.167 0.644492 -4.11281 0
M  V30 1241 H 118.7 -1.03251 -3.84167 0
M  V30 1242 H 115.439 -3.50168 -5.54132 0
M  V30 1243 H 114.959 -1.79864 -5.72197 0
M  V30 1244 H 116.638 -2.29471 -6.0494 0
M  V30 1245 N 116.77 1.45427 -0.607355 0
M  V30 1246 C 118 2.06314 -0.108656 0
M  V30 1247 C 118.408 1.45269 1.21217 0
M  V30 1248 O 117.751 0.561115 1.74921 0
M  V30 1249 C 117.813 3.59345 0.105618 0
M  V30 1250 C 117.477 4.42723 -1.13337 0
M  V30 1251 C 118.474 4.77715 -2.05145 0
M  V30 1252 C 116.159 4.83478 -1.36213 0
M  V30 1253 C 118.153 5.52317 -3.18158 0
M  V30 1254 C 115.84 5.57835 -2.49527 0
M  V30 1255 C 116.838 5.92171 -3.40327 0
M  V30 1256 O 116.526 6.65019 -4.51669 0
M  V30 1257 H 116.258 0.672782 -0.0658842 0
M  V30 1258 H 118.812 1.87664 -0.834945 0
M  V30 1259 H 117.042 3.76394 0.886796 0
M  V30 1260 H 118.731 4.02076 0.555886 0
M  V30 1261 H 119.497 4.46787 -1.88697 0
M  V30 1262 H 115.376 4.56188 -0.664362 0
M  V30 1263 H 118.92 5.79036 -3.89054 0
M  V30 1264 H 114.817 5.88177 -2.65928 0
M  V30 1265 H 115.585 6.83469 -4.50348 0
M  V30 1266 N 118.248 0.346503 1.53744 0
M  V30 1267 C 119.494 -0.249473 2.0126 0
M  V30 1268 C 119.827 -1.49965 1.23386 0
M  V30 1269 O 119.102 -1.91811 0.32229 0
M  V30 1270 C 119.385 -0.560643 3.55709 0
M  V30 1271 C 119.238 0.701836 4.44291 0
M  V30 1272 C 120.557 -1.36905 4.18264 0
M  V30 1273 H 117.676 -0.0891987 0.731582 0
M  V30 1274 H 120.318 0.467624 1.84156 0
M  V30 1275 H 118.468 -1.17156 3.70414 0
M  V30 1276 H 120.14 1.33974 4.41417 0
M  V30 1277 H 118.383 1.32612 4.13033 0
M  V30 1278 H 119.054 0.43933 5.50249 0
M  V30 1279 H 121.53 -0.852448 4.07275 0
M  V30 1280 H 120.406 -1.55553 5.26398 0
M  V30 1281 H 120.667 -2.37203 3.73078 0
M  V30 1282 N 119.726 -1.57421 0.075193 0
M  V30 1283 C 120.954 -1.97946 -0.602076 0
M  V30 1284 C 121.369 -0.953674 -1.62943 0
M  V30 1285 O 120.726 0.0592551 -1.82404 0
M  V30 1286 C 120.777 -3.38546 -1.26762 0
M  V30 1287 O 120.498 -4.37195 -0.281376 0
M  V30 1288 C 121.999 -3.93966 -2.03239 0
M  V30 1289 H 119.219 -0.650918 -0.162931 0
M  V30 1290 H 121.763 -2.03959 0.148601 0
M  V30 1291 H 119.918 -3.33609 -1.96936 0
M  V30 1292 H 120.332 -5.18975 -0.759267 0
M  V30 1293 H 121.806 -4.94555 -2.45193 0
M  V30 1294 H 122.283 -3.30693 -2.8903 0
M  V30 1295 H 122.889 -4.02315 -1.37924 0
M  V30 1296 N 121.204 0.198386 -1.56346 0
M  V30 1297 C 122.429 0.939682 -1.84891 0
M  V30 1298 C 122.854 1.76202 -0.658369 0
M  V30 1299 O 122.212 1.76993 0.392851 0
M  V30 1300 C 122.26 1.81428 -3.11635 0
M  V30 1301 O 121.364 2.91265 -2.91956 0
M  V30 1302 H 120.705 0.264807 -0.608912 0
M  V30 1303 H 123.235 0.204695 -2.03573 0
M  V30 1304 H 123.245 2.21958 -3.42343 0
M  V30 1305 H 121.92 1.21004 -3.97908 0
M  V30 1306 H 120.497 2.54514 -2.72538 0
M  V30 1307 N 122.682 1.50554 0.465978 0
M  V30 1308 C 123.929 1.61798 1.21768 0
M  V30 1309 C 124.257 0.320696 1.91838 0
M  V30 1310 O 123.512 -0.693724 1.82992 0
M  V30 1311 C 123.811 2.75152 2.28093 0
M  V30 1312 C 123.477 4.15454 1.75239 0
M  V30 1313 C 122.139 4.53628 1.60546 0
M  V30 1314 C 124.491 5.03121 1.36083 0
M  V30 1315 C 121.819 5.77204 1.05128 0
M  V30 1316 C 124.171 6.27249 0.821056 0
M  V30 1317 C 122.835 6.64221 0.660795 0
M  V30 1318 H 122.105 0.592063 0.445582 0
M  V30 1319 H 124.752 1.84503 0.512927 0
M  V30 1320 H 123.057 2.46556 3.04496 0
M  V30 1321 H 124.754 2.81055 2.86023 0
M  V30 1322 H 121.344 3.85341 1.87644 0
M  V30 1323 H 125.528 4.74257 1.46267 0
M  V30 1324 H 120.784 6.0452 0.91462 0
M  V30 1325 H 124.958 6.94537 0.509018 0
M  V30 1326 H 122.585 7.59854 0.229226 0
M  V30 1327 N 124.16 -0.719506 1.40217 0
M  V30 1328 C 125.408 -1.47641 1.3801 0
M  V30 1329 C 125.729 -1.94992 -0.018145 0
M  V30 1330 O 124.999 -1.70073 -0.972207 0
M  V30 1331 H 123.579 -0.547744 0.507923 0
M  V30 1332 H 126.241 -0.853187 1.75233 0
M  V30 1333 H 125.337 -2.35112 2.05253 0
M  V30 1334 N 125.638 -1.25649 -0.95132 0
M  V30 1335 C 127.049 -1.09654 -1.51106 0
M  V30 1336 C 127.4 0.326615 -1.93462 0
M  V30 1337 O 126.525 1.21697 -1.78938 0
M  V30 1338 C 127.12 -1.98437 -2.74605 0
M  V30 1339 C 125.679 -1.86618 -3.2688 0
M  V30 1340 C 124.826 -1.9239 -1.99703 0
M  V30 1341 H 127.777 -1.38887 -0.767865 0
M  V30 1342 H 127.798 -1.5263 -3.48546 0
M  V30 1343 H 127.31 -3.02009 -2.43746 0
M  V30 1344 H 125.411 -0.859421 -3.62553 0
M  V30 1345 H 125.524 -2.71607 -3.94673 0
M  V30 1346 H 123.888 -1.36317 -2.15151 0
M  V30 1347 H 124.671 -2.97573 -1.71188 0
M  V30 1348 N 127.117 1.15442 -1.07289 0
M  V30 1349 C 128.363 1.86489 -0.796846 0
M  V30 1350 C 128.696 1.82078 0.675371 0
M  V30 1351 O 127.971 1.24346 1.4956 0
M  V30 1352 C 128.254 3.35626 -1.30489 0
M  V30 1353 C 128.107 3.48673 -2.84161 0
M  V30 1354 C 129.426 4.30357 -0.920907 0
M  V30 1355 H 126.545 0.677144 -0.290939 0
M  V30 1356 H 129.187 1.35633 -1.33056 0
M  V30 1357 H 127.337 3.79068 -0.850883 0
M  V30 1358 H 129.009 3.14099 -3.37846 0
M  V30 1359 H 127.252 2.90253 -3.22391 0
M  V30 1360 H 127.923 4.53453 -3.14777 0
M  V30 1361 H 130.399 3.94871 -1.3121 0
M  V30 1362 H 129.275 5.33193 -1.30372 0
M  V30 1363 H 129.536 4.4176 0.173226 0
M  V30 1364 N 128.595 0.856903 1.32268 0
M  V30 1365 C 129.82 0.474569 2.01897 0
M  V30 1366 C 130.245 -0.921766 1.63967 0
M  V30 1367 O 129.603 -1.60589 0.84148 0
M  V30 1368 C 129.651 0.623799 3.55164 0
M  V30 1369 O 128.755 -0.342459 4.10976 0
M  V30 1370 H 128.096 0.190422 0.63611 0
M  V30 1371 H 130.626 1.15672 1.68764 0
M  V30 1372 H 130.636 0.512169 4.04773 0
M  V30 1373 H 129.311 1.64202 3.82113 0
M  V30 1374 H 127.888 -0.18688 3.72431 0
M  V30 1375 N 130.073 -1.45103 0.615059 0
M  V30 1376 C 131.35 -1.95549 0.0448276 0
M  V30 1377 C 131.73 -1.55737 -1.4251 0
M  V30 1378 O 131.078 -0.823556 -2.13143 0
M  V30 1379 C 131.288 -3.48098 0.250785 0
M  V30 1380 C 132.636 -4.24384 0.135509 0
M  V30 1381 O 133.66 -3.55738 0.181299 0
M  V30 1382 O 132.519 -5.46493 0.0268878 0
M  V30 1383 H 129.613 -0.8264 -0.0314845 0
M  V30 1384 H 132.159 -1.55232 0.685642 0
M  V30 1385 H 130.931 -3.7007 1.27139 0
M  V30 1386 H 130.554 -3.95323 -0.424937 0
M  V30 1387 N 131.551 -0.354651 -1.53558 0
M  V30 1388 C 132.779 0.239515 -2.05509 0
M  V30 1389 C 133.194 1.4333 -1.2289 0
M  V30 1390 O 132.551 1.80538 -0.266899 0
M  V30 1391 C 132.602 0.643719 -3.55723 0
M  V30 1392 O 132.323 -0.502602 -4.35207 0
M  V30 1393 C 133.824 1.29743 -4.23889 0
M  V30 1394 H 131.044 0.0442697 -0.669538 0
M  V30 1395 H 133.588 -0.509856 -1.98042 0
M  V30 1396 H 131.743 1.34302 -3.63376 0
M  V30 1397 H 132.157 -0.178172 -5.24197 0
M  V30 1398 H 133.631 1.53091 -5.30346 0
M  V30 1399 H 134.108 2.25441 -3.76926 0
M  V30 1400 H 134.714 0.639865 -4.20459 0
M  V30 1401 N 133.029 1.57378 -0.0835403 0
M  V30 1402 C 133.939 2.16897 0.894021 0
M  V30 1403 C 134.955 1.13528 1.31861 0
M  V30 1404 O 136.131 1.45848 1.3889 0
M  V30 1405 C 133.196 2.72831 2.13925 0
M  V30 1406 C 132.257 3.91115 1.76997 0
M  V30 1407 C 131.49 4.44371 2.95584 0
M  V30 1408 O 131.713 3.96596 4.09961 0
M  V30 1409 O 130.647 5.35549 2.74719 0
M  V30 1410 H 134.473 3.00814 0.417679 0
M  V30 1411 H 132.058 1.48741 0.140181 0
M  V30 1412 H 133.94 3.0863 2.86924 0
M  V30 1413 H 132.615 1.91967 2.60635 0
M  V30 1414 H 131.522 3.60148 1.01214 0
M  V30 1415 H 132.855 4.73307 1.3506 0
M  V30 1416 N 134.507 -0.190092 1.56449 0
M  V30 1417 C 135.44 -1.26375 1.90012 0
M  V30 1418 C 136.418 -1.43705 0.760765 0
M  V30 1419 O 137.602 -1.59014 1.01226 0
M  V30 1420 C 134.729 -2.62962 2.13468 0
M  V30 1421 C 133.775 -2.62474 3.36169 0
M  V30 1422 S 134.608 -2.13412 4.91137 0
M  V30 1423 C 135.764 -3.51812 5.17667 0
M  V30 1424 H 135.997 -0.977181 2.80782 0
M  V30 1425 H 133.53 -0.393814 1.49293 0
M  V30 1426 H 135.488 -3.41583 2.27664 0
M  V30 1427 H 134.149 -2.88828 1.23439 0
M  V30 1428 H 133.342 -3.62918 3.49723 0
M  V30 1429 H 132.944 -1.91937 3.20992 0
M  V30 1430 H 135.236 -4.47706 5.08494 0
M  V30 1431 H 136.179 -3.43148 6.19399 0
M  V30 1432 H 136.587 -3.46956 4.45288 0
M  V30 1433 N 135.985 -1.50799 -0.457987 0
M  V30 1434 C 136.895 -1.73426 -1.57989 0
M  V30 1435 C 137.911 -0.617745 -1.62665 0
M  V30 1436 O 139.087 -0.897614 -1.80291 0
M  V30 1437 C 136.152 -1.83557 -2.94122 0
M  V30 1438 C 135.213 -3.07345 -2.99729 0
M  V30 1439 C 134.446 -3.16983 -4.29368 0
M  V30 1440 O 134.669 -2.33077 -5.20607 0
M  V30 1441 O 133.603 -4.09812 -4.40837 0
M  V30 1442 H 137.429 -2.68555 -1.41817 0
M  V30 1443 H 135.014 -1.35052 -0.638859 0
M  V30 1444 H 136.896 -1.92326 -3.74952 0
M  V30 1445 H 135.571 -0.916137 -3.10465 0
M  V30 1446 H 134.478 -3.04068 -2.1793 0
M  V30 1447 H 135.811 -3.9891 -2.88326 0
M  V30 1448 N 137.463 0.71206 -1.40597 0
M  V30 1449 C 138.693 1.49894 -1.42181 0
M  V30 1450 C 139.101 1.89189 -0.0208078 0
M  V30 1451 O 138.444 1.56223 0.966436 0
M  V30 1452 C 138.506 2.80215 -2.25211 0
M  V30 1453 C 138.17 2.63221 -3.73582 0
M  V30 1454 C 139.167 2.30249 -4.66135 0
M  V30 1455 C 136.852 2.79376 -4.17438 0
M  V30 1456 C 138.846 2.13645 -6.00529 0
M  V30 1457 C 136.533 2.6239 -5.51901 0
M  V30 1458 C 137.531 2.29573 -6.43262 0
M  V30 1459 O 137.219 2.12719 -7.75246 0
M  V30 1460 H 136.951 0.469031 -0.486812 0
M  V30 1461 H 139.505 0.88564 -1.85326 0
M  V30 1462 H 137.735 3.4389 -1.76852 0
M  V30 1463 H 139.424 3.41947 -2.18694 0
M  V30 1464 H 140.19 2.17398 -4.33547 0
M  V30 1465 H 136.069 3.03906 -3.46644 0
M  V30 1466 H 139.613 1.87953 -6.71803 0
M  V30 1467 H 135.51 2.74826 -5.84073 0
M  V30 1468 H 136.278 2.27611 -7.86216 0
M  V30 1469 N 138.941 1.26152 0.944643 0
M  V30 1470 C 140.169 1.14259 1.72489 0
M  V30 1471 C 140.584 -0.302555 1.8636 0
M  V30 1472 O 139.941 -1.20741 1.36849 0
M  V30 1473 C 139.992 1.80266 3.13347 0
M  V30 1474 O 139.713 3.19133 3.00143 0
M  V30 1475 C 141.214 1.74283 4.07603 0
M  V30 1476 H 138.434 0.398051 0.540181 0
M  V30 1477 H 140.978 1.66706 1.18446 0
M  V30 1478 H 139.133 1.31766 3.64303 0
M  V30 1479 H 139.547 3.51744 3.89071 0
M  V30 1480 H 141.021 2.25111 5.04013 0
M  V30 1481 H 141.498 0.708631 4.33446 0
M  V30 1482 H 142.104 2.22319 3.62567 0
M  V30 1483 N 140.419 -1.14872 1.07899 0
M  V30 1484 C 141.668 -1.85135 0.800499 0
M  V30 1485 C 141.981 -1.83547 -0.676014 0
M  V30 1486 O 143.187 -2.49548 -1.06948 0
M  V30 1487 C 141.643 -3.3231 1.38197 0
M  V30 1488 C 141.251 -3.42329 2.8899 0
M  V30 1489 C 142.995 -4.0772 1.18174 0
M  V30 1490 C 140.902 -4.83684 3.403 0
M  V30 1491 H 139.832 -0.693563 0.29578 0
M  V30 1492 H 142.483 -1.29532 1.29976 0
M  V30 1493 H 140.865 -3.87618 0.810431 0
M  V30 1494 H 142.039 -2.97097 3.52236 0
M  V30 1495 H 140.354 -2.80369 3.07867 0
M  V30 1496 H 142.951 -5.12049 1.5398 0
M  V30 1497 H 143.294 -4.16124 0.12117 0
M  V30 1498 H 143.827 -3.58696 1.71994 0
M  V30 1499 H 140.566 -4.80465 4.45907 0
M  V30 1500 H 140.086 -5.29474 2.81811 0
M  V30 1501 H 141.765 -5.52558 3.36584 0
M  V30 1502 N 141.898 -0.863906 -1.31812 0
M  V30 1503 C 143.175 -0.39275 -1.91616 0
M  V30 1504 C 143.555 1.12461 -1.7865 0
M  V30 1505 O 142.903 1.95045 -1.19037 0
M  V30 1506 C 143.113 -0.867385 -3.38049 0
M  V30 1507 C 144.461 -0.889966 -4.15168 0
M  V30 1508 O 145.485 -0.812635 -3.46806 0
M  V30 1509 O 144.344 -1.00079 -5.37258 0
M  V30 1510 H 141.438 -0.116358 -0.818773 0
M  V30 1511 H 143.984 -0.951418 -1.40521 0
M  V30 1512 H 142.756 -1.91081 -3.41473 0
M  V30 1513 H 142.379 -0.286687 -3.96565 0
M  V30 1514 N 143.376 1.44774 -0.622745 0
M  V30 1515 C 144.622 2.0242 -0.124083 0
M  V30 1516 C 144.955 1.4881 1.24777 0
M  V30 1517 O 144.23 0.668799 1.8264 0
M  V30 1518 C 144.513 3.59957 -0.101619 0
M  V30 1519 C 144.366 4.23867 -1.50521 0
M  V30 1520 C 145.685 4.36284 0.578272 0
M  V30 1521 H 142.804 0.735528 -0.0465645 0
M  V30 1522 H 145.446 1.72447 -0.797617 0
M  V30 1523 H 143.596 3.85623 0.471934 0
M  V30 1524 H 145.268 4.09336 -2.12701 0
M  V30 1525 H 143.511 3.81684 -2.06154 0
M  V30 1526 H 144.182 5.32843 -1.4416 0
M  V30 1527 H 146.658 4.16001 0.0906057 0
M  V30 1528 H 145.534 5.46004 0.563149 0
M  V30 1529 H 145.795 4.10271 1.64713 0
M  V30 1530 N 144.854 0.36279 1.53368 0
M  V30 1531 C 146.101 -0.227776 2.01215 0
M  V30 1532 C 146.429 -1.49003 1.25014 0
M  V30 1533 O 145.684 -1.92876 0.331236 0
M  V30 1534 C 145.983 -0.568417 3.52851 0
M  V30 1535 C 145.649 0.59918 4.46901 0
M  V30 1536 C 144.311 0.919559 4.72332 0
M  V30 1537 C 146.663 1.38156 5.02556 0
M  V30 1538 C 143.991 2.02434 5.5067 0
M  V30 1539 C 146.343 2.47674 5.821 0
M  V30 1540 C 145.007 2.8025 6.05819 0
M  V30 1541 H 144.277 -0.083349 0.736297 0
M  V30 1542 H 146.924 0.494677 1.85001 0
M  V30 1543 H 145.229 -1.37185 3.66998 0
M  V30 1544 H 146.926 -1.03756 3.87344 0
M  V30 1545 H 143.516 0.339437 4.27254 0
M  V30 1546 H 147.7 1.14729 4.82857 0
M  V30 1547 H 142.956 2.28075 5.67267 0
M  V30 1548 H 147.13 3.08716 6.24234 0
M  V30 1549 H 144.757 3.65979 6.66306 0
M  V30 1550 N 146.332 -1.57332 0.0918853 0
M  V30 1551 C 147.579 -1.94236 -0.572577 0
M  V30 1552 C 147.907 -0.973398 -1.6839 0
M  V30 1553 O 147.162 0.00756912 -1.95699 0
M  V30 1554 C 147.461 -3.37689 -1.17051 0
M  V30 1555 C 147.127 -4.50527 -0.183304 0
M  V30 1556 C 145.789 -4.81119 0.0882276 0
M  V30 1557 C 148.141 -5.18883 0.49095 0
M  V30 1558 C 145.469 -5.77395 1.04076 0
M  V30 1559 C 147.821 -6.1618 1.43193 0
M  V30 1560 C 146.485 -6.45179 1.71173 0
M  V30 1561 H 145.755 -0.710762 -0.209521 0
M  V30 1562 H 148.402 -1.9077 0.167036 0
M  V30 1563 H 146.707 -3.37718 -1.9863 0
M  V30 1564 H 148.404 -3.63543 -1.69227 0
M  V30 1565 H 144.994 -4.26681 -0.405124 0
M  V30 1566 H 149.178 -4.95427 0.294312 0
M  V30 1567 H 144.434 -5.98179 1.26457 0
M  V30 1568 H 148.608 -6.68243 1.96023 0
M  V30 1569 H 146.235 -7.1959 2.4514 0
M  V30 1570 N 147.81 0.181792 -1.56548 0
M  V30 1571 C 149.226 0.53316 -1.50431 0
M  V30 1572 C 149.426 1.85184 -0.794297 0
M  V30 1573 O 148.482 2.50058 -0.350318 0
M  V30 1574 C 149.795 0.575597 -2.9514 0
M  V30 1575 C 151.343 0.663519 -3.05886 0
M  V30 1576 C 151.818 0.736946 -4.52032 0
M  V30 1577 N 153.309 0.800118 -4.56237 0
M  V30 1578 C 154.044 0.877327 -5.66649 0
M  V30 1579 N 153.54 0.916016 -6.86718 0
M  V30 1580 N 155.333 0.915542 -5.54594 0
M  V30 1581 H 147.484 -0.683025 -2.01118 0
M  V30 1582 H 149.747 -0.244988 -0.915797 0
M  V30 1583 H 149.453 -0.324482 -3.502 0
M  V30 1584 H 149.327 1.42572 -3.49218 0
M  V30 1585 H 151.714 1.55403 -2.50867 0
M  V30 1586 H 151.795 -0.21307 -2.54911 0
M  V30 1587 H 151.439 -0.149262 -5.07681 0
M  V30 1588 H 151.369 1.62953 -5.00753 0
M  V30 1589 H 153.86 0.778926 -3.69785 0
M  V30 1590 H 154.173 0.975813 -7.66614 0
M  V30 1591 H 152.518 0.884469 -6.89349 0
M  V30 1592 H 155.709 0.882245 -4.59711 0
M  V30 1593 H 155.882 0.972253 -6.40665 0
M  V30 1594 N 149.288 1.51039 0.449983 0
M  V30 1595 C 150.22 1.67617 1.56324 0
M  V30 1596 C 151.233 0.557083 1.52972 0
M  V30 1597 O 152.422 0.830989 1.57977 0
M  V30 1598 C 149.522 1.66402 2.95235 0
M  V30 1599 C 148.695 2.9469 3.23229 0
M  V30 1600 C 147.754 2.85832 4.41799 0
M  V30 1601 O 146.78 3.59785 4.41071 0
M  V30 1602 N 147.982 2.00821 5.44657 0
M  V30 1603 H 150.747 2.63648 1.42512 0
M  V30 1604 H 148.308 1.48767 0.638737 0
M  V30 1605 H 150.3 1.58062 3.72557 0
M  V30 1606 H 148.87 0.780182 3.02708 0
M  V30 1607 H 148.09 3.16996 2.34323 0
M  V30 1608 H 149.378 3.79636 3.38754 0
M  V30 1609 H 148.776 1.40091 5.48079 0
M  V30 1610 H 147.333 1.98368 6.20881 0
M  V30 1611 N 150.766 -0.704594 1.40972 0
M  V30 1612 C 151.991 -1.49858 1.43378 0
M  V30 1613 C 152.416 -1.88061 0.038184 0
M  V30 1614 O 151.774 -1.5402 -0.956425 0
M  V30 1615 C 151.822 -2.74333 2.34038 0
M  V30 1616 O 150.926 -3.7147 1.7912 0
M  V30 1617 H 150.267 -0.45139 0.486974 0
M  V30 1618 H 152.797 -0.866832 1.8533 0
M  V30 1619 H 152.807 -3.22741 2.49604 0
M  V30 1620 H 151.482 -2.45863 3.35446 0
M  V30 1621 H 150.059 -3.30363 1.72958 0
M  V30 1622 N 152.244 -1.26651 -0.937939 0
M  V30 1623 C 153.49 -1.13562 -1.68746 0
M  V30 1624 C 153.845 0.317241 -1.89767 0
M  V30 1625 O 153.138 1.22939 -1.46957 0
M  V30 1626 C 153.332 -1.84168 -3.06295 0
M  V30 1627 C 153.161 -3.36171 -2.98696 0
M  V30 1628 C 151.931 -4.05468 -3.01535 0
M  V30 1629 C 154.129 -4.32312 -2.78588 0
M  V30 1630 N 152.111 -5.44118 -2.84269 0
M  V30 1631 C 153.482 -5.58159 -2.69924 0
M  V30 1632 C 155.537 -4.22524 -2.63396 0
M  V30 1633 C 154.24 -6.75335 -2.47618 0
M  V30 1634 C 156.266 -5.39411 -2.42466 0
M  V30 1635 C 155.628 -6.64208 -2.34536 0
M  V30 1636 H 151.727 -0.470361 -0.624728 0
M  V30 1637 H 154.311 -1.59982 -1.10968 0
M  V30 1638 H 152.482 -1.40219 -3.62206 0
M  V30 1639 H 154.214 -1.63674 -3.70126 0
M  V30 1640 H 150.969 -3.56854 -3.11372 0
M  V30 1641 H 151.393 -6.1693 -2.78795 0
M  V30 1642 H 156.035 -3.26771 -2.68292 0
M  V30 1643 H 153.753 -7.71182 -2.41463 0
M  V30 1644 H 157.339 -5.33711 -2.31611 0
M  V30 1645 H 156.219 -7.53129 -2.18555 0
M  V30 1646 N 153.722 1.14298 -1.08507 0
M  V30 1647 C 154.669 2.19414 -0.715965 0
M  V30 1648 C 155.639 1.63399 0.298326 0
M  V30 1649 O 156.824 1.89929 0.182101 0
M  V30 1650 C 153.964 3.44845 -0.132534 0
M  V30 1651 C 153.077 4.15007 -1.19973 0
M  V30 1652 C 152.212 5.28024 -0.580048 0
M  V30 1653 C 151.251 5.9002 -1.62921 0
M  V30 1654 N 150.388 6.94485 -1.03125 0
M  V30 1655 H 155.228 2.50336 -1.61666 0
M  V30 1656 H 152.765 1.2293 -0.807882 0
M  V30 1657 H 154.723 4.16601 0.223454 0
M  V30 1658 H 153.353 3.14403 0.731467 0
M  V30 1659 H 152.405 3.41629 -1.67313 0
M  V30 1660 H 153.717 4.57178 -1.99473 0
M  V30 1661 H 152.871 6.06455 -0.172364 0
M  V30 1662 H 151.61 4.87076 0.246603 0
M  V30 1663 H 150.615 5.10291 -2.04654 0
M  V30 1664 H 151.84 6.33042 -2.45835 0
M  V30 1665 H 149.786 6.55612 -0.225711 0
M  V30 1666 H 149.703 7.35148 -1.76334 0
M  V30 1667 H 150.971 7.7679 -0.649458 0
M  V30 1668 N 155.201 0.870884 1.31352 0
M  V30 1669 C 156.478 0.402907 1.91405 0
M  V30 1670 C 156.858 -1.11512 1.79244 0
M  V30 1671 O 156.206 -1.94411 1.2007 0
M  V30 1672 C 156.416 0.885301 3.37585 0
M  V30 1673 C 157.764 0.911971 4.14691 0
M  V30 1674 O 158.788 0.831016 3.46371 0
M  V30 1675 O 157.647 1.02927 5.3672 0
M  V30 1676 H 154.741 0.120698 0.818145 0
M  V30 1677 H 157.287 0.958857 1.40014 0
M  V30 1678 H 156.059 1.92889 3.40455 0
M  V30 1679 H 155.682 0.307714 3.96407 0
M  V30 1680 N 156.679 -1.44442 0.630414 0
M  V30 1681 C 157.589 -2.34476 -0.0761693 0
M  V30 1682 C 158.605 -1.52576 -0.836449 0
M  V30 1683 O 159.781 -1.85307 -0.788874 0
M  V30 1684 C 156.846 -3.30545 -1.04599 0
M  V30 1685 C 155.907 -4.28352 -0.28516 0
M  V30 1686 C 155.14 -5.19831 -1.20878 0
M  V30 1687 O 155.363 -5.15223 -2.44747 0
M  V30 1688 O 154.297 -5.97892 -0.693491 0
M  V30 1689 H 158.123 -2.96345 0.664324 0
M  V30 1690 H 155.708 -1.44203 0.39061 0
M  V30 1691 H 157.59 -3.89681 -1.60396 0
M  V30 1692 H 156.265 -2.7121 -1.76711 0
M  V30 1693 H 155.172 -3.72764 0.315837 0
M  V30 1694 H 156.505 -4.90605 0.395924 0
M  V30 1695 N 158.157 -0.370918 -1.53173 0
M  V30 1696 C 159.573 -0.0200818 -1.59587 0
M  V30 1697 C 159.773 1.46279 -1.38581 0
M  V30 1698 O 158.829 2.22506 -1.19363 0
M  V30 1699 C 160.142 -0.4808 -2.96831 0
M  V30 1700 C 161.69 -0.435477 -3.09956 0
M  V30 1701 C 162.165 -0.872092 -4.4962 0
M  V30 1702 N 163.656 -0.827364 -4.55751 0
M  V30 1703 C 164.391 -1.13683 -5.62018 0
M  V30 1704 N 163.887 -1.51584 -6.76014 0
M  V30 1705 N 165.68 -1.05927 -5.52029 0
M  V30 1706 H 157.831 -1.33652 -1.65079 0
M  V30 1707 H 160.094 -0.546634 -0.774529 0
M  V30 1708 H 159.8 -1.51577 -3.1736 0
M  V30 1709 H 159.674 0.129796 -3.76977 0
M  V30 1710 H 162.061 0.590371 -2.89134 0
M  V30 1711 H 162.142 -1.08164 -2.31806 0
M  V30 1712 H 161.786 -1.89608 -4.71181 0
M  V30 1713 H 161.716 -0.203127 -5.26208 0
M  V30 1714 H 164.207 -0.548216 -3.73902 0
M  V30 1715 H 164.52 -1.73609 -7.53047 0
M  V30 1716 H 162.865 -1.55454 -6.77391 0
M  V30 1717 H 166.056 -0.762321 -4.61851 0
M  V30 1718 H 166.229 -1.30378 -6.34749 0
M  V30 1719 N 159.635 1.57281 -0.100228 0
M  V30 1720 C 160.565 2.17328 0.853857 0
M  V30 1721 C 161.546 1.10804 1.2906 0
M  V30 1722 O 162.731 1.38963 1.35657 0
M  V30 1723 C 159.861 2.75772 2.11109 0
M  V30 1724 C 158.815 3.87713 1.81279 0
M  V30 1725 C 158.141 4.32882 3.13874 0
M  V30 1726 C 159.441 5.10677 1.09574 0
M  V30 1727 H 161.135 2.97305 0.353545 0
M  V30 1728 H 158.681 1.43009 0.168612 0
M  V30 1729 H 160.634 3.16433 2.78296 0
M  V30 1730 H 159.358 1.93057 2.63432 0
M  V30 1731 H 158.017 3.476 1.16489 0
M  V30 1732 H 157.665 3.47051 3.64095 0
M  V30 1733 H 157.365 5.08358 2.94696 0
M  V30 1734 H 158.889 4.7618 3.82211 0
M  V30 1735 H 160.303 5.48474 1.66879 0
M  V30 1736 H 158.7 5.91615 1.00557 0
M  V30 1737 H 159.77 4.84835 0.0793299 0
M  V30 1738 N 161.113 -0.173488 1.56642 0
M  V30 1739 C 162.529 -0.525174 1.50712 0
M  V30 1740 C 162.729 -1.8476 0.804107 0
M  V30 1741 O 161.785 -2.49869 0.363574 0
M  V30 1742 C 163.098 -0.559937 2.95441 0
M  V30 1743 C 164.646 -0.647288 3.06234 0
M  V30 1744 C 165.121 -0.712963 4.52417 0
M  V30 1745 N 166.612 -0.775911 4.56655 0
M  V30 1746 C 167.347 -0.847264 5.67106 0
M  V30 1747 N 166.843 -0.879585 6.87194 0
M  V30 1748 N 168.636 -0.886117 5.55071 0
M  V30 1749 H 160.787 0.693681 2.00753 0
M  V30 1750 H 163.05 0.249841 0.914485 0
M  V30 1751 H 162.756 0.343049 3.50023 0
M  V30 1752 H 162.63 -1.40718 3.49969 0
M  V30 1753 H 165.017 -1.5407 2.51687 0
M  V30 1754 H 165.098 0.226586 2.54794 0
M  V30 1755 H 164.742 0.176183 5.07594 0
M  V30 1756 H 164.672 -1.60295 5.0161 0
M  V30 1757 H 167.163 -0.759304 3.70193 0
M  V30 1758 H 167.476 -0.935144 7.67121 0
M  V30 1759 H 165.821 -0.847898 6.89808 0
M  V30 1760 H 169.012 -0.857853 4.60172 0
M  V30 1761 H 169.185 -0.938263 6.41171 0
M  V30 1762 N 162.591 -1.51276 -0.441967 0
M  V30 1763 C 163.838 -1.63715 -1.19179 0
M  V30 1764 C 164.166 -0.351175 -1.91303 0
M  V30 1765 O 163.421 0.664524 -1.84072 0
M  V30 1766 C 163.72 -2.78746 -2.23686 0
M  V30 1767 C 163.386 -4.18189 -1.68607 0
M  V30 1768 C 162.048 -4.56125 -1.53308 0
M  V30 1769 C 164.4 -5.05222 -1.28062 0
M  V30 1770 C 161.728 -5.78804 -0.959317 0
M  V30 1771 C 164.08 -6.28476 -0.721162 0
M  V30 1772 C 162.744 -6.65188 -0.55504 0
M  V30 1773 H 162.014 -0.599076 -0.436106 0
M  V30 1774 H 164.661 -1.85296 -0.48351 0
M  V30 1775 H 162.966 -2.51369 -3.00535 0
M  V30 1776 H 164.663 -2.8557 -2.81515 0
M  V30 1777 H 161.253 -3.88277 -1.8149 0
M  V30 1778 H 165.437 -4.76524 -1.38704 0
M  V30 1779 H 160.693 -6.05899 -0.81833 0
M  V30 1780 H 164.867 -6.95259 -0.398458 0
M  V30 1781 H 162.494 -7.60123 -0.108311 0
M  V30 1782 N 164.069 0.697108 -1.41344 0
M  V30 1783 C 165.016 1.81106 -1.43071 0
M  V30 1784 C 165.986 1.63632 -0.285275 0
M  V30 1785 O 167.171 1.84504 -0.486091 0
M  V30 1786 C 164.311 3.18975 -1.31715 0
M  V30 1787 C 163.424 3.47892 -2.56115 0
M  V30 1788 C 162.559 4.75367 -2.37064 0
M  V30 1789 C 161.598 4.97247 -3.56948 0
M  V30 1790 N 160.735 6.15947 -3.36977 0
M  V30 1791 H 165.575 1.78965 -2.38276 0
M  V30 1792 H 163.112 0.873975 -1.18322 0
M  V30 1793 H 165.07 3.98615 -1.23133 0
M  V30 1794 H 163.7 3.20297 -0.401183 0
M  V30 1795 H 162.752 2.62669 -2.75153 0
M  V30 1796 H 164.064 3.59962 -3.45295 0
M  V30 1797 H 163.218 5.63059 -2.25941 0
M  V30 1798 H 161.957 4.65541 -1.45338 0
M  V30 1799 H 160.962 4.08004 -3.68527 0
M  V30 1800 H 162.187 5.08934 -4.49626 0
M  V30 1801 H 160.133 6.07336 -2.47949 0
M  V30 1802 H 160.05 6.28777 -4.19732 0
M  V30 1803 H 161.318 7.06377 -3.29623 0
M  V30 1804 N 165.547 1.27147 0.931209 0
M  V30 1805 C 166.795 1.13055 1.6752 0
M  V30 1806 C 167.116 -0.324791 1.92276 0
M  V30 1807 O 166.386 -1.22775 1.52654 0
M  V30 1808 H 164.966 0.415391 0.620854 0
M  V30 1809 H 167.628 1.59623 1.11833 0
M  V30 1810 H 166.724 1.65694 2.64485 0
M  V30 1811 N 167.025 -1.13721 1.09112 0
M  V30 1812 C 168.436 -1.6648 0.845068 0
M  V30 1813 C 168.787 -1.85911 -0.62701 0
M  V30 1814 O 167.912 -1.57556 -1.48341 0
M  V30 1815 C 168.507 -3.02413 1.52748 0
M  V30 1816 C 167.066 -3.52176 1.32849 0
M  V30 1817 C 166.213 -2.27492 1.58564 0
M  V30 1818 H 169.164 -0.976872 1.25072 0
M  V30 1819 H 169.185 -3.68223 0.958752 0
M  V30 1820 H 168.697 -2.88238 2.59885 0
M  V30 1821 H 166.798 -3.7156 0.278137 0
M  V30 1822 H 166.911 -4.32499 2.0611 0
M  V30 1823 H 165.275 -2.33923 1.00758 0
M  V30 1824 H 166.058 -2.15886 2.66924 0
M  V30 1825 N 168.503 -0.877838 -1.30888 0
M  V30 1826 C 169.436 -0.283995 -2.26426 0
M  V30 1827 C 170.414 0.591361 -1.51465 0
M  V30 1828 O 171.598 0.54304 -1.80509 0
M  V30 1829 C 168.725 0.597129 -3.33395 0
M  V30 1830 C 167.771 -0.207937 -4.25993 0
M  V30 1831 S 168.604 -1.59158 -5.11301 0
M  V30 1832 C 169.76 -0.716791 -6.21782 0
M  V30 1833 H 169.993 -1.09383 -2.76446 0
M  V30 1834 H 167.526 -0.676828 -1.38775 0
M  V30 1835 H 169.484 1.09978 -3.95493 0
M  V30 1836 H 168.145 1.38099 -2.82113 0
M  V30 1837 H 167.338 0.464163 -5.01858 0
M  V30 1838 H 166.94 -0.642963 -3.68432 0
M  V30 1839 H 169.232 0.0692833 -6.77465 0
M  V30 1840 H 170.175 -1.44682 -6.93161 0
M  V30 1841 H 170.583 -0.280855 -5.63801 0
M  V30 1842 N 169.982 1.44106 -0.638065 0
M  V30 1843 C 170.914 2.28976 0.101205 0
M  V30 1844 C 171.927 1.4167 0.802088 0
M  V30 1845 O 173.116 1.65755 0.662375 0
M  V30 1846 C 170.216 3.18217 1.16581 0
M  V30 1847 C 169.389 4.33978 0.546066 0
M  V30 1848 C 168.448 5.04202 1.50554 0
M  V30 1849 O 167.474 5.59986 1.01999 0
M  V30 1850 N 168.676 5.06296 2.8398 0
M  V30 1851 H 171.441 2.93064 -0.627186 0
M  V30 1852 H 169.002 1.54629 -0.479731 0
M  V30 1853 H 170.994 3.62061 1.80815 0
M  V30 1854 H 169.564 2.55833 1.79634 0
M  V30 1855 H 168.784 3.93239 -0.275046 0
M  V30 1856 H 170.072 5.08675 0.112793 0
M  V30 1857 H 169.47 4.62319 3.26002 0
M  V30 1858 H 168.027 5.53907 3.43556 0
M  V30 1859 N 171.46 0.379036 1.52974 0
M  V30 1860 C 172.876 0.0285448 1.59574 0
M  V30 1861 C 173.076 -1.45542 1.39355 0
M  V30 1862 O 172.132 -2.2187 1.20541 0
M  V30 1863 C 173.445 0.496535 2.96572 0
M  V30 1864 C 174.993 0.451909 3.0972 0
M  V30 1865 C 175.468 0.895924 4.49152 0
M  V30 1866 N 176.959 0.851522 4.55306 0
M  V30 1867 C 177.694 1.16661 5.61407 0
M  V30 1868 N 177.19 1.55166 6.752 0
M  V30 1869 N 178.983 1.08853 5.51459 0
M  V30 1870 H 171.134 1.34525 1.64367 0
M  V30 1871 H 173.397 0.550733 0.771619 0
M  V30 1872 H 173.103 1.53258 3.16552 0
M  V30 1873 H 172.977 -0.109802 3.7704 0
M  V30 1874 H 175.364 -0.575029 2.89443 0
M  V30 1875 H 175.445 1.09392 2.3123 0
M  V30 1876 H 175.089 1.92104 4.70168 0
M  V30 1877 H 175.019 0.23103 5.26093 0
M  V30 1878 H 177.51 0.568038 3.73606 0
M  V30 1879 H 177.823 1.776 7.52116 0
M  V30 1880 H 176.168 1.59044 6.76557 0
M  V30 1881 H 179.359 0.786803 4.6144 0
M  V30 1882 H 179.532 1.33742 6.34048 0
M  V30 1883 N 172.938 -1.57226 0.108567 0
M  V30 1884 C 173.868 -2.17778 -0.84232 0
M  V30 1885 C 174.849 -1.11487 -1.2847 0
M  V30 1886 O 176.034 -1.39681 -1.34918 0
M  V30 1887 C 173.164 -2.76888 -2.09644 0
M  V30 1888 C 172.118 -3.88669 -1.79221 0
M  V30 1889 C 171.444 -4.34541 -3.11574 0
M  V30 1890 C 172.744 -5.11251 -1.06864 0
M  V30 1891 H 174.438 -2.97489 -0.337774 0
M  V30 1892 H 171.984 -1.43097 -0.161025 0
M  V30 1893 H 173.937 -3.17904 -2.76614 0
M  V30 1894 H 172.661 -1.94451 -2.62405 0
M  V30 1895 H 171.32 -3.48213 -1.14644 0
M  V30 1896 H 170.968 -3.48977 -3.62249 0
M  V30 1897 H 170.668 -5.09914 -2.91996 0
M  V30 1898 H 172.192 -4.782 -3.7968 0
M  V30 1899 H 173.606 -5.49352 -1.63968 0
M  V30 1900 H 172.003 -5.9214 -0.974178 0
M  V30 1901 H 173.073 -4.8487 -0.0536168 0
M  V30 1902 N 174.416 0.165178 -1.56732 0
M  V30 1903 C 175.827 0.727046 -1.71962 0
M  V30 1904 C 176.178 1.82508 -0.720078 0
M  V30 1905 O 175.303 2.16082 0.117242 0
M  V30 1906 C 175.898 1.32559 -3.11791 0
M  V30 1907 C 174.457 1.83422 -3.28684 0
M  V30 1908 C 173.604 0.715567 -2.67908 0
M  V30 1909 H 176.555 -0.0602896 -1.58585 0
M  V30 1910 H 176.576 2.19533 -3.10782 0
M  V30 1911 H 176.088 0.526195 -3.84516 0
M  V30 1912 H 174.189 2.65986 -2.60926 0
M  V30 1913 H 174.302 1.97543 -4.36478 0
M  V30 1914 H 172.666 1.13758 -2.27884 0
M  V30 1915 H 173.449 -0.0720836 -3.43224 0
M  V30 1916 N 175.894 1.51508 0.433938 0
M  V30 1917 C 176.824 1.76016 1.53429 0
M  V30 1918 C 177.805 0.610112 1.58782 0
M  V30 1919 O 178.99 0.853177 1.74455 0
M  V30 1920 C 176.12 1.88831 2.9148 0
M  V30 1921 C 175.074 3.04288 3.00987 0
M  V30 1922 C 174.4 3.0229 4.4105 0
M  V30 1923 C 175.7 4.44193 2.74754 0
M  V30 1924 H 177.394 2.68152 1.33171 0
M  V30 1925 H 174.94 1.29035 0.639214 0
M  V30 1926 H 176.893 2.04559 3.6842 0
M  V30 1927 H 175.617 0.933455 3.12976 0
M  V30 1928 H 174.276 2.8827 2.26486 0
M  V30 1929 H 173.924 2.04576 4.59519 0
M  V30 1930 H 173.624 3.79822 4.4834 0
M  V30 1931 H 175.148 3.20116 5.1996 0
M  V30 1932 H 176.562 4.60544 3.41426 0
M  V30 1933 H 174.959 5.23457 2.9345 0
M  V30 1934 H 176.029 4.53996 1.70339 0
M  V30 1935 N 177.372 -0.689602 1.41712 0
M  V30 1936 C 178.32 -1.82475 1.44242 0
M  V30 1937 C 179.314 -1.66354 0.319774 0
M  V30 1938 O 180.52 -1.73143 0.492089 0
M  V30 1939 H 176.895 -0.601416 0.451445 0
M  V30 1940 H 178.866 -1.77458 2.39899 0
M  V30 1941 C 177.615 -3.20535 1.3473 0
M  V30 1942 H 176.938 -3.33559 2.20405 0
M  V30 1943 H 178.378 -4.00023 1.40562 0
M  V30 1944 C 176.837 -3.36846 0.0603281 0
M  V30 1945 O 177.367 -3.91656 -0.892663 0
M  V30 1946 N 175.573 -2.90595 -0.0177039 0
M  V30 1947 H 175.12 -2.46178 0.758572 0
M  V30 1948 H 175.078 -3.01886 -0.878201 0
M  V30 1949 N 178.85 -1.27639 -0.924453 0
M  V30 1950 C 179.798 -1.10485 -2.04685 0
M  V30 1951 C 180.792 -0.0270421 -1.69378 0
M  V30 1952 O 181.998 -0.185008 -1.79047 0
M  V30 1953 H 178.373 -0.340546 -0.670472 0
M  V30 1954 H 180.344 -2.05566 -2.16298 0
M  V30 1955 C 179.093 -0.772229 -3.39016 0
M  V30 1956 H 178.416 -1.59351 -3.66671 0
M  V30 1957 H 179.856 -0.692097 -4.18313 0
M  V30 1958 C 178.315 0.523554 -3.32807 0
M  V30 1959 O 178.845 1.55702 -3.70297 0
M  V30 1960 N 177.051 0.520363 -2.85903 0
M  V30 1961 H 176.598 -0.32107 -2.55591 0
M  V30 1962 H 176.556 1.38742 -2.82131 0
M  V30 1963 N 180.328 1.1314 -1.09713 0
M  V30 1964 C 181.258 2.20748 -0.761102 0
M  V30 1965 C 182.239 1.68061 0.262566 0
M  V30 1966 O 183.424 1.93765 0.129977 0
M  V30 1967 C 180.554 3.46812 -0.184054 0
M  V30 1968 C 179.508 4.12606 -1.13757 0
M  V30 1969 C 178.834 5.33031 -0.422083 0
M  V30 1970 C 180.134 4.59603 -2.48118 0
M  V30 1971 H 181.828 2.49113 -1.66082 0
M  V30 1972 H 179.374 1.19734 -0.799987 0
M  V30 1973 H 181.327 4.21353 0.0631215 0
M  V30 1974 H 180.051 3.17851 0.750868 0
M  V30 1975 H 178.71 3.40036 -1.37007 0
M  V30 1976 H 178.358 5.00335 0.517072 0
M  V30 1977 H 178.058 5.77999 -1.05788 0
M  V30 1978 H 179.582 6.10325 -0.183277 0
M  V30 1979 H 180.996 5.25552 -2.29059 0
M  V30 1980 H 179.393 5.15321 -3.07514 0
M  V30 1981 H 180.463 3.73971 -3.08665 0
M  V30 1982 N 181.806 0.884767 1.30421 0
M  V30 1983 C 182.736 0.367574 2.30589 0
M  V30 1984 C 183.717 -0.549464 1.60981 0
M  V30 1985 O 184.902 -0.46336 1.88591 0
M  V30 1986 C 182.032 -0.418944 3.44764 0
M  V30 1987 C 180.986 0.406316 4.26067 0
M  V30 1988 C 180.312 -0.506793 5.32293 0
M  V30 1989 C 181.612 1.64832 4.95608 0
M  V30 1990 H 183.306 1.20462 2.74097 0
M  V30 1991 H 180.852 0.580695 1.31772 0
M  V30 1992 H 182.805 -0.791395 4.13902 0
M  V30 1993 H 181.529 -1.28964 3.0006 0
M  V30 1994 H 180.188 0.760903 3.58617 0
M  V30 1995 H 179.836 -1.37519 4.83836 0
M  V30 1996 H 179.536 0.0415828 5.87585 0
M  V30 1997 H 181.06 -0.875764 6.04287 0
M  V30 1998 H 182.474 1.34646 5.57264 0
M  V30 1999 H 180.871 2.13688 5.60765 0
M  V30 2000 H 181.941 2.39284 4.21748 0
M  V30 2001 N 183.284 -1.43765 0.645699 0
M  V30 2002 C 184.247 -2.29163 -0.0409488 0
M  V30 2003 C 185.247 -1.41813 -0.757996 0
M  V30 2004 O 186.437 -1.63527 -0.600382 0
M  V30 2005 C 183.569 -3.23716 -1.06869 0
M  V30 2006 H 184.762 -2.91366 0.710345 0
M  V30 2007 H 182.315 -1.5092 0.406547 0
M  V30 2008 H 183.05 -2.66393 -1.84947 0
M  V30 2009 H 182.835 -3.88105 -0.558277 0
M  V30 2010 H 184.325 -3.87831 -1.54845 0
M  V30 2011 N 184.763 -0.387143 -1.52771 0
M  V30 2012 C 185.988 0.198407 -2.06449 0
M  V30 2013 C 186.413 1.39918 -1.25716 0
M  V30 2014 O 185.771 1.79099 -0.281657 0
M  V30 2015 C 185.819 0.548893 -3.56398 0
M  V30 2016 O 184.923 1.64315 -3.78252 0
M  V30 2017 H 184.264 0.0237731 -0.663574 0
M  V30 2018 H 186.794 -0.553989 -1.96957 0
M  V30 2019 H 186.804 0.813812 -3.99801 0
M  V30 2020 H 185.479 -0.329005 -4.14597 0
M  V30 2021 H 184.056 1.37211 -3.46738 0
M  V30 2022 N 186.241 1.57166 -0.116904 0
M  V30 2023 C 187.188 2.15202 0.83408 0
M  V30 2024 C 188.158 1.07644 1.26499 0
M  V30 2025 O 189.343 1.35541 1.34288 0
M  V30 2026 C 186.483 2.75405 2.07957 0
M  V30 2027 C 185.596 3.97264 1.69721 0
M  V30 2028 C 184.731 4.45561 2.89221 0
M  V30 2029 C 183.77 5.59956 2.47215 0
M  V30 2030 N 182.907 6.03006 3.59622 0
M  V30 2031 H 187.747 2.96141 0.332335 0
M  V30 2032 H 185.284 1.46309 0.152349 0
M  V30 2033 H 187.242 3.08439 2.80929 0
M  V30 2034 H 185.872 1.97159 2.55594 0
M  V30 2035 H 184.924 3.70404 0.866316 0
M  V30 2036 H 186.236 4.80226 1.34849 0
M  V30 2037 H 185.39 4.80493 3.7042 0
M  V30 2038 H 184.129 3.61544 3.27318 0
M  V30 2039 H 183.134 5.2463 1.64448 0
M  V30 2040 H 184.359 6.45738 2.10238 0
M  V30 2041 H 182.305 5.21931 3.97396 0
M  V30 2042 H 182.222 6.80819 3.28667 0
M  V30 2043 H 183.49 6.42576 4.41267 0
M  V30 2044 N 187.719 -0.156864 1.56817 0
M  V30 2045 C 188.968 -0.869504 1.81996 0
M  V30 2046 C 189.281 -1.82777 0.696545 0
M  V30 2047 O 190.487 -2.58384 0.833658 0
M  V30 2048 C 188.943 -1.59679 3.22538 0
M  V30 2049 C 188.551 -0.681431 4.42787 0
M  V30 2050 C 190.295 -2.2968 3.56997 0
M  V30 2051 C 188.202 -1.40978 5.74351 0
M  V30 2052 H 187.132 -0.328438 0.678708 0
M  V30 2053 H 189.783 -0.1223 1.83092 0
M  V30 2054 H 188.165 -2.38927 3.158 0
M  V30 2055 H 189.339 0.0751166 4.60739 0
M  V30 2056 H 187.654 -0.0903431 4.16302 0
M  V30 2057 H 190.251 -2.84794 4.52544 0
M  V30 2058 H 190.594 -3.05707 2.82576 0
M  V30 2059 H 191.127 -1.57361 3.65352 0
M  V30 2060 H 187.866 -0.691561 6.51842 0
M  V30 2061 H 187.386 -2.13929 5.60352 0
M  V30 2062 H 189.065 -1.95337 6.16808 0
M  V30 2063 N 189.197 -1.51736 -0.425897 0
M  V30 2064 C 190.443 -1.66174 -1.17294 0
M  V30 2065 C 190.798 -0.37876 -1.88635 0
M  V30 2066 O 190.091 0.626021 -1.81084 0
M  V30 2067 C 190.285 -2.81103 -2.20717 0
M  V30 2068 C 190.114 -4.20453 -1.59529 0
M  V30 2069 C 188.884 -4.86225 -1.37525 0
M  V30 2070 C 191.082 -5.03146 -1.06528 0
M  V30 2071 N 189.064 -6.09657 -0.720537 0
M  V30 2072 C 190.435 -6.17674 -0.536506 0
M  V30 2073 C 192.49 -4.88594 -0.958127 0
M  V30 2074 C 191.193 -7.19245 0.0888917 0
M  V30 2075 C 193.219 -5.90383 -0.346608 0
M  V30 2076 C 192.581 -7.04191 0.171564 0
M  V30 2077 H 188.68 -0.661871 -0.416475 0
M  V30 2078 H 191.264 -1.88997 -0.467801 0
M  V30 2079 H 189.435 -2.59924 -2.88607 0
M  V30 2080 H 191.167 -2.84662 -2.87663 0
M  V30 2081 H 187.922 -4.44293 -1.64015 0
M  V30 2082 H 188.346 -6.75756 -0.410292 0
M  V30 2083 H 192.988 -4.0085 -1.34459 0
M  V30 2084 H 190.706 -8.06628 0.48746 0
M  V30 2085 H 194.292 -5.81194 -0.265451 0
M  V30 2086 H 193.172 -7.81606 0.637309 0
M  V30 2087 N 190.675 0.682077 -1.42076 0
M  V30 2088 C 191.903 1.47057 -1.4554 0
M  V30 2089 C 192.318 1.8869 -0.0645779 0
M  V30 2090 O 191.675 1.57666 0.919115 0
M  V30 2091 C 191.726 2.72442 -2.37609 0
M  V30 2092 O 191.447 2.32559 -3.71279 0
M  V30 2093 C 192.948 3.66069 -2.50017 0
M  V30 2094 H 190.168 0.452737 -0.495248 0
M  V30 2095 H 192.712 0.838695 -1.8651 0
M  V30 2096 H 190.867 3.31835 -1.9991 0
M  V30 2097 H 191.281 3.13475 -4.20516 0
M  V30 2098 H 192.755 4.50792 -3.18576 0
M  V30 2099 H 193.232 4.11476 -1.53572 0
M  V30 2100 H 193.838 3.12572 -2.88407 0
M  V30 2101 N 192.153 1.28127 0.917671 0
M  V30 2102 C 193.564 1.13622 1.48145 0
M  V30 2103 C 193.915 -0.275207 1.9426 0
M  V30 2104 O 193.04 -1.1691 1.82102 0
M  V30 2105 C 193.635 2.05648 2.69248 0
M  V30 2106 C 192.194 1.95219 3.21818 0
M  V30 2107 C 191.341 1.97618 1.94532 0
M  V30 2108 H 194.292 1.40874 0.730772 0
M  V30 2109 H 194.313 1.61818 3.44377 0
M  V30 2110 H 193.825 3.08365 2.35653 0
M  V30 2111 H 191.926 0.955244 3.60147 0
M  V30 2112 H 192.039 2.81976 3.87333 0
M  V30 2113 H 190.403 1.41973 2.11461 0
M  V30 2114 H 191.186 3.02007 1.63238 0
M  V30 2115 N 193.631 -1.12557 1.10312 0
M  V30 2116 C 194.908 -1.80363 0.756878 0
M  V30 2117 C 195.288 -1.97067 -0.756824 0
M  V30 2118 O 194.636 -1.54601 -1.68259 0
M  V30 2119 C 194.846 -3.14812 1.50647 0
M  V30 2120 C 196.194 -3.90029 1.67817 0
M  V30 2121 O 197.218 -3.24464 1.46974 0
M  V30 2122 O 196.077 -5.07652 2.02365 0
M  V30 2123 H 193.171 -0.780667 0.272926 0
M  V30 2124 H 195.717 -1.19404 1.20586 0
M  V30 2125 H 194.489 -2.97936 2.53672 0
M  V30 2126 H 194.112 -3.83478 1.05026 0
M  V30 2127 N 195.109 -0.891671 -1.2995 0
M  V30 2128 C 196.337 -0.52866 -2.00032 0
M  V30 2129 C 196.752 0.884574 -1.66795 0
M  V30 2130 O 196.109 1.5827 -0.908669 0
M  V30 2131 C 196.16 -0.701814 -3.54622 0
M  V30 2132 O 195.881 -2.05942 -3.86678 0
M  V30 2133 C 197.382 -0.342683 -4.41973 0
M  V30 2134 H 194.602 -0.203659 -0.639347 0
M  V30 2135 H 197.146 -1.19881 -1.65677 0
M  V30 2136 H 195.301 -0.0789468 -3.8732 0
M  V30 2137 H 195.715 -2.08291 -4.81368 0
M  V30 2138 H 197.189 -0.514709 -5.49595 0
M  V30 2139 H 197.666 0.71975 -4.33262 0
M  V30 2140 H 198.272 -0.942154 -4.14733 0
M  V30 2141 N 196.587 1.43421 -0.653314 0
M  V30 2142 C 197.834 2.01812 -0.166745 0
M  V30 2143 C 198.162 1.51535 1.21931 0
M  V30 2144 O 197.417 0.698975 1.82792 0
M  V30 2145 C 197.716 3.57176 -0.126623 0
M  V30 2146 C 197.382 4.26798 -1.45444 0
M  V30 2147 C 196.044 4.45534 -1.81805 0
M  V30 2148 C 198.396 4.66225 -2.32989 0
M  V30 2149 C 195.724 5.00961 -3.05377 0
M  V30 2150 C 198.076 5.23021 -3.55853 0
M  V30 2151 C 196.74 5.39973 -3.9241 0
M  V30 2152 H 196.01 0.738484 -0.0610162 0
M  V30 2153 H 198.657 1.71896 -0.84404 0
M  V30 2154 H 196.962 3.86634 0.634123 0
M  V30 2155 H 198.659 4.00112 0.266723 0
M  V30 2156 H 195.249 4.12561 -1.16153 0
M  V30 2157 H 199.433 4.51443 -2.06187 0
M  V30 2158 H 194.689 5.12271 -3.3375 0
M  V30 2159 H 198.863 5.52518 -4.23907 0
M  V30 2160 H 196.49 5.82687 -4.88242 0
M  V30 2161 N 198.065 0.39524 1.52563 0
M  V30 2162 C 199.312 -0.185044 2.01653 0
M  V30 2163 C 199.64 -1.46317 1.28146 0
M  V30 2164 O 198.895 -1.9213 0.372074 0
M  V30 2165 C 199.194 -0.493444 3.53977 0
M  V30 2166 C 198.86 0.69384 4.4553 0
M  V30 2167 C 197.522 1.01954 4.70275 0
M  V30 2168 C 199.874 1.48785 4.99512 0
M  V30 2169 C 197.202 2.14069 5.46252 0
M  V30 2170 C 199.554 2.59965 5.76716 0
M  V30 2171 C 198.218 2.93037 5.99738 0
M  V30 2172 H 197.488 -0.0677123 0.7379 0
M  V30 2173 H 200.135 0.533807 1.8391 0
M  V30 2174 H 198.44 -1.29369 3.69825 0
M  V30 2175 H 200.137 -0.955163 3.89458 0
M  V30 2176 H 196.727 0.429987 4.26438 0
M  V30 2177 H 200.911 1.24946 4.80315 0
M  V30 2178 H 196.167 2.40056 5.62302 0
M  V30 2179 H 200.341 3.21887 6.17545 0
M  V30 2180 H 197.968 3.8003 6.58393 0
M  V30 2181 N 199.544 -1.57102 0.125237 0
M  V30 2182 C 200.494 -2.12202 -0.833936 0
M  V30 2183 C 201.478 -1.04433 -1.22403 0
M  V30 2184 O 202.67 -1.30655 -1.19408 0
M  V30 2185 C 199.799 -2.72994 -2.08157 0
M  V30 2186 C 198.885 -3.87852 -1.71556 0
M  V30 2187 N 199.276 -4.9464 -1.05662 0
M  V30 2188 C 197.574 -3.98153 -2.00973 0
M  V30 2189 C 198.275 -5.74953 -0.883376 0
M  V30 2190 N 197.251 -5.24985 -1.41036 0
M  V30 2191 H 201.053 -2.92141 -0.321035 0
M  V30 2192 H 198.567 -1.62217 -0.0770315 0
M  V30 2193 H 200.564 -3.10816 -2.77847 0
M  V30 2194 H 199.224 -1.9452 -2.59985 0
M  V30 2195 H 200.235 -5.12872 -0.719878 0
M  V30 2196 H 196.912 -3.30728 -2.54804 0
M  V30 2197 H 198.302 -6.70904 -0.365675 0
M  V30 2198 N 201.022 0.148545 -1.56898 0
M  V30 2199 C 201.97 1.20265 -1.99096 0
M  V30 2200 C 202.964 1.44559 -0.883123 0
M  V30 2201 O 204.17 1.4487 -1.0683 0
M  V30 2202 H 200.545 0.404786 -0.63376 0
M  V30 2203 H 202.516 0.82004 -2.86911 0
M  V30 2204 C 201.265 2.52886 -2.3863 0
M  V30 2205 H 200.588 2.35021 -3.23427 0
M  V30 2206 H 202.028 3.25274 -2.7198 0
M  V30 2207 C 200.487 3.13315 -1.23837 0
M  V30 2208 O 201.017 3.98077 -0.538268 0
M  V30 2209 N 199.223 2.72742 -1.00301 0
M  V30 2210 H 198.77 2.03912 -1.5741 0
M  V30 2211 H 198.728 3.13507 -0.236838 0
M  V30 2212 N 202.5 1.5196 0.417844 0
M  V30 2213 C 203.748 1.65263 1.16329 0
M  V30 2214 C 204.069 0.380634 1.91249 0
M  V30 2215 O 203.339 -0.604214 1.86349 0
M  V30 2216 H 201.919 0.60912 0.432414 0
M  V30 2217 H 204.581 1.88969 0.477162 0
M  V30 2218 H 203.677 2.4896 1.88217 0
M  V30 2219 N 203.978 -0.674533 1.42435 0
M  V30 2220 C 204.925 -1.78807 1.45934 0
M  V30 2221 C 205.895 -1.63157 0.311271 0
M  V30 2222 O 207.08 -1.83707 0.515383 0
M  V30 2223 C 204.22 -3.16839 1.36773 0
M  V30 2224 C 203.333 -3.43774 2.61617 0
M  V30 2225 C 202.468 -4.71536 2.44597 0
M  V30 2226 C 201.507 -4.91505 3.64814 0
M  V30 2227 N 200.644 -6.10508 3.46734 0
M  V30 2228 H 205.484 -1.75151 2.41093 0
M  V30 2229 H 203.021 -0.85504 1.19697 0
M  V30 2230 H 204.979 -3.96606 1.29459 0
M  V30 2231 H 203.609 -3.19619 0.452089 0
M  V30 2232 H 202.661 -2.58259 2.79297 0
M  V30 2233 H 203.973 -3.54423 3.50978 0
M  V30 2234 H 203.127 -5.59393 2.3487 0
M  V30 2235 H 201.866 -4.6317 1.52726 0
M  V30 2236 H 200.871 -4.0209 3.74972 0
M  V30 2237 H 202.096 -5.01716 4.57665 0
M  V30 2238 H 200.042 -6.03315 2.5758 0
M  V30 2239 H 199.959 -6.2202 4.29682 0
M  V30 2240 H 201.227 -7.01044 3.40819 0
M  V30 2241 N 205.456 -1.28612 -0.910864 0
M  V30 2242 C 206.403 -1.12786 -2.01365 0
M  V30 2243 C 207.373 -0.024201 -1.66082 0
M  V30 2244 O 208.558 -0.189667 -1.89855 0
M  V30 2245 C 205.698 -0.798743 -3.35729 0
M  V30 2246 C 204.811 -1.98173 -3.83864 0
M  V30 2247 C 203.946 -1.59298 -5.06752 0
M  V30 2248 C 202.985 -2.74245 -5.47226 0
M  V30 2249 N 202.122 -2.35842 -6.61304 0
M  V30 2250 H 206.962 -2.07142 -2.14234 0
M  V30 2251 H 204.499 -1.03093 -1.0493 0
M  V30 2252 H 206.457 -0.588662 -4.13026 0
M  V30 2253 H 205.087 0.10789 -3.2262 0
M  V30 2254 H 204.139 -2.30386 -3.02699 0
M  V30 2255 H 205.451 -2.84343 -4.09818 0
M  V30 2256 H 204.605 -1.34513 -5.916 0
M  V30 2257 H 203.344 -0.702618 -4.82612 0
M  V30 2258 H 202.349 -2.99725 -4.60918 0
M  V30 2259 H 203.574 -3.63928 -5.73353 0
M  V30 2260 H 201.52 -1.49279 -6.38789 0
M  V30 2261 H 201.437 -3.15546 -6.86998 0
M  V30 2262 H 202.705 -2.14348 -7.4945 0
M  V30 2263 N 206.934 1.1197 -1.10907 0
M  V30 2264 C 208.159 1.87942 -0.877064 0
M  V30 2265 C 208.584 1.79341 0.567314 0
M  V30 2266 O 207.942 1.15184 1.40009 0
M  V30 2267 C 207.99 3.34926 -1.33629 0
M  V30 2268 O 207.094 4.09303 -0.504447 0
M  V30 2269 H 206.435 0.583785 -0.316371 0
M  V30 2270 H 208.965 1.4157 -1.47712 0
M  V30 2271 H 208.975 3.8577 -1.32837 0
M  V30 2272 H 207.65 3.40504 -2.3881 0
M  V30 2273 H 206.227 3.68393 -0.577993 0
M  V30 2274 N 208.412 0.89855 1.29475 0
M  V30 2275 C 209.661 0.519863 1.94885 0
M  V30 2276 C 209.974 -0.9383 1.71625 0
M  V30 2277 O 211.18 -1.42445 2.31131 0
M  V30 2278 C 209.636 0.878836 3.49005 0
M  V30 2279 C 209.244 2.35569 3.81066 0
M  V30 2280 C 210.988 0.570004 4.20656 0
M  V30 2281 C 208.895 2.65558 5.28425 0
M  V30 2282 H 207.825 0.190692 0.729488 0
M  V30 2283 H 210.476 1.09539 1.47219 0
M  V30 2284 H 208.858 0.232253 3.95318 0
M  V30 2285 H 210.032 3.04773 3.45616 0
M  V30 2286 H 208.347 2.63343 3.22552 0
M  V30 2287 H 210.944 0.770925 5.29113 0
M  V30 2288 H 211.287 -0.491404 4.1339 0
M  V30 2289 H 211.82 1.17438 3.8007 0
M  V30 2290 H 208.559 3.70493 5.40754 0
M  V30 2291 H 208.079 2.00977 5.65127 0
M  V30 2292 H 209.758 2.51765 5.96006 0
M  V30 2293 N 209.89 -1.43072 0.660911 0
M  V30 2294 C 210.853 -2.29194 -0.0166406 0
M  V30 2295 C 211.853 -1.42609 -0.742912 0
M  V30 2296 O 213.043 -1.64155 -0.583004 0
M  V30 2297 C 210.175 -3.24831 -1.0343 0
M  V30 2298 H 211.368 -2.90596 0.741208 0
M  V30 2299 H 208.921 -1.5048 0.422532 0
M  V30 2300 H 209.656 -2.68339 -1.82111 0
M  V30 2301 H 209.441 -3.88676 -0.517082 0
M  V30 2302 H 210.931 -3.89451 -1.50723 0
M  V30 2303 N 211.368 -0.403325 -1.52352 0
M  V30 2304 C 212.318 0.442244 -2.2367 0
M  V30 2305 C 213.302 1.01823 -1.24583 0
M  V30 2306 O 214.494 0.942005 -1.49851 0
M  V30 2307 C 211.623 1.5615 -3.05732 0
M  V30 2308 C 210.709 0.996575 -4.12225 0
M  V30 2309 N 211.1 0.157804 -5.05554 0
M  V30 2310 C 209.398 1.26767 -4.27605 0
M  V30 2311 C 210.099 -0.155853 -5.81491 0
M  V30 2312 N 209.075 0.451775 -5.41719 0
M  V30 2313 H 212.877 -0.204964 -2.93184 0
M  V30 2314 H 210.391 -0.213418 -1.60992 0
M  V30 2315 H 212.388 2.17981 -3.55373 0
M  V30 2316 H 211.048 2.21139 -2.37755 0
M  V30 2317 H 212.059 -0.206049 -5.1749 0
M  V30 2318 H 208.736 1.91757 -3.70858 0
M  V30 2319 H 210.126 -0.836329 -6.66675 0
M  V30 2320 N 212.846 1.57033 -0.133567 0
M  V30 2321 C 213.794 2.17348 0.828412 0
M  V30 2322 C 214.788 1.12671 1.26498 0
M  V30 2323 O 215.994 1.30947 1.23502 0
M  V30 2324 H 212.369 0.695775 0.285309 0
M  V30 2325 H 214.34 2.96935 0.295372 0
M  V30 2326 C 213.089 2.79893 2.06289 0
M  V30 2327 H 212.412 3.60147 1.73592 0
M  V30 2328 H 213.852 3.25615 2.71572 0
M  V30 2329 C 212.311 1.77713 2.86216 0
M  V30 2330 O 212.841 1.23937 3.82103 0
M  V30 2331 N 211.047 1.47321 2.50489 0
M  V30 2332 H 210.594 1.91243 1.7258 0
M  V30 2333 H 210.552 0.79199 3.04261 0
M  V30 2334 N 214.325 -0.140222 1.56975 0
M  V30 2335 C 215.258 -1.20266 1.93936 0
M  V30 2336 C 216.236 -1.41212 0.806099 0
M  V30 2337 O 217.42 -1.55713 1.06234 0
M  V30 2338 C 214.547 -2.56037 2.21726 0
M  V30 2339 C 213.593 -2.51646 3.44349 0
M  V30 2340 S 214.426 -1.97678 4.97678 0
M  V30 2341 C 215.582 -3.35165 5.28597 0
M  V30 2342 H 215.815 -0.887358 2.83749 0
M  V30 2343 H 213.348 -0.346119 1.50471 0
M  V30 2344 H 215.306 -3.34167 2.38416 0
M  V30 2345 H 213.967 -2.84755 1.32566 0
M  V30 2346 H 213.16 -3.51608 3.61092 0
M  V30 2347 H 212.762 -1.81628 3.26936 0
M  V30 2348 H 215.054 -4.31302 5.2248 0
M  V30 2349 H 215.997 -3.23269 6.30002 0
M  V30 2350 H 216.405 -3.32614 4.56101 0
M  V30 2351 N 215.803 -1.52179 -0.40978 0
M  V30 2352 C 217.031 -1.70054 -1.17853 0
M  V30 2353 C 217.446 -0.409735 -1.843 0
M  V30 2354 O 216.803 0.614183 -1.71855 0
M  V30 2355 C 216.854 -2.83568 -2.24213 0
M  V30 2356 O 216.575 -4.0765 -1.60478 0
M  V30 2357 C 218.076 -3.12947 -3.13973 0
M  V30 2358 H 215.296 -0.569917 -0.354169 0
M  V30 2359 H 217.84 -1.98734 -0.482198 0
M  V30 2360 H 215.995 -2.57409 -2.89516 0
M  V30 2361 H 216.409 -4.70899 -2.30986 0
M  V30 2362 H 217.883 -3.95889 -3.84677 0
M  V30 2363 H 218.36 -2.26472 -3.76307 0
M  V30 2364 H 218.966 -3.40868 -2.5434 0
M  V30 2365 N 217.281 0.66697 -1.42791 0
M  V30 2366 C 218.509 1.45505 -1.47091 0
M  V30 2367 C 218.924 1.8861 -0.0845873 0
M  V30 2368 O 218.281 1.58632 0.90234 0
M  V30 2369 C 218.332 2.69906 -2.40485 0
M  V30 2370 O 218.053 2.28608 -3.73725 0
M  V30 2371 C 219.554 3.63396 -2.53886 0
M  V30 2372 H 216.774 0.447459 -0.500022 0
M  V30 2373 H 219.318 0.818866 -1.8739 0
M  V30 2374 H 217.473 3.29696 -2.03419 0
M  V30 2375 H 217.887 3.08997 -4.23817 0
M  V30 2376 H 219.361 4.47387 -3.2334 0
M  V30 2377 H 219.838 4.09824 -1.57927 0
M  V30 2378 H 220.444 3.09495 -2.91706 0
M  V30 2379 N 218.759 1.29093 0.90403 0
M  V30 2380 C 220.17 1.15186 1.46932 0
M  V30 2381 C 220.521 -0.254587 1.94541 0
M  V30 2382 O 219.646 -1.14972 1.83332 0
M  V30 2383 C 220.241 2.08492 2.67051 0
M  V30 2384 C 218.8 1.98621 3.19729 0
M  V30 2385 C 217.947 1.9967 1.92425 0
M  V30 2386 H 220.898 1.41641 0.715789 0
M  V30 2387 H 220.919 1.65461 3.42641 0
M  V30 2388 H 220.431 3.10847 2.3237 0
M  V30 2389 H 218.532 0.993389 3.59114 0
M  V30 2390 H 218.645 2.86068 3.8432 0
M  V30 2391 H 217.009 1.44208 2.09943 0
M  V30 2392 H 217.792 3.03721 1.60026 0
M  V30 2393 N 220.237 -1.11381 1.11499 0
M  V30 2394 C 221.185 -2.19522 0.768956 0
M  V30 2395 C 222.179 -1.67693 -0.239857 0
M  V30 2396 O 223.385 -1.79727 -0.0990755 0
M  V30 2397 H 219.76 -0.715711 0.230786 0
M  V30 2398 H 221.731 -2.45954 1.68964 0
M  V30 2399 C 220.48 -3.46945 0.229073 0
M  V30 2400 H 219.803 -3.8718 0.996596 0
M  V30 2401 H 221.243 -4.23993 0.0251441 0
M  V30 2402 C 219.702 -3.2042 -1.04079 0
M  V30 2403 O 220.232 -3.41178 -2.12038 0
M  V30 2404 N 218.438 -2.74151 -0.963823 0
M  V30 2405 H 217.985 -2.57459 -0.0851722 0
M  V30 2406 H 217.943 -2.56781 -1.81414 0
M  V30 2407 N 221.715 -0.905404 -1.28997 0
M  V30 2408 C 222.662 -0.385892 -2.27551 0
M  V30 2409 C 223.632 0.535113 -1.57244 0
M  V30 2410 O 224.817 0.459119 -1.85194 0
M  V30 2411 C 221.957 0.375461 -3.43051 0
M  V30 2412 C 221.07 -0.577092 -4.28128 0
M  V30 2413 C 220.205 0.201879 -5.30816 0
M  V30 2414 C 219.244 -0.744829 -6.07551 0
M  V30 2415 N 218.381 9.42587e-05 -7.021 0
M  V30 2416 H 223.221 -1.23139 -2.71368 0
M  V30 2417 H 220.758 -0.618542 -1.33463 0
M  V30 2418 H 222.716 0.832992 -4.088 0
M  V30 2419 H 221.346 1.18537 -3.00248 0
M  V30 2420 H 220.398 -1.15315 -3.62501 0
M  V30 2421 H 221.71 -1.30152 -4.8152 0
M  V30 2422 H 220.864 0.720351 -6.02408 0
M  V30 2423 H 219.603 0.959413 -4.7817 0
M  V30 2424 H 218.608 -1.27475 -5.34818 0
M  V30 2425 H 219.833 -1.50178 -6.62286 0
M  V30 2426 H 217.779 0.739791 -6.51815 0
M  V30 2427 H 217.696 -0.664321 -7.53076 0
M  V30 2428 H 218.964 0.498644 -7.77903 0
M  V30 2429 N 223.193 1.4272 -0.668489 0
M  V30 2430 C 224.123 2.335 -0.000100175 0
M  V30 2431 C 225.104 1.50328 0.795964 0
M  V30 2432 O 226.289 1.78949 0.754385 0
M  V30 2433 C 223.419 3.33874 0.956302 0
M  V30 2434 C 222.373 4.27152 0.269278 0
M  V30 2435 C 221.699 5.17684 1.33818 0
M  V30 2436 C 222.999 5.15373 -0.847805 0
M  V30 2437 H 224.693 2.89639 -0.758244 0
M  V30 2438 H 222.239 1.39269 -0.366079 0
M  V30 2439 H 224.192 3.9629 1.43292 0
M  V30 2440 H 222.916 2.76025 1.74579 0
M  V30 2441 H 221.575 3.66123 -0.187042 0
M  V30 2442 H 221.223 4.56165 2.1195 0
M  V30 2443 H 220.923 5.80918 0.883659 0
M  V30 2444 H 222.447 5.82974 1.81586 0
M  V30 2445 H 223.861 5.7151 -0.452681 0
M  V30 2446 H 222.258 5.87407 -1.22773 0
M  V30 2447 H 223.328 4.5415 -1.69929 0
M  V30 2448 N 224.671 0.411399 1.52136 0
M  V30 2449 C 225.601 -0.404015 2.29978 0
M  V30 2450 C 226.582 -1.04412 1.34284 0
M  V30 2451 O 227.767 -1.0527 1.63192 0
M  V30 2452 C 224.897 -1.5197 3.12286 0
M  V30 2453 C 223.851 -1.00448 4.16046 0
M  V30 2454 C 223.177 -2.21393 4.86712 0
M  V30 2455 C 224.477 -0.0569336 5.22269 0
M  V30 2456 H 226.171 0.245529 2.98392 0
M  V30 2457 H 223.717 0.119525 1.43503 0
M  V30 2458 H 225.67 -2.09715 3.6551 0
M  V30 2459 H 224.394 -2.19716 2.41646 0
M  V30 2460 H 223.053 -0.449421 3.63835 0
M  V30 2461 H 222.701 -2.87699 4.12599 0
M  V30 2462 H 222.401 -1.87571 5.56858 0
M  V30 2463 H 223.925 -2.7974 5.4275 0
M  V30 2464 H 225.339 -0.54325 5.7072 0
M  V30 2465 H 223.736 0.192594 5.99791 0
M  V30 2466 H 224.806 0.887663 4.76706 0
M  V30 2467 N 226.149 -1.5696 0.141893 0
M  V30 2468 C 227.565 -1.58151 -0.21456 0
M  V30 2469 C 227.765 -1.1559 -1.65049 0
M  V30 2470 O 226.821 -0.853832 -2.37626 0
M  V30 2471 C 228.134 -3.00674 0.0395576 0
M  V30 2472 C 229.682 -3.1299 -0.0245529 0
M  V30 2473 C 230.157 -4.57554 0.202167 0
M  V30 2474 N 231.648 -4.62961 0.148919 0
M  V30 2475 C 232.383 -5.7262 0.298924 0
M  V30 2476 N 231.879 -6.90947 0.50637 0
M  V30 2477 N 233.672 -5.61601 0.236886 0
M  V30 2478 H 225.823 -1.8292 1.07953 0
M  V30 2479 H 228.086 -0.846425 0.42693 0
M  V30 2480 H 227.792 -3.36183 1.03315 0
M  V30 2481 H 227.666 -3.70981 -0.682143 0
M  V30 2482 H 230.053 -2.77326 -1.00869 0
M  V30 2483 H 230.134 -2.4518 0.729396 0
M  V30 2484 H 229.778 -4.93922 1.18338 0
M  V30 2485 H 229.708 -5.23484 -0.572044 0
M  V30 2486 H 232.199 -3.77899 -0.00697015 0
M  V30 2487 H 232.512 -7.7038 0.611076 0
M  V30 2488 H 230.857 -6.92878 0.542628 0
M  V30 2489 H 234.048 -4.68039 0.0756209 0
M  V30 2490 H 234.221 -6.47015 0.357227 0
M  V30 2491 N 227.627 0.131896 -1.57047 0
M  V30 2492 C 228.557 1.16384 -2.02428 0
M  V30 2493 C 229.538 1.43936 -0.90644 0
M  V30 2494 O 230.723 1.54599 -1.17528 0
M  V30 2495 C 227.853 2.49328 -2.4177 0
M  V30 2496 C 226.807 2.36266 -3.56879 0
M  V30 2497 C 226.133 3.74057 -3.8208 0
M  V30 2498 C 227.433 1.834 -4.89042 0
M  V30 2499 H 229.127 0.786433 -2.88887 0
M  V30 2500 H 226.673 0.376855 -1.38981 0
M  V30 2501 H 228.626 3.21759 -2.7212 0
M  V30 2502 H 227.35 2.88934 -1.52266 0
M  V30 2503 H 226.009 1.66286 -3.26718 0
M  V30 2504 H 225.657 4.11125 -2.89803 0
M  V30 2505 H 225.357 3.66174 -4.59554 0
M  V30 2506 H 226.881 4.48012 -4.1487 0
M  V30 2507 H 228.295 2.45636 -5.18011 0
M  V30 2508 H 226.692 1.8637 -5.70426 0
M  V30 2509 H 227.762 0.790662 -4.7841 0
M  V30 2510 N 229.106 1.52395 0.401703 0
M  V30 2511 C 230.016 1.7917 1.51444 0
M  V30 2512 C 231.032 0.677691 1.6026 0
M  V30 2513 O 232.208 0.963909 1.76835 0
M  V30 2514 C 229.273 1.94347 2.87107 0
M  V30 2515 C 228.334 3.18257 2.88116 0
M  V30 2516 C 227.567 3.32701 4.17308 0
M  V30 2517 O 227.79 2.52238 5.11598 0
M  V30 2518 O 226.724 4.25891 4.25324 0
M  V30 2519 H 230.55 2.73633 1.31752 0
M  V30 2520 H 228.135 1.3733 0.588296 0
M  V30 2521 H 230.017 2.06109 3.67555 0
M  V30 2522 H 228.692 1.03073 3.06851 0
M  V30 2523 H 227.599 3.11947 2.06494 0
M  V30 2524 H 228.932 4.09336 2.73322 0
M  V30 2525 N 230.584 -0.659388 1.43143 0
M  V30 2526 C 231.861 -1.41627 1.34912 0
M  V30 2527 C 232.241 -2.11099 -0.00607785 0
M  V30 2528 O 231.589 -2.04353 -1.02236 0
M  V30 2529 C 231.799 -2.40604 2.52805 0
M  V30 2530 C 233.147 -3.04789 2.95616 0
M  V30 2531 O 234.171 -2.50932 2.52807 0
M  V30 2532 O 233.03 -4.02421 3.69756 0
M  V30 2533 H 230.124 -0.63246 0.532844 0
M  V30 2534 H 232.67 -0.686814 1.5518 0
M  V30 2535 H 231.442 -1.88174 3.43083 0
M  V30 2536 H 231.065 -3.21009 2.34604 0
M  V30 2537 N 232.062 -1.29571 -0.897171 0
M  V30 2538 C 233.339 -1.08365 -1.62839 0
M  V30 2539 C 233.719 0.371331 -2.07808 0
M  V30 2540 O 233.067 1.3606 -1.83576 0
M  V30 2541 C 233.277 -2.0735 -2.80726 0
M  V30 2542 C 234.625 -2.38406 -3.51351 0
M  V30 2543 O 235.649 -2.05564 -2.90898 0
M  V30 2544 O 234.508 -2.9453 -4.60341 0
M  V30 2545 H 231.602 -0.415345 -0.715134 0
M  V30 2546 H 234.148 -1.40952 -0.945018 0
M  V30 2547 H 232.92 -3.05339 -2.44711 0
M  V30 2548 H 232.543 -1.75507 -3.56767 0
M  V30 2549 N 233.54 1.10788 -1.12088 0
M  V30 2550 C 234.788 1.8231 -0.872205 0
M  V30 2551 C 235.109 1.85419 0.603709 0
M  V30 2552 O 234.379 1.32963 1.43867 0
M  V30 2553 H 232.959 0.675137 -0.319686 0
M  V30 2554 H 235.621 1.34068 -1.41463 0
M  V30 2555 H 234.717 2.85955 -1.25045 0
M  V30 2556 N 235.018 0.912232 1.28515 0
M  V30 2557 C 236.246 0.560416 1.99166 0
M  V30 2558 C 236.661 -0.857927 1.68182 0
M  V30 2559 O 236.018 -1.56805 0.933733 0
M  V30 2560 C 236.069 0.758142 3.53461 0
M  V30 2561 O 235.79 2.12067 3.83352 0
M  V30 2562 C 237.291 0.412954 4.41372 0
M  V30 2563 H 234.511 0.213805 0.636026 0
M  V30 2564 H 237.055 1.22502 1.63749 0
M  V30 2565 H 235.21 0.140556 3.87145 0
M  V30 2566 H 235.624 2.15923 4.77993 0
M  V30 2567 H 237.098 0.60208 5.48707 0
M  V30 2568 H 237.575 -0.65073 4.34353 0
M  V30 2569 H 238.181 1.00802 4.13182 0
M  V30 2570 N 236.496 -1.42363 0.676048 0
M  V30 2571 C 237.426 -2.33497 0.0124832 0
M  V30 2572 C 238.407 -1.50748 -0.787981 0
M  V30 2573 O 239.592 -1.79346 -0.744884 0
M  V30 2574 C 236.722 -3.34377 -0.938582 0
M  V30 2575 C 235.676 -4.27289 -0.246622 0
M  V30 2576 C 235.002 -5.18386 -1.31071 0
M  V30 2577 C 236.302 -5.14916 0.875125 0
M  V30 2578 H 237.996 -2.89233 0.773593 0
M  V30 2579 H 235.542 -1.39073 0.37346 0
M  V30 2580 H 237.495 -3.97044 -1.41188 0
M  V30 2581 H 236.219 -2.76947 -1.73113 0
M  V30 2582 H 234.878 -3.66018 0.206456 0
M  V30 2583 H 234.526 -4.57282 -2.09528 0
M  V30 2584 H 234.226 -5.81378 -0.852839 0
M  V30 2585 H 235.75 -5.83929 -1.78492 0
M  V30 2586 H 237.164 -5.71262 0.482983 0
M  V30 2587 H 235.561 -5.86747 1.25887 0
M  V30 2588 H 236.631 -4.53242 1.72335 0
M  V30 2589 N 237.974 -0.419461 -1.51915 0
M  V30 2590 C 238.904 0.391813 -2.30189 0
M  V30 2591 C 239.885 1.03699 -1.34836 0
M  V30 2592 O 241.07 1.04403 -1.63748 0
M  V30 2593 C 238.2 1.50312 -3.13087 0
M  V30 2594 C 237.154 0.9824 -4.16573 0
M  V30 2595 C 236.48 2.18809 -4.8788 0
M  V30 2596 C 237.78 0.0292356 -5.22292 0
M  V30 2597 H 239.474 -0.26135 -2.98257 0
M  V30 2598 H 237.02 -0.127134 -1.43438 0
M  V30 2599 H 238.973 2.07773 -3.66617 0
M  V30 2600 H 237.697 2.18431 -2.42807 0
M  V30 2601 H 236.356 0.430119 -3.64068 0
M  V30 2602 H 236.004 2.85507 -4.14119 0
M  V30 2603 H 235.704 1.84615 -5.57845 0
M  V30 2604 H 237.228 2.76858 -5.44226 0
M  V30 2605 H 238.642 0.512976 -5.71 0
M  V30 2606 H 237.039 -0.2244 -5.9968 0
M  V30 2607 H 238.109 -0.912931 -4.76228 0
M  V30 2608 N 239.452 1.56882 -0.150215 0
M  V30 2609 C 240.682 2.00302 0.506213 0
M  V30 2610 C 241.09 1.02934 1.58749 0
M  V30 2611 O 240.433 0.0188384 1.8369 0
M  V30 2612 C 240.495 3.40156 1.16337 0
M  V30 2613 C 240.159 4.56439 0.226311 0
M  V30 2614 C 241.156 5.17012 -0.547265 0
M  V30 2615 C 238.841 5.02136 0.128279 0
M  V30 2616 C 240.835 6.21693 -1.40629 0
M  V30 2617 C 238.522 6.06672 -0.734345 0
M  V30 2618 C 239.52 6.6632 -1.50023 0
M  V30 2619 O 239.208 7.68831 -2.34848 0
M  V30 2620 H 238.94 0.662182 0.135984 0
M  V30 2621 H 241.494 2.03961 -0.242746 0
M  V30 2622 H 239.724 3.33346 1.96004 0
M  V30 2623 H 241.413 3.67663 1.71985 0
M  V30 2624 H 242.179 4.82603 -0.48158 0
M  V30 2625 H 238.058 4.55435 0.714157 0
M  V30 2626 H 241.602 6.68179 -2.00455 0
M  V30 2627 H 237.499 6.40507 -0.801309 0
M  V30 2628 H 238.267 7.86065 -2.28131 0
M  V30 2629 N 240.93 -0.123565 1.57115 0
M  V30 2630 C 242.158 -0.846461 1.88793 0
M  V30 2631 C 242.573 -1.73652 0.740976 0
M  V30 2632 O 241.93 -1.80207 -0.288393 0
M  V30 2633 C 241.981 -1.6837 3.19897 0
M  V30 2634 O 241.702 -0.829477 4.30176 0
M  V30 2635 C 243.203 -2.51214 3.65248 0
M  V30 2636 H 240.423 -0.243573 0.625231 0
M  V30 2637 H 242.967 -0.109324 2.04208 0
M  V30 2638 H 241.122 -2.37364 3.06165 0
M  V30 2639 H 241.536 -1.40651 5.0529 0
M  V30 2640 H 243.01 -3.05497 4.59756 0
M  V30 2641 H 243.487 -3.28359 2.9168 0
M  V30 2642 H 244.093 -1.8747 3.81752 0
M  V30 2643 N 242.408 -1.52605 -0.393616 0
M  V30 2644 C 243.341 -1.71798 -1.50202 0
M  V30 2645 C 244.319 -0.565743 -1.52441 0
M  V30 2646 O 245.503 -0.794987 -1.70916 0
M  V30 2647 C 242.63 -1.7714 -2.88685 0
M  V30 2648 C 241.676 -2.98845 -3.04292 0
M  V30 2649 S 242.509 -4.58909 -2.75976 0
M  V30 2650 C 243.665 -4.6706 -4.1666 0
M  V30 2651 H 243.898 -2.65542 -1.33696 0
M  V30 2652 H 241.431 -1.42839 -0.586195 0
M  V30 2653 H 243.389 -1.80903 -3.68489 0
M  V30 2654 H 242.05 -0.844969 -3.02521 0
M  V30 2655 H 241.243 -2.99111 -4.05646 0
M  V30 2656 H 240.845 -2.9305 -2.32374 0
M  V30 2657 H 243.137 -4.45391 -5.10523 0
M  V30 2658 H 244.08 -5.6905 -4.21412 0
M  V30 2659 H 244.488 -3.95944 -4.02354 0
M  V30 2660 N 243.887 0.651787 -1.4349 0
M  V30 2661 C 245.303 0.96762 -1.26922 0
M  V30 2662 C 245.503 2.00602 -0.189982 0
M  V30 2663 O 244.559 2.48793 0.431107 0
M  V30 2664 C 245.872 1.45052 -2.63401 0
M  V30 2665 C 247.42 1.5671 -2.70945 0
M  V30 2666 C 247.895 2.0839 -4.07845 0
M  V30 2667 N 249.386 2.1569 -4.09917 0
M  V30 2668 C 250.121 2.56804 -5.12679 0
M  V30 2669 N 249.617 2.97203 -6.25813 0
M  V30 2670 N 251.41 2.56756 -5.00033 0
M  V30 2671 H 243.561 -0.0353158 -2.12371 0
M  V30 2672 H 245.824 0.0467858 -0.946845 0
M  V30 2673 H 245.53 0.761926 -3.43348 0
M  V30 2674 H 245.404 2.42529 -2.88894 0
M  V30 2675 H 247.791 2.2467 -1.9133 0
M  V30 2676 H 247.872 0.57662 -2.49216 0
M  V30 2677 H 247.516 1.41031 -4.87927 0
M  V30 2678 H 247.446 3.08271 -4.26938 0
M  V30 2679 H 249.937 1.87237 -3.28254 0
M  V30 2680 H 250.25 3.27328 -7.00055 0
M  V30 2681 H 248.595 2.95004 -6.29283 0
M  V30 2682 H 251.786 2.24572 -4.10713 0
M  V30 2683 H 251.959 2.88475 -5.80247 0
M  V30 2684 N 245.365 1.30045 0.890287 0
M  V30 2685 C 246.295 1.18541 2.01172 0
M  V30 2686 C 247.276 0.0773356 1.69924 0
M  V30 2687 O 248.461 0.25845 1.92473 0
M  V30 2688 C 245.591 0.870941 3.36202 0
M  V30 2689 C 244.545 1.93637 3.81692 0
M  V30 2690 C 243.871 1.475 5.13953 0
M  V30 2691 C 245.171 3.34666 4.00994 0
M  V30 2692 H 246.865 2.12359 2.11054 0
M  V30 2693 H 244.411 1.02238 1.01407 0
M  V30 2694 H 246.364 0.777141 4.14172 0
M  V30 2695 H 245.088 -0.102926 3.26438 0
M  V30 2696 H 243.747 2.01972 3.05946 0
M  V30 2697 H 243.395 0.489551 5.00612 0
M  V30 2698 H 243.095 2.1876 5.4536 0
M  V30 2699 H 244.619 1.39489 5.94454 0
M  V30 2700 H 246.033 3.2912 4.69417 0
M  V30 2701 H 244.43 4.03966 4.43769 0
M  V30 2702 H 245.5 3.76949 3.05021 0
M  V30 2703 N 246.843 -1.10192 1.12674 0
M  V30 2704 C 248.071 -1.85983 0.906527 0
M  V30 2705 C 248.486 -1.80783 -0.544333 0
M  V30 2706 O 247.843 -1.19834 -1.37645 0
M  V30 2707 C 247.894 -3.34281 1.37618 0
M  V30 2708 O 247.615 -3.39401 2.77017 0
M  V30 2709 C 249.116 -4.26938 1.19325 0
M  V30 2710 H 246.336 -0.587716 0.323775 0
M  V30 2711 H 248.88 -1.39284 1.49734 0
M  V30 2712 H 247.035 -3.78436 0.828539 0
M  V30 2713 H 247.449 -4.31838 2.97684 0
M  V30 2714 H 248.923 -5.29181 1.57071 0
M  V30 2715 H 249.4 -4.38995 0.134097 0
M  V30 2716 H 250.006 -3.8859 1.72852 0
M  V30 2717 N 248.321 -0.919034 -1.28029 0
M  V30 2718 C 249.57 -0.550802 -1.94034 0
M  V30 2719 C 249.883 0.910877 -1.73096 0
M  V30 2720 O 251.089 1.3875 -2.33368 0
M  V30 2721 C 249.545 -0.934249 -3.47563 0
M  V30 2722 C 249.153 -2.41602 -3.7727 0
M  V30 2723 C 250.897 -0.636854 -4.19696 0
M  V30 2724 C 248.804 -2.73932 -5.24133 0
M  V30 2725 H 247.734 -0.202273 -0.726362 0
M  V30 2726 H 250.385 -1.11867 -1.45458 0
M  V30 2727 H 248.767 -0.295115 -3.94899 0
M  V30 2728 H 249.941 -3.10233 -3.40723 0
M  V30 2729 H 248.256 -2.68441 -3.18321 0
M  V30 2730 H 250.853 -0.855005 -5.2782 0
M  V30 2731 H 251.196 0.425575 -4.14119 0
M  V30 2732 H 251.729 -1.23469 -3.78154 0
M  V30 2733 H 248.468 -3.79049 -5.34792 0
M  V30 2734 H 247.988 -2.09942 -5.61858 0
M  V30 2735 H 249.667 -2.61215 -5.91925 0
M  V30 2736 N 249.799 1.42003 -0.683588 0
M  V30 2737 C 251.024 2.06265 -0.216647 0
M  V30 2738 C 251.449 1.51059 1.12083 0
M  V30 2739 O 250.807 0.632638 1.69904 0
M  V30 2740 C 250.855 3.60191 -0.171759 0
M  V30 2741 O 249.959 4.03396 0.857069 0
M  V30 2742 H 249.3 0.65502 -0.108834 0
M  V30 2743 H 251.83 1.81982 -0.935077 0
M  V30 2744 H 251.84 4.08 0.0014303 0
M  V30 2745 H 250.515 3.99743 -1.14796 0
M  V30 2746 H 249.092 3.67117 0.654208 0
M  V30 2747 N 251.277 0.427512 1.51691 0
M  V30 2748 C 252.24 -0.377132 2.26076 0
M  V30 2749 C 253.24 -0.958089 1.29141 0
M  V30 2750 O 254.43 -0.83408 1.52934 0
M  V30 2751 C 251.562 -1.53262 3.04506 0
M  V30 2752 H 252.755 0.27464 2.9864 0
M  V30 2753 H 250.308 0.180445 1.55255 0
M  V30 2754 H 251.043 -2.22072 2.36335 0
M  V30 2755 H 250.828 -1.12232 3.75694 0
M  V30 2756 H 252.318 -2.10135 3.60878 0
M  V30 2757 N 252.755 -1.56801 0.158532 0
M  V30 2758 C 253.665 -2.20916 -0.789518 0
M  V30 2759 C 254.681 -1.1969 -1.26294 0
M  V30 2760 O 255.857 -1.52308 -1.31773 0
M  V30 2761 C 252.922 -2.82727 -2.00665 0
M  V30 2762 C 251.983 -3.99114 -1.58134 0
M  V30 2763 C 251.216 -4.57968 -2.74045 0
M  V30 2764 O 251.439 -4.15704 -3.90572 0
M  V30 2765 O 250.373 -5.48047 -2.48855 0
M  V30 2766 H 254.199 -3.02464 -0.273681 0
M  V30 2767 H 251.784 -1.4924 -0.0690548 0
M  V30 2768 H 253.666 -3.21968 -2.71872 0
M  V30 2769 H 252.341 -2.04184 -2.51179 0
M  V30 2770 H 251.248 -3.64567 -0.839155 0
M  V30 2771 H 252.581 -4.79212 -1.12325 0
M  V30 2772 N 254.233 0.115231 -1.57178 0
M  V30 2773 C 255.473 0.828199 -1.8687 0
M  V30 2774 C 255.837 1.76873 -0.747002 0
M  V30 2775 O 257.038 2.52354 -0.925785 0
M  V30 2776 C 255.309 1.55515 -3.21792 0
M  V30 2777 S 256.868 2.30917 -3.73125 0
M  V30 2778 H 253.686 0.27634 -0.655101 0
M  V30 2779 H 256.288 0.0863469 -1.95309 0
M  V30 2780 H 254.992 0.856248 -4.01368 0
M  V30 2781 H 254.523 2.3373 -3.16439 0
M  V30 2782 H 256.538 3.56705 -3.44929 0
M  V30 2783 N 255.711 1.52812 0.385517 0
M  V30 2784 C 257.122 1.5993 0.963293 0
M  V30 2785 C 257.473 0.454302 1.90868 0
M  V30 2786 O 256.598 -0.422132 2.12243 0
M  V30 2787 C 257.193 2.89871 1.75387 0
M  V30 2788 C 255.752 2.99389 2.28129 0
M  V30 2789 C 254.899 2.55071 1.08783 0
M  V30 2790 H 257.85 1.5784 0.164948 0
M  V30 2791 H 257.871 2.76553 2.61341 0
M  V30 2792 H 257.383 3.73186 1.06554 0
M  V30 2793 H 255.484 2.20619 3.00263 0
M  V30 2794 H 255.597 4.04096 2.57377 0
M  V30 2795 H 253.961 2.09473 1.4489 0
M  V30 2796 H 254.744 3.40785 0.414807 0
M  V30 2797 N 257.189 -0.644168 1.43834 0
M  V30 2798 C 258.122 -1.76906 1.44151 0
M  V30 2799 C 259.1 -1.59774 0.301857 0
M  V30 2800 O 260.284 -1.81834 0.496841 0
M  V30 2801 C 257.411 -3.14321 1.26174 0
M  V30 2802 C 256.457 -3.50134 2.43533 0
M  V30 2803 S 257.29 -3.49085 4.06079 0
M  V30 2804 C 258.446 -4.89142 3.90501 0
M  V30 2805 H 258.679 -1.76368 2.39336 0
M  V30 2806 H 256.212 -0.817624 1.30974 0
M  V30 2807 H 258.17 -3.93625 1.16489 0
M  V30 2808 H 256.831 -3.12412 0.325224 0
M  V30 2809 H 256.024 -4.50095 2.26783 0
M  V30 2810 H 255.626 -2.78264 2.4989 0
M  V30 2811 H 257.918 -5.78036 3.53385 0
M  V30 2812 H 258.861 -5.10945 4.90246 0
M  V30 2813 H 259.269 -4.63102 3.22795 0
M  V30 2814 N 258.668 -1.30515 -0.883378 0
M  V30 2815 C 259.6 -1.12846 -1.99496 0
M  V30 2816 C 260.613 -0.0712571 -1.62644 0
M  V30 2817 O 261.802 -0.317432 -1.75655 0
M  V30 2818 C 258.902 -0.699123 -3.3161 0
M  V30 2819 C 258.075 -1.83842 -3.96889 0
M  V30 2820 C 257.134 -1.39737 -5.07307 0
M  V30 2821 O 256.16 -2.10485 -5.28852 0
M  V30 2822 N 257.362 -0.277279 -5.79837 0
M  V30 2823 H 260.127 -2.08585 -2.15203 0
M  V30 2824 H 257.688 -1.22672 -1.05656 0
M  V30 2825 H 259.68 -0.387044 -4.02845 0
M  V30 2826 H 258.25 0.166276 -3.12157 0
M  V30 2827 H 257.47 -2.31853 -3.18807 0
M  V30 2828 H 258.758 -2.60187 -4.37241 0
M  V30 2829 H 258.156 0.3122 -5.64838 0
M  V30 2830 H 256.713 -0.0246623 -6.51795 0
M  V30 2831 N 260.146 1.09593 -1.13257 0
M  V30 2832 C 261.076 2.18214 -0.830946 0
M  V30 2833 C 262.057 1.68812 0.208966 0
M  V30 2834 O 263.242 1.9408 0.0682666 0
M  V30 2835 C 260.372 3.46051 -0.294296 0
M  V30 2836 C 259.326 4.08778 -1.26826 0
M  V30 2837 C 258.652 5.31419 -0.591449 0
M  V30 2838 C 259.952 4.51476 -2.62615 0
M  V30 2839 H 261.646 2.43703 -1.73923 0
M  V30 2840 H 259.192 1.17128 -0.837675 0
M  V30 2841 H 261.145 4.2134 -0.0709606 0
M  V30 2842 H 259.869 3.20079 0.649366 0
M  V30 2843 H 258.528 3.35505 -1.47756 0
M  V30 2844 H 258.176 5.01727 0.357633 0
M  V30 2845 H 257.876 5.74341 -1.24123 0
M  V30 2846 H 259.4 6.09433 -0.377355 0
M  V30 2847 H 260.814 5.17999 -2.45663 0
M  V30 2848 H 259.211 5.05277 -3.23752 0
M  V30 2849 H 260.281 3.63962 -3.20406 0
M  V30 2850 N 261.624 0.925811 1.2754 0
M  V30 2851 C 262.534 0.428993 2.30644 0
M  V30 2852 C 263.55 -0.489387 1.66976 0
M  V30 2853 O 264.726 -0.372653 1.97922 0
M  V30 2854 C 261.791 -0.311967 3.45294 0
M  V30 2855 C 260.852 0.641098 4.24486 0
M  V30 2856 C 260.085 -0.0645955 5.33661 0
M  V30 2857 O 260.308 -1.28429 5.55754 0
M  V30 2858 O 259.242 0.606265 5.98839 0
M  V30 2859 H 263.068 1.28504 2.75173 0
M  V30 2860 H 260.653 0.691086 1.32455 0
M  V30 2861 H 262.535 -0.729972 4.15029 0
M  V30 2862 H 261.21 -1.14365 3.02824 0
M  V30 2863 H 260.117 1.10874 3.57292 0
M  V30 2864 H 261.45 1.43995 4.70666 0
M  V30 2865 N 263.102 -1.41638 0.69111 0
M  V30 2866 C 264.379 -1.95036 0.148421 0
M  V30 2867 C 264.759 -1.63072 -1.34055 0
M  V30 2868 O 264.107 -0.93538 -2.08478 0
M  V30 2869 C 264.317 -3.46279 0.434951 0
M  V30 2870 C 265.665 -4.23069 0.360275 0
M  V30 2871 O 266.689 -3.54277 0.369613 0
M  V30 2872 O 265.548 -5.45583 0.316534 0
M  V30 2873 H 262.642 -0.826908 0.0123654 0
M  V30 2874 H 265.188 -1.5138 0.766963 0
M  V30 2875 H 263.96 -3.6281 1.46576 0
M  V30 2876 H 263.583 -3.97019 -0.214787 0
M  V30 2877 N 264.58 -0.43555 -1.51462 0
M  V30 2878 C 265.827 0.131514 -2.02072 0
M  V30 2879 C 266.155 1.42868 -1.31981 0
M  V30 2880 O 265.41 1.91076 -0.422883 0
M  V30 2881 C 265.709 0.39942 -3.55161 0
M  V30 2882 C 265.375 -0.81172 -4.43533 0
M  V30 2883 C 264.037 -1.14387 -4.67407 0
M  V30 2884 C 266.389 -1.61976 -4.95392 0
M  V30 2885 C 263.717 -2.28477 -5.40384 0
M  V30 2886 C 266.069 -2.75164 -5.6962 0
M  V30 2887 C 264.733 -3.08835 -5.91758 0
M  V30 2888 H 264.003 0.0481244 -0.739436 0
M  V30 2889 H 266.65 -0.58238 -1.8243 0
M  V30 2890 H 264.955 1.19519 -3.73125 0
M  V30 2891 H 266.652 0.85157 -3.91854 0
M  V30 2892 H 263.242 -0.542898 -4.25148 0
M  V30 2893 H 267.426 -1.37637 -4.76833 0
M  V30 2894 H 262.682 -2.5488 -5.55739 0
M  V30 2895 H 266.856 -3.38147 -6.08793 0
M  V30 2896 H 264.483 -3.97353 -6.48086 0
M  V30 2897 N 266.058 1.56714 -0.166846 0
M  V30 2898 C 267.469 1.83378 0.350646 0
M  V30 2899 C 267.82 1.08646 1.63372 0
M  V30 2900 O 266.945 0.338058 2.13743 0
M  V30 2901 C 267.54 3.32643 0.642963 0
M  V30 2902 C 266.099 3.59818 1.10491 0
M  V30 2903 C 265.246 2.76954 0.138411 0
M  V30 2904 H 268.197 1.53803 -0.391193 0
M  V30 2905 H 268.218 3.49878 1.49551 0
M  V30 2906 H 267.73 3.87007 -0.291055 0
M  V30 2907 H 265.831 3.1086 2.05418 0
M  V30 2908 H 265.944 4.68178 1.01716 0
M  V30 2909 H 264.308 2.4666 0.634911 0
M  V30 2910 H 265.091 3.34097 -0.789549 0
M  V30 2911 N 267.536 -0.106894 1.57237 0
M  V30 2912 C 268.469 -1.16125 1.96444 0
M  V30 2913 C 269.447 -1.3947 0.835871 0
M  V30 2914 O 270.631 -1.53425 1.09513 0
M  V30 2915 C 267.758 -2.51277 2.27107 0
M  V30 2916 C 266.804 -2.44285 3.4961 0
M  V30 2917 S 267.637 -1.87077 5.01759 0
M  V30 2918 C 268.793 -3.23877 5.35588 0
M  V30 2919 H 269.026 -0.826971 2.85567 0
M  V30 2920 H 266.559 -0.314124 1.51171 0
M  V30 2921 H 268.517 -3.29035 2.45451 0
M  V30 2922 H 267.178 -2.81879 1.38576 0
M  V30 2923 H 266.371 -3.4387 3.68469 0
M  V30 2924 H 265.973 -1.74652 3.30715 0
M  V30 2925 H 268.265 -4.20122 5.31511 0
M  V30 2926 H 269.208 -3.09833 6.36717 0
M  V30 2927 H 269.616 -3.22864 4.63054 0
M  V30 2928 N 269.014 -1.53014 -0.377408 0
M  V30 2929 C 270.291 -1.59215 -1.13622 0
M  V30 2930 C 270.671 -0.392407 -2.07421 0
M  V30 2931 O 270.019 0.618342 -2.19975 0
M  V30 2932 C 270.229 -2.93669 -1.88573 0
M  V30 2933 C 271.577 -3.47822 -2.43526 0
M  V30 2934 O 272.601 -2.9562 -1.98715 0
M  V30 2935 O 271.46 -4.39055 -3.25412 0
M  V30 2936 H 268.554 -0.642625 -0.52054 0
M  V30 2937 H 271.1 -1.65353 -0.381625 0
M  V30 2938 H 269.872 -3.7243 -1.20048 0
M  V30 2939 H 269.495 -2.90968 -2.70968 0
M  V30 2940 N 270.492 0.636531 -1.44174 0
M  V30 2941 C 271.455 1.73063 -1.50273 0
M  V30 2942 C 272.455 1.56113 -0.385397 0
M  V30 2943 O 273.645 1.61707 -0.64781 0
M  V30 2944 C 270.777 3.12096 -1.37145 0
M  V30 2945 H 271.97 1.69031 -2.47727 0
M  V30 2946 H 269.523 0.849706 -1.31186 0
M  V30 2947 H 270.258 3.21728 -0.407636 0
M  V30 2948 H 270.043 3.25805 -2.18159 0
M  V30 2949 H 271.533 3.91846 -1.44382 0
M  V30 2950 N 271.97 1.30982 0.876444 0
M  V30 2951 C 272.92 1.14688 1.97055 0
M  V30 2952 C 273.904 0.0596593 1.60789 0
M  V30 2953 O 275.096 0.283892 1.74708 0
M  V30 2954 C 272.225 0.849627 3.3262 0
M  V30 2955 C 271.311 1.97752 3.75173 0
M  V30 2956 N 271.702 3.22384 3.89746 0
M  V30 2957 C 270 1.8758 4.04635 0
M  V30 2958 C 270.701 3.96121 4.25985 0
M  V30 2959 N 269.677 3.24237 4.36315 0
M  V30 2960 H 273.479 2.09204 2.06424 0
M  V30 2961 H 270.993 1.22445 1.06682 0
M  V30 2962 H 272.99 0.713895 4.10742 0
M  V30 2963 H 271.65 -0.087376 3.24582 0
M  V30 2964 H 272.661 3.57575 3.74647 0
M  V30 2965 H 269.338 1.01303 4.05024 0
M  V30 2966 H 270.728 5.03491 4.44911 0
M  V30 2967 N 273.449 -1.08991 1.13837 0
M  V30 2968 C 274.412 -2.13925 0.822715 0
M  V30 2969 C 275.412 -1.599 -0.1699 0
M  V30 2970 O 276.602 -1.74104 0.0577251 0
M  V30 2971 C 273.734 -3.40155 0.225318 0
M  V30 2972 H 274.927 -2.43358 1.75262 0
M  V30 2973 H 272.48 -1.24603 0.943594 0
M  V30 2974 H 273.215 -3.16352 -0.713594 0
M  V30 2975 H 273 -3.80661 0.940193 0
M  V30 2976 H 274.49 -4.17594 0.0214784 0
M  V30 2977 N 274.927 -0.932562 -1.27047 0
M  V30 2978 C 276.167 -0.582919 -1.95912 0
M  V30 2979 C 276.531 0.860629 -1.71631 0
M  V30 2980 O 277.732 1.31878 -2.34225 0
M  V30 2981 C 276.003 -0.905673 -3.45734 0
M  V30 2982 S 277.562 -0.665277 -4.33727 0
M  V30 2983 H 274.38 -0.215 -0.677714 0
M  V30 2984 H 276.982 -1.20204 -1.54179 0
M  V30 2985 H 275.686 -1.95386 -3.60905 0
M  V30 2986 H 275.217 -0.275939 -3.92431 0
M  V30 2987 H 277.232 0.474635 -4.93925 0
M  V30 2988 N 276.405 1.4127 -0.698611 0
M  V30 2989 C 277.816 1.84187 -0.305289 0
M  V30 2990 C 278.167 1.58449 1.15708 0
M  V30 2991 O 277.292 1.05651 1.88856 0
M  V30 2992 C 277.887 3.3435 -0.547314 0
M  V30 2993 C 276.446 3.75826 -0.207878 0
M  V30 2994 C 275.593 2.64647 -0.828099 0
M  V30 2995 H 278.544 1.30778 -0.89904 0
M  V30 2996 H 278.565 3.8001 0.192998 0
M  V30 2997 H 278.077 3.53051 -1.61172 0
M  V30 2998 H 276.178 3.62725 0.852143 0
M  V30 2999 H 276.291 4.74462 -0.665021 0
M  V30 3000 H 274.655 2.53395 -0.257458 0
M  V30 3001 H 275.438 2.86165 -1.89643 0
M  V30 3002 N 277.883 0.443576 1.51229 0
M  V30 3003 C 278.813 -0.355142 2.30783 0
M  V30 3004 C 279.794 -1.0154 1.36468 0
M  V30 3005 O 280.979 -1.01785 1.65389 0
M  V30 3006 C 278.109 -1.45312 3.15439 0
M  V30 3007 C 277.063 -0.916002 4.18083 0
M  V30 3008 C 276.389 -2.1102 4.91299 0
M  V30 3009 C 277.689 0.0538602 5.22272 0
M  V30 3010 H 279.383 0.308767 2.97804 0
M  V30 3011 H 276.929 0.149937 1.43217 0
M  V30 3012 H 278.882 -2.01914 3.69876 0
M  V30 3013 H 277.606 -2.14541 2.46252 0
M  V30 3014 H 276.265 -0.372145 3.64706 0
M  V30 3015 H 275.913 -2.78882 4.18609 0
M  V30 3016 H 275.613 -1.75717 5.60712 0
M  V30 3017 H 277.137 -2.68164 5.48562 0
M  V30 3018 H 278.551 -0.422069 5.71744 0
M  V30 3019 H 276.948 0.319776 5.99247 0
M  V30 3020 H 278.018 0.98858 4.74716 0
M  V30 3021 N 279.361 -1.56624 0.175154 0
M  V30 3022 C 280.308 -2.18149 -0.753634 0
M  V30 3023 C 281.278 -1.12265 -1.22417 0
M  V30 3024 O 282.463 -1.40432 -1.29165 0
M  V30 3025 C 279.603 -2.82933 -1.97592 0
M  V30 3026 C 278.716 -4.03289 -1.5486 0
M  V30 3027 C 277.851 -4.55988 -2.72485 0
M  V30 3028 C 276.89 -5.68746 -2.26262 0
M  V30 3029 N 276.027 -6.15938 -3.36994 0
M  V30 3030 H 280.867 -2.9717 -0.222195 0
M  V30 3031 H 278.404 -1.46774 -0.0979422 0
M  V30 3032 H 280.362 -3.18653 -2.69288 0
M  V30 3033 H 278.992 -2.06509 -2.481 0
M  V30 3034 H 278.044 -3.73364 -0.728246 0
M  V30 3035 H 279.356 -4.849 -1.16933 0
M  V30 3036 H 278.51 -4.9391 -3.52332 0
M  V30 3037 H 277.249 -3.73443 -3.13674 0
M  V30 3038 H 276.254 -5.30372 -1.44863 0
M  V30 3039 H 277.479 -6.53095 -1.86127 0
M  V30 3040 H 275.425 -5.36321 -3.77751 0
M  V30 3041 H 275.342 -6.92548 -3.03172 0
M  V30 3042 H 276.61 -6.58511 -4.17114 0
M  V30 3043 N 280.839 0.0985539 -1.57292 0
M  V30 3044 C 282.086 0.802678 -1.85912 0
M  V30 3045 C 282.414 1.78901 -0.763186 0
M  V30 3046 O 281.669 1.94178 0.243559 0
M  V30 3047 C 281.968 1.56927 -3.21105 0
M  V30 3048 C 281.634 0.725376 -4.45027 0
M  V30 3049 C 280.296 0.492726 -4.78671 0
M  V30 3050 C 282.648 0.138493 -5.21016 0
M  V30 3051 C 279.976 -0.336727 -5.85733 0
M  V30 3052 C 282.328 -0.678264 -6.28953 0
M  V30 3053 C 280.992 -0.921039 -6.61115 0
M  V30 3054 H 280.262 0.293721 -0.680301 0
M  V30 3055 H 282.909 0.0642841 -1.91392 0
M  V30 3056 H 281.214 2.37914 -3.11294 0
M  V30 3057 H 282.911 2.11841 -3.40477 0
M  V30 3058 H 279.501 0.916815 -4.18679 0
M  V30 3059 H 283.685 0.305404 -4.95359 0
M  V30 3060 H 278.941 -0.533836 -6.09065 0
M  V30 3061 H 283.115 -1.1399 -6.87007 0
M  V30 3062 H 280.742 -1.56556 -7.43905 0
M  V30 3063 N 282.317 1.53212 0.369288 0
M  V30 3064 C 283.565 1.68881 1.11012 0
M  V30 3065 C 283.886 0.441285 1.89941 0
M  V30 3066 O 283.156 -0.544623 1.88177 0
M  V30 3067 H 281.736 0.622569 0.412816 0
M  V30 3068 H 284.398 1.90391 0.416802 0
M  V30 3069 H 283.494 2.54822 1.80201 0
M  V30 3070 N 283.795 -0.628877 1.44509 0
M  V30 3071 C 285.02 -1.42048 1.5112 0
M  V30 3072 C 285.445 -1.87594 0.137818 0
M  V30 3073 O 284.803 -1.58873 -0.873437 0
M  V30 3074 C 284.851 -2.61541 2.48251 0
M  V30 3075 O 283.955 -3.61453 1.98559 0
M  V30 3076 H 283.296 -0.424942 0.510216 0
M  V30 3077 H 285.826 -0.767374 1.89664 0
M  V30 3078 H 285.836 -3.09057 2.66361 0
M  V30 3079 H 284.511 -2.27736 3.48007 0
M  V30 3080 H 283.088 -3.20731 1.90227 0
M  V30 3081 N 285.273 -1.31445 -0.869486 0
M  V30 3082 C 286.503 -1.23942 -1.65294 0
M  V30 3083 C 286.911 0.197561 -1.88166 0
M  V30 3084 O 286.254 1.14019 -1.44033 0
M  V30 3085 C 286.316 -1.91385 -3.04322 0
M  V30 3086 C 285.98 -3.40726 -3.04557 0
M  V30 3087 C 286.977 -4.36464 -2.82481 0
M  V30 3088 C 284.662 -3.82425 -3.25663 0
M  V30 3089 C 286.656 -5.71876 -2.8149 0
M  V30 3090 C 284.343 -5.1795 -3.243 0
M  V30 3091 C 285.341 -6.12486 -3.02241 0
M  V30 3092 O 285.029 -7.45534 -3.00724 0
M  V30 3093 H 284.761 -0.429459 -0.522054 0
M  V30 3094 H 287.315 -1.73873 -1.0935 0
M  V30 3095 H 285.545 -1.36004 -3.61994 0
M  V30 3096 H 287.234 -1.77791 -3.64891 0
M  V30 3097 H 288 -4.05576 -2.65956 0
M  V30 3098 H 283.879 -3.09274 -3.41863 0
M  V30 3099 H 287.423 -6.45638 -2.64191 0
M  V30 3100 H 283.32 -5.48473 -3.40365 0
M  V30 3101 H 284.088 -7.54713 -3.16782 0
M  V30 3102 N 286.751 1.08385 -1.14413 0
M  V30 3103 C 287.714 2.13486 -0.834048 0
M  V30 3104 C 288.714 1.59988 0.161418 0
M  V30 3105 O 289.904 1.74071 -0.0669575 0
M  V30 3106 C 287.036 3.4003 -0.243354 0
M  V30 3107 H 288.229 2.42425 -1.7655 0
M  V30 3108 H 285.782 1.24101 -0.950189 0
M  V30 3109 H 286.517 3.16726 0.696807 0
M  V30 3110 H 286.302 3.80157 -0.960367 0
M  V30 3111 H 287.792 4.17577 -0.0436242 0
M  V30 3112 N 288.23 0.939286 1.26551 0
M  V30 3113 C 289.46 0.601663 1.97645 0
M  V30 3114 C 289.868 -0.827206 1.70159 0
M  V30 3115 O 289.211 -1.56291 0.965338 0
M  V30 3116 C 289.273 0.761725 3.51337 0
M  V30 3117 C 288.937 2.16487 4.0247 0
M  V30 3118 C 289.934 3.14016 4.14355 0
M  V30 3119 C 287.619 2.48494 4.36527 0
M  V30 3120 C 289.613 4.41654 4.59587 0
M  V30 3121 C 287.3 3.76364 4.81449 0
M  V30 3122 C 288.298 4.72758 4.92939 0
M  V30 3123 O 287.986 5.98352 5.36871 0
M  V30 3124 H 287.718 0.225758 0.637189 0
M  V30 3125 H 290.272 1.26178 1.62075 0
M  V30 3126 H 288.502 0.0444808 3.86674 0
M  V30 3127 H 290.191 0.427442 4.03643 0
M  V30 3128 H 290.957 2.90613 3.8829 0
M  V30 3129 H 286.836 1.74202 4.26819 0
M  V30 3130 H 290.38 5.16896 4.68471 0
M  V30 3131 H 286.277 3.99582 5.06956 0
M  V30 3132 H 287.045 6.01507 5.55096 0
M  V30 3133 N 289.708 -1.40897 0.706093 0
M  V30 3134 C 291.119 -1.84023 0.315052 0
M  V30 3135 C 291.47 -1.5906 -1.14866 0
M  V30 3136 O 290.595 -1.06651 -1.88293 0
M  V30 3137 C 291.19 -3.34055 0.565038 0
M  V30 3138 C 289.749 -3.7571 0.227806 0
M  V30 3139 C 288.896 -2.64204 0.842122 0
M  V30 3140 H 291.847 -1.303 0.905963 0
M  V30 3141 H 291.868 -3.80107 -0.172843 0
M  V30 3142 H 291.38 -3.52192 1.63042 0
M  V30 3143 H 289.481 -3.63172 -0.832895 0
M  V30 3144 H 289.594 -4.74103 0.690174 0
M  V30 3145 H 287.958 -2.53255 0.270893 0
M  V30 3146 H 288.741 -2.85155 1.91158 0
M  V30 3147 N 291.186 -0.45159 -1.50991 0
M  V30 3148 C 292.134 0.366864 -2.29689 0
M  V30 3149 C 293.128 1.00809 -1.36139 0
M  V30 3150 O 294.334 0.941427 -1.53418 0
M  V30 3151 H 290.709 0.137133 -0.739391 0
M  V30 3152 H 292.68 -0.317538 -2.96706 0
M  V30 3153 C 291.429 1.44751 -3.16137 0
M  V30 3154 H 290.752 0.963473 -3.88017 0
M  V30 3155 H 292.192 1.99315 -3.74232 0
M  V30 3156 C 290.651 2.43869 -2.32442 0
M  V30 3157 O 291.181 3.4872 -1.99392 0
M  V30 3158 N 289.387 2.15105 -1.95392 0
M  V30 3159 H 288.934 1.29866 -2.22469 0
M  V30 3160 H 288.892 2.81661 -1.39693 0
M  V30 3161 N 292.664 1.56529 -0.183458 0
M  V30 3162 C 293.889 2.02064 0.467428 0
M  V30 3163 C 294.314 1.06282 1.55196 0
M  V30 3164 O 293.672 0.0443565 1.81246 0
M  V30 3165 C 293.72 3.46122 1.01153 0
M  V30 3166 O 292.824 3.53437 2.12499 0
M  V30 3167 H 292.165 0.654726 0.110588 0
M  V30 3168 H 294.695 2.02521 -0.290917 0
M  V30 3169 H 294.705 3.85676 1.33108 0
M  V30 3170 H 293.38 4.15331 0.217533 0
M  V30 3171 H 291.957 3.2575 1.81497 0
M  V30 3172 N 294.142 -0.090211 1.57342 0
M  V30 3173 C 295.052 -1.12735 2.05738 0
M  V30 3174 C 296.068 -1.43557 0.983231 0
M  V30 3175 O 297.244 -1.54101 1.29672 0
M  V30 3176 C 294.309 -2.42659 2.47624 0
M  V30 3177 C 293.37 -2.18975 3.69254 0
M  V30 3178 C 292.603 -3.42704 4.09133 0
M  V30 3179 O 292.826 -4.51127 3.49057 0
M  V30 3180 O 291.76 -3.32003 5.02053 0
M  V30 3181 H 295.586 -0.746279 2.94388 0
M  V30 3182 H 293.171 -0.303064 1.46294 0
M  V30 3183 H 295.053 -3.19155 2.7517 0
M  V30 3184 H 293.728 -2.80182 1.62109 0
M  V30 3185 H 292.635 -1.40244 3.46818 0
M  V30 3186 H 293.968 -1.86342 4.55563 0
M  V30 3187 N 295.62 -1.53406 -0.361157 0
M  V30 3188 C 296.866 -1.70054 -1.10496 0
M  V30 3189 C 297.199 -0.453278 -1.88836 0
M  V30 3190 O 296.474 0.5495 -1.86576 0
M  V30 3191 C 296.757 -2.95317 -2.06058 0
M  V30 3192 C 296.61 -4.3021 -1.31298 0
M  V30 3193 C 297.929 -3.16193 -3.06121 0
M  V30 3194 H 295.048 -0.618799 -0.400321 0
M  V30 3195 H 297.69 -1.86052 -0.385318 0
M  V30 3196 H 295.84 -2.81809 -2.67425 0
M  V30 3197 H 297.512 -4.55538 -0.726807 0
M  V30 3198 H 295.755 -4.29421 -0.614853 0
M  V30 3199 H 296.426 -5.14 -2.01265 0
M  V30 3200 H 298.902 -3.28916 -2.5486 0
M  V30 3201 H 297.778 -4.05266 -3.70204 0
M  V30 3202 H 298.039 -2.31676 -3.76535 0
M  V30 3203 N 297.098 0.621204 -1.44841 0
M  V30 3204 C 298.344 1.3826 -1.48365 0
M  V30 3205 C 298.677 1.93831 -0.119624 0
M  V30 3206 O 297.952 1.74251 0.864111 0
M  V30 3207 C 298.235 2.54058 -2.55199 0
M  V30 3208 C 298.088 2.03772 -4.00995 0
M  V30 3209 C 299.407 3.56225 -2.58442 0
M  V30 3210 H 296.526 0.501374 -0.540179 0
M  V30 3211 H 299.168 0.7015 -1.76576 0
M  V30 3212 H 297.318 3.12162 -2.31274 0
M  V30 3213 H 298.99 1.50423 -4.36086 0
M  V30 3214 H 297.233 1.34876 -4.12299 0
M  V30 3215 H 297.904 2.87185 -4.71411 0
M  V30 3216 H 300.38 3.07939 -2.79844 0
M  V30 3217 H 299.256 4.34756 -3.3508 0
M  V30 3218 H 299.517 4.10949 -1.63013 0
M  V30 3219 N 298.576 1.31904 0.862503 0
M  V30 3220 C 299.806 1.24817 1.64634 0
M  V30 3221 C 300.214 -0.187579 1.88268 0
M  V30 3222 O 299.557 -1.13253 1.44635 0
M  V30 3223 C 299.619 1.92996 3.03303 0
M  V30 3224 C 299.283 3.42336 3.02746 0
M  V30 3225 C 300.28 4.37956 2.80162 0
M  V30 3226 C 297.965 3.84147 3.2363 0
M  V30 3227 C 299.959 5.73361 2.78453 0
M  V30 3228 C 297.646 5.19663 3.21549 0
M  V30 3229 C 298.644 6.14081 2.98988 0
M  V30 3230 O 298.332 7.47118 2.96766 0
M  V30 3231 H 298.064 0.432222 0.519769 0
M  V30 3232 H 300.618 1.7445 1.08427 0
M  V30 3233 H 298.848 1.37922 3.61268 0
M  V30 3234 H 300.537 1.79723 3.63943 0
M  V30 3235 H 301.303 4.06981 2.63802 0
M  V30 3236 H 297.182 3.11083 3.40218 0
M  V30 3237 H 300.726 6.4703 2.60763 0
M  V30 3238 H 296.623 5.5027 3.37451 0
M  V30 3239 H 297.391 7.56382 3.12775 0
M  V30 3240 N 300.054 -1.07777 1.14986 0
M  V30 3241 C 301.3 -1.80557 0.923422 0
M  V30 3242 C 301.633 -1.86298 -0.548337 0
M  V30 3243 O 300.908 -1.34354 -1.40639 0
M  V30 3244 C 301.191 -3.25839 1.53299 0
M  V30 3245 C 301.044 -3.28269 3.07505 0
M  V30 3246 C 302.363 -4.22991 1.21518 0
M  V30 3247 H 299.482 -0.655493 0.336894 0
M  V30 3248 H 302.124 -1.26144 1.42083 0
M  V30 3249 H 300.274 -3.72306 1.10999 0
M  V30 3250 H 301.946 -2.90079 3.58681 0
M  V30 3251 H 300.189 -2.67355 3.4162 0
M  V30 3252 H 300.86 -4.30691 3.45266 0
M  V30 3253 H 303.336 -3.84894 1.581 0
M  V30 3254 H 302.212 -5.22945 1.66793 0
M  V30 3255 H 302.473 -4.41904 0.131505 0
M  V30 3256 N 301.532 -0.945985 -1.26051 0
M  V30 3257 C 302.778 -0.606539 -1.94146 0
M  V30 3258 C 303.133 0.84586 -1.72809 0
M  V30 3259 O 302.426 1.59781 -1.05738 0
M  V30 3260 C 302.62 -0.890475 -3.46129 0
M  V30 3261 C 302.449 -2.36892 -3.82246 0
M  V30 3262 C 301.219 -3.02494 -4.04753 0
M  V30 3263 C 303.417 -3.34772 -3.90425 0
M  V30 3264 N 301.399 -4.40302 -4.27794 0
M  V30 3265 C 302.77 -4.57855 -4.18054 0
M  V30 3266 C 304.825 -3.2973 -3.73072 0
M  V30 3267 C 303.528 -5.76522 -4.30134 0
M  V30 3268 C 305.554 -4.47727 -3.86386 0
M  V30 3269 C 304.916 -5.69593 -4.14419 0
M  V30 3270 H 301.015 -0.272407 -0.73302 0
M  V30 3271 H 303.599 -1.21638 -1.52027 0
M  V30 3272 H 301.77 -0.309638 -3.87164 0
M  V30 3273 H 303.502 -0.51181 -4.01451 0
M  V30 3274 H 300.257 -2.53095 -4.003 0
M  V30 3275 H 300.681 -5.11646 -4.43337 0
M  V30 3276 H 305.323 -2.36565 -3.50424 0
M  V30 3277 H 303.041 -6.70136 -4.51601 0
M  V30 3278 H 306.627 -4.45363 -3.74356 0
M  V30 3279 H 305.507 -6.59375 -4.24493 0
M  V30 3280 N 303.011 1.40521 -0.713556 0
M  V30 3281 C 304.239 2.05237 -0.261775 0
M  V30 3282 C 304.654 1.53755 1.09567 0
M  V30 3283 O 304.011 0.693268 1.6882 0
M  V30 3284 C 304.062 3.60763 -0.230706 0
M  V30 3285 O 303.783 4.10345 -1.53455 0
M  V30 3286 C 305.284 4.42651 0.239874 0
M  V30 3287 H 302.504 0.660533 -0.118057 0
M  V30 3288 H 305.048 1.79967 -0.971192 0
M  V30 3289 H 303.203 3.8501 0.429661 0
M  V30 3290 H 303.617 5.04526 -1.43366 0
M  V30 3291 H 305.091 5.51599 0.210468 0
M  V30 3292 H 305.568 4.20082 1.28171 0
M  V30 3293 H 306.174 4.23507 -0.390142 0
M  V30 3294 N 304.489 0.459591 1.5075 0
M  V30 3295 C 305.437 -0.354678 2.2988 0
M  V30 3296 C 306.431 -1.00086 1.36672 0
M  V30 3297 O 307.637 -0.933277 1.53915 0
M  V30 3298 H 304.012 -0.13321 0.740107 0
M  V30 3299 H 305.983 0.333269 2.96533 0
M  V30 3300 C 304.732 -1.43073 3.169 0
M  V30 3301 H 304.055 -0.942882 3.88523 0
M  V30 3302 H 305.495 -1.97328 3.75284 0
M  V30 3303 C 303.954 -2.42633 2.33732 0
M  V30 3304 O 304.484 -3.47658 2.01238 0
M  V30 3305 N 302.69 -2.14066 1.9653 0
M  V30 3306 H 302.237 -1.28685 2.23155 0
M  V30 3307 H 302.195 -2.80917 1.41185 0
M  V30 3308 N 305.967 -1.56429 0.191757 0
M  V30 3309 C 307.215 -1.97095 -0.447006 0
M  V30 3310 C 307.536 -1.07967 -1.62383 0
M  V30 3311 O 306.806 -0.150248 -1.95323 0
M  V30 3312 H 305.386 -0.727832 -0.168135 0
M  V30 3313 H 308.048 -1.92911 0.27771 0
M  V30 3314 H 307.144 -3.01848 -0.793371 0
M  V30 3315 N 307.445 0.0818655 -1.57387 0
M  V30 3316 C 308.67 0.799946 -1.91352 0
M  V30 3317 C 309.095 1.70833 -0.787258 0
M  V30 3318 O 308.453 1.79419 0.26048 0
M  V30 3319 C 308.501 1.57812 -3.24234 0
M  V30 3320 O 307.605 2.68806 -3.12757 0
M  V30 3321 H 306.946 0.21891 -0.626877 0
M  V30 3322 H 309.476 0.0531256 -2.04531 0
M  V30 3323 H 309.486 1.95952 -3.57864 0
M  V30 3324 H 308.161 0.911548 -4.05788 0
M  V30 3325 H 306.738 2.33597 -2.90666 0
M  V30 3326 N 308.923 1.53595 0.353017 0
M  V30 3327 C 310.151 1.74311 1.1146 0
M  V30 3328 C 310.566 0.477854 1.82653 0
M  V30 3329 O 309.923 -0.549977 1.74016 0
M  V30 3330 C 309.974 2.91694 2.13534 0
M  V30 3331 O 309.695 4.13325 1.45238 0
M  V30 3332 C 311.196 3.24384 3.02142 0
M  V30 3333 H 308.416 0.582669 0.332773 0
M  V30 3334 H 310.96 2.00386 0.408107 0
M  V30 3335 H 309.115 2.67977 2.79763 0
M  V30 3336 H 309.529 4.79148 2.13349 0
M  V30 3337 H 311.003 4.09893 3.69718 0
M  V30 3338 H 311.48 2.40282 3.67643 0
M  V30 3339 H 312.086 3.50073 2.41514 0
M  V30 3340 N 310.401 -0.613514 1.45168 0
M  V30 3341 C 311.348 -1.72456 1.53387 0
M  V30 3342 C 312.318 -1.6169 0.380191 0
M  V30 3343 O 313.503 -1.81356 0.592836 0
M  V30 3344 C 310.643 -3.10753 1.50088 0
M  V30 3345 C 309.756 -3.32368 2.75963 0
M  V30 3346 C 308.891 -4.60737 2.64376 0
M  V30 3347 C 307.93 -4.7559 3.85332 0
M  V30 3348 N 307.067 -5.95253 3.72315 0
M  V30 3349 H 311.907 -1.64768 2.48305 0
M  V30 3350 H 309.444 -0.803503 1.23216 0
M  V30 3351 H 311.402 -3.90758 1.46164 0
M  V30 3352 H 310.032 -3.17413 0.587243 0
M  V30 3353 H 309.084 -2.4618 2.89999 0
M  V30 3354 H 310.396 -3.39218 3.65695 0
M  V30 3355 H 309.55 -5.48928 2.58385 0
M  V30 3356 H 308.289 -4.56275 1.72233 0
M  V30 3357 H 307.294 -3.85824 3.91688 0
M  V30 3358 H 308.519 -4.81854 4.78533 0
M  V30 3359 H 306.465 -5.91847 2.82937 0
M  V30 3360 H 306.382 -6.03236 4.55677 0
M  V30 3361 H 307.65 -6.85958 3.70246 0
M  V30 3362 N 311.879 -1.3236 -0.855495 0
M  V30 3363 C 313.104 -1.2601 -1.64731 0
M  V30 3364 C 313.529 0.169068 -1.87339 0
M  V30 3365 O 312.887 1.12016 -1.42556 0
M  V30 3366 C 312.935 -2.02417 -2.98429 0
M  V30 3367 O 312.039 -1.3714 -3.8893 0
M  V30 3368 H 311.38 -0.434325 -0.502253 0
M  V30 3369 H 313.91 -1.74661 -1.06558 0
M  V30 3370 H 313.92 -2.12559 -3.48257 0
M  V30 3371 H 312.595 -3.06343 -2.81295 0
M  V30 3372 H 311.172 -1.3554 -3.47395 0
M  V30 3373 N 313.357 1.07166 -1.15556 0
M  V30 3374 C 314.603 1.80065 -0.932984 0
M  V30 3375 C 314.936 1.86586 0.53845 0
M  V30 3376 O 314.211 1.35098 1.39924 0
M  V30 3377 C 314.494 3.25022 -1.55025 0
M  V30 3378 C 314.347 3.26634 -3.09242 0
M  V30 3379 C 315.666 4.22341 -1.2376 0
M  V30 3380 H 312.785 0.653697 -0.340366 0
M  V30 3381 H 315.427 1.25389 -1.4275 0
M  V30 3382 H 313.577 3.71712 -1.12972 0
M  V30 3383 H 315.249 2.88173 -3.60214 0
M  V30 3384 H 313.492 2.65539 -3.43033 0
M  V30 3385 H 314.163 4.28854 -3.47546 0
M  V30 3386 H 316.639 3.8405 -1.60139 0
M  V30 3387 H 315.515 5.22053 -1.69564 0
M  V30 3388 H 315.776 4.41828 -0.154938 0
M  V30 3389 N 314.835 0.952656 1.25548 0
M  V30 3390 C 316.081 0.607272 1.93494 0
M  V30 3391 C 316.414 -0.853245 1.74452 0
M  V30 3392 O 315.689 -1.61194 1.08843 0
M  V30 3393 C 315.972 0.96435 3.46947 0
M  V30 3394 C 315.825 2.48045 3.75225 0
M  V30 3395 C 317.144 0.487987 4.37386 0
M  V30 3396 H 314.263 0.222096 0.702739 0
M  V30 3397 H 316.905 1.18895 1.48203 0
M  V30 3398 H 315.055 0.469361 3.85654 0
M  V30 3399 H 316.727 3.04905 3.46166 0
M  V30 3400 H 314.97 2.919 3.209 0
M  V30 3401 H 315.641 2.6808 4.82532 0
M  V30 3402 H 318.117 0.912558 4.0597 0
M  V30 3403 H 316.993 0.766547 5.43521 0
M  V30 3404 H 317.254 -0.612063 4.37843 0
M  V30 3405 N 316.313 -1.40141 0.720998 0
M  V30 3406 C 317.559 -2.01084 0.263231 0
M  V30 3407 C 317.892 -1.57052 -1.14229 0
M  V30 3408 O 317.167 -0.793027 -1.77599 0
M  V30 3409 C 317.45 -3.58401 0.349344 0
M  V30 3410 C 317.303 -4.12491 1.79363 0
M  V30 3411 C 318.622 -4.39231 -0.276351 0
M  V30 3412 H 315.741 -0.730572 0.0971228 0
M  V30 3413 H 318.383 -1.66543 0.914518 0
M  V30 3414 H 316.533 -3.87958 -0.205165 0
M  V30 3415 H 318.205 -3.93711 2.40394 0
M  V30 3416 H 316.448 -3.66576 2.31958 0
M  V30 3417 H 317.119 -5.21646 1.80524 0
M  V30 3418 H 319.595 -4.15637 0.196184 0
M  V30 3419 H 318.471 -5.48586 -0.185681 0
M  V30 3420 H 318.732 -4.20643 -1.36059 0
M  V30 3421 N 317.792 -0.46758 -1.50504 0
M  V30 3422 C 318.755 0.317059 -2.26996 0
M  V30 3423 C 319.755 0.923513 -1.31635 0
M  V30 3424 O 320.945 0.793239 -1.55091 0
M  V30 3425 C 318.077 1.45134 -3.08462 0
M  V30 3426 H 319.27 -0.353723 -2.97807 0
M  V30 3427 H 316.823 -0.221545 -1.54722 0
M  V30 3428 H 317.558 2.15728 -2.4214 0
M  V30 3429 H 317.343 1.02232 -3.78538 0
M  V30 3430 H 318.833 2.00493 -3.66323 0
M  V30 3431 N 319.27 1.56325 -0.20005 0
M  V30 3432 C 320.18 2.22931 0.730668 0
M  V30 3433 C 321.196 1.22997 1.23076 0
M  V30 3434 O 322.372 1.55748 1.27689 0
M  V30 3435 C 319.437 2.87948 1.93098 0
M  V30 3436 C 318.498 4.03166 1.47497 0
M  V30 3437 C 317.731 4.65073 2.61807 0
M  V30 3438 O 317.954 4.25913 3.79413 0
M  V30 3439 O 316.888 5.54452 2.34237 0
M  V30 3440 H 320.714 3.03084 0.193391 0
M  V30 3441 H 318.299 1.49371 0.0294621 0
M  V30 3442 H 320.181 3.29063 2.6324 0
M  V30 3443 H 318.856 2.10771 2.45677 0
M  V30 3444 H 317.763 3.66664 0.742201 0
M  V30 3445 H 319.096 4.82022 0.995796 0
M  V30 3446 N 320.748 -0.0735177 1.57428 0
M  V30 3447 C 322.025 -0.805903 1.78226 0
M  V30 3448 C 322.405 -1.95874 0.787189 0
M  V30 3449 O 321.753 -2.2779 -0.180029 0
M  V30 3450 C 321.963 -1.28045 3.24662 0
M  V30 3451 C 323.311 -1.71453 3.88444 0
M  V30 3452 O 324.335 -1.37616 3.28543 0
M  V30 3453 O 323.194 -2.34093 4.93825 0
M  V30 3454 H 320.288 -0.386041 0.73137 0
M  V30 3455 H 322.834 -0.0537269 1.69615 0
M  V30 3456 H 321.606 -0.455476 3.8864 0
M  V30 3457 H 321.229 -2.094 3.37991 0
M  V30 3458 N 322.226 -1.5378 -0.344866 0
M  V30 3459 C 323.474 -1.70625 -1.08311 0
M  V30 3460 C 323.795 -0.471447 -1.89215 0
M  V30 3461 O 323.065 0.514616 -1.8902 0
M  V30 3462 H 321.645 -0.629058 -0.402859 0
M  V30 3463 H 324.307 -1.9103 -0.386459 0
M  V30 3464 H 323.403 -2.57656 -1.76124 0
M  V30 3465 N 323.704 0.605807 -1.45491 0
M  V30 3466 C 324.929 1.39625 -1.53361 0
M  V30 3467 C 325.354 1.87351 -0.167645 0
M  V30 3468 O 324.712 1.60243 0.848051 0
M  V30 3469 C 324.76 2.57559 -2.5238 0
M  V30 3470 O 323.864 3.58248 -2.04285 0
M  V30 3471 H 323.205 0.416771 -0.516912 0
M  V30 3472 H 325.735 0.737103 -1.90861 0
M  V30 3473 H 325.745 3.0478 -2.71244 0
M  V30 3474 H 324.42 2.22171 -3.51586 0
M  V30 3475 H 322.997 3.17664 -1.95305 0
M  V30 3476 N 325.182 1.32811 0.848464 0
M  V30 3477 C 326.598 1.11937 1.13764 0
M  V30 3478 C 326.798 -0.0960789 2.01271 0
M  V30 3479 O 325.854 -0.779165 2.40178 0
M  V30 3480 C 327.167 2.402 1.809 0
M  V30 3481 C 328.715 2.46016 1.93508 0
M  V30 3482 C 329.19 3.74215 2.64059 0
M  V30 3483 N 330.681 3.75232 2.71579 0
M  V30 3484 C 331.416 4.71134 3.26833 0
M  V30 3485 N 330.912 5.77406 3.8285 0
M  V30 3486 N 332.705 4.58623 3.24995 0
M  V30 3487 H 324.856 2.1073 0.265855 0
M  V30 3488 H 327.119 0.930671 0.180431 0
M  V30 3489 H 326.825 3.29093 1.24058 0
M  V30 3490 H 326.699 2.51628 2.81004 0
M  V30 3491 H 329.086 1.57577 2.49506 0
M  V30 3492 H 329.167 2.38536 0.923811 0
M  V30 3493 H 328.811 4.63031 2.08722 0
M  V30 3494 H 328.741 3.78968 3.65637 0
M  V30 3495 H 331.232 2.98423 2.31845 0
M  V30 3496 H 331.545 6.46632 4.23187 0
M  V30 3497 H 329.89 5.81152 3.81165 0
M  V30 3498 H 333.081 3.74762 2.80484 0
M  V30 3499 H 333.254 5.33535 3.67756 0
M  V30 3500 N 326.66 -1.06551 1.16123 0
M  V30 3501 C 327.59 -2.15935 0.88851 0
M  V30 3502 C 328.571 -1.69306 -0.164135 0
M  V30 3503 O 329.756 -1.94193 -0.0167857 0
M  V30 3504 C 326.886 -3.45149 0.385942 0
M  V30 3505 C 325.84 -4.05271 1.3762 0
M  V30 3506 C 325.166 -5.29664 0.732137 0
M  V30 3507 C 326.466 -4.44355 2.74493 0
M  V30 3508 H 328.16 -2.39006 1.80323 0
M  V30 3509 H 325.706 -1.14866 0.868435 0
M  V30 3510 H 327.659 -4.21004 0.182647 0
M  V30 3511 H 326.383 -3.21689 -0.564274 0
M  V30 3512 H 325.042 -3.3147 1.56599 0
M  V30 3513 H 324.69 -5.02499 -0.224483 0
M  V30 3514 H 324.39 -5.70848 1.39307 0
M  V30 3515 H 325.914 -6.08218 0.538802 0
M  V30 3516 H 327.328 -5.11303 2.59311 0
M  V30 3517 H 325.725 -4.96515 3.37035 0
M  V30 3518 H 326.795 -3.55339 3.29943 0
M  V30 3519 N 328.138 -0.959301 -1.25041 0
M  V30 3520 C 329.086 -0.474437 -2.2771 0
M  V30 3521 C 330.08 0.457697 -1.631 0
M  V30 3522 O 331.286 0.333912 -1.76876 0
M  V30 3523 H 327.661 -0.134936 -0.739795 0
M  V30 3524 H 329.632 -1.35251 -2.65988 0
M  V30 3525 C 328.381 0.227884 -3.46952 0
M  V30 3526 H 327.704 -0.480248 -3.96905 0
M  V30 3527 H 329.144 0.531091 -4.20661 0
M  V30 3528 C 327.603 1.452 -3.04004 0
M  V30 3529 O 328.133 2.54949 -3.10426 0
M  V30 3530 N 326.339 1.31502 -2.59144 0
M  V30 3531 H 325.886 0.422065 -2.54119 0
M  V30 3532 H 325.844 2.13521 -2.30773 0
M  V30 3533 N 329.616 1.39756 -0.72842 0
M  V30 3534 C 330.548 2.29157 -0.0446202 0
M  V30 3535 C 331.561 1.46484 0.710367 0
M  V30 3536 O 332.75 1.69632 0.55562 0
M  V30 3537 C 329.85 3.24987 0.961071 0
M  V30 3538 C 329.023 4.36572 0.268967 0
M  V30 3539 C 328.082 5.12756 1.18184 0
M  V30 3540 O 327.108 5.6534 0.661794 0
M  V30 3541 N 328.31 5.23331 2.51206 0
M  V30 3542 H 331.075 2.88482 -0.812295 0
M  V30 3543 H 328.636 1.51265 -0.577098 0
M  V30 3544 H 330.628 3.72827 1.57423 0
M  V30 3545 H 329.198 2.66739 1.63 0
M  V30 3546 H 328.418 3.90694 -0.524574 0
M  V30 3547 H 329.706 5.08363 -0.210934 0
M  V30 3548 H 329.104 4.82116 2.9594 0
M  V30 3549 H 327.661 5.74634 3.07634 0
M  V30 3550 N 331.094 0.475555 1.50254 0
M  V30 3551 C 332.324 -0.0753399 2.06463 0
M  V30 3552 C 332.732 -1.33661 1.33908 0
M  V30 3553 O 332.075 -1.79219 0.403257 0
M  V30 3554 C 332.137 -0.424921 3.5698 0
M  V30 3555 C 331.801 0.734965 4.51051 0
M  V30 3556 C 332.798 1.61827 4.94073 0
M  V30 3557 C 330.483 0.926557 4.9368 0
M  V30 3558 C 332.477 2.67754 5.78434 0
M  V30 3559 C 330.164 1.98904 5.77824 0
M  V30 3560 C 331.162 2.8629 6.20103 0
M  V30 3561 O 330.85 3.90708 7.02568 0
M  V30 3562 H 330.582 0.00576308 0.675975 0
M  V30 3563 H 333.136 0.664662 1.94349 0
M  V30 3564 H 331.366 -1.21817 3.67012 0
M  V30 3565 H 333.055 -0.911422 3.95535 0
M  V30 3566 H 333.821 1.48196 4.61804 0
M  V30 3567 H 329.7 0.25584 4.6029 0
M  V30 3568 H 333.244 3.35992 6.11355 0
M  V30 3569 H 329.141 2.12541 6.09505 0
M  V30 3570 H 329.909 3.87751 7.20827 0
M  V30 3571 N 332.573 -1.56217 0.208337 0
M  V30 3572 C 333.523 -2.16324 -0.720281 0
M  V30 3573 C 334.507 -1.10775 -1.16695 0
M  V30 3574 O 335.699 -1.36801 -1.12314 0
M  V30 3575 C 332.828 -2.83644 -1.93393 0
M  V30 3576 C 331.914 -3.96401 -1.50755 0
M  V30 3577 N 332.305 -4.99546 -0.792937 0
M  V30 3578 C 330.603 -4.08246 -1.79585 0
M  V30 3579 C 331.304 -5.78828 -0.577364 0
M  V30 3580 N 330.28 -5.31723 -1.1301 0
M  V30 3581 H 334.082 -2.93432 -0.165725 0
M  V30 3582 H 331.596 -1.62397 0.00906463 0
M  V30 3583 H 333.593 -3.25107 -2.60981 0
M  V30 3584 H 332.253 -2.08027 -2.49308 0
M  V30 3585 H 333.264 -5.15967 -0.447004 0
M  V30 3586 H 329.941 -3.4377 -2.36915 0
M  V30 3587 H 331.331 -6.71899 -0.00952956 0
M  V30 3588 N 334.051 0.0651679 -1.57465 0
M  V30 3589 C 334.981 1.07693 -2.07182 0
M  V30 3590 C 335.962 1.39962 -0.966673 0
M  V30 3591 O 337.147 1.49475 -1.2398 0
M  V30 3592 C 334.277 2.3885 -2.52127 0
M  V30 3593 C 333.231 2.20917 -3.66579 0
M  V30 3594 C 332.557 3.57515 -3.97601 0
M  V30 3595 C 333.857 1.62493 -4.9638 0
M  V30 3596 H 335.551 0.663199 -2.91962 0
M  V30 3597 H 333.097 0.317569 -1.40455 0
M  V30 3598 H 335.05 3.09928 -2.85522 0
M  V30 3599 H 333.774 2.82215 -1.64384 0
M  V30 3600 H 332.433 1.52279 -3.33477 0
M  V30 3601 H 332.081 3.98463 -3.06979 0
M  V30 3602 H 331.781 3.46353 -4.74672 0
M  V30 3603 H 333.305 4.30013 -4.33499 0
M  V30 3604 H 334.719 2.23445 -5.27963 0
M  V30 3605 H 333.116 1.62009 -5.77818 0
M  V30 3606 H 334.186 0.587041 -4.81333 0
M  V30 3607 N 335.529 1.53961 0.336706 0
M  V30 3608 C 336.462 1.77255 1.43722 0
M  V30 3609 C 337.44 0.62193 1.50236 0
M  V30 3610 O 338.624 0.857874 1.67847 0
M  V30 3611 C 335.751 1.87733 2.81912 0
M  V30 3612 C 334.797 3.09933 2.92991 0
M  V30 3613 S 335.63 4.68836 2.58753 0
M  V30 3614 C 336.786 4.82202 3.99039 0
M  V30 3615 H 337.019 2.70322 1.23748 0
M  V30 3616 H 334.552 1.44917 0.532777 0
M  V30 3617 H 336.51 1.94455 3.61521 0
M  V30 3618 H 335.171 0.956666 2.99177 0
M  V30 3619 H 334.364 3.1396 3.94265 0
M  V30 3620 H 333.966 3.01472 2.21338 0
M  V30 3621 H 336.258 4.64032 4.9364 0
M  V30 3622 H 337.201 5.84298 4.00002 0
M  V30 3623 H 337.609 4.10604 3.87382 0
M  V30 3624 N 337.007 -0.598083 1.45811 0
M  V30 3625 C 338.255 -1.35413 1.50026 0
M  V30 3626 C 338.576 -1.94444 0.147177 0
M  V30 3627 O 337.846 -1.77701 -0.824571 0
M  V30 3628 H 336.426 -0.502727 0.552517 0
M  V30 3629 H 339.088 -0.701606 1.81834 0
M  V30 3630 H 338.184 -2.16871 2.2444 0
M  V30 3631 N 338.485 -1.33259 -0.841409 0
M  V30 3632 C 339.417 -1.19136 -1.95804 0
M  V30 3633 C 340.43 -0.122965 -1.62335 0
M  V30 3634 O 341.619 -0.373154 -1.74556 0
M  V30 3635 C 338.719 -0.804268 -3.29218 0
M  V30 3636 C 337.892 -1.96376 -3.90839 0
M  V30 3637 C 336.951 -1.55806 -5.02604 0
M  V30 3638 O 335.977 -2.27203 -5.21888 0
M  V30 3639 N 337.179 -0.461609 -5.78662 0
M  V30 3640 H 339.944 -2.15326 -2.08458 0
M  V30 3641 H 337.505 -1.25971 -1.017 0
M  V30 3642 H 339.497 -0.51501 -4.0141 0
M  V30 3643 H 338.067 0.0668809 -3.12528 0
M  V30 3644 H 337.287 -2.41879 -3.11269 0
M  V30 3645 H 338.575 -2.73966 -4.28742 0
M  V30 3646 H 337.973 0.132343 -5.65545 0
M  V30 3647 H 336.53 -0.232013 -6.51387 0
M  V30 3648 N 339.963 1.05934 -1.16686 0
M  V30 3649 C 341.191 1.8249 -0.974929 0
M  V30 3650 C 341.606 1.82679 0.476861 0
M  V30 3651 O 340.963 1.2486 1.33103 0
M  V30 3652 C 341.014 3.28943 -1.49929 0
M  V30 3653 O 340.735 3.28886 -2.89423 0
M  V30 3654 C 342.236 4.22215 -1.35089 0
M  V30 3655 H 339.456 0.575295 -0.345365 0
M  V30 3656 H 342 1.33631 -1.548 0
M  V30 3657 H 340.155 3.751 -0.968423 0
M  V30 3658 H 340.569 4.20493 -3.13506 0
M  V30 3659 H 342.043 5.22987 -1.76603 0
M  V30 3660 H 342.52 4.38195 -0.296935 0
M  V30 3661 H 343.126 3.81907 -1.87155 0
M  V30 3662 N 341.441 0.965919 1.2453 0
M  V30 3663 C 342.687 0.62776 1.92839 0
M  V30 3664 C 343.02 -0.834694 1.75347 0
M  V30 3665 O 342.295 -1.60031 1.10546 0
M  V30 3666 C 342.578 1.00109 3.45905 0
M  V30 3667 C 342.431 2.52011 3.72573 0
M  V30 3668 C 343.75 0.53435 4.36844 0
M  V30 3669 H 340.869 0.229537 0.700344 0
M  V30 3670 H 343.511 1.2046 1.46933 0
M  V30 3671 H 341.661 0.510238 3.85135 0
M  V30 3672 H 343.333 3.08559 3.42912 0
M  V30 3673 H 341.576 2.95287 3.17786 0
M  V30 3674 H 342.247 2.73183 4.79661 0
M  V30 3675 H 344.723 0.955565 4.04979 0
M  V30 3676 H 343.599 0.824152 5.42678 0
M  V30 3677 H 343.86 -0.565589 4.38467 0
M  V30 3678 N 342.919 -1.39368 0.735821 0
M  V30 3679 C 344.167 -2.00101 0.283562 0
M  V30 3680 C 344.488 -1.5868 -1.13338 0
M  V30 3681 O 343.758 -0.835423 -1.77193 0
M  V30 3682 H 342.338 -0.740024 0.101851 0
M  V30 3683 H 345 -1.70404 0.945962 0
M  V30 3684 H 344.096 -3.10323 0.332604 0
M  V30 3685 N 344.397 -0.483516 -1.5 0
M  V30 3686 C 345.625 0.0644831 -2.06799 0
M  V30 3687 C 346.04 1.32399 -1.34596 0
M  V30 3688 O 345.397 1.77626 -0.418946 0
M  V30 3689 C 345.448 0.339927 -3.59898 0
M  V30 3690 O 345.169 -0.869635 -4.29382 0
M  V30 3691 C 346.67 0.933515 -4.33359 0
M  V30 3692 H 343.89 -0.0126333 -0.670881 0
M  V30 3693 H 346.434 -0.675864 -1.93009 0
M  V30 3694 H 344.589 1.03022 -3.7345 0
M  V30 3695 H 345.003 -0.62179 -5.20801 0
M  V30 3696 H 346.477 1.07593 -5.41413 0
M  V30 3697 H 346.954 1.92685 -3.94676 0
M  V30 3698 H 347.56 0.281221 -4.24369 0
M  V30 3699 N 345.875 1.56104 -0.216619 0
M  V30 3700 C 346.785 2.23694 0.706982 0
M  V30 3701 C 347.801 1.24295 1.21765 0
M  V30 3702 O 348.977 1.57094 1.2603 0
M  V30 3703 C 346.042 2.8998 1.90033 0
M  V30 3704 C 345.103 4.04708 1.43213 0
M  V30 3705 C 344.336 4.67824 2.56859 0
M  V30 3706 O 344.559 4.29913 3.74874 0
M  V30 3707 O 343.493 5.56905 2.28343 0
M  V30 3708 H 347.319 3.03272 0.161235 0
M  V30 3709 H 344.904 1.49394 0.0136177 0
M  V30 3710 H 346.786 3.31837 2.59735 0
M  V30 3711 H 345.461 2.13365 2.43428 0
M  V30 3712 H 344.368 3.6743 0.70327 0
M  V30 3713 H 345.701 4.83051 0.944615 0
M  V30 3714 N 347.353 -0.0568162 1.57498 0
M  V30 3715 C 348.301 -1.08452 2.05769 0
M  V30 3716 C 349.295 -1.39164 0.965903 0
M  V30 3717 O 350.501 -1.38395 1.15095 0
M  V30 3718 H 346.876 -0.367148 0.656282 0
M  V30 3719 H 348.847 -0.651368 2.91204 0
M  V30 3720 C 347.596 -2.38543 2.52968 0
M  V30 3721 H 346.919 -2.15765 3.36579 0
M  V30 3722 H 348.359 -3.08863 2.90481 0
M  V30 3723 C 346.818 -3.05562 1.41893 0
M  V30 3724 O 347.348 -3.94262 0.769442 0
M  V30 3725 N 345.554 -2.6643 1.16032 0
M  V30 3726 H 345.101 -1.94387 1.6903 0
M  V30 3727 H 345.059 -3.11593 0.419219 0
M  V30 3728 N 348.832 -1.54138 -0.328536 0
M  V30 3729 C 350.081 -1.71318 -1.06456 0
M  V30 3730 C 350.394 -0.491109 -1.89334 0
M  V30 3731 O 351.6 -0.54416 -2.65991 0
M  V30 3732 C 350.056 -3.03 -1.94214 0
M  V30 3733 C 349.664 -4.32595 -1.16471 0
M  V30 3734 C 351.408 -3.29544 -2.67583 0
M  V30 3735 C 349.315 -5.55341 -2.03347 0
M  V30 3736 H 348.245 -0.638429 -0.401155 0
M  V30 3737 H 350.896 -1.80633 -0.323106 0
M  V30 3738 H 349.278 -2.87579 -2.72239 0
M  V30 3739 H 350.452 -4.58766 -0.432525 0
M  V30 3740 H 348.767 -4.12777 -0.548063 0
M  V30 3741 H 351.364 -4.18444 -3.3288 0
M  V30 3742 H 351.707 -2.47206 -3.34955 0
M  V30 3743 H 352.24 -3.45809 -1.96623 0
M  V30 3744 H 348.979 -6.40268 -1.40491 0
M  V30 3745 H 348.499 -5.33397 -2.74313 0
M  V30 3746 H 350.178 -5.91557 -2.62049 0
M  V30 3747 N 350.31 0.590341 -1.46126 0
M  V30 3748 C 351.535 1.37991 -1.54833 0
M  V30 3749 C 351.96 1.87163 -0.187506 0
M  V30 3750 O 351.318 1.61133 0.831008 0
M  V30 3751 C 351.366 2.54867 -2.55098 0
M  V30 3752 O 350.47 3.56061 -2.08073 0
M  V30 3753 H 349.811 0.411265 -0.521303 0
M  V30 3754 H 352.341 0.716819 -1.91632 0
M  V30 3755 H 352.351 3.01886 -2.74461 0
M  V30 3756 H 351.026 2.18429 -3.53923 0
M  V30 3757 H 349.603 3.15574 -1.98664 0
M  V30 3758 N 351.788 1.33704 0.83433 0
M  V30 3759 C 353.016 1.28467 1.62185 0
M  V30 3760 C 353.431 -0.143526 1.88254 0
M  V30 3761 O 352.788 -1.08709 1.4659 0
M  V30 3762 C 352.839 2.06174 2.96942 0
M  V30 3763 O 352.56 3.43422 2.72016 0
M  V30 3764 C 354.061 2.08201 3.91366 0
M  V30 3765 H 351.281 0.4424 0.504503 0
M  V30 3766 H 353.825 1.76145 1.03891 0
M  V30 3767 H 351.98 1.62167 3.51825 0
M  V30 3768 H 352.394 3.83453 3.57861 0
M  V30 3769 H 353.868 2.67017 4.83121 0
M  V30 3770 H 354.345 1.07343 4.2588 0
M  V30 3771 H 354.951 2.52246 3.42421 0
M  V30 3772 N 353.266 -1.05314 1.17247 0
M  V30 3773 C 354.491 -1.82509 0.985148 0
M  V30 3774 C 354.916 -1.82343 -0.461788 0
M  V30 3775 O 354.274 -1.23151 -1.33055 0
M  V30 3776 C 354.322 -3.26566 1.52929 0
M  V30 3777 O 353.426 -4.05666 0.742225 0
M  V30 3778 H 352.767 -0.564347 0.349869 0
M  V30 3779 H 355.297 -1.32718 1.55715 0
M  V30 3780 H 355.307 -3.77369 1.55103 0
M  V30 3781 H 353.982 -3.26001 2.58256 0
M  V30 3782 H 352.559 -3.64397 0.791794 0
M  V30 3783 N 354.744 -0.972509 -1.24016 0
M  V30 3784 C 355.972 -0.654803 -1.96265 0
M  V30 3785 C 356.387 0.776708 -1.72083 0
M  V30 3786 O 355.744 1.52171 -1.00748 0
M  V30 3787 C 355.795 -0.92592 -3.49441 0
M  V30 3788 O 355.516 -2.30116 -3.72798 0
M  V30 3789 C 357.017 -0.623068 -4.38899 0
M  V30 3790 H 354.237 -0.243907 -0.6251 0
M  V30 3791 H 356.781 -1.30175 -1.57717 0
M  V30 3792 H 354.936 -0.325108 -3.86033 0
M  V30 3793 H 355.35 -2.38483 -4.67147 0
M  V30 3794 H 356.824 -0.863189 -5.45209 0
M  V30 3795 H 357.301 0.442754 -4.36963 0
M  V30 3796 H 357.907 -1.204 -4.07902 0
M  V30 3797 N 356.222 1.38976 -0.743202 0
M  V30 3798 C 357.47 1.99948 -0.29417 0
M  V30 3799 C 357.791 1.59279 1.12495 0
M  V30 3800 O 357.061 0.844808 1.76748 0
M  V30 3801 H 355.641 0.739473 -0.105774 0
M  V30 3802 H 358.303 1.699 -0.954986 0
M  V30 3803 H 357.399 3.10142 -0.349056 0
M  V30 3804 N 357.7 0.491464 1.49741 0
M  V30 3805 C 358.61 -0.296835 2.32715 0
M  V30 3806 C 359.626 -0.976536 1.44013 0
M  V30 3807 O 360.802 -0.960023 1.77047 0
M  V30 3808 C 357.867 -1.35288 3.19215 0
M  V30 3809 C 356.928 -0.687632 4.23757 0
M  V30 3810 C 356.161 -1.69336 5.06123 0
M  V30 3811 O 356.384 -2.92219 4.89861 0
M  V30 3812 O 355.318 -1.25394 5.88693 0
M  V30 3813 H 359.144 0.382048 3.01287 0
M  V30 3814 H 356.729 0.252953 1.47243 0
M  V30 3815 H 358.611 -1.96411 3.72828 0
M  V30 3816 H 357.286 -2.01487 2.53347 0
M  V30 3817 H 356.193 -0.0369159 3.74082 0
M  V30 3818 H 357.526 -0.0682566 4.92153 0
M  V30 3819 N 359.178 -1.55987 0.224894 0
M  V30 3820 C 360.408 -2.02489 -0.41007 0
M  V30 3821 C 360.816 -1.10391 -1.53657 0
M  V30 3822 O 360.159 -0.106458 -1.83391 0
M  V30 3823 C 360.221 -3.45319 -0.999757 0
M  V30 3824 C 359.885 -4.56999 -0.00827976 0
M  V30 3825 C 360.882 -5.13812 0.793314 0
M  V30 3826 C 358.567 -5.02176 0.111442 0
M  V30 3827 C 360.561 -6.14276 1.7013 0
M  V30 3828 C 358.248 -6.02477 1.02296 0
M  V30 3829 C 359.246 -6.58403 1.81643 0
M  V30 3830 O 358.934 -7.56751 2.71262 0
M  V30 3831 H 358.666 -0.667915 -0.104235 0
M  V30 3832 H 361.22 -2.0257 0.339782 0
M  V30 3833 H 359.45 -3.42318 -1.79876 0
M  V30 3834 H 361.139 -3.7545 -1.54248 0
M  V30 3835 H 361.905 -4.79756 0.711288 0
M  V30 3836 H 357.784 -4.58323 -0.49605 0
M  V30 3837 H 361.328 -6.57854 2.32107 0
M  V30 3838 H 357.225 -6.35954 1.10599 0
M  V30 3839 H 357.993 -7.74286 2.65375 0
M  V30 3840 N 360.656 0.0484629 -1.57525 0
M  V30 3841 C 361.884 0.755421 -1.92616 0
M  V30 3842 C 362.299 1.69919 -0.822984 0
M  V30 3843 O 361.656 1.81378 0.202085 0
M  V30 3844 C 361.707 1.52915 -3.27566 0
M  V30 3845 O 361.428 0.62329 -4.33644 0
M  V30 3846 C 362.929 2.33502 -3.76818 0
M  V30 3847 H 360.149 0.213465 -0.63614 0
M  V30 3848 H 362.693 0.0117698 -2.04497 0
M  V30 3849 H 360.848 2.22486 -3.17142 0
M  V30 3850 H 361.262 1.16383 -5.11425 0
M  V30 3851 H 362.736 2.83214 -4.73808 0
M  V30 3852 H 363.213 3.14068 -3.07014 0
M  V30 3853 H 363.819 1.69043 -3.90262 0
M  V30 3854 N 362.134 1.5431 0.320358 0
M  V30 3855 C 363.383 1.7188 1.05546 0
M  V30 3856 C 363.696 0.501143 1.89071 0
M  V30 3857 O 364.902 0.558258 2.65699 0
M  V30 3858 C 363.358 3.04025 1.92605 0
M  V30 3859 C 362.966 4.33207 1.14176 0
M  V30 3860 C 364.71 3.30959 2.65832 0
M  V30 3861 C 362.617 5.56412 2.00399 0
M  V30 3862 H 361.547 0.640547 0.397763 0
M  V30 3863 H 364.198 1.80802 0.313522 0
M  V30 3864 H 362.58 2.89019 2.7071 0
M  V30 3865 H 363.754 4.58989 0.40819 0
M  V30 3866 H 362.069 4.13062 0.526165 0
M  V30 3867 H 364.666 4.20203 3.30656 0
M  V30 3868 H 365.009 2.48979 3.33639 0
M  V30 3869 H 365.542 3.46847 1.94787 0
M  V30 3870 H 362.281 6.41004 1.37094 0
M  V30 3871 H 361.801 5.34844 2.7148 0
M  V30 3872 H 363.48 5.92938 2.58908 0
M  V30 3873 N 363.613 -0.582584 1.46437 0
M  V30 3874 C 364.546 -1.70633 1.51524 0
M  V30 3875 C 365.524 -1.58349 0.369351 0
M  V30 3876 O 366.708 -1.79563 0.573516 0
M  V30 3877 C 363.835 -3.08687 1.39392 0
M  V30 3878 C 362.881 -3.3949 2.58164 0
M  V30 3879 S 363.714 -3.31548 4.20519 0
M  V30 3880 C 364.87 -4.72139 4.10896 0
M  V30 3881 H 365.103 -1.66058 2.46601 0
M  V30 3882 H 362.636 -0.761337 1.34324 0
M  V30 3883 H 364.594 -3.8833 1.33079 0
M  V30 3884 H 363.255 -3.10751 0.457436 0
M  V30 3885 H 362.448 -4.40071 2.45669 0
M  V30 3886 H 362.05 -2.67415 2.61468 0
M  V30 3887 H 364.342 -5.62527 3.77584 0
M  V30 3888 H 365.285 -4.89692 5.11476 0
M  V30 3889 H 365.693 -4.48995 3.42146 0
M  V30 3890 N 365.091 -1.34144 -0.827227 0
M  V30 3891 C 366.319 -1.29325 -1.61501 0
M  V30 3892 C 366.734 0.13354 -1.88327 0
M  V30 3893 O 366.091 1.0793 -1.47164 0
M  V30 3894 C 366.142 -2.07746 -2.95844 0
M  V30 3895 O 365.863 -3.4486 -2.70191 0
M  V30 3896 C 367.364 -2.10273 -3.90256 0
M  V30 3897 H 364.584 -0.445069 -0.50215 0
M  V30 3898 H 367.128 -1.76693 -1.02955 0
M  V30 3899 H 365.283 -1.6403 -3.5096 0
M  V30 3900 H 365.697 -3.85345 -3.55822 0
M  V30 3901 H 367.171 -2.69575 -4.81698 0
M  V30 3902 H 367.648 -1.096 -4.25305 0
M  V30 3903 H 368.254 -2.54059 -3.41078 0
M  V30 3904 N 366.569 1.04691 -1.17803 0
M  V30 3905 C 367.532 2.10724 -0.901545 0
M  V30 3906 C 368.532 1.6042 0.110437 0
M  V30 3907 O 369.722 1.7377 -0.122303 0
M  V30 3908 C 366.854 3.39084 -0.351409 0
M  V30 3909 H 368.047 2.36686 -1.84174 0
M  V30 3910 H 365.6 1.21015 -0.98919 0
M  V30 3911 H 366.335 3.18782 0.59569 0
M  V30 3912 H 366.12 3.76909 -1.08083 0
M  V30 3913 H 367.61 4.17227 -0.176451 0
M  V30 3914 N 368.047 0.979072 1.23499 0
M  V30 3915 C 368.997 0.489378 2.22686 0
M  V30 3916 C 369.981 -0.434871 1.54912 0
M  V30 3917 O 371.173 -0.263941 1.75021 0
M  V30 3918 C 368.302 -0.208178 3.42668 0
M  V30 3919 C 367.388 0.735563 4.17672 0
M  V30 3920 N 367.779 1.87763 4.69658 0
M  V30 3921 C 366.077 0.548625 4.42613 0
M  V30 3922 C 366.778 2.46886 5.26709 0
M  V30 3923 N 365.754 1.75287 5.14563 0
M  V30 3924 H 369.556 1.36062 2.60508 0
M  V30 3925 H 367.07 0.83958 1.39014 0
M  V30 3926 H 369.067 -0.576295 4.12898 0
M  V30 3927 H 367.727 -1.07572 3.06363 0
M  V30 3928 H 368.738 2.25885 4.66043 0
M  V30 3929 H 365.415 -0.274006 4.166 0
M  V30 3930 H 366.805 3.43326 5.77561 0
M  V30 3931 N 369.525 -1.3858 0.750561 0
M  V30 3932 C 370.772 -2.00184 0.305373 0
M  V30 3933 C 371.1 -1.59575 -1.11203 0
M  V30 3934 O 370.355 -0.823236 -1.77542 0
M  V30 3935 C 370.654 -3.55455 0.372373 0
M  V30 3936 C 370.32 -4.15765 1.745 0
M  V30 3937 C 368.982 -4.31951 2.12065 0
M  V30 3938 C 371.334 -4.49067 2.64553 0
M  V30 3939 C 368.662 -4.78734 3.39162 0
M  V30 3940 C 371.014 -4.97265 3.91038 0
M  V30 3941 C 369.678 -5.11658 4.28676 0
M  V30 3942 H 368.948 -0.732526 0.111744 0
M  V30 3943 H 371.595 -1.65673 0.960451 0
M  V30 3944 H 369.9 -3.90084 -0.366272 0
M  V30 3945 H 371.597 -4.00999 0.00953918 0
M  V30 3946 H 368.187 -4.03579 1.44297 0
M  V30 3947 H 372.371 -4.36166 2.36796 0
M  V30 3948 H 367.627 -4.88062 3.68246 0
M  V30 3949 H 371.801 -5.22003 4.60962 0
M  V30 3950 H 369.428 -5.47668 5.27222 0
M  V30 3951 N 371.003 -0.499398 -1.49478 0
M  V30 3952 C 371.953 0.299103 -2.2603 0
M  V30 3953 C 372.937 0.936934 -1.30807 0
M  V30 3954 O 374.129 0.844798 -1.55538 0
M  V30 3955 C 371.258 1.36391 -3.15044 0
M  V30 3956 C 370.344 0.732398 -4.17728 0
M  V30 3957 N 370.735 -0.164028 -5.05534 0
M  V30 3958 C 369.033 0.993162 -4.34801 0
M  V30 3959 C 369.734 -0.525345 -5.79323 0
M  V30 3960 N 368.71 0.106348 -5.43496 0
M  V30 3961 H 372.512 -0.391003 -2.91287 0
M  V30 3962 H 370.026 -0.31537 -1.59308 0
M  V30 3963 H 372.023 1.94939 -3.68516 0
M  V30 3964 H 370.683 2.05571 -2.51338 0
M  V30 3965 H 371.694 -0.534736 -5.15132 0
M  V30 3966 H 368.371 1.67783 -3.82302 0
M  V30 3967 H 369.761 -1.25862 -6.60006 0
M  V30 3968 N 372.481 1.55866 -0.233164 0
M  V30 3969 C 373.411 2.23783 0.666599 0
M  V30 3970 C 374.392 1.21343 1.19205 0
M  V30 3971 O 375.577 1.4996 1.23392 0
M  V30 3972 C 372.707 2.92671 1.86978 0
M  V30 3973 C 371.661 4.01682 1.47768 0
M  V30 3974 C 370.987 4.57926 2.76058 0
M  V30 3975 C 372.287 5.18126 0.658993 0
M  V30 3976 H 373.981 2.99232 0.100306 0
M  V30 3977 H 371.527 1.43924 0.046804 0
M  V30 3978 H 373.48 3.3888 2.50476 0
M  V30 3979 H 372.204 2.14688 2.46123 0
M  V30 3980 H 370.863 3.56222 0.866106 0
M  V30 3981 H 370.511 3.76659 3.33372 0
M  V30 3982 H 370.211 5.31505 2.50552 0
M  V30 3983 H 371.735 5.06859 3.40479 0
M  V30 3984 H 373.149 5.60644 1.19795 0
M  V30 3985 H 371.546 5.98009 0.500552 0
M  V30 3986 H 372.616 4.83763 -0.331856 0
M  V30 3987 N 373.959 -0.0401083 1.57549 0
M  V30 3988 C 374.906 -1.04413 2.05831 0
M  V30 3989 C 375.876 -1.36585 0.945184 0
M  V30 3990 O 377.061 -1.47112 1.21502 0
M  V30 3991 C 374.201 -2.34336 2.53339 0
M  V30 3992 C 373.314 -2.08419 3.78398 0
M  V30 3993 C 372.449 -3.32133 4.14561 0
M  V30 3994 C 371.488 -3.01721 5.3257 0
M  V30 3995 N 370.625 -4.17855 5.64218 0
M  V30 3996 H 375.465 -0.625442 2.91363 0
M  V30 3997 H 373.002 -0.297218 1.44066 0
M  V30 3998 H 374.96 -3.10234 2.78946 0
M  V30 3999 H 373.59 -2.73948 1.7074 0
M  V30 4000 H 372.642 -1.23069 3.59942 0
M  V30 4001 H 373.954 -1.81978 4.64419 0
M  V30 4002 H 373.108 -4.16406 4.41238 0
M  V30 4003 H 371.847 -3.61678 3.2717 0
M  V30 4004 H 370.852 -2.15849 5.05657 0
M  V30 4005 H 372.077 -2.73466 6.21605 0
M  V30 4006 H 370.023 -4.47372 4.79786 0
M  V30 4007 H 369.94 -3.94798 6.44725 0
M  V30 4008 H 371.208 -5.03033 5.95465 0
M  V30 4009 N 375.437 -1.54477 -0.31217 0
M  V30 4010 C 376.853 -1.45442 -0.657185 0
M  V30 4011 C 377.053 -0.63653 -1.91182 0
M  V30 4012 O 376.109 -0.139815 -2.52113 0
M  V30 4013 C 377.422 -2.89287 -0.82058 0
M  V30 4014 C 378.97 -2.9926 -0.917188 0
M  V30 4015 C 379.445 -4.44279 -1.11267 0
M  V30 4016 N 380.936 -4.4794 -1.17914 0
M  V30 4017 C 381.671 -5.57318 -1.34848 0
M  V30 4018 N 381.167 -6.76642 -1.48752 0
M  V30 4019 N 382.96 -5.44986 -1.37647 0
M  V30 4020 H 375.111 -2.06129 0.512313 0
M  V30 4021 H 377.374 -0.933088 0.167485 0
M  V30 4022 H 377.08 -3.51687 0.0302604 0
M  V30 4023 H 376.954 -3.36061 -1.71298 0
M  V30 4024 H 379.341 -2.36981 -1.75852 0
M  V30 4025 H 379.422 -2.558 -0.00101257 0
M  V30 4026 H 379.066 -5.07149 -0.27614 0
M  V30 4027 H 378.996 -4.85359 -2.04289 0
M  V30 4028 H 381.487 -3.61969 -1.08567 0
M  V30 4029 H 381.8 -7.55758 -1.61397 0
M  V30 4030 H 380.145 -6.79529 -1.45828 0
M  V30 4031 H 383.336 -4.50715 -1.26388 0
M  V30 4032 H 383.509 -6.3028 -1.50501 0
M  V30 4033 N 376.915 0.57481 -1.46744 0
M  V30 4034 C 377.862 1.68329 -1.57905 0
M  V30 4035 C 378.832 1.60625 -0.422927 0
M  V30 4036 O 380.017 1.79721 -0.640711 0
M  V30 4037 C 377.157 3.06665 -1.58274 0
M  V30 4038 C 376.27 3.24935 -2.84678 0
M  V30 4039 C 375.405 4.53566 -2.76499 0
M  V30 4040 C 374.444 4.65207 -3.97806 0
M  V30 4041 N 373.581 5.85172 -3.87967 0
M  V30 4042 H 378.421 1.58127 -2.52587 0
M  V30 4043 H 375.958 0.770552 -1.25303 0
M  V30 4044 H 377.916 3.86745 -1.56473 0
M  V30 4045 H 376.546 3.15745 -0.671194 0
M  V30 4046 H 375.598 2.38405 -2.96424 0
M  V30 4047 H 376.91 3.29403 -3.7456 0
M  V30 4048 H 376.064 5.41885 -2.72848 0
M  V30 4049 H 374.803 4.51548 -1.8427 0
M  V30 4050 H 373.808 3.75304 -4.0178 0
M  V30 4051 H 375.033 4.68997 -4.9114 0
M  V30 4052 H 372.979 5.84137 -2.98529 0
M  V30 4053 H 372.896 5.90943 -4.71511 0
M  V30 4054 H 374.164 6.759 -3.88303 0
M  V30 4055 N 378.394 1.34581 0.820102 0
M  V30 4056 C 379.643 1.26437 1.57151 0
M  V30 4057 C 379.956 -0.163111 1.94919 0
M  V30 4058 O 381.162 -0.366722 2.69012 0
M  V30 4059 C 379.618 2.21658 2.83541 0
M  V30 4060 C 379.226 3.69679 2.53065 0
M  V30 4061 C 380.97 2.22428 3.61561 0
M  V30 4062 C 378.877 4.56761 3.75664 0
M  V30 4063 H 377.807 0.469707 0.589823 0
M  V30 4064 H 380.458 1.59763 0.902656 0
M  V30 4065 H 378.84 1.81287 3.52067 0
M  V30 4066 H 380.014 4.18605 1.92631 0
M  V30 4067 H 378.329 3.71384 1.88316 0
M  V30 4068 H 380.926 2.8471 4.52597 0
M  V30 4069 H 381.269 1.22434 3.97889 0
M  V30 4070 H 381.802 2.61259 2.99981 0
M  V30 4071 H 378.541 5.57702 3.44454 0
M  V30 4072 H 378.061 4.12568 4.35371 0
M  V30 4073 H 379.74 4.71509 4.43044 0
M  V30 4074 N 379.872 -1.04064 1.18357 0
M  V30 4075 C 381.12 -1.76915 0.977013 0
M  V30 4076 C 381.441 -1.88624 -0.494577 0
M  V30 4077 O 380.711 -1.41125 -1.3587 0
M  V30 4078 H 379.291 -0.65535 0.358504 0
M  V30 4079 H 381.953 -1.25592 1.49039 0
M  V30 4080 H 381.049 -2.78178 1.41504 0
M  V30 4081 N 381.35 -0.985608 -1.22978 0
M  V30 4082 C 382.58 -0.674603 -1.95276 0
M  V30 4083 C 382.988 0.763483 -1.73111 0
M  V30 4084 O 382.331 1.52601 -1.02268 0
M  V30 4085 C 382.393 -0.891597 -3.48268 0
M  V30 4086 C 382.057 -2.31275 -3.94158 0
M  V30 4087 C 383.054 -3.29179 -4.02415 0
M  V30 4088 C 380.739 -2.64524 -4.27004 0
M  V30 4089 C 382.733 -4.58407 -4.42879 0
M  V30 4090 C 380.42 -3.93974 -4.67149 0
M  V30 4091 C 381.418 -4.90727 -4.75053 0
M  V30 4092 O 381.106 -6.17865 -5.14294 0
M  V30 4093 H 380.838 -0.249251 -0.628371 0
M  V30 4094 H 383.392 -1.32106 -1.5728 0
M  V30 4095 H 381.622 -0.187962 -3.86243 0
M  V30 4096 H 383.311 -0.576957 -4.01779 0
M  V30 4097 H 384.077 -3.04823 -3.77237 0
M  V30 4098 H 379.956 -1.89923 -4.2006 0
M  V30 4099 H 383.5 -5.33926 -4.48964 0
M  V30 4100 H 379.397 -4.18122 -4.91777 0
M  V30 4101 H 380.165 -6.21694 -5.32389 0
M  V30 4102 N 382.828 1.3818 -0.7579 0
M  V30 4103 C 384.075 2.00019 -0.315985 0
M  V30 4104 C 384.403 1.60163 1.10355 0
M  V30 4105 O 383.658 0.83264 1.77103 0
M  V30 4106 C 383.957 3.55252 -0.391218 0
M  V30 4107 C 383.623 4.14834 -1.76702 0
M  V30 4108 C 382.285 4.30821 -2.14353 0
M  V30 4109 C 384.637 4.47658 -2.66931 0
M  V30 4110 C 381.965 4.76928 -3.41696 0
M  V30 4111 C 384.317 4.95184 -3.93669 0
M  V30 4112 C 382.981 5.09377 -4.31383 0
M  V30 4113 H 382.251 0.731923 -0.115627 0
M  V30 4114 H 384.898 1.65161 -0.969223 0
M  V30 4115 H 383.203 3.90273 0.34558 0
M  V30 4116 H 384.9 4.00988 -0.030805 0
M  V30 4117 H 381.49 4.02808 -1.46435 0
M  V30 4118 H 385.674 4.34904 -2.39106 0
M  V30 4119 H 380.93 4.86103 -3.70829 0
M  V30 4120 H 385.104 5.19551 -4.63724 0
M  V30 4121 H 382.731 5.44865 -5.30119 0
M  V30 4122 N 384.306 0.507319 1.49211 0
M  V30 4123 C 385.552 -0.0350047 2.0277 0
M  V30 4124 C 385.885 -1.3606 1.38569 0
M  V30 4125 O 385.16 -1.87321 0.523542 0
M  V30 4126 C 385.443 -0.180916 3.59645 0
M  V30 4127 C 385.296 1.16825 4.34364 0
M  V30 4128 C 386.615 -0.918558 4.30407 0
M  V30 4129 H 383.734 -0.0112473 0.736914 0
M  V30 4130 H 386.376 0.659956 1.7817 0
M  V30 4131 H 384.526 -0.772826 3.80736 0
M  V30 4132 H 386.198 1.79952 4.24753 0
M  V30 4133 H 384.441 1.75594 3.96673 0
M  V30 4134 H 385.112 1.01939 5.42506 0
M  V30 4135 H 387.588 -0.41649 4.1401 0
M  V30 4136 H 386.464 -0.989505 5.39907 0
M  V30 4137 H 386.725 -1.96373 3.96093 0
M  V30 4138 N 385.784 -1.5574 0.241426 0
M  V30 4139 C 387.033 -1.97986 -0.385295 0
M  V30 4140 C 387.346 -1.13267 -1.59468 0
M  V30 4141 O 388.552 -1.45501 -2.2922 0
M  V30 4142 C 387.008 -3.52275 -0.736884 0
M  V30 4143 C 386.616 -4.45726 0.450796 0
M  V30 4144 C 388.36 -4.03189 -1.3281 0
M  V30 4145 C 386.267 -5.91352 0.0756662 0
M  V30 4146 H 385.197 -0.739386 -0.147731 0
M  V30 4147 H 387.848 -1.80308 0.340779 0
M  V30 4148 H 386.23 -3.65628 -1.52094 0
M  V30 4149 H 387.404 -4.44131 1.22819 0
M  V30 4150 H 385.719 -4.05264 0.956573 0
M  V30 4151 H 388.316 -5.09505 -1.62201 0
M  V30 4152 H 388.659 -3.50212 -2.25071 0
M  V30 4153 H 389.192 -3.93141 -0.607069 0
M  V30 4154 H 385.931 -6.48354 0.965272 0
M  V30 4155 H 385.451 -5.96095 -0.665635 0
M  V30 4156 H 387.13 -6.46084 -0.344075 0
M  V30 4157 N 387.262 0.0317525 -1.57568 0
M  V30 4158 C 388.194 1.06073 -2.03178 0
M  V30 4159 C 389.207 1.32627 -0.944132 0
M  V30 4160 O 390.396 1.30162 -1.22148 0
M  V30 4161 C 387.496 2.40297 -2.38978 0
M  V30 4162 C 386.669 2.33137 -3.70089 0
M  V30 4163 C 385.728 3.49787 -3.9311 0
M  V30 4164 O 384.754 3.29403 -4.64201 0
M  V30 4165 N 385.956 4.71562 -3.38541 0
M  V30 4166 H 388.721 0.672006 -2.92069 0
M  V30 4167 H 386.282 0.219745 -1.60402 0
M  V30 4168 H 388.274 3.1705 -2.51518 0
M  V30 4169 H 386.844 2.71024 -1.55771 0
M  V30 4170 H 386.064 1.415 -3.67928 0
M  V30 4171 H 387.352 2.25493 -4.56104 0
M  V30 4172 H 386.75 4.91024 -2.80912 0
M  V30 4173 H 385.307 5.45689 -3.56464 0
M  V30 4174 N 388.74 1.54641 0.303973 0
M  V30 4175 C 389.968 1.77768 1.05858 0
M  V30 4176 C 390.383 0.535722 1.8104 0
M  V30 4177 O 389.74 -0.494337 1.75677 0
M  V30 4178 C 389.791 2.9834 2.04146 0
M  V30 4179 O 389.512 4.17736 1.32015 0
M  V30 4180 C 391.013 3.33832 2.91669 0
M  V30 4181 H 388.233 0.592961 0.314067 0
M  V30 4182 H 390.777 2.01583 0.344149 0
M  V30 4183 H 388.932 2.76742 2.71096 0
M  V30 4184 H 389.346 4.85693 1.97998 0
M  V30 4185 H 390.82 4.21448 3.56491 0
M  V30 4186 H 391.297 2.51857 3.59812 0
M  V30 4187 H 391.903 3.57579 2.30254 0
M  V30 4188 N 390.218 -0.567019 1.47046 0
M  V30 4189 C 391.448 -1.34831 1.56538 0
M  V30 4190 C 391.856 -1.8802 0.21101 0
M  V30 4191 O 391.199 -1.65152 -0.804387 0
M  V30 4192 C 391.261 -2.56139 2.52256 0
M  V30 4193 C 390.925 -2.24307 3.98165 0
M  V30 4194 C 391.922 -1.82192 4.86931 0
M  V30 4195 C 389.607 -2.35968 4.43423 0
M  V30 4196 C 391.601 -1.52153 6.18973 0
M  V30 4197 C 389.288 -2.05542 5.75496 0
M  V30 4198 C 390.286 -1.63701 6.63092 0
M  V30 4199 O 389.974 -1.33657 7.92711 0
M  V30 4200 H 389.706 -0.417683 0.531523 0
M  V30 4201 H 392.26 -0.694726 1.93294 0
M  V30 4202 H 390.49 -3.24356 2.10548 0
M  V30 4203 H 392.179 -3.18214 2.51982 0
M  V30 4204 H 392.945 -1.72684 4.53217 0
M  V30 4205 H 388.824 -2.67495 3.75456 0
M  V30 4206 H 392.368 -1.19421 6.87302 0
M  V30 4207 H 388.265 -2.14679 6.08755 0
M  V30 4208 H 389.033 -1.4737 8.05124 0
M  V30 4209 N 391.696 -1.35014 -0.812953 0
M  V30 4210 C 392.626 -1.30069 -1.93919 0
M  V30 4211 C 393.607 -0.176275 -1.69184 0
M  V30 4212 O 394.792 -0.370227 -1.90638 0
M  V30 4213 C 391.922 -1.06547 -3.30552 0
M  V30 4214 C 390.876 -2.15561 -3.69753 0
M  V30 4215 C 390.202 -1.77214 -5.04479 0
M  V30 4216 C 391.502 -3.57476 -3.808 0
M  V30 4217 H 393.196 -2.24303 -1.98314 0
M  V30 4218 H 390.742 -1.07977 -0.952736 0
M  V30 4219 H 392.695 -1.01729 -4.08937 0
M  V30 4220 H 391.419 -0.0875719 -3.26483 0
M  V30 4221 H 390.078 -2.19466 -2.9365 0
M  V30 4222 H 389.726 -0.780589 -4.96906 0
M  V30 4223 H 389.426 -2.50184 -5.31678 0
M  V30 4224 H 390.95 -1.7391 -5.8531 0
M  V30 4225 H 392.364 -3.55929 -4.4943 0
M  V30 4226 H 390.761 -4.29152 -4.19462 0
M  V30 4227 H 391.831 -3.94091 -2.82525 0
M  V30 4228 N 393.175 1.03435 -1.18907 0
M  V30 4229 C 394.586 1.58195 -0.991523 0
M  V30 4230 C 394.937 1.90801 0.457081 0
M  V30 4231 O 394.062 1.70272 1.33553 0
M  V30 4232 C 394.657 2.87432 -1.79355 0
M  V30 4233 C 393.216 3.38785 -1.64017 0
M  V30 4234 C 392.363 2.12292 -1.78402 0
M  V30 4235 H 395.314 0.860299 -1.33359 0
M  V30 4236 H 395.335 3.58096 -1.28638 0
M  V30 4237 H 394.847 2.63669 -2.84781 0
M  V30 4238 H 392.948 3.67547 -0.611536 0
M  V30 4239 H 393.061 4.12186 -2.44212 0
M  V30 4240 H 391.425 2.23901 -1.2141 0
M  V30 4241 H 392.208 1.90977 -2.85277 0
M  V30 4242 N 394.653 0.992116 1.22453 0
M  V30 4243 C 395.893 0.675727 1.92907 0
M  V30 4244 C 396.257 -0.777762 1.75542 0
M  V30 4245 O 397.458 -1.20553 2.40251 0
M  V30 4246 C 395.729 1.0696 3.4102 0
M  V30 4247 S 397.288 0.871456 4.30059 0
M  V30 4248 H 394.106 0.247089 0.666684 0
M  V30 4249 H 396.708 1.27423 1.48269 0
M  V30 4250 H 395.412 2.12383 3.51172 0
M  V30 4251 H 394.943 0.462858 3.90668 0
M  V30 4252 H 396.958 -0.238436 4.95627 0
M  V30 4253 N 396.131 -1.37776 0.765217 0
M  V30 4254 C 397.38 -1.99092 0.323307 0
M  V30 4255 C 397.693 -1.61434 -1.10446 0
M  V30 4256 O 398.899 -2.15805 -1.64743 0
M  V30 4257 C 397.355 -3.56019 0.527098 0
M  V30 4258 C 396.963 -4.0262 1.96471 0
M  V30 4259 C 398.707 -4.2424 0.148483 0
M  V30 4260 C 396.614 -5.52233 2.11644 0
M  V30 4261 H 395.544 -0.744846 0.117137 0
M  V30 4262 H 398.195 -1.57391 0.943417 0
M  V30 4263 H 396.577 -3.95667 -0.162372 0
M  V30 4264 H 397.751 -3.74234 2.68859 0
M  V30 4265 H 396.066 -3.47161 2.29931 0
M  V30 4266 H 398.663 -5.34159 0.240456 0
M  V30 4267 H 399.006 -4.06446 -0.900422 0
M  V30 4268 H 399.539 -3.89872 0.79025 0
M  V30 4269 H 396.278 -5.74945 3.1483 0
M  V30 4270 H 395.798 -5.82324 1.4373 0
M  V30 4271 H 397.477 -6.18106 1.91193 0
M  V30 4272 N 397.609 -0.515225 -1.4894 0
M  V30 4273 C 398.542 0.302518 -2.26186 0
M  V30 4274 C 399.52 0.957895 -1.31389 0
M  V30 4275 O 400.704 0.985198 -1.60705 0
M  V30 4276 C 397.831 1.42719 -3.07163 0
M  V30 4277 C 396.877 0.884736 -4.17223 0
M  V30 4278 S 397.71 -0.235767 -5.34981 0
M  V30 4279 C 398.866 0.891731 -6.19515 0
M  V30 4280 H 399.099 -0.353076 -2.95196 0
M  V30 4281 H 396.632 -0.300753 -1.51443 0
M  V30 4282 H 398.59 2.07152 -3.54398 0
M  V30 4283 H 397.251 2.05445 -2.37595 0
M  V30 4284 H 396.444 1.72801 -4.73451 0
M  V30 4285 H 396.046 0.317362 -3.72651 0
M  V30 4286 H 398.338 1.79377 -6.53322 0
M  V30 4287 H 399.281 0.367751 -7.07144 0
M  V30 4288 H 399.689 1.16548 -5.52338 0
M  V30 4289 N 399.087 1.5561 -0.249682 0
M  V30 4290 C 400.315 2.03411 0.378352 0
M  V30 4291 C 400.73 1.12886 1.51335 0
M  V30 4292 O 400.087 0.143833 1.81932 0
M  V30 4293 C 400.138 3.50537 0.88351 0
M  V30 4294 O 399.859 4.37614 -0.20626 0
M  V30 4295 C 401.36 4.14113 1.58195 0
M  V30 4296 H 398.58 0.664994 0.08958 0
M  V30 4297 H 401.124 2.01044 -0.374357 0
M  V30 4298 H 399.279 3.5343 1.58639 0
M  V30 4299 H 399.693 5.24199 0.177782 0
M  V30 4300 H 401.167 5.18741 1.8871 0
M  V30 4301 H 401.644 3.60767 2.50487 0
M  V30 4302 H 402.25 4.15151 0.923573 0
M  V30 4303 N 400.565 -0.0233959 1.57583 0
M  V30 4304 C 401.811 -0.714119 1.89811 0
M  V30 4305 C 402.144 -1.74702 0.848113 0
M  V30 4306 O 401.419 -1.94023 -0.136135 0
M  V30 4307 C 401.702 -1.37853 3.32669 0
M  V30 4308 C 401.555 -0.358764 4.48367 0
M  V30 4309 C 402.874 -2.31101 3.7454 0
M  V30 4310 H 399.993 -0.25814 0.690314 0
M  V30 4311 H 402.635 0.0230927 1.89986 0
M  V30 4312 H 400.785 -2.00689 3.3265 0
M  V30 4313 H 402.457 0.268115 4.6052 0
M  V30 4314 H 400.7 0.321387 4.32608 0
M  V30 4315 H 401.371 -0.862242 5.45224 0
M  V30 4316 H 403.847 -1.78304 3.75961 0
M  V30 4317 H 402.723 -2.74567 4.75294 0
M  V30 4318 H 402.984 -3.18018 3.0711 0
M  V30 4319 N 402.043 -1.548 -0.295768 0
M  V30 4320 C 403.292 -1.73538 -1.02798 0
M  V30 4321 C 403.605 -0.531159 -1.8825 0
M  V30 4322 O 404.811 -0.600458 -2.64777 0
M  V30 4323 C 403.267 -3.07051 -1.87744 0
M  V30 4324 C 402.875 -4.34968 -1.07269 0
M  V30 4325 C 404.619 -3.35146 -2.60533 0
M  V30 4326 C 402.526 -5.5953 -1.91521 0
M  V30 4327 H 401.456 -0.646794 -0.387522 0
M  V30 4328 H 404.107 -1.81278 -0.284718 0
M  V30 4329 H 402.489 -2.93289 -2.66078 0
M  V30 4330 H 403.663 -4.5958 -0.335117 0
M  V30 4331 H 401.978 -4.13847 -0.460384 0
M  V30 4332 H 404.575 -4.2541 -3.23929 0
M  V30 4333 H 404.918 -2.54255 -3.29636 0
M  V30 4334 H 405.451 -3.49902 -1.89244 0
M  V30 4335 H 402.19 -6.43103 -1.26878 0
M  V30 4336 H 401.71 -5.39096 -2.62937 0
M  V30 4337 H 403.389 -5.96982 -2.49442 0
M  V30 4338 N 403.521 0.559213 -1.47345 0
M  V30 4339 C 404.451 1.67622 -1.62558 0
M  V30 4340 C 405.432 1.63331 -0.475087 0
M  V30 4341 O 406.617 1.80983 -0.704182 0
M  V30 4342 C 403.747 3.0626 -1.63774 0
M  V30 4343 C 402.701 3.25397 -2.7803 0
M  V30 4344 C 402.027 4.64801 -2.64318 0
M  V30 4345 C 403.327 3.10965 -4.19641 0
M  V30 4346 H 405.021 1.55146 -2.56067 0
M  V30 4347 H 402.567 0.744961 -1.23233 0
M  V30 4348 H 404.52 3.84247 -1.73008 0
M  V30 4349 H 403.244 3.1969 -0.66825 0
M  V30 4350 H 401.903 2.49817 -2.68304 0
M  V30 4351 H 401.551 4.75028 -1.65401 0
M  V30 4352 H 401.251 4.78555 -3.40968 0
M  V30 4353 H 402.775 5.44926 -2.75478 0
M  V30 4354 H 404.189 3.78772 -4.30354 0
M  V30 4355 H 402.586 3.36229 -4.97062 0
M  V30 4356 H 403.656 2.07736 -4.38148 0
M  V30 4357 N 404.999 1.35443 0.805782 0
M  V30 4358 C 406.224 1.32037 1.59941 0
M  V30 4359 C 406.649 -0.0994215 1.87837 0
M  V30 4360 O 406.007 -1.06648 1.46615 0
M  V30 4361 C 406.055 2.13354 2.90711 0
M  V30 4362 O 405.159 1.5148 3.83572 0
M  V30 4363 H 404.5 0.452666 0.485787 0
M  V30 4364 H 407.03 1.78496 1.00002 0
M  V30 4365 H 407.04 2.25338 3.40128 0
M  V30 4366 H 405.715 3.16572 2.69732 0
M  V30 4367 H 404.292 1.4834 3.42125 0
M  V30 4368 N 406.477 -1.02803 1.19454 0
M  V30 4369 C 407.409 -2.11181 0.890807 0
M  V30 4370 C 408.422 -1.6238 -0.116829 0
M  V30 4371 O 409.611 -1.78144 0.112694 0
M  V30 4372 C 406.711 -3.37461 0.311942 0
M  V30 4373 C 405.884 -4.15446 1.36834 0
M  V30 4374 C 404.943 -5.20039 0.802864 0
M  V30 4375 O 403.969 -5.49602 1.48077 0
M  V30 4376 N 405.171 -5.79165 -0.393417 0
M  V30 4377 H 407.936 -2.37827 1.82369 0
M  V30 4378 H 405.497 -1.19101 1.09666 0
M  V30 4379 H 407.489 -4.0462 -0.0802225 0
M  V30 4380 H 406.059 -3.08156 -0.52524 0
M  V30 4381 H 405.279 -3.43423 1.93531 0
M  V30 4382 H 406.567 -4.64335 2.08015 0
M  V30 4383 H 405.965 -5.57466 -0.961658 0
M  V30 4384 H 404.522 -6.47729 -0.727351 0
M  V30 4385 N 407.956 -0.998596 -1.21925 0
M  V30 4386 C 409.202 -0.678667 -1.91107 0
M  V30 4387 C 409.535 0.78791 -1.77498 0
M  V30 4388 O 408.81 1.57043 -1.1475 0
M  V30 4389 C 409.093 -1.09245 -3.43129 0
M  V30 4390 C 408.946 -2.61801 -3.6576 0
M  V30 4391 C 410.265 -0.649984 -4.35274 0
M  V30 4392 H 407.384 -0.248025 -0.694012 0
M  V30 4393 H 410.026 -1.24314 -1.43688 0
M  V30 4394 H 408.176 -0.612171 -3.83647 0
M  V30 4395 H 409.848 -3.17543 -3.34611 0
M  V30 4396 H 408.091 -3.03609 -3.09845 0
M  V30 4397 H 408.762 -2.85804 -4.7225 0
M  V30 4398 H 411.238 -1.0626 -4.02303 0
M  V30 4399 H 410.114 -0.967743 -5.40302 0
M  V30 4400 H 410.375 0.449139 -4.39813 0
M  V30 4401 N 409.434 1.37368 -0.772513 0
M  V30 4402 C 410.659 2.0447 -0.347386 0
M  V30 4403 C 411.084 1.57882 1.0225 0
M  V30 4404 O 410.442 0.73941 1.65537 0
M  V30 4405 C 410.49 3.58369 -0.400479 0
M  V30 4406 O 409.594 4.0803 0.598789 0
M  V30 4407 H 408.935 0.646773 -0.15027 0
M  V30 4408 H 411.465 1.75667 -1.04892 0
M  V30 4409 H 411.475 4.07183 -0.258045 0
M  V30 4410 H 410.15 3.91633 -1.39986 0
M  V30 4411 H 408.727 3.70534 0.419411 0
M  V30 4412 N 410.912 0.523116 1.48665 0
M  V30 4413 C 412.159 -0.0134763 2.02496 0
M  V30 4414 C 412.487 -1.3493 1.40086 0
M  V30 4415 O 411.742 -1.88286 0.533567 0
M  V30 4416 C 412.041 -0.191671 3.56886 0
M  V30 4417 C 411.707 1.06893 4.38046 0
M  V30 4418 C 410.369 1.41443 4.59943 0
M  V30 4419 C 412.721 1.90584 4.85106 0
M  V30 4420 C 410.049 2.59594 5.26144 0
M  V30 4421 C 412.401 3.07907 5.52609 0
M  V30 4422 C 411.065 3.42811 5.72745 0
M  V30 4423 H 410.335 -0.00493133 0.740984 0
M  V30 4424 H 412.982 0.687751 1.78724 0
M  V30 4425 H 411.287 -0.97561 3.79459 0
M  V30 4426 H 412.984 -0.621659 3.96152 0
M  V30 4427 H 409.574 0.789848 4.21259 0
M  V30 4428 H 413.758 1.65203 4.67997 0
M  V30 4429 H 409.014 2.86847 5.39934 0
M  V30 4430 H 413.188 3.73066 5.88043 0
M  V30 4431 H 410.815 4.34462 6.23816 0
M  V30 4432 N 412.39 -1.55475 0.257931 0
M  V30 4433 C 413.636 -2.00237 -0.357338 0
M  V30 4434 C 413.991 -1.14313 -1.54759 0
M  V30 4435 O 413.284 -0.201187 -1.90541 0
M  V30 4436 C 413.478 -3.48183 -0.806433 0
M  V30 4437 C 413.307 -4.48422 0.338758 0
M  V30 4438 C 412.077 -4.98651 0.817011 0
M  V30 4439 C 414.275 -5.00827 1.16949 0
M  V30 4440 N 412.257 -5.82658 1.93346 0
M  V30 4441 C 413.628 -5.82113 2.13413 0
M  V30 4442 C 415.683 -4.83104 1.2048 0
M  V30 4443 C 414.386 -6.47566 3.13131 0
M  V30 4444 C 416.412 -5.49343 2.19034 0
M  V30 4445 C 415.774 -6.30427 3.14232 0
M  V30 4446 H 411.873 -0.776034 -0.0964083 0
M  V30 4447 H 414.457 -1.90995 0.37803 0
M  V30 4448 H 412.628 -3.57801 -1.51107 0
M  V30 4449 H 414.36 -3.79802 -1.39758 0
M  V30 4450 H 411.115 -4.71914 0.39925 0
M  V30 4451 H 411.539 -6.29356 2.49478 0
M  V30 4452 H 416.181 -4.20036 0.482634 0
M  V30 4453 H 413.899 -7.09793 3.8629 0
M  V30 4454 H 417.485 -5.37579 2.22485 0
M  V30 4455 H 416.365 -6.80777 3.89246 0
M  V30 4456 N 413.868 0.0150385 -1.57593 0
M  V30 4457 C 414.798 1.01047 -2.10503 0
M  V30 4458 C 415.779 1.36816 -1.01071 0
M  V30 4459 O 416.964 1.45455 -1.28672 0
M  V30 4460 C 414.094 2.30708 -2.59598 0
M  V30 4461 C 413.048 2.09142 -3.73421 0
M  V30 4462 C 412.374 3.44685 -4.08774 0
M  V30 4463 C 413.674 1.46619 -5.01298 0
M  V30 4464 H 415.368 0.569978 -2.93925 0
M  V30 4465 H 412.914 0.272724 -1.41394 0
M  V30 4466 H 414.867 3.00687 -2.95238 0
M  V30 4467 H 413.591 2.76843 -1.73279 0
M  V30 4468 H 412.25 1.41592 -3.38153 0
M  V30 4469 H 411.898 3.88495 -3.195 0
M  V30 4470 H 411.598 3.31077 -4.8545 0
M  V30 4471 H 413.122 4.16004 -4.4696 0
M  V30 4472 H 414.536 2.06535 -5.34805 0
M  V30 4473 H 412.933 1.43544 -5.82679 0
M  V30 4474 H 414.003 0.433611 -4.82957 0
M  V30 4475 N 415.346 1.54954 0.287554 0
M  V30 4476 C 416.294 1.87606 1.37502 0
M  V30 4477 C 417.288 0.751001 1.51843 0
M  V30 4478 O 418.494 0.935169 1.53801 0
M  V30 4479 H 414.869 0.595231 0.459569 0
M  V30 4480 H 416.84 2.78477 1.07206 0
M  V30 4481 C 415.589 2.15183 2.73115 0
M  V30 4482 H 414.912 3.01234 2.62866 0
M  V30 4483 H 416.352 2.4196 3.48183 0
M  V30 4484 C 414.811 0.954686 3.2309 0
M  V30 4485 O 415.341 0.181949 4.01288 0
M  V30 4486 N 413.547 0.756368 2.80584 0
M  V30 4487 H 413.094 1.38643 2.17108 0
M  V30 4488 H 413.052 -0.0430391 3.14371 0
M  V30 4489 N 416.824 -0.551391 1.4764 0
M  V30 4490 C 418.24 -0.877887 1.33287 0
M  V30 4491 C 418.44 -1.98817 0.327721 0
M  V30 4492 O 417.496 -2.51171 -0.258695 0
M  V30 4493 C 418.809 -1.26563 2.72768 0
M  V30 4494 C 420.357 -1.37673 2.81097 0
M  V30 4495 C 420.832 -1.79799 4.21232 0
M  V30 4496 N 422.323 -1.8694 4.23802 0
M  V30 4497 C 423.058 -2.20876 5.29151 0
M  V30 4498 N 422.554 -2.53386 6.448 0
M  V30 4499 N 424.347 -2.217 5.16532 0
M  V30 4500 H 416.498 0.18153 2.11623 0
M  V30 4501 H 418.761 0.0185514 0.947818 0
M  V30 4502 H 418.467 -0.523591 3.47781 0
M  V30 4503 H 418.341 -2.22052 3.04915 0
M  V30 4504 H 420.728 -2.10956 2.06353 0
M  V30 4505 H 420.809 -0.40357 2.52596 0
M  V30 4506 H 420.453 -1.07083 4.96483 0
M  V30 4507 H 420.383 -2.78128 4.4716 0
M  V30 4508 H 422.874 -1.64179 3.40373 0
M  V30 4509 H 423.187 -2.78325 7.20941 0
M  V30 4510 H 421.532 -2.50953 6.48111 0
M  V30 4511 H 424.723 -1.95745 4.25207 0
M  V30 4512 H 424.896 -2.47818 5.98741 0
M  V30 4513 N 418.302 -1.35869 -0.798587 0
M  V30 4514 C 419.212 -1.31578 -1.94228 0
M  V30 4515 C 420.228 -0.21939 -1.72611 0
M  V30 4516 O 421.404 -0.450167 -1.96305 0
M  V30 4517 C 418.469 -1.09528 -3.28944 0
M  V30 4518 C 417.53 -2.28556 -3.63402 0
M  V30 4519 C 416.763 -2.07549 -4.9169 0
M  V30 4520 O 416.986 -1.046 -5.60727 0
M  V30 4521 O 415.92 -2.95106 -5.24591 0
M  V30 4522 H 419.746 -2.27847 -2.00796 0
M  V30 4523 H 417.331 -1.16322 -0.937526 0
M  V30 4524 H 419.213 -0.991127 -4.09579 0
M  V30 4525 H 417.888 -0.16315 -3.23289 0
M  V30 4526 H 416.795 -2.44538 -2.83112 0
M  V30 4527 H 418.128 -3.20244 -3.73771 0
M  V30 4528 N 419.78 1.02168 -1.19998 0
M  V30 4529 C 421.005 1.79833 -1.03319 0
M  V30 4530 C 421.43 1.83504 0.413281 0
M  V30 4531 O 420.788 1.26635 1.29743 0
M  V30 4532 C 420.836 3.22396 -1.61533 0
M  V30 4533 O 419.94 4.03555 -0.849519 0
M  V30 4534 H 419.281 0.554872 -0.364709 0
M  V30 4535 H 421.811 1.28542 -1.59179 0
M  V30 4536 H 421.821 3.73124 -1.65054 0
M  V30 4537 H 420.496 3.19039 -2.66809 0
M  V30 4538 H 419.073 3.62169 -0.888129 0
M  V30 4539 N 421.258 1.00505 1.21394 0
M  V30 4540 C 422.504 0.688793 1.90745 0
M  V30 4541 C 422.837 -0.778486 1.77914 0
M  V30 4542 O 422.112 -1.56433 1.15581 0
M  V30 4543 C 422.395 1.11063 3.42545 0
M  V30 4544 C 422.248 2.63737 3.64367 0
M  V30 4545 C 423.567 0.673059 4.34923 0
M  V30 4546 H 420.686 0.251702 0.692687 0
M  V30 4547 H 423.328 1.25074 1.43026 0
M  V30 4548 H 421.478 0.632508 3.83317 0
M  V30 4549 H 423.15 3.19313 3.32922 0
M  V30 4550 H 421.393 3.05248 3.08231 0
M  V30 4551 H 422.064 2.88305 4.70727 0
M  V30 4552 H 424.54 1.08392 4.01734 0
M  V30 4553 H 423.416 0.996383 5.39781 0
M  V30 4554 H 423.677 -0.425808 4.40045 0
M  V30 4555 N 422.737 -1.36956 0.779787 0
M  V30 4556 C 424.148 -1.82094 0.412156 0
M  V30 4557 C 424.499 -1.64926 -1.06273 0
M  V30 4558 O 423.624 -1.16483 -1.82375 0
M  V30 4559 C 424.219 -3.3059 0.741319 0
M  V30 4560 C 422.778 -3.73974 0.426641 0
M  V30 4561 C 421.925 -2.59368 0.980987 0
M  V30 4562 H 424.876 -1.25314 0.973758 0
M  V30 4563 H 424.897 -3.80489 0.028887 0
M  V30 4564 H 424.409 -3.43054 1.81482 0
M  V30 4565 H 422.51 -3.67076 -0.639215 0
M  V30 4566 H 422.623 -4.69778 0.940515 0
M  V30 4567 H 420.987 -2.51463 0.404757 0
M  V30 4568 H 421.77 -2.74621 2.06005 0
M  V30 4569 N 424.215 -0.530993 -1.48385 0
M  V30 4570 C 425.178 0.220497 -2.28137 0
M  V30 4571 C 426.178 0.866851 -1.35434 0
M  V30 4572 O 427.368 0.726746 -1.58316 0
M  V30 4573 C 424.5 1.31921 -3.1434 0
M  V30 4574 H 425.693 -0.479714 -2.96038 0
M  V30 4575 H 423.246 -0.286968 -1.53643 0
M  V30 4576 H 423.981 2.05264 -2.51072 0
M  V30 4577 H 423.766 0.86085 -3.82533 0
M  V30 4578 H 425.256 1.84776 -3.74497 0
M  V30 4579 N 425.693 1.55336 -0.266172 0
M  V30 4580 C 427.109 1.59356 0.0882065 0
M  V30 4581 C 427.309 1.2834 1.55342 0
M  V30 4582 O 426.365 1.03996 2.30089 0
M  V30 4583 C 427.678 2.99409 -0.278364 0
M  V30 4584 C 429.226 3.12196 -0.224243 0
M  V30 4585 C 429.701 4.545 -0.565123 0
M  V30 4586 N 431.192 4.60313 -0.51634 0
M  V30 4587 C 431.927 5.68434 -0.753013 0
M  V30 4588 N 431.423 6.84738 -1.05383 0
M  V30 4589 N 433.216 5.57942 -0.682414 0
M  V30 4590 H 425.367 1.73764 -1.22147 0
M  V30 4591 H 427.63 0.809822 -0.492841 0
M  V30 4592 H 427.336 3.2691 -1.29703 0
M  V30 4593 H 427.21 3.75228 0.385186 0
M  V30 4594 H 429.597 2.84464 0.78512 0
M  V30 4595 H 429.678 2.38609 -0.921922 0
M  V30 4596 H 429.322 4.82956 -1.57213 0
M  V30 4597 H 429.252 5.26374 0.154248 0
M  V30 4598 H 431.743 3.7676 -0.29335 0
M  V30 4599 H 432.056 7.63088 -1.22133 0
M  V30 4600 H 430.401 6.86375 -1.09151 0
M  V30 4601 H 433.592 4.65958 -0.44731 0
M  V30 4602 H 433.765 6.4213 -0.870248 0
M  V30 4603 N 427.171 -0.0066808 1.57599 0
M  V30 4604 C 428.399 -0.704087 1.94551 0
M  V30 4605 C 428.814 -1.67677 0.867746 0
M  V30 4606 O 428.171 -1.8185 -0.153925 0
M  V30 4607 C 428.222 -1.44177 3.31505 0
M  V30 4608 O 427.943 -0.508097 4.35144 0
M  V30 4609 C 429.444 -2.23429 3.82876 0
M  V30 4610 H 426.664 -0.196523 0.641576 0
M  V30 4611 H 429.208 0.042453 2.04456 0
M  V30 4612 H 427.363 -2.13999 3.22929 0
M  V30 4613 H 427.777 -1.02782 5.14331 0
M  V30 4614 H 429.251 -2.70552 4.8115 0
M  V30 4615 H 429.728 -3.05818 3.15233 0
M  V30 4616 H 430.334 -1.58636 3.94607 0
M  V30 4617 N 428.649 -1.55105 -0.279332 0
M  V30 4618 C 429.895 -1.75672 -1.01327 0
M  V30 4619 C 430.228 -0.552739 -1.86168 0
M  V30 4620 O 429.503 0.449827 -1.89227 0
M  V30 4621 C 429.786 -3.05825 -1.90114 0
M  V30 4622 C 429.639 -4.36565 -1.08309 0
M  V30 4623 C 430.958 -3.31975 -2.8893 0
M  V30 4624 H 428.077 -0.639149 -0.366957 0
M  V30 4625 H 430.719 -1.87833 -0.286154 0
M  V30 4626 H 428.869 -2.95588 -2.52111 0
M  V30 4627 H 430.541 -4.58751 -0.484314 0
M  V30 4628 H 428.784 -4.32076 -0.386362 0
M  V30 4629 H 429.455 -5.23946 -1.73737 0
M  V30 4630 H 431.931 -3.41963 -2.37067 0
M  V30 4631 H 430.807 -4.2432 -3.48201 0
M  V30 4632 H 431.068 -2.51309 -3.63725 0
M  V30 4633 N 430.127 0.543554 -1.4793 0
M  V30 4634 C 431.374 1.30008 -1.55255 0
M  V30 4635 C 431.702 1.93245 -0.220612 0
M  V30 4636 O 430.957 1.79141 0.787843 0
M  V30 4637 C 431.256 2.42078 -2.62932 0
M  V30 4638 C 430.922 1.96583 -4.0579 0
M  V30 4639 C 429.584 1.83893 -4.44676 0
M  V30 4640 C 431.936 1.62034 -4.95373 0
M  V30 4641 C 429.264 1.34969 -5.70964 0
M  V30 4642 C 431.616 1.14577 -6.22137 0
M  V30 4643 C 430.28 1.00493 -6.59892 0
M  V30 4644 H 429.55 0.475735 -0.568117 0
M  V30 4645 H 432.197 0.608075 -1.81589 0
M  V30 4646 H 430.502 3.16892 -2.30406 0
M  V30 4647 H 432.199 3.00236 -2.65818 0
M  V30 4648 H 428.789 2.07407 -3.75074 0
M  V30 4649 H 432.973 1.70705 -4.66019 0
M  V30 4650 H 428.229 1.2274 -5.98953 0
M  V30 4651 H 432.403 0.869109 -6.90955 0
M  V30 4652 H 430.03 0.623624 -7.57638 0
M  V30 4653 N 431.605 1.3629 0.791371 0
M  V30 4654 C 432.853 1.30154 1.5461 0
M  V30 4655 C 433.174 -0.119409 1.94634 0
M  V30 4656 O 432.444 -1.05924 1.64794 0
M  V30 4657 H 431.024 0.478784 0.573389 0
M  V30 4658 H 433.686 1.70565 0.94306 0
M  V30 4659 H 432.782 1.92762 2.45457 0
M  V30 4660 N 433.083 -1.0153 1.20538 0
M  V30 4661 C 434.329 -1.75408 1.01783 0
M  V30 4662 C 434.662 -1.88943 -0.448814 0
M  V30 4663 O 433.937 -1.4162 -1.33319 0
M  V30 4664 C 434.22 -3.17255 1.70356 0
M  V30 4665 C 434.073 -3.11508 3.24473 0
M  V30 4666 C 435.392 -4.15955 1.43769 0
M  V30 4667 H 432.511 -0.636713 0.371167 0
M  V30 4668 H 435.153 -1.18436 1.4857 0
M  V30 4669 H 433.303 -3.65898 1.30578 0
M  V30 4670 H 434.975 -2.70658 3.73553 0
M  V30 4671 H 433.218 -2.4887 3.55311 0
M  V30 4672 H 433.889 -4.11784 3.67611 0
M  V30 4673 H 436.365 -3.75973 1.7828 0
M  V30 4674 H 435.241 -5.13368 1.94279 0
M  V30 4675 H 435.502 -4.40586 0.365564 0
M  V30 4676 N 434.561 -1.01147 -1.20859 0
M  V30 4677 C 435.789 -0.716911 -1.94082 0
M  V30 4678 C 436.204 0.721568 -1.74467 0
M  V30 4679 O 435.561 1.48889 -1.05539 0
M  V30 4680 C 435.612 -1.03662 -3.46318 0
M  V30 4681 O 435.333 -2.4186 -3.65288 0
M  V30 4682 C 436.834 -0.762386 -4.36695 0
M  V30 4683 H 434.054 -0.26367 -0.617024 0
M  V30 4684 H 436.598 -1.35127 -1.53496 0
M  V30 4685 H 434.753 -0.447757 -3.84804 0
M  V30 4686 H 435.167 -2.53224 -4.59323 0
M  V30 4687 H 436.641 -1.03621 -5.42187 0
M  V30 4688 H 437.118 0.303514 -4.3815 0
M  V30 4689 H 437.724 -1.33316 -4.03865 0
M  V30 4690 N 436.039 1.36541 -0.78704 0
M  V30 4691 C 437.267 2.03561 -0.370199 0
M  V30 4692 C 437.682 1.59347 1.01263 0
M  V30 4693 O 437.039 0.781781 1.64907 0
M  V30 4694 C 437.09 3.59033 -0.421614 0
M  V30 4695 O 436.811 4.01634 -1.7499 0
M  V30 4696 C 438.312 4.433 0.00489763 0
M  V30 4697 H 435.532 0.653346 -0.152904 0
M  V30 4698 H 438.076 1.74566 -1.06522 0
M  V30 4699 H 436.231 3.86746 0.224971 0
M  V30 4700 H 436.645 4.96217 -1.69909 0
M  V30 4701 H 438.119 5.51939 -0.0822184 0
M  V30 4702 H 438.596 4.26285 1.05723 0
M  V30 4703 H 439.202 4.20843 -0.614085 0
M  V30 4704 N 437.518 0.538854 1.48102 0
M  V30 4705 C 438.764 0.00801365 2.02798 0
M  V30 4706 C 439.097 -1.3309 1.41424 0
M  V30 4707 O 438.372 -1.86169 0.563158 0
M  V30 4708 C 438.655 -0.104589 3.59948 0
M  V30 4709 C 438.508 1.26012 4.31788 0
M  V30 4710 C 439.827 -0.827055 4.32259 0
M  V30 4711 H 436.946 0.00438624 0.736987 0
M  V30 4712 H 439.588 0.6976 1.7673 0
M  V30 4713 H 437.738 -0.691893 3.82289 0
M  V30 4714 H 439.41 1.88922 4.2084 0
M  V30 4715 H 437.653 1.83968 3.92859 0
M  V30 4716 H 438.324 1.13424 5.40221 0
M  V30 4717 H 440.8 -0.328578 4.14801 0
M  V30 4718 H 439.676 -0.87476 5.41885 0
M  V30 4719 H 439.937 -1.87927 4.0017 0
M  V30 4720 N 438.996 -1.55193 0.274407 0
M  V30 4721 C 439.926 -2.25471 -0.607032 0
M  V30 4722 C 440.907 -1.24461 -1.15946 0
M  V30 4723 O 442.092 -1.53179 -1.19373 0
M  V30 4724 C 439.222 -2.97526 -1.79153 0
M  V30 4725 C 438.176 -4.05459 -1.37067 0
M  V30 4726 C 437.502 -4.65084 -2.6382 0
M  V30 4727 C 438.802 -5.19691 -0.521389 0
M  V30 4728 H 440.496 -2.99393 -0.0209343 0
M  V30 4729 H 438.042 -1.43997 -0.00862866 0
M  V30 4730 H 439.995 -3.45402 -2.41404 0
M  V30 4731 H 438.719 -2.21138 -2.40344 0
M  V30 4732 H 437.378 -3.58393 -0.771355 0
M  V30 4733 H 437.026 -3.85365 -3.23268 0
M  V30 4734 H 436.726 -5.37961 -2.36372 0
M  V30 4735 H 438.25 -5.15708 -3.26921 0
M  V30 4736 H 439.664 -5.63623 -1.04889 0
M  V30 4737 H 438.061 -5.99126 -0.341825 0
M  V30 4738 H 439.131 -4.82713 0.46 0
M  V30 4739 N 440.474 -0.00167713 -1.576 0
M  V30 4740 C 441.702 0.693759 -1.94922 0
M  V30 4741 C 442.117 1.67215 -0.876626 0
M  V30 4742 O 441.474 1.81929 0.144279 0
M  V30 4743 C 441.525 1.42416 -3.32265 0
M  V30 4744 O 441.246 0.485014 -4.35407 0
M  V30 4745 C 442.747 2.21395 -3.84056 0
M  V30 4746 H 439.967 0.193118 -0.642609 0
M  V30 4747 H 442.511 -0.0532952 -2.04431 0
M  V30 4748 H 440.666 2.12284 -3.24059 0
M  V30 4749 H 441.08 1.00053 -5.14868 0
M  V30 4750 H 442.554 2.67996 -4.82578 0
M  V30 4751 H 443.031 3.04142 -3.16851 0
M  V30 4752 H 443.637 1.56542 -3.95443 0
M  V30 4753 N 441.952 1.55251 0.271103 0
M  V30 4754 C 442.885 1.83191 1.36075 0
M  V30 4755 C 443.863 0.685091 1.47463 0
M  V30 4756 O 445.047 0.928292 1.64058 0
M  V30 4757 C 442.174 1.99521 2.73696 0
M  V30 4758 C 441.22 3.22081 2.79582 0
M  V30 4759 S 442.053 4.79388 2.38636 0
M  V30 4760 C 443.209 4.98693 3.78228 0
M  V30 4761 H 443.442 2.75327 1.12171 0
M  V30 4762 H 440.975 1.47046 0.470833 0
M  V30 4763 H 442.933 2.09613 3.52948 0
M  V30 4764 H 441.594 1.0827 2.9485 0
M  V30 4765 H 440.787 3.304 3.80594 0
M  V30 4766 H 440.389 3.10589 2.08352 0
M  V30 4767 H 442.681 4.84551 4.73515 0
M  V30 4768 H 443.624 6.00738 3.7486 0
M  V30 4769 H 444.032 4.26665 3.69618 0
M  V30 4770 N 443.43 -0.535701 1.48216 0
M  V30 4771 C 444.658 -1.31671 1.59594 0
M  V30 4772 C 445.073 -1.87083 0.254056 0
M  V30 4773 O 444.43 -1.66112 -0.755854 0
M  V30 4774 C 444.481 -2.47158 2.63809 0
M  V30 4775 O 444.202 -1.94032 3.92789 0
M  V30 4776 C 445.703 -3.39062 2.85573 0
M  V30 4777 H 442.923 -0.400623 0.538277 0
M  V30 4778 H 445.467 -0.646827 1.94001 0
M  V30 4779 H 443.622 -3.10043 2.32276 0
M  V30 4780 H 444.036 -2.69585 4.49916 0
M  V30 4781 H 445.51 -4.16459 3.62306 0
M  V30 4782 H 445.987 -3.93941 1.94184 0
M  V30 4783 H 446.593 -2.81975 3.18387 0
M  V30 4784 N 444.908 -1.36708 -0.784132 0
M  V30 4785 C 446.136 -1.34398 -1.57305 0
M  V30 4786 C 446.551 0.0735577 -1.88657 0
M  V30 4787 O 445.908 1.03193 -1.50524 0
M  V30 4788 C 445.959 -2.17053 -2.89085 0
M  V30 4789 O 445.68 -3.53281 -2.59083 0
M  V30 4790 C 447.181 -2.22583 -3.83369 0
M  V30 4791 H 444.401 -0.460819 -0.487736 0
M  V30 4792 H 446.945 -1.79879 -0.972819 0
M  V30 4793 H 445.1 -1.75113 -3.45564 0
M  V30 4794 H 445.514 -3.9647 -3.43383 0
M  V30 4795 H 446.988 -2.84763 -4.72878 0
M  V30 4796 H 447.465 -1.23075 -4.21603 0
M  V30 4797 H 448.071 -2.64781 -3.32823 0
M  V30 4798 N 446.386 1.0089 -1.21074 0
M  V30 4799 C 447.316 2.1145 -0.990523 0
M  V30 4800 C 448.297 1.69897 0.0831699 0
M  V30 4801 O 449.482 1.94052 -0.0758853 0
M  V30 4802 C 446.612 3.42914 -0.550177 0
M  V30 4803 C 445.566 3.98244 -1.56799 0
M  V30 4804 C 444.892 5.25568 -0.984013 0
M  V30 4805 C 446.192 4.30752 -2.95381 0
M  V30 4806 H 447.886 2.3013 -1.91521 0
M  V30 4807 H 445.432 1.10592 -0.92225 0
M  V30 4808 H 447.385 4.19653 -0.383305 0
M  V30 4809 H 446.109 3.24014 0.41015 0
M  V30 4810 H 444.768 3.23621 -1.72236 0
M  V30 4811 H 444.416 5.02998 -0.0155216 0
M  V30 4812 H 444.116 5.63551 -1.66384 0
M  V30 4813 H 445.64 6.04955 -0.828378 0
M  V30 4814 H 447.054 4.98349 -2.8341 0
M  V30 4815 H 445.451 4.79869 -3.60341 0
M  V30 4816 H 446.521 3.39192 -3.46521 0
M  V30 4817 N 447.864 1.01787 1.20321 0
M  V30 4818 C 449.089 0.727009 1.9424 0
M  V30 4819 C 449.514 -0.706179 1.74341 0
M  V30 4820 O 448.872 -1.48609 1.03852 0
M  V30 4821 C 448.92 1.06958 3.44372 0
M  V30 4822 O 448.024 0.181983 4.11998 0
M  V30 4823 H 447.365 0.269626 0.606793 0
M  V30 4824 H 449.895 1.36158 1.52716 0
M  V30 4825 H 449.905 1.02182 3.94997 0
M  V30 4826 H 448.58 2.11378 3.58179 0
M  V30 4827 H 447.157 0.287378 3.71791 0
M  V30 4828 N 449.342 -1.36122 0.79427 0
M  V30 4829 C 450.591 -1.98361 0.365464 0
M  V30 4830 C 450.904 -1.6374 -1.06997 0
M  V30 4831 O 452.11 -2.19251 -1.60129 0
M  V30 4832 C 450.566 -3.54821 0.602496 0
M  V30 4833 C 450.174 -3.98362 2.04967 0
M  V30 4834 C 451.918 -4.2383 0.238437 0
M  V30 4835 C 449.825 -5.47619 2.2331 0
M  V30 4836 H 448.755 -0.742193 0.13291 0
M  V30 4837 H 451.406 -1.55354 0.976589 0
M  V30 4838 H 449.788 -3.95922 -0.078409 0
M  V30 4839 H 450.962 -3.68447 2.76737 0
M  V30 4840 H 449.277 -3.42206 2.37243 0
M  V30 4841 H 451.874 -5.33529 0.353705 0
M  V30 4842 H 452.217 -4.08264 -0.814006 0
M  V30 4843 H 452.75 -3.88108 0.872769 0
M  V30 4844 H 449.489 -5.68138 3.26955 0
M  V30 4845 H 449.009 -5.79145 1.5605 0
M  V30 4846 H 450.688 -6.13911 2.0426 0
M  V30 4847 N 450.82 -0.546701 -1.47814 0
M  V30 4848 C 452.045 -0.021268 -2.07389 0
M  V30 4849 C 452.47 1.25822 -1.39822 0
M  V30 4850 O 451.828 1.75111 -0.46968 0
M  V30 4851 C 451.876 0.168502 -3.60206 0
M  V30 4852 O 450.98 1.23347 -3.93522 0
M  V30 4853 H 450.321 -0.0466108 -0.662362 0
M  V30 4854 H 452.851 -0.759387 -1.89985 0
M  V30 4855 H 452.861 0.385982 -4.0617 0
M  V30 4856 H 451.536 -0.766075 -4.08784 0
M  V30 4857 H 450.113 0.997319 -3.59316 0
M  V30 4858 N 452.299 1.55045 -0.282633 0
M  V30 4859 C 453.262 2.21515 0.588539 0
M  V30 4860 C 454.262 1.19535 1.07554 0
M  V30 4861 O 455.452 1.44391 0.974514 0
M  V30 4862 C 452.584 2.88704 1.8128 0
M  V30 4863 H 453.777 2.99899 0.00806397 0
M  V30 4864 H 451.33 1.56265 -0.0333067 0
M  V30 4865 H 452.065 2.14352 2.43359 0
M  V30 4866 H 451.85 3.63443 1.47144 0
M  V30 4867 H 453.34 3.39465 2.43214 0
M  V30 4868 N 453.777 0.010035 1.57597 0
M  V30 4869 C 455.193 -0.346164 1.55801 0
M  V30 4870 C 455.393 -1.74144 1.01371 0
M  V30 4871 O 454.449 -2.43938 0.651968 0
M  V30 4872 C 455.762 -0.212216 2.9995 0
M  V30 4873 C 457.31 -0.286409 3.11687 0
M  V30 4874 C 457.785 -0.18147 4.5764 0
M  V30 4875 N 459.276 -0.239056 4.62583 0
M  V30 4876 C 460.011 -0.181351 5.73113 0
M  V30 4877 N 459.507 -0.073661 6.92761 0
M  V30 4878 N 461.3 -0.233949 5.61613 0
M  V30 4879 H 453.451 0.922657 1.91313 0
M  V30 4880 H 455.714 0.354595 0.879185 0
M  V30 4881 H 455.42 0.748169 3.4365 0
M  V30 4882 H 455.294 -0.990224 3.6397 0
M  V30 4883 H 457.681 -1.23724 2.67911 0
M  V30 4884 H 457.762 0.521645 2.50425 0
M  V30 4885 H 457.406 0.765863 5.02093 0
M  V30 4886 H 457.336 -1.00814 5.1686 0
M  V30 4887 H 459.827 -0.32321 3.76515 0
M  V30 4888 H 460.14 -0.0358003 7.72792 0
M  V30 4889 H 458.485 -0.0391461 6.94989 0
M  V30 4890 H 461.676 -0.316347 4.6703 0
M  V30 4891 H 461.849 -0.185514 6.47734 0
M  V30 4892 N 455.255 -1.55392 -0.262866 0
M  V30 4893 C 456.203 -1.8977 -1.345 0
M  V30 4894 C 457.197 -0.775063 -1.50629 0
M  V30 4895 O 458.403 -0.959519 -1.52293 0
M  V30 4896 H 454.778 -0.602467 -0.450041 0
M  V30 4897 H 456.749 -2.80147 -1.02762 0
M  V30 4898 C 455.498 -2.19501 -2.69657 0
M  V30 4899 H 454.821 -3.05378 -2.5804 0
M  V30 4900 H 456.261 -2.47469 -3.44289 0
M  V30 4901 C 454.72 -1.00597 -3.21531 0
M  V30 4902 O 455.25 -0.245768 -4.00947 0
M  V30 4903 N 453.456 -0.800911 -2.79345 0
M  V30 4904 H 453.003 -1.42079 -2.14875 0
M  V30 4905 H 452.961 -0.00697996 -3.14399 0
M  V30 4906 N 456.733 0.527833 -1.48498 0
M  V30 4907 C 457.958 1.313 -1.60546 0
M  V30 4908 C 458.383 1.86199 -0.26672 0
M  V30 4909 O 457.741 1.64513 0.761918 0
M  V30 4910 C 457.789 2.43818 -2.65678 0
M  V30 4911 O 456.893 3.46916 -2.22987 0
M  V30 4912 H 456.234 0.388784 -0.538277 0
M  V30 4913 H 458.764 0.634896 -1.945 0
M  V30 4914 H 458.774 2.89973 -2.87018 0
M  V30 4915 H 457.449 2.03222 -3.62869 0
M  V30 4916 H 456.026 3.06864 -2.11869 0
M  V30 4917 N 458.211 1.37122 0.776871 0
M  V30 4918 C 459.141 1.35164 1.90402 0
M  V30 4919 C 460.122 0.221069 1.68657 0
M  V30 4920 O 461.307 0.420642 1.8959 0
M  V30 4921 C 458.437 1.15274 3.27611 0
M  V30 4922 C 457.391 2.25289 3.63908 0
M  V30 4923 C 456.717 1.90527 4.99603 0
M  V30 4924 C 458.017 3.67446 3.71188 0
M  V30 4925 H 459.711 2.29482 1.92297 0
M  V30 4926 H 457.257 1.10465 0.923773 0
M  V30 4927 H 459.21 1.12536 4.06096 0
M  V30 4928 H 457.934 0.174102 3.26136 0
M  V30 4929 H 456.593 2.27174 2.87728 0
M  V30 4930 H 456.241 0.91206 4.94662 0
M  V30 4931 H 455.941 2.64193 5.24858 0
M  V30 4932 H 457.465 1.89367 5.80493 0
M  V30 4933 H 458.879 3.67719 4.39836 0
M  V30 4934 H 457.276 4.40123 4.07936 0
M  V30 4935 H 458.346 4.01443 2.71977 0
M  V30 4936 N 459.689 -1.00246 1.21608 0
M  V30 4937 C 461.1 -1.55511 1.03312 0
M  V30 4938 C 461.451 -1.91946 -0.406332 0
M  V30 4939 O 460.576 -1.73753 -1.28992 0
M  V30 4940 C 461.171 -2.82576 1.86913 0
M  V30 4941 C 459.73 -3.34318 1.72941 0
M  V30 4942 C 458.877 -2.07487 1.83968 0
M  V30 4943 H 461.828 -0.824638 1.35593 0
M  V30 4944 H 461.849 -3.54559 1.38087 0
M  V30 4945 H 461.361 -2.56026 2.91672 0
M  V30 4946 H 459.462 -3.65797 0.70877 0
M  V30 4947 H 459.575 -4.05566 2.55055 0
M  V30 4948 H 457.939 -2.20603 1.27304 0
M  V30 4949 H 458.722 -1.83346 2.9024 0
M  V30 4950 N 461.167 -1.02423 -1.1978 0
M  V30 4951 C 462.114 -0.601023 -2.22837 0
M  V30 4952 C 463.084 0.382801 -1.61629 0
M  V30 4953 O 464.269 0.280514 -1.88727 0
M  V30 4954 C 461.409 0.0467755 -3.45068 0
M  V30 4955 C 460.522 -0.98253 -4.20678 0
M  V30 4956 C 459.657 -0.304982 -5.30324 0
M  V30 4957 C 458.696 -1.32052 -5.97686 0
M  V30 4958 N 457.833 -0.669105 -6.98904 0
M  V30 4959 H 462.673 -1.48444 -2.58396 0
M  V30 4960 H 460.21 -0.742936 -1.2696 0
M  V30 4961 H 462.168 0.439556 -4.14878 0
M  V30 4962 H 460.798 0.893796 -3.10179 0
M  V30 4963 H 459.85 -1.49341 -3.49859 0
M  V30 4964 H 461.162 -1.75455 -4.66923 0
M  V30 4965 H 460.316 0.142893 -6.06532 0
M  V30 4966 H 459.055 0.499283 -4.85138 0
M  V30 4967 H 458.06 -1.7787 -5.20233 0
M  V30 4968 H 459.285 -2.1262 -6.44957 0
M  V30 4969 H 457.231 0.115152 -6.55899 0
M  V30 4970 H 457.148 -1.37908 -7.43315 0
M  V30 4971 H 458.416 -0.245076 -7.79115 0
M  V30 4972 N 462.645 1.35699 -0.801477 0
M  V30 4973 C 463.891 1.99208 -0.380022 0
M  V30 4974 C 464.224 1.63445 1.04878 0
M  V30 4975 O 463.499 0.895223 1.72673 0
M  V30 4976 C 463.782 3.55755 -0.557708 0
M  V30 4977 C 463.635 4.01332 -2.03107 0
M  V30 4978 C 464.954 4.40096 0.0197968 0
M  V30 4979 H 462.073 0.723667 -0.139552 0
M  V30 4980 H 464.715 1.60928 -1.01006 0
M  V30 4981 H 462.865 3.88494 -0.0213741 0
M  V30 4982 H 464.537 3.79026 -2.62939 0
M  V30 4983 H 462.78 3.52429 -2.52936 0
M  V30 4984 H 463.451 5.10234 -2.1063 0
M  V30 4985 H 465.927 4.13786 -0.438179 0
M  V30 4986 H 464.803 5.48735 -0.134477 0
M  V30 4987 H 465.064 4.2786 1.11303 0
M  V30 4988 N 464.123 0.554532 1.47522 0
M  V30 4989 C 465.086 -0.184174 2.28459 0
M  V30 4990 C 466.086 -0.845195 1.36796 0
M  V30 4991 O 467.276 -0.701467 1.59452 0
M  V30 4992 C 464.408 -1.26903 3.16399 0
M  V30 4993 H 465.601 0.526751 2.95238 0
M  V30 4994 H 463.154 0.311375 1.53167 0
M  V30 4995 H 463.889 -2.01244 2.54306 0
M  V30 4996 H 463.674 -0.799883 3.83854 0
M  V30 4997 H 465.164 -1.78794 3.77389 0
M  V30 4998 N 465.601 -1.54893 0.290851 0
M  V30 4999 C 466.831 -2.04047 -0.323818 0
M  V30 5000 C 467.239 -1.16809 -1.48837 0
M  V30 5001 O 466.582 -0.184145 -1.82775 0
M  V30 5002 C 466.644 -3.49248 -0.852395 0
M  V30 5003 C 466.308 -4.56623 0.185557 0
M  V30 5004 C 467.305 -5.09985 1.01053 0
M  V30 5005 C 464.99 -5.01252 0.324332 0
M  V30 5006 C 466.984 -6.06507 1.96031 0
M  V30 5007 C 464.671 -5.97596 1.27757 0
M  V30 5008 C 465.669 -6.50107 2.09405 0
M  V30 5009 O 465.357 -7.44565 3.03114 0
M  V30 5010 H 465.089 -0.671735 -0.0758129 0
M  V30 5011 H 467.643 -2.00947 0.425393 0
M  V30 5012 H 465.873 -3.49639 -1.65195 0
M  V30 5013 H 467.562 -3.81654 -1.38185 0
M  V30 5014 H 468.328 -4.76307 0.914129 0
M  V30 5015 H 464.207 -4.60015 -0.301213 0
M  V30 5016 H 467.751 -6.47418 2.598 0
M  V30 5017 H 463.648 -6.30691 1.37473 0
M  V30 5018 H 464.416 -7.62334 2.97976 0
M  V30 5019 N 467.08 -0.0183926 -1.57589 0
M  V30 5020 C 468.043 0.951986 -2.08494 0
M  V30 5021 C 469.043 1.26092 -0.997874 0
M  V30 5022 O 470.233 1.20304 -1.25987 0
M  V30 5023 C 467.365 2.27165 -2.54182 0
M  V30 5024 H 468.558 0.511307 -2.95509 0
M  V30 5025 H 466.111 0.229444 -1.54607 0
M  V30 5026 H 466.846 2.75884 -1.70465 0
M  V30 5027 H 466.631 2.06057 -3.33591 0
M  V30 5028 H 468.121 2.9674 -2.93828 0
M  V30 5029 N 468.558 1.5553 0.254621 0
M  V30 5030 C 469.786 1.81046 1.00149 0
M  V30 5031 C 470.201 0.593047 1.79244 0
M  V30 5032 O 469.558 -0.438196 1.77161 0
M  V30 5033 C 469.609 3.04684 1.94551 0
M  V30 5034 O 469.33 4.21725 1.18658 0
M  V30 5035 C 470.831 3.42943 2.80901 0
M  V30 5036 H 468.051 0.602653 0.295044 0
M  V30 5037 H 470.595 2.02576 0.279842 0
M  V30 5038 H 468.75 2.85226 2.62154 0
M  V30 5039 H 469.164 4.91746 1.82445 0
M  V30 5040 H 470.638 4.32576 3.42902 0
M  V30 5041 H 471.115 2.63176 3.51617 0
M  V30 5042 H 471.721 3.64724 2.18762 0
M  V30 5043 N 470.036 -0.519951 1.48776 0
M  V30 5044 C 470.999 -1.60574 1.6355 0
M  V30 5045 C 471.999 -1.52557 0.508234 0
M  V30 5046 O 473.189 -1.56047 0.774262 0
M  V30 5047 C 470.321 -3.00211 1.61512 0
M  V30 5048 H 471.514 -1.4881 2.60376 0
M  V30 5049 H 469.067 -0.742772 1.37523 0
M  V30 5050 H 469.802 -3.17471 0.662009 0
M  V30 5051 H 469.587 -3.07439 2.43359 0
M  V30 5052 H 471.077 -3.79134 1.75064 0
M  V30 5053 N 471.514 -1.37532 -0.769588 0
M  V30 5054 C 472.447 -1.27839 -1.8903 0
M  V30 5055 C 473.425 -0.158504 -1.61826 0
M  V30 5056 O 474.609 -0.333086 -1.85534 0
M  V30 5057 C 471.736 -0.977072 -3.24301 0
M  V30 5058 C 470.782 -2.11414 -3.70414 0
M  V30 5059 S 471.615 -3.73409 -3.83831 0
M  V30 5060 C 472.771 -3.45432 -5.21946 0
M  V30 5061 H 473.004 -2.22694 -1.96963 0
M  V30 5062 H 470.537 -1.2318 -0.930914 0
M  V30 5063 H 472.495 -0.810049 -4.02428 0
M  V30 5064 H 471.156 -0.0459701 -3.14066 0
M  V30 5065 H 470.349 -1.85837 -4.68488 0
M  V30 5066 H 469.951 -2.24141 -2.99394 0
M  V30 5067 H 472.243 -3.00554 -6.07185 0
M  V30 5068 H 473.186 -4.42841 -5.52537 0
M  V30 5069 H 473.594 -2.80311 -4.89986 0
M  V30 5070 N 472.992 0.995999 -1.22138 0
M  V30 5071 C 474.269 1.70834 -0.952642 0
M  V30 5072 C 474.649 2.04257 0.533119 0
M  V30 5073 O 473.997 1.72343 1.50034 0
M  V30 5074 C 474.207 2.96119 -1.84701 0
M  V30 5075 C 475.555 3.68962 -2.10124 0
M  V30 5076 O 476.579 3.0612 -1.82124 0
M  V30 5077 O 475.438 4.82017 -2.57531 0
M  V30 5078 H 472.532 0.745498 -0.357997 0
M  V30 5079 H 475.078 1.05262 -1.33109 0
M  V30 5080 H 473.85 2.67898 -2.85213 0
M  V30 5081 H 473.473 3.6943 -1.46995 0
M  V30 5082 N 474.47 1.03057 1.19235 0
M  V30 5083 C 475.716 0.738841 1.89506 0
M  V30 5084 C 476.071 -0.724807 1.78225 0
M  V30 5085 O 475.364 -1.52118 1.16494 0
M  V30 5086 C 475.558 1.1268 3.39172 0
M  V30 5087 C 475.387 2.62662 3.65019 0
M  V30 5088 C 474.157 3.29658 3.82954 0
M  V30 5089 C 476.355 3.60873 3.66436 0
M  V30 5090 N 474.337 4.68726 3.96446 0
M  V30 5091 C 475.708 4.85566 3.8552 0
M  V30 5092 C 477.763 3.54647 3.49471 0
M  V30 5093 C 476.466 6.04783 3.89397 0
M  V30 5094 C 478.492 4.73281 3.54625 0
M  V30 5095 C 477.854 5.96789 3.74196 0
M  V30 5096 H 473.953 0.322256 0.712513 0
M  V30 5097 H 476.537 1.31822 1.43287 0
M  V30 5098 H 474.708 0.575612 3.84111 0
M  V30 5099 H 476.44 0.787145 3.96971 0
M  V30 5100 H 473.195 2.8007 3.81913 0
M  V30 5101 H 473.619 5.40971 4.07037 0
M  V30 5102 H 478.261 2.60143 3.33295 0
M  V30 5103 H 475.979 6.99654 4.04364 0
M  V30 5104 H 479.565 4.70094 3.42787 0
M  V30 5105 H 478.445 6.87051 3.78061 0
M  V30 5106 N 475.948 -1.35272 0.808662 0
M  V30 5107 C 477.195 -1.98709 0.390003 0
M  V30 5108 C 477.523 -1.64148 -1.04335 0
M  V30 5109 O 476.778 -0.897797 -1.73891 0
M  V30 5110 C 477.077 -3.53556 0.522798 0
M  V30 5111 C 476.743 -4.0799 1.91977 0
M  V30 5112 C 475.405 -4.22568 2.30195 0
M  V30 5113 C 477.757 -4.37442 2.83361 0
M  V30 5114 C 475.085 -4.63918 3.59162 0
M  V30 5115 C 477.437 -4.80232 4.11776 0
M  V30 5116 C 476.101 -4.93016 4.49991 0
M  V30 5117 H 475.371 -0.727127 0.142712 0
M  V30 5118 H 478.018 -1.6145 1.02985 0
M  V30 5119 H 476.323 -3.91287 -0.200494 0
M  V30 5120 H 478.02 -4.00598 0.179608 0
M  V30 5121 H 474.61 -3.97096 1.61284 0
M  V30 5122 H 478.794 -4.25731 2.55083 0
M  V30 5123 H 474.05 -4.72005 3.88615 0
M  V30 5124 H 478.224 -5.01982 4.82687 0
M  V30 5125 H 475.851 -5.24814 5.49976 0
M  V30 5126 N 477.426 -0.562348 -1.47226 0
M  V30 5127 C 478.675 -0.038041 -2.01664 0
M  V30 5128 C 478.988 1.32199 -1.44162 0
M  V30 5129 O 480.194 1.9365 -1.90294 0
M  V30 5130 C 478.65 -0.0174958 -3.59896 0
M  V30 5131 C 478.258 -1.3746 -4.2639 0
M  V30 5132 C 480.002 0.453934 -4.22066 0
M  V30 5133 C 477.909 -1.31289 -5.76643 0
M  V30 5134 H 476.839 -0.0104511 -0.753928 0
M  V30 5135 H 479.49 -0.710966 -1.69167 0
M  V30 5136 H 477.872 0.721182 -3.89378 0
M  V30 5137 H 479.046 -2.1314 -4.08544 0
M  V30 5138 H 477.361 -1.78438 -3.7623 0
M  V30 5139 H 479.958 0.518584 -5.32179 0
M  V30 5140 H 480.301 1.46706 -3.89594 0
M  V30 5141 H 480.834 -0.230044 -3.97134 0
M  V30 5142 H 477.573 -2.30217 -6.13743 0
M  V30 5143 H 477.093 -0.597973 -5.96812 0
M  V30 5144 H 478.772 -1.01713 -6.38955 0
M  V30 5145 N 478.904 1.54736 -0.299062 0
M  V30 5146 C 479.867 2.22127 0.565012 0
M  V30 5147 C 480.867 1.20669 1.06281 0
M  V30 5148 O 482.057 1.45417 0.959145 0
M  V30 5149 C 479.189 2.90611 1.78208 0
M  V30 5150 H 480.382 2.99891 -0.0237448 0
M  V30 5151 H 477.935 1.5622 -0.0498788 0
M  V30 5152 H 478.67 2.16921 2.41072 0
M  V30 5153 H 478.455 3.64984 1.43281 0
M  V30 5154 H 479.945 3.42026 2.396 0
M  V30 5155 N 480.382 0.0267497 1.57577 0
M  V30 5156 C 481.628 -0.653371 1.91987 0
M  V30 5157 C 481.961 -1.71915 0.903263 0
M  V30 5158 O 481.236 -1.94358 -0.0743387 0
M  V30 5159 C 481.519 -1.272 3.36886 0
M  V30 5160 C 481.372 -0.215938 4.49281 0
M  V30 5161 C 482.691 -2.19069 3.81703 0
M  V30 5162 H 479.81 -0.236047 0.698177 0
M  V30 5163 H 482.452 0.0835236 1.89816 0
M  V30 5164 H 480.602 -1.90005 3.38866 0
M  V30 5165 H 482.274 0.41449 4.59434 0
M  V30 5166 H 480.517 0.458855 4.31366 0
M  V30 5167 H 481.188 -0.688347 5.47691 0
M  V30 5168 H 483.664 -1.66253 3.81444 0
M  V30 5169 H 482.54 -2.59307 4.83788 0
M  V30 5170 H 482.801 -3.08087 3.17072 0
M  V30 5171 N 481.861 -1.55662 -0.24637 0
M  V30 5172 C 483.101 -1.79283 -0.981685 0
M  V30 5173 C 483.465 -0.596356 -1.82504 0
M  V30 5174 O 484.666 -0.711342 -2.59217 0
M  V30 5175 C 482.937 -3.07648 -1.819 0
M  V30 5176 S 484.496 -3.52491 -2.61334 0
M  V30 5177 H 481.314 -0.629676 -0.330196 0
M  V30 5178 H 483.916 -1.93901 -0.249498 0
M  V30 5179 H 482.62 -3.92794 -1.18915 0
M  V30 5180 H 482.151 -2.95768 -2.59393 0
M  V30 5181 H 484.166 -3.13866 -3.84321 0
M  V30 5182 N 483.339 0.512053 -1.4905 0
M  V30 5183 C 484.569 1.28928 -1.61434 0
M  V30 5184 C 484.977 1.87107 -0.280647 0
M  V30 5185 O 484.32 1.68024 0.742537 0
M  V30 5186 C 484.382 2.466 -2.61588 0
M  V30 5187 C 484.046 2.09375 -4.06216 0
M  V30 5188 C 485.043 1.63994 -4.93358 0
M  V30 5189 C 482.728 2.19348 -4.51876 0
M  V30 5190 C 484.722 1.29076 -6.24194 0
M  V30 5191 C 482.409 1.84041 -5.82728 0
M  V30 5192 C 483.407 1.38978 -6.68711 0
M  V30 5193 O 483.095 1.04144 -7.97126 0
M  V30 5194 H 482.827 0.397668 -0.546659 0
M  V30 5195 H 485.381 0.622507 -1.9574 0
M  V30 5196 H 483.611 3.16318 -2.22441 0
M  V30 5197 H 485.3 3.08642 -2.63619 0
M  V30 5198 H 486.066 1.55744 -4.59313 0
M  V30 5199 H 481.945 2.53376 -3.85125 0
M  V30 5200 H 485.489 0.938303 -6.91261 0
M  V30 5201 H 481.386 1.91938 -6.16304 0
M  V30 5202 H 482.154 1.17387 -8.10039 0
M  V30 5203 N 484.817 1.37938 0.762283 0
M  V30 5204 C 485.78 1.34279 1.85747 0
M  V30 5205 C 486.78 0.244969 1.58923 0
M  V30 5206 O 487.97 0.501365 1.66829 0
M  V30 5207 C 485.102 1.08833 3.23061 0
M  V30 5208 H 486.295 2.31705 1.90401 0
M  V30 5209 H 483.848 1.23105 0.963057 0
M  V30 5210 H 484.583 0.119767 3.24079 0
M  V30 5211 H 484.368 1.88306 3.43923 0
M  V30 5212 H 485.858 1.08946 4.03138 0
M  V30 5213 N 486.295 -0.989507 1.22664 0
M  V30 5214 C 487.542 -1.72953 1.05325 0
M  V30 5215 C 487.87 -1.90104 -0.411168 0
M  V30 5216 O 487.125 -1.44386 -1.32103 0
M  V30 5217 C 487.424 -3.13649 1.71345 0
M  V30 5218 C 487.09 -3.16403 3.21248 0
M  V30 5219 C 485.752 -3.16862 3.62149 0
M  V30 5220 C 488.104 -3.12428 4.17179 0
M  V30 5221 C 485.432 -3.11051 4.97458 0
M  V30 5222 C 487.784 -3.08159 5.52468 0
M  V30 5223 C 486.448 -3.06935 5.92746 0
M  V30 5224 H 485.718 -0.632881 0.385412 0
M  V30 5225 H 488.365 -1.15863 1.52473 0
M  V30 5226 H 486.67 -3.74069 1.16532 0
M  V30 5227 H 488.367 -3.69658 1.55416 0
M  V30 5228 H 484.957 -3.16798 2.88682 0
M  V30 5229 H 489.141 -3.11221 3.86595 0
M  V30 5230 H 484.397 -3.0845 5.27891 0
M  V30 5231 H 488.571 -3.04039 6.26525 0
M  V30 5232 H 486.198 -3.02186 6.97558 0
M  V30 5233 N 487.773 -1.03688 -1.18687 0
M  V30 5234 C 489.019 -0.739123 -1.88851 0
M  V30 5235 C 489.352 0.731042 -1.79915 0
M  V30 5236 O 488.627 1.53313 -1.19688 0
M  V30 5237 C 488.91 -1.20106 -3.3948 0
M  V30 5238 C 488.763 -2.73304 -3.57246 0
M  V30 5239 C 490.082 -0.788134 -4.32986 0
M  V30 5240 H 487.201 -0.269978 -0.68577 0
M  V30 5241 H 489.843 -1.28822 -1.3966 0
M  V30 5242 H 487.993 -0.733915 -3.81505 0
M  V30 5243 H 489.665 -3.28027 -3.24339 0
M  V30 5244 H 487.908 -3.13313 -3.00029 0
M  V30 5245 H 488.579 -3.00684 -4.62918 0
M  V30 5246 H 491.055 -1.19005 -3.98719 0
M  V30 5247 H 489.931 -1.13915 -5.36949 0
M  V30 5248 H 490.192 0.308988 -4.41019 0
M  V30 5249 N 489.251 1.34841 -0.815825 0
M  V30 5250 C 490.498 1.98499 -0.400535 0
M  V30 5251 C 490.826 1.64699 1.03463 0
M  V30 5252 O 490.081 0.907006 1.73412 0
M  V30 5253 C 490.38 3.53273 -0.541541 0
M  V30 5254 C 490.046 4.06966 -1.94138 0
M  V30 5255 C 488.708 4.21341 -2.32433 0
M  V30 5256 C 491.06 4.35933 -2.85677 0
M  V30 5257 C 488.388 4.62007 -3.61617 0
M  V30 5258 C 490.74 4.78042 -4.14317 0
M  V30 5259 C 489.404 4.90622 -4.52599 0
M  V30 5260 H 488.674 0.72636 -0.146566 0
M  V30 5261 H 491.321 1.60902 -1.0384 0
M  V30 5262 H 489.626 3.91387 0.179741 0
M  V30 5263 H 491.323 4.00497 -0.20085 0
M  V30 5264 H 487.913 3.96235 -1.63388 0
M  V30 5265 H 492.097 4.24372 -2.57337 0
M  V30 5266 H 487.353 4.69937 -3.91113 0
M  V30 5267 H 491.527 4.99415 -4.85342 0
M  V30 5268 H 489.154 5.2189 -5.52752 0
M  V30 5269 N 490.729 0.570148 1.46925 0
M  V30 5270 C 491.954 0.0542592 2.07329 0
M  V30 5271 C 492.379 -1.23582 1.41806 0
M  V30 5272 O 491.737 -1.74341 0.497479 0
M  V30 5273 C 491.785 -0.111175 3.60429 0
M  V30 5274 O 490.889 -1.17071 3.95434 0
M  V30 5275 H 490.23 0.0571425 0.661537 0
M  V30 5276 H 492.76 0.789516 1.88753 0
M  V30 5277 H 492.77 -0.321315 4.06733 0
M  V30 5278 H 491.445 0.831012 4.07513 0
M  V30 5279 H 490.022 -0.940029 3.60857 0
M  V30 5280 N 492.207 -1.54576 0.307264 0
M  V30 5281 C 493.17 -2.22423 -0.553224 0
M  V30 5282 C 494.17 -1.21231 -1.05639 0
M  V30 5283 O 495.36 -1.45923 -0.951419 0
M  V30 5284 C 492.492 -2.91552 -1.76664 0
M  V30 5285 H 493.685 -2.99874 0.0396484 0
M  V30 5286 H 491.238 -1.56192 0.0581629 0
M  V30 5287 H 491.973 -2.18196 -2.39918 0
M  V30 5288 H 491.758 -3.65738 -1.41343 0
M  V30 5289 H 493.248 -3.43292 -2.37783 0
M  V30 5290 N 493.685 -0.035106 -1.57561 0
M  V30 5291 C 494.615 0.942993 -2.13612 0
M  V30 5292 C 495.596 1.33531 -1.05373 0
M  V30 5293 O 496.781 1.41287 -1.33235 0
M  V30 5294 C 493.911 2.22332 -2.66807 0
M  V30 5295 C 492.865 1.97156 -3.79886 0
M  V30 5296 C 492.191 3.31506 -4.19533 0
M  V30 5297 C 493.491 1.30596 -5.05709 0
M  V30 5298 H 495.185 0.476179 -2.95589 0
M  V30 5299 H 492.731 0.227602 -1.4219 0
M  V30 5300 H 494.684 2.91142 -3.04654 0
M  V30 5301 H 493.408 2.7119 -1.81999 0
M  V30 5302 H 492.067 1.30763 -3.42486 0
M  V30 5303 H 491.715 3.78134 -3.31698 0
M  V30 5304 H 491.415 3.15465 -4.95738 0
M  V30 5305 H 492.939 4.01574 -4.59968 0
M  V30 5306 H 494.353 1.89416 -5.41105 0
M  V30 5307 H 492.75 1.24934 -5.86951 0
M  V30 5308 H 493.82 0.279742 -4.84092 0
M  V30 5309 N 495.163 1.55791 0.238111 0
M  V30 5310 C 496.412 1.77234 0.962868 0
M  V30 5311 C 496.725 0.600661 1.86149 0
M  V30 5312 O 497.931 0.698315 2.62366 0
M  V30 5313 C 496.387 3.13808 1.76218 0
M  V30 5314 C 495.995 4.3865 0.910518 0
M  V30 5315 C 497.739 3.44585 2.47914 0
M  V30 5316 C 495.646 5.66252 1.70623 0
M  V30 5317 H 494.576 0.660731 0.36325 0
M  V30 5318 H 497.227 1.8221 0.217242 0
M  V30 5319 H 495.609 3.02963 2.55009 0
M  V30 5320 H 496.783 4.60507 0.164316 0
M  V30 5321 H 495.098 4.15271 0.30647 0
M  V30 5322 H 497.695 4.3714 3.07917 0
M  V30 5323 H 498.038 2.66314 3.19973 0
M  V30 5324 H 498.571 3.56685 1.76127 0
M  V30 5325 H 495.31 6.47369 1.02923 0
M  V30 5326 H 494.83 5.48483 2.42748 0
M  V30 5327 H 496.509 6.05829 2.27114 0
M  V30 5328 N 496.642 -0.504142 1.49319 0
M  V30 5329 C 497.552 -1.63248 1.68486 0
M  V30 5330 C 498.568 -1.64488 0.567432 0
M  V30 5331 O 499.744 -1.82966 0.841749 0
M  V30 5332 C 496.809 -2.99627 1.74426 0
M  V30 5333 C 495.87 -3.09039 2.97982 0
M  V30 5334 C 495.103 -4.38913 3.0363 0
M  V30 5335 O 495.326 -5.27528 2.16958 0
M  V30 5336 O 494.26 -4.53231 3.96062 0
M  V30 5337 H 498.086 -1.50008 2.64067 0
M  V30 5338 H 495.671 -0.680086 1.33023 0
M  V30 5339 H 497.553 -3.80689 1.80705 0
M  V30 5340 H 496.228 -3.13136 0.820233 0
M  V30 5341 H 495.135 -2.27177 2.97223 0
M  V30 5342 H 496.468 -3.00456 3.89855 0
M  V30 5343 N 498.12 -1.38341 -0.754957 0
M  V30 5344 C 499.367 -1.34473 -1.51404 0
M  V30 5345 C 499.695 0.0656458 -1.94389 0
M  V30 5346 O 498.95 1.04244 -1.65625 0
M  V30 5347 C 499.249 -2.2452 -2.78075 0
M  V30 5348 C 498.915 -3.72512 -2.54059 0
M  V30 5349 C 497.577 -4.1284 -2.47218 0
M  V30 5350 C 499.929 -4.66197 -2.33044 0
M  V30 5351 C 497.257 -5.44945 -2.17376 0
M  V30 5352 C 499.609 -5.98558 -2.04723 0
M  V30 5353 C 498.273 -6.37972 -1.96337 0
M  V30 5354 H 497.543 -0.492072 -0.554027 0
M  V30 5355 H 500.19 -1.70687 -0.868223 0
M  V30 5356 H 498.495 -1.81357 -3.473 0
M  V30 5357 H 500.192 -2.18832 -3.36026 0
M  V30 5358 H 496.782 -3.40538 -2.60253 0
M  V30 5359 H 500.966 -4.35888 -2.37309 0
M  V30 5360 H 496.222 -5.74426 -2.09391 0
M  V30 5361 H 500.396 -6.70693 -1.87465 0
M  V30 5362 H 498.023 -7.40258 -1.72978 0
M  V30 5363 N 499.598 0.982988 -1.23187 0
M  V30 5364 C 500.561 2.05649 -1.01198 0
M  V30 5365 C 501.561 1.6078 0.0252464 0
M  V30 5366 O 502.751 1.72878 -0.214243 0
M  V30 5367 C 499.883 3.36744 -0.530656 0
M  V30 5368 H 501.076 2.2659 -1.96461 0
M  V30 5369 H 498.629 1.15602 -1.05195 0
M  V30 5370 H 499.364 3.21492 0.425873 0
M  V30 5371 H 499.149 3.7065 -1.2791 0
M  V30 5372 H 500.639 4.15705 -0.397366 0
M  V30 5373 N 501.076 1.04316 1.18135 0
M  V30 5374 C 502.304 0.768117 1.92113 0
M  V30 5375 C 502.719 -0.675057 1.76319 0
M  V30 5376 O 502.076 -1.46038 1.09449 0
M  V30 5377 C 502.127 1.12808 3.43448 0
M  V30 5378 O 501.848 2.5146 3.58747 0
M  V30 5379 C 503.349 0.8779 4.3452 0
M  V30 5380 H 500.569 0.279937 0.609817 0
M  V30 5381 H 503.113 1.39149 1.49859 0
M  V30 5382 H 501.268 0.549623 3.83481 0
M  V30 5383 H 501.682 2.65313 4.52448 0
M  V30 5384 H 503.156 1.17959 5.39249 0
M  V30 5385 H 503.633 -0.187239 4.38801 0
M  V30 5386 H 504.239 1.43977 4.00188 0
M  V30 5387 N 502.554 -1.34406 0.822964 0
M  V30 5388 C 503.8 -1.98578 0.411666 0
M  V30 5389 C 504.133 -1.65093 -1.02264 0
M  V30 5390 O 503.408 -0.92258 -1.71227 0
M  V30 5391 C 503.691 -3.54823 0.614235 0
M  V30 5392 C 503.544 -3.9805 2.09466 0
M  V30 5393 C 504.863 -4.40071 0.050221 0
M  V30 5394 H 501.982 -0.721355 0.151047 0
M  V30 5395 H 504.624 -1.59301 1.03554 0
M  V30 5396 H 502.774 -3.88411 0.0831774 0
M  V30 5397 H 504.446 -3.74795 2.68936 0
M  V30 5398 H 502.689 -3.4836 2.5851 0
M  V30 5399 H 503.36 -5.06819 2.18721 0
M  V30 5400 H 505.836 -4.13037 0.503953 0
M  V30 5401 H 504.712 -5.48452 0.221759 0
M  V30 5402 H 504.973 -4.29576 -1.04482 0
M  V30 5403 N 504.032 -0.577932 -1.46621 0
M  V30 5404 C 504.98 0.170882 -2.31971 0
M  V30 5405 C 505.974 0.889086 -1.44193 0
M  V30 5406 O 507.18 0.808017 -1.60845 0
M  V30 5407 H 503.555 0.0739763 -0.748353 0
M  V30 5408 H 505.526 -0.567856 -2.92947 0
M  V30 5409 C 504.275 1.17438 -3.27267 0
M  V30 5410 H 503.598 0.63116 -3.94787 0
M  V30 5411 H 505.038 1.66882 -3.89778 0
M  V30 5412 C 503.497 2.23292 -2.52274 0
M  V30 5413 O 504.027 3.30567 -2.28229 0
M  V30 5414 N 502.233 1.97772 -2.12919 0
M  V30 5415 H 501.78 1.10545 -2.32675 0
M  V30 5416 H 501.738 2.68809 -1.63062 0
M  V30 5417 N 505.51 1.54411 -0.315457 0
M  V30 5418 C 506.74 2.04536 0.291315 0
M  V30 5419 C 507.148 1.19162 1.4696 0
M  V30 5420 O 506.491 0.213199 1.82459 0
M  V30 5421 C 506.553 3.5056 0.796725 0
M  V30 5422 C 506.217 4.5627 -0.258178 0
M  V30 5423 C 507.214 5.08312 -1.09153 0
M  V30 5424 C 504.899 5.00672 -0.404036 0
M  V30 5425 C 506.893 6.03312 -2.05655 0
M  V30 5426 C 504.58 5.95488 -1.37248 0
M  V30 5427 C 505.578 6.46693 -2.19721 0
M  V30 5428 O 505.266 7.39648 -3.14921 0
M  V30 5429 H 504.998 0.672856 0.0651165 0
M  V30 5430 H 507.552 2.00244 -0.457308 0
M  V30 5431 H 505.782 3.52223 1.59612 0
M  V30 5432 H 507.471 3.83804 1.32096 0
M  V30 5433 H 508.237 4.74793 -0.98979 0
M  V30 5434 H 504.116 4.60436 0.22799 0
M  V30 5435 H 507.66 6.43203 -2.70067 0
M  V30 5436 H 503.557 6.28424 -1.47489 0
M  V30 5437 H 504.325 7.57496 -3.10067 0
M  V30 5438 N 506.988 0.0434614 1.5754 0
M  V30 5439 C 508.235 -0.632035 1.92384 0
M  V30 5440 C 508.563 -1.71304 0.921157 0
M  V30 5441 O 507.818 -1.95583 -0.067744 0
M  V30 5442 C 508.117 -1.2738 3.3393 0
M  V30 5443 C 507.783 -0.321757 4.49751 0
M  V30 5444 C 506.445 -0.0597611 4.81163 0
M  V30 5445 C 508.797 0.331158 5.20147 0
M  V30 5446 C 506.125 0.862715 5.80322 0
M  V30 5447 C 508.477 1.24178 6.20292 0
M  V30 5448 C 507.141 1.51252 6.50138 0
M  V30 5449 H 506.411 -0.231278 0.703983 0
M  V30 5450 H 509.058 0.108294 1.91194 0
M  V30 5451 H 507.363 -2.08921 3.3145 0
M  V30 5452 H 509.06 -1.80326 3.58167 0
M  V30 5453 H 505.65 -0.53614 4.25233 0
M  V30 5454 H 509.834 0.141826 4.96097 0
M  V30 5455 H 505.09 1.08003 6.01785 0
M  V30 5456 H 509.264 1.75381 6.73954 0
M  V30 5457 H 506.891 2.22897 7.26788 0
M  V30 5458 N 508.466 -1.55915 -0.229846 0
M  V30 5459 C 509.694 -1.82617 -0.972562 0
M  V30 5460 C 510.109 -0.621488 -1.78278 0
M  V30 5461 O 509.466 0.409956 -1.77836 0
M  V30 5462 C 509.517 -3.0774 -1.89679 0
M  V30 5463 O 509.238 -4.23559 -1.11934 0
M  V30 5464 C 510.739 -3.47368 -2.75409 0
M  V30 5465 H 507.959 -0.60727 -0.285419 0
M  V30 5466 H 510.503 -2.02996 -0.247579 0
M  V30 5467 H 508.658 -2.89361 -2.57583 0
M  V30 5468 H 509.072 -4.94586 -1.74599 0
M  V30 5469 H 510.546 -4.37977 -3.35977 0
M  V30 5470 H 511.023 -2.68737 -3.47386 0
M  V30 5471 H 511.629 -3.68158 -2.12931 0
M  V30 5472 N 509.944 0.496216 -1.49584 0
M  V30 5473 C 510.891 1.59722 -1.66606 0
M  V30 5474 C 511.861 1.58158 -0.507477 0
M  V30 5475 O 513.046 1.76072 -0.735076 0
M  V30 5476 C 510.186 2.97844 -1.74308 0
M  V30 5477 C 509.299 3.09388 -3.01502 0
M  V30 5478 C 508.434 4.38271 -3.00153 0
M  V30 5479 C 507.473 4.43466 -4.21906 0
M  V30 5480 N 506.61 5.63784 -4.1844 0
M  V30 5481 H 511.45 1.44515 -2.60613 0
M  V30 5482 H 508.987 0.703048 -1.29212 0
M  V30 5483 H 510.945 3.77907 -1.76754 0
M  V30 5484 H 509.575 3.11743 -0.837619 0
M  V30 5485 H 508.627 2.22357 -3.08645 0
M  V30 5486 H 509.939 3.09085 -3.91494 0
M  V30 5487 H 509.093 5.2666 -3.01188 0
M  V30 5488 H 507.832 4.41146 -2.07947 0
M  V30 5489 H 506.837 3.53478 -4.21109 0
M  V30 5490 H 508.062 4.42303 -5.1531 0
M  V30 5491 H 506.008 5.67491 -3.29074 0
M  V30 5492 H 505.925 5.65118 -5.02173 0
M  V30 5493 H 507.193 6.54367 -4.23585 0
M  V30 5494 N 511.423 1.38739 0.74761 0
M  V30 5495 C 512.839 1.20067 1.05148 0
M  V30 5496 C 513.039 0.0534835 2.01429 0
M  V30 5497 O 512.095 -0.59886 2.45296 0
M  V30 5498 C 513.408 2.52957 1.62584 0
M  V30 5499 C 514.956 2.59692 1.74726 0
M  V30 5500 C 515.431 3.92772 2.35573 0
M  V30 5501 N 516.922 3.94343 2.42997 0
M  V30 5502 C 517.657 4.9408 2.90985 0
M  V30 5503 N 517.153 6.04214 3.38965 0
M  V30 5504 N 518.946 4.81466 2.9008 0
M  V30 5505 H 511.097 2.12121 0.108808 0
M  V30 5506 H 513.36 0.941491 0.110899 0
M  V30 5507 H 513.066 3.37389 0.993051 0
M  V30 5508 H 512.94 2.71779 2.61565 0
M  V30 5509 H 515.327 1.75651 2.3713 0
M  V30 5510 H 515.408 2.44731 0.744326 0
M  V30 5511 H 515.052 4.77238 1.738 0
M  V30 5512 H 514.982 4.05046 3.36519 0
M  V30 5513 H 517.473 3.14799 2.0907 0
M  V30 5514 H 517.786 6.76241 3.74056 0
M  V30 5515 H 516.131 6.07825 3.37007 0
M  V30 5516 H 519.322 3.94535 2.51912 0
M  V30 5517 H 519.495 5.59344 3.27166 0
M  V30 5518 N 512.901 -0.976442 1.23707 0
M  V30 5519 C 514.149 -1.71487 1.06942 0
M  V30 5520 C 514.47 -1.9098 -0.393897 0
M  V30 5521 O 513.74 -1.48128 -1.28198 0
M  V30 5522 H 512.32 -0.635425 0.392739 0
M  V30 5523 H 514.982 -1.17515 1.55487 0
M  V30 5524 H 514.078 -2.70286 1.56051 0
M  V30 5525 N 514.379 -1.04941 -1.1758 0
M  V30 5526 C 515.625 -0.768896 -1.88307 0
M  V30 5527 C 515.98 0.696361 -1.79356 0
M  V30 5528 O 515.273 1.50245 -1.18899 0
M  V30 5529 C 515.467 -1.18062 -3.37337 0
M  V30 5530 C 515.296 -2.68436 -3.60794 0
M  V30 5531 C 514.066 -3.35709 -3.77661 0
M  V30 5532 C 516.264 -3.66657 -3.60649 0
M  V30 5533 N 514.246 -4.74974 -3.88939 0
M  V30 5534 C 515.617 -4.91638 -3.77747 0
M  V30 5535 C 517.672 -3.60162 -3.43785 0
M  V30 5536 C 516.375 -6.10902 -3.79726 0
M  V30 5537 C 518.401 -4.78863 -3.47051 0
M  V30 5538 C 517.763 -6.02666 -3.64654 0
M  V30 5539 H 513.862 -0.33355 -0.707296 0
M  V30 5540 H 516.446 -1.34085 -1.41171 0
M  V30 5541 H 514.617 -0.636648 -3.83147 0
M  V30 5542 H 516.349 -0.8502 -3.95669 0
M  V30 5543 H 513.104 -2.8611 -3.77409 0
M  V30 5544 H 513.528 -5.47378 -3.98379 0
M  V30 5545 H 518.17 -2.65412 -3.29114 0
M  V30 5546 H 515.888 -7.05998 -3.93182 0
M  V30 5547 H 519.474 -4.75488 -3.35265 0
M  V30 5548 H 518.354 -6.92979 -3.67083 0
M  V30 5549 N 515.857 1.33968 -0.830081 0
M  V30 5550 C 516.82 2.27694 -0.26235 0
M  V30 5551 C 517.82 1.50589 0.563876 0
M  V30 5552 O 519.01 1.70028 0.378941 0
M  V30 5553 C 516.142 3.35002 0.63138 0
M  V30 5554 H 517.335 2.79419 -1.08928 0
M  V30 5555 H 514.888 1.44221 -0.602486 0
M  V30 5556 H 515.623 2.88504 1.48109 0
M  V30 5557 H 515.408 3.92079 0.0403276 0
M  V30 5558 H 516.898 4.04897 1.02217 0
M  V30 5559 N 517.335 0.585699 1.46312 0
M  V30 5560 C 518.581 0.0808731 2.03239 0
M  V30 5561 C 518.936 -1.26609 1.44872 0
M  V30 5562 O 518.229 -1.81779 0.60556 0
M  V30 5563 C 518.423 -0.0401312 3.57377 0
M  V30 5564 C 518.252 1.29356 4.30694 0
M  V30 5565 C 517.022 1.86849 4.69484 0
M  V30 5566 C 519.22 2.21742 4.64042 0
M  V30 5567 N 517.202 3.13926 5.27564 0
M  V30 5568 C 518.573 3.33408 5.22723 0
M  V30 5569 C 520.628 2.21386 4.45974 0
M  V30 5570 C 519.331 4.44852 5.65242 0
M  V30 5571 C 521.357 3.31862 4.89511 0
M  V30 5572 C 520.719 4.42248 5.48266 0
M  V30 5573 H 516.818 0.072443 0.778637 0
M  V30 5574 H 519.402 0.779254 1.78426 0
M  V30 5575 H 517.573 -0.707686 3.81898 0
M  V30 5576 H 519.305 -0.549615 4.00951 0
M  V30 5577 H 516.06 1.40307 4.52339 0
M  V30 5578 H 516.484 3.78775 5.61122 0
M  V30 5579 H 521.126 1.37314 3.99881 0
M  V30 5580 H 518.844 5.29665 6.10312 0
M  V30 5581 H 522.43 3.32708 4.7728 0
M  V30 5582 H 521.31 5.26323 5.81338 0
M  V30 5583 N 518.813 -1.54241 0.323641 0
M  V30 5584 C 520.09 -1.92741 -0.333181 0
M  V30 5585 C 520.47 -1.25326 -1.69872 0
M  V30 5586 O 519.818 -0.396991 -2.25025 0
M  V30 5587 C 520.028 -3.46399 -0.425322 0
M  V30 5588 C 521.376 -4.19029 -0.68557 0
M  V30 5589 O 522.4 -3.52555 -0.50824 0
M  V30 5590 O 521.259 -5.36751 -1.02767 0
M  V30 5591 H 518.353 -0.804811 -0.190286 0
M  V30 5592 H 520.899 -1.65542 0.373361 0
M  V30 5593 H 519.671 -3.87643 0.533737 0
M  V30 5594 H 519.294 -3.79704 -1.17944 0
M  V30 5595 N 520.291 -0.0518155 -1.57515 0
M  V30 5596 C 521.539 0.620595 -1.92336 0
M  V30 5597 C 521.86 1.71345 -0.930907 0
M  V30 5598 O 521.13 1.95885 0.0241341 0
M  V30 5599 H 519.71 0.232226 -0.709986 0
M  V30 5600 H 522.372 -0.104969 -1.94617 0
M  V30 5601 H 521.468 1.05879 -2.93592 0
M  V30 5602 N 521.769 1.56035 0.221574 0
M  V30 5603 C 522.716 1.92413 1.27459 0
M  V30 5604 C 523.686 0.781323 1.46576 0
M  V30 5605 O 524.871 1.03721 1.60145 0
M  V30 5606 C 522.011 2.24617 2.61995 0
M  V30 5607 C 521.124 3.51831 2.50677 0
M  V30 5608 C 520.259 3.73482 3.77736 0
M  V30 5609 C 519.298 4.94211 3.6114 0
M  V30 5610 N 518.435 5.12252 4.80148 0
M  V30 5611 H 523.275 2.82203 0.957355 0
M  V30 5612 H 520.812 1.39676 0.461415 0
M  V30 5613 H 522.77 2.41298 3.40339 0
M  V30 5614 H 521.4 1.38 2.91815 0
M  V30 5615 H 520.452 3.43343 1.63767 0
M  V30 5616 H 521.764 4.40328 2.34334 0
M  V30 5617 H 520.918 3.9026 4.64523 0
M  V30 5618 H 519.657 2.83266 3.97003 0
M  V30 5619 H 518.662 4.77384 2.72736 0
M  V30 5620 H 519.887 5.85912 3.43343 0
M  V30 5621 H 517.833 4.24978 4.99729 0
M  V30 5622 H 517.75 5.94881 4.66532 0
M  V30 5623 H 519.018 5.33465 5.68362 0
M  V30 5624 N 523.247 -0.488276 1.49845 0
M  V30 5625 C 524.194 -1.58836 1.67451 0
M  V30 5626 C 525.164 -1.57886 0.515857 0
M  V30 5627 O 526.349 -1.75679 0.744403 0
M  V30 5628 C 523.489 -2.96915 1.75885 0
M  V30 5629 C 522.602 -3.07784 3.03138 0
M  V30 5630 C 521.737 -4.36673 3.02473 0
M  V30 5631 C 520.776 -4.41222 4.24252 0
M  V30 5632 N 519.913 -5.61557 4.21424 0
M  V30 5633 H 524.753 -1.43131 2.61376 0
M  V30 5634 H 522.29 -0.696186 1.29583 0
M  V30 5635 H 524.248 -3.76965 1.78755 0
M  V30 5636 H 522.878 -3.11295 0.85414 0
M  V30 5637 H 521.93 -2.20717 3.09819 0
M  V30 5638 H 523.242 -3.07005 3.93128 0
M  V30 5639 H 522.396 -5.25055 3.03977 0
M  V30 5640 H 521.135 -4.40037 2.10283 0
M  V30 5641 H 520.14 -3.5124 4.22978 0
M  V30 5642 H 521.365 -4.39564 5.17649 0
M  V30 5643 H 519.311 -5.65738 3.32078 0
M  V30 5644 H 519.228 -5.62447 5.05163 0
M  V30 5645 H 520.496 -6.52111 4.2705 0
M  V30 5646 N 524.725 -1.39134 -0.740242 0
M  V30 5647 C 525.688 -1.37217 -1.83587 0
M  V30 5648 C 526.688 -0.270221 -1.58513 0
M  V30 5649 O 527.878 -0.527843 -1.6601 0
M  V30 5650 C 525.01 -1.13959 -3.21288 0
M  V30 5651 H 526.203 -2.34705 -1.86691 0
M  V30 5652 H 523.756 -1.24622 -0.94335 0
M  V30 5653 H 524.491 -0.17131 -3.23847 0
M  V30 5654 H 524.276 -1.93754 -3.40884 0
M  V30 5655 H 525.766 -1.15346 -4.01354 0
M  V30 5656 N 526.204 0.969867 -1.24223 0
M  V30 5657 C 527.134 2.08191 -1.05729 0
M  V30 5658 C 528.115 1.70075 0.0290765 0
M  V30 5659 O 529.3 1.93712 -0.137583 0
M  V30 5660 C 526.43 3.40991 -0.658995 0
M  V30 5661 C 525.384 3.93054 -1.69389 0
M  V30 5662 C 524.71 5.22171 -1.15072 0
M  V30 5663 C 526.01 4.21137 -3.08935 0
M  V30 5664 H 527.704 2.23921 -1.98746 0
M  V30 5665 H 525.25 1.07602 -0.956967 0
M  V30 5666 H 527.203 4.18221 -0.51662 0
M  V30 5667 H 525.927 3.25155 0.30686 0
M  V30 5668 H 524.586 3.17977 -1.82444 0
M  V30 5669 H 524.234 5.02694 -0.175539 0
M  V30 5670 H 523.934 5.57973 -1.84229 0
M  V30 5671 H 525.458 6.02013 -1.02042 0
M  V30 5672 H 526.872 4.8908 -2.99121 0
M  V30 5673 H 525.269 4.68163 -3.75425 0
M  V30 5674 H 526.339 3.27996 -3.57137 0
M  V30 5675 N 527.682 1.05563 1.17022 0
M  V30 5676 C 528.592 0.670758 2.24807 0
M  V30 5677 C 529.608 -0.309865 1.71219 0
M  V30 5678 O 530.784 -0.161025 2.00755 0
M  V30 5679 C 527.849 0.055337 3.46656 0
M  V30 5680 C 526.91 1.08688 4.15314 0
M  V30 5681 C 526.143 0.500736 5.31346 0
M  V30 5682 O 526.366 -0.688718 5.66227 0
M  V30 5683 O 525.3 1.23683 5.89055 0
M  V30 5684 H 529.126 1.56914 2.60023 0
M  V30 5685 H 526.711 0.827428 1.24395 0
M  V30 5686 H 528.593 -0.286492 4.20425 0
M  V30 5687 H 527.268 -0.816638 3.13229 0
M  V30 5688 H 526.175 1.48077 3.43546 0
M  V30 5689 H 527.508 1.93014 4.52777 0
M  V30 5690 N 529.16 -1.33526 0.837174 0
M  V30 5691 C 530.123 -2.27551 0.274421 0
M  V30 5692 C 531.123 -1.50886 -0.555881 0
M  V30 5693 O 532.313 -1.70227 -0.369918 0
M  V30 5694 C 529.445 -3.35332 -0.613605 0
M  V30 5695 H 530.638 -2.78837 1.10408 0
M  V30 5696 H 528.191 -1.439 0.610126 0
M  V30 5697 H 528.926 -2.89285 -1.46577 0
M  V30 5698 H 528.711 -3.92095 -0.0195341 0
M  V30 5699 H 530.201 -4.05433 -1.00068 0
M  V30 5700 N 530.638 -0.59345 -1.46 0
M  V30 5701 C 531.601 0.123538 -2.28867 0
M  V30 5702 C 532.601 0.808628 -1.38989 0
M  V30 5703 O 533.791 0.658945 -1.61256 0
M  V30 5704 C 530.923 1.1847 -3.19653 0
M  V30 5705 H 532.116 -0.604843 -2.93737 0
M  V30 5706 H 529.669 -0.351875 -1.52288 0
M  V30 5707 H 530.404 1.94431 -2.59552 0
M  V30 5708 H 530.189 0.69783 -3.8584 0
M  V30 5709 H 531.679 1.68726 -3.81997 0
M  V30 5710 N 532.116 1.54067 -0.331816 0
M  V30 5711 C 533.063 2.24623 0.530372 0
M  V30 5712 C 534.033 1.24009 1.10503 0
M  V30 5713 O 535.218 1.52712 1.14384 0
M  V30 5714 C 532.358 3.01374 1.68129 0
M  V30 5715 C 531.471 4.16821 1.13507 0
M  V30 5716 C 530.606 4.81085 2.25234 0
M  V30 5717 C 529.645 5.88621 1.67903 0
M  V30 5718 N 528.782 6.46713 2.73326 0
M  V30 5719 H 533.622 2.97898 -0.0778607 0
M  V30 5720 H 531.159 1.47014 -0.0501965 0
M  V30 5721 H 533.117 3.44125 2.35868 0
M  V30 5722 H 531.747 2.30419 2.26069 0
M  V30 5723 H 530.799 3.78796 0.348979 0
M  V30 5724 H 532.111 4.94203 0.675633 0
M  V30 5725 H 531.265 5.26846 3.00862 0
M  V30 5726 H 530.004 4.03102 2.74518 0
M  V30 5727 H 529.009 5.42254 0.907773 0
M  V30 5728 H 530.234 6.68506 1.19487 0
M  V30 5729 H 528.18 5.71599 3.21886 0
M  V30 5730 H 528.097 7.19532 2.3197 0
M  V30 5731 H 529.365 6.97129 3.48758 0
M  V30 5732 N 533.594 0.0601682 1.57485 0
M  V30 5733 C 534.843 -0.611101 1.9222 0
M  V30 5734 C 535.156 -1.71469 0.941159 0
M  V30 5735 O 536.362 -2.44473 1.18089 0
M  V30 5736 C 534.818 -1.13832 3.41424 0
M  V30 5737 C 534.426 -0.0663596 4.47951 0
M  V30 5738 C 536.17 -1.78432 3.85178 0
M  V30 5739 C 534.077 -0.606965 5.88277 0
M  V30 5740 H 533.007 -0.232033 0.71741 0
M  V30 5741 H 535.658 0.130518 1.83035 0
M  V30 5742 H 534.04 -1.93254 3.45643 0
M  V30 5743 H 535.214 0.707682 4.55333 0
M  V30 5744 H 533.529 0.482715 4.13593 0
M  V30 5745 H 536.126 -2.1989 4.87394 0
M  V30 5746 H 536.469 -2.63966 3.21913 0
M  V30 5747 H 537.002 -1.05651 3.83514 0
M  V30 5748 H 533.741 0.21095 6.5516 0
M  V30 5749 H 533.261 -1.34879 5.84438 0
M  V30 5750 H 534.94 -1.08704 6.37803 0
M  V30 5751 N 535.072 -1.5615 -0.213296 0
M  V30 5752 C 536.019 -1.93086 -1.26437 0
M  V30 5753 C 536.989 -0.789086 -1.4616 0
M  V30 5754 O 538.174 -1.04569 -1.59593 0
M  V30 5755 C 535.314 -2.26003 -2.608 0
M  V30 5756 C 534.427 -3.53156 -2.48807 0
M  V30 5757 C 533.562 -3.7548 -3.7575 0
M  V30 5758 C 532.601 -4.96119 -3.58514 0
M  V30 5759 N 531.738 -5.14791 -4.77425 0
M  V30 5760 H 536.578 -2.82707 -0.942376 0
M  V30 5761 H 534.115 -1.39919 -0.454001 0
M  V30 5762 H 536.073 -2.431 -3.39055 0
M  V30 5763 H 534.703 -1.39546 -2.91079 0
M  V30 5764 H 533.755 -3.44207 -1.61944 0
M  V30 5765 H 535.067 -4.41565 -2.31996 0
M  V30 5766 H 534.221 -3.92718 -4.62447 0
M  V30 5767 H 532.96 -2.85368 -3.95495 0
M  V30 5768 H 531.965 -4.78823 -2.70201 0
M  V30 5769 H 533.19 -5.87724 -3.40231 0
M  V30 5770 H 531.136 -4.27623 -4.97468 0
M  V30 5771 H 531.053 -5.97347 -4.63371 0
M  V30 5772 H 532.321 -5.36471 -5.65525 0
M  V30 5773 N 536.55 0.480323 -1.50102 0
M  V30 5774 C 537.497 1.57946 -1.6829 0
M  V30 5775 C 538.467 1.57611 -0.524223 0
M  V30 5776 O 539.652 1.75282 -0.753709 0
M  V30 5777 C 536.792 2.95978 -1.77457 0
M  V30 5778 C 535.905 3.06173 -3.04766 0
M  V30 5779 C 535.04 4.35063 -3.04784 0
M  V30 5780 C 534.079 4.38966 -4.26586 0
M  V30 5781 N 533.216 5.59314 -4.24396 0
M  V30 5782 H 538.056 1.41743 -2.62131 0
M  V30 5783 H 535.593 0.689304 -1.2995 0
M  V30 5784 H 537.551 3.76011 -1.80752 0
M  V30 5785 H 536.181 3.10837 -0.870637 0
M  V30 5786 H 535.233 2.19071 -3.10986 0
M  V30 5787 H 536.545 3.04916 -3.9475 0
M  V30 5788 H 535.699 5.23436 -3.06757 0
M  V30 5789 H 534.438 4.38915 -2.12614 0
M  V30 5790 H 533.443 3.48992 -4.24835 0
M  V30 5791 H 534.668 4.36813 -5.19972 0
M  V30 5792 H 532.614 5.63969 -3.35074 0
M  V30 5793 H 532.531 5.5976 -5.08138 0
M  V30 5794 H 533.799 6.49837 -4.30502 0
M  V30 5795 N 538.028 1.39524 0.732853 0
M  V30 5796 C 538.975 1.38416 1.84688 0
M  V30 5797 C 539.945 0.243539 1.64305 0
M  V30 5798 O 541.13 0.438979 1.85681 0
M  V30 5799 C 538.27 1.23555 3.22224 0
M  V30 5800 C 537.383 2.47179 3.54298 0
M  V30 5801 C 536.518 2.2489 4.81246 0
M  V30 5802 C 535.557 3.44178 5.0617 0
M  V30 5803 N 534.694 3.21192 6.24323 0
M  V30 5804 H 539.534 2.33645 1.84971 0
M  V30 5805 H 537.071 1.16059 0.903804 0
M  V30 5806 H 539.029 1.12949 4.0162 0
M  V30 5807 H 537.659 0.31954 3.21215 0
M  V30 5808 H 536.711 2.68379 2.69587 0
M  V30 5809 H 538.023 3.36022 3.68633 0
M  V30 5810 H 537.177 2.11538 5.68627 0
M  V30 5811 H 535.916 1.33443 4.69089 0
M  V30 5812 H 534.921 3.58025 4.17251 0
M  V30 5813 H 536.146 4.36528 5.20212 0
M  V30 5814 H 534.092 2.32413 6.1345 0
M  V30 5815 H 534.009 4.03594 6.39256 0
M  V30 5816 H 535.277 3.1154 7.14537 0
M  V30 5817 N 539.506 -0.963266 1.24736 0
M  V30 5818 C 540.922 -1.23273 1.01371 0
M  V30 5819 C 541.122 -1.99618 -0.274776 0
M  V30 5820 O 540.178 -2.32293 -0.989769 0
M  V30 5821 C 541.491 -2.01554 2.23152 0
M  V30 5822 C 543.039 -2.14629 2.27823 0
M  V30 5823 C 543.514 -2.96307 3.49237 0
M  V30 5824 N 545.005 -3.03887 3.49581 0
M  V30 5825 C 545.74 -3.67456 4.40186 0
M  V30 5826 N 545.236 -4.32706 5.41052 0
M  V30 5827 N 547.029 -3.64511 4.27888 0
M  V30 5828 H 539.18 -0.452294 2.07528 0
M  V30 5829 H 541.443 -0.262521 0.910926 0
M  V30 5830 H 541.149 -1.52847 3.1675 0
M  V30 5831 H 541.023 -3.02278 2.25628 0
M  V30 5832 H 543.41 -2.62537 1.34753 0
M  V30 5833 H 543.491 -1.13238 2.2937 0
M  V30 5834 H 543.135 -2.49091 4.42624 0
M  V30 5835 H 543.065 -3.97905 3.44933 0
M  V30 5836 H 545.556 -2.57477 2.76611 0
M  V30 5837 H 545.869 -4.79042 6.06415 0
M  V30 5838 H 544.214 -4.31361 5.44934 0
M  V30 5839 H 547.405 -3.12715 3.4832 0
M  V30 5840 H 547.578 -4.13768 4.98698 0
M  V30 5841 N 540.985 -1.06182 -1.16461 0
M  V30 5842 C 541.895 -0.682671 -2.24448 0
M  V30 5843 C 542.911 0.30078 -1.71381 0
M  V30 5844 O 544.087 0.150376 -2.00838 0
M  V30 5845 C 541.152 -0.0737202 -3.46622 0
M  V30 5846 C 540.213 -1.10889 -4.14731 0
M  V30 5847 C 539.446 -0.528908 -5.31073 0
M  V30 5848 O 539.669 0.65868 -5.66584 0
M  V30 5849 O 538.603 -1.26805 -5.88391 0
M  V30 5850 H 542.429 -1.58291 -2.59187 0
M  V30 5851 H 540.014 -0.834013 -1.23954 0
M  V30 5852 H 541.896 0.264192 -4.20571 0
M  V30 5853 H 540.571 0.800015 -3.13658 0
M  V30 5854 H 539.478 -1.49896 -3.42756 0
M  V30 5855 H 540.811 -1.95412 -4.51747 0
M  V30 5856 N 542.463 1.3308 -0.844243 0
M  V30 5857 C 543.709 1.97898 -0.443206 0
M  V30 5858 C 544.042 1.66699 0.99625 0
M  V30 5859 O 543.317 0.949704 1.69738 0
M  V30 5860 C 543.6 3.53801 -0.670606 0
M  V30 5861 C 543.453 3.94667 -2.15772 0
M  V30 5862 C 544.772 4.39936 -0.120226 0
M  V30 5863 H 541.891 0.718861 -0.162504 0
M  V30 5864 H 544.533 1.57633 -1.06075 0
M  V30 5865 H 542.683 3.88229 -0.14496 0
M  V30 5866 H 544.355 3.70469 -2.74865 0
M  V30 5867 H 542.598 3.44203 -2.6402 0
M  V30 5868 H 543.269 5.03275 -2.26757 0
M  V30 5869 H 545.745 4.12183 -0.5696 0
M  V30 5870 H 544.621 5.4803 -0.308984 0
M  V30 5871 H 544.882 4.31184 0.976347 0
M  V30 5872 N 543.941 0.601185 1.45683 0
M  V30 5873 C 545.19 0.0914953 2.01492 0
M  V30 5874 C 545.503 -1.28331 1.47616 0
M  V30 5875 O 546.709 -1.88537 1.95362 0
M  V30 5876 C 545.165 0.11291 3.59723 0
M  V30 5877 C 544.773 1.48717 4.22596 0
M  V30 5878 C 546.517 -0.341871 4.23121 0
M  V30 5879 C 544.424 1.46531 5.7296 0
M  V30 5880 H 543.354 0.0304365 0.753385 0
M  V30 5881 H 546.005 0.755568 1.67223 0
M  V30 5882 H 544.387 -0.617692 3.91153 0
M  V30 5883 H 545.561 2.23897 4.02749 0
M  V30 5884 H 543.876 1.88351 3.71366 0
M  V30 5885 H 546.473 -0.377304 5.33367 0
M  V30 5886 H 546.816 -1.36325 3.93346 0
M  V30 5887 H 547.349 0.335256 3.96385 0
M  V30 5888 H 544.088 2.46408 6.07423 0
M  V30 5889 H 543.608 0.755997 5.95017 0
M  V30 5890 H 545.287 1.18618 6.36034 0
M  V30 5891 N 545.419 -1.53889 0.339982 0
M  V30 5892 C 546.349 -2.27843 -0.510856 0
M  V30 5893 C 547.33 -1.29267 -1.10563 0
M  V30 5894 O 548.515 -1.58104 -1.12768 0
M  V30 5895 C 545.645 -3.04857 -1.66372 0
M  V30 5896 C 544.599 -4.10907 -1.19746 0
M  V30 5897 C 543.925 -4.75855 -2.43857 0
M  V30 5898 C 545.225 -5.21435 -0.300501 0
M  V30 5899 H 546.919 -2.99212 0.106067 0
M  V30 5900 H 544.465 -1.43904 0.0524533 0
M  V30 5901 H 546.418 -3.5533 -2.26537 0
M  V30 5902 H 545.142 -2.31133 -2.30749 0
M  V30 5903 H 543.801 -3.61342 -0.618654 0
M  V30 5904 H 543.449 -3.9873 -3.06633 0
M  V30 5905 H 543.149 -5.47502 -2.13343 0
M  V30 5906 H 544.673 -5.2911 -3.04754 0
M  V30 5907 H 546.087 -5.67565 -0.80889 0
M  V30 5908 H 544.484 -6.00036 -0.0874076 0
M  V30 5909 H 545.554 -4.80328 0.664321 0
M  V30 5910 N 546.897 -0.0685191 -1.57451 0
M  V30 5911 C 547.845 0.917577 -2.13736 0
M  V30 5912 C 548.839 1.31049 -1.07344 0
M  V30 5913 O 550.045 1.28811 -1.25728 0
M  V30 5914 H 546.42 0.313835 -0.683382 0
M  V30 5915 H 548.391 0.417903 -2.95459 0
M  V30 5916 C 547.14 2.17686 -2.71123 0
M  V30 5917 H 546.463 1.88336 -3.52661 0
M  V30 5918 H 547.903 2.84803 -3.14107 0
M  V30 5919 C 546.362 2.9332 -1.65726 0
M  V30 5920 O 546.892 3.86901 -1.08031 0
M  V30 5921 N 545.098 2.56367 -1.36837 0
M  V30 5922 H 544.645 1.80341 -1.83943 0
M  V30 5923 H 544.603 3.07276 -0.665501 0
M  V30 5924 N 548.375 1.56261 0.205012 0
M  V30 5925 C 549.322 1.93754 1.25411 0
M  V30 5926 C 550.292 0.796826 1.45739 0
M  V30 5927 O 551.477 1.05414 1.59036 0
M  V30 5928 C 548.617 2.27383 2.59598 0
M  V30 5929 C 547.73 3.5447 2.46931 0
M  V30 5930 C 546.865 3.77468 3.73753 0
M  V30 5931 C 545.904 4.98014 3.55877 0
M  V30 5932 N 545.041 5.17316 4.74688 0
M  V30 5933 H 549.881 2.83203 0.92737 0
M  V30 5934 H 547.418 1.40158 0.446574 0
M  V30 5935 H 549.376 2.44895 3.37761 0
M  V30 5936 H 548.006 1.41088 2.90335 0
M  V30 5937 H 547.058 3.45061 1.60116 0
M  V30 5938 H 548.37 4.42789 2.29651 0
M  V30 5939 H 547.524 3.95165 4.60358 0
M  V30 5940 H 546.263 2.87461 3.93976 0
M  V30 5941 H 545.268 4.80249 2.67657 0
M  V30 5942 H 546.493 5.8952 3.37109 0
M  V30 5943 H 544.439 4.30255 4.95194 0
M  V30 5944 H 544.356 5.99796 4.60197 0
M  V30 5945 H 545.624 5.39463 5.62672 0
M  V30 5946 N 549.853 -0.472356 1.50355 0
M  V30 5947 C 551.078 -1.25251 1.65309 0
M  V30 5948 C 551.503 -1.85081 0.335643 0
M  V30 5949 O 550.861 -1.67227 -0.700335 0
M  V30 5950 C 550.909 -2.3379 2.74544 0
M  V30 5951 O 550.013 -3.38401 2.35709 0
M  V30 5952 H 549.354 -0.368539 0.552336 0
M  V30 5953 H 551.884 -0.562271 1.96722 0
M  V30 5954 H 551.894 -2.79121 2.97583 0
M  V30 5955 H 550.569 -1.89614 3.70161 0
M  V30 5956 H 549.146 -2.9879 2.23112 0
M  V30 5957 N 551.331 -1.39911 -0.725443 0
M  V30 5958 C 552.559 -1.40949 -1.51463 0
M  V30 5959 C 552.974 -0.0065242 -1.88799 0
M  V30 5960 O 552.331 0.967163 -1.54765 0
M  V30 5961 C 552.382 -2.29119 -2.79619 0
M  V30 5962 O 552.103 -3.63952 -2.43866 0
M  V30 5963 C 553.604 -2.38642 -3.73584 0
M  V30 5964 H 550.824 -0.481091 -0.467752 0
M  V30 5965 H 553.368 -1.83843 -0.895651 0
M  V30 5966 H 551.523 -1.89612 -3.37826 0
M  V30 5967 H 551.937 -4.10677 -3.26258 0
M  V30 5968 H 553.411 -3.04563 -4.60375 0
M  V30 5969 H 553.888 -1.40846 -4.16004 0
M  V30 5970 H 554.494 -2.78659 -3.21293 0
M  V30 5971 N 552.809 0.956637 -1.25245 0
M  V30 5972 C 553.757 2.0743 -1.0524 0
M  V30 5973 C 554.751 1.69392 0.0160725 0
M  V30 5974 O 555.957 1.7946 -0.139382 0
M  V30 5975 H 552.332 0.678921 -0.323373 0
M  V30 5976 H 554.303 2.2146 -1.99995 0
M  V30 5977 C 553.052 3.40872 -0.685702 0
M  V30 5978 H 552.375 3.70607 -1.49968 0
M  V30 5979 H 553.815 4.19939 -0.585415 0
M  V30 5980 C 552.274 3.31367 0.608082 0
M  V30 5981 O 552.804 3.66214 1.65076 0
M  V30 5982 N 551.01 2.84486 0.592955 0
M  V30 5983 H 550.557 2.56326 -0.25592 0
M  V30 5984 H 550.515 2.78509 1.45877 0
M  V30 5985 N 554.287 1.06798 1.15896 0
M  V30 5986 C 555.25 0.687328 2.18651 0
M  V30 5987 C 556.25 -0.269559 1.58524 0
M  V30 5988 O 557.44 -0.0512627 1.74125 0
M  V30 5989 C 554.572 0.0121642 3.40898 0
M  V30 5990 H 555.765 1.59701 2.53842 0
M  V30 5991 H 553.318 0.863828 1.3026 0
M  V30 5992 H 554.053 -0.910025 3.1127 0
M  V30 5993 H 553.838 0.700309 3.85795 0
M  V30 5994 H 555.328 -0.239703 4.16911 0
M  V30 5995 N 555.766 -1.3263 0.851289 0
M  V30 5996 C 557.013 -1.97368 0.453023 0
M  V30 5997 C 557.341 -1.67384 -0.990596 0
M  V30 5998 O 556.596 -0.952665 -1.70947 0
M  V30 5999 C 556.895 -3.51713 0.635015 0
M  V30 6000 C 556.561 -4.01676 2.04859 0
M  V30 6001 C 555.223 -4.15031 2.43522 0
M  V30 6002 C 557.575 -4.28206 2.97135 0
M  V30 6003 C 554.903 -4.52257 3.73739 0
M  V30 6004 C 557.255 -4.66889 4.26846 0
M  V30 6005 C 555.919 -4.7845 4.65448 0
M  V30 6006 H 555.189 -0.722219 0.165773 0
M  V30 6007 H 557.836 -1.58092 1.0807 0
M  V30 6008 H 556.141 -3.91726 -0.0759081 0
M  V30 6009 H 557.838 -3.99823 0.306964 0
M  V30 6010 H 554.428 -3.91764 1.73836 0
M  V30 6011 H 558.612 -4.174 2.68498 0
M  V30 6012 H 553.868 -4.59402 4.03435 0
M  V30 6013 H 558.042 -4.86372 4.98413 0
M  V30 6014 H 555.669 -5.07052 5.66395 0
M  V30 6015 N 557.244 -0.608902 -1.45362 0
M  V30 6016 C 558.472 -0.111013 -2.06602 0
M  V30 6017 C 558.887 1.20516 -1.45332 0
M  V30 6018 O 558.244 1.73437 -0.567978 0
M  V30 6019 C 558.295 0.033688 -3.61484 0
M  V30 6020 O 558.016 -1.23041 -4.20467 0
M  V30 6021 C 559.517 0.562882 -4.39712 0
M  V30 6022 H 556.737 -0.0694453 -0.667397 0
M  V30 6023 H 559.281 -0.837008 -1.86586 0
M  V30 6024 H 557.436 0.710016 -3.80838 0
M  V30 6025 H 557.85 -1.06094 -5.13658 0
M  V30 6026 H 559.324 0.613213 -5.48583 0
M  V30 6027 H 559.801 1.58543 -4.09586 0
M  V30 6028 H 560.407 -0.0794454 -4.25226 0
M  V30 6029 N 558.722 1.53707 -0.348139 0
M  V30 6030 C 559.95 2.05406 0.248224 0
M  V30 6031 C 560.365 1.22282 1.43849 0
M  V30 6032 O 559.722 0.259244 1.80649 0
M  V30 6033 C 559.773 3.55446 0.658793 0
M  V30 6034 O 559.494 4.35417 -0.484149 0
M  V30 6035 C 560.995 4.23335 1.31539 0
M  V30 6036 H 558.215 0.669344 0.0471075 0
M  V30 6037 H 560.759 1.98257 -0.501456 0
M  V30 6038 H 558.914 3.62803 1.35841 0
M  V30 6039 H 559.328 5.24268 -0.155949 0
M  V30 6040 H 560.802 5.29692 1.55338 0
M  V30 6041 H 561.279 3.75967 2.27036 0
M  V30 6042 H 561.885 4.20184 0.657683 0
M  V30 6043 N 560.2 0.0768682 1.57412 0
M  V30 6044 C 561.448 -0.589918 1.93299 0
M  V30 6045 C 561.769 -1.69842 0.958049 0
M  V30 6046 O 561.039 -1.95899 0.00703261 0
M  V30 6047 H 559.619 -0.220901 0.713591 0
M  V30 6048 H 562.281 0.135917 1.94425 0
M  V30 6049 H 561.377 -1.01195 2.95239 0
M  V30 6050 N 561.678 -1.56367 -0.196722 0
M  V30 6051 C 562.625 -1.94417 -1.24382 0
M  V30 6052 C 563.595 -0.804543 -1.45315 0
M  V30 6053 O 564.78 -1.06256 -1.58475 0
M  V30 6054 C 561.92 -2.28757 -2.58388 0
M  V30 6055 C 561.033 -3.55775 -2.45047 0
M  V30 6056 C 560.168 -3.79445 -3.71746 0
M  V30 6057 C 559.207 -4.99894 -3.53231 0
M  V30 6058 N 558.344 -5.19826 -4.71938 0
M  V30 6059 H 563.184 -2.83691 -0.912338 0
M  V30 6060 H 560.721 -1.40392 -0.439135 0
M  V30 6061 H 562.679 -2.46682 -3.36457 0
M  V30 6062 H 561.309 -1.42625 -2.89582 0
M  V30 6063 H 560.361 -3.45905 -1.58284 0
M  V30 6064 H 561.673 -4.44 -2.27299 0
M  V30 6065 H 560.827 -3.97601 -4.58256 0
M  V30 6066 H 559.566 -2.89546 -3.92446 0
M  V30 6067 H 558.571 -4.81662 -2.65107 0
M  V30 6068 H 559.796 -5.913 -3.33978 0
M  V30 6069 H 557.742 -4.32875 -4.92905 0
M  V30 6070 H 557.659 -6.02228 -4.57009 0
M  V30 6071 H 558.927 -5.42439 -5.59803 0
M  V30 6072 N 563.156 0.464375 -1.50603 0
M  V30 6073 C 564.089 1.58052 -1.64605 0
M  V30 6074 C 565.067 1.54914 -0.494016 0
M  V30 6075 O 566.251 1.74438 -0.714393 0
M  V30 6076 C 563.378 2.96634 -1.63481 0
M  V30 6077 C 562.424 3.17901 -2.84325 0
M  V30 6078 S 563.257 2.97083 -4.45536 0
M  V30 6079 C 564.413 4.37994 -4.47115 0
M  V30 6080 H 564.646 1.45937 -2.59017 0
M  V30 6081 H 562.179 0.652189 -1.39949 0
M  V30 6082 H 564.137 3.76527 -1.63517 0
M  V30 6083 H 562.798 3.06134 -0.702928 0
M  V30 6084 H 561.991 4.19158 -2.79862 0
M  V30 6085 H 561.593 2.45792 -2.81891 0
M  V30 6086 H 563.885 5.30743 -4.21091 0
M  V30 6087 H 564.828 4.47499 -5.48772 0
M  V30 6088 H 565.236 4.20386 -3.76743 0
M  V30 6089 N 564.634 1.40294 0.718013 0
M  V30 6090 C 565.859 1.41941 1.5122 0
M  V30 6091 C 566.284 0.0202371 1.88089 0
M  V30 6092 O 565.642 -0.971078 1.53101 0
M  V30 6093 C 565.69 2.3141 2.76554 0
M  V30 6094 O 564.794 1.75567 3.73162 0
M  V30 6095 H 564.135 0.482644 0.456016 0
M  V30 6096 H 566.665 1.84494 0.884478 0
M  V30 6097 H 566.675 2.46513 3.25108 0
M  V30 6098 H 565.35 3.33085 2.49053 0
M  V30 6099 H 563.927 1.69798 3.31999 0
M  V30 6100 N 566.112 -0.949982 1.2575 0
M  V30 6101 C 567.062 -2.03297 1.03221 0
M  V30 6102 C 568.046 -1.60867 -0.0324751 0
M  V30 6103 O 569.238 -1.76047 0.183423 0
M  V30 6104 C 566.367 -3.36938 0.657841 0
M  V30 6105 C 565.453 -3.85878 1.75952 0
M  V30 6106 N 565.844 -4.0756 2.99547 0
M  V30 6107 C 564.142 -4.14709 1.64111 0
M  V30 6108 C 564.843 -4.47961 3.71087 0
M  V30 6109 N 563.819 -4.5416 2.98731 0
M  V30 6110 H 567.621 -2.1806 1.97045 0
M  V30 6111 H 565.135 -1.13516 1.16138 0
M  V30 6112 H 567.132 -4.14155 0.477614 0
M  V30 6113 H 565.792 -3.2355 -0.273025 0
M  V30 6114 H 566.803 -3.94501 3.35544 0
M  V30 6115 H 563.48 -4.10158 0.779527 0
M  V30 6116 H 564.87 -4.73002 4.77199 0
M  V30 6117 N 567.59 -1.07411 -1.15328 0
M  V30 6118 C 569.001 -0.820261 -1.67716 0
M  V30 6119 C 569.352 0.654539 -1.8496 0
M  V30 6120 O 568.477 1.50664 -1.55337 0
M  V30 6121 C 569.072 -1.48242 -3.04647 0
M  V30 6122 C 567.631 -1.27606 -3.5411 0
M  V30 6123 C 566.778 -1.5517 -2.29821 0
M  V30 6124 H 569.729 -1.23608 -0.995332 0
M  V30 6125 H 569.75 -0.903984 -3.69606 0
M  V30 6126 H 569.262 -2.55578 -2.92064 0
M  V30 6127 H 567.363 -0.222948 -3.71932 0
M  V30 6128 H 567.476 -1.99667 -4.35511 0
M  V30 6129 H 565.84 -0.972747 -2.35393 0
M  V30 6130 H 566.623 -2.63689 -2.19824 0
M  V30 6131 N 569.068 1.32177 -0.85831 0
M  V30 6132 C 570.479 1.79381 -0.517621 0
M  V30 6133 C 570.83 1.70841 0.964769 0
M  V30 6134 O 569.955 1.26917 1.75274 0
M  V30 6135 C 570.55 3.25706 -0.932801 0
M  V30 6136 C 569.109 3.70851 -0.643953 0
M  V30 6137 C 568.256 2.53208 -1.13054 0
M  V30 6138 H 571.207 1.19424 -1.04516 0
M  V30 6139 H 571.228 3.79673 -0.250674 0
M  V30 6140 H 570.74 3.31889 -2.01174 0
M  V30 6141 H 568.841 3.70178 0.424112 0
M  V30 6142 H 568.954 4.63495 -1.21281 0
M  V30 6143 H 567.318 2.48676 -0.550679 0
M  V30 6144 H 568.101 2.62143 -2.21666 0
M  V30 6145 N 570.547 0.616602 1.45037 0
M  V30 6146 C 571.495 -0.109318 2.32343 0
M  V30 6147 C 572.489 -0.850543 1.465 0
M  V30 6148 O 573.695 -0.765088 1.62931 0
M  V30 6149 H 570.07 -0.0541091 0.750051 0
M  V30 6150 H 572.041 0.645326 2.91338 0
M  V30 6151 C 570.79 -1.0872 3.30266 0
M  V30 6152 H 570.113 -0.526267 3.96321 0
M  V30 6153 H 571.553 -1.56489 3.94065 0
M  V30 6154 C 570.012 -2.16525 2.58105 0
M  V30 6155 O 570.542 -3.244 2.36913 0
M  V30 6156 N 568.748 -1.92057 2.18088 0
M  V30 6157 H 568.295 -1.04337 2.35524 0
M  V30 6158 H 568.253 -2.64391 1.70131 0
M  V30 6159 N 572.025 -1.5352 0.356285 0
M  V30 6160 C 573.274 -2.00298 -0.237373 0
M  V30 6161 C 573.587 -1.24784 -1.50627 0
M  V30 6162 O 574.793 -1.62103 -2.17795 0
M  V30 6163 C 573.249 -3.56771 -0.473545 0
M  V30 6164 C 572.857 -4.41154 0.780183 0
M  V30 6165 C 574.601 -4.1193 -1.02537 0
M  V30 6166 C 572.508 -5.89161 0.514108 0
M  V30 6167 H 571.438 -0.748307 -0.092478 0
M  V30 6168 H 574.089 -1.77283 0.473588 0
M  V30 6169 H 572.471 -3.75902 -1.24553 0
M  V30 6170 H 573.645 -4.33797 1.55425 0
M  V30 6171 H 571.96 -3.97052 1.25455 0
M  V30 6172 H 574.557 -5.20133 -1.2396 0
M  V30 6173 H 574.9 -3.65943 -1.98473 0
M  V30 6174 H 575.433 -3.96561 -0.313775 0
M  V30 6175 H 572.172 -6.39408 1.44355 0
M  V30 6176 H 571.692 -5.9939 -0.221632 0
M  V30 6177 H 573.371 -6.46857 0.136122 0
M  V30 6178 N 573.503 -0.0852151 -1.57369 0
M  V30 6179 C 574.914 0.445428 -1.81309 0
M  V30 6180 C 575.265 1.68795 -1.00013 0
M  V30 6181 O 574.39 2.15211 -0.226573 0
M  V30 6182 C 574.985 0.814887 -3.28854 0
M  V30 6183 C 573.544 1.29032 -3.53592 0
M  V30 6184 C 572.691 0.282089 -2.75861 0
M  V30 6185 H 575.642 -0.310771 -1.55627 0
M  V30 6186 H 575.663 1.67524 -3.41637 0
M  V30 6187 H 575.175 -0.0896309 -3.87996 0
M  V30 6188 H 573.276 2.21289 -2.9977 0
M  V30 6189 H 573.389 1.25898 -4.62262 0
M  V30 6190 H 571.753 0.762182 -2.43029 0
M  V30 6191 H 572.536 -0.614936 -3.37748 0
M  V30 6192 N 574.981 1.5647 0.188427 0
M  V30 6193 C 575.928 1.95073 1.23349 0
M  V30 6194 C 576.898 0.812238 1.44886 0
M  V30 6195 O 578.083 1.07095 1.57909 0
M  V30 6196 C 575.223 2.30124 2.57171 0
M  V30 6197 C 574.336 3.57069 2.43157 0
M  V30 6198 C 573.471 3.81411 3.69729 0
M  V30 6199 C 572.51 5.0176 3.50575 0
M  V30 6200 N 571.647 5.22321 4.69175 0
M  V30 6201 H 576.487 2.84171 0.89728 0
M  V30 6202 H 574.024 1.40623 0.431683 0
M  V30 6203 H 575.982 2.48463 3.35145 0
M  V30 6204 H 574.612 1.44159 2.88822 0
M  V30 6205 H 573.664 3.4674 1.56447 0
M  V30 6206 H 574.976 4.452 2.24942 0
M  V30 6207 H 574.13 4.00026 4.56141 0
M  V30 6208 H 572.869 2.91624 3.90905 0
M  V30 6209 H 571.874 4.83061 2.62549 0
M  V30 6210 H 573.099 5.93063 3.30837 0
M  V30 6211 H 571.045 4.35483 4.90602 0
M  V30 6212 H 570.962 6.04643 4.53809 0
M  V30 6213 H 572.23 5.45401 5.56919 0
M  V30 6214 N 576.459 -0.456382 1.50847 0
M  V30 6215 C 577.369 -1.57805 1.73594 0
M  V30 6216 C 578.385 -1.62599 0.619476 0
M  V30 6217 O 579.561 -1.80195 0.899532 0
M  V30 6218 C 576.626 -2.93926 1.8387 0
M  V30 6219 C 575.687 -2.99402 3.07663 0
M  V30 6220 C 574.92 -4.29031 3.1744 0
M  V30 6221 O 575.143 -5.20358 2.33631 0
M  V30 6222 O 574.077 -4.40401 4.10281 0
M  V30 6223 H 577.903 -1.41531 2.68705 0
M  V30 6224 H 575.488 -0.637422 1.3512 0
M  V30 6225 H 577.37 -3.74747 1.92725 0
M  V30 6226 H 576.045 -3.10368 0.91944 0
M  V30 6227 H 574.952 -2.17606 3.043 0
M  V30 6228 H 576.285 -2.87901 3.99216 0
M  V30 6229 N 577.937 -1.40673 -0.710563 0
M  V30 6230 C 578.869 -1.37256 -1.83558 0
M  V30 6231 C 579.882 -0.277133 -1.60424 0
M  V30 6232 O 581.071 -0.537831 -1.70205 0
M  V30 6233 C 578.171 -1.1144 -3.20054 0
M  V30 6234 C 577.344 -2.32734 -3.70342 0
M  V30 6235 C 576.403 -2.03002 -4.85465 0
M  V30 6236 O 575.429 -2.75912 -4.97857 0
M  V30 6237 N 576.631 -1.01105 -5.71627 0
M  V30 6238 H 579.396 -2.34215 -1.86985 0
M  V30 6239 H 576.957 -1.35091 -0.892301 0
M  V30 6240 H 578.949 -0.895265 -3.94673 0
M  V30 6241 H 577.519 -0.231307 -3.11743 0
M  V30 6242 H 576.739 -2.70446 -2.86798 0
M  V30 6243 H 578.027 -3.13584 -4.00678 0
M  V30 6244 H 577.425 -0.407303 -5.64232 0
M  V30 6245 H 575.982 -0.85182 -6.4621 0
M  V30 6246 N 579.415 0.9433 -1.26252 0
M  V30 6247 C 580.643 1.72367 -1.14443 0
M  V30 6248 C 581.058 1.86392 0.300572 0
M  V30 6249 O 580.415 1.36978 1.20596 0
M  V30 6250 C 580.466 3.13155 -1.806 0
M  V30 6251 O 580.187 2.99803 -3.19452 0
M  V30 6252 C 581.688 4.07417 -1.74717 0
M  V30 6253 H 578.908 0.539758 -0.398626 0
M  V30 6254 H 581.452 1.18268 -1.66832 0
M  V30 6255 H 579.607 3.64162 -1.32154 0
M  V30 6256 H 580.021 3.88697 -3.52158 0
M  V30 6257 H 581.495 5.03773 -2.25647 0
M  V30 6258 H 581.972 4.3337 -0.713244 0
M  V30 6259 H 582.578 3.6233 -2.22704 0
M  V30 6260 N 580.893 1.08022 1.14757 0
M  V30 6261 C 582.304 0.829144 1.67279 0
M  V30 6262 C 582.655 -0.644721 1.85305 0
M  V30 6263 O 581.78 -1.49838 1.56133 0
M  V30 6264 C 582.375 1.49855 3.03857 0
M  V30 6265 C 580.934 1.29482 3.53428 0
M  V30 6266 C 580.081 1.56386 2.28995 0
M  V30 6267 H 583.032 1.24134 0.988762 0
M  V30 6268 H 583.053 0.923572 3.69121 0
M  V30 6269 H 582.565 2.57123 2.90705 0
M  V30 6270 H 580.666 0.242669 3.71809 0
M  V30 6271 H 580.779 2.01974 4.34446 0
M  V30 6272 H 579.143 0.985217 2.34874 0
M  V30 6273 H 579.926 2.64851 2.18423 0
M  V30 6274 N 582.371 -1.3172 0.865308 0
M  V30 6275 C 583.334 -2.26918 0.322627 0
M  V30 6276 C 584.334 -1.52031 -0.523751 0
M  V30 6277 O 585.524 -1.70973 -0.333727 0
M  V30 6278 C 582.656 -3.36558 -0.542338 0
M  V30 6279 H 583.849 -2.76432 1.16298 0
M  V30 6280 H 581.402 -1.42573 0.640512 0
M  V30 6281 H 582.137 -2.92329 -1.40407 0
M  V30 6282 H 581.922 -3.92048 0.0636395 0
M  V30 6283 H 583.412 -4.07465 -0.91446 0
M  V30 6284 N 583.85 -0.624285 -1.44708 0
M  V30 6285 C 585.098 -0.125802 -2.01708 0
M  V30 6286 C 585.418 1.2543 -1.49306 0
M  V30 6287 O 584.689 1.83198 -0.693924 0
M  V30 6288 H 583.269 -0.0435161 -0.745731 0
M  V30 6289 H 585.931 -0.809446 -1.77296 0
M  V30 6290 H 585.027 -0.0882734 -3.11975 0
M  V30 6291 N 585.328 1.53329 -0.364422 0
M  V30 6292 C 586.556 2.05657 0.226424 0
M  V30 6293 C 586.971 1.23801 1.42544 0
M  V30 6294 O 586.328 0.27839 1.80364 0
M  V30 6295 C 586.379 3.56125 0.621056 0
M  V30 6296 O 586.1 4.34879 -0.530304 0
M  V30 6297 C 587.601 4.24706 1.27041 0
M  V30 6298 H 584.821 0.669806 0.0400056 0
M  V30 6299 H 587.365 1.97714 -0.522456 0
M  V30 6300 H 585.52 3.64223 1.31985 0
M  V30 6301 H 585.934 5.24073 -0.211546 0
M  V30 6302 H 587.408 5.3131 1.49711 0
M  V30 6303 H 587.885 3.78354 2.23036 0
M  V30 6304 H 588.491 4.20858 0.613079 0
M  V30 6305 N 586.806 0.0935595 1.57322 0
M  V30 6306 C 588.031 -0.582324 1.99057 0
M  V30 6307 C 588.456 -1.61025 0.972242 0
M  V30 6308 O 587.814 -1.81202 -0.0594622 0
M  V30 6309 C 587.862 -1.20799 3.39765 0
M  V30 6310 O 586.966 -2.32382 3.40694 0
M  V30 6311 H 586.307 -0.147884 0.647323 0
M  V30 6312 H 588.837 0.174516 2.03854 0
M  V30 6313 H 588.847 -1.54966 3.77425 0
M  V30 6314 H 587.522 -0.454914 4.13405 0
M  V30 6315 H 586.099 -1.99845 3.14827 0
M  V30 6316 N 588.284 -1.56567 -0.180126 0
M  V30 6317 C 589.232 -1.96632 -1.24251 0
M  V30 6318 C 590.226 -0.853818 -1.46309 0
M  V30 6319 O 591.432 -1.0389 -1.46993 0
M  V30 6320 H 587.807 -0.625476 -0.417473 0
M  V30 6321 H 589.778 -2.85201 -0.877679 0
M  V30 6322 C 588.527 -2.33486 -2.57642 0
M  V30 6323 H 587.85 -3.18626 -2.4149 0
M  V30 6324 H 589.29 -2.65371 -3.30688 0
M  V30 6325 C 587.749 -1.17499 -3.15746 0
M  V30 6326 O 588.279 -0.457956 -3.99081 0
M  V30 6327 N 586.485 -0.94786 -2.74707 0
M  V30 6328 H 586.032 -1.53269 -2.07042 0
M  V30 6329 H 585.99 -0.173626 -3.1392 0
M  V30 6330 N 589.762 0.448376 -1.51087 0
M  V30 6331 C 590.99 1.22143 -1.66999 0
M  V30 6332 C 591.405 1.85283 -0.362699 0
M  V30 6333 O 590.762 1.70236 0.65772 0
M  V30 6334 C 590.813 2.31357 -2.7777 0
M  V30 6335 O 590.534 1.70801 -4.03434 0
M  V30 6336 C 592.035 3.21836 -3.04855 0
M  V30 6337 H 589.255 0.368558 -0.560719 0
M  V30 6338 H 591.799 0.532618 -1.97442 0
M  V30 6339 H 589.954 2.95973 -2.49958 0
M  V30 6340 H 590.368 2.42895 -4.64868 0
M  V30 6341 H 591.842 3.94627 -3.85971 0
M  V30 6342 H 592.319 3.81949 -2.16821 0
M  V30 6343 H 592.925 2.62933 -3.34285 0
M  V30 6344 N 591.24 1.41047 0.703093 0
M  V30 6345 C 592.468 1.4334 1.49202 0
M  V30 6346 C 592.883 0.0365596 1.88765 0
M  V30 6347 O 592.24 -0.942419 1.56284 0
M  V30 6348 C 592.291 2.33538 2.75939 0
M  V30 6349 O 592.012 3.67786 2.38045 0
M  V30 6350 C 593.513 2.44555 3.6974 0
M  V30 6351 H 590.733 0.488472 0.460039 0
M  V30 6352 H 593.277 1.85245 0.86629 0
M  V30 6353 H 591.432 1.94962 3.34766 0
M  V30 6354 H 591.846 4.15816 3.19683 0
M  V30 6355 H 593.32 3.11849 4.55471 0
M  V30 6356 H 593.797 1.47447 4.1371 0
M  V30 6357 H 594.403 2.83735 3.16819 0
M  V30 6358 N 592.718 -0.936591 1.26751 0
M  V30 6359 C 593.943 -1.72288 1.15462 0
M  V30 6360 C 594.368 -1.85915 -0.285887 0
M  V30 6361 O 593.726 -1.35272 -1.20711 0
M  V30 6362 C 593.774 -3.10503 1.83359 0
M  V30 6363 O 592.878 -3.96745 1.1255 0
M  V30 6364 H 592.219 -0.52843 0.402067 0
M  V30 6365 H 594.749 -1.17271 1.67656 0
M  V30 6366 H 594.759 -3.60867 1.90365 0
M  V30 6367 H 593.434 -2.99901 2.88153 0
M  V30 6368 H 592.011 -3.55191 1.13551 0
M  V30 6369 N 594.196 -1.08629 -1.14182 0
M  V30 6370 C 595.442 -0.818556 -1.85546 0
M  V30 6371 C 595.775 0.654076 -1.82854 0
M  V30 6372 O 595.05 1.48099 -1.26083 0
M  V30 6373 C 595.333 -1.34397 -3.3408 0
M  V30 6374 C 595.186 -2.8821 -3.45333 0
M  V30 6375 C 596.505 -0.971069 -4.29253 0
M  V30 6376 H 593.624 -0.298821 -0.673702 0
M  V30 6377 H 596.266 -1.34629 -1.34071 0
M  V30 6378 H 594.416 -0.895064 -3.78049 0
M  V30 6379 H 596.088 -3.41488 -3.10134 0
M  V30 6380 H 594.331 -3.25756 -2.86471 0
M  V30 6381 H 595.002 -3.20047 -4.49749 0
M  V30 6382 H 597.478 -1.35809 -3.93313 0
M  V30 6383 H 596.354 -1.36586 -5.31635 0
M  V30 6384 H 596.615 0.121659 -4.41933 0
M  V30 6385 N 595.674 1.31259 -0.872281 0
M  V30 6386 C 596.899 2.0133 -0.498099 0
M  V30 6387 C 597.324 1.65031 0.902568 0
M  V30 6388 O 596.682 0.860164 1.59596 0
M  V30 6389 C 596.73 3.54411 -0.665205 0
M  V30 6390 O 595.834 4.11347 0.294473 0
M  V30 6391 H 595.175 0.633844 -0.197832 0
M  V30 6392 H 597.705 1.67402 -1.17633 0
M  V30 6393 H 597.715 4.04147 -0.559373 0
M  V30 6394 H 596.39 3.80171 -1.68651 0
M  V30 6395 H 594.967 3.72624 0.143403 0
M  V30 6396 N 597.152 0.631951 1.44375 0
M  V30 6397 C 598.398 0.13697 2.02337 0
M  V30 6398 C 598.731 -1.23826 1.49602 0
M  V30 6399 O 598.006 -1.8221 0.680415 0
M  V30 6400 C 598.289 0.124536 3.59885 0
M  V30 6401 C 598.142 1.53217 4.229 0
M  V30 6402 C 599.461 -0.550481 4.36644 0
M  V30 6403 H 596.58 0.051247 0.735216 0
M  V30 6404 H 599.222 0.808581 1.71936 0
M  V30 6405 H 597.372 -0.44737 3.85916 0
M  V30 6406 H 599.044 2.15303 4.07973 0
M  V30 6407 H 597.287 2.0858 3.80364 0
M  V30 6408 H 597.958 1.4755 5.31914 0
M  V30 6409 H 600.434 -0.0641154 4.16051 0
M  V30 6410 H 599.31 -0.528371 5.46351 0
M  V30 6411 H 599.571 -1.62097 4.11311 0
M  V30 6412 N 598.631 -1.53133 0.372548 0
M  V30 6413 C 599.578 -2.25951 -0.470631 0
M  V30 6414 C 600.548 -1.26895 -1.07176 0
M  V30 6415 O 601.733 -1.55691 -1.10294 0
M  V30 6416 C 598.873 -3.05726 -1.6008 0
M  V30 6417 C 597.986 -4.19684 -1.02416 0
M  V30 6418 C 597.121 -4.86888 -2.124 0
M  V30 6419 C 596.16 -5.92866 -1.52238 0
M  V30 6420 N 595.297 -6.53732 -2.56084 0
M  V30 6421 H 600.137 -2.97587 0.156816 0
M  V30 6422 H 597.674 -1.4683 0.0891571 0
M  V30 6423 H 599.632 -3.50258 -2.26661 0
M  V30 6424 H 598.262 -2.36331 -2.1988 0
M  V30 6425 H 597.314 -3.79588 -0.248426 0
M  V30 6426 H 598.626 -4.95821 -0.544366 0
M  V30 6427 H 597.78 -5.34638 -2.86787 0
M  V30 6428 H 596.519 -4.10239 -2.63734 0
M  V30 6429 H 595.524 -5.4447 -0.763685 0
M  V30 6430 H 596.749 -6.71439 -1.0172 0
M  V30 6431 H 594.695 -5.79932 -3.06618 0
M  V30 6432 H 594.612 -7.25429 -2.12811 0
M  V30 6433 H 595.88 -7.0613 -3.30152 0
M  V30 6434 N 600.109 -0.101901 -1.5727 0
M  V30 6435 C 601.52 0.426173 -1.81771 0
M  V30 6436 C 601.871 1.67725 -1.01797 0
M  V30 6437 O 600.996 2.14958 -0.249386 0
M  V30 6438 C 601.591 0.779962 -3.297 0
M  V30 6439 C 600.15 1.25275 -3.54941 0
M  V30 6440 C 599.297 0.252814 -2.76145 0
M  V30 6441 H 602.248 -0.32726 -1.55289 0
M  V30 6442 H 602.269 1.63891 -3.43395 0
M  V30 6443 H 601.781 -0.130778 -3.8788 0
M  V30 6444 H 599.882 2.18097 -3.021 0
M  V30 6445 H 599.995 1.20988 -4.63572 0
M  V30 6446 H 598.359 0.736362 -2.43823 0
M  V30 6447 H 599.142 -0.650724 -3.37076 0
M  V30 6448 N 601.587 1.56661 0.17182 0
M  V30 6449 C 602.812 1.86459 0.908165 0
M  V30 6450 C 603.237 0.688181 1.75059 0
M  V30 6451 O 602.595 -0.362753 1.77634 0
M  V30 6452 C 602.643 3.14669 1.76112 0
M  V30 6453 O 601.747 2.96858 2.86268 0
M  V30 6454 H 601.088 0.613318 0.254434 0
M  V30 6455 H 603.618 2.03892 0.170113 0
M  V30 6456 H 603.628 3.46061 2.16115 0
M  V30 6457 H 602.303 3.99905 1.14233 0
M  V30 6458 H 600.88 2.76819 2.49852 0
M  V30 6459 N 603.065 -0.440357 1.51323 0
M  V30 6460 C 603.975 -1.55955 1.75258 0
M  V30 6461 C 604.991 -1.61933 0.636687 0
M  V30 6462 O 606.167 -1.79231 0.918593 0
M  V30 6463 C 603.232 -2.9196 1.86977 0
M  V30 6464 C 602.293 -2.96122 3.10822 0
M  V30 6465 C 601.526 -4.2564 3.21973 0
M  V30 6466 O 601.749 -5.17851 2.39137 0
M  V30 6467 O 600.683 -4.36025 4.14929 0
M  V30 6468 H 604.509 -1.38673 2.70191 0
M  V30 6469 H 602.094 -0.623055 1.35788 0
M  V30 6470 H 603.976 -3.72682 1.96688 0
M  V30 6471 H 602.651 -3.09375 0.952307 0
M  V30 6472 H 601.558 -2.14366 3.06591 0
M  V30 6473 H 602.891 -2.83651 4.02247 0
M  V30 6474 N 604.543 -1.41418 -0.695603 0
M  V30 6475 C 605.453 -1.45622 -1.83933 0
M  V30 6476 C 606.469 -0.346825 -1.70508 0
M  V30 6477 O 607.645 -0.59454 -1.92424 0
M  V30 6478 C 604.71 -1.33627 -3.19914 0
M  V30 6479 C 603.771 -2.54882 -3.45447 0
M  V30 6480 C 603.004 -2.43449 -4.7494 0
M  V30 6481 O 603.227 -1.45905 -5.51424 0
M  V30 6482 O 602.161 -3.33206 -5.01256 0
M  V30 6483 H 605.987 -2.42114 -1.83342 0
M  V30 6484 H 603.572 -1.22956 -0.848658 0
M  V30 6485 H 605.454 -1.29221 -4.01098 0
M  V30 6486 H 604.129 -0.402508 -3.21188 0
M  V30 6487 H 603.036 -2.64865 -2.64192 0
M  V30 6488 H 604.369 -3.47087 -3.48987 0
M  V30 6489 N 606.021 0.929856 -1.27246 0
M  V30 6490 C 606.968 2.03017 -1.09785 0
M  V30 6491 C 607.938 1.661 0.000456744 0
M  V30 6492 O 609.123 1.90116 -0.161462 0
M  V30 6493 C 606.263 3.36878 -0.748816 0
M  V30 6494 C 605.376 3.86763 -1.92453 0
M  V30 6495 C 604.511 5.09061 -1.51758 0
M  V30 6496 C 603.55 5.51237 -2.66091 0
M  V30 6497 N 602.687 6.64732 -2.25999 0
M  V30 6498 H 607.527 2.17285 -2.03939 0
M  V30 6499 H 605.064 1.06448 -1.01524 0
M  V30 6500 H 607.022 4.13855 -0.527283 0
M  V30 6501 H 605.652 3.22424 0.155771 0
M  V30 6502 H 604.704 3.06086 -2.25867 0
M  V30 6503 H 606.016 4.13994 -2.78227 0
M  V30 6504 H 605.17 5.93532 -1.25716 0
M  V30 6505 H 603.909 4.83602 -0.630896 0
M  V30 6506 H 602.914 4.65316 -2.92849 0
M  V30 6507 H 604.139 5.78692 -3.55377 0
M  V30 6508 H 602.085 6.40935 -1.3978 0
M  V30 6509 H 602.002 6.91607 -3.05313 0
M  V30 6510 H 603.27 7.52549 -2.03199 0
M  V30 6511 N 607.499 1.09233 1.13605 0
M  V30 6512 C 608.727 0.848908 1.88683 0
M  V30 6513 C 609.142 -0.599667 1.79024 0
M  V30 6514 O 608.499 -1.41265 1.15544 0
M  V30 6515 C 608.55 1.27273 3.38355 0
M  V30 6516 O 608.271 2.66449 3.47759 0
M  V30 6517 C 609.772 1.0614 4.30406 0
M  V30 6518 H 606.992 0.305549 0.597395 0
M  V30 6519 H 609.536 1.4538 1.43823 0
M  V30 6520 H 607.691 0.711776 3.80805 0
M  V30 6521 H 608.105 2.84264 4.40788 0
M  V30 6522 H 609.579 1.40725 5.33761 0
M  V30 6523 H 610.056 -0.000960332 4.392 0
M  V30 6524 H 610.662 1.60821 3.93722 0
M  V30 6525 N 608.977 -1.30795 0.87923 0
M  V30 6526 C 610.202 -2.01063 0.508769 0
M  V30 6527 C 610.627 -1.65508 -0.893803 0
M  V30 6528 O 609.985 -0.868616 -1.59138 0
M  V30 6529 C 610.033 -3.54054 0.683991 0
M  V30 6530 O 609.137 -4.11498 -0.272654 0
M  V30 6531 H 608.478 -0.632786 0.201191 0
M  V30 6532 H 611.008 -1.66776 1.18519 0
M  V30 6533 H 611.018 -4.03845 0.580798 0
M  V30 6534 H 609.693 -3.79271 1.70665 0
M  V30 6535 H 608.27 -3.72695 -0.12364 0
M  V30 6536 N 610.455 -0.639598 -1.44038 0
M  V30 6537 C 611.365 0.0612377 -2.3452 0
M  V30 6538 C 612.381 0.826717 -1.53106 0
M  V30 6539 O 613.557 0.777059 -1.85806 0
M  V30 6540 C 610.622 1.02492 -3.31204 0
M  V30 6541 C 609.683 0.25788 -4.28525 0
M  V30 6542 C 608.916 1.17566 -5.2059 0
M  V30 6543 O 609.139 2.41461 -5.16771 0
M  V30 6544 O 608.073 0.655407 -5.98321 0
M  V30 6545 H 611.899 -0.68318 -2.95916 0
M  V30 6546 H 609.484 -0.399784 -1.43952 0
M  V30 6547 H 611.366 1.57911 -3.90694 0
M  V30 6548 H 610.041 1.7498 -2.7233 0
M  V30 6549 H 608.948 -0.339566 -3.72556 0
M  V30 6550 H 610.281 -0.427154 -4.90343 0
M  V30 6551 N 611.933 1.52934 -0.380664 0
M  V30 6552 C 613.158 2.06363 0.207157 0
M  V30 6553 C 613.583 1.25122 1.4045 0
M  V30 6554 O 612.941 0.274062 1.79217 0
M  V30 6555 C 612.989 3.56162 0.563996 0
M  V30 6556 O 612.093 3.77552 1.65917 0
M  V30 6557 H 611.434 0.663468 0.0265859 0
M  V30 6558 H 613.964 1.9719 -0.545635 0
M  V30 6559 H 613.974 3.99453 0.830752 0
M  V30 6560 H 612.649 4.14732 -0.311427 0
M  V30 6561 H 611.226 3.46154 1.3868 0
M  V30 6562 N 613.412 0.11024 1.57214 0
M  V30 6563 C 614.359 -0.843195 2.14846 0
M  V30 6564 C 615.329 -1.26954 1.07107 0
M  V30 6565 O 616.514 -1.34861 1.34971 0
M  V30 6566 C 613.654 -2.09123 2.74521 0
M  V30 6567 C 612.767 -1.71404 3.96541 0
M  V30 6568 C 611.902 -2.91107 4.44331 0
M  V30 6569 C 610.941 -2.49586 5.58903 0
M  V30 6570 N 610.078 -3.62175 6.01477 0
M  V30 6571 H 614.918 -0.344886 2.95998 0
M  V30 6572 H 612.455 -0.15855 1.46243 0
M  V30 6573 H 614.413 -2.82234 3.07246 0
M  V30 6574 H 613.043 -2.56427 1.96074 0
M  V30 6575 H 612.095 -0.88201 3.70033 0
M  V30 6576 H 613.407 -1.36884 4.7965 0
M  V30 6577 H 612.561 -3.72454 4.78919 0
M  V30 6578 H 611.3 -3.28848 3.60153 0
M  V30 6579 H 610.305 -1.6667 5.23929 0
M  V30 6580 H 611.53 -2.12973 6.4484 0
M  V30 6581 H 609.476 -3.99605 5.20242 0
M  V30 6582 H 609.393 -3.3155 6.79419 0
M  V30 6583 H 610.661 -4.43987 6.407 0
M  V30 6584 N 614.89 -1.56749 -0.16351 0
M  V30 6585 C 615.837 -1.97011 -1.2023 0
M  V30 6586 C 616.807 -0.835186 -1.43575 0
M  V30 6587 O 617.992 -1.09594 -1.56185 0
M  V30 6588 C 615.132 -2.34186 -2.53478 0
M  V30 6589 C 614.245 -3.60893 -2.37446 0
M  V30 6590 C 613.38 -3.87245 -3.63614 0
M  V30 6591 C 612.419 -5.07274 -3.42548 0
M  V30 6592 N 611.556 -5.29719 -4.60806 0
M  V30 6593 H 616.396 -2.85562 -0.851958 0
M  V30 6594 H 613.933 -1.41292 -0.409257 0
M  V30 6595 H 615.891 -2.53764 -3.31149 0
M  V30 6596 H 614.521 -1.48736 -2.86492 0
M  V30 6597 H 613.573 -3.49185 -1.50911 0
M  V30 6598 H 614.885 -4.48722 -2.1783 0
M  V30 6599 H 614.039 -4.07232 -4.49719 0
M  V30 6600 H 612.778 -2.97806 -3.86216 0
M  V30 6601 H 611.783 -4.87177 -2.5483 0
M  V30 6602 H 613.008 -5.98251 -3.2136 0
M  V30 6603 H 610.954 -4.43233 -4.83612 0
M  V30 6604 H 610.871 -6.11786 -4.44132 0
M  V30 6605 H 612.139 -5.54192 -5.48171 0
M  V30 6606 N 616.368 0.432326 -1.51554 0
M  V30 6607 C 617.596 1.20364 -1.68286 0
M  V30 6608 C 618.011 1.84888 -0.38233 0
M  V30 6609 O 617.368 1.70924 0.639627 0
M  V30 6610 C 617.419 2.28398 -2.80208 0
M  V30 6611 O 617.14 1.66512 -4.05223 0
M  V30 6612 C 618.641 3.18584 -3.08251 0
M  V30 6613 H 615.861 0.36259 -0.564596 0
M  V30 6614 H 618.405 0.511647 -1.97996 0
M  V30 6615 H 616.56 2.93305 -2.53083 0
M  V30 6616 H 616.974 2.37951 -4.67418 0
M  V30 6617 H 618.448 3.90511 -3.90135 0
M  V30 6618 H 618.925 3.79628 -2.2086 0
M  V30 6619 H 619.531 2.59372 -3.37055 0
M  V30 6620 N 617.846 1.41785 0.688094 0
M  V30 6621 C 619.076 1.44705 1.47459 0
M  V30 6622 C 619.484 0.052916 1.89126 0
M  V30 6623 O 618.827 -0.939781 1.57841 0
M  V30 6624 C 618.889 2.29935 2.76352 0
M  V30 6625 C 618.553 3.77996 2.56843 0
M  V30 6626 C 619.55 4.69976 2.22304 0
M  V30 6627 C 617.235 4.2212 2.7225 0
M  V30 6628 C 619.229 6.04068 2.03421 0
M  V30 6629 C 616.916 5.56275 2.52985 0
M  V30 6630 C 617.914 6.47065 2.18621 0
M  V30 6631 O 617.602 7.78744 1.9953 0
M  V30 6632 H 617.334 0.494703 0.460701 0
M  V30 6633 H 619.888 1.86802 0.854057 0
M  V30 6634 H 618.118 1.82664 3.40839 0
M  V30 6635 H 619.807 2.24467 3.38186 0
M  V30 6636 H 620.573 4.37175 2.10008 0
M  V30 6637 H 616.452 3.51752 2.97979 0
M  V30 6638 H 619.996 6.74897 1.76523 0
M  V30 6639 H 615.893 5.88653 2.64873 0
M  V30 6640 H 616.661 7.89966 2.14234 0
M  V30 6641 N 619.324 -0.923095 1.27737 0
M  V30 6642 C 620.272 -2.04567 1.10703 0
M  V30 6643 C 621.266 -1.69375 0.0288445 0
M  V30 6644 O 622.472 -1.79027 0.186913 0
M  V30 6645 H 618.847 -0.670109 0.34126 0
M  V30 6646 H 620.818 -2.1608 2.05796 0
M  V30 6647 C 619.567 -3.38934 0.775837 0
M  V30 6648 H 618.89 -3.66501 1.59741 0
M  V30 6649 H 620.33 -4.18239 0.696548 0
M  V30 6650 C 618.789 -3.32863 -0.520012 0
M  V30 6651 O 619.319 -3.70462 -1.55308 0
M  V30 6652 N 617.525 -2.85958 -0.51732 0
M  V30 6653 H 617.072 -2.55557 0.32379 0
M  V30 6654 H 617.03 -2.82279 -1.38441 0
M  V30 6655 N 620.802 -1.09834 -1.13024 0
M  V30 6656 C 622.027 -0.85909 -1.88771 0
M  V30 6657 C 622.452 0.584402 -1.78791 0
M  V30 6658 O 621.81 1.41101 -1.13842 0
M  V30 6659 C 621.858 -1.30427 -3.36186 0
M  V30 6660 O 620.962 -0.465368 -4.09766 0
M  V30 6661 H 620.303 -0.310786 -0.586778 0
M  V30 6662 H 622.833 -1.46355 -1.42973 0
M  V30 6663 H 622.843 -1.2915 -3.8702 0
M  V30 6664 H 621.518 -2.3555 -3.42767 0
M  V30 6665 H 620.095 -0.542814 -3.68928 0
M  V30 6666 N 622.28 1.30327 -0.886154 0
M  V30 6667 C 623.529 1.95373 -0.501243 0
M  V30 6668 C 623.842 1.70722 0.954634 0
M  V30 6669 O 625.048 2.29761 1.44644 0
M  V30 6670 C 623.504 3.49828 -0.845493 0
M  V30 6671 C 623.112 3.83296 -2.31922 0
M  V30 6672 C 624.856 4.2118 -0.529838 0
M  V30 6673 C 622.763 5.30935 -2.60504 0
M  V30 6674 H 621.693 0.731274 -0.183722 0
M  V30 6675 H 624.344 1.48258 -1.08129 0
M  V30 6676 H 622.726 3.95522 -0.19452 0
M  V30 6677 H 623.9 3.48508 -3.01461 0
M  V30 6678 H 622.215 3.2505 -2.60253 0
M  V30 6679 H 624.812 5.29825 -0.720401 0
M  V30 6680 H 625.155 4.12902 0.530828 0
M  V30 6681 H 625.688 3.81173 -1.13806 0
M  V30 6682 H 622.427 5.44265 -3.65316 0
M  V30 6683 H 621.947 5.67019 -1.95575 0
M  V30 6684 H 623.626 5.98381 -2.46066 0
M  V30 6685 N 623.758 0.647228 1.43697 0
M  V30 6686 C 624.983 0.164083 2.0675 0
M  V30 6687 C 625.408 -1.15892 1.48158 0
M  V30 6688 O 624.766 -1.71459 0.589194 0
M  V30 6689 C 624.814 0.0800368 3.60511 0
M  V30 6690 O 623.918 -0.959453 4.01084 0
M  V30 6691 H 623.259 0.0921288 0.657578 0
M  V30 6692 H 625.789 0.88846 1.84303 0
M  V30 6693 H 625.799 -0.105263 4.07864 0
M  V30 6694 H 624.474 1.04586 4.02535 0
M  V30 6695 H 623.051 -0.747425 3.65333 0
M  V30 6696 N 625.236 -1.5273 0.388769 0
M  V30 6697 C 626.183 -2.26437 -0.446639 0
M  V30 6698 C 627.153 -1.28025 -1.05824 0
M  V30 6699 O 628.338 -1.56852 -1.08637 0
M  V30 6700 C 625.478 -3.07407 -1.56828 0
M  V30 6701 C 624.591 -4.20747 -0.979589 0
M  V30 6702 C 623.726 -4.89113 -2.07224 0
M  V30 6703 C 622.765 -5.94447 -1.45942 0
M  V30 6704 N 621.902 -6.56411 -2.49135 0
M  V30 6705 H 626.742 -2.97404 0.18837 0
M  V30 6706 H 624.279 -1.46727 0.104725 0
M  V30 6707 H 626.237 -3.52642 -2.22934 0
M  V30 6708 H 624.867 -2.3865 -2.17361 0
M  V30 6709 H 623.919 -3.7983 -0.208151 0
M  V30 6710 H 625.231 -4.9637 -0.491747 0
M  V30 6711 H 624.385 -5.3765 -2.81101 0
M  V30 6712 H 623.124 -4.13013 -2.59368 0
M  V30 6713 H 622.129 -5.4525 -0.705894 0
M  V30 6714 H 623.354 -6.7248 -0.945932 0
M  V30 6715 H 621.3 -5.83152 -3.00449 0
M  V30 6716 H 621.217 -7.27645 -2.05105 0
M  V30 6717 H 622.485 -7.09592 -3.22644 0
M  V30 6718 N 626.714 -0.118576 -1.57153 0
M  V30 6719 C 627.963 0.539339 -1.94355 0
M  V30 6720 C 628.276 1.67858 -1.00415 0
M  V30 6721 O 629.482 2.39922 -1.27081 0
M  V30 6722 C 627.938 1.01082 -3.45414 0
M  V30 6723 C 627.546 -0.0999402 -4.47889 0
M  V30 6724 C 629.29 1.64013 -3.91535 0
M  V30 6725 C 627.197 0.388212 -5.90124 0
M  V30 6726 H 626.127 0.205247 -0.725527 0
M  V30 6727 H 628.778 -0.19836 -1.82425 0
M  V30 6728 H 627.16 1.80292 -3.52577 0
M  V30 6729 H 628.334 -0.876189 -4.52393 0
M  V30 6730 H 626.649 -0.635885 -4.11516 0
M  V30 6731 H 629.246 2.01649 -4.95219 0
M  V30 6732 H 629.589 2.51836 -3.31488 0
M  V30 6733 H 630.122 0.913439 -3.87171 0
M  V30 6734 H 626.861 -0.453963 -6.53926 0
M  V30 6735 H 626.381 1.13095 -5.89041 0
M  V30 6736 H 628.06 0.849574 -6.41398 0
M  V30 6737 N 628.193 1.56834 0.155195 0
M  V30 6738 C 629.47 1.73799 0.897395 0
M  V30 6739 C 629.85 0.684379 1.99698 0
M  V30 6740 O 629.198 -0.298111 2.26547 0
M  V30 6741 C 629.408 3.17572 1.44737 0
M  V30 6742 C 630.756 3.79014 1.91399 0
M  V30 6743 O 631.78 3.20951 1.54496 0
M  V30 6744 O 630.639 4.80998 2.59429 0
M  V30 6745 H 627.733 0.710329 0.423511 0
M  V30 6746 H 630.279 1.69107 0.141761 0
M  V30 6747 H 629.051 3.85749 0.656741 0
M  V30 6748 H 628.674 3.26657 2.26674 0
M  V30 6749 N 629.671 -0.424282 1.51781 0
M  V30 6750 C 630.618 -1.51591 1.74037 0
M  V30 6751 C 631.588 -1.55556 0.582358 0
M  V30 6752 O 632.773 -1.72364 0.818245 0
M  V30 6753 C 629.913 -2.89188 1.8832 0
M  V30 6754 C 629.026 -2.9465 3.1592 0
M  V30 6755 C 628.161 -4.23452 3.20721 0
M  V30 6756 C 627.2 -4.22831 4.42584 0
M  V30 6757 N 626.337 -5.43178 4.44862 0
M  V30 6758 H 631.177 -1.31917 2.67212 0
M  V30 6759 H 628.714 -0.640599 1.32419 0
M  V30 6760 H 630.672 -3.69044 1.94583 0
M  V30 6761 H 629.302 -3.07392 0.985402 0
M  V30 6762 H 628.354 -2.07378 3.18902 0
M  V30 6763 H 629.666 -2.90055 4.05795 0
M  V30 6764 H 628.82 -5.1169 3.25973 0
M  V30 6765 H 627.559 -4.30722 2.28757 0
M  V30 6766 H 626.564 -3.32984 4.37495 0
M  V30 6767 H 627.789 -4.17213 5.35826 0
M  V30 6768 H 625.735 -5.51145 3.55775 0
M  V30 6769 H 625.652 -5.40515 5.28563 0
M  V30 6770 H 626.92 -6.33412 4.54324 0
M  V30 6771 N 631.149 -1.42148 -0.680565 0
M  V30 6772 C 632.082 -1.39602 -1.80517 0
M  V30 6773 C 633.06 -0.261098 -1.6049 0
M  V30 6774 O 634.244 -0.450404 -1.8304 0
M  V30 6775 C 631.371 -1.18134 -3.1743 0
M  V30 6776 C 630.417 -2.34543 -3.56219 0
M  V30 6777 S 631.25 -3.97063 -3.59306 0
M  V30 6778 C 632.406 -3.77926 -4.98921 0
M  V30 6779 H 632.639 -2.3477 -1.82402 0
M  V30 6780 H 630.172 -1.28851 -0.850691 0
M  V30 6781 H 632.13 -1.06434 -3.96462 0
M  V30 6782 H 630.791 -0.245611 -3.13138 0
M  V30 6783 H 629.984 -2.15255 -4.55721 0
M  V30 6784 H 629.586 -2.42728 -2.84533 0
M  V30 6785 H 631.878 -3.3856 -5.86842 0
M  V30 6786 H 632.821 -4.77084 -5.23256 0
M  V30 6787 H 633.229 -3.10904 -4.71167 0
M  V30 6788 N 632.627 0.916307 -1.28225 0
M  V30 6789 C 633.852 1.7043 -1.18188 0
M  V30 6790 C 634.277 1.86346 0.256274 0
M  V30 6791 O 633.635 1.37175 1.18544 0
M  V30 6792 C 633.683 3.07546 -1.88275 0
M  V30 6793 O 632.787 3.94904 -1.18848 0
M  V30 6794 H 632.128 0.521967 -0.410423 0
M  V30 6795 H 634.658 1.14589 -1.69501 0
M  V30 6796 H 634.668 3.57793 -1.96082 0
M  V30 6797 H 633.343 2.95279 -2.92887 0
M  V30 6798 H 631.92 3.53339 -1.19187 0
M  V30 6799 N 634.105 1.10431 1.1244 0
M  V30 6800 C 635.521 0.836096 1.35947 0
M  V30 6801 C 635.721 -0.544475 1.94004 0
M  V30 6802 O 634.777 -1.29735 2.16622 0
M  V30 6803 C 636.09 1.93575 2.30107 0
M  V30 6804 C 637.638 1.9642 2.43697 0
M  V30 6805 C 638.113 3.05559 3.41171 0
M  V30 6806 N 639.604 3.04865 3.48728 0
M  V30 6807 C 640.339 3.85954 4.24061 0
M  V30 6808 N 639.835 4.76977 5.02458 0
M  V30 6809 N 641.628 3.74172 4.19466 0
M  V30 6810 H 633.779 1.9942 0.731124 0
M  V30 6811 H 636.042 0.866607 0.384312 0
M  V30 6812 H 635.748 2.92943 1.94621 0
M  V30 6813 H 635.622 1.8229 3.30227 0
M  V30 6814 H 638.009 0.97685 2.78463 0
M  V30 6815 H 638.09 2.11782 1.43465 0
M  V30 6816 H 637.734 4.04513 3.07135 0
M  V30 6817 H 637.664 2.87438 4.41234 0
M  V30 6818 H 640.155 2.38908 2.92799 0
M  V30 6819 H 640.468 5.35409 5.57277 0
M  V30 6820 H 638.813 4.81006 5.01655 0
M  V30 6821 H 642.004 3.02412 3.57302 0
M  V30 6822 H 642.177 4.37602 4.77921 0
M  V30 6823 N 635.583 -1.29855 0.893053 0
M  V30 6824 C 636.832 -1.95104 0.511597 0
M  V30 6825 C 637.145 -1.71226 -0.945567 0
M  V30 6826 O 638.351 -2.30525 -1.43424 0
M  V30 6827 C 636.807 -3.49374 0.864034 0
M  V30 6828 C 636.415 -3.82061 2.33952 0
M  V30 6829 C 638.159 -4.20894 0.552167 0
M  V30 6830 C 636.066 -5.29546 2.63316 0
M  V30 6831 H 634.996 -0.73029 0.187597 0
M  V30 6832 H 637.647 -1.47682 1.08914 0
M  V30 6833 H 636.029 -3.95413 0.215493 0
M  V30 6834 H 637.203 -3.46904 3.03305 0
M  V30 6835 H 635.518 -3.23665 2.61973 0
M  V30 6836 H 638.115 -5.29435 0.748489 0
M  V30 6837 H 638.458 -4.13178 -0.508924 0
M  V30 6838 H 638.991 -3.80564 1.15825 0
M  V30 6839 H 635.73 -5.4232 3.68197 0
M  V30 6840 H 635.25 -5.65974 1.9858 0
M  V30 6841 H 636.929 -5.97068 2.49236 0
M  V30 6842 N 637.061 -0.65484 -1.43351 0
M  V30 6843 C 638.307 -0.169142 -2.02093 0
M  V30 6844 C 638.64 1.21431 -1.51553 0
M  V30 6845 O 637.915 1.81105 -0.709317 0
M  V30 6846 C 638.198 -0.181775 -3.59641 0
M  V30 6847 C 638.051 -1.59926 -4.20409 0
M  V30 6848 C 639.37 0.480945 -4.37464 0
M  V30 6849 H 636.489 -0.0629371 -0.734308 0
M  V30 6850 H 639.131 -0.835833 -1.70628 0
M  V30 6851 H 637.281 0.385918 -3.86578 0
M  V30 6852 H 638.953 -2.21766 -4.04497 0
M  V30 6853 H 637.196 -2.14605 -3.76998 0
M  V30 6854 H 637.867 -1.55994 -5.295 0
M  V30 6855 H 640.343 -0.00208273 -4.161 0
M  V30 6856 H 639.219 0.441384 -5.47122 0
M  V30 6857 H 639.48 1.55533 -4.13838 0
M  V30 6858 N 638.539 1.52521 -0.396863 0
M  V30 6859 C 639.786 2.01672 0.182898 0
M  V30 6860 C 640.114 1.28302 1.46181 0
M  V30 6861 O 639.369 0.374118 1.92091 0
M  V30 6862 C 639.668 3.5403 0.489677 0
M  V30 6863 C 639.334 4.45456 -0.698581 0
M  V30 6864 C 637.996 4.70166 -1.02454 0
M  V30 6865 C 640.348 4.99354 -1.49316 0
M  V30 6866 C 637.676 5.46024 -2.1465 0
M  V30 6867 C 640.028 5.76439 -2.60579 0
M  V30 6868 C 638.692 5.99426 -2.93675 0
M  V30 6869 H 637.962 0.737971 0.066927 0
M  V30 6870 H 640.609 1.83853 -0.535764 0
M  V30 6871 H 638.914 3.69963 1.28976 0
M  V30 6872 H 640.611 3.8956 0.951018 0
M  V30 6873 H 637.201 4.26392 -0.434525 0
M  V30 6874 H 641.385 4.80182 -1.25457 0
M  V30 6875 H 636.641 5.62046 -2.40654 0
M  V30 6876 H 640.815 6.17202 -3.22544 0
M  V30 6877 H 638.442 6.57988 -3.80731 0
M  V30 6878 N 640.017 0.126909 1.57088 0
M  V30 6879 C 641.428 -0.397201 1.82426 0
M  V30 6880 C 641.779 -1.66084 1.04453 0
M  V30 6881 O 640.904 -2.14534 0.283552 0
M  V30 6882 C 641.499 -0.727411 3.30899 0
M  V30 6883 C 640.058 -1.19612 3.56889 0
M  V30 6884 C 639.205 -0.20885 2.76512 0
M  V30 6885 H 642.156 0.351924 1.54749 0
M  V30 6886 H 642.177 -1.58407 3.45959 0
M  V30 6887 H 641.689 0.19247 3.87622 0
M  V30 6888 H 639.79 -2.13263 3.05532 0
M  V30 6889 H 639.903 -1.13598 4.65438 0
M  V30 6890 H 638.267 -0.697479 2.44964 0
M  V30 6891 H 639.05 0.704267 3.35998 0
M  V30 6892 N 641.495 -1.56914 -0.146875 0
M  V30 6893 C 642.741 -1.83628 -0.860741 0
M  V30 6894 C 643.074 -0.708528 -1.80813 0
M  V30 6895 O 642.349 0.287838 -1.92358 0
M  V30 6896 C 642.632 -3.20836 -1.63511 0
M  V30 6897 C 642.485 -4.44174 -0.709199 0
M  V30 6898 C 643.804 -3.55268 -2.59756 0
M  V30 6899 H 640.923 -0.667949 -0.311468 0
M  V30 6900 H 643.565 -1.89582 -0.125936 0
M  V30 6901 H 641.715 -3.15891 -2.26153 0
M  V30 6902 H 643.387 -4.61205 -0.0937781 0
M  V30 6903 H 641.63 -4.33796 -0.0187856 0
M  V30 6904 H 642.301 -5.36785 -1.28707 0
M  V30 6905 H 644.777 -3.60824 -2.07232 0
M  V30 6906 H 643.653 -4.52303 -3.10987 0
M  V30 6907 H 643.914 -2.81231 -3.41118 0
M  V30 6908 N 642.974 0.416227 -1.52004 0
M  V30 6909 C 643.904 1.51365 -1.77795 0
M  V30 6910 C 644.885 1.58059 -0.628601 0
M  V30 6911 O 646.07 1.73447 -0.873478 0
M  V30 6912 C 643.2 2.89256 -1.92219 0
M  V30 6913 C 642.154 2.97415 -3.0778 0
M  V30 6914 C 641.48 4.37492 -3.07417 0
M  V30 6915 C 642.78 2.69551 -4.47369 0
M  V30 6916 H 644.474 1.30033 -2.69688 0
M  V30 6917 H 642.02 0.624112 -1.29772 0
M  V30 6918 H 643.973 3.66008 -2.08845 0
M  V30 6919 H 642.697 3.11866 -0.969917 0
M  V30 6920 H 641.356 2.23107 -2.90893 0
M  V30 6921 H 641.004 4.571 -2.09925 0
M  V30 6922 H 640.704 4.43877 -3.85029 0
M  V30 6923 H 642.228 5.16188 -3.26162 0
M  V30 6924 H 643.642 3.36028 -4.64497 0
M  V30 6925 H 642.039 2.87321 -5.26846 0
M  V30 6926 H 643.109 1.65029 -4.55953 0
M  V30 6927 N 644.452 1.42507 0.673017 0
M  V30 6928 C 645.699 1.43072 1.43306 0
M  V30 6929 C 646.027 0.0478004 1.94441 0
M  V30 6930 O 645.282 -0.944106 1.71421 0
M  V30 6931 C 645.581 2.40351 2.64511 0
M  V30 6932 C 645.247 3.8669 2.31908 0
M  V30 6933 C 643.909 4.26551 2.22728 0
M  V30 6934 C 646.261 4.78991 2.05467 0
M  V30 6935 C 643.589 5.56691 1.85234 0
M  V30 6936 C 645.941 6.09476 1.69477 0
M  V30 6937 C 644.605 6.48334 1.58808 0
M  V30 6938 H 643.875 0.523536 0.524395 0
M  V30 6939 H 646.522 1.75459 0.76723 0
M  V30 6940 H 644.827 2.01297 3.36135 0
M  V30 6941 H 646.524 2.38051 3.22696 0
M  V30 6942 H 643.114 3.55132 2.39956 0
M  V30 6943 H 647.298 4.48982 2.11492 0
M  V30 6944 H 642.554 5.85657 1.75545 0
M  V30 6945 H 646.728 6.80482 1.48043 0
M  V30 6946 H 644.355 7.49084 1.29525 0
M  V30 6947 N 645.93 -0.909495 1.28709 0
M  V30 6948 C 647.178 -1.65577 1.15882 0
M  V30 6949 C 647.499 -1.928 -0.292108 0
M  V30 6950 O 646.769 -1.54716 -1.20166 0
M  V30 6951 H 645.349 -0.613714 0.425869 0
M  V30 6952 H 648.011 -1.09108 1.61498 0
M  V30 6953 H 647.107 -2.61634 1.70159 0
M  V30 6954 N 647.408 -1.11026 -1.11852 0
M  V30 6955 C 648.636 -0.878818 -1.87308 0
M  V30 6956 C 649.051 0.57111 -1.79955 0
M  V30 6957 O 648.408 1.39409 -1.17777 0
M  V30 6958 C 648.459 -1.3264 -3.36287 0
M  V30 6959 O 648.18 -2.71948 -3.43476 0
M  V30 6960 C 649.681 -1.12974 -4.28663 0
M  V30 6961 H 646.901 -0.315015 -0.592458 0
M  V30 6962 H 649.445 -1.47649 -1.41492 0
M  V30 6963 H 647.6 -0.772269 -3.79625 0
M  V30 6964 H 648.014 -2.91241 -4.3621 0
M  V30 6965 H 649.488 -1.49198 -5.31454 0
M  V30 6966 H 649.965 -0.0689127 -4.39146 0
M  V30 6967 H 650.571 -1.67064 -3.91113 0
M  V30 6968 N 648.886 1.2938 -0.899927 0
M  V30 6969 C 650.133 1.9555 -0.525963 0
M  V30 6970 C 650.461 1.70945 0.927789 0
M  V30 6971 O 649.716 1.01545 1.67293 0
M  V30 6972 C 650.015 3.49114 -0.765113 0
M  V30 6973 C 649.681 3.93796 -2.19626 0
M  V30 6974 C 648.343 4.05707 -2.58758 0
M  V30 6975 C 650.695 4.16883 -3.12823 0
M  V30 6976 C 648.023 4.38074 -3.90267 0
M  V30 6977 C 650.375 4.50725 -4.4388 0
M  V30 6978 C 649.039 4.60845 -4.82885 0
M  V30 6979 H 648.309 0.715569 -0.192463 0
M  V30 6980 H 650.956 1.53972 -1.13863 0
M  V30 6981 H 649.261 3.91738 -0.069531 0
M  V30 6982 H 650.958 3.98409 -0.455144 0
M  V30 6983 H 647.548 3.85042 -1.88256 0
M  V30 6984 H 651.732 4.07147 -2.83804 0
M  V30 6985 H 646.988 4.44112 -4.20207 0
M  V30 6986 H 651.162 4.67538 -5.16121 0
M  V30 6987 H 648.789 4.85681 -5.84823 0
M  V30 6988 N 650.364 0.662433 1.43002 0
M  V30 6989 C 651.312 -0.035345 2.32573 0
M  V30 6990 C 652.306 -0.803505 1.49131 0
M  V30 6991 O 653.512 -0.712865 1.65282 0
M  V30 6992 H 649.887 -0.0302194 0.751393 0
M  V30 6993 H 651.858 0.737686 2.89138 0
M  V30 6994 C 650.607 -0.981575 3.33557 0
M  V30 6995 H 649.93 -0.399914 3.97795 0
M  V30 6996 H 651.37 -1.43873 3.98844 0
M  V30 6997 C 649.829 -2.08204 2.64863 0
M  V30 6998 O 650.359 -3.16698 2.47113 0
M  V30 6999 N 648.565 -1.85022 2.24088 0
M  V30 7000 H 648.112 -0.967909 2.38724 0
M  V30 7001 H 648.07 -2.58845 1.78457 0
M  V30 7002 N 651.842 -1.52309 0.404946 0
M  V30 7003 C 652.772 -2.29805 -0.41376 0
M  V30 7004 C 653.753 -1.3384 -1.0498 0
M  V30 7005 O 654.938 -1.62745 -1.05961 0
M  V30 7006 C 652.068 -3.11639 -1.53292 0
M  V30 7007 C 651.022 -4.15616 -1.02211 0
M  V30 7008 C 650.348 -4.8577 -2.23455 0
M  V30 7009 C 651.648 -5.2224 -0.0790725 0
M  V30 7010 H 653.342 -2.98493 0.232878 0
M  V30 7011 H 650.888 -1.43552 0.113441 0
M  V30 7012 H 652.841 -3.64618 -2.11262 0
M  V30 7013 H 651.565 -2.40712 -2.20738 0
M  V30 7014 H 650.224 -3.63641 -0.46484 0
M  V30 7015 H 649.872 -4.11376 -2.89445 0
M  V30 7016 H 649.572 -5.56058 -1.89929 0
M  V30 7017 H 651.096 -5.4156 -2.82038 0
M  V30 7018 H 652.51 -5.70485 -0.567438 0
M  V30 7019 H 650.907 -5.99867 0.167167 0
M  V30 7020 H 651.977 -4.77078 0.867447 0
M  V30 7021 N 653.32 -0.135238 -1.57019 0
M  V30 7022 C 654.566 0.519563 -1.96032 0
M  V30 7023 C 654.899 1.65284 -1.01955 0
M  V30 7024 O 654.174 1.94408 -0.059727 0
M  V30 7025 C 654.457 1.0369 -3.44848 0
M  V30 7026 C 654.31 -0.0940754 -4.49702 0
M  V30 7027 C 655.629 1.92254 -3.95887 0
M  V30 7028 H 652.748 0.18739 -0.712779 0
M  V30 7029 H 655.39 -0.214086 -1.8879 0
M  V30 7030 H 653.54 1.66209 -3.5115 0
M  V30 7031 H 655.212 -0.73 -4.55487 0
M  V30 7032 H 653.455 -0.754924 -4.27181 0
M  V30 7033 H 654.126 0.309419 -5.51132 0
M  V30 7034 H 656.602 1.39581 -3.9199 0
M  V30 7035 H 655.478 2.25364 -5.00502 0
M  V30 7036 H 655.739 2.85513 -3.37543 0
M  V30 7037 N 654.798 1.5699 0.138552 0
M  V30 7038 C 656.028 1.87704 0.863184 0
M  V30 7039 C 656.436 0.722411 1.74865 0
M  V30 7040 O 655.779 -0.316636 1.80951 0
M  V30 7041 C 655.841 3.13219 1.76449 0
M  V30 7042 C 655.505 4.44648 1.05532 0
M  V30 7043 C 656.502 5.18318 0.405252 0
M  V30 7044 C 654.187 4.91367 1.04231 0
M  V30 7045 C 656.181 6.36916 -0.24835 0
M  V30 7046 C 653.868 6.09887 0.384904 0
M  V30 7047 C 654.866 6.82508 -0.259292 0
M  V30 7048 O 654.554 7.98775 -0.906258 0
M  V30 7049 H 654.286 0.626255 0.254521 0
M  V30 7050 H 656.84 2.04966 0.133472 0
M  V30 7051 H 655.07 2.91988 2.53535 0
M  V30 7052 H 656.759 3.30111 2.36181 0
M  V30 7053 H 657.525 4.83289 0.407053 0
M  V30 7054 H 653.404 4.34759 1.53315 0
M  V30 7055 H 656.948 6.93538 -0.751755 0
M  V30 7056 H 652.845 6.44376 0.380799 0
M  V30 7057 H 653.613 8.14494 -0.80877 0
M  V30 7058 N 656.276 -0.40816 1.52223 0
M  V30 7059 C 657.522 -1.15347 1.67531 0
M  V30 7060 C 657.877 -1.8818 0.400748 0
M  V30 7061 O 657.17 -1.81803 -0.604845 0
M  V30 7062 C 657.364 -2.17422 2.83659 0
M  V30 7063 C 657.193 -1.54611 4.22286 0
M  V30 7064 C 655.963 -1.31841 4.87797 0
M  V30 7065 C 658.161 -1.00648 5.04355 0
M  V30 7066 N 656.143 -0.649338 6.10456 0
M  V30 7067 C 657.514 -0.464384 6.18258 0
M  V30 7068 C 659.569 -0.901041 4.89679 0
M  V30 7069 C 658.272 0.172825 7.19092 0
M  V30 7070 C 660.298 -0.277684 5.90748 0
M  V30 7071 C 659.66 0.253734 7.03943 0
M  V30 7072 H 655.759 -0.408722 0.666686 0
M  V30 7073 H 658.343 -0.445713 1.8953 0
M  V30 7074 H 656.514 -2.85554 2.63274 0
M  V30 7075 H 658.246 -2.84321 2.87999 0
M  V30 7076 H 655.001 -1.58819 4.46176 0
M  V30 7077 H 655.425 -0.3314 6.76188 0
M  V30 7078 H 660.067 -1.29772 4.02392 0
M  V30 7079 H 657.785 0.581564 8.06005 0
M  V30 7080 H 661.371 -0.197605 5.81464 0
M  V30 7081 H 660.251 0.728482 7.80809 0
M  V30 7082 N 657.755 -1.42862 -0.66545 0
M  V30 7083 C 658.718 -1.46756 -1.76055 0
M  V30 7084 C 659.718 -0.353866 -1.56858 0
M  V30 7085 O 660.908 -0.615099 -1.62979 0
M  V30 7086 C 658.04 -1.30829 -3.14796 0
M  V30 7087 H 659.233 -2.44271 -1.73987 0
M  V30 7088 H 656.786 -1.29447 -0.875965 0
M  V30 7089 H 657.521 -0.342733 -3.22484 0
M  V30 7090 H 657.306 -2.11551 -3.30134 0
M  V30 7091 H 658.796 -1.36458 -3.94676 0
M  V30 7092 N 659.233 0.902656 -1.29189 0
M  V30 7093 C 660.461 1.68639 -1.19869 0
M  V30 7094 C 660.876 1.87254 0.241121 0
M  V30 7095 O 660.233 1.40745 1.16177 0
M  V30 7096 C 660.284 3.07251 -1.90471 0
M  V30 7097 O 660.005 2.89488 -3.28829 0
M  V30 7098 C 661.506 4.01653 -1.8759 0
M  V30 7099 H 658.726 0.526802 -0.415596 0
M  V30 7100 H 661.27 1.12901 -1.7051 0
M  V30 7101 H 659.425 3.59774 -1.43672 0
M  V30 7102 H 659.839 3.77296 -3.64346 0
M  V30 7103 H 661.313 4.96339 -2.4156 0
M  V30 7104 H 661.79 4.30881 -0.850756 0
M  V30 7105 H 662.396 3.55061 -2.34119 0
M  V30 7106 N 660.711 1.11618 1.11262 0
M  V30 7107 C 661.941 0.88745 1.86569 0
M  V30 7108 C 662.349 -0.56636 1.80524 0
M  V30 7109 O 661.692 -1.40289 1.18594 0
M  V30 7110 C 661.754 1.27313 3.36202 0
M  V30 7111 C 661.418 2.73649 3.66013 0
M  V30 7112 C 662.415 3.71863 3.63337 0
M  V30 7113 C 660.1 3.10342 3.9496 0
M  V30 7114 C 662.094 5.04788 3.89188 0
M  V30 7115 C 659.781 4.43451 4.20469 0
M  V30 7116 C 660.779 5.40484 4.17572 0
M  V30 7117 O 660.467 6.71195 4.42439 0
M  V30 7118 H 660.199 0.317543 0.596777 0
M  V30 7119 H 662.753 1.48768 1.41624 0
M  V30 7120 H 660.983 0.616062 3.81761 0
M  V30 7121 H 662.672 1.01991 3.92877 0
M  V30 7122 H 663.438 3.44861 3.41022 0
M  V30 7123 H 659.317 2.35431 3.9635 0
M  V30 7124 H 662.861 5.80516 3.86842 0
M  V30 7125 H 658.758 4.70187 4.42261 0
M  V30 7126 H 659.526 6.77012 4.59997 0
M  V30 7127 N 662.189 -1.289 0.906776 0
M  V30 7128 C 663.119 -2.29932 0.406659 0
M  V30 7129 C 664.1 -1.6189 -0.522061 0
M  V30 7130 O 665.285 -1.8935 -0.431283 0
M  V30 7131 C 662.415 -3.45425 -0.360366 0
M  V30 7132 C 661.369 -4.25316 0.478574 0
M  V30 7133 C 660.695 -5.33076 -0.416373 0
M  V30 7134 C 661.995 -4.92739 1.7322 0
M  V30 7135 H 663.689 -2.72013 1.25097 0
M  V30 7136 H 661.235 -1.30768 0.602977 0
M  V30 7137 H 663.188 -4.15186 -0.721029 0
M  V30 7138 H 661.912 -3.02206 -1.23852 0
M  V30 7139 H 660.571 -3.57273 0.821662 0
M  V30 7140 H 660.219 -4.86101 -1.29287 0
M  V30 7141 H 659.919 -5.8743 0.141309 0
M  V30 7142 H 661.443 -6.05686 -0.773072 0
M  V30 7143 H 662.857 -5.54898 1.44086 0
M  V30 7144 H 661.254 -5.57057 2.23175 0
M  V30 7145 H 662.324 -4.17625 2.46408 0
M  V30 7146 N 663.667 -0.670007 -1.42649 0
M  V30 7147 C 664.615 0.0230106 -2.32589 0
M  V30 7148 C 665.609 0.795585 -1.49555 0
M  V30 7149 O 666.815 0.70409 -1.65658 0
M  V30 7150 H 663.19 0.0262342 -0.751542 0
M  V30 7151 H 665.161 -0.753009 -2.88743 0
M  V30 7152 C 663.91 0.963872 -3.34073 0
M  V30 7153 H 663.233 0.378813 -3.98001 0
M  V30 7154 H 664.673 1.41755 -3.99602 0
M  V30 7155 C 663.132 2.06797 -2.65964 0
M  V30 7156 O 663.662 3.15383 -2.48789 0
M  V30 7157 N 661.868 1.83831 -2.25066 0
M  V30 7158 H 661.415 0.955235 -2.39234 0
M  V30 7159 H 661.373 2.57895 -1.79827 0
M  V30 7160 N 665.145 1.52092 -0.413018 0
M  V30 7161 C 666.561 1.59471 -0.0640836 0
M  V30 7162 C 666.761 1.42562 1.42402 0
M  V30 7163 O 665.817 1.25453 2.19129 0
M  V30 7164 C 667.13 2.95392 -0.562474 0
M  V30 7165 C 668.678 3.08637 -0.520788 0
M  V30 7166 C 669.153 4.47044 -0.995752 0
M  V30 7167 N 670.644 4.53296 -0.952732 0
M  V30 7168 C 671.379 5.58669 -1.29138 0
M  V30 7169 N 670.875 6.71576 -1.70168 0
M  V30 7170 N 672.668 5.48898 -1.2111 0
M  V30 7171 H 664.819 1.6133 -1.38153 0
M  V30 7172 H 667.082 0.75916 -0.567785 0
M  V30 7173 H 666.788 3.13059 -1.60271 0
M  V30 7174 H 666.662 3.77191 0.0257875 0
M  V30 7175 H 669.049 2.90652 0.510412 0
M  V30 7176 H 669.13 2.28735 -1.14515 0
M  V30 7177 H 668.774 4.65773 -2.0253 0
M  V30 7178 H 668.704 5.25448 -0.348162 0
M  V30 7179 H 671.195 3.72248 -0.651119 0
M  V30 7180 H 671.508 7.47973 -1.9431 0
M  V30 7181 H 669.853 6.72847 -1.74075 0
M  V30 7182 H 673.044 4.59573 -0.889396 0
M  V30 7183 H 673.217 6.30912 -1.47833 0
M  V30 7184 N 666.623 0.143563 1.56945 0
M  V30 7185 C 667.533 -0.810562 2.20152 0
M  V30 7186 C 668.549 -1.27431 1.1848 0
M  V30 7187 O 669.725 -1.33221 1.51044 0
M  V30 7188 C 666.79 -2.03353 2.80799 0
M  V30 7189 C 665.851 -1.61936 3.97587 0
M  V30 7190 C 665.084 -2.78403 4.55332 0
M  V30 7191 O 665.307 -3.94521 4.11958 0
M  V30 7192 O 664.241 -2.54073 5.45647 0
M  V30 7193 H 668.067 -0.30253 3.02189 0
M  V30 7194 H 665.652 -0.0832925 1.49168 0
M  V30 7195 H 667.534 -2.74932 3.19359 0
M  V30 7196 H 666.209 -2.53116 2.01777 0
M  V30 7197 H 665.116 -0.873904 3.6375 0
M  V30 7198 H 666.449 -1.16892 4.78118 0
M  V30 7199 N 668.101 -1.57061 -0.130224 0
M  V30 7200 C 669.512 -1.73539 -0.68856 0
M  V30 7201 C 669.863 -0.760554 -1.80859 0
M  V30 7202 O 668.988 0.0690796 -2.1629 0
M  V30 7203 C 669.583 -3.14666 -1.25581 0
M  V30 7204 C 668.142 -3.32689 -1.76055 0
M  V30 7205 C 667.289 -2.69436 -0.655712 0
M  V30 7206 H 670.24 -1.58412 0.0956002 0
M  V30 7207 H 670.261 -3.15595 -2.12556 0
M  V30 7208 H 669.773 -3.85593 -0.440412 0
M  V30 7209 H 667.874 -2.66786 -2.60108 0
M  V30 7210 H 667.987 -4.4077 -1.87772 0
M  V30 7211 H 666.351 -2.30362 -1.08654 0
M  V30 7212 H 667.134 -3.42979 0.14852 0
M  V30 7213 N 669.579 0.400081 -1.52437 0
M  V30 7214 C 670.825 1.14788 -1.67187 0
M  V30 7215 C 671.158 1.89928 -0.405074 0
M  V30 7216 O 670.433 1.85118 0.596804 0
M  V30 7217 C 670.716 2.13507 -2.89977 0
M  V30 7218 C 670.569 1.42204 -4.2673 0
M  V30 7219 C 671.888 3.14069 -3.083 0
M  V30 7220 H 669.007 0.415939 -0.608411 0
M  V30 7221 H 671.649 0.432542 -1.85011 0
M  V30 7222 H 669.799 2.7451 -2.74912 0
M  V30 7223 H 671.471 0.842503 -4.53541 0
M  V30 7224 H 669.714 0.723939 -4.27717 0
M  V30 7225 H 670.385 2.14281 -5.08712 0
M  V30 7226 H 672.861 2.63148 -3.22323 0
M  V30 7227 H 671.737 3.80398 -3.95713 0
M  V30 7228 H 671.998 3.82309 -2.22018 0
M  V30 7229 N 671.057 1.43213 0.657864 0
M  V30 7230 C 672.306 1.43871 1.41365 0
M  V30 7231 C 672.619 0.064898 1.95492 0
M  V30 7232 O 673.825 -0.0510796 2.71452 0
M  V30 7233 C 672.281 2.53158 2.55811 0
M  V30 7234 C 671.889 3.96624 2.08311 0
M  V30 7235 C 673.633 2.63004 3.3321 0
M  V30 7236 C 671.54 4.97385 3.1994 0
M  V30 7237 H 670.47 0.535174 0.531136 0
M  V30 7238 H 673.121 1.69185 0.710543 0
M  V30 7239 H 671.503 2.21037 3.2857 0
M  V30 7240 H 672.677 4.38182 1.42593 0
M  V30 7241 H 670.992 3.90781 1.43804 0
M  V30 7242 H 673.589 3.3546 4.16378 0
M  V30 7243 H 673.932 1.67918 3.80932 0
M  V30 7244 H 674.465 2.94403 2.67529 0
M  V30 7245 H 671.204 5.94007 2.77192 0
M  V30 7246 H 670.724 4.60444 3.84385 0
M  V30 7247 H 672.403 5.19877 3.85145 0
M  V30 7248 N 672.536 -0.895792 1.29666 0
M  V30 7249 C 673.483 -2.00035 1.15129 0
M  V30 7250 C 674.453 -1.66043 0.0435819 0
M  V30 7251 O 675.638 -1.89621 0.211811 0
M  V30 7252 C 672.778 -3.34774 0.83787 0
M  V30 7253 C 671.891 -3.81525 2.0264 0
M  V30 7254 C 671.026 -5.04858 1.65201 0
M  V30 7255 C 670.065 -5.43988 2.80612 0
M  V30 7256 N 669.202 -6.58507 2.43544 0
M  V30 7257 H 674.042 -2.11802 2.09628 0
M  V30 7258 H 671.579 -1.03719 1.04311 0
M  V30 7259 H 673.537 -4.12311 0.636824 0
M  V30 7260 H 672.167 -3.22724 -0.0702314 0
M  V30 7261 H 671.219 -2.9999 2.33903 0
M  V30 7262 H 672.531 -4.06472 2.89106 0
M  V30 7263 H 671.685 -5.8999 1.41408 0
M  V30 7264 H 670.424 -4.81759 0.758893 0
M  V30 7265 H 669.429 -4.57388 3.05083 0
M  V30 7266 H 670.654 -5.69066 3.70595 0
M  V30 7267 H 668.6 -6.37004 1.56724 0
M  V30 7268 H 668.517 -6.83269 3.23542 0
M  V30 7269 H 669.785 -7.46897 2.2308 0
M  V30 7270 N 674.014 -1.12206 -1.10668 0
M  V30 7271 C 675.262 -0.874144 -1.82217 0
M  V30 7272 C 675.583 0.601736 -1.85484 0
M  V30 7273 O 674.853 1.43725 -1.33116 0
M  V30 7274 H 673.433 -0.320404 -0.674797 0
M  V30 7275 H 676.095 -1.41606 -1.33917 0
M  V30 7276 H 675.191 -1.25349 -2.85822 0
M  V30 7277 N 675.492 1.28418 -0.913599 0
M  V30 7278 C 676.455 2.25564 -0.406624 0
M  V30 7279 C 677.455 1.5387 0.466965 0
M  V30 7280 O 678.645 1.72094 0.270042 0
M  V30 7281 C 675.777 3.38339 0.417053 0
M  V30 7282 H 676.97 2.71926 -1.26477 0
M  V30 7283 H 674.523 1.40098 -0.692986 0
M  V30 7284 H 675.258 2.97339 1.29461 0
M  V30 7285 H 675.043 3.91542 -0.209102 0
M  V30 7286 H 676.533 4.10578 0.762602 0
M  V30 7287 N 676.97 0.677563 1.42291 0
M  V30 7288 C 677.933 0.0101085 2.29198 0
M  V30 7289 C 678.933 -0.726219 1.43467 0
M  V30 7290 O 680.123 -0.563807 1.64824 0
M  V30 7291 C 677.255 -0.996316 3.26016 0
M  V30 7292 H 678.448 0.775071 2.89711 0
M  V30 7293 H 676.001 0.440065 1.49977 0
M  V30 7294 H 676.736 -1.78967 2.70446 0
M  V30 7295 H 676.521 -0.471687 3.89253 0
M  V30 7296 H 678.011 -1.46167 3.91184 0
M  V30 7297 N 678.448 -1.51871 0.421078 0
M  V30 7298 C 679.673 -2.0684 -0.152371 0
M  V30 7299 C 680.098 -1.28802 -1.37083 0
M  V30 7300 O 679.456 -0.321482 -1.78427 0
M  V30 7301 C 679.504 -3.57532 -0.469368 0
M  V30 7302 O 678.608 -3.81818 -1.55848 0
M  V30 7303 H 677.949 -0.663939 -0.00898586 0
M  V30 7304 H 680.479 -1.95674 0.597724 0
M  V30 7305 H 680.489 -4.01515 -0.724553 0
M  V30 7306 H 679.164 -4.13761 0.421276 0
M  V30 7307 H 677.741 -3.49709 -1.29453 0
M  V30 7308 N 679.926 -0.151884 -1.56866 0
M  V30 7309 C 681.337 0.368128 -1.83035 0
M  V30 7310 C 681.688 1.64402 -1.07082 0
M  V30 7311 O 680.813 2.14056 -0.317647 0
M  V30 7312 C 681.408 0.674676 -3.32014 0
M  V30 7313 C 679.967 1.13919 -3.58747 0
M  V30 7314 C 679.114 0.164833 -2.7681 0
M  V30 7315 H 682.065 -0.376499 -1.54169 0
M  V30 7316 H 682.086 1.52883 -3.48435 0
M  V30 7317 H 681.598 -0.254113 -3.87267 0
M  V30 7318 H 679.699 2.08375 -3.08886 0
M  V30 7319 H 679.812 1.06179 -4.67186 0
M  V30 7320 H 678.176 0.658419 -2.46043 0
M  V30 7321 H 678.959 -0.757633 -3.34836 0
M  V30 7322 N 681.404 1.57128 0.121893 0
M  V30 7323 C 682.351 2.0013 1.14964 0
M  V30 7324 C 683.321 0.872959 1.4131 0
M  V30 7325 O 684.506 1.13696 1.53225 0
M  V30 7326 C 681.646 2.40824 2.4718 0
M  V30 7327 C 680.759 3.67061 2.27794 0
M  V30 7328 C 679.894 3.96749 3.53219 0
M  V30 7329 C 678.933 5.16178 3.28978 0
M  V30 7330 N 678.07 5.41751 4.46599 0
M  V30 7331 H 682.91 2.8772 0.775947 0
M  V30 7332 H 680.447 1.42328 0.371652 0
M  V30 7333 H 682.405 2.62454 3.24305 0
M  V30 7334 H 681.035 1.56279 2.82448 0
M  V30 7335 H 680.087 3.53063 1.416 0
M  V30 7336 H 681.399 4.5434 2.05857 0
M  V30 7337 H 680.553 4.19012 4.38764 0
M  V30 7338 H 679.292 3.07941 3.78185 0
M  V30 7339 H 678.297 4.93762 2.41824 0
M  V30 7340 H 679.522 6.06561 3.05386 0
M  V30 7341 H 677.468 4.55899 4.71691 0
M  V30 7342 H 677.385 6.23347 4.27756 0
M  V30 7343 H 678.653 5.68531 5.33285 0
M  V30 7344 O 682.921 -0.266262 1.5929 0
M  V30 7345 H 683.612 -0.91096 1.70942 0
M  V30 END ATOM
M  V30 BEGIN BOND
M  V30 END BOND
M  V30 END CTAB
M  END
$$$$
