drugbank_target|P22557 5-aminolevulinate synthase, erythroid-specific, mitochondrial (DB00114; DB00145)
 OpenBabel12092119423D

  0  0  0     0  0            999 V3000
M  V30 BEGIN CTAB
M  V30 COUNTS 9069 9175 0 0 0
M  V30 BEGIN ATOM
M  V30 1 H -0.908 1.98254 -0.117106 0
M  V30 2 N 0 1.576 0 0
M  V30 3 C 0.933 2.03868 1.02534 0
M  V30 4 C 1.911 0.928543 1.3348 0
M  V30 5 O 3.095 1.19667 1.45644 0
M  V30 6 C 0.222 2.43627 2.35294 0
M  V30 7 C -0.732 3.65373 2.2001 0
M  V30 8 S 0.101 5.13292 1.52614 0
M  V30 9 C 1.257 5.56322 2.86805 0
M  V30 10 H 1.49 2.90518 0.631377 0
M  V30 11 H -0.977 1.52953 0.210867 0
M  V30 12 H 0.981 2.67203 3.11629 0
M  V30 13 H -0.358 1.57376 2.7183 0
M  V30 14 H -1.165 3.90944 3.18086 0
M  V30 15 H -1.563 3.418 1.51819 0
M  V30 16 H 0.729 5.58782 3.83104 0
M  V30 17 H 1.672 6.56266 2.65933 0
M  V30 18 H 2.08 4.83886 2.90714 0
M  V30 19 N 1.4781 -0.272755 1.55222 0
M  V30 20 C 2.7241 -1.00581 1.761 0
M  V30 21 C 3.0571 -1.85932 0.560625 0
M  V30 22 O 2.3321 -1.89416 -0.441801 0
M  V30 23 C 2.6151 -1.88816 3.06628 0
M  V30 24 C 2.4681 -1.06457 4.37021 0
M  V30 25 C 3.7871 -2.8752 3.33197 0
M  V30 26 H 0.9061 -0.364244 0.640699 0
M  V30 27 H 3.5481 -0.278189 1.87952 0
M  V30 28 H 1.6981 -2.50856 2.96654 0
M  V30 29 H 3.3701 -0.464863 4.58952 0
M  V30 30 H 1.6131 -0.368043 4.32236 0
M  V30 31 H 2.2841 -1.71514 5.24678 0
M  V30 32 H 4.7601 -2.35615 3.42965 0
M  V30 33 H 3.6361 -3.46399 4.25792 0
M  V30 34 H 3.8971 -3.62657 2.52849 0
M  V30 35 N 2.9562 -1.48159 -0.537278 0
M  V30 36 C 4.1842 -1.59454 -1.31841 0
M  V30 37 C 4.5992 -0.252065 -1.8711 0
M  V30 38 O 3.9562 0.757621 -1.66031 0
M  V30 39 C 4.0072 -2.63546 -2.47439 0
M  V30 40 O 3.7282 -3.92583 -1.94449 0
M  V30 41 C 5.2292 -2.85212 -3.39366 0
M  V30 42 H 2.4492 -0.53785 -0.401196 0
M  V30 43 H 4.9932 -1.93932 -0.648891 0
M  V30 44 H 3.1482 -2.31946 -3.1029 0
M  V30 45 H 3.5622 -4.49629 -2.70063 0
M  V30 46 H 5.0362 -3.61863 -4.16844 0
M  V30 47 H 5.5132 -1.93765 -3.94147 0
M  V30 48 H 6.1192 -3.18086 -2.82314 0
M  V30 49 N 4.4343 0.785586 -1.36625 0
M  V30 50 C 5.3973 1.87999 -1.31107 0
M  V30 51 C 6.3973 1.59316 -0.217959 0
M  V30 52 O 7.5873 1.67656 -0.472977 0
M  V30 53 C 4.7193 3.24861 -1.03334 0
M  V30 54 H 5.9123 1.94307 -2.2844 0
M  V30 55 H 3.4653 0.983813 -1.21453 0
M  V30 56 H 4.2003 3.24235 -0.0647432 0
M  V30 57 H 3.9853 3.4707 -1.82441 0
M  V30 58 H 5.4753 4.04929 -1.02088 0
M  V30 59 N 5.9124 1.20967 1.01018 0
M  V30 60 C 6.8754 0.965918 2.07853 0
M  V30 61 C 7.8754 -0.0610545 1.60684 0
M  V30 62 O 9.0654 0.175681 1.73312 0
M  V30 63 C 6.1974 0.455513 3.37843 0
M  V30 64 H 7.3904 1.91365 2.3091 0
M  V30 65 H 4.9434 1.02594 1.17916 0
M  V30 66 H 5.6784 -0.497381 3.20463 0
M  V30 67 H 5.4634 1.19622 3.73407 0
M  V30 68 H 6.9534 0.304667 4.16487 0
M  V30 69 N 7.3905 -1.2043 1.01659 0
M  V30 70 C 8.3235 -2.21924 0.531521 0
M  V30 71 C 9.3015 -1.57054 -0.421032 0
M  V30 72 O 10.4855 -1.85389 -0.341035 0
M  V30 73 C 7.6125 -3.37942 -0.226496 0
M  V30 74 C 6.6585 -4.21115 0.67561 0
M  V30 75 S 7.4915 -4.90674 2.14475 0
M  V30 76 C 8.6475 -6.10113 1.3969 0
M  V30 77 H 8.8805 -2.62725 1.3915 0
M  V30 78 H 6.4135 -1.30481 0.825479 0
M  V30 79 H 8.3715 -4.05196 -0.657738 0
M  V30 80 H 7.0325 -2.956 -1.06205 0
M  V30 81 H 6.2255 -5.03918 0.091108 0
M  V30 82 H 5.8275 -3.59115 1.04463 0
M  V30 83 H 8.1195 -6.7411 0.676897 0
M  V30 84 H 9.0625 -6.73022 2.20107 0
M  V30 85 H 9.4705 -5.57283 0.899786 0
M  V30 86 N 8.8686 -0.792821 -1.36206 0
M  V30 87 C 9.7986 -0.207853 -2.32573 0
M  V30 88 C 10.7796 0.659055 -1.56813 0
M  V30 89 O 11.9646 0.592176 -1.84951 0
M  V30 90 C 9.0946 0.655449 -3.41059 0
M  V30 91 C 8.0486 -0.111842 -4.27854 0
M  V30 92 C 7.3746 0.872274 -5.27537 0
M  V30 93 C 8.6746 -1.30299 -5.05786 0
M  V30 94 H 10.3686 -1.01294 -2.81744 0
M  V30 95 H 7.9146 -0.48854 -1.3546 0
M  V30 96 H 9.8676 1.07464 -4.07467 0
M  V30 97 H 8.5916 1.49328 -2.90463 0
M  V30 98 H 7.2506 -0.512053 -3.63006 0
M  V30 99 H 6.8986 1.70523 -4.73214 0
M  V30 100 H 6.5986 0.363291 -5.86476 0
M  V30 101 H 8.1226 1.28996 -5.96818 0
M  V30 102 H 9.5366 -0.959379 -5.65216 0
M  V30 103 H 7.9336 -1.7455 -5.74154 0
M  V30 104 H 9.0036 -2.09663 -4.37229 0
M  V30 105 N 10.3467 1.47872 -0.545128 0
M  V30 106 C 11.2767 2.32661 0.197793 0
M  V30 107 C 12.2577 1.43041 0.920504 0
M  V30 108 O 13.4427 1.71912 0.90333 0
M  V30 109 C 10.5727 3.24569 1.23582 0
M  V30 110 C 9.5267 4.23333 0.630323 0
M  V30 111 C 8.8527 5.0448 1.77211 0
M  V30 112 C 10.1527 5.20704 -0.407974 0
M  V30 113 H 11.8467 2.95024 -0.510045 0
M  V30 114 H 9.3927 1.4187 -0.246731 0
M  V30 115 H 11.3457 3.8272 1.76362 0
M  V30 116 H 10.0697 2.60236 1.97344 0
M  V30 117 H 8.7287 3.6639 0.123922 0
M  V30 118 H 8.3767 4.36561 2.49847 0
M  V30 119 H 8.0767 5.71339 1.37281 0
M  V30 120 H 9.6007 5.65487 2.3034 0
M  V30 121 H 11.0147 5.7329 0.033305 0
M  V30 122 H 9.4117 5.95699 -0.725486 0
M  V30 123 H 10.4817 4.66917 -1.30828 0
M  V30 124 N 11.8248 0.280983 1.55075 0
M  V30 125 C 12.7568 -0.637268 2.20163 0
M  V30 126 C 13.7698 -1.11298 1.18813 0
M  V30 127 O 14.9588 -1.03388 1.4551 0
M  V30 128 C 12.0588 -1.88199 2.81841 0
M  V30 129 C 11.2318 -1.55211 4.08936 0
M  V30 130 C 10.2908 -2.64991 4.54606 0
M  V30 131 O 9.3168 -2.30929 5.2025 0
M  V30 132 N 10.5188 -3.95161 4.25238 0
M  V30 133 H 13.2838 -0.0801694 2.99593 0
M  V30 134 H 10.8448 0.102329 1.61576 0
M  V30 135 H 12.8368 -2.60948 3.09335 0
M  V30 136 H 11.4068 -2.34799 2.06369 0
M  V30 137 H 10.6268 -0.658185 3.88666 0
M  V30 138 H 11.9148 -1.30681 4.91732 0
M  V30 139 H 11.3128 -4.25653 3.72607 0
M  V30 140 H 9.8698 -4.6427 4.5749 0
M  V30 141 N 13.3029 -1.57598 0.00835791 0
M  V30 142 C 14.5429 -1.92788 -0.679136 0
M  V30 143 C 14.9069 -0.883378 -1.70471 0
M  V30 144 O 16.1079 -1.12079 -2.44319 0
M  V30 145 C 14.3789 -3.32994 -1.29807 0
M  V30 146 S 15.9379 -3.90082 -2.00952 0
M  V30 147 H 12.7559 -0.67475 -0.224127 0
M  V30 148 H 15.3579 -1.95385 0.0670497 0
M  V30 149 H 14.0619 -4.06846 -0.538922 0
M  V30 150 H 13.5929 -3.33791 -2.082 0
M  V30 151 H 15.6079 -3.71834 -3.28563 0
M  V30 152 N 14.781 0.264519 -1.55364 0
M  V30 153 C 16.021 1.00254 -1.78125 0
M  V30 154 C 16.385 1.83187 -0.575017 0
M  V30 155 O 17.586 2.60029 -0.681042 0
M  V30 156 C 15.857 1.85478 -3.05504 0
M  V30 157 S 17.416 2.6543 -3.49417 0
M  V30 158 H 14.234 0.337522 -0.625779 0
M  V30 159 H 16.836 0.272111 -1.93597 0
M  V30 160 H 15.54 1.23491 -3.9138 0
M  V30 161 H 15.071 2.62827 -2.92721 0
M  V30 162 H 17.086 3.87958 -3.09359 0
M  V30 163 N 16.2591 1.48442 0.529413 0
M  V30 164 C 17.6701 1.5002 1.11134 0
M  V30 165 C 18.0211 0.27031 1.94329 0
M  V30 166 O 17.1461 -0.622507 2.07253 0
M  V30 167 C 17.7411 2.71834 2.02217 0
M  V30 168 C 16.3001 2.76283 2.55627 0
M  V30 169 C 15.4471 2.43542 1.326 0
M  V30 170 H 18.3981 1.5555 0.314641 0
M  V30 171 H 18.4191 2.50384 2.8651 0
M  V30 172 H 17.9311 3.61331 1.41639 0
M  V30 173 H 16.0321 1.90995 3.19924 0
M  V30 174 H 16.1451 3.77725 2.94721 0
M  V30 175 H 14.5091 1.94709 1.64196 0
M  V30 176 H 15.2921 3.3528 0.737734 0
M  V30 177 N 17.7372 -0.778329 1.37039 0
M  V30 178 C 18.9832 -1.53892 1.32079 0
M  V30 179 C 19.3162 -1.9396 -0.0965386 0
M  V30 180 O 18.5912 -1.63568 -1.05242 0
M  V30 181 C 18.8742 -2.80847 2.25382 0
M  V30 182 C 18.7272 -2.47076 3.75864 0
M  V30 183 C 20.0462 -3.82741 2.1725 0
M  V30 184 H 17.1652 -0.558303 0.48111 0
M  V30 185 H 19.8072 -0.893397 1.67685 0
M  V30 186 H 17.9572 -3.35931 1.95148 0
M  V30 187 H 19.6292 -1.97957 4.16666 0
M  V30 188 H 17.8722 -1.79863 3.94755 0
M  V30 189 H 18.5432 -3.37798 4.36574 0
M  V30 190 H 21.0192 -3.37133 2.43887 0
M  V30 191 H 19.8952 -4.69303 2.84686 0
M  V30 192 H 20.1562 -4.2652 1.16331 0
M  V30 193 N 19.2153 -1.21501 -1.00376 0
M  V30 194 C 20.1453 -0.999478 -2.11028 0
M  V30 195 C 21.1263 0.0759671 -1.6993 0
M  V30 196 O 22.3113 -0.0841106 -1.94018 0
M  V30 197 C 19.4413 -0.564709 -3.42678 0
M  V30 198 C 18.3953 -1.58486 -3.97576 0
M  V30 199 C 17.7213 -1.00628 -5.25146 0
M  V30 200 C 19.0213 -2.97204 -4.29496 0
M  V30 201 H 20.7153 -1.92495 -2.29317 0
M  V30 202 H 18.2613 -0.92693 -1.102 0
M  V30 203 H 20.2143 -0.401091 -4.19487 0
M  V30 204 H 18.9383 0.396411 -3.24185 0
M  V30 205 H 17.5973 -1.73606 -3.22888 0
M  V30 206 H 17.2453 -0.0368439 -5.02987 0
M  V30 207 H 16.9453 -1.68771 -5.62841 0
M  V30 208 H 18.4693 -0.854015 -6.04598 0
M  V30 209 H 19.8833 -2.8552 -4.97143 0
M  V30 210 H 18.2803 -3.62372 -4.78338 0
M  V30 211 H 19.3503 -3.47956 -3.3772 0
M  V30 212 N 20.6934 1.19889 -1.02296 0
M  V30 213 C 21.6564 2.21116 -0.603351 0
M  V30 214 C 22.6564 1.5738 0.329884 0
M  V30 215 O 23.8464 1.73802 0.117702 0
M  V30 216 C 20.9784 3.40696 0.117992 0
M  V30 217 H 22.1714 2.59754 -1.49893 0
M  V30 218 H 19.7244 1.33463 -0.813468 0
M  V30 219 H 20.4594 3.07569 1.0282 0
M  V30 220 H 20.2444 3.88188 -0.552511 0
M  V30 221 H 21.7344 4.15692 0.398696 0
M  V30 222 N 22.1715 0.800033 1.35784 0
M  V30 223 C 23.5875 0.482977 1.52117 0
M  V30 224 C 23.7875 -0.996948 1.75109 0
M  V30 225 O 22.8435 -1.78216 1.78872 0
M  V30 226 C 24.1565 1.32264 2.70049 0
M  V30 227 C 25.7045 1.31742 2.83924 0
M  V30 228 C 26.1795 2.14106 4.04874 0
M  V30 229 N 27.6705 2.11607 4.12039 0
M  V30 230 C 28.4055 2.72099 5.04727 0
M  V30 231 N 27.9015 3.41492 6.02789 0
M  V30 232 N 29.6945 2.61776 4.97423 0
M  V30 233 H 21.8455 1.75856 1.19115 0
M  V30 234 H 24.1085 0.748122 0.582252 0
M  V30 235 H 23.8145 2.37261 2.59616 0
M  V30 236 H 23.6885 0.971303 3.6448 0
M  V30 237 H 26.0755 0.275333 2.93813 0
M  V30 238 H 26.1565 1.70859 1.9037 0
M  V30 239 H 25.8005 3.18351 3.95746 0
M  V30 240 H 25.7305 1.72353 4.97596 0
M  V30 241 H 28.2215 1.61112 3.41835 0
M  V30 242 H 28.5345 3.84953 6.70098 0
M  V30 243 H 26.8795 3.45596 6.02983 0
M  V30 244 H 30.0705 2.07157 4.19766 0
M  V30 245 H 30.2435 3.0921 5.69468 0
M  V30 246 N 23.6496 -1.47581 0.552962 0
M  V30 247 C 24.8976 -2.02082 0.0272703 0
M  V30 248 C 25.2186 -1.4301 -1.32563 0
M  V30 249 O 24.4886 -0.603745 -1.86365 0
M  V30 250 H 23.0686 -0.746966 0.00709182 0
M  V30 251 H 25.7306 -1.81033 0.722008 0
M  V30 252 H 24.8266 -3.12034 -0.0639951 0
M  V30 253 N 25.1277 -0.289203 -1.54924 0
M  V30 254 C 26.5387 0.205791 -1.85562 0
M  V30 255 C 26.8897 1.54351 -1.2112 0
M  V30 256 O 26.0147 2.10435 -0.504601 0
M  V30 257 C 26.6097 0.380177 -3.3666 0
M  V30 258 C 25.1687 0.819395 -3.67373 0
M  V30 259 C 24.3157 -0.079159 -2.77187 0
M  V30 260 H 27.2667 -0.510577 -1.50262 0
M  V30 261 H 27.2877 1.21659 -3.60526 0
M  V30 262 H 26.7997 -0.593589 -3.83534 0
M  V30 263 H 24.9007 1.80413 -3.26009 0
M  V30 264 H 25.0137 0.646957 -4.74712 0
M  V30 265 H 23.3777 0.439565 -2.50878 0
M  V30 266 H 24.1607 -1.04906 -3.26878 0
M  V30 267 N 26.6058 1.57591 -0.0167156 0
M  V30 268 C 27.8338 1.95575 0.675128 0
M  V30 269 C 28.2488 0.892542 1.6637 0
M  V30 270 O 27.6058 -0.126912 1.82058 0
M  V30 271 C 27.6568 3.33608 1.39239 0
M  V30 272 O 27.3778 4.3585 0.443444 0
M  V30 273 C 28.8788 3.86151 2.17721 0
M  V30 274 H 26.0988 0.644423 0.186978 0
M  V30 275 H 28.6428 2.0437 -0.0728 0
M  V30 276 H 26.7978 3.2607 2.09182 0
M  V30 277 H 27.2118 5.158 0.951358 0
M  V30 278 H 28.6858 4.85114 2.63379 0
M  V30 279 H 29.1628 3.19738 3.01105 0
M  V30 280 H 29.7688 3.96918 1.52761 0
M  V30 281 N 28.0839 -0.256276 1.55502 0
M  V30 282 C 29.3089 -1.00766 1.81276 0
M  V30 283 C 29.7339 -1.78524 0.59252 0
M  V30 284 O 29.0919 -1.75413 -0.45827 0
M  V30 285 C 29.1399 -1.92869 3.04687 0
M  V30 286 O 28.2439 -3.019 2.80945 0
M  V30 287 H 27.5849 -0.287224 0.598664 0
M  V30 288 H 30.1149 -0.280109 2.02674 0
M  V30 289 H 30.1249 -2.34511 3.33869 0
M  V30 290 H 28.7999 -1.35689 3.93143 0
M  V30 291 H 27.3769 -2.64454 2.62904 0
M  V30 292 N 29.562 -1.4872 -0.521534 0
M  V30 293 C 30.492 -1.66771 -1.63431 0
M  V30 294 C 31.473 -0.516499 -1.62069 0
M  V30 295 O 32.658 -0.750013 -1.79132 0
M  V30 296 C 29.788 -1.71515 -3.01993 0
M  V30 297 C 28.742 -2.86222 -3.18216 0
M  V30 298 C 28.068 -2.76061 -4.57924 0
M  V30 299 C 29.368 -4.27419 -3.00184 0
M  V30 300 H 31.062 -2.59932 -1.48579 0
M  V30 301 H 28.608 -1.25089 -0.713358 0
M  V30 302 H 30.561 -1.82731 -3.7972 0
M  V30 303 H 29.285 -0.749393 -3.17886 0
M  V30 304 H 27.944 -2.74575 -2.42908 0
M  V30 305 H 27.592 -1.77437 -4.70665 0
M  V30 306 H 27.292 -3.53037 -4.69722 0
M  V30 307 H 28.816 -2.89256 -5.37739 0
M  V30 308 H 30.23 -4.39855 -3.67697 0
M  V30 309 H 28.627 -5.05458 -3.2347 0
M  V30 310 H 29.697 -4.43293 -1.96518 0
M  V30 311 N 31.0401 0.771051 -1.3745 0
M  V30 312 C 31.9701 1.89827 -1.3597 0
M  V30 313 C 32.9511 1.68562 -0.228216 0
M  V30 314 O 34.1361 1.8941 -0.428675 0
M  V30 315 C 31.2661 3.2712 -1.16662 0
M  V30 316 C 30.2201 3.6295 -2.2683 0
M  V30 317 C 29.5461 4.98791 -1.92644 0
M  V30 318 C 30.8461 3.69627 -3.69017 0
M  V30 319 H 32.5401 1.91323 -2.30295 0
M  V30 320 H 30.0861 0.919082 -1.10855 0
M  V30 321 H 32.0391 4.05615 -1.14256 0
M  V30 322 H 30.7631 3.26059 -0.187926 0
M  V30 323 H 29.4221 2.86763 -2.28392 0
M  V30 324 H 29.0701 4.94271 -0.933021 0
M  V30 325 H 28.7701 5.23733 -2.66416 0
M  V30 326 H 30.2941 5.79685 -1.91826 0
M  V30 327 H 31.7081 4.38273 -3.69581 0
M  V30 328 H 30.1051 4.06067 -4.41848 0
M  V30 329 H 31.1751 2.70273 -4.02592 0
M  V30 330 N 32.5182 1.22032 0.997298 0
M  V30 331 C 33.7662 1.04016 1.73278 0
M  V30 332 C 34.0872 -0.426255 1.90284 0
M  V30 333 O 33.3572 -1.30694 1.45931 0
M  V30 334 H 31.9372 0.381897 0.642 0
M  V30 335 H 34.5992 1.5347 1.20137 0
M  V30 336 H 33.6952 1.51441 2.72896 0
M  V30 337 N 33.9963 -1.19345 1.0293 0
M  V30 338 C 34.9433 -2.2258 0.610464 0
M  V30 339 C 35.9133 -1.6179 -0.375946 0
M  V30 340 O 37.0983 -1.88844 -0.272511 0
M  V30 341 C 34.2383 -3.45085 -0.0321473 0
M  V30 342 C 33.3513 -4.20258 1.00035 0
M  V30 343 C 32.4863 -5.3019 0.32746 0
M  V30 344 C 31.5253 -5.97121 1.34584 0
M  V30 345 N 30.6623 -6.98615 0.698726 0
M  V30 346 H 35.5023 -2.57764 1.49538 0
M  V30 347 H 33.0393 -1.26644 0.748311 0
M  V30 348 H 34.9973 -4.15061 -0.421966 0
M  V30 349 H 33.6273 -3.10555 -0.88064 0
M  V30 350 H 32.6793 -3.49223 1.50823 0
M  V30 351 H 33.9913 -4.66175 1.77433 0
M  V30 352 H 33.1453 -6.06587 -0.11718 0
M  V30 353 H 31.8843 -4.85345 -0.478713 0
M  V30 354 H 30.8893 -5.19474 1.80074 0
M  V30 355 H 32.1143 -6.4405 2.15352 0
M  V30 356 H 30.0603 -6.55942 -0.0873471 0
M  V30 357 H 29.9773 -7.42724 1.41058 0
M  V30 358 H 31.2453 -7.79004 0.278102 0
M  V30 359 N 35.4744 -0.807222 -1.35358 0
M  V30 360 C 36.7204 -0.388463 -1.99045 0
M  V30 361 C 37.0534 1.04184 -1.63888 0
M  V30 362 O 36.3284 1.72292 -0.902535 0
M  V30 363 C 36.6114 -0.572783 -3.55515 0
M  V30 364 C 36.4644 -2.04807 -4.00468 0
M  V30 365 C 37.7834 0.00114064 -4.401 0
M  V30 366 H 34.9024 -0.142619 -0.723069 0
M  V30 367 H 37.5444 -1.01687 -1.60498 0
M  V30 368 H 35.6944 -0.0378425 -3.88482 0
M  V30 369 H 37.3664 -2.64544 -3.77908 0
M  V30 370 H 35.6094 -2.54427 -3.51353 0
M  V30 371 H 36.2804 -2.12792 -5.09337 0
M  V30 372 H 38.7564 -0.455716 -4.13597 0
M  V30 373 H 37.6324 -0.157737 -5.48673 0
M  V30 374 H 37.8934 1.09488 -4.28328 0
M  V30 375 N 36.9525 1.47285 -0.560781 0
M  V30 376 C 38.1985 2.02764 -0.0381184 0
M  V30 377 C 38.5315 1.43384 1.30976 0
M  V30 378 O 37.8065 0.590733 1.85312 0
M  V30 379 C 38.0895 3.60064 0.0511427 0
M  V30 380 C 37.9425 4.2987 -1.32408 0
M  V30 381 C 39.2615 4.33439 0.762795 0
M  V30 382 H 36.3805 0.736841 -0.0153264 0
M  V30 383 H 39.0225 1.75675 -0.723759 0
M  V30 384 H 37.1725 3.83274 0.635065 0
M  V30 385 H 38.8445 4.17989 -1.95148 0
M  V30 386 H 37.0875 3.90085 -1.8978 0
M  V30 387 H 37.7585 5.38478 -1.21431 0
M  V30 388 H 40.2345 4.15243 0.266965 0
M  V30 389 H 39.1105 5.43124 0.794221 0
M  V30 390 H 39.3715 4.02915 1.81966 0
M  V30 391 N 38.4306 0.297415 1.54768 0
M  V30 392 C 39.3776 -0.580276 2.23386 0
M  V30 393 C 40.3476 -1.13238 1.21517 0
M  V30 394 O 41.5326 -1.17757 1.50126 0
M  V30 395 C 38.6726 -1.74801 2.97555 0
M  V30 396 C 37.7856 -1.22764 4.1419 0
M  V30 397 C 36.9206 -2.35895 4.75949 0
M  V30 398 C 35.9596 -1.80974 5.84735 0
M  V30 399 N 35.0966 -2.87664 6.40464 0
M  V30 400 H 39.9366 0.0114833 2.97998 0
M  V30 401 H 37.4736 0.0174361 1.4709 0
M  V30 402 H 39.4316 -2.43475 3.38786 0
M  V30 403 H 38.0616 -2.31145 2.25326 0
M  V30 404 H 37.1136 -0.433271 3.77924 0
M  V30 405 H 38.4256 -0.785551 4.92575 0
M  V30 406 H 37.5796 -3.12523 5.20014 0
M  V30 407 H 36.3186 -2.83429 3.96887 0
M  V30 408 H 35.3236 -1.02834 5.40097 0
M  V30 409 H 36.5486 -1.34348 6.65678 0
M  V30 410 H 34.4946 -3.34538 5.64287 0
M  V30 411 H 34.4116 -2.4794 7.14186 0
M  V30 412 H 35.6796 -3.642 6.89187 0
M  V30 413 N 39.9087 -1.5758 0.0250728 0
M  V30 414 C 41.1367 -1.9593 -0.664747 0
M  V30 415 C 41.5517 -0.901352 -1.65895 0
M  V30 416 O 40.9087 0.117255 -1.82123 0
M  V30 417 C 40.9597 -3.34342 -1.37468 0
M  V30 418 O 40.6807 -4.36079 -0.420324 0
M  V30 419 C 42.1817 -3.873 -2.1567 0
M  V30 420 H 39.4017 -0.645405 -0.183557 0
M  V30 421 H 41.9457 -2.04329 0.0836372 0
M  V30 422 H 40.1007 -3.27175 -2.0745 0
M  V30 423 H 40.5147 -5.16297 -0.923991 0
M  V30 424 H 41.9887 -4.86504 -2.60803 0
M  V30 425 H 42.4657 -3.21331 -2.99405 0
M  V30 426 H 43.0717 -3.97723 -1.50654 0
M  V30 427 N 41.3868 0.248026 -1.55636 0
M  V30 428 C 42.3368 1.30994 -1.86614 0
M  V30 429 C 43.3208 1.43543 -0.726918 0
M  V30 430 O 44.5128 1.46804 -0.988818 0
M  V30 431 C 41.6418 2.6656 -2.16335 0
M  V30 432 C 40.7278 2.58019 -3.36581 0
M  V30 433 N 41.1188 2.1911 -4.55878 0
M  V30 434 C 39.4168 2.89035 -3.39669 0
M  V30 435 C 40.1178 2.21174 -5.38012 0
M  V30 436 N 39.0938 2.60632 -4.77045 0
M  V30 437 H 42.8958 0.999583 -2.76379 0
M  V30 438 H 40.4098 0.456652 -1.55848 0
M  V30 439 H 42.4068 3.43194 -2.36692 0
M  V30 440 H 41.0668 2.98463 -1.27867 0
M  V30 441 H 42.0778 1.90672 -4.81523 0
M  V30 442 H 38.7548 3.25485 -2.61469 0
M  V30 443 H 40.1448 1.9344 -6.43452 0
M  V30 444 N 42.8649 1.48995 0.513639 0
M  V30 445 C 43.7969 1.60836 1.63293 0
M  V30 446 C 44.8099 0.491701 1.55197 0
M  V30 447 O 45.9989 0.763238 1.6136 0
M  V30 448 C 43.0989 1.53731 3.02027 0
M  V30 449 C 42.2719 2.80715 3.35437 0
M  V30 450 C 41.3309 2.66837 4.53525 0
M  V30 451 O 40.3569 3.40753 4.55934 0
M  V30 452 N 41.5589 1.77539 5.52684 0
M  V30 453 H 44.3239 2.57366 1.53566 0
M  V30 454 H 41.8849 1.45925 0.701259 0
M  V30 455 H 43.8769 1.42118 3.78926 0
M  V30 456 H 42.4469 0.651092 3.05744 0
M  V30 457 H 41.6669 3.06772 2.47557 0
M  V30 458 H 42.9549 3.64927 3.54551 0
M  V30 459 H 42.3529 1.16719 5.53528 0
M  V30 460 H 40.9099 1.71856 6.28736 0
M  V30 461 N 44.343 -0.763751 1.37857 0
M  V30 462 C 45.59 -1.52257 1.33506 0
M  V30 463 C 45.918 -1.94343 -0.078022 0
M  V30 464 O 45.173 -1.64958 -1.05297 0
M  V30 465 C 45.472 -2.79499 2.22745 0
M  V30 466 C 45.138 -2.56426 3.70886 0
M  V30 467 C 43.8 -2.49842 4.11257 0
M  V30 468 C 46.152 -2.36008 4.64704 0
M  V30 469 C 43.48 -2.20841 5.43549 0
M  V30 470 C 45.832 -2.0853 5.97242 0
M  V30 471 C 44.496 -2.00396 6.36709 0
M  V30 472 H 43.766 -0.557149 0.488534 0
M  V30 473 H 46.413 -0.879073 1.70131 0
M  V30 474 H 44.718 -3.48447 1.79142 0
M  V30 475 H 46.415 -3.37413 2.16688 0
M  V30 476 H 43.005 -2.62416 3.38874 0
M  V30 477 H 47.189 -2.40079 4.34368 0
M  V30 478 H 42.445 -2.13045 5.73081 0
M  V30 479 H 46.619 -1.91732 6.69486 0
M  V30 480 H 44.246 -1.77688 7.39142 0
M  V30 481 N 45.8211 -1.22559 -0.990812 0
M  V30 482 C 46.7511 -1.0218 -2.09956 0
M  V30 483 C 47.7321 0.0579394 -1.70001 0
M  V30 484 O 48.9171 -0.104684 -1.93918 0
M  V30 485 C 46.0471 -0.601023 -3.4206 0
M  V30 486 C 45.0011 -1.62694 -3.95872 0
M  V30 487 C 44.3271 -1.06193 -5.24049 0
M  V30 488 C 45.6271 -3.01743 -4.2632 0
M  V30 489 H 47.3211 -1.94916 -2.27262 0
M  V30 490 H 44.8671 -0.938566 -1.09211 0
M  V30 491 H 46.8201 -0.445561 -4.19038 0
M  V30 492 H 45.5441 0.362005 -3.24588 0
M  V30 493 H 44.2031 -1.77021 -3.21028 0
M  V30 494 H 43.8511 -0.0901903 -5.02919 0
M  V30 495 H 43.5511 -1.74732 -5.61019 0
M  V30 496 H 45.0751 -0.918092 -6.03658 0
M  V30 497 H 46.4891 -2.90777 -4.94087 0
M  V30 498 H 44.8861 -3.67425 -4.74467 0
M  V30 499 H 45.9561 -3.51518 -3.34011 0
M  V30 500 N 47.2992 1.18797 -1.03562 0
M  V30 501 C 48.5462 1.8865 -0.736023 0
M  V30 502 C 48.8742 1.80041 0.735889 0
M  V30 503 O 48.1292 1.19179 1.55225 0
M  V30 504 C 48.4282 3.38692 -1.14117 0
M  V30 505 C 48.0942 3.67504 -2.6125 0
M  V30 506 C 46.7562 3.75078 -3.01447 0
M  V30 507 C 49.1082 3.80293 -3.56408 0
M  V30 508 C 46.4362 3.92915 -4.35701 0
M  V30 509 C 48.7882 3.99645 -4.90374 0
M  V30 510 C 47.4522 4.05453 -5.30249 0
M  V30 511 H 46.7222 0.690321 -0.26933 0
M  V30 512 H 49.3692 1.40641 -1.29971 0
M  V30 513 H 47.6742 3.88645 -0.496202 0
M  V30 514 H 49.3712 3.91072 -0.886789 0
M  V30 515 H 45.9612 3.62223 -2.29113 0
M  V30 516 H 50.1452 3.73779 -3.26501 0
M  V30 517 H 45.4012 3.95653 -4.66121 0
M  V30 518 H 49.5752 4.08482 -5.64017 0
M  V30 519 H 47.2022 4.19027 -6.34288 0
M  V30 520 N 48.7773 0.814389 1.34928 0
M  V30 521 C 50.0253 0.397636 1.9815 0
M  V30 522 C 50.3463 -1.04069 1.64908 0
M  V30 523 O 49.6163 -1.72121 0.93548 0
M  V30 524 H 48.1963 0.144043 0.732981 0
M  V30 525 H 50.8583 1.04195 1.6471 0
M  V30 526 H 49.9543 0.509688 3.0791 0
M  V30 527 N 50.2554 -1.46986 0.568584 0
M  V30 528 C 51.5044 -2.01646 0.0465894 0
M  V30 529 C 51.8174 -1.44721 -1.31587 0
M  V30 530 O 53.0234 -1.91113 -1.92842 0
M  V30 531 C 51.4794 -3.59885 0.032752 0
M  V30 532 C 51.0874 -4.25804 1.39266 0
M  V30 533 C 52.8314 -4.22255 -0.436038 0
M  V30 534 C 50.7384 -5.76081 1.33732 0
M  V30 535 H 49.6684 -0.753876 0.013647 0
M  V30 536 H 52.3194 -1.68864 0.718131 0
M  V30 537 H 50.7014 -3.8968 -0.704669 0
M  V30 538 H 51.8754 -4.07637 2.1487 0
M  V30 539 H 50.1904 -3.7547 1.80032 0
M  V30 540 H 52.7874 -5.32394 -0.49602 0
M  V30 541 H 53.1304 -3.90212 -1.45053 0
M  V30 542 H 53.6634 -3.97033 0.246877 0
M  V30 543 H 50.4024 -6.12761 2.32817 0
M  V30 544 H 49.9224 -5.96553 0.623267 0
M  V30 545 H 51.6014 -6.38518 1.0442 0
M  V30 546 N 51.7335 -0.305618 -1.54608 0
M  V30 547 C 52.9815 0.301701 -1.99835 0
M  V30 548 C 53.3025 1.54054 -1.19551 0
M  V30 549 O 52.5725 1.93702 -0.292658 0
M  V30 550 H 51.1525 0.114468 -0.738178 0
M  V30 551 H 53.8145 -0.418016 -1.90364 0
M  V30 552 H 52.9105 0.570548 -3.06841 0
M  V30 553 N 53.2116 1.57565 -0.0334293 0
M  V30 554 C 54.6276 1.56297 0.322997 0
M  V30 555 C 54.8276 1.03945 1.7262 0
M  V30 556 O 53.8836 0.688109 2.42943 0
M  V30 557 C 55.1966 3.00232 0.167664 0
M  V30 558 C 56.7446 3.12078 0.240107 0
M  V30 559 C 57.2196 4.57859 0.113513 0
M  V30 560 N 58.7106 4.62887 0.170359 0
M  V30 561 C 59.4456 5.73319 0.0962517 0
M  V30 562 N 58.9416 6.92794 -0.0291881 0
M  V30 563 N 60.7346 5.61898 0.150551 0
M  V30 564 H 52.8856 1.89923 -0.950956 0
M  V30 565 H 55.1486 0.873824 -0.367608 0
M  V30 566 H 54.8546 3.42501 -0.799102 0
M  V30 567 H 54.7286 3.654 0.936083 0
M  V30 568 H 57.1156 2.69718 1.19733 0
M  V30 569 H 57.1966 2.49623 -0.558763 0
M  V30 570 H 56.8406 5.009 -0.840314 0
M  V30 571 H 56.7706 5.18299 0.931302 0
M  V30 572 H 59.2616 3.76954 0.26728 0
M  V30 573 H 59.5746 7.7276 -0.0789252 0
M  V30 574 H 57.9196 6.94971 -0.0640299 0
M  V30 575 H 61.1106 4.67448 0.246981 0
M  V30 576 H 61.2836 6.47938 0.0893365 0
M  V30 577 N 54.6897 -0.239769 1.55765 0
M  V30 578 C 55.9297 -0.974076 1.79697 0
M  V30 579 C 56.2937 -1.82249 0.604088 0
M  V30 580 O 57.4947 -2.58913 0.722324 0
M  V30 581 C 55.7657 -1.80595 3.08416 0
M  V30 582 S 57.3247 -2.59838 3.53596 0
M  V30 583 H 54.1427 -0.327524 0.63107 0
M  V30 584 H 56.7447 -0.241277 1.94005 0
M  V30 585 H 55.4487 -1.17249 3.93295 0
M  V30 586 H 54.9797 -2.58137 2.96865 0
M  V30 587 H 56.9947 -3.82987 3.15492 0
M  V30 588 N 56.1678 -1.49265 -0.50573 0
M  V30 589 C 57.5788 -1.51769 -1.08734 0
M  V30 590 C 57.9298 -0.301192 -1.93874 0
M  V30 591 O 57.0548 0.589456 -2.08217 0
M  V30 592 C 57.6498 -2.75017 -1.97867 0
M  V30 593 C 56.2088 -2.80314 -2.51199 0
M  V30 594 C 55.3558 -2.4562 -1.28709 0
M  V30 595 H 58.3068 -1.56031 -0.289855 0
M  V30 596 H 58.3278 -2.5491 -2.82491 0
M  V30 597 H 57.8398 -3.63539 -1.35873 0
M  V30 598 H 55.9408 -1.96061 -3.16845 0
M  V30 599 H 56.0538 -3.82366 -2.88675 0
M  V30 600 H 54.4178 -1.97297 -1.61078 0
M  V30 601 H 55.2008 -3.36411 -0.6843 0
M  V30 602 N 57.6459 0.756429 -1.3826 0
M  V30 603 C 58.8949 1.51082 -1.3363 0
M  V30 604 C 59.2079 1.95467 0.0720068 0
M  V30 605 O 60.4139 2.7043 0.240834 0
M  V30 606 C 58.8699 2.72893 -2.34644 0
M  V30 607 C 58.4779 2.35544 -3.81081 0
M  V30 608 C 60.2219 3.50791 -2.39052 0
M  V30 609 C 58.1289 3.53948 -4.73787 0
M  V30 610 H 57.0589 0.56727 -0.49671 0
M  V30 611 H 59.7099 0.827147 -1.638 0
M  V30 612 H 58.0919 3.43227 -1.97513 0
M  V30 613 H 59.2659 1.72894 -4.27135 0
M  V30 614 H 57.5809 1.70786 -3.79764 0
M  V30 615 H 60.1779 4.38823 -3.05513 0
M  V30 616 H 60.5209 3.91745 -1.40861 0
M  V30 617 H 61.0539 2.87467 -2.74968 0
M  V30 618 H 57.7929 3.18064 -5.73163 0
M  V30 619 H 57.3129 4.15651 -4.32428 0
M  V30 620 H 58.9919 4.20566 -4.91663 0
M  V30 621 N 59.124 1.23083 0.984299 0
M  V30 622 C 60.054 1.03292 2.09411 0
M  V30 623 C 61.035 -0.048923 1.7003 0
M  V30 624 O 62.22 0.114967 1.93859 0
M  V30 625 C 59.35 0.619155 3.41736 0
M  V30 626 C 58.304 1.64791 3.95004 0
M  V30 627 C 57.63 1.0897 5.23478 0
M  V30 628 C 58.93 3.03999 4.24714 0
M  V30 629 H 60.624 1.96119 2.26225 0
M  V30 630 H 58.17 0.944344 1.08711 0
M  V30 631 H 60.123 0.467777 4.18796 0
M  V30 632 H 58.847 -0.344786 3.24775 0
M  V30 633 H 57.506 1.78721 3.20085 0
M  V30 634 H 57.154 0.11686 5.02864 0
M  V30 635 H 56.854 1.77704 5.60085 0
M  V30 636 H 58.378 0.950093 6.03163 0
M  V30 637 H 59.792 2.93393 4.92538 0
M  V30 638 H 58.189 3.69936 4.72512 0
M  V30 639 H 59.259 3.53285 3.32142 0
M  V30 640 N 60.6021 -1.18246 1.0419 0
M  V30 641 C 61.5651 -2.20128 0.638452 0
M  V30 642 C 62.5651 -1.57885 -0.304805 0
M  V30 643 O 63.7551 -1.73967 -0.0900369 0
M  V30 644 C 60.8871 -3.4084 -0.0637751 0
M  V30 645 H 62.0801 -2.57336 1.54007 0
M  V30 646 H 59.6331 -1.32152 0.834598 0
M  V30 647 H 60.3681 -3.09166 -0.979136 0
M  V30 648 H 60.1531 -3.8726 0.614198 0
M  V30 649 H 61.6431 -4.16274 -0.332512 0
M  V30 650 N 62.0802 -0.821533 -1.34494 0
M  V30 651 C 63.3082 -0.421884 -2.02553 0
M  V30 652 C 63.7232 0.971745 -1.61872 0
M  V30 653 O 63.0802 1.62864 -0.823496 0
M  V30 654 C 63.1312 -0.51285 -3.57844 0
M  V30 655 O 62.8522 -1.85155 -3.97051 0
M  V30 656 C 64.3532 -0.107921 -4.43169 0
M  V30 657 H 61.5732 -0.169482 -0.649243 0
M  V30 658 H 64.1172 -1.1093 -1.71798 0
M  V30 659 H 62.2722 0.126474 -3.87193 0
M  V30 660 H 62.6862 -1.82482 -4.91732 0
M  V30 661 H 64.1602 -0.222657 -5.51551 0
M  V30 662 H 64.6372 0.948401 -4.28838 0
M  V30 663 H 65.2432 -0.720989 -4.19144 0
M  V30 664 N 63.5583 1.46682 -0.576371 0
M  V30 665 C 64.4903 2.28341 0.198231 0
M  V30 666 C 65.5033 1.38141 0.861453 0
M  V30 667 O 66.6923 1.62797 0.732082 0
M  V30 668 C 63.7923 3.12986 1.29972 0
M  V30 669 C 62.9653 4.31271 0.729639 0
M  V30 670 C 62.0243 4.97363 1.71803 0
M  V30 671 O 61.0503 5.55156 1.25658 0
M  V30 672 N 62.2523 4.93796 3.05198 0
M  V30 673 H 65.0173 2.9546 -0.502324 0
M  V30 674 H 62.5783 1.56525 -0.413715 0
M  V30 675 H 64.5703 3.54066 1.96008 0
M  V30 676 H 63.1403 2.47984 1.90323 0
M  V30 677 H 62.3603 3.94052 -0.108012 0
M  V30 678 H 63.6483 5.07739 0.328438 0
M  V30 679 H 63.0463 4.48077 3.45317 0
M  V30 680 H 61.6033 5.38837 3.6674 0
M  V30 681 N 65.0364 0.313813 1.54444 0
M  V30 682 C 66.2844 -0.291099 1.99993 0
M  V30 683 C 66.6054 -1.53418 1.20366 0
M  V30 684 O 65.8754 -1.93544 0.302927 0
M  V30 685 H 64.4554 -0.110552 0.738774 0
M  V30 686 H 67.1174 0.428106 1.9014 0
M  V30 687 H 66.2134 -0.554268 3.07139 0
M  V30 688 N 66.5145 -1.57545 0.0417849 0
M  V30 689 C 67.9255 -1.80011 -0.495259 0
M  V30 690 C 68.2765 -0.953199 -1.71489 0
M  V30 691 O 67.4015 -0.167138 -2.15754 0
M  V30 692 C 67.9965 -3.26482 -0.905265 0
M  V30 693 C 66.5555 -3.499 -1.38734 0
M  V30 694 C 65.7025 -2.74979 -0.358056 0
M  V30 695 H 68.6535 -1.56425 0.267736 0
M  V30 696 H 68.6745 -3.36887 -1.76882 0
M  V30 697 H 68.1865 -3.88096 -0.017401 0
M  V30 698 H 66.2875 -2.93553 -2.29471 0
M  V30 699 H 66.4005 -4.58615 -1.38598 0
M  V30 700 H 64.7645 -2.40834 -0.828912 0
M  V30 701 H 65.5475 -3.39315 0.521561 0
M  V30 702 N 67.9926 0.231505 -1.5589 0
M  V30 703 C 68.9406 1.30649 -1.92441 0
M  V30 704 C 69.9346 1.49037 -0.805254 0
M  V30 705 O 71.1406 1.50329 -0.990007 0
M  V30 706 H 67.5156 0.437812 -0.611412 0
M  V30 707 H 69.4866 0.970973 -2.82161 0
M  V30 708 C 68.2356 2.65179 -2.24889 0
M  V30 709 H 67.5586 2.51835 -3.10514 0
M  V30 710 H 68.9986 3.39234 -2.54355 0
M  V30 711 C 67.4576 3.19439 -1.07054 0
M  V30 712 O 67.9876 4.00371 -0.326499 0
M  V30 713 N 66.1936 2.77675 -0.85703 0
M  V30 714 H 65.7406 2.11969 -1.46379 0
M  V30 715 H 65.6986 3.14321 -0.0703223 0
M  V30 716 N 69.4707 1.49531 0.497807 0
M  V30 717 C 70.7107 1.60799 1.26187 0
M  V30 718 C 71.0747 0.289627 1.89803 0
M  V30 719 O 72.2757 0.277512 2.67364 0
M  V30 720 C 70.5467 2.73729 2.29798 0
M  V30 721 S 72.1057 3.04968 3.155 0
M  V30 722 H 68.9237 0.567145 0.428798 0
M  V30 723 H 71.5257 1.87204 0.563477 0
M  V30 724 H 70.2297 3.68036 1.81597 0
M  V30 725 H 69.7607 2.49328 3.04301 0
M  V30 726 H 71.7757 2.46735 4.30507 0
M  V30 727 N 70.9488 -0.749086 1.3866 0
M  V30 728 C 72.1738 -1.54344 1.38538 0
M  V30 729 C 72.5988 -1.88088 -0.0216655 0
M  V30 730 O 71.9568 -1.50899 -1.00494 0
M  V30 731 C 72.0048 -2.8164 2.25192 0
M  V30 732 O 71.1088 -3.7698 1.67212 0
M  V30 733 H 70.4498 -0.466654 0.472367 0
M  V30 734 H 72.9798 -0.925355 1.82478 0
M  V30 735 H 72.9898 -3.30519 2.3921 0
M  V30 736 H 71.6648 -2.56411 3.27454 0
M  V30 737 H 70.2418 -3.35699 1.6236 0
M  V30 738 N 72.4269 -1.23603 -0.977757 0
M  V30 739 C 73.3589 -0.977369 -2.07317 0
M  V30 740 C 74.3719 0.0495845 -1.62724 0
M  V30 741 O 75.5609 -0.186261 -1.77526 0
M  V30 742 C 72.6609 -0.451216 -3.35883 0
M  V30 743 C 71.8339 -1.53896 -4.09432 0
M  V30 744 C 70.8929 -1.01721 -5.16274 0
M  V30 745 O 69.9189 -1.70676 -5.43009 0
M  V30 746 N 71.1209 0.153594 -5.80297 0
M  V30 747 H 73.8859 -1.92047 -2.30082 0
M  V30 748 H 71.4469 -1.14497 -1.14465 0
M  V30 749 H 73.4389 -0.0871574 -4.04606 0
M  V30 750 H 72.0089 0.397368 -3.10064 0
M  V30 751 H 71.2289 -2.07566 -3.35127 0
M  V30 752 H 72.5169 -2.27037 -4.55337 0
M  V30 753 H 71.9149 0.730323 -5.60966 0
M  V30 754 H 70.4719 0.458892 -6.50183 0
M  V30 755 N 73.905 1.17692 -1.04816 0
M  V30 756 C 75.154 1.87192 -0.751132 0
M  V30 757 C 75.467 1.8169 0.724441 0
M  V30 758 O 76.673 2.46625 1.13527 0
M  V30 759 C 75.129 3.35857 -1.29338 0
M  V30 760 C 74.737 3.4987 -2.79812 0
M  V30 761 C 76.481 4.10709 -1.07322 0
M  V30 762 C 74.388 4.92536 -3.27356 0
M  V30 763 H 73.318 0.701162 -0.277288 0
M  V30 764 H 75.969 1.32932 -1.26496 0
M  V30 765 H 74.351 3.89631 -0.707376 0
M  V30 766 H 75.525 3.06332 -3.44235 0
M  V30 767 H 73.84 2.88433 -3.00325 0
M  V30 768 H 76.437 5.15952 -1.4035 0
M  V30 769 H 76.78 4.16299 -0.0108001 0
M  V30 770 H 77.313 3.6313 -1.62423 0
M  V30 771 H 74.052 4.92119 -4.33012 0
M  V30 772 H 73.572 5.3676 -2.67673 0
M  V30 773 H 75.251 5.61288 -3.21815 0
M  V30 774 N 75.3831 0.828654 1.34056 0
M  V30 775 C 76.3331 0.226828 2.26869 0
M  V30 776 C 77.3171 -0.612243 1.48796 0
M  V30 777 O 78.5091 -0.465884 1.70759 0
M  V30 778 C 75.6381 -0.605654 3.37915 0
M  V30 779 C 74.7241 0.244361 4.23395 0
M  V30 780 N 75.1151 1.31815 4.88322 0
M  V30 781 C 73.4131 0.0296616 4.4599 0
M  V30 782 C 74.1141 1.83895 5.51867 0
M  V30 783 N 73.0901 1.14196 5.3147 0
M  V30 784 H 76.8921 1.04811 2.74576 0
M  V30 785 H 74.4061 0.67205 1.47842 0
M  V30 786 H 76.4031 -1.05302 4.03382 0
M  V30 787 H 75.0631 -1.42504 2.91758 0
M  V30 788 H 76.0741 1.70099 4.8917 0
M  V30 789 H 72.7511 -0.757097 4.10578 0
M  V30 790 H 74.1411 2.7376 6.136 0
M  V30 791 N 76.8612 -1.46375 0.584142 0
M  V30 792 C 77.7912 -2.33103 -0.136037 0
M  V30 793 C 78.7722 -1.45431 -0.882255 0
M  V30 794 O 79.9572 -1.74246 -0.857434 0
M  V30 795 C 77.0872 -3.27731 -1.14933 0
M  V30 796 C 76.0412 -4.24855 -0.517862 0
M  V30 797 C 75.3672 -5.09001 -1.63773 0
M  V30 798 C 76.6672 -5.19439 0.545886 0
M  V30 799 H 78.3612 -2.93568 0.588086 0
M  V30 800 H 75.9072 -1.41166 0.284259 0
M  V30 801 H 77.8602 -3.87261 -1.66153 0
M  V30 802 H 76.5842 -2.65377 -1.90375 0
M  V30 803 H 75.2432 -3.6659 -0.0267361 0
M  V30 804 H 74.8912 -4.43031 -2.38185 0
M  V30 805 H 74.5912 -5.74777 -1.22085 0
M  V30 806 H 76.1152 -5.71396 -2.15266 0
M  V30 807 H 77.5292 -5.73177 0.118704 0
M  V30 808 H 75.9262 -5.93566 0.88317 0
M  V30 809 H 76.9962 -4.63285 1.43162 0
M  V30 810 N 78.3393 -0.321999 -1.54275 0
M  V30 811 C 79.2863 0.544664 -2.24281 0
M  V30 812 C 80.2563 1.1129 -1.23303 0
M  V30 813 O 81.4413 1.15354 -1.51981 0
M  V30 814 C 78.5813 1.70045 -3.00298 0
M  V30 815 C 77.6943 1.16159 -4.1609 0
M  V30 816 C 76.8293 2.28293 -4.79641 0
M  V30 817 C 75.8683 1.71648 -5.8754 0
M  V30 818 N 75.0053 2.77438 -6.44959 0
M  V30 819 H 79.8453 -0.0588907 -2.97942 0
M  V30 820 H 77.3823 -0.0408345 -1.47043 0
M  V30 821 H 79.3403 2.38054 -3.42616 0
M  V30 822 H 77.9703 2.27531 -2.28975 0
M  V30 823 H 77.0223 0.373092 -3.78566 0
M  V30 824 H 78.3343 0.707087 -4.93763 0
M  V30 825 H 77.4883 3.0421 -5.2492 0
M  V30 826 H 76.2273 2.77079 -4.01346 0
M  V30 827 H 75.2323 0.942282 -5.41665 0
M  V30 828 H 76.4573 1.23741 -6.67731 0
M  V30 829 H 74.4033 3.25519 -5.69538 0
M  V30 830 H 74.3203 2.36547 -7.1804 0
M  V30 831 H 75.5883 3.53189 -6.94894 0
M  V30 832 N 79.8174 1.5752 -0.0501392 0
M  V30 833 C 80.7804 2.1037 0.909786 0
M  V30 834 C 81.7804 1.02308 1.24056 0
M  V30 835 O 82.9704 1.28385 1.17741 0
M  V30 836 C 80.1024 2.58708 2.21998 0
M  V30 837 H 81.2954 2.96479 0.451665 0
M  V30 838 H 78.8484 1.55038 0.198248 0
M  V30 839 H 79.5834 1.75989 2.72394 0
M  V30 840 H 79.3684 3.37675 1.99295 0
M  V30 841 H 80.8584 2.99747 2.9076 0
M  V30 842 N 81.2955 -0.223234 1.56011 0
M  V30 843 C 82.5235 -0.964812 1.83027 0
M  V30 844 C 82.9385 -1.78013 0.62904 0
M  V30 845 O 82.2955 -1.78008 -0.402414 0
M  V30 846 C 82.3465 -1.88373 3.08542 0
M  V30 847 O 82.0675 -1.10137 4.2403 0
M  V30 848 C 83.5685 -2.73934 3.48533 0
M  V30 849 H 80.7885 -0.282842 0.608475 0
M  V30 850 H 83.3325 -0.238971 2.03099 0
M  V30 851 H 81.4875 -2.56354 2.9045 0
M  V30 852 H 81.9015 -1.72501 4.95322 0
M  V30 853 H 83.3755 -3.34117 4.39397 0
M  V30 854 H 83.8525 -3.46244 2.70207 0
M  V30 855 H 84.4585 -2.11369 3.69057 0
M  V30 856 N 82.7736 -1.49793 -0.48987 0
M  V30 857 C 83.7206 -1.67281 -1.59014 0
M  V30 858 C 84.6906 -0.514177 -1.57941 0
M  V30 859 O 85.8756 -0.742533 -1.75759 0
M  V30 860 C 83.0156 -1.75569 -2.97102 0
M  V30 861 C 82.1286 -3.0281 -3.08107 0
M  V30 862 C 81.2636 -3.02008 -4.36995 0
M  V30 863 C 80.3026 -4.23782 -4.41673 0
M  V30 864 N 79.4396 -4.20826 -5.62005 0
M  V30 865 H 84.2796 -2.61224 -1.43409 0
M  V30 866 H 81.8166 -1.29508 -0.697565 0
M  V30 867 H 83.7746 -1.78354 -3.77155 0
M  V30 868 H 82.4046 -0.850827 -3.11385 0
M  V30 869 H 81.4566 -3.09584 -2.21047 0
M  V30 870 H 82.7686 -3.92801 -3.07423 0
M  V30 871 H 81.9226 -3.03418 -5.25378 0
M  V30 872 H 80.6616 -2.09815 -4.4026 0
M  V30 873 H 79.6666 -4.22604 -3.5169 0
M  V30 874 H 80.8916 -5.17181 -4.40115 0
M  V30 875 H 78.8376 -3.31476 -5.66091 0
M  V30 876 H 78.7546 -5.04564 -5.62984 0
M  V30 877 H 80.0226 -4.26355 -6.52565 0
M  V30 878 N 84.2517 0.741722 -1.39055 0
M  V30 879 C 85.2147 1.83733 -1.37021 0
M  V30 880 C 86.2147 1.58542 -0.268534 0
M  V30 881 O 87.4047 1.66067 -0.526076 0
M  V30 882 C 84.5367 3.2141 -1.13617 0
M  V30 883 H 85.7297 1.86941 -2.34506 0
M  V30 884 H 83.2827 0.944676 -1.24521 0
M  V30 885 H 84.0177 3.23865 -0.167863 0
M  V30 886 H 83.8027 3.4109 -1.93391 0
M  V30 887 H 85.2927 4.01477 -1.14918 0
M  V30 888 N 85.7298 1.2412 0.971189 0
M  V30 889 C 86.9778 1.07668 1.71032 0
M  V30 890 C 87.2988 -0.385797 1.91146 0
M  V30 891 O 86.5688 -1.27569 1.4867 0
M  V30 892 H 85.1488 0.395429 0.633755 0
M  V30 893 H 87.8108 1.55984 1.16855 0
M  V30 894 H 86.9068 1.57195 2.69622 0
M  V30 895 N 87.2079 -1.17134 1.05439 0
M  V30 896 C 88.4559 -1.87085 0.764429 0
M  V30 897 C 88.7769 -1.81584 -0.710787 0
M  V30 898 O 88.0469 -1.24349 -1.51374 0
M  V30 899 H 86.6269 -0.692627 0.279779 0
M  V30 900 H 89.2889 -1.42087 1.33406 0
M  V30 901 H 88.3849 -2.92759 1.0816 0
M  V30 902 N 88.686 -0.835752 -1.33615 0
M  V30 903 C 89.963 -0.352017 -1.92406 0
M  V30 904 C 90.343 1.16225 -1.76224 0
M  V30 905 O 89.691 1.97526 -1.14873 0
M  V30 906 C 89.901 -0.795485 -3.39813 0
M  V30 907 C 91.249 -0.801703 -4.16963 0
M  V30 908 O 92.273 -0.738889 -3.48452 0
M  V30 909 O 91.132 -0.886607 -5.3926 0
M  V30 910 H 88.226 -0.0989641 -0.821057 0
M  V30 911 H 90.772 -0.921397 -1.42507 0
M  V30 912 H 89.544 -1.83795 -3.45449 0
M  V30 913 H 89.167 -0.202505 -3.97084 0
M  V30 914 N 90.1641 1.46063 -0.591896 0
M  V30 915 C 91.3891 2.07226 -0.0850314 0
M  V30 916 C 91.8141 1.43625 1.21463 0
M  V30 917 O 91.1721 0.523305 1.73583 0
M  V30 918 C 91.2201 3.60554 0.0576567 0
M  V30 919 O 90.3241 3.97128 1.11188 0
M  V30 920 H 89.6651 0.660615 -0.0669568 0
M  V30 921 H 92.1951 1.8756 -0.81745 0
M  V30 922 H 92.2051 4.07165 0.2609 0
M  V30 923 H 90.8801 4.06235 -0.891416 0
M  V30 924 H 89.4571 3.62213 0.886356 0
M  V30 925 N 91.6422 0.330177 1.54103 0
M  V30 926 C 93.0532 -0.15652 1.86043 0
M  V30 927 C 93.4042 -1.51086 1.2517 0
M  V30 928 O 92.5292 -2.09023 0.560217 0
M  V30 929 C 93.1242 -0.290784 3.3755 0
M  V30 930 C 91.6832 -0.721705 3.69416 0
M  V30 931 C 90.8302 0.152622 2.7688 0
M  V30 932 H 93.7812 0.550237 1.48856 0
M  V30 933 H 93.8022 -1.12058 3.63625 0
M  V30 934 H 93.3142 0.695068 3.81825 0
M  V30 935 H 91.4152 -1.71706 3.30678 0
M  V30 936 H 91.5282 -0.520869 4.7626 0
M  V30 937 H 89.8922 -0.372894 2.51956 0
M  V30 938 H 90.6752 1.13536 3.23982 0
M  V30 939 N 93.1203 -1.57491 0.0584922 0
M  V30 940 C 94.3453 -1.97711 -0.62652 0
M  V30 941 C 94.7703 -0.936132 -1.63151 0
M  V30 942 O 94.1283 0.099811 -1.81025 0
M  V30 943 C 94.1763 -3.36989 -1.28338 0
M  V30 944 O 93.2803 -3.35433 -2.39913 0
M  V30 945 H 92.6213 -0.643868 -0.162266 0
M  V30 946 H 95.1513 -2.04193 0.129064 0
M  V30 947 H 95.1613 -3.73879 -1.63335 0
M  V30 948 H 93.8363 -4.12289 -0.546889 0
M  V30 949 H 92.4133 -3.10298 -2.06809 0
M  V30 950 N 94.5984 0.214957 -1.56127 0
M  V30 951 C 95.8444 0.935325 -1.80619 0
M  V30 952 C 96.1994 1.81706 -0.632507 0
M  V30 953 O 95.4924 1.87931 0.373182 0
M  V30 954 C 95.6864 1.80314 -3.0858 0
M  V30 955 C 95.5154 1.00691 -4.38282 0
M  V30 956 C 94.2854 0.699211 -5.00439 0
M  V30 957 C 96.4834 0.369057 -5.12974 0
M  V30 958 N 94.4654 -0.117734 -6.13787 0
M  V30 959 C 95.8364 -0.310981 -6.1922 0
M  V30 960 C 97.8914 0.282759 -4.97096 0
M  V30 961 C 96.5944 -1.06907 -7.11311 0
M  V30 962 C 98.6204 -0.461881 -5.89594 0
M  V30 963 C 97.9824 -1.13044 -6.9527 0
M  V30 964 H 94.0814 0.322307 -0.71249 0
M  V30 965 H 96.6654 0.205649 -1.93611 0
M  V30 966 H 94.8364 2.50458 -2.96859 0
M  V30 967 H 96.5684 2.46148 -3.21237 0
M  V30 968 H 93.3234 1.01884 -4.62511 0
M  V30 969 H 93.7474 -0.515235 -6.75037 0
M  V30 970 H 98.3894 0.785292 -4.15443 0
M  V30 971 H 96.1074 -1.5831 -7.92442 0
M  V30 972 H 99.6934 -0.529746 -5.79383 0
M  V30 973 H 98.5734 -1.69742 -7.65609 0
M  V30 974 N 96.0765 1.50051 0.48192 0
M  V30 975 C 97.0395 1.67584 1.5636 0
M  V30 976 C 98.0395 0.546894 1.51214 0
M  V30 977 O 99.2295 0.813725 1.54026 0
M  V30 978 C 96.3615 1.691 2.96003 0
M  V30 979 H 97.5545 2.64078 1.42136 0
M  V30 980 H 95.1075 1.39369 0.707533 0
M  V30 981 H 95.8425 0.742589 3.15684 0
M  V30 982 H 95.6275 2.51105 3.01146 0
M  V30 983 H 97.1175 1.84656 3.74556 0
M  V30 984 N 97.5546 -0.734337 1.39446 0
M  V30 985 C 98.5016 -1.84835 1.38219 0
M  V30 986 C 99.4716 -1.64331 0.24179 0
M  V30 987 O 100.657 -1.85728 0.437002 0
M  V30 988 C 97.7966 -3.22355 1.23212 0
M  V30 989 C 96.9096 -3.5456 2.46801 0
M  V30 990 C 96.0446 -4.81485 2.24377 0
M  V30 991 C 95.0836 -5.06536 3.43639 0
M  V30 992 N 94.2206 -6.24665 3.20528 0
M  V30 993 H 99.0606 -1.85219 2.33448 0
M  V30 994 H 96.5976 -0.905039 1.15963 0
M  V30 995 H 98.5556 -4.0174 1.12522 0
M  V30 996 H 97.1856 -3.21248 0.316121 0
M  V30 997 H 96.2376 -2.69872 2.68092 0
M  V30 998 H 97.5496 -3.6899 3.3563 0
M  V30 999 H 96.7036 -5.68852 2.10933 0
M  V30 1000 H 95.4426 -4.6923 1.32944 0
M  V30 1001 H 94.4476 -4.17632 3.5758 0
M  V30 1002 H 95.6726 -5.20676 4.35974 0
M  V30 1003 H 93.6186 -6.13696 2.3176 0
M  V30 1004 H 93.5356 -6.39685 4.02913 0
M  V30 1005 H 94.8036 -7.14868 3.10779 0
M  V30 1006 N 99.0327 -1.24633 -0.964593 0
M  V30 1007 C 100.281 -1.08573 -1.70459 0
M  V30 1008 C 100.602 0.375655 -1.91347 0
M  V30 1009 O 99.8717 1.26779 -1.49345 0
M  V30 1010 H 98.4517 -0.398784 -0.631649 0
M  V30 1011 H 101.114 -1.56601 -1.16026 0
M  V30 1012 H 100.21 -1.58623 -2.68785 0
M  V30 1013 N 100.511 1.16574 -1.06058 0
M  V30 1014 C 101.461 2.18854 -0.63929 0
M  V30 1015 C 102.445 1.57505 0.328798 0
M  V30 1016 O 103.637 1.76408 0.144623 0
M  V30 1017 C 100.766 3.43291 -0.0247203 0
M  V30 1018 C 99.8518 4.11722 -1.01716 0
M  V30 1019 N 100.243 4.55841 -2.19186 0
M  V30 1020 C 98.5408 4.37872 -0.847569 0
M  V30 1021 C 99.2418 5.08751 -2.82042 0
M  V30 1022 N 98.2178 5.01489 -2.09784 0
M  V30 1023 H 102.02 2.5068 -1.53417 0
M  V30 1024 H 99.5338 1.32999 -0.931935 0
M  V30 1025 H 101.531 4.15856 0.294915 0
M  V30 1026 H 100.191 3.12954 0.865448 0
M  V30 1027 H 101.202 4.49649 -2.56975 0
M  V30 1028 H 97.8788 4.17499 -0.00918848 0
M  V30 1029 H 99.2688 5.52944 -3.81709 0
M  V30 1030 N 101.989 0.842826 1.3317 0
M  V30 1031 C 103.229 0.446574 1.99462 0
M  V30 1032 C 103.593 -0.976818 1.65295 0
M  V30 1033 O 104.794 -1.477 2.24584 0
M  V30 1034 C 103.065 0.665353 3.51152 0
M  V30 1035 S 104.624 0.364911 4.3728 0
M  V30 1036 H 101.442 0.167803 0.690915 0
M  V30 1037 H 104.044 1.09297 1.62094 0
M  V30 1038 H 102.748 1.7006 3.73507 0
M  V30 1039 H 102.279 0.00494568 3.934 0
M  V30 1040 H 104.294 -0.813761 4.89482 0
M  V30 1041 N 103.467 -1.45747 0.599634 0
M  V30 1042 C 104.878 -1.85853 0.177681 0
M  V30 1043 C 105.229 -1.50102 -1.26348 0
M  V30 1044 O 104.354 -0.923905 -1.95686 0
M  V30 1045 C 104.949 -3.37326 0.315688 0
M  V30 1046 C 103.508 -3.76365 -0.0515144 0
M  V30 1047 C 102.655 -2.69722 0.643822 0
M  V30 1048 H 105.606 -1.36661 0.806814 0
M  V30 1049 H 105.627 -3.77778 -0.454321 0
M  V30 1050 H 105.139 -3.63315 1.36468 0
M  V30 1051 H 103.24 -3.55993 -1.09999 0
M  V30 1052 H 103.353 -4.77916 0.336594 0
M  V30 1053 H 101.717 -2.54567 0.0822881 0
M  V30 1054 H 102.5 -2.98549 1.6948 0
M  V30 1055 N 104.945 -0.338344 -1.53925 0
M  V30 1056 C 106.192 0.259758 -2.00827 0
M  V30 1057 C 106.52 1.50973 -1.22628 0
M  V30 1058 O 105.775 1.93379 -0.300509 0
M  V30 1059 C 106.074 0.62448 -3.51902 0
M  V30 1060 C 105.74 -0.528006 -4.47798 0
M  V30 1061 C 104.402 -0.844298 -4.73735 0
M  V30 1062 C 106.754 -1.30143 -5.0469 0
M  V30 1063 C 104.082 -1.93648 -5.53821 0
M  V30 1064 C 106.434 -2.38382 -5.85967 0
M  V30 1065 C 105.098 -2.70576 -6.10201 0
M  V30 1066 H 104.368 0.0950523 -0.734878 0
M  V30 1067 H 107.015 -0.465182 -1.85764 0
M  V30 1068 H 105.32 1.43006 -3.64769 0
M  V30 1069 H 107.017 1.09905 -3.85645 0
M  V30 1070 H 103.607 -0.271421 -4.2774 0
M  V30 1071 H 107.791 -1.07033 -4.84621 0
M  V30 1072 H 103.047 -2.19021 -5.70824 0
M  V30 1073 H 107.221 -2.98746 -6.29066 0
M  V30 1074 H 104.848 -3.55333 -6.72044 0
M  V30 1075 N 106.423 1.57458 -0.0668435 0
M  V30 1076 C 107.356 2.08033 0.93795 0
M  V30 1077 C 108.334 0.984321 1.29421 0
M  V30 1078 O 109.518 1.25736 1.40437 0
M  V30 1079 C 106.645 2.53388 2.24749 0
M  V30 1080 C 105.691 3.74376 2.04315 0
M  V30 1081 S 106.524 5.19303 1.30706 0
M  V30 1082 C 107.68 5.67986 2.62951 0
M  V30 1083 H 107.913 2.92935 0.50759 0
M  V30 1084 H 105.446 1.5371 0.145804 0
M  V30 1085 H 107.404 2.8018 3.00016 0
M  V30 1086 H 106.065 1.68763 2.64911 0
M  V30 1087 H 105.258 4.04083 3.01218 0
M  V30 1088 H 104.86 3.47931 1.37186 0
M  V30 1089 H 107.152 5.74528 3.5906 0
M  V30 1090 H 108.095 6.66955 2.3786 0
M  V30 1091 H 108.503 4.95781 2.69929 0
M  V30 1092 N 107.901 -0.206675 1.56239 0
M  V30 1093 C 108.831 -1.25909 1.96645 0
M  V30 1094 C 109.812 -1.48097 0.836734 0
M  V30 1095 O 110.997 -1.6003 1.10019 0
M  V30 1096 C 108.127 -2.6058 2.29599 0
M  V30 1097 C 107.081 -2.53024 3.452 0
M  V30 1098 C 106.407 -3.91861 3.63798 0
M  V30 1099 C 107.707 -2.06524 4.79734 0
M  V30 1100 H 109.401 -0.923369 2.84806 0
M  V30 1101 H 106.947 -0.442735 1.37025 0
M  V30 1102 H 108.9 -3.34375 2.56459 0
M  V30 1103 H 107.624 -2.95869 1.38307 0
M  V30 1104 H 106.283 -1.81684 3.18412 0
M  V30 1105 H 105.931 -4.24483 2.69857 0
M  V30 1106 H 105.631 -3.87683 4.4156 0
M  V30 1107 H 107.155 -4.67296 3.93022 0
M  V30 1108 H 108.569 -2.70072 5.05702 0
M  V30 1109 H 106.966 -2.13374 5.60885 0
M  V30 1110 H 108.036 -1.01802 4.74093 0
M  V30 1111 N 109.379 -1.50304 -0.473955 0
M  V30 1112 C 110.604 -1.65175 -1.25427 0
M  V30 1113 C 111.029 -0.333673 -1.85117 0
M  V30 1114 O 110.387 0.702114 -1.67153 0
M  V30 1115 C 110.435 -2.74295 -2.34082 0
M  V30 1116 O 109.539 -2.35349 -3.38651 0
M  V30 1117 H 108.88 -0.551944 -0.369126 0
M  V30 1118 H 111.41 -1.96662 -0.564364 0
M  V30 1119 H 111.42 -2.97285 -2.79438 0
M  V30 1120 H 110.095 -3.69959 -1.90008 0
M  V30 1121 H 108.672 -2.22794 -2.99027 0
M  V30 1122 N 110.857 0.726932 -1.39834 0
M  V30 1123 C 111.767 1.87131 -1.41489 0
M  V30 1124 C 112.783 1.71239 -0.308757 0
M  V30 1125 O 113.959 1.93701 -0.551529 0
M  V30 1126 C 111.024 3.22811 -1.26468 0
M  V30 1127 C 110.085 3.51039 -2.47124 0
M  V30 1128 C 109.318 4.80245 -2.3281 0
M  V30 1129 O 109.541 5.54537 -1.33585 0
M  V30 1130 O 108.475 5.08554 -3.21957 0
M  V30 1131 H 112.301 1.8869 -2.3797 0
M  V30 1132 H 109.886 0.875837 -1.21035 0
M  V30 1133 H 111.768 4.03877 -1.20255 0
M  V30 1134 H 110.443 3.22005 -0.330862 0
M  V30 1135 H 109.35 2.70027 -2.58914 0
M  V30 1136 H 110.683 3.56632 -3.39227 0
M  V30 1137 N 112.336 1.25143 0.95797 0
M  V30 1138 C 113.266 1.07711 2.07173 0
M  V30 1139 C 114.247 -0.0128462 1.70095 0
M  V30 1140 O 115.432 0.156061 1.93572 0
M  V30 1141 C 112.562 0.691503 3.40346 0
M  V30 1142 C 111.516 1.73132 3.9142 0
M  V30 1143 C 110.842 1.20049 5.21049 0
M  V30 1144 C 112.142 3.1294 4.1817 0
M  V30 1145 H 113.836 2.00873 2.22014 0
M  V30 1146 H 111.382 0.967191 1.06684 0
M  V30 1147 H 113.335 0.556505 4.17709 0
M  V30 1148 H 112.059 -0.275819 3.25433 0
M  V30 1149 H 110.718 1.8547 3.16222 0
M  V30 1150 H 110.366 0.223499 5.02503 0
M  V30 1151 H 110.066 1.89545 5.56189 0
M  V30 1152 H 111.59 1.07782 6.01012 0
M  V30 1153 H 113.004 3.03775 4.86203 0
M  V30 1154 H 111.401 3.79875 4.64559 0
M  V30 1155 H 112.471 3.6025 3.24573 0
M  V30 1156 N 113.814 -1.1601 1.06675 0
M  V30 1157 C 114.746 -2.20115 0.638921 0
M  V30 1158 C 115.759 -1.59916 -0.305057 0
M  V30 1159 O 116.948 -1.78245 -0.0954446 0
M  V30 1160 C 114.048 -3.38798 -0.0830083 0
M  V30 1161 C 113.221 -4.2855 0.875426 0
M  V30 1162 C 112.28 -5.25849 0.192042 0
M  V30 1163 O 111.306 -5.63102 0.830921 0
M  V30 1164 N 112.508 -5.70648 -1.06493 0
M  V30 1165 H 115.273 -2.57439 1.53444 0
M  V30 1166 H 112.834 -1.31057 0.950557 0
M  V30 1167 H 114.826 -4.00936 -0.550685 0
M  V30 1168 H 113.396 -2.99947 -0.880386 0
M  V30 1169 H 112.616 -3.63617 1.52238 0
M  V30 1170 H 113.904 -4.85393 1.52548 0
M  V30 1171 H 113.302 -5.42482 -1.60405 0
M  V30 1172 H 111.859 -6.34859 -1.47641 0
M  V30 1173 N 115.292 -0.849877 -1.32721 0
M  V30 1174 C 116.569 -0.372405 -1.92022 0
M  V30 1175 C 116.949 1.1435 -1.77447 0
M  V30 1176 O 116.297 1.96296 -1.16962 0
M  V30 1177 C 116.507 -0.831482 -3.3895 0
M  V30 1178 C 117.855 -0.845882 -4.16089 0
M  V30 1179 O 118.879 -0.775806 -3.47649 0
M  V30 1180 O 117.738 -0.943753 -5.38289 0
M  V30 1181 H 114.832 -0.107667 -0.819961 0
M  V30 1182 H 117.378 -0.93646 -1.41522 0
M  V30 1183 H 116.15 -1.87448 -3.4348 0
M  V30 1184 H 115.773 -0.24461 -3.96847 0
M  V30 1185 N 116.77 1.45427 -0.607355 0
M  V30 1186 C 118.018 2.01841 -0.102253 0
M  V30 1187 C 118.339 1.47832 1.27164 0
M  V30 1188 O 117.609 0.672497 1.83995 0
M  V30 1189 H 116.189 0.746188 -0.0348101 0
M  V30 1190 H 118.851 1.78229 -0.7887 0
M  V30 1191 H 117.947 3.12057 -0.0518585 0
M  V30 1192 N 118.248 0.346503 1.53744 0
M  V30 1193 C 119.195 -0.508914 2.25119 0
M  V30 1194 C 120.165 -1.09315 1.25058 0
M  V30 1195 O 121.35 -1.12921 1.53797 0
M  V30 1196 C 118.49 -1.65246 3.02965 0
M  V30 1197 C 117.603 -1.09525 4.17886 0
M  V30 1198 C 116.738 -2.20634 4.83212 0
M  V30 1199 C 115.777 -1.62279 5.90196 0
M  V30 1200 N 114.914 -2.67143 6.49291 0
M  V30 1201 H 119.754 0.106283 2.9781 0
M  V30 1202 H 117.291 0.0642227 1.4696 0
M  V30 1203 H 119.249 -2.32574 3.4636 0
M  V30 1204 H 117.879 -2.2386 2.32565 0
M  V30 1205 H 116.931 -0.312818 3.79112 0
M  V30 1206 H 118.243 -0.628444 4.94825 0
M  V30 1207 H 117.397 -2.95821 5.29693 0
M  V30 1208 H 116.136 -2.70659 4.05703 0
M  V30 1209 H 115.141 -0.855989 5.43096 0
M  V30 1210 H 116.366 -1.13102 6.69615 0
M  V30 1211 H 114.312 -3.16417 5.74645 0
M  V30 1212 H 114.229 -2.25093 7.21713 0
M  V30 1213 H 115.497 -3.4209 7.00425 0
M  V30 1214 N 119.726 -1.57421 0.075193 0
M  V30 1215 C 120.951 -1.98364 -0.605515 0
M  V30 1216 C 121.376 -0.953383 -1.62149 0
M  V30 1217 O 120.734 0.0806053 -1.81121 0
M  V30 1218 C 120.782 -3.38332 -1.24756 0
M  V30 1219 O 119.886 -3.37959 -2.36342 0
M  V30 1220 H 119.227 -0.645553 -0.155428 0
M  V30 1221 H 121.757 -2.04044 0.150714 0
M  V30 1222 H 121.767 -3.75591 -1.5936 0
M  V30 1223 H 120.442 -4.12846 -0.503129 0
M  V30 1224 H 119.019 -3.12474 -2.03506 0
M  V30 1225 N 121.204 0.198386 -1.56346 0
M  V30 1226 C 122.151 1.24589 -1.94284 0
M  V30 1227 C 123.121 1.454 -0.802997 0
M  V30 1228 O 124.306 1.58588 -1.06087 0
M  V30 1229 C 121.446 2.58631 -2.28482 0
M  V30 1230 C 120.559 2.45426 -3.55514 0
M  V30 1231 C 119.694 3.7215 -3.79049 0
M  V30 1232 C 118.733 3.53763 -4.99518 0
M  V30 1233 N 117.87 4.72491 -5.19323 0
M  V30 1234 H 122.71 0.915356 -2.83593 0
M  V30 1235 H 120.247 0.440629 -1.40346 0
M  V30 1236 H 122.205 3.3672 -2.46324 0
M  V30 1237 H 120.835 2.89734 -1.42317 0
M  V30 1238 H 119.887 1.58652 -3.45737 0
M  V30 1239 H 121.199 2.27772 -4.43758 0
M  V30 1240 H 120.353 4.58679 -3.97113 0
M  V30 1241 H 119.092 3.92754 -2.89129 0
M  V30 1242 H 118.097 2.65619 -4.8138 0
M  V30 1243 H 119.322 3.34607 -5.90944 0
M  V30 1244 H 117.268 4.93365 -4.3235 0
M  V30 1245 H 117.185 4.5765 -6.01741 0
M  V30 1246 H 118.453 5.6038 -5.41843 0
M  V30 1247 N 122.682 1.50554 0.465978 0
M  V30 1248 C 123.931 1.61038 1.21448 0
M  V30 1249 C 124.244 0.31865 1.92987 0
M  V30 1250 O 125.45 0.302469 2.6981 0
M  V30 1251 C 123.906 2.84283 2.20706 0
M  V30 1252 C 123.514 4.20352 1.54946 0
M  V30 1253 C 125.258 3.04115 2.96166 0
M  V30 1254 C 123.165 5.34778 2.5252 0
M  V30 1255 H 122.095 0.599718 0.457005 0
M  V30 1256 H 124.746 1.7699 0.484424 0
M  V30 1257 H 123.128 2.61901 2.97025 0
M  V30 1258 H 124.302 4.53008 0.843811 0
M  V30 1259 H 122.617 4.06167 0.917475 0
M  V30 1260 H 125.214 3.86774 3.69202 0
M  V30 1261 H 125.557 2.16045 3.55852 0
M  V30 1262 H 126.09 3.26702 2.26959 0
M  V30 1263 H 122.829 6.25018 1.97566 0
M  V30 1264 H 122.349 5.06534 3.21222 0
M  V30 1265 H 124.028 5.65561 3.14245 0
M  V30 1266 N 124.16 -0.719506 1.40217 0
M  V30 1267 C 125.406 -1.48152 1.38488 0
M  V30 1268 C 125.739 -1.94195 -0.0141867 0
M  V30 1269 O 125.014 -1.67884 -0.982096 0
M  V30 1270 C 125.297 -2.71035 2.37091 0
M  V30 1271 C 125.15 -2.30912 3.86005 0
M  V30 1272 C 126.469 -3.73182 2.33288 0
M  V30 1273 H 123.588 -0.537395 0.504357 0
M  V30 1274 H 126.23 -0.821472 1.71324 0
M  V30 1275 H 124.38 -3.27352 2.0922 0
M  V30 1276 H 126.052 -1.80107 4.24687 0
M  V30 1277 H 124.295 -1.62958 4.02029 0
M  V30 1278 H 124.966 -3.18978 4.50508 0
M  V30 1279 H 127.442 -3.26485 2.57966 0
M  V30 1280 H 126.318 -4.56806 3.04334 0
M  V30 1281 H 126.579 -4.21202 1.34317 0
M  V30 1282 N 125.638 -1.25649 -0.95132 0
M  V30 1283 C 126.57 -1.02112 -2.05197 0
M  V30 1284 C 127.583 0.0150571 -1.62793 0
M  V30 1285 O 128.772 -0.223874 -1.77091 0
M  V30 1286 C 125.872 -0.522361 -3.3485 0
M  V30 1287 C 125.045 -1.62546 -4.06076 0
M  V30 1288 C 124.104 -1.12649 -5.14001 0
M  V30 1289 O 123.13 -1.82156 -5.39266 0
M  V30 1290 N 124.332 0.03047 -5.80492 0
M  V30 1291 H 127.097 -1.96885 -2.25957 0
M  V30 1292 H 124.658 -1.16899 -1.1201 0
M  V30 1293 H 126.65 -0.172961 -4.0433 0
M  V30 1294 H 125.22 0.33151 -3.10837 0
M  V30 1295 H 124.44 -2.14628 -3.30649 0
M  V30 1296 H 125.728 -2.36644 -4.50419 0
M  V30 1297 H 125.126 0.611169 -5.62389 0
M  V30 1298 H 123.683 0.320875 -6.5101 0
M  V30 1299 N 127.117 1.15442 -1.07289 0
M  V30 1300 C 128.064 2.20161 -0.692653 0
M  V30 1301 C 129.034 1.63073 0.31564 0
M  V30 1302 O 130.219 1.89725 0.202235 0
M  V30 1303 C 127.359 3.44967 -0.0959509 0
M  V30 1304 C 126.472 4.16256 -1.15564 0
M  V30 1305 C 125.607 5.28609 -0.524011 0
M  V30 1306 C 124.646 5.91715 -1.56653 0
M  V30 1307 N 123.783 6.9554 -0.957531 0
M  V30 1308 H 128.623 2.52037 -1.59002 0
M  V30 1309 H 126.16 1.2378 -0.794798 0
M  V30 1310 H 128.118 4.16341 0.267628 0
M  V30 1311 H 126.748 3.1361 0.764772 0
M  V30 1312 H 125.8 3.43385 -1.6368 0
M  V30 1313 H 127.112 4.59268 -1.94613 0
M  V30 1314 H 126.266 6.06604 -0.108032 0
M  V30 1315 H 125.005 4.86787 0.29825 0
M  V30 1316 H 124.01 5.12433 -1.9923 0
M  V30 1317 H 125.235 6.35614 -2.39107 0
M  V30 1318 H 123.181 6.55814 -0.156162 0
M  V30 1319 H 123.098 7.36977 -1.68526 0
M  V30 1320 H 124.366 7.77435 -0.567032 0
M  V30 1321 N 128.595 0.856903 1.32268 0
M  V30 1322 C 129.558 0.308171 2.27119 0
M  V30 1323 C 130.558 -0.533421 1.51695 0
M  V30 1324 O 131.748 -0.344607 1.70757 0
M  V30 1325 C 128.88 -0.563757 3.36206 0
M  V30 1326 H 130.073 1.14535 2.77167 0
M  V30 1327 H 127.626 0.631421 1.42978 0
M  V30 1328 H 128.361 -1.42266 2.91429 0
M  V30 1329 H 128.146 0.0386749 3.92081 0
M  V30 1330 H 129.636 -0.940386 4.06874 0
M  V30 1331 N 130.073 -1.45103 0.615059 0
M  V30 1332 C 131.036 -2.29025 -0.0895485 0
M  V30 1333 C 132.036 -1.40174 -0.787906 0
M  V30 1334 O 133.226 -1.62217 -0.634933 0
M  V30 1335 C 130.358 -3.21376 -1.13711 0
M  V30 1336 H 131.551 -2.92807 0.648382 0
M  V30 1337 H 129.104 -1.51749 0.374444 0
M  V30 1338 H 129.839 -2.6241 -1.90556 0
M  V30 1339 H 129.624 -3.86834 -0.640475 0
M  V30 1340 H 131.114 -3.84459 -1.63036 0
M  V30 1341 N 131.551 -0.354651 -1.53558 0
M  V30 1342 C 132.962 0.126902 -1.86268 0
M  V30 1343 C 133.313 1.49075 -1.27558 0
M  V30 1344 O 132.438 2.08105 -0.5934 0
M  V30 1345 C 133.033 0.237046 -3.3797 0
M  V30 1346 C 131.592 0.662842 -3.70518 0
M  V30 1347 C 130.739 -0.196652 -2.76602 0
M  V30 1348 H 133.69 -0.573849 -1.47962 0
M  V30 1349 H 133.711 1.06259 -3.65362 0
M  V30 1350 H 133.223 -0.755725 -3.80671 0
M  V30 1351 H 131.324 1.66424 -3.33367 0
M  V30 1352 H 131.437 0.445034 -4.77029 0
M  V30 1353 H 129.801 0.332763 -2.52517 0
M  V30 1354 H 130.584 -1.18676 -3.22135 0
M  V30 1355 N 133.029 1.57378 -0.0835403 0
M  V30 1356 C 133.939 2.16897 0.894021 0
M  V30 1357 C 134.955 1.13528 1.31861 0
M  V30 1358 O 136.131 1.45848 1.3889 0
M  V30 1359 C 133.196 2.72831 2.13925 0
M  V30 1360 C 132.257 3.91115 1.76997 0
M  V30 1361 C 131.49 4.44371 2.95584 0
M  V30 1362 O 131.713 3.96596 4.09961 0
M  V30 1363 O 130.647 5.35549 2.74719 0
M  V30 1364 H 134.473 3.00814 0.417679 0
M  V30 1365 H 132.058 1.48741 0.140181 0
M  V30 1366 H 133.94 3.0863 2.86924 0
M  V30 1367 H 132.615 1.91967 2.60635 0
M  V30 1368 H 131.522 3.60148 1.01214 0
M  V30 1369 H 132.855 4.73307 1.3506 0
M  V30 1370 N 134.507 -0.190092 1.56449 0
M  V30 1371 C 135.753 -0.911052 1.81184 0
M  V30 1372 C 136.086 -1.82699 0.658396 0
M  V30 1373 O 135.361 -1.91491 -0.340775 0
M  V30 1374 C 135.644 -1.72297 3.16205 0
M  V30 1375 C 135.497 -0.831419 4.42049 0
M  V30 1376 C 136.816 -2.69454 3.47969 0
M  V30 1377 H 133.935 -0.32977 0.659106 0
M  V30 1378 H 136.577 -0.178169 1.89163 0
M  V30 1379 H 134.727 -2.34778 3.09534 0
M  V30 1380 H 136.399 -0.220929 4.60771 0
M  V30 1381 H 134.642 -0.138406 4.33579 0
M  V30 1382 H 135.313 -1.43461 5.33032 0
M  V30 1383 H 137.789 -2.17104 3.54972 0
M  V30 1384 H 136.665 -3.23342 4.43555 0
M  V30 1385 H 136.926 -3.48744 2.71717 0
M  V30 1386 N 135.985 -1.50799 -0.457987 0
M  V30 1387 C 136.917 -1.66786 -1.57211 0
M  V30 1388 C 137.93 -0.548962 -1.53265 0
M  V30 1389 O 139.119 -0.8226 -1.58416 0
M  V30 1390 C 136.219 -1.64834 -2.96113 0
M  V30 1391 C 135.392 -2.92971 -3.24787 0
M  V30 1392 C 134.451 -2.83485 -4.43309 0
M  V30 1393 O 133.477 -3.5744 -4.42973 0
M  V30 1394 N 134.679 -1.97929 -5.45714 0
M  V30 1395 H 137.444 -2.62889 -1.43909 0
M  V30 1396 H 135.005 -1.48427 -0.646617 0
M  V30 1397 H 136.997 -1.56084 -3.7339 0
M  V30 1398 H 135.567 -0.764118 -3.03117 0
M  V30 1399 H 134.787 -3.15749 -2.36 0
M  V30 1400 H 136.075 -3.77834 -3.40762 0
M  V30 1401 H 135.473 -1.37182 -5.48815 0
M  V30 1402 H 134.03 -1.95073 -6.21924 0
M  V30 1403 N 137.463 0.71206 -1.40597 0
M  V30 1404 C 138.373 1.8562 -1.43466 0
M  V30 1405 C 139.389 1.70902 -0.326902 0
M  V30 1406 O 140.565 1.93105 -0.572043 0
M  V30 1407 C 137.63 3.21451 -1.29884 0
M  V30 1408 C 136.691 3.48398 -2.50833 0
M  V30 1409 C 135.924 4.77749 -2.3789 0
M  V30 1410 O 136.147 5.53089 -1.39459 0
M  V30 1411 O 135.081 5.05111 -3.27333 0
M  V30 1412 H 138.907 1.86155 -2.39958 0
M  V30 1413 H 136.492 0.86295 -1.21957 0
M  V30 1414 H 138.374 4.02579 -1.24531 0
M  V30 1415 H 137.049 3.21636 -0.364997 0
M  V30 1416 H 135.956 2.67265 -2.61763 0
M  V30 1417 H 137.289 3.53014 -3.4299 0
M  V30 1418 N 138.941 1.26152 0.944643 0
M  V30 1419 C 140.218 1.02247 1.66748 0
M  V30 1420 C 140.598 -0.448202 2.06287 0
M  V30 1421 O 139.946 -1.42779 1.78399 0
M  V30 1422 C 140.156 1.96788 2.88228 0
M  V30 1423 C 141.504 2.25201 3.59958 0
M  V30 1424 O 142.528 1.94626 2.98327 0
M  V30 1425 O 141.387 2.77242 4.70956 0
M  V30 1426 H 138.481 0.388517 0.730057 0
M  V30 1427 H 141.027 1.37348 0.99668 0
M  V30 1428 H 139.799 2.96047 2.55875 0
M  V30 1429 H 139.422 1.62145 3.63035 0
M  V30 1430 N 140.419 -1.14872 1.07899 0
M  V30 1431 C 141.665 -1.86064 0.806725 0
M  V30 1432 C 141.998 -1.82434 -0.665706 0
M  V30 1433 O 141.273 -1.25138 -1.48899 0
M  V30 1434 C 141.556 -3.34929 1.32267 0
M  V30 1435 C 141.409 -3.47161 2.86006 0
M  V30 1436 C 142.728 -4.29863 0.943717 0
M  V30 1437 H 139.847 -0.675591 0.294526 0
M  V30 1438 H 142.489 -1.34925 1.33773 0
M  V30 1439 H 140.639 -3.78611 0.870974 0
M  V30 1440 H 142.311 -3.12302 3.39507 0
M  V30 1441 H 140.554 -2.88539 3.23925 0
M  V30 1442 H 141.225 -4.51777 3.17177 0
M  V30 1443 H 143.701 -3.9417 1.33302 0
M  V30 1444 H 142.577 -5.32494 1.33198 0
M  V30 1445 H 142.838 -4.41846 -0.149796 0
M  V30 1446 N 141.898 -0.863906 -1.31812 0
M  V30 1447 C 142.845 -0.313303 -2.28664 0
M  V30 1448 C 143.815 0.584868 -1.55462 0
M  V30 1449 O 145 0.517805 -1.83639 0
M  V30 1450 C 142.14 0.48441 -3.41683 0
M  V30 1451 C 141.253 -0.440594 -4.29747 0
M  V30 1452 C 140.388 0.370652 -5.29905 0
M  V30 1453 C 139.427 -0.551164 -6.09613 0
M  V30 1454 N 138.564 0.223462 -7.01744 0
M  V30 1455 H 143.404 -1.14444 -2.75148 0
M  V30 1456 H 140.941 -0.575769 -1.35364 0
M  V30 1457 H 142.899 0.962627 -4.05943 0
M  V30 1458 H 141.529 1.28029 -2.96325 0
M  V30 1459 H 140.581 -1.03724 -3.65986 0
M  V30 1460 H 141.893 -1.14767 -4.85417 0
M  V30 1461 H 141.047 0.911638 -5.99812 0
M  V30 1462 H 139.786 1.11105 -4.74876 0
M  V30 1463 H 138.791 -1.10396 -5.38603 0
M  V30 1464 H 140.016 -1.29032 -6.66729 0
M  V30 1465 H 137.962 0.946787 -6.49132 0
M  V30 1466 H 137.879 -0.424399 -7.54808 0
M  V30 1467 H 139.147 0.745876 -7.75923 0
M  V30 1468 N 143.376 1.44774 -0.622745 0
M  V30 1469 C 144.339 2.29069 0.0774015 0
M  V30 1470 C 145.339 1.4059 0.780461 0
M  V30 1471 O 146.529 1.62551 0.626322 0
M  V30 1472 C 143.661 3.21974 1.12006 0
M  V30 1473 H 144.854 2.92459 -0.663901 0
M  V30 1474 H 142.407 1.51548 -0.382486 0
M  V30 1475 H 143.142 2.63417 1.89162 0
M  V30 1476 H 142.927 3.87168 0.619951 0
M  V30 1477 H 144.417 3.85318 1.60995 0
M  V30 1478 N 144.854 0.36279 1.53368 0
M  V30 1479 C 146.101 -0.227776 2.01215 0
M  V30 1480 C 146.429 -1.49003 1.25014 0
M  V30 1481 O 145.684 -1.92876 0.331236 0
M  V30 1482 C 145.983 -0.568417 3.52851 0
M  V30 1483 C 145.649 0.59918 4.46901 0
M  V30 1484 C 144.311 0.919559 4.72332 0
M  V30 1485 C 146.663 1.38156 5.02556 0
M  V30 1486 C 143.991 2.02434 5.5067 0
M  V30 1487 C 146.343 2.47674 5.821 0
M  V30 1488 C 145.007 2.8025 6.05819 0
M  V30 1489 H 144.277 -0.083349 0.736297 0
M  V30 1490 H 146.924 0.494677 1.85001 0
M  V30 1491 H 145.229 -1.37185 3.66998 0
M  V30 1492 H 146.926 -1.03756 3.87344 0
M  V30 1493 H 143.516 0.339437 4.27254 0
M  V30 1494 H 147.7 1.14729 4.82857 0
M  V30 1495 H 142.956 2.28075 5.67267 0
M  V30 1496 H 147.13 3.08716 6.24234 0
M  V30 1497 H 144.757 3.65979 6.66306 0
M  V30 1498 N 146.332 -1.57332 0.0918853 0
M  V30 1499 C 147.279 -2.13847 -0.868211 0
M  V30 1500 C 148.249 -1.05618 -1.28196 0
M  V30 1501 O 149.434 -1.33387 -1.36427 0
M  V30 1502 C 146.574 -2.72062 -2.12312 0
M  V30 1503 C 145.687 -3.94514 -1.7602 0
M  V30 1504 C 144.822 -4.40903 -2.96273 0
M  V30 1505 C 143.861 -5.55953 -2.56092 0
M  V30 1506 N 142.998 -5.97209 -3.69169 0
M  V30 1507 H 147.838 -2.95575 -0.379406 0
M  V30 1508 H 145.375 -1.46048 -0.175606 0
M  V30 1509 H 147.333 -3.03931 -2.858 0
M  V30 1510 H 145.963 -1.93068 -2.58698 0
M  V30 1511 H 145.015 -3.68979 -0.925135 0
M  V30 1512 H 146.327 -4.7802 -1.42472 0
M  V30 1513 H 145.481 -4.74539 -3.78018 0
M  V30 1514 H 144.22 -3.56291 -3.33029 0
M  V30 1515 H 143.225 -5.21948 -1.72773 0
M  V30 1516 H 144.45 -6.42311 -2.20484 0
M  V30 1517 H 142.396 -5.15543 -4.05649 0
M  V30 1518 H 142.313 -6.75504 -3.39456 0
M  V30 1519 H 143.581 -6.35475 -4.51434 0
M  V30 1520 N 147.81 0.181792 -1.56548 0
M  V30 1521 C 149.038 0.915947 -1.85521 0
M  V30 1522 C 149.453 1.76282 -0.676016 0
M  V30 1523 O 148.81 1.79012 0.355077 0
M  V30 1524 C 148.861 1.80126 -3.13427 0
M  V30 1525 O 148.582 0.988562 -4.26801 0
M  V30 1526 C 150.083 2.64597 -3.55673 0
M  V30 1527 H 147.303 0.26661 -0.61576 0
M  V30 1528 H 149.847 0.185039 -2.03661 0
M  V30 1529 H 148.002 2.48563 -2.97145 0
M  V30 1530 H 148.416 1.59308 -4.99721 0
M  V30 1531 H 149.89 3.2235 -4.48101 0
M  V30 1532 H 150.367 3.38958 -2.79292 0
M  V30 1533 H 150.973 2.0151 -3.74532 0
M  V30 1534 N 149.288 1.51039 0.449983 0
M  V30 1535 C 150.565 1.53612 1.21089 0
M  V30 1536 C 150.945 0.292997 2.09057 0
M  V30 1537 O 150.293 -0.72259 2.16774 0
M  V30 1538 C 150.503 2.84337 2.0237 0
M  V30 1539 C 151.851 3.35807 2.59843 0
M  V30 1540 O 152.875 2.85802 2.12593 0
M  V30 1541 O 151.734 4.23029 3.45989 0
M  V30 1542 H 148.828 0.617057 0.550608 0
M  V30 1543 H 151.374 1.63344 0.460082 0
M  V30 1544 H 150.146 3.66278 1.37681 0
M  V30 1545 H 149.769 2.77708 2.84542 0
M  V30 1546 N 150.766 -0.704594 1.40972 0
M  V30 1547 C 151.696 -1.83124 1.44872 0
M  V30 1548 C 152.677 -1.67281 0.30838 0
M  V30 1549 O 153.862 -1.87149 0.518556 0
M  V30 1550 C 150.992 -3.21181 1.32136 0
M  V30 1551 C 149.946 -3.51714 2.43888 0
M  V30 1552 C 149.272 -4.89032 2.16222 0
M  V30 1553 C 150.572 -3.516 3.86232 0
M  V30 1554 H 152.266 -1.80117 2.39161 0
M  V30 1555 H 149.812 -0.865145 1.15114 0
M  V30 1556 H 151.765 -3.99702 1.33479 0
M  V30 1557 H 150.489 -3.24791 0.343279 0
M  V30 1558 H 149.148 -2.75539 2.41813 0
M  V30 1559 H 148.796 -4.89256 1.16778 0
M  V30 1560 H 148.496 -5.10426 2.911 0
M  V30 1561 H 150.02 -5.69873 2.19265 0
M  V30 1562 H 151.434 -4.2014 3.9007 0
M  V30 1563 H 149.831 -3.84523 4.60719 0
M  V30 1564 H 150.901 -2.50757 4.15029 0
M  V30 1565 N 152.244 -1.26651 -0.937939 0
M  V30 1566 C 153.655 -1.1125 -1.49934 0
M  V30 1567 C 154.006 0.306077 -1.93798 0
M  V30 1568 O 153.131 1.19792 -1.80219 0
M  V30 1569 C 153.726 -2.01339 -2.72485 0
M  V30 1570 C 152.285 -1.90074 -3.24883 0
M  V30 1571 C 151.432 -1.94498 -1.97651 0
M  V30 1572 H 154.383 -1.39693 -0.753091 0
M  V30 1573 H 154.404 -1.56319 -3.46907 0
M  V30 1574 H 153.916 -3.04577 -2.40529 0
M  V30 1575 H 152.017 -0.897827 -3.61621 0
M  V30 1576 H 152.13 -2.75778 -3.9177 0
M  V30 1577 H 150.494 -1.38591 -2.13693 0
M  V30 1578 H 151.277 -2.99372 -1.68022 0
M  V30 1579 N 153.722 1.14298 -1.08507 0
M  V30 1580 C 154.947 1.8976 -0.837001 0
M  V30 1581 C 155.372 1.78097 0.605228 0
M  V30 1582 O 154.73 1.12188 1.4242 0
M  V30 1583 C 154.778 3.37685 -1.26495 0
M  V30 1584 O 153.882 4.10281 -0.417514 0
M  V30 1585 H 153.223 0.590365 -0.303917 0
M  V30 1586 H 155.753 1.44672 -1.44676 0
M  V30 1587 H 155.763 3.88501 -1.24625 0
M  V30 1588 H 154.438 3.45492 -2.31534 0
M  V30 1589 H 153.015 3.69536 -0.499722 0
M  V30 1590 N 155.201 0.870884 1.31352 0
M  V30 1591 C 156.426 0.495957 2.01383 0
M  V30 1592 C 156.851 -0.904324 1.64935 0
M  V30 1593 O 156.209 -1.59687 0.858466 0
M  V30 1594 C 156.257 0.661433 3.54482 0
M  V30 1595 O 155.361 -0.298851 4.11316 0
M  V30 1596 H 154.702 0.197158 0.634054 0
M  V30 1597 H 157.232 1.17455 1.67527 0
M  V30 1598 H 157.242 0.555072 4.04207 0
M  V30 1599 H 155.917 1.68246 3.8035 0
M  V30 1600 H 154.494 -0.147368 3.72609 0
M  V30 1601 N 156.679 -1.44442 0.630414 0
M  V30 1602 C 157.609 -2.33418 -0.0618083 0
M  V30 1603 C 158.59 -1.48165 -0.835541 0
M  V30 1604 O 159.775 -1.76886 -0.801564 0
M  V30 1605 C 156.905 -3.31222 -1.04449 0
M  V30 1606 C 155.859 -4.26288 -0.382436 0
M  V30 1607 C 155.185 -5.13954 -1.47497 0
M  V30 1608 C 156.485 -5.1744 0.710865 0
M  V30 1609 H 158.179 -2.91548 0.681184 0
M  V30 1610 H 155.725 -1.40191 0.329026 0
M  V30 1611 H 157.678 -3.92351 -1.53748 0
M  V30 1612 H 156.402 -2.71299 -1.81836 0
M  V30 1613 H 155.061 -3.6649 0.0899054 0
M  V30 1614 H 154.709 -4.50385 -2.2397 0
M  V30 1615 H 154.409 -5.7837 -1.03737 0
M  V30 1616 H 155.933 -5.77955 -1.96979 0
M  V30 1617 H 157.347 -5.72509 0.300996 0
M  V30 1618 H 155.744 -5.90455 1.07156 0
M  V30 1619 H 156.814 -4.58496 1.57829 0
M  V30 1620 N 158.157 -0.370918 -1.53173 0
M  V30 1621 C 159.403 0.217423 -2.01631 0
M  V30 1622 C 159.736 1.47983 -1.25756 0
M  V30 1623 O 159.011 1.91274 -0.352764 0
M  V30 1624 C 159.294 0.503982 -3.56556 0
M  V30 1625 C 159.147 -0.77243 -4.43118 0
M  V30 1626 C 160.466 1.30234 -4.20389 0
M  V30 1627 H 157.585 0.0775486 -0.732909 0
M  V30 1628 H 160.227 -0.496863 -1.83388 0
M  V30 1629 H 158.377 1.11248 -3.72231 0
M  V30 1630 H 160.049 -1.4098 -4.39229 0
M  V30 1631 H 158.292 -1.39167 -4.10871 0
M  V30 1632 H 158.963 -0.526815 -5.4948 0
M  V30 1633 H 161.439 0.787546 -4.08579 0
M  V30 1634 H 160.315 1.47158 -5.28806 0
M  V30 1635 H 160.576 2.31237 -3.76805 0
M  V30 1636 N 159.635 1.57281 -0.100228 0
M  V30 1637 C 160.86 1.99302 0.573881 0
M  V30 1638 C 161.285 0.979059 1.60611 0
M  V30 1639 O 160.643 -0.0517803 1.81226 0
M  V30 1640 C 160.691 3.40274 1.19358 0
M  V30 1641 O 159.795 3.41676 2.30935 0
M  V30 1642 H 159.136 0.647944 0.145138 0
M  V30 1643 H 161.666 2.03779 -0.183156 0
M  V30 1644 H 161.676 3.78078 1.53365 0
M  V30 1645 H 160.351 4.13594 0.437385 0
M  V30 1646 H 158.928 3.15672 1.98509 0
M  V30 1647 N 161.113 -0.173488 1.56642 0
M  V30 1648 C 162.359 -0.891784 1.8214 0
M  V30 1649 C 162.692 -1.8199 0.677736 0
M  V30 1650 O 161.967 -1.91842 -0.320446 0
M  V30 1651 C 162.25 -1.68933 3.18015 0
M  V30 1652 C 162.103 -0.784487 4.42906 0
M  V30 1653 C 163.422 -2.65748 3.50808 0
M  V30 1654 H 160.541 -0.322761 0.662567 0
M  V30 1655 H 163.183 -0.158095 1.89341 0
M  V30 1656 H 161.333 -2.31482 3.12007 0
M  V30 1657 H 163.005 -0.172046 4.60979 0
M  V30 1658 H 161.248 -0.0924117 4.33702 0
M  V30 1659 H 161.919 -1.37799 5.34524 0
M  V30 1660 H 164.395 -2.13327 3.57255 0
M  V30 1661 H 163.271 -3.18619 4.4696 0
M  V30 1662 H 163.532 -3.45842 2.75401 0
M  V30 1663 N 162.591 -1.51276 -0.441967 0
M  V30 1664 C 163.816 -1.67799 -1.21895 0
M  V30 1665 C 164.241 -0.372864 -1.84367 0
M  V30 1666 O 163.599 0.666501 -1.68604 0
M  V30 1667 C 163.647 -2.79199 -2.28211 0
M  V30 1668 O 162.751 -2.42479 -3.33583 0
M  V30 1669 H 162.092 -0.559649 -0.357336 0
M  V30 1670 H 164.622 -1.97815 -0.522522 0
M  V30 1671 H 164.632 -3.03146 -2.73069 0
M  V30 1672 H 163.307 -3.73906 -1.82118 0
M  V30 1673 H 161.884 -2.29087 -2.94234 0
M  V30 1674 N 164.069 0.697108 -1.41344 0
M  V30 1675 C 164.999 1.82353 -1.45841 0
M  V30 1676 C 165.98 1.67115 -0.317247 0
M  V30 1677 O 167.165 1.86871 -0.528474 0
M  V30 1678 C 164.295 3.20476 -1.33838 0
M  V30 1679 C 163.249 3.50415 -2.4575 0
M  V30 1680 C 162.575 4.87878 -2.18813 0
M  V30 1681 C 163.875 3.49546 -3.88091 0
M  V30 1682 H 165.569 1.78846 -2.40113 0
M  V30 1683 H 163.115 0.859028 -1.15571 0
M  V30 1684 H 165.068 3.98988 -1.35596 0
M  V30 1685 H 163.792 3.24604 -0.360498 0
M  V30 1686 H 162.451 2.74253 -2.43271 0
M  V30 1687 H 162.099 4.8863 -1.19371 0
M  V30 1688 H 161.799 5.08875 -2.93803 0
M  V30 1689 H 163.323 5.68702 -2.22284 0
M  V30 1690 H 164.737 4.18066 -3.92293 0
M  V30 1691 H 163.134 3.82075 -4.62751 0
M  V30 1692 H 164.204 2.48552 -4.16353 0
M  V30 1693 N 165.547 1.27147 0.931209 0
M  V30 1694 C 166.963 1.04475 1.20653 0
M  V30 1695 C 167.163 -0.223885 2.00252 0
M  V30 1696 O 166.219 -0.930332 2.34736 0
M  V30 1697 C 167.532 2.28209 1.95809 0
M  V30 1698 C 169.08 2.33211 2.08762 0
M  V30 1699 C 169.555 3.56665 2.87323 0
M  V30 1700 N 171.046 3.57201 2.94892 0
M  V30 1701 C 171.781 4.49395 3.56134 0
M  V30 1702 N 171.277 5.51889 4.18796 0
M  V30 1703 N 173.07 4.37026 3.53504 0
M  V30 1704 H 165.221 2.08612 0.399333 0
M  V30 1705 H 167.484 0.917312 0.239253 0
M  V30 1706 H 167.19 3.20538 1.44736 0
M  V30 1707 H 167.064 2.33247 2.96438 0
M  V30 1708 H 169.451 1.41391 2.59023 0
M  V30 1709 H 169.532 2.32178 1.07364 0
M  V30 1710 H 169.176 4.4882 2.37746 0
M  V30 1711 H 169.106 3.54948 3.88998 0
M  V30 1712 H 171.597 2.83074 2.50354 0
M  V30 1713 H 171.91 6.18409 4.63454 0
M  V30 1714 H 170.255 5.55735 4.17353 0
M  V30 1715 H 173.446 3.56166 3.03749 0
M  V30 1716 H 173.619 5.09067 4.00942 0
M  V30 1717 N 167.025 -1.13721 1.09112 0
M  V30 1718 C 167.972 -2.19031 0.727591 0
M  V30 1719 C 168.942 -1.63555 -0.289656 0
M  V30 1720 O 170.127 -1.90023 -0.172026 0
M  V30 1721 C 167.267 -3.4477 0.15082 0
M  V30 1722 C 166.38 -4.14365 1.22172 0
M  V30 1723 C 165.515 -5.27709 0.608042 0
M  V30 1724 C 164.554 -5.89147 1.66047 0
M  V30 1725 N 163.691 -6.93929 1.06806 0
M  V30 1726 H 168.531 -2.49475 1.62991 0
M  V30 1727 H 166.068 -1.22499 0.81439 0
M  V30 1728 H 168.026 -4.16714 -0.201358 0
M  V30 1729 H 166.656 -3.14787 -0.714783 0
M  V30 1730 H 165.708 -3.40737 1.69122 0
M  V30 1731 H 167.02 -4.56114 2.01895 0
M  V30 1732 H 166.174 -6.06355 0.204523 0
M  V30 1733 H 164.913 -4.872 -0.220769 0
M  V30 1734 H 163.918 -5.09198 2.07357 0
M  V30 1735 H 165.143 -6.31729 2.49189 0
M  V30 1736 H 163.089 -6.55483 0.260476 0
M  V30 1737 H 163.006 -7.34202 1.8023 0
M  V30 1738 H 164.274 -7.76434 0.690644 0
M  V30 1739 N 168.503 -0.877838 -1.30888 0
M  V30 1740 C 169.914 -0.544193 -1.78593 0
M  V30 1741 C 170.265 0.939301 -1.72254 0
M  V30 1742 O 169.39 1.7337 -1.29505 0
M  V30 1743 C 169.985 -0.98105 -3.24285 0
M  V30 1744 C 168.544 -0.698935 -3.69854 0
M  V30 1745 C 167.691 -1.168 -2.51502 0
M  V30 1746 H 170.642 -1.06278 -1.17859 0
M  V30 1747 H 170.663 -0.307009 -3.79259 0
M  V30 1748 H 170.175 -2.06079 -3.28866 0
M  V30 1749 H 168.276 0.369112 -3.70767 0
M  V30 1750 H 168.389 -1.28148 -4.61644 0
M  V30 1751 H 166.753 -0.587535 -2.47831 0
M  V30 1752 H 167.536 -2.25533 -2.58824 0
M  V30 1753 N 169.982 1.44106 -0.638065 0
M  V30 1754 C 171.229 2.01978 -0.14533 0
M  V30 1755 C 171.557 1.50234 1.23532 0
M  V30 1756 O 170.812 0.679548 1.83523 0
M  V30 1757 C 171.111 3.5729 -0.0887327 0
M  V30 1758 C 170.777 4.28317 -1.40909 0
M  V30 1759 C 169.439 4.47437 -1.77069 0
M  V30 1760 C 171.791 4.6867 -2.28031 0
M  V30 1761 C 169.119 5.04171 -3.00047 0
M  V30 1762 C 171.471 5.26766 -3.50286 0
M  V30 1763 C 170.135 5.44104 -3.86661 0
M  V30 1764 H 169.405 0.739089 -0.0531801 0
M  V30 1765 H 172.052 1.72781 -0.825761 0
M  V30 1766 H 170.357 3.8594 0.675095 0
M  V30 1767 H 172.054 3.99807 0.309145 0
M  V30 1768 H 168.644 4.1377 -1.1177 0
M  V30 1769 H 172.828 4.53604 -2.01388 0
M  V30 1770 H 168.084 5.15782 -3.28298 0
M  V30 1771 H 172.258 5.56983 -4.18023 0
M  V30 1772 H 169.885 5.87832 -4.82034 0
M  V30 1773 N 171.46 0.379036 1.52974 0
M  V30 1774 C 172.685 -0.209353 2.06341 0
M  V30 1775 C 173.11 -1.40583 1.24972 0
M  V30 1776 O 172.468 -1.79246 0.272155 0
M  V30 1777 C 172.516 -0.567786 3.56102 0
M  V30 1778 O 171.62 -1.66318 3.77375 0
M  V30 1779 H 170.961 -0.0272919 0.663439 0
M  V30 1780 H 173.491 0.543536 1.97248 0
M  V30 1781 H 173.501 -0.835003 3.99364 0
M  V30 1782 H 172.176 0.307013 4.14765 0
M  V30 1783 H 170.753 -1.39048 3.46006 0
M  V30 1784 N 172.938 -1.57226 0.108567 0
M  V30 1785 C 174.186 -1.94448 -0.550853 0
M  V30 1786 C 174.507 -0.992074 -1.67878 0
M  V30 1787 O 173.777 -0.0465 -1.95845 0
M  V30 1788 H 172.357 -0.717897 -0.206479 0
M  V30 1789 H 175.019 -1.94112 0.175062 0
M  V30 1790 H 174.115 -2.97218 -0.952259 0
M  V30 1791 N 174.416 0.165178 -1.56732 0
M  V30 1792 C 175.827 0.727046 -1.71962 0
M  V30 1793 C 176.178 1.82508 -0.720078 0
M  V30 1794 O 175.303 2.16082 0.117242 0
M  V30 1795 C 175.898 1.32559 -3.11791 0
M  V30 1796 C 174.457 1.83422 -3.28684 0
M  V30 1797 C 173.604 0.715567 -2.67908 0
M  V30 1798 H 176.555 -0.0602896 -1.58585 0
M  V30 1799 H 176.576 2.19533 -3.10782 0
M  V30 1800 H 176.088 0.526195 -3.84516 0
M  V30 1801 H 174.189 2.65986 -2.60926 0
M  V30 1802 H 174.302 1.97543 -4.36478 0
M  V30 1803 H 172.666 1.13758 -2.27884 0
M  V30 1804 H 173.449 -0.0720836 -3.43224 0
M  V30 1805 N 175.894 1.51508 0.433938 0
M  V30 1806 C 176.826 1.69266 1.54537 0
M  V30 1807 C 177.839 0.573276 1.52373 0
M  V30 1808 O 179.028 0.847698 1.57087 0
M  V30 1809 C 176.128 1.69524 2.93453 0
M  V30 1810 C 175.301 2.98101 3.20085 0
M  V30 1811 C 174.36 2.90502 4.38742 0
M  V30 1812 O 173.386 3.64442 4.3723 0
M  V30 1813 N 174.588 2.06586 5.42496 0
M  V30 1814 H 177.353 2.65145 1.39708 0
M  V30 1815 H 174.914 1.49437 0.622922 0
M  V30 1816 H 176.906 1.62004 3.70859 0
M  V30 1817 H 175.476 0.812245 3.01863 0
M  V30 1818 H 174.696 3.19464 2.30947 0
M  V30 1819 H 175.984 3.83207 3.34708 0
M  V30 1820 H 175.382 1.45896 5.46563 0
M  V30 1821 H 173.939 2.04943 6.18742 0
M  V30 1822 N 177.372 -0.689602 1.41712 0
M  V30 1823 C 178.282 -1.83314 1.46401 0
M  V30 1824 C 179.298 -1.7036 0.35405 0
M  V30 1825 O 180.474 -1.92171 0.602692 0
M  V30 1826 C 177.539 -3.19344 1.34982 0
M  V30 1827 C 176.6 -3.44363 2.56344 0
M  V30 1828 C 175.833 -4.73904 2.45461 0
M  V30 1829 O 176.056 -5.508 1.48241 0
M  V30 1830 O 174.99 -4.99839 3.35328 0
M  V30 1831 H 178.816 -1.82314 2.42889 0
M  V30 1832 H 176.401 -0.843438 1.23315 0
M  V30 1833 H 178.283 -4.00547 1.3092 0
M  V30 1834 H 176.958 -3.21014 0.41612 0
M  V30 1835 H 175.865 -2.63067 2.65982 0
M  V30 1836 H 177.198 -3.47512 3.48563 0
M  V30 1837 N 178.85 -1.27639 -0.924453 0
M  V30 1838 C 179.782 -1.06442 -2.02985 0
M  V30 1839 C 180.795 -0.0194771 -1.62788 0
M  V30 1840 O 181.984 -0.261388 -1.76576 0
M  V30 1841 C 179.084 -0.59327 -3.33667 0
M  V30 1842 C 178.257 -1.71123 -4.02537 0
M  V30 1843 C 177.316 -1.23527 -5.11495 0
M  V30 1844 O 176.342 -1.93553 -5.35281 0
M  V30 1845 N 177.544 -0.0926678 -5.80426 0
M  V30 1846 H 180.309 -2.01633 -2.2173 0
M  V30 1847 H 177.87 -1.19248 -1.09505 0
M  V30 1848 H 179.862 -0.258686 -4.03872 0
M  V30 1849 H 178.432 0.265502 -3.1147 0
M  V30 1850 H 177.652 -2.21593 -3.26022 0
M  V30 1851 H 178.94 -2.46145 -4.45298 0
M  V30 1852 H 178.338 0.491741 -5.63559 0
M  V30 1853 H 176.895 0.182714 -6.51544 0
M  V30 1854 N 180.328 1.1314 -1.09713 0
M  V30 1855 C 181.238 2.22242 -0.751367 0
M  V30 1856 C 182.254 1.72224 0.247938 0
M  V30 1857 O 183.43 2.01205 0.0885463 0
M  V30 1858 C 180.495 3.46231 -0.180274 0
M  V30 1859 C 179.556 4.11125 -1.2359 0
M  V30 1860 C 178.789 5.29195 -0.691966 0
M  V30 1861 O 179.012 5.68342 0.48414 0
M  V30 1862 O 177.946 5.84214 -1.44838 0
M  V30 1863 H 181.772 2.54197 -1.66186 0
M  V30 1864 H 179.357 1.21331 -0.871735 0
M  V30 1865 H 181.239 4.21185 0.134739 0
M  V30 1866 H 179.914 3.1597 0.703185 0
M  V30 1867 H 178.821 3.37985 -1.60366 0
M  V30 1868 H 180.154 4.45524 -2.09211 0
M  V30 1869 N 181.806 0.884767 1.30421 0
M  V30 1870 C 182.738 0.308655 2.27112 0
M  V30 1871 C 183.751 -0.536655 1.53701 0
M  V30 1872 O 184.94 -0.35624 1.74909 0
M  V30 1873 C 182.04 -0.579782 3.33904 0
M  V30 1874 C 181.213 0.236417 4.36761 0
M  V30 1875 C 180.272 -0.582482 5.22966 0
M  V30 1876 O 179.298 -0.00525502 5.692 0
M  V30 1877 N 180.5 -1.89163 5.48815 0
M  V30 1878 H 183.265 1.13964 2.77186 0
M  V30 1879 H 180.826 0.747731 1.43599 0
M  V30 1880 H 182.818 -1.13366 3.88497 0
M  V30 1881 H 181.388 -1.31144 2.83761 0
M  V30 1882 H 180.608 0.97174 3.82035 0
M  V30 1883 H 181.896 0.795924 5.02536 0
M  V30 1884 H 181.294 -2.38352 5.13035 0
M  V30 1885 H 179.851 -2.39296 6.06284 0
M  V30 1886 N 183.284 -1.43765 0.645699 0
M  V30 1887 C 184.533 -2.01116 0.153412 0
M  V30 1888 C 184.846 -1.51493 -1.23731 0
M  V30 1889 O 186.052 -2.01067 -1.8244 0
M  V30 1890 C 184.508 -3.59206 0.223473 0
M  V30 1891 C 184.116 -4.17823 1.61642 0
M  V30 1892 C 185.86 -4.23972 -0.211597 0
M  V30 1893 C 183.767 -5.68183 1.64081 0
M  V30 1894 H 182.697 -0.752093 0.0535891 0
M  V30 1895 H 185.348 -1.6482 0.806633 0
M  V30 1896 H 183.73 -3.92867 -0.497118 0
M  V30 1897 H 184.904 -3.95674 2.36176 0
M  V30 1898 H 183.219 -3.65399 1.99681 0
M  V30 1899 H 185.816 -5.34275 -0.213112 0
M  V30 1900 H 186.159 -3.97352 -1.24165 0
M  V30 1901 H 186.692 -3.95166 0.456988 0
M  V30 1902 H 183.431 -5.99559 2.64971 0
M  V30 1903 H 182.951 -5.9241 0.938611 0
M  V30 1904 H 184.63 -6.32085 1.3812 0
M  V30 1905 N 184.763 -0.387143 -1.52771 0
M  V30 1906 C 185.988 0.198407 -2.06449 0
M  V30 1907 C 186.413 1.39918 -1.25716 0
M  V30 1908 O 185.771 1.79099 -0.281657 0
M  V30 1909 C 185.819 0.548893 -3.56398 0
M  V30 1910 O 184.923 1.64315 -3.78252 0
M  V30 1911 H 184.264 0.0237731 -0.663574 0
M  V30 1912 H 186.794 -0.553989 -1.96957 0
M  V30 1913 H 186.804 0.813812 -3.99801 0
M  V30 1914 H 185.479 -0.329005 -4.14597 0
M  V30 1915 H 184.056 1.37211 -3.46738 0
M  V30 1916 N 186.241 1.57166 -0.116904 0
M  V30 1917 C 187.489 1.94737 0.540533 0
M  V30 1918 C 187.81 1.00096 1.67349 0
M  V30 1919 O 187.08 0.0568854 1.95817 0
M  V30 1920 H 185.66 0.718981 0.202669 0
M  V30 1921 H 188.322 1.94017 -0.185353 0
M  V30 1922 H 187.418 2.97719 0.936483 0
M  V30 1923 N 187.719 -0.156864 1.56817 0
M  V30 1924 C 188.666 -1.19394 1.97519 0
M  V30 1925 C 189.636 -1.4322 0.841265 0
M  V30 1926 O 190.821 -1.55719 1.10255 0
M  V30 1927 C 187.961 -2.52483 2.35258 0
M  V30 1928 C 187.074 -2.35914 3.61896 0
M  V30 1929 C 186.209 -3.61969 3.88782 0
M  V30 1930 C 185.248 -3.40395 5.08722 0
M  V30 1931 N 184.385 -4.58556 5.31668 0
M  V30 1932 H 189.225 -0.839845 2.85921 0
M  V30 1933 H 186.762 -0.403264 1.41464 0
M  V30 1934 H 188.72 -3.30071 2.55165 0
M  V30 1935 H 187.35 -2.85859 1.49949 0
M  V30 1936 H 186.402 -1.49429 3.49821 0
M  V30 1937 H 187.714 -2.15926 4.49641 0
M  V30 1938 H 186.868 -4.47989 4.09135 0
M  V30 1939 H 185.607 -3.84951 2.9944 0
M  V30 1940 H 184.612 -2.52763 4.88253 0
M  V30 1941 H 185.837 -3.18822 5.99608 0
M  V30 1942 H 183.783 -4.81729 4.45279 0
M  V30 1943 H 183.7 -4.41535 6.13664 0
M  V30 1944 H 184.968 -5.45817 5.5651 0
M  V30 1945 N 189.197 -1.51736 -0.425897 0
M  V30 1946 C 190.443 -1.65214 -1.1761 0
M  V30 1947 C 190.776 -0.372778 -1.90589 0
M  V30 1948 O 190.051 0.628139 -1.84078 0
M  V30 1949 C 190.334 -2.86312 -2.18398 0
M  V30 1950 C 190.187 -4.24254 -1.49426 0
M  V30 1951 C 191.506 -3.02925 -3.19256 0
M  V30 1952 H 188.625 -0.601263 -0.426206 0
M  V30 1953 H 191.267 -1.8425 -0.463882 0
M  V30 1954 H 189.417 -2.70213 -2.79137 0
M  V30 1955 H 191.089 -4.52046 -0.919362 0
M  V30 1956 H 189.332 -4.26426 -0.796432 0
M  V30 1957 H 190.003 -5.05001 -2.22885 0
M  V30 1958 H 192.479 -3.1781 -2.68581 0
M  V30 1959 H 191.355 -3.89199 -3.8706 0
M  V30 1960 H 191.616 -2.15497 -3.86023 0
M  V30 1961 N 190.675 0.682077 -1.42076 0
M  V30 1962 C 191.903 1.47057 -1.4554 0
M  V30 1963 C 192.318 1.8869 -0.0645779 0
M  V30 1964 O 191.675 1.57666 0.919115 0
M  V30 1965 C 191.726 2.72442 -2.37609 0
M  V30 1966 O 191.447 2.32559 -3.71279 0
M  V30 1967 C 192.948 3.66069 -2.50017 0
M  V30 1968 H 190.168 0.452737 -0.495248 0
M  V30 1969 H 192.712 0.838695 -1.8651 0
M  V30 1970 H 190.867 3.31835 -1.9991 0
M  V30 1971 H 191.281 3.13475 -4.20516 0
M  V30 1972 H 192.755 4.50792 -3.18576 0
M  V30 1973 H 193.232 4.11476 -1.53572 0
M  V30 1974 H 193.838 3.12572 -2.88407 0
M  V30 1975 N 192.153 1.28127 0.917671 0
M  V30 1976 C 193.103 1.08361 2.00604 0
M  V30 1977 C 194.087 0.00847518 1.60898 0
M  V30 1978 O 195.279 0.228167 1.75523 0
M  V30 1979 C 192.408 0.743376 3.35155 0
M  V30 1980 C 191.494 1.85716 3.81275 0
M  V30 1981 N 191.885 3.09822 3.99805 0
M  V30 1982 C 190.183 1.74612 4.10398 0
M  V30 1983 C 190.884 3.82368 4.38372 0
M  V30 1984 N 189.86 3.10192 4.4641 0
M  V30 1985 H 193.662 2.02531 2.12975 0
M  V30 1986 H 191.176 1.18989 1.10523 0
M  V30 1987 H 193.173 0.582859 4.12805 0
M  V30 1988 H 191.833 -0.190595 3.2414 0
M  V30 1989 H 192.844 3.45475 3.85833 0
M  V30 1990 H 189.521 0.883657 4.08041 0
M  V30 1991 H 190.911 4.89082 4.60704 0
M  V30 1992 N 193.631 -1.12557 1.10312 0
M  V30 1993 C 194.561 -2.20341 0.772798 0
M  V30 1994 C 195.542 -1.68198 -0.25365 0
M  V30 1995 O 196.727 -1.93831 -0.119699 0
M  V30 1996 C 193.857 -3.46709 0.202443 0
M  V30 1997 C 192.811 -4.11996 1.15943 0
M  V30 1998 C 192.137 -5.328 0.450345 0
M  V30 1999 C 193.437 -4.5828 2.50552 0
M  V30 2000 H 195.131 -2.48229 1.674 0
M  V30 2001 H 192.677 -1.19308 0.806326 0
M  V30 2002 H 194.63 -4.2138 -0.0407752 0
M  V30 2003 H 193.354 -3.18245 -0.734001 0
M  V30 2004 H 192.013 -3.39305 1.38808 0
M  V30 2005 H 191.661 -5.00602 -0.490531 0
M  V30 2006 H 191.361 -5.7743 1.08851 0
M  V30 2007 H 192.885 -6.10219 0.215642 0
M  V30 2008 H 194.299 -5.2433 2.31843 0
M  V30 2009 H 192.696 -5.13683 3.10242 0
M  V30 2010 H 193.766 -3.72329 3.10643 0
M  V30 2011 N 195.109 -0.891671 -1.2995 0
M  V30 2012 C 196.358 -0.509521 -1.95158 0
M  V30 2013 C 196.671 0.947388 -1.71125 0
M  V30 2014 O 197.877 1.43669 -2.30372 0
M  V30 2015 C 196.333 -0.860315 -3.49466 0
M  V30 2016 C 195.941 -2.33545 -3.8231 0
M  V30 2017 C 197.685 -0.547687 -4.20952 0
M  V30 2018 C 195.592 -2.62752 -5.29826 0
M  V30 2019 H 194.522 -0.18682 -0.730489 0
M  V30 2020 H 197.173 -1.08756 -1.47798 0
M  V30 2021 H 195.555 -0.211285 -3.95436 0
M  V30 2022 H 196.729 -3.02936 -3.47227 0
M  V30 2023 H 195.044 -2.61629 -3.23944 0
M  V30 2024 H 197.641 -0.742854 -5.29515 0
M  V30 2025 H 197.984 0.51332 -4.13123 0
M  V30 2026 H 198.517 -1.1542 -3.80688 0
M  V30 2027 H 195.256 -3.6762 -5.42712 0
M  V30 2028 H 194.776 -1.97977 -5.66185 0
M  V30 2029 H 196.455 -2.48601 -5.97333 0
M  V30 2030 N 196.587 1.43421 -0.653314 0
M  V30 2031 C 197.519 2.29071 0.0769134 0
M  V30 2032 C 198.532 1.42513 0.787017 0
M  V30 2033 O 199.721 1.66449 0.644757 0
M  V30 2034 C 196.821 3.19436 1.13199 0
M  V30 2035 C 195.994 4.34533 0.500006 0
M  V30 2036 C 195.053 5.05771 1.45198 0
M  V30 2037 O 194.079 5.61037 0.960538 0
M  V30 2038 N 195.281 5.0928 2.78594 0
M  V30 2039 H 198.046 2.92382 -0.658235 0
M  V30 2040 H 195.607 1.54112 -0.496104 0
M  V30 2041 H 197.599 3.63958 1.76964 0
M  V30 2042 H 196.169 2.57724 1.7691 0
M  V30 2043 H 195.389 3.92925 -0.316738 0
M  V30 2044 H 196.677 5.08766 0.0588345 0
M  V30 2045 H 196.075 4.65751 3.2108 0
M  V30 2046 H 194.632 5.57519 3.37662 0
M  V30 2047 N 198.065 0.39524 1.52563 0
M  V30 2048 C 199.013 -0.451859 2.28169 0
M  V30 2049 C 200.007 -1.05792 1.32304 0
M  V30 2050 O 201.213 -0.997718 1.49818 0
M  V30 2051 H 197.588 -0.164481 0.733792 0
M  V30 2052 H 199.559 0.207199 2.9768 0
M  V30 2053 C 198.308 -1.56385 3.10546 0
M  V30 2054 H 197.631 -1.10682 3.84174 0
M  V30 2055 H 199.071 -2.13067 3.66577 0
M  V30 2056 C 197.53 -2.52328 2.23231 0
M  V30 2057 O 198.06 -3.5588 1.86312 0
M  V30 2058 N 196.266 -2.22209 1.87274 0
M  V30 2059 H 195.813 -1.38033 2.17496 0
M  V30 2060 H 195.771 -2.86652 1.29143 0
M  V30 2061 N 199.544 -1.57102 0.125237 0
M  V30 2062 C 200.492 -2.16905 -0.839927 0
M  V30 2063 C 201.486 -1.11998 -1.27094 0
M  V30 2064 O 202.692 -1.3029 -1.24195 0
M  V30 2065 H 199.067 -0.694252 -0.288995 0
M  V30 2066 H 201.038 -2.96774 -0.311115 0
M  V30 2067 C 199.787 -2.78795 -2.07771 0
M  V30 2068 H 199.11 -3.59221 -1.755 0
M  V30 2069 H 200.55 -3.2417 -2.73295 0
M  V30 2070 C 199.009 -1.76193 -2.87155 0
M  V30 2071 O 199.539 -1.21909 -3.82755 0
M  V30 2072 N 197.745 -1.45991 -2.51267 0
M  V30 2073 H 197.292 -1.90325 -1.73592 0
M  V30 2074 H 197.25 -0.775844 -3.04677 0
M  V30 2075 N 201.022 0.148545 -1.56898 0
M  V30 2076 C 201.955 1.21293 -1.93296 0
M  V30 2077 C 202.933 1.41637 -0.798599 0
M  V30 2078 O 204.117 1.56275 -1.05406 0
M  V30 2079 C 201.244 2.5721 -2.20365 0
M  V30 2080 C 200.29 2.53469 -3.4301 0
M  V30 2081 S 201.123 2.00315 -4.96623 0
M  V30 2082 C 202.279 3.37964 -5.26812 0
M  V30 2083 H 202.512 0.902393 -2.83274 0
M  V30 2084 H 200.045 0.354094 -1.50285 0
M  V30 2085 H 202.003 3.35427 -2.36641 0
M  V30 2086 H 200.664 2.85454 -1.31054 0
M  V30 2087 H 199.857 3.53518 -3.59223 0
M  V30 2088 H 199.459 1.83359 -3.25968 0
M  V30 2089 H 201.751 4.34066 -5.20185 0
M  V30 2090 H 202.694 3.26606 -6.28279 0
M  V30 2091 H 203.102 3.35028 -4.54331 0
M  V30 2092 N 202.5 1.5196 0.417844 0
M  V30 2093 C 203.911 1.57851 0.997 0
M  V30 2094 C 204.262 0.413714 1.91789 0
M  V30 2095 O 203.387 -0.467057 2.113 0
M  V30 2096 C 203.982 2.86085 1.81496 0
M  V30 2097 C 202.541 2.94483 2.34428 0
M  V30 2098 C 201.688 2.52707 1.14169 0
M  V30 2099 H 204.639 1.57455 0.198392 0
M  V30 2100 H 204.66 2.70947 2.67148 0
M  V30 2101 H 204.172 3.70842 1.14446 0
M  V30 2102 H 202.273 2.142 3.04875 0
M  V30 2103 H 202.386 3.98546 2.65891 0
M  V30 2104 H 200.75 2.06353 1.49301 0
M  V30 2105 H 201.533 3.39828 0.486999 0
M  V30 2106 N 203.978 -0.674533 1.42435 0
M  V30 2107 C 205.226 -1.43175 1.42637 0
M  V30 2108 C 205.547 -1.94951 0.0438992 0
M  V30 2109 O 204.817 -1.7308 -0.917607 0
M  V30 2110 H 203.397 -0.531307 0.525092 0
M  V30 2111 H 206.059 -0.797006 1.77859 0
M  V30 2112 H 205.155 -2.28463 2.12629 0
M  V30 2113 N 205.456 -1.28612 -0.910864 0
M  V30 2114 C 206.404 -1.1265 -2.03501 0
M  V30 2115 C 207.398 -0.0450054 -1.6934 0
M  V30 2116 O 208.604 -0.203988 -1.7884 0
M  V30 2117 H 204.979 -0.347639 -0.666822 0
M  V30 2118 H 206.95 -2.07849 -2.14106 0
M  V30 2119 C 205.699 -0.808143 -3.38178 0
M  V30 2120 H 205.022 -1.63231 -3.6496 0
M  V30 2121 H 206.462 -0.736426 -4.17556 0
M  V30 2122 C 204.921 0.488226 -3.33344 0
M  V30 2123 O 205.451 1.51766 -3.71927 0
M  V30 2124 N 203.657 0.490009 -2.86439 0
M  V30 2125 H 203.204 -0.348161 -2.55236 0
M  V30 2126 H 203.162 1.35741 -2.83587 0
M  V30 2127 N 206.934 1.1197 -1.10907 0
M  V30 2128 C 208.164 1.8713 -0.875553 0
M  V30 2129 C 208.572 1.8016 0.577843 0
M  V30 2130 O 207.915 1.17699 1.41042 0
M  V30 2131 C 207.977 3.37005 -1.2517 0
M  V30 2132 C 207.641 3.67748 -2.71313 0
M  V30 2133 C 208.638 3.65698 -3.69542 0
M  V30 2134 C 206.323 3.96928 -3.07821 0
M  V30 2135 C 208.317 3.92395 -5.023 0
M  V30 2136 C 206.004 4.23284 -4.40765 0
M  V30 2137 C 207.002 4.21005 -5.37814 0
M  V30 2138 O 206.69 4.46704 -6.68364 0
M  V30 2139 H 206.422 0.598786 -0.313737 0
M  V30 2140 H 208.976 1.42568 -1.47863 0
M  V30 2141 H 207.206 3.82146 -0.591741 0
M  V30 2142 H 208.895 3.93519 -0.994877 0
M  V30 2143 H 209.661 3.43211 -3.42682 0
M  V30 2144 H 205.54 3.97841 -2.32902 0
M  V30 2145 H 209.084 3.90531 -5.78041 0
M  V30 2146 H 204.981 4.45246 -4.67361 0
M  V30 2147 H 205.749 4.64299 -6.74069 0
M  V30 2148 N 208.412 0.89855 1.29475 0
M  V30 2149 C 209.658 0.524658 1.95896 0
M  V30 2150 C 209.991 -0.926468 1.70676 0
M  V30 2151 O 209.266 -1.65665 1.01908 0
M  V30 2152 C 209.549 0.81633 3.50725 0
M  V30 2153 C 209.402 2.31907 3.85408 0
M  V30 2154 C 210.721 0.302038 4.39062 0
M  V30 2155 H 207.84 0.19209 0.711527 0
M  V30 2156 H 210.482 1.12502 1.53112 0
M  V30 2157 H 208.632 0.305369 3.87298 0
M  V30 2158 H 210.304 2.89949 3.58786 0
M  V30 2159 H 208.547 2.78027 3.32992 0
M  V30 2160 H 209.218 2.47373 4.93468 0
M  V30 2161 H 211.694 0.739551 4.09475 0
M  V30 2162 H 210.57 0.535331 5.46283 0
M  V30 2163 H 210.831 -0.797216 4.34853 0
M  V30 2164 N 209.89 -1.43072 0.660911 0
M  V30 2165 C 211.137 -2.01721 0.177445 0
M  V30 2166 C 211.465 -1.5218 -1.21126 0
M  V30 2167 O 210.72 -0.708659 -1.82419 0
M  V30 2168 C 211.019 -3.57103 0.145563 0
M  V30 2169 C 210.685 -4.26021 1.47705 0
M  V30 2170 C 209.347 -4.44563 1.84165 0
M  V30 2171 C 211.699 -4.64983 2.35458 0
M  V30 2172 C 209.027 -4.99334 3.0803 0
M  V30 2173 C 211.379 -5.21127 3.58622 0
M  V30 2174 C 210.043 -5.37884 3.95268 0
M  V30 2175 H 209.313 -0.73815 0.0649317 0
M  V30 2176 H 211.96 -1.71446 0.853144 0
M  V30 2177 H 210.265 -3.86965 -0.61361 0
M  V30 2178 H 211.962 -4.00248 -0.2455 0
M  V30 2179 H 208.552 -4.11939 1.18339 0
M  V30 2180 H 212.736 -4.50343 2.08579 0
M  V30 2181 H 207.992 -5.10493 3.36462 0
M  V30 2182 H 212.166 -5.50262 4.26831 0
M  V30 2183 H 209.793 -5.80089 4.91325 0
M  V30 2184 N 211.368 -0.403325 -1.52352 0
M  V30 2185 C 212.593 0.176499 -2.06648 0
M  V30 2186 C 213.018 1.38577 -1.27193 0
M  V30 2187 O 212.376 1.7879 -0.300637 0
M  V30 2188 C 212.424 0.511061 -3.5696 0
M  V30 2189 O 211.528 1.60294 -3.79973 0
M  V30 2190 H 210.869 0.0167337 -0.663789 0
M  V30 2191 H 213.399 -0.574848 -1.96359 0
M  V30 2192 H 213.409 0.771362 -4.00642 0
M  V30 2193 H 212.084 -0.37296 -4.14224 0
M  V30 2194 H 210.661 1.33526 -3.48174 0
M  V30 2195 N 212.846 1.57033 -0.133567 0
M  V30 2196 C 214.076 1.99754 0.527429 0
M  V30 2197 C 214.484 1.01245 1.59832 0
M  V30 2198 O 213.827 -0.000645496 1.837 0
M  V30 2199 C 213.889 3.38903 1.19939 0
M  V30 2200 C 213.553 4.56174 0.274709 0
M  V30 2201 C 214.55 5.17563 -0.492398 0
M  V30 2202 C 212.235 5.01972 0.18153 0
M  V30 2203 C 214.229 6.2315 -1.34027 0
M  V30 2204 C 211.916 6.07416 -0.669958 0
M  V30 2205 C 212.914 6.67874 -1.42947 0
M  V30 2206 O 212.602 7.71279 -2.2668 0
M  V30 2207 H 212.334 0.660702 0.142999 0
M  V30 2208 H 214.888 2.04207 -0.221099 0
M  V30 2209 H 213.118 3.31248 1.99528 0
M  V30 2210 H 214.807 3.65818 1.75875 0
M  V30 2211 H 215.573 4.83087 -0.430367 0
M  V30 2212 H 211.452 4.54652 0.762422 0
M  V30 2213 H 214.996 6.70268 -1.93357 0
M  V30 2214 H 210.893 6.41321 -0.73333 0
M  V30 2215 H 211.661 7.88441 -2.1978 0
M  V30 2216 N 214.325 -0.140222 1.56975 0
M  V30 2217 C 215.602 -0.880769 1.74648 0
M  V30 2218 C 215.982 -1.99036 0.703404 0
M  V30 2219 O 215.33 -2.26821 -0.27648 0
M  V30 2220 C 215.54 -1.417 3.18939 0
M  V30 2221 C 216.888 -1.87774 3.80823 0
M  V30 2222 O 217.912 -1.51427 3.2241 0
M  V30 2223 O 216.771 -2.54827 4.83452 0
M  V30 2224 H 213.865 -0.416713 0.714338 0
M  V30 2225 H 216.411 -0.125618 1.69234 0
M  V30 2226 H 215.183 -0.619902 3.86359 0
M  V30 2227 H 214.806 -2.23546 3.28805 0
M  V30 2228 N 215.803 -1.52179 -0.40978 0
M  V30 2229 C 216.735 -1.71703 -1.51825 0
M  V30 2230 C 217.748 -0.597445 -1.51441 0
M  V30 2231 O 218.937 -0.872582 -1.55719 0
M  V30 2232 C 216.037 -1.74171 -2.90719 0
M  V30 2233 C 215.21 -3.03156 -3.15302 0
M  V30 2234 C 214.269 -2.97445 -4.34065 0
M  V30 2235 O 213.295 -3.71352 -4.31377 0
M  V30 2236 N 214.497 -2.15191 -5.39141 0
M  V30 2237 H 217.262 -2.67334 -1.35472 0
M  V30 2238 H 214.823 -1.50409 -0.599069 0
M  V30 2239 H 216.815 -1.67884 -3.68235 0
M  V30 2240 H 215.385 -0.860166 -3.00533 0
M  V30 2241 H 214.605 -3.23097 -2.25836 0
M  V30 2242 H 215.893 -3.88484 -3.28569 0
M  V30 2243 H 215.291 -1.54573 -5.44173 0
M  V30 2244 H 213.848 -2.1476 -6.15403 0
M  V30 2245 N 217.281 0.66697 -1.42791 0
M  V30 2246 C 218.528 1.42699 -1.43678 0
M  V30 2247 C 218.856 1.94419 -0.0560425 0
M  V30 2248 O 218.111 1.7182 0.936831 0
M  V30 2249 C 218.41 2.6349 -2.4147 0
M  V30 2250 C 218.076 2.30267 -3.8767 0
M  V30 2251 C 216.738 2.20918 -4.27491 0
M  V30 2252 C 219.09 2.03435 -4.79858 0
M  V30 2253 C 216.418 1.82873 -5.57471 0
M  V30 2254 C 218.77 1.66892 -6.10188 0
M  V30 2255 C 217.434 1.56058 -6.49001 0
M  V30 2256 H 216.704 0.522171 -0.525755 0
M  V30 2257 H 219.351 0.759785 -1.75783 0
M  V30 2258 H 217.656 3.35279 -2.0272 0
M  V30 2259 H 219.353 3.21684 -2.39417 0
M  V30 2260 H 215.943 2.38449 -3.56146 0
M  V30 2261 H 220.127 2.09586 -4.49875 0
M  V30 2262 H 215.383 1.7306 -5.86396 0
M  V30 2263 H 219.557 1.45157 -6.81104 0
M  V30 2264 H 217.184 1.26348 -7.49627 0
M  V30 2265 N 218.759 1.29093 0.90403 0
M  V30 2266 C 220.006 1.16813 1.65411 0
M  V30 2267 C 220.334 -0.28128 1.92455 0
M  V30 2268 O 219.589 -1.22006 1.53013 0
M  V30 2269 C 219.888 1.92224 3.01305 0
M  V30 2270 C 219.554 3.41968 2.93885 0
M  V30 2271 C 218.216 3.82807 2.91569 0
M  V30 2272 C 220.568 4.37409 2.83413 0
M  V30 2273 C 217.896 5.1741 2.76594 0
M  V30 2274 C 220.248 5.72097 2.69977 0
M  V30 2275 C 218.912 6.12199 2.66024 0
M  V30 2276 H 218.182 0.42745 0.605283 0
M  V30 2277 H 220.829 1.59981 1.05254 0
M  V30 2278 H 219.134 1.41635 3.65304 0
M  V30 2279 H 220.831 1.80131 3.58265 0
M  V30 2280 H 217.421 3.09504 2.96488 0
M  V30 2281 H 221.605 4.06813 2.84283 0
M  V30 2282 H 216.861 5.47596 2.71935 0
M  V30 2283 H 221.035 6.45704 2.60844 0
M  V30 2284 H 218.662 7.16448 2.54178 0
M  V30 2285 N 220.237 -1.11381 1.11499 0
M  V30 2286 C 221.653 -1.35143 0.849031 0
M  V30 2287 C 221.853 -1.94515 -0.525938 0
M  V30 2288 O 220.909 -2.1785 -1.27662 0
M  V30 2289 C 222.222 -2.28249 1.95762 0
M  V30 2290 C 223.77 -2.41812 1.98736 0
M  V30 2291 C 224.245 -3.3824 3.088 0
M  V30 2292 N 225.736 -3.45803 3.08179 0
M  V30 2293 C 226.471 -4.20358 3.89982 0
M  V30 2294 N 225.967 -4.97884 4.8175 0
M  V30 2295 N 227.76 -4.15877 3.78157 0
M  V30 2296 H 219.911 -0.712062 2.00109 0
M  V30 2297 H 222.174 -0.376025 0.870235 0
M  V30 2298 H 221.88 -1.91817 2.94787 0
M  V30 2299 H 221.754 -3.28473 1.85433 0
M  V30 2300 H 224.141 -2.77518 1.00338 0
M  V30 2301 H 224.222 -1.41437 2.13141 0
M  V30 2302 H 223.866 -3.03261 4.07425 0
M  V30 2303 H 223.796 -4.38471 2.91635 0
M  V30 2304 H 226.287 -2.90506 2.41691 0
M  V30 2305 H 226.6 -5.52142 5.40702 0
M  V30 2306 H 224.945 -4.97043 4.85771 0
M  V30 2307 H 228.136 -3.544 3.05808 0
M  V30 2308 H 228.309 -4.73723 4.42143 0
M  V30 2309 N 221.715 -0.905404 -1.28997 0
M  V30 2310 C 222.992 -0.453513 -1.9027 0
M  V30 2311 C 223.372 1.06721 -1.82137 0
M  V30 2312 O 222.72 1.91159 -1.25182 0
M  V30 2313 C 222.93 -0.974494 -3.35119 0
M  V30 2314 C 224.278 -1.0216 -4.12127 0
M  V30 2315 O 225.302 -0.922557 -3.44046 0
M  V30 2316 O 224.161 -1.17121 -5.33802 0
M  V30 2317 H 221.255 -0.142347 -0.814657 0
M  V30 2318 H 223.801 -0.995642 -1.37423 0
M  V30 2319 H 222.573 -2.01848 -3.35221 0
M  V30 2320 H 222.196 -0.412706 -3.95452 0
M  V30 2321 N 223.193 1.4272 -0.668489 0
M  V30 2322 C 224.14 2.30796 0.0137489 0
M  V30 2323 C 225.11 1.4561 0.799177 0
M  V30 2324 O 226.295 1.74453 0.772702 0
M  V30 2325 C 223.435 3.31377 0.963507 0
M  V30 2326 C 222.548 4.31655 0.172569 0
M  V30 2327 C 221.683 5.19312 1.1175 0
M  V30 2328 C 220.722 6.11274 0.317886 0
M  V30 2329 N 219.859 6.91504 1.2152 0
M  V30 2330 H 224.699 2.88585 -0.743161 0
M  V30 2331 H 222.236 1.42154 -0.378226 0
M  V30 2332 H 224.194 3.88214 1.52792 0
M  V30 2333 H 222.824 2.75202 1.68712 0
M  V30 2334 H 221.876 3.76988 -0.508374 0
M  V30 2335 H 223.188 4.96779 -0.448527 0
M  V30 2336 H 222.342 5.80851 1.75206 0
M  V30 2337 H 221.081 4.5435 1.77249 0
M  V30 2338 H 220.086 5.48809 -0.329918 0
M  V30 2339 H 221.311 6.78283 -0.332917 0
M  V30 2340 H 219.257 6.29176 1.85671 0
M  V30 2341 H 219.174 7.53209 0.649036 0
M  V30 2342 H 220.442 7.57535 1.83742 0
M  V30 2343 N 224.671 0.411399 1.52136 0
M  V30 2344 C 225.92 -0.165009 2.01024 0
M  V30 2345 C 226.233 -1.4603 1.30133 0
M  V30 2346 O 227.439 -2.1181 1.69849 0
M  V30 2347 C 225.895 -0.344618 3.58246 0
M  V30 2348 C 225.503 0.938716 4.38055 0
M  V30 2349 C 227.247 -0.876195 4.15359 0
M  V30 2350 C 225.154 0.726172 5.86925 0
M  V30 2351 H 224.084 -0.0654407 0.751155 0
M  V30 2352 H 226.735 0.537192 1.75461 0
M  V30 2353 H 225.117 -1.10921 3.80148 0
M  V30 2354 H 226.291 1.70963 4.27912 0
M  V30 2355 H 224.606 1.39688 3.92271 0
M  V30 2356 H 227.203 -1.05128 5.24263 0
M  V30 2357 H 227.546 -1.85152 3.7286 0
M  V30 2358 H 228.079 -0.170607 3.97434 0
M  V30 2359 H 224.818 1.67312 6.33788 0
M  V30 2360 H 224.338 -0.00540283 5.998 0
M  V30 2361 H 226.017 0.369231 6.45946 0
M  V30 2362 N 226.149 -1.5696 0.141893 0
M  V30 2363 C 227.082 -2.12271 -0.837627 0
M  V30 2364 C 228.06 -1.04495 -1.24578 0
M  V30 2365 O 229.244 -1.32293 -1.34278 0
M  V30 2366 C 226.371 -2.63822 -2.12404 0
M  V30 2367 C 225.417 -3.83698 -1.86221 0
M  V30 2368 S 226.25 -5.24948 -1.05781 0
M  V30 2369 C 227.406 -5.79884 -2.35552 0
M  V30 2370 H 227.639 -2.95023 -0.367249 0
M  V30 2371 H 225.172 -1.54231 -0.0723014 0
M  V30 2372 H 227.13 -2.94175 -2.86307 0
M  V30 2373 H 225.791 -1.8121 -2.56557 0
M  V30 2374 H 224.984 -4.17995 -2.81596 0
M  V30 2375 H 224.586 -3.5408 -1.20429 0
M  V30 2376 H 226.878 -5.91005 -3.31239 0
M  V30 2377 H 227.821 -6.77544 -2.05767 0
M  V30 2378 H 228.229 -5.08095 -2.45967 0
M  V30 2379 N 227.627 0.131896 -1.57047 0
M  V30 2380 C 228.537 1.1815 -2.02676 0
M  V30 2381 C 229.553 1.46113 -0.944824 0
M  V30 2382 O 230.729 1.57485 -1.25541 0
M  V30 2383 C 227.794 2.49139 -2.41103 0
M  V30 2384 C 226.855 2.28688 -3.63318 0
M  V30 2385 C 226.088 3.53431 -3.99903 0
M  V30 2386 O 226.311 4.60223 -3.36973 0
M  V30 2387 O 225.245 3.45198 -4.93074 0
M  V30 2388 H 229.071 0.824069 -2.92306 0
M  V30 2389 H 226.656 0.341745 -1.45439 0
M  V30 2390 H 228.538 3.26338 -2.66611 0
M  V30 2391 H 227.213 2.84382 -1.54624 0
M  V30 2392 H 226.12 1.4939 -3.42977 0
M  V30 2393 H 227.453 1.98355 -4.50462 0
M  V30 2394 N 229.106 1.52395 0.401703 0
M  V30 2395 C 230.053 1.76268 1.48991 0
M  V30 2396 C 231.023 0.605386 1.54675 0
M  V30 2397 O 232.208 0.843742 1.7113 0
M  V30 2398 C 229.348 1.92592 2.86361 0
M  V30 2399 C 228.461 3.20259 2.89928 0
M  V30 2400 C 227.596 3.26972 4.18644 0
M  V30 2401 C 226.635 4.48812 4.16214 0
M  V30 2402 N 225.772 4.52877 5.36514 0
M  V30 2403 H 230.612 2.6914 1.27935 0
M  V30 2404 H 228.149 1.33355 0.620871 0
M  V30 2405 H 230.107 2.0004 3.66115 0
M  V30 2406 H 228.737 1.03093 3.05895 0
M  V30 2407 H 227.789 3.21945 2.02621 0
M  V30 2408 H 229.101 4.10056 2.83999 0
M  V30 2409 H 228.255 3.33533 5.06794 0
M  V30 2410 H 226.994 2.35126 4.27278 0
M  V30 2411 H 225.999 4.4239 3.26453 0
M  V30 2412 H 227.224 5.41961 4.09213 0
M  V30 2413 H 225.17 3.63917 5.45802 0
M  V30 2414 H 225.087 5.36529 5.32609 0
M  V30 2415 H 226.355 4.63676 6.26597 0
M  V30 2416 N 230.584 -0.659388 1.43143 0
M  V30 2417 C 231.531 -1.77249 1.47822 0
M  V30 2418 C 232.501 -1.62818 0.328558 0
M  V30 2419 O 233.686 -1.83151 0.534838 0
M  V30 2420 C 230.826 -3.15371 1.40126 0
M  V30 2421 C 229.939 -3.4098 2.65249 0
M  V30 2422 C 229.074 -4.68915 2.49584 0
M  V30 2423 C 228.113 -4.87608 3.70006 0
M  V30 2424 N 227.25 -6.06796 3.53189 0
M  V30 2425 H 232.09 -1.72584 2.42938 0
M  V30 2426 H 229.627 -0.842297 1.20598 0
M  V30 2427 H 231.585 -3.9521 1.33659 0
M  V30 2428 H 230.215 -3.19121 0.485964 0
M  V30 2429 H 229.267 -2.55282 2.8202 0
M  V30 2430 H 230.579 -3.50681 3.54717 0
M  V30 2431 H 229.733 -5.56871 2.4079 0
M  V30 2432 H 228.472 -4.61524 1.5763 0
M  V30 2433 H 227.477 -3.9809 3.79215 0
M  V30 2434 H 228.702 -4.96834 4.62961 0
M  V30 2435 H 226.648 -6.00549 2.63965 0
M  V30 2436 H 226.565 -6.17428 4.36255 0
M  V30 2437 H 227.833 -6.9739 3.48236 0
M  V30 2438 N 232.062 -1.29571 -0.897171 0
M  V30 2439 C 232.994 -1.10724 -2.00681 0
M  V30 2440 C 234.007 -0.0540026 -1.6271 0
M  V30 2441 O 235.196 -0.298783 -1.75982 0
M  V30 2442 C 232.296 -0.663912 -3.32333 0
M  V30 2443 C 231.469 -1.79622 -3.98816 0
M  V30 2444 C 230.528 -1.34349 -5.0876 0
M  V30 2445 O 229.554 -2.04864 -5.31055 0
M  V30 2446 N 230.756 -0.215764 -5.80099 0
M  V30 2447 H 233.521 -2.06291 -2.17403 0
M  V30 2448 H 231.082 -1.21544 -1.06951 0
M  V30 2449 H 233.074 -0.344295 -4.03233 0
M  V30 2450 H 231.644 0.199375 -3.11964 0
M  V30 2451 H 230.864 -2.28459 -3.21248 0
M  V30 2452 H 232.152 -2.55535 -4.39976 0
M  V30 2453 H 231.55 0.372091 -5.64475 0
M  V30 2454 H 230.107 0.0444707 -6.51785 0
M  V30 2455 N 233.54 1.10788 -1.12088 0
M  V30 2456 C 234.817 1.79136 -0.785476 0
M  V30 2457 C 235.197 1.98246 0.725377 0
M  V30 2458 O 234.545 1.57258 1.65778 0
M  V30 2459 C 234.755 3.12375 -1.55636 0
M  V30 2460 C 236.103 3.8731 -1.74001 0
M  V30 2461 O 237.127 3.22085 -1.52117 0
M  V30 2462 O 235.986 5.04369 -2.10415 0
M  V30 2463 H 233.08 0.776226 -0.285311 0
M  V30 2464 H 235.626 1.1747 -1.2247 0
M  V30 2465 H 234.398 2.93863 -2.5838 0
M  V30 2466 H 234.021 3.81758 -1.11114 0
M  V30 2467 N 235.018 0.912232 1.28515 0
M  V30 2468 C 235.968 0.370649 2.24967 0
M  V30 2469 C 236.952 -0.516375 1.52389 0
M  V30 2470 O 238.144 -0.356345 1.73376 0
M  V30 2471 C 235.273 -0.389526 3.41083 0
M  V30 2472 C 234.359 0.51313 4.20984 0
M  V30 2473 N 234.75 1.62604 4.78951 0
M  V30 2474 C 233.048 0.313235 4.44899 0
M  V30 2475 C 233.749 2.18619 5.39055 0
M  V30 2476 N 232.725 1.47765 5.23132 0
M  V30 2477 H 236.527 1.22061 2.67354 0
M  V30 2478 H 234.041 0.764712 1.43269 0
M  V30 2479 H 236.038 -0.794353 4.09262 0
M  V30 2480 H 234.698 -1.2366 3.0023 0
M  V30 2481 H 235.709 2.00864 4.77362 0
M  V30 2482 H 232.386 -0.494452 4.14562 0
M  V30 2483 H 233.776 3.12228 5.94948 0
M  V30 2484 N 236.496 -1.42363 0.676048 0
M  V30 2485 C 237.724 -2.05859 0.207268 0
M  V30 2486 C 238.139 -1.50796 -1.13605 0
M  V30 2487 O 237.496 -0.648265 -1.70598 0
M  V30 2488 C 237.547 -3.61248 0.134975 0
M  V30 2489 O 237.268 -4.1427 1.42521 0
M  V30 2490 C 238.769 -4.41859 -0.357151 0
M  V30 2491 H 235.989 -0.663431 0.100503 0
M  V30 2492 H 238.533 -1.82479 0.923136 0
M  V30 2493 H 236.688 -3.83735 -0.531588 0
M  V30 2494 H 237.102 -5.0815 1.29939 0
M  V30 2495 H 238.576 -5.50847 -0.356641 0
M  V30 2496 H 239.053 -4.16536 -1.39264 0
M  V30 2497 H 239.659 -4.24392 0.27772 0
M  V30 2498 N 237.974 -0.419461 -1.51915 0
M  V30 2499 C 239.204 0.151915 -2.06041 0
M  V30 2500 C 239.612 1.38539 -1.28855 0
M  V30 2501 O 238.955 1.80592 -0.336463 0
M  V30 2502 C 239.017 0.557119 -3.55157 0
M  V30 2503 C 238.681 -0.567054 -4.53468 0
M  V30 2504 C 239.678 -1.43379 -4.99738 0
M  V30 2505 C 237.363 -0.742693 -4.96779 0
M  V30 2506 C 239.357 -2.46102 -5.87973 0
M  V30 2507 C 237.044 -1.77322 -5.84808 0
M  V30 2508 C 238.042 -2.63078 -6.30301 0
M  V30 2509 O 237.73 -3.64364 -7.16585 0
M  V30 2510 H 237.462 0.0193293 -0.675724 0
M  V30 2511 H 240.016 -0.592073 -1.96682 0
M  V30 2512 H 238.246 1.35355 -3.62238 0
M  V30 2513 H 239.935 1.05759 -3.9188 0
M  V30 2514 H 240.701 -1.30954 -4.66986 0
M  V30 2515 H 236.58 -0.0848307 -4.60922 0
M  V30 2516 H 240.124 -3.13071 -6.23404 0
M  V30 2517 H 236.021 -1.89773 -6.16974 0
M  V30 2518 H 236.789 -3.60731 -7.34721 0
M  V30 2519 N 239.452 1.56882 -0.150215 0
M  V30 2520 C 240.868 1.58263 0.20617 0
M  V30 2521 C 241.068 1.16464 1.64434 0
M  V30 2522 O 240.124 0.866422 2.3717 0
M  V30 2523 C 241.437 3.00649 -0.0555025 0
M  V30 2524 C 242.985 3.12999 0.00795388 0
M  V30 2525 C 243.46 4.5744 -0.226429 0
M  V30 2526 N 244.951 4.62875 -0.173469 0
M  V30 2527 C 245.686 5.72454 -0.329288 0
M  V30 2528 N 245.182 6.90669 -0.543005 0
M  V30 2529 N 246.975 5.61467 -0.266666 0
M  V30 2530 H 239.126 1.82345 -1.08922 0
M  V30 2531 H 241.389 0.844149 -0.431413 0
M  V30 2532 H 241.095 3.3563 -1.05096 0
M  V30 2533 H 240.969 3.71337 0.66246 0
M  V30 2534 H 243.356 2.77857 0.993966 0
M  V30 2535 H 243.437 2.4479 -0.742388 0
M  V30 2536 H 243.081 4.93287 -1.20956 0
M  V30 2537 H 243.011 5.2378 0.544274 0
M  V30 2538 H 245.502 3.77898 -0.0130709 0
M  V30 2539 H 245.815 7.70045 -0.651922 0
M  V30 2540 H 244.16 6.92581 -0.579366 0
M  V30 2541 H 247.351 4.67992 -0.100441 0
M  V30 2542 H 247.524 6.46816 -0.391535 0
M  V30 2543 N 240.93 -0.123565 1.57115 0
M  V30 2544 C 242.176 -0.833386 1.84885 0
M  V30 2545 C 242.509 -1.79742 0.735292 0
M  V30 2546 O 241.784 -1.92764 -0.25925 0
M  V30 2547 C 242.067 -1.5873 3.23228 0
M  V30 2548 C 241.92 -0.643183 4.45178 0
M  V30 2549 C 243.239 -2.54453 3.59085 0
M  V30 2550 H 240.358 -0.301518 0.6725 0
M  V30 2551 H 243 -0.097778 1.89748 0
M  V30 2552 H 241.15 -2.21438 3.19214 0
M  V30 2553 H 242.822 -0.0253015 4.61293 0
M  V30 2554 H 241.065 0.0456139 4.33776 0
M  V30 2555 H 241.736 -1.20724 5.38637 0
M  V30 2556 H 244.212 -2.01853 3.63861 0
M  V30 2557 H 243.088 -3.04238 4.5687 0
M  V30 2558 H 243.349 -3.36906 2.86264 0
M  V30 2559 N 242.408 -1.52605 -0.393616 0
M  V30 2560 C 243.655 -1.67424 -1.1391 0
M  V30 2561 C 243.983 -0.411859 -1.90089 0
M  V30 2562 O 243.238 0.605626 -1.86093 0
M  V30 2563 C 243.537 -2.85721 -2.14705 0
M  V30 2564 C 243.203 -4.23342 -1.55218 0
M  V30 2565 C 241.865 -4.60771 -1.3872 0
M  V30 2566 C 244.217 -5.09041 -1.11924 0
M  V30 2567 C 241.545 -5.81563 -0.774689 0
M  V30 2568 C 243.897 -6.30452 -0.520853 0
M  V30 2569 C 242.561 -6.66617 -0.343134 0
M  V30 2570 H 241.831 -0.612648 -0.416826 0
M  V30 2571 H 244.478 -1.8674 -0.424315 0
M  V30 2572 H 242.783 -2.60803 -2.92385 0
M  V30 2573 H 244.48 -2.94382 -2.72288 0
M  V30 2574 H 241.07 -3.93855 -1.69045 0
M  V30 2575 H 245.254 -4.80695 -1.23473 0
M  V30 2576 H 240.51 -6.08196 -0.625154 0
M  V30 2577 H 244.684 -6.96175 -0.177065 0
M  V30 2578 H 242.311 -7.60083 0.133571 0
M  V30 2579 N 243.887 0.651787 -1.4349 0
M  V30 2580 C 244.834 1.76462 -1.4876 0
M  V30 2581 C 245.804 1.62641 -0.337189 0
M  V30 2582 O 246.989 1.82864 -0.544544 0
M  V30 2583 C 244.129 3.14623 -1.41796 0
M  V30 2584 C 243.242 3.39568 -2.67053 0
M  V30 2585 C 242.377 4.67585 -2.52068 0
M  V30 2586 C 241.416 4.85639 -3.72587 0
M  V30 2587 N 240.553 6.04915 -3.56402 0
M  V30 2588 H 245.393 1.71293 -2.43849 0
M  V30 2589 H 242.93 0.835889 -1.21043 0
M  V30 2590 H 244.888 3.94496 -1.35753 0
M  V30 2591 H 243.518 3.18859 -0.50288 0
M  V30 2592 H 242.57 2.53783 -2.8337 0
M  V30 2593 H 243.882 3.48795 -3.56572 0
M  V30 2594 H 243.036 5.55586 -2.4374 0
M  V30 2595 H 241.775 4.60681 -1.60075 0
M  V30 2596 H 240.78 3.96073 -3.81321 0
M  V30 2597 H 242.005 4.94372 -4.65589 0
M  V30 2598 H 239.951 5.9914 -2.67146 0
M  V30 2599 H 239.868 6.15106 -4.39524 0
M  V30 2600 H 241.136 6.95533 -3.51929 0
M  V30 2601 N 245.365 1.30045 0.890287 0
M  V30 2602 C 246.593 1.21472 1.67487 0
M  V30 2603 C 247.008 -0.223241 1.87476 0
M  V30 2604 O 246.365 -1.14828 1.41847 0
M  V30 2605 C 246.416 1.93394 3.05419 0
M  V30 2606 O 246.137 3.31576 2.86337 0
M  V30 2607 C 247.638 1.91414 3.99844 0
M  V30 2608 H 244.858 0.420604 0.522813 0
M  V30 2609 H 247.402 1.7158 1.11268 0
M  V30 2610 H 245.557 1.47099 3.58386 0
M  V30 2611 H 245.971 3.67929 3.73802 0
M  V30 2612 H 247.445 2.46285 4.94012 0
M  V30 2613 H 247.922 0.891833 4.3005 0
M  V30 2614 H 248.528 2.37496 3.52811 0
M  V30 2615 N 246.843 -1.10192 1.12674 0
M  V30 2616 C 248.089 -1.82475 0.884915 0
M  V30 2617 C 248.422 -1.85093 -0.58773 0
M  V30 2618 O 247.697 -1.3134 -1.43457 0
M  V30 2619 C 247.98 -3.29018 1.46353 0
M  V30 2620 C 247.833 -3.34718 3.00473 0
M  V30 2621 C 249.152 -4.25473 1.12519 0
M  V30 2622 H 246.271 -0.662492 0.322915 0
M  V30 2623 H 248.913 -1.2913 1.39375 0
M  V30 2624 H 247.063 -3.74576 1.03077 0
M  V30 2625 H 248.735 -2.97622 3.52447 0
M  V30 2626 H 246.978 -2.74541 3.35872 0
M  V30 2627 H 247.649 -4.37918 3.36053 0
M  V30 2628 H 250.125 -3.88161 1.499 0
M  V30 2629 H 249.001 -5.26365 1.55663 0
M  V30 2630 H 249.262 -4.42084 0.0377407 0
M  V30 2631 N 248.321 -0.919034 -1.28029 0
M  V30 2632 C 249.269 -0.401753 -2.29104 0
M  V30 2633 C 250.263 0.509354 -1.61561 0
M  V30 2634 O 251.469 0.390014 -1.75724 0
M  V30 2635 H 247.844 -0.111331 -0.743713 0
M  V30 2636 H 249.815 -1.2672 -2.70156 0
M  V30 2637 C 248.564 0.338148 -3.46052 0
M  V30 2638 H 247.887 -0.353732 -3.98232 0
M  V30 2639 H 249.327 0.664653 -4.18758 0
M  V30 2640 C 247.786 1.54798 -2.99231 0
M  V30 2641 O 248.316 2.64696 -3.02157 0
M  V30 2642 N 246.522 1.3968 -2.54829 0
M  V30 2643 H 246.069 0.502698 -2.52647 0
M  V30 2644 H 246.027 2.20755 -2.23863 0
M  V30 2645 N 249.799 1.42003 -0.683588 0
M  V30 2646 C 251.215 1.55625 -0.353976 0
M  V30 2647 C 251.415 1.66151 1.14 0
M  V30 2648 O 250.471 1.63329 1.92561 0
M  V30 2649 C 251.784 2.80171 -1.092 0
M  V30 2650 C 253.332 2.93954 -1.07518 0
M  V30 2651 C 253.807 4.21372 -1.79471 0
M  V30 2652 N 255.298 4.28303 -1.76381 0
M  V30 2653 C 256.033 5.25729 -2.28904 0
M  V30 2654 N 255.529 6.29254 -2.89846 0
M  V30 2655 N 257.322 5.17586 -2.19228 0
M  V30 2656 H 249.473 1.33415 -1.6527 0
M  V30 2657 H 251.736 0.64282 -0.696769 0
M  V30 2658 H 251.442 2.78561 -2.14701 0
M  V30 2659 H 251.316 3.7133 -0.662862 0
M  V30 2660 H 253.703 2.95086 -0.028475 0
M  V30 2661 H 253.784 2.04002 -1.54328 0
M  V30 2662 H 253.428 4.21001 -2.84114 0
M  V30 2663 H 253.358 5.10275 -1.30104 0
M  V30 2664 H 255.849 3.54119 -1.31939 0
M  V30 2665 H 256.162 6.99964 -3.27522 0
M  V30 2666 H 254.507 6.29791 -2.93919 0
M  V30 2667 H 257.698 4.35631 -1.71299 0
M  V30 2668 H 257.871 5.93348 -2.60466 0
M  V30 2669 N 251.277 0.427512 1.51691 0
M  V30 2670 C 252.523 -0.134744 2.02953 0
M  V30 2671 C 252.878 -1.41235 1.30654 0
M  V30 2672 O 252.171 -1.87168 0.409713 0
M  V30 2673 C 252.365 -0.418249 3.54944 0
M  V30 2674 C 252.194 0.830327 4.41968 0
M  V30 2675 C 250.964 1.36097 4.86627 0
M  V30 2676 C 253.162 1.7137 4.84909 0
M  V30 2677 N 251.144 2.56311 5.57833 0
M  V30 2678 C 252.515 2.76195 5.55082 0
M  V30 2679 C 254.57 1.72928 4.66905 0
M  V30 2680 C 253.273 3.82512 6.09161 0
M  V30 2681 C 255.299 2.78175 5.21894 0
M  V30 2682 C 254.661 3.8172 5.92004 0
M  V30 2683 H 250.76 -0.0103958 0.781931 0
M  V30 2684 H 253.344 0.585981 1.85673 0
M  V30 2685 H 251.515 -1.10801 3.7226 0
M  V30 2686 H 253.247 -0.970999 3.92879 0
M  V30 2687 H 250.002 0.916311 4.64651 0
M  V30 2688 H 250.426 3.17242 5.98069 0
M  V30 2689 H 255.068 0.942081 4.12171 0
M  V30 2690 H 252.786 4.62077 6.62956 0
M  V30 2691 H 256.372 2.8031 5.09821 0
M  V30 2692 H 255.252 4.61821 6.33791 0
M  V30 2693 N 252.755 -1.56801 0.158532 0
M  V30 2694 C 253.718 -2.16138 -0.762705 0
M  V30 2695 C 254.718 -1.1061 -1.16713 0
M  V30 2696 O 255.908 -1.36191 -1.08617 0
M  V30 2697 C 253.04 -2.73386 -2.03649 0
M  V30 2698 H 254.233 -2.98886 -0.246354 0
M  V30 2699 H 251.786 -1.56035 -0.0909744 0
M  V30 2700 H 252.521 -1.94335 -2.59623 0
M  V30 2701 H 252.306 -3.50601 -1.75559 0
M  V30 2702 H 253.796 -3.19065 -2.6942 0
M  V30 2703 N 254.233 0.115231 -1.57178 0
M  V30 2704 C 255.51 0.852873 -1.76027 0
M  V30 2705 C 255.89 1.97892 -0.73498 0
M  V30 2706 O 255.238 2.27232 0.24036 0
M  V30 2707 C 255.448 1.36608 -3.21153 0
M  V30 2708 C 256.796 1.81692 -3.83762 0
M  V30 2709 O 257.82 1.46278 -3.24779 0
M  V30 2710 O 256.679 2.47104 -4.87444 0
M  V30 2711 H 253.773 0.405296 -0.720877 0
M  V30 2712 H 256.319 0.0986785 -1.69413 0
M  V30 2713 H 255.091 0.558357 -3.87296 0
M  V30 2714 H 254.714 2.18287 -3.3232 0
M  V30 2715 N 255.711 1.52812 0.385517 0
M  V30 2716 C 256.674 1.77188 1.45386 0
M  V30 2717 C 257.674 0.641953 1.4743 0
M  V30 2718 O 258.864 0.910033 1.4854 0
M  V30 2719 C 255.996 1.87582 2.8465 0
M  V30 2720 H 257.189 2.72583 1.25054 0
M  V30 2721 H 254.742 1.43586 0.617467 0
M  V30 2722 H 255.477 0.941849 3.10322 0
M  V30 2723 H 255.262 2.69748 2.84567 0
M  V30 2724 H 256.752 2.08102 3.62054 0
M  V30 2725 N 257.189 -0.644168 1.43834 0
M  V30 2726 C 258.419 -1.42939 1.49171 0
M  V30 2727 C 258.827 -1.88874 0.111048 0
M  V30 2728 O 258.17 -1.60656 -0.8908 0
M  V30 2729 C 258.232 -2.69151 2.38324 0
M  V30 2730 C 257.896 -2.45097 3.85715 0
M  V30 2731 C 258.893 -2.07747 4.76589 0
M  V30 2732 C 256.578 -2.59141 4.30292 0
M  V30 2733 C 258.572 -1.8475 6.10038 0
M  V30 2734 C 256.259 -2.35759 5.63792 0
M  V30 2735 C 257.257 -1.9862 6.53482 0
M  V30 2736 O 256.945 -1.75489 7.84512 0
M  V30 2737 H 256.677 -0.445271 0.508635 0
M  V30 2738 H 259.231 -0.79621 1.8934 0
M  V30 2739 H 257.461 -3.3506 1.93058 0
M  V30 2740 H 259.15 -3.31123 2.3476 0
M  V30 2741 H 259.916 -1.96465 4.43426 0
M  V30 2742 H 255.795 -2.87022 3.60749 0
M  V30 2743 H 259.339 -1.55686 6.80006 0
M  V30 2744 H 255.236 -2.46646 5.9652 0
M  V30 2745 H 256.004 -1.89841 7.9618 0
M  V30 2746 N 258.668 -1.30515 -0.883378 0
M  V30 2747 C 260.079 -1.17509 -1.45081 0
M  V30 2748 C 260.43 0.223605 -1.94922 0
M  V30 2749 O 259.555 1.12041 -1.85137 0
M  V30 2750 C 260.15 -2.12715 -2.63701 0
M  V30 2751 C 258.709 -2.03682 -3.16529 0
M  V30 2752 C 257.856 -2.02706 -1.89224 0
M  V30 2753 H 260.807 -1.42762 -0.693165 0
M  V30 2754 H 260.828 -1.70891 -3.39965 0
M  V30 2755 H 260.34 -3.14505 -2.27395 0
M  V30 2756 H 258.441 -1.05039 -3.57488 0
M  V30 2757 H 258.554 -2.92146 -3.7972 0
M  V30 2758 H 256.918 -1.4753 -2.07622 0
M  V30 2759 H 257.701 -3.06229 -1.55174 0
M  V30 2760 N 260.146 1.09593 -1.13257 0
M  V30 2761 C 261.393 1.81734 -0.893257 0
M  V30 2762 C 261.721 1.8563 0.580656 0
M  V30 2763 O 260.976 1.31906 1.44566 0
M  V30 2764 C 261.275 3.27802 -1.42411 0
M  V30 2765 C 260.941 3.44041 -2.91456 0
M  V30 2766 C 259.603 3.48181 -3.3215 0
M  V30 2767 C 261.955 3.48719 -3.87356 0
M  V30 2768 C 259.283 3.54575 -4.67433 0
M  V30 2769 C 261.635 3.56648 -5.2248 0
M  V30 2770 C 260.299 3.59055 -5.62704 0
M  V30 2771 H 259.569 0.665011 -0.326866 0
M  V30 2772 H 262.216 1.2912 -1.41422 0
M  V30 2773 H 260.521 3.83042 -0.823795 0
M  V30 2774 H 262.218 3.82149 -1.21503 0
M  V30 2775 H 258.808 3.41502 -2.58987 0
M  V30 2776 H 262.992 3.44763 -3.57004 0
M  V30 2777 H 258.248 3.54725 -4.97976 0
M  V30 2778 H 262.422 3.59212 -5.96607 0
M  V30 2779 H 260.049 3.63763 -6.67518 0
M  V30 2780 N 261.624 0.925811 1.2754 0
M  V30 2781 C 262.587 0.428129 2.25166 0
M  V30 2782 C 263.587 -0.452261 1.54309 0
M  V30 2783 O 264.777 -0.253608 1.72344 0
M  V30 2784 C 261.909 -0.384749 3.38722 0
M  V30 2785 H 263.102 1.29066 2.70706 0
M  V30 2786 H 260.655 0.706323 1.3943 0
M  V30 2787 H 261.39 -1.26618 2.98561 0
M  V30 2788 H 261.175 0.246454 3.91325 0
M  V30 2789 H 262.665 -0.723389 4.11287 0
M  V30 2790 N 263.102 -1.41638 0.69111 0
M  V30 2791 C 264.034 -2.29194 -0.0161523 0
M  V30 2792 C 265.047 -1.44549 -0.748955 0
M  V30 2793 O 266.236 -1.681 -0.6004 0
M  V30 2794 C 263.336 -3.22325 -1.0469 0
M  V30 2795 C 262.509 -4.35706 -0.384621 0
M  V30 2796 C 261.568 -5.09443 -1.31737 0
M  V30 2797 O 260.594 -5.63386 -0.811451 0
M  V30 2798 N 261.796 -5.16487 -2.64993 0
M  V30 2799 H 264.561 -2.90534 0.735523 0
M  V30 2800 H 262.122 -1.52742 0.53679 0
M  V30 2801 H 264.114 -3.68522 -1.67252 0
M  V30 2802 H 262.684 -2.62323 -1.70015 0
M  V30 2803 H 261.904 -3.91948 0.420804 0
M  V30 2804 H 263.192 -5.08743 0.0760765 0
M  V30 2805 H 262.59 -4.741 -3.08619 0
M  V30 2806 H 261.147 -5.66276 -3.22761 0
M  V30 2807 N 264.58 -0.43555 -1.51462 0
M  V30 2808 C 265.53 0.394701 -2.24558 0
M  V30 2809 C 266.514 0.99157 -1.26715 0
M  V30 2810 O 267.706 0.910007 -1.51815 0
M  V30 2811 C 264.835 1.4963 -3.08975 0
M  V30 2812 C 263.921 0.908912 -4.14246 0
M  V30 2813 N 264.312 0.0505335 -5.05775 0
M  V30 2814 C 262.61 1.17668 -4.30198 0
M  V30 2815 C 263.311 -0.279161 -5.8103 0
M  V30 2816 N 262.287 0.336767 -5.42556 0
M  V30 2817 H 266.089 -0.267106 -2.92684 0
M  V30 2818 H 263.603 -0.247518 -1.60503 0
M  V30 2819 H 265.6 2.10394 -3.59917 0
M  V30 2820 H 264.26 2.16046 -2.42393 0
M  V30 2821 H 265.271 -0.31577 -5.16936 0
M  V30 2822 H 261.948 1.83847 -3.74842 0
M  V30 2823 H 263.338 -0.977553 -6.64751 0
M  V30 2824 N 266.058 1.56714 -0.166846 0
M  V30 2825 C 267.305 1.96747 0.479252 0
M  V30 2826 C 267.633 1.05263 1.63554 0
M  V30 2827 O 266.888 0.0858098 1.95512 0
M  V30 2828 C 267.187 3.42889 1.00806 0
M  V30 2829 C 266.853 4.50889 -0.0318574 0
M  V30 2830 C 265.515 4.8015 -0.317675 0
M  V30 2831 C 267.867 5.15949 -0.737956 0
M  V30 2832 C 265.195 5.71772 -1.31506 0
M  V30 2833 C 267.547 6.08647 -1.72429 0
M  V30 2834 C 266.211 6.36277 -2.0176 0
M  V30 2835 H 265.481 0.719949 0.175371 0
M  V30 2836 H 268.128 1.89756 -0.257864 0
M  V30 2837 H 266.433 3.4681 1.82291 0
M  V30 2838 H 268.13 3.71203 1.51689 0
M  V30 2839 H 264.72 4.28128 0.201088 0
M  V30 2840 H 268.904 4.93458 -0.530351 0
M  V30 2841 H 264.16 5.91465 -1.54853 0
M  V30 2842 H 268.334 6.58129 -2.27682 0
M  V30 2843 H 265.961 7.07075 -2.79194 0
M  V30 2844 N 267.536 -0.106894 1.57237 0
M  V30 2845 C 268.761 -0.830287 1.90055 0
M  V30 2846 C 269.186 -1.72064 0.75998 0
M  V30 2847 O 268.544 -1.78982 -0.288991 0
M  V30 2848 C 268.592 -1.6295 3.21683 0
M  V30 2849 O 267.696 -2.73748 3.08441 0
M  V30 2850 H 267.037 -0.228855 0.623315 0
M  V30 2851 H 269.567 -0.085658 2.04421 0
M  V30 2852 H 269.577 -2.01621 3.54701 0
M  V30 2853 H 268.252 -0.975989 4.04286 0
M  V30 2854 H 266.829 -2.38192 2.86913 0
M  V30 2855 N 269.014 -1.53014 -0.377408 0
M  V30 2856 C 269.924 -1.81557 -1.48574 0
M  V30 2857 C 270.94 -0.703102 -1.59162 0
M  V30 2858 O 272.116 -0.99192 -1.75279 0
M  V30 2859 C 269.181 -1.9889 -2.83978 0
M  V30 2860 C 268.242 -3.22801 -2.83016 0
M  V30 2861 C 267.475 -3.39298 -4.11962 0
M  V30 2862 O 267.698 -2.60345 -5.0752 0
M  V30 2863 O 266.632 -4.32604 -4.18494 0
M  V30 2864 H 270.458 -2.75695 -1.27382 0
M  V30 2865 H 268.043 -1.38248 -0.566373 0
M  V30 2866 H 269.925 -2.11931 -3.6423 0
M  V30 2867 H 268.6 -1.07942 -3.05172 0
M  V30 2868 H 267.507 -3.15193 -2.01505 0
M  V30 2869 H 268.84 -4.13632 -2.66775 0
M  V30 2870 N 270.492 0.636531 -1.44174 0
M  V30 2871 C 271.455 1.73063 -1.50273 0
M  V30 2872 C 272.455 1.56113 -0.385397 0
M  V30 2873 O 273.645 1.61707 -0.64781 0
M  V30 2874 C 270.777 3.12096 -1.37145 0
M  V30 2875 H 271.97 1.69031 -2.47727 0
M  V30 2876 H 269.523 0.849706 -1.31186 0
M  V30 2877 H 270.258 3.21728 -0.407636 0
M  V30 2878 H 270.043 3.25805 -2.18159 0
M  V30 2879 H 271.533 3.91846 -1.44382 0
M  V30 2880 N 271.97 1.30982 0.876444 0
M  V30 2881 C 273.195 1.23373 1.66715 0
M  V30 2882 C 273.62 -0.19885 1.87046 0
M  V30 2883 O 272.978 -1.1427 1.40756 0
M  V30 2884 C 273.026 1.97644 3.01611 0
M  V30 2885 O 272.13 1.30935 3.91062 0
M  V30 2886 H 271.471 0.426279 0.509099 0
M  V30 2887 H 274.001 1.72944 1.09323 0
M  V30 2888 H 274.011 2.06992 3.51594 0
M  V30 2889 H 272.686 3.01829 2.86133 0
M  V30 2890 H 271.263 1.29996 3.49507 0
M  V30 2891 N 273.449 -1.08991 1.13837 0
M  V30 2892 C 274.695 -1.81526 0.90422 0
M  V30 2893 C 275.028 -1.85706 -0.568066 0
M  V30 2894 O 274.303 -1.32855 -1.42056 0
M  V30 2895 C 274.586 -3.27447 1.49835 0
M  V30 2896 C 274.439 -3.31512 3.04006 0
M  V30 2897 C 275.758 -4.24256 1.17025 0
M  V30 2898 H 272.877 -0.659029 0.329923 0
M  V30 2899 H 275.519 -1.27644 1.40737 0
M  V30 2900 H 273.669 -3.73462 1.07044 0
M  V30 2901 H 275.341 -2.93867 3.55584 0
M  V30 2902 H 273.584 -2.70963 3.38765 0
M  V30 2903 H 274.255 -4.34329 3.40679 0
M  V30 2904 H 276.731 -3.86549 1.54009 0
M  V30 2905 H 275.607 -5.24684 1.61237 0
M  V30 2906 H 275.868 -4.42019 0.0846274 0
M  V30 2907 N 274.927 -0.932562 -1.27047 0
M  V30 2908 C 275.89 -0.440064 -2.24936 0
M  V30 2909 C 276.89 0.444071 -1.54547 0
M  V30 2910 O 278.08 0.244465 -1.72476 0
M  V30 2911 C 275.212 0.36678 -3.38921 0
M  V30 2912 H 276.405 -1.305 -2.70018 0
M  V30 2913 H 273.958 -0.713707 -1.39054 0
M  V30 2914 H 274.693 1.25033 -2.99228 0
M  V30 2915 H 274.478 -0.267204 -3.91188 0
M  V30 2916 H 275.968 0.701567 -4.11665 0
M  V30 2917 N 276.405 1.4127 -0.698611 0
M  V30 2918 C 277.63 2.06024 -0.238512 0
M  V30 2919 C 278.055 1.5224 1.10475 0
M  V30 2920 O 277.413 0.650623 1.69223 0
M  V30 2921 C 277.461 3.59988 -0.209952 0
M  V30 2922 O 276.565 4.04282 0.814235 0
M  V30 2923 H 275.906 0.653829 -0.115775 0
M  V30 2924 H 278.436 1.8098 -0.954326 0
M  V30 2925 H 278.446 4.07979 -0.0418436 0
M  V30 2926 H 277.121 3.98503 -1.1903 0
M  V30 2927 H 275.698 3.6779 0.615234 0
M  V30 2928 N 277.883 0.443576 1.51229 0
M  V30 2929 C 278.83 -0.364716 2.279 0
M  V30 2930 C 279.8 -1.0114 1.31757 0
M  V30 2931 O 280.985 -1.02912 1.60667 0
M  V30 2932 C 278.125 -1.45644 3.12861 0
M  V30 2933 C 277.238 -0.827269 4.24005 0
M  V30 2934 C 276.373 -1.89456 4.96266 0
M  V30 2935 C 275.412 -1.24416 5.99322 0
M  V30 2936 N 274.549 -2.25309 6.64966 0
M  V30 2937 H 279.389 0.295464 2.96532 0
M  V30 2938 H 276.926 0.157554 1.46254 0
M  V30 2939 H 278.884 -2.10076 3.6045 0
M  V30 2940 H 277.514 -2.08616 2.46331 0
M  V30 2941 H 276.566 -0.0710839 3.80334 0
M  V30 2942 H 277.878 -0.312481 4.9782 0
M  V30 2943 H 277.032 -2.61535 5.47434 0
M  V30 2944 H 275.771 -2.4431 4.22095 0
M  V30 2945 H 274.776 -0.508868 5.4744 0
M  V30 2946 H 276.001 -0.702882 6.75453 0
M  V30 2947 H 273.947 -2.79231 5.93604 0
M  V30 2948 H 273.864 -1.78739 7.34567 0
M  V30 2949 H 275.132 -2.96853 7.20763 0
M  V30 2950 N 279.361 -1.56624 0.175154 0
M  V30 2951 C 280.638 -1.88688 -0.515373 0
M  V30 2952 C 281.018 -1.08564 -1.81044 0
M  V30 2953 O 280.366 -0.180703 -2.27784 0
M  V30 2954 C 280.576 -3.40768 -0.753552 0
M  V30 2955 C 281.924 -4.10587 -1.08184 0
M  V30 2956 O 282.948 -3.46106 -0.841961 0
M  V30 2957 O 281.807 -5.24512 -1.53459 0
M  V30 2958 H 278.901 -0.78301 -0.26613 0
M  V30 2959 H 281.447 -1.68347 0.213877 0
M  V30 2960 H 280.219 -3.90965 0.161829 0
M  V30 2961 H 279.842 -3.66733 -1.53598 0
M  V30 2962 N 280.839 0.0985539 -1.57292 0
M  V30 2963 C 282.085 0.803867 -1.86188 0
M  V30 2964 C 282.418 1.78549 -0.763794 0
M  V30 2965 O 281.693 1.93153 0.22855 0
M  V30 2966 C 281.976 1.53568 -3.25713 0
M  V30 2967 C 281.829 0.572277 -4.46145 0
M  V30 2968 C 283.148 2.48708 -3.63087 0
M  V30 2969 H 280.267 0.290781 -0.677211 0
M  V30 2970 H 282.909 0.0675783 -1.8988 0
M  V30 2971 H 281.059 2.16332 -3.22696 0
M  V30 2972 H 282.731 -0.0480894 -4.61275 0
M  V30 2973 H 280.974 -0.114618 -4.33649 0
M  V30 2974 H 281.645 1.12139 -5.40489 0
M  V30 2975 H 284.121 1.96039 -3.67026 0
M  V30 2976 H 282.997 2.96932 -4.61652 0
M  V30 2977 H 283.258 3.32309 -2.91588 0
M  V30 2978 N 282.317 1.53212 0.369288 0
M  V30 2979 C 283.542 1.73423 1.1375 0
M  V30 2980 C 283.967 0.460404 1.82378 0
M  V30 2981 O 283.325 -0.585298 1.71592 0
M  V30 2982 C 283.373 2.89769 2.1463 0
M  V30 2983 O 282.477 2.58119 3.21634 0
M  V30 2984 H 281.818 0.576061 0.330227 0
M  V30 2985 H 284.348 2.00083 0.427547 0
M  V30 2986 H 284.358 3.15829 2.58294 0
M  V30 2987 H 283.033 3.8217 1.64071 0
M  V30 2988 H 281.61 2.42864 2.82969 0
M  V30 2989 N 283.795 -0.628877 1.44509 0
M  V30 2990 C 285.041 -1.39045 1.47629 0
M  V30 2991 C 285.374 -1.93892 0.109343 0
M  V30 2992 O 284.649 -1.7379 -0.87334 0
M  V30 2993 C 284.932 -2.55408 2.53848 0
M  V30 2994 C 284.785 -2.05896 3.99909 0
M  V30 2995 C 286.104 -3.5759 2.56549 0
M  V30 2996 H 283.223 -0.504232 0.537512 0
M  V30 2997 H 285.865 -0.710854 1.76201 0
M  V30 2998 H 284.015 -3.13384 2.29615 0
M  V30 2999 H 285.687 -1.52734 4.35282 0
M  V30 3000 H 283.93 -1.37061 4.11578 0
M  V30 3001 H 284.601 -2.89681 4.69882 0
M  V30 3002 H 287.077 -3.09419 2.78207 0
M  V30 3003 H 285.953 -4.36527 3.32769 0
M  V30 3004 H 286.214 -4.11808 1.60832 0
M  V30 3005 N 285.273 -1.31445 -0.869486 0
M  V30 3006 C 286.519 -1.22347 -1.62489 0
M  V30 3007 C 286.874 0.216204 -1.91181 0
M  V30 3008 O 286.167 1.14977 -1.53268 0
M  V30 3009 C 286.361 -2.00145 -2.96102 0
M  V30 3010 C 286.19 -3.51531 -2.80456 0
M  V30 3011 C 284.96 -4.20882 -2.79618 0
M  V30 3012 C 287.158 -4.46471 -2.5528 0
M  V30 3013 N 285.14 -5.58421 -2.55027 0
M  V30 3014 C 286.511 -5.71682 -2.39957 0
M  V30 3015 C 288.566 -4.35892 -2.40629 0
M  V30 3016 C 287.269 -6.87511 -2.11472 0
M  V30 3017 C 289.295 -5.51505 -2.13532 0
M  V30 3018 C 288.657 -6.75707 -1.98998 0
M  V30 3019 H 284.756 -0.502815 -0.598917 0
M  V30 3020 H 287.34 -1.65639 -1.02332 0
M  V30 3021 H 285.511 -1.59221 -3.54264 0
M  V30 3022 H 287.243 -1.83063 -3.60929 0
M  V30 3023 H 283.998 -3.72857 -2.92018 0
M  V30 3024 H 284.422 -6.30841 -2.45701 0
M  V30 3025 H 289.064 -3.40533 -2.50593 0
M  V30 3026 H 286.782 -7.82897 -2.00245 0
M  V30 3027 H 290.368 -5.45238 -2.02995 0
M  V30 3028 H 289.248 -7.63655 -1.78326 0
M  V30 3029 N 286.751 1.08385 -1.14413 0
M  V30 3030 C 287.991 1.8238 -0.922868 0
M  V30 3031 C 288.355 1.84225 0.540842 0
M  V30 3032 O 289.556 2.53985 0.880058 0
M  V30 3033 C 287.827 3.24048 -1.50757 0
M  V30 3034 S 289.386 4.14917 -1.4279 0
M  V30 3035 H 286.204 0.628524 -0.332384 0
M  V30 3036 H 288.806 1.30278 -1.45766 0
M  V30 3037 H 287.51 3.20288 -2.56601 0
M  V30 3038 H 287.041 3.81224 -0.971178 0
M  V30 3039 H 289.056 4.94473 -0.413582 0
M  V30 3040 N 288.23 0.939286 1.26551 0
M  V30 3041 C 289.455 0.602008 1.98471 0
M  V30 3042 C 289.88 -0.815624 1.69497 0
M  V30 3043 O 289.238 -1.54912 0.941905 0
M  V30 3044 C 289.286 0.848407 3.50477 0
M  V30 3045 O 288.39 -0.0804009 4.12322 0
M  V30 3046 H 287.731 0.23049 0.622712 0
M  V30 3047 H 290.261 1.2617 1.61066 0
M  V30 3048 H 290.271 0.768553 4.00696 0
M  V30 3049 H 288.946 1.88171 3.70897 0
M  V30 3050 H 287.523 0.0503508 3.72866 0
M  V30 3051 N 289.708 -1.40897 0.706093 0
M  V30 3052 C 290.656 -2.32572 0.0361893 0
M  V30 3053 C 291.65 -1.51532 -0.757266 0
M  V30 3054 O 292.856 -1.67396 -0.661703 0
M  V30 3055 H 289.231 -0.751966 -0.00709935 0
M  V30 3056 H 291.202 -2.86733 0.826249 0
M  V30 3057 C 289.951 -3.36418 -0.87854 0
M  V30 3058 H 289.274 -3.98836 -0.277401 0
M  V30 3059 H 290.714 -4.0308 -1.3154 0
M  V30 3060 C 289.173 -2.71141 -1.99961 0
M  V30 3061 O 289.703 -2.56735 -3.0895 0
M  V30 3062 N 287.909 -2.29671 -1.78043 0
M  V30 3063 H 287.456 -2.41588 -0.894042 0
M  V30 3064 H 287.414 -1.86332 -2.53235 0
M  V30 3065 N 291.186 -0.45159 -1.50991 0
M  V30 3066 C 292.463 0.170707 -1.94854 0
M  V30 3067 C 292.843 1.58788 -1.39103 0
M  V30 3068 O 292.191 2.20913 -0.583921 0
M  V30 3069 C 292.401 0.133929 -3.48743 0
M  V30 3070 C 293.749 0.33248 -4.23296 0
M  V30 3071 O 294.773 0.211403 -3.55572 0
M  V30 3072 O 293.632 0.57486 -5.43468 0
M  V30 3073 H 290.726 0.122264 -0.817912 0
M  V30 3074 H 293.272 -0.510594 -1.61836 0
M  V30 3075 H 292.044 -0.856283 -3.81816 0
M  V30 3076 H 291.667 0.857529 -3.88242 0
M  V30 3077 N 292.664 1.56529 -0.183458 0
M  V30 3078 C 293.894 2.01331 0.463612 0
M  V30 3079 C 294.302 1.06278 1.5653 0
M  V30 3080 O 293.645 0.0577976 1.83609 0
M  V30 3081 C 293.707 3.42547 1.09096 0
M  V30 3082 C 293.371 4.56817 0.129442 0
M  V30 3083 C 294.368 5.15734 -0.656807 0
M  V30 3084 C 292.053 5.02295 0.02174 0
M  V30 3085 C 294.047 6.1857 -1.53784 0
M  V30 3086 C 291.734 6.04978 -0.862864 0
M  V30 3087 C 292.732 6.62988 -1.64123 0
M  V30 3088 O 292.42 7.63677 -2.51103 0
M  V30 3089 H 292.152 0.664917 0.121907 0
M  V30 3090 H 294.706 2.034 -0.285954 0
M  V30 3091 H 292.936 3.37428 1.88889 0
M  V30 3092 H 294.625 3.71228 1.64148 0
M  V30 3093 H 295.391 4.81473 -0.583839 0
M  V30 3094 H 291.27 4.56847 0.617392 0
M  V30 3095 H 294.814 6.63777 -2.14583 0
M  V30 3096 H 290.711 6.38663 -0.93699 0
M  V30 3097 H 291.479 7.81049 -2.44753 0
M  V30 3098 N 294.142 -0.090211 1.57342 0
M  V30 3099 C 295.072 -1.10976 2.05443 0
M  V30 3100 C 296.053 -1.41482 0.944284 0
M  V30 3101 O 297.238 -1.51428 1.21586 0
M  V30 3102 C 294.368 -2.42831 2.48295 0
M  V30 3103 C 293.322 -2.26721 3.63018 0
M  V30 3104 C 292.648 -3.63796 3.91863 0
M  V30 3105 C 293.948 -1.7037 4.93732 0
M  V30 3106 H 295.642 -0.709564 2.9087 0
M  V30 3107 H 293.188 -0.339874 1.39932 0
M  V30 3108 H 295.141 -3.14431 2.80555 0
M  V30 3109 H 293.865 -2.84795 1.59873 0
M  V30 3110 H 292.524 -1.57565 3.31012 0
M  V30 3111 H 292.172 -4.03297 3.00601 0
M  V30 3112 H 291.872 -3.53861 4.69101 0
M  V30 3113 H 293.396 -4.36855 4.26603 0
M  V30 3114 H 294.81 -2.31816 5.24342 0
M  V30 3115 H 293.207 -1.71181 5.75167 0
M  V30 3116 H 294.277 -0.663542 4.80339 0
M  V30 3117 N 295.62 -1.53406 -0.361157 0
M  V30 3118 C 296.868 -1.69467 -1.10115 0
M  V30 3119 C 297.189 -0.451352 -1.89705 0
M  V30 3120 O 296.459 0.534636 -1.88463 0
M  V30 3121 H 295.039 -0.624749 -0.409508 0
M  V30 3122 H 297.701 -1.90609 -0.406699 0
M  V30 3123 H 296.797 -2.55774 -1.78847 0
M  V30 3124 N 297.098 0.621204 -1.44841 0
M  V30 3125 C 298.031 1.7459 -1.46947 0
M  V30 3126 C 299.009 1.59273 -0.327238 0
M  V30 3127 O 300.193 1.81021 -0.525706 0
M  V30 3128 C 297.32 3.12274 -1.31159 0
M  V30 3129 C 296.366 3.46216 -2.49072 0
M  V30 3130 S 297.199 3.4258 -4.11581 0
M  V30 3131 C 298.355 4.82867 -3.98233 0
M  V30 3132 H 298.588 1.72538 -2.42111 0
M  V30 3133 H 296.121 0.796683 -1.32259 0
M  V30 3134 H 298.079 3.91722 -1.22737 0
M  V30 3135 H 296.74 3.11855 -0.374885 0
M  V30 3136 H 295.933 4.4643 -2.33915 0
M  V30 3137 H 295.535 2.74253 -2.54286 0
M  V30 3138 H 297.827 5.7234 -3.62537 0
M  V30 3139 H 298.77 5.0308 -4.98313 0
M  V30 3140 H 299.178 4.57908 -3.30121 0
M  V30 3141 N 298.576 1.31904 0.862503 0
M  V30 3142 C 299.801 1.25135 1.65397 0
M  V30 3143 C 300.226 -0.179 1.87246 0
M  V30 3144 O 299.584 -1.1277 1.4196 0
M  V30 3145 C 299.632 2.00832 2.99498 0
M  V30 3146 O 298.736 1.35075 3.89652 0
M  V30 3147 H 298.077 0.431655 0.504549 0
M  V30 3148 H 300.607 1.74094 1.07483 0
M  V30 3149 H 300.617 2.10709 3.49379 0
M  V30 3150 H 299.292 3.04847 2.82916 0
M  V30 3151 H 297.869 1.33696 3.48109 0
M  V30 3152 N 300.054 -1.07777 1.14986 0
M  V30 3153 C 301.47 -1.32373 0.891596 0
M  V30 3154 C 301.67 -1.9609 -0.463788 0
M  V30 3155 O 300.726 -2.21801 -1.20667 0
M  V30 3156 C 302.039 -2.21905 2.02925 0
M  V30 3157 C 303.587 -2.35367 2.06329 0
M  V30 3158 C 304.062 -3.28245 3.19405 0
M  V30 3159 N 305.553 -3.35824 3.19024 0
M  V30 3160 C 306.288 -4.07739 4.03158 0
M  V30 3161 N 305.784 -4.82306 4.97346 0
M  V30 3162 N 307.577 -4.03635 3.91197 0
M  V30 3163 H 299.728 -0.648039 2.02273 0
M  V30 3164 H 301.991 -0.348149 0.881757 0
M  V30 3165 H 301.697 -1.82342 3.0074 0
M  V30 3166 H 301.571 -3.22407 1.95789 0
M  V30 3167 H 303.958 -2.74186 1.09116 0
M  V30 3168 H 304.039 -1.34585 2.17533 0
M  V30 3169 H 303.683 -2.90146 4.16867 0
M  V30 3170 H 303.613 -4.28971 3.05437 0
M  V30 3171 H 306.104 -2.8267 2.50811 0
M  V30 3172 H 306.417 -5.34661 5.57994 0
M  V30 3173 H 304.762 -4.81337 5.01338 0
M  V30 3174 H 307.953 -3.44491 3.16928 0
M  V30 3175 H 308.126 -4.59417 4.5699 0
M  V30 3176 N 301.532 -0.945985 -1.26051 0
M  V30 3177 C 302.482 -0.430164 -2.23905 0
M  V30 3178 C 303.466 0.47579 -1.53704 0
M  V30 3179 O 304.658 0.310252 -1.7426 0
M  V30 3180 C 301.787 0.298957 -3.41996 0
M  V30 3181 C 300.873 -0.624566 -4.19476 0
M  V30 3182 N 301.264 -1.75245 -4.74471 0
M  V30 3183 C 299.562 -0.431082 -4.43912 0
M  V30 3184 C 300.263 -2.32834 -5.3307 0
M  V30 3185 N 299.239 -1.61583 -5.1903 0
M  V30 3186 H 303.041 -1.29107 -2.64024 0
M  V30 3187 H 300.555 -0.802428 -1.41191 0
M  V30 3188 H 302.552 0.685565 -4.11225 0
M  V30 3189 H 301.212 1.15657 -3.03403 0
M  V30 3190 H 302.223 -2.13449 -4.71868 0
M  V30 3191 H 298.9 0.384364 -4.15727 0
M  V30 3192 H 300.29 -3.27893 -5.86461 0
M  V30 3193 N 303.011 1.40521 -0.713556 0
M  V30 3194 C 304.422 1.83853 -0.324807 0
M  V30 3195 C 304.773 1.59667 1.14021 0
M  V30 3196 O 303.898 1.07649 1.87725 0
M  V30 3197 C 304.493 3.33751 -0.582746 0
M  V30 3198 C 303.052 3.75584 -0.247727 0
M  V30 3199 C 302.199 2.63753 -0.856121 0
M  V30 3200 H 305.15 1.29817 -0.91286 0
M  V30 3201 H 305.171 3.80194 0.152682 0
M  V30 3202 H 304.683 3.51322 -1.64908 0
M  V30 3203 H 302.784 3.63608 0.813624 0
M  V30 3204 H 302.897 4.7373 -0.715307 0
M  V30 3205 H 301.261 2.53108 -0.28432 0
M  V30 3206 H 302.044 2.84137 -1.92668 0
M  V30 3207 N 304.489 0.459591 1.5075 0
M  V30 3208 C 305.421 -0.37665 2.26084 0
M  V30 3209 C 306.434 -0.967109 1.30961 0
M  V30 3210 O 307.623 -0.857468 1.56556 0
M  V30 3211 C 304.723 -1.54112 3.01832 0
M  V30 3212 C 303.896 -1.06553 4.24223 0
M  V30 3213 C 302.955 -2.1027 4.82362 0
M  V30 3214 O 301.981 -1.68798 5.43595 0
M  V30 3215 N 303.183 -3.42974 4.68347 0
M  V30 3216 H 305.948 0.269124 2.98489 0
M  V30 3217 H 303.509 0.28972 1.59287 0
M  V30 3218 H 305.501 -2.23165 3.37608 0
M  V30 3219 H 304.071 -2.0918 2.32298 0
M  V30 3220 H 303.291 -0.201274 3.93686 0
M  V30 3221 H 304.579 -0.725516 5.03601 0
M  V30 3222 H 303.977 -3.79385 4.19623 0
M  V30 3223 H 302.534 -4.07858 5.08424 0
M  V30 3224 N 305.967 -1.56429 0.191757 0
M  V30 3225 C 307.213 -1.97777 -0.448554 0
M  V30 3226 C 307.546 -1.07847 -1.61501 0
M  V30 3227 O 306.821 -0.129774 -1.94067 0
M  V30 3228 C 307.104 -3.48362 -0.911906 0
M  V30 3229 C 306.957 -4.4907 0.256136 0
M  V30 3230 C 308.276 -4.02561 -1.77857 0
M  V30 3231 H 305.395 -0.719071 -0.161572 0
M  V30 3232 H 308.037 -1.87896 0.282007 0
M  V30 3233 H 306.187 -3.56914 -1.53442 0
M  V30 3234 H 307.859 -4.5256 0.893733 0
M  V30 3235 H 306.102 -4.24181 0.908436 0
M  V30 3236 H 306.773 -5.51889 -0.11053 0
M  V30 3237 H 309.249 -3.96767 -1.25359 0
M  V30 3238 H 308.125 -5.08301 -2.07174 0
M  V30 3239 H 308.386 -3.47616 -2.73158 0
M  V30 3240 N 307.445 0.0818655 -1.57387 0
M  V30 3241 C 308.375 1.09885 -2.06028 0
M  V30 3242 C 309.356 1.4098 -0.951774 0
M  V30 3243 O 310.541 1.50781 -1.22387 0
M  V30 3244 C 307.671 2.4151 -2.4958 0
M  V30 3245 C 306.625 2.24792 -3.64215 0
M  V30 3246 C 305.951 3.61712 -3.93787 0
M  V30 3247 C 307.251 1.67749 -4.94629 0
M  V30 3248 H 308.945 0.694128 -2.91243 0
M  V30 3249 H 306.491 0.332448 -1.4011 0
M  V30 3250 H 308.444 3.12939 -2.82219 0
M  V30 3251 H 307.168 2.83943 -1.61381 0
M  V30 3252 H 305.827 1.55807 -3.31843 0
M  V30 3253 H 305.475 4.01697 -3.02735 0
M  V30 3254 H 305.175 3.51368 -4.70971 0
M  V30 3255 H 306.699 4.34587 -4.28913 0
M  V30 3256 H 308.113 2.29032 -5.25564 0
M  V30 3257 H 306.51 1.68128 -5.76067 0
M  V30 3258 H 307.58 0.638059 -4.80684 0
M  V30 3259 N 308.923 1.53595 0.353017 0
M  V30 3260 C 309.855 1.77219 1.45348 0
M  V30 3261 C 310.868 0.65324 1.49119 0
M  V30 3262 O 312.057 0.929775 1.52373 0
M  V30 3263 C 309.157 1.84841 2.84055 0
M  V30 3264 C 308.33 3.14649 3.03833 0
M  V30 3265 C 307.389 3.13351 4.22727 0
M  V30 3266 O 306.415 3.87107 4.17297 0
M  V30 3267 N 307.617 2.35052 5.30783 0
M  V30 3268 H 310.382 2.72178 1.25457 0
M  V30 3269 H 307.943 1.52528 0.542833 0
M  V30 3270 H 309.935 1.81435 3.61751 0
M  V30 3271 H 308.505 0.971114 2.97133 0
M  V30 3272 H 307.725 3.31256 2.13689 0
M  V30 3273 H 309.013 4.00411 3.13925 0
M  V30 3274 H 308.411 1.74663 5.38061 0
M  V30 3275 H 306.968 2.37453 6.07009 0
M  V30 3276 N 310.401 -0.613514 1.45168 0
M  V30 3277 C 311.364 -1.7065 1.53007 0
M  V30 3278 C 312.364 -1.5548 0.410184 0
M  V30 3279 O 313.554 -1.60656 0.673455 0
M  V30 3280 C 310.686 -3.09875 1.42093 0
M  V30 3281 H 311.879 -1.65068 2.50385 0
M  V30 3282 H 309.432 -0.828728 1.32521 0
M  V30 3283 H 310.167 -3.21039 0.458769 0
M  V30 3284 H 309.952 -3.22293 2.23315 0
M  V30 3285 H 311.442 -3.895 1.50598 0
M  V30 3286 N 311.879 -1.3236 -0.855495 0
M  V30 3287 C 313.107 -1.2587 -1.64208 0
M  V30 3288 C 313.522 0.173457 -1.88002 0
M  V30 3289 O 312.879 1.11027 -1.44842 0
M  V30 3290 C 312.93 -2.01424 -3.00184 0
M  V30 3291 O 312.651 -3.39051 -2.77445 0
M  V30 3292 C 314.152 -2.01948 -3.94629 0
M  V30 3293 H 311.372 -0.434318 -0.511477 0
M  V30 3294 H 313.916 -1.74469 -1.0668 0
M  V30 3295 H 312.071 -1.56549 -3.5436 0
M  V30 3296 H 312.485 -3.77711 -3.63916 0
M  V30 3297 H 313.959 -2.59297 -4.87308 0
M  V30 3298 H 314.436 -1.00554 -4.27534 0
M  V30 3299 H 315.042 -2.46767 -3.4639 0
M  V30 3300 N 313.357 1.07166 -1.15556 0
M  V30 3301 C 314.289 2.14341 -0.811815 0
M  V30 3302 C 315.302 1.61835 0.177015 0
M  V30 3303 O 316.491 1.78439 -0.0464996 0
M  V30 3304 C 313.591 3.38387 -0.186481 0
M  V30 3305 C 312.764 4.20238 -1.21321 0
M  V30 3306 C 311.823 5.2266 -0.609302 0
M  V30 3307 O 310.849 5.54719 -1.27576 0
M  V30 3308 N 312.051 5.77306 0.608099 0
M  V30 3309 H 314.816 2.44431 -1.73417 0
M  V30 3310 H 312.377 1.23089 -1.0517 0
M  V30 3311 H 314.369 4.04044 0.230339 0
M  V30 3312 H 312.939 3.05994 0.639249 0
M  V30 3313 H 312.159 3.50369 -1.80652 0
M  V30 3314 H 313.447 4.71736 -1.90638 0
M  V30 3315 H 312.845 5.53513 1.1679 0
M  V30 3316 H 311.402 6.44583 0.96725 0
M  V30 3317 N 314.835 0.952656 1.25548 0
M  V30 3318 C 315.745 0.47782 2.29682 0
M  V30 3319 C 316.761 -0.453859 1.67977 0
M  V30 3320 O 317.937 -0.330587 1.98668 0
M  V30 3321 C 315.002 -0.238655 3.45878 0
M  V30 3322 C 314.063 0.730994 4.23031 0
M  V30 3323 C 313.296 0.0486165 5.33678 0
M  V30 3324 O 313.519 -1.16612 5.58353 0
M  V30 3325 O 312.453 0.733152 5.97418 0
M  V30 3326 H 316.279 1.34312 2.72386 0
M  V30 3327 H 313.864 0.719026 1.30959 0
M  V30 3328 H 315.746 -0.641774 4.16484 0
M  V30 3329 H 314.421 -1.07916 3.05181 0
M  V30 3330 H 313.328 1.18428 3.5486 0
M  V30 3331 H 314.661 1.53946 4.67506 0
M  V30 3332 N 316.313 -1.40141 0.720998 0
M  V30 3333 C 317.541 -2.05096 0.272656 0
M  V30 3334 C 317.956 -1.54334 -1.0875 0
M  V30 3335 O 317.313 -0.702211 -1.6845 0
M  V30 3336 C 317.364 -3.60636 0.249835 0
M  V30 3337 O 317.085 -4.09526 1.55629 0
M  V30 3338 C 318.586 -4.42772 -0.216396 0
M  V30 3339 H 315.806 -0.659897 0.121558 0
M  V30 3340 H 318.35 -1.79449 0.980723 0
M  V30 3341 H 316.505 -3.85232 -0.409237 0
M  V30 3342 H 316.919 -5.03758 1.4604 0
M  V30 3343 H 318.393 -5.51702 -0.181212 0
M  V30 3344 H 318.87 -4.20756 -1.25941 0
M  V30 3345 H 319.476 -4.23294 0.412596 0
M  V30 3346 N 317.792 -0.46758 -1.50504 0
M  V30 3347 C 318.722 0.318381 -2.31319 0
M  V30 3348 C 319.703 0.993564 -1.38066 0
M  V30 3349 O 320.888 0.991411 -1.66987 0
M  V30 3350 C 318.018 1.40275 -3.17711 0
M  V30 3351 C 316.972 0.849373 -4.19487 0
M  V30 3352 C 316.298 2.03177 -4.94594 0
M  V30 3353 C 317.598 -0.136942 -5.2212 0
M  V30 3354 H 319.292 -0.356106 -2.97275 0
M  V30 3355 H 316.838 -0.172703 -1.42961 0
M  V30 3356 H 318.791 1.96004 -3.73042 0
M  V30 3357 H 317.515 2.10596 -2.49634 0
M  V30 3358 H 316.174 0.314076 -3.65252 0
M  V30 3359 H 315.822 2.72187 -4.22993 0
M  V30 3360 H 315.522 1.66774 -5.63436 0
M  V30 3361 H 317.046 2.59403 -5.52759 0
M  V30 3362 H 318.46 0.331056 -5.72343 0
M  V30 3363 H 316.857 -0.41507 -5.98663 0
M  V30 3364 H 317.927 -1.06398 -4.73083 0
M  V30 3365 N 319.27 1.56325 -0.20005 0
M  V30 3366 C 320.202 2.16555 0.750771 0
M  V30 3367 C 321.215 1.12871 1.1732 0
M  V30 3368 O 322.404 1.39943 1.10807 0
M  V30 3369 C 319.504 2.71684 2.02586 0
M  V30 3370 C 318.677 4.00321 1.76244 0
M  V30 3371 C 317.736 4.40227 2.88248 0
M  V30 3372 O 316.762 5.07552 2.57642 0
M  V30 3373 N 317.964 4.04138 4.16717 0
M  V30 3374 H 320.729 2.98772 0.235685 0
M  V30 3375 H 318.29 1.6189 -0.0182594 0
M  V30 3376 H 320.282 2.95363 2.76664 0
M  V30 3377 H 318.852 1.93893 2.45202 0
M  V30 3378 H 318.072 3.84723 0.85919 0
M  V30 3379 H 319.36 4.84279 1.56048 0
M  V30 3380 H 318.758 3.49993 4.44434 0
M  V30 3381 H 317.315 4.32756 4.87407 0
M  V30 3382 N 320.748 -0.0735177 1.57428 0
M  V30 3383 C 322.164 -0.428264 1.53747 0
M  V30 3384 C 322.364 -1.79272 0.91998 0
M  V30 3385 O 321.42 -2.47051 0.521745 0
M  V30 3386 C 322.733 -0.370914 2.98404 0
M  V30 3387 C 324.281 -0.451224 3.0973 0
M  V30 3388 C 324.756 -0.4238 4.56035 0
M  V30 3389 N 326.247 -0.483925 4.60665 0
M  V30 3390 C 326.982 -0.484891 5.71346 0
M  V30 3391 N 326.478 -0.440775 6.91396 0
M  V30 3392 N 328.271 -0.531319 5.59583 0
M  V30 3393 H 320.422 0.819949 1.95935 0
M  V30 3394 H 322.685 0.307493 0.896745 0
M  V30 3395 H 322.391 0.564956 3.47133 0
M  V30 3396 H 322.265 -1.18176 3.5821 0
M  V30 3397 H 324.652 -1.37752 2.60976 0
M  V30 3398 H 324.733 0.388167 2.52838 0
M  V30 3399 H 324.377 0.498638 5.05446 0
M  V30 3400 H 324.307 -1.2807 5.10789 0
M  V30 3401 H 326.798 -0.522338 3.74273 0
M  V30 3402 H 327.111 -0.44539 7.71515 0
M  V30 3403 H 325.456 -0.40749 6.93804 0
M  V30 3404 H 328.647 -0.563464 4.64696 0
M  V30 3405 H 328.82 -0.528603 6.4584 0
M  V30 3406 N 322.226 -1.5378 -0.344866 0
M  V30 3407 C 323.176 -1.78057 -1.42407 0
M  V30 3408 C 324.16 -0.635732 -1.47808 0
M  V30 3409 O 325.352 -0.89508 -1.527 0
M  V30 3410 C 322.481 -1.99242 -2.79566 0
M  V30 3411 C 321.567 -3.19787 -2.78562 0
M  V30 3412 N 321.958 -4.41284 -2.47189 0
M  V30 3413 C 320.256 -3.2093 -3.0971 0
M  V30 3414 C 320.957 -5.23128 -2.54385 0
M  V30 3415 N 319.933 -4.59813 -2.89953 0
M  V30 3416 H 323.735 -2.69588 -1.17046 0
M  V30 3417 H 321.249 -1.52687 -0.553217 0
M  V30 3418 H 323.246 -2.14768 -3.57324 0
M  V30 3419 H 321.906 -1.08953 -3.05875 0
M  V30 3420 H 322.917 -4.68657 -2.20411 0
M  V30 3421 H 319.594 -2.40603 -3.41199 0
M  V30 3422 H 320.984 -6.30096 -2.333 0
M  V30 3423 N 323.704 0.605807 -1.45491 0
M  V30 3424 C 324.952 1.36207 -1.49305 0
M  V30 3425 C 325.273 1.94519 -0.136863 0
M  V30 3426 O 324.543 1.77261 0.833983 0
M  V30 3427 H 323.123 0.50565 -0.549843 0
M  V30 3428 H 325.785 0.711239 -1.81459 0
M  V30 3429 H 324.881 2.18058 -2.23287 0
M  V30 3430 N 325.182 1.32811 0.848464 0
M  V30 3431 C 326.145 1.22194 1.9391 0
M  V30 3432 C 327.145 0.143404 1.60159 0
M  V30 3433 O 328.335 0.394253 1.6968 0
M  V30 3434 C 325.467 0.88067 3.29328 0
M  V30 3435 H 326.66 2.19127 2.04752 0
M  V30 3436 H 324.213 1.16731 1.0394 0
M  V30 3437 H 324.948 -0.0865776 3.24184 0
M  V30 3438 H 324.733 1.66052 3.55203 0
M  V30 3439 H 326.223 0.830871 4.09251 0
M  V30 3440 N 326.66 -1.06551 1.16123 0
M  V30 3441 C 327.908 -1.78947 0.939267 0
M  V30 3442 C 328.229 -1.87532 -0.534476 0
M  V30 3443 O 327.499 -1.38211 -1.38833 0
M  V30 3444 H 326.079 -0.662807 0.344523 0
M  V30 3445 H 328.741 -1.28725 1.46342 0
M  V30 3446 H 327.837 -2.81117 1.35572 0
M  V30 3447 N 328.138 -0.959301 -1.25041 0
M  V30 3448 C 329.101 -0.487677 -2.23952 0
M  V30 3449 C 330.101 0.41119 -1.55454 0
M  V30 3450 O 331.291 0.207825 -1.72956 0
M  V30 3451 C 328.423 0.294807 -3.39623 0
M  V30 3452 H 329.616 -1.36198 -2.67189 0
M  V30 3453 H 327.169 -0.743042 -1.37508 0
M  V30 3454 H 327.904 1.18658 -3.01813 0
M  V30 3455 H 327.689 -0.35012 -3.90534 0
M  V30 3456 H 329.179 0.614089 -4.1306 0
M  V30 3457 N 329.616 1.39756 -0.72842 0
M  V30 3458 C 330.864 2.00248 -0.272946 0
M  V30 3459 C 331.185 1.58077 1.14178 0
M  V30 3460 O 330.455 0.826014 1.77634 0
M  V30 3461 H 329.035 0.740554 -0.0979247 0
M  V30 3462 H 331.697 1.70903 -0.936912 0
M  V30 3463 H 330.793 3.10495 -0.316142 0
M  V30 3464 N 331.094 0.475555 1.50254 0
M  V30 3465 C 332.342 -0.077738 2.0195 0
M  V30 3466 C 332.663 -1.39813 1.35931 0
M  V30 3467 O 331.933 -1.89249 0.506123 0
M  V30 3468 H 330.513 -0.031719 0.746326 0
M  V30 3469 H 333.175 0.626995 1.84539 0
M  V30 3470 H 332.271 -0.225995 3.11281 0
M  V30 3471 N 332.573 -1.56217 0.208337 0
M  V30 3472 C 333.801 -2.02337 -0.43215 0
M  V30 3473 C 334.216 -1.08834 -1.54275 0
M  V30 3474 O 333.573 -0.0955462 -1.8225 0
M  V30 3475 C 333.624 -3.48072 -0.976138 0
M  V30 3476 O 333.345 -4.38007 0.0901621 0
M  V30 3477 C 334.846 -4.09773 -1.69119 0
M  V30 3478 H 332.066 -0.662385 -0.10718 0
M  V30 3479 H 334.61 -2.01966 0.320923 0
M  V30 3480 H 332.765 -3.49099 -1.67954 0
M  V30 3481 H 333.179 -5.23543 -0.316701 0
M  V30 3482 H 334.653 -5.13556 -2.02397 0
M  V30 3483 H 335.13 -3.53999 -2.59964 0
M  V30 3484 H 335.736 -4.12556 -1.03332 0
M  V30 3485 N 334.051 0.0651679 -1.57465 0
M  V30 3486 C 335.467 0.420105 -1.53972 0
M  V30 3487 C 335.667 1.78782 -0.929474 0
M  V30 3488 O 334.723 2.46771 -0.534839 0
M  V30 3489 C 336.036 0.355084 -2.98596 0
M  V30 3490 C 337.584 0.434792 -3.09965 0
M  V30 3491 C 338.059 0.399609 -4.56253 0
M  V30 3492 N 339.55 0.459488 -4.60915 0
M  V30 3493 C 340.285 0.454584 -5.71595 0
M  V30 3494 N 339.781 0.404102 -6.9162 0
M  V30 3495 N 341.574 0.501635 -5.59857 0
M  V30 3496 H 333.725 -0.830328 -1.95498 0
M  V30 3497 H 335.988 -0.312244 -0.895102 0
M  V30 3498 H 335.694 -0.583357 -3.46828 0
M  V30 3499 H 335.568 1.16275 -3.58831 0
M  V30 3500 H 337.955 1.36366 -2.61703 0
M  V30 3501 H 338.036 -0.40157 -2.52628 0
M  V30 3502 H 337.68 -0.525436 -5.05175 0
M  V30 3503 H 337.61 1.25359 -5.11461 0
M  V30 3504 H 340.101 0.502482 -3.74544 0
M  V30 3505 H 340.414 0.404468 -7.71741 0
M  V30 3506 H 338.759 0.37069 -6.94011 0
M  V30 3507 H 341.95 0.538812 -4.64989 0
M  V30 3508 H 342.123 0.494345 -6.46112 0
M  V30 3509 N 335.529 1.53961 0.336706 0
M  V30 3510 C 336.477 1.83136 1.43401 0
M  V30 3511 C 337.471 0.702313 1.54156 0
M  V30 3512 O 338.677 0.885765 1.56698 0
M  V30 3513 H 335.052 0.580309 0.478273 0
M  V30 3514 H 337.023 2.74925 1.16012 0
M  V30 3515 C 335.772 2.06385 2.79822 0
M  V30 3516 H 335.095 2.92718 2.72316 0
M  V30 3517 H 336.535 2.30761 3.55704 0
M  V30 3518 C 334.994 0.851414 3.25964 0
M  V30 3519 O 335.524 0.0541904 4.01663 0
M  V30 3520 N 333.73 0.66672 2.82848 0
M  V30 3521 H 333.277 1.31665 2.21409 0
M  V30 3522 H 333.235 -0.143032 3.14074 0
M  V30 3523 N 337.007 -0.598083 1.45811 0
M  V30 3524 C 338.256 -1.35295 1.49594 0
M  V30 3525 C 338.569 -1.95057 0.145679 0
M  V30 3526 O 339.775 -2.71431 0.0612099 0
M  V30 3527 C 338.231 -2.45124 2.63519 0
M  V30 3528 C 337.839 -1.91732 4.04899 0
M  V30 3529 C 339.583 -3.2205 2.76558 0
M  V30 3530 C 337.49 -2.991 5.1019 0
M  V30 3531 H 336.42 -0.508552 0.556679 0
M  V30 3532 H 339.071 -0.639977 1.71978 0
M  V30 3533 H 337.453 -3.19149 2.34435 0
M  V30 3534 H 338.627 -1.24352 4.43704 0
M  V30 3535 H 336.942 -1.27522 3.96393 0
M  V30 3536 H 339.539 -4.0215 3.52391 0
M  V30 3537 H 339.882 -3.73663 1.83526 0
M  V30 3538 H 340.415 -2.55127 3.05213 0
M  V30 3539 H 337.154 -2.52393 6.04961 0
M  V30 3540 H 336.674 -3.65017 4.75944 0
M  V30 3541 H 338.353 -3.63318 5.35359 0
M  V30 3542 N 338.485 -1.33259 -0.841409 0
M  V30 3543 C 339.71 -1.2775 -1.63385 0
M  V30 3544 C 340.135 0.149188 -1.87507 0
M  V30 3545 O 339.493 1.10498 -1.43736 0
M  V30 3546 C 339.541 -2.05571 -2.96265 0
M  V30 3547 O 338.645 -1.41257 -3.87453 0
M  V30 3548 H 337.986 -0.439627 -0.497618 0
M  V30 3549 H 340.516 -1.75782 -1.04699 0
M  V30 3550 H 340.526 -2.16241 -3.45982 0
M  V30 3551 H 339.201 -3.09309 -2.7803 0
M  V30 3552 H 337.778 -1.39217 -3.45938 0
M  V30 3553 N 339.963 1.05934 -1.16686 0
M  V30 3554 C 341.211 1.78447 -0.948744 0
M  V30 3555 C 341.532 1.87813 0.524523 0
M  V30 3556 O 340.802 1.38945 1.38098 0
M  V30 3557 H 339.382 0.660971 -0.348033 0
M  V30 3558 H 342.044 1.27947 -1.47022 0
M  V30 3559 H 341.14 2.80394 -1.37061 0
M  V30 3560 N 341.441 0.965919 1.2453 0
M  V30 3561 C 342.669 0.644385 1.96609 0
M  V30 3562 C 343.084 -0.785823 1.71669 0
M  V30 3563 O 342.441 -1.52703 0.999399 0
M  V30 3564 C 342.492 0.907375 3.49927 0
M  V30 3565 O 342.213 2.28136 3.74013 0
M  V30 3566 C 343.714 0.599784 4.39224 0
M  V30 3567 H 340.934 0.240588 0.626385 0
M  V30 3568 H 343.478 1.29337 1.58405 0
M  V30 3569 H 341.633 0.304631 3.862 0
M  V30 3570 H 342.047 2.36002 4.68405 0
M  V30 3571 H 343.521 0.834263 5.45659 0
M  V30 3572 H 343.998 -0.465921 4.36722 0
M  V30 3573 H 344.604 1.18235 4.08535 0
M  V30 3574 N 342.919 -1.39368 0.735821 0
M  V30 3575 C 344.144 -2.05319 0.293052 0
M  V30 3576 C 344.569 -1.55115 -1.064 0
M  V30 3577 O 343.927 -0.695261 -1.67439 0
M  V30 3578 C 343.975 -3.59305 0.305323 0
M  V30 3579 O 343.079 -4.06299 -0.706761 0
M  V30 3580 H 342.42 -0.650529 0.13307 0
M  V30 3581 H 344.95 -1.78386 1.00197 0
M  V30 3582 H 344.96 -4.07724 0.149997 0
M  V30 3583 H 343.635 -3.95207 1.29553 0
M  V30 3584 H 342.212 -3.69292 -0.517504 0
M  V30 3585 N 344.397 -0.483516 -1.5 0
M  V30 3586 C 345.344 0.304164 -2.28787 0
M  V30 3587 C 346.314 0.976114 -1.34392 0
M  V30 3588 O 347.499 0.986156 -1.63339 0
M  V30 3589 C 344.639 1.37298 -3.16612 0
M  V30 3590 C 343.752 0.714561 -4.26049 0
M  V30 3591 C 342.887 1.76232 -5.01114 0
M  V30 3592 C 341.926 1.08483 -6.0241 0
M  V30 3593 N 341.063 2.076 -6.70706 0
M  V30 3594 H 345.903 -0.373981 -2.95644 0
M  V30 3595 H 343.44 -0.196275 -1.45785 0
M  V30 3596 H 345.398 2.00445 -3.65893 0
M  V30 3597 H 344.028 2.02012 -2.51776 0
M  V30 3598 H 343.08 -0.0297798 -3.80388 0
M  V30 3599 H 344.392 0.180383 -4.98474 0
M  V30 3600 H 343.546 2.46929 -5.54176 0
M  V30 3601 H 342.285 2.33033 -4.28424 0
M  V30 3602 H 341.29 0.363545 -5.48597 0
M  V30 3603 H 342.515 0.523551 -6.77079 0
M  V30 3604 H 340.461 2.63394 -6.00799 0
M  V30 3605 H 340.378 1.59201 -7.39047 0
M  V30 3606 H 341.646 2.77639 -7.2838 0
M  V30 3607 N 345.875 1.56104 -0.216619 0
M  V30 3608 C 347.122 1.98172 0.416416 0
M  V30 3609 C 347.45 1.10413 1.60122 0
M  V30 3610 O 346.705 0.147967 1.9514 0
M  V30 3611 C 347.004 3.45923 0.898464 0
M  V30 3612 C 346.67 4.50559 -0.175288 0
M  V30 3613 C 345.332 4.78897 -0.470271 0
M  V30 3614 C 347.684 5.1334 -0.901728 0
M  V30 3615 C 345.012 5.67299 -1.4963 0
M  V30 3616 C 347.364 6.02853 -1.91705 0
M  V30 3617 C 346.028 6.29537 -2.21901 0
M  V30 3618 H 345.298 0.725164 0.152377 0
M  V30 3619 H 347.945 1.88839 -0.318103 0
M  V30 3620 H 346.25 3.52434 1.71165 0
M  V30 3621 H 347.947 3.75841 1.39803 0
M  V30 3622 H 344.537 4.28551 0.0647806 0
M  V30 3623 H 348.721 4.91521 -0.687072 0
M  V30 3624 H 343.977 5.86239 -1.73592 0
M  V30 3625 H 348.151 6.50552 -2.48505 0
M  V30 3626 H 345.778 6.97835 -3.01548 0
M  V30 3627 N 347.353 -0.0568162 1.57498 0
M  V30 3628 C 348.303 -1.07315 2.01166 0
M  V30 3629 C 349.287 -1.33632 0.896171 0
M  V30 3630 O 350.479 -1.33682 1.16009 0
M  V30 3631 C 347.608 -2.38257 2.47161 0
M  V30 3632 C 346.694 -2.1515 3.65474 0
M  V30 3633 N 347.085 -1.62014 4.7915 0
M  V30 3634 C 345.383 -2.45559 3.72313 0
M  V30 3635 C 346.084 -1.54069 5.60926 0
M  V30 3636 N 345.06 -2.00652 5.05213 0
M  V30 3637 H 348.862 -0.655878 2.86488 0
M  V30 3638 H 346.376 -0.263635 1.60246 0
M  V30 3639 H 348.373 -3.11845 2.76691 0
M  V30 3640 H 347.033 -2.80687 1.63232 0
M  V30 3641 H 348.044 -1.30667 5.01145 0
M  V30 3642 H 344.721 -2.91253 2.99129 0
M  V30 3643 H 346.111 -1.13712 6.62208 0
M  V30 3644 N 348.832 -1.54138 -0.328536 0
M  V30 3645 C 350.078 -1.7236 -1.06865 0
M  V30 3646 C 350.411 -0.493231 -1.87832 0
M  V30 3647 O 349.686 0.5098 -1.877 0
M  V30 3648 C 349.969 -2.99621 -1.99747 0
M  V30 3649 C 349.822 -4.32899 -1.22143 0
M  V30 3650 C 351.141 -3.22615 -2.99345 0
M  V30 3651 H 348.26 -0.627151 -0.387105 0
M  V30 3652 H 350.902 -1.86827 -0.345767 0
M  V30 3653 H 349.052 -2.87418 -2.61387 0
M  V30 3654 H 350.724 -4.56978 -0.630017 0
M  V30 3655 H 348.967 -4.30628 -0.523628 0
M  V30 3656 H 349.638 -5.18154 -1.90318 0
M  V30 3657 H 352.114 -3.34248 -2.47826 0
M  V30 3658 H 350.99 -4.13027 -3.61524 0
M  V30 3659 H 351.251 -2.3961 -3.71536 0
M  V30 3660 N 350.31 0.590341 -1.46126 0
M  V30 3661 C 351.22 1.72793 -1.58681 0
M  V30 3662 C 352.236 1.67516 -0.470566 0
M  V30 3663 O 353.412 1.87562 -0.733642 0
M  V30 3664 C 350.477 3.09287 -1.5666 0
M  V30 3665 C 349.538 3.25886 -2.79458 0
M  V30 3666 C 348.771 4.55869 -2.77524 0
M  V30 3667 O 348.994 5.3928 -1.85832 0
M  V30 3668 O 347.928 4.75552 -3.68964 0
M  V30 3669 H 351.754 1.65149 -2.54872 0
M  V30 3670 H 349.339 0.756486 -1.28832 0
M  V30 3671 H 351.221 3.90577 -1.58202 0
M  V30 3672 H 349.896 3.17385 -0.636271 0
M  V30 3673 H 348.803 2.44119 -2.83472 0
M  V30 3674 H 350.136 3.22675 -3.71674 0
M  V30 3675 N 351.788 1.33704 0.83433 0
M  V30 3676 C 352.718 1.26967 1.95963 0
M  V30 3677 C 353.699 0.149337 1.69443 0
M  V30 3678 O 354.884 0.339852 1.91203 0
M  V30 3679 C 352.014 1.01275 3.32206 0
M  V30 3680 C 350.968 2.09652 3.73136 0
M  V30 3681 C 350.294 1.69166 5.07235 0
M  V30 3682 C 351.594 3.51372 3.86439 0
M  V30 3683 H 353.288 2.2112 2.01857 0
M  V30 3684 H 350.834 1.06447 0.969793 0
M  V30 3685 H 352.787 0.952106 4.10503 0
M  V30 3686 H 351.511 0.0356203 3.26581 0
M  V30 3687 H 350.17 2.14766 2.97104 0
M  V30 3688 H 349.818 0.701437 4.98085 0
M  V30 3689 H 349.518 2.41694 5.35591 0
M  V30 3690 H 351.042 1.64576 5.88003 0
M  V30 3691 H 352.456 3.48734 4.55036 0
M  V30 3692 H 350.853 4.22425 4.26236 0
M  V30 3693 H 351.923 3.89546 2.88759 0
M  V30 3694 N 353.266 -1.05314 1.17247 0
M  V30 3695 C 354.176 -2.16538 0.90268 0
M  V30 3696 C 355.192 -1.73523 -0.128707 0
M  V30 3697 O 356.368 -2.01337 0.0502701 0
M  V30 3698 C 353.433 -3.44167 0.418356 0
M  V30 3699 C 352.494 -4.01635 1.51618 0
M  V30 3700 C 351.727 -5.23171 1.05487 0
M  V30 3701 O 351.95 -5.70327 -0.0914715 0
M  V30 3702 O 350.884 -5.72848 1.8474 0
M  V30 3703 H 354.71 -2.42145 1.83302 0
M  V30 3704 H 352.295 -1.15037 0.953246 0
M  V30 3705 H 354.177 -4.21112 0.155726 0
M  V30 3706 H 352.852 -3.20063 -0.48385 0
M  V30 3707 H 351.759 -3.26135 1.83268 0
M  V30 3708 H 353.092 -4.30053 2.39405 0
M  V30 3709 N 354.744 -0.972509 -1.24016 0
M  V30 3710 C 355.676 -0.464375 -2.24446 0
M  V30 3711 C 356.689 0.4295 -1.57032 0
M  V30 3712 O 357.878 0.234902 -1.76948 0
M  V30 3713 C 354.978 0.348385 -3.37105 0
M  V30 3714 C 354.151 -0.53673 -4.34094 0
M  V30 3715 C 353.21 0.220838 -5.25736 0
M  V30 3716 O 352.236 -0.386867 -5.67884 0
M  V30 3717 N 353.438 1.50907 -5.60542 0
M  V30 3718 H 356.203 -1.32788 -2.68677 0
M  V30 3719 H 353.764 -0.844877 -1.38107 0
M  V30 3720 H 355.756 0.863341 -3.95384 0
M  V30 3721 H 354.326 1.11285 -2.92121 0
M  V30 3722 H 353.546 -1.23261 -3.74433 0
M  V30 3723 H 354.834 -1.14022 -4.95859 0
M  V30 3724 H 354.232 2.02444 -5.28236 0
M  V30 3725 H 352.789 1.96962 -6.21329 0
M  V30 3726 N 356.222 1.38976 -0.743202 0
M  V30 3727 C 357.132 2.3434 -0.110399 0
M  V30 3728 C 358.148 1.58741 0.712559 0
M  V30 3729 O 359.324 1.9099 0.639125 0
M  V30 3730 C 356.389 3.37812 0.780012 0
M  V30 3731 C 355.45 4.29263 -0.0561319 0
M  V30 3732 C 354.683 5.27793 0.791875 0
M  V30 3733 O 354.906 5.33043 2.03031 0
M  V30 3734 O 353.84 6.01512 0.216183 0
M  V30 3735 H 357.666 2.90129 -0.897714 0
M  V30 3736 H 355.251 1.40643 -0.503966 0
M  V30 3737 H 357.133 4.01194 1.28923 0
M  V30 3738 H 355.808 2.84395 1.546 0
M  V30 3739 H 354.715 3.69076 -0.611056 0
M  V30 3740 H 356.048 4.85907 -0.784531 0
M  V30 3741 N 357.7 0.491464 1.49741 0
M  V30 3742 C 358.63 -0.28154 2.31796 0
M  V30 3743 C 359.611 -0.971473 1.3963 0
M  V30 3744 O 360.796 -0.964719 1.68543 0
M  V30 3745 C 357.926 -1.35203 3.19902 0
M  V30 3746 C 356.88 -0.782529 4.20786 0
M  V30 3747 C 356.206 -1.95283 4.97764 0
M  V30 3748 C 357.506 0.21999 5.21837 0
M  V30 3749 H 359.2 0.403355 2.96671 0
M  V30 3750 H 356.746 0.195425 1.42668 0
M  V30 3751 H 358.699 -1.90045 3.76113 0
M  V30 3752 H 357.423 -2.06598 2.52953 0
M  V30 3753 H 356.082 -0.255928 3.65706 0
M  V30 3754 H 355.73 -2.65423 4.2727 0
M  V30 3755 H 355.43 -1.57789 5.66018 0
M  V30 3756 H 356.954 -2.50577 5.56816 0
M  V30 3757 H 358.368 -0.23996 5.72798 0
M  V30 3758 H 356.765 0.51026 5.97927 0
M  V30 3759 H 357.835 1.13911 4.7133 0
M  V30 3760 N 359.178 -1.55987 0.224894 0
M  V30 3761 C 360.141 -2.19178 -0.670348 0
M  V30 3762 C 361.141 -1.15461 -1.11917 0
M  V30 3763 O 362.331 -1.40675 -1.02743 0
M  V30 3764 C 359.463 -2.81777 -1.9187 0
M  V30 3765 H 360.656 -2.99662 -0.119364 0
M  V30 3766 H 358.209 -1.5628 -0.0247128 0
M  V30 3767 H 358.944 -2.05172 -2.51147 0
M  V30 3768 H 358.729 -3.57732 -1.60531 0
M  V30 3769 H 360.219 -3.30205 -2.55645 0
M  V30 3770 N 360.656 0.0484629 -1.57525 0
M  V30 3771 C 361.566 1.07241 -2.08654 0
M  V30 3772 C 362.582 1.409 -1.02095 0
M  V30 3773 O 363.758 1.50609 -1.33712 0
M  V30 3774 C 360.823 2.36008 -2.5397 0
M  V30 3775 C 359.884 2.09108 -3.7493 0
M  V30 3776 C 359.117 3.31736 -4.18075 0
M  V30 3777 O 359.34 4.41714 -3.60895 0
M  V30 3778 O 358.274 3.18576 -5.10679 0
M  V30 3779 H 362.1 0.667965 -2.96263 0
M  V30 3780 H 359.685 0.26417 -1.47046 0
M  V30 3781 H 361.567 3.11747 -2.83535 0
M  V30 3782 H 360.242 2.75786 -1.69481 0
M  V30 3783 H 359.149 1.31 -3.50414 0
M  V30 3784 H 360.482 1.74198 -4.60343 0
M  V30 3785 N 362.134 1.5431 0.320358 0
M  V30 3786 C 363.064 1.86912 1.3995 0
M  V30 3787 C 364.045 0.726211 1.53819 0
M  V30 3788 O 365.23 0.980233 1.67646 0
M  V30 3789 C 362.36 2.09932 2.7667 0
M  V30 3790 C 361.314 3.25776 2.77586 0
M  V30 3791 C 360.64 3.34173 4.17412 0
M  V30 3792 C 361.94 4.6335 2.41048 0
M  V30 3793 H 363.634 2.77292 1.12914 0
M  V30 3794 H 361.18 1.33421 0.541738 0
M  V30 3795 H 363.133 2.31324 3.52232 0
M  V30 3796 H 361.857 1.16304 3.0519 0
M  V30 3797 H 360.516 3.04276 2.04479 0
M  V30 3798 H 360.164 2.38098 4.43078 0
M  V30 3799 H 359.864 4.12033 4.18931 0
M  V30 3800 H 361.388 3.57803 4.94782 0
M  V30 3801 H 362.802 4.84602 3.06324 0
M  V30 3802 H 361.199 5.43782 2.53813 0
M  V30 3803 H 362.269 4.65381 1.36193 0
M  V30 3804 N 363.613 -0.582584 1.46437 0
M  V30 3805 C 364.563 -1.68654 1.53426 0
M  V30 3806 C 365.547 -1.55971 0.395194 0
M  V30 3807 O 366.739 -1.64884 0.643612 0
M  V30 3808 C 363.868 -3.07439 1.52762 0
M  V30 3809 C 362.954 -3.25418 2.71963 0
M  V30 3810 N 363.345 -3.13556 3.96883 0
M  V30 3811 C 361.643 -3.56357 2.68189 0
M  V30 3812 C 362.344 -3.33543 4.76575 0
M  V30 3813 N 361.32 -3.58704 4.08451 0
M  V30 3814 H 365.122 -1.58014 2.47808 0
M  V30 3815 H 362.636 -0.786617 1.42078 0
M  V30 3816 H 364.633 -3.86671 1.55857 0
M  V30 3817 H 363.293 -3.1921 0.594573 0
M  V30 3818 H 364.304 -2.9142 4.28129 0
M  V30 3819 H 360.981 -3.74812 1.83908 0
M  V30 3820 H 362.371 -3.29555 5.85528 0
M  V30 3821 N 365.091 -1.34144 -0.827227 0
M  V30 3822 C 366.023 -1.21206 -1.9453 0
M  V30 3823 C 367.036 -0.140176 -1.62195 0
M  V30 3824 O 368.225 -0.391647 -1.7415 0
M  V30 3825 C 365.325 -0.839141 -3.28347 0
M  V30 3826 C 364.498 -2.0051 -3.88734 0
M  V30 3827 C 363.557 -1.61128 -5.00923 0
M  V30 3828 O 362.583 -2.32726 -5.19449 0
M  V30 3829 N 363.785 -0.522958 -5.7814 0
M  V30 3830 H 366.55 -2.17525 -2.06162 0
M  V30 3831 H 364.111 -1.27043 -1.00358 0
M  V30 3832 H 366.103 -0.557556 -4.00841 0
M  V30 3833 H 364.673 0.0337293 -3.12582 0
M  V30 3834 H 363.893 -2.45166 -3.08686 0
M  V30 3835 H 365.181 -2.78498 -4.25812 0
M  V30 3836 H 364.579 0.0723518 -5.65654 0
M  V30 3837 H 363.136 -0.301089 -6.51104 0
M  V30 3838 N 366.569 1.04691 -1.17803 0
M  V30 3839 C 367.516 2.12557 -0.899343 0
M  V30 3840 C 368.486 1.65339 0.158771 0
M  V30 3841 O 369.671 1.90789 0.0204797 0
M  V30 3842 C 366.811 3.42481 -0.424315 0
M  V30 3843 C 365.924 4.03346 -1.54713 0
M  V30 3844 C 365.059 5.21208 -1.02546 0
M  V30 3845 C 364.098 5.74089 -2.12339 0
M  V30 3846 N 363.235 6.83247 -1.61612 0
M  V30 3847 H 368.075 2.35734 -1.823 0
M  V30 3848 H 365.612 1.1564 -0.909159 0
M  V30 3849 H 367.57 4.16996 -0.130421 0
M  V30 3850 H 366.2 3.19471 0.462377 0
M  V30 3851 H 365.252 3.2622 -1.95664 0
M  V30 3852 H 366.564 4.38628 -2.37501 0
M  V30 3853 H 365.718 6.02812 -0.685718 0
M  V30 3854 H 364.457 4.87414 -0.167084 0
M  V30 3855 H 363.462 4.91111 -2.47165 0
M  V30 3856 H 364.687 6.0993 -2.98601 0
M  V30 3857 H 362.633 6.5134 -0.780533 0
M  V30 3858 H 362.55 7.17559 -2.38003 0
M  V30 3859 H 363.818 7.68491 -1.30545 0
M  V30 3860 N 368.047 0.979072 1.23499 0
M  V30 3861 C 369.324 0.563674 1.87302 0
M  V30 3862 C 369.704 -0.959199 1.88049 0
M  V30 3863 O 369.052 -1.83535 1.36114 0
M  V30 3864 C 369.262 1.16822 3.28867 0
M  V30 3865 C 370.61 1.26014 4.0547 0
M  V30 3866 O 371.634 1.12158 3.38082 0
M  V30 3867 O 370.493 1.48044 5.26066 0
M  V30 3868 H 367.587 0.189602 0.804972 0
M  V30 3869 H 370.133 1.07407 1.31384 0
M  V30 3870 H 368.905 2.21049 3.22883 0
M  V30 3871 H 368.528 0.642564 3.92373 0
M  V30 3872 N 369.525 -1.3858 0.750561 0
M  V30 3873 C 370.75 -2.04997 0.314812 0
M  V30 3874 C 371.175 -1.56235 -1.04749 0
M  V30 3875 O 370.533 -0.712981 -1.66692 0
M  V30 3876 C 370.581 -3.58961 0.343415 0
M  V30 3877 O 369.685 -4.07025 -0.663628 0
M  V30 3878 H 369.026 -0.649081 0.139962 0
M  V30 3879 H 371.556 -1.77313 1.02084 0
M  V30 3880 H 371.566 -4.07542 0.193233 0
M  V30 3881 H 370.241 -3.93811 1.33738 0
M  V30 3882 H 368.818 -3.6982 -0.478307 0
M  V30 3883 N 371.003 -0.499398 -1.49478 0
M  V30 3884 C 371.966 0.268838 -2.27618 0
M  V30 3885 C 372.966 0.895383 -1.33565 0
M  V30 3886 O 374.156 0.760164 -1.56739 0
M  V30 3887 C 371.288 1.38559 -3.11471 0
M  V30 3888 H 372.481 -0.416812 -2.96989 0
M  V30 3889 H 370.034 -0.254313 -1.54217 0
M  V30 3890 H 370.769 2.10544 -2.46661 0
M  V30 3891 H 370.554 0.941797 -3.80621 0
M  V30 3892 H 372.044 1.92678 -3.70493 0
M  V30 3893 N 372.481 1.55866 -0.233164 0
M  V30 3894 C 373.411 2.23783 0.666599 0
M  V30 3895 C 374.392 1.21343 1.19205 0
M  V30 3896 O 375.577 1.4996 1.23392 0
M  V30 3897 C 372.707 2.92671 1.86978 0
M  V30 3898 C 371.661 4.01682 1.47768 0
M  V30 3899 C 370.987 4.57926 2.76058 0
M  V30 3900 C 372.287 5.18126 0.658993 0
M  V30 3901 H 373.981 2.99232 0.100306 0
M  V30 3902 H 371.527 1.43924 0.046804 0
M  V30 3903 H 373.48 3.3888 2.50476 0
M  V30 3904 H 372.204 2.14688 2.46123 0
M  V30 3905 H 370.863 3.56222 0.866106 0
M  V30 3906 H 370.511 3.76659 3.33372 0
M  V30 3907 H 370.211 5.31505 2.50552 0
M  V30 3908 H 371.735 5.06859 3.40479 0
M  V30 3909 H 373.149 5.60644 1.19795 0
M  V30 3910 H 371.546 5.98009 0.500552 0
M  V30 3911 H 372.616 4.83763 -0.331856 0
M  V30 3912 N 373.959 -0.0401083 1.57549 0
M  V30 3913 C 374.889 -1.04384 2.08869 0
M  V30 3914 C 375.87 -1.38407 0.988817 0
M  V30 3915 O 377.055 -1.47483 1.26342 0
M  V30 3916 C 374.185 -2.34808 2.55895 0
M  V30 3917 C 373.139 -2.15057 3.70047 0
M  V30 3918 C 372.465 -3.51145 4.03239 0
M  V30 3919 C 373.765 -1.54576 4.98902 0
M  V30 3920 H 375.459 -0.616666 2.92981 0
M  V30 3921 H 373.005 -0.295184 1.40942 0
M  V30 3922 H 374.958 -3.05346 2.90417 0
M  V30 3923 H 373.682 -2.79565 1.68853 0
M  V30 3924 H 372.341 -1.46954 3.35857 0
M  V30 3925 H 371.989 -3.93529 3.13279 0
M  V30 3926 H 371.689 -3.38758 4.80122 0
M  V30 3927 H 373.213 -4.23062 4.40285 0
M  V30 3928 H 374.627 -2.15017 5.31451 0
M  V30 3929 H 373.024 -1.52796 5.80322 0
M  V30 3930 H 374.094 -0.51039 4.82206 0
M  V30 3931 N 375.437 -1.54477 -0.31217 0
M  V30 3932 C 376.684 -1.73227 -1.04875 0
M  V30 3933 C 377.012 -0.512042 -1.87639 0
M  V30 3934 O 376.267 0.506131 -1.89042 0
M  V30 3935 C 376.566 -2.967 -1.99258 0
M  V30 3936 C 376.232 -4.30974 -1.32559 0
M  V30 3937 C 374.894 -4.67477 -1.141 0
M  V30 3938 C 377.246 -5.14258 -0.847835 0
M  V30 3939 C 374.574 -5.84852 -0.465326 0
M  V30 3940 C 376.926 -6.32327 -0.185931 0
M  V30 3941 C 375.59 -6.67499 0.0107077 0
M  V30 3942 H 374.86 -0.633881 -0.383765 0
M  V30 3943 H 377.507 -1.88727 -0.324731 0
M  V30 3944 H 375.812 -2.75935 -2.7815 0
M  V30 3945 H 377.509 -3.08401 -2.563 0
M  V30 3946 H 374.099 -4.02262 -1.4793 0
M  V30 3947 H 378.283 -4.86565 -0.978192 0
M  V30 3948 H 373.539 -6.10654 -0.301883 0
M  V30 3949 H 377.713 -6.96135 0.192211 0
M  V30 3950 H 375.34 -7.58306 0.536287 0
M  V30 3951 N 376.915 0.57481 -1.46744 0
M  V30 3952 C 378.14 1.36341 -1.56288 0
M  V30 3953 C 378.565 1.86954 -0.207347 0
M  V30 3954 O 377.923 1.62006 0.813871 0
M  V30 3955 C 377.971 2.52147 -2.57787 0
M  V30 3956 O 377.075 3.53834 -2.11838 0
M  V30 3957 H 376.416 0.405713 -0.525636 0
M  V30 3958 H 378.946 0.696453 -1.92382 0
M  V30 3959 H 378.956 2.98958 -2.77648 0
M  V30 3960 H 377.631 2.14663 -3.5622 0
M  V30 3961 H 376.208 3.1345 -2.01999 0
M  V30 3962 N 378.394 1.34581 0.820102 0
M  V30 3963 C 379.619 1.30333 1.61332 0
M  V30 3964 C 380.044 -0.119339 1.87721 0
M  V30 3965 O 379.402 -1.08197 1.45475 0
M  V30 3966 C 379.45 2.10258 2.92957 0
M  V30 3967 O 378.554 1.47404 3.85157 0
M  V30 3968 H 377.895 0.447488 0.490561 0
M  V30 3969 H 380.425 1.77425 1.01889 0
M  V30 3970 H 380.435 2.21718 3.42498 0
M  V30 3971 H 379.11 3.13693 2.73074 0
M  V30 3972 H 377.687 1.44703 3.43679 0
M  V30 3973 N 379.872 -1.04064 1.18357 0
M  V30 3974 C 381.112 -1.78829 0.989921 0
M  V30 3975 C 381.476 -1.86106 -0.472095 0
M  V30 3976 O 382.677 -2.57076 -0.785187 0
M  V30 3977 C 380.948 -3.1823 1.6268 0
M  V30 3978 S 382.507 -4.09332 1.58091 0
M  V30 3979 H 379.325 -0.615754 0.355482 0
M  V30 3980 H 381.927 -1.24778 1.50501 0
M  V30 3981 H 380.631 -3.10543 2.68311 0
M  V30 3982 H 380.162 -3.77357 1.112 0
M  V30 3983 H 382.177 -4.92598 0.596817 0
M  V30 3984 N 381.35 -0.985608 -1.22978 0
M  V30 3985 C 382.597 -0.657386 -1.91532 0
M  V30 3986 C 382.925 0.809707 -1.76845 0
M  V30 3987 O 382.18 1.60021 -1.12658 0
M  V30 3988 C 382.479 -1.00014 -3.43121 0
M  V30 3989 C 382.145 -2.4583 -3.77993 0
M  V30 3990 C 380.807 -2.85679 -3.87222 0
M  V30 3991 C 383.159 -3.40378 -3.94705 0
M  V30 3992 C 380.487 -4.19081 -4.10595 0
M  V30 3993 C 382.839 -4.73429 -4.1958 0
M  V30 3994 C 381.503 -5.1303 -4.27032 0
M  V30 3995 H 380.773 -0.240555 -0.700867 0
M  V30 3996 H 383.42 -1.24044 -1.45895 0
M  V30 3997 H 381.725 -0.335072 -3.90365 0
M  V30 3998 H 383.422 -0.724322 -3.94404 0
M  V30 3999 H 380.012 -2.13939 -3.71387 0
M  V30 4000 H 384.196 -3.10766 -3.8696 0
M  V30 4001 H 379.452 -4.49362 -4.14589 0
M  V30 4002 H 383.626 -5.46644 -4.31455 0
M  V30 4003 H 381.253 -6.16418 -4.44896 0
M  V30 4004 N 382.828 1.3818 -0.7579 0
M  V30 4005 C 384.074 2.00316 -0.316453 0
M  V30 4006 C 384.407 1.60026 1.10025 0
M  V30 4007 O 383.682 0.839835 1.75434 0
M  V30 4008 C 383.965 3.57349 -0.444245 0
M  V30 4009 C 383.818 4.07591 -1.90236 0
M  V30 4010 C 385.137 4.3981 0.1598 0
M  V30 4011 H 382.256 0.727741 -0.116459 0
M  V30 4012 H 384.898 1.6406 -0.958352 0
M  V30 4013 H 383.048 3.88365 0.102233 0
M  V30 4014 H 384.72 3.87199 -2.50748 0
M  V30 4015 H 382.963 3.60297 -2.41595 0
M  V30 4016 H 383.634 5.16677 -1.94291 0
M  V30 4017 H 386.11 4.14971 -0.306314 0
M  V30 4018 H 384.986 5.48885 0.0401675 0
M  V30 4019 H 385.247 4.24102 1.24859 0
M  V30 4020 N 384.306 0.507319 1.49211 0
M  V30 4021 C 385.269 -0.256763 2.27757 0
M  V30 4022 C 386.269 -0.888287 1.34038 0
M  V30 4023 O 387.459 -0.751841 1.5714 0
M  V30 4024 C 384.591 -1.36905 3.12202 0
M  V30 4025 H 385.784 0.432557 2.96764 0
M  V30 4026 H 383.337 0.262488 1.5408 0
M  V30 4027 H 384.072 -2.09233 2.47775 0
M  V30 4028 H 383.857 -0.921599 3.81115 0
M  V30 4029 H 385.347 -1.9071 3.7151 0
M  V30 4030 N 385.784 -1.5574 0.241426 0
M  V30 4031 C 386.732 -2.22538 -0.676718 0
M  V30 4032 C 387.726 -1.21117 -1.18436 0
M  V30 4033 O 388.932 -1.39144 -1.14188 0
M  V30 4034 H 385.307 -0.713776 -0.236701 0
M  V30 4035 H 387.278 -2.98264 -0.0901187 0
M  V30 4036 C 386.027 -2.93439 -1.86518 0
M  V30 4037 H 385.35 -3.7125 -1.4837 0
M  V30 4038 H 386.79 -3.43549 -2.48495 0
M  V30 4039 C 385.249 -1.97008 -2.73294 0
M  V30 4040 O 385.779 -1.49965 -3.72657 0
M  V30 4041 N 383.985 -1.64227 -2.39745 0
M  V30 4042 H 383.532 -2.02677 -1.58996 0
M  V30 4043 H 383.49 -0.999708 -2.98083 0
M  V30 4044 N 387.262 0.0317525 -1.57568 0
M  V30 4045 C 388.539 0.758366 -1.803 0
M  V30 4046 C 388.919 1.93718 -0.838845 0
M  V30 4047 O 388.267 2.28187 0.119571 0
M  V30 4048 C 388.477 1.19392 -3.27943 0
M  V30 4049 C 389.825 1.61094 -3.92854 0
M  V30 4050 O 390.849 1.28857 -3.32076 0
M  V30 4051 O 389.708 2.20918 -4.99858 0
M  V30 4052 H 386.802 0.366514 -0.741348 0
M  V30 4053 H 389.348 0.00873765 -1.69698 0
M  V30 4054 H 388.12 0.352275 -3.89711 0
M  V30 4055 H 387.743 2.00365 -3.43424 0
M  V30 4056 N 388.74 1.54641 0.303973 0
M  V30 4057 C 389.965 1.78092 1.06292 0
M  V30 4058 C 390.39 0.537342 1.80262 0
M  V30 4059 O 389.748 -0.511993 1.7392 0
M  V30 4060 C 389.796 2.98612 2.02147 0
M  V30 4061 O 388.9 2.71528 3.10397 0
M  V30 4062 H 388.241 0.589548 0.305497 0
M  V30 4063 H 390.771 2.01716 0.3423 0
M  V30 4064 H 390.781 3.265 2.44667 0
M  V30 4065 H 389.456 3.88785 1.47714 0
M  V30 4066 H 388.033 2.54648 2.72413 0
M  V30 4067 N 390.218 -0.567019 1.47046 0
M  V30 4068 C 391.446 -1.35027 1.56765 0
M  V30 4069 C 391.861 -1.8758 0.214316 0
M  V30 4070 O 391.218 -1.64471 -0.790919 0
M  V30 4071 C 391.269 -2.52698 2.58507 0
M  V30 4072 O 390.99 -2.0232 3.88585 0
M  V30 4073 C 392.491 -3.45043 2.78316 0
M  V30 4074 H 389.711 -0.41195 0.529658 0
M  V30 4075 H 392.255 -0.687832 1.92585 0
M  V30 4076 H 390.41 -3.149 2.25648 0
M  V30 4077 H 390.824 -2.79068 4.44096 0
M  V30 4078 H 392.298 -4.2405 3.53391 0
M  V30 4079 H 392.775 -3.97971 1.85784 0
M  V30 4080 H 393.381 -2.88665 3.12334 0
M  V30 4081 N 391.696 -1.35014 -0.812953 0
M  V30 4082 C 392.626 -1.30069 -1.93919 0
M  V30 4083 C 393.607 -0.176275 -1.69184 0
M  V30 4084 O 394.792 -0.370227 -1.90638 0
M  V30 4085 C 391.922 -1.06547 -3.30552 0
M  V30 4086 C 390.876 -2.15561 -3.69753 0
M  V30 4087 C 390.202 -1.77214 -5.04479 0
M  V30 4088 C 391.502 -3.57476 -3.808 0
M  V30 4089 H 393.196 -2.24303 -1.98314 0
M  V30 4090 H 390.742 -1.07977 -0.952736 0
M  V30 4091 H 392.695 -1.01729 -4.08937 0
M  V30 4092 H 391.419 -0.0875719 -3.26483 0
M  V30 4093 H 390.078 -2.19466 -2.9365 0
M  V30 4094 H 389.726 -0.780589 -4.96906 0
M  V30 4095 H 389.426 -2.50184 -5.31678 0
M  V30 4096 H 390.95 -1.7391 -5.8531 0
M  V30 4097 H 392.364 -3.55929 -4.4943 0
M  V30 4098 H 390.761 -4.29152 -4.19462 0
M  V30 4099 H 391.831 -3.94091 -2.82525 0
M  V30 4100 N 393.175 1.03435 -1.18907 0
M  V30 4101 C 394.422 1.76743 -0.988334 0
M  V30 4102 C 394.75 1.88447 0.481441 0
M  V30 4103 O 394.005 1.39383 1.37371 0
M  V30 4104 C 394.304 3.19792 -1.59586 0
M  V30 4105 C 393.97 3.28108 -3.09283 0
M  V30 4106 C 392.632 3.30084 -3.5014 0
M  V30 4107 C 394.984 3.27696 -4.05296 0
M  V30 4108 C 392.312 3.29299 -4.85571 0
M  V30 4109 C 394.664 3.28451 -5.4065 0
M  V30 4110 C 393.328 3.28723 -5.80946 0
M  V30 4111 H 392.598 0.64675 -0.361657 0
M  V30 4112 H 395.245 1.21442 -1.48068 0
M  V30 4113 H 393.55 3.78136 -1.02568 0
M  V30 4114 H 395.247 3.75171 -1.41589 0
M  V30 4115 H 391.837 3.27294 -2.76725 0
M  V30 4116 H 396.021 3.25354 -3.74778 0
M  V30 4117 H 391.277 3.2783 -5.16079 0
M  V30 4118 H 395.451 3.27082 -6.14809 0
M  V30 4119 H 393.078 3.27868 -6.85862 0
M  V30 4120 N 394.653 0.992116 1.22453 0
M  V30 4121 C 395.881 0.685944 1.95198 0
M  V30 4122 C 396.296 -0.749233 1.73297 0
M  V30 4123 O 395.653 -1.50549 1.03156 0
M  V30 4124 C 395.704 0.981395 3.47924 0
M  V30 4125 O 395.425 2.36018 3.6909 0
M  V30 4126 C 396.926 0.692815 4.37853 0
M  V30 4127 H 394.146 0.253821 0.621141 0
M  V30 4128 H 396.69 1.32668 1.55626 0
M  V30 4129 H 394.845 0.386481 3.85467 0
M  V30 4130 H 395.259 2.45884 4.63294 0
M  V30 4131 H 396.733 0.949818 5.43767 0
M  V30 4132 H 397.21 -0.373181 4.37612 0
M  V30 4133 H 397.816 1.26874 4.05935 0
M  V30 4134 N 396.131 -1.37776 0.765217 0
M  V30 4135 C 397.061 -2.32945 0.160953 0
M  V30 4136 C 398.042 -1.55454 -0.690516 0
M  V30 4137 O 399.227 -1.83721 -0.629318 0
M  V30 4138 C 396.357 -3.39669 -0.724031 0
M  V30 4139 C 395.311 -4.27992 0.0256173 0
M  V30 4140 C 394.637 -5.25673 -0.978383 0
M  V30 4141 C 395.937 -5.08309 1.20082 0
M  V30 4142 H 397.631 -2.83728 0.955969 0
M  V30 4143 H 395.177 -1.36416 0.461149 0
M  V30 4144 H 397.13 -4.05219 -1.15652 0
M  V30 4145 H 395.854 -2.87396 -1.5515 0
M  V30 4146 H 394.513 -3.63964 0.438812 0
M  V30 4147 H 394.161 -4.69682 -1.80022 0
M  V30 4148 H 393.861 -5.85625 -0.481378 0
M  V30 4149 H 395.385 -5.94098 -1.40995 0
M  V30 4150 H 396.799 -5.67034 0.845307 0
M  V30 4151 H 395.196 -5.77554 1.62947 0
M  V30 4152 H 396.266 -4.41365 2.00811 0
M  V30 4153 N 397.609 -0.515225 -1.4894 0
M  V30 4154 C 398.572 0.244681 -2.2789 0
M  V30 4155 C 399.572 0.881166 -1.34507 0
M  V30 4156 O 400.762 0.743497 -1.57537 0
M  V30 4157 C 397.894 1.35247 -3.12923 0
M  V30 4158 H 399.087 -0.448289 -2.96531 0
M  V30 4159 H 396.64 -0.270656 -1.53939 0
M  V30 4160 H 397.375 2.07916 -2.48881 0
M  V30 4161 H 397.16 0.901374 -3.81599 0
M  V30 4162 H 398.65 1.88737 -3.72516 0
M  V30 4163 N 399.087 1.5561 -0.249682 0
M  V30 4164 C 400.034 2.21496 0.648694 0
M  V30 4165 C 401.004 1.17977 1.16921 0
M  V30 4166 O 402.189 1.46434 1.22318 0
M  V30 4167 C 399.329 2.92039 1.83868 0
M  V30 4168 C 398.442 4.10219 1.35442 0
M  V30 4169 C 397.577 4.6847 2.50419 0
M  V30 4170 C 396.616 5.78893 1.98869 0
M  V30 4171 N 395.753 6.31315 3.07223 0
M  V30 4172 H 400.593 2.97892 0.0801582 0
M  V30 4173 H 398.13 1.47074 0.0278031 0
M  V30 4174 H 400.088 3.31138 2.53778 0
M  V30 4175 H 398.718 2.18111 2.37965 0
M  V30 4176 H 397.77 3.76413 0.54928 0
M  V30 4177 H 399.082 4.89927 0.936649 0
M  V30 4178 H 398.236 5.10158 3.28366 0
M  V30 4179 H 396.975 3.87984 2.95499 0
M  V30 4180 H 395.98 5.3668 1.19393 0
M  V30 4181 H 397.205 6.61232 1.54755 0
M  V30 4182 H 395.151 5.53733 3.51732 0
M  V30 4183 H 395.068 7.06224 2.69784 0
M  V30 4184 H 396.336 6.77662 3.8522 0
M  V30 4185 N 400.565 -0.0233959 1.57583 0
M  V30 4186 C 401.814 -0.712133 1.8871 0
M  V30 4187 C 402.127 -1.76217 0.848944 0
M  V30 4188 O 403.333 -2.50389 1.04964 0
M  V30 4189 C 401.789 -1.3177 3.3491 0
M  V30 4190 C 401.397 -0.303715 4.46969 0
M  V30 4191 C 403.141 -1.98598 3.75179 0
M  V30 4192 C 401.048 -0.917945 5.84233 0
M  V30 4193 H 399.978 -0.269735 0.704101 0
M  V30 4194 H 402.629 0.0333114 1.8347 0
M  V30 4195 H 401.011 -2.11304 3.34913 0
M  V30 4196 H 402.185 0.465325 4.58445 0
M  V30 4197 H 400.5 0.2628 4.1557 0
M  V30 4198 H 403.097 -2.45416 4.75053 0
M  V30 4199 H 403.44 -2.80659 3.07468 0
M  V30 4200 H 403.973 -1.25831 3.77374 0
M  V30 4201 H 400.712 -0.136633 6.55358 0
M  V30 4202 H 400.232 -1.65669 5.76467 0
M  V30 4203 H 401.911 -1.4236 6.31144 0
M  V30 4204 N 402.043 -1.548 -0.295768 0
M  V30 4205 C 402.973 -1.89115 -1.36959 0
M  V30 4206 C 403.954 -0.75059 -1.52644 0
M  V30 4207 O 405.139 -1.00678 -1.66065 0
M  V30 4208 C 402.269 -2.14307 -2.73295 0
M  V30 4209 C 401.223 -3.30151 -2.72368 0
M  V30 4210 C 400.549 -3.40772 -4.12042 0
M  V30 4211 C 401.849 -4.67126 -2.33646 0
M  V30 4212 H 403.543 -2.79053 -1.08488 0
M  V30 4213 H 401.089 -1.34266 -0.520443 0
M  V30 4214 H 403.042 -2.36898 -3.48507 0
M  V30 4215 H 401.766 -1.21145 -3.03301 0
M  V30 4216 H 400.425 -3.0749 -1.99613 0
M  V30 4217 H 400.073 -2.45117 -4.39234 0
M  V30 4218 H 399.773 -4.18645 -4.12322 0
M  V30 4219 H 401.297 -3.6563 -4.89027 0
M  V30 4220 H 402.711 -4.89414 -2.98575 0
M  V30 4221 H 401.108 -5.47751 -2.45129 0
M  V30 4222 H 402.178 -4.67489 -1.28772 0
M  V30 4223 N 403.521 0.559213 -1.47345 0
M  V30 4224 C 404.932 1.14134 -1.47751 0
M  V30 4225 C 405.283 1.94834 -0.231103 0
M  V30 4226 O 404.408 2.05957 0.664137 0
M  V30 4227 C 405.003 2.07653 -2.67705 0
M  V30 4228 C 403.562 2.61141 -2.71076 0
M  V30 4229 C 402.709 1.3748 -2.40821 0
M  V30 4230 H 405.66 0.345917 -1.54884 0
M  V30 4231 H 405.681 2.91497 -2.44561 0
M  V30 4232 H 405.193 1.4889 -3.58404 0
M  V30 4233 H 403.294 3.23707 -1.84511 0
M  V30 4234 H 403.407 3.02272 -3.7171 0
M  V30 4235 H 401.771 1.68086 -1.91362 0
M  V30 4236 H 402.554 0.805135 -3.33725 0
M  V30 4237 N 404.999 1.35443 0.805782 0
M  V30 4238 C 406.247 1.28507 1.55982 0
M  V30 4239 C 406.568 -0.140046 1.94496 0
M  V30 4240 O 405.838 -1.07666 1.63661 0
M  V30 4241 H 404.418 0.472676 0.578434 0
M  V30 4242 H 407.08 1.69555 0.961098 0
M  V30 4243 H 406.176 1.90148 2.47488 0
M  V30 4244 N 406.477 -1.02803 1.19454 0
M  V30 4245 C 407.717 -1.77769 1.00883 0
M  V30 4246 C 408.081 -1.86596 -0.45233 0
M  V30 4247 O 409.282 -2.57895 -0.757877 0
M  V30 4248 C 407.553 -3.16486 1.66046 0
M  V30 4249 S 409.112 -4.07632 1.62424 0
M  V30 4250 H 405.93 -0.611949 0.361993 0
M  V30 4251 H 408.532 -1.23175 1.51816 0
M  V30 4252 H 407.236 -3.0768 2.7159 0
M  V30 4253 H 406.767 -3.76156 1.15196 0
M  V30 4254 H 408.782 -4.91937 0.64903 0
M  V30 4255 N 407.956 -0.998596 -1.21925 0
M  V30 4256 C 408.866 -0.562736 -2.27751 0
M  V30 4257 C 409.882 0.391203 -1.69545 0
M  V30 4258 O 411.058 0.256625 -1.99758 0
M  V30 4259 C 408.123 0.11012 -3.46525 0
M  V30 4260 C 407.184 -0.887495 -4.20026 0
M  V30 4261 C 406.417 -0.246654 -5.3313 0
M  V30 4262 O 406.64 0.958088 -5.62296 0
M  V30 4263 O 405.574 -0.954374 -5.94286 0
M  V30 4264 H 409.4 -1.44329 -2.67213 0
M  V30 4265 H 406.985 -0.767135 -1.28201 0
M  V30 4266 H 408.867 0.486756 -4.18579 0
M  V30 4267 H 407.542 0.965154 -3.08976 0
M  V30 4268 H 406.449 -1.31517 -3.5022 0
M  V30 4269 H 407.782 -1.71191 -4.6147 0
M  V30 4270 N 409.434 1.37368 -0.772513 0
M  V30 4271 C 410.683 1.98918 -0.333861 0
M  V30 4272 C 410.996 1.62017 1.09589 0
M  V30 4273 O 412.202 2.16676 1.63596 0
M  V30 4274 C 410.658 3.55735 -0.545971 0
M  V30 4275 C 410.266 4.01573 -1.98603 0
M  V30 4276 C 412.01 4.24156 -0.170979 0
M  V30 4277 C 409.917 5.51102 -2.1457 0
M  V30 4278 H 408.847 0.744214 -0.121085 0
M  V30 4279 H 411.498 1.56888 -0.95175 0
M  V30 4280 H 409.88 3.95748 0.141387 0
M  V30 4281 H 411.054 3.72803 -2.7084 0
M  V30 4282 H 409.369 3.45937 -2.31769 0
M  V30 4283 H 411.966 5.34024 -0.26878 0
M  V30 4284 H 412.309 4.06917 0.878855 0
M  V30 4285 H 412.842 3.89447 -0.810914 0
M  V30 4286 H 409.581 5.73268 -3.17875 0
M  V30 4287 H 409.101 5.81554 -1.46817 0
M  V30 4288 H 410.78 6.17083 -1.94468 0
M  V30 4289 N 410.912 0.523116 1.48665 0
M  V30 4290 C 412.142 -0.00961724 2.06598 0
M  V30 4291 C 412.55 -1.29333 1.38093 0
M  V30 4292 O 411.893 -1.77846 0.46007 0
M  V30 4293 C 411.955 -0.311135 3.58151 0
M  V30 4294 C 411.619 0.878092 4.48485 0
M  V30 4295 C 412.616 1.77464 4.88674 0
M  V30 4296 C 410.301 1.08315 4.90483 0
M  V30 4297 C 412.295 2.86021 5.69623 0
M  V30 4298 C 409.982 2.17187 5.71203 0
M  V30 4299 C 410.98 3.05873 6.10681 0
M  V30 4300 O 410.668 4.12862 6.89783 0
M  V30 4301 H 410.4 0.0272658 0.67545 0
M  V30 4302 H 412.954 0.726156 1.92136 0
M  V30 4303 H 411.184 -1.10079 3.70701 0
M  V30 4304 H 412.873 -0.785125 3.98234 0
M  V30 4305 H 413.639 1.62813 4.56855 0
M  V30 4306 H 409.518 0.402149 4.59243 0
M  V30 4307 H 413.062 3.55272 6.00356 0
M  V30 4308 H 408.959 2.31824 6.02435 0
M  V30 4309 H 409.727 4.10487 7.08126 0
M  V30 4310 N 412.39 -1.55475 0.257931 0
M  V30 4311 C 413.615 -2.04064 -0.370488 0
M  V30 4312 C 414.04 -1.13565 -1.49948 0
M  V30 4313 O 413.398 -0.130781 -1.80828 0
M  V30 4314 C 413.446 -3.50554 -0.845237 0
M  V30 4315 O 412.55 -3.63173 -1.95394 0
M  V30 4316 H 411.891 -0.659257 -0.0792243 0
M  V30 4317 H 414.421 -2.00903 0.387212 0
M  V30 4318 H 414.431 -3.91588 -1.14555 0
M  V30 4319 H 413.106 -4.15896 -0.0191259 0
M  V30 4320 H 411.683 -3.34039 -1.65748 0
M  V30 4321 N 413.868 0.0150385 -1.57593 0
M  V30 4322 C 415.145 0.7392 -1.81094 0
M  V30 4323 C 415.525 1.92817 -0.859344 0
M  V30 4324 O 414.873 2.28301 0.095362 0
M  V30 4325 C 415.083 1.15907 -3.29191 0
M  V30 4326 C 416.431 1.56918 -3.9454 0
M  V30 4327 O 417.455 1.25328 -3.33424 0
M  V30 4328 O 416.314 2.15604 -5.02173 0
M  V30 4329 H 413.408 0.358631 -0.745193 0
M  V30 4330 H 415.954 -0.00926156 -1.69697 0
M  V30 4331 H 414.726 0.310921 -3.90063 0
M  V30 4332 H 414.349 1.96711 -3.45529 0
M  V30 4333 N 415.346 1.54954 0.287554 0
M  V30 4334 C 416.309 1.86076 1.33823 0
M  V30 4335 C 417.309 0.734414 1.43049 0
M  V30 4336 O 418.499 1.00266 1.42452 0
M  V30 4337 C 415.631 2.05305 2.72144 0
M  V30 4338 H 416.824 2.79984 1.07465 0
M  V30 4339 H 414.377 1.47223 0.524902 0
M  V30 4340 H 415.112 1.1373 3.03704 0
M  V30 4341 H 414.897 2.873 2.66836 0
M  V30 4342 H 416.387 2.30706 3.48087 0
M  V30 4343 N 416.824 -0.551391 1.4764 0
M  V30 4344 C 418.072 -1.30572 1.54258 0
M  V30 4345 C 418.393 -1.93877 0.208963 0
M  V30 4346 O 417.663 -1.80234 -0.767619 0
M  V30 4347 H 416.243 -0.484894 0.568231 0
M  V30 4348 H 418.905 -0.643402 1.83974 0
M  V30 4349 H 418.001 -2.09621 2.31226 0
M  V30 4350 N 418.302 -1.35869 -0.798587 0
M  V30 4351 C 419.25 -1.29491 -1.93222 0
M  V30 4352 C 420.244 -0.18836 -1.6835 0
M  V30 4353 O 421.45 -0.354822 -1.76468 0
M  V30 4354 H 417.825 -0.402901 -0.63496 0
M  V30 4355 H 419.796 -2.25247 -1.9572 0
M  V30 4356 C 418.545 -1.09184 -3.30112 0
M  V30 4357 H 417.868 -1.93574 -3.49813 0
M  V30 4358 H 419.308 -1.08766 -4.09812 0
M  V30 4359 C 417.767 0.203959 -3.36282 0
M  V30 4360 O 418.297 1.19699 -3.83451 0
M  V30 4361 N 416.503 0.245488 -2.89561 0
M  V30 4362 H 416.05 -0.563223 -2.51367 0
M  V30 4363 H 416.008 1.11219 -2.94071 0
M  V30 4364 N 419.78 1.02168 -1.19998 0
M  V30 4365 C 420.73 2.08969 -0.911921 0
M  V30 4366 C 421.714 1.60404 0.12621 0
M  V30 4367 O 422.906 1.76817 -0.0804706 0
M  V30 4368 C 420.035 3.402 -0.460277 0
M  V30 4369 C 419.121 3.9548 -1.53155 0
M  V30 4370 N 419.512 4.24332 -2.75275 0
M  V30 4371 C 417.81 4.23572 -1.39653 0
M  V30 4372 C 418.511 4.68834 -3.44339 0
M  V30 4373 N 417.487 4.70804 -2.71744 0
M  V30 4374 H 421.289 2.29178 -1.83997 0
M  V30 4375 H 418.803 1.20094 -1.09322 0
M  V30 4376 H 420.8 4.16235 -0.235337 0
M  V30 4377 H 419.46 3.21408 0.4612 0
M  V30 4378 H 420.471 4.13393 -3.11973 0
M  V30 4379 H 417.148 4.14005 -0.539067 0
M  V30 4380 H 418.538 5.00019 -4.4881 0
M  V30 4381 N 421.258 1.00505 1.21394 0
M  V30 4382 C 422.221 0.570459 2.21987 0
M  V30 4383 C 423.221 -0.353211 1.56873 0
M  V30 4384 O 424.411 -0.14349 1.73608 0
M  V30 4385 C 421.543 -0.168555 3.40483 0
M  V30 4386 H 422.736 1.46021 2.6195 0
M  V30 4387 H 420.289 0.793565 1.34656 0
M  V30 4388 H 421.024 -1.07374 3.06009 0
M  V30 4389 H 420.809 0.494823 3.88965 0
M  V30 4390 H 422.299 -0.460362 4.15055 0
M  V30 4391 N 422.737 -1.36956 0.779787 0
M  V30 4392 C 423.962 -2.04283 0.358224 0
M  V30 4393 C 424.387 -1.58422 -1.01411 0
M  V30 4394 O 423.745 -0.748179 -1.65142 0
M  V30 4395 C 423.793 -3.58152 0.419479 0
M  V30 4396 O 422.897 -4.08342 -0.577142 0
M  V30 4397 H 422.238 -0.645967 0.153698 0
M  V30 4398 H 424.768 -1.75108 1.05822 0
M  V30 4399 H 424.778 -4.07041 0.279636 0
M  V30 4400 H 423.453 -3.90886 1.42061 0
M  V30 4401 H 422.03 -3.70751 -0.399755 0
M  V30 4402 N 424.215 -0.530993 -1.48385 0
M  V30 4403 C 425.148 0.278511 -2.26494 0
M  V30 4404 C 426.126 0.943905 -1.32398 0
M  V30 4405 O 427.31 0.968098 -1.61741 0
M  V30 4406 C 424.437 1.39453 -3.08659 0
M  V30 4407 C 423.483 0.840434 -4.18137 0
M  V30 4408 S 424.316 -0.292496 -5.34701 0
M  V30 4409 C 425.472 0.825973 -6.20426 0
M  V30 4410 H 425.705 -0.384365 -2.94805 0
M  V30 4411 H 423.238 -0.316799 -1.51115 0
M  V30 4412 H 425.196 2.03382 -3.56575 0
M  V30 4413 H 423.857 2.02913 -2.3976 0
M  V30 4414 H 423.05 1.67769 -4.75257 0
M  V30 4415 H 422.652 0.277819 -3.72967 0
M  V30 4416 H 424.944 1.72438 -6.55188 0
M  V30 4417 H 425.887 0.292728 -7.07495 0
M  V30 4418 H 426.295 1.10683 -5.53543 0
M  V30 4419 N 425.693 1.55336 -0.266172 0
M  V30 4420 C 426.942 1.98574 0.353749 0
M  V30 4421 C 427.255 1.15789 1.57646 0
M  V30 4422 O 428.461 1.49129 2.26876 0
M  V30 4423 C 426.917 3.53403 0.680747 0
M  V30 4424 C 426.525 4.44953 -0.52165 0
M  V30 4425 C 428.269 4.05251 1.26379 0
M  V30 4426 C 426.176 5.91156 -0.169736 0
M  V30 4427 H 425.106 0.741643 0.135949 0
M  V30 4428 H 427.757 1.79743 -0.369421 0
M  V30 4429 H 426.139 3.68001 1.46257 0
M  V30 4430 H 427.313 4.42121 -1.29869 0
M  V30 4431 H 425.628 4.03691 -1.02093 0
M  V30 4432 H 428.225 5.12021 1.54074 0
M  V30 4433 H 428.568 3.53749 2.19471 0
M  V30 4434 H 429.101 3.94057 0.544447 0
M  V30 4435 H 425.84 6.46736 -1.0683 0
M  V30 4436 H 425.36 5.97079 0.570717 0
M  V30 4437 H 427.039 6.4655 0.241245 0
M  V30 4438 N 427.171 -0.0066808 1.57599 0
M  V30 4439 C 428.103 -1.02827 2.04839 0
M  V30 4440 C 429.116 -1.31108 0.965113 0
M  V30 4441 O 430.305 -1.28202 1.24203 0
M  V30 4442 C 427.405 -2.36464 2.42771 0
M  V30 4443 C 426.578 -2.27219 3.73751 0
M  V30 4444 C 425.637 -3.43489 3.98625 0
M  V30 4445 O 424.663 -3.21976 4.69382 0
M  V30 4446 N 425.865 -4.66116 3.46 0
M  V30 4447 H 428.63 -0.625455 2.93101 0
M  V30 4448 H 426.191 -0.194198 1.60731 0
M  V30 4449 H 428.183 -3.13008 2.56531 0
M  V30 4450 H 426.753 -2.68512 1.60063 0
M  V30 4451 H 425.973 -1.35629 3.70133 0
M  V30 4452 H 427.261 -2.18208 4.59633 0
M  V30 4453 H 426.659 -4.86493 2.88688 0
M  V30 4454 H 425.216 -5.39949 3.65101 0
M  V30 4455 N 428.649 -1.55105 -0.279332 0
M  V30 4456 C 429.897 -1.75066 -1.00977 0
M  V30 4457 C 430.218 -0.551276 -1.87045 0
M  V30 4458 O 429.488 0.433984 -1.91032 0
M  V30 4459 H 428.068 -0.645578 -0.375816 0
M  V30 4460 H 430.73 -1.92497 -0.305089 0
M  V30 4461 H 429.826 -2.64894 -1.65038 0
M  V30 4462 N 430.127 0.543554 -1.4793 0
M  V30 4463 C 431.376 1.29649 -1.54512 0
M  V30 4464 C 431.689 1.94382 -0.217973 0
M  V30 4465 O 432.895 2.71017 -0.161908 0
M  V30 4466 C 431.351 2.35175 -2.72435 0
M  V30 4467 C 430.959 1.76572 -4.11736 0
M  V30 4468 C 432.703 3.11564 -2.8832 0
M  V30 4469 C 430.61 2.79958 -5.20939 0
M  V30 4470 H 429.54 0.487541 -0.57517 0
M  V30 4471 H 432.191 0.575708 -1.74235 0
M  V30 4472 H 430.573 3.10229 -2.46118 0
M  V30 4473 H 431.747 1.07799 -4.48013 0
M  V30 4474 H 430.062 1.12722 -4.00852 0
M  V30 4475 H 432.659 3.88794 -3.67074 0
M  V30 4476 H 433.002 3.66594 -1.97268 0
M  V30 4477 H 433.535 2.43623 -3.14472 0
M  V30 4478 H 430.274 2.29766 -6.13912 0
M  V30 4479 H 429.794 3.47101 -4.89164 0
M  V30 4480 H 431.473 3.43198 -5.48474 0
M  V30 4481 N 431.605 1.3629 0.791371 0
M  V30 4482 C 433.021 1.16661 1.08914 0
M  V30 4483 C 433.221 -0.0106266 2.01497 0
M  V30 4484 O 432.277 -0.676596 2.43266 0
M  V30 4485 C 433.59 2.47656 1.70549 0
M  V30 4486 C 435.138 2.54002 1.82899 0
M  V30 4487 C 435.613 3.85078 2.47949 0
M  V30 4488 N 437.104 3.86413 2.5542 0
M  V30 4489 C 437.839 4.84572 3.06557 0
M  V30 4490 N 437.335 5.93124 3.58016 0
M  V30 4491 N 439.128 4.71994 3.05251 0
M  V30 4492 H 431.279 2.11668 0.176238 0
M  V30 4493 H 433.542 0.937486 0.140796 0
M  V30 4494 H 433.248 3.34059 1.09989 0
M  V30 4495 H 433.122 2.63319 2.70079 0
M  V30 4496 H 435.509 1.68018 2.42598 0
M  V30 4497 H 435.59 2.42239 0.821808 0
M  V30 4498 H 435.234 4.71467 1.88895 0
M  V30 4499 H 435.164 3.94135 3.49235 0
M  V30 4500 H 437.655 3.07988 2.18979 0
M  V30 4501 H 437.968 6.63999 3.95381 0
M  V30 4502 H 436.313 5.96796 3.56173 0
M  V30 4503 H 439.504 3.86321 2.64336 0
M  V30 4504 H 439.677 5.48653 3.44796 0
M  V30 4505 N 433.083 -1.0153 1.20538 0
M  V30 4506 C 434.031 -2.12215 0.952235 0
M  V30 4507 C 435.025 -1.69123 -0.0968735 0
M  V30 4508 O 436.231 -1.7992 0.0536006 0
M  V30 4509 H 432.606 -0.693576 0.290613 0
M  V30 4510 H 434.577 -2.3075 1.89201 0
M  V30 4511 C 433.326 -3.43755 0.522287 0
M  V30 4512 H 432.649 -3.7734 1.32115 0
M  V30 4513 H 434.089 -4.22254 0.384389 0
M  V30 4514 C 432.548 -3.28088 -0.765489 0
M  V30 4515 O 433.078 -3.57921 -1.8236 0
M  V30 4516 N 431.284 -2.81333 -0.728011 0
M  V30 4517 H 430.831 -2.57255 0.133332 0
M  V30 4518 H 430.789 -2.71232 -1.58999 0
M  V30 4519 N 434.561 -1.01147 -1.20859 0
M  V30 4520 C 435.786 -0.716698 -1.94623 0
M  V30 4521 C 436.211 0.715415 -1.73964 0
M  V30 4522 O 435.569 1.49157 -1.03062 0
M  V30 4523 C 435.617 -1.0513 -3.44935 0
M  V30 4524 O 434.721 -0.160131 -4.12089 0
M  V30 4525 H 434.062 -0.266404 -0.608214 0
M  V30 4526 H 436.592 -1.35346 -1.53436 0
M  V30 4527 H 436.602 -1.00086 -3.95533 0
M  V30 4528 H 435.277 -2.09475 -3.59295 0
M  V30 4529 H 433.854 -0.267657 -3.71938 0
M  V30 4530 N 436.039 1.36541 -0.78704 0
M  V30 4531 C 437.287 1.98911 -0.357633 0
M  V30 4532 C 437.608 1.62778 1.07371 0
M  V30 4533 O 436.878 0.900612 1.73971 0
M  V30 4534 H 435.458 0.735734 -0.129246 0
M  V30 4535 H 438.12 1.66776 -1.00855 0
M  V30 4536 H 437.216 3.08874 -0.447549 0
M  V30 4537 N 437.518 0.538854 1.48102 0
M  V30 4538 C 438.481 -0.208395 2.28251 0
M  V30 4539 C 439.481 -0.859656 1.35892 0
M  V30 4540 O 440.671 -0.71834 1.58699 0
M  V30 4541 C 437.803 -1.30252 3.15035 0
M  V30 4542 H 438.996 0.495407 2.9578 0
M  V30 4543 H 436.549 0.295112 1.53489 0
M  V30 4544 H 437.284 -2.0393 2.52157 0
M  V30 4545 H 437.069 -0.840551 3.82985 0
M  V30 4546 H 438.559 -1.82787 3.75471 0
M  V30 4547 N 438.996 -1.55193 0.274407 0
M  V30 4548 C 439.959 -2.212 -0.600279 0
M  V30 4549 C 440.959 -1.18963 -1.08187 0
M  V30 4550 O 442.149 -1.43873 -0.982158 0
M  V30 4551 C 439.281 -2.87739 -1.82809 0
M  V30 4552 H 440.474 -2.9989 -0.0239682 0
M  V30 4553 H 438.027 -1.5628 0.0250192 0
M  V30 4554 H 438.762 -2.13058 -2.44493 0
M  V30 4555 H 438.547 -3.62658 -1.49069 0
M  V30 4556 H 440.037 -3.38171 -2.45011 0
M  V30 4557 N 440.474 -0.00167713 -1.576 0
M  V30 4558 C 441.421 0.989195 -2.08527 0
M  V30 4559 C 442.391 1.34031 -0.981065 0
M  V30 4560 O 443.576 1.43839 -1.2536 0
M  V30 4561 C 440.716 2.27537 -2.59463 0
M  V30 4562 C 439.829 1.98314 -3.83791 0
M  V30 4563 C 438.964 3.21025 -4.23222 0
M  V30 4564 C 438.003 2.87495 -5.40382 0
M  V30 4565 N 437.14 4.02749 -5.75098 0
M  V30 4566 H 441.98 0.547973 -2.92919 0
M  V30 4567 H 439.517 0.258917 -1.44803 0
M  V30 4568 H 441.475 3.02729 -2.87073 0
M  V30 4569 H 440.105 2.69325 -1.77943 0
M  V30 4570 H 439.157 1.13482 -3.63078 0
M  V30 4571 H 440.469 1.69601 -4.69081 0
M  V30 4572 H 439.623 4.04561 -4.52123 0
M  V30 4573 H 438.362 3.52877 -3.36644 0
M  V30 4574 H 437.367 2.02367 -5.11202 0
M  V30 4575 H 438.592 2.56889 -6.28637 0
M  V30 4576 H 436.538 4.34494 -4.91478 0
M  V30 4577 H 436.455 3.77566 -6.54966 0
M  V30 4578 H 437.723 4.87068 -6.08592 0
M  V30 4579 N 441.952 1.55251 0.271103 0
M  V30 4580 C 443.199 1.75946 1.00245 0
M  V30 4581 C 443.527 0.561611 1.86215 0
M  V30 4582 O 442.782 -0.455832 1.90317 0
M  V30 4583 C 443.081 3.01879 1.91321 0
M  V30 4584 C 442.747 4.34337 1.21086 0
M  V30 4585 C 441.409 4.70338 1.01666 0
M  V30 4586 C 443.761 5.16325 0.71119 0
M  V30 4587 C 441.089 5.8588 0.310099 0
M  V30 4588 C 443.441 6.32597 0.0182157 0
M  V30 4589 C 442.105 6.67236 -0.18768 0
M  V30 4590 H 441.375 0.643833 0.366824 0
M  V30 4591 H 444.022 1.89521 0.27458 0
M  V30 4592 H 442.327 2.83212 2.70736 0
M  V30 4593 H 444.024 3.15088 2.48033 0
M  V30 4594 H 440.614 4.06043 1.37213 0
M  V30 4595 H 444.798 4.88987 0.848844 0
M  V30 4596 H 440.054 6.1124 0.139873 0
M  V30 4597 H 444.228 6.9538 -0.376711 0
M  V30 4598 H 441.855 7.56618 -0.73715 0
M  V30 4599 N 443.43 -0.535701 1.48216 0
M  V30 4600 C 444.676 -1.29375 1.56173 0
M  V30 4601 C 445.009 -1.92804 0.232429 0
M  V30 4602 O 444.284 -1.78992 -0.761048 0
M  V30 4603 C 444.567 -2.38747 2.69577 0
M  V30 4604 C 444.42 -1.80046 4.12193 0
M  V30 4605 C 445.739 -3.40551 2.78771 0
M  V30 4606 H 442.858 -0.469027 0.568491 0
M  V30 4607 H 445.5 -0.597358 1.80365 0
M  V30 4608 H 443.65 -2.98147 2.4908 0
M  V30 4609 H 445.322 -1.24742 4.44114 0
M  V30 4610 H 443.565 -1.10609 4.19462 0
M  V30 4611 H 444.236 -2.59212 4.87353 0
M  V30 4612 H 446.712 -2.91099 2.97322 0
M  V30 4613 H 445.588 -4.1448 3.59857 0
M  V30 4614 H 445.849 -4.00746 1.86696 0
M  V30 4615 N 444.908 -1.36708 -0.784132 0
M  V30 4616 C 446.155 -1.31231 -1.54222 0
M  V30 4617 C 446.483 0.106864 -1.94206 0
M  V30 4618 O 445.738 1.07734 -1.63376 0
M  V30 4619 C 446.037 -2.18571 -2.82774 0
M  V30 4620 C 445.703 -3.67039 -2.61903 0
M  V30 4621 C 444.365 -4.07503 -2.55919 0
M  V30 4622 C 446.717 -4.61149 -2.4288 0
M  V30 4623 C 444.045 -5.40211 -2.28886 0
M  V30 4624 C 446.397 -5.94081 -2.17373 0
M  V30 4625 C 445.061 -6.33664 -2.09825 0
M  V30 4626 H 444.331 -0.48021 -0.56434 0
M  V30 4627 H 446.978 -1.68807 -0.904233 0
M  V30 4628 H 445.283 -1.73949 -3.51068 0
M  V30 4629 H 446.98 -2.11655 -3.40592 0
M  V30 4630 H 443.57 -3.34941 -2.67418 0
M  V30 4631 H 447.754 -4.30756 -2.46501 0
M  V30 4632 H 443.01 -5.69855 -2.21529 0
M  V30 4633 H 447.184 -6.66566 -2.01649 0
M  V30 4634 H 444.811 -7.36423 -1.88641 0
M  V30 4635 N 446.386 1.0089 -1.21074 0
M  V30 4636 C 447.802 1.2695 -0.967257 0
M  V30 4637 C 448.002 1.9846 0.348673 0
M  V30 4638 O 447.058 2.28459 1.0753 0
M  V30 4639 C 448.371 2.09697 -2.15517 0
M  V30 4640 C 449.919 2.22937 -2.197 0
M  V30 4641 C 450.394 3.09064 -3.37999 0
M  V30 4642 N 451.885 3.16653 -3.38061 0
M  V30 4643 C 452.62 3.8354 -4.26245 0
M  V30 4644 N 452.116 4.52488 -5.2462 0
M  V30 4645 N 453.909 3.80141 -4.14064 0
M  V30 4646 H 446.06 0.529005 -2.05707 0
M  V30 4647 H 448.323 0.296148 -0.900556 0
M  V30 4648 H 448.029 1.64497 -3.10859 0
M  V30 4649 H 447.903 3.10444 -2.14253 0
M  V30 4650 H 450.29 2.67357 -1.24916 0
M  V30 4651 H 450.371 1.21673 -2.2501 0
M  V30 4652 H 450.015 2.65347 -4.33074 0
M  V30 4653 H 449.945 4.10433 -3.29928 0
M  V30 4654 H 452.436 2.67566 -2.66865 0
M  V30 4655 H 452.749 5.01219 -5.88217 0
M  V30 4656 H 451.094 4.51288 -5.28549 0
M  V30 4657 H 454.285 3.25427 -3.36474 0
M  V30 4658 H 454.458 4.31992 -4.82998 0
M  V30 4659 N 447.864 1.01787 1.20321 0
M  V30 4660 C 448.814 0.559976 2.21016 0
M  V30 4661 C 449.798 -0.385366 1.56217 0
M  V30 4662 O 450.99 -0.208126 1.75772 0
M  V30 4663 C 448.119 -0.0990553 3.43157 0
M  V30 4664 C 447.205 0.86807 4.15121 0
M  V30 4665 N 447.596 2.0261 4.63447 0
M  V30 4666 C 445.894 0.689162 4.40643 0
M  V30 4667 C 446.595 2.63518 5.18588 0
M  V30 4668 N 445.571 1.91569 5.08726 0
M  V30 4669 H 449.373 1.44281 2.56048 0
M  V30 4670 H 446.887 0.883381 1.36272 0
M  V30 4671 H 448.884 -0.444643 4.14522 0
M  V30 4672 H 447.544 -0.977709 3.0963 0
M  V30 4673 H 448.555 2.40598 4.58621 0
M  V30 4674 H 445.232 -0.14133 4.17261 0
M  V30 4675 H 446.622 3.61527 5.66346 0
M  V30 4676 N 449.342 -1.36122 0.79427 0
M  V30 4677 C 450.29 -2.31871 0.184023 0
M  V30 4678 C 451.284 -1.56041 -0.659365 0
M  V30 4679 O 452.49 -1.71266 -0.553906 0
M  V30 4680 H 448.865 -0.750896 0.0407373 0
M  V30 4681 H 450.836 -2.80898 1.00693 0
M  V30 4682 C 449.585 -3.41324 -0.662813 0
M  V30 4683 H 448.908 -3.99793 -0.0231944 0
M  V30 4684 H 450.348 -4.10629 -1.05639 0
M  V30 4685 C 448.807 -2.83308 -1.82313 0
M  V30 4686 O 449.337 -2.75863 -2.91997 0
M  V30 4687 N 447.543 -2.40529 -1.63077 0
M  V30 4688 H 447.09 -2.46785 -0.738591 0
M  V30 4689 H 447.048 -2.02059 -2.40872 0
M  V30 4690 N 450.82 -0.546701 -1.47814 0
M  V30 4691 C 452.097 0.0464413 -1.95545 0
M  V30 4692 C 452.477 1.4962 -1.48919 0
M  V30 4693 O 451.825 2.16752 -0.723232 0
M  V30 4694 C 452.035 -0.0881298 -3.48889 0
M  V30 4695 C 453.383 0.0626059 -4.24554 0
M  V30 4696 O 454.407 -0.0151555 -3.56197 0
M  V30 4697 O 453.266 0.228071 -5.46024 0
M  V30 4698 H 450.36 0.0700004 -0.824032 0
M  V30 4699 H 452.906 -0.612482 -1.58262 0
M  V30 4700 H 451.678 -1.09737 -3.75597 0
M  V30 4701 H 451.301 0.608886 -3.9291 0
M  V30 4702 N 452.299 1.55045 -0.282633 0
M  V30 4703 C 453.71 1.85473 0.213655 0
M  V30 4704 C 454.061 1.20465 1.54863 0
M  V30 4705 O 453.186 0.495676 2.10647 0
M  V30 4706 C 453.781 3.36496 0.394445 0
M  V30 4707 C 452.34 3.67022 0.834961 0
M  V30 4708 C 451.487 2.77218 -0.0674081 0
M  V30 4709 H 454.438 1.50478 -0.504202 0
M  V30 4710 H 454.459 3.60007 1.23186 0
M  V30 4711 H 453.971 3.83782 -0.577326 0
M  V30 4712 H 452.072 3.25241 1.81794 0
M  V30 4713 H 452.185 4.74433 0.667075 0
M  V30 4714 H 450.549 2.5069 0.450196 0
M  V30 4715 H 451.332 3.2732 -1.0352 0
M  V30 4716 N 453.777 0.010035 1.57597 0
M  V30 4717 C 455.054 -0.710296 1.82248 0
M  V30 4718 C 455.434 -1.91426 0.889911 0
M  V30 4719 O 454.782 -2.28424 -0.0590292 0
M  V30 4720 C 454.992 -1.10655 3.30993 0
M  V30 4721 C 456.34 -1.50621 3.96987 0
M  V30 4722 O 457.364 -1.20007 3.35375 0
M  V30 4723 O 456.223 -2.07587 5.05539 0
M  V30 4724 H 453.317 -0.34673 0.750804 0
M  V30 4725 H 455.863 0.0362578 1.69661 0
M  V30 4726 H 454.635 -0.248826 3.90508 0
M  V30 4727 H 454.258 -1.91189 3.48615 0
M  V30 4728 N 455.255 -1.55392 -0.262866 0
M  V30 4729 C 456.205 -1.85355 -1.32768 0
M  V30 4730 C 457.189 -0.713188 -1.44231 0
M  V30 4731 O 458.381 -0.974765 -1.47741 0
M  V30 4732 C 455.51 -2.13781 -2.68612 0
M  V30 4733 C 454.596 -3.34104 -2.61219 0
M  V30 4734 N 454.987 -4.53766 -2.2345 0
M  V30 4735 C 453.285 -3.36895 -2.92263 0
M  V30 4736 C 453.986 -5.35877 -2.26298 0
M  V30 4737 N 452.962 -4.74536 -2.65172 0
M  V30 4738 H 456.764 -2.75413 -1.02591 0
M  V30 4739 H 454.278 -1.55405 -0.471503 0
M  V30 4740 H 456.275 -2.33407 -3.45437 0
M  V30 4741 H 454.935 -1.25013 -2.99669 0
M  V30 4742 H 455.946 -4.79682 -1.95258 0
M  V30 4743 H 452.623 -2.58351 -3.27965 0
M  V30 4744 H 454.013 -6.41577 -1.99572 0
M  V30 4745 N 456.733 0.527833 -1.48498 0
M  V30 4746 C 457.663 1.64136 -1.66077 0
M  V30 4747 C 458.644 1.62286 -0.509625 0
M  V30 4748 O 459.829 1.79449 -0.742413 0
M  V30 4749 C 456.959 3.02717 -1.70234 0
M  V30 4750 C 455.913 3.19426 -2.8487 0
M  V30 4751 C 455.239 4.5909 -2.74118 0
M  V30 4752 C 456.539 3.01993 -4.26142 0
M  V30 4753 H 458.233 1.4968 -2.593 0
M  V30 4754 H 455.779 0.718654 -1.24785 0
M  V30 4755 H 457.732 3.80491 -1.8112 0
M  V30 4756 H 456.456 3.18201 -0.735911 0
M  V30 4757 H 455.115 2.4407 -2.73542 0
M  V30 4758 H 454.763 4.71413 -1.7544 0
M  V30 4759 H 454.463 4.71214 -3.51042 0
M  V30 4760 H 455.987 5.3896 -2.86974 0
M  V30 4761 H 457.401 3.69558 -4.38292 0
M  V30 4762 H 455.798 3.2561 -5.04082 0
M  V30 4763 H 456.868 1.98396 -4.42456 0
M  V30 4764 N 458.211 1.37122 0.776871 0
M  V30 4765 C 459.158 1.3247 1.88998 0
M  V30 4766 C 460.128 0.191143 1.64997 0
M  V30 4767 O 461.313 0.379683 1.86984 0
M  V30 4768 C 458.453 1.13241 3.25992 0
M  V30 4769 C 457.566 2.35782 3.61982 0
M  V30 4770 C 456.701 2.09465 4.88158 0
M  V30 4771 C 455.74 3.279 5.16864 0
M  V30 4772 N 454.877 3.01167 6.34226 0
M  V30 4773 H 459.717 2.27642 1.9231 0
M  V30 4774 H 457.254 1.13125 0.94027 0
M  V30 4775 H 459.212 1.00115 4.0501 0
M  V30 4776 H 457.842 0.217186 3.22069 0
M  V30 4777 H 456.894 2.59666 2.77989 0
M  V30 4778 H 458.206 3.24125 3.79137 0
M  V30 4779 H 457.36 1.93341 5.75069 0
M  V30 4780 H 456.099 1.18452 4.73097 0
M  V30 4781 H 455.104 3.44569 4.2843 0
M  V30 4782 H 456.329 4.19757 5.33836 0
M  V30 4783 H 454.275 2.12779 6.20533 0
M  V30 4784 H 454.192 3.83052 6.51772 0
M  V30 4785 H 455.46 2.88649 7.24087 0
M  V30 4786 N 459.689 -1.00246 1.21608 0
M  V30 4787 C 460.636 -2.09073 0.977613 0
M  V30 4788 C 461.606 -1.65815 -0.097297 0
M  V30 4789 O 462.791 -1.90734 0.0503445 0
M  V30 4790 C 459.931 -3.40671 0.551133 0
M  V30 4791 C 459.044 -3.97326 1.69576 0
M  V30 4792 C 458.179 -5.17043 1.2182 0
M  V30 4793 C 457.218 -5.65813 2.335 0
M  V30 4794 N 456.355 -6.76778 1.86859 0
M  V30 4795 H 461.195 -2.28806 1.90924 0
M  V30 4796 H 458.732 -1.12186 0.951452 0
M  V30 4797 H 460.69 -4.16225 0.285097 0
M  V30 4798 H 459.32 -3.20967 -0.343489 0
M  V30 4799 H 458.372 -3.18734 2.07637 0
M  V30 4800 H 459.684 -4.29511 2.53617 0
M  V30 4801 H 458.838 -5.99852 0.908975 0
M  V30 4802 H 457.577 -4.86458 0.347869 0
M  V30 4803 H 456.582 -4.81599 2.65222 0
M  V30 4804 H 457.807 -5.98427 3.21033 0
M  V30 4805 H 455.753 -6.47994 1.02174 0
M  V30 4806 H 455.67 -7.08231 2.64471 0
M  V30 4807 H 456.938 -7.63116 1.58978 0
M  V30 4808 N 461.167 -1.02423 -1.1978 0
M  V30 4809 C 462.097 -0.62157 -2.25075 0
M  V30 4810 C 463.078 0.367148 -1.6609 0
M  V30 4811 O 464.263 0.250892 -1.92573 0
M  V30 4812 C 461.393 0.0331826 -3.47284 0
M  V30 4813 C 460.347 -0.877323 -4.18912 0
M  V30 4814 C 459.673 -0.0879296 -5.34628 0
M  V30 4815 C 460.973 -2.18892 -4.74219 0
M  V30 4816 H 462.667 -1.50179 -2.59011 0
M  V30 4817 H 460.213 -0.723547 -1.24502 0
M  V30 4818 H 462.166 0.326488 -4.20133 0
M  V30 4819 H 460.89 0.948164 -3.12534 0
M  V30 4820 H 459.549 -1.15475 -3.47938 0
M  V30 4821 H 459.197 0.828941 -4.96123 0
M  V30 4822 H 458.897 -0.694359 -5.83483 0
M  V30 4823 H 460.421 0.198743 -6.10276 0
M  V30 4824 H 461.835 -1.95746 -5.38847 0
M  V30 4825 H 460.232 -2.74686 -5.33542 0
M  V30 4826 H 461.302 -2.84674 -3.92541 0
M  V30 4827 N 462.645 1.35699 -0.801477 0
M  V30 4828 C 463.575 2.32436 -0.222658 0
M  V30 4829 C 464.556 1.5723 0.649057 0
M  V30 4830 O 465.741 1.85324 0.580387 0
M  V30 4831 C 462.871 3.41469 0.633719 0
M  V30 4832 C 461.825 4.27774 -0.139083 0
M  V30 4833 C 461.151 5.28082 0.838666 0
M  V30 4834 C 462.451 5.04946 -1.33517 0
M  V30 4835 H 464.145 2.81094 -1.03086 0
M  V30 4836 H 461.691 1.35146 -0.497155 0
M  V30 4837 H 463.644 4.08143 1.04868 0
M  V30 4838 H 462.368 2.91408 1.47475 0
M  V30 4839 H 461.027 3.62673 -0.535156 0
M  V30 4840 H 460.675 4.7429 1.67506 0
M  V30 4841 H 460.375 5.86695 0.32594 0
M  V30 4842 H 461.899 5.97628 1.25194 0
M  V30 4843 H 463.313 5.64593 -0.995349 0
M  V30 4844 H 461.71 5.7303 -1.78202 0
M  V30 4845 H 462.78 4.35886 -2.12442 0
M  V30 4846 N 464.123 0.554532 1.47522 0
M  V30 4847 C 465.033 -0.197865 2.33764 0
M  V30 4848 C 466.049 -0.914576 1.48025 0
M  V30 4849 O 467.225 -0.884067 1.80959 0
M  V30 4850 C 464.29 -1.21628 3.24665 0
M  V30 4851 C 463.351 -0.507283 4.26292 0
M  V30 4852 C 462.584 -1.47718 5.1285 0
M  V30 4853 O 462.807 -2.7118 5.01814 0
M  V30 4854 O 461.741 -1.00313 5.93482 0
M  V30 4855 H 465.567 0.50949 2.99396 0
M  V30 4856 H 463.152 0.315176 1.46038 0
M  V30 4857 H 465.034 -1.80421 3.80823 0
M  V30 4858 H 463.709 -1.9056 2.61665 0
M  V30 4859 H 462.616 0.121778 3.73902 0
M  V30 4860 H 463.949 0.140544 4.91999 0
M  V30 4861 N 465.601 -1.54893 0.290851 0
M  V30 4862 C 466.548 -2.23138 -0.58974 0
M  V30 4863 C 467.518 -1.21036 -1.13752 0
M  V30 4864 O 468.703 -1.49626 -1.18392 0
M  V30 4865 C 465.843 -2.96811 -1.76061 0
M  V30 4866 C 464.956 -4.13665 -1.24519 0
M  V30 4867 C 464.091 -4.74944 -2.3791 0
M  V30 4868 C 463.13 -5.83963 -1.83451 0
M  V30 4869 N 462.267 -6.39239 -2.90376 0
M  V30 4870 H 467.107 -2.98 -0.00114915 0
M  V30 4871 H 464.644 -1.47096 0.0112006 0
M  V30 4872 H 466.602 -3.37751 -2.44909 0
M  V30 4873 H 465.232 -2.24344 -2.32098 0
M  V30 4874 H 464.284 -3.77737 -0.449288 0
M  V30 4875 H 465.596 -4.92238 -0.806424 0
M  V30 4876 H 464.75 -5.18684 -3.14724 0
M  V30 4877 H 463.489 -3.95682 -2.85109 0
M  V30 4878 H 462.494 -5.39657 -1.05122 0
M  V30 4879 H 463.719 -6.65103 -1.37169 0
M  V30 4880 H 461.665 -5.62864 -3.36927 0
M  V30 4881 H 461.582 -7.13129 -2.50965 0
M  V30 4882 H 462.85 -6.87637 -3.67118 0
M  V30 4883 N 467.08 -0.0183926 -1.57589 0
M  V30 4884 C 468.305 0.676634 -1.96052 0
M  V30 4885 C 468.73 1.6548 -0.894307 0
M  V30 4886 O 468.088 1.80712 0.145849 0
M  V30 4887 C 468.136 1.36872 -3.33614 0
M  V30 4888 O 467.24 2.48372 -3.29219 0
M  V30 4889 H 466.581 0.1786 -0.63953 0
M  V30 4890 H 469.111 -0.077056 -2.04455 0
M  V30 4891 H 469.121 1.72797 -3.69601 0
M  V30 4892 H 467.796 0.651636 -4.10763 0
M  V30 4893 H 466.373 2.14639 -3.04934 0
M  V30 4894 N 468.558 1.5553 0.254621 0
M  V30 4895 C 469.506 1.9048 1.33492 0
M  V30 4896 C 470.5 0.78304 1.50216 0
M  V30 4897 O 471.706 0.967582 1.51782 0
M  V30 4898 H 468.081 0.604846 0.44684 0
M  V30 4899 H 470.052 2.80688 1.01275 0
M  V30 4900 C 468.801 2.20928 2.68489 0
M  V30 4901 H 468.124 3.06742 2.56417 0
M  V30 4902 H 469.564 2.49291 3.42972 0
M  V30 4903 C 468.023 1.023 3.20993 0
M  V30 4904 O 468.553 0.267027 4.00811 0
M  V30 4905 N 466.759 0.815714 2.78917 0
M  V30 4906 H 466.306 1.43217 2.14119 0
M  V30 4907 H 466.264 0.0236532 3.14391 0
M  V30 4908 N 470.036 -0.519951 1.48776 0
M  V30 4909 C 471.447 -1.10177 1.50725 0
M  V30 4910 C 471.798 -1.94153 0.282678 0
M  V30 4911 O 470.923 -2.07645 -0.609298 0
M  V30 4912 C 471.518 -2.00482 2.73116 0
M  V30 4913 C 470.077 -2.53862 2.77905 0
M  V30 4914 C 469.224 -1.31047 2.44381 0
M  V30 4915 H 472.175 -0.30473 1.55747 0
M  V30 4916 H 472.196 -2.8491 2.52203 0
M  V30 4917 H 471.708 -1.39335 3.62225 0
M  V30 4918 H 469.809 -3.18702 1.93029 0
M  V30 4919 H 469.922 -2.9231 3.79594 0
M  V30 4920 H 468.286 -1.62953 1.95751 0
M  V30 4921 H 469.069 -0.71637 3.35743 0
M  V30 4922 N 471.514 -1.37532 -0.769588 0
M  V30 4923 C 472.461 -1.3347 -1.88293 0
M  V30 4924 C 473.431 -0.199891 -1.64893 0
M  V30 4925 O 474.616 -0.389594 -1.8678 0
M  V30 4926 C 471.756 -1.14968 -3.25387 0
M  V30 4927 C 470.869 -2.37698 -3.60727 0
M  V30 4928 C 470.004 -2.12051 -4.8704 0
M  V30 4929 C 469.043 -3.30636 -5.15117 0
M  V30 4930 N 468.18 -3.04527 -6.3262 0
M  V30 4931 H 473.02 -2.28658 -1.911 0
M  V30 4932 H 470.557 -1.13622 -0.934257 0
M  V30 4933 H 472.515 -1.02261 -4.04473 0
M  V30 4934 H 471.145 -0.234263 -3.21949 0
M  V30 4935 H 470.197 -2.61137 -2.76608 0
M  V30 4936 H 471.509 -3.26131 -3.77413 0
M  V30 4937 H 470.663 -1.96388 -5.74035 0
M  V30 4938 H 469.402 -1.20959 -4.72462 0
M  V30 4939 H 468.407 -3.46836 -4.26597 0
M  V30 4940 H 469.632 -4.22582 -5.31603 0
M  V30 4941 H 467.578 -2.16067 -6.19396 0
M  V30 4942 H 467.495 -3.86503 -6.49732 0
M  V30 4943 H 468.763 -2.92485 -7.22546 0
M  V30 4944 N 472.992 0.995999 -1.22138 0
M  V30 4945 C 474.241 1.72928 -1.03821 0
M  V30 4946 C 474.554 1.90872 0.427444 0
M  V30 4947 O 475.76 2.61496 0.730212 0
M  V30 4948 C 474.216 3.11124 -1.80913 0
M  V30 4949 C 473.824 3.01122 -3.31707 0
M  V30 4950 C 475.568 3.8852 -1.71035 0
M  V30 4951 C 473.475 4.34453 -4.01253 0
M  V30 4952 H 472.405 0.648376 -0.384869 0
M  V30 4953 H 475.056 1.11213 -1.45959 0
M  V30 4954 H 473.438 3.73503 -1.31573 0
M  V30 4955 H 474.612 2.47926 -3.88419 0
M  V30 4956 H 472.927 2.3721 -3.42228 0
M  V30 4957 H 475.524 4.872 -2.20318 0
M  V30 4958 H 475.867 4.1087 -0.670196 0
M  V30 4959 H 476.4 3.32812 -2.17902 0
M  V30 4960 H 473.139 4.17303 -5.05508 0
M  V30 4961 H 472.659 4.87574 -3.49331 0
M  V30 4962 H 474.338 5.03215 -4.06674 0
M  V30 4963 N 474.47 1.03057 1.19235 0
M  V30 4964 C 475.881 0.757449 1.70645 0
M  V30 4965 C 476.232 -0.722735 1.82403 0
M  V30 4966 O 475.357 -1.56325 1.49638 0
M  V30 4967 C 475.952 1.36833 3.09939 0
M  V30 4968 C 474.511 1.14375 3.58602 0
M  V30 4969 C 473.658 1.46533 2.35422 0
M  V30 4970 H 476.609 1.19828 1.04052 0
M  V30 4971 H 476.63 0.766184 3.72706 0
M  V30 4972 H 476.142 2.44562 3.01349 0
M  V30 4973 H 474.243 0.0847542 3.72504 0
M  V30 4974 H 474.356 1.83366 4.42622 0
M  V30 4975 H 472.72 0.884712 2.38841 0
M  V30 4976 H 473.503 2.55349 2.2946 0
M  V30 4977 N 475.948 -1.35272 0.808662 0
M  V30 4978 C 476.895 -2.29764 0.218482 0
M  V30 4979 C 477.865 -1.52911 -0.648652 0
M  V30 4980 O 479.05 -1.81341 -0.593297 0
M  V30 4981 C 476.19 -3.39388 -0.625282 0
M  V30 4982 C 475.303 -4.31202 0.262516 0
M  V30 4983 C 474.438 -5.27919 -0.589451 0
M  V30 4984 C 473.477 -6.11371 0.298617 0
M  V30 4985 N 472.614 -7.0022 -0.513443 0
M  V30 4986 H 477.454 -2.79645 1.02968 0
M  V30 4987 H 474.991 -1.37629 0.519303 0
M  V30 4988 H 476.949 -4.01615 -1.12966 0
M  V30 4989 H 475.579 -2.90777 -1.40173 0
M  V30 4990 H 474.631 -3.69962 0.885013 0
M  V30 4991 H 475.943 -4.89748 0.945971 0
M  V30 4992 H 475.097 -5.95529 -1.15888 0
M  V30 4993 H 473.836 -4.69875 -1.30647 0
M  V30 4994 H 472.841 -5.42707 0.880301 0
M  V30 4995 H 474.066 -6.71494 1.01352 0
M  V30 4996 H 472.012 -6.44662 -1.21439 0
M  V30 4997 H 471.929 -7.55917 0.111922 0
M  V30 4998 H 473.197 -7.72175 -1.06608 0
M  V30 4999 N 477.426 -0.562348 -1.47226 0
M  V30 5000 C 478.675 -0.038041 -2.01664 0
M  V30 5001 C 478.988 1.32199 -1.44162 0
M  V30 5002 O 480.194 1.9365 -1.90294 0
M  V30 5003 C 478.65 -0.0174958 -3.59896 0
M  V30 5004 C 478.258 -1.3746 -4.2639 0
M  V30 5005 C 480.002 0.453934 -4.22066 0
M  V30 5006 C 477.909 -1.31289 -5.76643 0
M  V30 5007 H 476.839 -0.0104511 -0.753928 0
M  V30 5008 H 479.49 -0.710966 -1.69167 0
M  V30 5009 H 477.872 0.721182 -3.89378 0
M  V30 5010 H 479.046 -2.1314 -4.08544 0
M  V30 5011 H 477.361 -1.78438 -3.7623 0
M  V30 5012 H 479.958 0.518584 -5.32179 0
M  V30 5013 H 480.301 1.46706 -3.89594 0
M  V30 5014 H 480.834 -0.230044 -3.97134 0
M  V30 5015 H 477.573 -2.30217 -6.13743 0
M  V30 5016 H 477.093 -0.597973 -5.96812 0
M  V30 5017 H 478.772 -1.01713 -6.38955 0
M  V30 5018 N 478.904 1.54736 -0.299062 0
M  V30 5019 C 480.15 2.00397 0.311244 0
M  V30 5020 C 480.483 1.18716 1.53688 0
M  V30 5021 O 479.758 0.263154 1.92712 0
M  V30 5022 C 480.041 3.53817 0.669761 0
M  V30 5023 C 479.894 4.46239 -0.564882 0
M  V30 5024 C 481.213 4.13856 1.49702 0
M  V30 5025 H 478.332 0.728493 0.111653 0
M  V30 5026 H 480.974 1.85506 -0.410774 0
M  V30 5027 H 479.124 3.66637 1.28491 0
M  V30 5028 H 480.796 4.45328 -1.20337 0
M  V30 5029 H 479.039 4.16916 -1.19849 0
M  V30 5030 H 479.71 5.5134 -0.269918 0
M  V30 5031 H 482.186 4.04461 0.977284 0
M  V30 5032 H 481.062 5.21365 1.71666 0
M  V30 5033 H 481.323 3.65608 2.48563 0
M  V30 5034 N 480.382 0.0267497 1.57577 0
M  V30 5035 C 481.345 -0.940916 2.08996 0
M  V30 5036 C 482.345 -1.25561 1.00455 0
M  V30 5037 O 483.535 -1.19634 1.26623 0
M  V30 5038 C 480.667 -2.25814 2.55384 0
M  V30 5039 H 481.86 -0.495628 2.95776 0
M  V30 5040 H 479.413 -0.221241 1.54726 0
M  V30 5041 H 480.148 -2.74976 1.71926 0
M  V30 5042 H 479.933 -2.04285 3.34679 0
M  V30 5043 H 481.423 -2.95178 2.95398 0
M  V30 5044 N 481.861 -1.55662 -0.24637 0
M  V30 5045 C 483.108 -1.77519 -0.974335 0
M  V30 5046 C 483.436 -0.591165 -1.85298 0
M  V30 5047 O 482.691 0.425497 -1.91018 0
M  V30 5048 C 482.99 -3.04885 -1.86494 0
M  V30 5049 C 482.656 -4.36209 -1.14161 0
M  V30 5050 C 481.318 -4.71896 -0.941701 0
M  V30 5051 C 483.67 -5.17391 -0.628957 0
M  V30 5052 C 480.998 -5.86299 -0.216852 0
M  V30 5053 C 483.35 -6.32546 0.0824273 0
M  V30 5054 C 482.014 -6.66853 0.293807 0
M  V30 5055 H 481.284 -0.649588 -0.356535 0
M  V30 5056 H 483.931 -1.89934 -0.244394 0
M  V30 5057 H 482.236 -2.87484 -2.66196 0
M  V30 5058 H 483.933 -3.18994 -2.42989 0
M  V30 5059 H 480.523 -4.08174 -1.30736 0
M  V30 5060 H 484.707 -4.90276 -0.770943 0
M  V30 5061 H 479.963 -6.11385 -0.0426124 0
M  V30 5062 H 484.137 -6.94693 0.487292 0
M  V30 5063 H 481.764 -7.55349 0.857428 0
M  V30 5064 N 483.339 0.512053 -1.4905 0
M  V30 5065 C 484.249 1.64139 -1.67617 0
M  V30 5066 C 485.265 1.64786 -0.558701 0
M  V30 5067 O 486.441 1.8341 -0.832034 0
M  V30 5068 C 483.506 3.00548 -1.72835 0
M  V30 5069 C 482.567 3.10615 -2.96339 0
M  V30 5070 C 481.8 4.40517 -3.01298 0
M  V30 5071 O 482.023 5.28671 -2.14157 0
M  V30 5072 O 480.957 4.55325 -3.93653 0
M  V30 5073 H 484.783 1.51407 -2.63267 0
M  V30 5074 H 482.368 0.687131 -1.32661 0
M  V30 5075 H 484.25 3.81641 -1.78683 0
M  V30 5076 H 482.925 3.13566 -0.803616 0
M  V30 5077 H 481.832 2.2875 -2.96014 0
M  V30 5078 H 483.165 3.0252 -3.88256 0
M  V30 5079 N 484.817 1.37938 0.762283 0
M  V30 5080 C 486.045 1.36883 1.55147 0
M  V30 5081 C 486.46 -0.0435348 1.8875 0
M  V30 5082 O 485.817 -1.00786 1.52146 0
M  V30 5083 C 485.868 2.21624 2.85596 0
M  V30 5084 O 485.589 3.57358 2.5343 0
M  V30 5085 C 487.09 2.28653 3.7978 0
M  V30 5086 H 484.31 0.468521 0.480343 0
M  V30 5087 H 486.854 1.81404 0.944079 0
M  V30 5088 H 485.009 1.80588 3.42734 0
M  V30 5089 H 485.423 4.01883 3.37032 0
M  V30 5090 H 486.897 2.9225 4.68288 0
M  V30 5091 H 487.374 1.29767 4.19592 0
M  V30 5092 H 487.98 2.70043 3.28568 0
M  V30 5093 N 486.295 -0.989507 1.22664 0
M  V30 5094 C 487.541 -1.7321 1.05481 0
M  V30 5095 C 487.874 -1.89852 -0.408635 0
M  V30 5096 O 487.149 -1.44416 -1.30285 0
M  V30 5097 C 487.432 -3.1357 1.77047 0
M  V30 5098 C 487.285 -3.04555 3.31008 0
M  V30 5099 C 488.604 -4.12812 1.5256 0
M  V30 5100 H 485.723 -0.628697 0.384589 0
M  V30 5101 H 488.365 -1.15258 1.51049 0
M  V30 5102 H 486.515 -3.63046 1.3831 0
M  V30 5103 H 488.187 -2.62674 3.7921 0
M  V30 5104 H 486.43 -2.41278 3.6051 0
M  V30 5105 H 487.101 -4.03894 3.76263 0
M  V30 5106 H 489.577 -3.72106 1.86215 0
M  V30 5107 H 488.453 -5.09132 2.05124 0
M  V30 5108 H 488.714 -4.39711 0.458936 0
M  V30 5109 N 487.773 -1.03688 -1.18687 0
M  V30 5110 C 488.723 -0.595067 -2.20098 0
M  V30 5111 C 489.707 0.360465 -1.5681 0
M  V30 5112 O 490.899 0.180136 -1.76081 0
M  V30 5113 C 488.028 0.0444495 -3.43271 0
M  V30 5114 C 487.114 -0.934002 -4.13687 0
M  V30 5115 N 487.505 -2.09957 -4.60165 0
M  V30 5116 C 485.803 -0.759177 -4.39491 0
M  V30 5117 C 486.504 -2.71735 -5.1433 0
M  V30 5118 N 485.48 -1.99638 -5.05614 0
M  V30 5119 H 489.282 -1.48336 -2.5372 0
M  V30 5120 H 486.796 -0.904949 -1.3485 0
M  V30 5121 H 488.793 0.37864 -4.15177 0
M  V30 5122 H 487.453 0.928325 -3.11147 0
M  V30 5123 H 488.464 -2.47863 -4.54735 0
M  V30 5124 H 485.141 0.0749292 -4.17433 0
M  V30 5125 H 486.531 -3.70492 -5.60523 0
M  V30 5126 N 489.251 1.34841 -0.815825 0
M  V30 5127 C 490.476 2.03261 -0.41226 0
M  V30 5128 C 490.901 1.61055 0.971751 0
M  V30 5129 O 490.259 0.7917 1.63101 0
M  V30 5130 C 490.307 3.56914 -0.514289 0
M  V30 5131 O 489.411 4.09728 0.468675 0
M  V30 5132 H 488.752 0.641664 -0.170771 0
M  V30 5133 H 491.282 1.72241 -1.10427 0
M  V30 5134 H 491.292 4.06156 -0.387457 0
M  V30 5135 H 489.967 3.86982 -1.52375 0
M  V30 5136 H 488.544 3.71681 0.301316 0
M  V30 5137 N 490.729 0.570148 1.46925 0
M  V30 5138 C 491.662 -0.218362 2.27153 0
M  V30 5139 C 492.64 -0.90847 1.34854 0
M  V30 5140 O 493.824 -0.924875 1.64251 0
M  V30 5141 C 490.951 -1.3122 3.12248 0
M  V30 5142 C 489.997 -0.729277 4.20219 0
M  V30 5143 S 490.83 0.434159 5.33737 0
M  V30 5144 C 491.986 -0.661188 6.22398 0
M  V30 5145 H 492.219 0.462393 2.93682 0
M  V30 5146 H 489.752 0.356753 1.50222 0
M  V30 5147 H 491.71 -1.93856 3.61842 0
M  V30 5148 H 490.371 -1.96485 2.45056 0
M  V30 5149 H 489.564 -1.5511 4.79538 0
M  V30 5150 H 489.166 -0.178836 3.73572 0
M  V30 5151 H 491.458 -1.55006 6.5953 0
M  V30 5152 H 492.401 -0.105046 7.08022 0
M  V30 5153 H 492.809 -0.959682 5.56283 0
M  V30 5154 N 492.207 -1.54576 0.307264 0
M  V30 5155 C 493.484 -1.92377 -0.353605 0
M  V30 5156 C 493.864 -1.23517 -1.71192 0
M  V30 5157 O 493.212 -0.373101 -2.25433 0
M  V30 5158 C 493.422 -3.45928 -0.462039 0
M  V30 5159 C 494.77 -4.18278 -0.729975 0
M  V30 5160 O 495.794 -3.51997 -0.545605 0
M  V30 5161 O 494.653 -5.3563 -1.08454 0
M  V30 5162 H 491.747 -0.802747 -0.198812 0
M  V30 5163 H 494.293 -1.65929 0.355783 0
M  V30 5164 H 493.065 -3.88187 0.492592 0
M  V30 5165 H 492.688 -3.78431 -1.21965 0
M  V30 5166 N 493.685 -0.035106 -1.57561 0
M  V30 5167 C 494.933 0.64096 -1.91667 0
M  V30 5168 C 495.254 1.72323 -0.912681 0
M  V30 5169 O 494.524 1.95849 0.0449089 0
M  V30 5170 H 493.104 0.239743 -0.707483 0
M  V30 5171 H 495.766 -0.084321 -1.94718 0
M  V30 5172 H 494.862 1.08987 -2.92452 0
M  V30 5173 N 495.163 1.55791 0.238111 0
M  V30 5174 C 496.126 1.90239 1.27835 0
M  V30 5175 C 497.126 0.779552 1.4064 0
M  V30 5176 O 498.316 1.04747 1.3919 0
M  V30 5177 C 495.448 2.13859 2.65475 0
M  V30 5178 H 496.641 2.83262 0.985034 0
M  V30 5179 H 494.194 1.48818 0.477799 0
M  V30 5180 H 494.929 1.23334 2.99932 0
M  V30 5181 H 494.714 2.95643 2.57561 0
M  V30 5182 H 496.204 2.41664 3.40571 0
M  V30 5183 N 496.642 -0.504142 1.49319 0
M  V30 5184 C 497.891 -1.25507 1.57895 0
M  V30 5185 C 498.204 -1.93735 0.269433 0
M  V30 5186 O 499.41 -2.70492 0.233706 0
M  V30 5187 C 497.866 -2.27869 2.78574 0
M  V30 5188 C 497.474 -1.65594 4.16272 0
M  V30 5189 C 499.218 -3.0381 2.96479 0
M  V30 5190 C 497.125 -2.66048 5.28178 0
M  V30 5191 H 496.055 -0.47212 0.587894 0
M  V30 5192 H 498.706 -0.52931 1.757 0
M  V30 5193 H 497.088 -3.03594 2.54257 0
M  V30 5194 H 498.262 -0.958826 4.50714 0
M  V30 5195 H 496.577 -1.02055 4.037 0
M  V30 5196 H 499.174 -3.78925 3.77253 0
M  V30 5197 H 499.517 -3.61235 2.06918 0
M  V30 5198 H 500.05 -2.352 3.20821 0
M  V30 5199 H 496.789 -2.13408 6.19788 0
M  V30 5200 H 496.309 -3.34009 4.98195 0
M  V30 5201 H 497.988 -3.28536 5.57381 0
M  V30 5202 N 498.12 -1.38341 -0.754957 0
M  V30 5203 C 499.36 -1.35888 -1.52689 0
M  V30 5204 C 499.724 0.0513682 -1.91931 0
M  V30 5205 O 500.925 0.200761 -2.68049 0
M  V30 5206 C 499.196 -2.28666 -2.74676 0
M  V30 5207 S 500.755 -2.4422 -3.64558 0
M  V30 5208 H 497.573 -0.482165 -0.522531 0
M  V30 5209 H 500.175 -1.74253 -0.886358 0
M  V30 5210 H 498.879 -3.30023 -2.43953 0
M  V30 5211 H 498.41 -1.91445 -3.43675 0
M  V30 5212 H 500.425 -1.66525 -4.67423 0
M  V30 5213 N 499.598 0.982988 -1.23187 0
M  V30 5214 C 501.009 1.53847 -1.05773 0
M  V30 5215 C 501.36 1.92568 0.375744 0
M  V30 5216 O 500.485 1.75783 1.26211 0
M  V30 5217 C 501.08 2.79567 -1.91384 0
M  V30 5218 C 499.639 3.31524 -1.78238 0
M  V30 5219 C 498.786 2.04534 -1.87246 0
M  V30 5220 H 501.737 0.802962 -1.36888 0
M  V30 5221 H 501.758 3.52317 -1.43711 0
M  V30 5222 H 501.27 2.51353 -2.95708 0
M  V30 5223 H 499.371 3.64623 -0.766875 0
M  V30 5224 H 499.484 4.01457 -2.61475 0
M  V30 5225 H 497.848 2.1855 -1.30797 0
M  V30 5226 H 498.631 1.78706 -2.9312 0
M  V30 5227 N 501.076 1.04316 1.18135 0
M  V30 5228 C 502.006 0.657299 2.24058 0
M  V30 5229 C 502.987 -0.340678 1.66654 0
M  V30 5230 O 504.172 -0.220223 1.92947 0
M  V30 5231 C 501.302 0.0220715 3.47293 0
M  V30 5232 C 500.256 0.943857 4.17463 0
M  V30 5233 C 499.582 0.172973 5.3442 0
M  V30 5234 C 500.882 2.26409 4.70677 0
M  V30 5235 H 502.576 1.5428 2.56589 0
M  V30 5236 H 500.122 0.743263 1.23335 0
M  V30 5237 H 502.075 -0.259607 4.206 0
M  V30 5238 H 500.799 -0.898323 3.14003 0
M  V30 5239 H 499.458 1.20996 3.46057 0
M  V30 5240 H 499.106 -0.749907 4.97379 0
M  V30 5241 H 498.806 0.787098 5.82304 0
M  V30 5242 H 500.33 -0.101628 6.10515 0
M  V30 5243 H 501.744 2.04294 5.35665 0
M  V30 5244 H 500.141 2.8314 5.29105 0
M  V30 5245 H 501.211 2.90883 3.87962 0
M  V30 5246 N 502.554 -1.34406 0.822964 0
M  V30 5247 C 503.464 -2.33298 0.246838 0
M  V30 5248 C 504.48 -1.62625 -0.618797 0
M  V30 5249 O 505.656 -1.94391 -0.526685 0
M  V30 5250 C 502.721 -3.41785 -0.581731 0
M  V30 5251 C 501.782 -4.28206 0.306309 0
M  V30 5252 C 501.015 -5.31512 -0.48281 0
M  V30 5253 O 501.238 -5.43973 -1.71607 0
M  V30 5254 O 500.172 -6.01749 0.134884 0
M  V30 5255 H 503.998 -2.84401 1.06534 0
M  V30 5256 H 501.583 -1.37466 0.585108 0
M  V30 5257 H 503.465 -4.08028 -1.05313 0
M  V30 5258 H 502.14 -2.92925 -1.37756 0
M  V30 5259 H 501.047 -3.64885 0.825199 0
M  V30 5260 H 502.38 -4.80507 1.06649 0
M  V30 5261 N 504.032 -0.577932 -1.46621 0
M  V30 5262 C 504.942 0.160651 -2.34049 0
M  V30 5263 C 505.958 0.890911 -1.49462 0
M  V30 5264 O 507.134 0.855166 -1.82343 0
M  V30 5265 C 504.199 1.16447 -3.26559 0
M  V30 5266 C 503.26 0.4394 -4.27045 0
M  V30 5267 C 502.493 1.3954 -5.15135 0
M  V30 5268 O 502.716 2.63162 -5.06065 0
M  V30 5269 O 501.65 0.908585 -5.95003 0
M  V30 5270 H 505.476 -0.557057 -2.98547 0
M  V30 5271 H 503.061 -0.338369 -1.45518 0
M  V30 5272 H 504.943 1.7434 -3.83645 0
M  V30 5273 H 503.618 1.86373 -2.64663 0
M  V30 5274 H 502.525 -0.181247 -3.73661 0
M  V30 5275 H 503.858 -0.218799 -4.91713 0
M  V30 5276 N 505.51 1.54411 -0.315457 0
M  V30 5277 C 506.44 2.27002 0.547039 0
M  V30 5278 C 507.421 1.27492 1.12605 0
M  V30 5279 O 508.606 1.5629 1.15269 0
M  V30 5280 C 505.736 3.02171 1.71201 0
M  V30 5281 C 504.69 4.0895 1.26268 0
M  V30 5282 C 504.016 4.71915 2.51396 0
M  V30 5283 C 505.316 5.20891 0.383419 0
M  V30 5284 H 507.01 2.99343 -0.0584517 0
M  V30 5285 H 504.556 1.4397 -0.0295527 0
M  V30 5286 H 506.509 3.51681 2.32161 0
M  V30 5287 H 505.233 2.27433 2.34397 0
M  V30 5288 H 503.892 3.60312 0.676062 0
M  V30 5289 H 503.54 3.93801 3.12937 0
M  V30 5290 H 503.24 5.44039 2.22026 0
M  V30 5291 H 504.764 5.24195 3.13133 0
M  V30 5292 H 506.178 5.66206 0.899082 0
M  V30 5293 H 504.575 5.99821 0.182857 0
M  V30 5294 H 505.645 4.81324 -0.587821 0
M  V30 5295 N 506.988 0.0434614 1.5754 0
M  V30 5296 C 508.228 -0.636023 1.94253 0
M  V30 5297 C 508.592 -1.68461 0.921132 0
M  V30 5298 O 509.793 -2.41762 1.17494 0
M  V30 5299 C 508.064 -1.22357 3.35803 0
M  V30 5300 S 509.623 -1.92213 3.94461 0
M  V30 5301 H 506.441 -0.209041 0.679575 0
M  V30 5302 H 509.043 0.110556 1.95187 0
M  V30 5303 H 507.747 -0.448162 4.07946 0
M  V30 5304 H 507.278 -2.00713 3.38346 0
M  V30 5305 H 509.293 -3.20199 3.79061 0
M  V30 5306 N 508.466 -1.55915 -0.229846 0
M  V30 5307 C 509.743 -1.6932 -0.979295 0
M  V30 5308 C 510.123 -0.588321 -2.02736 0
M  V30 5309 O 509.471 0.40586 -2.24867 0
M  V30 5310 C 509.681 -3.10305 -1.59724 0
M  V30 5311 C 511.029 -3.6945 -2.09264 0
M  V30 5312 O 512.053 -3.13214 -1.69633 0
M  V30 5313 O 510.912 -4.68072 -2.82082 0
M  V30 5314 H 508.006 -0.689314 -0.456919 0
M  V30 5315 H 510.552 -1.68238 -0.222283 0
M  V30 5316 H 509.324 -3.82177 -0.840039 0
M  V30 5317 H 508.947 -3.1547 -2.42001 0
M  V30 5318 N 509.944 0.496216 -1.49584 0
M  V30 5319 C 511.19 1.25189 -1.59548 0
M  V30 5320 C 511.523 1.9212 -0.283466 0
M  V30 5321 O 510.798 1.80947 0.713324 0
M  V30 5322 C 511.081 2.31516 -2.75812 0
M  V30 5323 C 510.934 1.69054 -4.16822 0
M  V30 5324 C 512.253 3.3304 -2.87702 0
M  V30 5325 H 509.372 0.45379 -0.580727 0
M  V30 5326 H 512.014 0.549327 -1.81886 0
M  V30 5327 H 510.164 2.91438 -2.56897 0
M  V30 5328 H 511.836 1.12923 -4.47265 0
M  V30 5329 H 510.079 0.994485 -4.22247 0
M  V30 5330 H 510.75 2.462 -4.94054 0
M  V30 5331 H 513.226 2.83114 -3.04936 0
M  V30 5332 H 512.102 4.04794 -3.7072 0
M  V30 5333 H 512.363 3.95655 -1.97255 0
M  V30 5334 N 511.423 1.38739 0.74761 0
M  V30 5335 C 512.648 1.38702 1.54197 0
M  V30 5336 C 513.073 -0.019664 1.8809 0
M  V30 5337 O 512.431 -1.00333 1.51006 0
M  V30 5338 C 512.479 2.25492 2.814 0
M  V30 5339 O 511.583 1.67613 3.76802 0
M  V30 5340 H 510.924 0.472863 0.466151 0
M  V30 5341 H 513.454 1.82577 0.923413 0
M  V30 5342 H 513.464 2.39561 3.30264 0
M  V30 5343 H 512.139 3.27727 2.56062 0
M  V30 5344 H 510.716 1.62718 3.35526 0
M  V30 5345 N 512.901 -0.976442 1.23707 0
M  V30 5346 C 513.851 -2.0544 0.988851 0
M  V30 5347 C 514.835 -1.60762 -0.0665901 0
M  V30 5348 O 516.027 -1.76396 0.14604 0
M  V30 5349 C 513.156 -3.38258 0.586223 0
M  V30 5350 C 512.242 -3.89523 1.67728 0
M  V30 5351 N 512.633 -4.13823 2.90834 0
M  V30 5352 C 510.931 -4.18097 1.55277 0
M  V30 5353 C 511.632 -4.55731 3.61502 0
M  V30 5354 N 510.608 -4.60394 2.8903 0
M  V30 5355 H 514.41 -2.22191 1.92376 0
M  V30 5356 H 511.924 -1.15954 1.13704 0
M  V30 5357 H 513.921 -4.15075 0.389658 0
M  V30 5358 H 512.581 -3.22898 -0.341594 0
M  V30 5359 H 513.592 -4.01529 3.271 0
M  V30 5360 H 510.269 -4.11719 0.692351 0
M  V30 5361 H 511.659 -4.83018 4.67059 0
M  V30 5362 N 514.379 -1.04941 -1.1758 0
M  V30 5363 C 515.311 -0.606174 -2.21039 0
M  V30 5364 C 516.324 0.328763 -1.59446 0
M  V30 5365 O 517.513 0.121895 -1.78083 0
M  V30 5366 C 514.613 0.133294 -3.38638 0
M  V30 5367 C 513.786 -0.811711 -4.29802 0
M  V30 5368 C 512.845 -0.113958 -5.26077 0
M  V30 5369 O 511.871 -0.747237 -5.64274 0
M  V30 5370 N 513.073 1.14953 -5.69004 0
M  V30 5371 H 515.838 -1.49606 -2.59689 0
M  V30 5372 H 513.399 -0.930997 -1.32454 0
M  V30 5373 H 515.391 0.610144 -4.00074 0
M  V30 5374 H 513.961 0.924816 -2.98607 0
M  V30 5375 H 513.181 -1.46824 -3.65837 0
M  V30 5376 H 514.469 -1.45326 -4.87604 0
M  V30 5377 H 513.867 1.68441 -5.40041 0
M  V30 5378 H 512.424 1.57049 -6.32597 0
M  V30 5379 N 515.857 1.33968 -0.830081 0
M  V30 5380 C 517.087 2.01987 -0.434142 0
M  V30 5381 C 517.495 1.62639 0.96671 0
M  V30 5382 O 516.838 0.831151 1.63822 0
M  V30 5383 C 516.9 3.5648 -0.465018 0
M  V30 5384 C 516.564 4.19176 -1.82045 0
M  V30 5385 C 517.561 4.39181 -2.78237 0
M  V30 5386 C 515.246 4.55792 -2.11089 0
M  V30 5387 C 517.24 4.94937 -4.01642 0
M  V30 5388 C 514.927 5.11258 -3.34752 0
M  V30 5389 C 515.925 5.30775 -4.29845 0
M  V30 5390 O 515.613 5.85064 -5.51322 0
M  V30 5391 H 515.345 0.653847 -0.171639 0
M  V30 5392 H 517.899 1.72066 -1.12171 0
M  V30 5393 H 516.129 3.8569 0.279284 0
M  V30 5394 H 517.818 4.05804 -0.0881334 0
M  V30 5395 H 518.584 4.11249 -2.57097 0
M  V30 5396 H 514.463 4.39901 -1.3787 0
M  V30 5397 H 518.007 5.10086 -4.75876 0
M  V30 5398 H 513.904 5.38619 -3.55753 0
M  V30 5399 H 514.672 6.03489 -5.5294 0
M  V30 5400 N 517.335 0.585699 1.46312 0
M  V30 5401 C 518.583 0.072278 2.01971 0
M  V30 5402 C 518.904 -1.29345 1.45928 0
M  V30 5403 O 518.174 -1.84973 0.645109 0
M  V30 5404 H 516.754 0.023729 0.746623 0
M  V30 5405 H 519.416 0.762155 1.7938 0
M  V30 5406 H 518.512 0.00552767 3.121 0
M  V30 5407 N 518.813 -1.54241 0.323641 0
M  V30 5408 C 519.776 -2.22997 -0.529602 0
M  V30 5409 C 520.776 -1.22345 -1.04347 0
M  V30 5410 O 521.966 -1.46924 -0.935889 0
M  V30 5411 C 519.098 -2.93409 -1.73562 0
M  V30 5412 H 520.291 -2.99815 0.0714518 0
M  V30 5413 H 517.844 -1.56121 0.0747258 0
M  V30 5414 H 518.579 -2.20729 -2.37591 0
M  V30 5415 H 518.364 -3.67217 -1.37456 0
M  V30 5416 H 519.854 -3.45794 -2.34128 0
M  V30 5417 N 520.291 -0.0518155 -1.57515 0
M  V30 5418 C 521.221 0.920283 -2.146 0
M  V30 5419 C 522.202 1.32406 -1.06783 0
M  V30 5420 O 523.387 1.39866 -1.34726 0
M  V30 5421 C 520.517 2.1949 -2.6915 0
M  V30 5422 C 519.471 1.93116 -3.81956 0
M  V30 5423 C 518.797 3.27037 -4.23026 0
M  V30 5424 C 520.097 1.25225 -5.07066 0
M  V30 5425 H 521.791 0.444801 -2.96077 0
M  V30 5426 H 519.337 0.212508 -1.42423 0
M  V30 5427 H 521.29 2.87894 -3.07725 0
M  V30 5428 H 520.014 2.69244 -1.84865 0
M  V30 5429 H 518.673 1.27123 -3.43854 0
M  V30 5430 H 518.321 3.74595 -3.3569 0
M  V30 5431 H 518.021 3.10189 -4.99056 0
M  V30 5432 H 519.545 3.96673 -4.64202 0
M  V30 5433 H 520.959 1.83666 -5.43083 0
M  V30 5434 H 519.356 1.18702 -5.88243 0
M  V30 5435 H 520.426 0.228382 -4.84362 0
M  V30 5436 N 521.769 1.56035 0.221574 0
M  V30 5437 C 522.997 1.8313 0.962864 0
M  V30 5438 C 523.412 0.630934 1.77946 0
M  V30 5439 O 522.769 -0.400519 1.78051 0
M  V30 5440 C 522.82 3.08742 1.88045 0
M  V30 5441 O 522.541 4.24147 1.09686 0
M  V30 5442 C 524.042 3.48824 2.73563 0
M  V30 5443 H 521.262 0.608775 0.282194 0
M  V30 5444 H 523.806 2.03124 0.23681 0
M  V30 5445 H 521.961 2.90723 2.56045 0
M  V30 5446 H 522.375 4.95505 1.71974 0
M  V30 5447 H 523.849 4.39752 3.3365 0
M  V30 5448 H 524.326 2.70575 3.45956 0
M  V30 5449 H 524.932 3.69282 2.10976 0
M  V30 5450 N 523.247 -0.488276 1.49845 0
M  V30 5451 C 524.494 -1.24157 1.59973 0
M  V30 5452 C 524.822 -1.92293 0.292182 0
M  V30 5453 O 524.077 -1.81942 -0.720813 0
M  V30 5454 C 524.376 -2.32152 2.71735 0
M  V30 5455 C 524.042 -1.81387 4.12807 0
M  V30 5456 C 522.704 -1.67262 4.51195 0
M  V30 5457 C 525.056 -1.43537 5.01045 0
M  V30 5458 C 522.384 -1.13685 5.7558 0
M  V30 5459 C 524.736 -0.914081 6.25961 0
M  V30 5460 C 523.4 -0.759327 6.63167 0
M  V30 5461 H 522.67 -0.454322 0.585383 0
M  V30 5462 H 525.317 -0.540261 1.83721 0
M  V30 5463 H 523.622 -3.08122 2.42008 0
M  V30 5464 H 525.319 -2.90164 2.76778 0
M  V30 5465 H 521.909 -1.93344 3.82513 0
M  V30 5466 H 526.093 -1.53292 4.72033 0
M  V30 5467 H 521.349 -1.00426 6.03096 0
M  V30 5468 H 525.523 -0.612066 6.93705 0
M  V30 5469 H 523.15 -0.342002 7.5943 0
M  V30 5470 N 524.725 -1.39134 -0.740242 0
M  V30 5471 C 525.971 -1.36273 -1.50192 0
M  V30 5472 C 526.304 0.0430136 -1.94152 0
M  V30 5473 O 525.579 1.00691 -1.66408 0
M  V30 5474 C 525.862 -2.33041 -2.74525 0
M  V30 5475 C 525.715 -3.82535 -2.36617 0
M  V30 5476 C 527.034 -2.27723 -3.76604 0
M  V30 5477 H 524.153 -0.496323 -0.544823 0
M  V30 5478 H 526.795 -1.70085 -0.846815 0
M  V30 5479 H 524.945 -2.04337 -3.30422 0
M  V30 5480 H 526.617 -4.21967 -1.86391 0
M  V30 5481 H 524.86 -3.99565 -1.68909 0
M  V30 5482 H 525.531 -4.45723 -3.2563 0
M  V30 5483 H 528.007 -2.53091 -3.30279 0
M  V30 5484 H 526.883 -2.97519 -4.61274 0
M  V30 5485 H 527.144 -1.28049 -4.2315 0
M  V30 5486 N 526.204 0.969867 -1.24223 0
M  V30 5487 C 527.481 1.68774 -0.988664 0
M  V30 5488 C 527.861 2.05342 0.489673 0
M  V30 5489 O 527.209 1.75486 1.46345 0
M  V30 5490 C 527.419 2.92135 -1.90941 0
M  V30 5491 C 528.767 3.64422 -2.17903 0
M  V30 5492 O 529.791 3.02188 -1.88576 0
M  V30 5493 O 528.65 4.76446 -2.67697 0
M  V30 5494 H 525.744 0.737736 -0.37373 0
M  V30 5495 H 528.29 1.02415 -1.35312 0
M  V30 5496 H 527.062 2.61788 -2.90831 0
M  V30 5497 H 526.685 3.66228 -1.54798 0
M  V30 5498 N 527.682 1.05563 1.17022 0
M  V30 5499 C 528.592 0.670758 2.24807 0
M  V30 5500 C 529.608 -0.309865 1.71219 0
M  V30 5501 O 530.784 -0.161025 2.00755 0
M  V30 5502 C 527.849 0.055337 3.46656 0
M  V30 5503 C 526.91 1.08688 4.15314 0
M  V30 5504 C 526.143 0.500736 5.31346 0
M  V30 5505 O 526.366 -0.688718 5.66227 0
M  V30 5506 O 525.3 1.23683 5.89055 0
M  V30 5507 H 529.126 1.56914 2.60023 0
M  V30 5508 H 526.711 0.827428 1.24395 0
M  V30 5509 H 528.593 -0.286492 4.20425 0
M  V30 5510 H 527.268 -0.816638 3.13229 0
M  V30 5511 H 526.175 1.48077 3.43546 0
M  V30 5512 H 527.508 1.93014 4.52777 0
M  V30 5513 N 529.16 -1.33526 0.837174 0
M  V30 5514 C 530.406 -1.9813 0.432704 0
M  V30 5515 C 530.739 -1.66168 -1.00508 0
M  V30 5516 O 530.014 -0.94069 -1.70239 0
M  V30 5517 C 530.297 -3.54151 0.651834 0
M  V30 5518 C 530.15 -3.95806 2.13676 0
M  V30 5519 C 531.469 -4.39993 0.0968937 0
M  V30 5520 H 528.588 -0.719713 0.15869 0
M  V30 5521 H 531.23 -1.58193 1.05237 0
M  V30 5522 H 529.38 -3.88301 0.124369 0
M  V30 5523 H 531.052 -3.71921 2.72896 0
M  V30 5524 H 529.295 -3.45599 2.62191 0
M  V30 5525 H 529.966 -5.0447 2.24084 0
M  V30 5526 H 532.442 -4.12479 0.547733 0
M  V30 5527 H 531.318 -5.48186 0.279917 0
M  V30 5528 H 531.579 -4.3066 -0.9992 0
M  V30 5529 N 530.638 -0.59345 -1.46 0
M  V30 5530 C 531.588 0.154751 -2.27474 0
M  V30 5531 C 532.572 0.851849 -1.365 0
M  V30 5532 O 533.764 0.744171 -1.60596 0
M  V30 5533 C 530.893 1.16079 -3.2308 0
M  V30 5534 C 529.979 0.465256 -4.2154 0
M  V30 5535 N 530.37 -0.485197 -5.03467 0
M  V30 5536 C 528.668 0.714634 -4.40237 0
M  V30 5537 C 529.369 -0.892709 -5.74809 0
M  V30 5538 N 528.345 -0.239511 -5.43072 0
M  V30 5539 H 532.147 -0.57546 -2.88211 0
M  V30 5540 H 529.661 -0.416046 -1.5698 0
M  V30 5541 H 531.658 1.71108 -3.80168 0
M  V30 5542 H 530.318 1.89171 -2.63903 0
M  V30 5543 H 531.329 -0.861258 -5.10689 0
M  V30 5544 H 528.006 1.43131 -3.92199 0
M  V30 5545 H 529.396 -1.67581 -6.50666 0
M  V30 5546 N 532.116 1.54067 -0.331816 0
M  V30 5547 C 533.079 2.23275 0.517768 0
M  V30 5548 C 534.079 1.22897 1.03697 0
M  V30 5549 O 535.269 1.47419 0.928084 0
M  V30 5550 C 532.401 2.94326 1.72004 0
M  V30 5551 H 533.594 2.99773 -0.0873507 0
M  V30 5552 H 531.147 1.56079 -0.0830042 0
M  V30 5553 H 531.882 2.21986 2.36417 0
M  V30 5554 H 531.667 3.67941 1.35507 0
M  V30 5555 H 533.157 3.47031 2.32291 0
M  V30 5556 N 533.594 0.0601682 1.57485 0
M  V30 5557 C 534.84 -0.612501 1.93329 0
M  V30 5558 C 535.173 -1.6996 0.939526 0
M  V30 5559 O 534.448 -1.94472 -0.0330957 0
M  V30 5560 C 534.731 -1.20025 3.39508 0
M  V30 5561 C 534.584 -0.12059 4.49638 0
M  V30 5562 C 535.903 -2.10923 3.86264 0
M  V30 5563 H 533.022 -0.221185 0.703027 0
M  V30 5564 H 535.664 0.123768 1.89596 0
M  V30 5565 H 533.814 -1.82774 3.42821 0
M  V30 5566 H 535.486 0.51185 4.58452 0
M  V30 5567 H 533.729 0.550251 4.30296 0
M  V30 5568 H 534.4 -0.572019 5.49028 0
M  V30 5569 H 536.876 -1.58124 3.84884 0
M  V30 5570 H 535.752 -2.48987 4.8918 0
M  V30 5571 H 536.013 -3.01292 3.23536 0
M  V30 5572 N 535.072 -1.5615 -0.213296 0
M  V30 5573 C 536.32 -1.79191 -0.934612 0
M  V30 5574 C 536.641 -0.630112 -1.84539 0
M  V30 5575 O 535.911 0.35257 -1.92701 0
M  V30 5576 H 534.491 -0.660937 -0.348097 0
M  V30 5577 H 537.153 -1.93618 -0.22317 0
M  V30 5578 H 536.249 -2.71656 -1.53654 0
M  V30 5579 N 536.55 0.480323 -1.50102 0
M  V30 5580 C 537.48 1.58769 -1.71215 0
M  V30 5581 C 538.461 1.60583 -0.560997 0
M  V30 5582 O 539.646 1.76996 -0.799127 0
M  V30 5583 C 536.776 2.97148 -1.79778 0
M  V30 5584 C 535.73 3.10201 -2.94888 0
M  V30 5585 C 535.056 4.50137 -2.88584 0
M  V30 5586 C 536.356 2.88283 -4.35534 0
M  V30 5587 H 538.05 1.41354 -2.6393 0
M  V30 5588 H 535.596 0.678591 -1.27008 0
M  V30 5589 H 537.549 3.74536 -1.93133 0
M  V30 5590 H 536.273 3.15699 -0.836772 0
M  V30 5591 H 534.932 2.35244 -2.81169 0
M  V30 5592 H 534.58 4.65593 -1.90349 0
M  V30 5593 H 534.28 4.59808 -3.65856 0
M  V30 5594 H 535.804 5.29558 -3.03976 0
M  V30 5595 H 537.218 3.55427 -4.49827 0
M  V30 5596 H 535.615 3.09408 -5.14186 0
M  V30 5597 H 536.685 1.84219 -4.48544 0
M  V30 5598 N 538.028 1.39524 0.732853 0
M  V30 5599 C 539.258 1.3994 1.51988 0
M  V30 5600 C 539.666 -0.00727973 1.89199 0
M  V30 5601 O 539.009 -0.989521 1.54771 0
M  V30 5602 C 539.071 2.21026 2.83527 0
M  V30 5603 C 538.735 3.69633 2.68738 0
M  V30 5604 C 539.732 4.62665 2.37143 0
M  V30 5605 C 537.417 4.13244 2.85542 0
M  V30 5606 C 539.411 5.97291 2.22536 0
M  V30 5607 C 537.098 5.47945 2.70554 0
M  V30 5608 C 538.096 6.39783 2.39097 0
M  V30 5609 O 537.784 7.72002 2.24204 0
M  V30 5610 H 537.516 0.479795 0.476206 0
M  V30 5611 H 540.07 1.8399 0.913054 0
M  V30 5612 H 538.3 1.71728 3.46477 0
M  V30 5613 H 539.989 2.13594 3.45156 0
M  V30 5614 H 540.755 4.30272 2.2381 0
M  V30 5615 H 536.634 3.42094 3.09019 0
M  V30 5616 H 540.178 6.68939 1.97905 0
M  V30 5617 H 536.075 5.79928 2.83466 0
M  V30 5618 H 536.843 7.8275 2.39258 0
M  V30 5619 N 539.506 -0.963266 1.24736 0
M  V30 5620 C 540.754 -1.70343 1.08755 0
M  V30 5621 C 541.075 -1.91387 -0.373619 0
M  V30 5622 O 540.345 -1.4948 -1.2662 0
M  V30 5623 H 538.925 -0.631224 0.399456 0
M  V30 5624 H 541.587 -1.15859 1.56725 0
M  V30 5625 H 540.683 -2.68616 1.58909 0
M  V30 5626 N 540.985 -1.06182 -1.16461 0
M  V30 5627 C 542.21 -0.798599 -1.91408 0
M  V30 5628 C 542.635 0.640987 -1.76842 0
M  V30 5629 O 541.993 1.44652 -1.09296 0
M  V30 5630 C 542.041 -1.19665 -3.40165 0
M  V30 5631 O 541.145 -0.334768 -4.11039 0
M  V30 5632 H 540.486 -0.291961 -0.596368 0
M  V30 5633 H 543.016 -1.41732 -1.47557 0
M  V30 5634 H 543.026 -1.16772 -3.90933 0
M  V30 5635 H 541.701 -2.24526 -3.50087 0
M  V30 5636 H 540.278 -0.425168 -3.70468 0
M  V30 5637 N 542.463 1.3308 -0.844243 0
M  V30 5638 C 543.879 1.50447 -0.532729 0
M  V30 5639 C 544.079 1.78292 0.938837 0
M  V30 5640 O 543.135 1.84635 1.72239 0
M  V30 5641 C 544.448 2.65555 -1.41072 0
M  V30 5642 C 545.996 2.7944 -1.41005 0
M  V30 5643 C 546.471 3.97616 -2.27301 0
M  V30 5644 N 547.962 4.0486 -2.2504 0
M  V30 5645 C 548.697 4.95508 -2.88547 0
M  V30 5646 N 548.193 5.91236 -3.61126 0
M  V30 5647 N 549.986 4.88548 -2.77989 0
M  V30 5648 H 542.137 1.13269 -1.79677 0
M  V30 5649 H 544.4 0.55734 -0.766861 0
M  V30 5650 H 544.106 2.51675 -2.45668 0
M  V30 5651 H 543.98 3.61089 -1.09061 0
M  V30 5652 H 546.367 2.92749 -0.371784 0
M  V30 5653 H 546.448 1.8465 -1.77026 0
M  V30 5654 H 546.092 3.85066 -3.3119 0
M  V30 5655 H 546.022 4.91661 -1.88619 0
M  V30 5656 H 548.513 3.36353 -1.72264 0
M  V30 5657 H 548.826 6.57079 -4.06776 0
M  V30 5658 H 547.171 5.91295 -3.65234 0
M  V30 5659 H 550.362 4.12729 -2.20846 0
M  V30 5660 H 550.535 5.58994 -3.27765 0
M  V30 5661 N 543.941 0.601185 1.45683 0
M  V30 5662 C 545.189 0.0936957 2.01883 0
M  V30 5663 C 545.51 -1.2779 1.47291 0
M  V30 5664 O 544.78 -1.84279 0.664691 0
M  V30 5665 H 543.36 0.0316466 0.746329 0
M  V30 5666 H 546.022 0.781137 1.78562 0
M  V30 5667 H 545.118 0.0386297 3.12076 0
M  V30 5668 N 545.419 -1.53889 0.339982 0
M  V30 5669 C 546.382 -2.23547 -0.50592 0
M  V30 5670 C 547.382 -1.23445 -1.03044 0
M  V30 5671 O 548.572 -1.47909 -0.920253 0
M  V30 5672 C 545.704 -2.95234 -1.7044 0
M  V30 5673 H 546.897 -2.99722 0.103247 0
M  V30 5674 H 544.45 -1.56033 0.0912804 0
M  V30 5675 H 545.185 -2.23236 -2.35236 0
M  V30 5676 H 544.97 -3.68654 -1.33553 0
M  V30 5677 H 546.46 -3.48258 -2.30447 0
M  V30 5678 N 546.897 -0.0685191 -1.57451 0
M  V30 5679 C 548.145 0.60016 -1.92983 0
M  V30 5680 C 548.466 1.70348 -0.949028 0
M  V30 5681 O 547.736 1.959 0.00335647 0
M  V30 5682 H 546.316 0.224682 -0.712409 0
M  V30 5683 H 548.978 -0.125605 -1.94495 0
M  V30 5684 H 548.074 1.02759 -2.94698 0
M  V30 5685 N 548.375 1.56261 0.205012 0
M  V30 5686 C 549.624 1.79236 0.925058 0
M  V30 5687 C 549.937 0.640011 1.84833 0
M  V30 5688 O 551.143 0.753809 2.60826 0
M  V30 5689 C 549.599 3.17475 1.69522 0
M  V30 5690 C 549.207 4.40482 0.817269 0
M  V30 5691 C 550.951 3.49766 2.4055 0
M  V30 5692 C 548.858 5.69744 1.58573 0
M  V30 5693 H 547.788 0.668287 0.349153 0
M  V30 5694 H 550.439 1.82629 0.178544 0
M  V30 5695 H 548.821 3.08304 2.48526 0
M  V30 5696 H 549.995 4.60752 0.0665988 0
M  V30 5697 H 548.31 4.15827 0.218316 0
M  V30 5698 H 550.907 4.43573 2.98575 0
M  V30 5699 H 551.25 2.73041 3.14252 0
M  V30 5700 H 551.783 3.60341 1.68522 0
M  V30 5701 H 548.522 6.49407 0.891679 0
M  V30 5702 H 548.042 5.53509 2.31059 0
M  V30 5703 H 549.721 6.1051 2.14212 0
M  V30 5704 N 549.853 -0.472356 1.50355 0
M  V30 5705 C 551.101 -1.22211 1.60962 0
M  V30 5706 C 551.422 -1.92497 0.311439 0
M  V30 5707 O 550.692 -1.8405 -0.671002 0
M  V30 5708 H 549.272 -0.454092 0.593135 0
M  V30 5709 H 551.934 -0.544977 1.87126 0
M  V30 5710 H 551.03 -1.9707 2.42012 0
M  V30 5711 N 551.331 -1.39911 -0.725443 0
M  V30 5712 C 552.241 -1.41688 -1.8698 0
M  V30 5713 C 553.257 -0.310579 -1.71206 0
M  V30 5714 O 554.433 -0.55359 -1.93642 0
M  V30 5715 C 551.498 -1.26811 -3.22676 0
M  V30 5716 C 550.559 -2.47497 -3.50776 0
M  V30 5717 C 549.792 -2.3332 -4.79997 0
M  V30 5718 O 550.015 -1.34175 -5.54394 0
M  V30 5719 O 548.949 -3.22498 -5.08211 0
M  V30 5720 H 552.775 -2.38171 -1.88436 0
M  V30 5721 H 550.36 -1.21128 -0.874548 0
M  V30 5722 H 552.242 -1.20684 -4.03749 0
M  V30 5723 H 550.917 -0.334289 -3.21969 0
M  V30 5724 H 549.824 -2.59201 -2.69751 0
M  V30 5725 H 551.157 -3.39606 -3.5627 0
M  V30 5726 N 552.809 0.956637 -1.25245 0
M  V30 5727 C 554.225 1.22733 -1.02023 0
M  V30 5728 C 554.425 1.99761 0.264186 0
M  V30 5729 O 553.481 2.32814 0.977436 0
M  V30 5730 C 554.794 2.00367 -2.24217 0
M  V30 5731 C 556.342 2.13418 -2.28958 0
M  V30 5732 C 556.817 2.9445 -3.50803 0
M  V30 5733 N 558.308 3.02029 -3.51187 0
M  V30 5734 C 559.043 3.65116 -4.42129 0
M  V30 5735 N 558.539 4.2983 -5.43339 0
M  V30 5736 N 560.332 3.62237 -4.29815 0
M  V30 5737 H 552.483 0.441282 -2.07765 0
M  V30 5738 H 554.746 0.257686 -0.912306 0
M  V30 5739 H 554.452 1.51165 -3.17556 0
M  V30 5740 H 554.326 3.01077 -2.27228 0
M  V30 5741 H 556.713 2.61819 -1.36143 0
M  V30 5742 H 556.794 1.1202 -2.29968 0
M  V30 5743 H 556.438 2.46741 -4.43939 0
M  V30 5744 H 556.368 3.9607 -3.47039 0
M  V30 5745 H 558.859 2.56007 -2.77973 0
M  V30 5746 H 559.172 4.75819 -6.08947 0
M  V30 5747 H 557.517 4.28465 -5.47214 0
M  V30 5748 H 560.708 3.10863 -3.49974 0
M  V30 5749 H 560.881 4.11117 -5.00886 0
M  V30 5750 N 554.287 1.06798 1.15896 0
M  V30 5751 C 555.564 0.701057 1.82605 0
M  V30 5752 C 555.944 -0.817066 1.94646 0
M  V30 5753 O 555.292 -1.72933 1.49353 0
M  V30 5754 C 555.502 1.40895 3.19296 0
M  V30 5755 C 556.85 1.55744 3.95005 0
M  V30 5756 O 557.874 1.36927 3.28831 0
M  V30 5757 O 556.733 1.86658 5.13635 0
M  V30 5758 H 553.827 0.248791 0.78869 0
M  V30 5759 H 556.373 1.16857 1.23055 0
M  V30 5760 H 555.145 2.4439 3.05596 0
M  V30 5761 H 554.768 0.931847 3.86526 0
M  V30 5762 N 555.766 -1.3263 0.851289 0
M  V30 5763 C 557.014 -1.96978 0.452128 0
M  V30 5764 C 557.335 -1.67715 -0.99482 0
M  V30 5765 O 556.605 -0.98259 -1.69476 0
M  V30 5766 H 555.185 -0.72873 0.164202 0
M  V30 5767 H 557.847 -1.61774 1.08698 0
M  V30 5768 H 556.943 -3.06387 0.594407 0
M  V30 5769 N 557.244 -0.608902 -1.45362 0
M  V30 5770 C 558.493 -0.10218 -2.01441 0
M  V30 5771 C 558.806 1.27546 -1.48295 0
M  V30 5772 O 560.012 1.87498 -1.96359 0
M  V30 5773 C 558.468 -0.131985 -3.59658 0
M  V30 5774 C 558.076 -1.50956 -4.21801 0
M  V30 5775 C 559.82 0.319427 -4.23296 0
M  V30 5776 C 557.727 -1.49568 -5.72174 0
M  V30 5777 H 556.657 -0.0344314 -0.753213 0
M  V30 5778 H 559.308 -0.764426 -1.6682 0
M  V30 5779 H 557.69 0.596939 -3.91475 0
M  V30 5780 H 558.864 -2.26029 -4.01556 0
M  V30 5781 H 557.179 -1.90318 -3.70362 0
M  V30 5782 H 559.776 0.349013 -5.3356 0
M  V30 5783 H 560.119 1.34237 -3.94064 0
M  V30 5784 H 560.652 -0.356273 -3.96201 0
M  V30 5785 H 557.391 -2.49626 -6.06108 0
M  V30 5786 H 556.911 -0.787542 -5.94607 0
M  V30 5787 H 558.59 -1.21989 -6.35396 0
M  V30 5788 N 558.722 1.53707 -0.348139 0
M  V30 5789 C 559.655 2.21481 0.549667 0
M  V30 5790 C 560.633 1.20046 1.09671 0
M  V30 5791 O 561.817 1.48883 1.15612 0
M  V30 5792 C 558.944 2.89585 1.75664 0
M  V30 5793 C 557.99 4.04948 1.33864 0
M  V30 5794 S 558.823 5.34325 0.354577 0
M  V30 5795 C 559.979 6.05934 1.56828 0
M  V30 5796 H 560.212 2.97289 -0.0259755 0
M  V30 5797 H 557.745 1.53833 -0.132216 0
M  V30 5798 H 559.703 3.29441 2.44906 0
M  V30 5799 H 558.364 2.13535 2.30351 0
M  V30 5800 H 557.557 4.51552 2.23868 0
M  V30 5801 H 557.159 3.66893 0.725651 0
M  V30 5802 H 559.451 6.29606 2.50205 0
M  V30 5803 H 560.394 6.98799 1.14395 0
M  V30 5804 H 560.802 5.36151 1.76642 0
M  V30 5805 N 560.2 0.0768682 1.57412 0
M  V30 5806 C 561.15 -0.898795 2.09537 0
M  V30 5807 C 562.134 -1.25556 1.0062 0
M  V30 5808 O 563.326 -1.23369 1.26921 0
M  V30 5809 C 560.455 -2.16453 2.66464 0
M  V30 5810 C 559.541 -1.83401 3.82393 0
M  V30 5811 N 559.932 -1.20823 4.91157 0
M  V30 5812 C 558.23 -2.13121 3.91785 0
M  V30 5813 C 558.931 -1.05976 5.71965 0
M  V30 5814 N 557.907 -1.57113 5.204 0
M  V30 5815 H 561.709 -0.410718 2.91016 0
M  V30 5816 H 559.223 -0.126878 1.61904 0
M  V30 5817 H 561.22 -2.87274 3.02125 0
M  V30 5818 H 559.88 -2.65844 1.86433 0
M  V30 5819 H 560.891 -0.877249 5.10416 0
M  V30 5820 H 557.568 -2.64854 3.22736 0
M  V30 5821 H 558.958 -0.571809 6.69462 0
M  V30 5822 N 561.678 -1.56367 -0.196722 0
M  V30 5823 C 562.625 -1.94417 -1.24382 0
M  V30 5824 C 563.595 -0.804543 -1.45315 0
M  V30 5825 O 564.78 -1.06256 -1.58475 0
M  V30 5826 C 561.92 -2.28757 -2.58388 0
M  V30 5827 C 561.033 -3.55775 -2.45047 0
M  V30 5828 C 560.168 -3.79445 -3.71746 0
M  V30 5829 C 559.207 -4.99894 -3.53231 0
M  V30 5830 N 558.344 -5.19826 -4.71938 0
M  V30 5831 H 563.184 -2.83691 -0.912338 0
M  V30 5832 H 560.721 -1.40392 -0.439135 0
M  V30 5833 H 562.679 -2.46682 -3.36457 0
M  V30 5834 H 561.309 -1.42625 -2.89582 0
M  V30 5835 H 560.361 -3.45905 -1.58284 0
M  V30 5836 H 561.673 -4.44 -2.27299 0
M  V30 5837 H 560.827 -3.97601 -4.58256 0
M  V30 5838 H 559.566 -2.89546 -3.92446 0
M  V30 5839 H 558.571 -4.81662 -2.65107 0
M  V30 5840 H 559.796 -5.913 -3.33978 0
M  V30 5841 H 557.742 -4.32875 -4.92905 0
M  V30 5842 H 557.659 -6.02228 -4.57009 0
M  V30 5843 H 558.927 -5.42439 -5.59803 0
M  V30 5844 N 563.156 0.464375 -1.50603 0
M  V30 5845 C 564.405 1.21277 -1.61167 0
M  V30 5846 C 564.718 1.92953 -0.320704 0
M  V30 5847 O 565.924 2.69778 -0.30534 0
M  V30 5848 C 564.38 2.20403 -2.84518 0
M  V30 5849 C 563.988 1.54499 -4.20516 0
M  V30 5850 C 565.732 2.95843 -3.0443 0
M  V30 5851 C 563.639 2.51951 -5.35047 0
M  V30 5852 H 562.569 0.456367 -0.600204 0
M  V30 5853 H 565.22 0.48254 -1.77042 0
M  V30 5854 H 563.602 2.96746 -2.62217 0
M  V30 5855 H 564.776 0.83899 -4.53098 0
M  V30 5856 H 563.091 0.913152 -4.06264 0
M  V30 5857 H 565.688 3.6879 -3.87167 0
M  V30 5858 H 566.031 3.55622 -2.16423 0
M  V30 5859 H 566.564 2.26611 -3.26944 0
M  V30 5860 H 563.303 1.96901 -6.25228 0
M  V30 5861 H 562.823 3.20683 -5.06875 0
M  V30 5862 H 564.502 3.13643 -5.65895 0
M  V30 5863 N 564.634 1.40294 0.718013 0
M  V30 5864 C 565.911 1.2894 1.47084 0
M  V30 5865 C 566.291 -0.0933625 2.10893 0
M  V30 5866 O 565.639 -1.10598 1.99951 0
M  V30 5867 C 565.849 2.4264 2.50852 0
M  V30 5868 C 567.197 2.8276 3.16752 0
M  V30 5869 O 568.221 2.42215 2.61171 0
M  V30 5870 O 567.08 3.528 4.17366 0
M  V30 5871 H 564.174 0.506236 0.653952 0
M  V30 5872 H 566.72 1.52208 0.750394 0
M  V30 5873 H 565.492 3.35009 2.022 0
M  V30 5874 H 565.115 2.21129 3.30435 0
M  V30 5875 N 566.112 -0.949982 1.2575 0
M  V30 5876 C 567.361 -1.68956 1.10168 0
M  V30 5877 C 567.674 -1.92327 -0.356309 0
M  V30 5878 O 568.88 -2.64026 -0.632657 0
M  V30 5879 C 567.336 -3.04196 1.92336 0
M  V30 5880 C 566.944 -2.88603 3.42655 0
M  V30 5881 C 568.688 -3.81904 1.85336 0
M  V30 5882 C 566.595 -4.19262 4.17101 0
M  V30 5883 H 565.525 -0.633645 0.408668 0
M  V30 5884 H 568.176 -1.05719 1.49986 0
M  V30 5885 H 566.558 -3.68363 1.45344 0
M  V30 5886 H 567.732 -2.3334 3.97353 0
M  V30 5887 H 566.047 -2.24345 3.50796 0
M  V30 5888 H 568.644 -4.78688 2.38248 0
M  V30 5889 H 568.987 -4.08099 0.822226 0
M  V30 5890 H 569.52 -3.24495 2.30104 0
M  V30 5891 H 566.259 -3.98254 5.20648 0
M  V30 5892 H 565.779 -4.74273 3.67186 0
M  V30 5893 H 567.458 -4.87775 4.25071 0
M  V30 5894 N 567.59 -1.07411 -1.15328 0
M  V30 5895 C 568.839 -0.792643 -1.85473 0
M  V30 5896 C 569.152 0.683789 -1.83259 0
M  V30 5897 O 570.358 1.08005 -2.49093 0
M  V30 5898 C 568.814 -1.36787 -3.32892 0
M  V30 5899 C 568.422 -2.87536 -3.43551 0
M  V30 5900 C 570.166 -1.16444 -4.08217 0
M  V30 5901 C 568.073 -3.38247 -4.85122 0
M  V30 5902 H 567.003 -0.292838 -0.694811 0
M  V30 5903 H 569.654 -1.29426 -1.30082 0
M  V30 5904 H 568.036 -0.793993 -3.87958 0
M  V30 5905 H 569.21 -3.50973 -2.98588 0
M  V30 5906 H 567.525 -3.06676 -2.81672 0
M  V30 5907 H 570.122 -1.51808 -5.12697 0
M  V30 5908 H 570.465 -0.10353 -4.16171 0
M  V30 5909 H 570.998 -1.70472 -3.59422 0
M  V30 5910 H 567.737 -4.43866 -4.82351 0
M  V30 5911 H 567.257 -2.79564 -5.30664 0
M  V30 5912 H 568.936 -3.34238 -5.5398 0
M  V30 5913 N 569.068 1.32177 -0.85831 0
M  V30 5914 C 570.293 2.01847 -0.476718 0
M  V30 5915 C 570.718 1.64065 0.920021 0
M  V30 5916 O 570.076 0.843189 1.60499 0
M  V30 5917 C 570.124 3.55097 -0.627578 0
M  V30 5918 O 569.228 4.11012 0.338086 0
M  V30 5919 H 568.569 0.635907 -0.191099 0
M  V30 5920 H 571.099 1.68641 -1.15851 0
M  V30 5921 H 571.109 4.04718 -0.516476 0
M  V30 5922 H 569.784 3.81938 -1.64609 0
M  V30 5923 H 568.361 3.72451 0.182917 0
M  V30 5924 N 570.547 0.616602 1.45037 0
M  V30 5925 C 571.795 0.115103 2.01772 0
M  V30 5926 C 572.116 -1.2622 1.48639 0
M  V30 5927 O 571.386 -1.83563 0.684199 0
M  V30 5928 H 569.966 0.0395607 0.745952 0
M  V30 5929 H 572.628 0.800032 1.77723 0
M  V30 5930 H 571.724 0.0717274 3.12018 0
M  V30 5931 N 572.025 -1.5352 0.356285 0
M  V30 5932 C 573.253 -2.05534 -0.237328 0
M  V30 5933 C 573.668 -1.23043 -1.43199 0
M  V30 5934 O 573.025 -0.268821 -1.80509 0
M  V30 5935 C 573.076 -3.55791 -0.639933 0
M  V30 5936 O 572.797 -4.35154 0.507233 0
M  V30 5937 C 574.298 -4.24027 -1.29292 0
M  V30 5938 H 571.518 -0.669585 -0.0435572 0
M  V30 5939 H 574.062 -1.97988 0.511963 0
M  V30 5940 H 572.217 -3.63518 -1.33915 0
M  V30 5941 H 572.631 -5.24178 0.18375 0
M  V30 5942 H 574.105 -5.30509 -1.52527 0
M  V30 5943 H 574.582 -3.77166 -2.25039 0
M  V30 5944 H 575.188 -4.20527 -0.63539 0
M  V30 5945 N 573.503 -0.0852151 -1.57369 0
M  V30 5946 C 574.433 0.874556 -2.16503 0
M  V30 5947 C 575.414 1.30111 -1.09568 0
M  V30 5948 O 576.599 1.36977 -1.37662 0
M  V30 5949 C 573.729 2.13731 -2.73745 0
M  V30 5950 C 572.683 1.84971 -3.85966 0
M  V30 5951 C 572.009 3.17991 -4.29867 0
M  V30 5952 C 573.309 1.14442 -5.09608 0
M  V30 5953 H 575.003 0.381899 -2.96954 0
M  V30 5954 H 572.549 0.18225 -1.42842 0
M  V30 5955 H 574.502 2.81302 -3.13763 0
M  V30 5956 H 573.226 2.65263 -1.90534 0
M  V30 5957 H 571.885 1.19801 -3.46473 0
M  V30 5958 H 571.533 3.6739 -3.4356 0
M  V30 5959 H 571.233 2.99534 -5.05523 0
M  V30 5960 H 572.757 3.86737 -4.72511 0
M  V30 5961 H 574.171 1.72105 -5.46857 0
M  V30 5962 H 572.568 1.06197 -5.90629 0
M  V30 5963 H 573.638 0.12559 -4.84737 0
M  V30 5964 N 574.981 1.5647 0.188427 0
M  V30 5965 C 576.229 1.80655 0.905986 0
M  V30 5966 C 576.55 0.659391 1.83513 0
M  V30 5967 O 575.82 -0.321868 1.93238 0
M  V30 5968 H 574.4 0.666391 0.337538 0
M  V30 5969 H 577.062 1.93949 0.192339 0
M  V30 5970 H 576.158 2.74066 1.49313 0
M  V30 5971 N 576.459 -0.456382 1.50847 0
M  V30 5972 C 577.406 -1.55249 1.70782 0
M  V30 5973 C 578.376 -1.56757 0.549231 0
M  V30 5974 O 579.561 -1.74061 0.7815 0
M  V30 5975 C 576.701 -2.93118 1.82143 0
M  V30 5976 C 575.814 -3.01285 3.09598 0
M  V30 5977 C 574.949 -4.30159 3.11667 0
M  V30 5978 C 573.988 -4.32124 4.33515 0
M  V30 5979 N 573.125 -5.52492 4.3324 0
M  V30 5980 H 577.965 -1.37555 2.64353 0
M  V30 5981 H 575.502 -0.668543 1.3103 0
M  V30 5982 H 577.46 -3.73088 1.86711 0
M  V30 5983 H 576.09 -3.09413 0.919978 0
M  V30 5984 H 575.142 -2.14096 3.14431 0
M  V30 5985 H 576.454 -2.98597 3.99551 0
M  V30 5986 H 575.608 -5.18489 3.15046 0
M  V30 5987 H 574.347 -4.35477 2.1957 0
M  V30 5988 H 573.352 -3.42189 4.30333 0
M  V30 5989 H 574.577 -4.28485 5.26856 0
M  V30 5990 H 572.523 -5.58567 3.44004 0
M  V30 5991 H 572.44 -5.51605 5.16979 0
M  V30 5992 H 573.708 -6.42906 4.40786 0
M  V30 5993 N 577.937 -1.40673 -0.710563 0
M  V30 5994 C 578.9 -1.4108 -1.80635 0
M  V30 5995 C 579.9 -0.303783 -1.57904 0
M  V30 5996 O 581.09 -0.562937 -1.64853 0
M  V30 5997 C 578.222 -1.20748 -3.18799 0
M  V30 5998 H 579.415 -2.38612 -1.81671 0
M  V30 5999 H 576.968 -1.26595 -0.916704 0
M  V30 6000 H 577.703 -0.239964 -3.23411 0
M  V30 6001 H 577.488 -2.00941 -3.36698 0
M  V30 6002 H 578.978 -1.23833 -3.98817 0
M  V30 6003 N 579.415 0.9433 -1.26252 0
M  V30 6004 C 580.662 1.68925 -1.11672 0
M  V30 6005 C 580.99 1.91499 0.340329 0
M  V30 6006 O 580.245 1.49189 1.26653 0
M  V30 6007 C 580.544 3.07073 -1.82868 0
M  V30 6008 C 580.21 3.04262 -3.32769 0
M  V30 6009 C 578.872 3.03203 -3.7366 0
M  V30 6010 C 581.224 2.96729 -4.28487 0
M  V30 6011 C 578.552 2.92373 -5.0866 0
M  V30 6012 C 580.904 2.87442 -5.63525 0
M  V30 6013 C 579.568 2.84724 -6.03729 0
M  V30 6014 H 578.838 0.618141 -0.408635 0
M  V30 6015 H 581.485 1.10124 -1.56668 0
M  V30 6016 H 579.79 3.69486 -1.30335 0
M  V30 6017 H 581.487 3.63635 -1.69029 0
M  V30 6018 H 578.077 3.05865 -3.00241 0
M  V30 6019 H 582.261 2.96658 -3.97879 0
M  V30 6020 H 577.517 2.88645 -5.38975 0
M  V30 6021 H 581.691 2.80576 -6.37377 0
M  V30 6022 H 579.318 2.76089 -7.08293 0
M  V30 6023 N 580.893 1.08022 1.14757 0
M  V30 6024 C 582.141 0.805913 1.85336 0
M  V30 6025 C 582.462 -0.670162 1.83122 0
M  V30 6026 O 581.732 -1.48567 1.2769 0
M  V30 6027 H 580.312 0.295138 0.686223 0
M  V30 6028 H 582.974 1.36538 1.3908 0
M  V30 6029 H 582.07 1.14655 2.90277 0
M  V30 6030 N 582.371 -1.3172 0.865308 0
M  V30 6031 C 583.611 -1.98675 0.480365 0
M  V30 6032 C 583.975 -1.66929 -0.948621 0
M  V30 6033 O 585.176 -2.27059 -1.43867 0
M  V30 6034 C 583.447 -3.49972 0.724858 0
M  V30 6035 S 585.006 -4.36598 0.439078 0
M  V30 6036 H 581.824 -0.687967 0.179506 0
M  V30 6037 H 584.426 -1.60215 1.12033 0
M  V30 6038 H 583.13 -3.70567 1.76375 0
M  V30 6039 H 582.661 -3.93335 0.0717173 0
M  V30 6040 H 584.676 -4.90792 -0.730564 0
M  V30 6041 N 583.85 -0.624285 -1.44708 0
M  V30 6042 C 585.096 -0.126237 -2.02407 0
M  V30 6043 C 585.428 1.24618 -1.48943 0
M  V30 6044 O 584.704 1.82569 -0.670742 0
M  V30 6045 C 584.986 -0.105449 -3.59946 0
M  V30 6046 C 584.84 -1.50972 -4.23707 0
M  V30 6047 C 586.159 0.573629 -4.36346 0
M  V30 6048 H 583.278 -0.0473472 -0.735478 0
M  V30 6049 H 585.92 -0.799452 -1.72362 0
M  V30 6050 H 584.07 0.46783 -3.85673 0
M  V30 6051 H 585.742 -2.13136 -4.0911 0
M  V30 6052 H 583.985 -2.0656 -3.81465 0
M  V30 6053 H 584.656 -1.44727 -5.32689 0
M  V30 6054 H 587.132 0.0861787 -4.16011 0
M  V30 6055 H 586.008 0.557338 -5.46063 0
M  V30 6056 H 586.269 1.64276 -4.10446 0
M  V30 6057 N 585.328 1.53329 -0.364422 0
M  V30 6058 C 586.576 2.00842 0.225189 0
M  V30 6059 C 586.897 1.25345 1.49378 0
M  V30 6060 O 586.167 0.366396 1.92443 0
M  V30 6061 H 584.747 0.742009 0.0862027 0
M  V30 6062 H 587.409 1.8863 -0.490389 0
M  V30 6063 H 586.505 3.08795 0.452987 0
M  V30 6064 N 586.806 0.0935595 1.57322 0
M  V30 6065 C 588.054 -0.569383 1.93913 0
M  V30 6066 C 588.375 -1.68817 0.976009 0
M  V30 6067 O 587.645 -1.9588 0.0278099 0
M  V30 6068 H 586.225 -0.21332 0.715894 0
M  V30 6069 H 588.887 0.156531 1.9427 0
M  V30 6070 H 587.983 -0.980577 2.96296 0
M  V30 6071 N 588.284 -1.56567 -0.180126 0
M  V30 6072 C 589.514 -1.85349 -0.912647 0
M  V30 6073 C 589.922 -0.675795 -1.76719 0
M  V30 6074 O 589.265 0.3645 -1.80047 0
M  V30 6075 C 589.327 -3.08431 -1.84691 0
M  V30 6076 C 588.991 -4.41694 -1.17284 0
M  V30 6077 C 589.988 -5.17062 -0.542532 0
M  V30 6078 C 587.673 -4.8843 -1.17223 0
M  V30 6079 C 589.667 -6.37351 0.0793953 0
M  V30 6080 C 587.354 -6.08652 -0.54647 0
M  V30 6081 C 588.352 -6.82955 0.0782458 0
M  V30 6082 O 588.04 -8.00897 0.694158 0
M  V30 6083 H 587.772 -0.619286 -0.271036 0
M  V30 6084 H 590.326 -2.0454 -0.187768 0
M  V30 6085 H 588.556 -2.85163 -2.61188 0
M  V30 6086 H 590.245 -3.23733 -2.44851 0
M  V30 6087 H 591.011 -4.8204 -0.535045 0
M  V30 6088 H 586.89 -4.30542 -1.64788 0
M  V30 6089 H 590.434 -6.95287 0.567612 0
M  V30 6090 H 586.331 -6.4314 -0.55151 0
M  V30 6091 H 587.099 -8.16352 0.592537 0
M  V30 6092 N 589.762 0.448376 -1.51087 0
M  V30 6093 C 591.011 1.19561 -1.62444 0
M  V30 6094 C 591.324 1.92602 -0.341151 0
M  V30 6095 O 592.53 2.69439 -0.333936 0
M  V30 6096 C 590.986 2.17373 -2.8684 0
M  V30 6097 C 590.594 1.5003 -4.22131 0
M  V30 6098 C 592.338 2.92597 -3.0755 0
M  V30 6099 C 590.245 2.46262 -5.37689 0
M  V30 6100 H 589.175 0.449975 -0.605011 0
M  V30 6101 H 591.826 0.463735 -1.77544 0
M  V30 6102 H 590.208 2.93948 -2.65349 0
M  V30 6103 H 591.382 0.790886 -4.53962 0
M  V30 6104 H 589.697 0.870011 -4.0721 0
M  V30 6105 H 592.294 3.64663 -3.91056 0
M  V30 6106 H 592.637 3.53306 -2.20183 0
M  V30 6107 H 593.17 2.23131 -3.29329 0
M  V30 6108 H 589.909 1.90258 -6.27281 0
M  V30 6109 H 589.429 3.15289 -5.10248 0
M  V30 6110 H 591.108 3.07623 -5.6919 0
M  V30 6111 N 591.24 1.41047 0.703093 0
M  V30 6112 C 592.203 1.42036 1.79884 0
M  V30 6113 C 593.203 0.312153 1.57741 0
M  V30 6114 O 594.393 0.571672 1.64553 0
M  V30 6115 C 591.525 1.22437 3.18154 0
M  V30 6116 H 592.718 2.39572 1.80403 0
M  V30 6117 H 590.271 1.27079 0.909977 0
M  V30 6118 H 591.006 0.257112 3.23279 0
M  V30 6119 H 590.791 2.02723 3.35627 0
M  V30 6120 H 592.281 1.25946 3.98155 0
M  V30 6121 N 592.718 -0.936591 1.26751 0
M  V30 6122 C 593.943 -1.72288 1.15462 0
M  V30 6123 C 594.368 -1.85915 -0.285887 0
M  V30 6124 O 593.726 -1.35272 -1.20711 0
M  V30 6125 C 593.774 -3.10503 1.83359 0
M  V30 6126 O 592.878 -3.96745 1.1255 0
M  V30 6127 H 592.219 -0.52843 0.402067 0
M  V30 6128 H 594.749 -1.17271 1.67656 0
M  V30 6129 H 594.759 -3.60867 1.90365 0
M  V30 6130 H 593.434 -2.99901 2.88153 0
M  V30 6131 H 592.011 -3.55191 1.13551 0
M  V30 6132 N 594.196 -1.08629 -1.14182 0
M  V30 6133 C 595.424 -0.838889 -1.8913 0
M  V30 6134 C 595.839 0.609153 -1.78703 0
M  V30 6135 O 595.196 1.41876 -1.14794 0
M  V30 6136 C 595.247 -1.25477 -3.39025 0
M  V30 6137 O 594.968 -2.64601 -3.49167 0
M  V30 6138 C 596.469 -1.03856 -4.30963 0
M  V30 6139 H 593.689 -0.302377 -0.599007 0
M  V30 6140 H 596.233 -1.44615 -1.44592 0
M  V30 6141 H 594.388 -0.691571 -3.81177 0
M  V30 6142 H 594.802 -2.81922 -4.42289 0
M  V30 6143 H 596.276 -1.37892 -5.345 0
M  V30 6144 H 596.753 0.0242522 -4.39193 0
M  V30 6145 H 597.359 -1.58731 -3.94569 0
M  V30 6146 N 595.674 1.31259 -0.872281 0
M  V30 6147 C 597.09 1.49283 -0.564521 0
M  V30 6148 C 597.29 1.80243 0.900807 0
M  V30 6149 O 596.346 1.88246 1.68284 0
M  V30 6150 C 597.659 2.62503 -1.46673 0
M  V30 6151 C 599.207 2.76386 -1.46901 0
M  V30 6152 C 599.682 3.92705 -2.35684 0
M  V30 6153 N 601.173 3.99995 -2.33577 0
M  V30 6154 C 601.908 4.89276 -2.98992 0
M  V30 6155 N 601.404 5.83443 -3.73585 0
M  V30 6156 N 603.197 4.82541 -2.88289 0
M  V30 6157 H 595.348 1.09432 -1.82039 0
M  V30 6158 H 597.611 0.540949 -0.77851 0
M  V30 6159 H 597.317 2.46407 -2.50951 0
M  V30 6160 H 597.191 3.58695 -1.16696 0
M  V30 6161 H 599.578 2.91894 -0.433796 0
M  V30 6162 H 599.659 1.80853 -1.80903 0
M  V30 6163 H 599.303 3.77954 -3.39283 0
M  V30 6164 H 599.233 4.87549 -1.99006 0
M  V30 6165 H 601.724 3.32624 -1.7936 0
M  V30 6166 H 602.037 6.48303 -4.20622 0
M  V30 6167 H 600.382 5.83415 -3.77694 0
M  V30 6168 H 603.573 4.07951 -2.2955 0
M  V30 6169 H 603.746 5.51916 -3.39549 0
M  V30 6170 N 597.152 0.631951 1.44375 0
M  V30 6171 C 598.429 0.067646 1.95483 0
M  V30 6172 C 598.809 -1.40683 1.57389 0
M  V30 6173 O 598.157 -2.12167 0.848375 0
M  V30 6174 C 598.367 0.291392 3.47781 0
M  V30 6175 C 599.715 0.185028 4.24197 0
M  V30 6176 O 600.739 0.222803 3.55503 0
M  V30 6177 O 599.598 0.0906642 5.46425 0
M  V30 6178 H 596.692 -0.0218379 0.826712 0
M  V30 6179 H 599.238 0.703711 1.54421 0
M  V30 6180 H 598.01 1.31449 3.68561 0
M  V30 6181 H 597.633 -0.378772 3.95792 0
M  V30 6182 N 598.631 -1.53133 0.372548 0
M  V30 6183 C 599.561 -2.28876 -0.462412 0
M  V30 6184 C 600.542 -1.31583 -1.07796 0
M  V30 6185 O 601.727 -1.60461 -1.09389 0
M  V30 6186 C 598.857 -3.08317 -1.59868 0
M  V30 6187 C 597.811 -4.13355 -1.11003 0
M  V30 6188 C 597.137 -4.8092 -2.33708 0
M  V30 6189 C 598.437 -5.21955 -0.18983 0
M  V30 6190 H 600.131 -2.9892 0.169511 0
M  V30 6191 H 597.677 -1.43761 0.0829658 0
M  V30 6192 H 599.63 -3.60055 -2.18949 0
M  V30 6193 H 598.354 -2.35976 -2.25794 0
M  V30 6194 H 597.013 -3.62573 -0.541869 0
M  V30 6195 H 596.661 -4.05144 -2.98106 0
M  V30 6196 H 596.361 -5.51904 -2.01682 0
M  V30 6197 H 597.885 -5.35455 -2.93462 0
M  V30 6198 H 599.299 -5.69153 -0.688319 0
M  V30 6199 H 597.696 -6.00087 0.0398887 0
M  V30 6200 H 598.766 -4.78811 0.766057 0
M  V30 6201 N 600.109 -0.101901 -1.5727 0
M  V30 6202 C 601.355 0.561027 -1.94885 0
M  V30 6203 C 601.688 1.6741 -0.984258 0
M  V30 6204 O 600.963 1.94491 -0.0184767 0
M  V30 6205 C 601.246 1.10982 -3.42571 0
M  V30 6206 C 601.099 0.00133418 -4.498 0
M  V30 6207 C 602.418 2.00608 -3.9172 0
M  V30 6208 H 599.537 0.202467 -0.708644 0
M  V30 6209 H 602.179 -0.173992 -1.89202 0
M  V30 6210 H 600.329 1.73621 -3.47546 0
M  V30 6211 H 602.001 -0.63322 -4.56933 0
M  V30 6212 H 600.244 -0.664143 -4.28686 0
M  V30 6213 H 600.915 0.426253 -5.50352 0
M  V30 6214 H 603.391 1.47864 -3.88941 0
M  V30 6215 H 602.267 2.3593 -4.95609 0
M  V30 6216 H 602.528 2.92608 -3.3141 0
M  V30 6217 N 601.587 1.56661 0.17182 0
M  V30 6218 C 602.864 1.72838 0.915778 0
M  V30 6219 C 603.244 0.66316 2.00413 0
M  V30 6220 O 602.592 -0.322123 2.26218 0
M  V30 6221 C 602.802 3.16019 1.48097 0
M  V30 6222 C 604.15 3.76962 1.95408 0
M  V30 6223 O 605.174 3.19294 1.57892 0
M  V30 6224 O 604.033 4.78219 2.64516 0
M  V30 6225 H 601.127 0.705797 0.431021 0
M  V30 6226 H 603.673 1.68947 0.159689 0
M  V30 6227 H 602.445 3.85031 0.697618 0
M  V30 6228 H 602.068 3.24234 2.30126 0
M  V30 6229 N 603.065 -0.440357 1.51323 0
M  V30 6230 C 603.998 -1.55414 1.67098 0
M  V30 6231 C 604.976 -1.54108 0.518599 0
M  V30 6232 O 606.16 -1.7328 0.742054 0
M  V30 6233 C 603.287 -2.93996 1.68179 0
M  V30 6234 C 602.333 -3.13338 2.89347 0
M  V30 6235 S 603.166 -2.89957 4.50206 0
M  V30 6236 C 604.322 -4.30826 4.54027 0
M  V30 6237 H 604.555 -1.41798 2.61306 0
M  V30 6238 H 602.088 -0.629841 1.40969 0
M  V30 6239 H 604.046 -3.73878 1.69487 0
M  V30 6240 H 602.707 -3.04976 0.751542 0
M  V30 6241 H 601.9 -4.14652 2.86495 0
M  V30 6242 H 601.502 -2.41276 2.85766 0
M  V30 6243 H 603.794 -5.23977 4.29481 0
M  V30 6244 H 604.737 -4.38712 5.55822 0
M  V30 6245 H 605.145 -4.1434 3.83384 0
M  V30 6246 N 604.543 -1.41418 -0.695603 0
M  V30 6247 C 605.789 -1.40982 -1.4578 0
M  V30 6248 C 606.122 -0.0187763 -1.94191 0
M  V30 6249 O 605.397 0.95346 -1.69527 0
M  V30 6250 C 605.68 -2.41657 -2.66972 0
M  V30 6251 C 605.533 -3.89869 -2.24327 0
M  V30 6252 C 606.852 -2.39589 -3.69168 0
M  V30 6253 H 603.971 -0.513405 -0.528757 0
M  V30 6254 H 606.613 -1.72693 -0.792275 0
M  V30 6255 H 604.763 -2.14746 -3.23754 0
M  V30 6256 H 606.435 -4.27683 -1.72872 0
M  V30 6257 H 604.678 -4.04737 -1.56111 0
M  V30 6258 H 605.349 -4.55857 -3.11285 0
M  V30 6259 H 607.825 -2.63471 -3.2206 0
M  V30 6260 H 606.701 -3.12044 -4.51575 0
M  V30 6261 H 606.962 -1.41447 -4.18862 0
M  V30 6262 N 606.021 0.929856 -1.27246 0
M  V30 6263 C 607.437 1.20542 -1.04603 0
M  V30 6264 C 607.637 2.00276 0.221754 0
M  V30 6265 O 606.693 2.34835 0.927833 0
M  V30 6266 C 608.006 1.95566 -2.28417 0
M  V30 6267 C 609.554 2.08513 -2.33433 0
M  V30 6268 C 610.029 2.86943 -3.5697 0
M  V30 6269 N 611.52 2.94512 -3.57515 0
M  V30 6270 C 612.255 3.55656 -4.49774 0
M  V30 6271 N 611.751 4.18209 -5.52334 0
M  V30 6272 N 613.544 3.53038 -4.37402 0
M  V30 6273 H 605.695 0.397113 -2.08655 0
M  V30 6274 H 607.958 0.238277 -0.917566 0
M  V30 6275 H 607.664 1.44395 -3.20691 0
M  V30 6276 H 607.538 2.9619 -2.33563 0
M  V30 6277 H 609.925 2.58872 -1.41666 0
M  V30 6278 H 610.006 1.07117 -2.32292 0
M  V30 6279 H 609.65 2.37268 -4.49072 0
M  V30 6280 H 609.58 3.8862 -3.55362 0
M  V30 6281 H 612.071 2.50053 -2.83341 0
M  V30 6282 H 612.384 4.62796 -6.18902 0
M  V30 6283 H 610.729 4.16761 -5.56179 0
M  V30 6284 H 613.92 3.0337 -3.56489 0
M  V30 6285 H 614.093 4.004 -5.09493 0
M  V30 6286 N 607.499 1.09233 1.13605 0
M  V30 6287 C 608.724 0.849067 1.89224 0
M  V30 6288 C 609.149 -0.593875 1.78479 0
M  V30 6289 O 608.507 -1.41703 1.13092 0
M  V30 6290 C 608.555 1.28642 3.36873 0
M  V30 6291 O 607.659 0.44363 4.10007 0
M  V30 6292 H 607 0.30767 0.588417 0
M  V30 6293 H 609.53 1.45595 1.43748 0
M  V30 6294 H 609.54 1.27096 3.87699 0
M  V30 6295 H 608.215 2.33729 3.44011 0
M  V30 6296 H 606.792 0.523241 3.69211 0
M  V30 6297 N 608.977 -1.30795 0.87923 0
M  V30 6298 C 610.207 -2.00237 0.50881 0
M  V30 6299 C 610.615 -1.66115 -0.905682 0
M  V30 6300 O 609.958 -0.89138 -1.60624 0
M  V30 6301 C 610.02 -3.54508 0.597003 0
M  V30 6302 C 609.684 -4.12131 1.97477 0
M  V30 6303 C 610.681 -4.28552 2.94346 0
M  V30 6304 C 608.366 -4.47644 2.2786 0
M  V30 6305 C 610.36 -4.79689 4.19735 0
M  V30 6306 C 608.047 -4.98481 3.53496 0
M  V30 6307 C 609.045 -5.14456 4.49248 0
M  V30 6308 O 608.733 -5.64199 5.72656 0
M  V30 6309 H 608.465 -0.647026 0.195788 0
M  V30 6310 H 611.019 -1.67785 1.1848 0
M  V30 6311 H 609.249 -3.86461 -0.135945 0
M  V30 6312 H 610.938 -4.05198 0.238684 0
M  V30 6313 H 611.704 -4.01424 2.72183 0
M  V30 6314 H 607.583 -4.34481 1.54102 0
M  V30 6315 H 611.127 -4.92073 4.9448 0
M  V30 6316 H 607.024 -5.25044 3.75498 0
M  V30 6317 H 607.792 -5.82551 5.74957 0
M  V30 6318 N 610.455 -0.639598 -1.44038 0
M  V30 6319 C 611.418 0.0506628 -2.29144 0
M  V30 6320 C 612.418 0.764001 -1.41491 0
M  V30 6321 O 613.608 0.607309 -1.63271 0
M  V30 6322 C 610.74 1.0824 -3.2326 0
M  V30 6323 H 611.933 -0.697987 -2.91664 0
M  V30 6324 H 609.486 -0.400146 -1.51091 0
M  V30 6325 H 610.221 1.86075 -2.65606 0
M  V30 6326 H 610.006 0.574725 -3.87865 0
M  V30 6327 H 611.496 1.56487 -3.87171 0
M  V30 6328 N 611.933 1.52934 -0.380664 0
M  V30 6329 C 612.896 2.24809 0.446473 0
M  V30 6330 C 613.896 1.26133 0.997347 0
M  V30 6331 O 615.086 1.50297 0.880714 0
M  V30 6332 C 612.218 2.99649 1.62553 0
M  V30 6333 H 613.411 2.99343 -0.182677 0
M  V30 6334 H 610.964 1.55736 -0.132618 0
M  V30 6335 H 611.699 2.29395 2.29235 0
M  V30 6336 H 611.484 3.72066 1.23732 0
M  V30 6337 H 612.974 3.54246 2.21133 0
M  V30 6338 N 613.412 0.11024 1.57214 0
M  V30 6339 C 614.66 -0.548783 1.94506 0
M  V30 6340 C 614.981 -1.67772 0.99386 0
M  V30 6341 O 614.251 -1.9584 0.0485841 0
M  V30 6342 H 612.831 -0.205715 0.718116 0
M  V30 6343 H 615.493 0.177127 1.94093 0
M  V30 6344 H 614.589 -0.949096 2.97319 0
M  V30 6345 N 614.89 -1.56749 -0.16351 0
M  V30 6346 C 616.137 -1.82434 -0.878866 0
M  V30 6347 C 616.465 -0.688557 -1.81904 0
M  V30 6348 O 615.72 0.323644 -1.93005 0
M  V30 6349 C 616.019 -3.14342 -1.70071 0
M  V30 6350 C 615.685 -4.41647 -0.908775 0
M  V30 6351 C 614.347 -4.76224 -0.690236 0
M  V30 6352 C 616.699 -5.19998 -0.353815 0
M  V30 6353 C 614.027 -5.86624 0.0942374 0
M  V30 6354 C 616.379 -6.3122 0.41761 0
M  V30 6355 C 615.043 -6.64358 0.646879 0
M  V30 6356 H 614.313 -0.667574 -0.3216 0
M  V30 6357 H 616.96 -1.90963 -0.14337 0
M  V30 6358 H 615.265 -3.0119 -2.50583 0
M  V30 6359 H 616.962 -3.31426 -2.25738 0
M  V30 6360 H 613.552 -4.1453 -1.08916 0
M  V30 6361 H 617.736 -4.93673 -0.509975 0
M  V30 6362 H 612.992 -6.10751 0.281529 0
M  V30 6363 H 617.166 -6.91133 0.854849 0
M  V30 6364 H 614.793 -7.49742 1.25662 0
M  V30 6365 N 616.368 0.432326 -1.51554 0
M  V30 6366 C 617.617 1.17831 -1.63703 0
M  V30 6367 C 617.93 1.92229 -0.36156 0
M  V30 6368 O 619.136 2.69069 -0.362495 0
M  V30 6369 C 617.592 2.14318 -2.89129 0
M  V30 6370 C 617.2 1.45544 -4.23699 0
M  V30 6371 C 618.944 2.89319 -3.10636 0
M  V30 6372 C 616.851 2.40545 -5.4027 0
M  V30 6373 H 615.781 0.443533 -0.60975 0
M  V30 6374 H 618.432 0.444878 -1.78026 0
M  V30 6375 H 616.814 2.91117 -2.68452 0
M  V30 6376 H 617.988 0.742693 -4.54775 0
M  V30 6377 H 616.303 0.826772 -4.0811 0
M  V30 6378 H 618.9 3.60495 -3.94902 0
M  V30 6379 H 619.243 3.50951 -2.23918 0
M  V30 6380 H 619.776 2.19625 -3.31677 0
M  V30 6381 H 616.515 1.83594 -6.29264 0
M  V30 6382 H 616.035 3.09859 -5.13563 0
M  V30 6383 H 617.714 3.01569 -5.72421 0
M  V30 6384 N 617.846 1.41785 0.688094 0
M  V30 6385 C 619.093 1.41544 1.44816 0
M  V30 6386 C 619.421 0.0271746 1.94481 0
M  V30 6387 O 618.676 -0.962235 1.7041 0
M  V30 6388 C 618.975 2.37532 2.67046 0
M  V30 6389 C 618.641 3.84209 2.35996 0
M  V30 6390 C 617.303 4.24165 2.27239 0
M  V30 6391 C 619.655 4.76785 2.10536 0
M  V30 6392 C 616.983 5.54695 1.91128 0
M  V30 6393 C 619.335 6.07644 1.75931 0
M  V30 6394 C 617.999 6.46613 1.65675 0
M  V30 6395 H 617.269 0.517945 0.529919 0
M  V30 6396 H 619.916 1.74635 0.785797 0
M  V30 6397 H 618.221 1.9772 3.38251 0
M  V30 6398 H 619.918 2.34615 3.25203 0
M  V30 6399 H 616.508 3.52567 2.4371 0
M  V30 6400 H 620.692 4.46714 2.16242 0
M  V30 6401 H 615.948 5.83762 1.81746 0
M  V30 6402 H 620.122 6.78874 1.55252 0
M  V30 6403 H 617.749 7.47668 1.37463 0
M  V30 6404 N 619.324 -0.923095 1.27737 0
M  V30 6405 C 620.552 -1.70525 1.17171 0
M  V30 6406 C 620.967 -1.86847 -0.270881 0
M  V30 6407 O 620.324 -1.38879 -1.18401 0
M  V30 6408 C 620.375 -3.10242 1.85559 0
M  V30 6409 O 620.096 -2.94683 3.24182 0
M  V30 6410 C 621.597 -4.04586 1.81176 0
M  V30 6411 H 618.817 -0.533347 0.407163 0
M  V30 6412 H 621.361 -1.15599 1.68692 0
M  V30 6413 H 619.516 -3.62014 1.3793 0
M  V30 6414 H 619.93 -3.83045 3.58297 0
M  V30 6415 H 621.404 -5.00119 2.33633 0
M  V30 6416 H 621.881 -4.3218 0.782099 0
M  V30 6417 H 622.487 -3.58741 2.2844 0
M  V30 6418 N 620.802 -1.09834 -1.13024 0
M  V30 6419 C 622.03 -0.858902 -1.8823 0
M  V30 6420 C 622.445 0.590164 -1.79339 0
M  V30 6421 O 621.802 1.4065 -1.16292 0
M  V30 6422 C 621.853 -1.29066 -3.37675 0
M  V30 6423 O 621.574 -2.6829 -3.46341 0
M  V30 6424 C 623.075 -1.08421 -4.29837 0
M  V30 6425 H 620.295 -0.308713 -0.595766 0
M  V30 6426 H 622.839 -1.4614 -1.4305 0
M  V30 6427 H 620.994 -0.731961 -3.80422 0
M  V30 6428 H 621.408 -2.86598 -4.39274 0
M  V30 6429 H 622.882 -1.43553 -5.33007 0
M  V30 6430 H 623.359 -0.0223315 -4.39194 0
M  V30 6431 H 623.965 -1.62907 -3.92863 0
M  V30 6432 N 622.28 1.30327 -0.886154 0
M  V30 6433 C 623.505 2.0079 -0.519425 0
M  V30 6434 C 623.93 1.65979 0.885013 0
M  V30 6435 O 623.288 0.877043 1.58675 0
M  V30 6436 C 623.336 3.53686 -0.702758 0
M  V30 6437 O 622.44 4.11637 0.250828 0
M  V30 6438 H 621.781 0.63171 -0.204544 0
M  V30 6439 H 624.311 1.66145 -1.19402 0
M  V30 6440 H 624.321 4.03531 -0.602207 0
M  V30 6441 H 622.996 3.78361 -1.72673 0
M  V30 6442 H 621.573 3.72755 0.103873 0
M  V30 6443 N 623.758 0.647228 1.43697 0
M  V30 6444 C 624.688 -0.0345631 2.33474 0
M  V30 6445 C 625.669 -0.818193 1.4913 0
M  V30 6446 O 626.854 -0.780867 1.77809 0
M  V30 6447 C 623.984 -1.00576 3.32418 0
M  V30 6448 C 622.938 -0.33266 4.26705 0
M  V30 6449 C 622.264 -1.41489 5.1564 0
M  V30 6450 C 623.564 0.771204 5.16575 0
M  V30 6451 H 625.258 0.715163 2.90733 0
M  V30 6452 H 622.804 0.345364 1.39797 0
M  V30 6453 H 624.757 -1.49159 3.94119 0
M  V30 6454 H 623.481 -1.78657 2.73403 0
M  V30 6455 H 622.14 0.13267 3.6636 0
M  V30 6456 H 621.788 -2.18698 4.52968 0
M  V30 6457 H 621.488 -0.969799 5.79542 0
M  V30 6458 H 623.012 -1.9022 5.80214 0
M  V30 6459 H 624.426 0.36779 5.72119 0
M  V30 6460 H 622.823 1.1404 5.89165 0
M  V30 6461 H 623.893 1.63169 4.56622 0
M  V30 6462 N 625.236 -1.5273 0.388769 0
M  V30 6463 C 626.647 -1.86505 -0.0853788 0
M  V30 6464 C 626.998 -1.30847 -1.46197 0
M  V30 6465 O 626.123 -0.639609 -2.06732 0
M  V30 6466 C 626.718 -3.38414 -0.161703 0
M  V30 6467 C 625.277 -3.71902 -0.580144 0
M  V30 6468 C 624.424 -2.76095 0.258218 0
M  V30 6469 H 627.375 -1.46647 0.606665 0
M  V30 6470 H 627.396 -3.67638 -0.980936 0
M  V30 6471 H 626.908 -3.78893 0.840333 0
M  V30 6472 H 625.009 -3.36992 -1.58957 0
M  V30 6473 H 625.122 -4.77902 -0.338663 0
M  V30 6474 H 623.486 -2.53195 -0.276432 0
M  V30 6475 H 624.269 -3.19411 1.25822 0
M  V30 6476 N 626.714 -0.118576 -1.57153 0
M  V30 6477 C 628.125 0.40687 -1.82213 0
M  V30 6478 C 628.476 1.66636 -1.03571 0
M  V30 6479 O 627.601 2.14682 -0.272171 0
M  V30 6480 C 628.196 0.744949 -3.30509 0
M  V30 6481 C 626.755 1.21503 -3.5625 0
M  V30 6482 C 625.902 0.223511 -2.76398 0
M  V30 6483 H 628.853 -0.343712 -1.54933 0
M  V30 6484 H 628.874 1.6024 -3.45114 0
M  V30 6485 H 628.386 -0.171911 -3.87719 0
M  V30 6486 H 626.487 2.1488 -3.04396 0
M  V30 6487 H 626.6 1.16065 -4.64829 0
M  V30 6488 H 624.964 0.71046 -2.44591 0
M  V30 6489 H 625.747 -0.686439 -3.36367 0
M  V30 6490 N 628.193 1.56834 0.155195 0
M  V30 6491 C 629.126 1.9278 1.22111 0
M  V30 6492 C 630.104 0.792588 1.41975 0
M  V30 6493 O 631.288 1.04743 1.5672 0
M  V30 6494 C 628.415 2.19273 2.58142 0
M  V30 6495 C 627.461 3.41932 2.54921 0
M  V30 6496 S 628.294 4.95769 2.02418 0
M  V30 6497 C 629.45 5.25375 3.40194 0
M  V30 6498 H 629.683 2.82889 0.914393 0
M  V30 6499 H 627.216 1.50133 0.360461 0
M  V30 6500 H 629.174 2.35217 3.36427 0
M  V30 6501 H 627.835 1.29843 2.86007 0
M  V30 6502 H 627.028 3.57721 3.55038 0
M  V30 6503 H 626.63 3.25188 1.8474 0
M  V30 6504 H 628.922 5.1834 4.36268 0
M  V30 6505 H 629.865 6.26889 3.29266 0
M  V30 6506 H 630.273 4.52906 3.36951 0
M  V30 6507 N 629.671 -0.424282 1.51781 0
M  V30 6508 C 630.917 -1.17434 1.6534 0
M  V30 6509 C 631.25 -1.90549 0.374806 0
M  V30 6510 O 630.525 -1.84145 -0.626179 0
M  V30 6511 C 630.808 -2.18093 2.86544 0
M  V30 6512 C 630.661 -1.48975 4.24413 0
M  V30 6513 C 631.98 -3.18934 3.03264 0
M  V30 6514 H 629.099 -0.425566 0.601716 0
M  V30 6515 H 631.741 -0.461921 1.84299 0
M  V30 6516 H 629.891 -2.78849 2.7051 0
M  V30 6517 H 631.563 -0.914551 4.52143 0
M  V30 6518 H 629.806 -0.791893 4.26511 0
M  V30 6519 H 630.477 -2.22347 5.05238 0
M  V30 6520 H 632.953 -2.68243 3.18096 0
M  V30 6521 H 631.829 -3.86645 3.89611 0
M  V30 6522 H 632.09 -3.85793 2.15908 0
M  V30 6523 N 631.149 -1.42148 -0.680565 0
M  V30 6524 C 632.079 -1.4796 -1.80638 0
M  V30 6525 C 633.06 -0.336728 -1.66734 0
M  V30 6526 O 634.245 -0.550247 -1.86242 0
M  V30 6527 C 631.375 -1.37569 -3.18892 0
M  V30 6528 C 630.329 -2.49823 -3.47524 0
M  V30 6529 C 629.655 -2.24491 -4.85291 0
M  V30 6530 C 630.955 -3.92144 -3.44994 0
M  V30 6531 H 632.649 -2.42184 -1.76032 0
M  V30 6532 H 630.195 -1.16566 -0.845481 0
M  V30 6533 H 632.148 -1.40243 -3.97379 0
M  V30 6534 H 630.872 -0.398357 -3.24162 0
M  V30 6535 H 629.531 -2.46455 -2.71395 0
M  V30 6536 H 629.179 -1.25066 -4.87204 0
M  V30 6537 H 628.879 -2.99722 -5.05411 0
M  V30 6538 H 630.403 -2.28906 -5.66069 0
M  V30 6539 H 631.817 -3.97145 -4.13459 0
M  V30 6540 H 630.214 -4.67179 -3.76648 0
M  V30 6541 H 631.284 -4.19225 -2.43676 0
M  V30 6542 N 632.627 0.916307 -1.28225 0
M  V30 6543 C 633.852 1.7043 -1.18188 0
M  V30 6544 C 634.277 1.86346 0.256274 0
M  V30 6545 O 633.635 1.37175 1.18544 0
M  V30 6546 C 633.683 3.07546 -1.88275 0
M  V30 6547 O 632.787 3.94904 -1.18848 0
M  V30 6548 H 632.128 0.521967 -0.410423 0
M  V30 6549 H 634.658 1.14589 -1.69501 0
M  V30 6550 H 634.668 3.57793 -1.96082 0
M  V30 6551 H 633.343 2.95279 -2.92887 0
M  V30 6552 H 631.92 3.53339 -1.19187 0
M  V30 6553 N 634.105 1.10431 1.1244 0
M  V30 6554 C 635.353 0.845045 1.83585 0
M  V30 6555 C 635.674 -0.631168 1.84503 0
M  V30 6556 O 634.944 -1.45825 1.30813 0
M  V30 6557 H 633.524 0.309628 0.679809 0
M  V30 6558 H 636.186 1.39458 1.36153 0
M  V30 6559 H 635.282 1.20786 2.8778 0
M  V30 6560 N 635.583 -1.29855 0.893053 0
M  V30 6561 C 636.546 -2.26183 0.370687 0
M  V30 6562 C 637.546 -1.53108 -0.491385 0
M  V30 6563 O 638.736 -1.71643 -0.297386 0
M  V30 6564 C 635.868 -3.37633 -0.470827 0
M  V30 6565 H 637.061 -2.73903 1.22135 0
M  V30 6566 H 634.614 -1.41183 0.67061 0
M  V30 6567 H 635.349 -2.95241 -1.34175 0
M  V30 6568 H 635.134 -3.91825 0.146784 0
M  V30 6569 H 636.624 -4.09313 -0.827825 0
M  V30 6570 N 637.061 -0.65484 -1.43351 0
M  V30 6571 C 637.991 0.0221809 -2.33489 0
M  V30 6572 C 638.972 0.810272 -1.49561 0
M  V30 6573 O 640.157 0.771426 -1.78221 0
M  V30 6574 C 637.287 0.988117 -3.32947 0
M  V30 6575 C 636.241 0.310026 -4.26876 0
M  V30 6576 C 635.567 1.38752 -5.16384 0
M  V30 6577 C 636.867 -0.798589 -5.16159 0
M  V30 6578 H 638.561 -0.730571 -2.9035 0
M  V30 6579 H 636.107 -0.352773 -1.39612 0
M  V30 6580 H 638.06 1.47067 -3.94904 0
M  V30 6581 H 636.784 1.77205 -2.74346 0
M  V30 6582 H 635.443 -0.152097 -3.66284 0
M  V30 6583 H 635.091 2.16293 -4.54121 0
M  V30 6584 H 634.791 0.939051 -5.80048 0
M  V30 6585 H 636.315 1.87141 -5.81215 0
M  V30 6586 H 637.729 -0.398126 -5.71916 0
M  V30 6587 H 636.126 -1.17163 -5.88552 0
M  V30 6588 H 637.196 -1.65588 -4.55751 0
M  V30 6589 N 638.539 1.52521 -0.396863 0
M  V30 6590 C 639.449 2.30403 0.44178 0
M  V30 6591 C 640.465 1.37625 1.06468 0
M  V30 6592 O 641.641 1.70697 1.06886 0
M  V30 6593 C 638.706 3.1013 1.54986 0
M  V30 6594 C 637.767 4.18628 0.951279 0
M  V30 6595 C 637 4.94543 2.00655 0
M  V30 6596 O 637.223 4.70629 3.22281 0
M  V30 6597 O 636.157 5.797 1.61962 0
M  V30 6598 H 639.983 3.03087 -0.192892 0
M  V30 6599 H 637.568 1.48537 -0.16038 0
M  V30 6600 H 639.45 3.59816 2.19341 0
M  V30 6601 H 638.125 2.40251 2.16935 0
M  V30 6602 H 637.032 3.73119 0.270773 0
M  V30 6603 H 638.365 4.90763 0.375887 0
M  V30 6604 N 640.017 0.126909 1.57088 0
M  V30 6605 C 641.242 -0.53997 2.00248 0
M  V30 6606 C 641.667 -1.58927 1.00618 0
M  V30 6607 O 641.025 -1.81288 -0.0210131 0
M  V30 6608 C 641.073 -1.13565 3.4225 0
M  V30 6609 O 640.177 -2.25103 3.45547 0
M  V30 6610 H 639.518 -0.13412 0.650314 0
M  V30 6611 H 642.048 0.217718 2.03438 0
M  V30 6612 H 642.058 -1.46925 3.80627 0
M  V30 6613 H 640.733 -0.367122 4.14277 0
M  V30 6614 H 639.31 -1.93123 3.18995 0
M  V30 6615 N 641.495 -1.56914 -0.146875 0
M  V30 6616 C 642.741 -1.83628 -0.860741 0
M  V30 6617 C 643.074 -0.708528 -1.80813 0
M  V30 6618 O 642.349 0.287838 -1.92358 0
M  V30 6619 C 642.632 -3.20836 -1.63511 0
M  V30 6620 C 642.485 -4.44174 -0.709199 0
M  V30 6621 C 643.804 -3.55268 -2.59756 0
M  V30 6622 H 640.923 -0.667949 -0.311468 0
M  V30 6623 H 643.565 -1.89582 -0.125936 0
M  V30 6624 H 641.715 -3.15891 -2.26153 0
M  V30 6625 H 643.387 -4.61205 -0.0937781 0
M  V30 6626 H 641.63 -4.33796 -0.0187856 0
M  V30 6627 H 642.301 -5.36785 -1.28707 0
M  V30 6628 H 644.777 -3.60824 -2.07232 0
M  V30 6629 H 643.653 -4.52303 -3.10987 0
M  V30 6630 H 643.914 -2.81231 -3.41118 0
M  V30 6631 N 642.974 0.416227 -1.52004 0
M  V30 6632 C 644.39 0.754319 -1.40649 0
M  V30 6633 C 644.59 1.95059 -0.505392 0
M  V30 6634 O 643.646 2.5248 0.0315057 0
M  V30 6635 C 644.959 1.0149 -2.83055 0
M  V30 6636 C 646.507 1.11805 -2.9235 0
M  V30 6637 C 646.982 1.41144 -4.35709 0
M  V30 6638 N 648.473 1.48024 -4.38911 0
M  V30 6639 C 649.208 1.72338 -5.46889 0
M  V30 6640 N 648.704 1.94303 -6.64995 0
M  V30 6641 N 650.497 1.74294 -5.34395 0
M  V30 6642 H 642.648 -0.371324 -2.09129 0
M  V30 6643 H 644.911 -0.103811 -0.942299 0
M  V30 6644 H 644.617 0.208345 -3.51082 0
M  V30 6645 H 644.491 1.93697 -3.23668 0
M  V30 6646 H 646.878 1.91521 -2.24508 0
M  V30 6647 H 646.959 0.17451 -2.55204 0
M  V30 6648 H 646.603 0.619484 -5.04108 0
M  V30 6649 H 646.533 2.36739 -4.70385 0
M  V30 6650 H 649.024 1.32868 -3.53772 0
M  V30 6651 H 649.337 2.12286 -7.43071 0
M  V30 6652 H 647.682 1.91582 -6.68073 0
M  V30 6653 H 650.873 1.56667 -4.41104 0
M  V30 6654 H 651.046 1.92904 -6.18621 0
M  V30 6655 N 644.452 1.42507 0.673017 0
M  V30 6656 C 645.382 1.48916 1.79851 0
M  V30 6657 C 646.363 0.345566 1.66553 0
M  V30 6658 O 647.548 0.560116 1.85947 0
M  V30 6659 C 644.678 1.39258 3.18158 0
M  V30 6660 C 643.632 2.51662 3.46194 0
M  V30 6661 C 642.958 2.27062 4.84094 0
M  V30 6662 C 644.258 3.93968 3.42909 0
M  V30 6663 H 645.952 2.43114 1.74745 0
M  V30 6664 H 643.498 1.17013 0.839288 0
M  V30 6665 H 645.451 1.42349 3.96629 0
M  V30 6666 H 644.175 0.415542 3.23946 0
M  V30 6667 H 642.834 2.47891 2.70084 0
M  V30 6668 H 642.482 1.27648 4.86534 0
M  V30 6669 H 642.182 3.02398 5.03815 0
M  V30 6670 H 643.706 2.31905 5.64847 0
M  V30 6671 H 645.12 3.99332 4.11347 0
M  V30 6672 H 643.517 4.6917 3.74165 0
M  V30 6673 H 644.587 4.20512 2.41449 0
M  V30 6674 N 645.93 -0.909495 1.28709 0
M  V30 6675 C 646.86 -2.0291 1.15542 0
M  V30 6676 C 647.841 -1.7002 0.0521017 0
M  V30 6677 O 649.026 -1.92835 0.229849 0
M  V30 6678 C 646.156 -3.37458 0.820935 0
M  V30 6679 C 645.11 -3.84524 1.87949 0
M  V30 6680 C 644.436 -5.16086 1.39854 0
M  V30 6681 C 645.736 -4.05918 3.28676 0
M  V30 6682 H 647.43 -2.14183 2.09203 0
M  V30 6683 H 644.976 -1.02913 1.00722 0
M  V30 6684 H 646.929 -4.1528 0.715571 0
M  V30 6685 H 645.653 -3.26249 -0.151374 0
M  V30 6686 H 644.312 -3.08911 1.97408 0
M  V30 6687 H 643.96 -5.01284 0.41518 0
M  V30 6688 H 643.66 -5.48547 2.1064 0
M  V30 6689 H 645.184 -5.96459 1.30649 0
M  V30 6690 H 646.598 -4.74252 3.22115 0
M  V30 6691 H 644.995 -4.49717 3.97334 0
M  V30 6692 H 646.065 -3.10583 3.72379 0
M  V30 6693 N 647.408 -1.11026 -1.11852 0
M  V30 6694 C 648.355 -0.764662 -2.17765 0
M  V30 6695 C 649.325 0.261854 -1.64023 0
M  V30 6696 O 650.51 0.139748 -1.90288 0
M  V30 6697 C 647.65 -0.209317 -3.44465 0
M  V30 6698 C 646.763 -1.29187 -4.12231 0
M  V30 6699 C 645.898 -0.697523 -5.266 0
M  V30 6700 C 644.937 -1.76023 -5.86244 0
M  V30 6701 N 644.074 -1.18569 -6.92016 0
M  V30 6702 H 648.914 -1.67202 -2.46673 0
M  V30 6703 H 646.451 -0.835065 -1.21099 0
M  V30 6704 H 648.409 0.130599 -4.16996 0
M  V30 6705 H 647.039 0.661251 -3.15955 0
M  V30 6706 H 646.091 -1.74881 -3.37818 0
M  V30 6707 H 647.403 -2.09607 -4.52622 0
M  V30 6708 H 646.557 -0.307412 -6.05921 0
M  V30 6709 H 645.296 0.138044 -4.87505 0
M  V30 6710 H 644.301 -2.1597 -5.05606 0
M  V30 6711 H 645.526 -2.59875 -6.27409 0
M  V30 6712 H 643.472 -0.371695 -6.54946 0
M  V30 6713 H 643.389 -1.92666 -7.31038 0
M  V30 6714 H 644.657 -0.82233 -7.7515 0
M  V30 6715 N 648.886 1.2938 -0.899927 0
M  V30 6716 C 650.134 1.95164 -0.524924 0
M  V30 6717 C 650.455 1.71292 0.931888 0
M  V30 6718 O 649.725 1.04481 1.65712 0
M  V30 6719 H 648.305 0.722133 -0.191135 0
M  V30 6720 H 650.967 1.57628 -1.14627 0
M  V30 6721 H 650.063 3.0397 -0.707711 0
M  V30 6722 N 650.364 0.662433 1.43002 0
M  V30 6723 C 651.274 -0.0239199 2.34588 0
M  V30 6724 C 652.29 -0.802255 1.54402 0
M  V30 6725 O 653.466 -0.747401 1.87018 0
M  V30 6726 C 650.531 -0.972098 3.32793 0
M  V30 6727 C 649.592 -0.189673 4.28881 0
M  V30 6728 C 648.825 -1.09269 5.22395 0
M  V30 6729 O 649.048 -2.33209 5.20547 0
M  V30 6730 O 647.982 -0.560136 5.99288 0
M  V30 6731 H 651.808 0.730171 2.94792 0
M  V30 6732 H 649.393 0.422635 1.43297 0
M  V30 6733 H 651.275 -1.51676 3.93157 0
M  V30 6734 H 649.95 -1.70626 2.75079 0
M  V30 6735 H 648.857 0.398794 3.71968 0
M  V30 6736 H 650.19 0.50511 4.89601 0
M  V30 6737 N 651.842 -1.52309 0.404946 0
M  V30 6738 C 652.752 -2.30634 -0.429555 0
M  V30 6739 C 653.768 -1.38187 -1.05737 0
M  V30 6740 O 654.944 -1.71261 -1.05979 0
M  V30 6741 C 652.009 -3.10947 -1.53339 0
M  V30 6742 C 651.07 -4.19126 -0.929065 0
M  V30 6743 C 650.303 -4.95601 -1.9803 0
M  V30 6744 O 650.526 -4.72331 -3.1978 0
M  V30 6745 O 649.46 -5.80551 -1.58886 0
M  V30 6746 H 653.286 -3.0298 0.208963 0
M  V30 6747 H 650.871 -1.4845 0.168255 0
M  V30 6748 H 652.753 -3.60974 -2.1743 0
M  V30 6749 H 651.428 -2.41399 -2.15658 0
M  V30 6750 H 650.335 -3.73257 -0.250982 0
M  V30 6751 H 651.668 -4.90955 -0.349855 0
M  V30 6752 N 653.32 -0.135238 -1.57019 0
M  V30 6753 C 654.568 0.51777 -1.95355 0
M  V30 6754 C 654.889 1.6617 -1.02042 0
M  V30 6755 O 654.159 1.95738 -0.0797343 0
M  V30 6756 H 652.739 0.194264 -0.721298 0
M  V30 6757 H 655.401 -0.207983 -1.93787 0
M  V30 6758 H 654.497 0.901675 -2.98791 0
M  V30 6759 N 654.798 1.5699 0.138552 0
M  V30 6760 C 655.73 1.95515 1.1961 0
M  V30 6761 C 656.743 0.852002 1.38726 0
M  V30 6762 O 657.932 1.13038 1.38147 0
M  V30 6763 C 655.032 2.2213 2.55952 0
M  V30 6764 C 654.205 3.53424 2.57702 0
M  V30 6765 C 653.264 3.6848 3.75645 0
M  V30 6766 O 652.29 4.4079 3.60129 0
M  V30 6767 N 653.492 3.05777 4.93438 0
M  V30 6768 H 656.257 2.86838 0.868557 0
M  V30 6769 H 653.818 1.58542 0.328033 0
M  V30 6770 H 655.81 2.29435 3.33379 0
M  V30 6771 H 654.38 1.3703 2.80965 0
M  V30 6772 H 653.6 3.57484 1.6613 0
M  V30 6773 H 654.888 4.39759 2.55909 0
M  V30 6774 H 654.286 2.46961 5.08947 0
M  V30 6775 H 652.843 3.18631 5.6861 0
M  V30 6776 N 656.276 -0.40816 1.52223 0
M  V30 6777 C 657.239 -1.48 1.7501 0
M  V30 6778 C 658.239 -1.48367 0.619996 0
M  V30 6779 O 659.429 -1.49874 0.887881 0
M  V30 6780 C 656.561 -2.87403 1.83336 0
M  V30 6781 H 657.754 -1.29086 2.70697 0
M  V30 6782 H 655.307 -0.638715 1.42654 0
M  V30 6783 H 656.042 -3.11686 0.895677 0
M  V30 6784 H 655.827 -2.8854 2.65494 0
M  V30 6785 H 657.317 -3.65103 2.02705 0
M  V30 6786 N 657.755 -1.42862 -0.66545 0
M  V30 6787 C 658.685 -1.49867 -1.79059 0
M  V30 6788 C 659.666 -0.354394 -1.66367 0
M  V30 6789 O 660.851 -0.569969 -1.85647 0
M  V30 6790 C 657.981 -1.40943 -3.17415 0
M  V30 6791 C 656.935 -2.53495 -3.44854 0
M  V30 6792 C 656.261 -2.29626 -4.82883 0
M  V30 6793 C 657.561 -3.95781 -3.40815 0
M  V30 6794 H 659.255 -2.44037 -1.73453 0
M  V30 6795 H 656.801 -1.17456 -0.833071 0
M  V30 6796 H 658.754 -1.4445 -3.95869 0
M  V30 6797 H 657.478 -0.432716 -3.23721 0
M  V30 6798 H 656.137 -2.4932 -2.68766 0
M  V30 6799 H 655.785 -1.30226 -4.8585 0
M  V30 6800 H 655.485 -3.05065 -5.02204 0
M  V30 6801 H 657.009 -2.34897 -5.63609 0
M  V30 6802 H 658.423 -4.01508 -4.09224 0
M  V30 6803 H 656.82 -4.71148 -3.71672 0
M  V30 6804 H 657.89 -4.21786 -2.39216 0
M  V30 6805 N 659.233 0.902656 -1.29189 0
M  V30 6806 C 660.649 1.18296 -1.07137 0
M  V30 6807 C 660.849 2.00701 0.179223 0
M  V30 6808 O 659.905 2.3675 0.877812 0
M  V30 6809 C 661.218 1.90677 -2.32514 0
M  V30 6810 C 662.766 2.03515 -2.37804 0
M  V30 6811 C 663.241 2.79307 -3.62976 0
M  V30 6812 N 664.732 2.86862 -3.63681 0
M  V30 6813 C 665.467 3.46035 -4.57217 0
M  V30 6814 N 664.963 4.06399 -5.61081 0
M  V30 6815 N 666.756 3.43681 -4.44792 0
M  V30 6816 H 658.907 0.352765 -2.0945 0
M  V30 6817 H 661.17 0.21876 -0.922414 0
M  V30 6818 H 660.876 1.3756 -3.23682 0
M  V30 6819 H 660.75 2.91169 -2.39793 0
M  V30 6820 H 663.137 2.55809 -1.47125 0
M  V30 6821 H 663.218 1.02166 -2.34512 0
M  V30 6822 H 662.862 2.2769 -4.54004 0
M  V30 6823 H 662.792 3.80995 -3.63525 0
M  V30 6824 H 665.283 2.43987 -2.88581 0
M  V30 6825 H 665.596 4.49564 -6.2858 0
M  V30 6826 H 663.941 4.0487 -5.64894 0
M  V30 6827 H 667.132 2.9574 -3.62843 0
M  V30 6828 H 667.305 3.89503 -5.17872 0
M  V30 6829 N 660.711 1.11618 1.11262 0
M  V30 6830 C 662.127 0.850468 1.35053 0
M  V30 6831 C 662.327 -0.523868 1.94571 0
M  V30 6832 O 661.383 -1.2743 2.17986 0
M  V30 6833 C 662.696 1.96005 2.28041 0
M  V30 6834 C 664.244 1.98993 2.416 0
M  V30 6835 C 664.719 3.0916 3.37911 0
M  V30 6836 N 666.21 3.08547 3.45475 0
M  V30 6837 C 666.945 3.9043 4.19943 0
M  V30 6838 N 666.441 4.8228 4.97371 0
M  V30 6839 N 668.234 3.786 4.15474 0
M  V30 6840 H 660.385 2.00184 0.709932 0
M  V30 6841 H 662.648 0.870635 0.375099 0
M  V30 6842 H 662.354 2.9499 1.91503 0
M  V30 6843 H 662.228 1.85782 3.28275 0
M  V30 6844 H 664.615 1.00633 2.77411 0
M  V30 6845 H 664.696 2.13292 1.4121 0
M  V30 6846 H 664.34 4.07748 3.02827 0
M  V30 6847 H 664.27 2.92102 4.3816 0
M  V30 6848 H 666.761 2.42 2.90249 0
M  V30 6849 H 667.074 5.41289 5.51567 0
M  V30 6850 H 665.419 4.863 4.96525 0
M  V30 6851 H 668.61 3.06185 3.54074 0
M  V30 6852 H 668.783 4.42647 4.73253 0
M  V30 6853 N 662.189 -1.289 0.906776 0
M  V30 6854 C 663.152 -2.25777 0.394656 0
M  V30 6855 C 664.152 -1.53621 -0.475119 0
M  V30 6856 O 665.342 -1.71949 -0.279165 0
M  V30 6857 C 662.474 -3.38113 -0.43499 0
M  V30 6858 H 663.667 -2.72592 1.25033 0
M  V30 6859 H 661.22 -1.40463 0.685547 0
M  V30 6860 H 661.955 -2.96648 -1.31036 0
M  V30 6861 H 661.74 -3.91647 0.188334 0
M  V30 6862 H 663.23 -4.10168 -0.784365 0
M  V30 6863 N 663.667 -0.670007 -1.42649 0
M  V30 6864 C 664.617 0.0339546 -2.27975 0
M  V30 6865 C 665.601 0.778295 -1.40824 0
M  V30 6866 O 666.793 0.657997 -1.64315 0
M  V30 6867 C 663.922 0.987899 -3.28779 0
M  V30 6868 C 663.008 0.241153 -4.23414 0
M  V30 6869 N 663.399 -0.751392 -5.00188 0
M  V30 6870 C 661.697 0.480269 -4.43407 0
M  V30 6871 C 662.398 -1.19615 -5.69269 0
M  V30 6872 N 661.374 -0.527045 -5.41039 0
M  V30 6873 H 665.176 -0.727425 -2.84756 0
M  V30 6874 H 662.69 -0.498673 -1.54554 0
M  V30 6875 H 664.687 1.50716 -3.88703 0
M  V30 6876 H 663.347 1.74916 -2.73559 0
M  V30 6877 H 664.358 -1.13075 -5.05405 0
M  V30 6878 H 661.035 1.2214 -3.99234 0
M  V30 6879 H 662.425 -2.01836 -6.40868 0
M  V30 6880 N 665.145 1.52092 -0.413018 0
M  V30 6881 C 666.077 2.24819 0.445994 0
M  V30 6882 C 667.09 1.27925 1.00692 0
M  V30 6883 O 668.279 1.53845 0.905204 0
M  V30 6884 C 665.379 2.96951 1.6332 0
M  V30 6885 C 664.552 4.20746 1.19548 0
M  V30 6886 C 663.611 4.75668 2.25003 0
M  V30 6887 O 662.637 5.38148 1.85434 0
M  V30 6888 N 663.839 4.57579 3.57214 0
M  V30 6889 H 666.604 2.99176 -0.177209 0
M  V30 6890 H 664.165 1.60102 -0.240601 0
M  V30 6891 H 666.157 3.30586 2.33441 0
M  V30 6892 H 664.727 2.25756 2.16225 0
M  V30 6893 H 663.947 3.92881 0.32224 0
M  V30 6894 H 665.235 5.01132 0.880033 0
M  V30 6895 H 664.633 4.07758 3.92109 0
M  V30 6896 H 663.19 4.95642 4.23299 0
M  V30 6897 N 666.623 0.143563 1.56945 0
M  V30 6898 C 668.039 -0.212877 1.58174 0
M  V30 6899 C 668.239 -1.64926 1.15766 0
M  V30 6900 O 667.295 -2.37535 0.856361 0
M  V30 6901 C 668.608 0.0427573 3.0067 0
M  V30 6902 C 670.156 -0.0212221 3.12993 0
M  V30 6903 C 670.631 0.207036 4.57532 0
M  V30 6904 N 672.122 0.153845 4.62944 0
M  V30 6905 C 672.857 0.305018 5.72588 0
M  V30 6906 N 672.353 0.513722 6.90893 0
M  V30 6907 N 674.146 0.242862 5.61575 0
M  V30 6908 H 666.297 1.08148 1.82805 0
M  V30 6909 H 668.56 0.427831 0.84597 0
M  V30 6910 H 668.266 1.03672 3.36073 0
M  V30 6911 H 668.14 -0.678195 3.71053 0
M  V30 6912 H 670.527 -1.00574 2.77433 0
M  V30 6913 H 670.608 0.732004 2.45103 0
M  V30 6914 H 670.252 1.18863 4.93795 0
M  V30 6915 H 670.182 -0.566473 5.23544 0
M  V30 6916 H 672.673 -0.00294866 3.779 0
M  V30 6917 H 672.986 0.619273 7.70315 0
M  V30 6918 H 671.331 0.550001 6.9282 0
M  V30 6919 H 674.522 0.0806015 4.68031 0
M  V30 6920 H 674.695 0.364112 6.46976 0
M  V30 6921 N 668.101 -1.57061 -0.130224 0
M  V30 6922 C 669.049 -2.00486 -1.17933 0
M  V30 6923 C 670.043 -0.899933 -1.43519 0
M  V30 6924 O 671.249 -1.08514 -1.43613 0
M  V30 6925 H 667.624 -0.638441 -0.397363 0
M  V30 6926 H 669.595 -2.87848 -0.786501 0
M  V30 6927 C 668.344 -2.41565 -2.50084 0
M  V30 6928 H 667.667 -3.26148 -2.31231 0
M  V30 6929 H 669.107 -2.75757 -3.22078 0
M  V30 6930 C 667.566 -1.27485 -3.11848 0
M  V30 6931 O 668.096 -0.584688 -3.97422 0
M  V30 6932 N 666.302 -1.03478 -2.71552 0
M  V30 6933 H 665.849 -1.59779 -2.02061 0
M  V30 6934 H 665.807 -0.27341 -3.13209 0
M  V30 6935 N 669.579 0.400081 -1.52437 0
M  V30 6936 C 670.825 1.14788 -1.67187 0
M  V30 6937 C 671.158 1.89928 -0.405074 0
M  V30 6938 O 670.433 1.85118 0.596804 0
M  V30 6939 C 670.716 2.13507 -2.89977 0
M  V30 6940 C 670.569 1.42204 -4.2673 0
M  V30 6941 C 671.888 3.14069 -3.083 0
M  V30 6942 H 669.007 0.415939 -0.608411 0
M  V30 6943 H 671.649 0.432542 -1.85011 0
M  V30 6944 H 669.799 2.7451 -2.74912 0
M  V30 6945 H 671.471 0.842503 -4.53541 0
M  V30 6946 H 669.714 0.723939 -4.27717 0
M  V30 6947 H 670.385 2.14281 -5.08712 0
M  V30 6948 H 672.861 2.63148 -3.22323 0
M  V30 6949 H 671.737 3.80398 -3.95713 0
M  V30 6950 H 671.998 3.82309 -2.22018 0
M  V30 6951 N 671.057 1.43213 0.657864 0
M  V30 6952 C 672.004 1.48011 1.77092 0
M  V30 6953 C 672.974 0.330291 1.62783 0
M  V30 6954 O 674.159 0.536787 1.83094 0
M  V30 6955 C 671.299 1.40461 3.15222 0
M  V30 6956 C 670.412 2.65612 3.40697 0
M  V30 6957 C 669.547 2.50083 4.68649 0
M  V30 6958 C 668.586 3.70525 4.87214 0
M  V30 6959 N 667.723 3.53835 6.0642 0
M  V30 6960 H 672.563 2.43121 1.72326 0
M  V30 6961 H 670.1 1.20687 0.841013 0
M  V30 6962 H 672.058 1.34079 3.95068 0
M  V30 6963 H 670.688 0.489359 3.19069 0
M  V30 6964 H 669.74 2.82292 2.54982 0
M  V30 6965 H 671.052 3.5509 3.50303 0
M  V30 6966 H 670.206 2.41383 5.56614 0
M  V30 6967 H 668.945 1.58121 4.61356 0
M  V30 6968 H 667.95 3.79639 3.97686 0
M  V30 6969 H 669.175 4.63489 4.96341 0
M  V30 6970 H 667.121 2.64604 6.00267 0
M  V30 6971 H 667.038 4.36912 6.16963 0
M  V30 6972 H 668.306 3.48978 6.97019 0
M  V30 6973 N 672.536 -0.895792 1.29666 0
M  V30 6974 C 673.486 -1.98736 1.1175 0
M  V30 6975 C 674.47 -1.6086 0.0357834 0
M  V30 6976 O 675.662 -1.75111 0.257926 0
M  V30 6977 C 672.791 -3.33845 0.800156 0
M  V30 6978 C 671.877 -3.78068 1.9216 0
M  V30 6979 N 672.268 -3.94489 3.16563 0
M  V30 6980 C 670.566 -4.07376 1.81552 0
M  V30 6981 C 671.267 -4.31819 3.89753 0
M  V30 6982 N 670.243 -4.41081 3.17724 0
M  V30 6983 H 674.045 -2.09507 2.06117 0
M  V30 6984 H 671.559 -1.08488 1.20848 0
M  V30 6985 H 673.556 -4.11757 0.652841 0
M  V30 6986 H 672.216 -3.24417 -0.135551 0
M  V30 6987 H 673.227 -3.79914 3.51974 0
M  V30 6988 H 669.904 -4.06483 0.952787 0
M  V30 6989 H 671.294 -4.52337 4.96831 0
M  V30 6990 N 674.014 -1.12206 -1.10668 0
M  V30 6991 C 674.947 -0.731468 -2.16159 0
M  V30 6992 C 675.925 0.276216 -1.60237 0
M  V30 6993 O 677.109 0.17074 -1.87725 0
M  V30 6994 C 674.236 -0.0822882 -3.386 0
M  V30 6995 C 673.282 -1.05641 -4.1321 0
M  V30 6996 S 674.115 -2.58281 -4.69096 0
M  V30 6997 C 675.271 -1.94686 -5.94851 0
M  V30 6998 H 675.504 -1.62504 -2.48957 0
M  V30 6999 H 673.037 -0.940906 -1.22419 0
M  V30 7000 H 674.995 0.285896 -4.09503 0
M  V30 7001 H 673.656 0.788358 -3.04046 0
M  V30 7002 H 672.849 -0.549764 -5.00993 0
M  V30 7003 H 672.451 -1.36741 -3.48106 0
M  V30 7004 H 674.743 -1.28815 -6.65141 0
M  V30 7005 H 675.686 -2.80499 -6.50174 0
M  V30 7006 H 676.094 -1.40369 -5.46769 0
M  V30 7007 N 675.492 1.28418 -0.913599 0
M  V30 7008 C 676.908 1.47411 -0.611728 0
M  V30 7009 C 677.108 1.83018 0.843008 0
M  V30 7010 O 676.164 1.93505 1.6221 0
M  V30 7011 C 677.477 2.57703 -1.5495 0
M  V30 7012 C 679.025 2.71572 -1.5562 0
M  V30 7013 C 679.5 3.85008 -2.48058 0
M  V30 7014 N 680.991 3.92361 -2.46184 0
M  V30 7015 C 681.726 4.79516 -3.14407 0
M  V30 7016 N 681.222 5.71262 -3.91958 0
M  V30 7017 N 683.015 4.73125 -3.03495 0
M  V30 7018 H 675.166 1.03585 -1.85429 0
M  V30 7019 H 677.429 0.515907 -0.795326 0
M  V30 7020 H 677.135 2.38298 -2.58663 0
M  V30 7021 H 677.009 3.54801 -1.28048 0
M  V30 7022 H 679.396 2.90366 -0.526441 0
M  V30 7023 H 679.477 1.75006 -1.86565 0
M  V30 7024 H 679.121 3.66969 -3.51136 0
M  V30 7025 H 679.051 4.80971 -2.14416 0
M  V30 7026 H 681.542 3.26749 -1.89851 0
M  V30 7027 H 681.855 6.34593 -4.41034 0
M  V30 7028 H 680.2 5.71103 -3.96063 0
M  V30 7029 H 683.391 4.00442 -2.42413 0
M  V30 7030 H 683.564 5.40834 -3.56935 0
M  V30 7031 N 676.97 0.677563 1.42291 0
M  V30 7032 C 677.902 -0.0380218 2.29168 0
M  V30 7033 C 678.915 -0.762714 1.43828 0
M  V30 7034 O 680.104 -0.616413 1.67519 0
M  V30 7035 C 677.204 -1.07761 3.21311 0
M  V30 7036 C 676.377 -0.42618 4.35319 0
M  V30 7037 C 675.436 -1.36592 5.08162 0
M  V30 7038 O 674.462 -0.865174 5.62586 0
M  V30 7039 N 675.664 -2.69909 5.13935 0
M  V30 7040 H 678.429 0.707766 2.91223 0
M  V30 7041 H 675.99 0.52219 1.53247 0
M  V30 7042 H 677.982 -1.70761 3.6691 0
M  V30 7043 H 676.552 -1.72511 2.60689 0
M  V30 7044 H 675.772 0.383385 3.92331 0
M  V30 7045 H 677.06 0.0275277 5.08793 0
M  V30 7046 H 676.458 -3.13129 4.71134 0
M  V30 7047 H 675.015 -3.2815 5.6317 0
M  V30 7048 N 678.448 -1.51871 0.421078 0
M  V30 7049 C 679.378 -2.30231 -0.389363 0
M  V30 7050 C 680.359 -1.34946 -1.03555 0
M  V30 7051 O 681.544 -1.63859 -1.04229 0
M  V30 7052 C 678.674 -3.13247 -1.49979 0
M  V30 7053 C 677.628 -4.16677 -0.977966 0
M  V30 7054 C 676.954 -4.88112 -2.1829 0
M  V30 7055 C 678.254 -5.22295 -0.0236775 0
M  V30 7056 H 679.948 -2.98229 0.264524 0
M  V30 7057 H 677.494 -1.43424 0.12866 0
M  V30 7058 H 679.447 -3.66838 -2.07383 0
M  V30 7059 H 678.171 -2.4304 -2.18173 0
M  V30 7060 H 676.83 -3.64114 -0.426245 0
M  V30 7061 H 676.478 -4.14423 -2.85066 0
M  V30 7062 H 676.178 -5.58041 -1.84021 0
M  V30 7063 H 677.702 -5.44521 -2.76278 0
M  V30 7064 H 679.116 -5.71055 -0.506899 0
M  V30 7065 H 677.513 -5.99656 0.230782 0
M  V30 7066 H 678.583 -4.76131 0.917999 0
M  V30 7067 N 679.926 -0.151884 -1.56866 0
M  V30 7068 C 680.856 0.781943 -2.20018 0
M  V30 7069 C 681.837 1.25347 -1.14987 0
M  V30 7070 O 683.022 1.31015 -1.43348 0
M  V30 7071 C 680.152 2.01928 -2.82564 0
M  V30 7072 C 679.106 1.68434 -3.93464 0
M  V30 7073 C 678.432 2.99472 -4.42968 0
M  V30 7074 C 679.732 0.927244 -5.14003 0
M  V30 7075 H 681.426 0.255607 -2.98307 0
M  V30 7076 H 678.972 0.121502 -1.43486 0
M  V30 7077 H 680.925 2.67741 -3.25411 0
M  V30 7078 H 679.649 2.56943 -2.01614 0
M  V30 7079 H 678.308 1.04998 -3.51242 0
M  V30 7080 H 677.956 3.52488 -3.58834 0
M  V30 7081 H 677.656 2.77823 -5.17772 0
M  V30 7082 H 679.18 3.66348 -4.88489 0
M  V30 7083 H 680.594 1.48756 -5.53665 0
M  V30 7084 H 678.991 0.810513 -5.94601 0
M  V30 7085 H 680.061 -0.0801163 -4.84834 0
M  V30 7086 N 681.404 1.57128 0.121893 0
M  V30 7087 C 682.337 1.95327 1.17995 0
M  V30 7088 C 683.315 0.822524 1.40262 0
M  V30 7089 O 684.499 1.08044 1.54463 0
M  V30 7090 C 681.626 2.24699 2.53432 0
M  V30 7091 C 680.672 3.47263 2.4761 0
M  V30 7092 S 681.505 4.99951 1.91857 0
M  V30 7093 C 682.661 5.32473 3.28973 0
M  V30 7094 H 682.894 2.84765 0.854182 0
M  V30 7095 H 680.427 1.50864 0.328534 0
M  V30 7096 H 682.385 2.423 3.31362 0
M  V30 7097 H 681.046 1.3588 2.83188 0
M  V30 7098 H 680.239 3.65171 3.4737 0
M  V30 7099 H 679.841 3.29034 1.778 0
M  V30 7100 H 682.133 5.27478 4.25175 0
M  V30 7101 H 683.076 6.33732 3.15895 0
M  V30 7102 H 683.484 4.59952 3.27268 0
M  V30 7103 N 682.882 -0.391992 1.52647 0
M  V30 7104 C 684.159 -1.15136 1.58123 0
M  V30 7105 C 684.539 -2.07786 0.372597 0
M  V30 7106 O 683.887 -2.19374 -0.639304 0
M  V30 7107 C 684.097 -1.91367 2.91856 0
M  V30 7108 C 685.445 -2.46833 3.45483 0
M  V30 7109 O 686.469 -2.01527 2.9371 0
M  V30 7110 O 685.328 -3.29587 4.3593 0
M  V30 7111 H 682.422 -0.526649 0.637629 0
M  V30 7112 H 684.968 -0.397386 1.64982 0
M  V30 7113 H 683.74 -1.23597 3.71268 0
M  V30 7114 H 683.363 -2.73732 2.88369 0
M  V30 7115 N 684.36 -1.4356 -0.65026 0
M  V30 7116 C 685.776 -1.27025 -0.966269 0
M  V30 7117 C 685.976 -0.192117 -2.00582 0
M  V30 7118 O 685.032 0.428459 -2.48838 0
M  V30 7119 C 686.345 -2.63556 -1.44772 0
M  V30 7120 C 687.893 -2.71111 -1.56421 0
M  V30 7121 C 688.368 -4.08067 -2.07956 0
M  V30 7122 N 689.859 -4.10146 -2.15254 0
M  V30 7123 C 690.594 -5.12952 -2.56258 0
M  V30 7124 N 690.09 -6.26129 -2.96537 0
M  V30 7125 N 691.883 -5.00306 -2.56224 0
M  V30 7126 H 684.034 -2.12367 0.0375758 0
M  V30 7127 H 686.297 -0.946894 -0.0457782 0
M  V30 7128 H 686.003 -3.43429 -0.758271 0
M  V30 7129 H 685.877 -2.89152 -2.42221 0
M  V30 7130 H 688.264 -1.91569 -2.24467 0
M  V30 7131 H 688.345 -2.49277 -0.573967 0
M  V30 7132 H 687.989 -4.88077 -1.40511 0
M  V30 7133 H 687.919 -4.27266 -3.07817 0
M  V30 7134 H 690.41 -3.28453 -1.86887 0
M  V30 7135 H 690.723 -7.00403 -3.26582 0
M  V30 7136 H 689.068 -6.29597 -2.94334 0
M  V30 7137 H 692.259 -4.10952 -2.24135 0
M  V30 7138 H 692.432 -5.80553 -2.87857 0
M  V30 7139 N 685.838 0.888903 -1.30139 0
M  V30 7140 C 687.086 1.63713 -1.18501 0
M  V30 7141 C 687.407 1.9324 0.261399 0
M  V30 7142 O 686.677 1.56608 1.17689 0
M  V30 7143 H 685.257 0.606861 -0.435579 0
M  V30 7144 H 687.919 1.06525 -1.63213 0
M  V30 7145 H 687.015 2.58894 -1.743 0
M  V30 7146 N 687.317 1.12792 1.10072 0
M  V30 7147 C 688.247 0.821688 2.18565 0
M  V30 7148 C 689.228 -0.21612 1.68721 0
M  V30 7149 O 690.413 -0.0764932 1.94049 0
M  V30 7150 C 687.543 0.279624 3.46172 0
M  V30 7151 C 686.497 1.25092 4.09312 0
M  V30 7152 C 685.823 0.568916 5.31665 0
M  V30 7153 C 687.123 2.60699 4.52585 0
M  V30 7154 H 688.817 1.72888 2.44438 0
M  V30 7155 H 686.363 0.832702 1.17482 0
M  V30 7156 H 688.316 0.053099 4.21367 0
M  V30 7157 H 687.04 -0.662929 3.19801 0
M  V30 7158 H 685.699 1.46332 3.36129 0
M  V30 7159 H 685.347 -0.378898 5.01571 0
M  V30 7160 H 685.047 1.21687 5.74862 0
M  V30 7161 H 686.571 0.351517 6.09587 0
M  V30 7162 H 687.985 2.43465 5.19035 0
M  V30 7163 H 686.382 3.21608 5.06644 0
M  V30 7164 H 687.452 3.1886 3.65317 0
M  V30 7165 N 688.795 -1.27931 0.920396 0
M  V30 7166 C 690.206 -1.76707 0.602616 0
M  V30 7167 C 690.557 -1.75249 -0.882159 0
M  V30 7168 O 689.682 -1.35135 -1.69019 0
M  V30 7169 C 690.277 -3.20884 1.08714 0
M  V30 7170 C 688.836 -3.67356 0.820157 0
M  V30 7171 C 687.983 -2.47525 1.25006 0
M  V30 7172 H 690.934 -1.14301 1.10095 0
M  V30 7173 H 690.955 -3.78045 0.431535 0
M  V30 7174 H 690.467 -3.21913 2.1678 0
M  V30 7175 H 688.568 -3.7178 -0.247012 0
M  V30 7176 H 688.681 -4.57181 1.43257 0
M  V30 7177 H 687.045 -2.45765 0.668698 0
M  V30 7178 H 687.828 -2.51269 2.3392 0
M  V30 7179 N 690.273 -0.685099 -1.4193 0
M  V30 7180 C 691.519 -0.211971 -2.01689 0
M  V30 7181 C 691.852 1.18189 -1.54094 0
M  V30 7182 O 691.127 1.79559 -0.747572 0
M  V30 7183 C 691.41 -0.258019 -3.59174 0
M  V30 7184 C 691.263 -1.68807 -4.16922 0
M  V30 7185 C 692.582 0.388044 -4.38386 0
M  V30 7186 H 689.701 -0.0784987 -0.732808 0
M  V30 7187 H 692.343 -0.871837 -1.68816 0
M  V30 7188 H 690.493 0.303832 -3.8731 0
M  V30 7189 H 692.165 -2.30296 -3.99702 0
M  V30 7190 H 690.408 -2.22553 -3.72361 0
M  V30 7191 H 691.079 -1.6719 -5.26072 0
M  V30 7192 H 693.555 -0.0903432 -4.16002 0
M  V30 7193 H 692.431 0.325232 -5.47936 0
M  V30 7194 H 692.692 1.4672 -4.17044 0
M  V30 7195 N 691.751 1.51645 -0.429126 0
M  V30 7196 C 693 2.01203 0.141538 0
M  V30 7197 C 693.313 1.31828 1.44502 0
M  V30 7198 O 694.519 1.7231 2.09813 0
M  V30 7199 C 692.975 3.58624 0.302786 0
M  V30 7200 C 692.583 4.3693 -0.989775 0
M  V30 7201 C 694.327 4.16353 0.827661 0
M  V30 7202 C 692.234 5.86037 -0.794619 0
M  V30 7203 H 691.164 0.751867 0.05667 0
M  V30 7204 H 693.815 1.74822 -0.557633 0
M  V30 7205 H 692.197 3.81417 1.06476 0
M  V30 7206 H 693.371 4.25887 -1.75945 0
M  V30 7207 H 691.686 3.90614 -1.44256 0
M  V30 7208 H 694.283 5.25455 0.990026 0
M  V30 7209 H 694.626 3.74995 1.80787 0
M  V30 7210 H 695.159 3.97606 0.124213 0
M  V30 7211 H 691.898 6.31792 -1.74697 0
M  V30 7212 H 691.418 5.99765 -0.0645968 0
M  V30 7213 H 693.097 6.45471 -0.444591 0
M  V30 7214 N 693.229 0.160201 1.56784 0
M  V30 7215 C 694.64 -0.358417 1.83227 0
M  V30 7216 C 694.991 -1.63831 1.07952 0
M  V30 7217 O 694.116 -2.13885 0.328995 0
M  V30 7218 C 694.711 -0.657058 3.32368 0
M  V30 7219 C 693.27 -1.12015 3.59346 0
M  V30 7220 C 692.417 -0.15015 2.76893 0
M  V30 7221 H 695.368 0.384669 1.53967 0
M  V30 7222 H 695.389 -1.51033 3.49241 0
M  V30 7223 H 694.901 0.274647 3.87127 0
M  V30 7224 H 693.002 -2.06734 3.09987 0
M  V30 7225 H 693.115 -1.037 4.67743 0
M  V30 7226 H 691.479 -0.645361 2.46388 0
M  V30 7227 H 692.262 0.775379 3.34429 0
M  V30 7228 N 694.707 -1.5719 -0.113559 0
M  V30 7229 C 695.947 -1.86958 -0.82621 0
M  V30 7230 C 696.311 -0.748884 -1.76793 0
M  V30 7231 O 697.512 -0.92847 -2.52256 0
M  V30 7232 C 695.783 -3.21957 -1.55173 0
M  V30 7233 S 697.342 -3.73371 -2.3052 0
M  V30 7234 H 694.16 -0.655394 -0.275643 0
M  V30 7235 H 696.762 -1.95318 -0.0842684 0
M  V30 7236 H 695.466 -4.01459 -0.851977 0
M  V30 7237 H 694.997 -3.16688 -2.33393 0
M  V30 7238 H 697.012 -3.45308 -3.56338 0
M  V30 7239 N 696.185 0.383891 -1.52853 0
M  V30 7240 C 697.596 0.961591 -1.60032 0
M  V30 7241 C 697.947 1.90819 -0.456333 0
M  V30 7242 O 697.072 2.12288 0.419873 0
M  V30 7243 C 697.667 1.75078 -2.90057 0
M  V30 7244 C 696.226 2.2781 -2.99632 0
M  V30 7245 C 695.373 1.08512 -2.55187 0
M  V30 7246 H 698.324 0.163269 -1.57858 0
M  V30 7247 H 698.345 2.61046 -2.7683 0
M  V30 7248 H 697.857 1.06157 -3.73299 0
M  V30 7249 H 695.958 3.00028 -2.20939 0
M  V30 7250 H 696.071 2.56947 -4.0437 0
M  V30 7251 H 694.435 1.44667 -2.09627 0
M  V30 7252 H 695.218 0.41118 -3.40829 0
M  V30 7253 N 697.663 1.43903 0.642637 0
M  V30 7254 C 698.888 1.49758 1.43483 0
M  V30 7255 C 699.313 0.119911 1.87717 0
M  V30 7256 O 698.671 -0.888558 1.58033 0
M  V30 7257 C 698.719 2.45744 2.63898 0
M  V30 7258 O 697.823 1.95101 3.63331 0
M  V30 7259 H 697.164 0.506138 0.429791 0
M  V30 7260 H 699.694 1.88923 0.785438 0
M  V30 7261 H 699.704 2.63399 3.11584 0
M  V30 7262 H 698.379 3.45818 2.31046 0
M  V30 7263 H 696.956 1.87158 3.22531 0
M  V30 7264 N 699.141 -0.881989 1.30609 0
M  V30 7265 C 700.091 -1.97539 1.13852 0
M  V30 7266 C 701.075 -1.60813 0.0528428 0
M  V30 7267 O 702.267 -1.74827 0.276484 0
M  V30 7268 C 699.396 -3.32977 0.835519 0
M  V30 7269 C 698.482 -3.76008 1.96159 0
M  V30 7270 N 698.873 -3.91109 3.20729 0
M  V30 7271 C 697.171 -4.05427 1.85863 0
M  V30 7272 C 697.872 -4.27661 3.94311 0
M  V30 7273 N 696.848 -4.37686 3.22385 0
M  V30 7274 H 700.65 -2.07309 2.08327 0
M  V30 7275 H 698.164 -1.072 1.21992 0
M  V30 7276 H 700.161 -4.11041 0.696477 0
M  V30 7277 H 698.821 -3.24542 -0.101135 0
M  V30 7278 H 699.832 -3.7616 3.55984 0
M  V30 7279 H 696.509 -4.05449 0.995847 0
M  V30 7280 H 697.899 -4.47042 5.01601 0
M  V30 7281 N 700.619 -1.13374 -1.09472 0
M  V30 7282 C 701.868 -0.889844 -1.8101 0
M  V30 7283 C 702.181 0.585686 -1.86625 0
M  V30 7284 O 703.387 0.946497 -2.54467 0
M  V30 7285 C 701.843 -1.54241 -3.25174 0
M  V30 7286 C 701.451 -3.05343 -3.27826 0
M  V30 7287 C 703.195 -1.37919 -4.0147 0
M  V30 7288 C 701.102 -3.63486 -4.6651 0
M  V30 7289 H 700.032 -0.329256 -0.678311 0
M  V30 7290 H 702.683 -1.36139 -1.23038 0
M  V30 7291 H 701.065 -0.998525 -3.83204 0
M  V30 7292 H 702.239 -3.66307 -2.79563 0
M  V30 7293 H 700.554 -3.21175 -2.65019 0
M  V30 7294 H 703.151 -1.78771 -5.03929 0
M  V30 7295 H 703.494 -0.323987 -4.15037 0
M  V30 7296 H 704.027 -1.89284 -3.49881 0
M  V30 7297 H 700.766 -4.68811 -4.58145 0
M  V30 7298 H 700.286 -3.073 -5.15099 0
M  V30 7299 H 701.965 -3.63134 -5.35484 0
M  V30 7300 N 702.098 1.27442 -0.927168 0
M  V30 7301 C 703.347 1.93679 -0.563146 0
M  V30 7302 C 703.66 1.73673 0.899837 0
M  V30 7303 O 704.866 2.34247 1.37262 0
M  V30 7304 C 703.322 3.46961 -0.95636 0
M  V30 7305 C 702.93 3.75724 -2.43999 0
M  V30 7306 C 704.674 4.19282 -0.663565 0
M  V30 7307 C 702.581 5.22378 -2.77263 0
M  V30 7308 H 701.511 0.725059 -0.206894 0
M  V30 7309 H 704.162 1.44743 -1.12791 0
M  V30 7310 H 702.544 3.94703 -0.320254 0
M  V30 7311 H 703.718 3.38741 -3.12396 0
M  V30 7312 H 702.033 3.16605 -2.70463 0
M  V30 7313 H 704.63 5.27265 -0.888596 0
M  V30 7314 H 704.973 4.14382 0.399198 0
M  V30 7315 H 705.506 3.7736 -1.25875 0
M  V30 7316 H 702.245 5.32367 -3.82446 0
M  V30 7317 H 701.765 5.6051 -2.13516 0
M  V30 7318 H 703.444 5.9025 -2.64979 0
M  V30 7319 N 703.576 0.692616 1.41565 0
M  V30 7320 C 704.987 0.297478 1.84315 0
M  V30 7321 C 705.338 -1.16379 1.57957 0
M  V30 7322 O 704.463 -1.89303 1.0485 0
M  V30 7323 C 705.058 0.533136 3.34579 0
M  V30 7324 C 703.617 0.191944 3.7591 0
M  V30 7325 C 702.764 0.816873 2.64995 0
M  V30 7326 H 705.715 0.893488 1.31158 0
M  V30 7327 H 705.736 -0.209105 3.79925 0
M  V30 7328 H 705.248 1.59674 3.53731 0
M  V30 7329 H 703.349 -0.867512 3.6236 0
M  V30 7330 H 703.462 0.644902 4.7474 0
M  V30 7331 H 701.826 0.246715 2.53502 0
M  V30 7332 H 702.609 1.88429 2.86966 0
M  V30 7333 N 705.054 -1.51416 0.437162 0
M  V30 7334 C 706.303 -2.01275 -0.130865 0
M  V30 7335 C 706.616 -1.32593 -1.438 0
M  V30 7336 O 707.822 -1.7342 -2.08897 0
M  V30 7337 C 706.278 -3.5878 -0.283763 0
M  V30 7338 C 705.886 -4.36399 1.01293 0
M  V30 7339 C 707.63 -4.16786 -0.805569 0
M  V30 7340 C 705.537 -5.85608 0.825687 0
M  V30 7341 H 704.467 -0.752157 -0.0526818 0
M  V30 7342 H 707.118 -1.74524 0.566896 0
M  V30 7343 H 705.5 -3.81976 -1.04452 0
M  V30 7344 H 706.674 -4.24948 1.78201 0
M  V30 7345 H 704.989 -3.89843 1.46326 0
M  V30 7346 H 707.586 -5.25972 -0.962146 0
M  V30 7347 H 707.929 -3.75949 -1.78796 0
M  V30 7348 H 708.462 -3.97666 -0.103125 0
M  V30 7349 H 705.201 -6.30857 1.78045 0
M  V30 7350 H 704.721 -5.99723 0.0964029 0
M  V30 7351 H 706.4 -6.45226 0.478815 0
M  V30 7352 N 706.532 -0.168513 -1.56696 0
M  V30 7353 C 707.948 0.187686 -1.58493 0
M  V30 7354 C 708.148 1.63063 -1.18375 0
M  V30 7355 O 707.204 2.36142 -0.894042 0
M  V30 7356 C 708.517 -0.0905858 -3.00564 0
M  V30 7357 C 710.065 -0.028575 -3.12987 0
M  V30 7358 C 710.54 -0.279799 -4.57145 0
M  V30 7359 N 712.031 -0.227476 -4.62641 0
M  V30 7360 C 712.766 -0.396073 -5.7203 0
M  V30 7361 N 712.262 -0.623572 -6.89988 0
M  V30 7362 N 714.055 -0.332173 -5.61118 0
M  V30 7363 H 706.206 -1.11042 -1.81062 0
M  V30 7364 H 708.469 -0.441235 -0.839056 0
M  V30 7365 H 708.175 -1.09006 -3.34381 0
M  V30 7366 H 708.049 0.619078 -3.72085 0
M  V30 7367 H 710.436 0.961471 -2.78998 0
M  V30 7368 H 710.517 -0.770905 -2.43907 0
M  V30 7369 H 710.161 -1.26704 -4.91842 0
M  V30 7370 H 710.091 0.48311 -5.24379 0
M  V30 7371 H 712.582 -0.0571723 -3.77857 0
M  V30 7372 H 712.895 -0.741745 -7.69232 0
M  V30 7373 H 711.24 -0.660153 -6.91858 0
M  V30 7374 H 714.431 -0.155051 -4.67843 0
M  V30 7375 H 714.604 -0.466994 -6.46315 0
M  V30 7376 N 708.01 1.57248 0.105221 0
M  V30 7377 C 709.256 1.85845 0.811753 0
M  V30 7378 C 709.589 0.756219 1.78871 0
M  V30 7379 O 708.864 -0.236736 1.93054 0
M  V30 7380 C 709.147 3.25059 1.54947 0
M  V30 7381 C 709 4.45898 0.591185 0
M  V30 7382 C 710.319 3.6203 2.50245 0
M  V30 7383 H 707.438 0.675973 0.293649 0
M  V30 7384 H 710.08 1.89849 0.0756269 0
M  V30 7385 H 708.23 3.21776 2.17698 0
M  V30 7386 H 709.902 4.61291 -0.0285352 0
M  V30 7387 H 708.145 4.33693 -0.0962343 0
M  V30 7388 H 708.816 5.40009 1.1443 0
M  V30 7389 H 711.292 3.66192 1.97593 0
M  V30 7390 H 710.168 4.60389 2.98886 0
M  V30 7391 H 710.429 2.90176 3.33542 0
M  V30 7392 N 709.488 -0.375779 1.53054 0
M  V30 7393 C 710.736 -1.11727 1.68409 0
M  V30 7394 C 711.057 -1.90127 0.43323 0
M  V30 7395 O 710.327 -1.87945 -0.552595 0
M  V30 7396 H 708.907 -0.415451 0.620813 0
M  V30 7397 H 711.569 -0.424869 1.90213 0
M  V30 7398 H 710.665 -1.8128 2.54055 0
M  V30 7399 N 710.966 -1.44241 -0.634997 0
M  V30 7400 C 711.914 -1.51103 -1.76835 0
M  V30 7401 C 712.908 -0.383051 -1.65012 0
M  V30 7402 O 714.114 -0.557832 -1.71138 0
M  V30 7403 H 710.489 -0.474076 -0.583743 0
M  V30 7404 H 712.46 -2.46499 -1.68169 0
M  V30 7405 C 711.209 -1.4687 -3.15158 0
M  V30 7406 H 710.532 -2.32979 -3.24901 0
M  V30 7407 H 711.972 -1.55731 -3.94365 0
M  V30 7408 C 710.431 -0.188884 -3.3637 0
M  V30 7409 O 710.961 0.742487 -3.94778 0
M  V30 7410 N 709.167 -0.0932516 -2.9045 0
M  V30 7411 H 708.714 -0.852004 -2.43102 0
M  V30 7412 H 708.672 0.762308 -3.05018 0
M  V30 7413 N 712.444 0.87505 -1.31075 0
M  V30 7414 C 713.407 1.96333 -1.18263 0
M  V30 7415 C 714.407 1.60416 -0.111106 0
M  V30 7416 O 715.597 1.7044 -0.359987 0
M  V30 7417 C 712.729 3.31036 -0.81414 0
M  V30 7418 H 713.922 2.09125 -2.14958 0
M  V30 7419 H 711.475 1.06271 -1.14614 0
M  V30 7420 H 712.21 3.23944 0.151875 0
M  V30 7421 H 711.995 3.58476 -1.58862 0
M  V30 7422 H 713.485 4.10842 -0.748249 0
M  V30 7423 N 713.922 1.13953 1.08869 0
M  V30 7424 C 714.885 0.824991 2.13838 0
M  V30 7425 C 715.885 -0.168198 1.59918 0
M  V30 7426 O 717.075 0.0595778 1.74098 0
M  V30 7427 C 714.207 0.228938 3.4013 0
M  V30 7428 H 715.4 1.75521 2.43171 0
M  V30 7429 H 712.953 0.94492 1.24503 0
M  V30 7430 H 713.688 -0.710227 3.16427 0
M  V30 7431 H 713.473 0.944243 3.80561 0
M  V30 7432 H 714.963 0.0259223 4.17592 0
M  V30 7433 N 715.4 -1.26948 0.933913 0
M  V30 7434 C 716.33 -2.29017 0.45534 0
M  V30 7435 C 717.311 -1.62961 -0.487605 0
M  V30 7436 O 718.496 -1.90223 -0.391022 0
M  V30 7437 C 715.626 -3.46112 -0.287015 0
M  V30 7438 C 714.58 -4.24205 0.568682 0
M  V30 7439 C 713.906 -5.3384 -0.303206 0
M  V30 7440 C 715.206 -4.88954 1.83633 0
M  V30 7441 H 716.9 -2.69298 1.30839 0
M  V30 7442 H 714.446 -1.29459 0.630579 0
M  V30 7443 H 716.399 -4.16622 -0.6328 0
M  V30 7444 H 715.123 -3.04765 -1.17414 0
M  V30 7445 H 713.782 -3.5545 0.897261 0
M  V30 7446 H 713.43 -4.88734 -1.18947 0
M  V30 7447 H 713.13 -5.86998 0.265879 0
M  V30 7448 H 714.654 -6.0719 -0.644423 0
M  V30 7449 H 716.068 -5.51717 1.55823 0
M  V30 7450 H 714.465 -5.52198 2.34941 0
M  V30 7451 H 715.535 -4.12305 2.55211 0
M  V30 7452 N 716.879 -0.700114 -1.41195 0
M  V30 7453 C 717.827 -0.0263301 -2.32585 0
M  V30 7454 C 718.821 0.763683 -1.51209 0
M  V30 7455 O 720.027 0.668793 -1.67114 0
M  V30 7456 H 716.402 0.0102869 -0.75193 0
M  V30 7457 H 718.373 -0.814087 -2.8708 0
M  V30 7458 C 717.122 0.892793 -3.36042 0
M  V30 7459 H 716.445 0.294306 -3.98715 0
M  V30 7460 H 717.885 1.33247 -4.02518 0
M  V30 7461 C 716.344 2.01109 -2.7029 0
M  V30 7462 O 716.874 3.10035 -2.55423 0
M  V30 7463 N 715.08 1.79015 -2.28915 0
M  V30 7464 H 714.627 0.904275 -2.41207 0
M  V30 7465 H 714.585 2.54022 -1.85257 0
M  V30 7466 N 718.357 1.51182 -0.445186 0
M  V30 7467 C 719.582 2.07056 0.119445 0
M  V30 7468 C 720.007 1.30966 1.35016 0
M  V30 7469 O 719.365 0.349827 1.77893 0
M  V30 7470 C 719.413 3.58234 0.412428 0
M  V30 7471 O 718.517 3.84249 1.49754 0
M  V30 7472 H 717.858 0.663998 -0.00157797 0
M  V30 7473 H 720.388 1.94699 -0.628779 0
M  V30 7474 H 720.398 4.02617 0.660583 0
M  V30 7475 H 719.073 4.13038 -0.487049 0
M  V30 7476 H 717.65 3.51724 1.23873 0
M  V30 7477 N 719.835 0.176821 1.56605 0
M  V30 7478 C 720.782 -0.751312 2.18229 0
M  V30 7479 C 721.752 -1.22297 1.12395 0
M  V30 7480 O 722.937 -1.29015 1.40569 0
M  V30 7481 C 720.077 -1.97291 2.83143 0
M  V30 7482 C 719.19 -1.54431 4.03454 0
M  V30 7483 C 718.325 -2.72 4.56278 0
M  V30 7484 C 717.364 -2.25657 5.68986 0
M  V30 7485 N 716.501 -3.36338 6.16296 0
M  V30 7486 H 721.341 -0.219033 2.97194 0
M  V30 7487 H 718.878 -0.0963803 1.46784 0
M  V30 7488 H 720.836 -2.68949 3.1894 0
M  V30 7489 H 719.466 -2.4788 2.06773 0
M  V30 7490 H 718.518 -0.724273 3.73441 0
M  V30 7491 H 719.83 -1.16417 4.85024 0
M  V30 7492 H 718.984 -3.51806 4.94285 0
M  V30 7493 H 717.723 -3.13277 3.73777 0
M  V30 7494 H 716.728 -1.44299 5.30526 0
M  V30 7495 H 717.953 -1.85432 6.53293 0
M  V30 7496 H 715.899 -3.7718 5.36723 0
M  V30 7497 H 715.816 -3.02435 6.9287 0
M  V30 7498 H 717.084 -4.16413 6.58954 0
M  V30 7499 N 721.313 -1.57302 -0.09688 0
M  V30 7500 C 722.243 -2.0497 -1.11846 0
M  V30 7501 C 723.224 -0.938278 -1.41882 0
M  V30 7502 O 724.409 -1.20943 -1.51942 0
M  V30 7503 C 721.539 -2.47264 -2.43881 0
M  V30 7504 C 720.493 -3.62053 -2.28257 0
M  V30 7505 C 719.819 -3.90318 -3.65453 0
M  V30 7506 C 721.119 -4.93005 -1.72461 0
M  V30 7507 H 722.813 -2.90567 -0.721888 0
M  V30 7508 H 720.359 -1.39786 -0.345803 0
M  V30 7509 H 722.312 -2.7922 -3.15617 0
M  V30 7510 H 721.036 -1.58664 -2.8547 0
M  V30 7511 H 719.695 -3.30341 -1.58967 0
M  V30 7512 H 719.343 -2.98889 -4.04567 0
M  V30 7513 H 719.043 -4.67597 -3.55846 0
M  V30 7514 H 720.567 -4.24747 -4.3866 0
M  V30 7515 H 721.981 -5.23354 -2.34036 0
M  V30 7516 H 720.378 -5.74436 -1.73618 0
M  V30 7517 H 721.448 -4.80053 -0.683898 0
M  V30 7518 N 722.791 0.367657 -1.53252 0
M  V30 7519 C 724.031 1.11923 -1.71034 0
M  V30 7520 C 724.395 1.86618 -0.45143 0
M  V30 7521 O 725.596 2.63996 -0.505915 0
M  V30 7522 C 723.867 2.05461 -2.92439 0
M  V30 7523 S 725.426 2.88167 -3.30916 0
M  V30 7524 H 722.244 0.378549 -0.601848 0
M  V30 7525 H 724.846 0.400757 -1.91348 0
M  V30 7526 H 723.55 1.49346 -3.82262 0
M  V30 7527 H 723.081 2.81784 -2.7452 0
M  V30 7528 H 725.096 4.07746 -2.82767 0
M  V30 7529 N 724.269 1.44576 0.627338 0
M  V30 7530 C 725.546 1.38033 1.38586 0
M  V30 7531 C 725.926 0.0409468 2.1106 0
M  V30 7532 O 725.274 -0.976582 2.0658 0
M  V30 7533 C 725.484 2.58102 2.34913 0
M  V30 7534 C 726.832 3.02332 2.98129 0
M  V30 7535 O 727.856 2.58334 2.45238 0
M  V30 7536 O 726.715 3.78628 3.94085 0
M  V30 7537 H 723.809 0.546801 0.620434 0
M  V30 7538 H 726.355 1.56672 0.652077 0
M  V30 7539 H 725.127 3.4719 1.80485 0
M  V30 7540 H 724.75 2.41696 3.15703 0
M  V30 7541 N 725.747 -0.868086 1.31537 0
M  V30 7542 C 726.677 -1.99131 1.21939 0
M  V30 7543 C 727.658 -1.69768 0.106166 0
M  V30 7544 O 728.843 -1.92006 0.291081 0
M  V30 7545 C 725.973 -3.34676 0.927879 0
M  V30 7546 C 724.927 -3.7835 2.00088 0
M  V30 7547 C 724.253 -5.11375 1.56203 0
M  V30 7548 C 725.553 -3.95256 3.41424 0
M  V30 7549 H 727.247 -2.07419 2.15911 0
M  V30 7550 H 724.793 -0.996569 1.03945 0
M  V30 7551 H 726.746 -4.12793 0.847327 0
M  V30 7552 H 725.47 -3.26565 -0.0475042 0
M  V30 7553 H 724.129 -3.02474 2.07135 0
M  V30 7554 H 723.777 -4.99709 0.57445 0
M  V30 7555 H 723.477 -5.41568 2.27985 0
M  V30 7556 H 725.001 -5.92001 1.49558 0
M  V30 7557 H 726.415 -4.63764 3.3704 0
M  V30 7558 H 724.812 -4.36849 4.1144 0
M  V30 7559 H 725.882 -2.98579 3.82072 0
M  V30 7560 N 727.225 -1.14528 -1.08264 0
M  V30 7561 C 728.155 -0.856356 -2.1723 0
M  V30 7562 C 729.136 0.189251 -1.69044 0
M  V30 7563 O 730.321 0.0456119 -1.94146 0
M  V30 7564 C 727.451 -0.334662 -3.45684 0
M  V30 7565 C 726.405 -1.31588 -4.0727 0
M  V30 7566 C 725.731 -0.653428 -5.30692 0
M  V30 7567 C 727.031 -2.67866 -4.48381 0
M  V30 7568 H 728.725 -1.76755 -2.41657 0
M  V30 7569 H 726.271 -0.851287 -1.16143 0
M  V30 7570 H 728.224 -0.120128 -4.21229 0
M  V30 7571 H 726.948 0.611967 -3.20815 0
M  V30 7572 H 725.607 -1.51661 -3.33758 0
M  V30 7573 H 725.255 0.299054 -5.0211 0
M  V30 7574 H 724.955 -1.30817 -5.72853 0
M  V30 7575 H 726.479 -0.448453 -6.08951 0
M  V30 7576 H 727.893 -2.51692 -5.15096 0
M  V30 7577 H 726.29 -3.29627 -5.01464 0
M  V30 7578 H 727.36 -3.24632 -3.60198 0
M  V30 7579 N 728.703 1.26451 -0.940633 0
M  V30 7580 C 729.633 2.28773 -0.467479 0
M  V30 7581 C 730.614 1.63218 0.478955 0
M  V30 7582 O 731.799 1.90427 0.380929 0
M  V30 7583 C 728.929 3.46259 0.268656 0
M  V30 7584 C 727.883 4.23898 -0.591171 0
M  V30 7585 C 727.209 5.33993 0.274891 0
M  V30 7586 C 728.509 4.87974 -1.86223 0
M  V30 7587 H 730.203 2.68601 -1.32265 0
M  V30 7588 H 727.749 1.29123 -0.637436 0
M  V30 7589 H 729.702 4.16951 0.610696 0
M  V30 7590 H 728.426 3.05383 1.15796 0
M  V30 7591 H 727.085 3.54969 -0.916098 0
M  V30 7592 H 726.733 4.89358 1.16353 0
M  V30 7593 H 726.433 5.86849 -0.297006 0
M  V30 7594 H 727.957 6.07523 0.612213 0
M  V30 7595 H 729.371 5.50883 -1.58747 0
M  V30 7596 H 727.768 5.50945 -2.37866 0
M  V30 7597 H 728.838 4.10945 -2.57394 0
M  V30 7598 N 730.181 0.707592 1.40822 0
M  V30 7599 C 731.406 0.251626 2.05868 0
M  V30 7600 C 731.831 -1.09503 1.5294 0
M  V30 7601 O 731.189 -1.68806 0.661385 0
M  V30 7602 C 731.237 0.23287 3.59847 0
M  V30 7603 O 730.341 -0.788477 4.04792 0
M  V30 7604 H 729.682 0.119936 0.653078 0
M  V30 7605 H 732.212 0.96583 1.80369 0
M  V30 7606 H 732.222 0.0678204 4.07944 0
M  V30 7607 H 730.897 1.21565 3.97737 0
M  V30 7608 H 729.474 -0.591802 3.68174 0
M  V30 7609 N 731.66 -1.50943 0.453197 0
M  V30 7610 C 732.607 -2.28128 -0.350197 0
M  V30 7611 C 733.577 -1.32398 -1.00299 0
M  V30 7612 O 734.762 -1.61319 -1.01887 0
M  V30 7613 C 731.902 -3.13782 -1.43649 0
M  V30 7614 C 731.015 -4.24523 -0.800255 0
M  V30 7615 C 730.15 -4.97462 -1.86293 0
M  V30 7616 C 729.189 -6.00102 -1.20598 0
M  V30 7617 N 728.326 -6.66387 -2.21071 0
M  V30 7618 H 733.166 -2.96337 0.31434 0
M  V30 7619 H 730.703 -1.46151 0.166863 0
M  V30 7620 H 732.661 -3.6178 -2.07776 0
M  V30 7621 H 731.291 -2.47655 -2.07044 0
M  V30 7622 H 730.343 -3.80371 -0.0468651 0
M  V30 7623 H 731.655 -4.98009 -0.280777 0
M  V30 7624 H 730.809 -5.49088 -2.58044 0
M  V30 7625 H 729.548 -4.23642 -2.41617 0
M  V30 7626 H 728.553 -5.47753 -0.474 0
M  V30 7627 H 729.778 -6.75887 -0.659859 0
M  V30 7628 H 727.724 -5.9537 -2.75446 0
M  V30 7629 H 727.641 -7.3569 -1.74058 0
M  V30 7630 H 728.909 -7.22638 -2.92257 0
M  V30 7631 N 733.138 -0.185124 -1.56509 0
M  V30 7632 C 734.088 0.752315 -2.15231 0
M  V30 7633 C 735.072 1.18327 -1.0903 0
M  V30 7634 O 736.264 1.14333 -1.35119 0
M  V30 7635 C 733.393 1.97583 -2.80742 0
M  V30 7636 C 732.479 1.56623 -3.94119 0
M  V30 7637 N 732.87 0.867008 -4.98314 0
M  V30 7638 C 731.168 1.85626 -4.05535 0
M  V30 7639 C 731.869 0.663228 -5.77907 0
M  V30 7640 N 730.845 1.20891 -5.29987 0
M  V30 7641 H 734.647 0.209267 -2.93154 0
M  V30 7642 H 732.161 0.0150444 -1.62393 0
M  V30 7643 H 734.158 2.65779 -3.21197 0
M  V30 7644 H 732.818 2.52369 -2.04303 0
M  V30 7645 H 733.829 0.52355 -5.15247 0
M  V30 7646 H 730.506 2.41992 -3.40215 0
M  V30 7647 H 731.896 0.109273 -6.71811 0
M  V30 7648 N 734.616 1.57351 0.0885366 0
M  V30 7649 C 735.864 1.86051 0.789262 0
M  V30 7650 C 736.185 0.774763 1.78948 0
M  V30 7651 O 735.455 -0.198324 1.94894 0
M  V30 7652 H 734.035 0.686508 0.294475 0
M  V30 7653 H 736.697 1.94779 0.0686055 0
M  V30 7654 H 735.793 2.83007 1.31581 0
M  V30 7655 N 736.094 -0.359525 1.53444 0
M  V30 7656 C 737.343 -1.09886 1.69139 0
M  V30 7657 C 737.656 -1.90285 0.452863 0
M  V30 7658 O 738.862 -2.67033 0.490459 0
M  V30 7659 C 737.318 -2.0028 2.99025 0
M  V30 7660 C 736.926 -1.25164 4.30161 0
M  V30 7661 C 738.67 -2.74168 3.24086 0
M  V30 7662 C 736.577 -2.14494 5.51132 0
M  V30 7663 H 735.507 -0.413936 0.630217 0
M  V30 7664 H 738.158 -0.359434 1.79945 0
M  V30 7665 H 736.54 -2.77978 2.82036 0
M  V30 7666 H 737.714 -0.524867 4.57801 0
M  V30 7667 H 736.029 -0.631116 4.11589 0
M  V30 7668 H 738.626 -3.41243 4.11652 0
M  V30 7669 H 738.969 -3.39868 2.40407 0
M  V30 7670 H 739.502 -2.0355 3.41778 0
M  V30 7671 H 736.241 -1.53362 6.37307 0
M  V30 7672 H 735.761 -2.85004 5.27762 0
M  V30 7673 H 737.44 -2.73914 5.86157 0
M  V30 7674 N 737.572 -1.44907 -0.619662 0
M  V30 7675 C 738.802 -1.51575 -1.40387 0
M  V30 7676 C 739.21 -0.14309 -1.88658 0
M  V30 7677 O 738.553 0.863403 -1.62145 0
M  V30 7678 C 738.615 -2.42858 -2.65067 0
M  V30 7679 C 738.279 -3.8982 -2.38515 0
M  V30 7680 C 739.276 -4.80047 -1.99627 0
M  V30 7681 C 736.961 -4.34628 -2.51801 0
M  V30 7682 C 738.955 -6.13086 -1.74369 0
M  V30 7683 C 736.642 -5.67712 -2.26156 0
M  V30 7684 C 737.64 -6.56759 -1.875 0
M  V30 7685 O 737.328 -7.87377 -1.62148 0
M  V30 7686 H 737.06 -0.51612 -0.436573 0
M  V30 7687 H 739.614 -1.90664 -0.763959 0
M  V30 7688 H 737.844 -1.98717 -3.31735 0
M  V30 7689 H 739.533 -2.40346 -3.27091 0
M  V30 7690 H 740.299 -4.46697 -1.8891 0
M  V30 7691 H 736.178 -3.65568 -2.80857 0
M  V30 7692 H 739.722 -6.8255 -1.44122 0
M  V30 7693 H 735.619 -6.0062 -2.36486 0
M  V30 7694 H 736.387 -7.99288 -1.763 0
M  V30 7695 N 739.05 0.861098 -1.31996 0
M  V30 7696 C 740.296 1.61721 -1.22369 0
M  V30 7697 C 740.629 1.93 0.215587 0
M  V30 7698 O 739.904 1.56789 1.15098 0
M  V30 7699 C 740.187 2.9417 -2.07691 0
M  V30 7700 C 740.04 2.69714 -3.59965 0
M  V30 7701 C 741.359 3.95372 -1.93312 0
M  V30 7702 H 738.478 0.586822 -0.44588 0
M  V30 7703 H 741.12 0.994788 -1.61876 0
M  V30 7704 H 739.27 3.47292 -1.74128 0
M  V30 7705 H 740.942 2.23196 -4.03709 0
M  V30 7706 H 739.185 2.03789 -3.82952 0
M  V30 7707 H 739.856 3.63996 -4.14983 0
M  V30 7708 H 742.332 3.51487 -2.22701 0
M  V30 7709 H 741.208 4.85916 -2.55298 0
M  V30 7710 H 741.469 4.32865 -0.898922 0
M  V30 7711 N 740.528 1.15101 1.07655 0
M  V30 7712 C 741.46 0.802722 2.14684 0
M  V30 7713 C 742.473 -0.183874 1.61758 0
M  V30 7714 O 743.662 0.0389349 1.78458 0
M  V30 7715 C 740.762 0.172135 3.38463 0
M  V30 7716 C 739.935 1.19538 4.20749 0
M  V30 7717 C 738.994 0.58714 5.22914 0
M  V30 7718 O 738.02 1.25224 5.55255 0
M  V30 7719 N 739.222 -0.632566 5.77043 0
M  V30 7720 H 741.987 1.72379 2.45164 0
M  V30 7721 H 739.548 1.04647 1.23534 0
M  V30 7722 H 741.54 -0.247465 4.03943 0
M  V30 7723 H 740.11 -0.652214 3.0572 0
M  V30 7724 H 739.33 1.79165 3.51132 0
M  V30 7725 H 740.618 1.88636 4.7254 0
M  V30 7726 H 740.016 -1.19135 5.53013 0
M  V30 7727 H 738.573 -0.994566 6.44167 0
M  V30 7728 N 742.006 -1.2595 0.947325 0
M  V30 7729 C 742.969 -2.24407 0.466285 0
M  V30 7730 C 743.969 -1.55054 -0.426005 0
M  V30 7731 O 745.159 -1.7275 -0.224319 0
M  V30 7732 C 742.291 -3.39326 -0.327201 0
M  V30 7733 H 743.484 -2.68477 1.33642 0
M  V30 7734 H 741.037 -1.38211 0.729887 0
M  V30 7735 H 741.772 -3.00667 -1.21532 0
M  V30 7736 H 741.557 -3.9085 0.312839 0
M  V30 7737 H 743.047 -4.12455 -0.653477 0
M  V30 7738 N 743.484 -0.715051 -1.40445 0
M  V30 7739 C 744.733 -0.251322 -2.00128 0
M  V30 7740 C 745.046 1.16194 -1.57347 0
M  V30 7741 O 746.252 1.72416 -2.09726 0
M  V30 7742 C 744.708 -0.398407 -3.57688 0
M  V30 7743 C 744.316 -1.81828 -4.09442 0
M  V30 7744 C 746.06 0.00455625 -4.245 0
M  V30 7745 C 743.967 -1.91598 -5.59503 0
M  V30 7746 H 742.897 -0.0902081 -0.748584 0
M  V30 7747 H 745.548 -0.886062 -1.6069 0
M  V30 7748 H 743.93 0.304908 -3.94824 0
M  V30 7749 H 745.104 -2.55193 -3.83684 0
M  V30 7750 H 743.419 -2.17266 -3.55225 0
M  V30 7751 H 746.016 -0.0477303 -5.34679 0
M  V30 7752 H 746.359 1.04636 -4.02935 0
M  V30 7753 H 746.892 -0.649184 -3.92467 0
M  V30 7754 H 743.631 -2.93898 -5.85922 0
M  V30 7755 H 743.151 -1.22644 -5.87127 0
M  V30 7756 H 744.83 -1.68785 -6.24596 0
M  V30 7757 N 744.962 1.50701 -0.461195 0
M  V30 7758 C 745.91 2.29918 0.352231 0
M  V30 7759 C 746.904 1.36778 0.999403 0
M  V30 7760 O 748.11 1.54015 0.931639 0
M  V30 7761 H 744.485 0.740249 0.132423 0
M  V30 7762 H 746.456 2.96497 -0.336424 0
M  V30 7763 C 745.205 3.17052 1.42736 0
M  V30 7764 H 744.528 3.88623 0.938747 0
M  V30 7765 H 745.968 3.75493 1.96928 0
M  V30 7766 C 744.427 2.3399 2.42384 0
M  V30 7767 O 744.957 2.01608 3.47444 0
M  V30 7768 N 743.163 1.96758 2.13857 0
M  V30 7769 H 742.71 2.23292 1.28447 0
M  V30 7770 H 742.668 1.41484 2.80766 0
M  V30 7771 N 746.441 0.193421 1.56409 0
M  V30 7772 C 747.671 -0.450783 2.01622 0
M  V30 7773 C 748.079 -1.5585 1.07273 0
M  V30 7774 O 747.422 -1.83569 0.0694875 0
M  V30 7775 C 747.484 -1.06913 3.43235 0
M  V30 7776 C 747.148 -0.100352 4.5689 0
M  V30 7777 C 748.145 0.689633 5.15306 0
M  V30 7778 C 745.83 0.0102436 5.02299 0
M  V30 7779 C 747.824 1.5772 6.17579 0
M  V30 7780 C 745.511 0.901368 6.04416 0
M  V30 7781 C 746.509 1.68341 6.61929 0
M  V30 7782 O 746.197 2.5596 7.62063 0
M  V30 7783 H 745.929 -0.117671 0.66568 0
M  V30 7784 H 748.483 0.2989 2.03214 0
M  V30 7785 H 746.713 -1.86736 3.38624 0
M  V30 7786 H 748.402 -1.61781 3.72266 0
M  V30 7787 H 749.168 0.614485 4.81092 0
M  V30 7788 H 745.047 -0.58829 4.57231 0
M  V30 7789 H 748.591 2.18805 6.62397 0
M  V30 7790 H 744.488 0.977637 6.38054 0
M  V30 7791 H 745.256 2.49721 7.79475 0
M  V30 7792 N 747.919 -1.57396 -0.0801906 0
M  V30 7793 C 749.33 -1.75642 -0.633002 0
M  V30 7794 C 749.681 -0.817708 -1.78348 0
M  V30 7795 O 748.806 0.000233743 -2.164 0
M  V30 7796 C 749.401 -3.18502 -1.15507 0
M  V30 7797 C 747.96 -3.38121 -1.65381 0
M  V30 7798 C 747.107 -2.71386 -0.569661 0
M  V30 7799 H 750.058 -1.58027 0.145949 0
M  V30 7800 H 750.079 -3.22198 -2.02408 0
M  V30 7801 H 749.591 -3.86799 -0.317515 0
M  V30 7802 H 747.692 -2.74926 -2.51488 0
M  V30 7803 H 747.805 -4.46521 -1.73654 0
M  V30 7804 H 746.169 -2.33702 -1.0127 0
M  V30 7805 H 746.952 -3.42332 0.257561 0
M  V30 7806 N 749.397 0.351382 -1.53633 0
M  V30 7807 C 750.625 1.11275 -1.74429 0
M  V30 7808 C 751.04 1.82602 -0.479798 0
M  V30 7809 O 750.397 1.74074 0.548125 0
M  V30 7810 C 750.448 2.13223 -2.91921 0
M  V30 7811 O 750.169 1.44798 -4.13479 0
M  V30 7812 C 751.67 3.01797 -3.24706 0
M  V30 7813 H 748.89 0.332153 -0.583023 0
M  V30 7814 H 751.434 0.405974 -2.0043 0
M  V30 7815 H 749.589 2.79477 -2.68274 0
M  V30 7816 H 750.003 2.12839 -4.79374 0
M  V30 7817 H 751.477 3.69282 -4.10286 0
M  V30 7818 H 751.954 3.67387 -2.40673 0
M  V30 7819 H 752.56 2.41141 -3.5033 0
M  V30 7820 N 750.875 1.45233 0.611969 0
M  V30 7821 C 752.121 1.49242 1.37312 0
M  V30 7822 C 752.454 0.131963 1.93751 0
M  V30 7823 O 751.729 -0.852999 1.74798 0
M  V30 7824 C 752.012 2.56811 2.52428 0
M  V30 7825 C 751.865 4.02284 2.01215 0
M  V30 7826 C 753.184 2.60705 3.54572 0
M  V30 7827 H 750.303 0.54336 0.497925 0
M  V30 7828 H 752.945 1.77019 0.690242 0
M  V30 7829 H 751.095 2.33256 3.10683 0
M  V30 7830 H 752.767 4.37035 1.47643 0
M  V30 7831 H 751.01 4.1315 1.32248 0
M  V30 7832 H 751.681 4.7323 2.84178 0
M  V30 7833 H 754.157 2.81799 3.06151 0
M  V30 7834 H 753.033 3.37841 4.32614 0
M  V30 7835 H 753.294 1.65627 4.09903 0
M  V30 7836 N 752.353 -0.854086 1.3245 0
M  V30 7837 C 753.764 -1.42427 1.20712 0
M  V30 7838 C 754.115 -1.95371 -0.18013 0
M  V30 7839 O 753.24 -1.87587 -1.07889 0
M  V30 7840 C 753.835 -2.58897 2.18536 0
M  V30 7841 C 752.394 -3.11913 2.10683 0
M  V30 7842 C 751.541 -1.84661 2.06871 0
M  V30 7843 H 754.492 -0.661192 1.4427 0
M  V30 7844 H 754.513 -3.36074 1.78422 0
M  V30 7845 H 754.025 -2.20333 3.19492 0
M  V30 7846 H 752.126 -3.55059 1.12977 0
M  V30 7847 H 752.239 -3.73119 3.00532 0
M  V30 7848 H 750.603 -2.04285 1.52118 0
M  V30 7849 H 751.386 -1.48314 3.09609 0
M  V30 7850 N 753.831 -1.1567 -1.07043 0
M  V30 7851 C 755.247 -0.900006 -1.31803 0
M  V30 7852 C 755.447 0.451293 -1.96381 0
M  V30 7853 O 754.503 1.19252 -2.22565 0
M  V30 7854 C 755.816 -2.04334 -2.20609 0
M  V30 7855 C 757.364 -2.07823 -2.34048 0
M  V30 7856 C 757.839 -3.21488 -3.26204 0
M  V30 7857 N 759.33 -3.21156 -3.33786 0
M  V30 7858 C 760.065 -4.05746 -4.05163 0
M  V30 7859 N 759.561 -5.00407 -4.79129 0
M  V30 7860 N 761.354 -3.93759 -4.01136 0
M  V30 7861 H 753.505 -2.02681 -0.635146 0
M  V30 7862 H 755.768 -0.883956 -0.342528 0
M  V30 7863 H 755.474 -3.01895 -1.80423 0
M  V30 7864 H 755.348 -1.97838 -3.21154 0
M  V30 7865 H 757.735 -1.1086 -2.73485 0
M  V30 7866 H 757.816 -2.18386 -1.33197 0
M  V30 7867 H 757.46 -4.18706 -2.87485 0
M  V30 7868 H 757.39 -3.08162 -4.27017 0
M  V30 7869 H 759.881 -2.52606 -2.81067 0
M  V30 7870 H 760.194 -5.61387 -5.31097 0
M  V30 7871 H 758.539 -5.04393 -4.78135 0
M  V30 7872 H 761.73 -3.19115 -3.42466 0
M  V30 7873 H 761.903 -4.59906 -4.56498 0
M  V30 7874 N 755.309 1.25446 -0.953992 0
M  V30 7875 C 756.557 1.92762 -0.607227 0
M  V30 7876 C 756.878 1.7509 0.858399 0
M  V30 7877 O 756.148 1.11416 1.61132 0
M  V30 7878 H 754.728 0.713377 -0.221591 0
M  V30 7879 H 757.39 1.52625 -1.21209 0
M  V30 7880 H 756.486 3.00695 -0.835998 0
M  V30 7881 N 756.787 0.722489 1.40064 0
M  V30 7882 C 757.697 0.0755984 2.34478 0
M  V30 7883 C 758.713 -0.736046 1.57665 0
M  V30 7884 O 759.889 -0.667407 1.9002 0
M  V30 7885 C 756.954 -0.830075 3.36616 0
M  V30 7886 C 756.015 -0.00759884 4.29299 0
M  V30 7887 C 755.248 -0.870139 5.26559 0
M  V30 7888 O 755.471 -2.10921 5.2997 0
M  V30 7889 O 754.405 -0.305454 6.01124 0
M  V30 7890 H 758.231 0.854545 2.9143 0
M  V30 7891 H 755.816 0.483032 1.41376 0
M  V30 7892 H 757.698 -1.34864 3.99236 0
M  V30 7893 H 756.373 -1.58805 2.82069 0
M  V30 7894 H 755.28 0.556199 3.69942 0
M  V30 7895 H 756.613 0.712312 4.87018 0
M  V30 7896 N 758.265 -1.50454 0.469181 0
M  V30 7897 C 759.175 -2.32248 -0.331349 0
M  V30 7898 C 760.191 -1.42548 -0.997807 0
M  V30 7899 O 761.367 -1.75602 -0.9862 0
M  V30 7900 C 758.432 -3.17171 -1.40012 0
M  V30 7901 C 757.493 -4.2269 -0.750463 0
M  V30 7902 C 756.726 -5.03554 -1.76831 0
M  V30 7903 O 756.949 -4.85469 -2.99459 0
M  V30 7904 O 755.883 -5.86767 -1.3412 0
M  V30 7905 H 759.709 -3.01821 0.337279 0
M  V30 7906 H 757.294 -1.47602 0.231066 0
M  V30 7907 H 759.176 -3.69871 -2.01924 0
M  V30 7908 H 757.851 -2.50328 -2.05226 0
M  V30 7909 H 756.758 -3.73986 -0.0924446 0
M  V30 7910 H 758.091 -4.91997 -0.14131 0
M  V30 7911 N 759.743 -0.201713 -1.56304 0
M  V30 7912 C 760.673 0.71155 -2.22394 0
M  V30 7913 C 761.654 1.21625 -1.18917 0
M  V30 7914 O 762.839 1.26388 -1.47444 0
M  V30 7915 C 759.969 1.92837 -2.88845 0
M  V30 7916 C 758.923 1.55831 -3.98623 0
M  V30 7917 C 758.249 2.85228 -4.52271 0
M  V30 7918 C 759.549 0.763249 -5.16693 0
M  V30 7919 H 761.243 0.160573 -2.98969 0
M  V30 7920 H 758.789 0.0757916 -1.438 0
M  V30 7921 H 760.742 2.57253 -3.33764 0
M  V30 7922 H 759.466 2.50398 -2.09686 0
M  V30 7923 H 758.125 0.9377 -3.54405 0
M  V30 7924 H 757.773 3.40893 -3.69866 0
M  V30 7925 H 757.473 2.6121 -5.26349 0
M  V30 7926 H 758.997 3.50622 -4.99897 0
M  V30 7927 H 760.411 1.31066 -5.58117 0
M  V30 7928 H 758.808 0.620935 -5.96879 0
M  V30 7929 H 759.878 -0.234322 -4.84334 0
M  V30 7930 N 761.222 1.57436 0.0718424 0
M  V30 7931 C 762.152 2.06724 1.08571 0
M  V30 7932 C 763.133 0.960731 1.40371 0
M  V30 7933 O 764.318 1.23345 1.49999 0
M  V30 7934 C 761.448 2.51112 2.39916 0
M  V30 7935 C 760.402 3.65639 2.22469 0
M  V30 7936 C 759.728 3.96082 3.59198 0
M  V30 7937 C 761.028 4.95687 1.64596 0
M  V30 7938 H 762.722 2.91679 0.675569 0
M  V30 7939 H 760.268 1.40319 0.32352 0
M  V30 7940 H 762.221 2.84206 3.11135 0
M  V30 7941 H 760.945 1.63186 2.8291 0
M  V30 7942 H 759.604 3.32828 1.53691 0
M  V30 7943 H 759.252 3.05287 3.99761 0
M  V30 7944 H 758.952 4.73199 3.48362 0
M  V30 7945 H 760.476 4.31672 4.31847 0
M  V30 7946 H 761.89 5.27011 2.25681 0
M  V30 7947 H 760.287 5.77126 1.64457 0
M  V30 7948 H 761.357 4.8108 0.60744 0
M  V30 7949 N 762.7 -0.34323 1.53817 0
M  V30 7950 C 764.116 -0.686355 1.44088 0
M  V30 7951 C 764.316 -1.92426 0.597882 0
M  V30 7952 O 763.372 -2.52343 0.0889918 0
M  V30 7953 C 764.685 -0.878698 2.87575 0
M  V30 7954 C 766.233 -0.977296 2.97352 0
M  V30 7955 C 766.708 -1.20195 4.41947 0
M  V30 7956 N 768.199 -1.26915 4.45474 0
M  V30 7957 C 768.934 -1.46049 5.54488 0
M  V30 7958 N 768.43 -1.62354 6.73508 0
M  V30 7959 N 770.223 -1.48599 5.42102 0
M  V30 7960 H 762.374 0.470679 2.07119 0
M  V30 7961 H 764.637 0.148652 0.936273 0
M  V30 7962 H 764.343 -0.040602 3.51677 0
M  V30 7963 H 764.217 -1.78034 3.32541 0
M  V30 7964 H 766.604 -1.80591 2.3339 0
M  V30 7965 H 766.685 -0.0525498 2.55746 0
M  V30 7966 H 766.329 -0.378262 5.06489 0
M  V30 7967 H 766.259 -2.14027 4.81145 0
M  V30 7968 H 768.75 -1.15837 3.59708 0
M  V30 7969 H 769.063 -1.76591 7.52353 0
M  V30 7970 H 767.408 -1.5949 6.76453 0
M  V30 7971 H 770.599 -1.35443 4.48077 0
M  V30 7972 H 770.772 -1.6317 6.2712 0
M  V30 7973 N 764.178 -1.45556 -0.604258 0
M  V30 7974 C 765.108 -1.57327 -1.72541 0
M  V30 7975 C 766.089 -0.424637 -1.64714 0
M  V30 7976 O 767.274 -0.648196 -1.83063 0
M  V30 7977 C 764.404 -1.54279 -3.11152 0
M  V30 7978 C 763.358 -2.67893 -3.33792 0
M  V30 7979 C 762.684 -2.499 -4.72709 0
M  V30 7980 C 763.984 -4.0988 -3.23722 0
M  V30 7981 H 765.678 -2.51175 -1.62947 0
M  V30 7982 H 763.224 -1.20884 -0.782504 0
M  V30 7983 H 765.177 -1.6111 -3.89386 0
M  V30 7984 H 763.901 -0.569627 -3.21594 0
M  V30 7985 H 762.56 -2.60495 -2.57949 0
M  V30 7986 H 762.208 -1.50715 -4.79889 0
M  V30 7987 H 761.908 -3.26091 -4.88813 0
M  V30 7988 H 763.432 -2.5859 -5.5314 0
M  V30 7989 H 764.846 -4.18503 -3.91826 0
M  V30 7990 H 763.243 -4.86487 -3.51355 0
M  V30 7991 H 764.313 -4.31553 -2.21111 0
M  V30 7992 N 765.656 0.84705 -1.32902 0
M  V30 7993 C 766.619 1.9378 -1.224 0
M  V30 7994 C 767.619 1.60144 -0.145108 0
M  V30 7995 O 768.809 1.69638 -0.396058 0
M  V30 7996 C 765.941 3.29234 -0.884174 0
M  V30 7997 H 767.134 2.04518 -2.19345 0
M  V30 7998 H 764.687 1.03816 -1.16842 0
M  V30 7999 H 765.422 3.24193 0.0831277 0
M  V30 8000 H 765.207 3.55026 -1.6643 0
M  V30 8001 H 766.697 4.09162 -0.835226 0
M  V30 8002 N 767.134 1.16236 1.06428 0
M  V30 8003 C 768.545 0.950942 1.60667 0
M  V30 8004 C 768.896 -0.505491 1.89576 0
M  V30 8005 O 768.021 -1.37843 1.66818 0
M  V30 8006 C 768.616 1.71982 2.91904 0
M  V30 8007 C 767.175 1.55342 3.4285 0
M  V30 8008 C 766.322 1.72942 2.16763 0
M  V30 8009 H 769.273 1.31126 0.893959 0
M  V30 8010 H 769.294 1.19483 3.61253 0
M  V30 8011 H 768.806 2.77978 2.70831 0
M  V30 8012 H 766.907 0.5178 3.68985 0
M  V30 8013 H 767.02 2.33643 4.18267 0
M  V30 8014 H 765.384 1.15673 2.26918 0
M  V30 8015 H 766.167 2.80324 1.98175 0
M  V30 8016 N 768.612 -1.24939 0.960631 0
M  V30 8017 C 769.837 -1.9742 0.635608 0
M  V30 8018 C 770.262 -1.70857 -0.786737 0
M  V30 8019 O 769.62 -0.968063 -1.53291 0
M  V30 8020 C 769.668 -3.48987 0.907771 0
M  V30 8021 O 768.772 -4.12399 -0.0104053 0
M  V30 8022 H 768.113 -0.61871 0.241027 0
M  V30 8023 H 770.643 -1.58901 1.28886 0
M  V30 8024 H 770.653 -3.99334 0.836453 0
M  V30 8025 H 769.328 -3.6765 1.94439 0
M  V30 8026 H 767.905 -3.72727 0.113631 0
M  V30 8027 N 770.09 -0.729906 -1.39679 0
M  V30 8028 C 771.501 -0.346241 -1.83461 0
M  V30 8029 C 771.852 1.1215 -1.60987 0
M  V30 8030 O 770.977 1.86456 -1.09832 0
M  V30 8031 C 771.572 -0.621656 -3.33048 0
M  V30 8032 C 770.131 -0.291543 -3.75269 0
M  V30 8033 C 769.278 -0.886844 -2.62736 0
M  V30 8034 H 772.229 -0.927949 -1.28743 0
M  V30 8035 H 772.25 0.108301 -3.80346 0
M  V30 8036 H 771.762 -1.68996 -3.49373 0
M  V30 8037 H 769.863 0.771133 -3.64533 0
M  V30 8038 H 769.976 -0.770544 -4.72863 0
M  V30 8039 H 768.34 -0.313839 -2.52759 0
M  V30 8040 H 769.123 -1.95971 -2.81869 0
M  V30 8041 N 771.568 1.50203 -0.477153 0
M  V30 8042 C 772.518 2.25561 0.332625 0
M  V30 8043 C 773.502 1.29401 0.956249 0
M  V30 8044 O 774.694 1.54267 0.867795 0
M  V30 8045 C 771.823 3.12984 1.41052 0
M  V30 8046 C 770.909 4.16595 0.79433 0
M  V30 8047 N 771.3 5.05722 -0.0889633 0
M  V30 8048 C 769.598 4.33279 1.0576 0
M  V30 8049 C 770.299 5.80039 -0.439286 0
M  V30 8050 N 769.275 5.43278 0.187018 0
M  V30 8051 H 773.077 2.91836 -0.347718 0
M  V30 8052 H 770.591 1.59759 -0.291686 0
M  V30 8053 H 772.588 3.65582 2.00388 0
M  V30 8054 H 771.248 2.48258 2.09279 0
M  V30 8055 H 772.259 5.15869 -0.458205 0
M  V30 8056 H 768.936 3.79769 1.7344 0
M  V30 8057 H 770.326 6.61802 -1.1605 0
M  V30 8058 N 773.046 0.209999 1.56195 0
M  V30 8059 C 773.996 -0.717978 2.164 0
M  V30 8060 C 774.98 -1.16577 1.10899 0
M  V30 8061 O 776.172 -1.12169 1.3692 0
M  V30 8062 C 773.301 -1.93091 2.8385 0
M  V30 8063 C 772.387 -1.50333 3.96561 0
M  V30 8064 N 772.778 -0.787621 4.9963 0
M  V30 8065 C 771.076 -1.79151 4.08437 0
M  V30 8066 C 771.777 -0.571204 5.78889 0
M  V30 8067 N 770.753 -1.12444 5.31843 0
M  V30 8068 H 774.555 -0.162603 2.9345 0
M  V30 8069 H 772.069 0.0107928 1.62396 0
M  V30 8070 H 774.066 -2.60635 3.25384 0
M  V30 8071 H 772.726 -2.49087 2.08293 0
M  V30 8072 H 773.737 -0.441513 5.16015 0
M  V30 8073 H 770.414 -2.36549 3.44022 0
M  V30 8074 H 771.804 -0.00237941 6.719 0
M  V30 8075 N 774.524 -1.57472 -0.0634922 0
M  V30 8076 C 775.749 -1.92273 -0.77756 0
M  V30 8077 C 776.174 -0.807141 -1.69902 0
M  V30 8078 O 775.532 0.239523 -1.79711 0
M  V30 8079 C 775.58 -3.26054 -1.54017 0
M  V30 8080 O 774.684 -3.15873 -2.65138 0
M  V30 8081 H 774.025 -0.629389 -0.211579 0
M  V30 8082 H 776.555 -2.04579 -0.0292523 0
M  V30 8083 H 776.565 -3.60127 -1.91763 0
M  V30 8084 H 775.24 -4.06824 -0.864128 0
M  V30 8085 H 773.817 -2.93373 -2.30189 0
M  V30 8086 N 776.003 0.335068 -1.53997 0
M  V30 8087 C 777.414 0.910191 -1.6301 0
M  V30 8088 C 777.765 1.89271 -0.516809 0
M  V30 8089 O 776.89 2.13516 0.352123 0
M  V30 8090 C 777.485 1.65761 -2.9548 0
M  V30 8091 C 776.044 2.18163 -3.06728 0
M  V30 8092 C 775.191 1.00338 -2.5851 0
M  V30 8093 H 778.142 0.112965 -1.58297 0
M  V30 8094 H 778.163 2.52107 -2.84995 0
M  V30 8095 H 777.675 0.94227 -3.76488 0
M  V30 8096 H 775.776 2.92847 -2.30372 0
M  V30 8097 H 775.889 2.43952 -4.1234 0
M  V30 8098 H 774.253 1.37925 -2.14124 0
M  V30 8099 H 775.036 0.30254 -3.41964 0
M  V30 8100 N 777.481 1.45874 0.596531 0
M  V30 8101 C 778.413 1.51408 1.7207 0
M  V30 8102 C 779.426 0.403738 1.57714 0
M  V30 8103 O 780.615 0.671384 1.65393 0
M  V30 8104 C 777.715 1.3652 3.10186 0
M  V30 8105 C 776.888 2.61428 3.50677 0
M  V30 8106 C 775.947 2.40937 4.67799 0
M  V30 8107 O 774.973 3.14602 4.74357 0
M  V30 8108 N 776.175 1.4621 5.61785 0
M  V30 8109 H 778.94 2.48333 1.67782 0
M  V30 8110 H 776.501 1.41755 0.782129 0
M  V30 8111 H 778.493 1.20606 3.86311 0
M  V30 8112 H 777.063 0.478302 3.08919 0
M  V30 8113 H 776.283 2.92381 2.644 0
M  V30 8114 H 777.571 3.44432 3.74491 0
M  V30 8115 H 776.969 0.854382 5.59211 0
M  V30 8116 H 775.526 1.36264 6.37397 0
M  V30 8117 N 778.959 -0.83999 1.33349 0
M  V30 8118 C 779.892 -1.95415 1.17848 0
M  V30 8119 C 780.87 -1.6243 0.0742296 0
M  V30 8120 O 782.054 -1.87014 0.23626 0
M  V30 8121 C 779.181 -3.28938 0.807295 0
M  V30 8122 C 778.227 -3.80895 1.91888 0
M  V30 8123 S 779.06 -4.02709 3.52967 0
M  V30 8124 C 780.216 -5.39185 3.17853 0
M  V30 8125 H 780.449 -2.08265 2.12162 0
M  V30 8126 H 777.982 -0.993643 1.18178 0
M  V30 8127 H 779.94 -4.06093 0.599914 0
M  V30 8128 H 778.601 -3.13881 -0.117234 0
M  V30 8129 H 777.794 -4.77508 1.6125 0
M  V30 8130 H 777.396 -3.10633 2.08286 0
M  V30 8131 H 779.688 -6.21978 2.68608 0
M  V30 8132 H 780.631 -5.74795 4.13542 0
M  V30 8133 H 781.039 -5.03885 2.5448 0
M  V30 8134 N 780.437 -1.16799 -1.0581 0
M  V30 8135 C 781.37 -0.822491 -2.12862 0
M  V30 8136 C 782.348 0.208006 -1.61264 0
M  V30 8137 O 783.532 0.0909652 -1.8828 0
M  V30 8138 C 780.659 -0.225826 -3.37946 0
M  V30 8139 C 779.705 -1.23071 -4.08357 0
M  V30 8140 S 780.538 -2.77944 -4.5772 0
M  V30 8141 C 781.694 -2.19741 -5.86059 0
M  V30 8142 H 781.927 -1.72917 -2.41841 0
M  V30 8143 H 779.46 -0.991982 -1.18318 0
M  V30 8144 H 781.418 0.111955 -4.10347 0
M  V30 8145 H 780.079 0.658692 -3.07116 0
M  V30 8146 H 779.272 -0.761758 -4.9821 0
M  V30 8147 H 778.874 -1.51383 -3.41993 0
M  V30 8148 H 781.166 -1.5691 -6.59079 0
M  V30 8149 H 782.109 -3.07823 -6.37692 0
M  V30 8150 H 782.517 -1.63433 -5.40324 0
M  V30 8151 N 781.915 1.24427 -0.967243 0
M  V30 8152 C 782.825 2.29109 -0.504592 0
M  V30 8153 C 783.841 1.68495 0.434224 0
M  V30 8154 O 785.017 1.99041 0.307379 0
M  V30 8155 C 782.082 3.46133 0.198273 0
M  V30 8156 C 781.143 4.22149 -0.780313 0
M  V30 8157 C 780.376 5.33585 -0.110896 0
M  V30 8158 O 780.599 5.59676 1.10088 0
M  V30 8159 O 779.533 5.96522 -0.802823 0
M  V30 8160 H 783.359 2.708 -1.37482 0
M  V30 8161 H 780.944 1.30111 -0.73426 0
M  V30 8162 H 782.826 4.17205 0.593124 0
M  V30 8163 H 781.501 3.0642 1.04347 0
M  V30 8164 H 780.408 3.53454 -1.22561 0
M  V30 8165 H 781.741 4.65677 -1.59392 0
M  V30 8166 N 783.393 0.737304 1.3929 0
M  V30 8167 C 784.67 0.212464 1.94443 0
M  V30 8168 C 785.05 -1.28621 1.67391 0
M  V30 8169 O 784.398 -2.0529 1.00342 0
M  V30 8170 C 784.608 0.548565 3.44662 0
M  V30 8171 C 785.956 0.499177 4.21656 0
M  V30 8172 O 786.98 0.485892 3.5287 0
M  V30 8173 O 785.839 0.495739 5.44247 0
M  V30 8174 H 782.933 0.0395457 0.826054 0
M  V30 8175 H 785.479 0.816319 1.48776 0
M  V30 8176 H 784.251 1.58426 3.57795 0
M  V30 8177 H 783.874 -0.0841399 3.97511 0
M  V30 8178 N 784.871 -1.49948 0.485112 0
M  V30 8179 C 786.118 -2.02396 -0.0650059 0
M  V30 8180 C 786.446 -1.36606 -1.38452 0
M  V30 8181 O 785.701 -0.485476 -1.89583 0
M  V30 8182 C 786 -3.56282 -0.282434 0
M  V30 8183 C 785.666 -4.40625 0.957106 0
M  V30 8184 C 784.328 -4.63393 1.29692 0
M  V30 8185 C 786.68 -4.89799 1.78176 0
M  V30 8186 C 784.008 -5.3258 2.4612 0
M  V30 8187 C 786.36 -5.60266 2.93743 0
M  V30 8188 C 785.024 -5.81284 3.28124 0
M  V30 8189 H 784.294 -0.740618 -0.0237873 0
M  V30 8190 H 786.941 -1.80416 0.642044 0
M  V30 8191 H 785.246 -3.76853 -1.07186 0
M  V30 8192 H 786.943 -3.94442 -0.722276 0
M  V30 8193 H 783.533 -4.23133 0.682384 0
M  V30 8194 H 787.717 -4.7205 1.53239 0
M  V30 8195 H 782.973 -5.47059 2.73014 0
M  V30 8196 H 787.147 -5.97347 3.5798 0
M  V30 8197 H 784.774 -6.34671 4.18446 0
M  V30 8198 N 786.349 -0.21828 -1.56081 0
M  V30 8199 C 787.595 0.414921 -1.9851 0
M  V30 8200 C 787.928 1.59648 -1.10573 0
M  V30 8201 O 787.203 1.93818 -0.162695 0
M  V30 8202 C 787.486 0.852647 -3.4986 0
M  V30 8203 C 787.339 -0.33232 -4.48571 0
M  V30 8204 C 788.658 1.70998 -4.05521 0
M  V30 8205 H 785.777 0.149344 -0.72171 0
M  V30 8206 H 788.419 -0.313858 -1.8739 0
M  V30 8207 H 786.569 1.47362 -3.59467 0
M  V30 8208 H 788.241 -0.970418 -4.50977 0
M  V30 8209 H 786.484 -0.980302 -4.22578 0
M  V30 8210 H 787.155 0.0168407 -5.51997 0
M  V30 8211 H 789.631 1.18606 -3.98838 0
M  V30 8212 H 788.507 1.98517 -5.11744 0
M  V30 8213 H 788.768 2.67219 -3.52202 0
M  V30 8214 N 787.827 1.57504 0.0551401 0
M  V30 8215 C 788.737 2.08198 1.08124 0
M  V30 8216 C 789.753 1.01496 1.41331 0
M  V30 8217 O 790.929 1.33073 1.51174 0
M  V30 8218 C 787.994 2.52968 2.37083 0
M  V30 8219 C 787.055 3.7404 2.10696 0
M  V30 8220 C 786.288 4.16665 3.33505 0
M  V30 8221 O 786.511 3.59019 4.4324 0
M  V30 8222 O 785.445 5.09324 3.20737 0
M  V30 8223 H 789.271 2.95977 0.680518 0
M  V30 8224 H 786.856 1.46933 0.270401 0
M  V30 8225 H 788.738 2.82211 3.12946 0
M  V30 8226 H 787.413 1.6831 2.76502 0
M  V30 8227 H 786.32 3.49855 1.32484 0
M  V30 8228 H 787.653 4.59601 1.76148 0
M  V30 8229 N 789.305 -0.326896 1.54172 0
M  V30 8230 C 790.252 -1.40216 1.83325 0
M  V30 8231 C 791.222 -1.51538 0.680107 0
M  V30 8232 O 792.407 -1.66811 0.926206 0
M  V30 8233 C 789.547 -2.76626 2.0633 0
M  V30 8234 C 788.66 -2.73963 3.34019 0
M  V30 8235 C 787.795 -4.02198 3.47002 0
M  V30 8236 C 786.834 -3.93828 4.68578 0
M  V30 8237 N 785.971 -5.13787 4.78506 0
M  V30 8238 H 790.811 -1.14656 2.7506 0
M  V30 8239 H 788.348 -0.555089 1.36225 0
M  V30 8240 H 790.306 -3.55922 2.17659 0
M  V30 8241 H 788.936 -3.00503 1.1789 0
M  V30 8242 H 787.988 -1.86677 3.31445 0
M  V30 8243 H 789.3 -2.6366 4.2342 0
M  V30 8244 H 788.454 -4.89923 3.57855 0
M  V30 8245 H 787.193 -4.15302 2.55687 0
M  V30 8246 H 786.198 -3.04487 4.57786 0
M  V30 8247 H 787.423 -3.82292 5.61275 0
M  V30 8248 H 785.369 -5.27403 3.90105 0
M  V30 8249 H 785.286 -5.05807 5.61868 0
M  V30 8250 H 786.554 -6.03236 4.93686 0
M  V30 8251 N 790.784 -1.46188 -0.588786 0
M  V30 8252 C 791.714 -1.59148 -1.70863 0
M  V30 8253 C 792.695 -0.442083 -1.64255 0
M  V30 8254 O 793.88 -0.667575 -1.82365 0
M  V30 8255 C 791.01 -1.5757 -3.09498 0
M  V30 8256 C 789.964 -2.71418 -3.30932 0
M  V30 8257 C 789.29 -2.549 -4.70032 0
M  V30 8258 C 790.59 -4.1329 -3.19356 0
M  V30 8259 H 792.284 -2.52889 -1.60274 0
M  V30 8260 H 789.83 -1.21707 -0.769638 0
M  V30 8261 H 791.783 -1.65231 -3.87655 0
M  V30 8262 H 790.507 -0.603705 -3.20972 0
M  V30 8263 H 789.166 -2.63216 -2.55172 0
M  V30 8264 H 788.814 -1.55797 -4.78264 0
M  V30 8265 H 788.514 -3.31257 -4.85327 0
M  V30 8266 H 790.038 -2.64443 -5.50366 0
M  V30 8267 H 791.452 -4.22636 -3.87365 0
M  V30 8268 H 789.849 -4.90187 -3.46175 0
M  V30 8269 H 790.919 -4.33874 -2.16522 0
M  V30 8270 N 792.262 0.832906 -1.33792 0
M  V30 8271 C 793.192 1.95828 -1.27176 0
M  V30 8272 C 794.173 1.69427 -0.15114 0
M  V30 8273 O 795.358 1.91167 -0.341886 0
M  V30 8274 C 792.488 3.32098 -1.01629 0
M  V30 8275 C 791.442 3.72912 -2.10049 0
M  V30 8276 C 790.768 5.07054 -1.69706 0
M  V30 8277 C 792.068 3.86064 -3.51783 0
M  V30 8278 H 793.762 2.01622 -2.21334 0
M  V30 8279 H 791.308 0.96866 -1.0655 0
M  V30 8280 H 793.261 4.10402 -0.956474 0
M  V30 8281 H 791.985 3.26577 -0.0390956 0
M  V30 8282 H 790.644 2.96876 -2.15082 0
M  V30 8283 H 790.292 4.9801 -0.706737 0
M  V30 8284 H 789.992 5.35333 -2.42264 0
M  V30 8285 H 791.516 5.87827 -1.65202 0
M  V30 8286 H 792.93 4.54665 -3.49218 0
M  V30 8287 H 791.327 4.25787 -4.22878 0
M  V30 8288 H 792.397 2.88344 -3.89854 0
M  V30 8289 N 793.74 1.17359 1.05189 0
M  V30 8290 C 794.67 0.91365 2.14883 0
M  V30 8291 C 795.651 -0.144365 1.69486 0
M  V30 8292 O 796.836 0.00587861 1.94199 0
M  V30 8293 C 793.966 0.426196 3.44675 0
M  V30 8294 C 792.92 1.4234 4.03638 0
M  V30 8295 C 792.246 0.793902 5.28773 0
M  V30 8296 C 793.546 2.7966 4.41121 0
M  V30 8297 H 795.24 1.831 2.36885 0
M  V30 8298 H 792.786 0.881781 1.13845 0
M  V30 8299 H 794.739 0.231767 4.20762 0
M  V30 8300 H 793.463 -0.526693 3.22325 0
M  V30 8301 H 792.122 1.60457 3.2962 0
M  V30 8302 H 791.77 -0.165824 5.02727 0
M  V30 8303 H 791.47 1.45959 5.69183 0
M  V30 8304 H 792.994 0.609747 6.07548 0
M  V30 8305 H 794.408 2.6526 5.08242 0
M  V30 8306 H 792.805 3.42807 4.92548 0
M  V30 8307 H 793.875 3.34068 3.51464 0
M  V30 8308 N 795.218 -1.23913 0.973828 0
M  V30 8309 C 796.181 -2.23367 0.51378 0
M  V30 8310 C 797.181 -1.55923 -0.39302 0
M  V30 8311 O 798.371 -1.73187 -0.187626 0
M  V30 8312 C 795.503 -3.39944 -0.255152 0
M  V30 8313 H 796.696 -2.65581 1.39307 0
M  V30 8314 H 794.249 -1.36632 0.759039 0
M  V30 8315 H 794.984 -3.03177 -1.15127 0
M  V30 8316 H 794.769 -3.90098 0.395673 0
M  V30 8317 H 796.259 -4.13749 -0.565842 0
M  V30 8318 N 796.696 -0.74468 -1.38897 0
M  V30 8319 C 797.942 -0.306249 -2.01081 0
M  V30 8320 C 798.297 1.09724 -1.58046 0
M  V30 8321 O 797.59 1.73923 -0.803834 0
M  V30 8322 C 797.784 -0.357302 -3.55609 0
M  V30 8323 C 797.613 -1.76421 -4.13649 0
M  V30 8324 C 796.383 -2.3787 -4.4581 0
M  V30 8325 C 798.581 -2.71942 -4.36523 0
M  V30 8326 N 796.563 -3.70614 -4.89406 0
M  V30 8327 C 797.934 -3.89437 -4.8243 0
M  V30 8328 C 799.989 -2.69579 -4.18607 0
M  V30 8329 C 798.692 -5.04917 -5.123 0
M  V30 8330 C 800.718 -3.8421 -4.49596 0
M  V30 8331 C 800.08 -5.00442 -4.95719 0
M  V30 8332 H 796.179 -0.158531 -0.765762 0
M  V30 8333 H 798.763 -0.972726 -1.6866 0
M  V30 8334 H 796.934 0.278865 -3.87398 0
M  V30 8335 H 798.666 0.100599 -4.04575 0
M  V30 8336 H 795.421 -1.8971 -4.33943 0
M  V30 8337 H 795.845 -4.38791 -5.1555 0
M  V30 8338 H 800.487 -1.80905 -3.82143 0
M  V30 8339 H 798.205 -5.94213 -5.47665 0
M  V30 8340 H 801.791 -3.83691 -4.37347 0
M  V30 8341 H 800.671 -5.87671 -5.19242 0
M  V30 8342 N 798.174 1.49689 -0.493057 0
M  V30 8343 C 799.402 2.06836 0.0513141 0
M  V30 8344 C 799.817 1.35436 1.31539 0
M  V30 8345 O 799.174 0.430248 1.77356 0
M  V30 8346 C 799.225 3.60107 0.317003 0
M  V30 8347 O 798.946 4.2882 -0.896957 0
M  V30 8348 C 800.447 4.33945 0.905902 0
M  V30 8349 H 797.667 0.670787 -0.0169048 0
M  V30 8350 H 800.211 1.92574 -0.688139 0
M  V30 8351 H 798.366 3.74099 1.00642 0
M  V30 8352 H 798.78 5.20395 -0.654939 0
M  V30 8353 H 800.254 5.42087 1.04144 0
M  V30 8354 H 800.731 3.95895 1.90168 0
M  V30 8355 H 801.337 4.2454 0.254195 0
M  V30 8356 N 799.652 0.226554 1.55963 0
M  V30 8357 C 800.615 -0.668015 2.19249 0
M  V30 8358 C 801.615 -1.11794 1.1558 0
M  V30 8359 O 802.805 -1.02593 1.40784 0
M  V30 8360 C 799.937 -1.91571 2.81981 0
M  V30 8361 H 801.13 -0.116175 2.99675 0
M  V30 8362 H 798.683 -0.0230497 1.56283 0
M  V30 8363 H 799.418 -2.50929 2.05439 0
M  V30 8364 H 799.203 -1.6015 3.57903 0
M  V30 8365 H 800.693 -2.55294 3.30477 0
M  V30 8366 N 801.13 -1.57531 -0.0467866 0
M  V30 8367 C 802.376 -1.8873 -0.742218 0
M  V30 8368 C 802.709 -0.822084 -1.75941 0
M  V30 8369 O 801.984 0.164922 -1.938 0
M  V30 8370 C 802.267 -3.30586 -1.42776 0
M  V30 8371 C 802.12 -4.47785 -0.425285 0
M  V30 8372 C 803.439 -3.71068 -2.36636 0
M  V30 8373 H 800.558 -0.686406 -0.268359 0
M  V30 8374 H 803.2 -1.89999 -0.00511341 0
M  V30 8375 H 801.35 -3.29634 -2.05605 0
M  V30 8376 H 803.022 -4.60867 0.199721 0
M  V30 8377 H 801.265 -4.33037 0.25713 0
M  V30 8378 H 801.936 -5.43884 -0.943086 0
M  V30 8379 H 804.412 -3.73273 -1.83866 0
M  V30 8380 H 803.288 -4.71165 -2.81593 0
M  V30 8381 H 803.549 -3.02355 -3.22542 0
M  V30 8382 N 802.608 0.318715 -1.54344 0
M  V30 8383 C 803.856 1.054 -1.72439 0
M  V30 8384 C 804.177 1.88388 -0.503495 0
M  V30 8385 O 803.447 1.89866 0.48246 0
M  V30 8386 H 802.027 0.392124 -0.635805 0
M  V30 8387 H 804.689 0.35398 -1.91659 0
M  V30 8388 H 803.785 1.71726 -2.60608 0
M  V30 8389 N 804.086 1.46499 0.581025 0
M  V30 8390 C 805.016 1.60052 1.70017 0
M  V30 8391 C 805.997 0.450788 1.64018 0
M  V30 8392 O 807.182 0.677237 1.82009 0
M  V30 8393 C 804.312 1.5921 3.08658 0
M  V30 8394 C 803.266 2.73169 3.29488 0
M  V30 8395 C 802.592 2.57389 4.68674 0
M  V30 8396 C 803.892 4.14978 3.1716 0
M  V30 8397 H 805.586 2.53735 1.5893 0
M  V30 8398 H 803.132 1.22113 0.763173 0
M  V30 8399 H 805.085 1.67285 3.86773 0
M  V30 8400 H 803.809 0.620718 3.20647 0
M  V30 8401 H 802.468 2.64566 2.53773 0
M  V30 8402 H 802.116 1.58331 4.77431 0
M  V30 8403 H 801.816 3.33826 4.83564 0
M  V30 8404 H 803.34 2.67358 5.48956 0
M  V30 8405 H 804.754 4.24684 3.85119 0
M  V30 8406 H 803.151 4.92016 3.4357 0
M  V30 8407 H 804.221 4.35016 2.14218 0
M  V30 8408 N 805.565 -0.825799 1.34232 0
M  V30 8409 C 806.976 -1.39835 1.23706 0
M  V30 8410 C 807.327 -1.95709 -0.138649 0
M  V30 8411 O 806.452 -1.89833 -1.03886 0
M  V30 8412 C 807.047 -2.54203 2.23978 0
M  V30 8413 C 805.606 -3.07374 2.17251 0
M  V30 8414 C 804.753 -1.80232 2.10741 0
M  V30 8415 H 807.704 -0.630442 1.4564 0
M  V30 8416 H 807.725 -3.32214 1.8551 0
M  V30 8417 H 807.237 -2.13506 3.24094 0
M  V30 8418 H 805.338 -3.52583 1.20483 0
M  V30 8419 H 805.451 -3.6666 3.08379 0
M  V30 8420 H 803.815 -2.01012 1.56417 0
M  V30 8421 H 804.598 -1.41713 3.12686 0
M  V30 8422 N 807.043 -1.17915 -1.04565 0
M  V30 8423 C 807.973 -0.925033 -2.14395 0
M  V30 8424 C 808.954 0.135375 -1.6956 0
M  V30 8425 O 810.139 -0.0161774 -1.94193 0
M  V30 8426 C 807.269 -0.444469 -3.44444 0
M  V30 8427 C 806.223 -1.44478 -4.02877 0
M  V30 8428 C 805.549 -0.821933 -5.28345 0
M  V30 8429 C 806.849 -2.81995 -4.39632 0
M  V30 8430 H 808.543 -1.84354 -2.35911 0
M  V30 8431 H 806.089 -0.887806 -1.13375 0
M  V30 8432 H 808.042 -0.254078 -4.20633 0
M  V30 8433 H 806.766 0.509592 -3.226 0
M  V30 8434 H 805.425 -1.62203 -3.28764 0
M  V30 8435 H 805.073 0.139161 -5.02807 0
M  V30 8436 H 804.773 -1.48976 -5.68401 0
M  V30 8437 H 806.297 -0.641959 -6.07216 0
M  V30 8438 H 807.711 -2.67952 -5.06828 0
M  V30 8439 H 806.108 -3.45414 -4.90723 0
M  V30 8440 H 807.178 -3.35927 -3.49687 0
M  V30 8441 N 808.521 1.23394 -0.980386 0
M  V30 8442 C 809.453 2.24146 -0.478657 0
M  V30 8443 C 810.466 1.57303 0.419492 0
M  V30 8444 O 811.655 1.77094 0.223631 0
M  V30 8445 C 808.755 3.3732 0.326913 0
M  V30 8446 C 807.928 4.33744 -0.56436 0
M  V30 8447 C 806.987 5.25866 0.187358 0
M  V30 8448 O 806.013 5.67626 -0.423019 0
M  V30 8449 N 807.215 5.61492 1.47335 0
M  V30 8450 H 809.98 2.67826 -1.34496 0
M  V30 8451 H 807.541 1.37566 -0.853653 0
M  V30 8452 H 809.533 3.95926 0.838148 0
M  V30 8453 H 808.103 2.92823 1.09422 0
M  V30 8454 H 807.323 3.73641 -1.25642 0
M  V30 8455 H 808.611 4.95123 -1.17177 0
M  V30 8456 H 808.009 5.29514 1.99077 0
M  V30 8457 H 806.566 6.2257 1.93002 0
M  V30 8458 N 809.999 0.752036 1.385 0
M  V30 8459 C 811.276 0.233075 1.94206 0
M  V30 8460 C 811.656 -1.26838 1.68746 0
M  V30 8461 O 811.004 -2.04214 1.02513 0
M  V30 8462 C 811.214 0.58509 3.44061 0
M  V30 8463 C 812.562 0.543871 4.21102 0
M  V30 8464 O 813.586 0.523291 3.52335 0
M  V30 8465 O 812.445 0.553436 5.4369 0
M  V30 8466 H 809.539 0.0483049 0.825588 0
M  V30 8467 H 812.085 0.832053 1.47902 0
M  V30 8468 H 810.857 1.62212 3.56094 0
M  V30 8469 H 810.48 -0.0419738 3.97578 0
M  V30 8470 N 811.477 -1.49425 0.500989 0
M  V30 8471 C 812.723 -2.02753 -0.0436 0
M  V30 8472 C 813.056 -1.37991 -1.36646 0
M  V30 8473 O 812.331 -0.515597 -1.87542 0
M  V30 8474 C 812.614 -3.59565 -0.19616 0
M  V30 8475 C 812.467 -4.34855 1.14982 0
M  V30 8476 C 813.786 -4.30014 -0.936795 0
M  V30 8477 H 810.905 -0.73686 -0.0143711 0
M  V30 8478 H 813.547 -1.78448 0.652397 0
M  V30 8479 H 811.697 -3.80405 -0.788959 0
M  V30 8480 H 813.369 -4.25512 1.7815 0
M  V30 8481 H 811.612 -3.97414 1.73911 0
M  V30 8482 H 812.283 -5.42933 0.996385 0
M  V30 8483 H 814.759 -4.1383 -0.434036 0
M  V30 8484 H 813.635 -5.39483 -1.01238 0
M  V30 8485 H 813.896 -3.95257 -1.9805 0
M  V30 8486 N 812.955 -0.234822 -1.55841 0
M  V30 8487 C 814.18 0.400741 -2.03492 0
M  V30 8488 C 814.605 1.51618 -1.11327 0
M  V30 8489 O 813.963 1.81002 -0.103922 0
M  V30 8490 C 814.011 0.897184 -3.49261 0
M  V30 8491 O 813.115 2.00764 -3.60233 0
M  V30 8492 H 812.456 0.0890023 -0.658008 0
M  V30 8493 H 814.986 -0.357345 -2.01455 0
M  V30 8494 H 814.996 1.20356 -3.89844 0
M  V30 8495 H 813.671 0.0808639 -4.15821 0
M  V30 8496 H 812.248 1.70689 -3.31541 0
M  V30 8497 N 814.433 1.57553 0.0384317 0
M  V30 8498 C 815.679 1.89121 0.732199 0
M  V30 8499 C 816.012 0.831404 1.75503 0
M  V30 8500 O 815.287 -0.154642 1.93884 0
M  V30 8501 C 815.57 3.31338 1.41021 0
M  V30 8502 C 815.423 4.48004 0.401532 0
M  V30 8503 C 816.742 3.72318 2.34665 0
M  V30 8504 H 813.861 0.687819 0.264715 0
M  V30 8505 H 816.503 1.89999 -0.00496279 0
M  V30 8506 H 814.653 3.3072 2.03854 0
M  V30 8507 H 816.325 4.60755 -0.224159 0
M  V30 8508 H 814.568 4.32895 -0.280092 0
M  V30 8509 H 815.239 5.44377 0.91423 0
M  V30 8510 H 817.715 3.74243 1.81883 0
M  V30 8511 H 816.591 4.72652 2.7909 0
M  V30 8512 H 816.852 3.04062 3.20934 0
M  V30 8513 N 815.911 -0.310526 1.54511 0
M  V30 8514 C 816.874 -1.3657 1.84068 0
M  V30 8515 C 817.874 -1.44123 0.713097 0
M  V30 8516 O 819.064 -1.43924 0.981399 0
M  V30 8517 C 816.196 -2.75162 2.01243 0
M  V30 8518 H 817.389 -1.1161 2.78358 0
M  V30 8519 H 814.942 -0.546699 1.46427 0
M  V30 8520 H 815.677 -3.05359 1.09208 0
M  V30 8521 H 815.462 -2.71071 2.83307 0
M  V30 8522 H 816.952 -3.51473 2.25514 0
M  V30 8523 N 817.389 -1.46805 -0.573248 0
M  V30 8524 C 818.352 -1.57655 -1.66366 0
M  V30 8525 C 819.352 -0.452905 -1.5429 0
M  V30 8526 O 820.542 -0.717502 -1.58737 0
M  V30 8527 C 817.674 -1.50584 -3.05839 0
M  V30 8528 H 818.867 -2.54842 -1.581 0
M  V30 8529 H 816.42 -1.34756 -0.791868 0
M  V30 8530 H 817.155 -0.547127 -3.19651 0
M  V30 8531 H 816.94 -2.32118 -3.16012 0
M  V30 8532 H 818.43 -1.61282 -3.85199 0
M  V30 8533 N 818.867 0.818669 -1.34668 0
M  V30 8534 C 820.107 1.58862 -1.28617 0
M  V30 8535 C 820.471 1.91483 0.140845 0
M  V30 8536 O 821.672 2.66821 0.325583 0
M  V30 8537 C 819.943 2.85044 -2.15604 0
M  V30 8538 S 821.502 3.75553 -2.26948 0
M  V30 8539 H 818.32 0.544454 -0.457265 0
M  V30 8540 H 820.922 0.966679 -1.69928 0
M  V30 8541 H 819.626 2.59083 -3.18284 0
M  V30 8542 H 819.157 3.52231 -1.75205 0
M  V30 8543 H 821.172 4.74682 -1.44539 0
M  V30 8544 N 820.346 1.18468 1.03938 0
M  V30 8545 C 821.294 0.909286 2.14091 0
M  V30 8546 C 822.288 -0.130928 1.68893 0
M  V30 8547 O 823.494 0.0173403 1.79992 0
M  V30 8548 H 819.869 0.27658 0.699291 0
M  V30 8549 H 821.84 1.84514 2.34515 0
M  V30 8550 C 820.589 0.452922 3.44737 0
M  V30 8551 H 819.912 1.24485 3.79926 0
M  V30 8552 H 821.352 0.299238 4.22943 0
M  V30 8553 C 819.811 -0.831435 3.26479 0
M  V30 8554 O 820.341 -1.89535 3.54174 0
M  V30 8555 N 818.547 -0.784545 2.79809 0
M  V30 8556 H 818.094 0.0814746 2.57471 0
M  V30 8557 H 818.052 -1.64431 2.67973 0
M  V30 8558 N 821.824 -1.22873 0.986916 0
M  V30 8559 C 823.071 -1.91462 0.659424 0
M  V30 8560 C 823.399 -1.76931 -0.807825 0
M  V30 8561 O 822.654 -1.12829 -1.59901 0
M  V30 8562 C 822.953 -3.43014 1.00379 0
M  V30 8563 C 822.619 -3.77731 2.46232 0
M  V30 8564 C 821.281 -3.86918 2.86091 0
M  V30 8565 C 823.633 -3.94343 3.40798 0
M  V30 8566 C 820.961 -4.10149 4.19518 0
M  V30 8567 C 823.313 -4.19076 4.73875 0
M  V30 8568 C 821.977 -4.26486 5.13484 0
M  V30 8569 H 821.247 -0.700611 0.2413 0
M  V30 8570 H 823.894 -1.45763 1.24199 0
M  V30 8571 H 822.199 -3.90329 0.339226 0
M  V30 8572 H 823.896 -3.94327 0.728518 0
M  V30 8573 H 820.486 -3.71159 2.14334 0
M  V30 8574 H 824.67 -3.86629 3.11178 0
M  V30 8575 H 819.926 -4.1411 4.49803 0
M  V30 8576 H 824.1 -4.30873 5.47102 0
M  V30 8577 H 821.727 -4.4424 6.16891 0
M  V30 8578 N 823.302 -0.75937 -1.38099 0
M  V30 8579 C 824.542 -0.323116 -2.0183 0
M  V30 8580 C 824.906 1.07658 -1.58977 0
M  V30 8581 O 826.107 1.61227 -2.1508 0
M  V30 8582 C 824.378 -0.448234 -3.54578 0
M  V30 8583 S 825.937 -0.0954152 -4.38696 0
M  V30 8584 H 822.755 -0.125013 -0.699923 0
M  V30 8585 H 825.357 -0.991262 -1.68506 0
M  V30 8586 H 824.061 -1.46778 -3.83255 0
M  V30 8587 H 823.592 0.236895 -3.92686 0
M  V30 8588 H 825.607 1.11312 -4.83554 0
M  V30 8589 N 824.78 1.49157 -0.508906 0
M  V30 8590 C 826.196 1.58741 -0.165372 0
M  V30 8591 C 826.396 1.5133 1.33047 0
M  V30 8592 O 825.452 1.39135 2.10707 0
M  V30 8593 C 826.765 2.91217 -0.749194 0
M  V30 8594 C 828.313 3.047 -0.716015 0
M  V30 8595 C 828.788 4.39807 -1.27804 0
M  V30 8596 N 830.279 4.46319 -1.23908 0
M  V30 8597 C 831.014 5.49325 -1.64406 0
M  V30 8598 N 830.51 6.59395 -2.12534 0
M  V30 8599 N 832.303 5.40084 -1.55773 0
M  V30 8600 H 824.454 1.52217 -1.48134 0
M  V30 8601 H 826.717 0.721514 -0.614915 0
M  V30 8602 H 826.423 3.02233 -1.79856 0
M  V30 8603 H 826.297 3.76592 -0.214144 0
M  V30 8604 H 828.684 2.9331 0.324535 0
M  V30 8605 H 828.765 2.2099 -1.2883 0
M  V30 8606 H 828.409 4.5195 -2.31741 0
M  V30 8607 H 828.339 5.2217 -0.681623 0
M  V30 8608 H 830.83 3.67354 -0.886537 0
M  V30 8609 H 831.143 7.34102 -2.41485 0
M  V30 8610 H 829.488 6.60414 -2.16513 0
M  V30 8611 H 832.679 4.52986 -1.17987 0
M  V30 8612 H 832.852 6.20233 -1.87657 0
M  V30 8613 N 826.258 0.243083 1.55714 0
M  V30 8614 C 827.674 -0.111853 1.59208 0
M  V30 8615 C 827.874 -1.5723 1.2602 0
M  V30 8616 O 826.93 -2.31608 1.00569 0
M  V30 8617 C 828.243 0.233885 2.99789 0
M  V30 8618 C 829.791 0.177873 3.12494 0
M  V30 8619 C 830.266 0.49759 4.55289 0
M  V30 8620 N 831.757 0.447949 4.61029 0
M  V30 8621 C 832.492 0.668545 5.69489 0
M  V30 8622 N 831.988 0.952064 6.86227 0
M  V30 8623 N 833.781 0.599512 5.58894 0
M  V30 8624 H 825.932 1.19554 1.75558 0
M  V30 8625 H 828.195 0.480765 0.817049 0
M  V30 8626 H 827.901 1.24835 3.28799 0
M  V30 8627 H 827.775 -0.440846 3.74615 0
M  V30 8628 H 830.162 -0.827263 2.83267 0
M  V30 8629 H 830.243 0.886399 2.39951 0
M  V30 8630 H 829.887 1.50026 4.85237 0
M  V30 8631 H 829.817 -0.232371 5.26087 0
M  V30 8632 H 832.308 0.237388 3.77154 0
M  V30 8633 H 832.621 1.10791 7.64817 0
M  V30 8634 H 830.966 0.989496 6.8792 0
M  V30 8635 H 834.157 0.378088 4.66571 0
M  V30 8636 H 834.33 0.774828 6.43351 0
M  V30 8637 N 827.736 -1.57571 -0.0300757 0
M  V30 8638 C 829.147 -1.77567 -0.576802 0
M  V30 8639 C 829.498 -0.874034 -1.75656 0
M  V30 8640 O 828.623 -0.0686124 -2.16291 0
M  V30 8641 C 829.218 -3.22016 -1.05315 0
M  V30 8642 C 827.777 -3.43212 -1.5454 0
M  V30 8643 C 826.924 -2.73061 -0.483033 0
M  V30 8644 H 829.875 -1.57483 0.196151 0
M  V30 8645 H 829.896 -3.28474 -1.92055 0
M  V30 8646 H 829.408 -3.87613 -0.194298 0
M  V30 8647 H 827.509 -2.82788 -2.42615 0
M  V30 8648 H 827.622 -4.5182 -1.5936 0
M  V30 8649 H 825.986 -2.36805 -0.937835 0
M  V30 8650 H 826.769 -3.4134 0.366341 0
M  V30 8651 N 829.214 0.302327 -1.54673 0
M  V30 8652 C 830.46 1.03924 -1.74149 0
M  V30 8653 C 830.793 1.86968 -0.525041 0
M  V30 8654 O 830.068 1.88538 0.477868 0
M  V30 8655 C 830.351 1.94633 -3.02969 0
M  V30 8656 C 830.204 1.14778 -4.34909 0
M  V30 8657 C 831.523 2.93826 -3.27649 0
M  V30 8658 H 828.642 0.376405 -0.633631 0
M  V30 8659 H 831.284 0.314007 -1.87387 0
M  V30 8660 H 829.434 2.56471 -2.91813 0
M  V30 8661 H 831.106 0.552363 -4.57981 0
M  V30 8662 H 829.349 0.450462 -4.31455 0
M  V30 8663 H 830.02 1.81495 -5.21309 0
M  V30 8664 H 832.496 2.42117 -3.38406 0
M  V30 8665 H 831.372 3.54462 -4.19104 0
M  V30 8666 H 831.633 3.67416 -2.45882 0
M  V30 8667 N 830.692 1.47107 0.565454 0
M  V30 8668 C 831.642 1.55384 1.66852 0
M  V30 8669 C 832.626 0.413369 1.55499 0
M  V30 8670 O 833.818 0.66281 1.64121 0
M  V30 8671 C 830.947 1.5634 3.05635 0
M  V30 8672 C 830.033 2.75742 3.22222 0
M  V30 8673 N 830.424 4.00515 3.08903 0
M  V30 8674 C 828.722 2.7233 3.53203 0
M  V30 8675 C 829.423 4.80435 3.27959 0
M  V30 8676 N 828.399 4.1261 3.53913 0
M  V30 8677 H 832.201 2.49635 1.55111 0
M  V30 8678 H 829.715 1.42986 0.769982 0
M  V30 8679 H 831.712 1.60359 3.84825 0
M  V30 8680 H 830.372 0.631785 3.18494 0
M  V30 8681 H 831.383 4.31501 2.86404 0
M  V30 8682 H 828.06 1.8827 3.7264 0
M  V30 8683 H 829.45 5.89334 3.22699 0
M  V30 8684 N 832.17 -0.811516 1.35101 0
M  V30 8685 C 833.417 -1.56835 1.28098 0
M  V30 8686 C 833.745 -1.93951 -0.14597 0
M  V30 8687 O 833 -1.61173 -1.11004 0
M  V30 8688 C 833.299 -2.87121 2.1283 0
M  V30 8689 C 832.965 -2.69245 3.61688 0
M  V30 8690 C 831.627 -2.64078 4.02264 0
M  V30 8691 C 833.979 -2.52122 4.56162 0
M  V30 8692 C 831.307 -2.39724 5.3549 0
M  V30 8693 C 833.659 -2.29298 5.89581 0
M  V30 8694 C 832.323 -2.2255 6.29307 0
M  V30 8695 H 831.593 -0.5739 0.468742 0
M  V30 8696 H 834.24 -0.93806 1.66951 0
M  V30 8697 H 832.545 -3.54502 1.66841 0
M  V30 8698 H 834.242 -3.44788 2.0475 0
M  V30 8699 H 830.832 -2.74112 3.29485 0
M  V30 8700 H 835.016 -2.5513 4.25702 0
M  V30 8701 H 830.272 -2.32965 5.65276 0
M  V30 8702 H 834.446 -2.15038 6.62368 0
M  V30 8703 H 832.073 -2.0344 7.32473 0
M  V30 8704 N 833.648 -1.19017 -1.03309 0
M  V30 8705 C 834.558 -0.939303 -2.14975 0
M  V30 8706 C 835.574 0.0992359 -1.73717 0
M  V30 8707 O 836.75 -0.0844362 -2.01223 0
M  V30 8708 C 833.815 -0.476712 -3.43407 0
M  V30 8709 C 832.876 -1.58413 -3.99003 0
M  V30 8710 C 832.109 -1.14352 -5.21305 0
M  V30 8711 O 832.332 -0.00534408 -5.704 0
M  V30 8712 O 831.266 -1.94436 -5.6963 0
M  V30 8713 H 835.092 -1.87386 -2.38998 0
M  V30 8714 H 832.677 -0.972635 -1.13403 0
M  V30 8715 H 834.559 -0.22718 -4.20787 0
M  V30 8716 H 833.234 0.429455 -3.20839 0
M  V30 8717 H 832.141 -1.88777 -3.22977 0
M  V30 8718 H 833.474 -2.4667 -4.25928 0
M  V30 8719 N 835.127 1.22348 -0.993418 0
M  V30 8720 C 836.057 2.26584 -0.564088 0
M  V30 8721 C 837.038 1.65102 0.409298 0
M  V30 8722 O 838.223 1.91872 0.299819 0
M  V30 8723 C 835.353 3.47087 0.121554 0
M  V30 8724 C 834.307 4.21009 -0.770429 0
M  V30 8725 C 833.633 5.34678 0.0481586 0
M  V30 8726 C 834.933 4.79636 -2.06752 0
M  V30 8727 H 836.627 2.62749 -1.43538 0
M  V30 8728 H 834.173 1.26303 -0.691628 0
M  V30 8729 H 836.126 4.19166 0.433303 0
M  V30 8730 H 834.85 3.1002 1.0274 0
M  V30 8731 H 833.509 3.50764 -1.06583 0
M  V30 8732 H 833.157 4.93852 0.954933 0
M  V30 8733 H 832.857 5.85061 -0.545641 0
M  V30 8734 H 834.381 6.09573 0.353991 0
M  V30 8735 H 835.795 5.43654 -1.81969 0
M  V30 8736 H 834.192 5.4036 -2.61019 0
M  V30 8737 H 835.262 3.99659 -2.74592 0
M  V30 8738 N 836.605 0.766683 1.37694 0
M  V30 8739 C 837.538 0.0959288 2.27998 0
M  V30 8740 C 838.516 -0.714493 1.46061 0
M  V30 8741 O 839.7 -0.690337 1.75404 0
M  V30 8742 C 836.827 -0.87057 3.27321 0
M  V30 8743 C 835.873 -0.144771 4.26254 0
M  V30 8744 S 836.706 1.16365 5.22704 0
M  V30 8745 C 837.862 0.200564 6.25579 0
M  V30 8746 H 838.095 0.861666 2.84539 0
M  V30 8747 H 835.628 0.559845 1.43893 0
M  V30 8748 H 837.586 -1.42282 3.85053 0
M  V30 8749 H 836.247 -1.60938 2.69737 0
M  V30 8750 H 835.44 -0.877259 4.96307 0
M  V30 8751 H 835.042 0.33633 3.72485 0
M  V30 8752 H 837.334 -0.628833 6.74575 0
M  V30 8753 H 838.277 0.869117 7.02746 0
M  V30 8754 H 838.685 -0.185972 5.64194 0
M  V30 8755 N 838.083 -1.48885 0.516809 0
M  V30 8756 C 839.308 -2.0739 -0.0205201 0
M  V30 8757 C 839.733 -1.37259 -1.28614 0
M  V30 8758 O 839.091 -0.434304 -1.76021 0
M  V30 8759 C 839.139 -3.59793 -0.24104 0
M  V30 8760 O 838.243 -3.90957 -1.31251 0
M  V30 8761 H 837.584 -0.663167 0.0332564 0
M  V30 8762 H 840.114 -1.91477 0.720956 0
M  V30 8763 H 840.124 -4.0531 -0.467737 0
M  V30 8764 H 838.799 -4.10244 0.68356 0
M  V30 8765 H 837.376 -3.57234 -1.06951 0
M  V30 8766 N 839.561 -0.251338 -1.55583 0
M  V30 8767 C 840.471 0.656978 -2.25213 0
M  V30 8768 C 841.487 1.18966 -1.26977 0
M  V30 8769 O 842.663 1.22499 -1.59862 0
M  V30 8770 C 839.728 1.83527 -2.94141 0
M  V30 8771 C 838.789 1.34162 -4.07798 0
M  V30 8772 C 838.022 2.46375 -4.73429 0
M  V30 8773 O 838.245 3.65205 -4.38157 0
M  V30 8774 O 837.179 2.15881 -5.61853 0
M  V30 8775 H 841.005 0.0936395 -3.03556 0
M  V30 8776 H 838.59 -0.0196638 -1.49387 0
M  V30 8777 H 840.472 2.52279 -3.3754 0
M  V30 8778 H 839.147 2.38614 -2.18735 0
M  V30 8779 H 838.054 0.621249 -3.68906 0
M  V30 8780 H 839.387 0.836779 -4.85035 0
M  V30 8781 N 841.039 1.57585 0.0217189 0
M  V30 8782 C 842.285 1.90733 0.706582 0
M  V30 8783 C 842.64 0.850732 1.7257 0
M  V30 8784 O 841.933 -0.139715 1.9109 0
M  V30 8785 C 842.127 3.28377 1.41079 0
M  V30 8786 C 841.956 4.47327 0.461395 0
M  V30 8787 C 840.726 5.05237 0.0797404 0
M  V30 8788 C 842.924 5.13626 -0.263302 0
M  V30 8789 N 840.906 6.07702 -0.870139 0
M  V30 8790 C 842.277 6.10722 -1.06859 0
M  V30 8791 C 844.332 4.96809 -0.329461 0
M  V30 8792 C 843.035 6.92813 -1.93397 0
M  V30 8793 C 845.061 5.79468 -1.18199 0
M  V30 8794 C 844.423 6.7614 -1.97519 0
M  V30 8795 H 840.522 0.74666 0.232427 0
M  V30 8796 H 843.106 1.94671 -0.0335228 0
M  V30 8797 H 841.277 3.25354 2.12131 0
M  V30 8798 H 843.009 3.49018 2.04862 0
M  V30 8799 H 839.764 4.71519 0.443498 0
M  V30 8800 H 840.188 6.6361 -1.33981 0
M  V30 8801 H 844.83 4.2194 0.269485 0
M  V30 8802 H 842.548 7.67022 -2.54369 0
M  V30 8803 H 846.134 5.68502 -1.23681 0
M  V30 8804 H 845.014 7.38989 -2.62421 0
M  V30 8805 N 842.517 -0.29412 1.54831 0
M  V30 8806 C 843.427 -1.3854 1.89325 0
M  V30 8807 C 844.443 -1.55127 0.788133 0
M  V30 8808 O 845.619 -1.6966 1.08524 0
M  V30 8809 C 842.684 -2.72809 2.13954 0
M  V30 8810 C 841.745 -2.65148 3.37631 0
M  V30 8811 C 840.978 -3.93014 3.61076 0
M  V30 8812 O 841.201 -4.927 2.87406 0
M  V30 8813 O 840.135 -3.94491 4.54599 0
M  V30 8814 H 843.961 -1.12289 2.82179 0
M  V30 8815 H 841.546 -0.490793 1.41108 0
M  V30 8816 H 843.428 -3.52238 2.31315 0
M  V30 8817 H 842.103 -2.9889 1.24285 0
M  V30 8818 H 841.01 -1.84168 3.25627 0
M  V30 8819 H 842.343 -2.4402 4.27452 0
M  V30 8820 N 843.995 -1.47404 -0.557645 0
M  V30 8821 C 845.411 -1.32913 -0.88353 0
M  V30 8822 C 845.611 -0.31929 -1.98954 0
M  V30 8823 O 844.667 0.26934 -2.51059 0
M  V30 8824 C 845.98 -2.72229 -1.27718 0
M  V30 8825 C 847.528 -2.8051 -1.38863 0
M  V30 8826 C 848.003 -4.20466 -1.81583 0
M  V30 8827 N 849.494 -4.23005 -1.88735 0
M  V30 8828 C 850.229 -5.2821 -2.23118 0
M  V30 8829 N 849.725 -6.4372 -2.56117 0
M  V30 8830 N 851.518 -5.15588 -2.23888 0
M  V30 8831 H 843.669 -2.11698 0.172557 0
M  V30 8832 H 845.932 -0.947889 0.0145334 0
M  V30 8833 H 845.638 -3.47556 -0.538329 0
M  V30 8834 H 845.512 -3.03971 -2.23342 0
M  V30 8835 H 847.899 -2.05457 -2.11829 0
M  V30 8836 H 847.98 -2.52423 -0.414274 0
M  V30 8837 H 847.624 -4.96025 -1.09187 0
M  V30 8838 H 847.554 -4.45977 -2.80021 0
M  V30 8839 H 850.045 -3.39674 -1.65621 0
M  V30 8840 H 850.358 -7.19754 -2.81378 0
M  V30 8841 H 848.703 -6.47041 -2.53698 0
M  V30 8842 H 851.894 -4.24374 -1.97546 0
M  V30 8843 H 852.067 -5.97685 -2.50353 0
M  V30 8844 N 845.473 0.80434 -1.35529 0
M  V30 8845 C 846.698 1.598 -1.32207 0
M  V30 8846 C 847.123 1.87848 0.0974226 0
M  V30 8847 O 846.481 1.46728 1.06492 0
M  V30 8848 C 846.529 2.90483 -2.13663 0
M  V30 8849 O 845.633 3.83411 -1.51888 0
M  V30 8850 H 844.974 0.485305 -0.453183 0
M  V30 8851 H 847.504 0.998119 -1.78602 0
M  V30 8852 H 847.514 3.39888 -2.257 0
M  V30 8853 H 846.189 2.69395 -3.16859 0
M  V30 8854 H 844.766 3.41967 -1.48704 0
M  V30 8855 N 846.951 1.19563 1.02676 0
M  V30 8856 C 848.181 1.0234 1.79472 0
M  V30 8857 C 848.589 -0.430891 1.84228 0
M  V30 8858 O 847.932 -1.31106 1.28674 0
M  V30 8859 C 847.994 1.51901 3.25832 0
M  V30 8860 C 847.658 3.00045 3.44706 0
M  V30 8861 C 848.655 3.9779 3.34752 0
M  V30 8862 C 846.34 3.38784 3.70851 0
M  V30 8863 C 848.334 5.32267 3.50672 0
M  V30 8864 C 846.021 4.73419 3.86416 0
M  V30 8865 C 847.019 5.69969 3.7633 0
M  V30 8866 O 846.707 7.02165 3.91432 0
M  V30 8867 H 846.439 0.360936 0.571578 0
M  V30 8868 H 848.993 1.58863 1.30198 0
M  V30 8869 H 847.223 0.897546 3.7614 0
M  V30 8870 H 848.912 1.30853 3.84229 0
M  V30 8871 H 849.678 3.69207 3.14502 0
M  V30 8872 H 845.557 2.64183 3.77794 0
M  V30 8873 H 849.101 6.07612 3.42715 0
M  V30 8874 H 844.998 5.01697 4.06165 0
M  V30 8875 H 845.766 7.09268 4.08511 0
M  V30 8876 N 848.429 -1.21819 0.999893 0
M  V30 8877 C 849.676 -1.90752 0.679694 0
M  V30 8878 C 850.004 -1.77777 -0.789014 0
M  V30 8879 O 849.259 -1.14518 -1.58695 0
M  V30 8880 C 849.558 -3.4193 1.04012 0
M  V30 8881 C 849.224 -3.75098 2.50225 0
M  V30 8882 C 847.886 -3.83861 2.90179 0
M  V30 8883 C 850.238 -3.90706 3.44961 0
M  V30 8884 C 847.566 -4.05676 4.23844 0
M  V30 8885 C 849.918 -4.14027 4.78294 0
M  V30 8886 C 848.582 -4.21016 5.17979 0
M  V30 8887 H 847.852 -0.698012 0.248718 0
M  V30 8888 H 850.499 -1.44437 1.25738 0
M  V30 8889 H 848.804 -3.89947 0.380606 0
M  V30 8890 H 850.501 -3.93532 0.770301 0
M  V30 8891 H 847.091 -3.68865 2.18258 0
M  V30 8892 H 851.275 -3.83307 3.15261 0
M  V30 8893 H 846.531 -4.09316 4.5417 0
M  V30 8894 H 850.705 -4.25046 5.51642 0
M  V30 8895 H 848.332 -4.37672 6.21568 0
M  V30 8896 N 849.908 -0.773975 -1.37286 0
M  V30 8897 C 851.156 -0.338636 -1.99243 0
M  V30 8898 C 851.477 1.08919 -1.61746 0
M  V30 8899 O 850.747 1.74822 -0.88397 0
M  V30 8900 H 849.327 -0.12222 -0.736934 0
M  V30 8901 H 851.989 -0.992595 -1.67731 0
M  V30 8902 H 851.085 -0.418055 -3.09287 0
M  V30 8903 N 851.386 1.48609 -0.524698 0
M  V30 8904 C 852.334 2.31205 0.254398 0
M  V30 8905 C 853.328 1.40894 0.940491 0
M  V30 8906 O 854.534 1.57827 0.865478 0
M  V30 8907 H 850.909 0.745199 0.100907 0
M  V30 8908 H 852.88 2.94804 -0.461876 0
M  V30 8909 C 851.629 3.2282 1.2916 0
M  V30 8910 H 850.952 3.92255 0.773074 0
M  V30 8911 H 852.392 3.83508 1.80825 0
M  V30 8912 C 850.851 2.4406 2.32242 0
M  V30 8913 O 851.381 2.16163 3.3858 0
M  V30 8914 N 849.587 2.05651 2.05319 0
M  V30 8915 H 849.134 2.28539 1.18861 0
M  V30 8916 H 849.092 1.53265 2.74513 0
M  V30 8917 N 852.864 0.259585 1.55447 0
M  V30 8918 C 853.797 -0.675542 2.17972 0
M  V30 8919 C 854.775 -1.16362 1.13572 0
M  V30 8920 O 855.959 -1.23944 1.42021 0
M  V30 8921 C 853.086 -1.91952 2.79056 0
M  V30 8922 C 852.132 -1.56824 3.96621 0
M  V30 8923 S 852.965 -0.659846 5.31419 0
M  V30 8924 C 854.121 -1.91255 5.95963 0
M  V30 8925 H 854.354 -0.144236 2.9695 0
M  V30 8926 H 851.887 0.0439448 1.54337 0
M  V30 8927 H 853.845 -2.63362 3.14882 0
M  V30 8928 H 852.506 -2.42196 2 0
M  V30 8929 H 851.699 -2.49348 4.37997 0
M  V30 8930 H 851.301 -0.934472 3.62138 0
M  V30 8931 H 853.593 -2.85834 6.14252 0
M  V30 8932 H 854.536 -1.54207 6.91105 0
M  V30 8933 H 854.944 -2.07042 5.25161 0
M  V30 8934 N 854.342 -1.57594 -0.0133615 0
M  V30 8935 C 855.59 -1.89605 -0.699596 0
M  V30 8936 C 855.911 -0.85926 -1.75048 0
M  V30 8937 O 855.181 0.105112 -1.95618 0
M  V30 8938 H 853.761 -0.699776 -0.261385 0
M  V30 8939 H 856.423 -1.94885 0.0244044 0
M  V30 8940 H 855.519 -2.88962 -1.17928 0
M  V30 8941 N 855.82 0.285905 -1.54985 0
M  V30 8942 C 857.231 0.857869 -1.65824 0
M  V30 8943 C 857.582 1.87531 -0.576763 0
M  V30 8944 O 856.707 2.14528 0.284016 0
M  V30 8945 C 857.302 1.56277 -3.00604 0
M  V30 8946 C 855.861 2.08294 -3.13513 0
M  V30 8947 C 855.008 0.920633 -2.61571 0
M  V30 8948 H 857.959 0.0625463 -1.58577 0
M  V30 8949 H 857.98 2.42912 -2.92872 0
M  V30 8950 H 857.492 0.822017 -3.79295 0
M  V30 8951 H 855.593 2.8537 -2.39572 0
M  V30 8952 H 855.706 2.3071 -4.19892 0
M  V30 8953 H 854.07 1.31043 -2.18403 0
M  V30 8954 H 854.853 0.193594 -3.42754 0
M  V30 8955 N 857.298 1.47698 0.54982 0
M  V30 8956 C 858.23 1.56806 1.67166 0
M  V30 8957 C 859.243 0.453709 1.5635 0
M  V30 8958 O 860.432 0.723663 1.63173 0
M  V30 8959 C 857.532 1.4632 3.05686 0
M  V30 8960 C 856.705 2.72452 3.42182 0
M  V30 8961 C 855.764 2.55698 4.59897 0
M  V30 8962 O 854.79 3.29534 4.64108 0
M  V30 8963 N 855.992 1.64009 5.56849 0
M  V30 8964 H 858.757 2.53545 1.59797 0
M  V30 8965 H 856.318 1.44171 0.736635 0
M  V30 8966 H 858.31 1.32835 3.82279 0
M  V30 8967 H 856.88 0.57634 3.07241 0
M  V30 8968 H 856.1 3.00644 2.54964 0
M  V30 8969 H 857.388 3.56172 3.63344 0
M  V30 8970 H 856.786 1.03186 5.5621 0
M  V30 8971 H 855.343 1.56473 6.3274 0
M  V30 8972 N 858.776 -0.797141 1.35954 0
M  V30 8973 C 860.006 -1.5835 1.32698 0
M  V30 8974 C 860.414 -1.88959 -0.0955298 0
M  V30 8975 O 859.757 -1.49987 -1.06064 0
M  V30 8976 C 859.819 -2.93529 2.0756 0
M  V30 8977 C 859.483 -2.85688 3.56695 0
M  V30 8978 C 860.48 -2.58467 4.51099 0
M  V30 8979 C 858.165 -3.04508 3.99475 0
M  V30 8980 C 860.159 -2.50157 5.8626 0
M  V30 8981 C 857.846 -2.9582 5.34728 0
M  V30 8982 C 858.844 -2.68681 6.27933 0
M  V30 8983 O 858.532 -2.59973 7.60703 0
M  V30 8984 H 858.264 -0.49807 0.457059 0
M  V30 8985 H 860.818 -0.997889 1.79531 0
M  V30 8986 H 859.048 -3.54111 1.55378 0
M  V30 8987 H 860.737 -3.54744 1.9726 0
M  V30 8988 H 861.503 -2.43638 4.19363 0
M  V30 8989 H 857.382 -3.24641 3.27306 0
M  V30 8990 H 860.926 -2.28894 6.58979 0
M  V30 8991 H 856.823 -3.10211 5.66074 0
M  V30 8992 H 857.591 -2.75511 7.70737 0
M  V30 8993 N 860.254 -1.20106 -1.0204 0
M  V30 8994 C 861.5 -1.01039 -1.75838 0
M  V30 8995 C 861.833 0.456819 -1.88751 0
M  V30 8996 O 861.108 1.33919 -1.41053 0
M  V30 8997 C 861.391 -1.69009 -3.17975 0
M  V30 8998 C 861.244 -3.2315 -3.1288 0
M  V30 8999 C 862.563 -1.42005 -4.16561 0
M  V30 9000 H 859.682 -0.368465 -0.638281 0
M  V30 9001 H 862.324 -1.48066 -1.19064 0
M  V30 9002 H 860.474 -1.29026 -3.66449 0
M  V30 9003 H 862.146 -3.72402 -2.72239 0
M  V30 9004 H 860.389 -3.54253 -2.50374 0
M  V30 9005 H 861.06 -3.65862 -4.13339 0
M  V30 9006 H 863.536 -1.76685 -3.76725 0
M  V30 9007 H 862.412 -1.92101 -5.14187 0
M  V30 9008 H 862.673 -0.346884 -4.40737 0
M  V30 9009 N 861.732 1.21287 -1.00634 0
M  V30 9010 C 862.96 1.94385 -0.708678 0
M  V30 9011 C 863.375 1.7416 0.728957 0
M  V30 9012 O 862.732 1.04906 1.49335 0
M  V30 9013 C 862.783 3.46755 -1.02193 0
M  V30 9014 O 862.504 3.6631 -2.40309 0
M  V30 9015 C 864.005 4.37014 -0.743867 0
M  V30 9016 H 861.225 0.618136 -0.261052 0
M  V30 9017 H 863.769 1.54067 -1.34475 0
M  V30 9018 H 861.924 3.8499 -0.431441 0
M  V30 9019 H 862.338 4.60393 -2.51274 0
M  V30 9020 H 863.812 5.42621 -1.01321 0
M  V30 9021 H 864.289 4.38017 0.322084 0
M  V30 9022 H 864.895 4.04426 -1.31603 0
M  V30 9023 N 863.21 0.781244 1.36873 0
M  V30 9024 C 864.438 0.361566 2.03716 0
M  V30 9025 C 864.853 -1.01937 1.58916 0
M  V30 9026 O 864.21 -1.65237 0.774783 0
M  V30 9027 C 864.261 0.406391 3.59208 0
M  V30 9028 O 863.982 1.73286 4.02372 0
M  V30 9029 C 865.483 -0.0236894 4.43294 0
M  V30 9030 H 862.703 0.150133 0.653988 0
M  V30 9031 H 865.247 1.05781 1.75016 0
M  V30 9032 H 863.402 -0.241364 3.86647 0
M  V30 9033 H 863.816 1.67804 4.96933 0
M  V30 9034 H 865.29 0.0588205 5.51969 0
M  V30 9035 H 865.767 -1.07529 4.25833 0
M  V30 9036 H 866.373 0.59624 4.211 0
M  V30 9037 N 864.689 -1.48329 0.532571 0
M  V30 9038 C 865.919 -2.066 0.00353785 0
M  V30 9039 C 866.327 -1.38913 -1.28451 0
M  V30 9040 O 865.67 -0.471385 -1.77549 0
M  V30 9041 C 865.732 -3.58342 -0.288324 0
M  V30 9042 C 865.396 -4.47917 0.906631 0
M  V30 9043 C 866.393 -4.87534 1.80572 0
M  V30 9044 C 864.078 -4.89783 1.11436 0
M  V30 9045 C 866.072 -5.6779 2.89642 0
M  V30 9046 C 863.759 -5.69809 2.20819 0
M  V30 9047 C 864.757 -6.08721 3.09755 0
M  V30 9048 O 864.445 -6.8714 4.17246 0
M  V30 9049 H 864.177 -0.675263 0.0315661 0
M  V30 9050 H 866.731 -1.91669 0.738375 0
M  V30 9051 H 864.961 -3.71395 -1.07717 0
M  V30 9052 H 866.65 -3.98726 -0.759752 0
M  V30 9053 H 867.416 -4.5581 1.65719 0
M  V30 9054 H 863.295 -4.58977 0.431382 0
M  V30 9055 H 866.839 -5.98082 3.59087 0
M  V30 9056 H 862.736 -6.00947 2.35655 0
M  V30 9057 H 863.504 -7.05498 4.14988 0
M  V30 9058 N 866.167 -0.267825 -1.55308 0
M  V30 9059 C 867.13 0.60965 -2.20943 0
M  V30 9060 C 868.13 1.0869 -1.18504 0
M  V30 9061 O 869.32 0.988248 -1.43455 0
M  V30 9062 C 866.452 1.84027 -2.86961 0
M  V30 9063 H 867.645 0.0366806 -2.99878 0
M  V30 9064 H 865.198 -0.0183941 -1.56289 0
M  V30 9065 H 865.933 2.45394 -2.1202 0
M  V30 9066 H 865.718 1.50605 -3.62023 0
M  V30 9067 H 867.208 2.46442 -3.37129 0
M  V30 9068 O 867.684 1.6095 -0.133191 0
M  V30 9069 H 868.375 1.88082 0.463129 0
M  V30 END ATOM
M  V30 BEGIN BOND
M  V30 END BOND
M  V30 END CTAB
M  END
$$$$
