drugbank_target|P80365 Corticosteroid 11-beta-dehydrogenase isozyme 2 (DB00157; DB01185; DB01569; DB14538; DB14539; DB14540; DB14541; DB14542; DB14543; DB14544)
 OpenBabel12092119243D

  0  0  0     0  0            999 V3000
M  V30 BEGIN CTAB
M  V30 COUNTS 6303 6379 0 0 0
M  V30 BEGIN ATOM
M  V30 1 H -0.908 1.98254 -0.117106 0
M  V30 2 N 0 1.576 0 0
M  V30 3 C 0.933 2.03868 1.02534 0
M  V30 4 C 1.911 0.928543 1.3348 0
M  V30 5 O 3.095 1.19667 1.45644 0
M  V30 6 C 0.222 2.43627 2.35294 0
M  V30 7 C -0.732 3.65373 2.2001 0
M  V30 8 S 0.101 5.13292 1.52614 0
M  V30 9 C 1.257 5.56322 2.86805 0
M  V30 10 H 1.49 2.90518 0.631377 0
M  V30 11 H -0.977 1.52953 0.210867 0
M  V30 12 H 0.981 2.67203 3.11629 0
M  V30 13 H -0.358 1.57376 2.7183 0
M  V30 14 H -1.165 3.90944 3.18086 0
M  V30 15 H -1.563 3.418 1.51819 0
M  V30 16 H 0.729 5.58782 3.83104 0
M  V30 17 H 1.672 6.56266 2.65933 0
M  V30 18 H 2.08 4.83886 2.90714 0
M  V30 19 N 1.4781 -0.272755 1.55222 0
M  V30 20 C 2.3881 -1.35918 1.91216 0
M  V30 21 C 3.4041 -1.54026 0.809436 0
M  V30 22 O 4.5801 -1.68148 1.10852 0
M  V30 23 C 1.6451 -2.69834 2.17693 0
M  V30 24 C 0.7061 -2.6047 3.41253 0
M  V30 25 C -0.0609 -3.88 3.66458 0
M  V30 26 O 0.1621 -4.88693 2.94169 0
M  V30 27 O -0.9039 -3.88189 4.59992 0
M  V30 28 H 2.9221 -1.0839 2.83699 0
M  V30 29 H 0.5071 -0.471301 1.41771 0
M  V30 30 H 2.3891 -3.49017 2.36147 0
M  V30 31 H 1.0641 -2.97148 1.28392 0
M  V30 32 H -0.0289 -1.79663 3.28134 0
M  V30 33 H 1.3041 -2.38106 4.30774 0
M  V30 34 N 2.9562 -1.48159 -0.537278 0
M  V30 35 C 4.3722 -1.34118 -0.865129 0
M  V30 36 C 4.5722 -0.346678 -1.98495 0
M  V30 37 O 3.6282 0.234715 -2.51407 0
M  V30 38 C 4.9412 -2.73963 -1.23954 0
M  V30 39 C 6.4892 -2.82397 -1.34984 0
M  V30 40 C 6.9642 -4.22928 -1.75772 0
M  V30 41 N 8.4552 -4.25566 -1.82887 0
M  V30 42 C 9.1902 -5.31235 -2.15817 0
M  V30 43 N 8.6862 -6.47189 -2.47222 0
M  V30 44 N 10.4792 -5.18624 -2.16761 0
M  V30 45 H 2.6302 -2.1144 0.201715 0
M  V30 46 H 4.8932 -0.947598 0.0275949 0
M  V30 47 H 4.5992 -3.48264 -0.490381 0
M  V30 48 H 4.4732 -3.0702 -2.19132 0
M  V30 49 H 6.8602 -2.08356 -2.08978 0
M  V30 50 H 6.9412 -2.5297 -0.379448 0
M  V30 51 H 6.5852 -4.97482 -1.02341 0
M  V30 52 H 6.5152 -4.49794 -2.73848 0
M  V30 53 H 9.0062 -3.41924 -1.60924 0
M  V30 54 H 9.3192 -7.23564 -2.71433 0
M  V30 55 H 7.6642 -6.50476 -2.44757 0
M  V30 56 H 10.8552 -4.27056 -1.91679 0
M  V30 57 H 11.0282 -6.01078 -2.42093 0
M  V30 58 N 4.4343 0.785586 -1.36625 0
M  V30 59 C 5.6803 1.5452 -1.32269 0
M  V30 60 C 6.0353 1.92159 0.0962266 0
M  V30 61 O 5.3283 1.60158 1.05167 0
M  V30 62 C 5.5223 2.83007 -2.1827 0
M  V30 63 C 5.3513 2.57925 -3.68382 0
M  V30 64 C 4.1213 2.52752 -4.37544 0
M  V30 65 C 6.3193 2.26861 -4.61561 0
M  V30 66 N 4.3013 2.19608 -5.73276 0
M  V30 67 C 5.6723 2.03738 -5.85569 0
M  V30 68 C 7.7273 2.129 -4.50087 0
M  V30 69 C 6.4303 1.68065 -6.9939 0
M  V30 70 C 8.4563 1.78626 -5.63779 0
M  V30 71 C 7.8183 1.56353 -6.86828 0
M  V30 72 H 3.9173 0.566301 -0.539283 0
M  V30 73 H 6.5013 0.917736 -1.71714 0
M  V30 74 H 4.6723 3.43614 -1.81063 0
M  V30 75 H 6.4043 3.48775 -2.05275 0
M  V30 76 H 3.1593 2.6813 -3.90389 0
M  V30 77 H 3.5833 2.05771 -6.44971 0
M  V30 78 H 8.2253 2.28808 -3.55537 0
M  V30 79 H 5.9433 1.50895 -7.93887 0
M  V30 80 H 9.5293 1.68502 -5.56865 0
M  V30 81 H 8.4093 1.30223 -7.73312 0
M  V30 82 N 5.9124 1.20967 1.01018 0
M  V30 83 C 7.3234 1.02319 1.56165 0
M  V30 84 C 7.6744 -0.418546 1.91684 0
M  V30 85 O 6.7994 -1.30096 1.72928 0
M  V30 86 C 7.3944 1.85109 2.8376 0
M  V30 87 C 5.9534 1.70809 3.35412 0
M  V30 88 C 5.1004 1.82643 2.08655 0
M  V30 89 H 8.0514 1.35065 0.833255 0
M  V30 90 H 8.0724 1.35827 3.55431 0
M  V30 91 H 7.5844 2.90035 2.57878 0
M  V30 92 H 5.6854 0.685464 3.66241 0
M  V30 93 H 5.7984 2.52467 4.07182 0
M  V30 94 H 4.1624 1.25896 2.21409 0
M  V30 95 H 4.9454 2.89066 1.85191 0
M  V30 96 N 7.3905 -1.2043 1.01659 0
M  V30 97 C 8.6365 -1.90356 0.716674 0
M  V30 98 C 8.9915 -1.77367 -0.745557 0
M  V30 99 O 8.2845 -1.1471 -1.53467 0
M  V30 100 C 8.4785 -3.40464 1.08714 0
M  V30 101 C 8.3075 -3.6806 2.58384 0
M  V30 102 C 7.0775 -3.86775 3.25167 0
M  V30 103 C 9.2755 -3.70623 3.56572 0
M  V30 104 N 7.2575 -4.01889 4.64067 0
M  V30 105 C 8.6285 -3.91161 4.81034 0
M  V30 106 C 10.6835 -3.53586 3.50544 0
M  V30 107 C 9.3865 -3.96428 6.00198 0
M  V30 108 C 11.4125 -3.60125 4.6911 0
M  V30 109 C 10.7745 -3.81135 5.92381 0
M  V30 110 H 6.8735 -0.716226 0.313918 0
M  V30 111 H 9.4575 -1.44815 1.30141 0
M  V30 112 H 7.6285 -3.84757 0.530745 0
M  V30 113 H 9.3605 -3.97863 0.740763 0
M  V30 114 H 6.1155 -3.85156 2.75594 0
M  V30 115 H 6.5395 -4.13323 5.36184 0
M  V30 116 H 11.1815 -3.36308 2.56235 0
M  V30 117 H 8.8995 -4.12502 6.94887 0
M  V30 118 H 12.4855 -3.4825 4.66062 0
M  V30 119 H 11.3655 -3.86054 6.82592 0
M  V30 120 N 8.8686 -0.792821 -1.36206 0
M  V30 121 C 10.2796 -0.429513 -1.81692 0
M  V30 122 C 10.6306 1.04695 -1.65932 0
M  V30 123 O 9.7556 1.81256 -1.18218 0
M  V30 124 C 10.3506 -0.772831 -3.29868 0
M  V30 125 C 8.9096 -0.462307 -3.7355 0
M  V30 126 C 8.0566 -1.00569 -2.5842 0
M  V30 127 H 11.0076 -0.985672 -1.24379 0
M  V30 128 H 11.0286 -0.0651928 -3.80444 0
M  V30 129 H 10.5406 -1.84747 -3.41307 0
M  V30 130 H 8.6416 0.604158 -3.67669 0
M  V30 131 H 8.7546 -0.985299 -4.68859 0
M  V30 132 H 7.1186 -0.428734 -2.51066 0
M  V30 133 H 7.9016 -2.08616 -2.72643 0
M  V30 134 N 10.3467 1.47872 -0.545128 0
M  V30 135 C 11.5717 2.07391 -0.0190611 0
M  V30 136 C 11.9967 1.39688 1.25971 0
M  V30 137 O 11.3547 0.467816 1.7516 0
M  V30 138 C 11.4027 3.60188 0.172335 0
M  V30 139 O 10.5067 3.9339 1.23766 0
M  V30 140 H 9.8477 0.662411 -0.0459059 0
M  V30 141 H 12.3777 1.90066 -0.757365 0
M  V30 142 H 12.3877 4.06129 0.390305 0
M  V30 143 H 11.0627 4.08865 -0.761725 0
M  V30 144 H 9.6397 3.5921 1.00114 0
M  V30 145 N 11.8248 0.280983 1.55075 0
M  V30 146 C 13.0728 -0.333455 1.9933 0
M  V30 147 C 13.3938 -1.55937 1.17085 0
M  V30 148 O 12.6638 -1.94143 0.261805 0
M  V30 149 H 11.2438 -0.126197 0.736263 0
M  V30 150 H 13.9058 0.387678 1.91005 0
M  V30 151 H 13.0018 -0.619292 3.05894 0
M  V30 152 N 13.3029 -1.57598 0.00835791 0
M  V30 153 C 14.5509 -1.90551 -0.6734 0
M  V30 154 C 14.8719 -0.883301 -1.73847 0
M  V30 155 O 14.1419 0.0781442 -1.95744 0
M  V30 156 H 12.7219 -0.703312 -0.251717 0
M  V30 157 H 15.3839 -1.94833 0.0512592 0
M  V30 158 H 14.4799 -2.9056 -1.13935 0
M  V30 159 N 14.781 0.264519 -1.55364 0
M  V30 160 C 15.744 1.31046 -1.88042 0
M  V30 161 C 16.744 1.41943 -0.755569 0
M  V30 162 O 17.934 1.40947 -1.02369 0
M  V30 163 C 15.066 2.69067 -2.09323 0
M  V30 164 H 16.259 1.03297 -2.81549 0
M  V30 165 H 13.812 0.502989 -1.47986 0
M  V30 166 H 14.547 3.01982 -1.18226 0
M  V30 167 H 14.332 2.62542 -2.91229 0
M  V30 168 H 15.822 3.44623 -2.35848 0
M  V30 169 N 16.2591 1.48442 0.529413 0
M  V30 170 C 17.5051 1.57699 1.28463 0
M  V30 171 C 17.8601 0.247913 1.90796 0
M  V30 172 O 17.1531 -0.749279 1.76342 0
M  V30 173 C 17.3471 2.6523 2.39558 0
M  V30 174 C 17.1761 4.08464 1.88114 0
M  V30 175 C 15.9461 4.75596 1.70693 0
M  V30 176 C 18.1441 4.94613 1.40935 0
M  V30 177 N 16.1261 6.03245 1.13881 0
M  V30 178 C 17.4971 6.12511 0.960734 0
M  V30 179 C 19.5521 4.80833 1.29243 0
M  V30 180 C 18.2551 7.18149 0.406792 0
M  V30 181 C 20.2811 5.86593 0.752487 0
M  V30 182 C 19.6431 7.037 0.313946 0
M  V30 183 H 15.7421 0.631608 0.46108 0
M  V30 184 H 18.3261 1.85325 0.596886 0
M  V30 185 H 16.4971 2.39425 3.05827 0
M  V30 186 H 18.2291 2.64169 3.06589 0
M  V30 187 H 14.9841 4.31938 1.94232 0
M  V30 188 H 15.4081 6.71324 0.874831 0
M  V30 189 H 20.0501 3.90635 1.61754 0
M  V30 190 H 17.7681 8.0807 0.0693671 0
M  V30 191 H 21.3541 5.77985 0.665192 0
M  V30 192 H 20.2341 7.8414 -0.0973632 0
M  V30 193 N 17.7372 -0.778329 1.37039 0
M  V30 194 C 18.6672 -1.90546 1.34962 0
M  V30 195 C 19.6482 -1.68681 0.219274 0
M  V30 196 O 20.8332 -1.89634 0.418624 0
M  V30 197 C 17.9632 -3.27734 1.14925 0
M  V30 198 C 16.9172 -3.64147 2.24902 0
M  V30 199 C 16.2432 -4.99806 1.89996 0
M  V30 200 C 17.5432 -3.71579 3.67051 0
M  V30 201 H 19.2372 -1.92541 2.29277 0
M  V30 202 H 16.7832 -0.924948 1.10366 0
M  V30 203 H 18.7362 -4.06215 1.12104 0
M  V30 204 H 17.4602 -3.26154 0.170631 0
M  V30 205 H 16.1192 -2.8797 2.26868 0
M  V30 206 H 15.7672 -4.94759 0.906796 0
M  V30 207 H 15.4672 -5.25139 2.63634 0
M  V30 208 H 16.9912 -5.80694 1.88749 0
M  V30 209 H 18.4052 -4.40227 3.67251 0
M  V30 210 H 16.8022 -4.08405 4.39688 0
M  V30 211 H 17.8722 -2.72404 4.01154 0
M  V30 212 N 19.2153 -1.21501 -1.00376 0
M  V30 213 C 20.1453 -0.999478 -2.11028 0
M  V30 214 C 21.1263 0.0759671 -1.6993 0
M  V30 215 O 22.3113 -0.0841106 -1.94018 0
M  V30 216 C 19.4413 -0.564709 -3.42678 0
M  V30 217 C 18.3953 -1.58486 -3.97576 0
M  V30 218 C 17.7213 -1.00628 -5.25146 0
M  V30 219 C 19.0213 -2.97204 -4.29496 0
M  V30 220 H 20.7153 -1.92495 -2.29317 0
M  V30 221 H 18.2613 -0.92693 -1.102 0
M  V30 222 H 20.2143 -0.401091 -4.19487 0
M  V30 223 H 18.9383 0.396411 -3.24185 0
M  V30 224 H 17.5973 -1.73606 -3.22888 0
M  V30 225 H 17.2453 -0.0368439 -5.02987 0
M  V30 226 H 16.9453 -1.68771 -5.62841 0
M  V30 227 H 18.4693 -0.854015 -6.04598 0
M  V30 228 H 19.8833 -2.8552 -4.97143 0
M  V30 229 H 18.2803 -3.62372 -4.78338 0
M  V30 230 H 19.3503 -3.47956 -3.3772 0
M  V30 231 N 20.6934 1.19889 -1.02296 0
M  V30 232 C 21.9394 1.89701 -0.717033 0
M  V30 233 C 22.2724 1.7905 0.751989 0
M  V30 234 O 21.5474 1.17891 1.547 0
M  V30 235 C 21.8304 3.40858 -1.16136 0
M  V30 236 C 21.6834 3.60411 -2.69117 0
M  V30 237 C 23.0024 4.33876 -0.737549 0
M  V30 238 H 20.1214 0.688874 -0.261957 0
M  V30 239 H 22.7634 1.41154 -1.27183 0
M  V30 240 H 20.9134 3.82335 -0.689342 0
M  V30 241 H 22.5854 3.28145 -3.2422 0
M  V30 242 H 20.8284 3.03665 -3.0979 0
M  V30 243 H 21.4994 4.66396 -2.95261 0
M  V30 244 H 23.9754 4.00081 -1.14344 0
M  V30 245 H 22.8514 5.38242 -1.0764 0
M  V30 246 H 23.1124 4.40628 0.360436 0
M  V30 247 N 22.1715 0.800033 1.35784 0
M  V30 248 C 23.1345 0.211565 2.28221 0
M  V30 249 C 24.1345 -0.59728 1.49296 0
M  V30 250 O 25.3245 -0.416721 1.69142 0
M  V30 251 C 22.4565 -0.705846 3.33513 0
M  V30 252 H 23.6495 1.02677 2.81776 0
M  V30 253 H 21.2025 0.570211 1.45528 0
M  V30 254 H 21.9375 -1.54498 2.85133 0
M  V30 255 H 21.7225 -0.127655 3.91892 0
M  V30 256 H 23.2125 -1.11211 4.02519 0
M  V30 257 N 23.6496 -1.47581 0.552962 0
M  V30 258 C 24.6126 -2.28439 -0.186605 0
M  V30 259 C 25.6126 -1.36706 -0.84665 0
M  V30 260 O 26.8026 -1.59378 -0.703164 0
M  V30 261 C 23.9346 -3.16264 -1.2724 0
M  V30 262 H 25.1276 -2.95294 0.523609 0
M  V30 263 H 22.6806 -1.532 0.309745 0
M  V30 264 H 23.4156 -2.54091 -2.01514 0
M  V30 265 H 23.2006 -3.83769 -0.803968 0
M  V30 266 H 24.6906 -3.77198 -1.79196 0
M  V30 267 N 25.1277 -0.289203 -1.54924 0
M  V30 268 C 26.5437 0.0645403 -1.59469 0
M  V30 269 C 26.7437 1.53419 -1.30632 0
M  V30 270 O 25.7997 2.2852 -1.074 0
M  V30 271 C 27.1127 -0.32278 -2.98963 0
M  V30 272 C 28.6607 -0.270564 -3.11828 0
M  V30 273 C 29.1357 -0.632532 -4.53611 0
M  V30 274 N 30.6267 -0.584617 -4.59496 0
M  V30 275 C 31.3617 -0.837314 -5.67254 0
M  V30 276 N 30.8577 -1.15536 -6.83098 0
M  V30 277 N 32.6507 -0.765166 -5.56868 0
M  V30 278 H 24.8017 -1.24714 -1.71931 0
M  V30 279 H 27.0647 -0.504809 -0.802416 0
M  V30 280 H 26.7707 -1.34541 -3.24948 0
M  V30 281 H 26.6447 0.32944 -3.75759 0
M  V30 282 H 29.0317 0.742805 -2.85598 0
M  V30 283 H 29.1127 -0.957242 -2.37214 0
M  V30 284 H 28.7567 -1.64365 -4.80569 0
M  V30 285 H 28.6867 0.07609 -5.26545 0
M  V30 286 H 31.1777 -0.349248 -3.76283 0
M  V30 287 H 31.4907 -1.33447 -7.61191 0
M  V30 288 H 29.8357 -1.19328 -6.84679 0
M  V30 289 H 33.0267 -0.516432 -4.65243 0
M  V30 290 H 33.1997 -0.965477 -6.40767 0
M  V30 291 N 26.6058 1.57591 -0.0167156 0
M  V30 292 C 27.5688 2.08393 0.954204 0
M  V30 293 C 28.5688 0.996531 1.26198 0
M  V30 294 O 29.7588 1.25858 1.20438 0
M  V30 295 C 26.8908 2.5394 2.27436 0
M  V30 296 H 28.0838 2.95455 0.514451 0
M  V30 297 H 25.6368 1.54582 0.231089 0
M  V30 298 H 26.3718 1.70171 2.76066 0
M  V30 299 H 26.1568 3.33371 2.06412 0
M  V30 300 H 27.6468 2.93512 2.97053 0
M  V30 301 N 28.0839 -0.256276 1.55502 0
M  V30 302 C 29.0139 -1.32102 1.92539 0
M  V30 303 C 29.9949 -1.50684 0.789194 0
M  V30 304 O 31.1799 -1.63449 1.04872 0
M  V30 305 C 28.3099 -2.67752 2.21192 0
M  V30 306 C 27.2639 -2.63878 3.36975 0
M  V30 307 C 26.5899 -4.03236 3.51147 0
M  V30 308 C 27.8899 -2.21682 4.72921 0
M  V30 309 H 29.5839 -1.01351 2.81724 0
M  V30 310 H 27.1299 -0.486105 1.35547 0
M  V30 311 H 29.0829 -3.42365 2.45691 0
M  V30 312 H 27.8069 -3.0012 1.28824 0
M  V30 313 H 26.4659 -1.91722 3.12471 0
M  V30 314 H 26.1139 -4.32854 2.56216 0
M  V30 315 H 25.8139 -4.01535 4.29003 0
M  V30 316 H 27.3379 -4.79563 3.77957 0
M  V30 317 H 28.7519 -2.86023 4.96854 0
M  V30 318 H 27.1489 -2.3111 5.53812 0
M  V30 319 H 28.2189 -1.16833 4.70615 0
M  V30 320 N 29.562 -1.4872 -0.521534 0
M  V30 321 C 30.492 -1.66771 -1.63431 0
M  V30 322 C 31.473 -0.516499 -1.62069 0
M  V30 323 O 32.658 -0.750013 -1.79132 0
M  V30 324 C 29.788 -1.71515 -3.01993 0
M  V30 325 C 28.742 -2.86222 -3.18216 0
M  V30 326 C 28.068 -2.76061 -4.57924 0
M  V30 327 C 29.368 -4.27419 -3.00184 0
M  V30 328 H 31.062 -2.59932 -1.48579 0
M  V30 329 H 28.608 -1.25089 -0.713358 0
M  V30 330 H 30.561 -1.82731 -3.7972 0
M  V30 331 H 29.285 -0.749393 -3.17886 0
M  V30 332 H 27.944 -2.74575 -2.42908 0
M  V30 333 H 27.592 -1.77437 -4.70665 0
M  V30 334 H 27.292 -3.53037 -4.69722 0
M  V30 335 H 28.816 -2.89256 -5.37739 0
M  V30 336 H 30.23 -4.39855 -3.67697 0
M  V30 337 H 28.627 -5.05458 -3.2347 0
M  V30 338 H 29.697 -4.43293 -1.96518 0
M  V30 339 N 31.0401 0.771051 -1.3745 0
M  V30 340 C 31.9721 1.89352 -1.29146 0
M  V30 341 C 32.9851 1.61477 -0.207124 0
M  V30 342 O 34.1741 1.72382 -0.463324 0
M  V30 343 C 31.2741 3.24596 -0.974195 0
M  V30 344 C 30.4471 3.80111 -2.16413 0
M  V30 345 C 29.5061 4.93832 -1.81703 0
M  V30 346 O 28.5321 5.09382 -2.54006 0
M  V30 347 N 29.7341 5.75483 -0.761573 0
M  V30 348 H 32.4991 1.96991 -2.25864 0
M  V30 349 H 30.0601 0.950191 -1.31084 0
M  V30 350 H 32.0521 3.98193 -0.722828 0
M  V30 351 H 30.6221 3.12454 -0.0955527 0
M  V30 352 H 29.8421 2.98284 -2.57721 0
M  V30 353 H 31.1301 4.13932 -2.95867 0
M  V30 354 H 30.5281 5.65469 -0.161609 0
M  V30 355 H 29.0851 6.49302 -0.570064 0
M  V30 356 N 32.5182 1.22032 0.997298 0
M  V30 357 C 33.4482 1.01065 2.10495 0
M  V30 358 C 34.4292 -0.0669542 1.69968 0
M  V30 359 O 35.6142 0.0943987 1.9397 0
M  V30 360 C 32.7442 0.582874 3.42374 0
M  V30 361 C 31.6982 1.60592 3.96729 0
M  V30 362 C 31.0242 1.03412 5.24605 0
M  V30 363 C 32.3242 2.99478 4.27914 0
M  V30 364 H 34.0182 1.93708 2.28292 0
M  V30 365 H 31.5642 0.932761 1.09707 0
M  V30 366 H 33.5172 0.423332 4.19268 0
M  V30 367 H 32.2412 -0.379213 3.24391 0
M  V30 368 H 30.9002 1.75316 3.21963 0
M  V30 369 H 30.5482 0.063518 5.0296 0
M  V30 370 H 30.2482 1.71754 5.61938 0
M  V30 371 H 31.7722 0.886066 6.04137 0
M  V30 372 H 33.1862 2.88153 4.95622 0
M  V30 373 H 31.5832 3.64903 4.76409 0
M  V30 374 H 32.6532 3.49742 3.3587 0
M  V30 375 N 33.9963 -1.19345 1.0293 0
M  V30 376 C 34.9263 -2.2481 0.631105 0
M  V30 377 C 35.9073 -1.66245 -0.360104 0
M  V30 378 O 37.0923 -1.92677 -0.242726 0
M  V30 379 C 34.2223 -3.47295 -0.0184607 0
M  V30 380 C 33.1763 -4.18536 0.895073 0
M  V30 381 C 32.5023 -5.34586 0.110592 0
M  V30 382 C 33.8023 -4.73287 2.209 0
M  V30 383 H 35.4963 -2.58372 1.51275 0
M  V30 384 H 33.0423 -1.24194 0.728818 0
M  V30 385 H 34.9953 -4.20268 -0.308675 0
M  V30 386 H 33.7193 -3.12933 -0.934907 0
M  V30 387 H 32.3783 -3.47446 1.16949 0
M  V30 388 H 32.0263 -4.96469 -0.807902 0
M  V30 389 H 31.7263 -5.83183 0.719087 0
M  V30 390 H 33.2503 -6.10355 -0.172871 0
M  V30 391 H 34.6643 -5.38013 1.98028 0
M  V30 392 H 33.0613 -5.32373 2.76946 0
M  V30 393 H 34.1313 -3.91331 2.86336 0
M  V30 394 N 35.4744 -0.807222 -1.35358 0
M  V30 395 C 36.8904 -0.491038 -1.51858 0
M  V30 396 C 37.0904 0.987648 -1.75635 0
M  V30 397 O 36.1464 1.77265 -1.79815 0
M  V30 398 C 37.4594 -1.33695 -2.69344 0
M  V30 399 C 39.0074 -1.33246 -2.83222 0
M  V30 400 C 39.4824 -2.1625 -4.03733 0
M  V30 401 N 40.9734 -2.1379 -4.10911 0
M  V30 402 C 41.7084 -2.74772 -5.03277 0
M  V30 403 N 41.2044 -3.44684 -6.0097 0
M  V30 404 N 42.9974 -2.6441 -4.96028 0
M  V30 405 H 35.1484 -1.76485 -1.18181 0
M  V30 406 H 37.4114 -0.751199 -0.578276 0
M  V30 407 H 37.1174 -2.38634 -2.58354 0
M  V30 408 H 36.9914 -0.990618 -3.6396 0
M  V30 409 H 39.3784 -0.290911 -2.93663 0
M  V30 410 H 39.4594 -1.71866 -1.89461 0
M  V30 411 H 39.1034 -3.20445 -3.94052 0
M  V30 412 H 39.0334 -1.74989 -4.96675 0
M  V30 413 H 41.5244 -1.62923 -3.40976 0
M  V30 414 H 41.8374 -3.88501 -6.68047 0
M  V30 415 H 40.1824 -3.48788 -6.01142 0
M  V30 416 H 43.3734 -2.0938 -4.18662 0
M  V30 417 H 43.5464 -3.12225 -5.6782 0
M  V30 418 N 36.9525 1.47285 -0.560781 0
M  V30 419 C 38.1775 2.07359 -0.0410566 0
M  V30 420 C 38.6025 1.41017 1.24483 0
M  V30 421 O 37.9605 0.486368 1.74654 0
M  V30 422 C 38.0085 3.6035 0.134123 0
M  V30 423 O 37.1125 3.94681 1.19587 0
M  V30 424 H 36.4535 0.661887 -0.0529291 0
M  V30 425 H 38.9835 1.89252 -0.777482 0
M  V30 426 H 38.9935 4.0652 0.347207 0
M  V30 427 H 37.6685 4.08034 -0.805047 0
M  V30 428 H 36.2455 3.60251 0.962987 0
M  V30 429 N 38.4306 0.297415 1.54768 0
M  V30 430 C 39.7076 -0.365847 1.92148 0
M  V30 431 C 40.0876 -1.71975 1.22424 0
M  V30 432 O 39.4356 -2.25666 0.358739 0
M  V30 433 C 39.6456 -0.484056 3.45627 0
M  V30 434 C 40.9936 -0.756594 4.17805 0
M  V30 435 O 42.0176 -0.568007 3.51642 0
M  V30 436 O 40.8766 -1.11863 5.34929 0
M  V30 437 H 37.9706 -0.203919 0.801465 0
M  V30 438 H 40.5166 0.34521 1.66152 0
M  V30 439 H 39.2886 0.467865 3.88493 0
M  V30 440 H 38.9116 -1.24372 3.77647 0
M  V30 441 N 39.9087 -1.5758 0.0250728 0
M  V30 442 C 40.8387 -2.13007 -0.956575 0
M  V30 443 C 41.8197 -1.0452 -1.342 0
M  V30 444 O 43.0047 -1.32332 -1.42133 0
M  V30 445 C 40.1347 -2.65386 -2.24026 0
M  V30 446 C 39.0887 -3.78623 -1.99571 0
M  V30 447 C 38.4147 -4.17414 -3.3417 0
M  V30 448 C 39.7147 -5.04867 -1.33814 0
M  V30 449 H 41.4087 -2.9528 -0.494991 0
M  V30 450 H 38.9547 -1.42042 -0.236651 0
M  V30 451 H 40.9077 -3.02794 -2.93076 0
M  V30 452 H 39.6317 -1.80268 -2.72343 0
M  V30 453 H 38.2907 -3.41646 -1.32941 0
M  V30 454 H 37.9387 -3.29284 -3.80238 0
M  V30 455 H 37.6387 -4.93719 -3.18615 0
M  V30 456 H 39.1627 -4.57402 -4.04495 0
M  V30 457 H 40.5767 -5.39888 -1.92857 0
M  V30 458 H 38.9737 -5.86144 -1.28669 0
M  V30 459 H 40.0437 -4.83904 -0.310561 0
M  V30 460 N 41.3868 0.248026 -1.55636 0
M  V30 461 C 42.8028 0.596483 -1.48035 0
M  V30 462 C 43.0028 1.88386 -0.715039 0
M  V30 463 O 42.0588 2.51319 -0.243944 0
M  V30 464 C 43.3718 0.700258 -2.92433 0
M  V30 465 C 44.9198 0.792659 -3.02797 0
M  V30 466 C 45.3948 0.928005 -4.485 0
M  V30 467 N 46.8858 0.992903 -4.52433 0
M  V30 468 C 47.6208 1.11687 -5.62418 0
M  V30 469 N 47.1168 1.20645 -6.82214 0
M  V30 470 N 48.9098 1.14994 -5.50212 0
M  V30 471 H 41.0608 -0.597109 -2.03834 0
M  V30 472 H 43.3238 -0.205925 -0.925364 0
M  V30 473 H 43.0298 -0.175658 -3.51261 0
M  V30 474 H 42.9038 1.57255 -3.42857 0
M  V30 475 H 45.2908 1.65903 -2.4405 0
M  V30 476 H 45.3718 -0.104762 -2.55585 0
M  V30 477 H 45.0158 0.0661971 -5.07857 0
M  V30 478 H 44.9458 1.84045 -4.93391 0
M  V30 479 H 47.4368 0.935064 -3.66149 0
M  V30 480 H 47.7498 1.30008 -7.61786 0
M  V30 481 H 46.0948 1.17605 -6.84977 0
M  V30 482 H 49.2858 1.07643 -4.55555 0
M  V30 483 H 49.4588 1.24311 -6.35965 0
M  V30 484 N 42.8649 1.48995 0.513639 0
M  V30 485 C 43.7949 1.67636 1.62544 0
M  V30 486 C 44.7759 0.525087 1.61793 0
M  V30 487 O 45.9609 0.759502 1.78732 0
M  V30 488 C 43.0909 1.73114 3.01079 0
M  V30 489 C 42.0449 2.87905 3.16693 0
M  V30 490 C 41.3709 2.78486 4.56453 0
M  V30 491 C 42.6709 4.29005 2.97913 0
M  V30 492 H 44.3649 2.60716 1.47198 0
M  V30 493 H 41.9109 1.25465 0.706714 0
M  V30 494 H 43.8639 1.84742 3.78746 0
M  V30 495 H 42.5879 0.766241 3.17484 0
M  V30 496 H 41.2469 2.75859 2.41448 0
M  V30 497 H 40.8949 1.7993 4.69717 0
M  V30 498 H 40.5949 3.55523 4.67843 0
M  V30 499 H 42.1189 2.92104 5.36197 0
M  V30 500 H 43.5329 4.41798 3.65359 0
M  V30 501 H 41.9299 5.07166 3.20785 0
M  V30 502 H 42.9999 4.44329 1.94165 0
M  V30 503 N 44.343 -0.763751 1.37857 0
M  V30 504 C 45.591 -1.51957 1.33243 0
M  V30 505 C 45.912 -1.94835 -0.0801709 0
M  V30 506 O 45.182 -1.66894 -1.02582 0
M  V30 507 H 43.762 -0.563626 0.49024 0
M  V30 508 H 46.424 -0.908504 1.7243 0
M  V30 509 H 45.52 -2.41523 1.97669 0
M  V30 510 N 45.8211 -1.22559 -0.990812 0
M  V30 511 C 47.2371 -0.985996 -1.255 0
M  V30 512 C 47.4371 0.319173 -1.98956 0
M  V30 513 O 46.4931 1.04127 -2.3003 0
M  V30 514 C 47.8061 -2.18607 -2.06474 0
M  V30 515 C 49.3541 -2.22985 -2.19651 0
M  V30 516 C 49.8291 -3.4255 -3.04012 0
M  V30 517 N 51.3201 -3.42725 -3.11599 0
M  V30 518 C 52.0551 -4.31892 -3.7717 0
M  V30 519 N 51.5511 -5.31279 -4.44651 0
M  V30 520 N 53.3441 -4.19662 -3.73952 0
M  V30 521 H 45.4951 -2.06469 -0.49841 0
M  V30 522 H 47.7581 -0.904853 -0.282747 0
M  V30 523 H 47.4641 -3.13267 -1.59865 0
M  V30 524 H 47.3381 -2.18838 -3.07229 0
M  V30 525 H 49.7251 -1.28871 -2.65474 0
M  V30 526 H 49.8061 -2.26791 -1.18319 0
M  V30 527 H 49.4501 -4.36965 -2.58889 0
M  V30 528 H 49.3801 -3.35984 -4.0549 0
M  V30 529 H 51.8711 -2.70807 -2.63575 0
M  V30 530 H 52.1841 -5.95593 -4.92431 0
M  V30 531 H 50.5291 -5.3519 -4.43392 0
M  V30 532 H 53.7201 -3.41268 -3.20396 0
M  V30 533 H 53.8931 -4.89358 -4.24774 0
M  V30 534 N 47.2992 1.18797 -1.03562 0
M  V30 535 C 48.7102 1.70322 -0.764676 0
M  V30 536 C 49.0612 1.82708 0.714996 0
M  V30 537 O 48.1862 1.50299 1.55689 0
M  V30 538 C 48.7812 3.09356 -1.38145 0
M  V30 539 C 47.3402 3.58114 -1.15895 0
M  V30 540 C 46.4872 2.34798 -1.4753 0
M  V30 541 H 49.4382 1.03543 -1.20268 0
M  V30 542 H 49.4592 3.72378 -0.781977 0
M  V30 543 H 48.9712 3.00309 -2.45837 0
M  V30 544 H 47.0722 3.72464 -0.100544 0
M  V30 545 H 47.1852 4.4184 -1.8524 0
M  V30 546 H 45.5492 2.38464 -0.894829 0
M  V30 547 H 46.3322 2.28375 -2.56319 0
M  V30 548 N 48.7773 0.814389 1.34928 0
M  V30 549 C 49.7073 0.244827 2.32213 0
M  V30 550 C 50.6883 -0.634024 1.57842 0
M  V30 551 O 51.8733 -0.562676 1.8587 0
M  V30 552 C 49.0033 -0.601106 3.42058 0
M  V30 553 C 47.9573 0.179896 4.27622 0
M  V30 554 C 47.2833 -0.788237 5.28858 0
M  V30 555 C 48.5833 1.38329 5.03649 0
M  V30 556 H 50.2773 1.05763 2.80097 0
M  V30 557 H 47.8233 0.510029 1.34665 0
M  V30 558 H 49.7763 -1.00968 4.09125 0
M  V30 559 H 48.5003 -1.44688 2.92802 0
M  V30 560 H 47.1593 0.569739 3.62146 0
M  V30 561 H 46.8073 -1.62973 4.75866 0
M  V30 562 H 46.5073 -0.269942 5.8698 0
M  V30 563 H 48.0313 -1.19485 5.98795 0
M  V30 564 H 49.4453 1.04918 5.63618 0
M  V30 565 H 47.8423 1.83662 5.71304 0
M  V30 566 H 48.9123 2.16592 4.33839 0
M  V30 567 N 50.2554 -1.46986 0.568584 0
M  V30 568 C 51.1854 -2.32946 -0.160753 0
M  V30 569 C 52.1664 -1.44487 -0.897631 0
M  V30 570 O 53.3514 -1.73327 -0.875867 0
M  V30 571 C 50.4814 -3.26494 -1.18403 0
M  V30 572 C 49.4354 -4.24282 -0.562895 0
M  V30 573 C 48.7614 -5.07236 -1.69163 0
M  V30 574 C 50.0614 -5.19989 0.490761 0
M  V30 575 H 51.7554 -2.94175 0.556916 0
M  V30 576 H 49.3014 -1.4146 0.26927 0
M  V30 577 H 51.2544 -3.85477 -1.70251 0
M  V30 578 H 49.9784 -2.63343 -1.93179 0
M  V30 579 H 48.6374 -3.66541 -0.0656164 0
M  V30 580 H 48.2854 -4.4048 -2.42871 0
M  V30 581 H 47.9854 -5.7345 -1.28174 0
M  V30 582 H 49.5094 -5.6908 -2.21314 0
M  V30 583 H 50.9234 -5.73271 0.0579047 0
M  V30 584 H 49.3204 -5.94469 0.820165 0
M  V30 585 H 50.3904 -4.64777 1.3824 0
M  V30 586 N 51.7335 -0.305618 -1.54608 0
M  V30 587 C 52.6965 0.555591 -2.22364 0
M  V30 588 C 53.6965 1.05768 -1.21119 0
M  V30 589 O 54.8865 0.952972 -1.45822 0
M  V30 590 C 52.0185 1.76974 -2.91364 0
M  V30 591 H 53.2115 -0.0364572 -2.99878 0
M  V30 592 H 50.7645 -0.0565007 -1.56198 0
M  V30 593 H 51.4995 2.40151 -2.17941 0
M  V30 594 H 51.2845 1.41732 -3.65588 0
M  V30 595 H 52.7745 2.38148 -3.43038 0
M  V30 596 N 53.2116 1.57565 -0.0334293 0
M  V30 597 C 54.1746 2.09393 0.932048 0
M  V30 598 C 55.1746 1.00986 1.25134 0
M  V30 599 O 56.3646 1.27129 1.19096 0
M  V30 600 C 53.4966 2.56338 2.2473 0
M  V30 601 H 54.6896 2.95984 0.483085 0
M  V30 602 H 52.2426 1.54819 0.21468 0
M  V30 603 H 52.9776 1.7309 2.74245 0
M  V30 604 H 52.7626 3.35542 2.02865 0
M  V30 605 H 54.2526 2.96646 2.93923 0
M  V30 606 N 54.6897 -0.239769 1.55765 0
M  V30 607 C 55.6197 -1.30052 1.9393 0
M  V30 608 C 56.6007 -1.49839 0.805132 0
M  V30 609 O 57.7857 -1.62328 1.06599 0
M  V30 610 C 54.9157 -2.65391 2.2402 0
M  V30 611 C 53.8697 -2.60289 3.39755 0
M  V30 612 C 53.1957 -3.99489 3.55405 0
M  V30 613 C 54.4957 -2.16654 4.75246 0
M  V30 614 H 56.1897 -0.983573 2.82783 0
M  V30 615 H 53.7357 -0.471701 1.36055 0
M  V30 616 H 55.6887 -3.3974 2.49308 0
M  V30 617 H 54.4127 -2.98736 1.32 0
M  V30 618 H 53.0717 -1.88398 3.14487 0
M  V30 619 H 52.7197 -4.30112 2.60793 0
M  V30 620 H 52.4197 -3.96962 4.33238 0
M  V30 621 H 53.9437 -4.75528 3.83022 0
M  V30 622 H 55.3577 -2.80737 4.99859 0
M  V30 623 H 53.7547 -2.25223 5.56232 0
M  V30 624 H 54.8247 -1.11835 4.71827 0
M  V30 625 N 56.1678 -1.49265 -0.50573 0
M  V30 626 C 57.1308 -1.65075 -1.59006 0
M  V30 627 C 58.1308 -0.522768 -1.52065 0
M  V30 628 O 59.3208 -0.789117 -1.55302 0
M  V30 629 C 56.4528 -1.64369 -2.98656 0
M  V30 630 H 57.6458 -2.61784 -1.46319 0
M  V30 631 H 55.1988 -1.38226 -0.729616 0
M  V30 632 H 55.9338 -0.692272 -3.16825 0
M  V30 633 H 55.7188 -2.46282 -3.05103 0
M  V30 634 H 57.2088 -1.78674 -3.77446 0
M  V30 635 N 57.6459 0.756429 -1.3826 0
M  V30 636 C 58.5759 1.88374 -1.37976 0
M  V30 637 C 59.5569 1.68311 -0.246082 0
M  V30 638 O 60.7419 1.88944 -0.44874 0
M  V30 639 C 57.8719 3.25864 -1.20125 0
M  V30 640 C 56.8259 3.60523 -2.30666 0
M  V30 641 C 56.1519 4.9672 -1.97923 0
M  V30 642 C 57.4519 3.65692 -3.72916 0
M  V30 643 H 59.1459 1.88869 -2.32312 0
M  V30 644 H 56.6919 0.907272 -1.11824 0
M  V30 645 H 58.6449 4.0438 -1.18552 0
M  V30 646 H 57.3689 3.25841 -0.222498 0
M  V30 647 H 56.0279 2.84324 -2.3142 0
M  V30 648 H 55.6759 4.93253 -0.985393 0
M  V30 649 H 55.3759 5.20878 -2.71955 0
M  V30 650 H 56.8999 5.77618 -1.97964 0
M  V30 651 H 58.3139 4.34328 -3.74208 0
M  V30 652 H 56.7109 4.01358 -4.4613 0
M  V30 653 H 57.7809 2.65987 -4.05436 0
M  V30 654 N 59.124 1.23083 0.984299 0
M  V30 655 C 60.054 1.03292 2.09411 0
M  V30 656 C 61.035 -0.048923 1.7003 0
M  V30 657 O 62.22 0.114967 1.93859 0
M  V30 658 C 59.35 0.619155 3.41736 0
M  V30 659 C 58.304 1.64791 3.95004 0
M  V30 660 C 57.63 1.0897 5.23478 0
M  V30 661 C 58.93 3.03999 4.24714 0
M  V30 662 H 60.624 1.96119 2.26225 0
M  V30 663 H 58.17 0.944344 1.08711 0
M  V30 664 H 60.123 0.467777 4.18796 0
M  V30 665 H 58.847 -0.344786 3.24775 0
M  V30 666 H 57.506 1.78721 3.20085 0
M  V30 667 H 57.154 0.11686 5.02864 0
M  V30 668 H 56.854 1.77704 5.60085 0
M  V30 669 H 58.378 0.950093 6.03163 0
M  V30 670 H 59.792 2.93393 4.92538 0
M  V30 671 H 58.189 3.69936 4.72512 0
M  V30 672 H 59.259 3.53285 3.32142 0
M  V30 673 N 60.6021 -1.18246 1.0419 0
M  V30 674 C 61.5651 -2.20128 0.638452 0
M  V30 675 C 62.5651 -1.57885 -0.304805 0
M  V30 676 O 63.7551 -1.73967 -0.0900369 0
M  V30 677 C 60.8871 -3.4084 -0.0637751 0
M  V30 678 H 62.0801 -2.57336 1.54007 0
M  V30 679 H 59.6331 -1.32152 0.834598 0
M  V30 680 H 60.3681 -3.09166 -0.979136 0
M  V30 681 H 60.1531 -3.8726 0.614198 0
M  V30 682 H 61.6431 -4.16274 -0.332512 0
M  V30 683 N 62.0802 -0.821533 -1.34494 0
M  V30 684 C 63.0432 -0.247847 -2.27856 0
M  V30 685 C 64.0432 0.573453 -1.50227 0
M  V30 686 O 65.2332 0.389759 -1.69784 0
M  V30 687 C 62.3652 0.652698 -3.34593 0
M  V30 688 H 63.5582 -1.07146 -2.80107 0
M  V30 689 H 61.1112 -0.593291 -1.44602 0
M  V30 690 H 61.8462 1.49943 -2.87555 0
M  V30 691 H 61.6312 0.065292 -3.92046 0
M  V30 692 H 63.1212 1.04793 -4.04238 0
M  V30 693 N 63.5583 1.46682 -0.576371 0
M  V30 694 C 64.4883 2.33028 0.148397 0
M  V30 695 C 65.4693 1.44961 0.889956 0
M  V30 696 O 66.6543 1.73789 0.866662 0
M  V30 697 C 63.7843 3.27117 1.1667 0
M  V30 698 C 62.7383 4.24575 0.540386 0
M  V30 699 C 62.0643 5.08126 1.6647 0
M  V30 700 C 63.3643 5.19722 -0.518331 0
M  V30 701 H 65.0583 2.93875 -0.572509 0
M  V30 702 H 62.6043 1.41315 -0.276768 0
M  V30 703 H 64.5573 3.86374 1.68204 0
M  V30 704 H 63.2813 2.64364 1.9178 0
M  V30 705 H 61.9403 3.66571 0.0461769 0
M  V30 706 H 61.5883 4.41762 2.40531 0
M  V30 707 H 61.2883 5.74122 1.25131 0
M  V30 708 H 62.8123 5.70246 2.18293 0
M  V30 709 H 64.2263 5.73232 -0.0883058 0
M  V30 710 H 62.6233 5.94026 -0.851679 0
M  V30 711 H 63.6933 4.64037 -1.40703 0
M  V30 712 N 65.0364 0.313813 1.54444 0
M  V30 713 C 66.3134 -0.345447 1.92525 0
M  V30 714 C 66.6934 -1.70667 1.24242 0
M  V30 715 O 66.0414 -2.25273 0.382654 0
M  V30 716 C 66.2514 -0.44737 3.46121 0
M  V30 717 C 67.5994 -0.712238 4.18584 0
M  V30 718 O 68.6234 -0.530678 3.52225 0
M  V30 719 O 67.4824 -1.06183 5.36085 0
M  V30 720 H 64.5764 -0.195407 0.803583 0
M  V30 721 H 67.1224 0.362813 1.65776 0
M  V30 722 H 65.8944 0.509043 3.87975 0
M  V30 723 H 65.5174 -1.20359 3.78945 0
M  V30 724 N 66.5145 -1.57545 0.0417849 0
M  V30 725 C 67.7605 -1.93424 -0.629168 0
M  V30 726 C 68.1155 -0.919564 -1.69002 0
M  V30 727 O 67.4085 0.0626178 -1.91498 0
M  V30 728 C 67.6025 -3.33794 -1.27735 0
M  V30 729 C 67.4315 -4.48822 -0.280806 0
M  V30 730 C 66.2015 -5.05148 0.123869 0
M  V30 731 C 68.3995 -5.12148 0.470012 0
M  V30 732 N 66.3815 -6.03703 1.11426 0
M  V30 733 C 67.7525 -6.05921 1.31377 0
M  V30 734 C 69.8075 -4.95078 0.529343 0
M  V30 735 C 68.5105 -6.84459 2.21152 0
M  V30 736 C 70.5365 -5.74235 1.41448 0
M  V30 737 C 69.8985 -6.67634 2.24598 0
M  V30 738 H 65.9975 -0.755418 -0.202158 0
M  V30 739 H 68.5815 -1.94378 0.111923 0
M  V30 740 H 66.7525 -3.33635 -1.98852 0
M  V30 741 H 68.4845 -3.56988 -1.90635 0
M  V30 742 H 65.2395 -4.72923 -0.253178 0
M  V30 743 H 65.6635 -6.57674 1.60607 0
M  V30 744 H 70.3055 -4.22683 -0.0992798 0
M  V30 745 H 68.0235 -7.56151 2.85063 0
M  V30 746 H 71.6095 -5.63057 1.46484 0
M  V30 747 H 70.4895 -7.27817 2.9198 0
M  V30 748 N 67.9926 0.231505 -1.5589 0
M  V30 749 C 68.9226 1.29022 -1.94617 0
M  V30 750 C 69.9036 1.4941 -0.813067 0
M  V30 751 O 71.0886 1.6176 -1.07459 0
M  V30 752 C 68.2186 2.64199 -2.25424 0
M  V30 753 C 67.1726 2.58484 -3.41131 0
M  V30 754 C 66.4986 3.97599 -3.57518 0
M  V30 755 C 67.7986 2.1413 -4.76388 0
M  V30 756 H 69.4926 0.968563 -2.83301 0
M  V30 757 H 67.0386 0.464479 -1.36303 0
M  V30 758 H 68.9916 3.38413 -2.51107 0
M  V30 759 H 67.7156 2.98032 -1.33583 0
M  V30 760 H 66.3746 1.86727 -3.15481 0
M  V30 761 H 66.0226 4.28723 -2.6307 0
M  V30 762 H 65.7226 3.94659 -4.35337 0
M  V30 763 H 67.2466 4.7349 -3.85538 0
M  V30 764 H 68.6606 2.78083 -5.01341 0
M  V30 765 H 67.0576 2.2227 -5.57419 0
M  V30 766 H 68.1276 1.09331 -4.72414 0
M  V30 767 N 69.4707 1.49531 0.497807 0
M  V30 768 C 70.7107 1.60799 1.26187 0
M  V30 769 C 71.0747 0.289627 1.89803 0
M  V30 770 O 72.2757 0.277512 2.67364 0
M  V30 771 C 70.5467 2.73729 2.29798 0
M  V30 772 S 72.1057 3.04968 3.155 0
M  V30 773 H 68.9237 0.567145 0.428798 0
M  V30 774 H 71.5257 1.87204 0.563477 0
M  V30 775 H 70.2297 3.68036 1.81597 0
M  V30 776 H 69.7607 2.49328 3.04301 0
M  V30 777 H 71.7757 2.46735 4.30507 0
M  V30 778 N 70.9488 -0.749086 1.3866 0
M  V30 779 C 71.8808 -1.87273 1.32142 0
M  V30 780 C 72.8938 -1.61127 0.232787 0
M  V30 781 O 74.0828 -1.71623 0.49069 0
M  V30 782 C 71.1828 -3.23005 1.02571 0
M  V30 783 C 70.3558 -3.7662 2.22433 0
M  V30 784 C 69.4148 -4.90879 1.89537 0
M  V30 785 O 68.4408 -5.05276 2.62078 0
M  V30 786 N 69.6428 -5.74198 0.853031 0
M  V30 787 H 72.4078 -1.93373 2.28969 0
M  V30 788 H 69.9688 -0.929216 1.32579 0
M  V30 789 H 71.9608 -3.96992 0.786085 0
M  V30 790 H 70.5308 -3.12262 0.145249 0
M  V30 791 H 69.7508 -2.94147 2.62434 0
M  V30 792 H 71.0388 -4.09173 3.02415 0
M  V30 793 H 70.4368 -5.6514 0.25155 0
M  V30 794 H 68.9938 -6.48313 0.67329 0
M  V30 795 N 72.4269 -1.23603 -0.977757 0
M  V30 796 C 73.8429 -0.999251 -1.24447 0
M  V30 797 C 74.0429 0.298053 -1.99283 0
M  V30 798 O 73.0989 1.01681 -2.31122 0
M  V30 799 C 74.4119 -2.20784 -2.04144 0
M  V30 800 C 75.9599 -2.25303 -2.17273 0
M  V30 801 C 76.4349 -3.45755 -3.00362 0
M  V30 802 N 77.9259 -3.4601 -3.07947 0
M  V30 803 C 78.6609 -4.35868 -3.72568 0
M  V30 804 N 78.1569 -5.35966 -4.38991 0
M  V30 805 N 79.9499 -4.23605 -3.6948 0
M  V30 806 H 72.1009 -2.06986 -0.476483 0
M  V30 807 H 74.3639 -0.907801 -0.273134 0
M  V30 808 H 74.0699 -3.14945 -1.56533 0
M  V30 809 H 73.9439 -2.22085 -3.04891 0
M  V30 810 H 76.3309 -1.3168 -2.64092 0
M  V30 811 H 76.4119 -2.28033 -1.15907 0
M  V30 812 H 76.0559 -4.39687 -2.5424 0
M  V30 813 H 75.9859 -3.40266 -4.01904 0
M  V30 814 H 78.4769 -2.73588 -2.60688 0
M  V30 815 H 78.7899 -6.00783 -4.86086 0
M  V30 816 H 77.1349 -5.39863 -4.37691 0
M  V30 817 H 80.3259 -3.44647 -3.16759 0
M  V30 818 H 80.4989 -4.93836 -4.1956 0
M  V30 819 N 73.905 1.17692 -1.04816 0
M  V30 820 C 74.835 2.23777 -0.666791 0
M  V30 821 C 75.816 1.66796 0.33361 0
M  V30 822 O 77.001 1.93039 0.212042 0
M  V30 823 C 74.131 3.47281 -0.0367933 0
M  V30 824 C 73.085 4.17059 -0.961546 0
M  V30 825 C 72.411 5.34342 -0.195626 0
M  V30 826 C 73.711 4.69713 -2.28402 0
M  V30 827 H 75.405 2.55933 -1.55367 0
M  V30 828 H 72.951 1.23019 -0.748484 0
M  V30 829 H 74.904 4.20706 0.241775 0
M  V30 830 H 73.628 3.14381 0.885004 0
M  V30 831 H 72.287 3.45541 -1.22462 0
M  V30 832 H 71.935 4.97692 0.728816 0
M  V30 833 H 71.635 5.81966 -0.811775 0
M  V30 834 H 73.159 6.10553 0.0757473 0
M  V30 835 H 74.573 5.34794 -2.06563 0
M  V30 836 H 72.97 5.279 -2.8538 0
M  V30 837 H 74.04 3.86726 -2.92525 0
M  V30 838 N 75.3831 0.828654 1.34056 0
M  V30 839 C 76.3131 0.269443 2.3194 0
M  V30 840 C 77.2941 -0.617247 1.58506 0
M  V30 841 O 78.4791 -0.542931 1.86456 0
M  V30 842 C 75.6091 -0.564793 3.42677 0
M  V30 843 C 74.5631 0.225241 4.27407 0
M  V30 844 C 73.8891 -0.7321 5.29664 0
M  V30 845 C 75.1891 1.43663 5.02154 0
M  V30 846 H 76.8831 1.08728 2.7896 0
M  V30 847 H 74.4291 0.524283 1.34117 0
M  V30 848 H 76.3821 -0.966233 4.10173 0
M  V30 849 H 75.1061 -1.41574 2.9432 0
M  V30 850 H 73.7651 0.608117 3.61521 0
M  V30 851 H 73.4131 -1.57916 4.77568 0
M  V30 852 H 73.1131 -0.20767 5.87233 0
M  V30 853 H 74.6371 -1.13128 6.00029 0
M  V30 854 H 76.0511 1.1089 5.62473 0
M  V30 855 H 74.4481 1.89711 5.69324 0
M  V30 856 H 75.5181 2.21181 4.31517 0
M  V30 857 N 76.8612 -1.46375 0.584142 0
M  V30 858 C 78.2722 -1.86031 0.157959 0
M  V30 859 C 78.6232 -1.48753 -1.27933 0
M  V30 860 O 77.7482 -0.903098 -1.96655 0
M  V30 861 C 78.3432 -3.37642 0.279892 0
M  V30 862 C 76.9022 -3.76289 -0.09143 0
M  V30 863 C 76.0492 -2.7039 0.615178 0
M  V30 864 H 79.0002 -1.37509 0.792274 0
M  V30 865 H 79.0212 -3.77275 -0.494364 0
M  V30 866 H 78.5332 -3.64742 1.32607 0
M  V30 867 H 76.6342 -3.54806 -1.13769 0
M  V30 868 H 76.7472 -4.78246 0.285886 0
M  V30 869 H 75.1112 -2.5464 0.0552833 0
M  V30 870 H 75.8942 -3.0033 1.66303 0
M  V30 871 N 78.3393 -0.321999 -1.54275 0
M  V30 872 C 79.7503 0.166384 -1.85957 0
M  V30 873 C 80.1013 1.51747 -1.24367 0
M  V30 874 O 79.2263 2.09317 -0.549124 0
M  V30 875 C 79.8213 0.308681 -3.37391 0
M  V30 876 C 78.3803 0.741286 -3.69028 0
M  V30 877 C 77.5273 -0.137937 -2.76957 0
M  V30 878 H 80.4783 -0.542335 -1.49146 0
M  V30 879 H 80.4993 1.13984 -3.63026 0
M  V30 880 H 80.0113 -0.674809 -3.82188 0
M  V30 881 H 78.1123 1.73458 -3.29762 0
M  V30 882 H 78.2253 0.546118 -4.75977 0
M  V30 883 H 76.5893 0.386251 -2.51754 0
M  V30 884 H 77.3723 -1.11816 -3.2458 0
M  V30 885 N 79.8174 1.5752 -0.0501392 0
M  V30 886 C 81.2284 1.80271 0.485705 0
M  V30 887 C 81.5794 0.96228 1.70981 0
M  V30 888 O 80.7044 0.178578 2.15662 0
M  V30 889 C 81.2994 3.26957 0.887938 0
M  V30 890 C 79.8584 3.5063 1.36877 0
M  V30 891 C 79.0054 2.75165 0.343468 0
M  V30 892 H 81.9564 1.56281 -0.276028 0
M  V30 893 H 81.9774 3.37821 1.75093 0
M  V30 894 H 81.4894 3.881 -0.0031809 0
M  V30 895 H 79.5904 2.94766 2.27911 0
M  V30 896 H 79.7034 4.59343 1.36164 0
M  V30 897 H 78.0674 2.4127 0.816128 0
M  V30 898 H 78.8504 3.39034 -0.539548 0
M  V30 899 N 81.2955 -0.223234 1.56011 0
M  V30 900 C 82.2585 -1.26014 1.9145 0
M  V30 901 C 83.2585 -1.3989 0.792937 0
M  V30 902 O 84.4485 -1.38184 1.0607 0
M  V30 903 C 81.5805 -2.63422 2.16383 0
M  V30 904 H 82.7735 -0.95796 2.84189 0
M  V30 905 H 80.3265 -0.463576 1.49267 0
M  V30 906 H 81.0615 -2.98741 1.2619 0
M  V30 907 H 80.8465 -2.54728 2.98088 0
M  V30 908 H 82.3365 -3.38249 2.44903 0
M  V30 909 N 82.7736 -1.49793 -0.48987 0
M  V30 910 C 83.7366 -1.66752 -1.57246 0
M  V30 911 C 84.7366 -0.538867 -1.51502 0
M  V30 912 O 85.9266 -0.805545 -1.54456 0
M  V30 913 C 83.0586 -1.67528 -2.96896 0
M  V30 914 H 84.2516 -2.63321 -1.43534 0
M  V30 915 H 81.8046 -1.38992 -0.714914 0
M  V30 916 H 82.5396 -0.725837 -3.16073 0
M  V30 917 H 82.3246 -2.49504 -3.02473 0
M  V30 918 H 83.8146 -1.82667 -3.7553 0
M  V30 919 N 84.2517 0.741722 -1.39055 0
M  V30 920 C 85.1817 1.869 -1.39966 0
M  V30 921 C 86.1627 1.6804 -0.26392 0
M  V30 922 O 87.3477 1.88458 -0.468755 0
M  V30 923 C 84.4777 3.24572 -1.23574 0
M  V30 924 C 83.4317 3.58056 -2.34477 0
M  V30 925 C 82.7577 4.94593 -2.0318 0
M  V30 926 C 84.0577 3.61716 -3.76774 0
M  V30 927 H 85.7517 1.86395 -2.34302 0
M  V30 928 H 83.2977 0.895361 -1.1278 0
M  V30 929 H 85.2507 4.031 -1.22834 0
M  V30 930 H 83.9747 3.25587 -0.257045 0
M  V30 931 H 82.6337 2.81854 -2.34423 0
M  V30 932 H 82.2817 4.92181 -1.03765 0
M  V30 933 H 81.9817 5.17964 -2.77465 0
M  V30 934 H 83.5057 5.75486 -2.04079 0
M  V30 935 H 84.9197 4.30335 -3.78794 0
M  V30 936 H 83.3167 3.96603 -4.50362 0
M  V30 937 H 84.3867 2.61672 -4.08235 0
M  V30 938 N 85.7298 1.2412 0.971189 0
M  V30 939 C 86.6928 1.03156 2.04674 0
M  V30 940 C 87.6928 -0.00990322 1.60797 0
M  V30 941 O 88.8828 0.230729 1.72665 0
M  V30 942 C 86.0148 0.562765 3.36223 0
M  V30 943 H 87.2078 1.98614 2.24705 0
M  V30 944 H 84.7608 1.06293 1.14593 0
M  V30 945 H 85.4958 -0.395176 3.21883 0
M  V30 946 H 85.2808 1.31441 3.69413 0
M  V30 947 H 86.7708 0.437015 4.15307 0
M  V30 948 N 87.2079 -1.17134 1.05439 0
M  V30 949 C 88.4539 -1.87733 0.767077 0
M  V30 950 C 88.7869 -1.8098 -0.704253 0
M  V30 951 O 88.0619 -1.21951 -1.5152 0
M  V30 952 C 88.3449 -3.37659 1.25133 0
M  V30 953 C 88.1979 -3.53149 2.78578 0
M  V30 954 C 89.5169 -4.31768 0.852324 0
M  V30 955 H 86.6359 -0.681687 0.280129 0
M  V30 956 H 89.2779 -1.37732 1.30881 0
M  V30 957 H 87.4279 -3.80373 0.790469 0
M  V30 958 H 89.0999 -3.19434 3.32806 0
M  V30 959 H 87.3429 -2.95345 3.17732 0
M  V30 960 H 88.0139 -4.58403 3.07523 0
M  V30 961 H 90.4899 -3.96909 1.24911 0
M  V30 962 H 89.3659 -5.35199 1.21873 0
M  V30 963 H 89.6269 -4.41429 -0.243485 0
M  V30 964 N 88.686 -0.835752 -1.33615 0
M  V30 965 C 89.616 -0.281739 -2.31794 0
M  V30 966 C 90.597 0.608833 -1.58831 0
M  V30 967 O 91.782 0.533035 -1.86741 0
M  V30 968 C 88.912 0.546612 -3.42971 0
M  V30 969 C 87.866 -0.247904 -4.27281 0
M  V30 970 C 87.192 0.704001 -5.30045 0
M  V30 971 C 88.492 -1.46324 -5.01385 0
M  V30 972 H 90.186 -1.10206 -2.78379 0
M  V30 973 H 87.732 -0.531388 -1.33837 0
M  V30 974 H 89.685 0.944467 -4.1068 0
M  V30 975 H 88.409 1.40011 -2.95067 0
M  V30 976 H 87.068 -0.627281 -3.61194 0
M  V30 977 H 86.716 1.55381 -4.78399 0
M  V30 978 H 86.416 0.176524 -5.87335 0
M  V30 979 H 87.94 1.09944 -6.0062 0
M  V30 980 H 89.354 -1.13871 -5.61877 0
M  V30 981 H 87.751 -1.92728 -5.6831 0
M  V30 982 H 88.821 -2.23467 -4.30338 0
M  V30 983 N 90.1641 1.46063 -0.591896 0
M  V30 984 C 91.1271 2.28854 0.125973 0
M  V30 985 C 92.1271 1.38903 0.810107 0
M  V30 986 O 93.3171 1.61186 0.66066 0
M  V30 987 C 90.4491 3.19526 1.1881 0
M  V30 988 H 91.6421 2.93802 -0.601717 0
M  V30 989 H 89.1951 1.52325 -0.350254 0
M  V30 990 H 89.9301 2.59345 1.94707 0
M  V30 991 H 89.7151 3.85766 0.701936 0
M  V30 992 H 91.2051 3.81817 1.69132 0
M  V30 993 N 91.6422 0.330177 1.54103 0
M  V30 994 C 92.6052 -0.520144 2.2322 0
M  V30 995 C 93.6052 -1.03828 1.22786 0
M  V30 996 O 94.7952 -0.929652 1.4732 0
M  V30 997 C 91.9272 -1.72317 2.94142 0
M  V30 998 H 93.1202 0.0841605 2.99782 0
M  V30 999 H 90.6732 0.0813433 1.56088 0
M  V30 1000 H 91.4082 -2.36653 2.21734 0
M  V30 1001 H 91.1932 -1.35898 3.67796 0
M  V30 1002 H 92.6832 -2.3266 3.46784 0
M  V30 1003 N 93.1203 -1.57491 0.0584922 0
M  V30 1004 C 94.0833 -2.1085 -0.898617 0
M  V30 1005 C 95.0833 -1.02964 -1.23511 0
M  V30 1006 O 96.2733 -1.29007 -1.17059 0
M  V30 1007 C 93.4053 -2.59881 -2.20623 0
M  V30 1008 H 94.5983 -2.96715 -0.435936 0
M  V30 1009 H 92.1513 -1.55141 -0.190023 0
M  V30 1010 H 92.8863 -1.77431 -2.71457 0
M  V30 1011 H 92.6713 -3.38727 -1.97501 0
M  V30 1012 H 94.1613 -3.01285 -2.89166 0
M  V30 1013 N 94.5984 0.214957 -1.56127 0
M  V30 1014 C 95.8464 0.936518 -1.79091 0
M  V30 1015 C 96.1674 1.84606 -0.628148 0
M  V30 1016 O 95.4374 1.92664 0.35462 0
M  V30 1017 H 94.0174 0.3488 -0.660566 0
M  V30 1018 H 96.6794 0.22523 -1.93594 0
M  V30 1019 H 95.7754 1.53943 -2.71492 0
M  V30 1020 N 96.0765 1.50051 0.48192 0
M  V30 1021 C 97.3225 1.61706 1.2338 0
M  V30 1022 C 97.6775 0.308488 1.89911 0
M  V30 1023 O 96.9705 -0.692798 1.78636 0
M  V30 1024 C 97.1645 2.72717 2.30998 0
M  V30 1025 C 96.9935 4.14242 1.75024 0
M  V30 1026 C 95.7635 4.80786 1.55476 0
M  V30 1027 C 97.9615 4.98846 1.25128 0
M  V30 1028 N 95.9435 6.06563 0.946311 0
M  V30 1029 C 97.3145 6.15258 0.765382 0
M  V30 1030 C 99.3695 4.84702 1.13881 0
M  V30 1031 C 98.0725 7.19079 0.178113 0
M  V30 1032 C 100.098 5.8869 0.565486 0
M  V30 1033 C 99.4605 7.04343 0.0899105 0
M  V30 1034 H 95.5595 0.645958 0.440753 0
M  V30 1035 H 98.1435 1.8713 0.537624 0
M  V30 1036 H 96.3145 2.49033 2.98055 0
M  V30 1037 H 98.0465 2.73789 2.9803 0
M  V30 1038 H 94.8015 4.37899 1.80392 0
M  V30 1039 H 95.2255 6.73767 0.660812 0
M  V30 1040 H 99.8675 3.95583 1.49244 0
M  V30 1041 H 97.5855 8.07882 -0.187749 0
M  V30 1042 H 101.171 5.79808 0.480974 0
M  V30 1043 H 100.051 7.83433 -0.346782 0
M  V30 1044 N 97.5546 -0.734337 1.39446 0
M  V30 1045 C 98.8036 -1.48937 1.36017 0
M  V30 1046 C 99.1166 -1.95557 -0.0409005 0
M  V30 1047 O 100.323 -2.70779 -0.19778 0
M  V30 1048 C 98.7786 -2.69125 2.38955 0
M  V30 1049 C 98.3866 -2.29452 3.8478 0
M  V30 1050 C 100.131 -3.46944 2.44603 0
M  V30 1051 C 98.0376 -3.46366 4.79358 0
M  V30 1052 H 96.9676 -0.559296 0.505672 0
M  V30 1053 H 99.6186 -0.800983 1.65095 0
M  V30 1054 H 98.0006 -3.40041 2.02948 0
M  V30 1055 H 99.1746 -1.66077 4.29831 0
M  V30 1056 H 97.4896 -1.64723 3.82433 0
M  V30 1057 H 100.087 -4.33907 3.12456 0
M  V30 1058 H 100.43 -3.89454 1.47076 0
M  V30 1059 H 100.963 -2.83056 2.79507 0
M  V30 1060 H 97.7016 -3.08905 5.78151 0
M  V30 1061 H 97.2216 -4.08719 4.38986 0
M  V30 1062 H 98.9006 -4.12691 4.98292 0
M  V30 1063 N 99.0327 -1.24633 -0.964593 0
M  V30 1064 C 99.9957 -1.0424 -2.04124 0
M  V30 1065 C 100.996 0.00137563 -1.608 0
M  V30 1066 O 102.186 -0.239883 -1.7254 0
M  V30 1067 C 99.3177 -0.580588 -3.3592 0
M  V30 1068 H 100.511 -1.99803 -2.23649 0
M  V30 1069 H 98.0637 -1.06899 -1.14027 0
M  V30 1070 H 98.7987 0.3781 -3.22088 0
M  V30 1071 H 98.5837 -1.33398 -3.6871 0
M  V30 1072 H 100.074 -0.459034 -4.15069 0
M  V30 1073 N 100.511 1.16574 -1.06058 0
M  V30 1074 C 101.441 2.23057 -0.690488 0
M  V30 1075 C 102.422 1.67141 0.315901 0
M  V30 1076 O 103.607 1.93253 0.191556 0
M  V30 1077 C 100.737 3.47222 -0.073625 0
M  V30 1078 C 99.6908 4.16016 -1.00573 0
M  V30 1079 C 99.0168 5.34104 -0.252289 0
M  V30 1080 C 100.317 4.67264 -2.33371 0
M  V30 1081 H 102.011 2.54271 -1.58072 0
M  V30 1082 H 99.5568 1.22218 -0.76149 0
M  V30 1083 H 101.51 4.20939 0.19714 0
M  V30 1084 H 100.234 3.15302 0.85161 0
M  V30 1085 H 98.8928 3.44223 -1.2612 0
M  V30 1086 H 98.5408 4.98437 0.675988 0
M  V30 1087 H 98.2408 5.81072 -0.873455 0
M  V30 1088 H 99.7648 6.10599 0.0109857 0
M  V30 1089 H 101.179 5.32573 -2.12223 0
M  V30 1090 H 99.5758 5.24843 -2.90963 0
M  V30 1091 H 100.646 3.83602 -2.96611 0
M  V30 1092 N 101.989 0.842826 1.3317 0
M  V30 1093 C 103.214 0.453129 2.02389 0
M  V30 1094 C 103.639 -0.939105 1.6298 0
M  V30 1095 O 102.997 -1.61472 0.8244 0
M  V30 1096 C 103.045 0.586094 3.55805 0
M  V30 1097 O 102.149 -0.386029 4.10589 0
M  V30 1098 H 101.49 0.183664 0.638094 0
M  V30 1099 H 104.02 1.13875 1.69981 0
M  V30 1100 H 104.03 0.469209 4.05293 0
M  V30 1101 H 102.705 1.6014 3.83833 0
M  V30 1102 H 101.282 -0.226371 3.72212 0
M  V30 1103 N 103.467 -1.45747 0.599634 0
M  V30 1104 C 104.883 -1.57424 0.26264 0
M  V30 1105 C 105.083 -1.59222 -1.23493 0
M  V30 1106 O 104.139 -1.51825 -2.01756 0
M  V30 1107 C 105.452 -2.86061 0.926795 0
M  V30 1108 C 107 -2.99722 0.901967 0
M  V30 1109 C 107.475 -4.31119 1.54598 0
M  V30 1110 N 108.966 -4.37858 1.5111 0
M  V30 1111 C 109.701 -5.3818 1.97863 0
M  V30 1112 N 109.197 -6.45083 2.52666 0
M  V30 1113 N 110.99 -5.29487 1.88679 0
M  V30 1114 H 103.141 -1.42823 1.57211 0
M  V30 1115 H 105.404 -0.68235 0.658105 0
M  V30 1116 H 105.11 -2.90605 1.98095 0
M  V30 1117 H 104.984 -3.74563 0.445238 0
M  V30 1118 H 107.371 -2.9475 -0.143617 0
M  V30 1119 H 107.452 -2.12652 1.42171 0
M  V30 1120 H 107.096 -4.36849 2.59085 0
M  V30 1121 H 107.026 -5.16992 1.00132 0
M  V30 1122 H 109.517 -3.61209 1.11068 0
M  V30 1123 H 109.83 -7.17869 2.86155 0
M  V30 1124 H 108.175 -6.45856 2.56701 0
M  V30 1125 H 111.366 -4.44877 1.4561 0
M  V30 1126 H 111.539 -6.07524 2.25429 0
M  V30 1127 N 104.945 -0.338344 -1.53925 0
M  V30 1128 C 105.875 0.51328 -2.27789 0
M  V30 1129 C 106.856 1.107 -1.29149 0
M  V30 1130 O 108.041 1.12937 -1.57984 0
M  V30 1131 C 105.171 1.66697 -3.04679 0
M  V30 1132 C 104.125 1.20183 -4.1078 0
M  V30 1133 C 103.451 2.44363 -4.75595 0
M  V30 1134 C 104.751 0.30605 -5.21403 0
M  V30 1135 H 106.445 -0.102883 -2.99223 0
M  V30 1136 H 103.991 -0.0509219 -1.4391 0
M  V30 1137 H 105.944 2.26915 -3.55088 0
M  V30 1138 H 104.668 2.30995 -2.30887 0
M  V30 1139 H 103.327 0.622499 -3.61276 0
M  V30 1140 H 102.975 3.07057 -3.98403 0
M  V30 1141 H 102.675 2.13925 -5.47275 0
M  V30 1142 H 104.199 3.05317 -5.28786 0
M  V30 1143 H 105.613 0.814929 -5.67478 0
M  V30 1144 H 104.01 0.0937929 -6.00027 0
M  V30 1145 H 105.08 -0.65921 -4.80398 0
M  V30 1146 N 106.423 1.57458 -0.0668435 0
M  V30 1147 C 107.386 2.11323 0.887422 0
M  V30 1148 C 108.386 1.03618 1.22964 0
M  V30 1149 O 109.576 1.29626 1.16373 0
M  V30 1150 C 106.708 2.61048 2.19242 0
M  V30 1151 H 107.901 2.96942 0.420194 0
M  V30 1152 H 105.454 1.55239 0.181793 0
M  V30 1153 H 106.189 1.78868 2.70512 0
M  V30 1154 H 105.974 3.39769 1.95702 0
M  V30 1155 H 107.464 3.02814 2.87565 0
M  V30 1156 N 107.901 -0.206675 1.56239 0
M  V30 1157 C 109.317 -0.557025 1.49564 0
M  V30 1158 C 109.517 -1.86424 0.764735 0
M  V30 1159 O 108.573 -2.50584 0.310491 0
M  V30 1160 C 109.886 -0.622478 2.94186 0
M  V30 1161 C 111.434 -0.712099 3.04792 0
M  V30 1162 C 111.909 -0.808767 4.50803 0
M  V30 1163 N 113.4 -0.8726 4.54907 0
M  V30 1164 C 114.135 -0.967365 5.65181 0
M  V30 1165 N 113.631 -1.02515 6.85173 0
M  V30 1166 N 115.424 -1.00366 5.53067 0
M  V30 1167 H 107.575 0.650943 2.02179 0
M  V30 1168 H 109.838 0.230387 0.919579 0
M  V30 1169 H 109.544 0.268727 3.50672 0
M  V30 1170 H 109.418 -1.4811 3.46905 0
M  V30 1171 H 111.805 -1.59374 2.48363 0
M  V30 1172 H 111.886 0.172489 2.55218 0
M  V30 1173 H 111.53 0.0684754 5.07854 0
M  V30 1174 H 111.46 -1.70899 4.98098 0
M  V30 1175 H 113.951 -0.837657 3.68499 0
M  V30 1176 H 114.264 -1.09765 7.64965 0
M  V30 1177 H 112.609 -0.994026 6.87855 0
M  V30 1178 H 115.8 -0.95527 4.58249 0
M  V30 1179 H 115.973 -1.07405 6.39037 0
M  V30 1180 N 109.379 -1.50304 -0.473955 0
M  V30 1181 C 110.79 -1.54042 -1.0549 0
M  V30 1182 C 111.141 -0.342248 -1.93192 0
M  V30 1183 O 110.266 0.545157 -2.09421 0
M  V30 1184 C 110.861 -2.79152 -1.91989 0
M  V30 1185 C 109.42 -2.8558 -2.45196 0
M  V30 1186 C 108.567 -2.48295 -1.2347 0
M  V30 1187 H 111.518 -1.5661 -0.256693 0
M  V30 1188 H 111.539 -2.60845 -2.7702 0
M  V30 1189 H 111.051 -3.66339 -1.28131 0
M  V30 1190 H 109.152 -2.02738 -3.12615 0
M  V30 1191 H 109.265 -3.88403 -2.80499 0
M  V30 1192 H 107.629 -2.00669 -1.56856 0
M  V30 1193 H 108.412 -3.37787 -0.612789 0
M  V30 1194 N 110.857 0.726932 -1.39834 0
M  V30 1195 C 111.789 1.85147 -1.35104 0
M  V30 1196 C 112.802 1.60736 -0.258392 0
M  V30 1197 O 113.991 1.70821 -0.517931 0
M  V30 1198 C 111.091 3.21332 -1.07697 0
M  V30 1199 C 110.264 3.73033 -2.28396 0
M  V30 1200 C 109.323 4.87802 -1.97322 0
M  V30 1201 O 108.349 5.01043 -2.70083 0
M  V30 1202 N 109.551 5.72768 -0.944273 0
M  V30 1203 H 112.316 1.89706 -2.32017 0
M  V30 1204 H 109.877 0.908006 -1.3404 0
M  V30 1205 H 111.869 3.95691 -0.849144 0
M  V30 1206 H 110.439 3.11992 -0.194909 0
M  V30 1207 H 109.659 2.89934 -2.6708 0
M  V30 1208 H 110.947 4.0431 -3.08887 0
M  V30 1209 H 110.345 5.64669 -0.341427 0
M  V30 1210 H 108.902 6.4716 -0.776346 0
M  V30 1211 N 112.336 1.25143 0.95797 0
M  V30 1212 C 113.752 1.01892 1.22842 0
M  V30 1213 C 113.952 -0.266311 1.99732 0
M  V30 1214 O 113.008 -0.979913 2.3271 0
M  V30 1215 C 114.321 2.24004 2.00606 0
M  V30 1216 C 115.869 2.28731 2.13662 0
M  V30 1217 C 116.344 3.5049 2.94823 0
M  V30 1218 N 117.835 3.50866 3.02403 0
M  V30 1219 C 118.57 4.4174 3.65586 0
M  V30 1220 N 118.066 5.42882 4.30408 0
M  V30 1221 N 119.859 4.29429 3.62694 0
M  V30 1222 H 112.01 2.07718 0.443493 0
M  V30 1223 H 114.273 0.912031 0.258657 0
M  V30 1224 H 113.979 3.17395 1.51503 0
M  V30 1225 H 113.853 2.26907 3.01319 0
M  V30 1226 H 116.24 1.35865 2.61963 0
M  V30 1227 H 116.321 2.29848 1.12265 0
M  V30 1228 H 115.965 4.43676 2.47213 0
M  V30 1229 H 115.895 3.46617 3.96439 0
M  V30 1230 H 118.386 2.777 2.56302 0
M  V30 1231 H 118.699 6.0844 4.76467 0
M  V30 1232 H 117.044 5.46758 4.29047 0
M  V30 1233 H 120.235 3.49643 3.11236 0
M  V30 1234 H 120.408 5.00448 4.1165 0
M  V30 1235 N 113.814 -1.1601 1.06675 0
M  V30 1236 C 114.744 -2.22688 0.702307 0
M  V30 1237 C 115.725 -1.67306 -0.307032 0
M  V30 1238 O 116.91 -1.93352 -0.181305 0
M  V30 1239 C 114.04 -3.47178 0.092038 0
M  V30 1240 C 112.994 -4.15477 1.02777 0
M  V30 1241 C 112.32 -5.33963 0.28061 0
M  V30 1242 C 113.62 -4.66019 2.35846 0
M  V30 1243 H 115.314 -2.53429 1.59419 0
M  V30 1244 H 112.86 -1.21813 0.767961 0
M  V30 1245 H 114.813 -4.21037 -0.174814 0
M  V30 1246 H 113.537 -3.15749 -0.834877 0
M  V30 1247 H 112.196 -3.43549 1.27944 0
M  V30 1248 H 111.844 -4.98788 -0.649545 0
M  V30 1249 H 111.544 -5.806 0.904258 0
M  V30 1250 H 113.068 -6.10596 0.021396 0
M  V30 1251 H 114.482 -5.3144 2.15045 0
M  V30 1252 H 112.879 -5.23293 2.93743 0
M  V30 1253 H 113.949 -3.82023 2.98641 0
M  V30 1254 N 115.292 -0.849877 -1.32721 0
M  V30 1255 C 116.703 -0.506188 -1.79707 0
M  V30 1256 C 117.054 0.975627 -1.70223 0
M  V30 1257 O 116.179 1.76078 -1.25799 0
M  V30 1258 C 116.774 -0.912044 -3.26293 0
M  V30 1259 C 115.333 -0.620326 -3.71253 0
M  V30 1260 C 114.48 -1.11439 -2.53922 0
M  V30 1261 H 117.431 -1.03754 -1.20087 0
M  V30 1262 H 117.452 -0.226493 -3.79825 0
M  V30 1263 H 116.964 -1.99057 -3.33164 0
M  V30 1264 H 115.065 0.447674 -3.69901 0
M  V30 1265 H 115.178 -1.18327 -4.64258 0
M  V30 1266 H 113.542 -0.534834 -2.49021 0
M  V30 1267 H 114.325 -2.19992 -2.6355 0
M  V30 1268 N 116.77 1.45427 -0.607355 0
M  V30 1269 C 118.016 2.0254 -0.102607 0
M  V30 1270 C 118.349 1.47478 1.26348 0
M  V30 1271 O 117.624 0.64939 1.83339 0
M  V30 1272 C 117.907 3.60044 -0.0634347 0
M  V30 1273 C 117.76 4.2544 -1.46017 0
M  V30 1274 C 119.079 4.35646 0.624514 0
M  V30 1275 H 116.198 0.73598 -0.0387607 0
M  V30 1276 H 118.84 1.73284 -0.779282 0
M  V30 1277 H 116.99 3.85101 0.512808 0
M  V30 1278 H 118.662 4.11569 -2.08347 0
M  V30 1279 H 116.905 3.83849 -2.02094 0
M  V30 1280 H 117.576 5.34342 -1.385 0
M  V30 1281 H 120.052 4.15882 0.134723 0
M  V30 1282 H 118.928 5.45376 0.621028 0
M  V30 1283 H 119.189 4.08501 1.69055 0
M  V30 1284 N 118.248 0.346503 1.53744 0
M  V30 1285 C 119.211 -0.496439 2.23759 0
M  V30 1286 C 120.211 -1.0252 1.2388 0
M  V30 1287 O 121.401 -0.913974 1.48297 0
M  V30 1288 C 118.533 -1.69187 2.95954 0
M  V30 1289 H 119.726 0.115952 2.99676 0
M  V30 1290 H 117.279 0.0978939 1.55993 0
M  V30 1291 H 118.014 -2.34288 2.24231 0
M  V30 1292 H 117.799 -1.31989 3.69217 0
M  V30 1293 H 119.289 -2.28969 3.49232 0
M  V30 1294 N 119.726 -1.57421 0.075193 0
M  V30 1295 C 120.954 -1.97946 -0.602076 0
M  V30 1296 C 121.369 -0.953674 -1.62943 0
M  V30 1297 O 120.726 0.0592551 -1.82404 0
M  V30 1298 C 120.777 -3.38546 -1.26762 0
M  V30 1299 O 120.498 -4.37195 -0.281376 0
M  V30 1300 C 121.999 -3.93966 -2.03239 0
M  V30 1301 H 119.219 -0.650918 -0.162931 0
M  V30 1302 H 121.763 -2.03959 0.148601 0
M  V30 1303 H 119.918 -3.33609 -1.96936 0
M  V30 1304 H 120.332 -5.18975 -0.759267 0
M  V30 1305 H 121.806 -4.94555 -2.45193 0
M  V30 1306 H 122.283 -3.30693 -2.8903 0
M  V30 1307 H 122.889 -4.02315 -1.37924 0
M  V30 1308 N 121.204 0.198386 -1.56346 0
M  V30 1309 C 122.62 0.549085 -1.49857 0
M  V30 1310 C 122.82 1.86016 -0.774611 0
M  V30 1311 O 121.876 2.50416 -0.323776 0
M  V30 1312 C 123.189 0.606868 -2.94512 0
M  V30 1313 C 124.737 0.695925 -3.05165 0
M  V30 1314 C 125.212 0.784848 -4.51225 0
M  V30 1315 N 126.703 0.848463 -4.55363 0
M  V30 1316 C 127.438 0.937378 -5.65686 0
M  V30 1317 N 126.934 0.9888 -6.85707 0
M  V30 1318 N 128.727 0.974312 -5.53592 0
M  V30 1319 H 120.878 -0.661655 -2.01831 0
M  V30 1320 H 123.141 -0.235261 -0.918344 0
M  V30 1321 H 122.847 -0.28732 -3.50524 0
M  V30 1322 H 122.721 1.46268 -3.47686 0
M  V30 1323 H 125.108 1.58055 -2.49204 0
M  V30 1324 H 125.189 -0.186022 -2.55123 0
M  V30 1325 H 124.833 -0.0954072 -5.0781 0
M  V30 1326 H 124.763 1.68255 -4.98997 0
M  V30 1327 H 127.254 0.818103 -3.68938 0
M  V30 1328 H 127.567 1.05707 -7.65536 0
M  V30 1329 H 125.912 0.957534 -6.88372 0
M  V30 1330 H 129.103 0.930954 -4.58749 0
M  V30 1331 H 129.276 1.04015 -6.39597 0
M  V30 1332 N 122.682 1.50554 0.465978 0
M  V30 1333 C 123.645 1.69233 1.54574 0
M  V30 1334 C 124.645 0.562901 1.50626 0
M  V30 1335 O 125.835 0.830016 1.53155 0
M  V30 1336 C 122.967 1.7223 2.94193 0
M  V30 1337 H 124.16 2.65571 1.39327 0
M  V30 1338 H 121.713 1.40111 0.692711 0
M  V30 1339 H 122.448 0.77603 3.14878 0
M  V30 1340 H 122.233 2.54285 2.98466 0
M  V30 1341 H 123.723 1.88618 3.72576 0
M  V30 1342 N 124.16 -0.719506 1.40217 0
M  V30 1343 C 125.406 -1.48152 1.38488 0
M  V30 1344 C 125.739 -1.94195 -0.0141867 0
M  V30 1345 O 125.014 -1.67884 -0.982096 0
M  V30 1346 C 125.297 -2.71035 2.37091 0
M  V30 1347 C 125.15 -2.30912 3.86005 0
M  V30 1348 C 126.469 -3.73182 2.33288 0
M  V30 1349 H 123.588 -0.537395 0.504357 0
M  V30 1350 H 126.23 -0.821472 1.71324 0
M  V30 1351 H 124.38 -3.27352 2.0922 0
M  V30 1352 H 126.052 -1.80107 4.24687 0
M  V30 1353 H 124.295 -1.62958 4.02029 0
M  V30 1354 H 124.966 -3.18978 4.50508 0
M  V30 1355 H 127.442 -3.26485 2.57966 0
M  V30 1356 H 126.318 -4.56806 3.04334 0
M  V30 1357 H 126.579 -4.21202 1.34317 0
M  V30 1358 N 125.638 -1.25649 -0.95132 0
M  V30 1359 C 126.568 -1.08808 -2.06599 0
M  V30 1360 C 127.549 0.00382547 -1.701 0
M  V30 1361 O 128.734 -0.166325 -1.93486 0
M  V30 1362 C 125.864 -0.709542 -3.39975 0
M  V30 1363 C 124.818 -1.75206 -3.90496 0
M  V30 1364 C 124.144 -1.22811 -5.20405 0
M  V30 1365 C 125.444 -3.15153 -4.16504 0
M  V30 1366 H 127.138 -2.02048 -2.20946 0
M  V30 1367 H 124.684 -0.972835 -1.06169 0
M  V30 1368 H 126.637 -0.578649 -4.17408 0
M  V30 1369 H 125.361 0.258556 -3.25575 0
M  V30 1370 H 124.02 -1.87145 -3.15234 0
M  V30 1371 H 123.668 -0.250145 -5.02378 0
M  V30 1372 H 123.368 -1.92492 -5.55176 0
M  V30 1373 H 124.892 -1.10968 -6.00432 0
M  V30 1374 H 126.306 -3.06349 -4.84586 0
M  V30 1375 H 124.703 -3.82333 -4.62538 0
M  V30 1376 H 125.773 -3.61966 -3.22658 0
M  V30 1377 N 127.117 1.15442 -1.07289 0
M  V30 1378 C 128.366 1.85557 -0.790669 0
M  V30 1379 C 128.679 1.83186 0.685739 0
M  V30 1380 O 129.885 2.48977 1.0827 0
M  V30 1381 C 128.341 3.33038 -1.36433 0
M  V30 1382 C 127.949 3.43856 -2.8717 0
M  V30 1383 C 129.693 4.0834 -1.1601 0
M  V30 1384 C 127.6 4.85482 -3.3773 0
M  V30 1385 H 126.53 0.695122 -0.292098 0
M  V30 1386 H 129.181 1.30219 -1.29287 0
M  V30 1387 H 127.563 3.88043 -0.789864 0
M  V30 1388 H 128.737 2.98961 -3.50655 0
M  V30 1389 H 127.052 2.81998 -3.06376 0
M  V30 1390 H 129.649 5.12859 -1.51262 0
M  V30 1391 H 129.992 4.16182 -0.0991007 0
M  V30 1392 H 130.525 3.59603 -1.70089 0
M  V30 1393 H 127.264 4.82823 -4.43353 0
M  V30 1394 H 126.784 5.30961 -2.78999 0
M  V30 1395 H 128.463 5.54335 -3.33648 0
M  V30 1396 N 128.595 0.856903 1.32268 0
M  V30 1397 C 129.823 0.475439 2.01363 0
M  V30 1398 C 130.238 -0.928486 1.64392 0
M  V30 1399 O 129.595 -1.60624 0.866387 0
M  V30 1400 C 129.646 0.607545 3.56358 0
M  V30 1401 O 129.367 1.95617 3.92002 0
M  V30 1402 C 130.868 0.225382 4.42727 0
M  V30 1403 H 128.088 0.186636 0.644521 0
M  V30 1404 H 130.632 1.15446 1.68797 0
M  V30 1405 H 128.787 -0.0237719 3.87393 0
M  V30 1406 H 129.201 1.95455 4.86721 0
M  V30 1407 H 130.675 0.368813 5.50767 0
M  V30 1408 H 131.152 -0.834369 4.31202 0
M  V30 1409 H 131.758 0.831864 4.17085 0
M  V30 1410 N 130.073 -1.45103 0.615059 0
M  V30 1411 C 131.321 -2.01784 0.112955 0
M  V30 1412 C 131.642 -1.48504 -1.26378 0
M  V30 1413 O 130.912 -0.682245 -1.83636 0
M  V30 1414 H 129.492 -0.745993 0.0387668 0
M  V30 1415 H 132.154 -1.77808 0.798141 0
M  V30 1416 H 131.25 -3.12025 0.0684069 0
M  V30 1417 N 131.551 -0.354651 -1.53558 0
M  V30 1418 C 132.791 0.238651 -2.03002 0
M  V30 1419 C 133.155 1.46878 -1.23656 0
M  V30 1420 O 134.356 2.13699 -1.63053 0
M  V30 1421 C 132.627 0.534175 -3.53386 0
M  V30 1422 S 134.186 1.10271 -4.24719 0
M  V30 1423 H 131.004 0.0702908 -0.707517 0
M  V30 1424 H 133.606 -0.494987 -1.8913 0
M  V30 1425 H 132.31 -0.368765 -4.0874 0
M  V30 1426 H 131.841 1.29718 -3.71398 0
M  V30 1427 H 133.856 2.38772 -4.34974 0
M  V30 1428 N 133.029 1.57378 -0.0835403 0
M  V30 1429 C 134.306 1.85363 0.624507 0
M  V30 1430 C 134.686 0.978239 1.87066 0
M  V30 1431 O 134.034 0.0475908 2.2845 0
M  V30 1432 C 134.244 3.35795 0.950947 0
M  V30 1433 C 135.592 4.03581 1.31939 0
M  V30 1434 O 136.616 3.40609 1.04232 0
M  V30 1435 O 135.475 5.14672 1.83779 0
M  V30 1436 H 132.569 0.766162 0.311329 0
M  V30 1437 H 135.115 1.69307 -0.115362 0
M  V30 1438 H 133.887 3.91244 0.0663899 0
M  V30 1439 H 133.51 3.57154 1.74719 0
M  V30 1440 N 134.507 -0.190092 1.56449 0
M  V30 1441 C 135.732 -0.929864 1.85387 0
M  V30 1442 C 136.157 -1.7585 0.667704 0
M  V30 1443 O 135.515 -1.77198 -0.383459 0
M  V30 1444 C 135.563 -1.79773 3.12593 0
M  V30 1445 O 134.667 -2.89713 2.93496 0
M  V30 1446 H 134.008 -0.261574 0.610307 0
M  V30 1447 H 136.538 -0.193896 2.03679 0
M  V30 1448 H 136.548 -2.20139 3.43515 0
M  V30 1449 H 135.223 -1.18892 3.98544 0
M  V30 1450 H 133.8 -2.53065 2.73884 0
M  V30 1451 N 135.985 -1.50799 -0.457987 0
M  V30 1452 C 137.233 -1.62121 -1.2067 0
M  V30 1453 C 137.554 -0.329793 -1.92191 0
M  V30 1454 O 136.824 0.653409 -1.84682 0
M  V30 1455 H 135.404 -0.597441 -0.448411 0
M  V30 1456 H 138.066 -1.87637 -0.527096 0
M  V30 1457 H 137.162 -2.43882 -1.94751 0
M  V30 1458 N 137.463 0.71206 -1.40597 0
M  V30 1459 C 138.71 1.47197 -1.39065 0
M  V30 1460 C 139.038 1.94499 0.00583891 0
M  V30 1461 O 138.293 1.68752 0.99102 0
M  V30 1462 C 138.592 2.71039 -2.32965 0
M  V30 1463 C 138.258 2.42484 -3.80148 0
M  V30 1464 C 136.92 2.34406 -4.20247 0
M  V30 1465 C 139.272 2.18598 -4.73143 0
M  V30 1466 C 136.6 2.00516 -5.51371 0
M  V30 1467 C 138.952 1.8622 -6.0457 0
M  V30 1468 C 137.616 1.76626 -6.43708 0
M  V30 1469 H 136.886 0.538634 -0.508876 0
M  V30 1470 H 139.533 0.815325 -1.73276 0
M  V30 1471 H 137.838 3.41558 -1.91951 0
M  V30 1472 H 139.535 3.29138 -2.29061 0
M  V30 1473 H 136.125 2.49659 -3.4838 0
M  V30 1474 H 140.309 2.23793 -4.42979 0
M  V30 1475 H 135.565 1.91628 -5.80593 0
M  V30 1476 H 139.739 1.66752 -6.76141 0
M  V30 1477 H 137.366 1.50133 -7.45228 0
M  V30 1478 N 138.941 1.26152 0.944643 0
M  V30 1479 C 140.189 1.11271 1.6871 0
M  V30 1480 C 140.51 -0.345166 1.91921 0
M  V30 1481 O 139.78 -1.24387 1.51343 0
M  V30 1482 H 138.36 0.408783 0.625224 0
M  V30 1483 H 141.022 1.58427 1.1352 0
M  V30 1484 H 140.118 1.62879 2.66227 0
M  V30 1485 N 140.419 -1.14872 1.07899 0
M  V30 1486 C 141.366 -2.19791 0.704319 0
M  V30 1487 C 142.336 -1.63238 -0.306987 0
M  V30 1488 O 143.521 -1.8983 -0.192171 0
M  V30 1489 C 140.661 -3.44911 0.114244 0
M  V30 1490 C 139.774 -4.15637 1.1777 0
M  V30 1491 C 138.909 -5.28324 0.552037 0
M  V30 1492 C 137.948 -5.90875 1.59789 0
M  V30 1493 N 137.085 -6.95022 0.994404 0
M  V30 1494 H 141.925 -2.5119 1.60336 0
M  V30 1495 H 139.462 -1.23356 0.801352 0
M  V30 1496 H 141.42 -4.16477 -0.245544 0
M  V30 1497 H 140.05 -3.14011 -0.74813 0
M  V30 1498 H 139.102 -3.42512 1.65499 0
M  V30 1499 H 140.414 -4.5823 1.97046 0
M  V30 1500 H 139.568 -6.06538 0.1402 0
M  V30 1501 H 138.307 -4.86939 -0.272431 0
M  V30 1502 H 137.312 -5.11369 2.01945 0
M  V30 1503 H 138.537 -6.34337 2.42474 0
M  V30 1504 H 136.483 -6.55722 0.190939 0
M  V30 1505 H 136.4 -7.36073 1.72432 0
M  V30 1506 H 137.668 -7.77123 0.608253 0
M  V30 1507 N 141.898 -0.863906 -1.31812 0
M  V30 1508 C 142.808 -0.318461 -2.32428 0
M  V30 1509 C 143.824 0.568496 -1.64451 0
M  V30 1510 O 145 0.46666 -1.95919 0
M  V30 1511 C 142.065 0.476355 -3.43412 0
M  V30 1512 C 141.126 -0.43784 -4.27061 0
M  V30 1513 C 140.359 0.319138 -5.32745 0
M  V30 1514 O 140.582 1.54799 -5.48993 0
M  V30 1515 O 139.516 -0.319861 -6.01049 0
M  V30 1516 H 143.342 -1.15229 -2.80991 0
M  V30 1517 H 140.927 -0.627103 -1.35602 0
M  V30 1518 H 142.809 0.927156 -4.11074 0
M  V30 1519 H 141.484 1.28683 -2.97022 0
M  V30 1520 H 140.391 -0.937013 -3.62175 0
M  V30 1521 H 141.724 -1.21375 -4.77 0
M  V30 1522 N 143.376 1.44774 -0.622745 0
M  V30 1523 C 144.604 2.06487 -0.130722 0
M  V30 1524 C 145.019 1.46476 1.19123 0
M  V30 1525 O 144.376 0.584502 1.72887 0
M  V30 1526 C 144.427 3.615 -0.000807207 0
M  V30 1527 O 144.148 4.19274 -1.27048 0
M  V30 1528 C 145.649 4.40229 0.520898 0
M  V30 1529 H 142.869 0.666704 -0.0758106 0
M  V30 1530 H 145.413 1.85779 -0.854774 0
M  V30 1531 H 143.568 3.81498 0.673643 0
M  V30 1532 H 143.982 5.12622 -1.1099 0
M  V30 1533 H 145.456 5.49144 0.560838 0
M  V30 1534 H 145.933 4.1108 1.54627 0
M  V30 1535 H 146.539 4.25131 -0.120018 0
M  V30 1536 N 144.854 0.36279 1.53368 0
M  V30 1537 C 145.817 -0.472679 2.24273 0
M  V30 1538 C 146.817 -1.012 1.24961 0
M  V30 1539 O 148.007 -0.898194 1.49259 0
M  V30 1540 C 145.139 -1.66039 2.97731 0
M  V30 1541 H 146.332 0.14773 2.99536 0
M  V30 1542 H 143.885 0.114434 1.55881 0
M  V30 1543 H 144.62 -2.31896 2.26704 0
M  V30 1544 H 144.405 -1.28066 3.70596 0
M  V30 1545 H 145.895 -2.25252 3.51641 0
M  V30 1546 N 146.332 -1.57332 0.0918853 0
M  V30 1547 C 147.279 -2.13847 -0.868211 0
M  V30 1548 C 148.249 -1.05618 -1.28196 0
M  V30 1549 O 149.434 -1.33387 -1.36427 0
M  V30 1550 C 146.574 -2.72062 -2.12312 0
M  V30 1551 C 145.687 -3.94514 -1.7602 0
M  V30 1552 C 144.822 -4.40903 -2.96273 0
M  V30 1553 C 143.861 -5.55953 -2.56092 0
M  V30 1554 N 142.998 -5.97209 -3.69169 0
M  V30 1555 H 147.838 -2.95575 -0.379406 0
M  V30 1556 H 145.375 -1.46048 -0.175606 0
M  V30 1557 H 147.333 -3.03931 -2.858 0
M  V30 1558 H 145.963 -1.93068 -2.58698 0
M  V30 1559 H 145.015 -3.68979 -0.925135 0
M  V30 1560 H 146.327 -4.7802 -1.42472 0
M  V30 1561 H 145.481 -4.74539 -3.78018 0
M  V30 1562 H 144.22 -3.56291 -3.33029 0
M  V30 1563 H 143.225 -5.21948 -1.72773 0
M  V30 1564 H 144.45 -6.42311 -2.20484 0
M  V30 1565 H 142.396 -5.15543 -4.05649 0
M  V30 1566 H 142.313 -6.75504 -3.39456 0
M  V30 1567 H 143.581 -6.35475 -4.51434 0
M  V30 1568 N 147.81 0.181792 -1.56548 0
M  V30 1569 C 148.757 1.22521 -1.95595 0
M  V30 1570 C 149.727 1.4454 -0.818373 0
M  V30 1571 O 150.912 1.57454 -1.07763 0
M  V30 1572 C 148.052 2.56193 -2.31212 0
M  V30 1573 C 147.165 2.41641 -3.58097 0
M  V30 1574 C 146.3 3.68108 -3.82975 0
M  V30 1575 C 145.339 3.48445 -5.03242 0
M  V30 1576 N 144.476 4.66956 -5.24306 0
M  V30 1577 H 149.316 0.885226 -2.84548 0
M  V30 1578 H 146.853 0.425718 -1.40805 0
M  V30 1579 H 148.811 3.34088 -2.49882 0
M  V30 1580 H 147.441 2.88208 -1.45382 0
M  V30 1581 H 146.493 1.54976 -3.474 0
M  V30 1582 H 147.805 2.23052 -4.46149 0
M  V30 1583 H 146.959 4.54441 -4.01956 0
M  V30 1584 H 145.698 3.89666 -2.93278 0
M  V30 1585 H 144.703 2.60499 -4.8417 0
M  V30 1586 H 145.928 3.2832 -5.9446 0
M  V30 1587 H 143.874 4.88752 -4.37559 0
M  V30 1588 H 143.791 4.51242 -6.06561 0
M  V30 1589 H 145.059 5.54602 -5.47756 0
M  V30 1590 N 149.288 1.51039 0.449983 0
M  V30 1591 C 150.218 1.74379 1.55288 0
M  V30 1592 C 151.199 0.593236 1.5942 0
M  V30 1593 O 152.384 0.834625 1.7535 0
M  V30 1594 C 149.514 1.85728 2.93466 0
M  V30 1595 C 148.468 3.01078 3.04197 0
M  V30 1596 C 147.794 2.97595 4.44231 0
M  V30 1597 C 149.094 4.41254 2.7945 0
M  V30 1598 H 150.788 2.66725 1.36008 0
M  V30 1599 H 148.334 1.2835 0.652864 0
M  V30 1600 H 150.287 2.0064 3.70569 0
M  V30 1601 H 149.011 0.900207 3.13949 0
M  V30 1602 H 147.67 2.85851 2.29531 0
M  V30 1603 H 147.318 1.99691 4.61663 0
M  V30 1604 H 147.018 3.75046 4.52343 0
M  V30 1605 H 148.542 3.14583 5.23326 0
M  V30 1606 H 149.956 4.56897 3.46292 0
M  V30 1607 H 148.353 5.20315 2.98985 0
M  V30 1608 H 149.423 4.52164 1.75144 0
M  V30 1609 N 150.766 -0.704594 1.40972 0
M  V30 1610 C 152.043 -1.45847 1.30338 0
M  V30 1611 C 152.423 -2.10973 -0.0732344 0
M  V30 1612 O 151.771 -2.00997 -1.08685 0
M  V30 1613 C 151.981 -2.48525 2.45023 0
M  V30 1614 C 153.329 -3.1404 2.8577 0
M  V30 1615 O 154.353 -2.58848 2.44696 0
M  V30 1616 O 153.212 -4.13981 3.56766 0
M  V30 1617 H 150.306 -0.649092 0.512454 0
M  V30 1618 H 152.852 -0.735836 1.52917 0
M  V30 1619 H 151.624 -1.98994 3.36923 0
M  V30 1620 H 151.247 -3.2831 2.24272 0
M  V30 1621 N 152.244 -1.26651 -0.937939 0
M  V30 1622 C 153.469 -1.15279 -1.72411 0
M  V30 1623 C 153.894 0.287866 -1.85884 0
M  V30 1624 O 153.252 1.20855 -1.35143 0
M  V30 1625 C 153.3 -1.83028 -3.10698 0
M  V30 1626 O 152.404 -1.12128 -3.96864 0
M  V30 1627 H 151.745 -0.401504 -0.528858 0
M  V30 1628 H 154.275 -1.67531 -1.1745 0
M  V30 1629 H 154.285 -1.89981 -3.6107 0
M  V30 1630 H 152.96 -2.87833 -3.00208 0
M  V30 1631 H 151.537 -1.13173 -3.55312 0
M  V30 1632 N 153.722 1.14298 -1.08507 0
M  V30 1633 C 154.655 2.18447 -0.660004 0
M  V30 1634 C 155.633 1.59242 0.328749 0
M  V30 1635 O 156.817 1.87062 0.232367 0
M  V30 1636 C 153.944 3.38688 0.0290807 0
M  V30 1637 C 152.99 4.1646 -0.919982 0
M  V30 1638 S 153.823 4.77334 -2.42718 0
M  V30 1639 C 154.979 6.00931 -1.75024 0
M  V30 1640 H 155.212 2.54166 -1.54231 0
M  V30 1641 H 152.745 1.25446 -0.900149 0
M  V30 1642 H 154.703 4.08342 0.420378 0
M  V30 1643 H 153.364 3.01289 0.887895 0
M  V30 1644 H 152.557 5.02529 -0.384751 0
M  V30 1645 H 152.159 3.52414 -1.25223 0
M  V30 1646 H 154.451 6.69017 -1.06877 0
M  V30 1647 H 155.394 6.59044 -2.58971 0
M  V30 1648 H 155.802 5.51089 -1.22317 0
M  V30 1649 N 155.201 0.870884 1.31352 0
M  V30 1650 C 156.449 0.48132 1.96285 0
M  V30 1651 C 156.77 -0.969813 1.69173 0
M  V30 1652 O 156.04 -1.67998 1.00764 0
M  V30 1653 H 154.62 0.175002 0.726212 0
M  V30 1654 H 157.282 1.11087 1.60143 0
M  V30 1655 H 156.378 0.639825 3.05471 0
M  V30 1656 N 156.679 -1.44442 0.630414 0
M  V30 1657 C 157.926 -2.02052 0.134617 0
M  V30 1658 C 158.254 -1.49576 -1.24327 0
M  V30 1659 O 157.509 -0.669806 -1.83881 0
M  V30 1660 C 157.808 -3.57332 0.0697835 0
M  V30 1661 C 157.474 -4.29058 1.38635 0
M  V30 1662 C 156.136 -4.4837 1.74694 0
M  V30 1663 C 158.488 -4.69872 2.25543 0
M  V30 1664 C 155.816 -5.05756 2.97369 0
M  V30 1665 C 158.168 -5.28616 3.47487 0
M  V30 1666 C 156.832 -5.46147 3.8377 0
M  V30 1667 H 156.102 -0.739361 0.0492598 0
M  V30 1668 H 158.749 -1.73217 0.816586 0
M  V30 1669 H 157.054 -3.85577 -0.695553 0
M  V30 1670 H 158.751 -3.99637 -0.330344 0
M  V30 1671 H 155.341 -4.14357 1.09574 0
M  V30 1672 H 159.525 -4.54666 1.98979 0
M  V30 1673 H 154.781 -5.17515 3.25558 0
M  V30 1674 H 158.955 -5.59192 4.15063 0
M  V30 1675 H 156.582 -5.9038 4.7891 0
M  V30 1676 N 158.157 -0.370918 -1.53173 0
M  V30 1677 C 159.385 0.217704 -2.05751 0
M  V30 1678 C 159.8 1.42018 -1.24404 0
M  V30 1679 O 159.157 1.80245 -0.286033 0
M  V30 1680 C 159.208 0.605954 -3.56385 0
M  V30 1681 O 158.929 -0.548734 -4.3465 0
M  V30 1682 C 160.43 1.2524 -4.25241 0
M  V30 1683 H 157.65 0.0371659 -0.66997 0
M  V30 1684 H 160.194 -0.530832 -1.9749 0
M  V30 1685 H 158.349 1.3044 -3.6478 0
M  V30 1686 H 158.763 -0.23376 -5.23979 0
M  V30 1687 H 160.237 1.47458 -5.3194 0
M  V30 1688 H 160.714 2.2143 -3.79296 0
M  V30 1689 H 161.32 0.595233 -4.21114 0
M  V30 1690 N 159.635 1.57281 -0.100228 0
M  V30 1691 C 160.881 1.94826 0.563101 0
M  V30 1692 C 161.214 0.982475 1.67514 0
M  V30 1693 O 160.489 0.0164069 1.94493 0
M  V30 1694 C 160.772 3.42453 1.11346 0
M  V30 1695 C 160.625 4.498 0.00612081 0
M  V30 1696 C 161.944 3.91506 2.01024 0
M  V30 1697 H 159.063 0.708428 0.203221 0
M  V30 1698 H 161.705 1.8922 -0.171979 0
M  V30 1699 H 159.855 3.47361 1.7399 0
M  V30 1700 H 161.527 4.57 -0.628357 0
M  V30 1701 H 159.77 4.28756 -0.659581 0
M  V30 1702 H 160.441 5.50306 0.432109 0
M  V30 1703 H 162.917 3.88784 1.48278 0
M  V30 1704 H 161.793 4.95358 2.36457 0
M  V30 1705 H 162.054 3.31099 2.92961 0
M  V30 1706 N 161.113 -0.173488 1.56642 0
M  V30 1707 C 162.043 -1.2171 1.99271 0
M  V30 1708 C 163.024 -1.46289 0.867959 0
M  V30 1709 O 164.209 -1.5766 1.13388 0
M  V30 1710 C 161.339 -2.55651 2.35074 0
M  V30 1711 C 160.293 -2.45645 3.50489 0
M  V30 1712 C 159.619 -3.84056 3.72028 0
M  V30 1713 C 160.919 -1.96302 4.84007 0
M  V30 1714 H 162.613 -0.86275 2.867 0
M  V30 1715 H 160.159 -0.413571 1.37933 0
M  V30 1716 H 162.112 -3.2886 2.63494 0
M  V30 1717 H 160.836 -2.92869 1.44552 0
M  V30 1718 H 159.495 -1.7489 3.22194 0
M  V30 1719 H 159.143 -4.18664 2.788 0
M  V30 1720 H 158.843 -3.7823 4.49684 0
M  V30 1721 H 160.367 -4.58854 4.02846 0
M  V30 1722 H 161.781 -2.59284 5.11317 0
M  V30 1723 H 160.178 -2.01429 5.65284 0
M  V30 1724 H 161.248 -0.917226 4.76146 0
M  V30 1725 N 162.591 -1.51276 -0.441967 0
M  V30 1726 C 163.554 -1.7167 -1.51862 0
M  V30 1727 C 164.554 -0.586793 -1.49711 0
M  V30 1728 O 165.744 -0.854276 -1.51815 0
M  V30 1729 C 162.876 -1.76889 -2.91416 0
M  V30 1730 H 164.069 -2.67754 -1.35084 0
M  V30 1731 H 161.622 -1.41196 -0.670333 0
M  V30 1732 H 162.357 -0.826026 -3.13604 0
M  V30 1733 H 162.142 -2.59001 -2.94382 0
M  V30 1734 H 163.632 -1.94522 -3.69528 0
M  V30 1735 N 164.069 0.697108 -1.41344 0
M  V30 1736 C 165.297 1.48593 -1.43972 0
M  V30 1737 C 165.712 1.88747 -0.0445612 0
M  V30 1738 O 165.069 1.56682 0.935785 0
M  V30 1739 C 165.12 2.74946 -2.34706 0
M  V30 1740 O 164.841 2.36484 -3.68791 0
M  V30 1741 C 166.342 3.687 -2.46121 0
M  V30 1742 H 163.562 0.457964 -0.490418 0
M  V30 1743 H 166.106 0.858429 -1.8561 0
M  V30 1744 H 164.261 3.33937 -1.9638 0
M  V30 1745 H 164.675 3.17918 -4.17167 0
M  V30 1746 H 166.149 4.54145 -3.13777 0
M  V30 1747 H 166.626 4.13081 -1.49199 0
M  V30 1748 H 167.232 3.15613 -2.85076 0
M  V30 1749 N 165.547 1.27147 0.931209 0
M  V30 1750 C 166.793 1.13446 1.68101 0
M  V30 1751 C 167.126 -0.319628 1.91552 0
M  V30 1752 O 166.401 -1.23407 1.50336 0
M  V30 1753 C 166.684 1.91482 3.0497 0
M  V30 1754 C 166.537 3.44855 2.88782 0
M  V30 1755 C 167.856 1.71651 4.05246 0
M  V30 1756 H 164.975 0.413498 0.610072 0
M  V30 1757 H 167.617 1.56261 1.08086 0
M  V30 1758 H 165.767 1.55095 3.56199 0
M  V30 1759 H 167.439 3.9105 2.44698 0
M  V30 1760 H 165.682 3.71373 2.24198 0
M  V30 1761 H 166.353 3.94694 3.85902 0
M  V30 1762 H 168.829 2.0337 3.63015 0
M  V30 1763 H 167.705 2.28651 4.99009 0
M  V30 1764 H 167.966 0.663555 4.37092 0
M  V30 1765 N 167.025 -1.13721 1.09112 0
M  V30 1766 C 167.955 -2.21148 0.749385 0
M  V30 1767 C 168.936 -1.6792 -0.271475 0
M  V30 1768 O 170.121 -1.93693 -0.140251 0
M  V30 1769 C 167.251 -3.46905 0.165659 0
M  V30 1770 C 166.205 -4.13203 1.11567 0
M  V30 1771 C 165.531 -5.33248 0.393809 0
M  V30 1772 C 166.831 -4.60912 2.45678 0
M  V30 1773 H 168.525 -2.4999 1.64758 0
M  V30 1774 H 166.071 -1.20156 0.793626 0
M  V30 1775 H 168.024 -4.21313 -0.085466 0
M  V30 1776 H 166.748 -3.17449 -0.767714 0
M  V30 1777 H 165.407 -3.40758 1.35202 0
M  V30 1778 H 165.055 -5.00054 -0.543599 0
M  V30 1779 H 164.755 -5.78552 1.02721 0
M  V30 1780 H 166.279 -6.10413 0.150908 0
M  V30 1781 H 167.693 -5.26759 2.26269 0
M  V30 1782 H 166.09 -5.16944 3.04776 0
M  V30 1783 H 167.16 -3.75603 3.06677 0
M  V30 1784 N 168.503 -0.877838 -1.30888 0
M  V30 1785 C 169.413 -0.343096 -2.32078 0
M  V30 1786 C 170.429 0.551022 -1.65045 0
M  V30 1787 O 171.605 0.445854 -1.96403 0
M  V30 1788 C 168.67 0.439905 -3.43898 0
M  V30 1789 C 167.731 -0.483111 -4.26573 0
M  V30 1790 C 166.964 0.262616 -5.33053 0
M  V30 1791 O 167.187 1.48967 -5.50604 0
M  V30 1792 O 166.121 -0.383593 -6.00676 0
M  V30 1793 H 169.947 -1.18203 -2.79753 0
M  V30 1794 H 167.532 -0.64145 -1.34929 0
M  V30 1795 H 169.414 0.883504 -4.12034 0
M  V30 1796 H 168.089 1.25526 -2.98371 0
M  V30 1797 H 166.996 -0.975374 -3.61161 0
M  V30 1798 H 168.329 -1.26427 -4.75686 0
M  V30 1799 N 169.982 1.44106 -0.638065 0
M  V30 1800 C 170.912 2.33448 0.0494287 0
M  V30 1801 C 171.893 1.48606 0.827672 0
M  V30 1802 O 173.078 1.77308 0.792173 0
M  V30 1803 C 170.208 3.31771 1.02691 0
M  V30 1804 C 169.162 4.26485 0.359823 0
M  V30 1805 C 168.488 5.14729 1.44769 0
M  V30 1806 C 169.788 5.17056 -0.738296 0
M  V30 1807 H 171.482 2.91183 -0.696636 0
M  V30 1808 H 169.028 1.40014 -0.336456 0
M  V30 1809 H 170.981 3.93161 1.51666 0
M  V30 1810 H 169.705 2.7226 1.80395 0
M  V30 1811 H 168.364 3.66437 -0.10934 0
M  V30 1812 H 168.012 4.51566 2.21578 0
M  V30 1813 H 167.712 5.78913 1.00668 0
M  V30 1814 H 169.236 5.78991 1.93911 0
M  V30 1815 H 170.65 5.72342 -0.331354 0
M  V30 1816 H 169.047 5.89879 -1.10286 0
M  V30 1817 H 170.117 4.57652 -1.60258 0
M  V30 1818 N 171.46 0.379036 1.52974 0
M  V30 1819 C 172.408 -0.476033 2.27677 0
M  V30 1820 C 173.402 -1.0719 1.31174 0
M  V30 1821 O 174.608 -1.01355 1.48752 0
M  V30 1822 H 170.983 -0.172255 0.732006 0
M  V30 1823 H 172.954 0.175615 2.97883 0
M  V30 1824 C 171.703 -1.5967 3.0887 0
M  V30 1825 H 171.026 -1.1475 3.82978 0
M  V30 1826 H 172.466 -2.16943 3.64296 0
M  V30 1827 C 170.925 -2.54682 2.20542 0
M  V30 1828 O 171.455 -3.57836 1.82527 0
M  V30 1829 N 169.661 -2.24183 1.84907 0
M  V30 1830 H 169.208 -1.40333 2.1602 0
M  V30 1831 H 169.166 -2.88006 1.26096 0
M  V30 1832 N 172.938 -1.57226 0.108567 0
M  V30 1833 C 174.163 -1.99604 -0.563303 0
M  V30 1834 C 174.588 -0.987563 -1.6009 0
M  V30 1835 O 173.946 0.0421687 -1.81251 0
M  V30 1836 C 173.994 -3.40902 -1.17552 0
M  V30 1837 O 173.098 -3.42896 -2.2912 0
M  V30 1838 H 172.439 -0.648704 -0.1417 0
M  V30 1839 H 174.969 -2.03679 0.193961 0
M  V30 1840 H 174.979 -3.78886 -1.51357 0
M  V30 1841 H 173.654 -4.1382 -0.415445 0
M  V30 1842 H 172.231 -3.1672 -1.96832 0
M  V30 1843 N 174.416 0.165178 -1.56732 0
M  V30 1844 C 175.827 0.727046 -1.71962 0
M  V30 1845 C 176.178 1.82508 -0.720078 0
M  V30 1846 O 175.303 2.16082 0.117242 0
M  V30 1847 C 175.898 1.32559 -3.11791 0
M  V30 1848 C 174.457 1.83422 -3.28684 0
M  V30 1849 C 173.604 0.715567 -2.67908 0
M  V30 1850 H 176.555 -0.0602896 -1.58585 0
M  V30 1851 H 176.576 2.19533 -3.10782 0
M  V30 1852 H 176.088 0.526195 -3.84516 0
M  V30 1853 H 174.189 2.65986 -2.60926 0
M  V30 1854 H 174.302 1.97543 -4.36478 0
M  V30 1855 H 172.666 1.13758 -2.27884 0
M  V30 1856 H 173.449 -0.0720836 -3.43224 0
M  V30 1857 N 175.894 1.51508 0.433938 0
M  V30 1858 C 177.142 1.6402 1.18075 0
M  V30 1859 C 177.463 0.360328 1.91642 0
M  V30 1860 O 176.733 -0.623945 1.85698 0
M  V30 1861 H 175.313 0.6045 0.43885 0
M  V30 1862 H 177.975 1.88452 0.497178 0
M  V30 1863 H 177.071 2.46949 1.90847 0
M  V30 1864 N 177.372 -0.689602 1.41712 0
M  V30 1865 C 178.335 -1.78521 1.43746 0
M  V30 1866 C 179.335 -1.57436 0.327191 0
M  V30 1867 O 180.525 -1.64 0.587348 0
M  V30 1868 C 177.657 -3.16971 1.25467 0
M  V30 1869 H 178.85 -1.78108 2.41283 0
M  V30 1870 H 176.403 -0.89781 1.27942 0
M  V30 1871 H 177.138 -3.23019 0.287948 0
M  V30 1872 H 176.923 -3.33678 2.05917 0
M  V30 1873 H 178.413 -3.96935 1.2974 0
M  V30 1874 N 178.85 -1.27639 -0.924453 0
M  V30 1875 C 180.099 -1.13549 -1.66702 0
M  V30 1876 C 180.412 0.317487 -1.93006 0
M  V30 1877 O 181.618 0.579333 -2.65247 0
M  V30 1878 C 180.074 -1.98426 -3.00259 0
M  V30 1879 C 179.682 -3.484 -2.81641 0
M  V30 1880 C 181.426 -1.92993 -3.78092 0
M  V30 1881 C 179.333 -4.25464 -4.10773 0
M  V30 1882 H 178.263 -0.421351 -0.625283 0
M  V30 1883 H 180.914 -1.52085 -1.02676 0
M  V30 1884 H 179.296 -1.52736 -3.6536 0
M  V30 1885 H 180.47 -4.01973 -2.25287 0
M  V30 1886 H 178.785 -3.55245 -2.17232 0
M  V30 1887 H 181.382 -2.47844 -4.7379 0
M  V30 1888 H 181.725 -0.904281 -4.0636 0
M  V30 1889 H 182.258 -2.36595 -3.19793 0
M  V30 1890 H 178.997 -5.28566 -3.87683 0
M  V30 1891 H 178.517 -3.76667 -4.66779 0
M  V30 1892 H 180.196 -4.34812 -4.79111 0
M  V30 1893 N 180.328 1.1314 -1.09713 0
M  V30 1894 C 181.238 2.22242 -0.751367 0
M  V30 1895 C 182.254 1.72224 0.247938 0
M  V30 1896 O 183.43 2.01205 0.0885463 0
M  V30 1897 C 180.495 3.46231 -0.180274 0
M  V30 1898 C 179.556 4.11125 -1.2359 0
M  V30 1899 C 178.789 5.29195 -0.691966 0
M  V30 1900 O 179.012 5.68342 0.48414 0
M  V30 1901 O 177.946 5.84214 -1.44838 0
M  V30 1902 H 181.772 2.54197 -1.66186 0
M  V30 1903 H 179.357 1.21331 -0.871735 0
M  V30 1904 H 181.239 4.21185 0.134739 0
M  V30 1905 H 179.914 3.1597 0.703185 0
M  V30 1906 H 178.821 3.37985 -1.60366 0
M  V30 1907 H 180.154 4.45524 -2.09211 0
M  V30 1908 N 181.806 0.884767 1.30421 0
M  V30 1909 C 182.736 0.367574 2.30589 0
M  V30 1910 C 183.717 -0.549464 1.60981 0
M  V30 1911 O 184.902 -0.46336 1.88591 0
M  V30 1912 C 182.032 -0.418944 3.44764 0
M  V30 1913 C 180.986 0.406316 4.26067 0
M  V30 1914 C 180.312 -0.506793 5.32293 0
M  V30 1915 C 181.612 1.64832 4.95608 0
M  V30 1916 H 183.306 1.20462 2.74097 0
M  V30 1917 H 180.852 0.580695 1.31772 0
M  V30 1918 H 182.805 -0.791395 4.13902 0
M  V30 1919 H 181.529 -1.28964 3.0006 0
M  V30 1920 H 180.188 0.760903 3.58617 0
M  V30 1921 H 179.836 -1.37519 4.83836 0
M  V30 1922 H 179.536 0.0415828 5.87585 0
M  V30 1923 H 181.06 -0.875764 6.04287 0
M  V30 1924 H 182.474 1.34646 5.57264 0
M  V30 1925 H 180.871 2.13688 5.60765 0
M  V30 1926 H 181.941 2.39284 4.21748 0
M  V30 1927 N 183.284 -1.43765 0.645699 0
M  V30 1928 C 184.7 -1.56509 0.312591 0
M  V30 1929 C 184.9 -1.6307 -1.18365 0
M  V30 1930 O 183.956 -1.58167 -1.96824 0
M  V30 1931 C 185.269 -2.82968 1.01733 0
M  V30 1932 C 186.817 -2.96701 0.996865 0
M  V30 1933 C 187.292 -4.25982 1.68236 0
M  V30 1934 N 188.783 -4.32829 1.64964 0
M  V30 1935 C 189.518 -5.31613 2.14885 0
M  V30 1936 N 189.014 -6.36718 2.73061 0
M  V30 1937 N 190.807 -5.23217 2.05428 0
M  V30 1938 H 182.958 -1.3775 1.61675 0
M  V30 1939 H 185.221 -0.661067 0.679481 0
M  V30 1940 H 184.927 -2.84156 2.0724 0
M  V30 1941 H 184.801 -3.72957 0.564177 0
M  V30 1942 H 187.188 -2.95058 -0.0497719 0
M  V30 1943 H 187.269 -2.08022 1.48865 0
M  V30 1944 H 186.913 -4.28386 2.72852 0
M  V30 1945 H 186.843 -5.13545 1.16529 0
M  V30 1946 H 189.334 -3.57493 1.22503 0
M  V30 1947 H 189.647 -7.08401 3.08848 0
M  V30 1948 H 187.992 -6.37362 2.77118 0
M  V30 1949 H 191.183 -4.40019 1.59689 0
M  V30 1950 H 191.356 -6.00045 2.44643 0
M  V30 1951 N 184.763 -0.387143 -1.52771 0
M  V30 1952 C 185.991 0.195869 -2.05971 0
M  V30 1953 C 186.406 1.40691 -1.25903 0
M  V30 1954 O 185.763 1.79931 -0.305134 0
M  V30 1955 C 185.814 0.56812 -3.57008 0
M  V30 1956 O 185.535 -0.594803 -4.34043 0
M  V30 1957 C 187.036 1.20723 -4.26545 0
M  V30 1958 H 184.256 0.0300578 -0.670326 0
M  V30 1959 H 186.8 -0.551749 -1.96916 0
M  V30 1960 H 184.955 1.26564 -3.66143 0
M  V30 1961 H 185.369 -0.289322 -5.23701 0
M  V30 1962 H 186.843 1.41807 -5.33474 0
M  V30 1963 H 187.32 2.17395 -3.81623 0
M  V30 1964 H 187.926 0.550535 -4.21722 0
M  V30 1965 N 186.241 1.57166 -0.116904 0
M  V30 1966 C 187.481 1.97008 0.544715 0
M  V30 1967 C 187.845 0.998713 1.63981 0
M  V30 1968 O 189.046 1.28644 2.36018 0
M  V30 1969 C 187.317 3.41145 1.06559 0
M  V30 1970 S 188.876 4.02998 1.73603 0
M  V30 1971 H 185.694 0.688587 0.177112 0
M  V30 1972 H 188.296 1.94459 -0.201487 0
M  V30 1973 H 187 4.09592 0.257374 0
M  V30 1974 H 186.531 3.4734 1.84712 0
M  V30 1975 H 188.546 3.93585 3.02168 0
M  V30 1976 N 187.719 -0.156864 1.56817 0
M  V30 1977 C 188.959 -0.877453 1.84608 0
M  V30 1978 C 189.323 -1.78791 0.699845 0
M  V30 1979 O 190.524 -2.5472 0.858553 0
M  V30 1980 C 188.795 -1.63992 3.17555 0
M  V30 1981 S 190.354 -2.40729 3.66872 0
M  V30 1982 H 187.172 -0.293612 0.647544 0
M  V30 1983 H 189.774 -0.138099 1.95012 0
M  V30 1984 H 188.478 -0.962363 3.98957 0
M  V30 1985 H 188.009 -2.42038 3.10131 0
M  V30 1986 H 190.024 -3.65725 3.3535 0
M  V30 1987 N 189.197 -1.51736 -0.425897 0
M  V30 1988 C 190.422 -1.69082 -1.20108 0
M  V30 1989 C 190.847 -0.392398 -1.83962 0
M  V30 1990 O 190.205 0.64858 -1.69302 0
M  V30 1991 C 190.253 -2.81604 -2.25237 0
M  V30 1992 O 189.357 -2.46004 -3.30992 0
M  V30 1993 H 188.698 -0.563408 -0.35138 0
M  V30 1994 H 191.228 -1.98358 -0.501512 0
M  V30 1995 H 191.238 -3.06025 -2.69838 0
M  V30 1996 H 189.913 -3.75817 -1.78142 0
M  V30 1997 H 188.49 -2.32195 -2.91787 0
M  V30 1998 N 190.675 0.682077 -1.42076 0
M  V30 1999 C 192.086 1.26246 -1.37546 0
M  V30 2000 C 192.437 1.96092 -0.0651481 0
M  V30 2001 O 191.562 1.99587 0.836297 0
M  V30 2002 C 192.157 2.29594 -2.49143 0
M  V30 2003 C 190.716 2.83175 -2.47969 0
M  V30 2004 C 189.863 1.57395 -2.28303 0
M  V30 2005 H 192.814 0.475937 -1.51395 0
M  V30 2006 H 192.835 3.11175 -2.18976 0
M  V30 2007 H 192.347 1.78729 -3.44496 0
M  V30 2008 H 190.448 3.3818 -1.56413 0
M  V30 2009 H 190.561 3.32687 -3.44755 0
M  V30 2010 H 188.925 1.83699 -1.76428 0
M  V30 2011 H 189.708 1.08507 -3.25701 0
M  V30 2012 N 192.153 1.28127 0.917671 0
M  V30 2013 C 193.569 1.05749 1.19538 0
M  V30 2014 C 193.769 -0.202633 2.00479 0
M  V30 2015 O 192.825 -0.905382 2.3571 0
M  V30 2016 C 194.138 2.30273 1.93378 0
M  V30 2017 C 195.686 2.35412 2.06277 0
M  V30 2018 C 196.161 3.59692 2.83524 0
M  V30 2019 N 197.652 3.60309 2.91087 0
M  V30 2020 C 198.387 4.53147 3.51348 0
M  V30 2021 N 197.883 5.563 4.12919 0
M  V30 2022 N 199.676 4.40751 3.48849 0
M  V30 2023 H 191.827 2.09024 0.377184 0
M  V30 2024 H 194.09 0.919798 0.22951 0
M  V30 2025 H 193.796 3.22055 1.41328 0
M  V30 2026 H 193.67 2.36378 2.93947 0
M  V30 2027 H 196.057 1.4413 2.57508 0
M  V30 2028 H 196.138 2.33304 1.04895 0
M  V30 2029 H 195.782 4.51316 2.32973 0
M  V30 2030 H 195.712 3.59054 3.85211 0
M  V30 2031 H 198.203 2.85714 2.47338 0
M  V30 2032 H 198.516 6.2329 4.56869 0
M  V30 2033 H 196.861 5.60131 4.11435 0
M  V30 2034 H 200.052 3.59367 2.99955 0
M  V30 2035 H 200.225 5.13291 3.9552 0
M  V30 2036 N 193.631 -1.12557 1.10312 0
M  V30 2037 C 194.561 -2.20341 0.772798 0
M  V30 2038 C 195.542 -1.68198 -0.25365 0
M  V30 2039 O 196.727 -1.93831 -0.119699 0
M  V30 2040 C 193.857 -3.46709 0.202443 0
M  V30 2041 C 192.811 -4.11996 1.15943 0
M  V30 2042 C 192.137 -5.328 0.450345 0
M  V30 2043 C 193.437 -4.5828 2.50552 0
M  V30 2044 H 195.131 -2.48229 1.674 0
M  V30 2045 H 192.677 -1.19308 0.806326 0
M  V30 2046 H 194.63 -4.2138 -0.0407752 0
M  V30 2047 H 193.354 -3.18245 -0.734001 0
M  V30 2048 H 192.013 -3.39305 1.38808 0
M  V30 2049 H 191.661 -5.00602 -0.490531 0
M  V30 2050 H 191.361 -5.7743 1.08851 0
M  V30 2051 H 192.885 -6.10219 0.215642 0
M  V30 2052 H 194.299 -5.2433 2.31843 0
M  V30 2053 H 192.696 -5.13683 3.10242 0
M  V30 2054 H 193.766 -3.72329 3.10643 0
M  V30 2055 N 195.109 -0.891671 -1.2995 0
M  V30 2056 C 196.525 -0.58662 -1.48428 0
M  V30 2057 C 196.725 0.873951 -1.81561 0
M  V30 2058 O 195.781 1.65471 -1.90724 0
M  V30 2059 C 197.094 -1.50553 -2.60296 0
M  V30 2060 C 198.642 -1.50988 -2.74175 0
M  V30 2061 C 199.117 -2.41488 -3.89163 0
M  V30 2062 N 200.608 -2.39489 -3.96483 0
M  V30 2063 C 201.343 -3.06223 -4.84784 0
M  V30 2064 N 200.839 -3.82206 -5.77833 0
M  V30 2065 N 202.632 -2.95421 -4.78208 0
M  V30 2066 H 194.783 -1.83644 -1.06718 0
M  V30 2067 H 197.046 -0.786455 -0.529332 0
M  V30 2068 H 196.752 -2.54581 -2.42654 0
M  V30 2069 H 196.626 -1.22008 -3.56923 0
M  V30 2070 H 199.013 -0.47708 -2.91218 0
M  V30 2071 H 199.094 -1.83567 -1.78148 0
M  V30 2072 H 198.738 -3.44857 -3.72876 0
M  V30 2073 H 198.668 -2.06222 -4.84541 0
M  V30 2074 H 201.159 -1.84278 -3.29924 0
M  V30 2075 H 201.472 -4.302 -6.41988 0
M  V30 2076 H 199.817 -3.86313 -5.77743 0
M  V30 2077 H 203.008 -2.35581 -4.04499 0
M  V30 2078 H 203.181 -3.47704 -5.46814 0
M  V30 2079 N 196.587 1.43421 -0.653314 0
M  V30 2080 C 197.517 2.33487 0.0246656 0
M  V30 2081 C 198.498 1.49475 0.811863 0
M  V30 2082 O 199.683 1.78139 0.773322 0
M  V30 2083 C 196.813 3.32841 0.99166 0
M  V30 2084 C 195.767 4.26842 0.314568 0
M  V30 2085 C 195.093 5.16236 1.39302 0
M  V30 2086 C 196.393 5.16243 -0.793095 0
M  V30 2087 H 198.087 2.90427 -0.727481 0
M  V30 2088 H 195.633 1.39649 -0.351287 0
M  V30 2089 H 197.586 3.94747 1.47487 0
M  V30 2090 H 196.31 2.74158 1.77497 0
M  V30 2091 H 194.969 3.663 -0.148199 0
M  V30 2092 H 194.617 4.53891 2.16776 0
M  V30 2093 H 194.317 5.79948 0.945223 0
M  V30 2094 H 195.841 5.81015 1.87759 0
M  V30 2095 H 197.255 5.71958 -0.392039 0
M  V30 2096 H 195.652 5.88676 -1.16536 0
M  V30 2097 H 196.722 4.55927 -1.65103 0
M  V30 2098 N 198.065 0.39524 1.52563 0
M  V30 2099 C 198.995 -0.428384 2.29537 0
M  V30 2100 C 199.976 -1.05831 1.33169 0
M  V30 2101 O 201.161 -1.06995 1.62067 0
M  V30 2102 C 198.291 -1.55274 3.10656 0
M  V30 2103 C 197.245 -1.04855 4.14957 0
M  V30 2104 C 196.571 -2.26543 4.84337 0
M  V30 2105 C 197.871 -0.112324 5.22179 0
M  V30 2106 H 199.565 0.213867 2.98635 0
M  V30 2107 H 197.111 0.104298 1.43622 0
M  V30 2108 H 199.064 -2.1358 3.63265 0
M  V30 2109 H 197.788 -2.22266 2.39302 0
M  V30 2110 H 196.447 -0.487985 3.63338 0
M  V30 2111 H 196.095 -2.92059 4.09525 0
M  V30 2112 H 195.795 -1.93466 5.54837 0
M  V30 2113 H 197.319 -2.85481 5.39753 0
M  V30 2114 H 198.733 -0.603752 5.70112 0
M  V30 2115 H 197.13 0.128968 5.99961 0
M  V30 2116 H 198.2 0.837052 4.77621 0
M  V30 2117 N 199.544 -1.57102 0.125237 0
M  V30 2118 C 200.476 -2.12726 -0.853237 0
M  V30 2119 C 201.489 -1.07145 -1.22571 0
M  V30 2120 O 202.678 -1.34497 -1.17358 0
M  V30 2121 C 199.778 -2.61709 -2.15317 0
M  V30 2122 C 198.951 -3.91456 -1.95143 0
M  V30 2123 C 198.01 -4.25973 -3.08923 0
M  V30 2124 O 197.036 -4.94682 -2.81564 0
M  V30 2125 N 198.238 -3.83795 -4.35524 0
M  V30 2126 H 201.003 -2.97307 -0.377964 0
M  V30 2127 H 198.564 -1.61792 -0.0590011 0
M  V30 2128 H 200.556 -2.81826 -2.90441 0
M  V30 2129 H 199.126 -1.81974 -2.54174 0
M  V30 2130 H 198.346 -3.80185 -1.04177 0
M  V30 2131 H 199.634 -4.76283 -1.78976 0
M  V30 2132 H 199.032 -3.2839 -4.60626 0
M  V30 2133 H 197.589 -4.09008 -5.07499 0
M  V30 2134 N 201.022 0.148545 -1.56898 0
M  V30 2135 C 201.955 1.21293 -1.93296 0
M  V30 2136 C 202.933 1.41637 -0.798599 0
M  V30 2137 O 204.117 1.56275 -1.05406 0
M  V30 2138 C 201.244 2.5721 -2.20365 0
M  V30 2139 C 200.29 2.53469 -3.4301 0
M  V30 2140 S 201.123 2.00315 -4.96623 0
M  V30 2141 C 202.279 3.37964 -5.26812 0
M  V30 2142 H 202.512 0.902393 -2.83274 0
M  V30 2143 H 200.045 0.354094 -1.50285 0
M  V30 2144 H 202.003 3.35427 -2.36641 0
M  V30 2145 H 200.664 2.85454 -1.31054 0
M  V30 2146 H 199.857 3.53518 -3.59223 0
M  V30 2147 H 199.459 1.83359 -3.25968 0
M  V30 2148 H 201.751 4.34066 -5.20185 0
M  V30 2149 H 202.694 3.26606 -6.28279 0
M  V30 2150 H 203.102 3.35028 -4.54331 0
M  V30 2151 N 202.5 1.5196 0.417844 0
M  V30 2152 C 203.777 1.56146 1.17803 0
M  V30 2153 C 204.157 0.337275 2.08388 0
M  V30 2154 O 203.505 -0.676447 2.18258 0
M  V30 2155 C 203.715 2.88566 1.96293 0
M  V30 2156 C 205.063 3.41244 2.52662 0
M  V30 2157 O 206.087 2.90247 2.06483 0
M  V30 2158 O 204.946 4.30273 3.36938 0
M  V30 2159 H 202.04 0.628598 0.537395 0
M  V30 2160 H 204.586 1.64283 0.425331 0
M  V30 2161 H 203.358 3.69116 1.2988 0
M  V30 2162 H 202.981 2.83681 2.78587 0
M  V30 2163 N 203.978 -0.674533 1.42435 0
M  V30 2164 C 204.908 -1.80009 1.48724 0
M  V30 2165 C 205.889 -1.6659 0.343793 0
M  V30 2166 O 207.074 -1.86007 0.558137 0
M  V30 2167 C 204.204 -3.18306 1.38919 0
M  V30 2168 C 203.158 -3.46461 2.51294 0
M  V30 2169 C 202.484 -4.84335 2.26547 0
M  V30 2170 C 203.784 -3.43328 3.93603 0
M  V30 2171 H 205.478 -1.75004 2.42928 0
M  V30 2172 H 203.024 -0.840533 1.16923 0
M  V30 2173 H 204.977 -3.9678 1.41927 0
M  V30 2174 H 203.701 -3.2399 0.412094 0
M  V30 2175 H 202.36 -2.70348 2.47604 0
M  V30 2176 H 202.008 -4.86669 1.2713 0
M  V30 2177 H 201.708 -5.04136 3.01861 0
M  V30 2178 H 203.232 -5.65094 2.31304 0
M  V30 2179 H 204.646 -4.11772 3.98894 0
M  V30 2180 H 203.043 -3.74664 4.68771 0
M  V30 2181 H 204.113 -2.41897 4.20255 0
M  V30 2182 N 205.456 -1.28612 -0.910864 0
M  V30 2183 C 206.684 -1.18792 -1.69399 0
M  V30 2184 C 207.099 0.253039 -1.87097 0
M  V30 2185 O 206.456 1.17071 -1.40003 0
M  V30 2186 C 206.507 -1.88511 -3.08457 0
M  V30 2187 O 206.228 -3.26979 -2.91576 0
M  V30 2188 C 207.729 -1.85029 -4.02839 0
M  V30 2189 H 204.949 -0.412233 -0.529438 0
M  V30 2190 H 207.493 -1.69788 -1.13984 0
M  V30 2191 H 205.648 -1.41379 -3.60681 0
M  V30 2192 H 206.062 -3.61936 -3.79608 0
M  V30 2193 H 207.536 -2.38395 -4.97867 0
M  V30 2194 H 208.013 -0.823303 -4.31414 0
M  V30 2195 H 208.619 -2.31853 -3.56545 0
M  V30 2196 N 206.934 1.1197 -1.10907 0
M  V30 2197 C 207.881 2.17846 -0.762345 0
M  V30 2198 C 208.851 1.63995 0.263599 0
M  V30 2199 O 210.036 1.90273 0.141773 0
M  V30 2200 C 207.176 3.44487 -0.205651 0
M  V30 2201 C 206.289 4.12369 -1.28748 0
M  V30 2202 C 205.424 5.26674 -0.691919 0
M  V30 2203 C 204.463 5.86431 -1.75399 0
M  V30 2204 N 203.6 6.92142 -1.17833 0
M  V30 2205 H 208.44 2.46851 -1.6694 0
M  V30 2206 H 205.977 1.21188 -0.833776 0
M  V30 2207 H 207.935 4.16981 0.135037 0
M  V30 2208 H 206.565 3.15884 0.664613 0
M  V30 2209 H 205.617 3.38003 -1.74522 0
M  V30 2210 H 206.929 4.52844 -2.09125 0
M  V30 2211 H 206.083 6.05953 -0.300963 0
M  V30 2212 H 204.822 4.8749 0.143232 0
M  V30 2213 H 203.827 5.05835 -2.15432 0
M  V30 2214 H 205.052 6.27685 -2.59208 0
M  V30 2215 H 202.998 6.54985 -0.364725 0
M  V30 2216 H 202.915 7.31242 -1.91887 0
M  V30 2217 H 204.183 7.75237 -0.81408 0
M  V30 2218 N 208.412 0.89855 1.29475 0
M  V30 2219 C 209.823 0.572537 1.77705 0
M  V30 2220 C 210.174 -0.911778 1.73727 0
M  V30 2221 O 209.299 -1.71288 1.32247 0
M  V30 2222 C 209.894 1.03252 3.22683 0
M  V30 2223 C 208.453 0.757687 3.68695 0
M  V30 2224 C 207.6 1.20787 2.49612 0
M  V30 2225 H 210.551 1.08139 1.16153 0
M  V30 2226 H 210.572 0.367307 3.78723 0
M  V30 2227 H 210.084 2.11285 3.25546 0
M  V30 2228 H 208.185 -0.310079 3.71308 0
M  V30 2229 H 208.298 1.35476 4.59547 0
M  V30 2230 H 206.662 0.626888 2.46865 0
M  V30 2231 H 207.445 2.29622 2.55203 0
M  V30 2232 N 209.89 -1.43072 0.660911 0
M  V30 2233 C 211.138 -2.01323 0.177094 0
M  V30 2234 C 211.459 -1.5245 -1.2159 0
M  V30 2235 O 210.729 -0.740322 -1.81373 0
M  V30 2236 H 209.309 -0.744382 0.0624804 0
M  V30 2237 H 211.971 -1.75179 0.854305 0
M  V30 2238 H 211.067 -3.11649 0.167641 0
M  V30 2239 N 211.368 -0.403325 -1.52352 0
M  V30 2240 C 212.645 0.232611 -1.94212 0
M  V30 2241 C 213.025 1.63133 -1.33981 0
M  V30 2242 O 212.373 2.22659 -0.513344 0
M  V30 2243 C 212.583 0.244811 -3.4814 0
M  V30 2244 C 213.931 0.46698 -4.22024 0
M  V30 2245 O 214.955 0.324419 -3.5472 0
M  V30 2246 O 213.814 0.74747 -5.41364 0
M  V30 2247 H 210.908 0.148223 -0.813609 0
M  V30 2248 H 213.454 -0.458848 -1.63379 0
M  V30 2249 H 212.226 -0.734378 -3.84347 0
M  V30 2250 H 211.849 0.980611 -3.85318 0
M  V30 2251 N 212.846 1.57033 -0.133567 0
M  V30 2252 C 214.095 1.94861 0.520768 0
M  V30 2253 C 214.408 1.02012 1.66892 0
M  V30 2254 O 215.614 1.29365 2.38699 0
M  V30 2255 C 214.07 3.46362 0.977809 0
M  V30 2256 C 213.678 4.47773 -0.142674 0
M  V30 2257 C 215.422 3.93083 1.60269 0
M  V30 2258 C 213.329 5.90468 0.331883 0
M  V30 2259 H 212.259 0.727453 0.198315 0
M  V30 2260 H 214.91 1.82227 -0.215759 0
M  V30 2261 H 213.292 3.54282 1.7692 0
M  V30 2262 H 214.466 4.51536 -0.919317 0
M  V30 2263 H 212.781 4.10891 -0.675124 0
M  V30 2264 H 215.378 4.97121 1.96914 0
M  V30 2265 H 215.721 3.33876 2.48662 0
M  V30 2266 H 216.254 3.88025 0.876453 0
M  V30 2267 H 212.993 6.53463 -0.516341 0
M  V30 2268 H 212.513 5.90094 1.07469 0
M  V30 2269 H 214.192 6.42179 0.788332 0
M  V30 2270 N 214.325 -0.140222 1.56975 0
M  V30 2271 C 215.55 -0.870414 1.88251 0
M  V30 2272 C 215.975 -1.73637 0.723312 0
M  V30 2273 O 215.333 -1.78329 -0.32689 0
M  V30 2274 C 215.381 -1.69737 3.18154 0
M  V30 2275 O 214.485 -2.80229 3.02565 0
M  V30 2276 H 213.826 -0.242025 0.61832 0
M  V30 2277 H 216.356 -0.128999 2.04193 0
M  V30 2278 H 216.366 -2.09099 3.50345 0
M  V30 2279 H 215.041 -1.06152 4.02125 0
M  V30 2280 H 213.618 -2.44224 2.81796 0
M  V30 2281 N 215.803 -1.52179 -0.40978 0
M  V30 2282 C 217.219 -1.40968 -0.74835 0
M  V30 2283 C 217.419 -0.513657 -1.94843 0
M  V30 2284 O 216.475 0.0208026 -2.52491 0
M  V30 2285 C 217.788 -2.83483 -1.0029 0
M  V30 2286 C 219.336 -2.92821 -1.10565 0
M  V30 2287 C 219.811 -4.36303 -1.39296 0
M  V30 2288 N 221.302 -4.39535 -1.46162 0
M  V30 2289 C 222.037 -5.47614 -1.70018 0
M  V30 2290 N 221.533 -6.65812 -1.91483 0
M  V30 2291 N 223.326 -5.35129 -1.72027 0
M  V30 2292 H 215.477 -2.0897 0.380186 0
M  V30 2293 H 217.74 -0.94185 0.107805 0
M  V30 2294 H 217.446 -3.51168 -0.193461 0
M  V30 2295 H 217.32 -3.24487 -1.92323 0
M  V30 2296 H 219.707 -2.25318 -1.90568 0
M  V30 2297 H 219.788 -2.55276 -0.16369 0
M  V30 2298 H 219.432 -5.04366 -0.598109 0
M  V30 2299 H 219.362 -4.71385 -2.34743 0
M  V30 2300 H 221.853 -3.54332 -1.31367 0
M  V30 2301 H 222.166 -7.43964 -2.09134 0
M  V30 2302 H 220.511 -6.68879 -1.88749 0
M  V30 2303 H 223.702 -4.41764 -1.54796 0
M  V30 2304 H 223.875 -6.19433 -1.9028 0
M  V30 2305 N 217.281 0.66697 -1.42791 0
M  V30 2306 C 218.527 1.4291 -1.43891 0
M  V30 2307 C 218.86 1.94114 -0.0578972 0
M  V30 2308 O 218.135 1.71414 0.91911 0
M  V30 2309 C 218.418 2.62049 -2.46987 0
M  V30 2310 C 218.271 2.16426 -3.94309 0
M  V30 2311 C 219.59 3.64266 -2.46978 0
M  V30 2312 H 216.709 0.518306 -0.523954 0
M  V30 2313 H 219.351 0.757321 -1.74255 0
M  V30 2314 H 217.501 3.19361 -2.21225 0
M  V30 2315 H 219.173 1.64221 -4.31079 0
M  V30 2316 H 217.416 1.47925 -4.078 0
M  V30 2317 H 218.087 3.02038 -4.62036 0
M  V30 2318 H 220.563 3.16686 -2.69906 0
M  V30 2319 H 219.439 4.45196 -3.21079 0
M  V30 2320 H 219.7 4.15927 -1.49857 0
M  V30 2321 N 218.759 1.29093 0.90403 0
M  V30 2322 C 219.689 1.16401 2.02418 0
M  V30 2323 C 220.67 0.0593085 1.69997 0
M  V30 2324 O 221.855 0.238021 1.92736 0
M  V30 2325 C 218.985 0.835233 3.37107 0
M  V30 2326 C 217.939 1.89578 3.83724 0
M  V30 2327 C 217.265 1.42041 5.15489 0
M  V30 2328 C 218.565 3.30394 4.04521 0
M  V30 2329 H 220.259 2.10109 2.13295 0
M  V30 2330 H 217.805 1.01157 1.02486 0
M  V30 2331 H 219.758 0.733169 4.14973 0
M  V30 2332 H 218.482 -0.137543 3.2631 0
M  V30 2333 H 217.141 1.98715 3.08071 0
M  V30 2334 H 216.789 0.436426 5.01103 0
M  V30 2335 H 216.489 2.12964 5.4765 0
M  V30 2336 H 218.013 1.33176 5.959 0
M  V30 2337 H 219.427 3.24123 4.72882 0
M  V30 2338 H 217.824 3.99237 4.48029 0
M  V30 2339 H 218.894 3.73692 3.09002 0
M  V30 2340 N 220.237 -1.11381 1.11499 0
M  V30 2341 C 221.147 -2.21019 0.786628 0
M  V30 2342 C 222.163 -1.72597 -0.220507 0
M  V30 2343 O 223.339 -2.01321 -0.0565251 0
M  V30 2344 C 220.404 -3.459 0.235333 0
M  V30 2345 C 219.465 -4.09107 1.30115 0
M  V30 2346 C 218.698 -5.28027 0.776068 0
M  V30 2347 O 218.921 -5.6904 -0.393661 0
M  V30 2348 O 217.855 -5.81835 1.54114 0
M  V30 2349 H 221.681 -2.51521 1.70209 0
M  V30 2350 H 219.266 -1.19928 0.890928 0
M  V30 2351 H 221.148 -4.21346 -0.067715 0
M  V30 2352 H 219.823 -3.17049 -0.652828 0
M  V30 2353 H 218.73 -3.35391 1.65722 0
M  V30 2354 H 220.063 -4.42139 2.16273 0
M  V30 2355 N 221.715 -0.905404 -1.28997 0
M  V30 2356 C 222.962 -0.534248 -1.95325 0
M  V30 2357 C 223.29 0.920535 -1.71337 0
M  V30 2358 O 222.545 1.66861 -1.02254 0
M  V30 2359 C 222.844 -0.779906 -3.48787 0
M  V30 2360 C 222.51 -2.21293 -3.92861 0
M  V30 2361 C 221.172 -2.60475 -4.04606 0
M  V30 2362 C 223.524 -3.14587 -4.15553 0
M  V30 2363 C 220.852 -3.9212 -4.36416 0
M  V30 2364 C 223.204 -4.45787 -4.48839 0
M  V30 2365 C 221.868 -4.84834 -4.58794 0
M  V30 2366 H 221.138 -0.195495 -0.714747 0
M  V30 2367 H 223.785 -1.14514 -1.53488 0
M  V30 2368 H 222.09 -0.0861365 -3.91705 0
M  V30 2369 H 223.787 -0.472029 -3.98212 0
M  V30 2370 H 220.377 -1.89887 -3.84241 0
M  V30 2371 H 224.561 -2.85528 -4.0594 0
M  V30 2372 H 219.817 -4.22086 -4.42327 0
M  V30 2373 H 223.991 -5.18098 -4.65346 0
M  V30 2374 H 221.618 -5.86877 -4.83197 0
M  V30 2375 N 223.193 1.4272 -0.668489 0
M  V30 2376 C 224.421 2.05966 -0.196348 0
M  V30 2377 C 224.836 1.50191 1.14403 0
M  V30 2378 O 224.193 0.639208 1.7094 0
M  V30 2379 C 224.244 3.61314 -0.115815 0
M  V30 2380 O 223.965 4.1502 -1.40322 0
M  V30 2381 C 225.466 4.41663 0.380579 0
M  V30 2382 H 222.686 0.663954 -0.0969829 0
M  V30 2383 H 225.23 1.82966 -0.913446 0
M  V30 2384 H 223.385 3.83448 0.551931 0
M  V30 2385 H 223.799 5.08832 -1.27243 0
M  V30 2386 H 225.273 5.5065 0.385848 0
M  V30 2387 H 225.75 4.15792 1.41471 0
M  V30 2388 H 226.356 4.24534 -0.255209 0
M  V30 2389 N 224.671 0.411399 1.52136 0
M  V30 2390 C 225.618 -0.412975 2.27075 0
M  V30 2391 C 226.588 -1.03912 1.29582 0
M  V30 2392 O 227.773 -1.06296 1.58448 0
M  V30 2393 C 224.913 -1.52247 3.09701 0
M  V30 2394 C 224.026 -0.917021 4.22155 0
M  V30 2395 C 223.161 -1.9994 4.92135 0
M  V30 2396 C 222.2 -1.37101 5.96548 0
M  V30 2397 N 221.337 -2.39364 6.60038 0
M  V30 2398 H 226.177 0.232499 2.97092 0
M  V30 2399 H 223.714 0.126496 1.46555 0
M  V30 2400 H 225.672 -2.17674 3.55913 0
M  V30 2401 H 224.302 -2.13794 2.41851 0
M  V30 2402 H 223.354 -0.151742 3.80097 0
M  V30 2403 H 224.666 -0.418006 4.97045 0
M  V30 2404 H 223.82 -2.73088 5.41763 0
M  V30 2405 H 222.559 -2.53208 4.16818 0
M  V30 2406 H 221.564 -0.624873 5.46237 0
M  V30 2407 H 222.789 -0.845998 6.7381 0
M  V30 2408 H 220.735 -2.91759 5.87548 0
M  V30 2409 H 220.652 -1.9428 7.3061 0
M  V30 2410 H 221.92 -3.12074 7.14304 0
M  V30 2411 N 226.149 -1.5696 0.141893 0
M  V30 2412 C 227.112 -2.15316 -0.785587 0
M  V30 2413 C 228.112 -1.09366 -1.1788 0
M  V30 2414 O 229.302 -1.35031 -1.10056 0
M  V30 2415 C 226.434 -2.71211 -2.06537 0
M  V30 2416 H 227.627 -2.98608 -0.278041 0
M  V30 2417 H 225.18 -1.5593 -0.107519 0
M  V30 2418 H 225.915 -1.91571 -2.6167 0
M  V30 2419 H 225.7 -3.4872 -1.79268 0
M  V30 2420 H 227.19 -3.16189 -2.72789 0
M  V30 2421 N 227.627 0.131896 -1.57047 0
M  V30 2422 C 228.577 1.1679 -1.95816 0
M  V30 2423 C 229.561 1.37756 -0.831393 0
M  V30 2424 O 230.753 1.39065 -1.09499 0
M  V30 2425 C 227.882 2.49778 -2.35512 0
M  V30 2426 C 226.968 2.32342 -3.54793 0
M  V30 2427 N 227.359 1.8469 -4.70875 0
M  V30 2428 C 225.657 2.63043 -3.60173 0
M  V30 2429 C 226.358 1.80656 -5.52936 0
M  V30 2430 N 225.334 2.24528 -4.95064 0
M  V30 2431 H 229.136 0.791818 -2.83033 0
M  V30 2432 H 226.65 0.339791 -1.58805 0
M  V30 2433 H 228.647 3.24692 -2.61498 0
M  V30 2434 H 227.307 2.88156 -1.49654 0
M  V30 2435 H 228.318 1.54429 -4.9434 0
M  V30 2436 H 224.995 3.05193 -2.84892 0
M  V30 2437 H 226.385 1.45178 -6.56028 0
M  V30 2438 N 229.106 1.52395 0.401703 0
M  V30 2439 C 230.334 1.70676 1.16949 0
M  V30 2440 C 230.749 0.419503 1.8408 0
M  V30 2441 O 230.106 -0.605061 1.72178 0
M  V30 2442 C 230.157 2.84753 2.22706 0
M  V30 2443 O 229.878 4.08495 1.58314 0
M  V30 2444 C 231.379 3.14608 3.12309 0
M  V30 2445 H 228.599 0.571787 0.351142 0
M  V30 2446 H 231.143 1.98987 0.471652 0
M  V30 2447 H 229.298 2.58941 2.88147 0
M  V30 2448 H 229.712 4.72117 2.28485 0
M  V30 2449 H 231.186 3.97923 3.82572 0
M  V30 2450 H 231.663 2.28464 3.75101 0
M  V30 2451 H 232.269 3.42212 2.52529 0
M  V30 2452 N 230.584 -0.659388 1.43143 0
M  V30 2453 C 231.812 -1.44723 1.47861 0
M  V30 2454 C 232.227 -1.88563 0.0945886 0
M  V30 2455 O 231.584 -1.59108 -0.893915 0
M  V30 2456 C 231.635 -2.68627 2.41913 0
M  V30 2457 O 231.356 -2.26623 3.74932 0
M  V30 2458 C 232.857 -3.62045 2.55809 0
M  V30 2459 H 230.077 -0.444801 0.502387 0
M  V30 2460 H 232.621 -0.808916 1.87821 0
M  V30 2461 H 230.776 -3.28613 2.05164 0
M  V30 2462 H 231.19 -3.06745 4.2545 0
M  V30 2463 H 232.664 -4.45666 3.25708 0
M  V30 2464 H 233.141 -4.08981 1.60099 0
M  V30 2465 H 233.747 -3.07944 2.93344 0
M  V30 2466 N 232.062 -1.29571 -0.897171 0
M  V30 2467 C 233.287 -1.20705 -1.68656 0
M  V30 2468 C 233.712 0.228582 -1.86706 0
M  V30 2469 O 233.07 1.16494 -1.3892 0
M  V30 2470 C 233.118 -1.9282 -3.04717 0
M  V30 2471 O 232.222 -1.24697 -3.93096 0
M  V30 2472 H 231.563 -0.418126 -0.515816 0
M  V30 2473 H 234.093 -1.71183 -1.12061 0
M  V30 2474 H 234.103 -2.01372 -3.54843 0
M  V30 2475 H 232.778 -2.97239 -2.90899 0
M  V30 2476 H 231.355 -1.2442 -3.51531 0
M  V30 2477 N 233.54 1.10788 -1.12088 0
M  V30 2478 C 234.768 1.86461 -0.896651 0
M  V30 2479 C 235.183 1.80492 0.553912 0
M  V30 2480 O 234.54 1.19102 1.38278 0
M  V30 2481 C 234.591 3.35006 -1.35843 0
M  V30 2482 O 234.312 3.40866 -2.75213 0
M  V30 2483 C 235.813 4.27565 -1.1706 0
M  V30 2484 H 233.033 0.589425 -0.320654 0
M  V30 2485 H 235.577 1.40076 -1.48993 0
M  V30 2486 H 233.732 3.7887 -0.808458 0
M  V30 2487 H 234.146 4.33411 -2.9539 0
M  V30 2488 H 235.62 5.30007 -1.54263 0
M  V30 2489 H 236.097 4.3906 -0.110814 0
M  V30 2490 H 236.703 3.89501 -1.70789 0
M  V30 2491 N 235.018 0.912232 1.28515 0
M  V30 2492 C 236.266 0.543523 1.94654 0
M  V30 2493 C 236.587 -0.9155 1.72173 0
M  V30 2494 O 235.857 -1.64708 1.06058 0
M  V30 2495 H 234.437 0.198017 0.720277 0
M  V30 2496 H 237.099 1.16126 1.56527 0
M  V30 2497 H 236.195 0.736684 3.03281 0
M  V30 2498 N 236.496 -1.42363 0.676048 0
M  V30 2499 C 237.426 -2.33497 0.0124832 0
M  V30 2500 C 238.407 -1.50748 -0.787981 0
M  V30 2501 O 239.592 -1.79346 -0.744884 0
M  V30 2502 C 236.722 -3.34377 -0.938582 0
M  V30 2503 C 235.676 -4.27289 -0.246622 0
M  V30 2504 C 235.002 -5.18386 -1.31071 0
M  V30 2505 C 236.302 -5.14916 0.875125 0
M  V30 2506 H 237.996 -2.89233 0.773593 0
M  V30 2507 H 235.542 -1.39073 0.37346 0
M  V30 2508 H 237.495 -3.97044 -1.41188 0
M  V30 2509 H 236.219 -2.76947 -1.73113 0
M  V30 2510 H 234.878 -3.66018 0.206456 0
M  V30 2511 H 234.526 -4.57282 -2.09528 0
M  V30 2512 H 234.226 -5.81378 -0.852839 0
M  V30 2513 H 235.75 -5.83929 -1.78492 0
M  V30 2514 H 237.164 -5.71262 0.482983 0
M  V30 2515 H 235.561 -5.86747 1.25887 0
M  V30 2516 H 236.631 -4.53242 1.72335 0
M  V30 2517 N 237.974 -0.419461 -1.51915 0
M  V30 2518 C 239.22 0.145505 -2.02879 0
M  V30 2519 C 239.575 1.41926 -1.29903 0
M  V30 2520 O 238.868 1.87383 -0.399782 0
M  V30 2521 C 239.062 0.437067 -3.54717 0
M  V30 2522 C 238.891 -0.806877 -4.42402 0
M  V30 2523 C 237.661 -1.33514 -4.87342 0
M  V30 2524 C 239.859 -1.68796 -4.85811 0
M  V30 2525 N 237.841 -2.53349 -5.59185 0
M  V30 2526 C 239.212 -2.73247 -5.56539 0
M  V30 2527 C 241.267 -1.70449 -4.67816 0
M  V30 2528 C 239.97 -3.79276 -6.11181 0
M  V30 2529 C 241.996 -2.75403 -5.23361 0
M  V30 2530 C 241.358 -3.78575 -5.9402 0
M  V30 2531 H 237.457 0.0145424 -0.781865 0
M  V30 2532 H 240.041 -0.576126 -1.85981 0
M  V30 2533 H 238.212 1.12774 -3.71667 0
M  V30 2534 H 239.944 0.99182 -3.92358 0
M  V30 2535 H 236.699 -0.891657 -4.65131 0
M  V30 2536 H 237.123 -3.14066 -5.99743 0
M  V30 2537 H 241.765 -0.920209 -4.12664 0
M  V30 2538 H 239.483 -4.58554 -6.65397 0
M  V30 2539 H 243.069 -2.77603 -5.113 0
M  V30 2540 H 241.949 -4.58453 -6.36231 0
M  V30 2541 N 239.452 1.56882 -0.150215 0
M  V30 2542 C 240.7 1.9584 0.499105 0
M  V30 2543 C 241.021 1.03623 1.65188 0
M  V30 2544 O 240.291 0.0984084 1.95653 0
M  V30 2545 H 238.871 0.723119 0.187373 0
M  V30 2546 H 241.533 1.9358 -0.226466 0
M  V30 2547 H 240.629 2.99638 0.873122 0
M  V30 2548 N 240.93 -0.123565 1.57115 0
M  V30 2549 C 241.86 -1.15309 2.03042 0
M  V30 2550 C 242.841 -1.43454 0.914061 0
M  V30 2551 O 244.026 -1.53973 1.18347 0
M  V30 2552 C 241.156 -2.48043 2.43089 0
M  V30 2553 C 240.11 -2.3437 3.58127 0
M  V30 2554 C 239.436 -3.72026 3.84059 0
M  V30 2555 C 240.736 -1.80804 4.90007 0
M  V30 2556 H 242.43 -0.771102 2.893 0
M  V30 2557 H 239.976 -0.369479 1.39179 0
M  V30 2558 H 241.929 -3.20311 2.73823 0
M  V30 2559 H 240.653 -2.88122 1.53796 0
M  V30 2560 H 239.312 -1.64551 3.27595 0
M  V30 2561 H 238.96 -4.09582 2.91979 0
M  V30 2562 H 238.66 -3.63732 4.6149 0
M  V30 2563 H 240.184 -4.45806 4.1724 0
M  V30 2564 H 241.598 -2.42886 5.19307 0
M  V30 2565 H 239.995 -1.83343 5.71407 0
M  V30 2566 H 241.065 -0.76528 4.78823 0
M  V30 2567 N 242.408 -1.52605 -0.393616 0
M  V30 2568 C 243.654 -1.67672 -1.14079 0
M  V30 2569 C 243.987 -0.413121 -1.89755 0
M  V30 2570 O 243.262 0.588952 -1.85369 0
M  V30 2571 C 243.545 -2.9088 -2.12276 0
M  V30 2572 C 243.398 -4.27329 -1.40394 0
M  V30 2573 C 244.717 -3.09628 -3.12759 0
M  V30 2574 H 241.836 -0.610168 -0.413356 0
M  V30 2575 H 244.478 -1.85193 -0.424696 0
M  V30 2576 H 242.628 -2.76073 -2.73342 0
M  V30 2577 H 244.3 -4.53894 -0.82327 0
M  V30 2578 H 242.543 -4.2802 -0.705801 0
M  V30 2579 H 243.214 -5.09615 -2.12123 0
M  V30 2580 H 245.69 -3.23436 -2.61779 0
M  V30 2581 H 244.566 -3.97322 -3.78717 0
M  V30 2582 H 244.827 -2.23637 -3.81365 0
M  V30 2583 N 243.887 0.651787 -1.4349 0
M  V30 2584 C 244.835 1.78586 -1.49029 0
M  V30 2585 C 245.829 1.65448 -0.363767 0
M  V30 2586 O 247.035 1.71777 -0.537821 0
M  V30 2587 H 243.41 0.589236 -0.467231 0
M  V30 2588 H 245.381 1.71035 -2.44519 0
M  V30 2589 C 244.13 3.16851 -1.43181 0
M  V30 2590 H 243.453 3.27598 -2.29171 0
M  V30 2591 H 244.893 3.96156 -1.51118 0
M  V30 2592 C 243.352 3.36568 -0.149616 0
M  V30 2593 O 243.882 3.93885 0.788509 0
M  V30 2594 N 242.088 2.90539 -0.0593484 0
M  V30 2595 H 241.635 2.4408 -0.823575 0
M  V30 2596 H 241.593 3.04108 0.797853 0
M  V30 2597 N 245.365 1.30045 0.890287 0
M  V30 2598 C 246.313 1.15873 2.01683 0
M  V30 2599 C 247.307 0.0719403 1.69247 0
M  V30 2600 O 248.513 0.232414 1.78493 0
M  V30 2601 H 244.888 0.358203 0.661207 0
M  V30 2602 H 246.859 2.11229 2.10772 0
M  V30 2603 C 245.608 0.861842 3.36849 0
M  V30 2604 H 244.931 1.69016 3.62317 0
M  V30 2605 H 246.371 0.802762 4.16331 0
M  V30 2606 C 244.83 -0.435132 3.34078 0
M  V30 2607 O 245.36 -1.4583 3.74295 0
M  V30 2608 N 243.566 -0.444377 2.87182 0
M  V30 2609 H 243.113 0.388723 2.5465 0
M  V30 2610 H 243.071 -1.31213 2.85711 0
M  V30 2611 N 246.843 -1.10192 1.12674 0
M  V30 2612 C 247.806 -2.14786 0.799979 0
M  V30 2613 C 248.806 -1.59711 -0.18685 0
M  V30 2614 O 249.996 -1.74156 0.0392558 0
M  V30 2615 C 247.128 -3.40374 0.189228 0
M  V30 2616 H 248.321 -2.45203 1.72671 0
M  V30 2617 H 245.874 -1.25597 0.930326 0
M  V30 2618 H 246.609 -3.15577 -0.747107 0
M  V30 2619 H 246.394 -3.81637 0.899766 0
M  V30 2620 H 247.884 -4.17594 -0.0228143 0
M  V30 2621 N 248.321 -0.919034 -1.28029 0
M  V30 2622 C 249.569 -0.553838 -1.94363 0
M  V30 2623 C 249.89 0.906357 -1.72656 0
M  V30 2624 O 249.16 1.64143 -1.0693 0
M  V30 2625 H 247.74 -0.201834 -0.719216 0
M  V30 2626 H 250.402 -1.16954 -1.55909 0
M  V30 2627 H 249.498 -0.752758 -3.02886 0
M  V30 2628 N 249.799 1.42003 -0.683588 0
M  V30 2629 C 250.749 2.27997 0.0121992 0
M  V30 2630 C 251.733 1.4156 0.764822 0
M  V30 2631 O 252.925 1.64935 0.642287 0
M  V30 2632 C 250.054 3.29706 0.956482 0
M  V30 2633 C 249.14 4.23625 0.200739 0
M  V30 2634 N 249.531 4.99448 -0.799087 0
M  V30 2635 C 247.829 4.43845 0.437937 0
M  V30 2636 C 248.53 5.68102 -1.25041 0
M  V30 2637 N 247.506 5.40511 -0.578648 0
M  V30 2638 H 251.308 2.84048 -0.754564 0
M  V30 2639 H 248.822 1.54071 -0.513398 0
M  V30 2640 H 250.819 3.90124 1.47 0
M  V30 2641 H 249.479 2.75216 1.72297 0
M  V30 2642 H 250.49 5.04303 -1.17893 0
M  V30 2643 H 247.167 4.00382 1.18325 0
M  V30 2644 H 248.557 6.38913 -2.07942 0
M  V30 2645 N 251.277 0.427512 1.51691 0
M  V30 2646 C 252.225 -0.403359 2.29076 0
M  V30 2647 C 253.219 -1.02962 1.34518 0
M  V30 2648 O 254.425 -0.965715 1.51901 0
M  V30 2649 H 250.8 -0.148879 0.737115 0
M  V30 2650 H 252.771 0.270295 2.97173 0
M  V30 2651 C 251.52 -1.49763 3.13794 0
M  V30 2652 H 250.843 -1.02508 3.86435 0
M  V30 2653 H 252.283 -2.05244 3.71014 0
M  V30 2654 C 250.742 -2.47536 2.28533 0
M  V30 2655 O 251.272 -3.51848 1.93819 0
M  V30 2656 N 249.478 -2.18187 1.91945 0
M  V30 2657 H 249.025 -1.33389 2.20375 0
M  V30 2658 H 248.983 -2.83848 1.35195 0
M  V30 2659 N 252.755 -1.56801 0.158532 0
M  V30 2660 C 253.665 -2.20916 -0.789518 0
M  V30 2661 C 254.681 -1.1969 -1.26294 0
M  V30 2662 O 255.857 -1.52308 -1.31773 0
M  V30 2663 C 252.922 -2.82727 -2.00665 0
M  V30 2664 C 251.983 -3.99114 -1.58134 0
M  V30 2665 C 251.216 -4.57968 -2.74045 0
M  V30 2666 O 251.439 -4.15704 -3.90572 0
M  V30 2667 O 250.373 -5.48047 -2.48855 0
M  V30 2668 H 254.199 -3.02464 -0.273681 0
M  V30 2669 H 251.784 -1.4924 -0.0690548 0
M  V30 2670 H 253.666 -3.21968 -2.71872 0
M  V30 2671 H 252.341 -2.04184 -2.51179 0
M  V30 2672 H 251.248 -3.64567 -0.839155 0
M  V30 2673 H 252.581 -4.79212 -1.12325 0
M  V30 2674 N 254.233 0.115231 -1.57178 0
M  V30 2675 C 255.479 0.82357 -1.85325 0
M  V30 2676 C 255.812 1.79349 -0.744814 0
M  V30 2677 O 255.087 1.92899 0.249024 0
M  V30 2678 C 255.37 1.57014 -3.24066 0
M  V30 2679 C 255.223 0.619565 -4.45513 0
M  V30 2680 C 256.542 2.52545 -3.60429 0
M  V30 2681 H 253.661 0.297948 -0.674089 0
M  V30 2682 H 256.303 0.0877138 -1.89797 0
M  V30 2683 H 254.453 2.19742 -3.20383 0
M  V30 2684 H 256.125 0.000837639 -4.613 0
M  V30 2685 H 254.368 -0.0686174 -4.33746 0
M  V30 2686 H 255.039 1.17866 -5.3927 0
M  V30 2687 H 257.515 1.9992 -3.64926 0
M  V30 2688 H 256.391 3.01811 -4.58477 0
M  V30 2689 H 256.652 3.35383 -2.88047 0
M  V30 2690 N 255.711 1.52812 0.385517 0
M  V30 2691 C 256.957 1.68275 1.13188 0
M  V30 2692 C 257.29 0.423179 1.89533 0
M  V30 2693 O 256.565 -0.579113 1.85679 0
M  V30 2694 C 256.848 2.92001 2.1073 0
M  V30 2695 C 256.701 4.28067 1.38125 0
M  V30 2696 C 258.02 3.11283 3.11113 0
M  V30 2697 H 255.139 0.612352 0.410115 0
M  V30 2698 H 257.781 1.85415 0.414869 0
M  V30 2699 H 255.931 2.77519 2.71874 0
M  V30 2700 H 257.603 4.54324 0.799187 0
M  V30 2701 H 255.846 4.28388 0.683092 0
M  V30 2702 H 256.517 5.10733 2.09417 0
M  V30 2703 H 258.993 3.2482 2.6006 0
M  V30 2704 H 257.869 3.99325 3.76605 0
M  V30 2705 H 258.13 2.25656 3.80173 0
M  V30 2706 N 257.189 -0.644168 1.43834 0
M  V30 2707 C 258.152 -1.73857 1.49353 0
M  V30 2708 C 259.152 -1.56315 0.377112 0
M  V30 2709 O 260.342 -1.62048 0.639226 0
M  V30 2710 C 257.474 -3.12819 1.35488 0
M  V30 2711 H 258.667 -1.70342 2.46827 0
M  V30 2712 H 256.22 -0.856652 1.30733 0
M  V30 2713 H 256.955 -3.2194 0.390569 0
M  V30 2714 H 256.74 -3.26958 2.16428 0
M  V30 2715 H 258.23 -3.92606 1.42302 0
M  V30 2716 N 258.668 -1.30515 -0.883378 0
M  V30 2717 C 259.945 -1.10086 -1.6168 0
M  V30 2718 C 260.325 0.349269 -2.08191 0
M  V30 2719 O 259.673 1.34105 -1.85008 0
M  V30 2720 C 259.883 -2.10315 -2.78511 0
M  V30 2721 C 261.231 -2.42119 -3.48803 0
M  V30 2722 O 262.255 -2.08638 -2.88702 0
M  V30 2723 O 261.114 -2.99396 -4.57192 0
M  V30 2724 H 258.208 -0.422907 -0.710689 0
M  V30 2725 H 260.754 -1.41947 -0.930015 0
M  V30 2726 H 259.526 -3.07917 -2.41459 0
M  V30 2727 H 259.149 -1.79282 -3.54886 0
M  V30 2728 N 260.146 1.09593 -1.13257 0
M  V30 2729 C 261.109 2.14359 -0.811358 0
M  V30 2730 C 262.109 1.59808 0.178377 0
M  V30 2731 O 263.299 1.74132 -0.0484911 0
M  V30 2732 C 260.431 3.40269 -0.207276 0
M  V30 2733 H 261.624 2.44284 -1.73969 0
M  V30 2734 H 259.177 1.25102 -0.936973 0
M  V30 2735 H 259.912 3.15969 0.73036 0
M  V30 2736 H 259.697 3.81154 -0.919992 0
M  V30 2737 H 261.187 4.176 0.000667944 0
M  V30 2738 N 261.624 0.925811 1.2754 0
M  V30 2739 C 262.534 0.428993 2.30644 0
M  V30 2740 C 263.55 -0.489387 1.66976 0
M  V30 2741 O 264.726 -0.372653 1.97922 0
M  V30 2742 C 261.791 -0.311967 3.45294 0
M  V30 2743 C 260.852 0.641098 4.24486 0
M  V30 2744 C 260.085 -0.0645955 5.33661 0
M  V30 2745 O 260.308 -1.28429 5.55754 0
M  V30 2746 O 259.242 0.606265 5.98839 0
M  V30 2747 H 263.068 1.28504 2.75173 0
M  V30 2748 H 260.653 0.691086 1.32455 0
M  V30 2749 H 262.535 -0.729972 4.15029 0
M  V30 2750 H 261.21 -1.14365 3.02824 0
M  V30 2751 H 260.117 1.10874 3.57292 0
M  V30 2752 H 261.45 1.43995 4.70666 0
M  V30 2753 N 263.102 -1.41638 0.69111 0
M  V30 2754 C 264.032 -2.3347 0.037248 0
M  V30 2755 C 265.013 -1.51575 -0.771947 0
M  V30 2756 O 266.198 -1.80126 -0.72582 0
M  V30 2757 C 263.328 -3.35354 -0.903064 0
M  V30 2758 C 262.282 -4.27526 -0.201288 0
M  V30 2759 C 261.608 -5.19747 -1.25565 0
M  V30 2760 C 262.908 -5.13959 0.929689 0
M  V30 2761 H 264.602 -2.88397 0.804227 0
M  V30 2762 H 262.148 -1.38669 0.388189 0
M  V30 2763 H 264.101 -3.98519 -1.36969 0
M  V30 2764 H 262.825 -2.78767 -1.70166 0
M  V30 2765 H 261.484 -3.65779 0.245265 0
M  V30 2766 H 261.132 -4.59479 -2.04666 0
M  V30 2767 H 260.832 -5.8225 -0.791128 0
M  V30 2768 H 262.356 -5.85789 -1.72288 0
M  V30 2769 H 263.77 -5.70718 0.543546 0
M  V30 2770 H 262.167 -5.85379 1.32103 0
M  V30 2771 H 263.237 -4.51389 1.77133 0
M  V30 2772 N 264.58 -0.43555 -1.51462 0
M  V30 2773 C 265.805 0.132627 -2.06976 0
M  V30 2774 C 266.23 1.35848 -1.30104 0
M  V30 2775 O 265.588 1.78112 -0.338493 0
M  V30 2776 C 265.636 0.43523 -3.57964 0
M  V30 2777 O 264.74 1.52198 -3.83288 0
M  V30 2778 H 264.081 0.00265 -0.663995 0
M  V30 2779 H 266.611 -0.616369 -1.95095 0
M  V30 2780 H 266.621 0.686206 -4.02188 0
M  V30 2781 H 265.296 -0.460739 -4.1334 0
M  V30 2782 H 263.873 1.2611 -3.50928 0
M  V30 2783 N 266.058 1.56714 -0.166846 0
M  V30 2784 C 267.469 1.83378 0.350646 0
M  V30 2785 C 267.82 1.08646 1.63372 0
M  V30 2786 O 266.945 0.338058 2.13743 0
M  V30 2787 C 267.54 3.32643 0.642963 0
M  V30 2788 C 266.099 3.59818 1.10491 0
M  V30 2789 C 265.246 2.76954 0.138411 0
M  V30 2790 H 268.197 1.53803 -0.391193 0
M  V30 2791 H 268.218 3.49878 1.49551 0
M  V30 2792 H 267.73 3.87007 -0.291055 0
M  V30 2793 H 265.831 3.1086 2.05418 0
M  V30 2794 H 265.944 4.68178 1.01716 0
M  V30 2795 H 264.308 2.4666 0.634911 0
M  V30 2796 H 265.091 3.34097 -0.789549 0
M  V30 2797 N 267.536 -0.106894 1.57237 0
M  V30 2798 C 268.782 -0.81373 1.85759 0
M  V30 2799 C 269.115 -1.78952 0.754315 0
M  V30 2800 O 268.39 -1.93029 -0.23879 0
M  V30 2801 C 268.673 -1.55293 3.24894 0
M  V30 2802 C 268.526 -0.595929 4.45835 0
M  V30 2803 C 269.845 -2.5063 3.61763 0
M  V30 2804 H 266.964 -0.294369 0.67566 0
M  V30 2805 H 269.606 -0.0776472 1.89841 0
M  V30 2806 H 267.756 -2.1804 3.21544 0
M  V30 2807 H 269.428 0.0236262 4.61294 0
M  V30 2808 H 267.671 0.0916191 4.33703 0
M  V30 2809 H 268.342 -1.15004 5.39887 0
M  V30 2810 H 270.818 -1.97982 3.65981 0
M  V30 2811 H 269.694 -2.99376 4.60071 0
M  V30 2812 H 269.955 -3.3385 2.89821 0
M  V30 2813 N 269.014 -1.53014 -0.377408 0
M  V30 2814 C 269.977 -1.77957 -1.44444 0
M  V30 2815 C 270.977 -0.649763 -1.47087 0
M  V30 2816 O 272.167 -0.917897 -1.48055 0
M  V30 2817 C 269.299 -1.89089 -2.83651 0
M  V30 2818 H 270.492 -2.73243 -1.23606 0
M  V30 2819 H 268.045 -1.43912 -0.609844 0
M  V30 2820 H 268.78 -0.958293 -3.09818 0
M  V30 2821 H 268.565 -2.71254 -2.83132 0
M  V30 2822 H 270.055 -2.1002 -3.60945 0
M  V30 2823 N 270.492 0.636531 -1.44174 0
M  V30 2824 C 271.72 1.42353 -1.50144 0
M  V30 2825 C 272.135 1.88389 -0.124575 0
M  V30 2826 O 271.492 1.6051 0.868489 0
M  V30 2827 C 271.543 2.64744 -2.46156 0
M  V30 2828 O 271.264 2.20629 -3.7849 0
M  V30 2829 C 272.765 3.57929 -2.61537 0
M  V30 2830 H 269.985 0.436752 -0.5094 0
M  V30 2831 H 272.529 0.778933 -1.89084 0
M  V30 2832 H 270.684 3.25307 -2.10366 0
M  V30 2833 H 271.098 2.99938 -4.30276 0
M  V30 2834 H 272.572 4.40428 -3.32757 0
M  V30 2835 H 273.049 4.06382 -1.66585 0
M  V30 2836 H 273.655 3.03238 -2.98206 0
M  V30 2837 N 271.97 1.30982 0.876444 0
M  V30 2838 C 273.217 1.20296 1.62896 0
M  V30 2839 C 273.545 -0.240395 1.93009 0
M  V30 2840 O 272.8 -1.18733 1.55567 0
M  V30 2841 C 273.099 1.98572 2.9716 0
M  V30 2842 C 272.765 3.48125 2.86566 0
M  V30 2843 C 271.427 3.88905 2.83383 0
M  V30 2844 C 273.779 4.43322 2.74071 0
M  V30 2845 C 271.107 5.2316 2.65556 0
M  V30 2846 C 273.459 5.77695 2.57781 0
M  V30 2847 C 272.123 6.17704 2.52979 0
M  V30 2848 H 271.393 0.440193 0.59608 0
M  V30 2849 H 274.04 1.62177 1.01837 0
M  V30 2850 H 272.345 1.49352 3.62217 0
M  V30 2851 H 274.042 1.8769 3.54364 0
M  V30 2852 H 270.632 3.15723 2.89856 0
M  V30 2853 H 274.816 4.12752 2.75589 0
M  V30 2854 H 270.072 5.53241 2.60259 0
M  V30 2855 H 274.246 6.51091 2.47089 0
M  V30 2856 H 271.873 7.21678 2.38924 0
M  V30 2857 N 273.449 -1.08991 1.13837 0
M  V30 2858 C 274.865 -1.33312 0.877506 0
M  V30 2859 C 275.065 -1.95587 -0.48456 0
M  V30 2860 O 274.121 -2.20509 -1.23013 0
M  V30 2861 C 275.434 -2.24045 2.0056 0
M  V30 2862 C 276.982 -2.37542 2.03821 0
M  V30 2863 C 277.457 -3.31614 3.15905 0
M  V30 2864 N 278.948 -3.39189 3.15445 0
M  V30 2865 C 279.683 -4.11992 3.98811 0
M  V30 2866 N 279.179 -4.87553 4.92203 0
M  V30 2867 N 280.972 -4.07762 3.86894 0
M  V30 2868 H 273.123 -0.669456 2.01574 0
M  V30 2869 H 275.386 -0.357482 0.878015 0
M  V30 2870 H 275.092 -1.85521 2.98789 0
M  V30 2871 H 274.966 -3.24466 1.92359 0
M  V30 2872 H 277.353 -2.75327 1.06202 0
M  V30 2873 H 277.434 -1.36884 2.16093 0
M  V30 2874 H 277.078 -2.94551 4.13766 0
M  V30 2875 H 277.008 -4.32186 3.0087 0
M  V30 2876 H 279.499 -2.85314 2.47799 0
M  V30 2877 H 279.812 -5.40549 5.52292 0
M  V30 2878 H 278.157 -4.86627 4.96205 0
M  V30 2879 H 281.348 -3.47833 3.13257 0
M  V30 2880 H 281.521 -4.64238 4.52092 0
M  V30 2881 N 274.927 -0.932562 -1.27047 0
M  V30 2882 C 276.152 -0.591474 -1.98787 0
M  V30 2883 C 276.577 0.824601 -1.69062 0
M  V30 2884 O 275.935 1.5541 -0.933677 0
M  V30 2885 C 275.983 -0.829808 -3.50922 0
M  V30 2886 O 275.087 0.102266 -4.12273 0
M  V30 2887 H 274.428 -0.227185 -0.623926 0
M  V30 2888 H 276.958 -1.25314 -1.61733 0
M  V30 2889 H 276.968 -0.747292 -4.01098 0
M  V30 2890 H 275.643 -1.86201 -3.7189 0
M  V30 2891 H 274.22 -0.0305761 -3.72887 0
M  V30 2892 N 276.405 1.4127 -0.698611 0
M  V30 2893 C 277.645 2.03044 -0.235062 0
M  V30 2894 C 278.009 1.54146 1.14468 0
M  V30 2895 O 279.21 2.07867 1.70425 0
M  V30 2896 C 277.481 3.56192 -0.293651 0
M  V30 2897 S 279.04 4.38696 0.0954053 0
M  V30 2898 H 275.858 0.704697 -0.0944648 0
M  V30 2899 H 278.46 1.72656 -0.917064 0
M  V30 2900 H 277.164 3.89274 -1.29977 0
M  V30 2901 H 276.695 3.91285 0.407397 0
M  V30 2902 H 278.71 4.78257 1.3223 0
M  V30 2903 N 277.883 0.443576 1.51229 0
M  V30 2904 C 278.816 -0.410089 2.24485 0
M  V30 2905 C 279.794 -1.01949 1.26669 0
M  V30 2906 O 280.978 -1.06075 1.55821 0
M  V30 2907 C 278.105 -1.57211 3.00004 0
M  V30 2908 C 277.151 -1.08279 4.12526 0
M  V30 2909 S 277.984 -0.0197476 5.35496 0
M  V30 2910 C 279.14 -1.18629 6.14555 0
M  V30 2911 H 279.373 0.211832 2.96544 0
M  V30 2912 H 276.906 0.228156 1.52705 0
M  V30 2913 H 278.864 -2.23825 3.44111 0
M  V30 2914 H 277.525 -2.16547 2.27522 0
M  V30 2915 H 276.718 -1.95193 4.64667 0
M  V30 2916 H 276.32 -0.494797 3.70713 0
M  V30 2917 H 278.612 -2.10344 6.4402 0
M  V30 2918 H 279.555 -0.70472 7.04584 0
M  V30 2919 H 279.963 -1.42768 5.46148 0
M  V30 2920 N 279.361 -1.56624 0.175154 0
M  V30 2921 C 280.271 -2.21741 -0.766042 0
M  V30 2922 C 281.287 -1.21023 -1.25018 0
M  V30 2923 O 282.463 -1.53697 -1.3015 0
M  V30 2924 C 279.528 -2.84839 -1.97655 0
M  V30 2925 C 278.589 -4.00769 -1.53892 0
M  V30 2926 C 277.822 -4.60849 -2.69173 0
M  V30 2927 O 278.045 -4.19823 -3.86141 0
M  V30 2928 O 276.979 -5.50655 -2.43028 0
M  V30 2929 H 280.805 -3.02738 -0.241585 0
M  V30 2930 H 278.39 -1.49305 -0.053222 0
M  V30 2931 H 280.272 -3.24834 -2.68442 0
M  V30 2932 H 278.947 -2.06836 -2.48999 0
M  V30 2933 H 277.854 -3.65436 -0.80044 0
M  V30 2934 H 279.187 -4.80376 -1.07236 0
M  V30 2935 N 280.839 0.0985539 -1.57292 0
M  V30 2936 C 282.085 0.803867 -1.86188 0
M  V30 2937 C 282.418 1.78549 -0.763794 0
M  V30 2938 O 281.693 1.93153 0.22855 0
M  V30 2939 C 281.976 1.53568 -3.25713 0
M  V30 2940 C 281.829 0.572277 -4.46145 0
M  V30 2941 C 283.148 2.48708 -3.63087 0
M  V30 2942 H 280.267 0.290781 -0.677211 0
M  V30 2943 H 282.909 0.0675783 -1.8988 0
M  V30 2944 H 281.059 2.16332 -3.22696 0
M  V30 2945 H 282.731 -0.0480894 -4.61275 0
M  V30 2946 H 280.974 -0.114618 -4.33649 0
M  V30 2947 H 281.645 1.12139 -5.40489 0
M  V30 2948 H 284.121 1.96039 -3.67026 0
M  V30 2949 H 282.997 2.96932 -4.61652 0
M  V30 2950 H 283.258 3.32309 -2.91588 0
M  V30 2951 N 282.317 1.53212 0.369288 0
M  V30 2952 C 283.265 1.80054 1.47253 0
M  V30 2953 C 284.259 0.669456 1.55611 0
M  V30 2954 O 285.465 0.852328 1.58541 0
M  V30 2955 H 281.84 0.570034 0.490475 0
M  V30 2956 H 283.811 2.72403 1.21817 0
M  V30 2957 C 282.56 2.00403 2.84137 0
M  V30 2958 H 281.883 2.86876 2.78464 0
M  V30 2959 H 283.323 2.23164 3.60519 0
M  V30 2960 C 281.782 0.782081 3.27697 0
M  V30 2961 O 282.312 -0.0310205 4.01688 0
M  V30 2962 N 280.518 0.606573 2.84199 0
M  V30 2963 H 280.065 1.26939 2.24152 0
M  V30 2964 H 280.023 -0.20962 3.137 0
M  V30 2965 N 283.795 -0.628877 1.44509 0
M  V30 2966 C 285.042 -1.38839 1.47411 0
M  V30 2967 C 285.37 -1.94202 0.10757 0
M  V30 2968 O 284.625 -1.74243 -0.890947 0
M  V30 2969 C 284.924 -2.56995 2.48371 0
M  V30 2970 C 284.59 -2.19908 3.93639 0
M  V30 2971 C 283.252 -2.09506 4.33198 0
M  V30 2972 C 285.604 -1.9064 4.85083 0
M  V30 2973 C 282.932 -1.68028 5.62124 0
M  V30 2974 C 285.284 -1.50655 6.14399 0
M  V30 2975 C 283.948 -1.38796 6.5291 0
M  V30 2976 H 283.218 -0.508048 0.539414 0
M  V30 2977 H 285.865 -0.712913 1.77735 0
M  V30 2978 H 284.17 -3.29786 2.11538 0
M  V30 2979 H 285.867 -3.15223 2.47861 0
M  V30 2980 H 282.457 -2.28922 3.62343 0
M  V30 2981 H 286.641 -1.97585 4.55273 0
M  V30 2982 H 281.897 -1.57452 5.90778 0
M  V30 2983 H 286.071 -1.27048 6.84713 0
M  V30 2984 H 283.698 -1.06429 7.52713 0
M  V30 2985 N 285.273 -1.31445 -0.869486 0
M  V30 2986 C 286.52 -1.21158 -1.62256 0
M  V30 2987 C 286.848 0.230155 -1.93133 0
M  V30 2988 O 286.103 1.17906 -1.56194 0
M  V30 2989 C 286.402 -2.00145 -2.96102 0
M  V30 2990 C 286.068 -3.4964 -2.84715 0
M  V30 2991 C 284.73 -3.90403 -2.81317 0
M  V30 2992 C 287.082 -4.44769 -2.71716 0
M  V30 2993 C 284.41 -5.24561 -2.62778 0
M  V30 2994 C 286.762 -5.79054 -2.54714 0
M  V30 2995 C 285.426 -6.19037 -2.49699 0
M  V30 2996 H 284.696 -0.443348 -0.593737 0
M  V30 2997 H 287.343 -1.62715 -1.00976 0
M  V30 2998 H 285.648 -1.5127 -3.6142 0
M  V30 2999 H 287.345 -1.89566 -3.53363 0
M  V30 3000 H 283.935 -3.17256 -2.88178 0
M  V30 3001 H 288.119 -4.14208 -2.73397 0
M  V30 3002 H 283.375 -5.54613 -2.57321 0
M  V30 3003 H 287.549 -6.52393 -2.43632 0
M  V30 3004 H 285.176 -7.22935 -2.35093 0
M  V30 3005 N 286.751 1.08385 -1.14413 0
M  V30 3006 C 287.999 1.80419 -0.910679 0
M  V30 3007 C 288.32 1.86658 0.564243 0
M  V30 3008 O 287.59 1.35985 1.41014 0
M  V30 3009 H 286.17 0.668204 -0.333934 0
M  V30 3010 H 288.832 1.31037 -1.44275 0
M  V30 3011 H 287.928 2.83238 -1.31082 0
M  V30 3012 N 288.23 0.939286 1.26551 0
M  V30 3013 C 289.193 0.451987 2.24699 0
M  V30 3014 C 290.193 -0.435869 1.5478 0
M  V30 3015 O 291.383 -0.235314 1.72603 0
M  V30 3016 C 288.515 -0.348801 3.39111 0
M  V30 3017 H 289.708 1.3193 2.69322 0
M  V30 3018 H 287.261 0.721072 1.38673 0
M  V30 3019 H 287.996 -1.23444 2.99887 0
M  V30 3020 H 287.781 0.287945 3.91041 0
M  V30 3021 H 289.271 -0.679726 4.12031 0
M  V30 3022 N 289.708 -1.40897 0.706093 0
M  V30 3023 C 290.638 -2.33418 0.0620085 0
M  V30 3024 C 291.619 -1.52385 -0.755827 0
M  V30 3025 O 292.804 -1.80886 -0.706674 0
M  V30 3026 C 289.934 -3.36293 -0.867445 0
M  V30 3027 C 288.888 -4.27716 -0.155932 0
M  V30 3028 C 288.214 -5.2105 -1.20046 0
M  V30 3029 C 289.514 -5.12944 0.984149 0
M  V30 3030 H 291.208 -2.87527 0.83477 0
M  V30 3031 H 288.754 -1.38249 0.402875 0
M  V30 3032 H 290.707 -3.99949 -1.32735 0
M  V30 3033 H 289.431 -2.80556 -1.67199 0
M  V30 3034 H 288.09 -3.65498 0.284047 0
M  V30 3035 H 287.738 -4.61624 -1.99781 0
M  V30 3036 H 287.438 -5.83056 -0.729328 0
M  V30 3037 H 288.962 -5.87584 -1.66066 0
M  V30 3038 H 290.376 -5.70109 0.604048 0
M  V30 3039 H 288.773 -5.83945 1.38304 0
M  V30 3040 H 289.843 -4.49485 1.81911 0
M  V30 3041 N 291.186 -0.45159 -1.50991 0
M  V30 3042 C 292.096 0.358431 -2.31846 0
M  V30 3043 C 293.112 1.01438 -1.41373 0
M  V30 3044 O 294.288 1.00663 -1.74439 0
M  V30 3045 C 291.353 1.43704 -3.15515 0
M  V30 3046 C 290.414 0.799742 -4.21785 0
M  V30 3047 C 289.647 1.82696 -5.01456 0
M  V30 3048 O 289.87 3.05105 -4.81941 0
M  V30 3049 O 288.804 1.40958 -5.85162 0
M  V30 3050 H 292.63 -0.302032 -3.02194 0
M  V30 3051 H 290.215 -0.213825 -1.47862 0
M  V30 3052 H 292.097 2.06227 -3.67489 0
M  V30 3053 H 290.772 2.08133 -2.47916 0
M  V30 3054 H 289.679 0.136084 -3.73852 0
M  V30 3055 H 291.012 0.198718 -4.91799 0
M  V30 3056 N 292.664 1.56529 -0.183458 0
M  V30 3057 C 293.594 2.21549 0.737456 0
M  V30 3058 C 294.575 1.17489 1.23005 0
M  V30 3059 O 295.76 1.45959 1.281 0
M  V30 3060 C 292.89 2.86575 1.96194 0
M  V30 3061 C 291.844 3.96778 1.60473 0
M  V30 3062 C 291.17 4.48911 2.90487 0
M  V30 3063 C 292.47 5.15767 0.823497 0
M  V30 3064 H 294.164 2.98761 0.195453 0
M  V30 3065 H 291.71 1.43702 0.0925686 0
M  V30 3066 H 293.663 3.30739 2.61131 0
M  V30 3067 H 292.387 2.06749 2.52828 0
M  V30 3068 H 291.046 3.53286 0.978997 0
M  V30 3069 H 290.694 3.65862 3.45186 0
M  V30 3070 H 290.394 5.23265 2.67335 0
M  V30 3071 H 291.918 4.95771 3.56432 0
M  V30 3072 H 293.332 5.56549 1.37571 0
M  V30 3073 H 291.729 5.96114 0.690551 0
M  V30 3074 H 292.799 4.84574 -0.177782 0
M  V30 3075 N 294.142 -0.090211 1.57342 0
M  V30 3076 C 295.37 -0.806224 1.90546 0
M  V30 3077 C 295.785 -1.72041 0.777644 0
M  V30 3078 O 295.142 -1.80778 -0.250103 0
M  V30 3079 C 295.193 -1.61546 3.23396 0
M  V30 3080 O 294.914 -0.738043 4.31839 0
M  V30 3081 C 296.415 -2.4341 3.70495 0
M  V30 3082 H 293.635 -0.230256 0.630257 0
M  V30 3083 H 296.179 -0.0659843 2.04394 0
M  V30 3084 H 294.334 -2.30816 3.11131 0
M  V30 3085 H 294.748 -1.29901 5.08159 0
M  V30 3086 H 296.222 -2.95676 4.66133 0
M  V30 3087 H 296.699 -3.22098 2.98579 0
M  V30 3088 H 297.305 -1.79331 3.85643 0
M  V30 3089 N 295.62 -1.53406 -0.361157 0
M  V30 3090 C 296.567 -1.80156 -1.44265 0
M  V30 3091 C 297.537 -0.646183 -1.53015 0
M  V30 3092 O 298.722 -0.888818 -1.68833 0
M  V30 3093 C 295.862 -2.00116 -2.81154 0
M  V30 3094 C 294.975 -3.27833 -2.81335 0
M  V30 3095 C 294.11 -3.37957 -4.09828 0
M  V30 3096 C 293.149 -4.59689 -4.04168 0
M  V30 3097 N 292.286 -4.66942 -5.24318 0
M  V30 3098 H 297.126 -2.72438 -1.20754 0
M  V30 3099 H 294.663 -1.34954 -0.585296 0
M  V30 3100 H 296.621 -2.09677 -3.60682 0
M  V30 3101 H 295.251 -1.11167 -3.03054 0
M  V30 3102 H 294.303 -3.27204 -1.94014 0
M  V30 3103 H 295.615 -4.17442 -2.73027 0
M  V30 3104 H 294.769 -3.46853 -4.97773 0
M  V30 3105 H 293.508 -2.46372 -4.20894 0
M  V30 3106 H 292.513 -4.50889 -3.14609 0
M  V30 3107 H 293.738 -5.5262 -3.947 0
M  V30 3108 H 291.684 -3.7826 -5.35962 0
M  V30 3109 H 291.601 -5.50462 -5.18197 0
M  V30 3110 H 292.869 -4.80127 -6.14084 0
M  V30 3111 N 297.098 0.621204 -1.44841 0
M  V30 3112 C 298.346 1.37783 -1.47852 0
M  V30 3113 C 298.667 1.94653 -0.116224 0
M  V30 3114 O 297.937 1.76367 0.852737 0
M  V30 3115 H 296.517 0.511453 -0.544449 0
M  V30 3116 H 299.179 0.730446 -1.80694 0
M  V30 3117 H 298.275 2.20414 -2.20961 0
M  V30 3118 N 298.576 1.31904 0.862503 0
M  V30 3119 C 299.506 1.22782 1.98612 0
M  V30 3120 C 300.487 0.113362 1.69722 0
M  V30 3121 O 301.672 0.299218 1.91881 0
M  V30 3122 C 298.802 0.942058 3.34279 0
M  V30 3123 C 297.756 2.0169 3.77499 0
M  V30 3124 C 297.082 1.58369 5.10709 0
M  V30 3125 C 298.382 3.43096 3.93805 0
M  V30 3126 H 300.076 2.16788 2.06502 0
M  V30 3127 H 297.622 1.04366 0.992154 0
M  V30 3128 H 299.575 0.864818 4.1243 0
M  V30 3129 H 298.299 -0.0336603 3.26583 0
M  V30 3130 H 296.958 2.08416 3.01593 0
M  V30 3131 H 296.606 0.595628 4.99461 0
M  V30 3132 H 296.306 2.30279 5.40597 0
M  V30 3133 H 297.83 1.52067 5.91361 0
M  V30 3134 H 299.244 3.39003 4.62331 0
M  V30 3135 H 297.641 4.13288 4.35101 0
M  V30 3136 H 298.711 3.83334 2.96957 0
M  V30 3137 N 300.054 -1.07777 1.14986 0
M  V30 3138 C 300.984 -2.16865 0.865557 0
M  V30 3139 C 301.965 -1.69123 -0.182083 0
M  V30 3140 O 303.15 -1.94164 -0.0373815 0
M  V30 3141 C 300.28 -3.45539 0.349313 0
M  V30 3142 C 299.234 -4.06708 1.33313 0
M  V30 3143 C 298.56 -5.30411 0.675918 0
M  V30 3144 C 299.86 -4.47241 2.69764 0
M  V30 3145 H 301.554 -2.40905 1.77778 0
M  V30 3146 H 299.1 -1.15781 0.856203 0
M  V30 3147 H 301.053 -4.21174 0.137983 0
M  V30 3148 H 299.777 -3.21072 -0.598362 0
M  V30 3149 H 298.436 -3.33112 1.53075 0
M  V30 3150 H 298.084 -5.02232 -0.277767 0
M  V30 3151 H 297.784 -5.72293 1.33244 0
M  V30 3152 H 299.308 -6.08755 0.474262 0
M  V30 3153 H 300.722 -5.14025 2.53873 0
M  V30 3154 H 299.119 -5.00062 3.3175 0
M  V30 3155 H 300.189 -3.58818 3.26156 0
M  V30 3156 N 301.532 -0.945985 -1.26051 0
M  V30 3157 C 302.943 -0.638096 -1.75457 0
M  V30 3158 C 303.294 0.846672 -1.76991 0
M  V30 3159 O 302.419 1.66262 -1.38513 0
M  V30 3160 C 303.014 -1.15157 -3.18629 0
M  V30 3161 C 301.573 -0.894004 -3.65629 0
M  V30 3162 C 300.72 -1.29967 -2.44957 0
M  V30 3163 H 303.671 -1.12376 -1.1206 0
M  V30 3164 H 303.692 -0.507615 -3.77099 0
M  V30 3165 H 303.204 -2.23222 -3.1748 0
M  V30 3166 H 301.305 0.172057 -3.72203 0
M  V30 3167 H 301.418 -1.52439 -4.54202 0
M  V30 3168 H 299.782 -0.718078 -2.44368 0
M  V30 3169 H 300.565 -2.38935 -2.46505 0
M  V30 3170 N 303.011 1.40521 -0.713556 0
M  V30 3171 C 303.941 2.33381 -0.0743864 0
M  V30 3172 C 304.922 1.52784 0.747735 0
M  V30 3173 O 306.107 1.81258 0.697071 0
M  V30 3174 C 303.237 3.36748 0.849598 0
M  V30 3175 C 302.191 4.27793 0.133247 0
M  V30 3176 C 301.517 5.21679 1.17281 0
M  V30 3177 C 302.817 5.12415 -1.01134 0
M  V30 3178 H 304.511 2.87081 -0.850007 0
M  V30 3179 H 302.057 1.38034 -0.410201 0
M  V30 3180 H 304.01 4.00648 1.30612 0
M  V30 3181 H 302.734 2.81439 1.65709 0
M  V30 3182 H 301.393 3.65342 -0.303426 0
M  V30 3183 H 301.041 4.62677 1.9733 0
M  V30 3184 H 300.741 5.83435 0.698397 0
M  V30 3185 H 302.265 5.88456 1.62947 0
M  V30 3186 H 303.679 5.69781 -0.634274 0
M  V30 3187 H 302.076 5.83203 -1.41399 0
M  V30 3188 H 303.146 4.48514 -1.84292 0
M  V30 3189 N 304.489 0.459591 1.5075 0
M  V30 3190 C 305.419 -0.330644 2.31147 0
M  V30 3191 C 306.4 -1.00087 1.37538 0
M  V30 3192 O 307.585 -1.00025 1.66459 0
M  V30 3193 C 304.715 -1.41958 3.16962 0
M  V30 3194 C 303.669 -0.871608 4.19031 0
M  V30 3195 C 302.995 -2.05797 4.9351 0
M  V30 3196 C 304.295 0.109251 5.22186 0
M  V30 3197 H 305.989 0.340336 2.97459 0
M  V30 3198 H 303.535 0.165119 1.4305 0
M  V30 3199 H 305.488 -1.9798 3.71997 0
M  V30 3200 H 304.212 -2.11917 2.48513 0
M  V30 3201 H 302.871 -0.333442 3.6508 0
M  V30 3202 H 302.519 -2.74427 4.21544 0
M  V30 3203 H 302.219 -1.6976 5.62544 0
M  V30 3204 H 303.743 -2.62331 5.51375 0
M  V30 3205 H 305.157 -0.361405 5.7216 0
M  V30 3206 H 303.554 0.383316 5.98875 0
M  V30 3207 H 304.624 1.03887 4.73641 0
M  V30 3208 N 305.967 -1.56429 0.191757 0
M  V30 3209 C 307.383 -1.58754 -0.164137 0
M  V30 3210 C 307.583 -1.20782 -1.61288 0
M  V30 3211 O 306.639 -0.928999 -2.34789 0
M  V30 3212 C 307.952 -3.00396 0.135195 0
M  V30 3213 C 309.5 -3.1291 0.0750351 0
M  V30 3214 C 309.975 -4.56679 0.347632 0
M  V30 3215 N 311.466 -4.62252 0.296131 0
M  V30 3216 C 312.201 -5.71379 0.480948 0
M  V30 3217 N 311.697 -6.88986 0.725933 0
M  V30 3218 N 313.49 -5.60563 0.415435 0
M  V30 3219 H 305.641 -1.79393 1.13718 0
M  V30 3220 H 307.904 -0.832414 0.453643 0
M  V30 3221 H 307.61 -3.32726 1.13958 0
M  V30 3222 H 307.484 -3.72963 -0.563773 0
M  V30 3223 H 309.871 -2.80394 -0.919948 0
M  V30 3224 H 309.952 -2.42736 0.807029 0
M  V30 3225 H 309.596 -4.89907 1.33992 0
M  V30 3226 H 309.526 -5.25039 -0.405212 0
M  V30 3227 H 312.017 -3.7773 0.113259 0
M  V30 3228 H 312.33 -7.68046 0.855857 0
M  V30 3229 H 310.675 -6.90801 0.762788 0
M  V30 3230 H 313.866 -4.67561 0.224486 0
M  V30 3231 H 314.039 -6.45551 0.562889 0
M  V30 3232 N 307.445 0.0818655 -1.57387 0
M  V30 3233 C 308.67 0.799946 -1.91352 0
M  V30 3234 C 309.095 1.70833 -0.787258 0
M  V30 3235 O 308.453 1.79419 0.26048 0
M  V30 3236 C 308.501 1.57812 -3.24234 0
M  V30 3237 O 307.605 2.68806 -3.12757 0
M  V30 3238 H 306.946 0.21891 -0.626877 0
M  V30 3239 H 309.476 0.0531256 -2.04531 0
M  V30 3240 H 309.486 1.95952 -3.57864 0
M  V30 3241 H 308.161 0.911548 -4.05788 0
M  V30 3242 H 306.738 2.33597 -2.90666 0
M  V30 3243 N 308.923 1.53595 0.353017 0
M  V30 3244 C 310.148 1.7462 1.11904 0
M  V30 3245 C 310.573 0.479721 1.8188 0
M  V30 3246 O 309.931 -0.567066 1.72204 0
M  V30 3247 C 309.979 2.92029 2.11545 0
M  V30 3248 O 309.083 2.61516 3.18878 0
M  V30 3249 H 308.424 0.579531 0.324099 0
M  V30 3250 H 310.954 2.00525 0.406301 0
M  V30 3251 H 310.964 3.18551 2.5493 0
M  V30 3252 H 309.639 3.83888 1.60008 0
M  V30 3253 H 308.216 2.45852 2.80377 0
M  V30 3254 N 310.401 -0.613514 1.45168 0
M  V30 3255 C 311.817 -0.933629 1.29443 0
M  V30 3256 C 312.017 -2.00028 0.243101 0
M  V30 3257 O 311.073 -2.49848 -0.364992 0
M  V30 3258 C 312.386 -1.38018 2.67155 0
M  V30 3259 C 313.934 -1.49471 2.75004 0
M  V30 3260 C 314.409 -1.97503 4.13227 0
M  V30 3261 N 315.9 -2.04746 4.15491 0
M  V30 3262 C 316.635 -2.43121 5.19307 0
M  V30 3263 N 316.131 -2.80506 6.33473 0
M  V30 3264 N 317.924 -2.43408 5.06664 0
M  V30 3265 H 310.075 0.0916097 2.12202 0
M  V30 3266 H 312.338 -0.0216655 0.947752 0
M  V30 3267 H 312.044 -0.670625 3.45247 0
M  V30 3268 H 311.918 -2.34784 2.95222 0
M  V30 3269 H 314.305 -2.19519 1.9722 0
M  V30 3270 H 314.386 -0.510342 2.50657 0
M  V30 3271 H 314.03 -1.28045 4.91495 0
M  V30 3272 H 313.96 -2.96843 4.34962 0
M  V30 3273 H 316.451 -1.78468 3.33103 0
M  V30 3274 H 316.764 -3.08652 7.08487 0
M  V30 3275 H 315.109 -2.78216 6.36884 0
M  V30 3276 H 318.3 -2.13604 4.16523 0
M  V30 3277 H 318.473 -2.72989 5.87691 0
M  V30 3278 N 311.879 -1.3236 -0.855495 0
M  V30 3279 C 313.127 -1.22629 -1.60644 0
M  V30 3280 C 313.448 0.212136 -1.93843 0
M  V30 3281 O 312.718 1.13666 -1.59552 0
M  V30 3282 H 311.298 -0.450882 -0.595579 0
M  V30 3283 H 313.96 -1.65871 -1.02337 0
M  V30 3284 H 313.056 -1.80832 -2.54374 0
M  V30 3285 N 313.357 1.07166 -1.15556 0
M  V30 3286 C 314.773 1.31899 -0.898603 0
M  V30 3287 C 314.973 1.96333 0.453383 0
M  V30 3288 O 314.029 2.22438 1.19489 0
M  V30 3289 C 315.342 2.20826 -2.04099 0
M  V30 3290 C 316.89 2.34269 -2.07574 0
M  V30 3291 C 317.365 3.26546 -3.21141 0
M  V30 3292 N 318.856 3.34127 -3.20801 0
M  V30 3293 C 319.591 4.05595 -4.05315 0
M  V30 3294 N 319.087 4.79661 -4.99897 0
M  V30 3295 N 320.88 4.01555 -3.93332 0
M  V30 3296 H 313.031 0.637302 -2.02613 0
M  V30 3297 H 315.294 0.343468 -0.883591 0
M  V30 3298 H 315 1.80744 -3.01703 0
M  V30 3299 H 314.874 3.21364 -1.97496 0
M  V30 3300 H 317.261 2.73603 -1.10568 0
M  V30 3301 H 317.342 1.33429 -2.18244 0
M  V30 3302 H 316.986 2.87931 -4.184 0
M  V30 3303 H 316.916 4.27345 -3.07708 0
M  V30 3304 H 319.407 2.81336 -2.52306 0
M  V30 3305 H 319.72 5.31694 -5.60822 0
M  V30 3306 H 318.065 4.78671 -5.03884 0
M  V30 3307 H 321.256 3.42806 -3.18751 0
M  V30 3308 H 321.429 4.56987 -4.5942 0
M  V30 3309 N 314.835 0.952656 1.25548 0
M  V30 3310 C 316.084 0.602053 1.92505 0
M  V30 3311 C 316.397 -0.864663 1.75451 0
M  V30 3312 O 317.603 -1.32514 2.36965 0
M  V30 3313 C 316.059 1.02607 3.44963 0
M  V30 3314 C 315.667 2.51519 3.70732 0
M  V30 3315 C 317.411 0.747905 4.1786 0
M  V30 3316 C 315.318 2.87732 5.16686 0
M  V30 3317 H 314.248 0.22146 0.720744 0
M  V30 3318 H 316.899 1.15684 1.42441 0
M  V30 3319 H 315.281 0.399712 3.93978 0
M  V30 3320 H 316.455 3.19157 3.32378 0
M  V30 3321 H 314.77 2.76786 3.11092 0
M  V30 3322 H 317.367 0.994647 5.25367 0
M  V30 3323 H 317.71 -0.315629 4.15102 0
M  V30 3324 H 318.243 1.33452 3.74747 0
M  V30 3325 H 314.982 3.93095 5.24554 0
M  V30 3326 H 314.502 2.24765 5.56094 0
M  V30 3327 H 316.181 2.76817 5.84792 0
M  V30 3328 N 316.313 -1.40141 0.720998 0
M  V30 3329 C 317.559 -2.01084 0.263231 0
M  V30 3330 C 317.892 -1.57052 -1.14229 0
M  V30 3331 O 317.167 -0.793027 -1.77599 0
M  V30 3332 C 317.45 -3.58401 0.349344 0
M  V30 3333 C 317.303 -4.12491 1.79363 0
M  V30 3334 C 318.622 -4.39231 -0.276351 0
M  V30 3335 H 315.741 -0.730572 0.0971228 0
M  V30 3336 H 318.383 -1.66543 0.914518 0
M  V30 3337 H 316.533 -3.87958 -0.205165 0
M  V30 3338 H 318.205 -3.93711 2.40394 0
M  V30 3339 H 316.448 -3.66576 2.31958 0
M  V30 3340 H 317.119 -5.21646 1.80524 0
M  V30 3341 H 319.595 -4.15637 0.196184 0
M  V30 3342 H 318.471 -5.48586 -0.185681 0
M  V30 3343 H 318.732 -4.20643 -1.36059 0
M  V30 3344 N 317.792 -0.46758 -1.50504 0
M  V30 3345 C 319.02 0.0864133 -2.06719 0
M  V30 3346 C 319.435 1.33819 -1.33184 0
M  V30 3347 O 318.792 1.78061 -0.400083 0
M  V30 3348 C 318.843 0.378079 -3.59517 0
M  V30 3349 O 318.564 -0.824044 -4.3028 0
M  V30 3350 C 320.065 0.979426 -4.32345 0
M  V30 3351 H 317.285 -0.00551697 -0.670977 0
M  V30 3352 H 319.829 -0.655354 -1.93715 0
M  V30 3353 H 317.984 1.06977 -3.72337 0
M  V30 3354 H 318.398 -0.566518 -5.21432 0
M  V30 3355 H 319.872 1.1333 -5.40241 0
M  V30 3356 H 320.349 1.9686 -3.9261 0
M  V30 3357 H 320.955 0.326216 -4.24047 0
M  V30 3358 N 319.27 1.56325 -0.20005 0
M  V30 3359 C 320.516 1.98012 0.438059 0
M  V30 3360 C 320.849 1.08702 1.60927 0
M  V30 3361 O 320.124 0.140064 1.93995 0
M  V30 3362 C 320.407 3.48841 0.893419 0
M  V30 3363 C 320.26 4.48928 -0.279947 0
M  V30 3364 C 321.579 4.03498 1.75719 0
M  V30 3365 H 318.698 0.719918 0.157757 0
M  V30 3366 H 321.34 1.87743 -0.291968 0
M  V30 3367 H 319.49 3.57723 1.51547 0
M  V30 3368 H 321.162 4.52079 -0.91772 0
M  V30 3369 H 319.405 4.23694 -0.930919 0
M  V30 3370 H 320.076 5.5194 0.0812601 0
M  V30 3371 H 322.552 3.97427 1.23253 0
M  V30 3372 H 321.428 5.09393 2.04476 0
M  V30 3373 H 321.689 3.4906 2.71311 0
M  V30 3374 N 320.748 -0.0735177 1.57428 0
M  V30 3375 C 321.996 -0.771472 1.86796 0
M  V30 3376 C 322.317 -1.78201 0.791804 0
M  V30 3377 O 321.587 -1.95074 -0.179718 0
M  V30 3378 H 320.167 -0.28791 0.689287 0
M  V30 3379 H 322.829 -0.0500161 1.94836 0
M  V30 3380 H 321.925 -1.28874 2.8425 0
M  V30 3381 N 322.226 -1.5378 -0.344866 0
M  V30 3382 C 323.451 -1.75211 -1.10977 0
M  V30 3383 C 323.876 -0.48936 -1.81623 0
M  V30 3384 O 323.234 0.557925 -1.72502 0
M  V30 3385 C 323.282 -2.93147 -2.09993 0
M  V30 3386 O 322.386 -2.63203 -3.17487 0
M  V30 3387 H 321.727 -0.581241 -0.321021 0
M  V30 3388 H 324.257 -2.00738 -0.395661 0
M  V30 3389 H 324.267 -3.19898 -2.53237 0
M  V30 3390 H 322.942 -3.84731 -1.5797 0
M  V30 3391 H 321.519 -2.47336 -2.79069 0
M  V30 3392 N 323.704 0.605807 -1.45491 0
M  V30 3393 C 325.115 1.18777 -1.44045 0
M  V30 3394 C 325.466 1.95471 -0.169001 0
M  V30 3395 O 324.591 2.0374 0.729324 0
M  V30 3396 C 325.186 2.16064 -2.60963 0
M  V30 3397 C 323.745 2.69633 -2.62631 0
M  V30 3398 C 322.892 1.45072 -2.36325 0
M  V30 3399 H 325.843 0.395017 -1.53705 0
M  V30 3400 H 325.864 2.9913 -2.35163 0
M  V30 3401 H 325.376 1.60217 -3.53486 0
M  V30 3402 H 323.477 3.29414 -1.74119 0
M  V30 3403 H 323.59 3.13944 -3.61906 0
M  V30 3404 H 321.954 1.74089 -1.85917 0
M  V30 3405 H 322.737 0.910899 -3.30995 0
M  V30 3406 N 325.182 1.32811 0.848464 0
M  V30 3407 C 326.145 1.22194 1.9391 0
M  V30 3408 C 327.145 0.143404 1.60159 0
M  V30 3409 O 328.335 0.394253 1.6968 0
M  V30 3410 C 325.467 0.88067 3.29328 0
M  V30 3411 H 326.66 2.19127 2.04752 0
M  V30 3412 H 324.213 1.16731 1.0394 0
M  V30 3413 H 324.948 -0.0865776 3.24184 0
M  V30 3414 H 324.733 1.66052 3.55203 0
M  V30 3415 H 326.223 0.830871 4.09251 0
M  V30 3416 N 326.66 -1.06551 1.16123 0
M  V30 3417 C 327.908 -1.78947 0.939267 0
M  V30 3418 C 328.229 -1.87532 -0.534476 0
M  V30 3419 O 327.499 -1.38211 -1.38833 0
M  V30 3420 H 326.079 -0.662807 0.344523 0
M  V30 3421 H 328.741 -1.28725 1.46342 0
M  V30 3422 H 327.837 -2.81117 1.35572 0
M  V30 3423 N 328.138 -0.959301 -1.25041 0
M  V30 3424 C 329.415 -0.533805 -1.88175 0
M  V30 3425 C 329.795 0.988994 -1.865 0
M  V30 3426 O 329.143 1.85677 -1.33177 0
M  V30 3427 C 329.353 -1.11575 -3.30684 0
M  V30 3428 C 330.701 -1.19548 -4.07423 0
M  V30 3429 O 331.725 -1.06765 -3.39823 0
M  V30 3430 O 330.584 -1.39656 -5.28354 0
M  V30 3431 H 327.678 -0.176772 -0.807887 0
M  V30 3432 H 330.224 -1.05303 -1.33076 0
M  V30 3433 H 328.996 -2.15884 -3.26358 0
M  V30 3434 H 328.619 -0.580059 -3.93346 0
M  V30 3435 N 329.616 1.39756 -0.72842 0
M  V30 3436 C 330.549 2.28176 -0.0330172 0
M  V30 3437 C 331.527 1.44035 0.754501 0
M  V30 3438 O 332.711 1.73434 0.738445 0
M  V30 3439 C 329.838 3.24795 0.960504 0
M  V30 3440 C 328.884 4.25693 0.262264 0
M  V30 3441 S 329.717 5.25714 -1.01906 0
M  V30 3442 C 330.873 6.25894 -0.0279717 0
M  V30 3443 H 331.106 2.86807 -0.78287 0
M  V30 3444 H 328.639 1.45382 -0.519951 0
M  V30 3445 H 330.597 3.80983 1.52846 0
M  V30 3446 H 329.258 2.65196 1.68315 0
M  V30 3447 H 328.451 4.93699 1.01379 0
M  V30 3448 H 328.053 3.7327 -0.233482 0
M  V30 3449 H 330.345 6.72585 0.814621 0
M  V30 3450 H 331.288 7.04876 -0.67499 0
M  V30 3451 H 331.696 5.63466 0.341489 0
M  V30 3452 N 331.094 0.475555 1.50254 0
M  V30 3453 C 332.505 0.0215174 1.86688 0
M  V30 3454 C 332.856 -1.38467 1.39001 0
M  V30 3455 O 331.981 -2.02732 0.756894 0
M  V30 3456 C 332.576 0.0322715 3.38785 0
M  V30 3457 C 331.135 -0.366314 3.74613 0
M  V30 3458 C 330.282 0.415832 2.74164 0
M  V30 3459 H 333.233 0.689612 1.42934 0
M  V30 3460 H 333.254 -0.76889 3.7265 0
M  V30 3461 H 332.766 1.05584 3.73462 0
M  V30 3462 H 330.867 -1.39406 3.45538 0
M  V30 3463 H 330.98 -0.064555 4.79057 0
M  V30 3464 H 329.344 -0.131048 2.54363 0
M  V30 3465 H 330.127 1.43899 3.11686 0
M  V30 3466 N 332.573 -1.56217 0.208337 0
M  V30 3467 C 333.803 -2.02043 -0.431523 0
M  V30 3468 C 334.211 -1.08755 -1.54819 0
M  V30 3469 O 333.554 -0.0870009 -1.83494 0
M  V30 3470 C 333.616 -3.44239 -1.03633 0
M  V30 3471 C 333.28 -4.56965 -0.0567502 0
M  V30 3472 C 334.277 -5.14624 0.738773 0
M  V30 3473 C 331.962 -5.02266 0.0581736 0
M  V30 3474 C 333.956 -6.16045 1.63605 0
M  V30 3475 C 331.643 -6.03528 0.959001 0
M  V30 3476 C 332.641 -6.60293 1.7465 0
M  V30 3477 O 332.329 -7.59586 2.6322 0
M  V30 3478 H 332.061 -0.666772 -0.111313 0
M  V30 3479 H 334.615 -2.02919 0.318277 0
M  V30 3480 H 332.845 -3.40391 -1.83497 0
M  V30 3481 H 334.534 -3.73793 -1.58221 0
M  V30 3482 H 335.3 -4.80483 0.660364 0
M  V30 3483 H 331.179 -4.57771 -0.544633 0
M  V30 3484 H 334.723 -6.60279 2.25116 0
M  V30 3485 H 330.62 -6.37092 1.03848 0
M  V30 3486 H 331.388 -7.77057 2.57148 0
M  V30 3487 N 334.051 0.0651679 -1.57465 0
M  V30 3488 C 335.462 0.616213 -1.76238 0
M  V30 3489 C 335.813 1.7756 -0.834689 0
M  V30 3490 O 334.938 2.1639 -0.0204156 0
M  V30 3491 C 335.533 1.12462 -3.1959 0
M  V30 3492 C 334.092 1.62147 -3.39684 0
M  V30 3493 C 333.239 0.543739 -2.71917 0
M  V30 3494 H 336.19 -0.161022 -1.57881 0
M  V30 3495 H 336.211 1.99324 -3.24114 0
M  V30 3496 H 335.723 0.280592 -3.87084 0
M  V30 3497 H 333.824 2.48854 -2.77313 0
M  V30 3498 H 333.937 1.69385 -4.48158 0
M  V30 3499 H 332.301 0.990352 -2.34657 0
M  V30 3500 H 333.084 -0.290216 -3.42071 0
M  V30 3501 N 335.529 1.53961 0.336706 0
M  V30 3502 C 336.769 1.73254 1.08454 0
M  V30 3503 C 337.133 0.488937 1.8567 0
M  V30 3504 O 338.334 0.559001 2.62923 0
M  V30 3505 C 336.605 2.96519 1.99528 0
M  V30 3506 S 338.164 3.36655 2.81441 0
M  V30 3507 H 334.982 0.609353 0.366347 0
M  V30 3508 H 337.584 1.92117 0.362124 0
M  V30 3509 H 336.288 3.85193 1.41614 0
M  V30 3510 H 335.819 2.80142 2.76196 0
M  V30 3511 H 337.834 2.90925 4.01967 0
M  V30 3512 N 337.007 -0.598083 1.45811 0
M  V30 3513 C 337.937 -1.71873 1.58057 0
M  V30 3514 C 338.918 -1.64533 0.431615 0
M  V30 3515 O 340.103 -1.82787 0.65595 0
M  V30 3516 C 337.233 -3.10495 1.55597 0
M  V30 3517 C 336.187 -3.32654 2.69305 0
M  V30 3518 C 335.513 -4.71646 2.51902 0
M  V30 3519 C 336.813 -3.21981 4.11248 0
M  V30 3520 H 338.507 -1.61881 2.51863 0
M  V30 3521 H 336.053 -0.777372 1.21214 0
M  V30 3522 H 338.006 -3.88699 1.6276 0
M  V30 3523 H 336.73 -3.2135 0.583255 0
M  V30 3524 H 335.389 -2.56843 2.61586 0
M  V30 3525 H 335.037 -4.79246 1.52748 0
M  V30 3526 H 334.737 -4.87426 3.2816 0
M  V30 3527 H 336.261 -5.52038 2.60933 0
M  V30 3528 H 337.675 -3.90049 4.20161 0
M  V30 3529 H 336.072 -3.49289 4.87972 0
M  V30 3530 H 337.142 -2.1928 4.32486 0
M  V30 3531 N 338.485 -1.33259 -0.841409 0
M  V30 3532 C 339.733 -1.24326 -1.59334 0
M  V30 3533 C 340.054 0.191564 -1.94057 0
M  V30 3534 O 339.324 1.11967 -1.60749 0
M  V30 3535 H 337.904 -0.457174 -0.590763 0
M  V30 3536 H 340.566 -1.66947 -1.00571 0
M  V30 3537 H 339.662 -1.8352 -2.52442 0
M  V30 3538 N 339.963 1.05934 -1.16686 0
M  V30 3539 C 340.926 2.11669 -0.879144 0
M  V30 3540 C 341.926 1.60294 0.127445 0
M  V30 3541 O 343.116 1.7389 -0.103865 0
M  V30 3542 C 340.248 3.39438 -0.315425 0
M  V30 3543 H 341.441 2.38626 -1.81653 0
M  V30 3544 H 338.994 1.22058 -0.976299 0
M  V30 3545 H 339.729 3.18132 0.629468 0
M  V30 3546 H 339.514 3.78034 -1.04079 0
M  V30 3547 H 341.004 4.17391 -0.132189 0
M  V30 3548 N 341.441 0.965919 1.2453 0
M  V30 3549 C 342.671 0.643451 1.96324 0
M  V30 3550 C 343.079 -0.790927 1.71875 0
M  V30 3551 O 342.422 -1.54208 0.998273 0
M  V30 3552 C 342.484 0.836078 3.49643 0
M  V30 3553 C 342.148 2.24975 3.97788 0
M  V30 3554 C 343.145 3.22735 4.07601 0
M  V30 3555 C 340.83 2.57697 4.31158 0
M  V30 3556 C 342.824 4.51303 4.50116 0
M  V30 3557 C 340.511 3.86492 4.73357 0
M  V30 3558 C 341.509 4.83107 4.828 0
M  V30 3559 O 341.197 6.09605 5.24058 0
M  V30 3560 H 340.929 0.239223 0.632257 0
M  V30 3561 H 343.483 1.29587 1.59362 0
M  V30 3562 H 341.713 0.12649 3.86493 0
M  V30 3563 H 343.402 0.512965 4.02646 0
M  V30 3564 H 344.168 2.98783 3.82039 0
M  V30 3565 H 340.047 1.83216 4.23028 0
M  V30 3566 H 343.591 5.26716 4.57401 0
M  V30 3567 H 339.488 4.10245 4.98366 0
M  V30 3568 H 340.256 6.13146 5.42213 0
M  V30 3569 N 342.919 -1.39368 0.735821 0
M  V30 3570 C 344.167 -2.00101 0.283562 0
M  V30 3571 C 344.488 -1.5868 -1.13338 0
M  V30 3572 O 343.758 -0.835423 -1.77193 0
M  V30 3573 H 342.338 -0.740024 0.101851 0
M  V30 3574 H 345 -1.70404 0.945962 0
M  V30 3575 H 344.096 -3.10323 0.332604 0
M  V30 3576 N 344.397 -0.483516 -1.5 0
M  V30 3577 C 345.625 0.0644831 -2.06799 0
M  V30 3578 C 346.04 1.32399 -1.34596 0
M  V30 3579 O 345.397 1.77626 -0.418946 0
M  V30 3580 C 345.448 0.339927 -3.59898 0
M  V30 3581 O 345.169 -0.869635 -4.29382 0
M  V30 3582 C 346.67 0.933515 -4.33359 0
M  V30 3583 H 343.89 -0.0126333 -0.670881 0
M  V30 3584 H 346.434 -0.675864 -1.93009 0
M  V30 3585 H 344.589 1.03022 -3.7345 0
M  V30 3586 H 345.003 -0.62179 -5.20801 0
M  V30 3587 H 346.477 1.07593 -5.41413 0
M  V30 3588 H 346.954 1.92685 -3.94676 0
M  V30 3589 H 347.56 0.281221 -4.24369 0
M  V30 3590 N 345.875 1.56104 -0.216619 0
M  V30 3591 C 347.1 2.0301 0.424462 0
M  V30 3592 C 347.525 1.0955 1.52907 0
M  V30 3593 O 346.883 0.0827914 1.81111 0
M  V30 3594 C 346.931 3.4819 0.937883 0
M  V30 3595 O 346.035 3.57865 2.04955 0
M  V30 3596 H 345.376 0.656925 0.0966755 0
M  V30 3597 H 347.906 2.01859 -0.33381 0
M  V30 3598 H 347.916 3.88413 1.24897 0
M  V30 3599 H 346.591 4.15699 0.129387 0
M  V30 3600 H 345.168 3.29527 1.74546 0
M  V30 3601 N 347.353 -0.0568162 1.57498 0
M  V30 3602 C 348.3 -1.06591 2.04712 0
M  V30 3603 C 349.27 -1.3758 0.930644 0
M  V30 3604 O 350.455 -1.48392 1.19935 0
M  V30 3605 C 347.595 -2.3701 2.50839 0
M  V30 3606 C 346.708 -2.12421 3.76167 0
M  V30 3607 C 345.843 -3.36511 4.11015 0
M  V30 3608 C 344.882 -3.07353 5.2934 0
M  V30 3609 N 344.019 -4.23816 5.59754 0
M  V30 3610 H 348.859 -0.65631 2.90683 0
M  V30 3611 H 346.396 -0.312481 1.43743 0
M  V30 3612 H 348.354 -3.13175 2.7564 0
M  V30 3613 H 346.984 -2.75744 1.67825 0
M  V30 3614 H 346.036 -1.2688 3.58616 0
M  V30 3615 H 347.348 -1.86894 4.62463 0
M  V30 3616 H 346.502 -4.21062 4.36797 0
M  V30 3617 H 345.241 -3.65128 3.23315 0
M  V30 3618 H 344.246 -2.212 5.03339 0
M  V30 3619 H 345.471 -2.80043 6.1867 0
M  V30 3620 H 343.417 -4.52436 4.75014 0
M  V30 3621 H 343.334 -4.01614 6.40501 0
M  V30 3622 H 344.602 -5.0932 5.90096 0
M  V30 3623 N 348.832 -1.54138 -0.328536 0
M  V30 3624 C 349.795 -1.82462 -1.38709 0
M  V30 3625 C 350.795 -0.696229 -1.44946 0
M  V30 3626 O 351.985 -0.964535 -1.4506 0
M  V30 3627 C 349.117 -1.98018 -2.77492 0
M  V30 3628 H 350.31 -2.77037 -1.14851 0
M  V30 3629 H 347.863 -1.45779 -0.563751 0
M  V30 3630 H 348.598 -1.05637 -3.06613 0
M  V30 3631 H 348.383 -2.80124 -2.74359 0
M  V30 3632 H 349.873 -2.21396 -3.54081 0
M  V30 3633 N 350.31 0.590341 -1.46126 0
M  V30 3634 C 351.273 1.68194 -1.55703 0
M  V30 3635 C 352.273 1.54808 -0.434868 0
M  V30 3636 O 353.463 1.59564 -0.698928 0
M  V30 3637 C 350.595 3.07575 -1.47005 0
M  V30 3638 H 351.788 1.61064 -2.52979 0
M  V30 3639 H 349.341 0.807541 -1.33823 0
M  V30 3640 H 350.076 3.20268 -0.509785 0
M  V30 3641 H 349.861 3.187 -2.28414 0
M  V30 3642 H 351.351 3.87055 -1.56776 0
M  V30 3643 N 351.788 1.33704 0.83433 0
M  V30 3644 C 353.034 1.25603 1.59222 0
M  V30 3645 C 353.367 -0.176659 1.93395 0
M  V30 3646 O 352.642 -1.11915 1.59076 0
M  V30 3647 C 352.925 2.13576 2.89926 0
M  V30 3648 C 352.778 3.65326 2.62406 0
M  V30 3649 C 354.097 2.01238 3.91397 0
M  V30 3650 H 351.216 0.457613 0.577719 0
M  V30 3651 H 353.858 1.63848 0.961972 0
M  V30 3652 H 352.008 1.8109 3.43713 0
M  V30 3653 H 353.68 4.08124 2.15017 0
M  V30 3654 H 351.923 3.8698 1.96033 0
M  V30 3655 H 352.594 4.22232 3.55562 0
M  V30 3656 H 355.07 2.29738 3.46929 0
M  V30 3657 H 353.946 2.65036 4.80673 0
M  V30 3658 H 354.207 0.985951 4.30966 0
M  V30 3659 N 353.266 -1.05314 1.17247 0
M  V30 3660 C 354.229 -2.112 0.890357 0
M  V30 3661 C 355.229 -1.60359 -0.118943 0
M  V30 3662 O 356.419 -1.73833 0.113086 0
M  V30 3663 C 353.551 -3.39266 0.333422 0
M  V30 3664 H 354.744 -2.37659 1.82916 0
M  V30 3665 H 352.297 -1.21538 0.982758 0
M  V30 3666 H 353.032 -3.18462 -0.612587 0
M  V30 3667 H 352.817 -3.77477 1.06082 0
M  V30 3668 H 354.307 -4.17315 0.154322 0
M  V30 3669 N 354.744 -0.972509 -1.24016 0
M  V30 3670 C 355.674 -0.525548 -2.27509 0
M  V30 3671 C 356.655 0.437262 -1.64384 0
M  V30 3672 O 357.84 0.332343 -1.91335 0
M  V30 3673 C 354.97 0.180448 -3.46831 0
M  V30 3674 C 353.924 -0.698859 -4.22256 0
M  V30 3675 C 353.25 0.138903 -5.3452 0
M  V30 3676 C 354.55 -1.98582 -4.83076 0
M  V30 3677 H 356.244 -1.39058 -2.65148 0
M  V30 3678 H 353.79 -0.67009 -1.27459 0
M  V30 3679 H 355.743 0.504387 -4.18371 0
M  V30 3680 H 354.467 1.07987 -3.08231 0
M  V30 3681 H 353.126 -1.00614 -3.52523 0
M  V30 3682 H 352.774 1.03862 -4.9216 0
M  V30 3683 H 352.474 -0.446259 -5.85903 0
M  V30 3684 H 353.998 0.457404 -6.08884 0
M  V30 3685 H 355.412 -1.72715 -5.46665 0
M  V30 3686 H 353.809 -2.5181 -5.44713 0
M  V30 3687 H 354.879 -2.67769 -4.04262 0
M  V30 3688 N 356.222 1.38976 -0.743202 0
M  V30 3689 C 357.152 2.33171 -0.123873 0
M  V30 3690 C 358.133 1.54336 0.71516 0
M  V30 3691 O 359.318 1.82696 0.658467 0
M  V30 3692 C 356.448 3.38474 0.777978 0
M  V30 3693 C 355.402 4.27979 0.0424758 0
M  V30 3694 C 354.728 5.2405 1.06189 0
M  V30 3695 C 356.028 5.10155 -1.1198 0
M  V30 3696 H 357.722 2.85213 -0.910709 0
M  V30 3697 H 355.268 1.37133 -0.439388 0
M  V30 3698 H 357.221 4.03328 1.22084 0
M  V30 3699 H 355.945 2.84891 1.59702 0
M  V30 3700 H 354.604 3.64616 -0.380853 0
M  V30 3701 H 354.252 4.66758 1.87472 0
M  V30 3702 H 353.952 5.84785 0.574485 0
M  V30 3703 H 355.476 5.9178 1.50428 0
M  V30 3704 H 356.89 5.68307 -0.75499 0
M  V30 3705 H 355.287 5.80073 -1.53738 0
M  V30 3706 H 356.357 4.44504 -1.93764 0
M  V30 3707 N 357.7 0.491464 1.49741 0
M  V30 3708 C 358.633 -0.338464 2.25676 0
M  V30 3709 C 359.611 -0.978676 1.29849 0
M  V30 3710 O 360.795 -1.01064 1.59117 0
M  V30 3711 C 357.922 -1.47588 3.04853 0
M  V30 3712 C 356.968 -0.951 4.15762 0
M  V30 3713 S 357.801 0.150626 5.35288 0
M  V30 3714 C 358.957 -0.990178 6.18018 0
M  V30 3715 H 359.19 0.306068 2.9572 0
M  V30 3716 H 356.723 0.276622 1.51902 0
M  V30 3717 H 358.681 -2.12764 3.51058 0
M  V30 3718 H 357.342 -2.09199 2.34296 0
M  V30 3719 H 356.535 -1.80311 4.70642 0
M  V30 3720 H 356.137 -0.376607 3.72099 0
M  V30 3721 H 358.429 -1.89748 6.50386 0
M  V30 3722 H 359.372 -0.480205 7.0647 0
M  V30 3723 H 359.78 -1.25321 5.50413 0
M  V30 3724 N 359.178 -1.55987 0.224894 0
M  V30 3725 C 360.455 -1.90232 -0.455083 0
M  V30 3726 C 360.835 -1.14269 -1.77499 0
M  V30 3727 O 360.183 -0.253079 -2.27094 0
M  V30 3728 C 360.393 -3.42993 -0.644758 0
M  V30 3729 C 361.741 -4.13821 -0.950669 0
M  V30 3730 O 362.765 -3.4861 -0.731423 0
M  V30 3731 O 361.624 -5.29128 -1.36695 0
M  V30 3732 H 358.718 -0.79108 -0.241084 0
M  V30 3733 H 361.264 -1.67581 0.267327 0
M  V30 3734 H 360.036 -3.90252 0.28613 0
M  V30 3735 H 359.659 -3.71434 -1.41853 0
M  V30 3736 N 360.656 0.0484629 -1.57525 0
M  V30 3737 C 361.884 0.755421 -1.92616 0
M  V30 3738 C 362.299 1.69919 -0.822984 0
M  V30 3739 O 361.656 1.81378 0.202085 0
M  V30 3740 C 361.707 1.52915 -3.27566 0
M  V30 3741 O 361.428 0.62329 -4.33644 0
M  V30 3742 C 362.929 2.33502 -3.76818 0
M  V30 3743 H 360.149 0.213465 -0.63614 0
M  V30 3744 H 362.693 0.0117698 -2.04497 0
M  V30 3745 H 360.848 2.22486 -3.17142 0
M  V30 3746 H 361.262 1.16383 -5.11425 0
M  V30 3747 H 362.736 2.83214 -4.73808 0
M  V30 3748 H 363.213 3.14068 -3.07014 0
M  V30 3749 H 363.819 1.69043 -3.90262 0
M  V30 3750 N 362.134 1.5431 0.320358 0
M  V30 3751 C 363.381 1.72668 1.05792 0
M  V30 3752 C 363.709 0.502084 1.87908 0
M  V30 3753 O 362.964 -0.516149 1.88771 0
M  V30 3754 C 363.263 2.95639 2.00828 0
M  V30 3755 C 362.929 4.30265 1.34843 0
M  V30 3756 C 361.591 4.66865 1.16578 0
M  V30 3757 C 363.943 5.13801 0.875095 0
M  V30 3758 C 361.271 5.84597 0.496336 0
M  V30 3759 C 363.623 6.32219 0.219463 0
M  V30 3760 C 362.287 6.67495 0.0246915 0
M  V30 3761 H 361.557 0.631837 0.387121 0
M  V30 3762 H 364.204 1.88552 0.334735 0
M  V30 3763 H 362.509 2.74456 2.79609 0
M  V30 3764 H 364.206 3.07038 2.57932 0
M  V30 3765 H 360.796 4.01472 1.50061 0
M  V30 3766 H 364.98 4.86039 1.00398 0
M  V30 3767 H 360.236 6.10486 0.334264 0
M  V30 3768 H 364.41 6.96227 -0.155291 0
M  V30 3769 H 362.037 7.5858 -0.496065 0
M  V30 3770 N 363.613 -0.582584 1.46437 0
M  V30 3771 C 364.838 -1.37168 1.55563 0
M  V30 3772 C 365.263 -1.87061 0.19743 0
M  V30 3773 O 364.621 -1.61572 -0.822451 0
M  V30 3774 C 364.669 -2.53511 2.56446 0
M  V30 3775 O 363.773 -3.54953 2.09958 0
M  V30 3776 H 363.114 -0.408494 0.523477 0
M  V30 3777 H 365.644 -0.706646 1.9201 0
M  V30 3778 H 365.654 -3.00426 2.76058 0
M  V30 3779 H 364.329 -2.16549 3.55076 0
M  V30 3780 H 362.906 -3.14516 2.00334 0
M  V30 3781 N 365.091 -1.34144 -0.827227 0
M  V30 3782 C 366.331 -1.27603 -1.59677 0
M  V30 3783 C 366.695 0.153035 -1.91389 0
M  V30 3784 O 367.896 0.342566 -2.66608 0
M  V30 3785 C 366.167 -2.13784 -2.86411 0
M  V30 3786 S 367.726 -2.24552 -3.76991 0
M  V30 3787 H 364.544 -0.453789 -0.547354 0
M  V30 3788 H 367.146 -1.69309 -0.977479 0
M  V30 3789 H 365.85 -3.16627 -2.61104 0
M  V30 3790 H 365.381 -1.72959 -3.5334 0
M  V30 3791 H 367.396 -1.41514 -4.75593 0
M  V30 3792 N 366.569 1.04691 -1.17803 0
M  V30 3793 C 367.479 2.16057 -0.914151 0
M  V30 3794 C 368.495 1.73589 0.119503 0
M  V30 3795 O 369.671 2.01308 -0.0609468 0
M  V30 3796 C 366.736 3.4394 -0.436603 0
M  V30 3797 C 365.797 4.00825 -1.53746 0
M  V30 3798 C 365.03 5.22604 -1.0826 0
M  V30 3799 O 365.253 5.70367 0.0612244 0
M  V30 3800 O 364.187 5.7186 -1.87775 0
M  V30 3801 H 368.013 2.41169 -1.84584 0
M  V30 3802 H 365.598 1.1453 -0.959334 0
M  V30 3803 H 367.48 4.21024 -0.178057 0
M  V30 3804 H 366.155 3.20316 0.466869 0
M  V30 3805 H 365.062 3.25158 -1.84995 0
M  V30 3806 H 366.395 4.28778 -2.41683 0
M  V30 3807 N 368.047 0.979072 1.23499 0
M  V30 3808 C 368.977 0.537606 2.27227 0
M  V30 3809 C 369.958 -0.428539 1.64613 0
M  V30 3810 O 371.143 -0.322191 1.91509 0
M  V30 3811 C 368.273 -0.162052 3.46922 0
M  V30 3812 C 367.227 0.721242 4.21879 0
M  V30 3813 C 366.553 -0.110555 5.34586 0
M  V30 3814 C 367.853 2.01141 4.82016 0
M  V30 3815 H 369.547 1.40462 2.64406 0
M  V30 3816 H 367.093 0.67684 1.27102 0
M  V30 3817 H 369.046 -0.482192 4.18632 0
M  V30 3818 H 367.77 -1.06351 3.08799 0
M  V30 3819 H 366.429 1.02482 3.51984 0
M  V30 3820 H 366.077 -1.0125 4.92704 0
M  V30 3821 H 365.777 0.477325 5.85658 0
M  V30 3822 H 367.301 -0.425107 6.09118 0
M  V30 3823 H 368.715 1.75612 5.45741 0
M  V30 3824 H 367.112 2.54695 5.43369 0
M  V30 3825 H 368.182 2.69909 4.02836 0
M  V30 3826 N 369.525 -1.3858 0.750561 0
M  V30 3827 C 370.455 -2.33102 0.136237 0
M  V30 3828 C 371.436 -1.54713 -0.706965 0
M  V30 3829 O 372.621 -1.83043 -0.648769 0
M  V30 3830 C 369.751 -3.38882 -0.760017 0
M  V30 3831 C 368.705 -4.27995 -0.0197785 0
M  V30 3832 C 368.031 -5.24605 -1.03408 0
M  V30 3833 C 369.331 -5.09554 1.14684 0
M  V30 3834 H 371.025 -2.84726 0.925822 0
M  V30 3835 H 368.571 -1.36898 0.446654 0
M  V30 3836 H 370.524 -4.0397 -1.19943 0
M  V30 3837 H 369.248 -2.85734 -1.58189 0
M  V30 3838 H 367.907 -3.64409 0.400184 0
M  V30 3839 H 367.555 -4.67746 -1.84994 0
M  V30 3840 H 367.255 -5.85081 -0.543464 0
M  V30 3841 H 368.779 -5.9257 -1.47288 0
M  V30 3842 H 370.193 -5.67899 0.785118 0
M  V30 3843 H 368.59 -5.7925 1.56812 0
M  V30 3844 H 369.66 -4.4347 1.96118 0
M  V30 3845 N 371.003 -0.499398 -1.49478 0
M  V30 3846 C 372.414 -0.051215 -1.8663 0
M  V30 3847 C 372.765 1.36238 -1.41186 0
M  V30 3848 O 371.89 2.01502 -0.789051 0
M  V30 3849 C 372.485 -0.0861651 -3.3869 0
M  V30 3850 C 371.044 0.30667 -3.75149 0
M  V30 3851 C 370.191 -0.459397 -2.73468 0
M  V30 3852 H 373.142 -0.712264 -1.41818 0
M  V30 3853 H 373.163 0.709507 -3.73826 0
M  V30 3854 H 372.675 -1.11512 -3.71735 0
M  V30 3855 H 370.776 1.33892 -3.47712 0
M  V30 3856 H 370.889 -0.0116669 -4.79099 0
M  V30 3857 H 369.253 0.0905645 -2.54539 0
M  V30 3858 H 370.036 -1.4884 -3.09357 0
M  V30 3859 N 372.481 1.55866 -0.233164 0
M  V30 3860 C 373.727 1.99643 0.389148 0
M  V30 3861 C 374.082 1.11836 1.56558 0
M  V30 3862 O 373.375 0.170848 1.90837 0
M  V30 3863 C 373.569 3.46856 0.861724 0
M  V30 3864 C 373.398 4.48904 -0.267376 0
M  V30 3865 C 372.168 4.99888 -0.737577 0
M  V30 3866 C 374.366 5.02624 -1.08966 0
M  V30 3867 N 372.348 5.8566 -1.84052 0
M  V30 3868 C 373.719 5.85434 -2.04125 0
M  V30 3869 C 375.774 4.84959 -1.12779 0
M  V30 3870 C 374.477 6.52466 -3.02789 0
M  V30 3871 C 376.503 5.52759 -2.10266 0
M  V30 3872 C 375.865 6.35346 -3.04162 0
M  V30 3873 H 371.964 0.774402 0.108742 0
M  V30 3874 H 374.548 1.91572 -0.347596 0
M  V30 3875 H 372.719 3.55352 1.5678 0
M  V30 3876 H 374.451 3.77531 1.45783 0
M  V30 3877 H 371.206 4.7249 -0.324122 0
M  V30 3878 H 371.63 6.33246 -2.39434 0
M  V30 3879 H 376.272 4.20751 -0.415749 0
M  V30 3880 H 373.99 7.15849 -3.74948 0
M  V30 3881 H 377.576 5.41051 -2.13905 0
M  V30 3882 H 376.456 6.86883 -3.78366 0
M  V30 3883 N 373.959 -0.0401083 1.57549 0
M  V30 3884 C 375.207 -0.731677 1.8839 0
M  V30 3885 C 375.528 -1.76481 0.829425 0
M  V30 3886 O 374.798 -1.95411 -0.1383 0
M  V30 3887 H 373.378 -0.273225 0.695239 0
M  V30 3888 H 376.04 -0.00867725 1.94898 0
M  V30 3889 H 375.136 -1.22816 2.86919 0
M  V30 3890 N 375.437 -1.54477 -0.31217 0
M  V30 3891 C 376.683 -1.73483 -1.0503 0
M  V30 3892 C 377.016 -0.513125 -1.87298 0
M  V30 3893 O 376.291 0.489864 -1.8823 0
M  V30 3894 C 376.574 -3.01723 -1.96558 0
M  V30 3895 C 376.427 -4.3417 -1.17545 0
M  V30 3896 C 377.746 -3.25772 -2.95907 0
M  V30 3897 H 374.865 -0.631222 -0.380432 0
M  V30 3898 H 377.507 -1.87184 -0.325932 0
M  V30 3899 H 375.657 -2.90174 -2.58324 0
M  V30 3900 H 377.329 -4.5762 -0.581513 0
M  V30 3901 H 375.572 -4.31159 -0.477925 0
M  V30 3902 H 376.243 -5.20143 -1.84811 0
M  V30 3903 H 378.719 -3.36857 -2.44267 0
M  V30 3904 H 377.595 -4.16838 -3.57123 0
M  V30 3905 H 377.856 -2.43537 -3.68974 0
M  V30 3906 N 376.915 0.57481 -1.46744 0
M  V30 3907 C 377.862 1.68329 -1.57905 0
M  V30 3908 C 378.832 1.60625 -0.422927 0
M  V30 3909 O 380.017 1.79721 -0.640711 0
M  V30 3910 C 377.157 3.06665 -1.58274 0
M  V30 3911 C 376.27 3.24935 -2.84678 0
M  V30 3912 C 375.405 4.53566 -2.76499 0
M  V30 3913 C 374.444 4.65207 -3.97806 0
M  V30 3914 N 373.581 5.85172 -3.87967 0
M  V30 3915 H 378.421 1.58127 -2.52587 0
M  V30 3916 H 375.958 0.770552 -1.25303 0
M  V30 3917 H 377.916 3.86745 -1.56473 0
M  V30 3918 H 376.546 3.15745 -0.671194 0
M  V30 3919 H 375.598 2.38405 -2.96424 0
M  V30 3920 H 376.91 3.29403 -3.7456 0
M  V30 3921 H 376.064 5.41885 -2.72848 0
M  V30 3922 H 374.803 4.51548 -1.8427 0
M  V30 3923 H 373.808 3.75304 -4.0178 0
M  V30 3924 H 375.033 4.68997 -4.9114 0
M  V30 3925 H 372.979 5.84137 -2.98529 0
M  V30 3926 H 372.896 5.90943 -4.71511 0
M  V30 3927 H 374.164 6.759 -3.88303 0
M  V30 3928 N 378.394 1.34581 0.820102 0
M  V30 3929 C 379.64 1.27285 1.57881 0
M  V30 3930 C 379.973 -0.156137 1.93571 0
M  V30 3931 O 379.248 -1.10222 1.60254 0
M  V30 3932 C 379.531 2.16639 2.87645 0
M  V30 3933 C 379.384 3.68088 2.58517 0
M  V30 3934 C 380.703 2.05378 3.8924 0
M  V30 3935 H 377.822 0.463714 0.572833 0
M  V30 3936 H 380.464 1.64859 0.944539 0
M  V30 3937 H 378.614 1.84725 3.41773 0
M  V30 3938 H 380.286 4.10382 2.10676 0
M  V30 3939 H 378.529 3.89038 1.91917 0
M  V30 3940 H 379.2 4.2598 3.51063 0
M  V30 3941 H 381.676 2.33404 3.44473 0
M  V30 3942 H 380.552 2.7012 4.77835 0
M  V30 3943 H 380.813 1.0316 4.29896 0
M  V30 3944 N 379.872 -1.04064 1.18357 0
M  V30 3945 C 381.097 -1.81454 1.00445 0
M  V30 3946 C 381.522 -1.82823 -0.442423 0
M  V30 3947 O 380.88 -1.24555 -1.31741 0
M  V30 3948 C 380.928 -3.24925 1.56384 0
M  V30 3949 O 380.032 -4.04856 0.785209 0
M  V30 3950 H 379.373 -0.560604 0.355835 0
M  V30 3951 H 381.903 -1.31059 1.57114 0
M  V30 3952 H 381.913 -3.75702 1.59097 0
M  V30 3953 H 380.588 -3.23244 2.61699 0
M  V30 3954 H 379.165 -3.63537 0.830399 0
M  V30 3955 N 381.35 -0.985608 -1.22978 0
M  V30 3956 C 382.599 -0.652881 -1.90841 0
M  V30 3957 C 382.912 0.817842 -1.77681 0
M  V30 3958 O 384.118 1.26185 -2.40395 0
M  V30 3959 C 382.574 -1.11717 -3.42122 0
M  V30 3960 C 382.182 -2.6126 -3.63933 0
M  V30 3961 C 383.926 -0.85843 -4.1573 0
M  V30 3962 C 381.833 -3.0133 -5.08876 0
M  V30 3963 H 380.763 -0.240491 -0.714619 0
M  V30 3964 H 383.414 -1.1942 -1.39324 0
M  V30 3965 H 381.796 -0.504027 -3.92779 0
M  V30 3966 H 382.97 -3.27858 -3.23799 0
M  V30 3967 H 381.285 -2.84937 -3.03644 0
M  V30 3968 H 383.882 -1.13359 -5.22546 0
M  V30 3969 H 384.225 0.205461 -4.15793 0
M  V30 3970 H 384.758 -1.43341 -3.71077 0
M  V30 3971 H 381.497 -4.06864 -5.13947 0
M  V30 3972 H 381.017 -2.3943 -5.49939 0
M  V30 3973 H 382.696 -2.92224 -5.77247 0
M  V30 3974 N 382.828 1.3818 -0.7579 0
M  V30 3975 C 384.077 1.99261 -0.312744 0
M  V30 3976 C 384.39 1.60846 1.11301 0
M  V30 3977 O 385.596 2.14929 1.65885 0
M  V30 3978 C 384.052 3.56294 -0.50821 0
M  V30 3979 C 383.66 4.03657 -1.94333 0
M  V30 3980 C 385.404 4.24313 -0.125982 0
M  V30 3981 C 383.311 5.53347 -2.08712 0
M  V30 3982 H 382.241 0.745456 -0.113185 0
M  V30 3983 H 384.892 1.57889 -0.935056 0
M  V30 3984 H 383.274 3.95575 0.183353 0
M  V30 3985 H 384.448 3.75655 -2.66871 0
M  V30 3986 H 382.763 3.48376 -2.28086 0
M  V30 3987 H 385.36 5.34279 -0.212125 0
M  V30 3988 H 385.703 4.05962 0.921964 0
M  V30 3989 H 386.236 3.90285 -0.769563 0
M  V30 3990 H 382.975 5.76607 -3.11777 0
M  V30 3991 H 382.495 5.83078 -1.4064 0
M  V30 3992 H 384.174 6.19111 -1.87912 0
M  V30 3993 N 384.306 0.507319 1.49211 0
M  V30 3994 C 385.238 -0.304532 2.27168 0
M  V30 3995 C 386.251 -0.924956 1.33972 0
M  V30 3996 O 387.44 -0.807227 1.59205 0
M  V30 3997 C 384.54 -1.44431 3.06583 0
M  V30 3998 C 383.713 -0.930026 4.27398 0
M  V30 3999 C 382.772 -1.94817 4.88807 0
M  V30 4000 O 381.798 -1.51418 5.4869 0
M  V30 4001 N 383 -3.279 4.79022 0
M  V30 4002 H 385.765 0.36395 2.97482 0
M  V30 4003 H 383.326 0.340249 1.58284 0
M  V30 4004 H 385.318 -2.12311 3.44537 0
M  V30 4005 H 383.888 -2.01684 2.38835 0
M  V30 4006 H 383.108 -0.0759244 3.94127 0
M  V30 4007 H 384.396 -0.564932 5.05654 0
M  V30 4008 H 383.794 -3.65843 4.3148 0
M  V30 4009 H 382.351 -3.91476 5.21142 0
M  V30 4010 N 385.784 -1.5574 0.241426 0
M  V30 4011 C 387.195 -1.84842 -0.262755 0
M  V30 4012 C 387.546 -1.16317 -1.58003 0
M  V30 4013 O 386.671 -0.439653 -2.11887 0
M  V30 4014 C 387.266 -3.35332 -0.483523 0
M  V30 4015 C 385.825 -3.6468 -0.931977 0
M  V30 4016 C 384.972 -2.77299 -0.0061151 0
M  V30 4017 H 387.923 -1.51761 0.464129 0
M  V30 4018 H 387.944 -3.56615 -1.32688 0
M  V30 4019 H 387.456 -3.85178 0.47537 0
M  V30 4020 H 385.557 -3.20307 -1.90353 0
M  V30 4021 H 385.67 -4.72498 -0.792628 0
M  V30 4022 H 384.034 -2.49408 -0.516503 0
M  V30 4023 H 384.817 -3.2995 0.948052 0
M  V30 4024 N 387.262 0.0317525 -1.57568 0
M  V30 4025 C 388.51 0.721676 -1.88776 0
M  V30 4026 C 388.831 1.76039 -0.838772 0
M  V30 4027 O 388.101 1.95482 0.127935 0
M  V30 4028 H 386.681 0.269534 -0.696678 0
M  V30 4029 H 389.343 -0.00165879 -1.949 0
M  V30 4030 H 388.439 1.21293 -2.87566 0
M  V30 4031 N 388.74 1.54641 0.303973 0
M  V30 4032 C 389.98 1.75516 1.04755 0
M  V30 4033 C 390.344 0.528211 1.84591 0
M  V30 4034 O 391.545 0.614645 2.61678 0
M  V30 4035 C 389.816 3.00685 1.93193 0
M  V30 4036 S 391.375 3.42549 2.74237 0
M  V30 4037 H 388.193 0.616987 0.353339 0
M  V30 4038 H 390.795 1.92842 0.321292 0
M  V30 4039 H 389.499 3.8811 1.33411 0
M  V30 4040 H 389.03 2.85937 2.70191 0
M  V30 4041 H 391.045 2.99386 3.95705 0
M  V30 4042 N 390.218 -0.567019 1.47046 0
M  V30 4043 C 391.465 -1.32462 1.53167 0
M  V30 4044 C 391.793 -1.93571 0.189841 0
M  V30 4045 O 391.048 -1.77865 -0.816243 0
M  V30 4046 C 391.347 -2.4623 2.59047 0
M  V30 4047 C 391.013 -2.03014 4.02612 0
M  V30 4048 C 389.675 -1.90944 4.41694 0
M  V30 4049 C 392.027 -1.69895 4.92732 0
M  V30 4050 C 389.355 -1.44035 5.68745 0
M  V30 4051 C 391.707 -1.2446 6.20236 0
M  V30 4052 C 390.371 -1.10979 6.5821 0
M  V30 4053 H 389.641 -0.484713 0.560477 0
M  V30 4054 H 392.288 -0.636888 1.80599 0
M  V30 4055 H 390.593 -3.20517 2.25335 0
M  V30 4056 H 392.29 -3.04427 2.61008 0
M  V30 4057 H 388.88 -2.13348 3.71726 0
M  V30 4058 H 393.064 -1.78098 4.63244 0
M  V30 4059 H 388.32 -1.32254 5.96925 0
M  V30 4060 H 392.494 -0.978924 6.89485 0
M  V30 4061 H 390.121 -0.744078 7.5655 0
M  V30 4062 N 391.696 -1.35014 -0.812953 0
M  V30 4063 C 392.643 -1.27412 -1.92444 0
M  V30 4064 C 393.613 -0.14733 -1.65445 0
M  V30 4065 O 394.798 -0.329974 -1.87925 0
M  V30 4066 C 391.938 -1.04558 -3.28879 0
M  V30 4067 C 391.051 -2.26101 -3.68106 0
M  V30 4068 C 390.186 -1.96449 -4.9354 0
M  V30 4069 C 389.225 -3.14081 -5.25376 0
M  V30 4070 N 388.362 -2.84246 -6.41988 0
M  V30 4071 H 393.202 -2.22463 -1.98278 0
M  V30 4072 H 390.739 -1.10593 -0.969933 0
M  V30 4073 H 392.697 -0.893413 -4.07522 0
M  V30 4074 H 391.327 -0.131719 -3.22531 0
M  V30 4075 H 390.379 -2.52204 -2.84775 0
M  V30 4076 H 391.691 -3.13959 -3.87597 0
M  V30 4077 H 390.845 -1.78026 -5.79993 0
M  V30 4078 H 389.584 -1.05867 -4.76071 0
M  V30 4079 H 388.589 -3.33089 -4.37415 0
M  V30 4080 H 389.814 -4.05455 -5.44778 0
M  V30 4081 H 387.76 -1.96252 -6.25956 0
M  V30 4082 H 387.677 -3.65637 -6.61699 0
M  V30 4083 H 388.945 -2.6935 -7.31485 0
M  V30 4084 N 393.175 1.03435 -1.18907 0
M  V30 4085 C 394.403 1.80381 -1.01342 0
M  V30 4086 C 394.818 1.83649 0.438005 0
M  V30 4087 O 394.175 1.27655 1.30424 0
M  V30 4088 C 394.226 3.25689 -1.56873 0
M  V30 4089 O 393.947 3.22673 -2.96334 0
M  V30 4090 C 395.448 4.19255 -1.44014 0
M  V30 4091 H 392.668 0.56784 -0.35749 0
M  V30 4092 H 395.212 1.30317 -1.576 0
M  V30 4093 H 393.367 3.72962 -1.04777 0
M  V30 4094 H 393.781 4.13748 -3.22355 0
M  V30 4095 H 395.255 5.19123 -1.87657 0
M  V30 4096 H 395.732 4.37467 -0.389815 0
M  V30 4097 H 396.338 3.77851 -1.95214 0
M  V30 4098 N 394.653 0.992116 1.22453 0
M  V30 4099 C 395.563 0.55065 2.28046 0
M  V30 4100 C 396.579 -0.400189 1.69335 0
M  V30 4101 O 397.755 -0.267215 1.99619 0
M  V30 4102 C 394.82 -0.128496 3.46462 0
M  V30 4103 C 393.881 0.865208 4.20491 0
M  V30 4104 C 393.114 0.218377 5.33253 0
M  V30 4105 O 393.337 -0.987894 5.6178 0
M  V30 4106 O 392.271 0.922845 5.94783 0
M  V30 4107 H 396.097 1.4291 2.67975 0
M  V30 4108 H 393.682 0.760326 1.28606 0
M  V30 4109 H 395.564 -0.508947 4.18315 0
M  V30 4110 H 394.239 -0.981526 3.0846 0
M  V30 4111 H 393.146 1.29658 3.50913 0
M  V30 4112 H 394.479 1.68741 4.62371 0
M  V30 4113 N 396.131 -1.37776 0.765217 0
M  V30 4114 C 397.356 -2.04651 0.336537 0
M  V30 4115 C 397.781 -1.57337 -1.03086 0
M  V30 4116 O 397.139 -0.730621 -1.65927 0
M  V30 4117 C 397.187 -3.58577 0.381468 0
M  V30 4118 O 396.291 -4.07706 -0.62042 0
M  V30 4119 H 395.632 -0.64756 0.146838 0
M  V30 4120 H 398.162 -1.76221 1.03959 0
M  V30 4121 H 398.172 -4.07314 0.236448 0
M  V30 4122 H 396.847 -3.9237 1.37907 0
M  V30 4123 H 395.424 -3.70306 -0.439056 0
M  V30 4124 N 397.609 -0.515225 -1.4894 0
M  V30 4125 C 398.855 0.0242508 -2.02785 0
M  V30 4126 C 399.188 1.35323 -1.39289 0
M  V30 4127 O 398.463 1.87041 -0.533469 0
M  V30 4128 C 398.746 0.16184 -3.59736 0
M  V30 4129 C 398.599 -1.19127 -4.33738 0
M  V30 4130 C 399.918 0.895719 -4.30888 0
M  V30 4131 H 397.037 0.00733914 -0.736963 0
M  V30 4132 H 399.679 -0.669395 -1.77818 0
M  V30 4133 H 397.829 0.752624 -3.8114 0
M  V30 4134 H 399.501 -1.82202 -4.23792 0
M  V30 4135 H 397.744 -1.77695 -3.95736 0
M  V30 4136 H 398.415 -1.04815 -5.41957 0
M  V30 4137 H 400.891 0.394528 -4.14225 0
M  V30 4138 H 399.767 0.960859 -5.40425 0
M  V30 4139 H 400.028 1.9427 -3.97129 0
M  V30 4140 N 399.087 1.5561 -0.249682 0
M  V30 4141 C 400.503 1.59254 0.105103 0
M  V30 4142 C 400.703 1.26685 1.56694 0
M  V30 4143 O 399.759 1.0155 2.31179 0
M  V30 4144 C 401.072 2.99687 -0.246592 0
M  V30 4145 C 402.62 3.12416 -0.191118 0
M  V30 4146 C 403.095 4.55074 -0.516885 0
M  V30 4147 N 404.586 4.60835 -0.467489 0
M  V30 4148 C 405.321 5.69201 -0.69268 0
M  V30 4149 N 404.817 6.85817 -0.981146 0
M  V30 4150 N 406.61 5.58635 -0.623198 0
M  V30 4151 H 398.761 1.75049 -1.20298 0
M  V30 4152 H 401.024 0.815003 -0.484225 0
M  V30 4153 H 400.73 3.28267 -1.26228 0
M  V30 4154 H 400.604 3.74798 0.424962 0
M  V30 4155 H 402.991 2.83615 0.815247 0
M  V30 4156 H 403.072 2.39573 -0.896563 0
M  V30 4157 H 402.716 4.84596 -1.52082 0
M  V30 4158 H 402.646 5.26181 0.210068 0
M  V30 4159 H 405.137 3.7705 -0.253373 0
M  V30 4160 H 405.45 7.64341 -1.14032 0
M  V30 4161 H 403.795 6.87494 -1.01865 0
M  V30 4162 H 406.986 4.66406 -0.397863 0
M  V30 4163 H 407.159 6.43017 -0.802093 0
M  V30 4164 N 400.565 -0.0233959 1.57583 0
M  V30 4165 C 401.513 -1.04063 2.08023 0
M  V30 4166 C 402.507 -1.37084 0.995204 0
M  V30 4167 O 403.713 -1.35923 1.18004 0
M  V30 4168 H 400.088 -0.353144 0.663922 0
M  V30 4169 H 402.059 -0.589453 2.9252 0
M  V30 4170 C 400.808 -2.33123 2.57971 0
M  V30 4171 H 400.131 -2.08577 3.4108 0
M  V30 4172 H 401.571 -3.02632 2.96967 0
M  V30 4173 C 400.03 -3.02483 1.48342 0
M  V30 4174 O 400.56 -3.92541 0.852898 0
M  V30 4175 N 398.766 -2.63909 1.21658 0
M  V30 4176 H 398.313 -1.90758 1.73116 0
M  V30 4177 H 398.271 -3.10633 0.485218 0
M  V30 4178 N 402.043 -1.548 -0.295768 0
M  V30 4179 C 403.289 -1.74588 -1.03184 0
M  V30 4180 C 403.622 -0.532962 -1.86744 0
M  V30 4181 O 402.897 0.469872 -1.88739 0
M  V30 4182 C 403.18 -3.03791 -1.93347 0
M  V30 4183 C 403.033 -4.35392 -1.12933 0
M  V30 4184 C 404.352 -3.28892 -2.92435 0
M  V30 4185 H 401.471 -0.635221 -0.373715 0
M  V30 4186 H 404.113 -1.87519 -0.30606 0
M  V30 4187 H 402.263 -2.92898 -2.55232 0
M  V30 4188 H 403.935 -4.58211 -0.532943 0
M  V30 4189 H 402.178 -4.31642 -0.432168 0
M  V30 4190 H 402.849 -5.22074 -1.79284 0
M  V30 4191 H 405.325 -3.39429 -2.4068 0
M  V30 4192 H 404.201 -4.20603 -3.52682 0
M  V30 4193 H 404.462 -2.47437 -3.6637 0
M  V30 4194 N 403.521 0.559213 -1.47345 0
M  V30 4195 C 404.769 1.31388 -1.53563 0
M  V30 4196 C 405.09 1.93985 -0.198678 0
M  V30 4197 O 404.36 1.79825 0.777167 0
M  V30 4198 H 402.94 0.487901 -0.565652 0
M  V30 4199 H 405.602 0.65315 -1.8363 0
M  V30 4200 H 404.698 2.10844 -2.30111 0
M  V30 4201 N 404.999 1.35443 0.805782 0
M  V30 4202 C 405.931 1.24285 1.92577 0
M  V30 4203 C 406.944 0.165962 1.61952 0
M  V30 4204 O 408.133 0.419303 1.73505 0
M  V30 4205 C 405.233 0.891272 3.2697 0
M  V30 4206 C 404.406 2.06669 3.85495 0
M  V30 4207 C 403.465 1.69077 4.98297 0
M  V30 4208 O 402.491 2.4096 5.15681 0
M  V30 4209 N 403.693 0.614869 5.77234 0
M  V30 4210 H 406.458 2.20777 2.02676 0
M  V30 4211 H 404.019 1.28623 0.983243 0
M  V30 4212 H 406.011 0.621256 3.99903 0
M  V30 4213 H 404.581 0.016004 3.12596 0
M  V30 4214 H 403.801 2.50046 3.04747 0
M  V30 4215 H 405.089 2.85237 4.21328 0
M  V30 4216 H 404.487 0.017648 5.65697 0
M  V30 4217 H 403.044 0.404636 6.50543 0
M  V30 4218 N 406.477 -1.02803 1.19454 0
M  V30 4219 C 407.723 -1.76598 1.0092 0
M  V30 4220 C 408.078 -1.86939 -0.455142 0
M  V30 4221 O 407.371 -1.37575 -1.33355 0
M  V30 4222 C 407.565 -3.18941 1.6128 0
M  V30 4223 C 407.394 -3.22476 3.13431 0
M  V30 4224 C 406.164 -3.30375 3.82336 0
M  V30 4225 C 408.362 -3.09451 4.10785 0
M  V30 4226 N 406.344 -3.23292 5.21877 0
M  V30 4227 C 407.715 -3.10012 5.36929 0
M  V30 4228 C 409.77 -2.93585 4.02135 0
M  V30 4229 C 408.473 -2.96334 6.55423 0
M  V30 4230 C 410.499 -2.81256 5.20239 0
M  V30 4231 C 409.861 -2.82472 6.45282 0
M  V30 4232 H 405.96 -0.657447 0.423424 0
M  V30 4233 H 408.544 -1.22369 1.5144 0
M  V30 4234 H 406.715 -3.71489 1.1336 0
M  V30 4235 H 408.447 -3.81102 1.36173 0
M  V30 4236 H 405.202 -3.3663 3.33132 0
M  V30 4237 H 405.626 -3.23156 5.94894 0
M  V30 4238 H 410.268 -2.91466 3.0628 0
M  V30 4239 H 407.986 -2.97203 7.51463 0
M  V30 4240 H 411.572 -2.70014 5.15348 0
M  V30 4241 H 410.452 -2.73036 7.35133 0
M  V30 4242 N 407.956 -0.998596 -1.21925 0
M  V30 4243 C 408.866 -0.562736 -2.27751 0
M  V30 4244 C 409.882 0.391203 -1.69545 0
M  V30 4245 O 411.058 0.256625 -1.99758 0
M  V30 4246 C 408.123 0.11012 -3.46525 0
M  V30 4247 C 407.184 -0.887495 -4.20026 0
M  V30 4248 C 406.417 -0.246654 -5.3313 0
M  V30 4249 O 406.64 0.958088 -5.62296 0
M  V30 4250 O 405.574 -0.954374 -5.94286 0
M  V30 4251 H 409.4 -1.44329 -2.67213 0
M  V30 4252 H 406.985 -0.767135 -1.28201 0
M  V30 4253 H 408.867 0.486756 -4.18579 0
M  V30 4254 H 407.542 0.965154 -3.08976 0
M  V30 4255 H 406.449 -1.31517 -3.5022 0
M  V30 4256 H 407.782 -1.71191 -4.6147 0
M  V30 4257 N 409.434 1.37368 -0.772513 0
M  V30 4258 C 410.381 2.30262 -0.157488 0
M  V30 4259 C 411.351 1.51137 0.688965 0
M  V30 4260 O 412.536 1.79704 0.641168 0
M  V30 4261 C 409.676 3.37611 0.715045 0
M  V30 4262 C 408.789 4.31746 -0.148098 0
M  V30 4263 C 407.924 5.26171 0.729213 0
M  V30 4264 C 406.963 6.11948 -0.136418 0
M  V30 4265 N 406.1 6.98613 0.698914 0
M  V30 4266 H 410.94 2.82277 -0.955179 0
M  V30 4267 H 408.477 1.38957 -0.482631 0
M  V30 4268 H 410.435 3.98479 1.23575 0
M  V30 4269 H 409.065 2.86959 1.47833 0
M  V30 4270 H 408.117 3.72178 -0.786613 0
M  V30 4271 H 409.429 4.92084 -0.81579 0
M  V30 4272 H 408.583 5.92247 1.31637 0
M  V30 4273 H 407.322 4.66246 1.43059 0
M  V30 4274 H 406.327 5.4485 -0.736102 0
M  V30 4275 H 407.552 6.73945 -0.835134 0
M  V30 4276 H 405.498 6.41215 1.38489 0
M  V30 4277 H 405.415 7.55948 0.0885358 0
M  V30 4278 H 406.683 7.69077 1.27044 0
M  V30 4279 N 410.912 0.523116 1.48665 0
M  V30 4280 C 412.328 0.180511 1.58576 0
M  V30 4281 C 412.528 -1.31597 1.52592 0
M  V30 4282 O 411.584 -2.0937 1.4114 0
M  V30 4283 C 412.897 0.776949 2.90489 0
M  V30 4284 C 414.445 0.745058 3.04003 0
M  V30 4285 C 414.92 1.31995 4.38567 0
M  V30 4286 N 416.411 1.28162 4.45117 0
M  V30 4287 C 417.146 1.6964 5.47731 0
M  V30 4288 N 416.642 2.18816 6.57337 0
M  V30 4289 N 418.435 1.6092 5.38573 0
M  V30 4290 H 410.586 1.4958 1.50797 0
M  V30 4291 H 412.849 0.621772 0.715614 0
M  V30 4292 H 412.555 1.82732 3.00503 0
M  V30 4293 H 412.429 0.25007 3.7637 0
M  V30 4294 H 414.816 -0.296532 2.93606 0
M  V30 4295 H 414.897 1.30933 2.1975 0
M  V30 4296 H 414.541 2.36043 4.49718 0
M  V30 4297 H 414.471 0.731418 5.21496 0
M  V30 4298 H 416.962 0.92155 3.66491 0
M  V30 4299 H 417.275 2.48478 7.31764 0
M  V30 4300 H 415.62 2.22805 6.58318 0
M  V30 4301 H 418.811 1.22304 4.5184 0
M  V30 4302 H 418.984 1.93567 6.18414 0
M  V30 4303 N 412.39 -1.55475 0.257931 0
M  V30 4304 C 413.337 -2.21837 -0.636939 0
M  V30 4305 C 414.307 -1.18596 -1.16294 0
M  V30 4306 O 415.492 -1.47081 -1.21539 0
M  V30 4307 C 412.632 -2.9301 -1.82317 0
M  V30 4308 C 411.745 -4.10931 -1.33265 0
M  V30 4309 C 410.88 -4.69791 -2.47931 0
M  V30 4310 C 409.919 -5.7994 -1.95796 0
M  V30 4311 N 409.056 -6.32935 -3.0387 0
M  V30 4312 H 413.896 -2.9793 -0.0643591 0
M  V30 4313 H 411.433 -1.47086 -0.0200031 0
M  V30 4314 H 413.391 -3.3248 -2.52018 0
M  V30 4315 H 412.021 -2.1937 -2.36805 0
M  V30 4316 H 411.073 -3.76699 -0.52931 0
M  V30 4317 H 412.385 -4.90417 -0.910654 0
M  V30 4318 H 411.539 -5.11892 -3.25656 0
M  V30 4319 H 410.278 -3.89545 -2.93438 0
M  V30 4320 H 409.283 -5.37305 -1.16546 0
M  V30 4321 H 410.508 -6.62043 -1.51246 0
M  V30 4322 H 408.454 -5.55591 -3.48791 0
M  V30 4323 H 408.371 -7.07645 -2.66035 0
M  V30 4324 H 409.639 -6.79695 -3.81621 0
M  V30 4325 N 413.868 0.0150385 -1.57593 0
M  V30 4326 C 414.8 1.03912 -2.04291 0
M  V30 4327 C 415.813 1.31618 -0.958146 0
M  V30 4328 O 417.002 1.28859 -1.23522 0
M  V30 4329 C 414.102 2.37749 -2.41514 0
M  V30 4330 C 413.275 2.29198 -3.72541 0
M  V30 4331 C 412.334 3.45598 -3.96797 0
M  V30 4332 O 411.36 3.24461 -4.67668 0
M  V30 4333 N 412.562 4.67945 -3.43523 0
M  V30 4334 H 415.327 0.64099 -2.92765 0
M  V30 4335 H 412.888 0.20272 -1.60626 0
M  V30 4336 H 414.88 3.14364 -2.54867 0
M  V30 4337 H 413.45 2.69357 -1.58637 0
M  V30 4338 H 412.67 1.3759 -3.69408 0
M  V30 4339 H 413.958 2.20642 -4.5847 0
M  V30 4340 H 413.356 4.88017 -2.86104 0
M  V30 4341 H 411.913 5.41878 -3.62232 0
M  V30 4342 N 415.346 1.54954 0.287554 0
M  V30 4343 C 416.276 1.89839 1.35954 0
M  V30 4344 C 417.257 0.758675 1.52244 0
M  V30 4345 O 418.442 1.01557 1.65529 0
M  V30 4346 C 415.572 2.15753 2.72154 0
M  V30 4347 C 414.526 3.3159 2.70614 0
M  V30 4348 C 413.852 3.42952 4.10229 0
M  V30 4349 C 415.152 4.68359 2.31165 0
M  V30 4350 H 416.846 2.79625 1.07007 0
M  V30 4351 H 414.392 1.3454 0.513316 0
M  V30 4352 H 416.345 2.38743 3.47246 0
M  V30 4353 H 415.069 1.22752 3.02654 0
M  V30 4354 H 413.728 3.08545 1.97979 0
M  V30 4355 H 413.376 2.47443 4.37928 0
M  V30 4356 H 413.076 4.20826 4.10097 0
M  V30 4357 H 414.6 3.68218 4.87081 0
M  V30 4358 H 416.014 4.9099 2.95976 0
M  V30 4359 H 414.411 5.49044 2.42221 0
M  V30 4360 H 415.481 4.68165 1.26291 0
M  V30 4361 N 416.824 -0.551391 1.4764 0
M  V30 4362 C 417.754 -1.66757 1.63445 0
M  V30 4363 C 418.735 -1.63077 0.483742 0
M  V30 4364 O 419.92 -1.80607 0.71377 0
M  V30 4365 C 417.05 -3.05387 1.65396 0
M  V30 4366 C 416.004 -3.23918 2.79752 0
M  V30 4367 C 415.33 -4.63393 2.66779 0
M  V30 4368 C 416.63 -3.08735 4.21284 0
M  V30 4369 H 418.324 -1.53786 2.56886 0
M  V30 4370 H 415.87 -0.738415 1.23626 0
M  V30 4371 H 417.823 -3.83325 1.75043 0
M  V30 4372 H 416.547 -3.19332 0.685195 0
M  V30 4373 H 415.206 -2.48391 2.69625 0
M  V30 4374 H 414.854 -4.74144 1.67918 0
M  V30 4375 H 414.554 -4.7674 3.43501 0
M  V30 4376 H 416.078 -5.43458 2.78364 0
M  V30 4377 H 417.492 -3.76484 4.32357 0
M  V30 4378 H 415.889 -3.33588 4.98838 0
M  V30 4379 H 416.959 -2.0541 4.39243 0
M  V30 4380 N 418.302 -1.35869 -0.798587 0
M  V30 4381 C 419.232 -1.32118 -1.92528 0
M  V30 4382 C 420.213 -0.194209 -1.68988 0
M  V30 4383 O 421.398 -0.390426 -1.90235 0
M  V30 4384 C 418.528 -1.10047 -3.29404 0
M  V30 4385 C 417.482 -2.19471 -3.67446 0
M  V30 4386 C 416.808 -1.82555 -5.02571 0
M  V30 4387 C 418.108 -3.61495 -3.76987 0
M  V30 4388 H 419.802 -2.26394 -1.95924 0
M  V30 4389 H 417.348 -1.08981 -0.94123 0
M  V30 4390 H 419.301 -1.06061 -4.07835 0
M  V30 4391 H 418.025 -0.122195 -3.26371 0
M  V30 4392 H 416.684 -2.22568 -2.91306 0
M  V30 4393 H 416.332 -0.833249 -4.9605 0
M  V30 4394 H 416.032 -2.5581 -5.28995 0
M  V30 4395 H 417.556 -1.80108 -5.83432 0
M  V30 4396 H 418.97 -3.60676 -4.4563 0
M  V30 4397 H 417.367 -4.33577 -4.14887 0
M  V30 4398 H 418.437 -3.97065 -2.78329 0
M  V30 4399 N 419.78 1.02168 -1.19998 0
M  V30 4400 C 420.743 2.08765 -0.94604 0
M  V30 4401 C 421.743 1.60618 0.0763846 0
M  V30 4402 O 422.933 1.73472 -0.159135 0
M  V30 4403 C 420.065 3.38262 -0.423255 0
M  V30 4404 H 421.258 2.32726 -1.89153 0
M  V30 4405 H 418.811 1.1889 -1.01464 0
M  V30 4406 H 419.546 3.19974 0.527938 0
M  V30 4407 H 419.331 3.74532 -1.16053 0
M  V30 4408 H 420.821 4.16759 -0.264911 0
M  V30 4409 N 421.258 1.00505 1.21394 0
M  V30 4410 C 422.206 0.558623 2.25792 0
M  V30 4411 C 423.2 -0.396848 1.64686 0
M  V30 4412 O 424.406 -0.268035 1.77993 0
M  V30 4413 H 420.781 0.1623 0.734277 0
M  V30 4414 H 422.752 1.4503 2.60785 0
M  V30 4415 C 421.501 -0.0989574 3.47559 0
M  V30 4416 H 420.824 0.627225 3.94849 0
M  V30 4417 H 422.264 -0.3746 4.22342 0
M  V30 4418 C 420.723 -1.33817 3.09184 0
M  V30 4419 O 421.253 -2.43252 3.19674 0
M  V30 4420 N 419.459 -1.21793 2.63846 0
M  V30 4421 H 419.006 -0.32746 2.5551 0
M  V30 4422 H 418.964 -2.04809 2.38539 0
M  V30 4423 N 422.737 -1.36956 0.779787 0
M  V30 4424 C 423.667 -2.32761 0.185651 0
M  V30 4425 C 424.648 -1.56177 -0.673989 0
M  V30 4426 O 425.833 -1.84378 -0.609797 0
M  V30 4427 C 422.963 -3.40418 -0.687964 0
M  V30 4428 C 421.917 -4.27941 0.0710102 0
M  V30 4429 C 421.243 -5.26681 -0.922573 0
M  V30 4430 C 422.543 -5.07006 1.25467 0
M  V30 4431 H 424.237 -2.82698 0.986008 0
M  V30 4432 H 421.783 -1.3592 0.475592 0
M  V30 4433 H 423.736 -4.06423 -1.11348 0
M  V30 4434 H 422.46 -2.89025 -1.52093 0
M  V30 4435 H 421.119 -3.63478 0.47739 0
M  V30 4436 H 420.767 -4.71565 -1.7503 0
M  V30 4437 H 420.467 -5.86103 -0.419237 0
M  V30 4438 H 421.991 -5.9556 -1.34686 0
M  V30 4439 H 423.405 -5.66105 0.905401 0
M  V30 4440 H 421.802 -5.75793 1.69063 0
M  V30 4441 H 422.872 -4.3921 2.05481 0
M  V30 4442 N 424.215 -0.530993 -1.48385 0
M  V30 4443 C 425.626 -0.0907905 -1.86479 0
M  V30 4444 C 425.977 1.33213 -1.44044 0
M  V30 4445 O 425.102 1.99783 -0.831615 0
M  V30 4446 C 425.697 -0.157987 -3.38431 0
M  V30 4447 C 424.256 0.227026 -3.75715 0
M  V30 4448 C 423.403 -0.5173 -2.72432 0
M  V30 4449 H 426.354 -0.742186 -1.40276 0
M  V30 4450 H 426.375 0.630053 -3.75247 0
M  V30 4451 H 425.887 -1.19372 -3.69286 0
M  V30 4452 H 423.988 1.26486 -3.50474 0
M  V30 4453 H 424.101 -0.113288 -4.78966 0
M  V30 4454 H 422.465 0.0365527 -2.54674 0
M  V30 4455 H 423.248 -1.55368 -3.0613 0
M  V30 4456 N 425.693 1.55336 -0.266172 0
M  V30 4457 C 426.625 2.19544 0.658247 0
M  V30 4458 C 427.638 1.17746 1.12427 0
M  V30 4459 O 428.827 1.44517 1.04772 0
M  V30 4460 C 425.927 2.80032 1.9088 0
M  V30 4461 C 425.1 4.07436 1.59106 0
M  V30 4462 C 424.159 4.52056 2.69317 0
M  V30 4463 O 423.185 5.18023 2.35883 0
M  V30 4464 N 424.387 4.21448 3.99201 0
M  V30 4465 H 427.152 2.99503 0.108754 0
M  V30 4466 H 424.713 1.61667 -0.0869059 0
M  V30 4467 H 426.705 3.06831 2.63888 0
M  V30 4468 H 425.275 2.04119 2.36758 0
M  V30 4469 H 424.495 3.88021 0.695243 0
M  V30 4470 H 425.783 4.90462 1.35367 0
M  V30 4471 H 425.181 3.68528 4.29189 0
M  V30 4472 H 423.738 4.53039 4.68614 0
M  V30 4473 N 427.171 -0.0066808 1.57599 0
M  V30 4474 C 428.081 -1.01671 2.11424 0
M  V30 4475 C 429.097 -1.38143 1.05795 0
M  V30 4476 O 430.273 -1.47011 1.37658 0
M  V30 4477 C 427.338 -2.29192 2.60139 0
M  V30 4478 C 426.399 -1.99094 3.80342 0
M  V30 4479 C 425.632 -3.20535 4.26724 0
M  V30 4480 O 425.855 -4.3199 3.72479 0
M  V30 4481 O 424.789 -3.04924 5.18946 0
M  V30 4482 H 428.615 -0.589181 2.9793 0
M  V30 4483 H 426.2 -0.225091 1.47695 0
M  V30 4484 H 428.082 -3.0412 2.917 0
M  V30 4485 H 426.757 -2.71195 1.76733 0
M  V30 4486 H 425.664 -1.21663 3.53764 0
M  V30 4487 H 426.997 -1.61931 4.648 0
M  V30 4488 N 428.649 -1.55105 -0.279332 0
M  V30 4489 C 429.579 -1.90557 -1.34945 0
M  V30 4490 C 430.56 -0.766738 -1.51839 0
M  V30 4491 O 431.745 -1.02434 -1.64988 0
M  V30 4492 C 428.875 -2.17193 -2.71006 0
M  V30 4493 C 427.829 -3.33021 -2.68851 0
M  V30 4494 C 427.155 -3.45123 -4.08405 0
M  V30 4495 C 428.455 -4.69578 -2.28678 0
M  V30 4496 H 430.149 -2.80188 -1.05522 0
M  V30 4497 H 427.695 -1.34811 -0.506173 0
M  V30 4498 H 429.648 -2.40581 -3.45975 0
M  V30 4499 H 428.372 -1.24355 -3.01999 0
M  V30 4500 H 427.031 -3.0959 -1.9634 0
M  V30 4501 H 426.679 -2.49762 -4.3661 0
M  V30 4502 H 426.379 -4.22995 -4.07859 0
M  V30 4503 H 427.903 -3.70796 -4.85121 0
M  V30 4504 H 429.317 -4.92553 -2.93368 0
M  V30 4505 H 427.714 -5.5032 -2.39306 0
M  V30 4506 H 428.784 -4.68828 -1.23807 0
M  V30 4507 N 430.127 0.543554 -1.4793 0
M  V30 4508 C 431.057 1.65888 -1.64327 0
M  V30 4509 C 432.038 1.62818 -0.492383 0
M  V30 4510 O 433.223 1.80226 -0.723338 0
M  V30 4511 C 430.353 3.04506 -1.67013 0
M  V30 4512 C 429.307 3.2243 -2.81466 0
M  V30 4513 C 428.633 4.61972 -2.69233 0
M  V30 4514 C 429.933 3.06496 -4.22915 0
M  V30 4515 H 431.627 1.52421 -2.57698 0
M  V30 4516 H 429.173 0.731849 -1.24016 0
M  V30 4517 H 431.126 3.82391 -1.77074 0
M  V30 4518 H 429.85 3.18964 -0.70212 0
M  V30 4519 H 428.509 2.46957 -2.70938 0
M  V30 4520 H 428.157 4.73247 -1.7043 0
M  V30 4521 H 427.857 4.74911 -3.46025 0
M  V30 4522 H 429.381 5.41974 -2.81242 0
M  V30 4523 H 430.795 3.74186 -4.34348 0
M  V30 4524 H 429.192 3.30938 -5.006 0
M  V30 4525 H 430.262 2.03077 -4.40327 0
M  V30 4526 N 431.605 1.3629 0.791371 0
M  V30 4527 C 432.537 1.26321 1.91248 0
M  V30 4528 C 433.55 0.18313 1.61767 0
M  V30 4529 O 434.739 0.437682 1.73051 0
M  V30 4530 C 431.839 0.925901 3.26007 0
M  V30 4531 C 431.012 2.10746 3.83281 0
M  V30 4532 C 430.071 1.74352 4.96475 0
M  V30 4533 O 429.097 2.46416 5.13096 0
M  V30 4534 N 430.299 0.676058 5.7655 0
M  V30 4535 H 433.064 2.22915 2.00323 0
M  V30 4536 H 430.625 1.29659 0.969546 0
M  V30 4537 H 432.617 0.663636 3.99222 0
M  V30 4538 H 431.187 0.0491581 3.12561 0
M  V30 4539 H 430.407 2.53264 3.02077 0
M  V30 4540 H 431.695 2.8969 4.18279 0
M  V30 4541 H 431.093 0.0776467 5.65647 0
M  V30 4542 H 429.65 0.473612 6.50077 0
M  V30 4543 N 433.083 -1.0153 1.20538 0
M  V30 4544 C 434.046 -2.0826 0.957098 0
M  V30 4545 C 435.046 -1.60657 -0.0678655 0
M  V30 4546 O 436.236 -1.73385 0.168332 0
M  V30 4547 C 433.368 -3.38033 0.441188 0
M  V30 4548 H 434.561 -2.31719 1.90384 0
M  V30 4549 H 432.114 -1.1835 1.02093 0
M  V30 4550 H 432.849 -3.20249 -0.510961 0
M  V30 4551 H 432.634 -3.73911 1.18038 0
M  V30 4552 H 434.124 -4.16613 0.287009 0
M  V30 4553 N 434.561 -1.01147 -1.20859 0
M  V30 4554 C 435.791 -0.715872 -1.93801 0
M  V30 4555 C 436.199 0.726592 -1.74692 0
M  V30 4556 O 435.542 1.50397 -1.05482 0
M  V30 4557 C 435.604 -0.965269 -3.46299 0
M  V30 4558 C 435.268 -2.39584 -3.89164 0
M  V30 4559 C 436.265 -3.3764 -3.95342 0
M  V30 4560 C 433.95 -2.73522 -4.21297 0
M  V30 4561 C 435.944 -4.67698 -4.33056 0
M  V30 4562 C 433.631 -4.03794 -4.58687 0
M  V30 4563 C 434.629 -5.00693 -4.64538 0
M  V30 4564 O 434.317 -6.28635 -5.01072 0
M  V30 4565 H 434.049 -0.262524 -0.622942 0
M  V30 4566 H 436.603 -1.35413 -1.54443 0
M  V30 4567 H 434.833 -0.269847 -3.85757 0
M  V30 4568 H 436.522 -0.662051 -4.00464 0
M  V30 4569 H 437.288 -3.12757 -3.70686 0
M  V30 4570 H 433.167 -1.9879 -4.15937 0
M  V30 4571 H 436.711 -5.4333 -4.37537 0
M  V30 4572 H 432.608 -4.28459 -4.82797 0
M  V30 4573 H 433.376 -6.32847 -5.19083 0
M  V30 4574 N 436.039 1.36541 -0.78704 0
M  V30 4575 C 437.287 1.98911 -0.357633 0
M  V30 4576 C 437.608 1.62778 1.07371 0
M  V30 4577 O 436.878 0.900612 1.73971 0
M  V30 4578 H 435.458 0.735734 -0.129246 0
M  V30 4579 H 438.12 1.66776 -1.00855 0
M  V30 4580 H 437.216 3.08874 -0.447549 0
M  V30 4581 N 437.518 0.538854 1.48102 0
M  V30 4582 C 438.465 -0.219042 2.29758 0
M  V30 4583 C 439.435 -0.925562 1.37922 0
M  V30 4584 O 440.62 -0.924855 1.66886 0
M  V30 4585 C 437.76 -1.25452 3.2149 0
M  V30 4586 C 436.873 -0.555943 4.28408 0
M  V30 4587 C 436.008 -1.57512 5.0731 0
M  V30 4588 C 435.047 -0.860498 6.06021 0
M  V30 4589 N 434.184 -1.82564 6.77949 0
M  V30 4590 H 439.024 0.483449 2.94052 0
M  V30 4591 H 436.561 0.250247 1.44956 0
M  V30 4592 H 438.519 -1.86727 3.7308 0
M  V30 4593 H 437.149 -1.92528 2.591 0
M  V30 4594 H 436.201 0.170938 3.80016 0
M  V30 4595 H 437.513 0.00474616 4.988 0
M  V30 4596 H 436.667 -2.26191 5.62959 0
M  V30 4597 H 435.406 -2.16972 4.36778 0
M  V30 4598 H 434.411 -0.159686 5.49568 0
M  V30 4599 H 435.636 -0.271897 6.78555 0
M  V30 4600 H 433.582 -2.40915 6.10161 0
M  V30 4601 H 433.499 -1.31662 7.44447 0
M  V30 4602 H 434.767 -2.50414 7.38182 0
M  V30 4603 N 438.996 -1.55193 0.274407 0
M  V30 4604 C 440.273 -1.91584 -0.394331 0
M  V30 4605 C 440.653 -1.19858 -1.73774 0
M  V30 4606 O 440.001 -0.3252 -2.26174 0
M  V30 4607 C 440.211 -3.4487 -0.535311 0
M  V30 4608 C 441.559 -4.16636 -0.818534 0
M  V30 4609 O 442.583 -3.5076 -0.620146 0
M  V30 4610 O 441.442 -5.33209 -1.19792 0
M  V30 4611 H 438.536 -0.798349 -0.215794 0
M  V30 4612 H 441.082 -1.66646 0.320507 0
M  V30 4613 H 439.854 -3.89145 0.410141 0
M  V30 4614 H 439.477 -3.75759 -1.29964 0
M  V30 4615 N 440.474 -0.00167713 -1.576 0
M  V30 4616 C 441.704 0.692754 -1.94639 0
M  V30 4617 C 442.112 1.67744 -0.87513 0
M  V30 4618 O 441.455 1.8305 0.154382 0
M  V30 4619 C 441.517 1.47881 -3.27676 0
M  V30 4620 C 441.181 0.655518 -4.52274 0
M  V30 4621 C 442.178 -0.0575214 -5.19868 0
M  V30 4622 C 439.863 0.600994 -4.98692 0
M  V30 4623 C 441.857 -0.814052 -6.3218 0
M  V30 4624 C 439.544 -0.15926 -6.10892 0
M  V30 4625 C 440.542 -0.865515 -6.77494 0
M  V30 4626 O 440.23 -1.61336 -7.87544 0
M  V30 4627 H 439.962 0.197792 -0.646417 0
M  V30 4628 H 442.516 -0.049423 -2.05341 0
M  V30 4629 H 440.746 2.2655 -3.13388 0
M  V30 4630 H 442.435 2.05874 -3.49816 0
M  V30 4631 H 443.201 -0.0245611 -4.84994 0
M  V30 4632 H 439.08 1.14025 -4.46676 0
M  V30 4633 H 442.624 -1.36584 -6.84098 0
M  V30 4634 H 438.521 -0.194035 -6.45208 0
M  V30 4635 H 439.289 -1.53025 -8.04068 0
M  V30 4636 N 441.952 1.55251 0.271103 0
M  V30 4637 C 443.201 1.75151 1.00025 0
M  V30 4638 C 443.514 0.561041 1.87381 0
M  V30 4639 O 444.72 0.642506 2.63788 0
M  V30 4640 C 443.176 3.09999 1.82835 0
M  V30 4641 C 442.784 4.3662 1.00336 0
M  V30 4642 C 444.528 3.39249 2.55168 0
M  V30 4643 C 442.435 5.62506 1.82595 0
M  V30 4644 H 441.365 0.652877 0.377183 0
M  V30 4645 H 444.016 1.81708 0.255843 0
M  V30 4646 H 442.398 2.97485 2.61378 0
M  V30 4647 H 443.572 4.60055 0.261959 0
M  V30 4648 H 441.887 4.14527 0.394486 0
M  V30 4649 H 444.484 4.3051 3.1712 0
M  V30 4650 H 444.827 2.59467 3.2555 0
M  V30 4651 H 445.36 3.52869 1.83653 0
M  V30 4652 H 442.099 6.45041 1.16631 0
M  V30 4653 H 441.619 5.43211 2.54327 0
M  V30 4654 H 443.298 6.00875 2.39913 0
M  V30 4655 N 443.43 -0.535701 1.48216 0
M  V30 4656 C 444.34 -1.66785 1.64985 0
M  V30 4657 C 445.356 -1.65654 0.532414 0
M  V30 4658 O 446.532 -1.8471 0.80275 0
M  V30 4659 C 443.597 -3.0326 1.68031 0
M  V30 4660 C 442.658 -3.1529 2.9136 0
M  V30 4661 C 441.891 -4.45255 2.94252 0
M  V30 4662 O 442.114 -5.32011 2.05719 0
M  V30 4663 O 441.048 -4.6153 3.86359 0
M  V30 4664 H 444.874 -1.55576 2.60825 0
M  V30 4665 H 442.459 -0.70815 1.31551 0
M  V30 4666 H 444.341 -3.84436 1.72589 0
M  V30 4667 H 443.016 -3.14805 0.753628 0
M  V30 4668 H 441.923 -2.3343 2.92337 0
M  V30 4669 H 443.256 -3.08658 3.83394 0
M  V30 4670 N 444.908 -1.36708 -0.784132 0
M  V30 4671 C 445.858 -1.2799 -1.88686 0
M  V30 4672 C 446.842 -0.170282 -1.59996 0
M  V30 4673 O 448.034 -0.403571 -1.72338 0
M  V30 4674 C 445.163 -1.07674 -3.25977 0
M  V30 4675 C 444.249 -2.23127 -3.60659 0
M  V30 4676 N 444.64 -3.48467 -3.66612 0
M  V30 4677 C 442.938 -2.15009 -3.90752 0
M  V30 4678 C 443.639 -4.24525 -3.97685 0
M  V30 4679 N 442.615 -3.53524 -4.12943 0
M  V30 4680 H 446.417 -2.22927 -1.91522 0
M  V30 4681 H 443.931 -1.29503 -0.979933 0
M  V30 4682 H 445.928 -0.995151 -4.04849 0
M  V30 4683 H 444.588 -0.13643 -3.24413 0
M  V30 4684 H 445.599 -3.82534 -3.49125 0
M  V30 4685 H 442.276 -1.28963 -3.97083 0
M  V30 4686 H 443.666 -5.32944 -4.0917 0
M  V30 4687 N 446.386 1.0089 -1.21074 0
M  V30 4688 C 447.316 2.1145 -0.990523 0
M  V30 4689 C 448.297 1.69897 0.0831699 0
M  V30 4690 O 449.482 1.94052 -0.0758853 0
M  V30 4691 C 446.612 3.42914 -0.550177 0
M  V30 4692 C 445.566 3.98244 -1.56799 0
M  V30 4693 C 444.892 5.25568 -0.984013 0
M  V30 4694 C 446.192 4.30752 -2.95381 0
M  V30 4695 H 447.886 2.3013 -1.91521 0
M  V30 4696 H 445.432 1.10592 -0.92225 0
M  V30 4697 H 447.385 4.19653 -0.383305 0
M  V30 4698 H 446.109 3.24014 0.41015 0
M  V30 4699 H 444.768 3.23621 -1.72236 0
M  V30 4700 H 444.416 5.02998 -0.0155216 0
M  V30 4701 H 444.116 5.63551 -1.66384 0
M  V30 4702 H 445.64 6.04955 -0.828378 0
M  V30 4703 H 447.054 4.98349 -2.8341 0
M  V30 4704 H 445.451 4.79869 -3.60341 0
M  V30 4705 H 446.521 3.39192 -3.46521 0
M  V30 4706 N 447.864 1.01787 1.20321 0
M  V30 4707 C 448.814 0.559976 2.21016 0
M  V30 4708 C 449.798 -0.385366 1.56217 0
M  V30 4709 O 450.99 -0.208126 1.75772 0
M  V30 4710 C 448.119 -0.0990553 3.43157 0
M  V30 4711 C 447.205 0.86807 4.15121 0
M  V30 4712 N 447.596 2.0261 4.63447 0
M  V30 4713 C 445.894 0.689162 4.40643 0
M  V30 4714 C 446.595 2.63518 5.18588 0
M  V30 4715 N 445.571 1.91569 5.08726 0
M  V30 4716 H 449.373 1.44281 2.56048 0
M  V30 4717 H 446.887 0.883381 1.36272 0
M  V30 4718 H 448.884 -0.444643 4.14522 0
M  V30 4719 H 447.544 -0.977709 3.0963 0
M  V30 4720 H 448.555 2.40598 4.58621 0
M  V30 4721 H 445.232 -0.14133 4.17261 0
M  V30 4722 H 446.622 3.61527 5.66346 0
M  V30 4723 N 449.342 -1.36122 0.79427 0
M  V30 4724 C 450.59 -1.98718 0.368177 0
M  V30 4725 C 450.911 -1.63345 -1.06506 0
M  V30 4726 O 450.181 -0.909825 -1.73491 0
M  V30 4727 H 448.761 -0.735038 0.133146 0
M  V30 4728 H 451.423 -1.66239 1.01739 0
M  V30 4729 H 450.519 -3.08633 0.463923 0
M  V30 4730 N 450.82 -0.546701 -1.47814 0
M  V30 4731 C 451.752 0.244196 -2.27895 0
M  V30 4732 C 452.765 0.88911 -1.36377 0
M  V30 4733 O 453.954 0.764733 -1.61289 0
M  V30 4734 C 451.054 1.36252 -3.10304 0
M  V30 4735 C 450.227 0.816382 -4.29714 0
M  V30 4736 C 449.286 1.81789 -4.93801 0
M  V30 4737 O 448.312 1.36818 -5.52512 0
M  V30 4738 N 449.514 3.15085 -4.87547 0
M  V30 4739 H 452.279 -0.442694 -2.96412 0
M  V30 4740 H 449.84 -0.382095 -1.57327 0
M  V30 4741 H 451.832 2.03102 -3.50045 0
M  V30 4742 H 450.402 1.95281 -2.44099 0
M  V30 4743 H 449.622 -0.0285981 -3.9419 0
M  V30 4744 H 450.91 0.430668 -5.06974 0
M  V30 4745 H 450.308 3.54275 -4.41028 0
M  V30 4746 H 448.865 3.77522 -5.31339 0
M  V30 4747 N 452.299 1.55045 -0.282633 0
M  V30 4748 C 453.546 1.9976 0.33199 0
M  V30 4749 C 453.874 1.17105 1.55295 0
M  V30 4750 O 453.129 0.230599 1.94337 0
M  V30 4751 C 453.428 3.49422 0.750938 0
M  V30 4752 C 453.094 4.4941 -0.366228 0
M  V30 4753 C 451.756 4.76471 -0.672964 0
M  V30 4754 C 454.108 5.09054 -1.11864 0
M  V30 4755 C 451.436 5.60442 -1.73556 0
M  V30 4756 C 453.788 5.9418 -2.17102 0
M  V30 4757 C 452.452 6.19558 -2.48402 0
M  V30 4758 H 451.722 0.730974 0.121484 0
M  V30 4759 H 454.369 1.8732 -0.39791 0
M  V30 4760 H 452.674 3.59377 1.56063 0
M  V30 4761 H 454.371 3.81432 1.23736 0
M  V30 4762 H 450.961 4.2844 -0.117041 0
M  V30 4763 H 455.145 4.88165 -0.894925 0
M  V30 4764 H 450.401 5.78349 -1.983 0
M  V30 4765 H 454.575 6.39427 -2.75873 0
M  V30 4766 H 452.202 6.84417 -3.30874 0
M  V30 4767 N 453.777 0.010035 1.57597 0
M  V30 4768 C 454.707 -0.976857 2.12084 0
M  V30 4769 C 455.688 -1.35191 1.03235 0
M  V30 4770 O 456.873 -1.43389 1.3097 0
M  V30 4771 C 454.003 -2.26548 2.63236 0
M  V30 4772 C 452.957 -2.03175 3.76701 0
M  V30 4773 C 452.283 -3.38138 4.14206 0
M  V30 4774 C 453.583 -1.38625 5.03568 0
M  V30 4775 H 455.277 -0.523145 2.94794 0
M  V30 4776 H 452.823 -0.250195 1.4181 0
M  V30 4777 H 454.776 -2.95952 2.99984 0
M  V30 4778 H 453.5 -2.74051 1.77661 0
M  V30 4779 H 452.159 -1.36195 3.40362 0
M  V30 4780 H 451.807 -3.83363 3.25641 0
M  V30 4781 H 451.507 -3.23312 4.90656 0
M  V30 4782 H 453.031 -4.08841 4.53521 0
M  V30 4783 H 454.445 -1.98 5.38023 0
M  V30 4784 H 452.842 -1.34256 5.84889 0
M  V30 4785 H 453.912 -0.356722 4.83586 0
M  V30 4786 N 455.255 -1.55392 -0.262866 0
M  V30 4787 C 456.205 -1.85355 -1.32768 0
M  V30 4788 C 457.189 -0.713188 -1.44231 0
M  V30 4789 O 458.381 -0.974765 -1.47741 0
M  V30 4790 C 455.51 -2.13781 -2.68612 0
M  V30 4791 C 454.596 -3.34104 -2.61219 0
M  V30 4792 N 454.987 -4.53766 -2.2345 0
M  V30 4793 C 453.285 -3.36895 -2.92263 0
M  V30 4794 C 453.986 -5.35877 -2.26298 0
M  V30 4795 N 452.962 -4.74536 -2.65172 0
M  V30 4796 H 456.764 -2.75413 -1.02591 0
M  V30 4797 H 454.278 -1.55405 -0.471503 0
M  V30 4798 H 456.275 -2.33407 -3.45437 0
M  V30 4799 H 454.935 -1.25013 -2.99669 0
M  V30 4800 H 455.946 -4.79682 -1.95258 0
M  V30 4801 H 452.623 -2.58351 -3.27965 0
M  V30 4802 H 454.013 -6.41577 -1.99572 0
M  V30 4803 N 456.733 0.527833 -1.48498 0
M  V30 4804 C 457.958 1.313 -1.60546 0
M  V30 4805 C 458.383 1.86199 -0.26672 0
M  V30 4806 O 457.741 1.64513 0.761918 0
M  V30 4807 C 457.789 2.43818 -2.65678 0
M  V30 4808 O 456.893 3.46916 -2.22987 0
M  V30 4809 H 456.234 0.388784 -0.538277 0
M  V30 4810 H 458.764 0.634896 -1.945 0
M  V30 4811 H 458.774 2.89973 -2.87018 0
M  V30 4812 H 457.449 2.03222 -3.62869 0
M  V30 4813 H 456.026 3.06864 -2.11869 0
M  V30 4814 N 458.211 1.37122 0.776871 0
M  V30 4815 C 459.141 1.35164 1.90402 0
M  V30 4816 C 460.122 0.221069 1.68657 0
M  V30 4817 O 461.307 0.420642 1.8959 0
M  V30 4818 C 458.437 1.15274 3.27611 0
M  V30 4819 C 457.391 2.25289 3.63908 0
M  V30 4820 C 456.717 1.90527 4.99603 0
M  V30 4821 C 458.017 3.67446 3.71188 0
M  V30 4822 H 459.711 2.29482 1.92297 0
M  V30 4823 H 457.257 1.10465 0.923773 0
M  V30 4824 H 459.21 1.12536 4.06096 0
M  V30 4825 H 457.934 0.174102 3.26136 0
M  V30 4826 H 456.593 2.27174 2.87728 0
M  V30 4827 H 456.241 0.91206 4.94662 0
M  V30 4828 H 455.941 2.64193 5.24858 0
M  V30 4829 H 457.465 1.89367 5.80493 0
M  V30 4830 H 458.879 3.67719 4.39836 0
M  V30 4831 H 457.276 4.40123 4.07936 0
M  V30 4832 H 458.346 4.01443 2.71977 0
M  V30 4833 N 459.689 -1.00246 1.21608 0
M  V30 4834 C 461.105 -1.26435 0.973975 0
M  V30 4835 C 461.305 -1.98642 -0.338143 0
M  V30 4836 O 460.361 -2.29026 -1.06317 0
M  V30 4837 C 461.674 -2.08551 2.16626 0
M  V30 4838 C 463.222 -2.21769 2.20879 0
M  V30 4839 C 463.697 -3.07267 3.39633 0
M  V30 4840 N 465.188 -3.14855 3.39736 0
M  V30 4841 C 465.923 -3.81274 4.28273 0
M  V30 4842 N 465.419 -4.497 5.27012 0
M  V30 4843 N 467.212 -3.7794 4.16074 0
M  V30 4844 H 459.363 -0.518089 2.05984 0
M  V30 4845 H 461.626 -0.291368 0.902113 0
M  V30 4846 H 461.332 -1.62847 3.11727 0
M  V30 4847 H 461.206 -3.09303 2.15897 0
M  V30 4848 H 463.593 -2.66691 1.26332 0
M  V30 4849 H 463.674 -1.20478 2.25652 0
M  V30 4850 H 463.318 -2.63047 4.34475 0
M  V30 4851 H 463.248 -4.08678 3.321 0
M  V30 4852 H 465.739 -2.66147 2.6828 0
M  V30 4853 H 466.052 -4.98092 5.90867 0
M  V30 4854 H 464.397 -4.48479 5.30935 0
M  V30 4855 H 467.588 -3.23638 3.38195 0
M  V30 4856 H 467.761 -4.29424 4.85282 0
M  V30 4857 N 461.167 -1.02423 -1.1978 0
M  V30 4858 C 462.097 -0.62157 -2.25075 0
M  V30 4859 C 463.078 0.367148 -1.6609 0
M  V30 4860 O 464.263 0.250892 -1.92573 0
M  V30 4861 C 461.393 0.0331826 -3.47284 0
M  V30 4862 C 460.347 -0.877323 -4.18912 0
M  V30 4863 C 459.673 -0.0879296 -5.34628 0
M  V30 4864 C 460.973 -2.18892 -4.74219 0
M  V30 4865 H 462.667 -1.50179 -2.59011 0
M  V30 4866 H 460.213 -0.723547 -1.24502 0
M  V30 4867 H 462.166 0.326488 -4.20133 0
M  V30 4868 H 460.89 0.948164 -3.12534 0
M  V30 4869 H 459.549 -1.15475 -3.47938 0
M  V30 4870 H 459.197 0.828941 -4.96123 0
M  V30 4871 H 458.897 -0.694359 -5.83483 0
M  V30 4872 H 460.421 0.198743 -6.10276 0
M  V30 4873 H 461.835 -1.95746 -5.38847 0
M  V30 4874 H 460.232 -2.74686 -5.33542 0
M  V30 4875 H 461.302 -2.84674 -3.92541 0
M  V30 4876 N 462.645 1.35699 -0.801477 0
M  V30 4877 C 463.608 2.28199 -0.213994 0
M  V30 4878 C 464.608 1.49359 0.595691 0
M  V30 4879 O 465.798 1.69186 0.414921 0
M  V30 4880 C 462.93 3.33587 0.702297 0
M  V30 4881 H 464.123 2.81666 -1.02976 0
M  V30 4882 H 461.676 1.45467 -0.571759 0
M  V30 4883 H 462.411 2.85297 1.54195 0
M  V30 4884 H 462.196 3.91906 0.123484 0
M  V30 4885 H 463.686 4.02638 1.10783 0
M  V30 4886 N 464.123 0.554532 1.47522 0
M  V30 4887 C 465.056 -0.242442 2.26908 0
M  V30 4888 C 466.034 -0.922722 1.33883 0
M  V30 4889 O 467.218 -0.942244 1.63261 0
M  V30 4890 C 464.345 -1.34525 3.10839 0
M  V30 4891 C 463.391 -0.773805 4.19422 0
M  V30 4892 S 464.224 0.377525 5.34168 0
M  V30 4893 C 465.38 -0.727164 6.21662 0
M  V30 4894 H 465.613 0.431218 2.94156 0
M  V30 4895 H 463.146 0.3408 1.50592 0
M  V30 4896 H 465.104 -1.97683 3.59766 0
M  V30 4897 H 463.765 -1.99073 2.42958 0
M  V30 4898 H 462.958 -1.60187 4.77866 0
M  V30 4899 H 462.56 -0.218448 3.73361 0
M  V30 4900 H 464.852 -1.61992 6.57849 0
M  V30 4901 H 465.795 -0.180135 7.07871 0
M  V30 4902 H 466.203 -1.01863 5.55233 0
M  V30 4903 N 465.601 -1.54893 0.290851 0
M  V30 4904 C 466.826 -2.04804 -0.32712 0
M  V30 4905 C 467.251 -1.16721 -1.47506 0
M  V30 4906 O 466.609 -0.169107 -1.8051 0
M  V30 4907 C 466.657 -3.52268 -0.770689 0
M  V30 4908 O 465.761 -3.67236 -1.87647 0
M  V30 4909 H 465.102 -0.660789 -0.0652227 0
M  V30 4910 H 467.632 -2.00036 0.429739 0
M  V30 4911 H 467.642 -3.9393 -1.06223 0
M  V30 4912 H 466.317 -4.15843 0.069096 0
M  V30 4913 H 464.894 -3.37479 -1.58626 0
M  V30 4914 N 467.08 -0.0183926 -1.57589 0
M  V30 4915 C 468.357 0.700621 -1.82622 0
M  V30 4916 C 468.737 1.90951 -0.90005 0
M  V30 4917 O 468.085 2.28452 0.0469145 0
M  V30 4918 C 468.295 1.08899 -3.31575 0
M  V30 4919 C 469.643 1.48514 -3.9778 0
M  V30 4920 O 470.667 1.18227 -3.36007 0
M  V30 4921 O 469.526 2.04903 -5.06633 0
M  V30 4922 H 466.62 0.342743 -0.752633 0
M  V30 4923 H 469.166 -0.0452548 -1.6964 0
M  V30 4924 H 467.938 0.228113 -3.90635 0
M  V30 4925 H 467.561 1.89338 -3.49624 0
M  V30 4926 N 468.558 1.5553 0.254621 0
M  V30 4927 C 469.488 1.9268 1.31897 0
M  V30 4928 C 470.469 0.790797 1.506 0
M  V30 4929 O 471.654 1.05045 1.63337 0
M  V30 4930 C 468.784 2.21477 2.67517 0
M  V30 4931 C 467.738 3.37256 2.63519 0
M  V30 4932 C 467.064 3.51576 4.02862 0
M  V30 4933 C 468.364 4.73157 2.21179 0
M  V30 4934 H 470.058 2.81832 1.01051 0
M  V30 4935 H 467.604 1.35599 0.484662 0
M  V30 4936 H 469.557 2.46055 3.42104 0
M  V30 4937 H 468.281 1.29144 2.99982 0
M  V30 4938 H 466.94 3.12675 1.9139 0
M  V30 4939 H 466.588 2.56676 4.32581 0
M  V30 4940 H 466.288 4.2943 4.01078 0
M  V30 4941 H 467.812 3.78467 4.79161 0
M  V30 4942 H 469.226 4.97158 2.85494 0
M  V30 4943 H 467.623 5.54058 2.30521 0
M  V30 4944 H 468.693 4.70739 1.16332 0
M  V30 4945 N 470.036 -0.519951 1.48776 0
M  V30 4946 C 471.264 -1.29971 1.60982 0
M  V30 4947 C 471.679 -1.86803 0.273885 0
M  V30 4948 O 471.036 -1.66904 -0.738193 0
M  V30 4949 C 471.087 -2.44346 2.66415 0
M  V30 4950 O 470.808 -1.89855 3.94825 0
M  V30 4951 C 472.309 -3.36014 2.89153 0
M  V30 4952 H 469.529 -0.394891 0.542496 0
M  V30 4953 H 472.073 -0.626214 1.94676 0
M  V30 4954 H 470.228 -3.07562 2.35552 0
M  V30 4955 H 470.642 -2.64798 4.5275 0
M  V30 4956 H 472.116 -4.12593 3.66703 0
M  V30 4957 H 472.593 -3.91859 1.98351 0
M  V30 4958 H 473.199 -2.78582 3.21359 0
M  V30 4959 N 471.514 -1.37532 -0.769588 0
M  V30 4960 C 472.925 -1.29382 -1.346 0
M  V30 4961 C 473.276 0.0576039 -1.96115 0
M  V30 4962 O 472.401 0.95947 -1.93967 0
M  V30 4963 C 472.996 -2.34298 -2.44724 0
M  V30 4964 C 471.555 -2.29776 -2.98128 0
M  V30 4965 C 470.702 -2.18013 -1.71364 0
M  V30 4966 H 473.653 -1.48123 -0.56968 0
M  V30 4967 H 473.674 -1.99089 -3.24259 0
M  V30 4968 H 473.186 -3.32645 -1.99922 0
M  V30 4969 H 471.287 -1.34959 -3.47299 0
M  V30 4970 H 471.4 -3.23276 -3.53595 0
M  V30 4971 H 469.764 -1.64595 -1.94372 0
M  V30 4972 H 470.547 -3.18278 -1.28662 0
M  V30 4973 N 472.992 0.995999 -1.22138 0
M  V30 4974 C 474.238 1.73767 -1.04561 0
M  V30 4975 C 474.571 1.89633 0.418698 0
M  V30 4976 O 473.846 1.43723 1.3105 0
M  V30 4977 C 474.129 3.14505 -1.75382 0
M  V30 4978 C 473.982 3.06306 -3.29388 0
M  V30 4979 C 475.301 4.13615 -1.50369 0
M  V30 4980 H 472.42 0.630728 -0.38125 0
M  V30 4981 H 475.062 1.16057 -1.50435 0
M  V30 4982 H 473.212 3.63775 -1.36383 0
M  V30 4983 H 474.884 2.64681 -3.77812 0
M  V30 4984 H 473.127 2.43186 -3.59226 0
M  V30 4985 H 473.798 4.05884 -3.74116 0
M  V30 4986 H 476.274 3.73089 -1.84239 0
M  V30 4987 H 475.15 5.10212 -2.02421 0
M  V30 4988 H 475.411 4.39949 -0.435611 0
M  V30 4989 N 474.47 1.03057 1.19235 0
M  V30 4990 C 475.716 0.729098 1.89241 0
M  V30 4991 C 476.049 -0.740573 1.79525 0
M  V30 4992 O 475.324 -1.53946 1.18874 0
M  V30 4993 C 475.607 1.18304 3.40112 0
M  V30 4994 C 475.46 2.71406 3.5869 0
M  V30 4995 C 476.779 0.765161 4.33397 0
M  V30 4996 H 473.898 0.266338 0.687192 0
M  V30 4997 H 476.54 1.28079 1.40341 0
M  V30 4998 H 474.69 0.713672 3.81889 0
M  V30 4999 H 476.362 3.26303 3.26074 0
M  V30 5000 H 474.605 3.11717 3.01687 0
M  V30 5001 H 475.276 2.98225 4.64506 0
M  V30 5002 H 477.752 1.16889 3.99345 0
M  V30 5003 H 476.628 1.11065 5.37546 0
M  V30 5004 H 476.889 -0.332372 4.40849 0
M  V30 5005 N 475.948 -1.35272 0.808662 0
M  V30 5006 C 477.225 -1.93077 0.313181 0
M  V30 5007 C 477.605 -1.73847 -1.19752 0
M  V30 5008 O 476.953 -1.1087 -1.998 0
M  V30 5009 C 477.163 -3.41347 0.726859 0
M  V30 5010 C 478.511 -4.18493 0.717532 0
M  V30 5011 O 479.535 -3.4987 0.668535 0
M  V30 5012 O 478.394 -5.40937 0.777779 0
M  V30 5013 H 475.488 -0.822885 0.0824018 0
M  V30 5014 H 478.034 -1.44335 0.892499 0
M  V30 5015 H 476.806 -3.49082 1.76797 0
M  V30 5016 H 476.429 -3.97411 0.122461 0
M  V30 5017 N 477.426 -0.562348 -1.47226 0
M  V30 5018 C 478.389 0.172056 -2.28553 0
M  V30 5019 C 479.389 0.837928 -1.37242 0
M  V30 5020 O 480.579 0.693001 -1.59822 0
M  V30 5021 C 477.711 1.25223 -3.17068 0
M  V30 5022 H 478.904 -0.542401 -2.94954 0
M  V30 5023 H 476.457 -0.319493 -1.53 0
M  V30 5024 H 477.192 1.99892 -2.55369 0
M  V30 5025 H 476.977 0.779515 -3.84273 0
M  V30 5026 H 478.467 1.76791 -3.78332 0
M  V30 5027 N 478.904 1.54736 -0.299062 0
M  V30 5028 C 480.153 1.99279 0.311549 0
M  V30 5029 C 480.466 1.19107 1.55154 0
M  V30 5030 O 481.672 1.53908 2.23662 0
M  V30 5031 C 480.128 3.54768 0.605632 0
M  V30 5032 C 479.736 4.43746 -0.615914 0
M  V30 5033 C 481.48 4.07841 1.17754 0
M  V30 5034 C 479.387 5.90663 -0.29509 0
M  V30 5035 H 478.317 0.744359 0.120187 0
M  V30 5036 H 480.968 1.78919 -0.407464 0
M  V30 5037 H 479.35 3.71021 1.38419 0
M  V30 5038 H 480.524 4.39267 -1.39218 0
M  V30 5039 H 478.839 4.01434 -1.10633 0
M  V30 5040 H 481.436 5.15174 1.43179 0
M  V30 5041 H 481.779 3.58324 2.11918 0
M  V30 5042 H 482.312 3.95123 0.460739 0
M  V30 5043 H 479.051 6.44325 -1.20524 0
M  V30 5044 H 478.571 5.98155 0.44394 0
M  V30 5045 H 480.25 6.46916 0.104048 0
M  V30 5046 N 480.382 0.0267497 1.57577 0
M  V30 5047 C 481.61 -0.662661 1.96001 0
M  V30 5048 C 482.025 -1.65799 0.903117 0
M  V30 5049 O 481.382 -1.82135 -0.115317 0
M  V30 5050 C 481.433 -1.37112 3.34488 0
M  V30 5051 O 481.154 -0.415683 4.36123 0
M  V30 5052 C 482.655 -2.15257 3.8753 0
M  V30 5053 H 479.875 -0.18287 0.6456 0
M  V30 5054 H 482.419 0.0858116 2.0432 0
M  V30 5055 H 480.574 -2.07101 3.27395 0
M  V30 5056 H 480.988 -0.918496 5.16395 0
M  V30 5057 H 482.462 -2.60285 4.86781 0
M  V30 5058 H 482.939 -2.99063 3.21649 0
M  V30 5059 H 483.545 -1.50231 3.97883 0
M  V30 5060 N 481.861 -1.55662 -0.24637 0
M  V30 5061 C 483.138 -1.68272 -0.997198 0
M  V30 5062 C 483.518 -0.566785 -2.03349 0
M  V30 5063 O 482.866 0.429688 -2.24424 0
M  V30 5064 C 483.076 -3.08594 -1.63006 0
M  V30 5065 C 484.424 -3.6721 -2.13171 0
M  V30 5066 O 485.448 -3.11397 -1.72946 0
M  V30 5067 O 484.307 -4.65054 -2.87031 0
M  V30 5068 H 481.401 -0.684429 -0.464205 0
M  V30 5069 H 483.947 -1.67993 -0.240114 0
M  V30 5070 H 482.719 -3.81264 -0.880527 0
M  V30 5071 H 482.342 -3.12886 -2.45333 0
M  V30 5072 N 483.339 0.512053 -1.4905 0
M  V30 5073 C 484.302 1.59704 -1.64399 0
M  V30 5074 C 485.302 1.52285 -0.516317 0
M  V30 5075 O 486.492 1.55635 -0.782527 0
M  V30 5076 C 483.624 2.9935 -1.63102 0
M  V30 5077 H 484.817 1.47428 -2.61161 0
M  V30 5078 H 482.37 0.735469 -1.37915 0
M  V30 5079 H 483.105 3.17116 -0.678836 0
M  V30 5080 H 482.89 3.06144 -2.44986 0
M  V30 5081 H 484.38 3.782 -1.77072 0
M  V30 5082 N 484.817 1.37938 0.762283 0
M  V30 5083 C 485.747 1.37176 1.88958 0
M  V30 5084 C 486.728 0.238945 1.68413 0
M  V30 5085 O 487.913 0.440726 1.89133 0
M  V30 5086 C 485.043 1.18742 3.2637 0
M  V30 5087 C 483.997 2.29136 3.61498 0
M  V30 5088 C 483.323 1.95816 4.97554 0
M  V30 5089 C 484.623 3.71363 3.6727 0
M  V30 5090 H 486.317 2.31509 1.89853 0
M  V30 5091 H 483.863 1.11438 0.912005 0
M  V30 5092 H 485.816 1.16837 4.04879 0
M  V30 5093 H 484.54 0.208683 3.25933 0
M  V30 5094 H 483.199 2.30213 2.85303 0
M  V30 5095 H 482.847 0.964475 4.93667 0
M  V30 5096 H 482.547 2.69745 5.22026 0
M  V30 5097 H 484.071 1.95513 5.78452 0
M  V30 5098 H 485.485 3.72364 4.35911 0
M  V30 5099 H 483.882 4.44425 4.03245 0
M  V30 5100 H 484.952 4.04305 2.67704 0
M  V30 5101 N 486.295 -0.989507 1.22664 0
M  V30 5102 C 487.225 -2.09847 1.02404 0
M  V30 5103 C 488.206 -1.70007 -0.0561303 0
M  V30 5104 O 489.391 -1.93906 0.106748 0
M  V30 5105 C 486.521 -3.41996 0.604663 0
M  V30 5106 C 485.475 -3.95699 1.63115 0
M  V30 5107 C 484.801 -5.23936 1.0675 0
M  V30 5108 C 486.101 -4.25999 3.02196 0
M  V30 5109 H 487.795 -2.27054 1.95158 0
M  V30 5110 H 485.341 -1.09111 0.939727 0
M  V30 5111 H 487.294 -4.1899 0.45002 0
M  V30 5112 H 486.018 -3.24626 -0.35855 0
M  V30 5113 H 484.677 -3.2084 1.77362 0
M  V30 5114 H 484.325 -5.02909 0.0955422 0
M  V30 5115 H 484.025 -5.60833 1.75328 0
M  V30 5116 H 485.549 -6.0356 0.924516 0
M  V30 5117 H 486.963 -4.93777 2.91303 0
M  V30 5118 H 485.36 -4.74076 3.67929 0
M  V30 5119 H 486.43 -3.33636 3.51873 0
M  V30 5120 N 487.773 -1.03688 -1.18687 0
M  V30 5121 C 488.736 -0.629115 -2.20397 0
M  V30 5122 C 489.736 0.311495 -1.57754 0
M  V30 5123 O 490.926 0.0974107 -1.73927 0
M  V30 5124 C 488.058 0.0782231 -3.4081 0
M  V30 5125 H 489.251 -1.52915 -2.57987 0
M  V30 5126 H 486.804 -0.828988 -1.32505 0
M  V30 5127 H 487.539 0.992233 -3.08748 0
M  V30 5128 H 487.324 -0.597776 -3.87517 0
M  V30 5129 H 488.814 0.350156 -4.16129 0
M  V30 5130 N 489.251 1.34841 -0.815825 0
M  V30 5131 C 490.214 2.27959 -0.238185 0
M  V30 5132 C 491.214 1.49983 0.579816 0
M  V30 5133 O 492.404 1.69617 0.396953 0
M  V30 5134 C 489.536 3.34314 0.666876 0
M  V30 5135 H 490.729 2.80558 -1.05958 0
M  V30 5136 H 488.282 1.44852 -0.587156 0
M  V30 5137 H 489.017 2.86916 1.5116 0
M  V30 5138 H 488.802 3.92014 0.0819106 0
M  V30 5139 H 490.292 4.0379 1.06506 0
M  V30 5140 N 490.729 0.570148 1.46925 0
M  V30 5141 C 492.145 0.23087 1.57921 0
M  V30 5142 C 492.345 -1.26676 1.56702 0
M  V30 5143 O 491.401 -2.04774 1.47729 0
M  V30 5144 C 492.714 0.868973 2.8787 0
M  V30 5145 C 494.262 0.841397 3.01479 0
M  V30 5146 C 494.737 1.45881 4.34146 0
M  V30 5147 N 496.228 1.42258 4.40814 0
M  V30 5148 C 496.963 1.8698 5.42057 0
M  V30 5149 N 496.459 2.39618 6.50042 0
M  V30 5150 N 498.252 1.77972 5.33181 0
M  V30 5151 H 490.403 1.54301 1.45962 0
M  V30 5152 H 492.666 0.644224 0.69547 0
M  V30 5153 H 492.372 1.922 2.94537 0
M  V30 5154 H 492.246 0.369682 3.75384 0
M  V30 5155 H 494.633 -0.202973 2.94401 0
M  V30 5156 H 494.714 1.37858 2.15474 0
M  V30 5157 H 494.358 2.50231 4.4198 0
M  V30 5158 H 494.288 0.896958 5.18905 0
M  V30 5159 H 496.779 1.03768 3.63374 0
M  V30 5160 H 497.092 2.71633 7.23488 0
M  V30 5161 H 495.437 2.43636 6.50897 0
M  V30 5162 H 498.628 1.36617 4.4772 0
M  V30 5163 H 498.801 2.13143 6.11943 0
M  V30 5164 N 492.207 -1.54576 0.307264 0
M  V30 5165 C 493.618 -1.8579 -0.184121 0
M  V30 5166 C 493.969 -1.22914 -1.52927 0
M  V30 5167 O 493.094 -0.529126 -2.09831 0
M  V30 5168 C 493.689 -3.37081 -0.340862 0
M  V30 5169 C 492.248 -3.68304 -0.776465 0
M  V30 5170 C 491.395 -2.77076 0.111503 0
M  V30 5171 H 494.346 -1.49656 0.528078 0
M  V30 5172 H 494.367 -3.61922 -1.17443 0
M  V30 5173 H 493.879 -3.82815 0.638309 0
M  V30 5174 H 491.98 -3.28092 -1.76596 0
M  V30 5175 H 492.093 -4.75434 -0.591512 0
M  V30 5176 H 490.457 -2.51374 -0.410256 0
M  V30 5177 H 491.24 -3.25632 1.08714 0
M  V30 5178 N 493.685 -0.035106 -1.57561 0
M  V30 5179 C 495.101 0.321334 -1.56332 0
M  V30 5180 C 495.301 1.72509 -1.04129 0
M  V30 5181 O 494.357 2.4287 -0.690694 0
M  V30 5182 C 495.67 0.164469 -3.0025 0
M  V30 5183 C 497.218 0.236786 -3.12103 0
M  V30 5184 C 497.693 0.10864 -4.57871 0
M  V30 5185 N 499.184 0.165433 -4.62904 0
M  V30 5186 C 499.919 0.0901506 -5.73329 0
M  V30 5187 N 499.415 -0.0365606 -6.9279 0
M  V30 5188 N 501.208 0.144572 -5.61914 0
M  V30 5189 H 493.359 -0.952976 -1.89821 0
M  V30 5190 H 495.622 -0.368537 -0.873432 0
M  V30 5191 H 495.328 -0.802746 -3.42416 0
M  V30 5192 H 495.202 0.932194 -3.655 0
M  V30 5193 H 497.589 1.19446 -2.69845 0
M  V30 5194 H 497.67 -0.561419 -2.49563 0
M  V30 5195 H 497.314 -0.845644 -5.00811 0
M  V30 5196 H 497.244 0.925786 -5.18398 0
M  V30 5197 H 499.735 0.263269 -3.76982 0
M  V30 5198 H 500.048 -0.0871487 -7.72751 0
M  V30 5199 H 498.393 -0.0714256 -6.94963 0
M  V30 5200 H 501.584 0.242006 -4.67474 0
M  V30 5201 H 501.757 0.0824413 -6.47948 0
M  V30 5202 N 495.163 1.55791 0.238111 0
M  V30 5203 C 496.579 1.48411 0.587045 0
M  V30 5204 C 496.779 0.72702 1.87927 0
M  V30 5205 O 495.835 0.259942 2.51158 0
M  V30 5206 C 497.148 2.92873 0.681623 0
M  V30 5207 C 498.696 3.03295 0.773363 0
M  V30 5208 C 499.171 4.49082 0.899428 0
M  V30 5209 N 500.662 4.53056 0.964075 0
M  V30 5210 C 501.397 5.63117 1.08104 0
M  V30 5211 N 500.893 6.82969 1.16299 0
M  V30 5212 N 502.686 5.50933 1.11488 0
M  V30 5213 H 494.837 2.0345 -0.610076 0
M  V30 5214 H 497.1 0.924034 -0.211813 0
M  V30 5215 H 496.806 3.51142 -0.19802 0
M  V30 5216 H 496.68 3.43851 1.55069 0
M  V30 5217 H 499.067 2.45101 1.64346 0
M  V30 5218 H 499.148 2.55513 -0.121034 0
M  V30 5219 H 498.792 5.07889 0.0338586 0
M  V30 5220 H 498.722 4.94553 1.809 0
M  V30 5221 H 501.213 3.66737 0.91173 0
M  V30 5222 H 501.526 7.62598 1.25155 0
M  V30 5223 H 499.871 6.85712 1.13241 0
M  V30 5224 H 503.062 4.56231 1.0474 0
M  V30 5225 H 503.235 6.36743 1.20259 0
M  V30 5226 N 496.642 -0.504142 1.49319 0
M  V30 5227 C 498.058 -0.835039 1.36012 0
M  V30 5228 C 498.258 -1.97674 0.390808 0
M  V30 5229 O 497.314 -2.51867 -0.178655 0
M  V30 5230 C 498.627 -1.17821 2.76656 0
M  V30 5231 C 500.175 -1.2866 2.85334 0
M  V30 5232 C 500.65 -1.66307 4.26739 0
M  V30 5233 N 502.141 -1.73362 4.29534 0
M  V30 5234 C 502.876 -2.0393 5.35911 0
M  V30 5235 N 502.372 -2.32744 6.52535 0
M  V30 5236 N 504.165 -2.05155 5.23324 0
M  V30 5237 H 496.316 0.248764 2.10938 0
M  V30 5238 H 498.579 0.0486962 0.946748 0
M  V30 5239 H 498.285 -0.412682 3.4927 0
M  V30 5240 H 498.159 -2.12239 3.11825 0
M  V30 5241 H 500.546 -2.04285 2.1296 0
M  V30 5242 H 500.627 -0.323004 2.53752 0
M  V30 5243 H 500.271 -0.91234 4.99639 0
M  V30 5244 H 500.201 -2.63761 4.55782 0
M  V30 5245 H 502.692 -1.53268 3.45424 0
M  V30 5246 H 503.005 -2.55248 7.2943 0
M  V30 5247 H 501.35 -2.30207 6.55767 0
M  V30 5248 H 504.541 -1.82119 4.3122 0
M  V30 5249 H 504.714 -2.28644 6.06322 0
M  V30 5250 N 498.12 -1.38341 -0.754957 0
M  V30 5251 C 499.35 -1.37504 -1.54195 0
M  V30 5252 C 499.758 0.0373787 -1.89163 0
M  V30 5253 O 499.101 1.01402 -1.53178 0
M  V30 5254 C 499.163 -2.16488 -2.87008 0
M  V30 5255 C 498.827 -3.65311 -2.74585 0
M  V30 5256 C 499.824 -4.58834 -2.44474 0
M  V30 5257 C 497.509 -4.08649 -2.9208 0
M  V30 5258 C 499.503 -5.93675 -2.32011 0
M  V30 5259 C 497.19 -5.43571 -2.79237 0
M  V30 5260 C 498.188 -6.35898 -2.49245 0
M  V30 5261 O 497.876 -7.68338 -2.36458 0
M  V30 5262 H 497.608 -0.472159 -0.483779 0
M  V30 5263 H 500.162 -1.82515 -0.94221 0
M  V30 5264 H 498.392 -1.66194 -3.49166 0
M  V30 5265 H 500.081 -2.08076 -3.4851 0
M  V30 5266 H 500.847 -4.26657 -2.30627 0
M  V30 5267 H 496.726 -3.37134 -3.14422 0
M  V30 5268 H 500.27 -6.65706 -2.08522 0
M  V30 5269 H 496.167 -5.75345 -2.92657 0
M  V30 5270 H 496.935 -7.78845 -2.5168 0
M  V30 5271 N 499.598 0.982988 -1.23187 0
M  V30 5272 C 500.828 1.75666 -1.08743 0
M  V30 5273 C 501.236 1.85662 0.364195 0
M  V30 5274 O 500.579 1.33317 1.26382 0
M  V30 5275 C 500.641 3.20144 -1.63549 0
M  V30 5276 C 500.305 3.33665 -3.12277 0
M  V30 5277 C 501.302 3.20194 -4.096 0
M  V30 5278 C 498.987 3.58397 -3.51933 0
M  V30 5279 C 500.981 3.31256 -5.44563 0
M  V30 5280 C 498.668 3.69098 -4.87042 0
M  V30 5281 C 499.666 3.55537 -5.83166 0
M  V30 5282 O 499.354 3.65864 -7.1582 0
M  V30 5283 H 499.086 0.558194 -0.381307 0
M  V30 5284 H 501.64 1.24387 -1.63454 0
M  V30 5285 H 499.87 3.72659 -1.03256 0
M  V30 5286 H 501.559 3.79262 -1.4462 0
M  V30 5287 H 502.325 3.00987 -3.80305 0
M  V30 5288 H 498.204 3.68025 -2.77631 0
M  V30 5289 H 501.748 3.20588 -6.19572 0
M  V30 5290 H 497.645 3.87814 -5.16014 0
M  V30 5291 H 498.413 3.82675 -7.23534 0
M  V30 5292 N 501.076 1.04316 1.18135 0
M  V30 5293 C 502.487 0.775505 1.69832 0
M  V30 5294 C 502.838 -0.703348 1.8316 0
M  V30 5295 O 501.963 -1.54729 1.51287 0
M  V30 5296 C 502.558 1.40112 3.0847 0
M  V30 5297 C 501.117 1.18172 3.57368 0
M  V30 5298 C 500.264 1.49022 2.33854 0
M  V30 5299 H 503.215 1.20925 1.02775 0
M  V30 5300 H 503.236 0.805672 3.71873 0
M  V30 5301 H 502.748 2.47744 2.98738 0
M  V30 5302 H 500.849 0.124258 3.72393 0
M  V30 5303 H 500.962 1.8805 4.40652 0
M  V30 5304 H 499.326 0.909995 2.37889 0
M  V30 5305 H 500.109 2.57768 2.26738 0
M  V30 5306 N 502.554 -1.34406 0.822964 0
M  V30 5307 C 503.802 -1.97892 0.410245 0
M  V30 5308 C 504.123 -1.65567 -1.03017 0
M  V30 5309 O 503.393 -0.94642 -1.71522 0
M  V30 5310 H 501.973 -0.732049 0.148707 0
M  V30 5311 H 504.635 -1.64043 1.05242 0
M  V30 5312 H 503.731 -3.07579 0.529284 0
M  V30 5313 N 504.032 -0.577932 -1.46621 0
M  V30 5314 C 504.964 0.195801 -2.28362 0
M  V30 5315 C 505.977 0.859983 -1.38232 0
M  V30 5316 O 507.166 0.730349 -1.62875 0
M  V30 5317 C 504.266 1.29639 -3.13124 0
M  V30 5318 C 503.439 0.725049 -4.31349 0
M  V30 5319 C 502.498 1.71274 -4.97546 0
M  V30 5320 O 501.524 1.25067 -5.5529 0
M  V30 5321 N 502.726 3.04672 -4.94121 0
M  V30 5322 H 505.491 -0.505468 -2.95407 0
M  V30 5323 H 503.052 -0.415381 -1.56481 0
M  V30 5324 H 505.044 1.95631 -3.54275 0
M  V30 5325 H 503.614 1.90059 -2.48186 0
M  V30 5326 H 502.834 -0.112205 -3.9404 0
M  V30 5327 H 504.122 0.323034 -5.07774 0
M  V30 5328 H 503.52 3.4484 -4.48444 0
M  V30 5329 H 502.077 3.66166 -5.39227 0
M  V30 5330 N 505.51 1.54411 -0.315457 0
M  V30 5331 C 506.758 2.00023 0.288971 0
M  V30 5332 C 507.079 1.20529 1.5329 0
M  V30 5333 O 506.349 0.304986 1.93511 0
M  V30 5334 H 504.929 0.738891 0.109766 0
M  V30 5335 H 507.591 1.90094 -0.430129 0
M  V30 5336 H 506.687 3.07198 0.550999 0
M  V30 5337 N 506.988 0.0434614 1.5754 0
M  V30 5338 C 507.918 -0.931651 2.14109 0
M  V30 5339 C 508.899 -1.32971 1.06079 0
M  V30 5340 O 510.084 -1.40579 1.33982 0
M  V30 5341 C 507.214 -2.20914 2.67982 0
M  V30 5342 C 506.168 -1.95139 3.80926 0
M  V30 5343 C 505.494 -3.29276 4.21285 0
M  V30 5344 C 506.794 -1.27913 5.06395 0
M  V30 5345 H 508.488 -0.460497 2.95837 0
M  V30 5346 H 506.034 -0.220058 1.42309 0
M  V30 5347 H 507.987 -2.89522 3.06194 0
M  V30 5348 H 506.711 -2.70221 1.83434 0
M  V30 5349 H 505.37 -1.28945 3.43175 0
M  V30 5350 H 505.018 -3.76369 3.33699 0
M  V30 5351 H 504.718 -3.12831 4.97404 0
M  V30 5352 H 506.242 -3.99129 4.62091 0
M  V30 5353 H 507.656 -1.86544 5.42102 0
M  V30 5354 H 506.053 -1.2182 5.87605 0
M  V30 5355 H 507.123 -0.254066 4.84234 0
M  V30 5356 N 508.466 -1.55915 -0.229846 0
M  V30 5357 C 509.714 -1.7819 -0.953565 0
M  V30 5358 C 510.035 -0.610504 -1.85197 0
M  V30 5359 O 509.305 0.372988 -1.92316 0
M  V30 5360 H 507.885 -0.657208 -0.355087 0
M  V30 5361 H 510.547 -1.9337 -0.243693 0
M  V30 5362 H 509.643 -2.70011 -1.56527 0
M  V30 5363 N 509.944 0.496216 -1.49584 0
M  V30 5364 C 510.874 1.60576 -1.69521 0
M  V30 5365 C 511.855 1.61169 -0.543933 0
M  V30 5366 O 513.04 1.77834 -0.78031 0
M  V30 5367 C 510.17 2.99038 -1.76616 0
M  V30 5368 C 509.124 3.13312 -2.91581 0
M  V30 5369 C 508.45 4.53172 -2.83794 0
M  V30 5370 C 509.75 2.92886 -4.32452 0
M  V30 5371 H 511.444 1.44146 -2.62416 0
M  V30 5372 H 508.99 0.692024 -1.26282 0
M  V30 5373 H 510.943 3.76564 -1.8915 0
M  V30 5374 H 509.667 3.16568 -0.80324 0
M  V30 5375 H 508.326 2.38213 -2.78658 0
M  V30 5376 H 507.974 4.67585 -1.854 0
M  V30 5377 H 507.674 4.63662 -3.60958 0
M  V30 5378 H 509.198 5.32752 -2.98342 0
M  V30 5379 H 510.612 3.60178 -4.46032 0
M  V30 5380 H 509.009 3.14844 -5.10875 0
M  V30 5381 H 510.079 1.88966 -4.46565 0
M  V30 5382 N 511.423 1.38739 0.74761 0
M  V30 5383 C 512.356 1.3083 1.86972 0
M  V30 5384 C 513.334 0.184229 1.61553 0
M  V30 5385 O 514.518 0.36256 1.8498 0
M  V30 5386 C 511.645 1.02854 3.22705 0
M  V30 5387 C 510.691 2.17281 3.67003 0
M  V30 5388 S 511.524 3.79468 3.77842 0
M  V30 5389 C 512.68 3.53692 5.16385 0
M  V30 5390 H 512.913 2.258 1.93395 0
M  V30 5391 H 510.446 1.24646 0.911199 0
M  V30 5392 H 512.404 0.87397 4.01089 0
M  V30 5393 H 511.065 0.0959295 3.13953 0
M  V30 5394 H 510.258 1.93267 4.65472 0
M  V30 5395 H 509.86 2.28876 2.9579 0
M  V30 5396 H 512.152 3.10176 6.02327 0
M  V30 5397 H 513.095 4.51576 5.45422 0
M  V30 5398 H 513.503 2.8807 4.85464 0
M  V30 5399 N 512.901 -0.976442 1.23707 0
M  V30 5400 C 514.131 -1.75087 1.09673 0
M  V30 5401 C 514.539 -1.85852 -0.354344 0
M  V30 5402 O 513.882 -1.33985 -1.25673 0
M  V30 5403 C 513.944 -3.19272 1.65245 0
M  V30 5404 C 513.608 -3.32004 3.14042 0
M  V30 5405 C 514.605 -3.18017 4.11292 0
M  V30 5406 C 512.29 -3.56525 3.53829 0
M  V30 5407 C 514.284 -3.28363 5.46312 0
M  V30 5408 C 511.971 -3.6651 4.88993 0
M  V30 5409 C 512.969 -3.52439 5.85043 0
M  V30 5410 O 512.657 -3.62063 7.1775 0
M  V30 5411 H 512.389 -0.556164 0.384262 0
M  V30 5412 H 514.943 -1.23518 1.64111 0
M  V30 5413 H 513.173 -3.72107 1.05231 0
M  V30 5414 H 514.862 -3.7849 1.46629 0
M  V30 5415 H 515.628 -2.98966 3.81896 0
M  V30 5416 H 511.507 -3.66547 2.79579 0
M  V30 5417 H 515.051 -3.17297 6.21263 0
M  V30 5418 H 510.948 -3.85072 5.18063 0
M  V30 5419 H 511.716 -3.78833 7.25553 0
M  V30 5420 N 514.379 -1.04941 -1.1758 0
M  V30 5421 C 515.626 -0.757989 -1.87779 0
M  V30 5422 C 515.954 0.714827 -1.80888 0
M  V30 5423 O 515.209 1.53824 -1.20982 0
M  V30 5424 C 515.508 -1.18062 -3.37337 0
M  V30 5425 C 515.174 -2.65521 -3.6443 0
M  V30 5426 C 513.836 -3.05804 -3.71534 0
M  V30 5427 C 516.188 -3.60822 -3.76108 0
M  V30 5428 C 513.516 -4.40256 -3.87803 0
M  V30 5429 C 515.868 -4.95005 -3.93895 0
M  V30 5430 C 514.532 -5.34945 -3.99237 0
M  V30 5431 H 513.802 -0.277368 -0.68713 0
M  V30 5432 H 516.449 -1.31603 -1.39115 0
M  V30 5433 H 514.754 -0.541525 -3.8804 0
M  V30 5434 H 516.451 -0.932368 -3.9001 0
M  V30 5435 H 513.041 -2.33324 -3.59524 0
M  V30 5436 H 517.225 -3.30841 -3.69943 0
M  V30 5437 H 512.481 -4.70707 -3.90186 0
M  V30 5438 H 516.655 -5.68746 -4.01872 0
M  V30 5439 H 514.282 -6.39135 -4.11596 0
M  V30 5440 N 515.857 1.33968 -0.830081 0
M  V30 5441 C 517.106 1.97323 -0.417928 0
M  V30 5442 C 517.419 1.6652 1.02618 0
M  V30 5443 O 518.625 2.2342 1.54259 0
M  V30 5444 C 517.081 3.53099 -0.696359 0
M  V30 5445 C 516.689 3.92788 -2.15457 0
M  V30 5446 C 518.433 4.23049 -0.350724 0
M  V30 5447 C 516.34 5.41506 -2.37751 0
M  V30 5448 H 515.27 0.738409 -0.152541 0
M  V30 5449 H 517.921 1.52711 -1.01744 0
M  V30 5450 H 516.303 3.95991 -0.0265904 0
M  V30 5451 H 517.477 3.6098 -2.86408 0
M  V30 5452 H 515.792 3.35795 -2.46232 0
M  V30 5453 H 518.389 5.32403 -0.495036 0
M  V30 5454 H 518.732 4.10279 0.705476 0
M  V30 5455 H 519.265 3.85657 -0.975362 0
M  V30 5456 H 516.004 5.5927 -3.41903 0
M  V30 5457 H 515.524 5.74804 -1.7135 0
M  V30 5458 H 517.203 6.0828 -2.20465 0
M  V30 5459 N 517.335 0.585699 1.46312 0
M  V30 5460 C 518.285 -0.166813 2.27389 0
M  V30 5461 C 519.269 -0.859076 1.36047 0
M  V30 5462 O 520.461 -0.752678 1.60199 0
M  V30 5463 C 517.59 -1.17791 3.2246 0
M  V30 5464 C 516.676 -0.487605 4.21288 0
M  V30 5465 N 517.067 0.45849 5.03718 0
M  V30 5466 C 515.365 -0.737971 4.39852 0
M  V30 5467 C 516.066 0.862213 5.75275 0
M  V30 5468 N 515.042 0.210707 5.43191 0
M  V30 5469 H 518.844 0.560167 2.88512 0
M  V30 5470 H 516.358 0.407715 1.57199 0
M  V30 5471 H 518.355 -1.73122 3.79255 0
M  V30 5472 H 517.015 -1.90568 2.62896 0
M  V30 5473 H 518.026 0.834163 5.11138 0
M  V30 5474 H 514.703 -1.45209 3.91434 0
M  V30 5475 H 516.093 1.64128 6.51546 0
M  V30 5476 N 518.813 -1.54241 0.323641 0
M  V30 5477 C 520.043 -2.04687 -0.280464 0
M  V30 5478 C 520.451 -1.19939 -1.46326 0
M  V30 5479 O 519.794 -0.222872 -1.82343 0
M  V30 5480 C 519.856 -3.50978 -0.778123 0
M  V30 5481 C 519.52 -4.56127 0.282371 0
M  V30 5482 C 520.517 -5.07726 1.11847 0
M  V30 5483 C 518.202 -5.00451 0.430582 0
M  V30 5484 C 520.196 -6.02212 2.08851 0
M  V30 5485 C 517.883 -5.94752 1.40404 0
M  V30 5486 C 518.881 -6.45519 2.23147 0
M  V30 5487 O 518.569 -7.37968 3.1884 0
M  V30 5488 H 518.301 -0.673192 -0.0615473 0
M  V30 5489 H 520.855 -1.99999 0.467921 0
M  V30 5490 H 519.085 -3.53064 -1.57742 0
M  V30 5491 H 520.774 -3.84499 -1.30058 0
M  V30 5492 H 521.54 -4.74261 1.01496 0
M  V30 5493 H 517.419 -4.6055 -0.203569 0
M  V30 5494 H 520.963 -6.41761 2.73474 0
M  V30 5495 H 516.86 -6.27633 1.5082 0
M  V30 5496 H 517.628 -7.55841 3.14079 0
M  V30 5497 N 520.291 -0.0518155 -1.57515 0
M  V30 5498 C 521.521 0.63048 -1.96745 0
M  V30 5499 C 521.929 1.64875 -0.928054 0
M  V30 5500 O 521.272 1.83449 0.0960678 0
M  V30 5501 C 521.334 1.37381 -3.32215 0
M  V30 5502 C 520.998 0.511298 -4.54131 0
M  V30 5503 C 521.995 -0.222884 -5.19422 0
M  V30 5504 C 519.68 0.442035 -5.00351 0
M  V30 5505 C 521.674 -1.01476 -6.2927 0
M  V30 5506 C 519.361 -0.35353 -6.10077 0
M  V30 5507 C 520.359 -1.08062 -6.74397 0
M  V30 5508 O 520.047 -1.8631 -7.82013 0
M  V30 5509 H 519.779 0.177126 -0.652382 0
M  V30 5510 H 522.333 -0.114726 -2.05079 0
M  V30 5511 H 520.563 2.16466 -3.20436 0
M  V30 5512 H 522.252 1.9464 -3.56188 0
M  V30 5513 H 523.018 -0.178846 -4.8467 0
M  V30 5514 H 518.897 0.997562 -4.50077 0
M  V30 5515 H 522.441 -1.58279 -6.79407 0
M  V30 5516 H 518.338 -0.399205 -6.44264 0
M  V30 5517 H 519.106 -1.78528 -7.98793 0
M  V30 5518 N 521.769 1.56035 0.221574 0
M  V30 5519 C 522.699 1.95434 1.2778 0
M  V30 5520 C 523.68 0.822564 1.48889 0
M  V30 5521 O 524.865 1.08486 1.61072 0
M  V30 5522 C 521.995 2.27102 2.62759 0
M  V30 5523 C 520.949 3.4277 2.56306 0
M  V30 5524 C 520.275 3.60043 3.95314 0
M  V30 5525 C 521.575 4.77742 2.11093 0
M  V30 5526 H 523.269 2.83912 0.950504 0
M  V30 5527 H 520.815 1.36596 0.455791 0
M  V30 5528 H 522.768 2.53256 3.36807 0
M  V30 5529 H 521.492 1.35478 2.97176 0
M  V30 5530 H 520.151 3.16664 1.84715 0
M  V30 5531 H 519.799 2.65794 4.27039 0
M  V30 5532 H 519.499 4.37841 3.91879 0
M  V30 5533 H 521.023 3.88545 4.71025 0
M  V30 5534 H 522.437 5.03102 2.74885 0
M  V30 5535 H 520.834 5.58823 2.18716 0
M  V30 5536 H 521.904 4.731 1.06321 0
M  V30 5537 N 523.247 -0.488276 1.49845 0
M  V30 5538 C 524.658 -1.06955 1.53028 0
M  V30 5539 C 525.009 -1.9351 0.323797 0
M  V30 5540 O 524.134 -2.08891 -0.565116 0
M  V30 5541 C 524.729 -1.94643 2.77307 0
M  V30 5542 C 523.288 -2.4791 2.83227 0
M  V30 5543 C 522.435 -1.25833 2.47106 0
M  V30 5544 H 525.386 -0.271626 1.56358 0
M  V30 5545 H 525.407 -2.79496 2.5819 0
M  V30 5546 H 524.919 -1.31621 3.65099 0
M  V30 5547 H 523.02 -3.14535 1.99745 0
M  V30 5548 H 523.133 -2.84193 3.85709 0
M  V30 5549 H 521.497 -1.58764 1.99163 0
M  V30 5550 H 522.28 -0.644993 3.37186 0
M  V30 5551 N 524.725 -1.39134 -0.740242 0
M  V30 5552 C 525.635 -1.39697 -1.88473 0
M  V30 5553 C 526.651 -0.292403 -1.71526 0
M  V30 5554 O 527.827 -0.533021 -1.94219 0
M  V30 5555 C 524.892 -1.23382 -3.24003 0
M  V30 5556 C 523.953 -2.43763 -3.53381 0
M  V30 5557 C 523.186 -2.28216 -4.82445 0
M  V30 5558 O 523.409 -1.28288 -5.55786 0
M  V30 5559 O 522.343 -3.1709 -5.11603 0
M  V30 5560 H 526.169 -2.36159 -1.90952 0
M  V30 5561 H 523.754 -1.20194 -0.887346 0
M  V30 5562 H 525.636 -1.16395 -4.05006 0
M  V30 5563 H 524.311 -0.300121 -3.22306 0
M  V30 5564 H 523.218 -2.56325 -2.72485 0
M  V30 5565 H 524.551 -3.35808 -3.59852 0
M  V30 5566 N 526.204 0.969867 -1.24223 0
M  V30 5567 C 527.452 1.70918 -1.0785 0
M  V30 5568 C 527.773 1.91186 0.383763 0
M  V30 5569 O 527.043 1.48806 1.27411 0
M  V30 5570 H 525.623 0.633334 -0.396103 0
M  V30 5571 H 528.285 1.16689 -1.56108 0
M  V30 5572 H 527.381 2.69455 -1.57482 0
M  V30 5573 N 527.682 1.05563 1.17022 0
M  V30 5574 C 528.612 0.681026 2.23348 0
M  V30 5575 C 529.593 -0.322983 1.67005 0
M  V30 5576 O 530.778 -0.199746 1.9317 0
M  V30 5577 C 527.908 0.0589053 3.4725 0
M  V30 5578 C 526.862 0.988082 4.16438 0
M  V30 5579 C 526.188 0.229646 5.34207 0
M  V30 5580 C 527.488 2.31388 4.68249 0
M  V30 5581 H 529.182 1.56993 2.54938 0
M  V30 5582 H 526.728 0.756302 1.2254 0
M  V30 5583 H 528.681 -0.214982 4.20851 0
M  V30 5584 H 527.405 -0.864968 3.14938 0
M  V30 5585 H 526.064 1.24659 3.44754 0
M  V30 5586 H 525.712 -0.697111 4.98146 0
M  V30 5587 H 525.412 0.848815 5.81437 0
M  V30 5588 H 526.936 -0.0368694 6.10589 0
M  V30 5589 H 528.35 2.09964 5.33468 0
M  V30 5590 H 526.747 2.88736 5.26072 0
M  V30 5591 H 527.817 2.94982 3.84855 0
M  V30 5592 N 529.16 -1.33526 0.837174 0
M  V30 5593 C 530.576 -1.50727 0.524743 0
M  V30 5594 C 530.776 -1.77792 -0.948279 0
M  V30 5595 O 529.832 -1.83719 -1.73216 0
M  V30 5596 C 531.145 -2.66299 1.39661 0
M  V30 5597 C 532.693 -2.80183 1.39521 0
M  V30 5598 C 533.168 -3.98815 2.25189 0
M  V30 5599 N 534.659 -4.06047 2.2289 0
M  V30 5600 C 535.394 -4.97032 2.85915 0
M  V30 5601 N 534.89 -5.93143 3.57985 0
M  V30 5602 N 536.683 -4.90015 2.75394 0
M  V30 5603 H 528.834 -1.1422 1.79074 0
M  V30 5604 H 531.097 -0.561399 0.763894 0
M  V30 5605 H 530.803 -2.52974 2.4433 0
M  V30 5606 H 530.677 -3.61663 1.07145 0
M  V30 5607 H 533.064 -2.92942 0.356253 0
M  V30 5608 H 533.145 -1.85586 1.76044 0
M  V30 5609 H 532.789 -3.86817 3.29143 0
M  V30 5610 H 532.719 -4.92654 1.86009 0
M  V30 5611 H 535.21 -3.37262 1.70478 0
M  V30 5612 H 535.523 -6.59227 4.03286 0
M  V30 5613 H 533.868 -5.93223 3.62093 0
M  V30 5614 H 537.059 -4.13894 2.18654 0
M  V30 5615 H 537.232 -5.60724 3.24796 0
M  V30 5616 N 530.638 -0.59345 -1.46 0
M  V30 5617 C 532.054 -0.255965 -1.57534 0
M  V30 5618 C 532.254 1.24167 -1.58697 0
M  V30 5619 O 531.31 2.02398 -1.50968 0
M  V30 5620 C 532.623 -0.91466 -2.86451 0
M  V30 5621 C 534.171 -0.889253 -3.00102 0
M  V30 5622 C 534.646 -1.52769 -4.3177 0
M  V30 5623 N 536.137 -1.49253 -4.38495 0
M  V30 5624 C 536.872 -1.9558 -5.39014 0
M  V30 5625 N 536.368 -2.49929 -6.46148 0
M  V30 5626 N 538.161 -1.86432 -5.30282 0
M  V30 5627 H 530.312 -1.56604 -1.43489 0
M  V30 5628 H 532.575 -0.655207 -0.685133 0
M  V30 5629 H 532.281 -1.96861 -2.91442 0
M  V30 5630 H 532.155 -0.429356 -3.74748 0
M  V30 5631 H 534.542 0.156111 -2.94687 0
M  V30 5632 H 534.623 -1.41268 -2.13253 0
M  V30 5633 H 534.267 -2.57231 -4.37944 0
M  V30 5634 H 534.197 -0.979398 -5.17412 0
M  V30 5635 H 536.688 -1.09536 -3.61677 0
M  V30 5636 H 537.001 -2.83109 -7.19075 0
M  V30 5637 H 535.346 -2.53961 -6.46938 0
M  V30 5638 H 538.537 -1.43722 -4.4549 0
M  V30 5639 H 538.71 -2.22852 -6.08474 0
M  V30 5640 N 532.116 1.54067 -0.331816 0
M  V30 5641 C 533.532 1.59587 0.0205388 0
M  V30 5642 C 533.732 1.34813 1.49759 0
M  V30 5643 O 532.788 1.13661 2.25471 0
M  V30 5644 C 534.101 2.97959 -0.405103 0
M  V30 5645 C 535.649 3.10964 -0.356454 0
M  V30 5646 C 536.124 4.51694 -0.757384 0
M  V30 5647 N 537.615 4.57709 -0.71111 0
M  V30 5648 C 538.35 5.64729 -0.993427 0
M  V30 5649 N 537.846 6.79652 -1.3433 0
M  V30 5650 N 539.639 5.54546 -0.918442 0
M  V30 5651 H 531.79 1.68426 -1.29407 0
M  V30 5652 H 534.053 0.78819 -0.526745 0
M  V30 5653 H 533.759 3.21115 -1.43451 0
M  V30 5654 H 533.633 3.76524 0.225692 0
M  V30 5655 H 536.02 2.87538 0.663763 0
M  V30 5656 H 536.101 2.34484 -1.02229 0
M  V30 5657 H 535.745 4.75853 -1.77555 0
M  V30 5658 H 535.675 5.26555 -0.0691444 0
M  V30 5659 H 538.166 3.75176 -0.452883 0
M  V30 5660 H 538.479 7.57221 -1.54388 0
M  V30 5661 H 536.824 6.81128 -1.38164 0
M  V30 5662 H 540.015 4.63641 -0.644536 0
M  V30 5663 H 540.188 6.37861 -1.14181 0
M  V30 5664 N 533.594 0.0601682 1.57485 0
M  V30 5665 C 534.841 -0.611594 1.93043 0
M  V30 5666 C 535.169 -1.70317 0.939274 0
M  V30 5667 O 534.424 -1.95644 -0.046996 0
M  V30 5668 C 534.723 -1.23831 3.35262 0
M  V30 5669 C 534.389 -0.274037 4.50066 0
M  V30 5670 C 533.051 -0.00872394 4.81199 0
M  V30 5671 C 535.403 0.386308 5.19766 0
M  V30 5672 C 532.731 0.924218 5.79375 0
M  V30 5673 C 535.083 1.3075 6.1894 0
M  V30 5674 C 533.747 1.58139 6.48497 0
M  V30 5675 H 533.017 -0.223798 0.706396 0
M  V30 5676 H 535.664 0.128566 1.91068 0
M  V30 5677 H 533.969 -2.05394 3.33647 0
M  V30 5678 H 535.666 -1.76517 3.60059 0
M  V30 5679 H 532.256 -0.491008 4.25778 0
M  V30 5680 H 536.44 0.194436 4.95919 0
M  V30 5681 H 531.696 1.1438 6.00606 0
M  V30 5682 H 535.87 1.82519 6.72056 0
M  V30 5683 H 533.497 2.30593 7.24383 0
M  V30 5684 N 535.072 -1.5615 -0.213296 0
M  V30 5685 C 536.002 -1.96109 -1.26742 0
M  V30 5686 C 536.983 -0.830448 -1.48451 0
M  V30 5687 O 538.168 -1.09339 -1.60495 0
M  V30 5688 C 535.298 -2.28492 -2.61551 0
M  V30 5689 C 534.252 -3.44124 -2.54485 0
M  V30 5690 C 533.578 -3.62134 -3.93399 0
M  V30 5691 C 534.878 -4.78855 -2.08556 0
M  V30 5692 H 536.572 -2.84412 -0.935434 0
M  V30 5693 H 534.118 -1.36836 -0.44854 0
M  V30 5694 H 536.071 -2.55039 -3.3546 0
M  V30 5695 H 534.795 -1.37052 -2.96453 0
M  V30 5696 H 533.454 -3.17639 -1.83033 0
M  V30 5697 H 533.102 -2.68055 -4.25623 0
M  V30 5698 H 532.802 -4.39913 -3.89551 0
M  V30 5699 H 534.326 -3.91038 -4.68958 0
M  V30 5700 H 535.74 -5.04552 -2.72213 0
M  V30 5701 H 534.137 -5.59975 -2.1575 0
M  V30 5702 H 535.207 -4.73657 -1.03811 0
M  V30 5703 N 536.55 0.480323 -1.50102 0
M  V30 5704 C 537.482 1.59669 -1.64433 0
M  V30 5705 C 538.495 1.54063 -0.52615 0
M  V30 5706 O 539.684 1.59619 -0.798992 0
M  V30 5707 C 536.784 2.98527 -1.6042 0
M  V30 5708 C 535.957 3.291 -2.88117 0
M  V30 5709 C 535.016 4.47468 -2.76873 0
M  V30 5710 O 534.042 4.4823 -3.50825 0
M  V30 5711 N 535.244 5.48593 -1.89806 0
M  V30 5712 H 538.009 1.47795 -2.60723 0
M  V30 5713 H 535.57 0.66858 -1.4745 0
M  V30 5714 H 537.562 3.75666 -1.50523 0
M  V30 5715 H 536.132 3.04218 -0.719036 0
M  V30 5716 H 535.352 2.40662 -3.12211 0
M  V30 5717 H 536.64 3.46334 -3.72734 0
M  V30 5718 H 536.038 5.50791 -1.2902 0
M  V30 5719 H 534.595 6.24752 -1.85819 0
M  V30 5720 N 538.028 1.39524 0.732853 0
M  V30 5721 C 538.991 1.38189 1.82857 0
M  V30 5722 C 539.991 0.278624 1.58368 0
M  V30 5723 O 541.181 0.536639 1.65728 0
M  V30 5724 C 538.313 1.15661 3.2068 0
M  V30 5725 H 539.506 2.35692 1.85444 0
M  V30 5726 H 537.059 1.2512 0.936728 0
M  V30 5727 H 537.794 0.188482 3.23752 0
M  V30 5728 H 537.579 1.95559 3.39852 0
M  V30 5729 H 539.069 1.17472 4.00737 0
M  V30 5730 N 539.506 -0.963266 1.24736 0
M  V30 5731 C 540.753 -1.7068 1.0897 0
M  V30 5732 C 541.081 -1.90934 -0.370751 0
M  V30 5733 O 540.336 -1.47155 -1.29011 0
M  V30 5734 C 540.635 -3.09944 1.7796 0
M  V30 5735 C 540.301 -3.09518 3.27887 0
M  V30 5736 C 538.963 -3.09109 3.68789 0
M  V30 5737 C 541.315 -3.03509 4.23712 0
M  V30 5738 C 538.643 -3.00429 5.03944 0
M  V30 5739 C 540.995 -2.96371 5.5888 0
M  V30 5740 C 539.659 -2.94293 5.99123 0
M  V30 5741 H 538.929 -0.624564 0.398749 0
M  V30 5742 H 541.576 -1.12603 1.54896 0
M  V30 5743 H 539.881 -3.71513 1.2444 0
M  V30 5744 H 541.578 -3.66278 1.63222 0
M  V30 5745 H 538.168 -3.10603 2.95337 0
M  V30 5746 H 542.352 -3.0295 3.93109 0
M  V30 5747 H 537.608 -2.97183 5.34314 0
M  V30 5748 H 541.782 -2.90681 6.32833 0
M  V30 5749 H 539.409 -2.87322 7.03811 0
M  V30 5750 N 540.985 -1.06182 -1.16461 0
M  V30 5751 C 542.232 -0.777863 -1.86964 0
M  V30 5752 C 542.56 0.695602 -1.81636 0
M  V30 5753 O 541.815 1.52532 -1.22607 0
M  V30 5754 C 542.114 -1.21633 -3.36066 0
M  V30 5755 C 541.78 -2.69371 -3.61594 0
M  V30 5756 C 540.442 -3.09727 -3.6827 0
M  V30 5757 C 542.794 -3.64791 -3.7226 0
M  V30 5758 C 540.122 -4.44345 -3.83112 0
M  V30 5759 C 542.474 -4.99155 -3.88623 0
M  V30 5760 C 541.138 -5.39149 -3.93541 0
M  V30 5761 H 540.408 -0.28464 -0.68415 0
M  V30 5762 H 543.055 -1.33071 -1.37711 0
M  V30 5763 H 541.36 -0.582651 -3.87443 0
M  V30 5764 H 543.057 -0.973682 -3.88999 0
M  V30 5765 H 539.647 -2.37124 -3.57029 0
M  V30 5766 H 543.831 -3.34746 -3.66413 0
M  V30 5767 H 539.087 -4.74819 -3.85172 0
M  V30 5768 H 543.261 -5.72976 -3.95817 0
M  V30 5769 H 540.888 -6.43464 -4.04794 0
M  V30 5770 N 542.463 1.3308 -0.844243 0
M  V30 5771 C 543.712 1.96868 -0.438833 0
M  V30 5772 C 544.025 1.67599 1.00846 0
M  V30 5773 O 545.231 2.25043 1.51881 0
M  V30 5774 C 543.687 3.5234 -0.73377 0
M  V30 5775 C 543.295 3.90481 -2.1961 0
M  V30 5776 C 545.039 4.22653 -0.395574 0
M  V30 5777 C 542.946 5.38954 -2.43481 0
M  V30 5778 H 541.876 0.736749 -0.160364 0
M  V30 5779 H 544.527 1.51623 -1.03358 0
M  V30 5780 H 542.909 3.95941 -0.068589 0
M  V30 5781 H 544.083 3.57922 -2.90221 0
M  V30 5782 H 542.398 3.33165 -2.4978 0
M  V30 5783 H 544.995 5.31848 -0.551477 0
M  V30 5784 H 545.338 4.11004 0.661921 0
M  V30 5785 H 545.871 3.84601 -1.01621 0
M  V30 5786 H 542.61 5.55612 -3.47816 0
M  V30 5787 H 542.13 5.72954 -1.77437 0
M  V30 5788 H 543.809 6.05907 -2.26905 0
M  V30 5789 N 543.941 0.601185 1.45683 0
M  V30 5790 C 545.166 0.0982245 2.07167 0
M  V30 5791 C 545.591 -1.20546 1.44396 0
M  V30 5792 O 544.949 -1.73247 0.534347 0
M  V30 5793 C 544.997 -0.0346976 3.60583 0
M  V30 5794 O 544.101 -1.08657 3.97828 0
M  V30 5795 H 543.442 0.0711618 0.660176 0
M  V30 5796 H 545.972 0.829376 1.87036 0
M  V30 5797 H 545.982 -0.234969 4.07323 0
M  V30 5798 H 544.657 0.917265 4.05659 0
M  V30 5799 H 543.234 -0.863275 3.6277 0
M  V30 5800 N 545.419 -1.53889 0.339982 0
M  V30 5801 C 546.369 -2.2165 -0.534354 0
M  V30 5802 C 547.353 -1.20266 -1.06887 0
M  V30 5803 O 548.545 -1.45827 -1.00316 0
M  V30 5804 C 545.674 -2.99014 -1.68659 0
M  V30 5805 C 544.76 -4.07751 -1.16618 0
M  V30 5806 N 545.151 -5.04469 -0.366717 0
M  V30 5807 C 543.449 -4.21998 -1.4434 0
M  V30 5808 C 544.15 -5.81638 -0.0847275 0
M  V30 5809 N 543.126 -5.39388 -0.675391 0
M  V30 5810 H 546.928 -2.93781 0.0835562 0
M  V30 5811 H 544.442 -1.61736 0.146665 0
M  V30 5812 H 546.439 -3.46056 -2.32489 0
M  V30 5813 H 545.099 -2.28408 -2.30781 0
M  V30 5814 H 546.11 -5.17899 -0.00811038 0
M  V30 5815 H 542.787 -3.62612 -2.06928 0
M  V30 5816 H 544.177 -6.69563 0.559943 0
M  V30 5817 N 546.897 -0.0685191 -1.57451 0
M  V30 5818 C 548.137 0.605038 -1.9524 0
M  V30 5819 C 548.501 1.66974 -0.947816 0
M  V30 5820 O 549.702 2.39862 -1.21325 0
M  V30 5821 C 547.973 1.16999 -3.37707 0
M  V30 5822 S 549.532 1.85913 -3.97469 0
M  V30 5823 H 546.35 0.198203 -0.682815 0
M  V30 5824 H 548.952 -0.141594 -1.94987 0
M  V30 5825 H 547.656 0.383205 -4.08607 0
M  V30 5826 H 547.187 1.95305 -3.41496 0
M  V30 5827 H 549.202 3.14128 -3.84107 0
M  V30 5828 N 548.375 1.56261 0.205012 0
M  V30 5829 C 549.305 1.96779 1.257 0
M  V30 5830 C 550.286 0.838309 1.48008 0
M  V30 5831 O 551.471 1.10189 1.59913 0
M  V30 5832 C 548.601 2.29876 2.60335 0
M  V30 5833 C 547.555 3.45469 2.52656 0
M  V30 5834 C 546.881 3.64215 3.91473 0
M  V30 5835 C 548.181 4.79954 2.06014 0
M  V30 5836 H 549.875 2.84904 0.920338 0
M  V30 5837 H 547.421 1.37072 0.441277 0
M  V30 5838 H 549.374 2.56814 3.34102 0
M  V30 5839 H 548.098 1.38622 2.95722 0
M  V30 5840 H 546.757 3.18605 1.81345 0
M  V30 5841 H 546.405 2.70309 4.24196 0
M  V30 5842 H 546.105 4.41973 3.87213 0
M  V30 5843 H 547.629 3.93519 4.66878 0
M  V30 5844 H 549.043 5.05989 2.69533 0
M  V30 5845 H 547.44 5.61111 2.12777 0
M  V30 5846 H 548.51 4.74201 1.01297 0
M  V30 5847 N 549.853 -0.472356 1.50355 0
M  V30 5848 C 551.264 -1.05326 1.54154 0
M  V30 5849 C 551.615 -1.93155 0.344303 0
M  V30 5850 O 550.74 -2.09479 -0.542928 0
M  V30 5851 C 551.335 -1.91691 2.79356 0
M  V30 5852 C 549.894 -2.44892 2.8584 0
M  V30 5853 C 549.041 -1.23205 2.48426 0
M  V30 5854 H 551.992 -0.255027 1.56637 0
M  V30 5855 H 552.013 -2.76742 2.6114 0
M  V30 5856 H 551.525 -1.27741 3.66475 0
M  V30 5857 H 549.626 -3.12399 2.0307 0
M  V30 5858 H 549.739 -2.80086 3.88701 0
M  V30 5859 H 548.103 -1.56643 2.00836 0
M  V30 5860 H 548.886 -0.609194 3.37852 0
M  V30 5861 N 551.331 -1.39911 -0.725443 0
M  V30 5862 C 552.747 -1.21725 -1.03224 0
M  V30 5863 C 552.947 -0.0855224 -2.01318 0
M  V30 5864 O 552.003 0.55976 -2.46217 0
M  V30 5865 C 553.316 -2.55511 -1.58539 0
M  V30 5866 C 554.864 -2.62439 -1.70572 0
M  V30 5867 C 555.339 -3.9647 -2.29294 0
M  V30 5868 N 556.83 -3.98159 -2.36692 0
M  V30 5869 C 557.565 -4.98647 -2.83088 0
M  V30 5870 N 557.061 -6.0953 -3.2931 0
M  V30 5871 N 558.854 -4.8602 -2.82384 0
M  V30 5872 H 551.005 -2.12267 -0.075048 0
M  V30 5873 H 553.268 -0.943136 -0.0959066 0
M  V30 5874 H 552.974 -3.38926 -0.939249 0
M  V30 5875 H 552.848 -2.75905 -2.57208 0
M  V30 5876 H 555.235 -1.79401 -2.34306 0
M  V30 5877 H 555.316 -2.45885 -0.705297 0
M  V30 5878 H 554.96 -4.79942 -1.66186 0
M  V30 5879 H 554.89 -4.10349 -3.30032 0
M  V30 5880 H 557.381 -3.18085 -2.04035 0
M  V30 5881 H 557.694 -6.82106 -3.6325 0
M  V30 5882 H 556.039 -6.1311 -3.27294 0
M  V30 5883 H 559.23 -3.98493 -2.45603 0
M  V30 5884 H 559.403 -5.64478 -3.18226 0
M  V30 5885 N 552.809 0.956637 -1.25245 0
M  V30 5886 C 553.772 2.03457 -1.05537 0
M  V30 5887 C 554.772 1.60798 -0.00886317 0
M  V30 5888 O 555.962 1.72384 -0.250865 0
M  V30 5889 C 553.094 3.35543 -0.601965 0
M  V30 5890 H 554.287 2.22372 -2.01223 0
M  V30 5891 H 551.84 1.13344 -1.07623 0
M  V30 5892 H 552.575 3.22323 0.357584 0
M  V30 5893 H 552.36 3.67854 -1.35743 0
M  V30 5894 H 553.85 4.14769 -0.485454 0
M  V30 5895 N 554.287 1.06798 1.15896 0
M  V30 5896 C 555.217 0.704677 2.22613 0
M  V30 5897 C 556.198 -0.305252 1.67339 0
M  V30 5898 O 557.383 -0.179247 1.93371 0
M  V30 5899 C 554.513 0.0957325 3.47168 0
M  V30 5900 C 553.467 1.0322 4.15367 0
M  V30 5901 C 552.793 0.286293 5.33933 0
M  V30 5902 C 554.093 2.36341 4.65768 0
M  V30 5903 H 555.787 1.59688 2.53259 0
M  V30 5904 H 553.333 0.769257 1.21731 0
M  V30 5905 H 555.286 -0.170333 4.21056 0
M  V30 5906 H 554.01 -0.831516 3.15838 0
M  V30 5907 H 552.669 1.28309 3.43413 0
M  V30 5908 H 552.317 -0.644237 4.98857 0
M  V30 5909 H 552.017 0.910436 5.80504 0
M  V30 5910 H 553.541 0.0278938 6.10594 0
M  V30 5911 H 554.955 2.1561 5.31211 0
M  V30 5912 H 553.352 2.94299 5.2298 0
M  V30 5913 H 554.422 2.99047 3.81705 0
M  V30 5914 N 555.766 -1.3263 0.851289 0
M  V30 5915 C 556.698 -2.27824 0.250757 0
M  V30 5916 C 557.711 -1.52285 -0.575598 0
M  V30 5917 O 558.9 -1.73946 -0.400638 0
M  V30 5918 C 556 -3.3232 -0.664571 0
M  V30 5919 C 555.173 -4.37221 0.125187 0
M  V30 5920 C 554.232 -5.21314 -0.715385 0
M  V30 5921 O 553.258 -5.69002 -0.150111 0
M  V30 5922 N 554.46 -5.43823 -2.03069 0
M  V30 5923 H 557.225 -2.79997 1.06873 0
M  V30 5924 H 554.786 -1.45455 0.710943 0
M  V30 5925 H 556.778 -3.85486 -1.23216 0
M  V30 5926 H 555.348 -2.80331 -1.38323 0
M  V30 5927 H 554.568 -3.84384 0.874199 0
M  V30 5928 H 555.856 -5.04399 0.667774 0
M  V30 5929 H 555.254 -5.06803 -2.51332 0
M  V30 5930 H 553.811 -5.99998 -2.54648 0
M  V30 5931 N 557.244 -0.608902 -1.45362 0
M  V30 5932 C 558.655 -0.189511 -1.85736 0
M  V30 5933 C 559.006 1.2539 -1.50903 0
M  V30 5934 O 558.131 1.95094 -0.936347 0
M  V30 5935 C 558.726 -0.33716 -3.37118 0
M  V30 5936 C 557.285 0.0275487 -3.7639 0
M  V30 5937 C 556.432 -0.660983 -2.69307 0
M  V30 5938 H 559.383 -0.815499 -1.36144 0
M  V30 5939 H 559.404 0.430257 -3.7806 0
M  V30 5940 H 558.916 -1.38779 -3.62439 0
M  V30 5941 H 557.017 1.0773 -3.56686 0
M  V30 5942 H 557.13 -0.367018 -4.77692 0
M  V30 5943 H 555.494 -0.0984958 -2.54509 0
M  V30 5944 H 556.277 -1.71377 -2.97464 0
M  V30 5945 N 558.722 1.53707 -0.348139 0
M  V30 5946 C 559.97 2.00591 0.246478 0
M  V30 5947 C 560.291 1.23753 1.50699 0
M  V30 5948 O 559.561 0.345964 1.92821 0
M  V30 5949 H 558.141 0.741053 0.0940679 0
M  V30 5950 H 560.803 1.89139 -0.470354 0
M  V30 5951 H 559.899 3.08297 0.485714 0
M  V30 5952 N 560.2 0.0768682 1.57412 0
M  V30 5953 C 561.132 -0.918248 2.10002 0
M  V30 5954 C 562.145 -1.25808 1.03325 0
M  V30 5955 O 563.334 -1.21438 1.30824 0
M  V30 5956 C 560.434 -2.23263 2.54964 0
M  V30 5957 C 559.607 -2.07088 3.8527 0
M  V30 5958 C 558.666 -3.21876 4.16272 0
M  V30 5959 O 557.692 -2.96643 4.8579 0
M  V30 5960 N 558.894 -4.4712 3.70221 0
M  V30 5961 H 561.659 -0.469209 2.96004 0
M  V30 5962 H 559.22 -0.108725 1.61535 0
M  V30 5963 H 561.212 -2.9897 2.72762 0
M  V30 5964 H 559.782 -2.59649 1.74072 0
M  V30 5965 H 559.002 -1.15818 3.76802 0
M  V30 5966 H 560.29 -1.93537 4.70554 0
M  V30 5967 H 559.688 -4.70506 3.1407 0
M  V30 5968 H 558.245 -5.19837 3.93209 0
M  V30 5969 N 561.678 -1.56367 -0.196722 0
M  V30 5970 C 563.089 -1.70462 -0.761545 0
M  V30 5971 C 563.44 -0.683161 -1.83922 0
M  V30 5972 O 562.565 0.160753 -2.15802 0
M  V30 5973 C 563.16 -3.09057 -1.38814 0
M  V30 5974 C 561.719 -3.24922 -1.90007 0
M  V30 5975 C 560.866 -2.66412 -0.769399 0
M  V30 5976 H 563.817 -1.58675 0.0283263 0
M  V30 5977 H 563.838 -3.06296 -2.2575 0
M  V30 5978 H 563.35 -3.83378 -0.603559 0
M  V30 5979 H 561.451 -2.55514 -2.71189 0
M  V30 5980 H 561.564 -4.3241 -2.06297 0
M  V30 5981 H 559.928 -2.25546 -1.18326 0
M  V30 5982 H 560.711 -3.433 0.00291773 0
M  V30 5983 N 563.156 0.464375 -1.50603 0
M  V30 5984 C 564.404 1.21356 -1.61608 0
M  V30 5985 C 564.725 1.92329 -0.321643 0
M  V30 5986 O 563.995 1.84403 0.661232 0
M  V30 5987 H 562.575 0.45094 -0.595535 0
M  V30 5988 H 565.237 0.535046 -1.87412 0
M  V30 5989 H 564.333 1.95783 -2.43054 0
M  V30 5990 N 564.634 1.40294 0.718013 0
M  V30 5991 C 565.862 1.4175 1.50714 0
M  V30 5992 C 566.277 0.0165366 1.88793 0
M  V30 5993 O 565.634 -0.958942 1.55276 0
M  V30 5994 C 565.685 2.30598 2.784 0
M  V30 5995 O 565.406 3.6524 2.41932 0
M  V30 5996 C 566.907 2.4062 3.72313 0
M  V30 5997 H 564.127 0.483565 0.465194 0
M  V30 5998 H 566.671 1.84316 0.885889 0
M  V30 5999 H 564.826 1.91401 3.36815 0
M  V30 6000 H 565.24 4.12402 3.24076 0
M  V30 6001 H 566.714 3.07001 4.58753 0
M  V30 6002 H 567.191 1.4305 4.15251 0
M  V30 6003 H 567.797 2.80359 3.19811 0
M  V30 6004 N 566.112 -0.949982 1.2575 0
M  V30 6005 C 567.34 -1.72972 1.13527 0
M  V30 6006 C 567.755 -1.8623 -0.310453 0
M  V30 6007 O 567.112 -1.36336 -1.2132 0
M  V30 6008 C 567.163 -3.14108 1.78936 0
M  V30 6009 O 566.884 -3.01493 3.17858 0
M  V30 6010 C 568.385 -4.08338 1.72554 0
M  V30 6011 H 565.605 -0.541864 0.395758 0
M  V30 6012 H 568.149 -1.19151 1.66202 0
M  V30 6013 H 566.304 -3.64858 1.30221 0
M  V30 6014 H 566.718 -3.90559 3.50092 0
M  V30 6015 H 568.192 -5.04963 2.22973 0
M  V30 6016 H 568.669 -4.33742 0.690251 0
M  V30 6017 H 569.275 -3.63506 2.2078 0
M  V30 6018 N 567.59 -1.07411 -1.15328 0
M  V30 6019 C 569.001 -0.820261 -1.67716 0
M  V30 6020 C 569.352 0.654539 -1.8496 0
M  V30 6021 O 568.477 1.50664 -1.55337 0
M  V30 6022 C 569.072 -1.48242 -3.04647 0
M  V30 6023 C 567.631 -1.27606 -3.5411 0
M  V30 6024 C 566.778 -1.5517 -2.29821 0
M  V30 6025 H 569.729 -1.23608 -0.995332 0
M  V30 6026 H 569.75 -0.903984 -3.69606 0
M  V30 6027 H 569.262 -2.55578 -2.92064 0
M  V30 6028 H 567.363 -0.222948 -3.71932 0
M  V30 6029 H 567.476 -1.99667 -4.35511 0
M  V30 6030 H 565.84 -0.972747 -2.35393 0
M  V30 6031 H 566.623 -2.63689 -2.19824 0
M  V30 6032 N 569.068 1.32177 -0.85831 0
M  V30 6033 C 570.479 1.79381 -0.517621 0
M  V30 6034 C 570.83 1.70841 0.964769 0
M  V30 6035 O 569.955 1.26917 1.75274 0
M  V30 6036 C 570.55 3.25706 -0.932801 0
M  V30 6037 C 569.109 3.70851 -0.643953 0
M  V30 6038 C 568.256 2.53208 -1.13054 0
M  V30 6039 H 571.207 1.19424 -1.04516 0
M  V30 6040 H 571.228 3.79673 -0.250674 0
M  V30 6041 H 570.74 3.31889 -2.01174 0
M  V30 6042 H 568.841 3.70178 0.424112 0
M  V30 6043 H 568.954 4.63495 -1.21281 0
M  V30 6044 H 567.318 2.48676 -0.550679 0
M  V30 6045 H 568.101 2.62143 -2.21666 0
M  V30 6046 N 570.547 0.616602 1.45037 0
M  V30 6047 C 571.479 -0.135186 2.28801 0
M  V30 6048 C 572.492 -0.82303 1.40464 0
M  V30 6049 O 573.681 -0.686909 1.64754 0
M  V30 6050 C 570.781 -1.21292 3.16451 0
M  V30 6051 C 569.954 -0.61043 4.3312 0
M  V30 6052 C 569.013 -1.58022 5.01912 0
M  V30 6053 O 568.039 -1.10301 5.58411 0
M  V30 6054 N 569.241 -2.91464 5.02025 0
M  V30 6055 H 572.006 0.583612 2.93963 0
M  V30 6056 H 569.567 0.456723 1.55324 0
M  V30 6057 H 571.559 -1.86169 3.59337 0
M  V30 6058 H 570.129 -1.83412 2.53138 0
M  V30 6059 H 569.349 0.216638 3.93604 0
M  V30 6060 H 570.637 -0.188293 5.08451 0
M  V30 6061 H 570.035 -3.32829 4.57429 0
M  V30 6062 H 568.592 -3.51741 5.48745 0
M  V30 6063 N 572.025 -1.5352 0.356285 0
M  V30 6064 C 573.302 -1.93405 -0.292223 0
M  V30 6065 C 573.682 -1.28901 -1.67176 0
M  V30 6066 O 573.03 -0.444632 -2.24132 0
M  V30 6067 C 573.24 -3.47223 -0.35175 0
M  V30 6068 C 574.588 -4.20389 -0.596534 0
M  V30 6069 O 575.612 -3.53554 -0.433344 0
M  V30 6070 O 574.471 -5.3881 -0.913589 0
M  V30 6071 H 571.565 -0.808666 -0.173172 0
M  V30 6072 H 574.111 -1.64713 0.408391 0
M  V30 6073 H 572.883 -3.86423 0.615841 0
M  V30 6074 H 572.506 -3.8212 -1.09864 0
M  V30 6075 N 573.503 -0.0852151 -1.57369 0
M  V30 6076 C 574.466 0.8627 -2.12344 0
M  V30 6077 C 575.466 1.21746 -1.05046 0
M  V30 6078 O 576.656 1.14852 -1.30976 0
M  V30 6079 C 573.788 2.1618 -2.63589 0
M  V30 6080 H 574.981 0.385511 -2.97412 0
M  V30 6081 H 572.534 0.163663 -1.55441 0
M  V30 6082 H 573.269 2.68406 -1.82013 0
M  V30 6083 H 573.054 1.91723 -3.4203 0
M  V30 6084 H 574.544 2.84011 -3.06149 0
M  V30 6085 N 574.981 1.5647 0.188427 0
M  V30 6086 C 575.944 1.9421 1.21718 0
M  V30 6087 C 576.944 0.823901 1.38089 0
M  V30 6088 O 578.134 1.09122 1.35787 0
M  V30 6089 C 575.266 2.22197 2.58537 0
M  V30 6090 H 576.459 2.86252 0.894418 0
M  V30 6091 H 574.012 1.50263 0.430211 0
M  V30 6092 H 574.747 1.32814 2.95856 0
M  V30 6093 H 574.532 3.03688 2.48025 0
M  V30 6094 H 576.022 2.52376 3.3271 0
M  V30 6095 N 576.459 -0.456382 1.50847 0
M  V30 6096 C 577.391 -1.57033 1.66953 0
M  V30 6097 C 578.404 -1.53207 0.550593 0
M  V30 6098 O 579.593 -1.58328 0.824285 0
M  V30 6099 C 576.693 -2.95937 1.65149 0
M  V30 6100 C 575.866 -3.24475 2.93317 0
M  V30 6101 C 574.925 -4.43007 2.83957 0
M  V30 6102 O 573.951 -4.42592 3.57912 0
M  V30 6103 N 575.153 -5.45503 1.9851 0
M  V30 6104 H 577.918 -1.43629 2.63042 0
M  V30 6105 H 575.479 -0.645037 1.48495 0
M  V30 6106 H 577.471 -3.73224 1.56481 0
M  V30 6107 H 576.041 -3.03036 0.767343 0
M  V30 6108 H 575.261 -2.35664 3.16 0
M  V30 6109 H 576.549 -3.4036 3.78196 0
M  V30 6110 H 575.947 -5.48668 1.37766 0
M  V30 6111 H 574.504 -6.21716 1.95735 0
M  V30 6112 N 577.937 -1.40673 -0.710563 0
M  V30 6113 C 579.214 -1.29718 -1.46398 0
M  V30 6114 C 579.594 0.082177 -2.1094 0
M  V30 6115 O 578.942 1.09536 -2.00534 0
M  V30 6116 C 579.152 -2.43967 -2.49562 0
M  V30 6117 C 580.5 -2.84436 -3.15248 0
M  V30 6118 O 581.524 -2.43597 -2.59883 0
M  V30 6119 O 580.383 -3.55008 -4.1549 0
M  V30 6120 H 577.477 -0.509697 -0.651258 0
M  V30 6121 H 580.023 -1.52603 -0.742312 0
M  V30 6122 H 578.795 -3.36076 -2.0042 0
M  V30 6123 H 578.418 -2.22879 -3.29258 0
M  V30 6124 N 579.415 0.9433 -1.26252 0
M  V30 6125 C 580.826 1.50404 -1.10614 0
M  V30 6126 C 581.177 1.93666 0.31429 0
M  V30 6127 O 580.302 1.79709 1.20555 0
M  V30 6128 C 580.897 2.73336 -2.00182 0
M  V30 6129 C 579.456 3.25686 -1.88695 0
M  V30 6130 C 578.603 1.98474 -1.93658 0
M  V30 6131 H 581.554 0.759006 -1.39373 0
M  V30 6132 H 581.575 3.47567 -1.54847 0
M  V30 6133 H 581.087 2.41818 -3.03555 0
M  V30 6134 H 579.188 3.61998 -0.882489 0
M  V30 6135 H 579.301 3.92935 -2.74115 0
M  V30 6136 H 577.665 2.14278 -1.37684 0
M  V30 6137 H 578.448 1.6929 -2.98657 0
M  V30 6138 N 580.893 1.08022 1.14757 0
M  V30 6139 C 581.841 0.701088 2.21783 0
M  V30 6140 C 582.835 -0.291311 1.66876 0
M  V30 6141 O 584.041 -0.154296 1.79337 0
M  V30 6142 H 580.416 0.208668 0.722469 0
M  V30 6143 H 582.387 1.61321 2.51034 0
M  V30 6144 C 581.136 0.122278 3.47485 0
M  V30 6145 H 580.459 0.877065 3.90061 0
M  V30 6146 H 581.899 -0.105248 4.23869 0
M  V30 6147 C 580.358 -1.13883 3.17068 0
M  V30 6148 O 580.888 -2.22429 3.34497 0
M  V30 6149 N 579.094 -1.04767 2.71058 0
M  V30 6150 H 578.641 -0.164302 2.57075 0
M  V30 6151 H 578.599 -1.89224 2.51081 0
M  V30 6152 N 582.371 -1.3172 0.865308 0
M  V30 6153 C 583.301 -2.31109 0.333302 0
M  V30 6154 C 584.282 -1.60148 -0.573301 0
M  V30 6155 O 585.467 -1.87882 -0.491305 0
M  V30 6156 C 582.597 -3.44104 -0.470078 0
M  V30 6157 C 581.551 -4.26623 0.343021 0
M  V30 6158 C 580.877 -5.31482 -0.585756 0
M  V30 6159 C 582.177 -4.98001 1.57456 0
M  V30 6160 H 583.871 -2.75855 1.1638 0
M  V30 6161 H 581.417 -1.3262 0.561069 0
M  V30 6162 H 583.37 -4.12682 -0.852752 0
M  V30 6163 H 582.094 -2.98112 -1.33404 0
M  V30 6164 H 580.753 -3.59707 0.707583 0
M  V30 6165 H 580.401 -4.81741 -1.44686 0
M  V30 6166 H 580.101 -5.87582 -0.0456494 0
M  V30 6167 H 581.625 -6.0292 -0.965375 0
M  V30 6168 H 583.039 -5.59201 1.26359 0
M  V30 6169 H 581.436 -5.63876 2.05339 0
M  V30 6170 H 582.506 -4.25253 2.32997 0
M  V30 6171 N 583.85 -0.624285 -1.44708 0
M  V30 6172 C 585.075 -0.131171 -2.06985 0
M  V30 6173 C 585.5 1.18234 -1.46295 0
M  V30 6174 O 584.858 1.72375 -0.561842 0
M  V30 6175 C 584.906 -0.0226724 -3.60593 0
M  V30 6176 O 584.01 1.02314 -3.99507 0
M  V30 6177 H 583.351 -0.0816556 -0.65896 0
M  V30 6178 H 585.88 -0.859027 -1.85693 0
M  V30 6179 H 585.891 0.170138 -4.07645 0
M  V30 6180 H 584.566 -0.981685 -4.04148 0
M  V30 6181 H 583.143 0.805452 -3.64097 0
M  V30 6182 N 585.328 1.53329 -0.364422 0
M  V30 6183 C 586.739 1.86345 0.115039 0
M  V30 6184 C 587.09 1.28505 1.4826 0
M  V30 6185 O 586.215 0.606639 2.07723 0
M  V30 6186 C 586.81 3.38114 0.215522 0
M  V30 6187 C 585.369 3.70932 0.639237 0
M  V30 6188 C 584.516 2.76471 -0.214261 0
M  V30 6189 H 587.467 1.47593 -0.583258 0
M  V30 6190 H 587.488 3.66031 1.0393 0
M  V30 6191 H 587 3.80182 -0.779948 0
M  V30 6192 H 585.101 3.3442 1.64298 0
M  V30 6193 H 585.214 4.77302 0.41465 0
M  V30 6194 H 583.578 2.52724 0.316678 0
M  V30 6195 H 584.361 3.21373 -1.20725 0
M  V30 6196 N 586.806 0.0935595 1.57322 0
M  V30 6197 C 588.054 -0.569383 1.93913 0
M  V30 6198 C 588.375 -1.68817 0.976009 0
M  V30 6199 O 587.645 -1.9588 0.0278099 0
M  V30 6200 H 586.225 -0.21332 0.715894 0
M  V30 6201 H 588.887 0.156531 1.9427 0
M  V30 6202 H 587.983 -0.980577 2.96296 0
M  V30 6203 N 588.284 -1.56567 -0.180126 0
M  V30 6204 C 589.695 -1.7126 -0.743422 0
M  V30 6205 C 590.046 -0.70263 -1.83187 0
M  V30 6206 O 589.171 0.137856 -2.1596 0
M  V30 6207 C 589.766 -3.10512 -1.35528 0
M  V30 6208 C 588.325 -3.26919 -1.8655 0
M  V30 6209 C 587.472 -2.67213 -0.741099 0
M  V30 6210 H 590.423 -1.58636 0.0451543 0
M  V30 6211 H 590.444 -3.08673 -2.22489 0
M  V30 6212 H 589.956 -3.83997 -0.562862 0
M  V30 6213 H 588.057 -2.58376 -2.68464 0
M  V30 6214 H 588.17 -4.34574 -2.01699 0
M  V30 6215 H 586.534 -2.26788 -1.15927 0
M  V30 6216 H 587.317 -3.43277 0.0393291 0
M  V30 6217 N 589.762 0.448376 -1.51087 0
M  V30 6218 C 590.987 1.22605 -1.6728 0
M  V30 6219 C 591.412 1.84524 -0.365045 0
M  V30 6220 O 590.77 1.6832 0.673642 0
M  V30 6221 C 590.818 2.29393 -2.78229 0
M  V30 6222 O 589.922 3.34608 -2.41063 0
M  V30 6223 H 589.263 0.359705 -0.558129 0
M  V30 6224 H 591.793 0.530903 -1.97592 0
M  V30 6225 H 591.803 2.74352 -3.01986 0
M  V30 6226 H 590.478 1.83701 -3.73131 0
M  V30 6227 H 589.055 2.95202 -2.27838 0
M  V30 6228 N 591.24 1.41047 0.703093 0
M  V30 6229 C 592.651 1.35657 1.28274 0
M  V30 6230 C 593.002 0.0360309 1.96167 0
M  V30 6231 O 592.127 -0.865833 1.98324 0
M  V30 6232 C 592.722 2.45707 2.33267 0
M  V30 6233 C 591.281 2.43738 2.86825 0
M  V30 6234 C 590.428 2.25941 1.60767 0
M  V30 6235 H 593.379 1.50672 0.49836 0
M  V30 6236 H 593.4 2.14333 3.14391 0
M  V30 6237 H 592.912 3.41805 1.83824 0
M  V30 6238 H 591.013 1.51375 3.40465 0
M  V30 6239 H 591.126 3.39779 3.37768 0
M  V30 6240 H 589.49 1.73681 1.86298 0
M  V30 6241 H 590.273 3.24054 1.1333 0
M  V30 6242 N 592.718 -0.936591 1.26751 0
M  V30 6243 C 593.681 -2.01752 1.08761 0
M  V30 6244 C 594.681 -1.60763 0.0344435 0
M  V30 6245 O 595.871 -1.71963 0.278258 0
M  V30 6246 C 593.003 -3.34543 0.655271 0
M  V30 6247 H 594.196 -2.19143 2.04735 0
M  V30 6248 H 591.749 -1.11618 1.09413 0
M  V30 6249 H 592.484 -3.22851 -0.30626 0
M  V30 6250 H 592.269 -3.65647 1.41578 0
M  V30 6251 H 593.759 -4.13944 0.551378 0
M  V30 6252 N 594.196 -1.08629 -1.14182 0
M  V30 6253 C 595.442 -0.818556 -1.85546 0
M  V30 6254 C 595.775 0.654076 -1.82854 0
M  V30 6255 O 595.05 1.48099 -1.26083 0
M  V30 6256 C 595.333 -1.34397 -3.3408 0
M  V30 6257 C 595.186 -2.8821 -3.45333 0
M  V30 6258 C 596.505 -0.971069 -4.29253 0
M  V30 6259 H 593.624 -0.298821 -0.673702 0
M  V30 6260 H 596.266 -1.34629 -1.34071 0
M  V30 6261 H 594.416 -0.895064 -3.78049 0
M  V30 6262 H 596.088 -3.41488 -3.10134 0
M  V30 6263 H 594.331 -3.25756 -2.86471 0
M  V30 6264 H 595.002 -3.20047 -4.49749 0
M  V30 6265 H 597.478 -1.35809 -3.93313 0
M  V30 6266 H 596.354 -1.36586 -5.31635 0
M  V30 6267 H 596.615 0.121659 -4.41933 0
M  V30 6268 N 595.674 1.31259 -0.872281 0
M  V30 6269 C 596.637 2.26744 -0.334656 0
M  V30 6270 C 597.637 1.52307 0.515681 0
M  V30 6271 O 598.827 1.71148 0.324656 0
M  V30 6272 C 595.959 3.36841 0.524482 0
M  V30 6273 H 597.152 2.75812 -1.17762 0
M  V30 6274 H 594.705 1.42232 -0.648064 0
M  V30 6275 H 595.44 2.93069 1.38855 0
M  V30 6276 H 595.225 3.92009 -0.0844299 0
M  V30 6277 H 596.715 4.07944 0.892838 0
M  V30 6278 N 597.152 0.631951 1.44375 0
M  V30 6279 C 598.568 0.297642 1.568 0
M  V30 6280 C 598.768 -1.19916 1.61934 0
M  V30 6281 O 597.824 -1.98324 1.56281 0
M  V30 6282 C 599.137 0.990286 2.83926 0
M  V30 6283 C 600.685 0.968507 2.97639 0
M  V30 6284 C 601.16 1.64163 4.27568 0
M  V30 6285 N 602.651 1.60826 4.34384 0
M  V30 6286 C 603.386 2.09802 5.33639 0
M  V30 6287 N 602.882 2.66973 6.39294 0
M  V30 6288 N 604.675 2.00426 5.25153 0
M  V30 6289 H 596.826 1.60353 1.39286 0
M  V30 6290 H 599.089 0.673142 0.667521 0
M  V30 6291 H 598.795 2.04519 2.8612 0
M  V30 6292 H 598.669 0.528563 3.73478 0
M  V30 6293 H 601.056 -0.0779247 2.94997 0
M  V30 6294 H 601.137 1.46873 2.09433 0
M  V30 6295 H 600.781 2.68752 4.3097 0
M  V30 6296 H 600.711 1.11624 5.14634 0
M  V30 6297 H 603.202 1.19087 3.58646 0
M  V30 6298 H 603.515 3.02074 7.11316 0
M  V30 6299 H 601.86 2.71024 6.39977 0
M  V30 6300 H 605.051 1.55483 4.41523 0
M  V30 6301 H 605.224 2.38906 6.02352 0
M  V30 6302 O 598.669 -1.53077 0.514746 0
M  V30 6303 H 599.36 -1.937 0.000749731 0
M  V30 END ATOM
M  V30 BEGIN BOND
M  V30 END BOND
M  V30 END CTAB
M  END
$$$$
