drugbank_target|O75489 NADH dehydrogenase [ubiquinone] iron-sulfur protein 3, mitochondrial (DB00157)
 OpenBabel12092119263D

  0  0  0     0  0            999 V3000
M  V30 BEGIN CTAB
M  V30 COUNTS 4267 4324 0 0 0
M  V30 BEGIN ATOM
M  V30 1 H -0.908 1.98254 -0.117106 0
M  V30 2 N 0 1.576 0 0
M  V30 3 C 0.933 2.03868 1.02534 0
M  V30 4 C 1.911 0.928543 1.3348 0
M  V30 5 O 3.095 1.19667 1.45644 0
M  V30 6 C 0.222 2.43627 2.35294 0
M  V30 7 C -0.732 3.65373 2.2001 0
M  V30 8 S 0.101 5.13292 1.52614 0
M  V30 9 C 1.257 5.56322 2.86805 0
M  V30 10 H 1.49 2.90518 0.631377 0
M  V30 11 H -0.977 1.52953 0.210867 0
M  V30 12 H 0.981 2.67203 3.11629 0
M  V30 13 H -0.358 1.57376 2.7183 0
M  V30 14 H -1.165 3.90944 3.18086 0
M  V30 15 H -1.563 3.418 1.51819 0
M  V30 16 H 0.729 5.58782 3.83104 0
M  V30 17 H 1.672 6.56266 2.65933 0
M  V30 18 H 2.08 4.83886 2.90714 0
M  V30 19 N 1.4781 -0.272755 1.55222 0
M  V30 20 C 2.4411 -1.32041 1.87344 0
M  V30 21 C 3.4411 -1.42342 0.74803 0
M  V30 22 O 4.6311 -1.41488 1.0162 0
M  V30 23 C 1.7631 -2.70173 2.07893 0
M  V30 24 H 2.9561 -1.04789 2.80997 0
M  V30 25 H 0.5091 -0.51083 1.47717 0
M  V30 26 H 1.2441 -3.02605 1.16622 0
M  V30 27 H 1.0291 -2.64082 2.89833 0
M  V30 28 H 2.5191 -3.45869 2.34017 0
M  V30 29 N 2.9562 -1.48159 -0.537278 0
M  V30 30 C 3.9192 -1.61665 -1.62472 0
M  V30 31 C 4.9192 -0.490395 -1.5314 0
M  V30 32 O 6.1092 -0.755998 -1.5694 0
M  V30 33 C 3.2412 -1.57997 -3.02076 0
M  V30 34 H 4.4342 -2.58621 -1.51839 0
M  V30 35 H 1.9872 -1.36647 -0.758771 0
M  V30 36 H 2.7222 -0.624913 -3.18222 0
M  V30 37 H 2.5072 -2.39755 -3.10258 0
M  V30 38 H 3.9972 -1.70627 -3.81151 0
M  V30 39 N 4.4343 0.785586 -1.36625 0
M  V30 40 C 5.3973 1.87999 -1.31107 0
M  V30 41 C 6.3973 1.59316 -0.217959 0
M  V30 42 O 7.5873 1.67656 -0.472977 0
M  V30 43 C 4.7193 3.24861 -1.03334 0
M  V30 44 H 5.9123 1.94307 -2.2844 0
M  V30 45 H 3.4653 0.983813 -1.21453 0
M  V30 46 H 4.2003 3.24235 -0.0647432 0
M  V30 47 H 3.9853 3.4707 -1.82441 0
M  V30 48 H 5.4753 4.04929 -1.02088 0
M  V30 49 N 5.9124 1.20967 1.01018 0
M  V30 50 C 6.8754 0.965918 2.07853 0
M  V30 51 C 7.8754 -0.0610545 1.60684 0
M  V30 52 O 9.0654 0.175681 1.73312 0
M  V30 53 C 6.1974 0.455513 3.37843 0
M  V30 54 H 7.3904 1.91365 2.3091 0
M  V30 55 H 4.9434 1.02594 1.17916 0
M  V30 56 H 5.6784 -0.497381 3.20463 0
M  V30 57 H 5.4634 1.19622 3.73407 0
M  V30 58 H 6.9534 0.304667 4.16487 0
M  V30 59 N 7.3905 -1.2043 1.01659 0
M  V30 60 C 8.6365 -1.90079 0.706963 0
M  V30 61 C 8.9695 -1.78648 -0.761474 0
M  V30 62 O 8.2445 -1.17069 -1.55323 0
M  V30 63 C 8.5275 -3.41469 1.14327 0
M  V30 64 C 8.3805 -3.61833 2.67201 0
M  V30 65 C 9.6995 -4.34261 0.714529 0
M  V30 66 H 6.8185 -0.690254 0.2583 0
M  V30 67 H 9.4605 -1.41826 1.26433 0
M  V30 68 H 7.6105 -3.82696 0.669056 0
M  V30 69 H 9.2825 -3.2986 3.22475 0
M  V30 70 H 7.5255 -3.05304 3.08175 0
M  V30 71 H 8.1965 -4.67955 2.92783 0
M  V30 72 H 10.6725 -4.00682 1.12221 0
M  V30 73 H 9.5485 -5.38806 1.04784 0
M  V30 74 H 9.8095 -4.40431 -0.383799 0
M  V30 75 N 8.8686 -0.792821 -1.36206 0
M  V30 76 C 9.8316 -0.199459 -2.2833 0
M  V30 77 C 10.8316 0.605189 -1.48977 0
M  V30 78 O 12.0216 0.425685 -1.68919 0
M  V30 79 C 9.1536 0.723523 -3.33134 0
M  V30 80 H 10.3466 -1.01181 -2.82316 0
M  V30 81 H 7.8996 -0.562485 -1.45828 0
M  V30 82 H 8.6346 1.56008 -2.84309 0
M  V30 83 H 8.4196 0.148436 -3.91819 0
M  V30 84 H 9.9096 1.13344 -4.01924 0
M  V30 85 N 10.3467 1.47872 -0.545128 0
M  V30 86 C 11.7627 1.5829 -0.204032 0
M  V30 87 C 11.9627 1.54529 1.29317 0
M  V30 88 O 11.0187 1.44232 2.07252 0
M  V30 89 C 12.3317 2.89304 -0.819987 0
M  V30 90 C 13.8797 3.02864 -0.790105 0
M  V30 91 C 14.3547 4.3656 -1.38491 0
M  V30 92 N 15.8457 4.43165 -1.34755 0
M  V30 93 C 16.5807 5.45153 -1.77753 0
M  V30 94 N 16.0767 6.54016 -2.2855 0
M  V30 95 N 17.8697 5.36125 -1.68897 0
M  V30 96 H 10.0207 1.4856 -1.51802 0
M  V30 97 H 12.2837 0.706305 -0.632327 0
M  V30 98 H 11.9897 2.97757 -1.87173 0
M  V30 99 H 11.8637 3.75957 -0.305915 0
M  V30 100 H 14.2507 2.94014 0.252913 0
M  V30 101 H 14.3317 2.17782 -1.34181 0
M  V30 102 H 13.9757 4.46164 -2.42693 0
M  V30 103 H 13.9057 5.20353 -0.808754 0
M  V30 104 H 16.3967 3.65083 -0.975855 0
M  V30 105 H 16.7097 7.27994 -2.59314 0
M  V30 106 H 15.0547 6.54938 -2.32553 0
M  V30 107 H 18.2457 4.49975 -1.28998 0
M  V30 108 H 18.4187 6.15472 -2.02726 0
M  V30 109 N 11.8248 0.280983 1.55075 0
M  V30 110 C 12.7548 -0.597469 2.25727 0
M  V30 111 C 13.7358 -1.15417 1.24952 0
M  V30 112 O 14.9208 -1.18722 1.53684 0
M  V30 113 C 12.0508 -1.7789 2.98283 0
M  V30 114 C 11.0048 -1.35347 4.06036 0
M  V30 115 C 10.3308 -2.61846 4.66198 0
M  V30 116 C 11.6308 -0.499354 5.19907 0
M  V30 117 H 13.3248 -0.00824265 2.99399 0
M  V30 118 H 10.8708 -0.0025244 1.44 0
M  V30 119 H 12.8238 -2.39937 3.46422 0
M  V30 120 H 11.5478 -2.39405 2.22155 0
M  V30 121 H 10.2068 -0.756156 3.58717 0
M  V30 122 H 9.8548 -3.21632 3.86732 0
M  V30 123 H 9.5548 -2.3409 5.38958 0
M  V30 124 H 11.0788 -3.24732 5.1709 0
M  V30 125 H 12.4928 -1.02498 5.64063 0
M  V30 126 H 10.8898 -0.316424 5.99265 0
M  V30 127 H 11.9598 0.480459 4.82514 0
M  V30 128 N 13.3029 -1.57598 0.00835791 0
M  V30 129 C 14.5489 -1.92046 -0.670055 0
M  V30 130 C 14.9039 -0.88351 -1.70915 0
M  V30 131 O 14.1969 0.103223 -1.91322 0
M  V30 132 C 14.3909 -3.3101 -1.34787 0
M  V30 133 C 14.2199 -4.48126 -0.375945 0
M  V30 134 C 12.9899 -5.05297 0.0166914 0
M  V30 135 C 15.1879 -5.1303 0.361272 0
M  V30 136 N 13.1699 -6.05931 0.985952 0
M  V30 137 C 14.5409 -6.08571 1.18495 0
M  V30 138 C 16.5959 -4.9609 0.42421 0
M  V30 139 C 15.2989 -6.88996 2.06584 0
M  V30 140 C 17.3249 -5.77107 1.29236 0
M  V30 141 C 16.6869 -6.72248 2.10386 0
M  V30 142 H 12.7859 -0.75096 -0.218136 0
M  V30 143 H 15.3699 -1.94572 0.0706669 0
M  V30 144 H 13.5409 -3.29342 -2.05884 0
M  V30 145 H 15.2729 -3.52864 -1.98164 0
M  V30 146 H 12.0279 -4.72279 -0.353435 0
M  V30 147 H 12.4519 -6.60932 1.4662 0
M  V30 148 H 17.0939 -4.22378 -0.188915 0
M  V30 149 H 14.8119 -7.62028 2.6896 0
M  V30 150 H 18.3979 -5.66038 1.34508 0
M  V30 151 H 17.2779 -7.33846 2.76476 0
M  V30 152 N 14.781 0.264519 -1.55364 0
M  V30 153 C 16.027 0.992314 -1.77552 0
M  V30 154 C 16.382 1.83626 -0.574379 0
M  V30 155 O 15.675 1.86648 0.432782 0
M  V30 156 C 15.869 1.9004 -3.02687 0
M  V30 157 C 15.698 1.14583 -4.34857 0
M  V30 158 C 14.468 0.858068 -4.97961 0
M  V30 159 C 16.666 0.532069 -5.1154 0
M  V30 160 N 14.648 0.0775974 -6.13851 0
M  V30 161 C 16.019 -0.113823 -6.19896 0
M  V30 162 C 18.074 0.440763 -4.95945 0
M  V30 163 C 16.777 -0.842231 -7.14352 0
M  V30 164 C 18.803 -0.274072 -5.90765 0
M  V30 165 C 18.165 -0.90867 -6.98515 0
M  V30 166 H 14.264 0.344811 -0.701875 0
M  V30 167 H 16.848 0.267141 -1.92859 0
M  V30 168 H 15.019 2.59775 -2.88741 0
M  V30 169 H 16.751 2.56243 -3.13243 0
M  V30 170 H 13.506 1.16547 -4.59036 0
M  V30 171 H 13.93 -0.300216 -6.76334 0
M  V30 172 H 18.572 0.917064 -4.12735 0
M  V30 173 H 16.29 -1.33019 -7.97077 0
M  V30 174 H 19.876 -0.345151 -5.80775 0
M  V30 175 H 18.756 -1.45299 -7.70622 0
M  V30 176 N 16.2591 1.48442 0.529413 0
M  V30 177 C 17.6751 1.34575 0.858004 0
M  V30 178 C 17.8751 0.3572 1.98309 0
M  V30 179 O 16.9311 -0.221379 2.51528 0
M  V30 180 C 18.2441 2.74617 1.22499 0
M  V30 181 C 19.7921 2.83109 1.33484 0
M  V30 182 C 20.2671 4.23854 1.73526 0
M  V30 183 N 21.7581 4.2653 1.80628 0
M  V30 184 C 22.4931 5.32372 2.12997 0
M  V30 185 N 21.9891 6.48491 2.43786 0
M  V30 186 N 23.7821 5.19766 2.14008 0
M  V30 187 H 15.9331 2.1133 -0.212925 0
M  V30 188 H 18.1961 0.947439 -0.0326199 0
M  V30 189 H 17.9021 3.4852 0.471905 0
M  V30 190 H 17.7761 3.08177 2.17501 0
M  V30 191 H 20.1631 2.09462 2.0787 0
M  V30 192 H 20.2441 2.53168 0.366027 0
M  V30 193 H 19.8881 4.98018 0.997013 0
M  V30 194 H 19.8181 4.5124 2.71459 0
M  V30 195 H 22.3091 3.42772 1.59108 0
M  V30 196 H 22.6221 7.24993 2.67592 0
M  V30 197 H 20.9671 6.51765 2.41304 0
M  V30 198 H 24.1581 4.28066 1.89412 0
M  V30 199 H 24.3311 6.02354 2.38902 0
M  V30 200 N 17.7372 -0.778329 1.37039 0
M  V30 201 C 18.9852 -1.53361 1.31623 0
M  V30 202 C 19.3062 -1.94739 -0.100831 0
M  V30 203 O 18.5762 -1.65797 -1.04347 0
M  V30 204 H 17.1562 -0.568794 0.484234 0
M  V30 205 H 19.8182 -0.926742 1.71457 0
M  V30 206 H 18.9142 -2.43606 1.95096 0
M  V30 207 N 19.2153 -1.21501 -1.00376 0
M  V30 208 C 20.4643 -1.02718 -1.73586 0
M  V30 209 C 20.7773 0.439589 -1.90596 0
M  V30 210 O 21.9833 0.746848 -2.61026 0
M  V30 211 C 20.4393 -1.78929 -3.1227 0
M  V30 212 C 20.0473 -3.29783 -3.03228 0
M  V30 213 C 21.7913 -1.68557 -3.89601 0
M  V30 214 C 19.6983 -3.98479 -4.36999 0
M  V30 215 H 18.6283 -0.380733 -0.650814 0
M  V30 216 H 21.2793 -1.45248 -1.1214 0
M  V30 217 H 19.6613 -1.29192 -3.74333 0
M  V30 218 H 20.8353 -3.86832 -2.50395 0
M  V30 219 H 19.1503 -3.40711 -2.39385 0
M  V30 220 H 21.7473 -2.17211 -4.88593 0
M  V30 221 H 22.0903 -0.644021 -4.11288 0
M  V30 222 H 22.6233 -2.15778 -3.34193 0
M  V30 223 H 19.3623 -5.02841 -4.20513 0
M  V30 224 H 18.8823 -3.46219 -4.89788 0
M  V30 225 H 20.5613 -4.03462 -5.05794 0
M  V30 226 N 20.6934 1.19889 -1.02296 0
M  V30 227 C 21.6234 2.25141 -0.619174 0
M  V30 228 C 22.6044 1.66051 0.368915 0
M  V30 229 O 23.7894 1.92546 0.252941 0
M  V30 230 C 20.9194 3.4728 0.0368783 0
M  V30 231 C 19.8734 4.19005 -0.872865 0
M  V30 232 C 19.1994 5.34637 -0.0822402 0
M  V30 233 C 20.4994 4.74452 -2.18387 0
M  V30 234 H 22.1934 2.59171 -1.49903 0
M  V30 235 H 19.7394 1.24579 -0.722222 0
M  V30 236 H 21.6924 4.20098 0.330958 0
M  V30 237 H 20.4164 3.12433 0.95149 0
M  V30 238 H 19.0754 3.48061 -1.15105 0
M  V30 239 H 18.7234 4.96034 0.83422 0
M  V30 240 H 18.4234 5.83557 -0.688149 0
M  V30 241 H 19.9474 6.10255 0.205238 0
M  V30 242 H 21.3614 5.39055 -1.95172 0
M  V30 243 H 19.7584 5.33834 -2.74119 0
M  V30 244 H 20.8284 3.92844 -2.84257 0
M  V30 245 N 22.1715 0.800033 1.35784 0
M  V30 246 C 23.4195 0.376597 1.9856 0
M  V30 247 C 23.7405 -1.05812 1.63795 0
M  V30 248 O 23.0105 -1.73103 0.917171 0
M  V30 249 H 21.5905 0.136261 0.734467 0
M  V30 250 H 24.2525 1.02442 1.65806 0
M  V30 251 H 23.3485 0.477002 3.08433 0
M  V30 252 N 23.6496 -1.47581 0.552962 0
M  V30 253 C 24.6126 -2.28439 -0.186605 0
M  V30 254 C 25.6126 -1.36706 -0.84665 0
M  V30 255 O 26.8026 -1.59378 -0.703164 0
M  V30 256 C 23.9346 -3.16264 -1.2724 0
M  V30 257 H 25.1276 -2.95294 0.523609 0
M  V30 258 H 22.6806 -1.532 0.309745 0
M  V30 259 H 23.4156 -2.54091 -2.01514 0
M  V30 260 H 23.2006 -3.83769 -0.803968 0
M  V30 261 H 24.6906 -3.77198 -1.79196 0
M  V30 262 N 25.1277 -0.289203 -1.54924 0
M  V30 263 C 26.3527 0.329299 -2.04769 0
M  V30 264 C 26.7777 1.4763 -1.16564 0
M  V30 265 O 26.1357 1.80527 -0.167186 0
M  V30 266 C 26.1837 0.774438 -3.52186 0
M  V30 267 O 25.2877 1.88038 -3.67036 0
M  V30 268 H 24.6287 0.0659259 -0.660719 0
M  V30 269 H 27.1587 -0.42761 -2.00082 0
M  V30 270 H 27.1687 1.06642 -3.93816 0
M  V30 271 H 25.8437 -0.0646707 -4.1585 0
M  V30 272 H 24.4207 1.58985 -3.3731 0
M  V30 273 N 26.6058 1.57591 -0.0167156 0
M  V30 274 C 27.5688 2.08393 0.954204 0
M  V30 275 C 28.5688 0.996531 1.26198 0
M  V30 276 O 29.7588 1.25858 1.20438 0
M  V30 277 C 26.8908 2.5394 2.27436 0
M  V30 278 H 28.0838 2.95455 0.514451 0
M  V30 279 H 25.6368 1.54582 0.231089 0
M  V30 280 H 26.3718 1.70171 2.76066 0
M  V30 281 H 26.1568 3.33371 2.06412 0
M  V30 282 H 27.6468 2.93512 2.97053 0
M  V30 283 N 28.0839 -0.256276 1.55502 0
M  V30 284 C 29.0139 -1.32102 1.92539 0
M  V30 285 C 29.9949 -1.50684 0.789194 0
M  V30 286 O 31.1799 -1.63449 1.04872 0
M  V30 287 C 28.3099 -2.67752 2.21192 0
M  V30 288 C 27.2639 -2.63878 3.36975 0
M  V30 289 C 26.5899 -4.03236 3.51147 0
M  V30 290 C 27.8899 -2.21682 4.72921 0
M  V30 291 H 29.5839 -1.01351 2.81724 0
M  V30 292 H 27.1299 -0.486105 1.35547 0
M  V30 293 H 29.0829 -3.42365 2.45691 0
M  V30 294 H 27.8069 -3.0012 1.28824 0
M  V30 295 H 26.4659 -1.91722 3.12471 0
M  V30 296 H 26.1139 -4.32854 2.56216 0
M  V30 297 H 25.8139 -4.01535 4.29003 0
M  V30 298 H 27.3379 -4.79563 3.77957 0
M  V30 299 H 28.7519 -2.86023 4.96854 0
M  V30 300 H 27.1489 -2.3111 5.53812 0
M  V30 301 H 28.2189 -1.16833 4.70615 0
M  V30 302 N 29.562 -1.4872 -0.521534 0
M  V30 303 C 30.79 -1.60843 -1.30142 0
M  V30 304 C 31.205 -0.271897 -1.86832 0
M  V30 305 O 30.562 0.739969 -1.66825 0
M  V30 306 C 30.613 -2.66155 -2.4463 0
M  V30 307 O 30.334 -3.94623 -1.90275 0
M  V30 308 C 31.835 -2.88795 -3.36322 0
M  V30 309 H 29.055 -0.542075 -0.395468 0
M  V30 310 H 31.599 -1.94609 -0.628285 0
M  V30 311 H 29.754 -2.35224 -3.07812 0
M  V30 312 H 30.168 -4.52468 -2.65279 0
M  V30 313 H 31.642 -3.66264 -4.12983 0
M  V30 314 H 32.119 -1.97934 -3.9207 0
M  V30 315 H 32.725 -3.21063 -2.78924 0
M  V30 316 N 31.0401 0.771051 -1.3745 0
M  V30 317 C 32.4561 1.07171 -1.18265 0
M  V30 318 C 32.6561 2.01491 -0.019287 0
M  V30 319 O 31.7121 2.44244 0.640408 0
M  V30 320 C 33.0251 1.66854 -2.50161 0
M  V30 321 C 34.5731 1.79109 -2.56689 0
M  V30 322 C 35.0481 2.42205 -3.88717 0
M  V30 323 N 36.5391 2.49655 -3.90162 0
M  V30 324 C 37.2741 2.9933 -4.8907 0
M  V30 325 N 36.7701 3.49172 -5.98374 0
M  V30 326 N 38.5631 2.9821 -4.76474 0
M  V30 327 H 30.7141 0.144796 -2.11906 0
M  V30 328 H 32.9771 0.126863 -0.939473 0
M  V30 329 H 32.6831 1.05017 -3.35655 0
M  V30 330 H 32.5571 2.6614 -2.673 0
M  V30 331 H 34.9441 2.40077 -1.71601 0
M  V30 332 H 35.0251 0.785757 -2.43433 0
M  V30 333 H 34.6691 1.81875 -4.74219 0
M  V30 334 H 34.5991 3.43345 -3.99276 0
M  V30 335 H 37.0901 2.14383 -3.11205 0
M  V30 336 H 37.4031 3.8548 -6.69795 0
M  V30 337 H 35.7481 3.47275 -6.02018 0
M  V30 338 H 38.9391 2.58572 -3.90203 0
M  V30 339 H 39.1121 3.36613 -5.53711 0
M  V30 340 N 32.5182 1.22032 0.997298 0
M  V30 341 C 33.7662 1.04016 1.73278 0
M  V30 342 C 34.0872 -0.426255 1.90284 0
M  V30 343 O 33.3572 -1.30694 1.45931 0
M  V30 344 H 31.9372 0.381897 0.642 0
M  V30 345 H 34.5992 1.5347 1.20137 0
M  V30 346 H 33.6952 1.51441 2.72896 0
M  V30 347 N 33.9963 -1.19345 1.0293 0
M  V30 348 C 35.2243 -1.92997 0.745644 0
M  V30 349 C 35.6393 -1.75519 -0.695589 0
M  V30 350 O 34.9963 -1.07737 -1.47306 0
M  V30 351 C 35.0473 -3.44741 1.08792 0
M  V30 352 O 34.7683 -3.61658 2.47256 0
M  V30 353 C 36.2693 -4.35515 0.827129 0
M  V30 354 H 33.4893 -0.613042 0.272801 0
M  V30 355 H 36.0333 -1.51473 1.3739 0
M  V30 356 H 34.1883 -3.84097 0.504832 0
M  V30 357 H 34.6023 -4.55514 2.60015 0
M  V30 358 H 36.0763 -5.40589 1.11658 0
M  V30 359 H 36.5533 -4.38552 -0.238436 0
M  V30 360 H 37.1593 -4.01841 1.39297 0
M  V30 361 N 35.4744 -0.807222 -1.35358 0
M  V30 362 C 36.7224 -0.387122 -1.98358 0
M  V30 363 C 37.0434 1.04942 -1.64354 0
M  V30 364 O 36.3134 1.72615 -0.926339 0
M  V30 365 H 34.8934 -0.140154 -0.733734 0
M  V30 366 H 37.5554 -1.0332 -1.6526 0
M  V30 367 H 36.6514 -0.493352 -3.08176 0
M  V30 368 N 36.9525 1.47285 -0.560781 0
M  V30 369 C 38.3685 1.58065 -0.22081 0
M  V30 370 C 38.5685 1.55892 1.27671 0
M  V30 371 O 37.6245 1.46422 2.0571 0
M  V30 372 C 38.9375 2.88418 -0.850625 0
M  V30 373 C 40.4855 3.02009 -0.822184 0
M  V30 374 C 40.9605 4.35066 -1.43113 0
M  V30 375 N 42.4515 4.41711 -1.39448 0
M  V30 376 C 43.1865 5.43237 -1.83525 0
M  V30 377 N 42.6825 6.51555 -2.35474 0
M  V30 378 N 44.4755 5.34304 -1.74574 0
M  V30 379 H 36.6265 1.46941 -1.53369 0
M  V30 380 H 38.8895 0.699558 -0.639783 0
M  V30 381 H 38.5955 2.95755 -1.9032 0
M  V30 382 H 38.4695 3.75612 -0.345773 0
M  V30 383 H 40.8565 2.94266 0.221714 0
M  V30 384 H 40.9375 2.16347 -1.36483 0
M  V30 385 H 40.5815 4.43565 -2.47412 0
M  V30 386 H 40.5115 5.19465 -0.863899 0
M  V30 387 H 43.0025 3.64027 -1.01452 0
M  V30 388 H 43.3155 7.25203 -2.67021 0
M  V30 389 H 41.6605 6.52435 -2.39487 0
M  V30 390 H 44.8515 4.48581 -1.33763 0
M  V30 391 H 45.0245 6.13288 -2.09242 0
M  V30 392 N 38.4306 0.297415 1.54768 0
M  V30 393 C 39.8416 -0.195947 1.85669 0
M  V30 394 C 40.1926 -1.53707 1.21937 0
M  V30 395 O 39.3176 -2.10164 0.515754 0
M  V30 396 C 39.9126 -0.362318 3.36857 0
M  V30 397 C 38.4716 -0.799901 3.67802 0
M  V30 398 C 37.6186 0.0938578 2.77141 0
M  V30 399 H 40.5696 0.518538 1.4999 0
M  V30 400 H 40.5906 -1.19745 3.61167 0
M  V30 401 H 40.1026 0.613921 3.83214 0
M  V30 402 H 38.2036 -1.78682 3.26961 0
M  V30 403 H 38.3166 -0.621773 4.75048 0
M  V30 404 H 36.6806 -0.426254 2.51108 0
M  V30 405 H 37.4636 1.06639 3.26318 0
M  V30 406 N 39.9087 -1.5758 0.0250728 0
M  V30 407 C 41.1337 -1.96337 -0.668317 0
M  V30 408 C 41.5587 -0.901314 -1.651 0
M  V30 409 O 40.9167 0.138187 -1.80773 0
M  V30 410 C 40.9647 -3.34191 -1.35457 0
M  V30 411 O 40.0687 -3.30269 -2.46974 0
M  V30 412 H 39.4097 -0.640281 -0.175887 0
M  V30 413 H 41.9397 -2.0442 0.0857224 0
M  V30 414 H 41.9497 -3.70331 -1.71228 0
M  V30 415 H 40.6247 -4.11036 -0.634218 0
M  V30 416 H 39.2017 -3.05841 -2.13344 0
M  V30 417 N 41.3868 0.248026 -1.55636 0
M  V30 418 C 42.6328 0.97767 -1.77678 0
M  V30 419 C 42.9658 1.85016 -0.590135 0
M  V30 420 O 42.2408 1.90095 0.411611 0
M  V30 421 C 42.5238 1.83914 -3.09593 0
M  V30 422 C 42.3768 0.99491 -4.38659 0
M  V30 423 C 43.6958 2.82183 -3.37729 0
M  V30 424 H 40.8148 0.354005 -0.646413 0
M  V30 425 H 43.4568 0.248253 -1.88371 0
M  V30 426 H 41.6068 2.46104 -3.00608 0
M  V30 427 H 43.2788 0.391789 -4.59633 0
M  V30 428 H 41.5218 0.299231 -4.32767 0
M  V30 429 H 42.1928 1.63145 -5.2734 0
M  V30 430 H 44.6688 2.30129 -3.4667 0
M  V30 431 H 43.5448 3.39582 -4.31249 0
M  V30 432 H 43.8058 3.58588 -2.58586 0
M  V30 433 N 42.8649 1.48995 0.513639 0
M  V30 434 C 43.7949 1.67636 1.62544 0
M  V30 435 C 44.7759 0.525087 1.61793 0
M  V30 436 O 45.9609 0.759502 1.78732 0
M  V30 437 C 43.0909 1.73114 3.01079 0
M  V30 438 C 42.0449 2.87905 3.16693 0
M  V30 439 C 41.3709 2.78486 4.56453 0
M  V30 440 C 42.6709 4.29005 2.97913 0
M  V30 441 H 44.3649 2.60716 1.47198 0
M  V30 442 H 41.9109 1.25465 0.706714 0
M  V30 443 H 43.8639 1.84742 3.78746 0
M  V30 444 H 42.5879 0.766241 3.17484 0
M  V30 445 H 41.2469 2.75859 2.41448 0
M  V30 446 H 40.8949 1.7993 4.69717 0
M  V30 447 H 40.5949 3.55523 4.67843 0
M  V30 448 H 42.1189 2.92104 5.36197 0
M  V30 449 H 43.5329 4.41798 3.65359 0
M  V30 450 H 41.9299 5.07166 3.20785 0
M  V30 451 H 42.9999 4.44329 1.94165 0
M  V30 452 N 44.343 -0.763751 1.37857 0
M  V30 453 C 45.273 -1.89103 1.36975 0
M  V30 454 C 46.254 -1.68439 0.237152 0
M  V30 455 O 47.439 -1.8918 0.438713 0
M  V30 456 C 44.569 -3.26496 1.18395 0
M  V30 457 C 43.523 -3.61741 2.28751 0
M  V30 458 C 42.849 -4.97762 1.95286 0
M  V30 459 C 44.149 -3.67665 3.70972 0
M  V30 460 H 45.843 -1.90099 2.31307 0
M  V30 461 H 43.389 -0.91319 1.11341 0
M  V30 462 H 45.342 -4.05003 1.16406 0
M  V30 463 H 44.066 -3.25955 0.205215 0
M  V30 464 H 42.725 -2.85547 2.29909 0
M  V30 465 H 42.373 -4.93769 0.959221 0
M  V30 466 H 42.073 -5.22313 2.69189 0
M  V30 467 H 43.597 -5.7866 1.94898 0
M  V30 468 H 45.011 -4.36307 3.719 0
M  V30 469 H 43.408 -4.03718 4.43995 0
M  V30 470 H 44.478 -2.68134 4.0402 0
M  V30 471 N 45.8211 -1.22559 -0.990812 0
M  V30 472 C 46.7511 -1.0218 -2.09956 0
M  V30 473 C 47.7321 0.0579394 -1.70001 0
M  V30 474 O 48.9171 -0.104684 -1.93918 0
M  V30 475 C 46.0471 -0.601023 -3.4206 0
M  V30 476 C 45.0011 -1.62694 -3.95872 0
M  V30 477 C 44.3271 -1.06193 -5.24049 0
M  V30 478 C 45.6271 -3.01743 -4.2632 0
M  V30 479 H 47.3211 -1.94916 -2.27262 0
M  V30 480 H 44.8671 -0.938566 -1.09211 0
M  V30 481 H 46.8201 -0.445561 -4.19038 0
M  V30 482 H 45.5441 0.362005 -3.24588 0
M  V30 483 H 44.2031 -1.77021 -3.21028 0
M  V30 484 H 43.8511 -0.0901903 -5.02919 0
M  V30 485 H 43.5511 -1.74732 -5.61019 0
M  V30 486 H 45.0751 -0.918092 -6.03658 0
M  V30 487 H 46.4891 -2.90777 -4.94087 0
M  V30 488 H 44.8861 -3.67425 -4.74467 0
M  V30 489 H 45.9561 -3.51518 -3.34011 0
M  V30 490 N 47.2992 1.18797 -1.03562 0
M  V30 491 C 48.7102 1.70322 -0.764676 0
M  V30 492 C 49.0612 1.82708 0.714996 0
M  V30 493 O 48.1862 1.50299 1.55689 0
M  V30 494 C 48.7812 3.09356 -1.38145 0
M  V30 495 C 47.3402 3.58114 -1.15895 0
M  V30 496 C 46.4872 2.34798 -1.4753 0
M  V30 497 H 49.4382 1.03543 -1.20268 0
M  V30 498 H 49.4592 3.72378 -0.781977 0
M  V30 499 H 48.9712 3.00309 -2.45837 0
M  V30 500 H 47.0722 3.72464 -0.100544 0
M  V30 501 H 47.1852 4.4184 -1.8524 0
M  V30 502 H 45.5492 2.38464 -0.894829 0
M  V30 503 H 46.3322 2.28375 -2.56319 0
M  V30 504 N 48.7773 0.814389 1.34928 0
M  V30 505 C 50.0233 0.399013 1.98836 0
M  V30 506 C 50.3563 -1.03314 1.64438 0
M  V30 507 O 49.6313 -1.71811 0.911659 0
M  V30 508 C 49.9143 0.591629 3.55207 0
M  V30 509 C 49.7673 2.06928 3.99376 0
M  V30 510 C 51.0863 0.022199 4.40094 0
M  V30 511 H 48.2053 0.146451 0.722303 0
M  V30 512 H 50.8473 1.02537 1.59957 0
M  V30 513 H 48.9973 0.0584441 3.88456 0
M  V30 514 H 50.6693 2.66544 3.76499 0
M  V30 515 H 48.9123 2.56287 3.49999 0
M  V30 516 H 49.5833 2.1549 5.08201 0
M  V30 517 H 52.0593 0.477643 4.13349 0
M  V30 518 H 50.9353 0.186832 5.48582 0
M  V30 519 H 51.1963 -1.07215 4.28902 0
M  V30 520 N 50.2554 -1.46986 0.568584 0
M  V30 521 C 51.6714 -1.57946 0.229189 0
M  V30 522 C 51.8714 -1.56567 -1.26843 0
M  V30 523 O 50.9274 -1.47511 -2.04931 0
M  V30 524 C 52.2404 -2.87963 0.865909 0
M  V30 525 C 53.7884 -3.01568 0.838188 0
M  V30 526 C 54.2634 -4.34301 1.45419 0
M  V30 527 N 55.7544 -4.40965 1.41788 0
M  V30 528 C 56.4894 -5.42256 1.86403 0
M  V30 529 N 55.9854 -6.50297 2.38926 0
M  V30 530 N 57.7784 -5.3337 1.77405 0
M  V30 531 H 49.9294 -1.46126 1.54146 0
M  V30 532 H 52.1924 -0.696156 0.643484 0
M  V30 533 H 51.8984 -2.94742 1.91886 0
M  V30 534 H 51.7724 -3.75423 0.365687 0
M  V30 535 H 54.1594 -2.94379 -0.206106 0
M  V30 536 H 54.2404 -2.1562 1.37629 0
M  V30 537 H 53.8844 -4.42247 2.49761 0
M  V30 538 H 53.8144 -5.19 0.891435 0
M  V30 539 H 56.3054 -3.63484 1.03381 0
M  V30 540 H 56.6184 -7.23777 2.70863 0
M  V30 541 H 54.9634 -6.51155 2.42944 0
M  V30 542 H 58.1544 -4.47865 1.3614 0
M  V30 543 H 58.3274 -6.12169 2.12492 0
M  V30 544 N 51.7335 -0.305618 -1.54608 0
M  V30 545 C 53.1495 0.0476228 -1.59529 0
M  V30 546 C 53.3495 1.52025 -1.32252 0
M  V30 547 O 52.4055 2.27368 -1.09818 0
M  V30 548 C 53.7185 -0.354471 -2.98603 0
M  V30 549 C 55.2665 -0.303622 -3.11524 0
M  V30 550 C 55.7415 -0.680608 -4.52915 0
M  V30 551 N 57.2325 -0.63332 -4.5885 0
M  V30 552 C 57.9675 -0.897432 -5.66334 0
M  V30 553 N 57.4635 -1.22775 -6.81834 0
M  V30 554 N 59.2565 -0.824186 -5.56025 0
M  V30 555 H 51.4075 -1.2653 -1.70599 0
M  V30 556 H 53.6705 -0.513291 -0.797017 0
M  V30 557 H 53.3765 -1.3798 -3.23503 0
M  V30 558 H 53.2505 0.289568 -3.76087 0
M  V30 559 H 55.6375 0.712472 -2.8637 0
M  V30 560 H 55.7185 -0.982348 -2.36185 0
M  V30 561 H 55.3625 -1.69453 -4.78799 0
M  V30 562 H 55.2925 0.0202385 -5.26596 0
M  V30 563 H 57.7835 -0.389138 -3.75891 0
M  V30 564 H 58.0965 -1.41513 -7.59733 0
M  V30 565 H 56.4415 -1.26583 -6.83375 0
M  V30 566 H 59.6325 -0.565748 -4.64669 0
M  V30 567 H 59.8055 -1.03338 -6.39707 0
M  V30 568 N 53.2116 1.57565 -0.0334293 0
M  V30 569 C 54.1216 2.13943 0.962572 0
M  V30 570 C 55.1376 1.09276 1.35406 0
M  V30 571 O 56.3136 1.41355 1.4346 0
M  V30 572 C 53.3786 2.65887 2.22497 0
M  V30 573 C 52.4396 3.85286 1.8935 0
M  V30 574 C 51.6726 4.34743 3.09571 0
M  V30 575 O 51.8956 3.83352 4.22371 0
M  V30 576 O 50.8296 5.26538 2.91618 0
M  V30 577 H 54.6556 2.99333 0.513169 0
M  V30 578 H 52.2406 1.4822 0.18743 0
M  V30 579 H 54.1226 2.99346 2.96598 0
M  V30 580 H 52.7976 1.83578 2.6661 0
M  V30 581 H 51.7046 3.56746 1.1262 0
M  V30 582 H 53.0376 4.68771 1.5005 0
M  V30 583 N 54.6897 -0.239769 1.55765 0
M  V30 584 C 55.9147 -0.988373 1.82335 0
M  V30 585 C 56.3397 -1.77886 0.611421 0
M  V30 586 O 55.6977 -1.75889 -0.439639 0
M  V30 587 C 55.7457 -1.89627 3.06715 0
M  V30 588 O 54.8497 -2.98904 2.84131 0
M  V30 589 H 54.1907 -0.280858 0.601677 0
M  V30 590 H 56.7207 -0.258597 2.02959 0
M  V30 591 H 56.7307 -2.30957 3.36338 0
M  V30 592 H 55.4057 -1.31511 3.9456 0
M  V30 593 H 53.9827 -2.61651 2.65694 0
M  V30 594 N 56.1678 -1.49265 -0.50573 0
M  V30 595 C 57.1308 -1.65075 -1.59006 0
M  V30 596 C 58.1308 -0.522768 -1.52065 0
M  V30 597 O 59.3208 -0.789117 -1.55302 0
M  V30 598 C 56.4528 -1.64369 -2.98656 0
M  V30 599 H 57.6458 -2.61784 -1.46319 0
M  V30 600 H 55.1988 -1.38226 -0.729616 0
M  V30 601 H 55.9338 -0.692272 -3.16825 0
M  V30 602 H 55.7188 -2.46282 -3.05103 0
M  V30 603 H 57.2088 -1.78674 -3.77446 0
M  V30 604 N 57.6459 0.756429 -1.3826 0
M  V30 605 C 58.8939 1.51248 -1.34047 0
M  V30 606 C 59.2149 1.94875 0.0698372 0
M  V30 607 O 58.4849 1.67436 1.01696 0
M  V30 608 H 57.0649 0.561018 -0.493222 0
M  V30 609 H 59.7269 0.899347 -1.7291 0
M  V30 610 H 58.8229 2.40472 -1.98947 0
M  V30 611 N 59.124 1.23083 0.984299 0
M  V30 612 C 60.087 1.00979 2.05757 0
M  V30 613 C 61.087 -0.0269573 1.60777 0
M  V30 614 O 62.277 0.212403 1.729 0
M  V30 615 C 59.409 0.527072 3.36801 0
M  V30 616 H 60.602 1.9622 2.26799 0
M  V30 617 H 58.155 1.05072 1.15714 0
M  V30 618 H 58.89 -0.429294 3.21446 0
M  V30 619 H 58.675 1.27515 3.70786 0
M  V30 620 H 60.165 0.392942 4.15747 0
M  V30 621 N 60.6021 -1.18246 1.0419 0
M  V30 622 C 61.8791 -1.84121 0.660208 0
M  V30 623 C 62.2591 -1.92778 -0.860221 0
M  V30 624 O 61.6071 -1.45464 -1.76217 0
M  V30 625 C 61.8171 -3.22355 1.33747 0
M  V30 626 C 63.1651 -3.98376 1.46906 0
M  V30 627 O 64.1891 -3.31799 1.29568 0
M  V30 628 O 63.0481 -5.17665 1.75171 0
M  V30 629 H 60.1421 -0.794036 0.231161 0
M  V30 630 H 62.6881 -1.25628 1.14087 0
M  V30 631 H 61.4601 -3.10964 2.37522 0
M  V30 632 H 61.0831 -3.88506 0.845515 0
M  V30 633 N 62.0802 -0.821533 -1.34494 0
M  V30 634 C 63.3082 -0.421884 -2.02553 0
M  V30 635 C 63.7232 0.971745 -1.61872 0
M  V30 636 O 63.0802 1.62864 -0.823496 0
M  V30 637 C 63.1312 -0.51285 -3.57844 0
M  V30 638 O 62.8522 -1.85155 -3.97051 0
M  V30 639 C 64.3532 -0.107921 -4.43169 0
M  V30 640 H 61.5732 -0.169482 -0.649243 0
M  V30 641 H 64.1172 -1.1093 -1.71798 0
M  V30 642 H 62.2722 0.126474 -3.87193 0
M  V30 643 H 62.6862 -1.82482 -4.91732 0
M  V30 644 H 64.1602 -0.222657 -5.51551 0
M  V30 645 H 64.6372 0.948401 -4.28838 0
M  V30 646 H 65.2432 -0.720989 -4.19144 0
M  V30 647 N 63.5583 1.46682 -0.576371 0
M  V30 648 C 64.9743 1.57822 -0.237562 0
M  V30 649 C 65.1743 1.57237 1.26011 0
M  V30 650 O 64.2303 1.48596 2.04146 0
M  V30 651 C 65.5433 2.87499 -0.881168 0
M  V30 652 C 67.0913 3.01119 -0.85417 0
M  V30 653 C 67.5663 4.33524 -1.4772 0
M  V30 654 N 69.0573 4.40207 -1.44125 0
M  V30 655 C 69.7923 5.4126 -1.89276 0
M  V30 656 N 69.2883 6.49021 -2.42371 0
M  V30 657 N 71.0813 5.32422 -1.80231 0
M  V30 658 H 63.2323 1.45306 -1.54919 0
M  V30 659 H 65.4953 0.692733 -0.647167 0
M  V30 660 H 65.2013 2.9372 -1.93447 0
M  V30 661 H 65.0753 3.75224 -0.385592 0
M  V30 662 H 67.4623 2.94485 0.190491 0
M  V30 663 H 67.5433 2.14887 -1.3877 0
M  V30 664 H 67.1873 4.40916 -2.52103 0
M  V30 665 H 67.1173 5.1852 -0.918947 0
M  V30 666 H 69.6083 3.62931 -1.05307 0
M  V30 667 H 69.9213 7.2233 -2.74698 0
M  V30 668 H 68.2663 6.49858 -2.46393 0
M  V30 669 H 71.4573 4.47137 -1.38514 0
M  V30 670 H 71.6303 6.11034 -2.15735 0
M  V30 671 N 65.0364 0.313813 1.54444 0
M  V30 672 C 66.4474 -0.176243 1.85866 0
M  V30 673 C 66.7984 -1.52405 1.23561 0
M  V30 674 O 65.9234 -2.09605 0.538016 0
M  V30 675 C 66.5184 -0.32657 3.37222 0
M  V30 676 C 65.0774 -0.760846 3.6863 0
M  V30 677 C 64.2244 0.123247 2.77026 0
M  V30 678 H 67.1754 0.534418 1.49431 0
M  V30 679 H 67.1964 -1.15908 3.62416 0
M  V30 680 H 66.7084 0.654531 3.82541 0
M  V30 681 H 64.8094 -1.75204 3.28838 0
M  V30 682 H 64.9224 -0.571353 4.75681 0
M  V30 683 H 63.2864 -0.399597 2.51546 0
M  V30 684 H 64.0694 1.10094 3.25168 0
M  V30 685 N 66.5145 -1.57545 0.0417849 0
M  V30 686 C 67.7425 -1.96624 -0.643928 0
M  V30 687 C 68.1575 -0.918897 -1.64929 0
M  V30 688 O 67.5145 0.0979323 -1.82237 0
M  V30 689 C 67.5655 -3.35781 -1.33914 0
M  V30 690 O 67.2865 -4.365 -0.374048 0
M  V30 691 C 68.7875 -3.89566 -2.1155 0
M  V30 692 H 66.0075 -0.647316 -0.176702 0
M  V30 693 H 68.5515 -2.04229 0.105304 0
M  V30 694 H 66.7065 -3.29357 -2.03968 0
M  V30 695 H 67.1205 -5.17248 -0.869179 0
M  V30 696 H 68.5945 -4.89242 -2.55628 0
M  V30 697 H 69.0715 -3.24488 -2.9598 0
M  V30 698 H 69.6775 -3.99298 -1.46427 0
M  V30 699 N 67.9926 0.231505 -1.5589 0
M  V30 700 C 69.2386 0.95877 -1.78705 0
M  V30 701 C 69.5716 1.8438 -0.609725 0
M  V30 702 O 68.8466 1.90521 0.391426 0
M  V30 703 C 69.1296 1.8062 -3.11526 0
M  V30 704 C 68.9826 0.948328 -4.39689 0
M  V30 705 C 70.3016 2.78585 -3.40703 0
M  V30 706 H 67.4206 0.347129 -0.650131 0
M  V30 707 H 70.0626 0.228259 -1.88624 0
M  V30 708 H 68.2126 2.42902 -3.03201 0
M  V30 709 H 69.8846 0.343016 -4.60023 0
M  V30 710 H 68.1276 0.253314 -4.3306 0
M  V30 711 H 68.7986 1.57543 -5.29041 0
M  V30 712 H 71.2746 2.26439 -3.49091 0
M  V30 713 H 70.1506 3.34988 -4.34826 0
M  V30 714 H 70.4116 3.55825 -2.62375 0
M  V30 715 N 69.4707 1.49531 0.497807 0
M  V30 716 C 70.8867 1.36365 0.829266 0
M  V30 717 C 71.0867 0.399184 1.97506 0
M  V30 718 O 70.1427 -0.167977 2.51941 0
M  V30 719 C 71.4557 2.77153 1.16647 0
M  V30 720 C 73.0037 2.85877 1.27449 0
M  V30 721 C 73.4787 4.2744 1.64497 0
M  V30 722 N 74.9697 4.30265 1.7154 0
M  V30 723 C 75.7047 5.3677 2.01656 0
M  V30 724 N 75.2007 6.53516 2.29976 0
M  V30 725 N 76.9937 5.24189 2.02934 0
M  V30 726 H 69.1447 2.10831 -0.257703 0
M  V30 727 H 71.4077 0.946534 -0.0527091 0
M  V30 728 H 71.1137 3.49442 0.397872 0
M  V30 729 H 70.9877 3.12722 2.10915 0
M  V30 730 H 73.3747 2.13824 2.0338 0
M  V30 731 H 73.4557 2.53887 0.312244 0
M  V30 732 H 73.0997 5.00021 0.891151 0
M  V30 733 H 73.0297 4.56896 2.61827 0
M  V30 734 H 75.5207 3.4607 1.51802 0
M  V30 735 H 75.8337 7.30506 2.52153 0
M  V30 736 H 74.1787 6.56737 2.27425 0
M  V30 737 H 77.3697 4.31988 1.80289 0
M  V30 738 H 77.5427 6.07286 2.26071 0
M  V30 739 N 70.9488 -0.749086 1.3866 0
M  V30 740 C 72.3598 -1.32664 1.31366 0
M  V30 741 C 72.7108 -1.96179 -0.028484 0
M  V30 742 O 71.8358 -1.9537 -0.93057 0
M  V30 743 C 72.4308 -2.41219 2.37905 0
M  V30 744 C 70.9898 -2.94684 2.34176 0
M  V30 745 C 70.1368 -1.68108 2.20533 0
M  V30 746 H 73.0878 -0.547628 1.48952 0
M  V30 747 H 73.1088 -3.21268 2.0388 0
M  V30 748 H 72.6208 -1.94962 3.35576 0
M  V30 749 H 70.7218 -3.45258 1.401 0
M  V30 750 H 70.8348 -3.48757 3.2849 0
M  V30 751 H 69.1988 -1.91907 1.67463 0
M  V30 752 H 69.9818 -1.23923 3.20153 0
M  V30 753 N 72.4269 -1.23603 -0.977757 0
M  V30 754 C 73.8429 -0.999251 -1.24447 0
M  V30 755 C 74.0429 0.298053 -1.99283 0
M  V30 756 O 73.0989 1.01681 -2.31122 0
M  V30 757 C 74.4119 -2.20784 -2.04144 0
M  V30 758 C 75.9599 -2.25303 -2.17273 0
M  V30 759 C 76.4349 -3.45755 -3.00362 0
M  V30 760 N 77.9259 -3.4601 -3.07947 0
M  V30 761 C 78.6609 -4.35868 -3.72568 0
M  V30 762 N 78.1569 -5.35966 -4.38991 0
M  V30 763 N 79.9499 -4.23605 -3.6948 0
M  V30 764 H 72.1009 -2.06986 -0.476483 0
M  V30 765 H 74.3639 -0.907801 -0.273134 0
M  V30 766 H 74.0699 -3.14945 -1.56533 0
M  V30 767 H 73.9439 -2.22085 -3.04891 0
M  V30 768 H 76.3309 -1.3168 -2.64092 0
M  V30 769 H 76.4119 -2.28033 -1.15907 0
M  V30 770 H 76.0559 -4.39687 -2.5424 0
M  V30 771 H 75.9859 -3.40266 -4.01904 0
M  V30 772 H 78.4769 -2.73588 -2.60688 0
M  V30 773 H 78.7899 -6.00783 -4.86086 0
M  V30 774 H 77.1349 -5.39863 -4.37691 0
M  V30 775 H 80.3259 -3.44647 -3.16759 0
M  V30 776 H 80.4989 -4.93836 -4.1956 0
M  V30 777 N 73.905 1.17692 -1.04816 0
M  V30 778 C 74.853 2.23632 -0.63966 0
M  V30 779 C 75.847 1.6601 0.337219 0
M  V30 780 O 77.053 1.78844 0.203693 0
M  V30 781 H 73.428 0.727949 -0.188665 0
M  V30 782 H 75.399 2.55387 -1.54337 0
M  V30 783 C 74.148 3.4769 -0.0264051 0
M  V30 784 H 73.471 3.92331 -0.769164 0
M  V30 785 H 74.911 4.23418 0.222098 0
M  V30 786 C 73.37 3.13807 1.22584 0
M  V30 787 O 73.9 3.28236 2.31569 0
M  V30 788 N 72.106 2.68065 1.12202 0
M  V30 789 H 71.653 2.56525 0.235133 0
M  V30 790 H 71.611 2.45767 1.96076 0
M  V30 791 N 75.3831 0.828654 1.34056 0
M  V30 792 C 76.6601 0.341809 1.9259 0
M  V30 793 C 77.0401 -1.17158 1.75605 0
M  V30 794 O 76.3881 -1.98132 1.13824 0
M  V30 795 C 76.5981 0.777453 3.4023 0
M  V30 796 C 77.9461 0.779579 4.17382 0
M  V30 797 O 78.9701 0.7204 3.48839 0
M  V30 798 O 77.8291 0.857996 5.39723 0
M  V30 799 H 74.9231 0.0946085 0.821571 0
M  V30 800 H 77.4691 0.913827 1.42994 0
M  V30 801 H 76.2411 1.8196 3.46419 0
M  V30 802 H 75.8641 0.181444 3.97186 0
M  V30 803 N 76.8612 -1.46375 0.584142 0
M  V30 804 C 78.1072 -2.02678 0.0703716 0
M  V30 805 C 78.4402 -1.4545 -1.28678 0
M  V30 806 O 77.7152 -0.62014 -1.84349 0
M  V30 807 C 77.9982 -3.60099 0.00614674 0
M  V30 808 C 77.8512 -4.27709 1.3923 0
M  V30 809 C 79.1702 -4.34598 -0.693742 0
M  V30 810 H 76.2892 -0.736504 0.027047 0
M  V30 811 H 78.9312 -1.74501 0.751615 0
M  V30 812 H 77.0812 -3.84236 -0.574009 0
M  V30 813 H 78.7532 -4.14832 2.01773 0
M  V30 814 H 76.9962 -3.87016 1.95962 0
M  V30 815 H 77.6672 -5.36478 1.29982 0
M  V30 816 H 80.1432 -4.15615 -0.200869 0
M  V30 817 H 79.0192 -5.44318 -0.707714 0
M  V30 818 H 79.2802 -4.05759 -1.75533 0
M  V30 819 N 78.3393 -0.321999 -1.54275 0
M  V30 820 C 79.3023 0.531975 -2.22941 0
M  V30 821 C 80.3023 1.04478 -1.22234 0
M  V30 822 O 81.4923 0.937452 -1.46825 0
M  V30 823 C 78.6243 1.73874 -2.93224 0
M  V30 824 H 79.8173 -0.0682612 -2.99822 0
M  V30 825 H 77.3703 -0.0730644 -1.56129 0
M  V30 826 H 78.1053 2.37825 -2.20476 0
M  V30 827 H 77.8903 1.37847 -3.6707 0
M  V30 828 H 79.3803 2.34496 -3.45545 0
M  V30 829 N 79.8174 1.5752 -0.0501392 0
M  V30 830 C 80.7674 2.07981 0.934231 0
M  V30 831 C 81.7514 0.984745 1.27246 0
M  V30 832 O 82.9434 1.24809 1.25506 0
M  V30 833 C 80.0724 2.62751 2.20945 0
M  V30 834 C 79.1584 3.79225 1.89865 0
M  V30 835 N 79.5494 4.89036 1.29142 0
M  V30 836 C 77.8474 3.88111 2.19741 0
M  V30 837 C 78.5484 5.70084 1.15669 0
M  V30 838 N 77.5244 5.17659 1.65923 0
M  V30 839 H 81.3264 2.90277 0.460053 0
M  V30 840 H 78.8404 1.61665 0.15434 0
M  V30 841 H 80.8374 2.97205 2.9236 0
M  V30 842 H 79.4974 1.81894 2.6897 0
M  V30 843 H 80.5084 5.08854 0.963756 0
M  V30 844 H 77.1854 3.18194 2.70293 0
M  V30 845 H 78.5754 6.68395 0.685356 0
M  V30 846 N 81.2955 -0.223234 1.56011 0
M  V30 847 C 82.2425 -1.27664 1.92277 0
M  V30 848 C 83.2125 -1.46659 0.779763 0
M  V30 849 O 84.3975 -1.60256 1.03551 0
M  V30 850 C 81.5375 -2.62234 2.24338 0
M  V30 851 C 80.6505 -2.51051 3.51564 0
M  V30 852 C 79.7855 -3.78133 3.7308 0
M  V30 853 C 78.8245 -3.61665 4.93827 0
M  V30 854 N 77.9615 -4.80693 5.11741 0
M  V30 855 H 82.8015 -0.960358 2.82101 0
M  V30 856 H 80.3385 -0.462901 1.39627 0
M  V30 857 H 82.2965 -3.40596 2.40936 0
M  V30 858 H 80.9265 -2.91961 1.3769 0
M  V30 859 H 79.9785 -1.64132 3.43169 0
M  V30 860 H 81.2905 -2.34803 4.40079 0
M  V30 861 H 80.4445 -4.64938 3.89766 0
M  V30 862 H 79.1835 -3.97304 2.82844 0
M  V30 863 H 78.1885 -2.73244 4.77093 0
M  V30 864 H 79.4135 -3.43966 5.85546 0
M  V30 865 H 77.3595 -5.00181 4.24446 0
M  V30 866 H 77.2765 -4.67165 5.94384 0
M  V30 867 H 78.5445 -5.6893 5.3286 0
M  V30 868 N 82.7736 -1.49793 -0.48987 0
M  V30 869 C 83.7056 -1.63413 -1.60713 0
M  V30 870 C 84.7186 -0.516329 -1.54395 0
M  V30 871 O 85.9076 -0.788812 -1.60125 0
M  V30 872 C 83.0076 -1.58516 -2.99543 0
M  V30 873 C 82.1806 -2.86016 -3.30928 0
M  V30 874 C 81.2396 -2.74018 -4.49222 0
M  V30 875 O 80.2656 -3.47964 -4.50455 0
M  V30 876 N 81.4676 -1.86309 -5.4979 0
M  V30 877 H 84.2326 -2.59777 -1.49452 0
M  V30 878 H 81.7936 -1.47022 -0.677955 0
M  V30 879 H 83.7856 -1.48128 -3.76617 0
M  V30 880 H 82.3556 -0.69965 -3.0467 0
M  V30 881 H 81.5756 -3.10672 -2.42645 0
M  V30 882 H 82.8636 -3.70521 -3.487 0
M  V30 883 H 82.2616 -1.2551 -5.51601 0
M  V30 884 H 80.8186 -1.81837 -6.25922 0
M  V30 885 N 84.2517 0.741722 -1.39055 0
M  V30 886 C 85.1817 1.869 -1.39966 0
M  V30 887 C 86.1627 1.6804 -0.26392 0
M  V30 888 O 87.3477 1.88458 -0.468755 0
M  V30 889 C 84.4777 3.24572 -1.23574 0
M  V30 890 C 83.4317 3.58056 -2.34477 0
M  V30 891 C 82.7577 4.94593 -2.0318 0
M  V30 892 C 84.0577 3.61716 -3.76774 0
M  V30 893 H 85.7517 1.86395 -2.34302 0
M  V30 894 H 83.2977 0.895361 -1.1278 0
M  V30 895 H 85.2507 4.031 -1.22834 0
M  V30 896 H 83.9747 3.25587 -0.257045 0
M  V30 897 H 82.6337 2.81854 -2.34423 0
M  V30 898 H 82.2817 4.92181 -1.03765 0
M  V30 899 H 81.9817 5.17964 -2.77465 0
M  V30 900 H 83.5057 5.75486 -2.04079 0
M  V30 901 H 84.9197 4.30335 -3.78794 0
M  V30 902 H 83.3167 3.96603 -4.50362 0
M  V30 903 H 84.3867 2.61672 -4.08235 0
M  V30 904 N 85.7298 1.2412 0.971189 0
M  V30 905 C 86.9548 1.10667 1.75407 0
M  V30 906 C 87.3798 -0.337048 1.85056 0
M  V30 907 O 86.7378 -1.24396 1.31892 0
M  V30 908 C 86.7858 1.74726 3.15441 0
M  V30 909 O 85.8898 1.01566 3.99697 0
M  V30 910 H 85.2308 0.387341 0.539317 0
M  V30 911 H 87.7608 1.64358 1.2185 0
M  V30 912 H 87.7708 1.80341 3.6598 0
M  V30 913 H 86.4458 2.79773 3.07734 0
M  V30 914 H 85.0228 1.03713 3.58187 0
M  V30 915 N 87.2079 -1.17134 1.05439 0
M  V30 916 C 88.1709 -2.19439 0.661764 0
M  V30 917 C 89.1709 -1.58199 -0.288042 0
M  V30 918 O 90.3609 -1.74053 -0.0715803 0
M  V30 919 C 87.4929 -3.40889 -0.0276209 0
M  V30 920 H 88.6859 -2.55688 1.56728 0
M  V30 921 H 86.2389 -1.31259 0.848567 0
M  V30 922 H 86.9739 -3.10187 -0.94629 0
M  V30 923 H 86.7589 -3.86586 0.655238 0
M  V30 924 H 88.2489 -4.16603 -0.288342 0
M  V30 925 N 88.686 -0.835752 -1.33615 0
M  V30 926 C 89.933 -0.429959 -1.97883 0
M  V30 927 C 90.261 1.01006 -1.66217 0
M  V30 928 O 89.516 1.72047 -0.93265 0
M  V30 929 C 89.815 -0.593925 -3.52431 0
M  V30 930 C 89.481 -2.00158 -4.04039 0
M  V30 931 C 88.143 -2.38662 -4.17844 0
M  V30 932 C 90.495 -2.92117 -4.31644 0
M  V30 933 C 87.823 -3.68435 -4.56588 0
M  V30 934 C 90.175 -4.21368 -4.71838 0
M  V30 935 C 88.839 -4.59833 -4.83849 0
M  V30 936 H 88.109 -0.157333 -0.724104 0
M  V30 937 H 90.756 -1.06217 -1.59343 0
M  V30 938 H 89.061 0.121619 -3.91611 0
M  V30 939 H 90.758 -0.260282 -4.00154 0
M  V30 940 H 87.348 -1.69252 -3.93766 0
M  V30 941 H 91.532 -2.63608 -4.20505 0
M  V30 942 H 86.788 -3.98046 -4.64079 0
M  V30 943 H 90.962 -4.92703 -4.92155 0
M  V30 944 H 88.589 -5.60438 -5.13627 0
M  V30 945 N 90.1641 1.46063 -0.591896 0
M  V30 946 C 91.4121 2.01938 -0.0808391 0
M  V30 947 C 91.7331 1.46475 1.28725 0
M  V30 948 O 91.0031 0.652944 1.84698 0
M  V30 949 H 89.5831 0.746516 -0.0268938 0
M  V30 950 H 92.2451 1.79055 -0.769752 0
M  V30 951 H 91.3411 3.12094 -0.0187578 0
M  V30 952 N 91.6422 0.330177 1.54103 0
M  V30 953 C 92.5522 -0.541534 2.28264 0
M  V30 954 C 93.5682 -1.12351 1.32866 0
M  V30 955 O 94.7442 -1.14206 1.65888 0
M  V30 956 C 91.8092 -1.68322 3.03098 0
M  V30 957 C 90.8702 -1.13238 4.14096 0
M  V30 958 C 90.1032 -2.21966 4.85352 0
M  V30 959 O 90.3262 -3.42437 4.56172 0
M  V30 960 O 89.2602 -1.87013 5.7211 0
M  V30 961 H 93.0862 0.060938 3.03639 0
M  V30 962 H 90.6712 0.09565 1.49093 0
M  V30 963 H 92.5532 -2.34777 3.49939 0
M  V30 964 H 91.2282 -2.27176 2.30593 0
M  V30 965 H 90.1352 -0.432736 3.71589 0
M  V30 966 H 91.4682 -0.588898 4.88664 0
M  V30 967 N 93.1203 -1.57491 0.0584922 0
M  V30 968 C 94.3503 -1.9701 -0.622134 0
M  V30 969 C 94.7583 -0.935034 -1.6448 0
M  V30 970 O 94.1013 0.0882904 -1.83488 0
M  V30 971 C 94.1633 -3.32794 -1.35972 0
M  V30 972 C 93.8273 -4.54343 -0.492043 0
M  V30 973 C 94.8243 -5.19323 0.244901 0
M  V30 974 C 92.5093 -5.00534 -0.420821 0
M  V30 975 C 94.5033 -6.28835 1.04143 0
M  V30 976 C 92.1903 -6.09921 0.379389 0
M  V30 977 C 93.1883 -6.73933 1.10919 0
M  V30 978 O 92.8763 -7.81216 1.89623 0
M  V30 979 H 92.6083 -0.653127 -0.174359 0
M  V30 980 H 95.1623 -2.05029 0.123418 0
M  V30 981 H 93.3923 -3.21351 -2.15105 0
M  V30 982 H 95.0813 -3.5701 -1.93129 0
M  V30 983 H 95.8473 -4.8459 0.19939 0
M  V30 984 H 91.7263 -4.50496 -0.978474 0
M  V30 985 H 95.2703 -6.7873 1.61157 0
M  V30 986 H 91.1673 -6.44089 0.426512 0
M  V30 987 H 91.9353 -7.98029 1.81913 0
M  V30 988 N 94.5984 0.214957 -1.56127 0
M  V30 989 C 95.8444 0.939762 -1.79712 0
M  V30 990 C 96.1774 1.83723 -0.629247 0
M  V30 991 O 95.4524 1.90925 0.371197 0
M  V30 992 C 95.7354 1.77306 -3.13424 0
M  V30 993 C 95.5884 0.90164 -4.40671 0
M  V30 994 C 96.9074 2.74956 -3.43638 0
M  V30 995 H 94.0264 0.340214 -0.653776 0
M  V30 996 H 96.6684 0.20824 -1.88855 0
M  V30 997 H 94.8184 2.39673 -3.0576 0
M  V30 998 H 96.4904 0.294206 -4.60361 0
M  V30 999 H 94.7334 0.207368 -4.33304 0
M  V30 1000 H 95.4044 1.51923 -5.30682 0
M  V30 1001 H 97.8804 2.22724 -3.51473 0
M  V30 1002 H 96.7564 3.30358 -4.38355 0
M  V30 1003 H 97.0174 3.53023 -2.66134 0
M  V30 1004 N 96.0765 1.50051 0.48192 0
M  V30 1005 C 97.0395 1.67584 1.5636 0
M  V30 1006 C 98.0395 0.546894 1.51214 0
M  V30 1007 O 99.2295 0.813725 1.54026 0
M  V30 1008 C 96.3615 1.691 2.96003 0
M  V30 1009 H 97.5545 2.64078 1.42136 0
M  V30 1010 H 95.1075 1.39369 0.707533 0
M  V30 1011 H 95.8425 0.742589 3.15684 0
M  V30 1012 H 95.6275 2.51105 3.01146 0
M  V30 1013 H 97.1175 1.84656 3.74556 0
M  V30 1014 N 97.5546 -0.734337 1.39446 0
M  V30 1015 C 98.4646 -1.87879 1.40495 0
M  V30 1016 C 99.4806 -1.714 0.299672 0
M  V30 1017 O 100.657 -1.93991 0.541249 0
M  V30 1018 C 97.7216 -3.23477 1.24754 0
M  V30 1019 C 96.7826 -3.52344 2.45259 0
M  V30 1020 C 96.0156 -4.81473 2.30259 0
M  V30 1021 O 96.2386 -5.55237 1.30643 0
M  V30 1022 O 95.1726 -5.10254 3.19256 0
M  V30 1023 H 98.9986 -1.89949 2.36966 0
M  V30 1024 H 96.5836 -0.882243 1.20569 0
M  V30 1025 H 98.4656 -4.04509 1.18111 0
M  V30 1026 H 97.1406 -3.22176 0.313781 0
M  V30 1027 H 96.0476 -2.71396 2.57478 0
M  V30 1028 H 97.3806 -3.58426 3.37331 0
M  V30 1029 N 99.0327 -1.24633 -0.964593 0
M  V30 1030 C 100.282 -1.08188 -1.7023 0
M  V30 1031 C 100.595 0.37873 -1.91898 0
M  V30 1032 O 101.801 0.663427 -2.6327 0
M  V30 1033 C 100.257 -1.88773 -3.06419 0
M  V30 1034 C 99.8647 -3.39263 -2.92582 0
M  V30 1035 C 101.609 -1.80867 -3.84041 0
M  V30 1036 C 99.5157 -4.1218 -4.24101 0
M  V30 1037 H 98.4457 -0.401245 -0.638372 0
M  V30 1038 H 101.097 -1.48742 -1.07462 0
M  V30 1039 H 99.4787 -1.41035 -3.70034 0
M  V30 1040 H 100.653 -3.94603 -2.37961 0
M  V30 1041 H 98.9677 -3.48154 -2.28424 0
M  V30 1042 H 101.565 -2.32646 -4.81435 0
M  V30 1043 H 101.908 -0.774543 -4.09031 0
M  V30 1044 H 102.441 -2.26301 -3.27159 0
M  V30 1045 H 99.1797 -5.15965 -4.04303 0
M  V30 1046 H 98.6997 -3.61626 -4.78526 0
M  V30 1047 H 100.379 -4.19349 -4.92702 0
M  V30 1048 N 100.511 1.16574 -1.06058 0
M  V30 1049 C 101.441 2.23057 -0.690488 0
M  V30 1050 C 102.422 1.67141 0.315901 0
M  V30 1051 O 103.607 1.93253 0.191556 0
M  V30 1052 C 100.737 3.47222 -0.073625 0
M  V30 1053 C 99.6908 4.16016 -1.00573 0
M  V30 1054 C 99.0168 5.34104 -0.252289 0
M  V30 1055 C 100.317 4.67264 -2.33371 0
M  V30 1056 H 102.011 2.54271 -1.58072 0
M  V30 1057 H 99.5568 1.22218 -0.76149 0
M  V30 1058 H 101.51 4.20939 0.19714 0
M  V30 1059 H 100.234 3.15302 0.85161 0
M  V30 1060 H 98.8928 3.44223 -1.2612 0
M  V30 1061 H 98.5408 4.98437 0.675988 0
M  V30 1062 H 98.2408 5.81072 -0.873455 0
M  V30 1063 H 99.7648 6.10599 0.0109857 0
M  V30 1064 H 101.179 5.32573 -2.12223 0
M  V30 1065 H 99.5758 5.24843 -2.90963 0
M  V30 1066 H 100.646 3.83602 -2.96611 0
M  V30 1067 N 101.989 0.842826 1.3317 0
M  V30 1068 C 103.4 0.496651 1.79973 0
M  V30 1069 C 103.751 -0.984641 1.69703 0
M  V30 1070 O 102.876 -1.76743 1.24863 0
M  V30 1071 C 103.471 0.894727 3.26772 0
M  V30 1072 C 102.03 0.600629 3.71577 0
M  V30 1073 C 101.177 1.10091 2.5451 0
M  V30 1074 H 104.128 1.03116 1.20635 0
M  V30 1075 H 104.149 0.206347 3.7994 0
M  V30 1076 H 103.661 1.97287 3.34215 0
M  V30 1077 H 101.762 -0.467284 3.69658 0
M  V30 1078 H 101.875 1.15863 4.64879 0
M  V30 1079 H 100.239 0.52162 2.49301 0
M  V30 1080 H 101.022 2.18591 2.64713 0
M  V30 1081 N 103.467 -1.45747 0.599634 0
M  V30 1082 C 104.414 -2.30467 -0.123849 0
M  V30 1083 C 105.384 -1.41632 -0.86774 0
M  V30 1084 O 106.569 -1.70568 -0.855056 0
M  V30 1085 C 103.709 -3.26402 -1.12051 0
M  V30 1086 C 102.822 -4.3034 -0.37832 0
M  V30 1087 C 101.957 -5.13389 -1.364 0
M  V30 1088 C 100.996 -6.09061 -0.609171 0
M  V30 1089 N 100.133 -6.84918 -1.54374 0
M  V30 1090 H 104.973 -2.91802 0.604627 0
M  V30 1091 H 102.51 -1.43797 0.309972 0
M  V30 1092 H 104.468 -3.80482 -1.7114 0
M  V30 1093 H 103.098 -2.66839 -1.8165 0
M  V30 1094 H 102.15 -3.78984 0.327929 0
M  V30 1095 H 103.462 -4.98354 0.210997 0
M  V30 1096 H 102.616 -5.7183 -2.02719 0
M  V30 1097 H 101.355 -4.45376 -1.98725 0
M  V30 1098 H 100.36 -5.49758 0.0676979 0
M  V30 1099 H 101.585 -6.79099 0.00891991 0
M  V30 1100 H 99.531 -6.19601 -2.15478 0
M  V30 1101 H 99.448 -7.49254 -1.00766 0
M  V30 1102 H 100.716 -7.47906 -2.19676 0
M  V30 1103 N 104.945 -0.338344 -1.53925 0
M  V30 1104 C 106.175 0.260919 -2.04946 0
M  V30 1105 C 106.583 1.45174 -1.2133 0
M  V30 1106 O 105.926 1.82122 -0.240262 0
M  V30 1107 C 105.988 0.744596 -3.51704 0
M  V30 1108 C 105.652 -0.325883 -4.55837 0
M  V30 1109 C 106.649 -1.16687 -5.06636 0
M  V30 1110 C 104.334 -0.478317 -5.00017 0
M  V30 1111 C 106.328 -2.14588 -6.00192 0
M  V30 1112 C 104.015 -1.46073 -5.93385 0
M  V30 1113 C 105.013 -2.29297 -6.4336 0
M  V30 1114 O 104.701 -3.25867 -7.34892 0
M  V30 1115 H 104.433 0.0551207 -0.673749 0
M  V30 1116 H 106.987 -0.486984 -1.99544 0
M  V30 1117 H 105.217 1.54366 -3.54553 0
M  V30 1118 H 106.906 1.26383 -3.85723 0
M  V30 1119 H 107.672 -1.06016 -4.73271 0
M  V30 1120 H 103.551 0.159613 -4.60724 0
M  V30 1121 H 107.095 -2.79585 -6.39123 0
M  V30 1122 H 102.992 -1.56802 -6.26166 0
M  V30 1123 H 103.76 -3.21278 -7.5281 0
M  V30 1124 N 106.423 1.57458 -0.0668435 0
M  V30 1125 C 107.669 1.93587 0.6043 0
M  V30 1126 C 108.002 0.946722 1.69561 0
M  V30 1127 O 107.277 -0.0248516 1.94484 0
M  V30 1128 C 107.56 3.40014 1.18585 0
M  V30 1129 C 107.413 4.49685 0.101529 0
M  V30 1130 C 108.732 3.87154 2.09284 0
M  V30 1131 H 105.851 0.703958 0.218202 0
M  V30 1132 H 108.493 1.89542 -0.131804 0
M  V30 1133 H 106.643 3.43592 1.81319 0
M  V30 1134 H 108.315 4.5823 -0.531279 0
M  V30 1135 H 106.558 4.30059 -0.568487 0
M  V30 1136 H 107.229 5.49266 0.54874 0
M  V30 1137 H 109.705 3.85551 1.56491 0
M  V30 1138 H 108.581 4.90231 2.46911 0
M  V30 1139 H 108.842 3.2481 2.99918 0
M  V30 1140 N 107.901 -0.206675 1.56239 0
M  V30 1141 C 108.833 -1.27997 1.9013 0
M  V30 1142 C 109.846 -1.42299 0.790883 0
M  V30 1143 O 111.035 -1.42931 1.06925 0
M  V30 1144 C 108.135 -2.65368 2.10792 0
M  V30 1145 C 107.308 -2.72824 3.41886 0
M  V30 1146 C 106.367 -3.9131 3.51799 0
M  V30 1147 O 105.393 -3.78953 4.24716 0
M  V30 1148 N 106.595 -5.06265 2.84035 0
M  V30 1149 H 109.36 -0.992444 2.82791 0
M  V30 1150 H 106.921 -0.396652 1.56966 0
M  V30 1151 H 108.913 -3.43039 2.14724 0
M  V30 1152 H 107.483 -2.86657 1.24685 0
M  V30 1153 H 106.703 -1.81515 3.49923 0
M  V30 1154 H 107.991 -2.74786 4.28217 0
M  V30 1155 H 107.389 -5.19203 2.246 0
M  V30 1156 H 105.946 -5.81925 2.93609 0
M  V30 1157 N 109.379 -1.50304 -0.473955 0
M  V30 1158 C 110.311 -1.65109 -1.58971 0
M  V30 1159 C 111.324 -0.532676 -1.53839 0
M  V30 1160 O 112.513 -0.805751 -1.59279 0
M  V30 1161 C 109.613 -1.61684 -2.97845 0
M  V30 1162 C 108.786 -2.8951 -3.27876 0
M  V30 1163 C 107.845 -2.78768 -4.4629 0
M  V30 1164 O 106.871 -3.52722 -4.46739 0
M  V30 1165 N 108.073 -1.9213 -5.47783 0
M  V30 1166 H 110.838 -2.61347 -1.46689 0
M  V30 1167 H 108.399 -1.47732 -0.662324 0
M  V30 1168 H 110.391 -1.52114 -3.75024 0
M  V30 1169 H 108.961 -0.731925 -3.03911 0
M  V30 1170 H 108.181 -3.13228 -2.39336 0
M  V30 1171 H 109.469 -3.74199 -3.4475 0
M  V30 1172 H 108.867 -1.31353 -5.50239 0
M  V30 1173 H 107.424 -1.88466 -6.23958 0
M  V30 1174 N 110.857 0.726932 -1.39834 0
M  V30 1175 C 112.103 1.48884 -1.377 0
M  V30 1176 C 112.436 1.94185 0.0244852 0
M  V30 1177 O 111.711 1.67361 0.990986 0
M  V30 1178 C 111.994 2.72288 -2.3565 0
M  V30 1179 C 111.847 2.32956 -3.84775 0
M  V30 1180 C 113.166 3.74414 -2.31306 0
M  V30 1181 H 110.285 0.540062 -0.5015 0
M  V30 1182 H 112.927 0.830547 -1.70886 0
M  V30 1183 H 111.077 3.28457 -2.07481 0
M  V30 1184 H 112.749 1.82356 -4.23726 0
M  V30 1185 H 110.992 1.65088 -4.01159 0
M  V30 1186 H 111.663 3.21362 -4.4881 0
M  V30 1187 H 114.139 3.27849 -2.56231 0
M  V30 1188 H 113.015 4.58414 -3.01907 0
M  V30 1189 H 113.276 4.21909 -1.32081 0
M  V30 1190 N 112.336 1.25143 0.95797 0
M  V30 1191 C 113.268 1.01023 2.05735 0
M  V30 1192 C 114.281 -0.0236902 1.62783 0
M  V30 1193 O 115.47 0.21448 1.77207 0
M  V30 1194 C 112.57 0.504595 3.35122 0
M  V30 1195 C 111.743 1.6039 4.06932 0
M  V30 1196 C 110.802 1.09922 5.14591 0
M  V30 1197 O 109.828 1.79293 5.40225 0
M  V30 1198 N 111.03 -0.0612545 5.80468 0
M  V30 1199 H 113.795 1.95683 2.26998 0
M  V30 1200 H 111.356 1.16303 1.12629 0
M  V30 1201 H 113.348 0.151516 4.04416 0
M  V30 1202 H 111.918 -0.347989 3.10657 0
M  V30 1203 H 111.138 2.12872 3.31782 0
M  V30 1204 H 112.426 2.34252 4.51667 0
M  V30 1205 H 111.824 -0.640985 5.62057 0
M  V30 1206 H 110.381 -0.355395 6.5083 0
M  V30 1207 N 113.814 -1.1601 1.06675 0
M  V30 1208 C 115.06 -1.86909 0.786945 0
M  V30 1209 C 115.393 -1.81717 -0.685018 0
M  V30 1210 O 114.668 -1.23551 -1.50218 0
M  V30 1211 C 114.951 -3.36313 1.28707 0
M  V30 1212 C 114.804 -3.50175 2.82308 0
M  V30 1213 C 116.123 -4.3084 0.898071 0
M  V30 1214 H 113.242 -0.678677 0.287343 0
M  V30 1215 H 115.884 -1.36336 1.32334 0
M  V30 1216 H 114.034 -3.79513 0.830768 0
M  V30 1217 H 115.706 -3.15886 3.36175 0
M  V30 1218 H 113.949 -2.91959 3.20847 0
M  V30 1219 H 114.62 -4.55116 3.12368 0
M  V30 1220 H 117.096 -3.95561 1.29114 0
M  V30 1221 H 115.972 -5.33876 1.27543 0
M  V30 1222 H 116.233 -4.41662 -0.196651 0
M  V30 1223 N 115.292 -0.849877 -1.32721 0
M  V30 1224 C 116.517 -0.463856 -2.02146 0
M  V30 1225 C 116.942 0.930449 -1.63476 0
M  V30 1226 O 116.3 1.61033 -0.832952 0
M  V30 1227 C 116.348 -0.604955 -3.55489 0
M  V30 1228 O 115.452 0.36425 -4.10788 0
M  V30 1229 H 114.793 -0.187046 -0.637111 0
M  V30 1230 H 117.323 -1.14775 -1.69375 0
M  V30 1231 H 117.333 -0.490696 -4.05038 0
M  V30 1232 H 116.008 -1.62174 -3.82978 0
M  V30 1233 H 114.585 0.206628 -3.72327 0
M  V30 1234 N 116.77 1.45427 -0.607355 0
M  V30 1235 C 118.01 2.04128 -0.105458 0
M  V30 1236 C 118.374 1.46555 1.24039 0
M  V30 1237 O 119.575 1.96608 1.833 0
M  V30 1238 C 117.846 3.57338 -0.0665324 0
M  V30 1239 S 119.405 4.37201 0.374207 0
M  V30 1240 H 116.223 0.709278 -0.0494575 0
M  V30 1241 H 118.825 1.78139 -0.805404 0
M  V30 1242 H 117.529 3.96752 -1.04957 0
M  V30 1243 H 117.06 3.87902 0.655415 0
M  V30 1244 H 119.075 4.6888 1.62377 0
M  V30 1245 N 118.248 0.346503 1.53744 0
M  V30 1246 C 119.495 -0.249104 2.00962 0
M  V30 1247 C 119.823 -1.5032 1.23426 0
M  V30 1248 O 119.078 -1.93217 0.310761 0
M  V30 1249 C 119.377 -0.605809 3.52228 0
M  V30 1250 C 119.043 0.551747 4.47512 0
M  V30 1251 C 117.705 0.86941 4.73281 0
M  V30 1252 C 120.057 1.32818 5.03993 0
M  V30 1253 C 117.385 1.96582 5.52786 0
M  V30 1254 C 119.737 2.41486 5.84694 0
M  V30 1255 C 118.401 2.73808 6.08757 0
M  V30 1256 H 117.671 -0.0911538 0.735372 0
M  V30 1257 H 120.318 0.475027 1.85515 0
M  V30 1258 H 118.623 -1.4107 3.65522 0
M  V30 1259 H 120.32 -1.07858 3.86222 0
M  V30 1260 H 116.91 0.294102 4.2759 0
M  V30 1261 H 121.094 1.09602 4.84047 0
M  V30 1262 H 116.35 2.22045 5.69654 0
M  V30 1263 H 120.524 3.02078 6.27473 0
M  V30 1264 H 118.151 3.58892 6.7015 0
M  V30 1265 N 119.726 -1.57421 0.075193 0
M  V30 1266 C 120.674 -2.14124 -0.908508 0
M  V30 1267 C 121.668 -1.07898 -1.30592 0
M  V30 1268 O 122.874 -1.26273 -1.28277 0
M  V30 1269 H 119.249 -0.684707 -0.310935 0
M  V30 1270 H 121.22 -2.95634 -0.405374 0
M  V30 1271 C 119.969 -2.72044 -2.16535 0
M  V30 1272 H 119.292 -3.53456 -1.86839 0
M  V30 1273 H 120.732 -3.15311 -2.83469 0
M  V30 1274 C 119.191 -1.66968 -2.92615 0
M  V30 1275 O 119.721 -1.0967 -3.86439 0
M  V30 1276 N 117.927 -1.37923 -2.55784 0
M  V30 1277 H 117.474 -1.84706 -1.79559 0
M  V30 1278 H 117.432 -0.67852 -3.06991 0
M  V30 1279 N 121.204 0.198386 -1.56346 0
M  V30 1280 C 122.114 1.2664 -1.97483 0
M  V30 1281 C 123.13 1.49989 -0.882002 0
M  V30 1282 O 124.306 1.62668 -1.18748 0
M  V30 1283 C 121.371 2.59141 -2.30319 0
M  V30 1284 C 120.432 2.43892 -3.53292 0
M  V30 1285 C 119.665 3.70074 -3.84553 0
M  V30 1286 O 119.888 4.74101 -3.1715 0
M  V30 1287 O 118.822 3.658 -4.7799 0
M  V30 1288 H 122.648 0.947304 -2.88548 0
M  V30 1289 H 120.233 0.403123 -1.43859 0
M  V30 1290 H 122.115 3.37352 -2.5253 0
M  V30 1291 H 120.79 2.90684 -1.42423 0
M  V30 1292 H 119.697 1.63803 -3.36332 0
M  V30 1293 H 121.03 2.17282 -4.41644 0
M  V30 1294 N 122.682 1.50554 0.465978 0
M  V30 1295 C 123.612 1.72722 1.57128 0
M  V30 1296 C 124.593 0.576294 1.6004 0
M  V30 1297 O 125.778 0.81598 1.76225 0
M  V30 1298 C 122.908 1.82605 2.95419 0
M  V30 1299 C 121.862 2.97835 3.07373 0
M  V30 1300 C 121.188 2.92867 4.47363 0
M  V30 1301 C 122.488 4.38265 2.84114 0
M  V30 1302 H 124.182 2.65267 1.38829 0
M  V30 1303 H 121.728 1.2765 0.666441 0
M  V30 1304 H 123.681 1.96698 3.72677 0
M  V30 1305 H 122.405 0.866858 3.14886 0
M  V30 1306 H 121.064 2.83401 2.3255 0
M  V30 1307 H 120.712 1.94783 4.63755 0
M  V30 1308 H 120.412 3.70227 4.56296 0
M  V30 1309 H 121.936 3.09015 5.26633 0
M  V30 1310 H 123.35 4.53198 3.51118 0
M  V30 1311 H 121.747 5.17115 3.04487 0
M  V30 1312 H 122.817 4.50281 1.7993 0
M  V30 1313 N 124.16 -0.719506 1.40217 0
M  V30 1314 C 125.07 -1.86378 1.42479 0
M  V30 1315 C 126.086 -1.71073 0.317834 0
M  V30 1316 O 127.262 -1.93406 0.561794 0
M  V30 1317 C 124.327 -3.22136 1.28178 0
M  V30 1318 C 123.388 -3.49723 2.48982 0
M  V30 1319 C 122.621 -4.79004 2.35353 0
M  V30 1320 O 122.844 -5.53821 1.36524 0
M  V30 1321 O 121.778 -5.06839 3.2465 0
M  V30 1322 H 125.604 -1.87425 2.38968 0
M  V30 1323 H 123.189 -0.869405 1.21498 0
M  V30 1324 H 125.071 -4.03234 1.22395 0
M  V30 1325 H 123.746 -3.21825 0.347934 0
M  V30 1326 H 122.653 -2.6865 2.60342 0
M  V30 1327 H 123.986 -3.54828 3.41113 0
M  V30 1328 N 125.638 -1.25649 -0.95132 0
M  V30 1329 C 126.884 -1.10757 -1.69884 0
M  V30 1330 C 127.217 0.350061 -1.91019 0
M  V30 1331 O 126.492 1.25783 -1.48354 0
M  V30 1332 C 126.775 -1.86606 -3.07978 0
M  V30 1333 C 126.628 -3.40217 -2.94232 0
M  V30 1334 C 127.947 -1.65182 -4.07925 0
M  V30 1335 H 125.066 -0.40374 -0.616574 0
M  V30 1336 H 127.708 -1.54521 -1.10558 0
M  V30 1337 H 125.858 -1.49409 -3.58621 0
M  V30 1338 H 127.53 -3.87108 -2.50889 0
M  V30 1339 H 125.773 -3.67759 -2.30078 0
M  V30 1340 H 126.444 -3.88505 -3.92133 0
M  V30 1341 H 128.92 -1.9757 -3.66204 0
M  V30 1342 H 127.796 -2.20683 -5.02583 0
M  V30 1343 H 128.057 -0.593933 -4.38092 0
M  V30 1344 N 127.117 1.15442 -1.07289 0
M  V30 1345 C 128.357 1.8788 -0.805012 0
M  V30 1346 C 128.721 1.80413 0.656907 0
M  V30 1347 O 129.922 2.47874 1.0398 0
M  V30 1348 C 128.193 3.3298 -1.29843 0
M  V30 1349 S 129.752 4.23158 -1.16114 0
M  V30 1350 H 126.57 0.64839 -0.291739 0
M  V30 1351 H 129.172 1.39285 -1.37186 0
M  V30 1352 H 127.876 3.35958 -2.35712 0
M  V30 1353 H 127.407 3.86629 -0.726767 0
M  V30 1354 H 129.422 4.96103 -0.0982778 0
M  V30 1355 N 128.595 0.856903 1.32268 0
M  V30 1356 C 129.844 0.457599 1.96441 0
M  V30 1357 C 130.157 -0.992426 1.68553 0
M  V30 1358 O 131.363 -1.49727 2.26482 0
M  V30 1359 C 129.819 0.767358 3.51624 0
M  V30 1360 C 129.427 2.23326 3.88367 0
M  V30 1361 C 131.171 0.435887 4.22256 0
M  V30 1362 C 129.078 2.48613 5.36606 0
M  V30 1363 H 128.008 0.167387 0.735185 0
M  V30 1364 H 130.659 1.048 1.5063 0
M  V30 1365 H 129.041 0.106367 3.95857 0
M  V30 1366 H 130.215 2.93623 3.55137 0
M  V30 1367 H 128.53 2.52948 3.30766 0
M  V30 1368 H 131.127 0.602202 5.31298 0
M  V30 1369 H 131.47 -0.622672 4.11617 0
M  V30 1370 H 132.003 1.05286 3.83614 0
M  V30 1371 H 128.742 3.53101 5.52268 0
M  V30 1372 H 128.262 1.82896 5.71235 0
M  V30 1373 H 129.941 2.32676 6.03714 0
M  V30 1374 N 130.073 -1.45103 0.615059 0
M  V30 1375 C 131.023 -2.27679 -0.120966 0
M  V30 1376 C 132.007 -1.3775 -0.831491 0
M  V30 1377 O 133.199 -1.61683 -0.720249 0
M  V30 1378 C 130.328 -3.24767 -1.1127 0
M  V30 1379 C 129.414 -4.22184 -0.402627 0
M  V30 1380 N 129.805 -5.02692 0.559884 0
M  V30 1381 C 128.103 -4.4125 -0.649202 0
M  V30 1382 C 128.804 -5.73421 0.977942 0
M  V30 1383 N 127.78 -5.42657 0.320104 0
M  V30 1384 H 131.582 -2.87325 0.618181 0
M  V30 1385 H 129.096 -1.56345 0.439304 0
M  V30 1386 H 131.093 -3.82666 -1.65446 0
M  V30 1387 H 129.753 -2.66682 -1.85232 0
M  V30 1388 H 130.764 -5.09354 0.936976 0
M  V30 1389 H 127.441 -3.9428 -1.37293 0
M  V30 1390 H 128.831 -6.48107 1.77222 0
M  V30 1391 N 131.551 -0.354651 -1.53558 0
M  V30 1392 C 132.962 0.126902 -1.86268 0
M  V30 1393 C 133.313 1.49075 -1.27558 0
M  V30 1394 O 132.438 2.08105 -0.5934 0
M  V30 1395 C 133.033 0.237046 -3.3797 0
M  V30 1396 C 131.592 0.662842 -3.70518 0
M  V30 1397 C 130.739 -0.196652 -2.76602 0
M  V30 1398 H 133.69 -0.573849 -1.47962 0
M  V30 1399 H 133.711 1.06259 -3.65362 0
M  V30 1400 H 133.223 -0.755725 -3.80671 0
M  V30 1401 H 131.324 1.66424 -3.33367 0
M  V30 1402 H 131.437 0.445034 -4.77029 0
M  V30 1403 H 129.801 0.332763 -2.52517 0
M  V30 1404 H 130.584 -1.18676 -3.22135 0
M  V30 1405 N 133.029 1.57378 -0.0835403 0
M  V30 1406 C 134.306 1.85363 0.624507 0
M  V30 1407 C 134.686 0.978239 1.87066 0
M  V30 1408 O 134.034 0.0475908 2.2845 0
M  V30 1409 C 134.244 3.35795 0.950947 0
M  V30 1410 C 135.592 4.03581 1.31939 0
M  V30 1411 O 136.616 3.40609 1.04232 0
M  V30 1412 O 135.475 5.14672 1.83779 0
M  V30 1413 H 132.569 0.766162 0.311329 0
M  V30 1414 H 135.115 1.69307 -0.115362 0
M  V30 1415 H 133.887 3.91244 0.0663899 0
M  V30 1416 H 133.51 3.57154 1.74719 0
M  V30 1417 N 134.507 -0.190092 1.56449 0
M  V30 1418 C 135.755 -0.907908 1.80559 0
M  V30 1419 C 136.076 -1.83583 0.657438 0
M  V30 1420 O 135.346 -1.93203 -0.323924 0
M  V30 1421 H 133.926 -0.338247 0.666032 0
M  V30 1422 H 136.588 -0.194403 1.93928 0
M  V30 1423 H 135.684 -1.49604 2.73907 0
M  V30 1424 N 135.985 -1.50799 -0.457987 0
M  V30 1425 C 137.231 -1.62683 -1.21088 0
M  V30 1426 C 137.564 -0.332268 -1.91336 0
M  V30 1427 O 136.839 0.667043 -1.82704 0
M  V30 1428 C 137.122 -2.81615 -2.24422 0
M  V30 1429 C 136.975 -4.20989 -1.58392 0
M  V30 1430 C 138.294 -2.96085 -3.2561 0
M  V30 1431 H 135.413 -0.592087 -0.438864 0
M  V30 1432 H 138.055 -1.83225 -0.50286 0
M  V30 1433 H 136.205 -2.64231 -2.84806 0
M  V30 1434 H 137.877 -4.49994 -1.01504 0
M  V30 1435 H 136.12 -4.24641 -0.886704 0
M  V30 1436 H 136.791 -5.0016 -2.33547 0
M  V30 1437 H 139.267 -3.12042 -2.75262 0
M  V30 1438 H 138.143 -3.80902 -3.95228 0
M  V30 1439 H 138.404 -2.0726 -3.90507 0
M  V30 1440 N 137.463 0.71206 -1.40597 0
M  V30 1441 C 138.712 1.46754 -1.38369 0
M  V30 1442 C 139.025 1.95598 0.0097839 0
M  V30 1443 O 140.231 2.71059 0.154677 0
M  V30 1444 C 138.687 2.65289 -2.43207 0
M  V30 1445 C 138.295 2.23301 -3.88382 0
M  V30 1446 C 140.039 3.43008 -2.50091 0
M  V30 1447 C 137.946 3.38696 -4.84808 0
M  V30 1448 H 136.876 0.55118 -0.514506 0
M  V30 1449 H 139.527 0.774616 -1.66349 0
M  V30 1450 H 137.909 3.36769 -2.08332 0
M  V30 1451 H 139.083 1.59218 -4.32419 0
M  V30 1452 H 137.398 1.58618 -3.85006 0
M  V30 1453 H 139.995 4.28881 -3.1932 0
M  V30 1454 H 140.338 3.87065 -1.53253 0
M  V30 1455 H 140.871 2.78574 -2.83974 0
M  V30 1456 H 137.61 2.99668 -5.82992 0
M  V30 1457 H 137.13 4.01683 -4.45433 0
M  V30 1458 H 138.809 4.04712 -5.04794 0
M  V30 1459 N 138.941 1.26152 0.944643 0
M  V30 1460 C 140.352 1.10454 1.50522 0
M  V30 1461 C 140.703 -0.31635 1.93633 0
M  V30 1462 O 139.828 -1.20746 1.79581 0
M  V30 1463 C 140.423 1.99891 2.73549 0
M  V30 1464 C 138.982 1.88348 3.25886 0
M  V30 1465 C 138.129 1.93447 1.9868 0
M  V30 1466 H 141.08 1.39292 0.760489 0
M  V30 1467 H 141.101 1.54477 3.47732 0
M  V30 1468 H 140.613 3.03297 2.42141 0
M  V30 1469 H 138.714 0.878636 3.62092 0
M  V30 1470 H 138.827 2.73696 3.93227 0
M  V30 1471 H 137.191 1.37456 2.14425 0
M  V30 1472 H 137.974 2.98476 1.69607 0
M  V30 1473 N 140.419 -1.14872 1.07899 0
M  V30 1474 C 141.665 -1.86064 0.806725 0
M  V30 1475 C 141.998 -1.82434 -0.665706 0
M  V30 1476 O 141.273 -1.25138 -1.48899 0
M  V30 1477 C 141.556 -3.34929 1.32267 0
M  V30 1478 C 141.409 -3.47161 2.86006 0
M  V30 1479 C 142.728 -4.29863 0.943717 0
M  V30 1480 H 139.847 -0.675591 0.294526 0
M  V30 1481 H 142.489 -1.34925 1.33773 0
M  V30 1482 H 140.639 -3.78611 0.870974 0
M  V30 1483 H 142.311 -3.12302 3.39507 0
M  V30 1484 H 140.554 -2.88539 3.23925 0
M  V30 1485 H 141.225 -4.51777 3.17177 0
M  V30 1486 H 143.701 -3.9417 1.33302 0
M  V30 1487 H 142.577 -5.32494 1.33198 0
M  V30 1488 H 142.838 -4.41846 -0.149796 0
M  V30 1489 N 141.898 -0.863906 -1.31812 0
M  V30 1490 C 142.828 -0.330843 -2.31144 0
M  V30 1491 C 143.809 0.575005 -1.60087 0
M  V30 1492 O 144.994 0.493304 -1.8783 0
M  V30 1493 C 142.124 0.47374 -3.44054 0
M  V30 1494 C 141.078 -0.338481 -4.26659 0
M  V30 1495 C 140.404 0.591412 -5.31419 0
M  V30 1496 C 141.704 -1.56926 -4.98168 0
M  V30 1497 H 143.398 -1.16086 -2.75979 0
M  V30 1498 H 140.944 -0.559657 -1.32679 0
M  V30 1499 H 142.897 0.857143 -4.12591 0
M  V30 1500 H 141.621 1.33721 -2.9797 0
M  V30 1501 H 140.28 -0.703754 -3.59782 0
M  V30 1502 H 139.928 1.45199 -4.81587 0
M  V30 1503 H 139.628 0.0519022 -5.87577 0
M  V30 1504 H 141.152 0.97179 -6.02817 0
M  V30 1505 H 142.566 -1.25764 -5.59336 0
M  V30 1506 H 140.963 -2.04739 -5.64094 0
M  V30 1507 H 142.033 -2.32544 -4.25501 0
M  V30 1508 N 143.376 1.44774 -0.622745 0
M  V30 1509 C 144.604 2.06487 -0.130722 0
M  V30 1510 C 145.019 1.46476 1.19123 0
M  V30 1511 O 144.376 0.584502 1.72887 0
M  V30 1512 C 144.427 3.615 -0.000807207 0
M  V30 1513 O 144.148 4.19274 -1.27048 0
M  V30 1514 C 145.649 4.40229 0.520898 0
M  V30 1515 H 142.869 0.666704 -0.0758106 0
M  V30 1516 H 145.413 1.85779 -0.854774 0
M  V30 1517 H 143.568 3.81498 0.673643 0
M  V30 1518 H 143.982 5.12622 -1.1099 0
M  V30 1519 H 145.456 5.49144 0.560838 0
M  V30 1520 H 145.933 4.1108 1.54627 0
M  V30 1521 H 146.539 4.25131 -0.120018 0
M  V30 1522 N 144.854 0.36279 1.53368 0
M  V30 1523 C 146.101 -0.227776 2.01215 0
M  V30 1524 C 146.429 -1.49003 1.25014 0
M  V30 1525 O 145.684 -1.92876 0.331236 0
M  V30 1526 C 145.983 -0.568417 3.52851 0
M  V30 1527 C 145.649 0.59918 4.46901 0
M  V30 1528 C 144.311 0.919559 4.72332 0
M  V30 1529 C 146.663 1.38156 5.02556 0
M  V30 1530 C 143.991 2.02434 5.5067 0
M  V30 1531 C 146.343 2.47674 5.821 0
M  V30 1532 C 145.007 2.8025 6.05819 0
M  V30 1533 H 144.277 -0.083349 0.736297 0
M  V30 1534 H 146.924 0.494677 1.85001 0
M  V30 1535 H 145.229 -1.37185 3.66998 0
M  V30 1536 H 146.926 -1.03756 3.87344 0
M  V30 1537 H 143.516 0.339437 4.27254 0
M  V30 1538 H 147.7 1.14729 4.82857 0
M  V30 1539 H 142.956 2.28075 5.67267 0
M  V30 1540 H 147.13 3.08716 6.24234 0
M  V30 1541 H 144.757 3.65979 6.66306 0
M  V30 1542 N 146.332 -1.57332 0.0918853 0
M  V30 1543 C 147.262 -2.16872 -0.865371 0
M  V30 1544 C 148.243 -1.10118 -1.29646 0
M  V30 1545 O 149.428 -1.38242 -1.36392 0
M  V30 1546 C 146.558 -2.74649 -2.12569 0
M  V30 1547 C 145.512 -3.86747 -1.83333 0
M  V30 1548 C 144.838 -4.31212 -3.16166 0
M  V30 1549 C 146.138 -5.10089 -1.1228 0
M  V30 1550 H 147.832 -2.97114 -0.369307 0
M  V30 1551 H 145.378 -1.42918 -0.176194 0
M  V30 1552 H 147.331 -3.14952 -2.7997 0
M  V30 1553 H 146.055 -1.91657 -2.64452 0
M  V30 1554 H 144.714 -3.46978 -1.18331 0
M  V30 1555 H 144.362 -3.45115 -3.6593 0
M  V30 1556 H 144.062 -5.06788 -2.97388 0
M  V30 1557 H 145.586 -4.74146 -3.84731 0
M  V30 1558 H 147 -5.47582 -1.69785 0
M  V30 1559 H 145.397 -5.91073 -1.03693 0
M  V30 1560 H 146.467 -4.84786 -0.105041 0
M  V30 1561 N 147.81 0.181792 -1.56548 0
M  V30 1562 C 149.226 0.53316 -1.50431 0
M  V30 1563 C 149.426 1.85184 -0.794297 0
M  V30 1564 O 148.482 2.50058 -0.350318 0
M  V30 1565 C 149.795 0.575597 -2.9514 0
M  V30 1566 C 151.343 0.663519 -3.05886 0
M  V30 1567 C 151.818 0.736946 -4.52032 0
M  V30 1568 N 153.309 0.800118 -4.56237 0
M  V30 1569 C 154.044 0.877327 -5.66649 0
M  V30 1570 N 153.54 0.916016 -6.86718 0
M  V30 1571 N 155.333 0.915542 -5.54594 0
M  V30 1572 H 147.484 -0.683025 -2.01118 0
M  V30 1573 H 149.747 -0.244988 -0.915797 0
M  V30 1574 H 149.453 -0.324482 -3.502 0
M  V30 1575 H 149.327 1.42572 -3.49218 0
M  V30 1576 H 151.714 1.55403 -2.50867 0
M  V30 1577 H 151.795 -0.21307 -2.54911 0
M  V30 1578 H 151.439 -0.149262 -5.07681 0
M  V30 1579 H 151.369 1.62953 -5.00753 0
M  V30 1580 H 153.86 0.778926 -3.69785 0
M  V30 1581 H 154.173 0.975813 -7.66614 0
M  V30 1582 H 152.518 0.884469 -6.89349 0
M  V30 1583 H 155.709 0.882245 -4.59711 0
M  V30 1584 H 155.882 0.972253 -6.40665 0
M  V30 1585 N 149.288 1.51039 0.449983 0
M  V30 1586 C 150.565 1.53612 1.21089 0
M  V30 1587 C 150.945 0.292997 2.09057 0
M  V30 1588 O 150.293 -0.72259 2.16774 0
M  V30 1589 C 150.503 2.84337 2.0237 0
M  V30 1590 C 151.851 3.35807 2.59843 0
M  V30 1591 O 152.875 2.85802 2.12593 0
M  V30 1592 O 151.734 4.23029 3.45989 0
M  V30 1593 H 148.828 0.617057 0.550608 0
M  V30 1594 H 151.374 1.63344 0.460082 0
M  V30 1595 H 150.146 3.66278 1.37681 0
M  V30 1596 H 149.769 2.77708 2.84542 0
M  V30 1597 N 150.766 -0.704594 1.40972 0
M  V30 1598 C 151.716 -1.81051 1.38581 0
M  V30 1599 C 152.7 -1.58759 0.261585 0
M  V30 1600 O 153.892 -1.69745 0.501556 0
M  V30 1601 C 151.021 -3.19279 1.26157 0
M  V30 1602 C 150.107 -3.47296 2.43405 0
M  V30 1603 N 150.498 -3.46064 3.68881 0
M  V30 1604 C 148.796 -3.77804 2.37023 0
M  V30 1605 C 149.497 -3.72733 4.46592 0
M  V30 1606 N 148.473 -3.9203 3.76581 0
M  V30 1607 H 152.275 -1.78448 2.33525 0
M  V30 1608 H 149.789 -0.904198 1.349 0
M  V30 1609 H 151.786 -3.98488 1.22526 0
M  V30 1610 H 150.446 -3.231 0.321902 0
M  V30 1611 H 151.457 -3.26656 4.01891 0
M  V30 1612 H 148.134 -3.8905 1.51481 0
M  V30 1613 H 149.524 -3.77993 5.55492 0
M  V30 1614 N 152.244 -1.26651 -0.937939 0
M  V30 1615 C 153.472 -1.15173 -1.7188 0
M  V30 1616 C 153.887 0.292668 -1.86518 0
M  V30 1617 O 153.244 1.20014 -1.37488 0
M  V30 1618 C 153.295 -1.81925 -3.12387 0
M  V30 1619 O 153.016 -3.2072 -2.98446 0
M  V30 1620 C 154.517 -1.76442 -4.06673 0
M  V30 1621 H 151.737 -0.400911 -0.538063 0
M  V30 1622 H 154.281 -1.67332 -1.1756 0
M  V30 1623 H 152.436 -1.33696 -3.63599 0
M  V30 1624 H 152.85 -3.53802 -3.872 0
M  V30 1625 H 154.324 -2.27781 -5.02812 0
M  V30 1626 H 154.801 -0.731608 -4.33064 0
M  V30 1627 H 155.407 -2.24238 -3.61382 0
M  V30 1628 N 153.722 1.14298 -1.08507 0
M  V30 1629 C 154.67 2.21483 -0.710483 0
M  V30 1630 C 155.664 1.66998 0.284234 0
M  V30 1631 O 156.87 1.79401 0.146692 0
M  V30 1632 H 153.245 0.721578 -0.211729 0
M  V30 1633 H 155.216 2.50348 -1.62384 0
M  V30 1634 C 153.965 3.4743 -0.137007 0
M  V30 1635 H 153.288 3.89686 -0.893592 0
M  V30 1636 H 154.728 4.2391 0.0872789 0
M  V30 1637 C 153.187 3.17548 1.12538 0
M  V30 1638 O 153.717 3.35437 2.21009 0
M  V30 1639 N 151.923 2.71499 1.03617 0
M  V30 1640 H 151.47 2.57143 0.153403 0
M  V30 1641 H 151.428 2.51881 1.88158 0
M  V30 1642 N 155.201 0.870884 1.31352 0
M  V30 1643 C 156.164 0.332243 2.26779 0
M  V30 1644 C 157.164 -0.517302 1.52252 0
M  V30 1645 O 158.354 -0.326477 1.71113 0
M  V30 1646 C 155.486 -0.528066 3.36785 0
M  V30 1647 H 156.679 1.17469 2.75937 0
M  V30 1648 H 154.232 0.64655 1.423 0
M  V30 1649 H 154.967 -1.39167 2.92922 0
M  V30 1650 H 154.752 0.0802582 3.92018 0
M  V30 1651 H 156.242 -0.897179 4.07849 0
M  V30 1652 N 156.679 -1.44442 0.630414 0
M  V30 1653 C 157.611 -2.2892 -0.113347 0
M  V30 1654 C 158.624 -1.41243 -0.80959 0
M  V30 1655 O 159.813 -1.65402 -0.671156 0
M  V30 1656 C 156.913 -3.17594 -1.18266 0
M  V30 1657 C 156.086 -4.33682 -0.569073 0
M  V30 1658 C 155.145 -5.03397 -1.53226 0
M  V30 1659 O 154.171 -5.59438 -1.04967 0
M  V30 1660 N 155.373 -5.04783 -2.86661 0
M  V30 1661 H 158.138 -2.93392 0.611636 0
M  V30 1662 H 155.699 -1.54881 0.471523 0
M  V30 1663 H 157.691 -3.61097 -1.82732 0
M  V30 1664 H 156.261 -2.54876 -1.80988 0
M  V30 1665 H 155.481 -3.9338 0.254187 0
M  V30 1666 H 156.769 -5.08608 -0.139767 0
M  V30 1667 H 156.167 -4.60584 -3.28449 0
M  V30 1668 H 154.724 -5.52077 -3.46489 0
M  V30 1669 N 158.157 -0.370918 -1.53173 0
M  V30 1670 C 159.404 0.217102 -2.01333 0
M  V30 1671 C 159.732 1.48338 -1.25802 0
M  V30 1672 O 158.987 1.92698 -0.34146 0
M  V30 1673 C 159.286 0.549696 -3.53147 0
M  V30 1674 C 158.952 -0.622872 -4.46577 0
M  V30 1675 C 157.614 -0.944595 -4.71838 0
M  V30 1676 C 159.966 -1.40819 -5.01816 0
M  V30 1677 C 157.294 -2.05351 -5.49589 0
M  V30 1678 C 159.646 -2.50757 -5.80778 0
M  V30 1679 C 158.31 -2.83458 -6.04324 0
M  V30 1680 H 157.58 0.0794431 -0.736729 0
M  V30 1681 H 160.227 -0.504481 -1.84736 0
M  V30 1682 H 158.532 1.35237 -3.6772 0
M  V30 1683 H 160.229 1.017 -3.87889 0
M  V30 1684 H 156.819 -0.36209 -4.27068 0
M  V30 1685 H 161.003 -1.17289 -4.82242 0
M  V30 1686 H 156.259 -2.3108 -5.6605 0
M  V30 1687 H 160.433 -3.12022 -6.22588 0
M  V30 1688 H 158.06 -3.69508 -6.64355 0
M  V30 1689 N 159.635 1.57281 -0.100228 0
M  V30 1690 C 160.582 2.14305 0.856858 0
M  V30 1691 C 161.552 1.06296 1.27634 0
M  V30 1692 O 162.737 1.34109 1.35718 0
M  V30 1693 C 159.877 2.73184 2.10866 0
M  V30 1694 C 158.99 3.95442 1.73925 0
M  V30 1695 C 158.125 4.42468 2.93931 0
M  V30 1696 C 157.164 5.57303 2.5314 0
M  V30 1697 N 156.301 5.99158 3.65997 0
M  V30 1698 H 161.141 2.95772 0.363726 0
M  V30 1699 H 158.678 1.46139 0.167858 0
M  V30 1700 H 160.636 3.05442 2.84185 0
M  V30 1701 H 159.266 1.94437 2.57671 0
M  V30 1702 H 158.318 3.69464 0.905554 0
M  V30 1703 H 159.63 4.78769 1.39935 0
M  V30 1704 H 158.784 4.76537 3.75496 0
M  V30 1705 H 157.523 3.58052 3.31134 0
M  V30 1706 H 156.528 5.22857 1.70003 0
M  V30 1707 H 157.753 6.43471 2.17075 0
M  V30 1708 H 155.699 5.17687 4.02909 0
M  V30 1709 H 155.616 6.77295 3.35869 0
M  V30 1710 H 156.884 6.3786 4.48057 0
M  V30 1711 N 161.113 -0.173488 1.56642 0
M  V30 1712 C 162.338 -0.910149 1.86363 0
M  V30 1713 C 162.763 -1.75132 0.686318 0
M  V30 1714 O 162.121 -1.77595 -0.364643 0
M  V30 1715 C 162.169 -1.76447 3.14482 0
M  V30 1716 O 161.273 -2.86584 2.96553 0
M  V30 1717 H 160.614 -0.255086 0.613047 0
M  V30 1718 H 163.144 -0.172283 2.03873 0
M  V30 1719 H 163.154 -2.16483 3.45831 0
M  V30 1720 H 161.829 -1.14658 3.99783 0
M  V30 1721 H 160.406 -2.50146 2.76553 0
M  V30 1722 N 162.591 -1.51276 -0.441967 0
M  V30 1723 C 163.521 -1.752 -1.54361 0
M  V30 1724 C 164.502 -0.601682 -1.59103 0
M  V30 1725 O 165.687 -0.843913 -1.74905 0
M  V30 1726 C 162.817 -1.87282 -2.92477 0
M  V30 1727 C 161.771 -3.02687 -3.02596 0
M  V30 1728 C 161.097 -2.99947 -4.42647 0
M  V30 1729 C 162.397 -4.4273 -2.77106 0
M  V30 1730 H 164.091 -2.67442 -1.34592 0
M  V30 1731 H 161.637 -1.28694 -0.646048 0
M  V30 1732 H 163.59 -2.02602 -3.695 0
M  V30 1733 H 162.314 -0.916844 -3.13467 0
M  V30 1734 H 160.973 -2.87065 -2.28012 0
M  V30 1735 H 160.621 -2.02136 -4.60597 0
M  V30 1736 H 160.321 -3.77439 -4.50348 0
M  V30 1737 H 161.845 -3.17354 -5.2165 0
M  V30 1738 H 163.259 -4.58727 -3.43864 0
M  V30 1739 H 161.656 -5.21893 -2.96222 0
M  V30 1740 H 162.726 -4.53087 -1.72744 0
M  V30 1741 N 164.069 0.697108 -1.41344 0
M  V30 1742 C 165.315 1.4593 -1.40827 0
M  V30 1743 C 165.648 1.94193 -0.0167098 0
M  V30 1744 O 164.923 1.69425 0.955263 0
M  V30 1745 C 165.206 2.67229 -2.41373 0
M  V30 1746 C 165.059 2.24741 -3.8963 0
M  V30 1747 C 166.378 3.69423 -2.39196 0
M  V30 1748 H 163.497 0.529303 -0.512842 0
M  V30 1749 H 166.139 0.794112 -1.72609 0
M  V30 1750 H 164.289 3.23982 -2.14401 0
M  V30 1751 H 165.961 1.73327 -4.27499 0
M  V30 1752 H 164.204 1.56542 -4.0457 0
M  V30 1753 H 164.875 3.1177 -4.55525 0
M  V30 1754 H 167.351 3.2234 -2.63128 0
M  V30 1755 H 166.227 4.51907 -3.11563 0
M  V30 1756 H 166.488 4.19012 -1.41001 0
M  V30 1757 N 165.547 1.27147 0.931209 0
M  V30 1758 C 166.824 1.0401 1.65654 0
M  V30 1759 C 167.204 -0.426297 2.06751 0
M  V30 1760 O 166.552 -1.40879 1.79904 0
M  V30 1761 C 166.762 1.99834 2.86125 0
M  V30 1762 C 168.11 2.29007 3.57549 0
M  V30 1763 O 169.134 1.97779 2.96246 0
M  V30 1764 O 167.993 2.82222 4.67989 0
M  V30 1765 H 165.087 0.396239 0.725895 0
M  V30 1766 H 167.633 1.38397 0.982056 0
M  V30 1767 H 166.405 2.98744 2.52721 0
M  V30 1768 H 166.028 1.65987 3.61295 0
M  V30 1769 N 167.025 -1.13721 1.09112 0
M  V30 1770 C 167.955 -2.21148 0.749385 0
M  V30 1771 C 168.936 -1.6792 -0.271475 0
M  V30 1772 O 170.121 -1.93693 -0.140251 0
M  V30 1773 C 167.251 -3.46905 0.165659 0
M  V30 1774 C 166.205 -4.13203 1.11567 0
M  V30 1775 C 165.531 -5.33248 0.393809 0
M  V30 1776 C 166.831 -4.60912 2.45678 0
M  V30 1777 H 168.525 -2.4999 1.64758 0
M  V30 1778 H 166.071 -1.20156 0.793626 0
M  V30 1779 H 168.024 -4.21313 -0.085466 0
M  V30 1780 H 166.748 -3.17449 -0.767714 0
M  V30 1781 H 165.407 -3.40758 1.35202 0
M  V30 1782 H 165.055 -5.00054 -0.543599 0
M  V30 1783 H 164.755 -5.78552 1.02721 0
M  V30 1784 H 166.279 -6.10413 0.150908 0
M  V30 1785 H 167.693 -5.26759 2.26269 0
M  V30 1786 H 166.09 -5.16944 3.04776 0
M  V30 1787 H 167.16 -3.75603 3.06677 0
M  V30 1788 N 168.503 -0.877838 -1.30888 0
M  V30 1789 C 169.731 -0.507414 -2.00581 0
M  V30 1790 C 170.146 0.902216 -1.65848 0
M  V30 1791 O 169.503 1.59225 -0.891831 0
M  V30 1792 C 169.554 -0.664162 -3.55347 0
M  V30 1793 O 169.275 -2.01829 -3.8884 0
M  V30 1794 C 170.776 -0.295787 -4.42312 0
M  V30 1795 H 167.996 -0.196866 -0.641471 0
M  V30 1796 H 170.54 -1.18117 -1.66939 0
M  V30 1797 H 168.695 -0.0378619 -3.87381 0
M  V30 1798 H 169.109 -2.03174 -4.8355 0
M  V30 1799 H 170.583 -0.456388 -5.5011 0
M  V30 1800 H 171.06 0.765663 -4.32475 0
M  V30 1801 H 171.666 -0.898113 -4.15709 0
M  V30 1802 N 169.982 1.44106 -0.638065 0
M  V30 1803 C 170.945 2.29138 0.0531013 0
M  V30 1804 C 171.945 1.41409 0.765506 0
M  V30 1805 O 173.135 1.63206 0.609046 0
M  V30 1806 C 170.267 3.23144 1.08584 0
M  V30 1807 H 171.46 2.91739 -0.694883 0
M  V30 1808 H 169.013 1.51134 -0.398538 0
M  V30 1809 H 169.748 2.65408 1.86357 0
M  V30 1810 H 169.533 3.87804 0.578852 0
M  V30 1811 H 171.023 3.87004 1.56899 0
M  V30 1812 N 171.46 0.379036 1.52974 0
M  V30 1813 C 172.706 -0.206727 2.01744 0
M  V30 1814 C 173.039 -1.47314 1.26539 0
M  V30 1815 O 172.314 -1.91084 0.362903 0
M  V30 1816 C 172.597 -0.485066 3.56818 0
M  V30 1817 C 172.45 0.795919 4.42702 0
M  V30 1818 C 173.769 -1.28003 4.21074 0
M  V30 1819 H 170.888 -0.0736607 0.73331 0
M  V30 1820 H 173.53 0.506581 1.83122 0
M  V30 1821 H 171.68 -1.09272 3.72816 0
M  V30 1822 H 173.352 1.43307 4.38476 0
M  V30 1823 H 171.595 1.41344 4.10127 0
M  V30 1824 H 172.266 0.555947 5.49193 0
M  V30 1825 H 174.742 -0.765867 4.08991 0
M  V30 1826 H 173.618 -1.44352 5.29579 0
M  V30 1827 H 173.879 -2.29236 3.78026 0
M  V30 1828 N 172.938 -1.57226 0.108567 0
M  V30 1829 C 174.215 -1.86333 -0.594939 0
M  V30 1830 C 174.595 -1.00788 -1.85486 0
M  V30 1831 O 173.943 -0.0839293 -2.28346 0
M  V30 1832 C 174.153 -3.37265 -0.897405 0
M  V30 1833 C 175.501 -4.05629 -1.25501 0
M  V30 1834 O 176.525 -3.42224 -0.987998 0
M  V30 1835 O 175.384 -5.17531 -1.75567 0
M  V30 1836 H 172.478 -0.771018 -0.2991 0
M  V30 1837 H 175.024 -1.69102 0.142283 0
M  V30 1838 H 173.796 -3.913 -0.00413806 0
M  V30 1839 H 173.419 -3.59889 -1.69014 0
M  V30 1840 N 174.416 0.165178 -1.56732 0
M  V30 1841 C 175.662 0.882112 -1.82611 0
M  V30 1842 C 175.995 1.81628 -0.687378 0
M  V30 1843 O 175.27 1.92009 0.310267 0
M  V30 1844 C 175.553 1.67245 -3.18906 0
M  V30 1845 C 175.406 0.760987 -4.43316 0
M  V30 1846 C 176.725 2.63884 -3.52212 0
M  V30 1847 H 173.844 0.319242 -0.664269 0
M  V30 1848 H 176.486 0.148052 -1.89422 0
M  V30 1849 H 174.636 2.29824 -3.1323 0
M  V30 1850 H 176.308 0.147596 -4.61064 0
M  V30 1851 H 174.551 0.0694102 -4.33744 0
M  V30 1852 H 175.222 1.34962 -5.35247 0
M  V30 1853 H 177.698 2.11429 -3.58381 0
M  V30 1854 H 176.574 3.16245 -4.48643 0
M  V30 1855 H 176.835 3.44377 -2.77231 0
M  V30 1856 N 175.894 1.51508 0.433938 0
M  V30 1857 C 177.305 1.56784 1.01369 0
M  V30 1858 C 177.656 0.393349 1.92217 0
M  V30 1859 O 176.781 -0.489441 2.10792 0
M  V30 1860 C 177.376 2.84144 1.8452 0
M  V30 1861 C 175.935 2.9198 2.37539 0
M  V30 1862 C 175.082 2.51482 1.16843 0
M  V30 1863 H 178.033 1.57236 0.215081 0
M  V30 1864 H 178.054 2.68098 2.70007 0
M  V30 1865 H 177.566 3.69607 1.18373 0
M  V30 1866 H 175.667 2.10955 3.0713 0
M  V30 1867 H 175.78 3.95704 2.70103 0
M  V30 1868 H 174.144 2.04758 1.51481 0
M  V30 1869 H 174.927 3.39293 0.523015 0
M  V30 1870 N 177.372 -0.689602 1.41712 0
M  V30 1871 C 178.6 -1.47827 1.44758 0
M  V30 1872 C 179.015 -1.88721 0.0545703 0
M  V30 1873 O 178.372 -1.57176 -0.927463 0
M  V30 1874 C 178.423 -2.73698 2.3616 0
M  V30 1875 O 178.144 -2.34524 3.7004 0
M  V30 1876 C 179.645 -3.67389 2.48072 0
M  V30 1877 H 176.865 -0.455357 0.49284 0
M  V30 1878 H 179.409 -0.848574 1.86063 0
M  V30 1879 H 177.564 -3.32891 1.98148 0
M  V30 1880 H 177.978 -3.15701 4.18847 0
M  V30 1881 H 179.452 -4.52475 3.16181 0
M  V30 1882 H 179.929 -4.12284 1.51388 0
M  V30 1883 H 180.535 -3.14097 2.86746 0
M  V30 1884 N 178.85 -1.27639 -0.924453 0
M  V30 1885 C 180.266 -1.05113 -1.20097 0
M  V30 1886 C 180.466 0.213262 -2.00368 0
M  V30 1887 O 179.522 0.91787 -2.35226 0
M  V30 1888 C 180.835 -2.29244 -1.94596 0
M  V30 1889 C 182.383 -2.34315 -2.07522 0
M  V30 1890 C 182.858 -3.58183 -2.85427 0
M  V30 1891 N 184.349 -3.5876 -2.92994 0
M  V30 1892 C 185.084 -4.51277 -3.53746 0
M  V30 1893 N 184.58 -5.54102 -4.15863 0
M  V30 1894 N 186.373 -4.38894 -3.51181 0
M  V30 1895 H 178.524 -2.08821 -0.388264 0
M  V30 1896 H 180.787 -0.918568 -0.234385 0
M  V30 1897 H 180.493 -3.21301 -1.43034 0
M  V30 1898 H 180.367 -2.34816 -2.95197 0
M  V30 1899 H 182.754 -1.42762 -2.58269 0
M  V30 1900 H 182.835 -2.32744 -1.06131 0
M  V30 1901 H 182.479 -4.50074 -2.35363 0
M  V30 1902 H 182.409 -3.57006 -3.8711 0
M  V30 1903 H 184.9 -2.84398 -2.4885 0
M  V30 1904 H 185.213 -6.20859 -4.60168 0
M  V30 1905 H 183.558 -5.57941 -4.144 0
M  V30 1906 H 186.749 -3.57772 -3.01856 0
M  V30 1907 H 186.922 -5.11186 -3.98237 0
M  V30 1908 N 180.328 1.1314 -1.09713 0
M  V30 1909 C 181.26 2.18343 -0.697056 0
M  V30 1910 C 182.273 1.60669 0.262551 0
M  V30 1911 O 183.462 1.78435 0.0481527 0
M  V30 1912 C 180.562 3.38899 -0.00684728 0
M  V30 1913 C 179.735 4.26078 -0.988741 0
M  V30 1914 C 178.794 5.25155 -0.331394 0
M  V30 1915 O 177.82 5.60701 -0.979926 0
M  V30 1916 N 179.022 5.73271 0.913261 0
M  V30 1917 H 181.787 2.5328 -1.60216 0
M  V30 1918 H 179.348 1.28491 -0.984971 0
M  V30 1919 H 181.34 4.02255 0.444191 0
M  V30 1920 H 179.91 3.02175 0.800551 0
M  V30 1921 H 179.13 3.59453 -1.61826 0
M  V30 1922 H 180.418 4.81178 -1.65364 0
M  V30 1923 H 179.816 5.46544 1.45966 0
M  V30 1924 H 178.373 6.3855 1.30757 0
M  V30 1925 N 181.806 0.884767 1.30421 0
M  V30 1926 C 182.754 0.340869 2.30089 0
M  V30 1927 C 183.748 -0.55201 1.60154 0
M  V30 1928 O 184.954 -0.436467 1.74628 0
M  V30 1929 H 181.329 0.0915739 0.746404 0
M  V30 1930 H 183.3 1.19513 2.73421 0
M  V30 1931 C 182.049 -0.429779 3.45034 0
M  V30 1932 H 181.372 0.248024 3.9903 0
M  V30 1933 H 182.812 -0.775445 4.16849 0
M  V30 1934 C 181.271 -1.62677 2.95022 0
M  V30 1935 O 181.801 -2.72614 2.95033 0
M  V30 1936 N 180.007 -1.46387 2.51036 0
M  V30 1937 H 179.554 -0.569506 2.51226 0
M  V30 1938 H 179.512 -2.26612 2.17932 0
M  V30 1939 N 183.284 -1.43765 0.645699 0
M  V30 1940 C 184.7 -1.56509 0.312591 0
M  V30 1941 C 184.9 -1.6307 -1.18365 0
M  V30 1942 O 183.956 -1.58167 -1.96824 0
M  V30 1943 C 185.269 -2.82968 1.01733 0
M  V30 1944 C 186.817 -2.96701 0.996865 0
M  V30 1945 C 187.292 -4.25982 1.68236 0
M  V30 1946 N 188.783 -4.32829 1.64964 0
M  V30 1947 C 189.518 -5.31613 2.14885 0
M  V30 1948 N 189.014 -6.36718 2.73061 0
M  V30 1949 N 190.807 -5.23217 2.05428 0
M  V30 1950 H 182.958 -1.3775 1.61675 0
M  V30 1951 H 185.221 -0.661067 0.679481 0
M  V30 1952 H 184.927 -2.84156 2.0724 0
M  V30 1953 H 184.801 -3.72957 0.564177 0
M  V30 1954 H 187.188 -2.95058 -0.0497719 0
M  V30 1955 H 187.269 -2.08022 1.48865 0
M  V30 1956 H 186.913 -4.28386 2.72852 0
M  V30 1957 H 186.843 -5.13545 1.16529 0
M  V30 1958 H 189.334 -3.57493 1.22503 0
M  V30 1959 H 189.647 -7.08401 3.08848 0
M  V30 1960 H 187.992 -6.37362 2.77118 0
M  V30 1961 H 191.183 -4.40019 1.59689 0
M  V30 1962 H 191.356 -6.00045 2.44643 0
M  V30 1963 N 184.763 -0.387143 -1.52771 0
M  V30 1964 C 186.01 0.195735 -2.01552 0
M  V30 1965 C 186.338 1.46995 -1.27369 0
M  V30 1966 O 185.593 1.92325 -0.361879 0
M  V30 1967 C 185.892 0.512209 -3.53711 0
M  V30 1968 C 185.558 -0.670202 -4.45891 0
M  V30 1969 C 184.22 -0.994586 -4.70809 0
M  V30 1970 C 186.572 -1.46134 -5.00294 0
M  V30 1971 C 183.9 -2.11169 -5.4738 0
M  V30 1972 C 186.252 -2.56903 -5.78086 0
M  V30 1973 C 184.916 -2.89852 -6.01284 0
M  V30 1974 H 184.186 0.0716246 -0.73753 0
M  V30 1975 H 186.833 -0.524046 -1.8419 0
M  V30 1976 H 185.138 1.31329 -3.69134 0
M  V30 1977 H 186.835 0.975804 -3.88946 0
M  V30 1978 H 183.425 -0.407366 -4.2666 0
M  V30 1979 H 187.609 -1.22397 -4.80971 0
M  V30 1980 H 182.865 -2.3707 -5.63567 0
M  V30 1981 H 187.039 -3.18608 -6.19243 0
M  V30 1982 H 184.666 -3.76533 -6.60399 0
M  V30 1983 N 186.241 1.57166 -0.116904 0
M  V30 1984 C 187.151 2.18745 0.847812 0
M  V30 1985 C 188.167 1.163 1.29423 0
M  V30 1986 O 189.343 1.48761 1.35765 0
M  V30 1987 C 186.408 2.77307 2.0809 0
M  V30 1988 C 185.469 3.94781 1.68661 0
M  V30 1989 C 184.702 4.50541 2.86091 0
M  V30 1990 O 184.925 4.05202 4.01456 0
M  V30 1991 O 183.859 5.41256 2.63298 0
M  V30 1992 H 187.685 3.01632 0.353778 0
M  V30 1993 H 185.27 1.49005 0.108599 0
M  V30 1994 H 187.152 3.14647 2.80313 0
M  V30 1995 H 185.827 1.97452 2.56504 0
M  V30 1996 H 184.734 3.62214 0.935518 0
M  V30 1997 H 186.067 4.76065 1.24991 0
M  V30 1998 N 187.719 -0.156864 1.56817 0
M  V30 1999 C 188.968 -0.869504 1.81996 0
M  V30 2000 C 189.281 -1.82777 0.696545 0
M  V30 2001 O 190.487 -2.58384 0.833658 0
M  V30 2002 C 188.943 -1.59679 3.22538 0
M  V30 2003 C 188.551 -0.681431 4.42787 0
M  V30 2004 C 190.295 -2.2968 3.56997 0
M  V30 2005 C 188.202 -1.40978 5.74351 0
M  V30 2006 H 187.132 -0.328438 0.678708 0
M  V30 2007 H 189.783 -0.1223 1.83092 0
M  V30 2008 H 188.165 -2.38927 3.158 0
M  V30 2009 H 189.339 0.0751166 4.60739 0
M  V30 2010 H 187.654 -0.0903431 4.16302 0
M  V30 2011 H 190.251 -2.84794 4.52544 0
M  V30 2012 H 190.594 -3.05707 2.82576 0
M  V30 2013 H 191.127 -1.57361 3.65352 0
M  V30 2014 H 187.866 -0.691561 6.51842 0
M  V30 2015 H 187.386 -2.13929 5.60352 0
M  V30 2016 H 189.065 -1.95337 6.16808 0
M  V30 2017 N 189.197 -1.51736 -0.425897 0
M  V30 2018 C 190.443 -1.65214 -1.1761 0
M  V30 2019 C 190.776 -0.372778 -1.90589 0
M  V30 2020 O 190.051 0.628139 -1.84078 0
M  V30 2021 C 190.334 -2.86312 -2.18398 0
M  V30 2022 C 190.187 -4.24254 -1.49426 0
M  V30 2023 C 191.506 -3.02925 -3.19256 0
M  V30 2024 H 188.625 -0.601263 -0.426206 0
M  V30 2025 H 191.267 -1.8425 -0.463882 0
M  V30 2026 H 189.417 -2.70213 -2.79137 0
M  V30 2027 H 191.089 -4.52046 -0.919362 0
M  V30 2028 H 189.332 -4.26426 -0.796432 0
M  V30 2029 H 190.003 -5.05001 -2.22885 0
M  V30 2030 H 192.479 -3.1781 -2.68581 0
M  V30 2031 H 191.355 -3.89199 -3.8706 0
M  V30 2032 H 191.616 -2.15497 -3.86023 0
M  V30 2033 N 190.675 0.682077 -1.42076 0
M  V30 2034 C 191.905 1.46844 -1.45329 0
M  V30 2035 C 192.313 1.89102 -0.0609328 0
M  V30 2036 O 191.656 1.58238 0.933082 0
M  V30 2037 C 191.718 2.75375 -2.31104 0
M  V30 2038 C 191.382 2.55238 -3.79081 0
M  V30 2039 C 192.379 2.20309 -4.70914 0
M  V30 2040 C 190.064 2.70459 -4.2327 0
M  V30 2041 C 192.058 2.00859 -6.04925 0
M  V30 2042 C 189.745 2.50624 -5.57343 0
M  V30 2043 C 190.743 2.15876 -6.47986 0
M  V30 2044 O 190.431 1.96227 -7.79583 0
M  V30 2045 H 190.163 0.4586 -0.496651 0
M  V30 2046 H 192.717 0.846131 -1.87162 0
M  V30 2047 H 190.947 3.40061 -1.84107 0
M  V30 2048 H 192.636 3.37231 -2.25898 0
M  V30 2049 H 193.402 2.08153 -4.38061 0
M  V30 2050 H 189.281 2.96485 -3.53012 0
M  V30 2051 H 192.825 1.7366 -6.75639 0
M  V30 2052 H 188.722 2.62375 -5.89771 0
M  V30 2053 H 189.49 2.10883 -7.90867 0
M  V30 2054 N 192.153 1.28127 0.917671 0
M  V30 2055 C 193.101 1.11569 2.04096 0
M  V30 2056 C 194.095 0.0360242 1.69362 0
M  V30 2057 O 195.301 0.194501 1.78946 0
M  V30 2058 H 191.676 0.344097 0.668656 0
M  V30 2059 H 193.647 2.06711 2.15205 0
M  V30 2060 C 192.396 0.790197 3.38602 0
M  V30 2061 H 191.719 1.61293 3.6582 0
M  V30 2062 H 193.159 0.714271 4.1794 0
M  V30 2063 C 191.618 -0.505897 3.3308 0
M  V30 2064 O 192.148 -1.53736 3.71117 0
M  V30 2065 N 190.354 -0.505193 2.86175 0
M  V30 2066 H 189.901 0.334621 2.55417 0
M  V30 2067 H 189.859 -1.37243 2.82863 0
M  V30 2068 N 193.631 -1.12557 1.10312 0
M  V30 2069 C 194.561 -2.20341 0.772798 0
M  V30 2070 C 195.542 -1.68198 -0.25365 0
M  V30 2071 O 196.727 -1.93831 -0.119699 0
M  V30 2072 C 193.857 -3.46709 0.202443 0
M  V30 2073 C 192.811 -4.11996 1.15943 0
M  V30 2074 C 192.137 -5.328 0.450345 0
M  V30 2075 C 193.437 -4.5828 2.50552 0
M  V30 2076 H 195.131 -2.48229 1.674 0
M  V30 2077 H 192.677 -1.19308 0.806326 0
M  V30 2078 H 194.63 -4.2138 -0.0407752 0
M  V30 2079 H 193.354 -3.18245 -0.734001 0
M  V30 2080 H 192.013 -3.39305 1.38808 0
M  V30 2081 H 191.661 -5.00602 -0.490531 0
M  V30 2082 H 191.361 -5.7743 1.08851 0
M  V30 2083 H 192.885 -6.10219 0.215642 0
M  V30 2084 H 194.299 -5.2433 2.31843 0
M  V30 2085 H 192.696 -5.13683 3.10242 0
M  V30 2086 H 193.766 -3.72329 3.10643 0
M  V30 2087 N 195.109 -0.891671 -1.2995 0
M  V30 2088 C 196.039 -0.379797 -2.30391 0
M  V30 2089 C 197.02 0.540919 -1.6127 0
M  V30 2090 O 198.205 0.453352 -1.88834 0
M  V30 2091 C 195.335 0.400654 -3.44981 0
M  V30 2092 C 194.289 -0.428905 -4.25846 0
M  V30 2093 C 193.615 0.478557 -5.32554 0
M  V30 2094 C 194.915 -1.67458 -4.94727 0
M  V30 2095 H 196.609 -1.21914 -2.73454 0
M  V30 2096 H 194.155 -0.587675 -1.31462 0
M  V30 2097 H 196.108 0.769434 -4.14316 0
M  V30 2098 H 194.832 1.27371 -3.0074 0
M  V30 2099 H 193.491 -0.779911 -3.58208 0
M  V30 2100 H 193.139 1.34951 -4.84559 0
M  V30 2101 H 192.839 -0.0727433 -5.87555 0
M  V30 2102 H 194.363 0.843705 -6.04743 0
M  V30 2103 H 195.777 -1.376 -5.56542 0
M  V30 2104 H 194.174 -2.16659 -5.59624 0
M  V30 2105 H 195.244 -2.41518 -4.20473 0
M  V30 2106 N 196.587 1.43421 -0.653314 0
M  V30 2107 C 197.812 2.06678 -0.172846 0
M  V30 2108 C 198.237 1.48648 1.15262 0
M  V30 2109 O 197.595 0.596457 1.71208 0
M  V30 2110 C 197.643 3.60474 -0.0953184 0
M  V30 2111 O 196.747 4.01487 0.942442 0
M  V30 2112 H 196.088 0.657181 -0.0949155 0
M  V30 2113 H 198.618 1.83925 -0.896265 0
M  V30 2114 H 198.628 4.07905 0.0879728 0
M  V30 2115 H 197.303 4.02088 -1.06291 0
M  V30 2116 H 195.88 3.65646 0.731932 0
M  V30 2117 N 198.065 0.39524 1.52563 0
M  V30 2118 C 198.995 -0.428384 2.29537 0
M  V30 2119 C 199.976 -1.05831 1.33169 0
M  V30 2120 O 201.161 -1.06995 1.62067 0
M  V30 2121 C 198.291 -1.55274 3.10656 0
M  V30 2122 C 197.245 -1.04855 4.14957 0
M  V30 2123 C 196.571 -2.26543 4.84337 0
M  V30 2124 C 197.871 -0.112324 5.22179 0
M  V30 2125 H 199.565 0.213867 2.98635 0
M  V30 2126 H 197.111 0.104298 1.43622 0
M  V30 2127 H 199.064 -2.1358 3.63265 0
M  V30 2128 H 197.788 -2.22266 2.39302 0
M  V30 2129 H 196.447 -0.487985 3.63338 0
M  V30 2130 H 196.095 -2.92059 4.09525 0
M  V30 2131 H 195.795 -1.93466 5.54837 0
M  V30 2132 H 197.319 -2.85481 5.39753 0
M  V30 2133 H 198.733 -0.603752 5.70112 0
M  V30 2134 H 197.13 0.128968 5.99961 0
M  V30 2135 H 198.2 0.837052 4.77621 0
M  V30 2136 N 199.544 -1.57102 0.125237 0
M  V30 2137 C 200.96 -1.57915 -0.231322 0
M  V30 2138 C 201.16 -1.13833 -1.66266 0
M  V30 2139 O 200.216 -0.828581 -2.38518 0
M  V30 2140 C 201.529 -3.00699 0.00766489 0
M  V30 2141 C 203.077 -3.12947 -0.0577483 0
M  V30 2142 C 203.552 -4.57742 0.153626 0
M  V30 2143 N 205.043 -4.63092 0.0998073 0
M  V30 2144 C 205.778 -5.72905 0.238174 0
M  V30 2145 N 205.274 -6.91445 0.433057 0
M  V30 2146 N 207.067 -5.6182 0.177308 0
M  V30 2147 H 199.218 -1.84055 1.06007 0
M  V30 2148 H 201.481 -0.850905 0.417929 0
M  V30 2149 H 201.187 -3.3726 0.997431 0
M  V30 2150 H 201.061 -3.70236 -0.721452 0
M  V30 2151 H 203.448 -2.7624 -1.03804 0
M  V30 2152 H 203.529 -2.4594 0.70335 0
M  V30 2153 H 203.173 -4.95149 1.13092 0
M  V30 2154 H 203.103 -5.22848 -0.627534 0
M  V30 2155 H 205.594 -3.77871 -0.047051 0
M  V30 2156 H 205.907 -7.70985 0.529332 0
M  V30 2157 H 204.252 -6.93415 0.469109 0
M  V30 2158 H 207.443 -4.68093 0.0259748 0
M  V30 2159 H 207.616 -6.47357 0.288582 0
M  V30 2160 N 201.022 0.148545 -1.56898 0
M  V30 2161 C 202.269 0.861418 -1.83264 0
M  V30 2162 C 202.597 1.81239 -0.705883 0
M  V30 2163 O 201.852 1.93305 0.305212 0
M  V30 2164 C 202.151 1.67064 -3.1595 0
M  V30 2165 C 201.817 0.866591 -4.42494 0
M  V30 2166 C 200.479 0.644762 -4.76861 0
M  V30 2167 C 202.831 0.30418 -5.20312 0
M  V30 2168 C 200.159 -0.15021 -5.86508 0
M  V30 2169 C 202.511 -0.477824 -6.30793 0
M  V30 2170 C 201.175 -0.710244 -6.63711 0
M  V30 2171 H 200.445 0.315215 -0.670612 0
M  V30 2172 H 203.092 0.125142 -1.91091 0
M  V30 2173 H 201.397 2.47698 -3.03567 0
M  V30 2174 H 203.094 2.22566 -3.33565 0
M  V30 2175 H 199.684 1.04955 -4.15551 0
M  V30 2176 H 203.868 0.462844 -4.94137 0
M  V30 2177 H 199.124 -0.339796 -6.10455 0
M  V30 2178 H 203.298 -0.92076 -6.90286 0
M  V30 2179 H 200.925 -1.3281 -7.48509 0
M  V30 2180 N 202.5 1.5196 0.417844 0
M  V30 2181 C 203.448 1.75278 1.52907 0
M  V30 2182 C 204.442 0.619611 1.57662 0
M  V30 2183 O 205.648 0.801457 1.61173 0
M  V30 2184 H 202.023 0.554141 0.508362 0
M  V30 2185 H 203.994 2.68389 1.30422 0
M  V30 2186 C 202.743 1.91262 2.90369 0
M  V30 2187 H 202.066 2.77872 2.8745 0
M  V30 2188 H 203.506 2.11581 3.67436 0
M  V30 2189 C 201.965 0.677431 3.30019 0
M  V30 2190 O 202.495 -0.158799 4.01386 0
M  V30 2191 N 200.701 0.515851 2.85985 0
M  V30 2192 H 200.248 1.19744 2.28077 0
M  V30 2193 H 200.206 -0.309315 3.12875 0
M  V30 2194 N 203.978 -0.674533 1.42435 0
M  V30 2195 C 205.203 -1.46784 1.46524 0
M  V30 2196 C 205.628 -1.87938 0.078066 0
M  V30 2197 O 204.986 -1.56014 -0.92354 0
M  V30 2198 C 205.034 -2.69307 2.39805 0
M  V30 2199 O 204.138 -3.67587 1.86959 0
M  V30 2200 H 203.479 -0.440959 0.496439 0
M  V30 2201 H 206.009 -0.827326 1.87127 0
M  V30 2202 H 206.019 -3.17374 2.56393 0
M  V30 2203 H 204.694 -2.38692 3.40586 0
M  V30 2204 H 203.271 -3.2662 1.79927 0
M  V30 2205 N 205.456 -1.28612 -0.910864 0
M  V30 2206 C 206.872 -1.06381 -1.18976 0
M  V30 2207 C 207.072 0.191998 -2.00583 0
M  V30 2208 O 206.128 0.892869 -2.36187 0
M  V30 2209 C 207.441 -2.31295 -1.92154 0
M  V30 2210 C 208.989 -2.36503 -2.05025 0
M  V30 2211 C 209.464 -3.61191 -2.81612 0
M  V30 2212 N 210.955 -3.61847 -2.89172 0
M  V30 2213 C 211.69 -4.55004 -3.4894 0
M  V30 2214 N 211.186 -5.58482 -4.09963 0
M  V30 2215 N 212.979 -4.42594 -3.46506 0
M  V30 2216 H 205.13 -2.09221 -0.366094 0
M  V30 2217 H 207.393 -0.921003 -0.224629 0
M  V30 2218 H 207.099 -3.228 -1.39618 0
M  V30 2219 H 206.973 -2.37934 -2.9269 0
M  V30 2220 H 209.36 -1.45494 -2.5674 0
M  V30 2221 H 209.441 -2.33857 -1.03657 0
M  V30 2222 H 209.085 -4.52545 -2.30576 0
M  V30 2223 H 209.015 -3.61092 -3.83302 0
M  V30 2224 H 211.506 -2.87022 -2.45819 0
M  V30 2225 H 211.819 -6.25704 -4.53557 0
M  V30 2226 H 210.164 -5.62305 -4.08459 0
M  V30 2227 H 213.355 -3.60953 -2.98045 0
M  V30 2228 H 213.528 -5.15381 -3.92793 0
M  V30 2229 N 206.934 1.1197 -1.10907 0
M  V30 2230 C 208.183 1.82947 -0.849302 0
M  V30 2231 C 208.496 1.85275 0.627112 0
M  V30 2232 O 209.702 2.52296 1.00295 0
M  V30 2233 C 208.158 3.28529 -1.46959 0
M  V30 2234 C 207.766 3.34546 -2.97965 0
M  V30 2235 C 209.51 4.04443 -1.28942 0
M  V30 2236 C 207.417 4.74491 -3.53004 0
M  V30 2237 H 206.347 0.685477 -0.314065 0
M  V30 2238 H 208.998 1.2604 -1.33365 0
M  V30 2239 H 207.38 3.85333 -0.912917 0
M  V30 2240 H 208.554 2.87654 -3.59989 0
M  V30 2241 H 206.869 2.72108 -3.15192 0
M  V30 2242 H 209.466 5.07787 -1.67502 0
M  V30 2243 H 209.809 4.15656 -0.231456 0
M  V30 2244 H 210.342 3.5401 -1.81443 0
M  V30 2245 H 207.081 4.68474 -4.58489 0
M  V30 2246 H 206.601 5.21816 -2.9575 0
M  V30 2247 H 208.28 5.4344 -3.51115 0
M  V30 2248 N 208.412 0.89855 1.29475 0
M  V30 2249 C 209.828 0.594483 1.48115 0
M  V30 2250 C 210.028 -0.86431 1.82022 0
M  V30 2251 O 209.084 -1.64457 1.91599 0
M  V30 2252 C 210.397 1.51932 2.59494 0
M  V30 2253 C 211.945 1.5244 2.7337 0
M  V30 2254 C 212.42 2.43548 3.87877 0
M  V30 2255 N 213.911 2.41589 3.95208 0
M  V30 2256 C 214.646 3.08789 4.83153 0
M  V30 2257 N 214.142 3.85265 5.75798 0
M  V30 2258 N 215.935 2.97952 4.76635 0
M  V30 2259 H 208.086 1.84207 1.05742 0
M  V30 2260 H 210.349 0.789251 0.525154 0
M  V30 2261 H 210.055 2.55865 2.41301 0
M  V30 2262 H 209.929 1.23899 3.56271 0
M  V30 2263 H 212.316 0.492518 2.90961 0
M  V30 2264 H 212.397 1.8451 1.77172 0
M  V30 2265 H 212.041 3.46829 3.71041 0
M  V30 2266 H 211.971 2.08788 4.83441 0
M  V30 2267 H 214.462 1.86025 3.28943 0
M  V30 2268 H 214.775 4.33598 6.39697 0
M  V30 2269 H 213.12 3.89371 5.75687 0
M  V30 2270 H 216.311 2.37723 4.03244 0
M  V30 2271 H 216.484 3.50599 5.44962 0
M  V30 2272 N 209.89 -1.43072 0.660911 0
M  V30 2273 C 211.136 -2.0202 0.177708 0
M  V30 2274 C 211.469 -1.52066 -1.20787 0
M  V30 2275 O 210.744 -0.716987 -1.80802 0
M  V30 2276 C 211.027 -3.59561 0.197019 0
M  V30 2277 C 210.88 -4.19727 1.61706 0
M  V30 2278 C 212.199 -4.37664 -0.462396 0
M  V30 2279 H 209.318 -0.734034 0.0660494 0
M  V30 2280 H 211.96 -1.70272 0.843058 0
M  V30 2281 H 210.11 -3.86739 -0.369527 0
M  V30 2282 H 211.782 -4.03553 2.23479 0
M  V30 2283 H 210.025 -3.76084 2.16201 0
M  V30 2284 H 210.696 -5.28834 1.58237 0
M  V30 2285 H 213.172 -4.16095 0.0197215 0
M  V30 2286 H 212.048 -5.47305 -0.418188 0
M  V30 2287 H 212.309 -4.14493 -1.53778 0
M  V30 2288 N 211.368 -0.403325 -1.52352 0
M  V30 2289 C 212.315 0.425011 -2.26853 0
M  V30 2290 C 213.285 1.04598 -1.29029 0
M  V30 2291 O 214.47 1.07135 -1.57882 0
M  V30 2292 C 211.61 1.53888 -3.08889 0
M  V30 2293 C 210.723 0.939396 -4.21663 0
M  V30 2294 C 209.858 2.02547 -4.91068 0
M  V30 2295 C 208.897 1.40263 -5.95813 0
M  V30 2296 N 208.034 2.4286 -6.58759 0
M  V30 2297 H 212.874 -0.21674 -2.97211 0
M  V30 2298 H 210.411 -0.118722 -1.4662 0
M  V30 2299 H 212.369 2.19558 -3.54753 0
M  V30 2300 H 210.999 2.15074 -2.40714 0
M  V30 2301 H 210.051 0.171898 -3.80011 0
M  V30 2302 H 211.363 0.44436 -4.96817 0
M  V30 2303 H 210.517 2.75958 -5.40308 0
M  V30 2304 H 209.256 2.55415 -4.15469 0
M  V30 2305 H 208.261 0.653833 -5.45898 0
M  V30 2306 H 209.486 0.881719 -6.73352 0
M  V30 2307 H 207.432 2.94871 -5.85992 0
M  V30 2308 H 207.349 1.98152 -7.2957 0
M  V30 2309 H 208.617 3.15858 -7.12639 0
M  V30 2310 N 212.846 1.57033 -0.133567 0
M  V30 2311 C 214.074 2.00044 0.528195 0
M  V30 2312 C 214.489 1.01349 1.59291 0
M  V30 2313 O 213.846 0.00848369 1.82498 0
M  V30 2314 C 213.897 3.43018 1.1411 0
M  V30 2315 O 213.618 4.37939 0.11892 0
M  V30 2316 C 215.119 4.01237 1.88477 0
M  V30 2317 H 212.339 0.656517 0.138661 0
M  V30 2318 H 214.883 2.03267 -0.224196 0
M  V30 2319 H 213.038 3.40688 1.84418 0
M  V30 2320 H 213.452 5.21436 0.56613 0
M  V30 2321 H 214.926 5.03314 2.26669 0
M  V30 2322 H 215.403 3.41193 2.76558 0
M  V30 2323 H 216.009 4.07156 1.22898 0
M  V30 2324 N 214.325 -0.140222 1.56975 0
M  V30 2325 C 215.555 -0.865181 1.87612 0
M  V30 2326 C 215.963 -1.74942 0.72055 0
M  V30 2327 O 215.306 -1.80917 -0.318561 0
M  V30 2328 C 215.368 -1.76782 3.13031 0
M  V30 2329 C 215.032 -1.06005 4.44536 0
M  V30 2330 C 216.029 -0.410768 5.18275 0
M  V30 2331 C 213.714 -1.04754 4.91255 0
M  V30 2332 C 215.708 0.241572 6.36942 0
M  V30 2333 C 213.395 -0.391394 6.09845 0
M  V30 2334 C 214.393 0.252029 6.82535 0
M  V30 2335 O 214.081 0.897757 7.98871 0
M  V30 2336 H 213.813 -0.255188 0.625983 0
M  V30 2337 H 216.367 -0.135653 2.04952 0
M  V30 2338 H 214.597 -2.53846 2.91718 0
M  V30 2339 H 216.286 -2.36533 3.29859 0
M  V30 2340 H 217.052 -0.412195 4.83245 0
M  V30 2341 H 212.931 -1.53777 4.34596 0
M  V30 2342 H 216.475 0.744375 6.93617 0
M  V30 2343 H 212.372 -0.387656 6.44335 0
M  V30 2344 H 213.14 0.800102 8.1458 0
M  V30 2345 N 215.803 -1.52179 -0.40978 0
M  V30 2346 C 217.031 -1.70054 -1.17853 0
M  V30 2347 C 217.446 -0.409735 -1.843 0
M  V30 2348 O 216.803 0.614183 -1.71855 0
M  V30 2349 C 216.854 -2.83568 -2.24213 0
M  V30 2350 O 216.575 -4.0765 -1.60478 0
M  V30 2351 C 218.076 -3.12947 -3.13973 0
M  V30 2352 H 215.296 -0.569917 -0.354169 0
M  V30 2353 H 217.84 -1.98734 -0.482198 0
M  V30 2354 H 215.995 -2.57409 -2.89516 0
M  V30 2355 H 216.409 -4.70899 -2.30986 0
M  V30 2356 H 217.883 -3.95889 -3.84677 0
M  V30 2357 H 218.36 -2.26472 -3.76307 0
M  V30 2358 H 218.966 -3.40868 -2.5434 0
M  V30 2359 N 217.281 0.66697 -1.42791 0
M  V30 2360 C 218.558 1.4234 -1.34159 0
M  V30 2361 C 218.938 2.11093 0.0172729 0
M  V30 2362 O 218.286 2.03808 1.03318 0
M  V30 2363 C 218.496 2.41942 -2.51526 0
M  V30 2364 C 219.844 3.06353 -2.93995 0
M  V30 2365 O 220.868 2.52269 -2.51473 0
M  V30 2366 O 219.727 4.04376 -3.67617 0
M  V30 2367 H 216.821 0.635277 -0.529483 0
M  V30 2368 H 219.367 0.695034 -1.54814 0
M  V30 2369 H 218.139 1.89991 -3.42081 0
M  V30 2370 H 217.762 3.22249 -2.32898 0
M  V30 2371 N 218.759 1.29093 0.90403 0
M  V30 2372 C 219.669 1.15727 2.0407 0
M  V30 2373 C 220.685 0.0815308 1.73809 0
M  V30 2374 O 221.861 0.292749 1.99261 0
M  V30 2375 C 218.926 0.830424 3.36608 0
M  V30 2376 C 217.987 1.98955 3.80415 0
M  V30 2377 C 217.22 1.6782 5.06628 0
M  V30 2378 O 217.443 0.597105 5.67266 0
M  V30 2379 O 216.377 2.52486 5.46383 0
M  V30 2380 H 220.203 2.11171 2.18267 0
M  V30 2381 H 217.788 1.08504 1.027 0
M  V30 2382 H 219.67 0.662521 4.16159 0
M  V30 2383 H 218.345 -0.0942678 3.23563 0
M  V30 2384 H 217.252 2.21267 3.01648 0
M  V30 2385 H 218.585 2.89529 3.98037 0
M  V30 2386 N 220.237 -1.11381 1.11499 0
M  V30 2387 C 221.167 -2.19509 0.796125 0
M  V30 2388 C 222.148 -1.68458 -0.235796 0
M  V30 2389 O 223.333 -1.93947 -0.0991344 0
M  V30 2390 C 220.463 -3.46475 0.239205 0
M  V30 2391 C 219.417 -4.10744 1.20307 0
M  V30 2392 C 218.743 -5.32293 0.50683 0
M  V30 2393 C 220.043 -4.55597 2.55399 0
M  V30 2394 H 221.737 -2.46439 1.70024 0
M  V30 2395 H 219.283 -1.18446 0.818935 0
M  V30 2396 H 221.236 -4.214 0.00392006 0
M  V30 2397 H 219.96 -3.19006 -0.700206 0
M  V30 2398 H 218.619 -3.37813 1.42399 0
M  V30 2399 H 218.267 -5.01095 -0.437408 0
M  V30 2400 H 217.967 -5.76243 1.1497 0
M  V30 2401 H 219.491 -6.09956 0.280351 0
M  V30 2402 H 220.905 -5.21841 2.37391 0
M  V30 2403 H 219.302 -5.10363 3.15673 0
M  V30 2404 H 220.372 -3.69013 3.14575 0
M  V30 2405 N 221.715 -0.905404 -1.28997 0
M  V30 2406 C 222.943 -0.549846 -1.9946 0
M  V30 2407 C 223.358 0.866834 -1.67724 0
M  V30 2408 O 222.715 1.57298 -0.925404 0
M  V30 2409 C 222.766 -0.739387 -3.53858 0
M  V30 2410 O 222.487 -2.10031 -3.84472 0
M  V30 2411 C 223.988 -0.389541 -4.41585 0
M  V30 2412 H 221.208 -0.210429 -0.637151 0
M  V30 2413 H 223.752 -1.21632 -1.64396 0
M  V30 2414 H 221.907 -0.120023 -3.87214 0
M  V30 2415 H 222.321 -2.13385 -4.79132 0
M  V30 2416 H 223.795 -0.572972 -5.49018 0
M  V30 2417 H 224.272 0.673756 -4.34001 0
M  V30 2418 H 224.878 -0.986089 -4.1371 0
M  V30 2419 N 223.193 1.4272 -0.668489 0
M  V30 2420 C 224.604 1.84793 -0.266151 0
M  V30 2421 C 224.955 1.55959 1.19043 0
M  V30 2422 O 224.08 1.01622 1.91055 0
M  V30 2423 C 224.675 3.35436 -0.476271 0
M  V30 2424 C 223.234 3.76182 -0.128113 0
M  V30 2425 C 222.381 2.66344 -0.771777 0
M  V30 2426 H 225.332 1.32656 -0.871098 0
M  V30 2427 H 225.353 3.79515 0.273561 0
M  V30 2428 H 224.865 3.5639 -1.53647 0
M  V30 2429 H 222.966 3.60836 0.928891 0
M  V30 2430 H 223.079 4.75766 -0.564231 0
M  V30 2431 H 221.443 2.53885 -0.203652 0
M  V30 2432 H 222.226 2.90123 -1.83531 0
M  V30 2433 N 224.671 0.411399 1.52136 0
M  V30 2434 C 225.92 -0.165009 2.01024 0
M  V30 2435 C 226.233 -1.4603 1.30133 0
M  V30 2436 O 227.439 -2.1181 1.69849 0
M  V30 2437 C 225.895 -0.344618 3.58246 0
M  V30 2438 C 225.503 0.938716 4.38055 0
M  V30 2439 C 227.247 -0.876195 4.15359 0
M  V30 2440 C 225.154 0.726172 5.86925 0
M  V30 2441 H 224.084 -0.0654407 0.751155 0
M  V30 2442 H 226.735 0.537192 1.75461 0
M  V30 2443 H 225.117 -1.10921 3.80148 0
M  V30 2444 H 226.291 1.70963 4.27912 0
M  V30 2445 H 224.606 1.39688 3.92271 0
M  V30 2446 H 227.203 -1.05128 5.24263 0
M  V30 2447 H 227.546 -1.85152 3.7286 0
M  V30 2448 H 228.079 -0.170607 3.97434 0
M  V30 2449 H 224.818 1.67312 6.33788 0
M  V30 2450 H 224.338 -0.00540283 5.998 0
M  V30 2451 H 226.017 0.369231 6.45946 0
M  V30 2452 N 226.149 -1.5696 0.141893 0
M  V30 2453 C 227.059 -2.20066 -0.812905 0
M  V30 2454 C 228.075 -1.18344 -1.27557 0
M  V30 2455 O 229.251 -1.50902 -1.33381 0
M  V30 2456 C 226.316 -2.80583 -2.03652 0
M  V30 2457 C 225.377 -3.97414 -1.62359 0
M  V30 2458 C 224.61 -4.55036 -2.78887 0
M  V30 2459 O 224.833 -4.11538 -3.94959 0
M  V30 2460 O 223.767 -5.45376 -2.54653 0
M  V30 2461 H 227.593 -3.02157 -0.305746 0
M  V30 2462 H 225.178 -1.49159 -0.0848799 0
M  V30 2463 H 227.06 -3.19067 -2.75272 0
M  V30 2464 H 225.735 -2.01508 -2.5333 0
M  V30 2465 H 224.642 -3.63656 -0.877775 0
M  V30 2466 H 225.975 -4.77994 -1.17401 0
M  V30 2467 N 227.627 0.131896 -1.57047 0
M  V30 2468 C 228.852 0.860418 -1.8871 0
M  V30 2469 C 229.277 1.73251 -0.73251 0
M  V30 2470 O 228.635 1.785 0.317429 0
M  V30 2471 C 228.683 1.68047 -3.19049 0
M  V30 2472 O 227.787 2.7862 -3.04047 0
M  V30 2473 H 227.128 0.238743 -0.619595 0
M  V30 2474 H 229.658 0.118169 -2.04258 0
M  V30 2475 H 229.668 2.07238 -3.51449 0
M  V30 2476 H 228.343 1.04018 -4.02682 0
M  V30 2477 H 226.92 2.42726 -2.83088 0
M  V30 2478 N 229.106 1.52395 0.401703 0
M  V30 2479 C 230.069 1.75636 1.47257 0
M  V30 2480 C 231.069 0.62628 1.48103 0
M  V30 2481 O 232.259 0.894227 1.49497 0
M  V30 2482 C 229.391 1.84553 2.86624 0
M  V30 2483 H 230.584 2.71241 1.27938 0
M  V30 2484 H 228.137 1.42923 0.632662 0
M  V30 2485 H 228.872 0.908882 3.11303 0
M  V30 2486 H 228.657 2.66715 2.87412 0
M  V30 2487 H 230.147 2.04251 3.64241 0
M  V30 2488 N 230.584 -0.659388 1.43143 0
M  V30 2489 C 231.83 -1.42145 1.44647 0
M  V30 2490 C 232.163 -1.9408 0.0681907 0
M  V30 2491 O 231.438 -1.71899 -0.910007 0
M  V30 2492 C 231.721 -2.60735 2.48373 0
M  V30 2493 C 231.574 -2.14332 3.95451 0
M  V30 2494 C 232.893 -3.62951 2.48906 0
M  V30 2495 H 230.012 -0.51552 0.526696 0
M  V30 2496 H 232.654 -0.748069 1.74654 0
M  V30 2497 H 230.804 -3.18184 2.22916 0
M  V30 2498 H 232.476 -1.61932 4.31944 0
M  V30 2499 H 230.719 -1.4576 4.08578 0
M  V30 2500 H 231.39 -2.99583 4.63631 0
M  V30 2501 H 233.866 -3.1525 2.71582 0
M  V30 2502 H 232.742 -4.43487 3.23435 0
M  V30 2503 H 233.003 -4.15126 1.52061 0
M  V30 2504 N 232.062 -1.29571 -0.897171 0
M  V30 2505 C 233.287 -1.20705 -1.68656 0
M  V30 2506 C 233.712 0.228582 -1.86706 0
M  V30 2507 O 233.07 1.16494 -1.3892 0
M  V30 2508 C 233.118 -1.9282 -3.04717 0
M  V30 2509 O 232.222 -1.24697 -3.93096 0
M  V30 2510 H 231.563 -0.418126 -0.515816 0
M  V30 2511 H 234.093 -1.71183 -1.12061 0
M  V30 2512 H 234.103 -2.01372 -3.54843 0
M  V30 2513 H 232.778 -2.97239 -2.90899 0
M  V30 2514 H 231.355 -1.2442 -3.51531 0
M  V30 2515 N 233.54 1.10788 -1.12088 0
M  V30 2516 C 234.786 1.82942 -0.875226 0
M  V30 2517 C 235.119 1.84779 0.597538 0
M  V30 2518 O 234.394 1.30578 1.44152 0
M  V30 2519 C 234.677 3.29789 -1.44606 0
M  V30 2520 C 234.53 3.36307 -2.98693 0
M  V30 2521 C 235.849 4.26064 -1.10261 0
M  V30 2522 H 232.968 0.664195 -0.319397 0
M  V30 2523 H 235.61 1.29867 -1.38689 0
M  V30 2524 H 233.76 3.75118 -1.01089 0
M  V30 2525 H 235.432 2.99487 -3.50864 0
M  V30 2526 H 233.675 2.76318 -3.34411 0
M  V30 2527 H 234.346 4.39694 -3.33726 0
M  V30 2528 H 236.822 3.88951 -1.4784 0
M  V30 2529 H 235.698 5.27183 -1.52869 0
M  V30 2530 H 235.959 4.42098 -0.0142953 0
M  V30 2531 N 235.018 0.912232 1.28515 0
M  V30 2532 C 236.265 0.544599 1.95039 0
M  V30 2533 C 236.593 -0.911435 1.71823 0
M  V30 2534 O 235.848 -1.66317 1.03137 0
M  V30 2535 C 236.147 0.798392 3.48368 0
M  V30 2536 C 235.813 2.23374 3.91682 0
M  V30 2537 C 234.475 2.62617 4.03219 0
M  V30 2538 C 236.827 3.16786 4.13879 0
M  V30 2539 C 234.155 3.94429 4.3433 0
M  V30 2540 C 236.507 4.48161 4.46469 0
M  V30 2541 C 235.171 4.8726 4.56217 0
M  V30 2542 H 234.441 0.199283 0.7137 0
M  V30 2543 H 237.088 1.15327 1.52879 0
M  V30 2544 H 235.393 0.106908 3.91654 0
M  V30 2545 H 237.09 0.493141 3.97956 0
M  V30 2546 H 233.68 1.91922 3.83228 0
M  V30 2547 H 237.864 2.87677 4.0442 0
M  V30 2548 H 233.12 4.24426 4.40082 0
M  V30 2549 H 237.294 5.20559 4.62592 0
M  V30 2550 H 234.921 5.89431 4.80078 0
M  V30 2551 N 236.496 -1.42363 0.676048 0
M  V30 2552 C 237.443 -2.308 -0.00150904 0
M  V30 2553 C 238.413 -1.46032 -0.791444 0
M  V30 2554 O 239.598 -1.74861 -0.76344 0
M  V30 2555 C 236.738 -3.31883 -0.945919 0
M  V30 2556 C 235.851 -4.31741 -0.149675 0
M  V30 2557 C 234.986 -5.19898 -1.08995 0
M  V30 2558 C 234.025 -6.11434 -0.285465 0
M  V30 2559 N 233.162 -6.92138 -1.17851 0
M  V30 2560 H 238.002 -2.88187 0.758455 0
M  V30 2561 H 235.539 -1.41952 0.38576 0
M  V30 2562 H 237.497 -3.89019 -1.50731 0
M  V30 2563 H 236.127 -2.76093 -1.6725 0
M  V30 2564 H 235.179 -3.76713 0.528359 0
M  V30 2565 H 236.491 -4.96534 0.474866 0
M  V30 2566 H 235.645 -5.81772 -1.72123 0
M  V30 2567 H 234.384 -4.55284 -1.74837 0
M  V30 2568 H 233.389 -5.48627 0.359018 0
M  V30 2569 H 234.614 -6.78097 0.368883 0
M  V30 2570 H 232.56 -6.30152 -1.82332 0
M  V30 2571 H 232.477 -7.53542 -0.609082 0
M  V30 2572 H 233.745 -7.58499 -1.79722 0
M  V30 2573 N 237.974 -0.419461 -1.51915 0
M  V30 2574 C 238.937 0.389116 -2.25873 0
M  V30 2575 C 239.937 0.964924 -1.28631 0
M  V30 2576 O 241.127 0.842179 -1.52489 0
M  V30 2577 C 238.259 1.54874 -3.03689 0
M  V30 2578 H 239.452 -0.258799 -2.98781 0
M  V30 2579 H 237.005 -0.172209 -1.55348 0
M  V30 2580 H 237.74 2.23323 -2.35154 0
M  V30 2581 H 237.525 1.14223 -3.75094 0
M  V30 2582 H 239.015 2.12046 -3.59759 0
M  V30 2583 N 239.452 1.56882 -0.150215 0
M  V30 2584 C 240.415 2.1573 0.774157 0
M  V30 2585 C 241.415 1.0999 1.17298 0
M  V30 2586 O 242.605 1.35613 1.09338 0
M  V30 2587 C 239.737 2.72302 2.05096 0
M  V30 2588 H 240.93 2.98752 0.262201 0
M  V30 2589 H 238.483 1.55985 0.099248 0
M  V30 2590 H 239.218 1.92956 2.6065 0
M  V30 2591 H 239.003 3.49665 1.77416 0
M  V30 2592 H 240.493 3.17632 2.71109 0
M  V30 2593 N 240.93 -0.123565 1.57115 0
M  V30 2594 C 241.878 -1.17082 2.00984 0
M  V30 2595 C 242.872 -1.43136 0.906009 0
M  V30 2596 O 244.078 -1.43152 1.09121 0
M  V30 2597 H 240.453 -0.394653 0.64012 0
M  V30 2598 H 242.424 -0.774292 2.88179 0
M  V30 2599 C 241.173 -2.49057 2.42623 0
M  V30 2600 H 240.496 -2.29846 3.27125 0
M  V30 2601 H 241.936 -3.20906 2.7712 0
M  V30 2602 C 240.395 -3.11305 1.28805 0
M  V30 2603 O 240.925 -3.97171 0.60153 0
M  V30 2604 N 239.131 -2.71111 1.04628 0
M  V30 2605 H 238.678 -2.01382 1.60634 0
M  V30 2606 H 238.636 -3.1309 0.286685 0
M  V30 2607 N 242.408 -1.52605 -0.393616 0
M  V30 2608 C 243.654 -1.68624 -1.13743 0
M  V30 2609 C 244.009 -0.418687 -1.87789 0
M  V30 2610 O 243.302 0.58747 -1.82371 0
M  V30 2611 C 243.496 -2.85721 -2.14705 0
M  V30 2612 C 243.325 -4.23742 -1.50575 0
M  V30 2613 C 242.095 -4.89033 -1.2718 0
M  V30 2614 C 244.293 -5.05293 -0.958311 0
M  V30 2615 N 242.275 -6.11048 -0.591058 0
M  V30 2616 C 243.646 -6.18673 -0.405367 0
M  V30 2617 C 245.701 -4.90517 -0.854274 0
M  V30 2618 C 244.404 -7.18895 0.241434 0
M  V30 2619 C 246.43 -5.90986 -0.221301 0
M  V30 2620 C 245.792 -7.03669 0.320894 0
M  V30 2621 H 241.891 -0.670556 -0.402342 0
M  V30 2622 H 244.475 -1.89946 -0.427607 0
M  V30 2623 H 242.646 -2.65987 -2.83029 0
M  V30 2624 H 244.378 -2.90699 -2.8156 0
M  V30 2625 H 241.133 -4.47672 -1.54554 0
M  V30 2626 H 241.557 -6.76474 -0.266862 0
M  V30 2627 H 246.199 -4.03612 -1.25926 0
M  V30 2628 H 243.917 -8.05413 0.658448 0
M  V30 2629 H 247.503 -5.81626 -0.142111 0
M  V30 2630 H 246.383 -7.80078 0.802956 0
M  V30 2631 N 243.887 0.651787 -1.4349 0
M  V30 2632 C 245.117 1.43728 -1.48411 0
M  V30 2633 C 245.525 1.8893 -0.10103 0
M  V30 2634 O 244.868 1.60182 0.899307 0
M  V30 2635 C 244.93 2.70411 -2.36893 0
M  V30 2636 C 244.594 2.4714 -3.8441 0
M  V30 2637 C 245.591 2.10271 -4.75481 0
M  V30 2638 C 243.276 2.6142 -4.28912 0
M  V30 2639 C 245.27 1.87982 -6.0905 0
M  V30 2640 C 242.957 2.38746 -5.62533 0
M  V30 2641 C 243.955 2.02083 -6.5242 0
M  V30 2642 O 243.643 1.79647 -7.8357 0
M  V30 2643 H 243.375 0.447962 -0.506267 0
M  V30 2644 H 245.929 0.80624 -1.88915 0
M  V30 2645 H 244.159 3.36079 -1.91278 0
M  V30 2646 H 245.848 3.32364 -2.33 0
M  V30 2647 H 246.614 1.98814 -4.42378 0
M  V30 2648 H 242.493 2.88931 -3.59222 0
M  V30 2649 H 246.037 1.5929 -6.7917 0
M  V30 2650 H 241.934 2.49806 -5.95203 0
M  V30 2651 H 242.702 1.9406 -7.95162 0
M  V30 2652 N 245.365 1.30045 0.890287 0
M  V30 2653 C 246.275 1.17885 2.02831 0
M  V30 2654 C 247.291 0.0999609 1.73713 0
M  V30 2655 O 248.467 0.313867 1.98939 0
M  V30 2656 C 245.532 0.866079 3.35708 0
M  V30 2657 C 244.593 2.02979 3.78283 0
M  V30 2658 C 243.826 1.73184 5.0482 0
M  V30 2659 O 244.049 0.657237 5.66601 0
M  V30 2660 O 242.983 2.58267 5.43674 0
M  V30 2661 H 246.809 2.13474 2.16015 0
M  V30 2662 H 244.394 1.09587 1.01543 0
M  V30 2663 H 246.276 0.706623 4.15433 0
M  V30 2664 H 244.951 -0.0599443 3.23644 0
M  V30 2665 H 243.858 2.24454 2.99285 0
M  V30 2666 H 245.191 2.93734 3.94944 0
M  V30 2667 N 246.843 -1.10192 1.12674 0
M  V30 2668 C 248.259 -1.34235 0.863317 0
M  V30 2669 C 248.459 -1.95062 -0.505277 0
M  V30 2670 O 247.515 -2.19192 -1.25345 0
M  V30 2671 C 248.828 -2.2616 1.98172 0
M  V30 2672 C 250.376 -2.3969 2.0129 0
M  V30 2673 C 250.851 -3.34946 3.1237 0
M  V30 2674 N 252.342 -3.42515 3.11829 0
M  V30 2675 C 253.077 -4.16199 3.94419 0
M  V30 2676 N 252.573 -4.92747 4.87004 0
M  V30 2677 N 254.366 -4.11843 3.82547 0
M  V30 2678 H 246.517 -0.690798 2.00853 0
M  V30 2679 H 248.78 -0.366774 0.874174 0
M  V30 2680 H 248.486 -1.8868 2.96804 0
M  V30 2681 H 248.36 -3.26488 1.88906 0
M  V30 2682 H 250.747 -2.76438 1.03276 0
M  V30 2683 H 250.828 -1.39169 2.14629 0
M  V30 2684 H 250.472 -2.98923 4.10619 0
M  V30 2685 H 250.402 -4.35353 2.96269 0
M  V30 2686 H 252.893 -2.87926 2.44759 0
M  V30 2687 H 253.206 -5.46376 5.46528 0
M  V30 2688 H 251.551 -4.91862 4.91016 0
M  V30 2689 H 254.742 -3.51136 3.0955 0
M  V30 2690 H 254.915 -4.69007 4.47142 0
M  V30 2691 N 248.321 -0.919034 -1.28029 0
M  V30 2692 C 249.231 -0.416756 -2.30869 0
M  V30 2693 C 250.247 0.498235 -1.66714 0
M  V30 2694 O 251.423 0.383144 -1.97722 0
M  V30 2695 C 248.488 0.330274 -3.45123 0
M  V30 2696 C 247.549 -0.618578 -4.2482 0
M  V30 2697 C 246.782 0.0928959 -5.33619 0
M  V30 2698 O 247.005 1.31375 -5.55065 0
M  V30 2699 O 245.939 -0.574499 -5.99152 0
M  V30 2700 H 249.765 -1.27043 -2.75851 0
M  V30 2701 H 247.35 -0.684052 -1.3282 0
M  V30 2702 H 249.232 0.751972 -4.14636 0
M  V30 2703 H 247.907 1.1597 -3.02213 0
M  V30 2704 H 246.814 -1.08978 -3.57875 0
M  V30 2705 H 248.147 -1.41497 -4.71423 0
M  V30 2706 N 249.799 1.42003 -0.683588 0
M  V30 2707 C 251.048 2.00638 -0.206681 0
M  V30 2708 C 251.361 1.5472 1.19671 0
M  V30 2709 O 252.567 2.05833 1.77045 0
M  V30 2710 C 251.023 3.58487 -0.318632 0
M  V30 2711 C 250.631 4.1339 -1.72663 0
M  V30 2712 C 252.375 4.24384 0.0991141 0
M  V30 2713 C 250.282 5.63633 -1.79087 0
M  V30 2714 H 249.212 0.750408 -0.0735107 0
M  V30 2715 H 251.863 1.62624 -0.850048 0
M  V30 2716 H 250.245 3.94047 0.392781 0
M  V30 2717 H 251.419 3.89273 -2.46583 0
M  V30 2718 H 249.734 3.59976 -2.09299 0
M  V30 2719 H 252.331 5.34652 0.0713833 0
M  V30 2720 H 252.674 4.00505 1.13586 0
M  V30 2721 H 253.207 3.93816 -0.561599 0
M  V30 2722 H 249.946 5.92323 -2.80774 0
M  V30 2723 H 249.466 5.89714 -1.09535 0
M  V30 2724 H 251.145 6.28201 -1.5483 0
M  V30 2725 N 251.277 0.427512 1.51691 0
M  V30 2726 C 252.523 -0.134744 2.02953 0
M  V30 2727 C 252.878 -1.41235 1.30654 0
M  V30 2728 O 252.171 -1.87168 0.409713 0
M  V30 2729 C 252.365 -0.418249 3.54944 0
M  V30 2730 C 252.194 0.830327 4.41968 0
M  V30 2731 C 250.964 1.36097 4.86627 0
M  V30 2732 C 253.162 1.7137 4.84909 0
M  V30 2733 N 251.144 2.56311 5.57833 0
M  V30 2734 C 252.515 2.76195 5.55082 0
M  V30 2735 C 254.57 1.72928 4.66905 0
M  V30 2736 C 253.273 3.82512 6.09161 0
M  V30 2737 C 255.299 2.78175 5.21894 0
M  V30 2738 C 254.661 3.8172 5.92004 0
M  V30 2739 H 250.76 -0.0103958 0.781931 0
M  V30 2740 H 253.344 0.585981 1.85673 0
M  V30 2741 H 251.515 -1.10801 3.7226 0
M  V30 2742 H 253.247 -0.970999 3.92879 0
M  V30 2743 H 250.002 0.916311 4.64651 0
M  V30 2744 H 250.426 3.17242 5.98069 0
M  V30 2745 H 255.068 0.942081 4.12171 0
M  V30 2746 H 252.786 4.62077 6.62956 0
M  V30 2747 H 256.372 2.8031 5.09821 0
M  V30 2748 H 255.252 4.61821 6.33791 0
M  V30 2749 N 252.755 -1.56801 0.158532 0
M  V30 2750 C 254.032 -1.88131 -0.535357 0
M  V30 2751 C 254.412 -1.06638 -1.82186 0
M  V30 2752 O 253.76 -0.156533 -2.27963 0
M  V30 2753 C 253.97 -3.39949 -0.789653 0
M  V30 2754 C 255.318 -4.09416 -1.12533 0
M  V30 2755 O 256.342 -3.45194 -0.878622 0
M  V30 2756 O 255.201 -5.22855 -1.59014 0
M  V30 2757 H 252.295 -0.780143 -0.27442 0
M  V30 2758 H 254.841 -1.68564 0.19601 0
M  V30 2759 H 253.613 -3.91115 0.120353 0
M  V30 2760 H 253.236 -3.65084 -1.57479 0
M  V30 2761 N 254.233 0.115231 -1.57178 0
M  V30 2762 C 255.166 1.17166 -1.95825 0
M  V30 2763 C 256.144 1.39912 -0.828463 0
M  V30 2764 O 257.328 1.54004 -1.08697 0
M  V30 2765 C 254.455 2.52478 -2.25771 0
M  V30 2766 C 253.501 2.46136 -3.48309 0
M  V30 2767 S 254.334 1.89736 -5.0076 0
M  V30 2768 C 255.49 3.26713 -5.33863 0
M  V30 2769 H 255.723 0.842103 -2.85124 0
M  V30 2770 H 253.256 0.322136 -1.51002 0
M  V30 2771 H 255.214 3.30332 -2.43702 0
M  V30 2772 H 253.875 2.82609 -1.37079 0
M  V30 2773 H 253.068 3.45819 -3.66641 0
M  V30 2774 H 252.67 1.76404 -3.29784 0
M  V30 2775 H 254.962 4.22935 -5.29275 0
M  V30 2776 H 255.905 3.13205 -6.35065 0
M  V30 2777 H 256.313 3.25316 -4.61335 0
M  V30 2778 N 255.711 1.52812 0.385517 0
M  V30 2779 C 256.958 1.68026 1.1302 0
M  V30 2780 C 257.286 0.421934 1.89868 0
M  V30 2781 O 256.541 -0.595749 1.86412 0
M  V30 2782 C 256.84 2.86856 2.13187 0
M  V30 2783 C 256.506 4.24159 1.5297 0
M  V30 2784 C 255.168 4.61501 1.36274 0
M  V30 2785 C 257.52 5.09627 1.09223 0
M  V30 2786 C 254.848 5.81966 0.743837 0
M  V30 2787 C 257.2 6.30719 0.487411 0
M  V30 2788 C 255.864 6.6679 0.307777 0
M  V30 2789 H 255.134 0.614849 0.413571 0
M  V30 2790 H 257.781 1.86962 0.414405 0
M  V30 2791 H 256.086 2.6235 2.90998 0
M  V30 2792 H 257.783 2.95821 2.70722 0
M  V30 2793 H 254.373 3.94746 1.66954 0
M  V30 2794 H 258.557 4.81343 1.20922 0
M  V30 2795 H 253.813 6.08519 0.592891 0
M  V30 2796 H 257.987 6.96259 0.140143 0
M  V30 2797 H 255.614 7.60001 -0.173879 0
M  V30 2798 N 257.189 -0.644168 1.43834 0
M  V30 2799 C 258.437 -1.40117 1.45642 0
M  V30 2800 C 258.758 -1.94814 0.0852413 0
M  V30 2801 O 258.028 -1.74988 -0.880688 0
M  V30 2802 H 256.608 -0.52005 0.536243 0
M  V30 2803 H 259.27 -0.7591 1.7951 0
M  V30 2804 H 258.366 -2.23902 2.17427 0
M  V30 2805 N 258.668 -1.30515 -0.883378 0
M  V30 2806 C 259.914 -1.19607 -1.63774 0
M  V30 2807 C 260.247 0.248314 -1.92606 0
M  V30 2808 O 259.522 1.17742 -1.54813 0
M  V30 2809 C 259.805 -2.02669 -2.97653 0
M  V30 2810 C 259.658 -3.55335 -2.75784 0
M  V30 2811 C 260.977 -1.86573 -3.98596 0
M  V30 2812 H 258.096 -0.435856 -0.594305 0
M  V30 2813 H 260.738 -1.60165 -1.02212 0
M  V30 2814 H 258.888 -1.68208 -3.50197 0
M  V30 2815 H 260.56 -3.99863 -2.30016 0
M  V30 2816 H 258.803 -3.79438 -2.1026 0
M  V30 2817 H 259.474 -4.08745 -3.70988 0
M  V30 2818 H 261.95 -2.16703 -3.55217 0
M  V30 2819 H 260.826 -2.47014 -4.90179 0
M  V30 2820 H 261.087 -0.825321 -4.34328 0
M  V30 2821 N 260.146 1.09593 -1.13257 0
M  V30 2822 C 261.393 1.81734 -0.893257 0
M  V30 2823 C 261.721 1.8563 0.580656 0
M  V30 2824 O 260.976 1.31906 1.44566 0
M  V30 2825 C 261.275 3.27802 -1.42411 0
M  V30 2826 C 260.941 3.44041 -2.91456 0
M  V30 2827 C 259.603 3.48181 -3.3215 0
M  V30 2828 C 261.955 3.48719 -3.87356 0
M  V30 2829 C 259.283 3.54575 -4.67433 0
M  V30 2830 C 261.635 3.56648 -5.2248 0
M  V30 2831 C 260.299 3.59055 -5.62704 0
M  V30 2832 H 259.569 0.665011 -0.326866 0
M  V30 2833 H 262.216 1.2912 -1.41422 0
M  V30 2834 H 260.521 3.83042 -0.823795 0
M  V30 2835 H 262.218 3.82149 -1.21503 0
M  V30 2836 H 258.808 3.41502 -2.58987 0
M  V30 2837 H 262.992 3.44763 -3.57004 0
M  V30 2838 H 258.248 3.54725 -4.97976 0
M  V30 2839 H 262.422 3.59212 -5.96607 0
M  V30 2840 H 260.049 3.63763 -6.67518 0
M  V30 2841 N 261.624 0.925811 1.2754 0
M  V30 2842 C 262.871 0.565255 1.94451 0
M  V30 2843 C 263.199 -0.89316 1.7278 0
M  V30 2844 O 262.454 -1.65213 1.04895 0
M  V30 2845 C 262.753 0.835296 3.47502 0
M  V30 2846 C 262.419 2.27515 3.89291 0
M  V30 2847 C 261.081 2.66879 4.00411 0
M  V30 2848 C 263.433 3.21158 4.10496 0
M  V30 2849 C 260.761 3.99014 4.30122 0
M  V30 2850 C 263.113 4.52871 4.4169 0
M  V30 2851 C 261.777 4.92072 4.51023 0
M  V30 2852 H 261.047 0.206841 0.711546 0
M  V30 2853 H 263.694 1.16942 1.51647 0
M  V30 2854 H 261.999 0.148442 3.91519 0
M  V30 2855 H 263.696 0.535322 3.97411 0
M  V30 2856 H 260.286 1.95976 3.81171 0
M  V30 2857 H 264.47 2.9195 4.01346 0
M  V30 2858 H 259.726 4.2907 4.35556 0
M  V30 2859 H 263.9 5.25436 4.57045 0
M  V30 2860 H 261.527 5.9449 4.738 0
M  V30 2861 N 263.102 -1.41638 0.69111 0
M  V30 2862 C 264.065 -2.29178 0.0319786 0
M  V30 2863 C 265.065 -1.44153 -0.712496 0
M  V30 2864 O 266.255 -1.65354 -0.548053 0
M  V30 2865 C 263.387 -3.26952 -0.965161 0
M  V30 2866 H 264.58 -2.88959 0.802681 0
M  V30 2867 H 262.133 -1.4955 0.454356 0
M  V30 2868 H 262.868 -2.72142 -1.76378 0
M  V30 2869 H 262.653 -3.89685 -0.434522 0
M  V30 2870 H 264.143 -3.92561 -1.42428 0
M  V30 2871 N 264.58 -0.43555 -1.51462 0
M  V30 2872 C 265.528 0.391205 -2.29287 0
M  V30 2873 C 266.522 1.02247 -1.35062 0
M  V30 2874 O 267.728 0.957646 -1.52411 0
M  V30 2875 H 264.103 0.144968 -0.737895 0
M  V30 2876 H 266.074 -0.286051 -2.97026 0
M  V30 2877 C 264.823 1.48096 -3.14583 0
M  V30 2878 H 264.146 1.00457 -3.86973 0
M  V30 2879 H 265.586 2.03273 -3.72097 0
M  V30 2880 C 264.045 2.46321 -2.29843 0
M  V30 2881 O 264.575 3.50815 -1.95682 0
M  V30 2882 N 262.781 2.17166 -1.931 0
M  V30 2883 H 262.328 1.32218 -2.21079 0
M  V30 2884 H 262.286 2.83127 -1.36698 0
M  V30 2885 N 266.058 1.56714 -0.166846 0
M  V30 2886 C 267.008 2.14338 0.777382 0
M  V30 2887 C 267.992 1.07642 1.19591 0
M  V30 2888 O 269.184 1.33775 1.15902 0
M  V30 2889 C 266.313 2.78417 2.00846 0
M  V30 2890 C 265.399 3.92264 1.61212 0
M  V30 2891 N 265.79 4.97268 0.925104 0
M  V30 2892 C 264.088 4.03342 1.90346 0
M  V30 2893 C 264.789 5.77093 0.730627 0
M  V30 2894 N 263.765 5.2854 1.27067 0
M  V30 2895 H 267.567 2.9289 0.243466 0
M  V30 2896 H 265.081 1.62364 0.0339954 0
M  V30 2897 H 267.078 3.18073 2.69509 0
M  V30 2898 H 265.738 2.01344 2.54736 0
M  V30 2899 H 266.749 5.14601 0.583646 0
M  V30 2900 H 263.426 3.37368 2.45946 0
M  V30 2901 H 264.816 6.71638 0.187668 0
M  V30 2902 N 267.536 -0.106894 1.57237 0
M  V30 2903 C 268.947 -0.662723 1.74542 0
M  V30 2904 C 269.298 -1.7971 0.787319 0
M  V30 2905 O 268.423 -2.16368 -0.0369636 0
M  V30 2906 C 269.018 -1.20896 3.16496 0
M  V30 2907 C 267.577 -1.71096 3.35266 0
M  V30 2908 C 266.724 -0.615642 2.7038 0
M  V30 2909 H 269.675 0.119106 1.58252 0
M  V30 2910 H 269.696 -2.07847 3.18716 0
M  V30 2911 H 269.208 -0.383122 3.86204 0
M  V30 2912 H 267.309 -2.56119 2.70618 0
M  V30 2913 H 267.422 -1.81208 4.43509 0
M  V30 2914 H 265.786 -1.05222 2.31949 0
M  V30 2915 H 266.569 0.199419 3.4272 0
M  V30 2916 N 269.014 -1.53014 -0.377408 0
M  V30 2917 C 270.291 -1.59215 -1.13622 0
M  V30 2918 C 270.671 -0.392407 -2.07421 0
M  V30 2919 O 270.019 0.618342 -2.19975 0
M  V30 2920 C 270.229 -2.93669 -1.88573 0
M  V30 2921 C 271.577 -3.47822 -2.43526 0
M  V30 2922 O 272.601 -2.9562 -1.98715 0
M  V30 2923 O 271.46 -4.39055 -3.25412 0
M  V30 2924 H 268.554 -0.642625 -0.52054 0
M  V30 2925 H 271.1 -1.65353 -0.381625 0
M  V30 2926 H 269.872 -3.7243 -1.20048 0
M  V30 2927 H 269.495 -2.90968 -2.70968 0
M  V30 2928 N 270.492 0.636531 -1.44174 0
M  V30 2929 C 271.422 1.76003 -1.53444 0
M  V30 2930 C 272.403 1.65619 -0.387841 0
M  V30 2931 O 273.588 1.84461 -0.607257 0
M  V30 2932 C 270.718 3.14511 -1.4731 0
M  V30 2933 C 269.672 3.39677 -2.60391 0
M  V30 2934 C 268.998 4.78159 -2.39308 0
M  V30 2935 C 270.298 3.32772 -4.02567 0
M  V30 2936 H 271.992 1.68501 -2.47483 0
M  V30 2937 H 269.538 0.809237 -1.19111 0
M  V30 2938 H 271.491 3.92878 -1.52397 0
M  V30 2939 H 270.215 3.22783 -0.49785 0
M  V30 2940 H 268.874 2.63688 -2.54684 0
M  V30 2941 H 268.522 4.83128 -1.39988 0
M  V30 2942 H 268.222 4.95956 -3.15122 0
M  V30 2943 H 269.746 5.58762 -2.46205 0
M  V30 2944 H 271.16 4.01051 -4.09672 0
M  V30 2945 H 269.557 3.62104 -4.7854 0
M  V30 2946 H 270.627 2.30669 -4.2652 0
M  V30 2947 N 271.97 1.30982 0.876444 0
M  V30 2948 C 273.386 1.09498 1.16113 0
M  V30 2949 C 273.586 -0.13875 2.01022 0
M  V30 2950 O 272.642 -0.829935 2.38471 0
M  V30 2951 C 273.955 2.36308 1.85954 0
M  V30 2952 C 275.503 2.41856 1.98683 0
M  V30 2953 C 275.978 3.6853 2.71937 0
M  V30 2954 N 277.469 3.69387 2.79477 0
M  V30 2955 C 278.204 4.64096 3.36753 0
M  V30 2956 N 277.7 5.69155 3.95012 0
M  V30 2957 N 279.493 4.51626 3.3465 0
M  V30 2958 H 271.644 2.10118 0.310494 0
M  V30 2959 H 273.907 0.926634 0.200131 0
M  V30 2960 H 273.613 3.26388 1.31011 0
M  V30 2961 H 273.487 2.4561 2.86278 0
M  V30 2962 H 275.874 1.52249 2.52793 0
M  V30 2963 H 275.955 2.36523 0.9742 0
M  V30 2964 H 275.599 4.58499 2.18496 0
M  V30 2965 H 275.529 3.71127 3.73593 0
M  V30 2966 H 278.02 2.93438 2.38123 0
M  V30 2967 H 278.333 6.3751 4.36808 0
M  V30 2968 H 276.678 5.72937 3.93406 0
M  V30 2969 H 279.869 3.68728 2.8837 0
M  V30 2970 H 280.042 5.25614 3.7899 0
M  V30 2971 N 273.449 -1.08991 1.13837 0
M  V30 2972 C 274.865 -1.33312 0.877506 0
M  V30 2973 C 275.065 -1.95587 -0.48456 0
M  V30 2974 O 274.121 -2.20509 -1.23013 0
M  V30 2975 C 275.434 -2.24045 2.0056 0
M  V30 2976 C 276.982 -2.37542 2.03821 0
M  V30 2977 C 277.457 -3.31614 3.15905 0
M  V30 2978 N 278.948 -3.39189 3.15445 0
M  V30 2979 C 279.683 -4.11992 3.98811 0
M  V30 2980 N 279.179 -4.87553 4.92203 0
M  V30 2981 N 280.972 -4.07762 3.86894 0
M  V30 2982 H 273.123 -0.669456 2.01574 0
M  V30 2983 H 275.386 -0.357482 0.878015 0
M  V30 2984 H 275.092 -1.85521 2.98789 0
M  V30 2985 H 274.966 -3.24466 1.92359 0
M  V30 2986 H 277.353 -2.75327 1.06202 0
M  V30 2987 H 277.434 -1.36884 2.16093 0
M  V30 2988 H 277.078 -2.94551 4.13766 0
M  V30 2989 H 277.008 -4.32186 3.0087 0
M  V30 2990 H 279.499 -2.85314 2.47799 0
M  V30 2991 H 279.812 -5.40549 5.52292 0
M  V30 2992 H 278.157 -4.86627 4.96205 0
M  V30 2993 H 281.348 -3.47833 3.13257 0
M  V30 2994 H 281.521 -4.64238 4.52092 0
M  V30 2995 N 274.927 -0.932562 -1.27047 0
M  V30 2996 C 276.176 -0.571351 -1.93439 0
M  V30 2997 C 276.489 0.892467 -1.74053 0
M  V30 2998 O 277.695 1.36267 -2.34826 0
M  V30 2999 C 276.151 -0.97106 -3.46552 0
M  V30 3000 C 275.759 -2.4559 -3.74686 0
M  V30 3001 C 277.503 -0.681333 -4.18997 0
M  V30 3002 C 275.41 -2.79475 -5.21198 0
M  V30 3003 H 274.34 -0.209966 -0.724176 0
M  V30 3004 H 276.991 -1.13403 -1.44263 0
M  V30 3005 H 275.373 -0.336983 -3.94564 0
M  V30 3006 H 276.547 -3.13829 -3.37414 0
M  V30 3007 H 274.862 -2.71802 -3.15456 0
M  V30 3008 H 277.459 -0.910939 -5.26883 0
M  V30 3009 H 277.802 0.381628 -4.14547 0
M  V30 3010 H 278.335 -1.27473 -3.76823 0
M  V30 3011 H 275.074 -3.847 -5.30741 0
M  V30 3012 H 274.594 -2.1589 -5.596 0
M  V30 3013 H 276.273 -2.67478 -5.89122 0
M  V30 3014 N 276.405 1.4127 -0.698611 0
M  V30 3015 C 277.335 2.33447 -0.049629 0
M  V30 3016 C 278.316 1.51982 0.763898 0
M  V30 3017 O 279.501 1.80509 0.716257 0
M  V30 3018 C 276.631 3.35828 0.885267 0
M  V30 3019 C 275.585 4.27627 0.178613 0
M  V30 3020 C 274.911 5.20406 1.22807 0
M  V30 3021 C 276.211 5.13459 -0.956933 0
M  V30 3022 H 277.905 2.87966 -0.81951 0
M  V30 3023 H 275.451 1.38461 -0.395538 0
M  V30 3024 H 277.404 3.9924 1.34854 0
M  V30 3025 H 276.128 2.79666 1.68685 0
M  V30 3026 H 274.787 3.65643 -0.26466 0
M  V30 3027 H 274.435 4.60558 2.02226 0
M  V30 3028 H 274.135 5.82661 0.760239 0
M  V30 3029 H 275.659 5.86695 1.69179 0
M  V30 3030 H 277.073 5.70421 -0.573805 0
M  V30 3031 H 275.47 5.8467 -1.35205 0
M  V30 3032 H 276.54 4.50443 -1.79524 0
M  V30 3033 N 277.883 0.443576 1.51229 0
M  V30 3034 C 279.111 -0.11929 2.06556 0
M  V30 3035 C 279.526 -1.35921 1.31038 0
M  V30 3036 O 278.883 -1.78675 0.371704 0
M  V30 3037 C 278.934 -0.435228 3.5887 0
M  V30 3038 O 278.655 0.755486 4.31537 0
M  V30 3039 C 280.156 -1.04808 4.30732 0
M  V30 3040 H 277.376 -0.0051584 0.67098 0
M  V30 3041 H 279.92 0.624453 1.94733 0
M  V30 3042 H 278.075 -1.12887 3.70588 0
M  V30 3043 H 278.489 0.483491 5.22267 0
M  V30 3044 H 279.963 -1.2191 5.3837 0
M  V30 3045 H 280.44 -2.03081 3.89429 0
M  V30 3046 H 281.046 -0.393637 4.23474 0
M  V30 3047 N 279.361 -1.56624 0.175154 0
M  V30 3048 C 280.638 -1.88688 -0.515373 0
M  V30 3049 C 281.018 -1.08564 -1.81044 0
M  V30 3050 O 280.366 -0.180703 -2.27784 0
M  V30 3051 C 280.576 -3.40768 -0.753552 0
M  V30 3052 C 281.924 -4.10587 -1.08184 0
M  V30 3053 O 282.948 -3.46106 -0.841961 0
M  V30 3054 O 281.807 -5.24512 -1.53459 0
M  V30 3055 H 278.901 -0.78301 -0.26613 0
M  V30 3056 H 281.447 -1.68347 0.213877 0
M  V30 3057 H 280.219 -3.90965 0.161829 0
M  V30 3058 H 279.842 -3.66733 -1.53598 0
M  V30 3059 N 280.839 0.0985539 -1.57292 0
M  V30 3060 C 282.069 0.815135 -1.8984 0
M  V30 3061 C 282.477 1.7297 -0.766679 0
M  V30 3062 O 281.82 1.81698 0.270483 0
M  V30 3063 C 281.882 1.6842 -3.17608 0
M  V30 3064 C 281.546 0.94182 -4.4719 0
M  V30 3065 C 282.543 0.273212 -5.19182 0
M  V30 3066 C 280.228 0.916927 -4.9386 0
M  V30 3067 C 282.222 -0.410361 -6.36078 0
M  V30 3068 C 279.909 0.229567 -6.10669 0
M  V30 3069 C 280.907 -0.432902 -6.81627 0
M  V30 3070 O 280.595 -1.10925 -7.9621 0
M  V30 3071 H 280.327 0.238501 -0.632529 0
M  V30 3072 H 282.881 0.0812659 -2.05239 0
M  V30 3073 H 281.111 2.46022 -2.98345 0
M  V30 3074 H 282.8 2.27704 -3.36015 0
M  V30 3075 H 283.566 0.283927 -4.84168 0
M  V30 3076 H 279.445 1.42201 -4.3852 0
M  V30 3077 H 282.989 -0.928013 -6.914 0
M  V30 3078 H 278.886 0.216686 -6.45136 0
M  V30 3079 H 279.654 -1.01579 -8.12172 0
M  V30 3080 N 282.317 1.53212 0.369288 0
M  V30 3081 C 283.565 1.68881 1.11012 0
M  V30 3082 C 283.886 0.441285 1.89941 0
M  V30 3083 O 283.156 -0.544623 1.88177 0
M  V30 3084 H 281.736 0.622569 0.412816 0
M  V30 3085 H 284.398 1.90391 0.416802 0
M  V30 3086 H 283.494 2.54822 1.80201 0
M  V30 3087 N 283.795 -0.628877 1.44509 0
M  V30 3088 C 285.042 -1.38839 1.47411 0
M  V30 3089 C 285.37 -1.94202 0.10757 0
M  V30 3090 O 284.625 -1.74243 -0.890947 0
M  V30 3091 C 284.924 -2.56995 2.48371 0
M  V30 3092 C 284.59 -2.19908 3.93639 0
M  V30 3093 C 283.252 -2.09506 4.33198 0
M  V30 3094 C 285.604 -1.9064 4.85083 0
M  V30 3095 C 282.932 -1.68028 5.62124 0
M  V30 3096 C 285.284 -1.50655 6.14399 0
M  V30 3097 C 283.948 -1.38796 6.5291 0
M  V30 3098 H 283.218 -0.508048 0.539414 0
M  V30 3099 H 285.865 -0.712913 1.77735 0
M  V30 3100 H 284.17 -3.29786 2.11538 0
M  V30 3101 H 285.867 -3.15223 2.47861 0
M  V30 3102 H 282.457 -2.28922 3.62343 0
M  V30 3103 H 286.641 -1.97585 4.55273 0
M  V30 3104 H 281.897 -1.57452 5.90778 0
M  V30 3105 H 286.071 -1.27048 6.84713 0
M  V30 3106 H 283.698 -1.06429 7.52713 0
M  V30 3107 N 285.273 -1.31445 -0.869486 0
M  V30 3108 C 286.183 -1.21097 -2.0093 0
M  V30 3109 C 287.199 -0.127584 -1.73532 0
M  V30 3110 O 288.375 -0.345477 -1.98415 0
M  V30 3111 C 285.44 -0.919378 -3.34288 0
M  V30 3112 C 284.501 -2.08971 -3.75006 0
M  V30 3113 C 283.734 -1.81194 -5.02001 0
M  V30 3114 O 283.957 -0.747296 -5.65484 0
M  V30 3115 O 282.891 -2.66883 -5.39497 0
M  V30 3116 H 286.717 -2.16883 -2.12592 0
M  V30 3117 H 284.302 -1.11189 -0.997868 0
M  V30 3118 H 286.184 -0.772625 -4.14257 0
M  V30 3119 H 284.859 0.00844772 -3.23699 0
M  V30 3120 H 283.766 -2.29187 -2.95676 0
M  V30 3121 H 285.099 -2.9998 -3.90221 0
M  V30 3122 N 286.751 1.08385 -1.14413 0
M  V30 3123 C 287.999 1.80419 -0.910679 0
M  V30 3124 C 288.32 1.86658 0.564243 0
M  V30 3125 O 287.59 1.35985 1.41014 0
M  V30 3126 H 286.17 0.668204 -0.333934 0
M  V30 3127 H 288.832 1.31037 -1.44275 0
M  V30 3128 H 287.928 2.83238 -1.31082 0
M  V30 3129 N 288.23 0.939286 1.26551 0
M  V30 3130 C 289.18 0.418284 2.2413 0
M  V30 3131 C 290.164 -0.483935 1.5345 0
M  V30 3132 O 291.356 -0.319489 1.74093 0
M  V30 3133 C 288.485 -0.31709 3.41832 0
M  V30 3134 C 287.571 0.602311 4.19801 0
M  V30 3135 N 287.962 1.72726 4.75394 0
M  V30 3136 C 286.26 0.407534 4.44134 0
M  V30 3137 C 286.961 2.30004 5.34297 0
M  V30 3138 N 285.937 1.58828 5.1988 0
M  V30 3139 H 289.739 1.27705 2.64705 0
M  V30 3140 H 287.253 0.794929 1.41614 0
M  V30 3141 H 289.25 -0.707364 4.10855 0
M  V30 3142 H 287.91 -1.17264 3.02786 0
M  V30 3143 H 288.921 2.10944 4.72994 0
M  V30 3144 H 285.598 -0.406406 4.15517 0
M  V30 3145 H 286.988 3.24778 5.88191 0
M  V30 3146 N 289.708 -1.40897 0.706093 0
M  V30 3147 C 291.119 -1.84023 0.315052 0
M  V30 3148 C 291.47 -1.5906 -1.14866 0
M  V30 3149 O 290.595 -1.06651 -1.88293 0
M  V30 3150 C 291.19 -3.34055 0.565038 0
M  V30 3151 C 289.749 -3.7571 0.227806 0
M  V30 3152 C 288.896 -2.64204 0.842122 0
M  V30 3153 H 291.847 -1.303 0.905963 0
M  V30 3154 H 291.868 -3.80107 -0.172843 0
M  V30 3155 H 291.38 -3.52192 1.63042 0
M  V30 3156 H 289.481 -3.63172 -0.832895 0
M  V30 3157 H 289.594 -4.74103 0.690174 0
M  V30 3158 H 287.958 -2.53255 0.270893 0
M  V30 3159 H 288.741 -2.85155 1.91158 0
M  V30 3160 N 291.186 -0.45159 -1.50991 0
M  V30 3161 C 292.433 0.110074 -2.02201 0
M  V30 3162 C 292.761 1.4146 -1.33489 0
M  V30 3163 O 292.016 1.90617 -0.443125 0
M  V30 3164 C 292.315 0.361728 -3.55565 0
M  V30 3165 C 291.981 -0.858717 -4.42648 0
M  V30 3166 C 290.643 -1.19338 -4.66167 0
M  V30 3167 C 292.995 -1.67221 -4.93646 0
M  V30 3168 C 290.323 -2.34195 -5.37931 0
M  V30 3169 C 292.675 -2.8119 -5.6667 0
M  V30 3170 C 291.339 -3.15094 -5.88449 0
M  V30 3171 H 290.609 0.040279 -0.739904 0
M  V30 3172 H 293.256 -0.601696 -1.81802 0
M  V30 3173 H 291.561 1.15554 -3.74372 0
M  V30 3174 H 293.258 0.80996 -3.92735 0
M  V30 3175 H 289.848 -0.58796 -4.24548 0
M  V30 3176 H 294.032 -1.42686 -4.75347 0
M  V30 3177 H 289.288 -2.6076 -5.53005 0
M  V30 3178 H 293.462 -3.44585 -6.05173 0
M  V30 3179 H 291.089 -4.04204 -6.43835 0
M  V30 3180 N 292.664 1.56529 -0.183458 0
M  V30 3181 C 294.08 1.58664 0.172554 0
M  V30 3182 C 294.28 1.19925 1.61926 0
M  V30 3183 O 293.336 0.916534 2.35278 0
M  V30 3184 C 294.649 3.00463 -0.119262 0
M  V30 3185 C 296.197 3.12945 -0.0584396 0
M  V30 3186 C 296.672 4.56857 -0.323408 0
M  V30 3187 N 298.163 4.62403 -0.271612 0
M  V30 3188 C 298.898 5.71626 -0.450639 0
M  V30 3189 N 298.394 6.89362 -0.689384 0
M  V30 3190 N 300.187 5.60775 -0.385701 0
M  V30 3191 H 292.338 1.79994 -1.12765 0
M  V30 3192 H 294.601 0.834808 -0.449222 0
M  V30 3193 H 294.307 3.33326 -1.12192 0
M  V30 3194 H 294.181 3.72659 0.583544 0
M  V30 3195 H 296.568 2.79902 0.934805 0
M  V30 3196 H 296.649 2.4316 -0.794144 0
M  V30 3197 H 296.293 4.9061 -1.31392 0
M  V30 3198 H 296.223 5.24816 0.43305 0
M  V30 3199 H 298.714 3.77785 -0.0932256 0
M  V30 3200 H 299.027 7.68489 -0.815113 0
M  V30 3201 H 297.372 6.91196 -0.726142 0
M  V30 3202 H 300.563 4.67674 -0.199687 0
M  V30 3203 H 300.736 6.4584 -0.528646 0
M  V30 3204 N 294.142 -0.090211 1.57342 0
M  V30 3205 C 295.089 -1.10909 2.02405 0
M  V30 3206 C 296.059 -1.39523 0.901252 0
M  V30 3207 O 297.244 -1.50903 1.1676 0
M  V30 3208 C 294.384 -2.42277 2.45755 0
M  V30 3209 C 293.497 -2.20352 3.71576 0
M  V30 3210 C 292.632 -3.45154 4.03785 0
M  V30 3211 C 291.671 -3.18512 5.22701 0
M  V30 3212 N 290.808 -4.35593 5.50639 0
M  V30 3213 H 295.648 -0.71782 2.89225 0
M  V30 3214 H 293.185 -0.342901 1.43048 0
M  V30 3215 H 295.143 -3.18951 2.68935 0
M  V30 3216 H 293.773 -2.79242 1.61938 0
M  V30 3217 H 292.825 -1.34458 3.55844 0
M  V30 3218 H 294.137 -1.96661 4.58395 0
M  V30 3219 H 293.291 -4.30233 4.27767 0
M  V30 3220 H 292.03 -3.71904 3.15498 0
M  V30 3221 H 291.035 -2.31827 4.98534 0
M  V30 3222 H 292.26 -2.93103 6.12591 0
M  V30 3223 H 290.206 -4.6241 4.6531 0
M  V30 3224 H 290.123 -4.1511 6.31838 0
M  V30 3225 H 291.391 -5.21723 5.7916 0
M  V30 3226 N 295.62 -1.53406 -0.361157 0
M  V30 3227 C 296.897 -1.60411 -1.11927 0
M  V30 3228 C 297.277 -0.414385 -2.06993 0
M  V30 3229 O 296.625 0.594976 -2.20618 0
M  V30 3230 C 296.835 -2.95652 -1.85448 0
M  V30 3231 C 298.183 -3.50386 -2.39823 0
M  V30 3232 O 299.207 -2.97711 -1.95568 0
M  V30 3233 O 298.066 -4.42482 -3.20737 0
M  V30 3234 H 295.16 -0.64811 -0.513695 0
M  V30 3235 H 297.706 -1.65749 -0.364065 0
M  V30 3236 H 296.478 -3.73682 -1.16091 0
M  V30 3237 H 296.101 -2.93825 -2.67866 0
M  V30 3238 N 297.098 0.621204 -1.44841 0
M  V30 3239 C 298.345 1.38055 -1.48145 0
M  V30 3240 C 298.673 1.94143 -0.117867 0
M  V30 3241 O 297.928 1.74713 0.881694 0
M  V30 3242 C 298.227 2.55675 -2.4973 0
M  V30 3243 C 297.893 2.17817 -3.94799 0
M  V30 3244 C 296.555 2.07205 -4.34303 0
M  V30 3245 C 298.907 1.88065 -4.86087 0
M  V30 3246 C 296.235 1.65045 -5.63007 0
M  V30 3247 C 298.587 1.47394 -6.15189 0
M  V30 3248 C 297.251 1.35331 -6.53637 0
M  V30 3249 H 296.521 0.505181 -0.542101 0
M  V30 3250 H 299.168 0.703477 -1.78111 0
M  V30 3251 H 297.473 3.2866 -2.13284 0
M  V30 3252 H 299.17 3.13904 -2.4953 0
M  V30 3253 H 295.76 2.26998 -3.63552 0
M  V30 3254 H 299.944 1.95168 -4.56315 0
M  V30 3255 H 295.2 1.54317 -5.91605 0
M  V30 3256 H 299.374 1.23415 -6.85377 0
M  V30 3257 H 297.001 1.02435 -7.53267 0
M  V30 3258 N 298.576 1.31904 0.862503 0
M  V30 3259 C 299.987 1.19803 1.43193 0
M  V30 3260 C 300.338 -0.192567 1.95253 0
M  V30 3261 O 299.463 -1.09081 1.86896 0
M  V30 3262 C 300.058 2.16883 2.60283 0
M  V30 3263 C 298.617 2.08692 3.13248 0
M  V30 3264 C 297.764 2.05691 1.85975 0
M  V30 3265 H 300.715 1.43846 0.670365 0
M  V30 3266 H 300.736 1.76278 3.37204 0
M  V30 3267 H 300.248 3.18083 2.22363 0
M  V30 3268 H 298.349 1.10713 3.55771 0
M  V30 3269 H 298.462 2.9815 3.75025 0
M  V30 3270 H 296.826 1.50814 2.05249 0
M  V30 3271 H 297.609 3.08659 1.50282 0
M  V30 3272 N 300.054 -1.07777 1.14986 0
M  V30 3273 C 300.984 -2.16865 0.865557 0
M  V30 3274 C 301.965 -1.69123 -0.182083 0
M  V30 3275 O 303.15 -1.94164 -0.0373815 0
M  V30 3276 C 300.28 -3.45539 0.349313 0
M  V30 3277 C 299.234 -4.06708 1.33313 0
M  V30 3278 C 298.56 -5.30411 0.675918 0
M  V30 3279 C 299.86 -4.47241 2.69764 0
M  V30 3280 H 301.554 -2.40905 1.77778 0
M  V30 3281 H 299.1 -1.15781 0.856203 0
M  V30 3282 H 301.053 -4.21174 0.137983 0
M  V30 3283 H 299.777 -3.21072 -0.598362 0
M  V30 3284 H 298.436 -3.33112 1.53075 0
M  V30 3285 H 298.084 -5.02232 -0.277767 0
M  V30 3286 H 297.784 -5.72293 1.33244 0
M  V30 3287 H 299.308 -6.08755 0.474262 0
M  V30 3288 H 300.722 -5.14025 2.53873 0
M  V30 3289 H 299.119 -5.00062 3.3175 0
M  V30 3290 H 300.189 -3.58818 3.26156 0
M  V30 3291 N 301.532 -0.945985 -1.26051 0
M  V30 3292 C 302.757 -0.612525 -1.98149 0
M  V30 3293 C 303.182 0.806623 -1.69927 0
M  V30 3294 O 302.54 1.54411 -0.950108 0
M  V30 3295 C 302.588 -0.866981 -3.50023 0
M  V30 3296 O 301.692 0.0585333 -4.12358 0
M  V30 3297 H 301.033 -0.23379 -0.621481 0
M  V30 3298 H 303.563 -1.27023 -1.60395 0
M  V30 3299 H 303.573 -0.789792 -4.00283 0
M  V30 3300 H 302.248 -1.90135 -3.69894 0
M  V30 3301 H 300.825 -0.0701241 -3.72834 0
M  V30 3302 N 303.011 1.40521 -0.713556 0
M  V30 3303 C 304.259 2.00527 -0.251692 0
M  V30 3304 C 304.58 1.56857 1.15848 0
M  V30 3305 O 303.85 0.807127 1.785 0
M  V30 3306 H 302.43 0.741551 -0.0900646 0
M  V30 3307 H 305.092 1.71887 -0.918733 0
M  V30 3308 H 304.188 3.10813 -0.283192 0
M  V30 3309 N 304.489 0.459591 1.5075 0
M  V30 3310 C 305.719 -0.0972338 2.06371 0
M  V30 3311 C 306.127 -1.35074 1.32483 0
M  V30 3312 O 305.47 -1.79637 0.384226 0
M  V30 3313 C 305.532 -0.462759 3.56509 0
M  V30 3314 C 305.196 0.687084 4.51805 0
M  V30 3315 C 306.193 1.56578 4.95761 0
M  V30 3316 C 303.878 0.874144 4.94635 0
M  V30 3317 C 305.872 2.61604 5.81242 0
M  V30 3318 C 303.559 1.92765 5.79901 0
M  V30 3319 C 304.557 2.79697 6.23104 0
M  V30 3320 O 304.245 3.83235 7.06673 0
M  V30 3321 H 303.977 -0.00140687 0.675999 0
M  V30 3322 H 306.531 0.644011 1.95043 0
M  V30 3323 H 304.761 -1.25703 3.65699 0
M  V30 3324 H 306.45 -0.953323 3.94546 0
M  V30 3325 H 307.216 1.4329 4.6335 0
M  V30 3326 H 303.095 0.207006 4.60535 0
M  V30 3327 H 306.639 3.29489 6.14884 0
M  V30 3328 H 302.536 2.06064 6.11725 0
M  V30 3329 H 303.304 3.80084 7.24899 0
M  V30 3330 N 305.967 -1.56429 0.191757 0
M  V30 3331 C 307.213 -1.97777 -0.448554 0
M  V30 3332 C 307.546 -1.07847 -1.61501 0
M  V30 3333 O 306.821 -0.129774 -1.94067 0
M  V30 3334 C 307.104 -3.48362 -0.911906 0
M  V30 3335 C 306.957 -4.4907 0.256136 0
M  V30 3336 C 308.276 -4.02561 -1.77857 0
M  V30 3337 H 305.395 -0.719071 -0.161572 0
M  V30 3338 H 308.037 -1.87896 0.282007 0
M  V30 3339 H 306.187 -3.56914 -1.53442 0
M  V30 3340 H 307.859 -4.5256 0.893733 0
M  V30 3341 H 306.102 -4.24181 0.908436 0
M  V30 3342 H 306.773 -5.51889 -0.11053 0
M  V30 3343 H 309.249 -3.96767 -1.25359 0
M  V30 3344 H 308.125 -5.08301 -2.07174 0
M  V30 3345 H 308.386 -3.47616 -2.73158 0
M  V30 3346 N 307.445 0.0818655 -1.57387 0
M  V30 3347 C 308.355 1.11642 -2.06333 0
M  V30 3348 C 309.371 1.43033 -0.99083 0
M  V30 3349 O 310.547 1.53411 -1.30488 0
M  V30 3350 C 307.612 2.41342 -2.48907 0
M  V30 3351 C 306.673 2.17014 -3.7041 0
M  V30 3352 C 305.906 3.4053 -4.10944 0
M  V30 3353 O 306.129 4.4927 -3.51444 0
M  V30 3354 O 305.063 3.29336 -5.03807 0
M  V30 3355 H 308.889 0.730657 -2.9478 0
M  V30 3356 H 306.474 0.295301 -1.46452 0
M  V30 3357 H 308.356 3.17691 -2.76858 0
M  V30 3358 H 307.031 2.79319 -1.63593 0
M  V30 3359 H 305.938 1.38403 -3.47556 0
M  V30 3360 H 307.271 1.83923 -4.56545 0
M  V30 3361 N 308.923 1.53595 0.353017 0
M  V30 3362 C 309.853 1.83902 1.43883 0
M  V30 3363 C 310.834 0.693421 1.55324 0
M  V30 3364 O 312.019 0.944452 1.69687 0
M  V30 3365 C 309.149 2.04016 2.8106 0
M  V30 3366 C 308.103 3.19814 2.84434 0
M  V30 3367 C 307.429 3.25244 4.24406 0
M  V30 3368 C 308.729 4.58133 2.50822 0
M  V30 3369 H 310.423 2.74835 1.1877 0
M  V30 3370 H 307.969 1.32242 0.569917 0
M  V30 3371 H 309.922 2.238 3.57059 0
M  V30 3372 H 308.646 1.09804 3.07588 0
M  V30 3373 H 307.305 2.9987 2.10887 0
M  V30 3374 H 306.953 2.28646 4.48029 0
M  V30 3375 H 306.653 4.03054 4.27576 0
M  V30 3376 H 308.177 3.47228 5.0226 0
M  V30 3377 H 309.591 4.77995 3.16534 0
M  V30 3378 H 307.988 5.38276 2.6529 0
M  V30 3379 H 309.058 4.62387 1.46034 0
M  V30 3380 N 310.401 -0.613514 1.45168 0
M  V30 3381 C 311.817 -0.933629 1.29443 0
M  V30 3382 C 312.017 -2.00028 0.243101 0
M  V30 3383 O 311.073 -2.49848 -0.364992 0
M  V30 3384 C 312.386 -1.38018 2.67155 0
M  V30 3385 C 313.934 -1.49471 2.75004 0
M  V30 3386 C 314.409 -1.97503 4.13227 0
M  V30 3387 N 315.9 -2.04746 4.15491 0
M  V30 3388 C 316.635 -2.43121 5.19307 0
M  V30 3389 N 316.131 -2.80506 6.33473 0
M  V30 3390 N 317.924 -2.43408 5.06664 0
M  V30 3391 H 310.075 0.0916097 2.12202 0
M  V30 3392 H 312.338 -0.0216655 0.947752 0
M  V30 3393 H 312.044 -0.670625 3.45247 0
M  V30 3394 H 311.918 -2.34784 2.95222 0
M  V30 3395 H 314.305 -2.19519 1.9722 0
M  V30 3396 H 314.386 -0.510342 2.50657 0
M  V30 3397 H 314.03 -1.28045 4.91495 0
M  V30 3398 H 313.96 -2.96843 4.34962 0
M  V30 3399 H 316.451 -1.78468 3.33103 0
M  V30 3400 H 316.764 -3.08652 7.08487 0
M  V30 3401 H 315.109 -2.78216 6.36884 0
M  V30 3402 H 318.3 -2.13604 4.16523 0
M  V30 3403 H 318.473 -2.72989 5.87691 0
M  V30 3404 N 311.879 -1.3236 -0.855495 0
M  V30 3405 C 313.109 -1.25688 -1.6397 0
M  V30 3406 C 313.517 0.177592 -1.88365 0
M  V30 3407 O 312.86 1.12485 -1.45234 0
M  V30 3408 C 312.922 -1.94602 -3.02275 0
M  V30 3409 C 312.586 -3.43937 -3.00926 0
M  V30 3410 C 313.583 -4.39435 -2.77835 0
M  V30 3411 C 311.268 -3.85858 -3.21588 0
M  V30 3412 C 313.262 -5.74829 -2.75409 0
M  V30 3413 C 310.949 -5.21361 -3.18789 0
M  V30 3414 C 311.947 -6.15658 -2.95727 0
M  V30 3415 O 311.635 -7.48681 -2.928 0
M  V30 3416 H 311.367 -0.434972 -0.51747 0
M  V30 3417 H 313.921 -1.75023 -1.075 0
M  V30 3418 H 312.151 -1.39836 -3.60531 0
M  V30 3419 H 313.84 -1.81651 -3.62985 0
M  V30 3420 H 314.606 -4.08374 -2.6164 0
M  V30 3421 H 310.485 -3.12883 -3.38564 0
M  V30 3422 H 314.029 -6.48404 -2.57328 0
M  V30 3423 H 309.926 -5.52052 -3.34528 0
M  V30 3424 H 310.694 -7.5803 -3.0876 0
M  V30 3425 N 313.357 1.07166 -1.15556 0
M  V30 3426 C 314.634 1.76546 -0.842069 0
M  V30 3427 C 315.014 2.00453 0.661939 0
M  V30 3428 O 314.362 1.62452 1.60691 0
M  V30 3429 C 314.572 3.07266 -1.65495 0
M  V30 3430 C 315.92 3.81578 -1.86234 0
M  V30 3431 O 316.944 3.17083 -1.62287 0
M  V30 3432 O 315.803 4.97419 -2.26355 0
M  V30 3433 H 312.897 0.766756 -0.309862 0
M  V30 3434 H 315.443 1.13514 -1.26145 0
M  V30 3435 H 314.215 2.85494 -2.67598 0
M  V30 3436 H 313.838 3.7803 -1.23203 0
M  V30 3437 N 314.835 0.952656 1.25548 0
M  V30 3438 C 316.112 0.523818 1.88456 0
M  V30 3439 C 316.492 -0.998871 1.85973 0
M  V30 3440 O 315.84 -1.86381 1.3219 0
M  V30 3441 C 316.05 1.0982 3.31271 0
M  V30 3442 C 317.398 1.17385 4.08051 0
M  V30 3443 O 318.422 1.04961 3.40384 0
M  V30 3444 O 317.281 1.36852 5.29088 0
M  V30 3445 H 314.375 0.172485 0.808813 0
M  V30 3446 H 316.921 1.04596 1.33633 0
M  V30 3447 H 315.693 2.1415 3.27499 0
M  V30 3448 H 315.316 0.559191 3.93648 0
M  V30 3449 N 316.313 -1.40141 0.720998 0
M  V30 3450 C 317.223 -2.34486 0.0731031 0
M  V30 3451 C 318.239 -1.57587 -0.737723 0
M  V30 3452 O 319.415 -1.89949 -0.669429 0
M  V30 3453 C 316.48 -3.36528 -0.833656 0
M  V30 3454 C 315.541 -4.29298 -0.0121673 0
M  V30 3455 C 314.774 -5.26466 -0.875742 0
M  V30 3456 O 314.997 -5.29745 -2.11485 0
M  V30 3457 O 313.931 -6.01092 -0.31185 0
M  V30 3458 H 317.757 -2.9152 0.851444 0
M  V30 3459 H 315.342 -1.41427 0.481527 0
M  V30 3460 H 317.224 -3.99093 -1.35289 0
M  V30 3461 H 315.899 -2.81899 -1.59105 0
M  V30 3462 H 314.806 -3.70001 0.552262 0
M  V30 3463 H 316.139 -4.87094 0.707129 0
M  V30 3464 N 317.792 -0.46758 -1.50504 0
M  V30 3465 C 319.038 0.0887532 -2.02606 0
M  V30 3466 C 319.371 1.39686 -1.34913 0
M  V30 3467 O 318.646 1.88644 -0.473694 0
M  V30 3468 C 318.929 0.276206 -3.59039 0
M  V30 3469 C 318.782 -1.05267 -4.37309 0
M  V30 3470 C 320.101 1.03235 -4.27821 0
M  V30 3471 H 317.22 0.0307814 -0.736357 0
M  V30 3472 H 319.862 -0.612485 -1.79857 0
M  V30 3473 H 318.012 0.8735 -3.78553 0
M  V30 3474 H 319.684 -1.68628 -4.29374 0
M  V30 3475 H 317.927 -1.65015 -4.01189 0
M  V30 3476 H 318.598 -0.875197 -5.45018 0
M  V30 3477 H 321.074 0.526111 -4.12761 0
M  V30 3478 H 319.95 1.1323 -5.37094 0
M  V30 3479 H 320.211 2.06806 -3.90748 0
M  V30 3480 N 319.27 1.56325 -0.20005 0
M  V30 3481 C 320.217 2.1932 0.718833 0
M  V30 3482 C 321.187 1.14198 1.20615 0
M  V30 3483 O 322.372 1.42469 1.26914 0
M  V30 3484 C 319.512 2.86041 1.93066 0
M  V30 3485 C 318.625 4.05702 1.48425 0
M  V30 3486 C 317.76 4.60266 2.65196 0
M  V30 3487 C 316.799 5.72273 2.17185 0
M  V30 3488 N 315.936 6.21221 3.27152 0
M  V30 3489 H 320.776 2.97486 0.17489 0
M  V30 3490 H 318.313 1.46911 0.0745794 0
M  V30 3491 H 320.271 3.22897 2.64184 0
M  V30 3492 H 318.901 2.1043 2.44783 0
M  V30 3493 H 317.953 3.74475 0.668755 0
M  V30 3494 H 319.265 4.86699 1.09204 0
M  V30 3495 H 318.419 4.99453 3.4443 0
M  V30 3496 H 317.158 3.78386 3.07693 0
M  V30 3497 H 316.163 5.3261 1.36407 0
M  V30 3498 H 317.388 6.55974 1.75713 0
M  V30 3499 H 315.334 5.42263 3.69171 0
M  V30 3500 H 315.251 6.97284 2.92116 0
M  V30 3501 H 316.519 6.65063 4.06585 0
M  V30 3502 N 320.748 -0.0735177 1.57428 0
M  V30 3503 C 322.164 -0.428264 1.53747 0
M  V30 3504 C 322.364 -1.79272 0.91998 0
M  V30 3505 O 321.42 -2.47051 0.521745 0
M  V30 3506 C 322.733 -0.370914 2.98404 0
M  V30 3507 C 324.281 -0.451224 3.0973 0
M  V30 3508 C 324.756 -0.4238 4.56035 0
M  V30 3509 N 326.247 -0.483925 4.60665 0
M  V30 3510 C 326.982 -0.484891 5.71346 0
M  V30 3511 N 326.478 -0.440775 6.91396 0
M  V30 3512 N 328.271 -0.531319 5.59583 0
M  V30 3513 H 320.422 0.819949 1.95935 0
M  V30 3514 H 322.685 0.307493 0.896745 0
M  V30 3515 H 322.391 0.564956 3.47133 0
M  V30 3516 H 322.265 -1.18176 3.5821 0
M  V30 3517 H 324.652 -1.37752 2.60976 0
M  V30 3518 H 324.733 0.388167 2.52838 0
M  V30 3519 H 324.377 0.498638 5.05446 0
M  V30 3520 H 324.307 -1.2807 5.10789 0
M  V30 3521 H 326.798 -0.522338 3.74273 0
M  V30 3522 H 327.111 -0.44539 7.71515 0
M  V30 3523 H 325.456 -0.40749 6.93804 0
M  V30 3524 H 328.647 -0.563464 4.64696 0
M  V30 3525 H 328.82 -0.528603 6.4584 0
M  V30 3526 N 322.226 -1.5378 -0.344866 0
M  V30 3527 C 323.472 -1.71216 -1.08687 0
M  V30 3528 C 323.805 -0.473281 -1.88345 0
M  V30 3529 O 323.08 0.52968 -1.87149 0
M  V30 3530 C 323.363 -2.97486 -2.02914 0
M  V30 3531 C 323.216 -4.31579 -1.26727 0
M  V30 3532 C 324.535 -3.19422 -3.0275 0
M  V30 3533 H 321.654 -0.62301 -0.393735 0
M  V30 3534 H 324.296 -1.8645 -0.365563 0
M  V30 3535 H 322.446 -2.84629 -2.64421 0
M  V30 3536 H 324.118 -4.56284 -0.67845 0
M  V30 3537 H 322.361 -4.30049 -0.569273 0
M  V30 3538 H 323.032 -5.16106 -1.95803 0
M  V30 3539 H 325.508 -3.316 -2.51357 0
M  V30 3540 H 324.384 -4.09169 -3.65885 0
M  V30 3541 H 324.645 -2.35656 -3.74057 0
M  V30 3542 N 323.704 0.605807 -1.45491 0
M  V30 3543 C 324.95 1.36679 -1.49823 0
M  V30 3544 C 325.283 1.93693 -0.140175 0
M  V30 3545 O 324.558 1.75158 0.845581 0
M  V30 3546 C 324.841 2.51337 -2.57879 0
M  V30 3547 C 324.694 1.99508 -4.03134 0
M  V30 3548 C 326.013 3.53463 -2.62205 0
M  V30 3549 H 323.132 0.495617 -0.545466 0
M  V30 3550 H 325.774 0.682732 -1.7731 0
M  V30 3551 H 323.924 3.09691 -2.34571 0
M  V30 3552 H 325.596 1.45789 -4.37656 0
M  V30 3553 H 323.839 1.30496 -4.13707 0
M  V30 3554 H 324.51 2.82169 -4.74431 0
M  V30 3555 H 326.986 3.04953 -2.83095 0
M  V30 3556 H 325.862 4.31178 -3.39672 0
M  V30 3557 H 326.123 4.09197 -1.67363 0
M  V30 3558 N 325.182 1.32811 0.848464 0
M  V30 3559 C 326.145 1.22194 1.9391 0
M  V30 3560 C 327.145 0.143404 1.60159 0
M  V30 3561 O 328.335 0.394253 1.6968 0
M  V30 3562 C 325.467 0.88067 3.29328 0
M  V30 3563 H 326.66 2.19127 2.04752 0
M  V30 3564 H 324.213 1.16731 1.0394 0
M  V30 3565 H 324.948 -0.0865776 3.24184 0
M  V30 3566 H 324.733 1.66052 3.55203 0
M  V30 3567 H 326.223 0.830871 4.09251 0
M  V30 3568 N 326.66 -1.06551 1.16123 0
M  V30 3569 C 327.57 -2.17484 0.879662 0
M  V30 3570 C 328.586 -1.73377 -0.147104 0
M  V30 3571 O 329.762 -2.01379 0.0289128 0
M  V30 3572 C 326.827 -3.44591 0.381829 0
M  V30 3573 C 325.888 -4.0322 1.4735 0
M  V30 3574 C 325.121 -5.24261 0.999324 0
M  V30 3575 O 325.344 -5.70198 -0.151957 0
M  V30 3576 O 324.278 -5.74775 1.78653 0
M  V30 3577 H 328.104 -2.44075 1.80724 0
M  V30 3578 H 325.689 -1.16042 0.940992 0
M  V30 3579 H 327.571 -4.21254 0.111053 0
M  V30 3580 H 326.246 -3.19532 -0.51777 0
M  V30 3581 H 325.153 -3.2806 1.79798 0
M  V30 3582 H 326.486 -4.32568 2.34831 0
M  V30 3583 N 328.138 -0.959301 -1.25041 0
M  V30 3584 C 329.549 -0.65667 -1.74771 0
M  V30 3585 C 329.9 0.827852 -1.77879 0
M  V30 3586 O 329.025 1.64783 -1.40269 0
M  V30 3587 C 329.62 -1.1853 -3.1739 0
M  V30 3588 C 328.179 -0.932734 -3.6466 0
M  V30 3589 C 327.326 -1.32558 -2.43564 0
M  V30 3590 H 330.277 -1.13558 -1.10862 0
M  V30 3591 H 330.298 -0.547582 -3.76539 0
M  V30 3592 H 329.81 -2.26576 -3.15095 0
M  V30 3593 H 327.911 0.13257 -3.72364 0
M  V30 3594 H 328.024 -1.57248 -4.52559 0
M  V30 3595 H 326.388 -0.743956 -2.43593 0
M  V30 3596 H 327.171 -2.41537 -2.43957 0
M  V30 3597 N 329.616 1.39756 -0.72842 0
M  V30 3598 C 330.862 2.00942 -0.273892 0
M  V30 3599 C 331.195 1.57656 1.13394 0
M  V30 3600 O 330.47 0.802434 1.77176 0
M  V30 3601 C 330.753 3.58211 -0.368346 0
M  V30 3602 C 330.606 4.11534 -1.81548 0
M  V30 3603 C 331.925 4.39372 0.253054 0
M  V30 3604 H 329.044 0.730047 -0.100996 0
M  V30 3605 H 331.686 1.66056 -0.923337 0
M  V30 3606 H 329.836 3.88061 0.184588 0
M  V30 3607 H 331.508 3.92431 -2.42478 0
M  V30 3608 H 329.751 3.65341 -2.33898 0
M  V30 3609 H 330.422 5.20682 -1.83288 0
M  V30 3610 H 332.898 4.15527 -0.218224 0
M  V30 3611 H 331.774 5.48677 0.156585 0
M  V30 3612 H 332.035 4.21358 1.33826 0
M  V30 3613 N 331.094 0.475555 1.50254 0
M  V30 3614 C 332.004 -0.321501 2.32387 0
M  V30 3615 C 333.02 -0.991755 1.42969 0
M  V30 3616 O 334.196 -0.978747 1.76018 0
M  V30 3617 C 331.261 -1.38667 3.17762 0
M  V30 3618 C 330.322 -0.732538 4.23004 0
M  V30 3619 C 329.555 -1.74695 5.04299 0
M  V30 3620 O 329.778 -2.97399 4.86734 0
M  V30 3621 O 328.712 -1.31631 5.8733 0
M  V30 3622 H 332.538 0.350071 3.01676 0
M  V30 3623 H 330.123 0.237321 1.47503 0
M  V30 3624 H 332.005 -2.00354 3.70724 0
M  V30 3625 H 330.68 -2.04163 2.51196 0
M  V30 3626 H 329.587 -0.0765902 3.74022 0
M  V30 3627 H 330.92 -0.120452 4.92053 0
M  V30 3628 N 332.573 -1.56217 0.208337 0
M  V30 3629 C 333.503 -2.22694 -0.702116 0
M  V30 3630 C 334.484 -1.19432 -1.2112 0
M  V30 3631 O 335.669 -1.47978 -1.25762 0
M  V30 3632 C 332.799 -2.8966 -1.9161 0
M  V30 3633 C 331.753 -3.9928 -1.5414 0
M  V30 3634 C 331.079 -4.53476 -2.83308 0
M  V30 3635 C 332.379 -5.17012 -0.741339 0
M  V30 3636 H 334.073 -2.99034 -0.147898 0
M  V30 3637 H 331.619 -1.43831 -0.0696951 0
M  V30 3638 H 333.572 -3.34852 -2.55836 0
M  V30 3639 H 332.296 -2.10746 -2.49507 0
M  V30 3640 H 330.955 -3.54799 -0.922668 0
M  V30 3641 H 330.603 -3.71308 -3.39322 0
M  V30 3642 H 330.303 -5.27451 -2.58976 0
M  V30 3643 H 331.827 -5.01378 -3.485 0
M  V30 3644 H 333.241 -5.58667 -1.28699 0
M  V30 3645 H 331.638 -5.97137 -0.595627 0
M  V30 3646 H 332.708 -4.8423 0.254851 0
M  V30 3647 N 334.051 0.0651679 -1.57465 0
M  V30 3648 C 335.014 1.06117 -2.03155 0
M  V30 3649 C 336.014 1.31204 -0.929632 0
M  V30 3650 O 337.204 1.26813 -1.19432 0
M  V30 3651 C 334.336 2.4032 -2.41783 0
M  V30 3652 H 335.529 0.667231 -2.92383 0
M  V30 3653 H 333.082 0.311075 -1.53173 0
M  V30 3654 H 333.817 2.84532 -1.55601 0
M  V30 3655 H 333.602 2.23451 -3.22199 0
M  V30 3656 H 335.092 3.11898 -2.77685 0
M  V30 3657 N 335.529 1.53961 0.336706 0
M  V30 3658 C 336.461 1.78751 1.4346 0
M  V30 3659 C 337.474 0.669019 1.48418 0
M  V30 3660 O 338.663 0.945884 1.51378 0
M  V30 3661 C 335.763 1.87844 2.82078 0
M  V30 3662 C 334.936 3.17854 3.00479 0
M  V30 3663 C 333.995 3.17816 4.19379 0
M  V30 3664 O 333.021 3.91511 4.13168 0
M  V30 3665 N 334.223 2.40669 5.2826 0
M  V30 3666 H 336.988 2.73493 1.22563 0
M  V30 3667 H 334.549 1.53096 0.526625 0
M  V30 3668 H 336.541 1.85261 3.59806 0
M  V30 3669 H 335.111 1.00257 2.96086 0
M  V30 3670 H 334.331 3.33504 2.10163 0
M  V30 3671 H 335.619 4.03718 3.0966 0
M  V30 3672 H 335.017 1.8036 5.36178 0
M  V30 3673 H 333.574 2.43877 6.04456 0
M  V30 3674 N 337.007 -0.598083 1.45811 0
M  V30 3675 C 337.917 -1.73632 1.57763 0
M  V30 3676 C 338.933 -1.67763 0.461676 0
M  V30 3677 O 340.109 -1.87949 0.723685 0
M  V30 3678 C 337.174 -3.10114 1.55018 0
M  V30 3679 C 336.235 -3.27364 2.77726 0
M  V30 3680 C 335.468 -4.57334 2.75102 0
M  V30 3681 O 335.691 -5.40258 1.8297 0
M  V30 3682 O 334.625 -4.77502 3.66437 0
M  V30 3683 H 338.451 -1.66498 2.53992 0
M  V30 3684 H 336.036 -0.763308 1.28429 0
M  V30 3685 H 337.918 -3.9141 1.56129 0
M  V30 3686 H 336.593 -3.17718 0.619431 0
M  V30 3687 H 335.5 -2.45619 2.82174 0
M  V30 3688 H 336.833 -3.24641 3.69958 0
M  V30 3689 N 338.485 -1.33259 -0.841409 0
M  V30 3690 C 339.732 -1.24572 -1.5965 0
M  V30 3691 C 340.06 0.189137 -1.93578 0
M  V30 3692 O 339.315 1.14566 -1.5866 0
M  V30 3693 C 339.614 -2.06381 -2.9179 0
M  V30 3694 C 339.28 -3.556 -2.77235 0
M  V30 3695 C 337.942 -3.96282 -2.72973 0
M  V30 3696 C 340.294 -4.50433 -2.62221 0
M  V30 3697 C 337.622 -5.30017 -2.51592 0
M  V30 3698 C 339.974 -5.84327 -2.42374 0
M  V30 3699 C 338.638 -6.24194 -2.36512 0
M  V30 3700 H 337.908 -0.455842 -0.5842 0
M  V30 3701 H 340.555 -1.6482 -0.975016 0
M  V30 3702 H 338.86 -1.58903 -3.5813 0
M  V30 3703 H 340.557 -1.97019 -3.49263 0
M  V30 3704 H 337.147 -3.23298 -2.81384 0
M  V30 3705 H 341.331 -4.19914 -2.64549 0
M  V30 3706 H 336.587 -5.59947 -2.45499 0
M  V30 3707 H 340.761 -6.57414 -2.29739 0
M  V30 3708 H 338.388 -7.27759 -2.19706 0
M  V30 3709 N 339.963 1.05934 -1.16686 0
M  V30 3710 C 341.379 1.30938 -0.912542 0
M  V30 3711 C 341.579 1.96803 0.432533 0
M  V30 3712 O 340.635 2.23693 1.17123 0
M  V30 3713 C 341.948 2.18649 -2.06429 0
M  V30 3714 C 343.496 2.32055 -2.10047 0
M  V30 3715 C 343.971 3.23122 -3.24586 0
M  V30 3716 N 345.462 3.30706 -3.24327 0
M  V30 3717 C 346.197 4.01273 -4.09594 0
M  V30 3718 N 345.693 4.74332 -5.04956 0
M  V30 3719 N 347.486 3.97361 -3.97569 0
M  V30 3720 H 339.637 0.615777 -2.03278 0
M  V30 3721 H 341.9 0.334077 -0.887185 0
M  V30 3722 H 341.606 1.77534 -3.03603 0
M  V30 3723 H 341.48 3.19252 -2.00894 0
M  V30 3724 H 343.867 2.72415 -1.13464 0
M  V30 3725 H 343.948 1.31107 -2.19647 0
M  V30 3726 H 343.592 2.83477 -4.2143 0
M  V30 3727 H 343.522 4.24057 -3.12223 0
M  V30 3728 H 346.013 2.78644 -2.55276 0
M  V30 3729 H 346.326 5.25716 -5.6643 0
M  V30 3730 H 344.671 4.733 -5.08933 0
M  V30 3731 H 347.862 3.39405 -3.22369 0
M  V30 3732 H 348.035 4.52089 -4.64241 0
M  V30 3733 N 341.441 0.965919 1.2453 0
M  V30 3734 C 342.388 0.49402 2.25451 0
M  V30 3735 C 343.358 -0.45948 1.59618 0
M  V30 3736 O 344.543 -0.370238 1.87173 0
M  V30 3737 C 341.683 -0.211359 3.44452 0
M  V30 3738 C 340.796 0.7807 4.24887 0
M  V30 3739 C 339.931 0.0516105 5.31175 0
M  V30 3740 C 338.97 1.03385 6.03306 0
M  V30 3741 N 338.107 0.334887 7.01301 0
M  V30 3742 H 342.947 1.35946 2.65184 0
M  V30 3743 H 340.484 0.681515 1.3036 0
M  V30 3744 H 342.442 -0.637 4.12308 0
M  V30 3745 H 341.072 -1.04077 3.05562 0
M  V30 3746 H 340.124 1.32479 3.56586 0
M  V30 3747 H 341.436 1.52978 4.74762 0
M  V30 3748 H 340.59 -0.432114 6.05159 0
M  V30 3749 H 339.329 -0.730179 4.82203 0
M  V30 3750 H 338.334 1.52847 5.28127 0
M  V30 3751 H 339.559 1.81606 6.54367 0
M  V30 3752 H 337.505 -0.427959 6.54603 0
M  V30 3753 H 337.422 1.02287 7.49048 0
M  V30 3754 H 338.69 -0.126928 7.79397 0
M  V30 3755 N 342.919 -1.39368 0.735821 0
M  V30 3756 C 344.166 -2.00497 0.284123 0
M  V30 3757 C 344.494 -1.58387 -1.12889 0
M  V30 3758 O 343.749 -0.804359 -1.78406 0
M  V30 3759 C 344.048 -3.5583 0.334651 0
M  V30 3760 C 343.714 -4.17593 1.7008 0
M  V30 3761 C 342.376 -4.34176 2.07472 0
M  V30 3762 C 344.728 -4.51848 2.59775 0
M  V30 3763 C 342.056 -4.82304 3.34065 0
M  V30 3764 C 344.408 -5.01384 3.85741 0
M  V30 3765 C 343.072 -5.16175 4.23225 0
M  V30 3766 H 342.342 -0.73367 0.103968 0
M  V30 3767 H 344.989 -1.66683 0.942825 0
M  V30 3768 H 343.294 -3.89674 -0.407625 0
M  V30 3769 H 344.991 -4.00986 -0.0329927 0
M  V30 3770 H 341.581 -4.05087 1.40008 0
M  V30 3771 H 345.765 -4.38653 2.32157 0
M  V30 3772 H 341.021 -4.91941 3.63049 0
M  V30 3773 H 345.195 -5.26863 4.55399 0
M  V30 3774 H 342.822 -5.5323 5.21384 0
M  V30 3775 N 344.397 -0.483516 -1.5 0
M  V30 3776 C 345.674 0.129337 -1.95172 0
M  V30 3777 C 346.054 1.55802 -1.4244 0
M  V30 3778 O 345.402 2.19625 -0.630649 0
M  V30 3779 C 345.612 0.0599251 -3.48949 0
M  V30 3780 C 346.96 0.242617 -4.23906 0
M  V30 3781 O 347.984 0.135933 -3.55941 0
M  V30 3782 O 346.843 0.459454 -5.44565 0
M  V30 3783 H 343.937 0.104887 -0.820322 0
M  V30 3784 H 346.483 -0.544807 -1.60717 0
M  V30 3785 H 345.255 -0.937079 -3.79914 0
M  V30 3786 H 344.878 0.774984 -3.89974 0
M  V30 3787 N 345.875 1.56104 -0.216619 0
M  V30 3788 C 346.805 2.23063 0.690296 0
M  V30 3789 C 347.786 1.20072 1.20485 0
M  V30 3790 O 348.971 1.48643 1.24976 0
M  V30 3791 C 346.101 2.90672 1.90072 0
M  V30 3792 C 345.055 4.00092 1.5202 0
M  V30 3793 C 344.381 4.54972 2.80899 0
M  V30 3794 C 345.681 5.17398 0.71391 0
M  V30 3795 H 347.375 2.99109 0.132038 0
M  V30 3796 H 344.921 1.43866 0.0620664 0
M  V30 3797 H 346.874 3.36204 2.54057 0
M  V30 3798 H 345.598 2.12066 2.48386 0
M  V30 3799 H 344.257 3.55283 0.903839 0
M  V30 3800 H 343.905 3.73102 3.37348 0
M  V30 3801 H 343.605 5.28817 2.56176 0
M  V30 3802 H 345.129 5.0322 3.45836 0
M  V30 3803 H 346.543 5.59342 1.25735 0
M  V30 3804 H 344.94 5.97444 0.563951 0
M  V30 3805 H 346.01 4.84088 -0.280527 0
M  V30 3806 N 347.353 -0.0568162 1.57498 0
M  V30 3807 C 348.301 -1.08452 2.05769 0
M  V30 3808 C 349.295 -1.39164 0.965903 0
M  V30 3809 O 350.501 -1.38395 1.15095 0
M  V30 3810 H 346.876 -0.367148 0.656282 0
M  V30 3811 H 348.847 -0.651368 2.91204 0
M  V30 3812 C 347.596 -2.38543 2.52968 0
M  V30 3813 H 346.919 -2.15765 3.36579 0
M  V30 3814 H 348.359 -3.08863 2.90481 0
M  V30 3815 C 346.818 -3.05562 1.41893 0
M  V30 3816 O 347.348 -3.94262 0.769442 0
M  V30 3817 N 345.554 -2.6643 1.16032 0
M  V30 3818 H 345.101 -1.94387 1.6903 0
M  V30 3819 H 345.059 -3.11593 0.419219 0
M  V30 3820 N 348.832 -1.54138 -0.328536 0
M  V30 3821 C 350.057 -1.76378 -1.09112 0
M  V30 3822 C 350.482 -0.508596 -1.81094 0
M  V30 3823 O 349.84 0.539598 -1.73084 0
M  V30 3824 C 349.888 -2.95358 -2.06872 0
M  V30 3825 O 348.992 -2.66556 -3.14677 0
M  V30 3826 H 348.333 -0.584614 -0.314838 0
M  V30 3827 H 350.863 -2.01146 -0.374348 0
M  V30 3828 H 350.873 -3.22566 -2.4983 0
M  V30 3829 H 349.548 -3.86385 -1.5388 0
M  V30 3830 H 348.125 -2.50282 -2.7643 0
M  V30 3831 N 350.31 0.590341 -1.46126 0
M  V30 3832 C 351.721 1.17243 -1.45296 0
M  V30 3833 C 352.072 1.95281 -0.189723 0
M  V30 3834 O 351.197 2.04502 0.707674 0
M  V30 3835 C 351.792 2.13284 -2.6324 0
M  V30 3836 C 350.351 2.66832 -2.65476 0
M  V30 3837 C 349.498 1.42557 -2.3785 0
M  V30 3838 H 352.449 0.378692 -1.54116 0
M  V30 3839 H 352.47 2.96619 -2.38323 0
M  V30 3840 H 351.982 1.56459 -3.55165 0
M  V30 3841 H 350.083 3.27548 -1.77603 0
M  V30 3842 H 350.196 3.10088 -3.65215 0
M  V30 3843 H 348.56 1.72107 -1.87753 0
M  V30 3844 H 349.343 0.875741 -3.31942 0
M  V30 3845 N 351.788 1.33704 0.83433 0
M  V30 3846 C 353.034 1.26612 1.59188 0
M  V30 3847 C 353.389 -0.165439 1.91687 0
M  V30 3848 O 352.682 -1.10873 1.56262 0
M  V30 3849 C 352.876 2.07926 2.90692 0
M  V30 3850 C 352.705 3.58844 2.71038 0
M  V30 3851 C 351.475 4.28148 2.68361 0
M  V30 3852 C 353.673 4.53082 2.43353 0
M  V30 3853 N 351.655 5.64987 2.40132 0
M  V30 3854 C 353.026 5.77843 2.24716 0
M  V30 3855 C 355.081 4.42119 2.28987 0
M  V30 3856 C 353.784 6.92877 1.9317 0
M  V30 3857 C 355.81 5.56973 1.98835 0
M  V30 3858 C 355.172 6.80745 1.81012 0
M  V30 3859 H 351.271 0.518517 0.585375 0
M  V30 3860 H 353.855 1.68294 0.979044 0
M  V30 3861 H 352.026 1.68558 3.49918 0
M  V30 3862 H 353.758 1.92568 3.55949 0
M  V30 3863 H 350.513 3.80469 2.82029 0
M  V30 3864 H 350.937 6.37133 2.28889 0
M  V30 3865 H 355.579 3.47058 2.41477 0
M  V30 3866 H 353.297 7.87931 1.79418 0
M  V30 3867 H 356.883 5.50428 1.88468 0
M  V30 3868 H 355.763 7.68115 1.58017 0
M  V30 3869 N 353.266 -1.05314 1.17247 0
M  V30 3870 C 354.176 -2.16538 0.90268 0
M  V30 3871 C 355.192 -1.73523 -0.128707 0
M  V30 3872 O 356.368 -2.01337 0.0502701 0
M  V30 3873 C 353.433 -3.44167 0.418356 0
M  V30 3874 C 352.494 -4.01635 1.51618 0
M  V30 3875 C 351.727 -5.23171 1.05487 0
M  V30 3876 O 351.95 -5.70327 -0.0914715 0
M  V30 3877 O 350.884 -5.72848 1.8474 0
M  V30 3878 H 354.71 -2.42145 1.83302 0
M  V30 3879 H 352.295 -1.15037 0.953246 0
M  V30 3880 H 354.177 -4.21112 0.155726 0
M  V30 3881 H 352.852 -3.20063 -0.48385 0
M  V30 3882 H 351.759 -3.26135 1.83268 0
M  V30 3883 H 353.092 -4.30053 2.39405 0
M  V30 3884 N 354.744 -0.972509 -1.24016 0
M  V30 3885 C 355.707 -0.511403 -2.23422 0
M  V30 3886 C 356.707 0.394679 -1.55881 0
M  V30 3887 O 357.897 0.189469 -1.73167 0
M  V30 3888 C 355.029 0.258769 -3.39916 0
M  V30 3889 H 356.222 -1.39024 -2.6573 0
M  V30 3890 H 353.775 -0.757585 -1.36713 0
M  V30 3891 H 354.51 1.1545 -3.03054 0
M  V30 3892 H 354.295 -0.391522 -3.9014 0
M  V30 3893 H 355.785 0.570244 -4.13688 0
M  V30 3894 N 356.222 1.38976 -0.743202 0
M  V30 3895 C 357.469 2.00343 -0.294752 0
M  V30 3896 C 357.797 1.58983 1.12047 0
M  V30 3897 O 357.052 0.813809 1.77977 0
M  V30 3898 C 357.351 3.55647 -0.353517 0
M  V30 3899 C 357.017 4.16685 -1.72292 0
M  V30 3900 C 355.679 4.3307 -2.09771 0
M  V30 3901 C 358.031 4.50464 -2.62168 0
M  V30 3902 C 355.359 4.80526 -3.36618 0
M  V30 3903 C 357.711 4.99332 -3.88395 0
M  V30 3904 C 356.375 5.13924 -4.25956 0
M  V30 3905 H 355.645 0.733108 -0.107857 0
M  V30 3906 H 358.292 1.6618 -0.951651 0
M  V30 3907 H 356.597 3.89884 0.386954 0
M  V30 3908 H 358.294 4.00998 0.0117269 0
M  V30 3909 H 354.884 4.04339 -1.42155 0
M  V30 3910 H 359.068 4.37416 -2.3448 0
M  V30 3911 H 354.324 4.90008 -3.65653 0
M  V30 3912 H 358.498 5.2444 -4.58187 0
M  V30 3913 H 356.125 5.50457 -5.2431 0
M  V30 3914 N 357.7 0.491464 1.49741 0
M  V30 3915 C 359.111 0.0413169 1.86654 0
M  V30 3916 C 359.462 -1.36985 1.40462 0
M  V30 3917 O 358.587 -2.01917 0.778354 0
M  V30 3918 C 359.182 0.0682023 3.38731 0
M  V30 3919 C 357.741 -0.32656 3.74981 0
M  V30 3920 C 356.888 0.444888 2.73708 0
M  V30 3921 H 359.839 0.704733 1.42194 0
M  V30 3922 H 359.86 -0.729322 3.73445 0
M  V30 3923 H 359.372 1.09539 3.72321 0
M  V30 3924 H 357.473 -1.35734 3.46997 0
M  V30 3925 H 357.586 -0.013741 4.79098 0
M  V30 3926 H 355.95 -0.104062 2.54487 0
M  V30 3927 H 356.733 1.47197 3.10142 0
M  V30 3928 N 359.178 -1.55987 0.224894 0
M  V30 3929 C 360.424 -1.98684 -0.406502 0
M  V30 3930 C 360.757 -1.11248 -1.59177 0
M  V30 3931 O 360.032 -0.170909 -1.93748 0
M  V30 3932 C 360.315 -3.50218 -0.837808 0
M  V30 3933 C 360.168 -4.48426 0.351332 0
M  V30 3934 C 361.487 -4.06243 -1.69278 0
M  V30 3935 H 358.606 -0.722337 -0.146283 0
M  V30 3936 H 361.248 -1.87255 0.321799 0
M  V30 3937 H 359.398 -3.60089 -1.45837 0
M  V30 3938 H 361.07 -4.50562 0.989526 0
M  V30 3939 H 359.313 -4.22159 0.998207 0
M  V30 3940 H 359.984 -5.52 0.00655905 0
M  V30 3941 H 362.46 -3.99337 -1.16914 0
M  V30 3942 H 361.336 -5.12581 -1.96346 0
M  V30 3943 H 361.597 -3.53332 -2.65723 0
M  V30 3944 N 360.656 0.0484629 -1.57525 0
M  V30 3945 C 361.886 0.754326 -1.92337 0
M  V30 3946 C 362.294 1.70443 -0.82132 0
M  V30 3947 O 361.637 1.82466 0.21254 0
M  V30 3948 C 361.699 1.58231 -3.22805 0
M  V30 3949 C 361.363 0.799074 -4.4996 0
M  V30 3950 C 362.36 0.1079 -5.19788 0
M  V30 3951 C 360.045 0.759345 -4.96527 0
M  V30 3952 C 362.039 -0.612516 -6.3445 0
M  V30 3953 C 359.726 0.0351713 -6.1109 0
M  V30 3954 C 360.724 -0.649537 -6.79904 0
M  V30 3955 O 360.412 -1.36199 -7.92278 0
M  V30 3956 H 360.144 0.218257 -0.639797 0
M  V30 3957 H 362.698 0.0159295 -2.05394 0
M  V30 3958 H 360.928 2.36406 -3.06021 0
M  V30 3959 H 362.617 2.16898 -3.43089 0
M  V30 3960 H 363.383 0.129748 -4.84826 0
M  V30 3961 H 359.262 1.28177 -4.42822 0
M  V30 3962 H 362.806 -1.14751 -6.88097 0
M  V30 3963 H 358.703 0.0113314 -6.45499 0
M  V30 3964 H 359.471 -1.27366 -8.0853 0
M  V30 3965 N 362.134 1.5431 0.320358 0
M  V30 3966 C 363.55 1.45091 0.664889 0
M  V30 3967 C 363.75 0.626382 1.91517 0
M  V30 3968 O 362.806 0.126443 2.52183 0
M  V30 3969 C 364.119 2.88848 0.83591 0
M  V30 3970 C 365.667 2.9877 0.933046 0
M  V30 3971 C 366.142 4.43683 1.13621 0
M  V30 3972 N 367.633 4.47309 1.20287 0
M  V30 3973 C 368.368 5.56595 1.37801 0
M  V30 3974 N 367.864 6.75844 1.52338 0
M  V30 3975 N 369.657 5.44248 1.40535 0
M  V30 3976 H 361.808 2.06398 -0.501374 0
M  V30 3977 H 364.071 0.933963 -0.162534 0
M  V30 3978 H 363.777 3.51698 -0.0116092 0
M  V30 3979 H 363.651 3.35148 1.73078 0
M  V30 3980 H 366.038 2.36045 1.77107 0
M  V30 3981 H 366.119 2.55796 0.0145782 0
M  V30 3982 H 365.763 5.06995 0.303032 0
M  V30 3983 H 365.693 4.84269 2.0686 0
M  V30 3984 H 368.184 3.61388 1.10485 0
M  V30 3985 H 368.497 7.54892 1.65403 0
M  V30 3986 H 366.842 6.78746 1.4943 0
M  V30 3987 H 370.033 4.50038 1.28777 0
M  V30 3988 H 370.206 6.29473 1.53842 0
M  V30 3989 N 363.613 -0.582584 1.46437 0
M  V30 3990 C 364.545 -1.70618 1.53043 0
M  V30 3991 C 365.558 -1.57322 0.418769 0
M  V30 3992 O 366.747 -1.64744 0.687136 0
M  V30 3993 C 363.847 -3.08869 1.39474 0
M  V30 3994 C 363.02 -3.48166 2.64762 0
M  V30 3995 C 362.079 -4.65478 2.4539 0
M  V30 3996 O 361.105 -4.71333 3.19114 0
M  V30 3997 N 362.307 -5.60365 1.51564 0
M  V30 3998 H 365.072 -1.65405 2.49923 0
M  V30 3999 H 362.633 -0.768567 1.42494 0
M  V30 4000 H 364.625 -3.85143 1.24287 0
M  V30 4001 H 363.195 -3.08449 0.507758 0
M  V30 4002 H 362.415 -2.61598 2.9489 0
M  V30 4003 H 363.703 -3.71188 3.4799 0
M  V30 4004 H 363.101 -5.5837 0.907705 0
M  V30 4005 H 361.658 -6.36068 1.4234 0
M  V30 4006 N 365.091 -1.34144 -0.827227 0
M  V30 4007 C 366.502 -1.23557 -1.39966 0
M  V30 4008 C 366.853 0.140731 -1.95695 0
M  V30 4009 O 365.978 1.04087 -1.89723 0
M  V30 4010 C 366.573 -2.23708 -2.54441 0
M  V30 4011 C 365.132 -2.16924 -3.07605 0
M  V30 4012 C 364.279 -2.10549 -1.80456 0
M  V30 4013 H 367.23 -1.45573 -0.631991 0
M  V30 4014 H 367.251 -1.85157 -3.32411 0
M  V30 4015 H 366.763 -3.23866 -2.13851 0
M  V30 4016 H 364.864 -1.20107 -3.52711 0
M  V30 4017 H 364.977 -3.07988 -3.66988 0
M  V30 4018 H 363.341 -1.56203 -2.01178 0
M  V30 4019 H 364.124 -3.12535 -1.42046 0
M  V30 4020 N 366.569 1.04691 -1.17803 0
M  V30 4021 C 367.98 1.59238 -0.974689 0
M  V30 4022 C 368.331 1.90306 0.477292 0
M  V30 4023 O 367.456 1.68846 1.35352 0
M  V30 4024 C 368.051 2.89318 -1.76296 0
M  V30 4025 C 366.61 3.40506 -1.60414 0
M  V30 4026 C 365.757 2.14172 -1.76141 0
M  V30 4027 H 368.708 0.874395 -1.32439 0
M  V30 4028 H 368.729 3.5944 -1.24833 0
M  V30 4029 H 368.241 2.66675 -2.81968 0
M  V30 4030 H 366.342 3.68175 -0.572519 0
M  V30 4031 H 366.455 4.14753 -2.39827 0
M  V30 4032 H 364.819 2.25176 -1.19028 0
M  V30 4033 H 365.602 1.93992 -2.83235 0
M  V30 4034 N 368.047 0.979072 1.23499 0
M  V30 4035 C 368.957 0.526431 2.28617 0
M  V30 4036 C 369.973 -0.418126 1.68901 0
M  V30 4037 O 371.149 -0.288372 1.99325 0
M  V30 4038 C 368.214 -0.165235 3.46306 0
M  V30 4039 C 367.275 0.82056 4.21385 0
M  V30 4040 C 366.508 0.161807 5.33455 0
M  V30 4041 O 366.731 -1.04742 5.60701 0
M  V30 4042 O 365.665 0.859708 5.95729 0
M  V30 4043 H 369.491 1.4006 2.69475 0
M  V30 4044 H 367.076 0.746643 1.29405 0
M  V30 4045 H 368.958 -0.553287 4.17752 0
M  V30 4046 H 367.633 -1.01419 3.07402 0
M  V30 4047 H 366.54 1.25929 3.52268 0
M  V30 4048 H 367.873 1.63828 4.64135 0
M  V30 4049 N 369.525 -1.3858 0.750561 0
M  V30 4050 C 370.75 -2.04997 0.314812 0
M  V30 4051 C 371.175 -1.56235 -1.04749 0
M  V30 4052 O 370.533 -0.712981 -1.66692 0
M  V30 4053 C 370.581 -3.58961 0.343415 0
M  V30 4054 O 369.685 -4.07025 -0.663628 0
M  V30 4055 H 369.026 -0.649081 0.139962 0
M  V30 4056 H 371.556 -1.77313 1.02084 0
M  V30 4057 H 371.566 -4.07542 0.193233 0
M  V30 4058 H 370.241 -3.93811 1.33738 0
M  V30 4059 H 368.818 -3.6982 -0.478307 0
M  V30 4060 N 371.003 -0.499398 -1.49478 0
M  V30 4061 C 371.933 0.269244 -2.31943 0
M  V30 4062 C 372.914 0.964054 -1.40143 0
M  V30 4063 O 374.099 0.955767 -1.69052 0
M  V30 4064 C 371.229 1.33504 -3.20615 0
M  V30 4065 C 370.183 0.760202 -4.21195 0
M  V30 4066 C 369.509 1.9264 -4.98792 0
M  V30 4067 C 370.809 -0.247661 -5.21712 0
M  V30 4068 H 372.503 -0.419082 -2.96452 0
M  V30 4069 H 370.049 -0.202988 -1.42562 0
M  V30 4070 H 372.002 1.88048 -3.77115 0
M  V30 4071 H 370.726 2.05253 -2.54045 0
M  V30 4072 H 369.385 0.23653 -3.65836 0
M  V30 4073 H 369.033 2.63154 -4.28671 0
M  V30 4074 H 368.733 1.54785 -5.66847 0
M  V30 4075 H 370.257 2.4762 -5.58137 0
M  V30 4076 H 371.671 0.209579 -5.72917 0
M  V30 4077 H 370.068 -0.541962 -5.97648 0
M  V30 4078 H 371.138 -1.16409 -4.7072 0
M  V30 4079 N 372.481 1.55866 -0.233164 0
M  V30 4080 C 373.428 2.20796 0.67215 0
M  V30 4081 C 374.398 1.16731 1.18166 0
M  V30 4082 O 375.583 1.45129 1.23864 0
M  V30 4083 C 372.723 2.90072 1.86955 0
M  V30 4084 C 371.836 4.08759 1.39786 0
M  V30 4085 C 370.971 4.65787 2.55374 0
M  V30 4086 C 370.01 5.76752 2.04998 0
M  V30 4087 N 369.147 6.28021 3.13901 0
M  V30 4088 H 373.987 2.9779 0.111749 0
M  V30 4089 H 371.524 1.47036 0.0434007 0
M  V30 4090 H 373.482 3.28428 2.57276 0
M  V30 4091 H 372.112 2.15575 2.40265 0
M  V30 4092 H 371.164 3.7581 0.589173 0
M  V30 4093 H 372.476 4.88906 0.98856 0
M  V30 4094 H 371.63 5.06646 3.33758 0
M  V30 4095 H 370.369 3.84828 2.99598 0
M  V30 4096 H 369.374 5.35383 1.25079 0
M  V30 4097 H 370.599 6.59553 1.61759 0
M  V30 4098 H 368.545 5.49971 3.57586 0
M  V30 4099 H 368.462 7.03323 2.7726 0
M  V30 4100 H 369.73 6.73538 3.92386 0
M  V30 4101 N 373.959 -0.0401083 1.57549 0
M  V30 4102 C 374.889 -1.04384 2.08869 0
M  V30 4103 C 375.87 -1.38407 0.988817 0
M  V30 4104 O 377.055 -1.47483 1.26342 0
M  V30 4105 C 374.185 -2.34808 2.55895 0
M  V30 4106 C 373.139 -2.15057 3.70047 0
M  V30 4107 C 372.465 -3.51145 4.03239 0
M  V30 4108 C 373.765 -1.54576 4.98902 0
M  V30 4109 H 375.459 -0.616666 2.92981 0
M  V30 4110 H 373.005 -0.295184 1.40942 0
M  V30 4111 H 374.958 -3.05346 2.90417 0
M  V30 4112 H 373.682 -2.79565 1.68853 0
M  V30 4113 H 372.341 -1.46954 3.35857 0
M  V30 4114 H 371.989 -3.93529 3.13279 0
M  V30 4115 H 371.689 -3.38758 4.80122 0
M  V30 4116 H 373.213 -4.23062 4.40285 0
M  V30 4117 H 374.627 -2.15017 5.31451 0
M  V30 4118 H 373.024 -1.52796 5.80322 0
M  V30 4119 H 374.094 -0.51039 4.82206 0
M  V30 4120 N 375.437 -1.54477 -0.31217 0
M  V30 4121 C 376.347 -1.87695 -1.4074 0
M  V30 4122 C 377.363 -0.769975 -1.56036 0
M  V30 4123 O 378.539 -1.06537 -1.70915 0
M  V30 4124 C 375.604 -2.10755 -2.75287 0
M  V30 4125 C 374.665 -3.34514 -2.69071 0
M  V30 4126 C 373.898 -3.56465 -3.97201 0
M  V30 4127 O 374.121 -2.81637 -4.96021 0
M  V30 4128 O 373.055 -4.49964 -3.9977 0
M  V30 4129 H 376.881 -2.80849 -1.15574 0
M  V30 4130 H 374.466 -1.40526 -0.507228 0
M  V30 4131 H 376.348 -2.27188 -3.54913 0
M  V30 4132 H 375.023 -1.20788 -3.0032 0
M  V30 4133 H 373.93 -3.23456 -1.87955 0
M  V30 4134 H 375.263 -4.24575 -2.48992 0
M  V30 4135 N 376.915 0.57481 -1.46744 0
M  V30 4136 C 377.878 1.66533 -1.57478 0
M  V30 4137 C 378.878 1.54338 -0.451263 0
M  V30 4138 O 380.068 1.58814 -0.715813 0
M  V30 4139 C 377.2 3.05999 -1.50259 0
M  V30 4140 H 378.393 1.58372 -2.54673 0
M  V30 4141 H 375.946 0.793301 -1.34672 0
M  V30 4142 H 376.681 3.19709 -0.543725 0
M  V30 4143 H 376.466 3.16259 -2.31781 0
M  V30 4144 H 377.956 3.8537 -1.60872 0
M  V30 4145 N 378.394 1.34581 0.820102 0
M  V30 4146 C 379.642 1.26845 1.57336 0
M  V30 4147 C 379.963 -0.160667 1.94337 0
M  V30 4148 O 379.233 -1.09396 1.6251 0
M  V30 4149 H 377.813 0.466514 0.583415 0
M  V30 4150 H 380.475 1.68526 0.979027 0
M  V30 4151 H 379.571 1.87513 2.4949 0
M  V30 4152 N 379.872 -1.04064 1.18357 0
M  V30 4153 C 381.149 -1.74252 0.888581 0
M  V30 4154 C 381.529 -2.02138 -0.60856 0
M  V30 4155 O 380.877 -1.66656 -1.56327 0
M  V30 4156 C 381.087 -3.0277 1.73584 0
M  V30 4157 C 382.435 -3.76506 1.96286 0
M  V30 4158 O 383.459 -3.12668 1.70637 0
M  V30 4159 O 382.318 -4.91243 2.39464 0
M  V30 4160 H 379.412 -0.758271 0.330082 0
M  V30 4161 H 381.958 -1.1013 1.2911 0
M  V30 4162 H 380.73 -2.78299 2.75073 0
M  V30 4163 H 380.353 -3.74631 1.33183 0
M  V30 4164 N 381.35 -0.985608 -1.22978 0
M  V30 4165 C 382.297 -0.529825 -2.24636 0
M  V30 4166 C 383.267 0.434028 -1.60329 0
M  V30 4167 O 384.452 0.340414 -1.87739 0
M  V30 4168 C 381.592 0.156533 -3.44745 0
M  V30 4169 C 380.705 -0.848197 -4.23591 0
M  V30 4170 C 379.84 -0.136109 -5.31026 0
M  V30 4171 C 378.879 -1.1297 -6.01585 0
M  V30 4172 N 378.016 -0.446415 -7.00679 0
M  V30 4173 H 382.856 -1.40148 -2.62988 0
M  V30 4174 H 380.393 -0.702168 -1.29259 0
M  V30 4175 H 382.351 0.571324 -4.1327 0
M  V30 4176 H 380.981 0.992025 -3.07179 0
M  V30 4177 H 380.033 -1.38135 -3.54433 0
M  V30 4178 H 381.345 -1.60512 -4.72268 0
M  V30 4179 H 380.499 0.335784 -6.0577 0
M  V30 4180 H 379.238 0.653373 -4.83304 0
M  V30 4181 H 378.243 -1.6123 -5.25628 0
M  V30 4182 H 379.468 -1.91993 -6.51395 0
M  V30 4183 H 377.414 0.323763 -6.55201 0
M  V30 4184 H 377.331 -1.1419 -7.47326 0
M  V30 4185 H 378.599 0.00291697 -7.795 0
M  V30 4186 N 382.828 1.3818 -0.7579 0
M  V30 4187 C 383.775 2.30416 -0.133057 0
M  V30 4188 C 384.745 1.50398 0.704957 0
M  V30 4189 O 385.93 1.79014 0.660192 0
M  V30 4190 C 383.07 3.36834 0.750813 0
M  V30 4191 C 382.183 4.31879 -0.102297 0
M  V30 4192 C 381.318 5.25368 0.784979 0
M  V30 4193 C 380.357 6.12058 -0.0715046 0
M  V30 4194 N 379.494 6.97832 0.772972 0
M  V30 4195 H 384.334 2.83274 -0.925186 0
M  V30 4196 H 381.871 1.39461 -0.467866 0
M  V30 4197 H 383.829 3.97145 1.27794 0
M  V30 4198 H 382.459 2.85374 1.50868 0
M  V30 4199 H 381.511 3.72991 -0.747095 0
M  V30 4200 H 382.823 4.92921 -0.763552 0
M  V30 4201 H 381.977 5.90818 1.37911 0
M  V30 4202 H 380.716 4.64703 1.47996 0
M  V30 4203 H 379.721 5.456 -0.678272 0
M  V30 4204 H 380.946 6.74793 -0.763606 0
M  V30 4205 H 378.892 6.3971 1.45282 0
M  V30 4206 H 378.809 7.55812 0.168709 0
M  V30 4207 H 380.077 7.67687 1.35194 0
M  V30 4208 N 384.306 0.507319 1.49211 0
M  V30 4209 C 385.717 0.0611118 1.866 0
M  V30 4210 C 386.068 -1.35488 1.41907 0
M  V30 4211 O 385.193 -2.0108 0.799726 0
M  V30 4212 C 385.788 0.104125 3.3864 0
M  V30 4213 C 384.347 -0.28677 3.75306 0
M  V30 4214 C 383.494 0.473893 2.73221 0
M  V30 4215 H 386.445 0.719775 1.41439 0
M  V30 4216 H 386.466 -0.689672 3.74198 0
M  V30 4217 H 385.978 1.13482 3.71138 0
M  V30 4218 H 384.079 -1.32046 3.48417 0
M  V30 4219 H 384.192 0.0370745 4.79086 0
M  V30 4220 H 382.556 -0.0770644 2.54583 0
M  V30 4221 H 383.339 1.50478 3.08563 0
M  V30 4222 N 385.784 -1.5574 0.241426 0
M  V30 4223 C 387.061 -1.90704 -0.434881 0
M  V30 4224 C 387.441 -1.16145 -1.76277 0
M  V30 4225 O 386.789 -0.277152 -2.26813 0
M  V30 4226 C 386.999 -3.43657 -0.608343 0
M  V30 4227 C 388.347 -4.14806 -0.906725 0
M  V30 4228 O 389.371 -3.49366 -0.694408 0
M  V30 4229 O 388.23 -5.30548 -1.31075 0
M  V30 4230 H 385.324 -0.793592 -0.23268 0
M  V30 4231 H 387.87 -1.67288 0.285086 0
M  V30 4232 H 386.642 -3.89927 0.327505 0
M  V30 4233 H 386.265 -3.72918 -1.37906 0
M  V30 4234 N 387.262 0.0317525 -1.57568 0
M  V30 4235 C 388.225 1.01783 -2.0536 0
M  V30 4236 C 389.225 1.29203 -0.957253 0
M  V30 4237 O 390.415 1.24251 -1.22095 0
M  V30 4238 C 387.547 2.35137 -2.46827 0
M  V30 4239 H 388.74 0.605062 -2.93733 0
M  V30 4240 H 386.293 0.278514 -1.53799 0
M  V30 4241 H 387.028 2.81168 -1.61602 0
M  V30 4242 H 386.813 2.16566 -3.26866 0
M  V30 4243 H 388.303 3.05938 -2.84239 0
M  V30 4244 N 388.74 1.54641 0.303973 0
M  V30 4245 C 389.687 1.85386 1.37479 0
M  V30 4246 C 390.657 0.702528 1.50512 0
M  V30 4247 O 391.842 0.950867 1.65418 0
M  V30 4248 C 388.982 2.10413 2.73533 0
M  V30 4249 C 388.095 3.38049 2.68974 0
M  V30 4250 C 387.23 3.52934 3.97002 0
M  V30 4251 C 386.269 4.74373 3.86829 0
M  V30 4252 N 385.406 4.8608 5.06627 0
M  V30 4253 H 390.246 2.76732 1.1056 0
M  V30 4254 H 387.783 1.37034 0.534805 0
M  V30 4255 H 389.741 2.22919 3.52652 0
M  V30 4256 H 388.371 1.22338 2.98719 0
M  V30 4257 H 387.423 3.3418 1.81736 0
M  V30 4258 H 388.735 4.27288 2.57346 0
M  V30 4259 H 387.889 3.65088 4.84557 0
M  V30 4260 H 386.628 2.61824 4.1146 0
M  V30 4261 H 385.633 4.62255 2.97658 0
M  V30 4262 H 386.858 5.66888 3.73918 0
M  V30 4263 H 384.804 3.97891 5.21554 0
M  V30 4264 H 384.721 5.69315 4.9741 0
M  V30 4265 H 385.989 5.02587 5.95841 0
M  V30 4266 O 390.257 -0.449877 1.55108 0
M  V30 4267 H 390.948 -1.10376 1.59176 0
M  V30 END ATOM
M  V30 BEGIN BOND
M  V30 END BOND
M  V30 END CTAB
M  END
$$$$
