drugbank_target|P17302 Gap junction alpha-1 protein (DB01136)
 OpenBabel12092119473D

  0  0  0     0  0            999 V3000
M  V30 BEGIN CTAB
M  V30 COUNTS 6053 6128 0 0 0
M  V30 BEGIN ATOM
M  V30 1 H -0.908 1.98254 -0.117106 0
M  V30 2 N 0 1.576 0 0
M  V30 3 C 0.933 2.03868 1.02534 0
M  V30 4 C 1.911 0.928543 1.3348 0
M  V30 5 O 3.095 1.19667 1.45644 0
M  V30 6 C 0.222 2.43627 2.35294 0
M  V30 7 C -0.732 3.65373 2.2001 0
M  V30 8 S 0.101 5.13292 1.52614 0
M  V30 9 C 1.257 5.56322 2.86805 0
M  V30 10 H 1.49 2.90518 0.631377 0
M  V30 11 H -0.977 1.52953 0.210867 0
M  V30 12 H 0.981 2.67203 3.11629 0
M  V30 13 H -0.358 1.57376 2.7183 0
M  V30 14 H -1.165 3.90944 3.18086 0
M  V30 15 H -1.563 3.418 1.51819 0
M  V30 16 H 0.729 5.58782 3.83104 0
M  V30 17 H 1.672 6.56266 2.65933 0
M  V30 18 H 2.08 4.83886 2.90714 0
M  V30 19 N 1.4781 -0.272755 1.55222 0
M  V30 20 C 2.7261 -1.00234 1.75492 0
M  V30 21 C 3.0471 -1.8681 0.5592 0
M  V30 22 O 2.3171 -1.91215 -0.425882 0
M  V30 23 H 0.8971 -0.373076 0.647166 0
M  V30 24 H 3.5591 -0.296926 1.92625 0
M  V30 25 H 2.6551 -1.63913 2.65592 0
M  V30 26 N 2.9562 -1.48159 -0.537278 0
M  V30 27 C 4.2332 -1.46291 -1.29839 0
M  V30 28 C 4.6132 -0.170613 -2.10409 0
M  V30 29 O 3.9612 0.847746 -2.12192 0
M  V30 30 C 4.1712 -2.72055 -2.18603 0
M  V30 31 C 5.5192 -3.20087 -2.7898 0
M  V30 32 O 6.5432 -2.72921 -2.28894 0
M  V30 33 O 5.4022 -4.02138 -3.70064 0
M  V30 34 H 2.4962 -0.583906 -0.585647 0
M  V30 35 H 5.0422 -1.60384 -0.554534 0
M  V30 36 H 3.8142 -3.57628 -1.58801 0
M  V30 37 H 3.4372 -2.60646 -3.00249 0
M  V30 38 N 4.4343 0.785586 -1.36625 0
M  V30 39 C 5.6803 1.5452 -1.32269 0
M  V30 40 C 6.0353 1.92159 0.0962266 0
M  V30 41 O 5.3283 1.60158 1.05167 0
M  V30 42 C 5.5223 2.83007 -2.1827 0
M  V30 43 C 5.3513 2.57925 -3.68382 0
M  V30 44 C 4.1213 2.52752 -4.37544 0
M  V30 45 C 6.3193 2.26861 -4.61561 0
M  V30 46 N 4.3013 2.19608 -5.73276 0
M  V30 47 C 5.6723 2.03738 -5.85569 0
M  V30 48 C 7.7273 2.129 -4.50087 0
M  V30 49 C 6.4303 1.68065 -6.9939 0
M  V30 50 C 8.4563 1.78626 -5.63779 0
M  V30 51 C 7.8183 1.56353 -6.86828 0
M  V30 52 H 3.9173 0.566301 -0.539283 0
M  V30 53 H 6.5013 0.917736 -1.71714 0
M  V30 54 H 4.6723 3.43614 -1.81063 0
M  V30 55 H 6.4043 3.48775 -2.05275 0
M  V30 56 H 3.1593 2.6813 -3.90389 0
M  V30 57 H 3.5833 2.05771 -6.44971 0
M  V30 58 H 8.2253 2.28808 -3.55537 0
M  V30 59 H 5.9433 1.50895 -7.93887 0
M  V30 60 H 9.5293 1.68502 -5.56865 0
M  V30 61 H 8.4093 1.30223 -7.73312 0
M  V30 62 N 5.9124 1.20967 1.01018 0
M  V30 63 C 7.1374 1.0503 1.78839 0
M  V30 64 C 7.5624 -0.395752 1.8389 0
M  V30 65 O 6.9204 -1.28529 1.27867 0
M  V30 66 C 6.9684 1.64602 3.2084 0
M  V30 67 O 6.0724 0.887988 4.02726 0
M  V30 68 H 5.4134 0.369987 0.551367 0
M  V30 69 H 7.9434 1.60399 1.27018 0
M  V30 70 H 7.9534 1.68607 3.71532 0
M  V30 71 H 6.6284 2.69841 3.16479 0
M  V30 72 H 5.2054 0.922648 3.61305 0
M  V30 73 N 7.3905 -1.2043 1.01659 0
M  V30 74 C 8.3535 -2.21433 0.591616 0
M  V30 75 C 9.3535 -1.57203 -0.338226 0
M  V30 76 O 10.5435 -1.73737 -0.126918 0
M  V30 77 C 7.6755 -3.40628 -0.136058 0
M  V30 78 H 8.8685 -2.60545 1.48514 0
M  V30 79 H 6.4215 -1.33893 0.806379 0
M  V30 80 H 7.1565 -3.07019 -1.04449 0
M  V30 81 H 6.9415 -3.88475 0.531917 0
M  V30 82 H 8.4315 -4.15475 -0.420735 0
M  V30 83 N 8.8686 -0.792821 -1.36206 0
M  V30 84 C 9.7986 -0.207853 -2.32573 0
M  V30 85 C 10.7796 0.659055 -1.56813 0
M  V30 86 O 11.9646 0.592176 -1.84951 0
M  V30 87 C 9.0946 0.655449 -3.41059 0
M  V30 88 C 8.0486 -0.111842 -4.27854 0
M  V30 89 C 7.3746 0.872274 -5.27537 0
M  V30 90 C 8.6746 -1.30299 -5.05786 0
M  V30 91 H 10.3686 -1.01294 -2.81744 0
M  V30 92 H 7.9146 -0.48854 -1.3546 0
M  V30 93 H 9.8676 1.07464 -4.07467 0
M  V30 94 H 8.5916 1.49328 -2.90463 0
M  V30 95 H 7.2506 -0.512053 -3.63006 0
M  V30 96 H 6.8986 1.70523 -4.73214 0
M  V30 97 H 6.5986 0.363291 -5.86476 0
M  V30 98 H 8.1226 1.28996 -5.96818 0
M  V30 99 H 9.5366 -0.959379 -5.65216 0
M  V30 100 H 7.9336 -1.7455 -5.74154 0
M  V30 101 H 9.0036 -2.09663 -4.37229 0
M  V30 102 N 10.3467 1.47872 -0.545128 0
M  V30 103 C 11.5947 2.02093 -0.016553 0
M  V30 104 C 11.9157 1.42305 1.3332 0
M  V30 105 O 11.1857 0.593853 1.86682 0
M  V30 106 H 9.7657 0.746993 -0.00313038 0
M  V30 107 H 12.4277 1.81414 -0.712397 0
M  V30 108 H 11.5237 3.11996 0.0805422 0
M  V30 109 N 11.8248 0.280983 1.55075 0
M  V30 110 C 12.7718 -0.603937 2.22758 0
M  V30 111 C 13.7418 -1.1452 1.20309 0
M  V30 112 O 14.9268 -1.19343 1.48869 0
M  V30 113 C 12.0668 -1.77947 2.95684 0
M  V30 114 C 11.1798 -1.2715 4.12864 0
M  V30 115 C 10.3148 -2.4093 4.7342 0
M  V30 116 C 9.3538 -1.87165 5.82783 0
M  V30 117 N 8.4908 -2.94441 6.37377 0
M  V30 118 H 13.3308 -0.020124 2.97993 0
M  V30 119 H 10.8678 0.00183425 1.471 0
M  V30 120 H 12.8258 -2.47055 3.36184 0
M  V30 121 H 11.4558 -2.33522 2.22861 0
M  V30 122 H 10.5078 -0.473331 3.77444 0
M  V30 123 H 11.8198 -0.837751 4.91715 0
M  V30 124 H 10.9738 -3.18021 5.1667 0
M  V30 125 H 9.7128 -2.87623 3.93859 0
M  V30 126 H 8.7178 -1.08556 5.38976 0
M  V30 127 H 9.9428 -1.41401 6.64216 0
M  V30 128 H 7.8888 -3.40505 5.60707 0
M  V30 129 H 7.8058 -2.55501 7.11516 0
M  V30 130 H 9.0738 -3.71489 6.85285 0
M  V30 131 N 13.3029 -1.57598 0.00835791 0
M  V30 132 C 14.2329 -2.1198 -0.979113 0
M  V30 133 C 15.2139 -1.03091 -1.35301 0
M  V30 134 O 16.3989 -1.30818 -1.43528 0
M  V30 135 C 13.5289 -2.62995 -2.26828 0
M  V30 136 C 12.4829 -3.76485 -2.03576 0
M  V30 137 C 11.8089 -4.13846 -3.38579 0
M  V30 138 C 13.1089 -5.0342 -1.39161 0
M  V30 139 H 14.8029 -2.94738 -0.526281 0
M  V30 140 H 12.3489 -1.41783 -0.251704 0
M  V30 141 H 14.3019 -2.99669 -2.96271 0
M  V30 142 H 13.0259 -1.7737 -2.7424 0
M  V30 143 H 11.6849 -3.40217 -1.36557 0
M  V30 144 H 11.3329 -3.25232 -3.83709 0
M  V30 145 H 11.0329 -4.90312 -3.23834 0
M  V30 146 H 12.5569 -4.53086 -4.09323 0
M  V30 147 H 13.9709 -5.37812 -1.98573 0
M  V30 148 H 12.3679 -5.84746 -1.34878 0
M  V30 149 H 13.4379 -4.83548 -0.361868 0
M  V30 150 N 14.781 0.264519 -1.55364 0
M  V30 151 C 15.711 1.33121 -1.91836 0
M  V30 152 C 16.692 1.51101 -0.781192 0
M  V30 153 O 17.877 1.64003 -1.04003 0
M  V30 154 C 15.007 2.68921 -2.19769 0
M  V30 155 C 13.961 2.65661 -3.35571 0
M  V30 156 C 13.287 4.05093 -3.49004 0
M  V30 157 C 14.587 2.24187 -4.71739 0
M  V30 158 H 16.281 1.02844 -2.81182 0
M  V30 159 H 13.827 0.493286 -1.35287 0
M  V30 160 H 15.78 3.43663 -2.43872 0
M  V30 161 H 14.504 3.00799 -1.27231 0
M  V30 162 H 13.163 1.93377 -3.1145 0
M  V30 163 H 12.811 4.34206 -2.53917 0
M  V30 164 H 12.511 4.03804 -4.26868 0
M  V30 165 H 14.035 4.81561 -3.75408 0
M  V30 166 H 15.449 2.88654 -4.9533 0
M  V30 167 H 13.846 2.34044 -5.52579 0
M  V30 168 H 14.916 1.19327 -4.69988 0
M  V30 169 N 16.2591 1.48442 0.529413 0
M  V30 170 C 17.5361 1.46978 1.29062 0
M  V30 171 C 17.9161 0.181769 2.10316 0
M  V30 172 O 17.2641 -0.836481 2.12639 0
M  V30 173 C 17.4741 2.7321 2.17157 0
M  V30 174 C 18.8221 3.21562 2.77278 0
M  V30 175 O 19.8461 2.74131 2.27444 0
M  V30 176 O 18.7051 4.04094 3.67927 0
M  V30 177 H 15.7991 0.587003 0.582543 0
M  V30 178 H 18.3451 1.60676 0.546021 0
M  V30 179 H 17.1171 3.58465 1.56903 0
M  V30 180 H 16.7401 2.62235 2.98862 0
M  V30 181 N 17.7372 -0.778329 1.37039 0
M  V30 182 C 18.6842 -1.89139 1.32269 0
M  V30 183 C 19.6542 -1.65017 0.189387 0
M  V30 184 O 20.8392 -1.87024 0.377693 0
M  V30 185 C 17.9792 -3.26112 1.12894 0
M  V30 186 C 17.0922 -3.62233 2.35396 0
M  V30 187 C 16.2272 -4.8838 2.08946 0
M  V30 188 C 15.2662 -5.17212 3.2735 0
M  V30 189 N 14.4032 -6.34546 3.00492 0
M  V30 190 H 19.2432 -1.92552 2.27437 0
M  V30 191 H 16.7802 -0.941473 1.13025 0
M  V30 192 H 18.7382 -4.05116 0.996835 0
M  V30 193 H 17.3682 -3.22091 0.213758 0
M  V30 194 H 16.4202 -2.78265 2.5937 0
M  V30 195 H 17.7322 -3.79481 3.23721 0
M  V30 196 H 16.8862 -5.75274 1.92729 0
M  V30 197 H 15.6252 -4.73222 1.17949 0
M  V30 198 H 14.6302 -4.28796 3.44113 0
M  V30 199 H 15.8552 -5.34283 4.19188 0
M  V30 200 H 13.8012 -6.20759 2.12118 0
M  V30 201 H 13.7182 -6.52179 3.82358 0
M  V30 202 H 14.9862 -7.24394 2.87879 0
M  V30 203 N 19.2153 -1.21501 -1.00376 0
M  V30 204 C 20.4613 -1.03452 -1.74429 0
M  V30 205 C 20.7943 0.430764 -1.89362 0
M  V30 206 O 20.0693 1.31962 -1.42886 0
M  V30 207 C 20.3523 -1.73375 -3.15615 0
M  V30 208 C 20.2053 -3.27431 -3.08397 0
M  V30 209 C 21.5243 -1.47732 -4.14564 0
M  V30 210 H 18.6433 -0.377226 -0.633143 0
M  V30 211 H 21.2853 -1.49693 -1.17013 0
M  V30 212 H 19.4353 -1.34064 -3.64636 0
M  V30 213 H 21.1073 -3.76119 -2.67081 0
M  V30 214 H 19.3503 -3.5767 -2.45468 0
M  V30 215 H 20.0213 -3.71524 -4.08258 0
M  V30 216 H 22.4973 -1.8186 -3.74254 0
M  V30 217 H 21.3733 -1.99169 -5.11491 0
M  V30 218 H 21.6343 -0.407589 -4.40217 0
M  V30 219 N 20.6934 1.19889 -1.02296 0
M  V30 220 C 21.6254 2.22334 -0.556787 0
M  V30 221 C 22.6384 1.58674 0.364199 0
M  V30 222 O 23.8274 1.77768 0.161533 0
M  V30 223 C 20.9274 3.38257 0.208694 0
M  V30 224 C 20.1004 4.31504 -0.71577 0
M  V30 225 C 19.1594 5.262 0.00325597 0
M  V30 226 O 18.1854 5.65798 -0.621357 0
M  V30 227 N 19.3874 5.66303 1.27599 0
M  V30 228 H 22.1524 2.62957 -1.43784 0
M  V30 229 H 19.7134 1.34495 -0.901261 0
M  V30 230 H 21.7054 3.98616 0.699111 0
M  V30 231 H 20.2754 2.96472 0.991102 0
M  V30 232 H 19.4954 3.69016 -1.38638 0
M  V30 233 H 20.7834 4.9072 -1.34428 0
M  V30 234 H 20.1814 5.36155 1.80429 0
M  V30 235 H 18.7384 6.28942 1.71102 0
M  V30 236 N 22.1715 0.800033 1.35784 0
M  V30 237 C 23.1345 0.211565 2.28221 0
M  V30 238 C 24.1345 -0.59728 1.49296 0
M  V30 239 O 25.3245 -0.416721 1.69142 0
M  V30 240 C 22.4565 -0.705846 3.33513 0
M  V30 241 H 23.6495 1.02677 2.81776 0
M  V30 242 H 21.2025 0.570211 1.45528 0
M  V30 243 H 21.9375 -1.54498 2.85133 0
M  V30 244 H 21.7225 -0.127655 3.91892 0
M  V30 245 H 23.2125 -1.11211 4.02519 0
M  V30 246 N 23.6496 -1.47581 0.552962 0
M  V30 247 C 24.8796 -2.06575 0.0320091 0
M  V30 248 C 25.2876 -1.4067 -1.26525 0
M  V30 249 O 24.6306 -0.495808 -1.76883 0
M  V30 250 C 24.6926 -3.58705 -0.238913 0
M  V30 251 C 24.3566 -4.46625 0.968272 0
M  V30 252 C 25.3536 -4.85 1.87274 0
M  V30 253 C 23.0386 -4.88201 1.18175 0
M  V30 254 C 25.0326 -5.63745 2.9744 0
M  V30 255 C 22.7196 -5.66712 2.28651 0
M  V30 256 C 23.7176 -6.04394 3.18114 0
M  V30 257 O 23.4056 -6.81324 4.26676 0
M  V30 258 H 23.1376 -0.674763 0.0408689 0
M  V30 259 H 25.6916 -1.90634 0.764719 0
M  V30 260 H 23.9216 -3.72844 -1.02588 0
M  V30 261 H 25.6106 -3.99735 -0.704731 0
M  V30 262 H 26.3766 -4.53482 1.71984 0
M  V30 263 H 22.2556 -4.58339 0.494593 0
M  V30 264 H 25.7996 -5.93077 3.67296 0
M  V30 265 H 21.6966 -5.97642 2.43915 0
M  V30 266 H 22.4646 -6.99712 4.24671 0
M  V30 267 N 25.1277 -0.289203 -1.54924 0
M  V30 268 C 26.3527 0.329299 -2.04769 0
M  V30 269 C 26.7777 1.4763 -1.16564 0
M  V30 270 O 26.1357 1.80527 -0.167186 0
M  V30 271 C 26.1837 0.774438 -3.52186 0
M  V30 272 O 25.2877 1.88038 -3.67036 0
M  V30 273 H 24.6287 0.0659259 -0.660719 0
M  V30 274 H 27.1587 -0.42761 -2.00082 0
M  V30 275 H 27.1687 1.06642 -3.93816 0
M  V30 276 H 25.8437 -0.0646707 -4.1585 0
M  V30 277 H 24.4207 1.58985 -3.3731 0
M  V30 278 N 26.6058 1.57591 -0.0167156 0
M  V30 279 C 27.8338 1.95575 0.675128 0
M  V30 280 C 28.2488 0.892542 1.6637 0
M  V30 281 O 27.6058 -0.126912 1.82058 0
M  V30 282 C 27.6568 3.33608 1.39239 0
M  V30 283 O 27.3778 4.3585 0.443444 0
M  V30 284 C 28.8788 3.86151 2.17721 0
M  V30 285 H 26.0988 0.644423 0.186978 0
M  V30 286 H 28.6428 2.0437 -0.0728 0
M  V30 287 H 26.7978 3.2607 2.09182 0
M  V30 288 H 27.2118 5.158 0.951358 0
M  V30 289 H 28.6858 4.85114 2.63379 0
M  V30 290 H 29.1628 3.19738 3.01105 0
M  V30 291 H 29.7688 3.96918 1.52761 0
M  V30 292 N 28.0839 -0.256276 1.55502 0
M  V30 293 C 29.0469 -1.30047 1.88734 0
M  V30 294 C 30.0469 -1.4154 0.763086 0
M  V30 295 O 31.2369 -1.40403 1.03115 0
M  V30 296 C 28.3689 -2.67953 2.10747 0
M  V30 297 H 29.5619 -1.01802 2.82093 0
M  V30 298 H 27.1149 -0.495134 1.4825 0
M  V30 299 H 27.8499 -3.01351 1.19825 0
M  V30 300 H 27.6349 -2.60993 2.92617 0
M  V30 301 H 29.1249 -3.43368 2.37673 0
M  V30 302 N 29.562 -1.4872 -0.521534 0
M  V30 303 C 30.81 -1.56857 -1.27437 0
M  V30 304 C 31.131 -0.247982 -1.93417 0
M  V30 305 O 30.401 0.731151 -1.81744 0
M  V30 306 H 28.981 -0.577885 -0.473347 0
M  V30 307 H 31.643 -1.85233 -0.606205 0
M  V30 308 H 30.739 -2.35402 -2.0492 0
M  V30 309 N 31.0401 0.771051 -1.3745 0
M  V30 310 C 32.2881 1.52661 -1.32435 0
M  V30 311 C 32.6091 1.9479 0.0905024 0
M  V30 312 O 31.8791 1.66348 1.03466 0
M  V30 313 H 30.4591 0.566218 -0.487244 0
M  V30 314 H 33.1211 0.917636 -1.71946 0
M  V30 315 H 32.2171 2.42568 -1.96385 0
M  V30 316 N 32.5182 1.22032 0.997298 0
M  V30 317 C 33.4652 0.986467 2.08656 0
M  V30 318 C 34.4352 -0.0902671 1.65855 0
M  V30 319 O 35.6202 0.0584294 1.90711 0
M  V30 320 C 32.7602 0.565569 3.40434 0
M  V30 321 C 31.8732 1.71259 3.96604 0
M  V30 322 C 31.0082 1.24011 5.16522 0
M  V30 323 C 30.0472 2.35896 5.64818 0
M  V30 324 N 29.1842 1.89726 6.7598 0
M  V30 325 H 34.0242 1.91892 2.27994 0
M  V30 326 H 31.5612 0.956199 1.11782 0
M  V30 327 H 33.5192 0.302738 4.161 0
M  V30 328 H 32.1492 -0.329879 3.2111 0
M  V30 329 H 31.2012 2.08986 3.17851 0
M  V30 330 H 32.5132 2.55436 4.28432 0
M  V30 331 H 31.6672 0.934395 5.99461 0
M  V30 332 H 30.4062 0.368487 4.86306 0
M  V30 333 H 29.4112 2.67261 4.8047 0
M  V30 334 H 30.6362 3.23567 5.97061 0
M  V30 335 H 28.5822 1.0492 6.47555 0
M  V30 336 H 28.4992 2.67471 7.07103 0
M  V30 337 H 29.7672 1.62211 7.62435 0
M  V30 338 N 33.9963 -1.19345 1.0293 0
M  V30 339 C 35.2423 -1.89318 0.727083 0
M  V30 340 C 35.5753 -1.79446 -0.742483 0
M  V30 341 O 34.8503 -1.1871 -1.54072 0
M  V30 342 C 35.1333 -3.40238 1.17942 0
M  V30 343 C 34.9863 -3.58979 2.71024 0
M  V30 344 C 36.3053 -4.33479 0.760548 0
M  V30 345 H 33.4243 -0.687475 0.265606 0
M  V30 346 H 36.0663 -1.40477 1.2793 0
M  V30 347 H 34.2163 -3.81964 0.709608 0
M  V30 348 H 35.8883 -3.26421 3.25955 0
M  V30 349 H 34.1313 -3.02018 3.11396 0
M  V30 350 H 34.8023 -4.64823 2.9773 0
M  V30 351 H 37.2783 -3.99469 1.16464 0
M  V30 352 H 36.1543 -5.37664 1.10493 0
M  V30 353 H 36.4153 -4.40813 -0.337063 0
M  V30 354 N 35.4744 -0.807222 -1.35358 0
M  V30 355 C 36.7204 -0.397594 -1.99476 0
M  V30 356 C 37.0754 1.02405 -1.62883 0
M  V30 357 O 36.3684 1.70077 -0.882282 0
M  V30 358 C 36.5624 -0.519036 -3.53611 0
M  V30 359 C 36.3914 -1.95094 -4.05177 0
M  V30 360 C 35.1614 -2.57945 -4.34503 0
M  V30 361 C 37.3594 -2.91558 -4.23673 0
M  V30 362 N 35.3414 -3.92539 -4.72003 0
M  V30 363 C 36.7124 -4.11024 -4.64176 0
M  V30 364 C 38.7674 -2.88381 -4.05883 0
M  V30 365 C 37.4704 -5.27745 -4.88751 0
M  V30 366 C 39.4964 -4.04306 -4.31614 0
M  V30 367 C 38.8584 -5.22519 -4.72391 0
M  V30 368 H 34.9574 -0.193274 -0.75774 0
M  V30 369 H 37.5414 -1.0486 -1.6405 0
M  V30 370 H 35.7124 0.101979 -3.88266 0
M  V30 371 H 37.4444 -0.0839321 -4.04613 0
M  V30 372 H 34.1994 -2.09295 -4.24844 0
M  V30 373 H 34.6234 -4.61836 -4.95011 0
M  V30 374 H 39.2654 -1.98137 -3.73499 0
M  V30 375 H 36.9834 -6.1856 -5.20008 0
M  V30 376 H 40.5694 -4.03229 -4.19402 0
M  V30 377 H 39.4494 -6.1073 -4.91913 0
M  V30 378 N 36.9525 1.47285 -0.560781 0
M  V30 379 C 37.8825 2.32857 0.173105 0
M  V30 380 C 38.8635 1.44009 0.905281 0
M  V30 381 O 40.0485 1.7286 0.885046 0
M  V30 382 C 37.1785 3.25861 1.20133 0
M  V30 383 C 36.1325 4.23978 0.585388 0
M  V30 384 C 35.4585 5.06332 1.7185 0
M  V30 385 C 36.7585 5.20242 -0.463178 0
M  V30 386 H 38.4525 2.94466 -0.541307 0
M  V30 387 H 35.9985 1.41601 -0.261764 0
M  V30 388 H 37.9515 3.84569 1.72293 0
M  V30 389 H 36.6755 2.62315 1.94573 0
M  V30 390 H 35.3345 3.66501 0.085054 0
M  V30 391 H 34.9825 4.39186 2.45203 0
M  V30 392 H 34.6825 5.72762 1.31213 0
M  V30 393 H 36.2065 5.67899 2.24329 0
M  V30 394 H 37.6205 5.73293 -0.027502 0
M  V30 395 H 36.0175 5.94896 -0.788627 0
M  V30 396 H 37.0875 4.65504 -1.35773 0
M  V30 397 N 38.4306 0.297415 1.54768 0
M  V30 398 C 39.6556 -0.318435 2.04941 0
M  V30 399 C 40.0806 -1.4701 1.17345 0
M  V30 400 O 39.4386 -1.80436 0.176758 0
M  V30 401 C 39.4866 -0.755749 3.52592 0
M  V30 402 O 38.5906 -1.86088 3.68028 0
M  V30 403 H 37.9316 -0.062421 0.661059 0
M  V30 404 H 40.4616 0.438215 1.99852 0
M  V30 405 H 40.4716 -1.04552 3.94376 0
M  V30 406 H 39.1466 0.0867233 4.1581 0
M  V30 407 H 37.7236 -1.57193 3.38149 0
M  V30 408 N 39.9087 -1.5758 0.0250728 0
M  V30 409 C 41.1547 -1.91917 -0.655413 0
M  V30 410 C 41.4877 -0.901433 -1.72011 0
M  V30 411 O 40.7627 0.0764069 -1.9435 0
M  V30 412 C 41.0457 -3.36751 -1.27558 0
M  V30 413 C 40.8987 -4.49258 -0.220719 0
M  V30 414 C 42.2177 -3.81469 -2.19475 0
M  V30 415 H 39.3367 -0.697925 -0.23679 0
M  V30 416 H 41.9787 -1.89825 0.0815036 0
M  V30 417 H 40.1287 -3.38664 -1.90365 0
M  V30 418 H 41.8007 -4.59478 0.409601 0
M  V30 419 H 40.0437 -4.31415 0.454264 0
M  V30 420 H 40.7147 -5.47618 -0.694175 0
M  V30 421 H 43.1907 -3.81266 -1.66659 0
M  V30 422 H 42.0667 -4.83512 -2.59822 0
M  V30 423 H 42.3277 -3.16744 -3.08424 0
M  V30 424 N 41.3868 0.248026 -1.55636 0
M  V30 425 C 42.3168 1.31079 -1.93237 0
M  V30 426 C 43.2978 1.50264 -0.797174 0
M  V30 427 O 44.4828 1.62891 -1.05737 0
M  V30 428 C 41.6128 2.66575 -2.22609 0
M  V30 429 C 40.5668 2.62087 -3.3837 0
M  V30 430 C 39.8928 4.01369 -3.53281 0
M  V30 431 C 41.1928 2.19171 -4.7409 0
M  V30 432 H 42.8868 0.998556 -2.82257 0
M  V30 433 H 40.4328 0.47891 -1.35803 0
M  V30 434 H 42.3858 3.41057 -2.47503 0
M  V30 435 H 41.1098 2.99432 -1.30414 0
M  V30 436 H 39.7688 1.90063 -3.13483 0
M  V30 437 H 39.4168 4.31489 -2.58508 0
M  V30 438 H 39.1168 3.99254 -4.31127 0
M  V30 439 H 40.6408 4.77552 -3.80495 0
M  V30 440 H 42.0548 2.83384 -4.98363 0
M  V30 441 H 40.4518 2.2817 -5.5503 0
M  V30 442 H 41.5218 1.14336 -4.71227 0
M  V30 443 N 42.8649 1.48995 0.513639 0
M  V30 444 C 44.1119 1.57843 1.26854 0
M  V30 445 C 44.4399 0.259501 1.92761 0
M  V30 446 O 43.6949 -0.75159 1.80692 0
M  V30 447 C 43.9939 2.67756 2.36731 0
M  V30 448 C 43.6599 4.09669 1.88368 0
M  V30 449 C 42.3219 4.48291 1.74896 0
M  V30 450 C 44.6739 4.98537 1.52021 0
M  V30 451 C 42.0019 5.73568 1.23438 0
M  V30 452 C 44.3539 6.24319 1.0202 0
M  V30 453 C 43.0179 6.61783 0.871778 0
M  V30 454 H 42.2879 0.577587 0.464192 0
M  V30 455 H 44.9349 1.82778 0.571366 0
M  V30 456 H 43.2399 2.36743 3.12185 0
M  V30 457 H 44.9369 2.71813 2.9482 0
M  V30 458 H 41.5269 3.79176 1.99808 0
M  V30 459 H 45.7109 4.69363 1.61281 0
M  V30 460 H 40.9669 6.01304 1.10648 0
M  V30 461 H 45.1409 6.92566 0.729722 0
M  V30 462 H 42.7679 7.5874 0.470852 0
M  V30 463 N 44.343 -0.763751 1.37857 0
M  V30 464 C 45.592 -1.51789 1.32827 0
M  V30 465 C 45.905 -1.95426 -0.0823719 0
M  V30 466 O 47.111 -2.70298 -0.255172 0
M  V30 467 C 45.567 -2.74133 2.33193 0
M  V30 468 C 45.175 -2.37562 3.79827 0
M  V30 469 C 46.919 -3.52054 2.37188 0
M  V30 470 C 44.826 -3.56456 4.71904 0
M  V30 471 H 43.756 -0.569896 0.493695 0
M  V30 472 H 46.407 -0.835822 1.63359 0
M  V30 473 H 44.789 -3.4427 1.9569 0
M  V30 474 H 45.963 -1.75157 4.26212 0
M  V30 475 H 44.278 -1.72798 3.78853 0
M  V30 476 H 46.875 -4.40437 3.03182 0
M  V30 477 H 47.218 -3.92486 1.38782 0
M  V30 478 H 47.751 -2.88921 2.7344 0
M  V30 479 H 44.49 -3.21099 5.71468 0
M  V30 480 H 44.01 -4.17938 4.30218 0
M  V30 481 H 45.689 -4.23168 4.89426 0
M  V30 482 N 45.8211 -1.22559 -0.990812 0
M  V30 483 C 47.0681 -1.05141 -1.73065 0
M  V30 484 C 47.3961 0.413191 -1.9006 0
M  V30 485 O 46.6511 1.32257 -1.44245 0
M  V30 486 C 46.9501 -1.71011 -3.13831 0
M  V30 487 C 46.6161 -3.20911 -3.16745 0
M  V30 488 C 45.2781 -3.61812 -3.17247 0
M  V30 489 C 47.6301 -4.16846 -3.12872 0
M  V30 490 C 44.9581 -4.97127 -3.1158 0
M  V30 491 C 47.3101 -5.5214 -3.08746 0
M  V30 492 C 45.9741 -5.92419 -3.07565 0
M  V30 493 H 45.2441 -0.384738 -0.633291 0
M  V30 494 H 47.8911 -1.5235 -1.16025 0
M  V30 495 H 46.1961 -1.16133 -3.74193 0
M  V30 496 H 47.8931 -1.55023 -3.69823 0
M  V30 497 H 44.4831 -2.88344 -3.17105 0
M  V30 498 H 48.6671 -3.86263 -3.11632 0
M  V30 499 H 43.9231 -5.27562 -3.09012 0
M  V30 500 H 48.0971 -6.26201 -3.04705 0
M  V30 501 H 45.7241 -6.97236 -3.02929 0
M  V30 502 N 47.2992 1.18797 -1.03562 0
M  V30 503 C 48.7152 1.40671 -0.753917 0
M  V30 504 C 48.9152 1.9043 0.658686 0
M  V30 505 O 47.9712 2.08538 1.42366 0
M  V30 506 C 49.2842 2.41192 -1.79574 0
M  V30 507 C 50.8322 2.54928 -1.81606 0
M  V30 508 C 51.3072 3.58709 -2.84766 0
M  V30 509 N 52.7982 3.66212 -2.83625 0
M  V30 510 C 53.5332 4.46225 -3.60098 0
M  V30 511 N 53.0292 5.29888 -4.46308 0
M  V30 512 N 54.8222 4.40939 -3.4861 0
M  V30 513 H 46.9732 0.848221 -1.94728 0
M  V30 514 H 49.2362 0.435081 -0.842264 0
M  V30 515 H 48.9422 2.11669 -2.80872 0
M  V30 516 H 48.8162 3.40467 -1.62365 0
M  V30 517 H 51.2032 2.83771 -0.809817 0
M  V30 518 H 51.2842 1.55784 -2.02891 0
M  V30 519 H 50.9282 3.30607 -3.85566 0
M  V30 520 H 50.8582 4.57519 -2.60737 0
M  V30 521 H 53.3492 3.06466 -2.21105 0
M  V30 522 H 53.6622 5.88078 -5.01382 0
M  V30 523 H 52.0072 5.29326 -4.50377 0
M  V30 524 H 55.1982 3.74624 -2.80668 0
M  V30 525 H 55.3712 5.03056 -4.08459 0
M  V30 526 N 48.7773 0.814389 1.34928 0
M  V30 527 C 50.0263 0.394871 1.97797 0
M  V30 528 C 50.3393 -1.04555 1.65311 0
M  V30 529 O 51.5453 -1.56856 2.21604 0
M  V30 530 C 50.0013 0.655103 3.53888 0
M  V30 531 C 49.6093 2.10858 3.95276 0
M  V30 532 C 51.3533 0.301329 4.23429 0
M  V30 533 C 49.2603 2.31415 5.44244 0
M  V30 534 H 48.1903 0.143913 0.740139 0
M  V30 535 H 50.8413 0.999544 1.53888 0
M  V30 536 H 49.2233 -0.0196253 3.95995 0
M  V30 537 H 50.3973 2.82176 3.64298 0
M  V30 538 H 48.7123 2.42297 3.38646 0
M  V30 539 H 51.3093 0.432869 5.32945 0
M  V30 540 H 51.6523 -0.75331 4.09428 0
M  V30 541 H 52.1853 0.930288 3.86769 0
M  V30 542 H 48.9243 3.35353 5.63222 0
M  V30 543 H 48.4443 1.6463 5.76764 0
M  V30 544 H 50.1233 2.13352 6.10811 0
M  V30 545 N 50.2554 -1.46986 0.568584 0
M  V30 546 C 51.1854 -2.32946 -0.160753 0
M  V30 547 C 52.1664 -1.44487 -0.897631 0
M  V30 548 O 53.3514 -1.73327 -0.875867 0
M  V30 549 C 50.4814 -3.26494 -1.18403 0
M  V30 550 C 49.4354 -4.24282 -0.562895 0
M  V30 551 C 48.7614 -5.07236 -1.69163 0
M  V30 552 C 50.0614 -5.19989 0.490761 0
M  V30 553 H 51.7554 -2.94175 0.556916 0
M  V30 554 H 49.3014 -1.4146 0.26927 0
M  V30 555 H 51.2544 -3.85477 -1.70251 0
M  V30 556 H 49.9784 -2.63343 -1.93179 0
M  V30 557 H 48.6374 -3.66541 -0.0656164 0
M  V30 558 H 48.2854 -4.4048 -2.42871 0
M  V30 559 H 47.9854 -5.7345 -1.28174 0
M  V30 560 H 49.5094 -5.6908 -2.21314 0
M  V30 561 H 50.9234 -5.73271 0.0579047 0
M  V30 562 H 49.3204 -5.94469 0.820165 0
M  V30 563 H 50.3904 -4.64777 1.3824 0
M  V30 564 N 51.7335 -0.305618 -1.54608 0
M  V30 565 C 52.6635 0.561482 -2.26649 0
M  V30 566 C 53.6445 1.13415 -1.26772 0
M  V30 567 O 54.8295 1.16262 -1.55553 0
M  V30 568 C 51.9595 1.73122 -3.01075 0
M  V30 569 C 50.9135 1.2887 -4.08138 0
M  V30 570 C 50.2395 2.54396 -4.70305 0
M  V30 571 C 51.5395 0.416578 -5.20636 0
M  V30 572 H 53.2335 -0.0393902 -2.99374 0
M  V30 573 H 50.7795 -0.020385 -1.43986 0
M  V30 574 H 52.7325 2.34396 -3.50195 0
M  V30 575 H 51.4565 2.3584 -2.25936 0
M  V30 576 H 50.1155 0.698991 -3.59875 0
M  V30 577 H 49.7635 3.15439 -3.918 0
M  V30 578 H 49.4635 2.25486 -5.42614 0
M  V30 579 H 50.9875 3.16464 -5.2219 0
M  V30 580 H 52.4015 0.935116 -5.65622 0
M  V30 581 H 50.7985 0.221046 -5.99693 0
M  V30 582 H 51.8685 -0.557162 -4.81688 0
M  V30 583 N 53.2116 1.57565 -0.0334293 0
M  V30 584 C 54.1416 2.13511 0.945265 0
M  V30 585 C 55.1226 1.05231 1.33643 0
M  V30 586 O 56.3076 1.33084 1.41429 0
M  V30 587 C 53.4376 2.6657 2.22616 0
M  V30 588 C 52.3916 3.79676 1.97561 0
M  V30 589 C 51.7176 4.1918 3.31952 0
M  V30 590 C 53.0176 5.0557 1.31135 0
M  V30 591 H 54.7116 2.95538 0.479325 0
M  V30 592 H 52.2576 1.42166 0.229115 0
M  V30 593 H 54.2106 3.04344 2.91466 0
M  V30 594 H 52.9346 1.8171 2.71384 0
M  V30 595 H 51.5936 3.42347 1.31127 0
M  V30 596 H 51.2416 3.31296 3.78487 0
M  V30 597 H 50.9416 4.95402 3.15992 0
M  V30 598 H 52.4656 4.59541 4.02063 0
M  V30 599 H 53.8796 5.40903 1.89992 0
M  V30 600 H 52.2766 5.86818 1.25559 0
M  V30 601 H 53.3466 4.84062 0.284894 0
M  V30 602 N 54.6897 -0.239769 1.55765 0
M  V30 603 C 55.9377 -0.964892 1.77579 0
M  V30 604 C 56.2587 -1.85582 0.598699 0
M  V30 605 O 55.5287 -1.92075 -0.385226 0
M  V30 606 H 54.1087 -0.359265 0.654933 0
M  V30 607 H 56.7707 -0.256001 1.93211 0
M  V30 608 H 55.8667 -1.58243 2.69009 0
M  V30 609 N 56.1678 -1.49265 -0.50573 0
M  V30 610 C 57.3958 -1.62215 -1.28429 0
M  V30 611 C 57.8108 -0.291697 -1.86533 0
M  V30 612 O 57.1678 0.722233 -1.67601 0
M  V30 613 C 57.2188 -2.68735 -2.41793 0
M  V30 614 O 56.9398 -3.96619 -1.86078 0
M  V30 615 C 58.4408 -2.92346 -3.3324 0
M  V30 616 H 55.6608 -0.546239 -0.389697 0
M  V30 617 H 58.2048 -1.95265 -0.607609 0
M  V30 618 H 56.3598 -2.38476 -3.053 0
M  V30 619 H 56.7738 -4.55256 -2.60465 0
M  V30 620 H 58.2478 -3.70623 -4.09075 0
M  V30 621 H 58.7248 -2.02081 -3.89948 0
M  V30 622 H 59.3308 -3.24003 -2.75503 0
M  V30 623 N 57.6459 0.756429 -1.3826 0
M  V30 624 C 58.6089 1.85176 -1.35065 0
M  V30 625 C 59.6089 1.58818 -0.251703 0
M  V30 626 O 60.7989 1.66615 -0.508433 0
M  V30 627 C 57.9309 3.22596 -1.10201 0
M  V30 628 H 59.1239 1.89417 -2.3251 0
M  V30 629 H 56.6769 0.95783 -1.23512 0
M  V30 630 H 57.4119 3.24025 -0.133504 0
M  V30 631 H 57.1969 3.43122 -1.89762 0
M  V30 632 H 58.6869 4.02673 -1.10654 0
M  V30 633 N 59.124 1.23083 0.984299 0
M  V30 634 C 60.37 1.06214 1.72761 0
M  V30 635 C 60.703 -0.400584 1.90024 0
M  V30 636 O 59.978 -1.29672 1.44967 0
M  V30 637 C 60.261 1.78375 3.12817 0
M  V30 638 C 60.114 3.32296 3.03149 0
M  V30 639 C 61.433 1.54309 4.12161 0
M  V30 640 H 58.552 0.387251 0.627061 0
M  V30 641 H 61.194 1.51536 1.14616 0
M  V30 642 H 59.344 1.39848 3.62457 0
M  V30 643 H 61.016 3.8032 2.61064 0
M  V30 644 H 59.259 3.6153 2.39747 0
M  V30 645 H 59.93 3.77972 4.02295 0
M  V30 646 H 62.406 1.87791 3.71314 0
M  V30 647 H 61.282 2.07281 5.08258 0
M  V30 648 H 61.543 0.477572 4.39513 0
M  V30 649 N 60.6021 -1.18246 1.0419 0
M  V30 650 C 61.5121 -2.25574 0.644476 0
M  V30 651 C 62.5281 -1.70845 -0.329826 0
M  V30 652 O 63.7041 -2.00554 -0.184443 0
M  V30 653 C 60.7691 -3.46697 0.014877 0
M  V30 654 C 59.8301 -4.16554 1.03834 0
M  V30 655 C 59.0631 -5.31894 0.438692 0
M  V30 656 O 59.2861 -5.65385 -0.754752 0
M  V30 657 O 58.2201 -5.90459 1.168 0
M  V30 658 H 62.0461 -2.61836 1.53869 0
M  V30 659 H 59.6311 -1.25352 0.812854 0
M  V30 660 H 61.5131 -4.20062 -0.335538 0
M  V30 661 H 60.1881 -3.12255 -0.853138 0
M  V30 662 H 59.0951 -3.45251 1.44057 0
M  V30 663 H 60.4281 -4.54998 1.87716 0
M  V30 664 N 62.0802 -0.821533 -1.34494 0
M  V30 665 C 63.3052 -0.420873 -2.03085 0
M  V30 666 C 63.7302 0.964915 -1.61465 0
M  V30 667 O 63.0882 1.62763 -0.798607 0
M  V30 668 C 63.1362 -0.529414 -3.56693 0
M  V30 669 O 62.2402 0.451302 -4.09923 0
M  V30 670 H 61.5812 -0.173489 -0.640935 0
M  V30 671 H 64.1112 -1.11157 -1.71771 0
M  V30 672 H 64.1212 -0.404671 -4.05988 0
M  V30 673 H 62.7962 -1.54014 -3.86332 0
M  V30 674 H 61.3732 0.285558 -3.71805 0
M  V30 675 N 63.5583 1.46682 -0.576371 0
M  V30 676 C 64.5213 2.28707 0.150239 0
M  V30 677 C 65.5213 1.38035 0.824794 0
M  V30 678 O 66.7113 1.60476 0.677719 0
M  V30 679 C 63.8433 3.18248 1.22192 0
M  V30 680 H 65.0363 2.94423 -0.570521 0
M  V30 681 H 62.5893 1.52688 -0.334078 0
M  V30 682 H 63.3243 2.57265 1.97447 0
M  V30 683 H 63.1093 3.85 0.742812 0
M  V30 684 H 64.5993 3.80001 1.73172 0
M  V30 685 N 65.0364 0.313813 1.54444 0
M  V30 686 C 66.2824 -0.284918 2.01395 0
M  V30 687 C 66.6374 -1.50537 1.19818 0
M  V30 688 O 65.9304 -1.89692 0.269748 0
M  V30 689 C 66.1244 -0.680386 3.50864 0
M  V30 690 C 65.9534 0.500198 4.4691 0
M  V30 691 C 64.7234 0.996248 4.95382 0
M  V30 692 C 66.9214 1.34928 4.96285 0
M  V30 693 N 64.9034 2.14226 5.75309 0
M  V30 694 C 66.2744 2.3426 5.7404 0
M  V30 695 C 68.3294 1.37818 4.78446 0
M  V30 696 C 67.0324 3.36272 6.35856 0
M  V30 697 C 69.0584 2.38695 5.4109 0
M  V30 698 C 68.4204 3.36755 6.18688 0
M  V30 699 H 64.5194 -0.0683689 0.779006 0
M  V30 700 H 67.1034 0.44664 1.89508 0
M  V30 701 H 65.2744 -1.38109 3.63016 0
M  V30 702 H 67.0064 -1.25975 3.84594 0
M  V30 703 H 63.7614 0.56912 4.70168 0
M  V30 704 H 64.1854 2.72005 6.19953 0
M  V30 705 H 68.8274 0.633747 4.18023 0
M  V30 706 H 66.5454 4.11627 6.95405 0
M  V30 707 H 70.1314 2.41721 5.29209 0
M  V30 708 H 69.0114 4.13535 6.66302 0
M  V30 709 N 66.5145 -1.57545 0.0417849 0
M  V30 710 C 67.7625 -1.91937 -0.632829 0
M  V30 711 C 68.0835 -0.919978 -1.71934 0
M  V30 712 O 67.3535 0.0366064 -1.95866 0
M  V30 713 H 65.9335 -0.708493 -0.236742 0
M  V30 714 H 68.5955 -1.9468 0.0925745 0
M  V30 715 H 67.6915 -2.92912 -1.07746 0
M  V30 716 N 67.9926 0.231505 -1.5589 0
M  V30 717 C 69.2696 0.981096 -1.69215 0
M  V30 718 C 69.6496 2.02799 -0.586164 0
M  V30 719 O 68.9976 2.24823 0.408253 0
M  V30 720 C 69.2076 1.60054 -3.10135 0
M  V30 721 C 70.5556 2.09658 -3.69227 0
M  V30 722 O 71.5796 1.69967 -3.13033 0
M  V30 723 O 70.4386 2.8258 -4.67772 0
M  V30 724 H 67.5326 0.457653 -0.688827 0
M  V30 725 H 70.0786 0.224073 -1.68214 0
M  V30 726 H 68.8506 0.844105 -3.82087 0
M  V30 727 H 68.4736 2.42336 -3.15212 0
M  V30 728 N 69.4707 1.49531 0.497807 0
M  V30 729 C 70.3807 1.69176 1.62532 0
M  V30 730 C 71.3967 0.5744 1.64246 0
M  V30 731 O 72.5727 0.849497 1.82608 0
M  V30 732 C 69.6377 1.75695 2.98885 0
M  V30 733 C 68.6987 2.9929 3.07773 0
M  V30 734 C 67.9317 3.05488 4.37622 0
M  V30 735 O 68.1547 2.19192 5.26603 0
M  V30 736 O 67.0887 3.9798 4.51548 0
M  V30 737 H 70.9147 2.647 1.48887 0
M  V30 738 H 68.4997 1.3331 0.674441 0
M  V30 739 H 70.3817 1.82317 3.79919 0
M  V30 740 H 69.0567 0.8335 3.12785 0
M  V30 741 H 67.9637 2.98183 2.25915 0
M  V30 742 H 69.2967 3.91125 2.98801 0
M  V30 743 N 70.9488 -0.749086 1.3866 0
M  V30 744 C 71.8808 -1.87273 1.32142 0
M  V30 745 C 72.8938 -1.61127 0.232787 0
M  V30 746 O 74.0828 -1.71623 0.49069 0
M  V30 747 C 71.1828 -3.23005 1.02571 0
M  V30 748 C 70.3558 -3.7662 2.22433 0
M  V30 749 C 69.4148 -4.90879 1.89537 0
M  V30 750 O 68.4408 -5.05276 2.62078 0
M  V30 751 N 69.6428 -5.74198 0.853031 0
M  V30 752 H 72.4078 -1.93373 2.28969 0
M  V30 753 H 69.9688 -0.929216 1.32579 0
M  V30 754 H 71.9608 -3.96992 0.786085 0
M  V30 755 H 70.5308 -3.12262 0.145249 0
M  V30 756 H 69.7508 -2.94147 2.62434 0
M  V30 757 H 71.0388 -4.09173 3.02415 0
M  V30 758 H 70.4368 -5.6514 0.25155 0
M  V30 759 H 68.9938 -6.48313 0.67329 0
M  V30 760 N 72.4269 -1.23603 -0.977757 0
M  V30 761 C 73.6519 -1.09735 -1.75991 0
M  V30 762 C 74.0769 0.346858 -1.84874 0
M  V30 763 O 73.4349 1.25093 -1.3123 0
M  V30 764 C 73.4829 -1.73051 -3.16363 0
M  V30 765 O 72.5869 -0.994452 -4.0023 0
M  V30 766 H 71.9279 -0.384476 -0.541364 0
M  V30 767 H 74.4579 -1.6371 -1.2272 0
M  V30 768 H 74.4679 -1.78398 -3.66931 0
M  V30 769 H 73.1429 -2.78137 -3.09213 0
M  V30 770 H 71.7199 -1.01812 -3.58732 0
M  V30 771 N 73.905 1.17692 -1.04816 0
M  V30 772 C 74.868 2.19787 -0.650117 0
M  V30 773 C 75.868 1.58044 0.296427 0
M  V30 774 O 77.058 1.74012 0.0808097 0
M  V30 775 C 74.19 3.40869 0.0456987 0
M  V30 776 H 75.383 2.56516 -1.5537 0
M  V30 777 H 72.936 1.31708 -0.841594 0
M  V30 778 H 73.671 3.09681 0.962726 0
M  V30 779 H 73.456 3.86928 -0.634727 0
M  V30 780 H 74.946 4.16445 0.310432 0
M  V30 781 N 75.3831 0.828654 1.34056 0
M  V30 782 C 76.6301 0.419458 1.98108 0
M  V30 783 C 76.9581 -1.01886 1.65679 0
M  V30 784 O 76.2131 -1.72539 0.923512 0
M  V30 785 C 76.5121 0.575226 3.52741 0
M  V30 786 C 76.1781 1.98012 4.05095 0
M  V30 787 C 74.8401 2.36442 4.19104 0
M  V30 788 C 77.1921 2.89824 4.33188 0
M  V30 789 C 74.5201 3.66009 4.58535 0
M  V30 790 C 76.8721 4.1886 4.74066 0
M  V30 791 C 75.5361 4.5726 4.86281 0
M  V30 792 H 74.8061 0.153491 0.724929 0
M  V30 793 H 77.4531 1.05371 1.59904 0
M  V30 794 H 75.7581 -0.142385 3.91541 0
M  V30 795 H 77.4551 0.239057 4.00287 0
M  V30 796 H 74.0451 1.67162 3.94658 0
M  V30 797 H 78.2291 2.61375 4.21897 0
M  V30 798 H 73.4851 3.95579 4.66184 0
M  V30 799 H 77.6591 4.90086 4.94761 0
M  V30 800 H 75.2861 5.57707 5.16592 0
M  V30 801 N 76.8612 -1.46375 0.584142 0
M  V30 802 C 78.2772 -1.57694 0.245929 0
M  V30 803 C 78.4772 -1.57903 -1.25175 0
M  V30 804 O 77.5332 -1.49676 -2.03355 0
M  V30 805 C 78.8462 -2.87028 0.896402 0
M  V30 806 C 80.3942 -3.00662 0.870127 0
M  V30 807 C 80.8692 -4.32734 1.50017 0
M  V30 808 N 82.3602 -4.39436 1.46458 0
M  V30 809 C 83.0952 -5.40248 1.92144 0
M  V30 810 N 82.5912 -6.47726 2.4581 0
M  V30 811 N 84.3842 -5.31459 1.83052 0
M  V30 812 H 76.5352 -1.44483 1.55687 0
M  V30 813 H 78.7982 -0.689291 0.650831 0
M  V30 814 H 78.5042 -2.9269 1.95002 0
M  V30 815 H 78.3782 -3.75014 0.405486 0
M  V30 816 H 80.7652 -2.94581 -0.174871 0
M  V30 817 H 80.8462 -2.14148 1.39908 0
M  V30 818 H 80.4902 -4.39573 2.54437 0
M  V30 819 H 80.4202 -5.18025 0.946432 0
M  V30 820 H 82.9112 -3.62367 1.07231 0
M  V30 821 H 83.2242 -7.20863 2.78525 0
M  V30 822 H 81.5692 -6.48542 2.49836 0
M  V30 823 H 84.7602 -4.46396 1.40883 0
M  V30 824 H 84.9332 -6.09881 2.18973 0
M  V30 825 N 78.3393 -0.321999 -1.54275 0
M  V30 826 C 79.5793 0.281657 -2.0245 0
M  V30 827 C 79.9433 1.49468 -1.20513 0
M  V30 828 O 81.1443 2.17109 -1.58484 0
M  V30 829 C 79.4153 0.609014 -3.52173 0
M  V30 830 S 80.9743 1.19255 -4.22284 0
M  V30 831 H 77.7923 0.0852825 -0.705867 0
M  V30 832 H 80.3943 -0.454758 -1.90137 0
M  V30 833 H 79.0983 -0.281982 -4.0943 0
M  V30 834 H 78.6293 1.37567 -3.68563 0
M  V30 835 H 80.6443 2.47944 -4.29812 0
M  V30 836 N 79.8174 1.5752 -0.0501392 0
M  V30 837 C 80.7654 2.12651 0.942459 0
M  V30 838 C 81.7594 1.05807 1.32292 0
M  V30 839 O 82.9654 1.24217 1.3027 0
M  V30 840 H 79.3404 0.679673 0.321789 0
M  V30 841 H 81.3114 2.94951 0.452356 0
M  V30 842 C 80.0604 2.68565 2.20836 0
M  V30 843 H 79.3834 3.50439 1.92439 0
M  V30 844 H 80.8234 3.10761 2.8845 0
M  V30 845 C 79.2824 1.62291 2.95234 0
M  V30 846 O 79.8124 1.03508 3.88135 0
M  V30 847 N 78.0184 1.33836 2.57946 0
M  V30 848 H 77.5654 1.81826 1.82475 0
M  V30 849 H 77.5234 0.629595 3.08032 0
M  V30 850 N 81.2955 -0.223234 1.56011 0
M  V30 851 C 82.5235 -0.964812 1.83027 0
M  V30 852 C 82.9385 -1.78013 0.62904 0
M  V30 853 O 82.2955 -1.78008 -0.402414 0
M  V30 854 C 82.3465 -1.88373 3.08542 0
M  V30 855 O 82.0675 -1.10137 4.2403 0
M  V30 856 C 83.5685 -2.73934 3.48533 0
M  V30 857 H 80.7885 -0.282842 0.608475 0
M  V30 858 H 83.3325 -0.238971 2.03099 0
M  V30 859 H 81.4875 -2.56354 2.9045 0
M  V30 860 H 81.9015 -1.72501 4.95322 0
M  V30 861 H 83.3755 -3.34117 4.39397 0
M  V30 862 H 83.8525 -3.46244 2.70207 0
M  V30 863 H 84.4585 -2.11369 3.69057 0
M  V30 864 N 82.7736 -1.49793 -0.48987 0
M  V30 865 C 83.7056 -1.63413 -1.60713 0
M  V30 866 C 84.7186 -0.516329 -1.54395 0
M  V30 867 O 85.9076 -0.788812 -1.60125 0
M  V30 868 C 83.0076 -1.58516 -2.99543 0
M  V30 869 C 82.1806 -2.86016 -3.30928 0
M  V30 870 C 81.2396 -2.74018 -4.49222 0
M  V30 871 O 80.2656 -3.47964 -4.50455 0
M  V30 872 N 81.4676 -1.86309 -5.4979 0
M  V30 873 H 84.2326 -2.59777 -1.49452 0
M  V30 874 H 81.7936 -1.47022 -0.677955 0
M  V30 875 H 83.7856 -1.48128 -3.76617 0
M  V30 876 H 82.3556 -0.69965 -3.0467 0
M  V30 877 H 81.5756 -3.10672 -2.42645 0
M  V30 878 H 82.8636 -3.70521 -3.487 0
M  V30 879 H 82.2616 -1.2551 -5.51601 0
M  V30 880 H 80.8186 -1.81837 -6.25922 0
M  V30 881 N 84.2517 0.741722 -1.39055 0
M  V30 882 C 85.1837 1.8657 -1.33133 0
M  V30 883 C 86.1967 1.61001 -0.241329 0
M  V30 884 O 87.3857 1.7136 -0.499784 0
M  V30 885 C 84.4857 3.22457 -1.04283 0
M  V30 886 C 83.6587 3.75435 -2.24427 0
M  V30 887 C 82.7177 4.89867 -1.92138 0
M  V30 888 O 81.7437 5.03879 -2.64754 0
M  V30 889 N 82.9457 5.73738 -0.88347 0
M  V30 890 H 85.7107 1.92156 -2.29991 0
M  V30 891 H 83.2717 0.922172 -1.3307 0
M  V30 892 H 85.2637 3.9657 -0.807128 0
M  V30 893 H 83.8337 3.12181 -0.161807 0
M  V30 894 H 83.0537 2.92751 -2.6399 0
M  V30 895 H 84.3417 4.07563 -3.04581 0
M  V30 896 H 83.7397 5.64999 -0.281517 0
M  V30 897 H 82.2967 6.47947 -0.707662 0
M  V30 898 N 85.7298 1.2412 0.971189 0
M  V30 899 C 87.1408 1.07236 1.52831 0
M  V30 900 C 87.4918 -0.357352 1.92918 0
M  V30 901 O 86.6168 -1.24528 1.76979 0
M  V30 902 C 87.2118 1.94043 2.77728 0
M  V30 903 C 85.7708 1.81394 3.29808 0
M  V30 904 C 84.9178 1.89189 2.02738 0
M  V30 905 H 87.8688 1.37648 0.789864 0
M  V30 906 H 87.8898 1.47066 3.5093 0
M  V30 907 H 87.4018 2.98093 2.4852 0
M  V30 908 H 85.5028 0.801634 3.63874 0
M  V30 909 H 85.6158 2.65294 3.98944 0
M  V30 910 H 83.9798 1.32877 2.17292 0
M  V30 911 H 84.7628 2.94812 1.759 0
M  V30 912 N 87.2079 -1.17134 1.05439 0
M  V30 913 C 88.4559 -1.87085 0.764429 0
M  V30 914 C 88.7769 -1.81584 -0.710787 0
M  V30 915 O 88.0469 -1.24349 -1.51374 0
M  V30 916 H 86.6269 -0.692627 0.279779 0
M  V30 917 H 89.2889 -1.42087 1.33406 0
M  V30 918 H 88.3849 -2.92759 1.0816 0
M  V30 919 N 88.686 -0.835752 -1.33615 0
M  V30 920 C 89.926 -0.43599 -1.99696 0
M  V30 921 C 90.29 0.98557 -1.64774 0
M  V30 922 O 91.491 1.48889 -2.23798 0
M  V30 923 C 89.762 -0.646721 -3.515 0
M  V30 924 S 91.321 -0.341715 -4.37467 0
M  V30 925 H 88.139 -0.164136 -0.691795 0
M  V30 926 H 90.741 -1.08436 -1.62671 0
M  V30 927 H 89.445 -1.68077 -3.74404 0
M  V30 928 H 88.976 0.0159173 -3.93397 0
M  V30 929 H 90.991 0.839708 -4.89043 0
M  V30 930 N 90.1641 1.46063 -0.591896 0
M  V30 931 C 91.0741 2.34192 0.13831 0
M  V30 932 C 92.0901 1.50305 0.876608 0
M  V30 933 O 93.2661 1.8315 0.837728 0
M  V30 934 C 90.3311 3.27656 1.13326 0
M  V30 935 C 89.3921 4.27445 0.39863 0
M  V30 936 C 88.6251 5.16443 1.34618 0
M  V30 937 O 88.8481 5.08553 2.58321 0
M  V30 938 O 87.7821 5.95843 0.851768 0
M  V30 939 H 91.6081 2.98002 -0.58552 0
M  V30 940 H 89.1931 1.45188 -0.352239 0
M  V30 941 H 91.0751 3.85291 1.70671 0
M  V30 942 H 89.7501 2.6643 1.83839 0
M  V30 943 H 88.6571 3.73471 -0.216895 0
M  V30 944 H 89.9901 4.91482 -0.265709 0
M  V30 945 N 91.6422 0.330177 1.54103 0
M  V30 946 C 92.5902 -0.548226 2.26047 0
M  V30 947 C 93.5842 -1.11309 1.27698 0
M  V30 948 O 94.7902 -1.06036 1.45452 0
M  V30 949 H 91.1652 -0.195456 0.726155 0
M  V30 950 H 93.1362 0.0807567 2.98291 0
M  V30 951 C 91.8852 -1.69415 3.03634 0
M  V30 952 H 91.2082 -1.26876 3.79134 0
M  V30 953 H 92.6482 -2.28423 3.5721 0
M  V30 954 C 91.1072 -2.61569 2.12328 0
M  V30 955 O 91.6372 -3.63462 1.7105 0
M  V30 956 N 89.8432 -2.29952 1.77681 0
M  V30 957 H 89.3902 -1.47134 2.11446 0
M  V30 958 H 89.3482 -2.91871 1.16869 0
M  V30 959 N 93.1203 -1.57491 0.0584922 0
M  V30 960 C 94.3663 -1.93264 -0.614558 0
M  V30 961 C 94.6993 -0.937717 -1.7006 0
M  V30 962 O 93.9743 0.0351652 -1.94468 0
M  V30 963 C 94.2573 -3.3938 -1.20386 0
M  V30 964 C 94.1103 -4.49625 -0.125375 0
M  V30 965 C 95.4293 -3.86039 -2.11334 0
M  V30 966 H 92.5483 -0.702791 -0.221933 0
M  V30 967 H 95.1903 -1.8961 0.12175 0
M  V30 968 H 93.3403 -3.42626 -1.83139 0
M  V30 969 H 95.0123 -4.58506 0.506971 0
M  V30 970 H 93.2553 -4.30354 0.545672 0
M  V30 971 H 93.9263 -5.48967 -0.577861 0
M  V30 972 H 96.4023 -3.84716 -1.58534 0
M  V30 973 H 95.2783 -4.88914 -2.49507 0
M  V30 974 H 95.5393 -3.23215 -3.01636 0
M  V30 975 N 94.5984 0.214957 -1.56127 0
M  V30 976 C 95.8384 0.945364 -1.81224 0
M  V30 977 C 96.2024 1.81265 -0.633005 0
M  V30 978 O 97.4034 2.57731 -0.763423 0
M  V30 979 C 95.6744 1.75665 -3.1125 0
M  V30 980 S 97.2334 2.54179 -3.57685 0
M  V30 981 H 94.0514 0.317443 -0.6362 0
M  V30 982 H 96.6534 0.210381 -1.94365 0
M  V30 983 H 95.3574 1.10977 -3.9511 0
M  V30 984 H 94.8884 2.53381 -3.00934 0
M  V30 985 H 96.9034 3.7792 -3.21545 0
M  V30 986 N 96.0765 1.50051 0.48192 0
M  V30 987 C 97.3065 1.63999 1.2565 0
M  V30 988 C 97.7145 0.318288 1.86504 0
M  V30 989 O 97.0575 -0.708534 1.69486 0
M  V30 990 C 97.1195 2.66504 2.4128 0
M  V30 991 C 96.7835 4.10352 2.01148 0
M  V30 992 C 97.7805 4.96562 1.54021 0
M  V30 993 C 95.4655 4.56203 2.10199 0
M  V30 994 C 97.4595 6.26668 1.16473 0
M  V30 995 C 95.1465 5.86318 1.72264 0
M  V30 996 C 96.1445 6.71375 1.25477 0
M  V30 997 O 95.8325 7.99062 0.880626 0
M  V30 998 H 95.5645 0.55456 0.386574 0
M  V30 999 H 98.1185 1.96954 0.582944 0
M  V30 1000 H 96.3485 2.28769 3.11772 0
M  V30 1001 H 98.0375 2.69783 3.03268 0
M  V30 1002 H 98.8035 4.62358 1.46458 0
M  V30 1003 H 94.6825 3.90152 2.45566 0
M  V30 1004 H 98.2265 6.93011 0.798841 0
M  V30 1005 H 94.1235 6.20046 1.79482 0
M  V30 1006 H 94.8915 8.12239 1.01043 0
M  V30 1007 N 97.5546 -0.734337 1.39446 0
M  V30 1008 C 98.8316 -1.48579 1.27215 0
M  V30 1009 C 99.2116 -2.1077 -0.117968 0
M  V30 1010 O 98.5596 -1.98646 -1.12924 0
M  V30 1011 C 98.7696 -2.53667 2.39696 0
M  V30 1012 C 100.118 -3.20031 2.79044 0
M  V30 1013 O 101.142 -2.6398 2.39151 0
M  V30 1014 O 100.001 -4.21455 3.47905 0
M  V30 1015 H 97.0946 -0.659816 0.49857 0
M  V30 1016 H 99.6406 -0.768106 1.51322 0
M  V30 1017 H 98.4126 -2.06096 3.32626 0
M  V30 1018 H 98.0356 -3.32994 2.17258 0
M  V30 1019 N 99.0327 -1.24633 -0.964593 0
M  V30 1020 C 99.9797 -1.04144 -2.05968 0
M  V30 1021 C 100.95 0.046262 -1.66036 0
M  V30 1022 O 102.135 -0.108972 -1.90489 0
M  V30 1023 C 99.2747 -0.65563 -3.38815 0
M  V30 1024 C 98.3877 -1.81714 -3.91923 0
M  V30 1025 C 97.5227 -1.37662 -5.13052 0
M  V30 1026 C 96.5617 -2.50788 -5.58365 0
M  V30 1027 N 95.6987 -2.07582 -6.70712 0
M  V30 1028 H 100.539 -1.9787 -2.22827 0
M  V30 1029 H 98.0757 -0.9855 -1.09208 0
M  V30 1030 H 100.034 -0.412954 -4.15151 0
M  V30 1031 H 98.6637 0.244627 -3.21872 0
M  V30 1032 H 97.7157 -2.1734 -3.12198 0
M  V30 1033 H 99.0277 -2.66705 -4.21509 0
M  V30 1034 H 98.1817 -1.093 -5.96773 0
M  V30 1035 H 96.9207 -0.497293 -4.85158 0
M  V30 1036 H 95.9257 -2.79906 -4.73215 0
M  V30 1037 H 97.1507 -3.39283 -5.88272 0
M  V30 1038 H 95.0967 -1.22051 -6.44546 0
M  V30 1039 H 95.0137 -2.86125 -6.99763 0
M  V30 1040 H 96.2817 -1.82369 -7.57867 0
M  V30 1041 N 100.511 1.16574 -1.06058 0
M  V30 1042 C 101.736 1.91493 -0.796562 0
M  V30 1043 C 102.161 1.76773 0.642868 0
M  V30 1044 O 101.519 1.09142 1.44768 0
M  V30 1045 C 101.567 3.40293 -1.19303 0
M  V30 1046 O 100.671 4.11074 -0.330394 0
M  V30 1047 H 100.012 0.596678 -0.291326 0
M  V30 1048 H 102.542 1.47708 -1.41575 0
M  V30 1049 H 102.552 3.91057 -1.16356 0
M  V30 1050 H 101.227 3.50326 -2.24153 0
M  V30 1051 H 99.8038 3.70513 -0.421225 0
M  V30 1052 N 101.989 0.842826 1.3317 0
M  V30 1053 C 103.236 0.440447 1.97652 0
M  V30 1054 C 103.564 -1.00123 1.6675 0
M  V30 1055 O 102.819 -1.7155 0.941761 0
M  V30 1056 C 103.118 0.612607 3.52111 0
M  V30 1057 C 102.784 2.02297 4.02972 0
M  V30 1058 C 101.446 2.40874 4.16573 0
M  V30 1059 C 103.798 2.94402 4.30089 0
M  V30 1060 C 101.126 3.70852 4.54627 0
M  V30 1061 C 103.478 4.23865 4.69597 0
M  V30 1062 C 102.142 4.62392 4.81404 0
M  V30 1063 H 101.412 0.161171 0.72326 0
M  V30 1064 H 104.059 1.07061 1.58777 0
M  V30 1065 H 102.364 -0.100849 3.9167 0
M  V30 1066 H 104.061 0.2815 4.00011 0
M  V30 1067 H 100.651 1.71338 3.92863 0
M  V30 1068 H 104.835 2.65835 4.19101 0
M  V30 1069 H 100.091 4.00501 4.61962 0
M  V30 1070 H 104.265 4.95306 4.89536 0
M  V30 1071 H 101.892 5.63154 5.10648 0
M  V30 1072 N 103.467 -1.45747 0.599634 0
M  V30 1073 C 104.878 -1.85853 0.177681 0
M  V30 1074 C 105.229 -1.50102 -1.26348 0
M  V30 1075 O 104.354 -0.923905 -1.95686 0
M  V30 1076 C 104.949 -3.37326 0.315688 0
M  V30 1077 C 103.508 -3.76365 -0.0515144 0
M  V30 1078 C 102.655 -2.69722 0.643822 0
M  V30 1079 H 105.606 -1.36661 0.806814 0
M  V30 1080 H 105.627 -3.77778 -0.454321 0
M  V30 1081 H 105.139 -3.63315 1.36468 0
M  V30 1082 H 103.24 -3.55993 -1.09999 0
M  V30 1083 H 103.353 -4.77916 0.336594 0
M  V30 1084 H 101.717 -2.54567 0.0822881 0
M  V30 1085 H 102.5 -2.98549 1.6948 0
M  V30 1086 N 104.945 -0.338344 -1.53925 0
M  V30 1087 C 106.194 0.260732 -2.00008 0
M  V30 1088 C 106.507 1.52073 -1.23017 0
M  V30 1089 O 107.713 2.19672 -1.5955 0
M  V30 1090 C 106.169 0.51515 -3.56194 0
M  V30 1091 C 105.777 -0.728645 -4.42035 0
M  V30 1092 C 107.521 1.07337 -4.10706 0
M  V30 1093 C 105.428 -0.445315 -5.89721 0
M  V30 1094 H 104.358 0.101205 -0.747177 0
M  V30 1095 H 107.009 -0.452866 -1.77824 0
M  V30 1096 H 105.391 1.28932 -3.74423 0
M  V30 1097 H 106.565 -1.50352 -4.35581 0
M  V30 1098 H 104.88 -1.20813 -3.98489 0
M  V30 1099 H 107.477 1.30022 -5.18651 0
M  V30 1100 H 107.82 2.0273 -3.63602 0
M  V30 1101 H 108.353 0.360034 -3.96167 0
M  V30 1102 H 105.092 -1.36883 -6.41049 0
M  V30 1103 H 104.612 0.291569 -5.99091 0
M  V30 1104 H 106.291 -0.0606218 -6.46972 0
M  V30 1105 N 106.423 1.57458 -0.0668435 0
M  V30 1106 C 107.648 1.9804 0.616027 0
M  V30 1107 C 108.073 0.944771 1.62652 0
M  V30 1108 O 107.431 -0.0902094 1.81075 0
M  V30 1109 C 107.479 3.37665 1.26549 0
M  V30 1110 O 106.583 3.36701 2.38131 0
M  V30 1111 H 105.924 0.644719 0.158849 0
M  V30 1112 H 108.454 2.04121 -0.139891 0
M  V30 1113 H 108.464 3.7474 1.6135 0
M  V30 1114 H 107.139 4.12573 0.525016 0
M  V30 1115 H 105.716 3.1139 2.0516 0
M  V30 1116 N 107.901 -0.206675 1.56239 0
M  V30 1117 C 108.851 -1.26 1.90021 0
M  V30 1118 C 109.835 -1.41566 0.764721 0
M  V30 1119 O 111.027 -1.44131 1.02739 0
M  V30 1120 C 108.156 -2.6073 2.23326 0
M  V30 1121 C 107.242 -2.49005 3.43304 0
M  V30 1122 N 107.633 -2.06946 4.61527 0
M  V30 1123 C 105.931 -2.79927 3.47213 0
M  V30 1124 C 106.632 -2.06832 5.43687 0
M  V30 1125 N 105.608 -2.47892 4.83788 0
M  V30 1126 H 109.41 -0.925955 2.78932 0
M  V30 1127 H 106.924 -0.415172 1.57003 0
M  V30 1128 H 108.921 -3.36798 2.45708 0
M  V30 1129 H 107.581 -2.94968 1.35735 0
M  V30 1130 H 108.592 -1.77839 4.86409 0
M  V30 1131 H 105.269 -3.18438 2.70006 0
M  V30 1132 H 106.659 -1.76312 6.48354 0
M  V30 1133 N 109.379 -1.50304 -0.473955 0
M  V30 1134 C 110.625 -1.61389 -1.22806 0
M  V30 1135 C 110.958 -0.311955 -1.91678 0
M  V30 1136 O 110.233 0.686384 -1.81986 0
M  V30 1137 C 110.516 -2.79219 -2.27396 0
M  V30 1138 C 110.369 -4.19286 -1.62848 0
M  V30 1139 C 111.688 -2.92614 -3.28732 0
M  V30 1140 H 108.807 -0.587399 -0.445119 0
M  V30 1141 H 111.449 -1.82681 -0.522265 0
M  V30 1142 H 109.599 -2.61195 -2.87592 0
M  V30 1143 H 111.271 -4.48892 -1.06271 0
M  V30 1144 H 109.514 -4.23677 -0.931693 0
M  V30 1145 H 110.185 -4.97655 -2.38838 0
M  V30 1146 H 112.661 -3.09105 -2.78556 0
M  V30 1147 H 111.537 -3.76688 -3.99246 0
M  V30 1148 H 111.798 -2.03107 -3.92683 0
M  V30 1149 N 110.857 0.726932 -1.39834 0
M  V30 1150 C 112.273 1.03354 -1.21615 0
M  V30 1151 C 112.473 2.01327 -0.08338 0
M  V30 1152 O 111.529 2.46158 0.56238 0
M  V30 1153 C 112.842 1.58811 -2.55342 0
M  V30 1154 C 114.39 1.70851 -2.62257 0
M  V30 1155 C 114.865 2.29716 -3.96225 0
M  V30 1156 N 116.356 2.37116 -3.97907 0
M  V30 1157 C 117.091 2.83619 -4.98345 0
M  V30 1158 N 116.587 3.29958 -6.09179 0
M  V30 1159 N 118.38 2.82901 -4.8572 0
M  V30 1160 H 110.531 0.0773069 -2.12259 0
M  V30 1161 H 112.794 0.0969102 -0.943034 0
M  V30 1162 H 112.5 0.942855 -3.38826 0
M  V30 1163 H 112.374 2.57502 -2.75632 0
M  V30 1164 H 114.761 2.34497 -1.79152 0
M  V30 1165 H 114.842 0.707913 -2.45809 0
M  V30 1166 H 114.486 1.66696 -4.79765 0
M  V30 1167 H 114.416 3.30469 -4.09997 0
M  V30 1168 H 116.907 2.04374 -3.17868 0
M  V30 1169 H 117.22 3.63976 -6.8172 0
M  V30 1170 H 115.565 3.27946 -6.12761 0
M  V30 1171 H 118.756 2.46027 -3.98231 0
M  V30 1172 H 118.929 3.18827 -5.6414 0
M  V30 1173 N 112.336 1.25143 0.95797 0
M  V30 1174 C 113.583 1.09692 1.70217 0
M  V30 1175 C 113.911 -0.362654 1.91089 0
M  V30 1176 O 113.166 -1.28386 1.47701 0
M  V30 1177 C 113.465 1.79272 3.09187 0
M  V30 1178 C 113.131 3.29196 3.08125 0
M  V30 1179 C 111.793 3.70096 3.07543 0
M  V30 1180 C 114.145 4.24995 3.0171 0
M  V30 1181 C 111.473 5.05213 2.9829 0
M  V30 1182 C 113.825 5.60132 2.93999 0
M  V30 1183 C 112.489 6.00365 2.9175 0
M  V30 1184 H 111.759 0.401393 0.622868 0
M  V30 1185 H 114.406 1.55372 1.11945 0
M  V30 1186 H 112.711 1.26014 3.70982 0
M  V30 1187 H 114.408 1.64773 3.65583 0
M  V30 1188 H 110.998 2.96651 3.09348 0
M  V30 1189 H 115.182 3.9439 3.01281 0
M  V30 1190 H 110.438 5.35569 2.94916 0
M  V30 1191 H 114.612 6.3406 2.87996 0
M  V30 1192 H 112.239 7.05023 2.84336 0
M  V30 1193 N 113.814 -1.1601 1.06675 0
M  V30 1194 C 115.06 -1.87145 0.796766 0
M  V30 1195 C 115.415 -1.8037 -0.669658 0
M  V30 1196 O 114.708 -1.21116 -1.48463 0
M  V30 1197 C 114.902 -3.35547 1.23057 0
M  V30 1198 C 114.731 -3.56769 2.73762 0
M  V30 1199 C 113.501 -3.72635 3.41279 0
M  V30 1200 C 115.699 -3.55166 3.7197 0
M  V30 1201 N 113.681 -3.81845 4.80695 0
M  V30 1202 C 115.052 -3.70406 4.97191 0
M  V30 1203 C 117.107 -3.384 3.65226 0
M  V30 1204 C 115.81 -3.70615 6.16471 0
M  V30 1205 C 117.836 -3.39904 4.83962 0
M  V30 1206 C 117.198 -3.55667 6.08013 0
M  V30 1207 H 113.297 -0.702267 0.344014 0
M  V30 1208 H 115.881 -1.39165 1.36166 0
M  V30 1209 H 114.052 -3.82159 0.693456 0
M  V30 1210 H 115.784 -3.94363 0.908844 0
M  V30 1211 H 112.539 -3.73121 2.91681 0
M  V30 1212 H 112.963 -3.90209 5.53232 0
M  V30 1213 H 117.605 -3.25138 2.70269 0
M  V30 1214 H 115.323 -3.82658 7.11757 0
M  V30 1215 H 118.909 -3.28169 4.80413 0
M  V30 1216 H 117.789 -3.56755 6.98352 0
M  V30 1217 N 115.292 -0.849877 -1.32721 0
M  V30 1218 C 116.538 -0.451591 -1.97708 0
M  V30 1219 C 116.871 0.989175 -1.6712 0
M  V30 1220 O 116.146 1.69334 -0.956891 0
M  V30 1221 C 116.429 -0.685598 -3.53513 0
M  V30 1222 C 116.282 -2.17444 -3.93749 0
M  V30 1223 C 117.601 -0.138874 -4.39881 0
M  V30 1224 H 114.72 -0.16555 -0.718166 0
M  V30 1225 H 117.362 -1.06742 -1.57182 0
M  V30 1226 H 115.512 -0.161416 -3.88165 0
M  V30 1227 H 117.184 -2.76433 -3.693 0
M  V30 1228 H 115.427 -2.65476 -3.43081 0
M  V30 1229 H 116.098 -2.28888 -5.02309 0
M  V30 1230 H 118.574 -0.587068 -4.11938 0
M  V30 1231 H 117.45 -0.332213 -5.47894 0
M  V30 1232 H 117.711 0.95806 -4.31594 0
M  V30 1233 N 116.77 1.45427 -0.607355 0
M  V30 1234 C 117.7 2.3329 0.0989352 0
M  V30 1235 C 118.681 1.46816 0.859007 0
M  V30 1236 O 119.866 1.75588 0.829604 0
M  V30 1237 C 116.996 3.29518 1.09705 0
M  V30 1238 C 115.95 4.25626 0.450206 0
M  V30 1239 C 115.276 5.11542 1.55655 0
M  V30 1240 C 116.576 5.18505 -0.628455 0
M  V30 1241 H 118.27 2.92595 -0.634716 0
M  V30 1242 H 115.816 1.40696 -0.306681 0
M  V30 1243 H 117.769 3.89855 1.59971 0
M  V30 1244 H 116.493 2.68372 1.86129 0
M  V30 1245 H 115.152 3.66586 -0.0315886 0
M  V30 1246 H 114.8 4.46765 2.31107 0
M  V30 1247 H 114.5 5.76647 1.12925 0
M  V30 1248 H 116.024 5.74748 2.06148 0
M  V30 1249 H 117.438 5.72916 -0.209877 0
M  V30 1250 H 115.835 5.92085 -0.977489 0
M  V30 1251 H 116.905 4.60948 -1.50514 0
M  V30 1252 N 118.248 0.346503 1.53744 0
M  V30 1253 C 119.18 -0.543316 2.22667 0
M  V30 1254 C 120.193 -1.06159 1.23427 0
M  V30 1255 O 121.382 -0.971235 1.49764 0
M  V30 1256 C 118.482 -1.76076 2.89569 0
M  V30 1257 C 117.655 -1.37727 4.15151 0
M  V30 1258 C 116.714 -2.45471 4.65436 0
M  V30 1259 O 115.74 -2.08655 5.29577 0
M  V30 1260 N 116.942 -3.7677 4.41616 0
M  V30 1261 H 119.707 0.0469703 2.99663 0
M  V30 1262 H 117.268 0.170766 1.60997 0
M  V30 1263 H 119.26 -2.47593 3.20125 0
M  V30 1264 H 117.83 -2.25835 2.16142 0
M  V30 1265 H 117.05 -0.492746 3.91108 0
M  V30 1266 H 118.338 -1.09708 4.96832 0
M  V30 1267 H 117.736 -4.09467 3.90325 0
M  V30 1268 H 116.293 -4.44448 4.7677 0
M  V30 1269 N 119.726 -1.57421 0.075193 0
M  V30 1270 C 120.975 -1.92794 -0.592731 0
M  V30 1271 C 121.288 -0.957478 -1.70563 0
M  V30 1272 O 122.494 -1.20417 -2.43335 0
M  V30 1273 C 120.95 -3.42495 -1.10569 0
M  V30 1274 C 120.558 -4.47994 -0.0236121 0
M  V30 1275 C 122.302 -3.86864 -1.74748 0
M  V30 1276 C 120.209 -5.88829 -0.550803 0
M  V30 1277 H 119.139 -0.719591 -0.225177 0
M  V30 1278 H 121.79 -1.82902 0.147978 0
M  V30 1279 H 120.172 -3.47471 -1.89947 0
M  V30 1280 H 121.346 -4.54637 0.751099 0
M  V30 1281 H 119.661 -4.13113 0.522159 0
M  V30 1282 H 122.258 -4.8947 -2.15229 0
M  V30 1283 H 122.601 -3.24417 -2.60882 0
M  V30 1284 H 123.134 -3.84504 -1.01986 0
M  V30 1285 H 119.873 -6.54929 0.273457 0
M  V30 1286 H 119.393 -5.85698 -1.29296 0
M  V30 1287 H 121.072 -6.38811 -1.02613 0
M  V30 1288 N 121.204 0.198386 -1.56346 0
M  V30 1289 C 122.453 0.917451 -1.79627 0
M  V30 1290 C 122.766 1.8456 -0.64784 0
M  V30 1291 O 123.972 2.60504 -0.764859 0
M  V30 1292 C 122.428 1.68175 -3.18191 0
M  V30 1293 C 122.036 0.798589 -4.40825 0
M  V30 1294 C 123.78 2.39065 -3.50782 0
M  V30 1295 C 121.687 1.56157 -5.70411 0
M  V30 1296 H 120.617 0.346317 -0.669762 0
M  V30 1297 H 123.268 0.170801 -1.82703 0
M  V30 1298 H 121.65 2.47216 -3.09354 0
M  V30 1299 H 122.824 0.0470665 -4.60776 0
M  V30 1300 H 121.139 0.200686 -4.15916 0
M  V30 1301 H 123.736 2.96692 -4.44835 0
M  V30 1302 H 124.079 3.13091 -2.74371 0
M  V30 1303 H 124.612 1.66993 -3.61052 0
M  V30 1304 H 121.351 0.864142 -6.49779 0
M  V30 1305 H 120.871 2.2871 -5.54483 0
M  V30 1306 H 122.55 2.11622 -6.11412 0
M  V30 1307 N 122.682 1.50554 0.465978 0
M  V30 1308 C 123.929 1.61798 1.21768 0
M  V30 1309 C 124.257 0.320696 1.91838 0
M  V30 1310 O 123.512 -0.693724 1.82992 0
M  V30 1311 C 123.811 2.75152 2.28093 0
M  V30 1312 C 123.477 4.15454 1.75239 0
M  V30 1313 C 122.139 4.53628 1.60546 0
M  V30 1314 C 124.491 5.03121 1.36083 0
M  V30 1315 C 121.819 5.77204 1.05128 0
M  V30 1316 C 124.171 6.27249 0.821056 0
M  V30 1317 C 122.835 6.64221 0.660795 0
M  V30 1318 H 122.105 0.592063 0.445582 0
M  V30 1319 H 124.752 1.84503 0.512927 0
M  V30 1320 H 123.057 2.46556 3.04496 0
M  V30 1321 H 124.754 2.81055 2.86023 0
M  V30 1322 H 121.344 3.85341 1.87644 0
M  V30 1323 H 125.528 4.74257 1.46267 0
M  V30 1324 H 120.784 6.0452 0.91462 0
M  V30 1325 H 124.958 6.94537 0.509018 0
M  V30 1326 H 122.585 7.59854 0.229226 0
M  V30 1327 N 124.16 -0.719506 1.40217 0
M  V30 1328 C 125.406 -1.48152 1.38488 0
M  V30 1329 C 125.739 -1.94195 -0.0141867 0
M  V30 1330 O 125.014 -1.67884 -0.982096 0
M  V30 1331 C 125.297 -2.71035 2.37091 0
M  V30 1332 C 125.15 -2.30912 3.86005 0
M  V30 1333 C 126.469 -3.73182 2.33288 0
M  V30 1334 H 123.588 -0.537395 0.504357 0
M  V30 1335 H 126.23 -0.821472 1.71324 0
M  V30 1336 H 124.38 -3.27352 2.0922 0
M  V30 1337 H 126.052 -1.80107 4.24687 0
M  V30 1338 H 124.295 -1.62958 4.02029 0
M  V30 1339 H 124.966 -3.18978 4.50508 0
M  V30 1340 H 127.442 -3.26485 2.57966 0
M  V30 1341 H 126.318 -4.56806 3.04334 0
M  V30 1342 H 126.579 -4.21202 1.34317 0
M  V30 1343 N 125.638 -1.25649 -0.95132 0
M  V30 1344 C 126.863 -1.13443 -1.73624 0
M  V30 1345 C 127.288 0.307565 -1.85568 0
M  V30 1346 O 126.646 1.22282 -1.33854 0
M  V30 1347 C 126.694 -1.79723 -3.12621 0
M  V30 1348 O 125.798 -1.07912 -3.98031 0
M  V30 1349 H 125.139 -0.395872 -0.533086 0
M  V30 1350 H 127.669 -1.66276 -1.1922 0
M  V30 1351 H 127.679 -1.86141 -3.63064 0
M  V30 1352 H 126.354 -2.84633 -3.03244 0
M  V30 1353 H 124.931 -1.09398 -3.56492 0
M  V30 1354 N 127.117 1.15442 -1.07289 0
M  V30 1355 C 128.363 1.86489 -0.796846 0
M  V30 1356 C 128.696 1.82078 0.675371 0
M  V30 1357 O 127.971 1.24346 1.4956 0
M  V30 1358 C 128.254 3.35626 -1.30489 0
M  V30 1359 C 128.107 3.48673 -2.84161 0
M  V30 1360 C 129.426 4.30357 -0.920907 0
M  V30 1361 H 126.545 0.677144 -0.290939 0
M  V30 1362 H 129.187 1.35633 -1.33056 0
M  V30 1363 H 127.337 3.79068 -0.850883 0
M  V30 1364 H 129.009 3.14099 -3.37846 0
M  V30 1365 H 127.252 2.90253 -3.22391 0
M  V30 1366 H 127.923 4.53453 -3.14777 0
M  V30 1367 H 130.399 3.94871 -1.3121 0
M  V30 1368 H 129.275 5.33193 -1.30372 0
M  V30 1369 H 129.536 4.4176 0.173226 0
M  V30 1370 N 128.595 0.856903 1.32268 0
M  V30 1371 C 130.006 0.515711 1.79436 0
M  V30 1372 C 130.357 -0.966586 1.70738 0
M  V30 1373 O 129.482 -1.75409 1.26731 0
M  V30 1374 C 130.077 0.929335 3.25805 0
M  V30 1375 C 128.636 0.640006 3.70919 0
M  V30 1376 C 127.783 1.12784 2.53328 0
M  V30 1377 H 130.734 1.04389 1.19535 0
M  V30 1378 H 130.755 0.246633 3.797 0
M  V30 1379 H 130.267 2.00821 3.32103 0
M  V30 1380 H 128.368 -0.428051 3.70133 0
M  V30 1381 H 128.481 1.20788 4.63624 0
M  V30 1382 H 126.845 0.548033 2.48734 0
M  V30 1383 H 127.628 2.21387 2.62379 0
M  V30 1384 N 130.073 -1.45103 0.615059 0
M  V30 1385 C 131.301 -2.06553 0.11977 0
M  V30 1386 C 131.716 -1.45842 -1.19898 0
M  V30 1387 O 131.073 -0.575325 -1.73194 0
M  V30 1388 C 131.124 -3.61495 -0.018364 0
M  V30 1389 O 130.845 -4.19942 1.24822 0
M  V30 1390 C 132.346 -4.39947 -0.544237 0
M  V30 1391 H 129.566 -0.667096 0.0722739 0
M  V30 1392 H 132.11 -1.8623 0.84491 0
M  V30 1393 H 130.265 -3.81135 -0.693865 0
M  V30 1394 H 130.679 -5.13204 1.0827 0
M  V30 1395 H 132.153 -5.48838 -0.589953 0
M  V30 1396 H 132.63 -4.10255 -1.56805 0
M  V30 1397 H 133.236 -4.25188 0.0974703 0
M  V30 1398 N 131.551 -0.354651 -1.53558 0
M  V30 1399 C 132.481 0.489091 -2.2832 0
M  V30 1400 C 133.462 1.09324 -1.30316 0
M  V30 1401 O 134.647 1.11255 -1.59173 0
M  V30 1402 C 131.777 1.63456 -3.0643 0
M  V30 1403 C 130.731 1.1582 -4.12031 0
M  V30 1404 C 130.057 2.39305 -4.7816 0
M  V30 1405 C 131.357 0.250731 -5.21698 0
M  V30 1406 H 133.051 -0.134614 -2.99097 0
M  V30 1407 H 130.597 -0.0661826 -1.43848 0
M  V30 1408 H 132.55 2.23136 -3.57475 0
M  V30 1409 H 131.274 2.28533 -2.33325 0
M  V30 1410 H 129.933 0.584146 -3.61916 0
M  V30 1411 H 129.581 3.02814 -4.01637 0
M  V30 1412 H 129.281 2.08109 -5.49513 0
M  V30 1413 H 130.805 2.99691 -5.31994 0
M  V30 1414 H 132.219 0.754695 -5.68311 0
M  V30 1415 H 130.616 0.0301468 -6.00092 0
M  V30 1416 H 131.686 -0.710125 -4.79672 0
M  V30 1417 N 133.029 1.57378 -0.0835403 0
M  V30 1418 C 133.959 2.1641 0.87686 0
M  V30 1419 C 134.94 1.09429 1.30228 0
M  V30 1420 O 136.125 1.37516 1.37124 0
M  V30 1421 C 133.255 2.73517 2.14022 0
M  V30 1422 C 132.209 3.85769 1.85381 0
M  V30 1423 C 131.535 4.29529 3.18448 0
M  V30 1424 C 132.835 5.09486 1.14984 0
M  V30 1425 H 134.529 2.96914 0.385059 0
M  V30 1426 H 132.075 1.42823 0.18377 0
M  V30 1427 H 134.028 3.13463 2.81636 0
M  V30 1428 H 132.752 1.90252 2.65465 0
M  V30 1429 H 131.411 3.46345 1.20169 0
M  V30 1430 H 131.059 3.43169 3.67755 0
M  V30 1431 H 130.759 5.05204 3.00071 0
M  V30 1432 H 132.283 4.72099 3.8724 0
M  V30 1433 H 133.697 5.46674 1.72687 0
M  V30 1434 H 132.094 5.90515 1.06826 0
M  V30 1435 H 133.164 4.84724 0.130749 0
M  V30 1436 N 134.507 -0.190092 1.56449 0
M  V30 1437 C 135.737 -0.92443 1.84764 0
M  V30 1438 C 136.145 -1.77146 0.664529 0
M  V30 1439 O 135.488 -1.79812 -0.375957 0
M  V30 1440 C 135.55 -1.86651 3.07248 0
M  V30 1441 C 135.214 -1.20094 4.40938 0
M  V30 1442 C 136.211 -0.575445 5.16706 0
M  V30 1443 C 133.896 -1.2033 4.87674 0
M  V30 1444 C 135.89 0.0388111 6.37388 0
M  V30 1445 C 133.577 -0.585214 6.08291 0
M  V30 1446 C 134.575 0.0347578 6.82991 0
M  V30 1447 O 134.263 0.643147 8.01323 0
M  V30 1448 H 133.995 -0.274974 0.617548 0
M  V30 1449 H 136.549 -0.200788 2.04416 0
M  V30 1450 H 134.779 -2.62998 2.83494 0
M  V30 1451 H 136.468 -2.46907 3.22167 0
M  V30 1452 H 137.234 -0.565728 4.81689 0
M  V30 1453 H 133.113 -1.67526 4.29484 0
M  V30 1454 H 136.657 0.523329 6.95634 0
M  V30 1455 H 132.554 -0.592451 6.42775 0
M  V30 1456 H 133.322 0.540545 8.16713 0
M  V30 1457 N 135.985 -1.50799 -0.457987 0
M  V30 1458 C 136.915 -1.73553 -1.5621 0
M  V30 1459 C 137.896 -0.584774 -1.59732 0
M  V30 1460 O 139.081 -0.825314 -1.7579 0
M  V30 1461 C 136.211 -1.84169 -2.94447 0
M  V30 1462 C 135.165 -2.99461 -3.0579 0
M  V30 1463 C 134.491 -2.95235 -4.45803 0
M  V30 1464 C 135.791 -4.39766 -2.81786 0
M  V30 1465 H 137.485 -2.66 -1.37421 0
M  V30 1466 H 135.031 -1.28002 -0.659662 0
M  V30 1467 H 136.984 -1.98672 -3.71628 0
M  V30 1468 H 135.708 -0.883545 -3.14422 0
M  V30 1469 H 134.367 -2.8463 -2.31044 0
M  V30 1470 H 134.015 -1.97239 -4.62715 0
M  V30 1471 H 133.715 -3.72642 -4.54326 0
M  V30 1472 H 135.239 -3.11803 -5.24987 0
M  V30 1473 H 136.653 -4.55054 -3.4871 0
M  V30 1474 H 135.05 -5.18722 -3.0174 0
M  V30 1475 H 136.12 -4.51229 -1.7754 0
M  V30 1476 N 137.463 0.71206 -1.40597 0
M  V30 1477 C 138.426 1.80785 -1.40888 0
M  V30 1478 C 139.426 1.57937 -0.302103 0
M  V30 1479 O 140.616 1.64913 -0.561182 0
M  V30 1480 C 137.748 3.18927 -1.20409 0
M  V30 1481 H 138.941 1.81924 -2.38419 0
M  V30 1482 H 136.494 0.91805 -1.26497 0
M  V30 1483 H 137.229 3.23436 -0.236522 0
M  V30 1484 H 137.014 3.36911 -2.00582 0
M  V30 1485 H 138.504 3.98949 -1.23408 0
M  V30 1486 N 138.941 1.26152 0.944643 0
M  V30 1487 C 139.891 1.04081 2.02857 0
M  V30 1488 C 140.875 -0.0256555 1.6088 0
M  V30 1489 O 142.067 0.190884 1.75968 0
M  V30 1490 C 139.196 0.672118 3.36656 0
M  V30 1491 C 138.282 1.77586 3.85128 0
M  V30 1492 N 138.673 3.01272 4.06287 0
M  V30 1493 C 136.971 1.65867 4.1401 0
M  V30 1494 C 137.672 3.72983 4.46384 0
M  V30 1495 N 136.648 3.00653 4.52889 0
M  V30 1496 H 140.45 1.97968 2.17223 0
M  V30 1497 H 137.964 1.16618 1.13022 0
M  V30 1498 H 139.961 0.495166 4.13949 0
M  V30 1499 H 138.621 -0.259307 3.23663 0
M  V30 1500 H 139.632 3.37213 3.93075 0
M  V30 1501 H 136.309 0.796907 4.09824 0
M  V30 1502 H 137.699 4.792 4.70975 0
M  V30 1503 N 140.419 -1.14872 1.07899 0
M  V30 1504 C 141.665 -1.86064 0.806725 0
M  V30 1505 C 141.998 -1.82434 -0.665706 0
M  V30 1506 O 141.273 -1.25138 -1.48899 0
M  V30 1507 C 141.556 -3.34929 1.32267 0
M  V30 1508 C 141.409 -3.47161 2.86006 0
M  V30 1509 C 142.728 -4.29863 0.943717 0
M  V30 1510 H 139.847 -0.675591 0.294526 0
M  V30 1511 H 142.489 -1.34925 1.33773 0
M  V30 1512 H 140.639 -3.78611 0.870974 0
M  V30 1513 H 142.311 -3.12302 3.39507 0
M  V30 1514 H 140.554 -2.88539 3.23925 0
M  V30 1515 H 141.225 -4.51777 3.17177 0
M  V30 1516 H 143.701 -3.9417 1.33302 0
M  V30 1517 H 142.577 -5.32494 1.33198 0
M  V30 1518 H 142.838 -4.41846 -0.149796 0
M  V30 1519 N 141.898 -0.863906 -1.31812 0
M  V30 1520 C 143.145 -0.471836 -1.96926 0
M  V30 1521 C 143.473 0.974578 -1.68322 0
M  V30 1522 O 142.728 1.7003 -0.968933 0
M  V30 1523 C 143.027 -0.668547 -3.51091 0
M  V30 1524 C 142.693 -2.08683 -3.99703 0
M  V30 1525 C 141.355 -2.47471 -4.12688 0
M  V30 1526 C 143.707 -3.01207 -4.25351 0
M  V30 1527 C 141.035 -3.78037 -4.4867 0
M  V30 1528 C 143.387 -4.31282 -4.62794 0
M  V30 1529 C 142.051 -4.69992 -4.73987 0
M  V30 1530 H 141.321 -0.172657 -0.720604 0
M  V30 1531 H 143.968 -1.09573 -1.57054 0
M  V30 1532 H 142.273 0.0385252 -3.91781 0
M  V30 1533 H 143.97 -0.345102 -3.99512 0
M  V30 1534 H 140.56 -1.77566 -3.90087 0
M  V30 1535 H 144.744 -2.72469 -4.14819 0
M  V30 1536 H 140 -4.078 -4.55532 0
M  V30 1537 H 144.174 -5.03031 -4.81594 0
M  V30 1538 H 141.801 -5.71207 -5.01624 0
M  V30 1539 N 143.376 1.44774 -0.622745 0
M  V30 1540 C 144.606 2.06187 -0.130532 0
M  V30 1541 C 145.014 1.46547 1.19669 0
M  V30 1542 O 144.357 0.579636 1.74316 0
M  V30 1543 C 144.419 3.59437 0.0674983 0
M  V30 1544 C 144.083 4.41496 -1.18026 0
M  V30 1545 C 145.08 4.75512 -2.102 0
M  V30 1546 C 142.765 4.82007 -1.41333 0
M  V30 1547 C 144.759 5.48912 -3.23998 0
M  V30 1548 C 142.446 5.55157 -2.55429 0
M  V30 1549 C 143.444 5.88528 -3.46589 0
M  V30 1550 O 143.132 6.60191 -4.58697 0
M  V30 1551 H 142.864 0.672045 -0.0730162 0
M  V30 1552 H 145.418 1.86768 -0.854802 0
M  V30 1553 H 143.648 3.77314 0.846825 0
M  V30 1554 H 145.337 4.02642 0.513209 0
M  V30 1555 H 146.103 4.4476 -1.93425 0
M  V30 1556 H 141.982 4.55457 -0.712709 0
M  V30 1557 H 145.526 5.74877 -3.95174 0
M  V30 1558 H 141.423 5.85324 -2.72151 0
M  V30 1559 H 142.191 6.78654 -4.57571 0
M  V30 1560 N 144.854 0.36279 1.53368 0
M  V30 1561 C 146.1 -0.228113 2.01513 0
M  V30 1562 C 146.433 -1.48648 1.2497 0
M  V30 1563 O 145.708 -1.91459 0.342616 0
M  V30 1564 C 145.991 -0.522884 3.56284 0
M  V30 1565 C 145.844 0.74892 4.43521 0
M  V30 1566 C 147.163 -1.32461 4.19693 0
M  V30 1567 H 144.282 -0.0814343 0.732487 0
M  V30 1568 H 146.924 0.48713 1.83649 0
M  V30 1569 H 145.074 -1.1322 3.71636 0
M  V30 1570 H 146.746 1.38648 4.39971 0
M  V30 1571 H 144.989 1.36986 4.11603 0
M  V30 1572 H 145.66 0.497667 5.49752 0
M  V30 1573 H 148.136 -0.809203 4.08156 0
M  V30 1574 H 147.012 -1.49961 5.28018 0
M  V30 1575 H 147.273 -2.33232 3.75573 0
M  V30 1576 N 146.332 -1.57332 0.0918853 0
M  V30 1577 C 147.265 -2.09499 -0.904735 0
M  V30 1578 C 148.243 -1.00479 -1.27839 0
M  V30 1579 O 149.427 -1.27954 -1.38419 0
M  V30 1580 C 146.554 -2.56931 -2.2069 0
M  V30 1581 C 145.6 -3.77579 -1.98334 0
M  V30 1582 S 146.433 -5.21317 -1.22428 0
M  V30 1583 C 147.589 -5.72097 -2.53882 0
M  V30 1584 H 147.822 -2.93705 -0.460922 0
M  V30 1585 H 145.355 -1.53923 -0.121332 0
M  V30 1586 H 147.313 -2.84917 -2.95521 0
M  V30 1587 H 145.974 -1.72956 -2.62192 0
M  V30 1588 H 145.167 -4.08824 -2.94752 0
M  V30 1589 H 144.769 -3.5007 -1.31633 0
M  V30 1590 H 147.061 -5.80168 -3.49874 0
M  V30 1591 H 148.004 -6.70654 -2.27219 0
M  V30 1592 H 148.412 -5.00012 -2.62007 0
M  V30 1593 N 147.81 0.181792 -1.56548 0
M  V30 1594 C 149.226 0.53316 -1.50431 0
M  V30 1595 C 149.426 1.85184 -0.794297 0
M  V30 1596 O 148.482 2.50058 -0.350318 0
M  V30 1597 C 149.795 0.575597 -2.9514 0
M  V30 1598 C 151.343 0.663519 -3.05886 0
M  V30 1599 C 151.818 0.736946 -4.52032 0
M  V30 1600 N 153.309 0.800118 -4.56237 0
M  V30 1601 C 154.044 0.877327 -5.66649 0
M  V30 1602 N 153.54 0.916016 -6.86718 0
M  V30 1603 N 155.333 0.915542 -5.54594 0
M  V30 1604 H 147.484 -0.683025 -2.01118 0
M  V30 1605 H 149.747 -0.244988 -0.915797 0
M  V30 1606 H 149.453 -0.324482 -3.502 0
M  V30 1607 H 149.327 1.42572 -3.49218 0
M  V30 1608 H 151.714 1.55403 -2.50867 0
M  V30 1609 H 151.795 -0.21307 -2.54911 0
M  V30 1610 H 151.439 -0.149262 -5.07681 0
M  V30 1611 H 151.369 1.62953 -5.00753 0
M  V30 1612 H 153.86 0.778926 -3.69785 0
M  V30 1613 H 154.173 0.975813 -7.66614 0
M  V30 1614 H 152.518 0.884469 -6.89349 0
M  V30 1615 H 155.709 0.882245 -4.59711 0
M  V30 1616 H 155.882 0.972253 -6.40665 0
M  V30 1617 N 149.288 1.51039 0.449983 0
M  V30 1618 C 150.235 1.71439 1.54523 0
M  V30 1619 C 151.205 0.555871 1.56522 0
M  V30 1620 O 152.39 0.788871 1.73728 0
M  V30 1621 C 149.53 1.83384 2.92343 0
M  V30 1622 C 148.643 3.10873 2.9997 0
M  V30 1623 C 147.778 3.13488 4.28834 0
M  V30 1624 C 146.817 4.35343 4.30282 0
M  V30 1625 N 145.954 4.35579 5.5065 0
M  V30 1626 H 150.794 2.64934 1.36433 0
M  V30 1627 H 148.331 1.31312 0.662982 0
M  V30 1628 H 150.289 1.88291 3.72293 0
M  V30 1629 H 148.919 0.933086 3.0902 0
M  V30 1630 H 147.971 3.15336 2.12761 0
M  V30 1631 H 149.283 4.00814 2.96901 0
M  V30 1632 H 148.437 3.17241 5.17149 0
M  V30 1633 H 147.176 2.21414 4.34543 0
M  V30 1634 H 146.181 4.3178 3.40362 0
M  V30 1635 H 147.406 5.28668 4.26248 0
M  V30 1636 H 145.352 3.46369 5.57104 0
M  V30 1637 H 145.269 5.19313 5.49409 0
M  V30 1638 H 146.537 4.43507 6.41032 0
M  V30 1639 N 150.766 -0.704594 1.40972 0
M  V30 1640 C 151.676 -1.84856 1.44448 0
M  V30 1641 C 152.692 -1.70726 0.335961 0
M  V30 1642 O 153.868 -1.92799 0.582276 0
M  V30 1643 C 150.933 -3.20758 1.31587 0
M  V30 1644 C 149.994 -3.47063 2.52677 0
M  V30 1645 C 149.227 -4.76481 2.4042 0
M  V30 1646 O 149.45 -5.52341 1.42391 0
M  V30 1647 O 148.384 -5.03367 3.30007 0
M  V30 1648 H 152.21 -1.8488 2.40942 0
M  V30 1649 H 149.795 -0.85647 1.22413 0
M  V30 1650 H 151.677 -4.01913 1.26665 0
M  V30 1651 H 150.352 -3.21438 0.382049 0
M  V30 1652 H 149.259 -2.65873 2.63177 0
M  V30 1653 H 150.592 -3.5119 3.44858 0
M  V30 1654 N 152.244 -1.26651 -0.937939 0
M  V30 1655 C 153.154 -1.10276 -2.07066 0
M  V30 1656 C 154.17 -0.0354197 -1.73964 0
M  V30 1657 O 155.346 -0.239816 -1.99967 0
M  V30 1658 C 152.411 -0.740887 -3.38691 0
M  V30 1659 C 151.472 -1.88799 -3.85556 0
M  V30 1660 C 150.705 -1.54329 -5.10899 0
M  V30 1661 O 150.928 -0.446494 -5.6865 0
M  V30 1662 O 149.862 -2.37911 -5.52885 0
M  V30 1663 H 153.688 -2.05309 -2.23789 0
M  V30 1664 H 151.273 -1.05743 -1.0554 0
M  V30 1665 H 153.155 -0.55195 -4.1777 0
M  V30 1666 H 151.83 0.180022 -3.23199 0
M  V30 1667 H 150.737 -2.13191 -3.07409 0
M  V30 1668 H 152.07 -2.78874 -4.05574 0
M  V30 1669 N 153.722 1.14298 -1.08507 0
M  V30 1670 C 154.669 2.19414 -0.715965 0
M  V30 1671 C 155.639 1.63399 0.298326 0
M  V30 1672 O 156.824 1.89929 0.182101 0
M  V30 1673 C 153.964 3.44845 -0.132534 0
M  V30 1674 C 153.077 4.15007 -1.19973 0
M  V30 1675 C 152.212 5.28024 -0.580048 0
M  V30 1676 C 151.251 5.9002 -1.62921 0
M  V30 1677 N 150.388 6.94485 -1.03125 0
M  V30 1678 H 155.228 2.50336 -1.61666 0
M  V30 1679 H 152.765 1.2293 -0.807882 0
M  V30 1680 H 154.723 4.16601 0.223454 0
M  V30 1681 H 153.353 3.14403 0.731467 0
M  V30 1682 H 152.405 3.41629 -1.67313 0
M  V30 1683 H 153.717 4.57178 -1.99473 0
M  V30 1684 H 152.871 6.06455 -0.172364 0
M  V30 1685 H 151.61 4.87076 0.246603 0
M  V30 1686 H 150.615 5.10291 -2.04654 0
M  V30 1687 H 151.84 6.33042 -2.45835 0
M  V30 1688 H 149.786 6.55612 -0.225711 0
M  V30 1689 H 149.703 7.35148 -1.76334 0
M  V30 1690 H 150.971 7.7679 -0.649458 0
M  V30 1691 N 155.201 0.870884 1.31352 0
M  V30 1692 C 156.131 0.343096 2.30966 0
M  V30 1693 C 157.112 -0.566507 1.60389 0
M  V30 1694 O 158.297 -0.483336 1.88089 0
M  V30 1695 C 155.427 -0.455487 3.443 0
M  V30 1696 C 154.381 0.361103 4.26474 0
M  V30 1697 C 153.707 -0.563221 5.31725 0
M  V30 1698 C 155.007 1.59566 4.97329 0
M  V30 1699 H 156.701 1.17548 2.75359 0
M  V30 1700 H 154.247 0.566686 1.32381 0
M  V30 1701 H 156.2 -0.83525 4.13039 0
M  V30 1702 H 154.924 -1.32139 2.98675 0
M  V30 1703 H 153.583 0.722825 3.59403 0
M  V30 1704 H 153.231 -1.42643 4.82351 0
M  V30 1705 H 152.931 -0.0207409 5.87596 0
M  V30 1706 H 154.455 -0.939808 6.03324 0
M  V30 1707 H 155.869 1.28728 5.58661 0
M  V30 1708 H 154.266 2.07728 5.63 0
M  V30 1709 H 155.336 2.34798 4.24262 0
M  V30 1710 N 156.679 -1.44442 0.630414 0
M  V30 1711 C 157.627 -2.32437 -0.0871428 0
M  V30 1712 C 158.621 -1.47304 -0.836525 0
M  V30 1713 O 159.827 -1.63653 -0.749506 0
M  V30 1714 H 156.202 -0.750533 -0.0469495 0
M  V30 1715 H 158.173 -2.90709 0.673096 0
M  V30 1716 C 156.922 -3.31288 -1.05563 0
M  V30 1717 H 156.245 -3.96805 -0.488426 0
M  V30 1718 H 157.685 -3.9554 -1.52721 0
M  V30 1719 C 156.144 -2.6016 -2.14052 0
M  V30 1720 O 156.674 -2.39997 -3.22124 0
M  V30 1721 N 154.88 -2.19911 -1.89967 0
M  V30 1722 H 154.427 -2.36509 -1.02085 0
M  V30 1723 H 154.385 -1.72646 -2.62756 0
M  V30 1724 N 158.157 -0.370918 -1.53173 0
M  V30 1725 C 159.104 0.473035 -2.259 0
M  V30 1726 C 160.074 1.07311 -1.26781 0
M  V30 1727 O 161.259 1.1046 -1.55574 0
M  V30 1728 C 158.399 1.60405 -3.05556 0
M  V30 1729 C 157.512 1.02863 -4.19575 0
M  V30 1730 C 156.647 2.12918 -4.86661 0
M  V30 1731 C 155.686 1.52869 -5.92704 0
M  V30 1732 N 154.823 2.56779 -6.53459 0
M  V30 1733 H 159.663 -0.153649 -2.97604 0
M  V30 1734 H 157.2 -0.0875946 -1.46839 0
M  V30 1735 H 159.158 2.27034 -3.50016 0
M  V30 1736 H 157.788 2.20131 -2.36097 0
M  V30 1737 H 156.84 0.252465 -3.79561 0
M  V30 1738 H 158.152 0.549642 -4.95762 0
M  V30 1739 H 157.306 2.87356 -5.34333 0
M  V30 1740 H 156.045 2.6417 -4.09958 0
M  V30 1741 H 155.05 0.769479 -5.44389 0
M  V30 1742 H 156.275 1.02435 -6.7133 0
M  V30 1743 H 154.221 3.07235 -5.79606 0
M  V30 1744 H 154.138 2.13583 -7.25202 0
M  V30 1745 H 155.406 3.30903 -7.05779 0
M  V30 1746 N 159.635 1.57281 -0.100228 0
M  V30 1747 C 160.582 2.14305 0.856858 0
M  V30 1748 C 161.552 1.06296 1.27634 0
M  V30 1749 O 162.737 1.34109 1.35718 0
M  V30 1750 C 159.877 2.73184 2.10866 0
M  V30 1751 C 158.99 3.95442 1.73925 0
M  V30 1752 C 158.125 4.42468 2.93931 0
M  V30 1753 C 157.164 5.57303 2.5314 0
M  V30 1754 N 156.301 5.99158 3.65997 0
M  V30 1755 H 161.141 2.95772 0.363726 0
M  V30 1756 H 158.678 1.46139 0.167858 0
M  V30 1757 H 160.636 3.05442 2.84185 0
M  V30 1758 H 159.266 1.94437 2.57671 0
M  V30 1759 H 158.318 3.69464 0.905554 0
M  V30 1760 H 159.63 4.78769 1.39935 0
M  V30 1761 H 158.784 4.76537 3.75496 0
M  V30 1762 H 157.523 3.58052 3.31134 0
M  V30 1763 H 156.528 5.22857 1.70003 0
M  V30 1764 H 157.753 6.43471 2.17075 0
M  V30 1765 H 155.699 5.17687 4.02909 0
M  V30 1766 H 155.616 6.77295 3.35869 0
M  V30 1767 H 156.884 6.3786 4.48057 0
M  V30 1768 N 161.113 -0.173488 1.56642 0
M  V30 1769 C 162.023 -1.23482 1.99473 0
M  V30 1770 C 163.039 -1.48567 0.905752 0
M  V30 1771 O 164.215 -1.60758 1.21321 0
M  V30 1772 C 161.28 -2.55444 2.34413 0
M  V30 1773 C 160.341 -2.38241 3.57127 0
M  V30 1774 C 159.574 -3.63909 3.90392 0
M  V30 1775 O 159.797 -4.68996 3.24653 0
M  V30 1776 O 158.731 -3.58149 4.83749 0
M  V30 1777 H 162.557 -0.901279 2.90018 0
M  V30 1778 H 160.142 -0.380185 1.44482 0
M  V30 1779 H 162.024 -3.33292 2.57865 0
M  V30 1780 H 160.699 -2.88382 1.4703 0
M  V30 1781 H 159.606 -1.58431 3.38896 0
M  V30 1782 H 160.939 -2.10228 4.45045 0
M  V30 1783 N 162.591 -1.51276 -0.441967 0
M  V30 1784 C 163.501 -1.75092 -1.56141 0
M  V30 1785 C 164.517 -0.634963 -1.62001 0
M  V30 1786 O 165.693 -0.916686 -1.79329 0
M  V30 1787 C 162.758 -1.86666 -2.92158 0
M  V30 1788 C 161.819 -3.10506 -2.96453 0
M  V30 1789 C 161.052 -3.21519 -4.25982 0
M  V30 1790 O 161.275 -2.38586 -5.18105 0
M  V30 1791 O 160.209 -4.14465 -4.36466 0
M  V30 1792 H 164.035 -2.70044 -1.38961 0
M  V30 1793 H 161.62 -1.35722 -0.624499 0
M  V30 1794 H 163.502 -1.96292 -3.72891 0
M  V30 1795 H 162.177 -0.949014 -3.09476 0
M  V30 1796 H 161.084 -3.06363 -2.14692 0
M  V30 1797 H 162.417 -4.01945 -2.84079 0
M  V30 1798 N 164.069 0.697108 -1.41344 0
M  V30 1799 C 164.979 1.84088 -1.45427 0
M  V30 1800 C 165.995 1.70545 -0.34501 0
M  V30 1801 O 167.171 1.92488 -0.592492 0
M  V30 1802 C 164.236 3.20056 -1.33286 0
M  V30 1803 C 163.297 3.45718 -2.54514 0
M  V30 1804 C 162.53 4.75199 -2.42944 0
M  V30 1805 O 162.753 5.51579 -1.45318 0
M  V30 1806 O 161.687 5.0161 -3.32672 0
M  V30 1807 H 165.513 1.836 -2.41919 0
M  V30 1808 H 163.098 0.849966 -1.22866 0
M  V30 1809 H 164.98 4.01236 -1.28794 0
M  V30 1810 H 163.655 3.2123 -0.39909 0
M  V30 1811 H 162.562 2.64474 -2.64583 0
M  V30 1812 H 163.895 3.49356 -3.46715 0
M  V30 1813 N 165.547 1.27147 0.931209 0
M  V30 1814 C 166.477 1.12081 2.04842 0
M  V30 1815 C 167.458 0.0232364 1.70084 0
M  V30 1816 O 168.643 0.197085 1.93197 0
M  V30 1817 C 165.773 0.76354 3.38803 0
M  V30 1818 C 164.727 1.81396 3.87659 0
M  V30 1819 C 164.053 1.31075 5.18385 0
M  V30 1820 C 165.353 3.21739 4.11438 0
M  V30 1821 H 167.047 2.05537 2.17703 0
M  V30 1822 H 164.593 0.989603 1.04608 0
M  V30 1823 H 166.546 0.644982 4.16435 0
M  V30 1824 H 165.27 -0.206727 3.25945 0
M  V30 1825 H 163.929 1.92136 3.12217 0
M  V30 1826 H 163.577 0.330037 5.01916 0
M  V30 1827 H 163.277 2.013 5.52044 0
M  V30 1828 H 164.801 1.20506 5.98591 0
M  V30 1829 H 166.215 3.14019 4.79651 0
M  V30 1830 H 164.612 3.89644 4.56397 0
M  V30 1831 H 165.682 3.67054 3.16859 0
M  V30 1832 N 167.025 -1.13721 1.09112 0
M  V30 1833 C 167.972 -2.19031 0.727591 0
M  V30 1834 C 168.942 -1.63555 -0.289656 0
M  V30 1835 O 170.127 -1.90023 -0.172026 0
M  V30 1836 C 167.267 -3.4477 0.15082 0
M  V30 1837 C 166.38 -4.14365 1.22172 0
M  V30 1838 C 165.515 -5.27709 0.608042 0
M  V30 1839 C 164.554 -5.89147 1.66047 0
M  V30 1840 N 163.691 -6.93929 1.06806 0
M  V30 1841 H 168.531 -2.49475 1.62991 0
M  V30 1842 H 166.068 -1.22499 0.81439 0
M  V30 1843 H 168.026 -4.16714 -0.201358 0
M  V30 1844 H 166.656 -3.14787 -0.714783 0
M  V30 1845 H 165.708 -3.40737 1.69122 0
M  V30 1846 H 167.02 -4.56114 2.01895 0
M  V30 1847 H 166.174 -6.06355 0.204523 0
M  V30 1848 H 164.913 -4.872 -0.220769 0
M  V30 1849 H 163.918 -5.09198 2.07357 0
M  V30 1850 H 165.143 -6.31729 2.49189 0
M  V30 1851 H 163.089 -6.55483 0.260476 0
M  V30 1852 H 163.006 -7.34202 1.8023 0
M  V30 1853 H 164.274 -7.76434 0.690644 0
M  V30 1854 N 168.503 -0.877838 -1.30888 0
M  V30 1855 C 169.749 -0.493426 -1.96706 0
M  V30 1856 C 170.082 0.953504 -1.6918 0
M  V30 1857 O 169.357 1.67266 -0.992594 0
M  V30 1858 C 169.64 -0.760429 -3.51979 0
M  V30 1859 C 169.493 -2.25747 -3.89048 0
M  V30 1860 C 170.812 -0.232148 -4.39487 0
M  V30 1861 H 167.931 -0.180746 -0.714493 0
M  V30 1862 H 170.573 -1.10052 -1.54882 0
M  V30 1863 H 168.723 -0.243715 -3.87735 0
M  V30 1864 H 170.395 -2.84204 -3.63354 0
M  V30 1865 H 168.638 -2.72694 -3.37373 0
M  V30 1866 H 169.309 -2.39491 -4.97341 0
M  V30 1867 H 171.785 -0.674314 -4.106 0
M  V30 1868 H 170.661 -0.448355 -5.47066 0
M  V30 1869 H 170.922 0.866297 -4.33529 0
M  V30 1870 N 169.982 1.44106 -0.638065 0
M  V30 1871 C 170.945 2.29138 0.0531013 0
M  V30 1872 C 171.945 1.41409 0.765506 0
M  V30 1873 O 173.135 1.63206 0.609046 0
M  V30 1874 C 170.267 3.23144 1.08584 0
M  V30 1875 H 171.46 2.91739 -0.694883 0
M  V30 1876 H 169.013 1.51134 -0.398538 0
M  V30 1877 H 169.748 2.65408 1.86357 0
M  V30 1878 H 169.533 3.87804 0.578852 0
M  V30 1879 H 171.023 3.87004 1.56899 0
M  V30 1880 N 171.46 0.379036 1.52974 0
M  V30 1881 C 172.392 -0.495963 2.2377 0
M  V30 1882 C 173.405 -1.03517 1.25651 0
M  V30 1883 O 174.594 -0.939249 1.51791 0
M  V30 1884 C 171.694 -1.69894 2.93239 0
M  V30 1885 C 170.867 -1.2889 4.17979 0
M  V30 1886 C 169.926 -2.35543 4.70538 0
M  V30 1887 O 168.952 -1.97375 5.33883 0
M  V30 1888 N 170.154 -3.67318 4.49508 0
M  V30 1889 H 172.919 0.110523 2.99496 0
M  V30 1890 H 170.48 0.204878 1.60598 0
M  V30 1891 H 172.472 -2.40747 3.25304 0
M  V30 1892 H 171.042 -2.212 2.20883 0
M  V30 1893 H 170.262 -0.409676 3.92065 0
M  V30 1894 H 171.55 -0.991443 4.99047 0
M  V30 1895 H 170.948 -4.01095 3.98923 0
M  V30 1896 H 169.505 -4.34235 4.8609 0
M  V30 1897 N 172.938 -1.57226 0.108567 0
M  V30 1898 C 174.166 -1.99179 -0.559954 0
M  V30 1899 C 174.581 -0.988022 -1.60884 0
M  V30 1900 O 173.938 0.0205512 -1.82488 0
M  V30 1901 C 173.989 -3.41159 -1.19552 0
M  V30 1902 O 173.71 -4.37694 -0.188577 0
M  V30 1903 C 175.211 -3.98188 -1.94837 0
M  V30 1904 H 172.431 -0.654228 -0.149088 0
M  V30 1905 H 174.975 -2.03598 0.19183 0
M  V30 1906 H 173.13 -3.37711 -1.89815 0
M  V30 1907 H 173.544 -5.20469 -0.649014 0
M  V30 1908 H 175.018 -4.99644 -2.34648 0
M  V30 1909 H 175.495 -3.3675 -2.81951 0
M  V30 1910 H 176.101 -4.0515 -1.2936 0
M  V30 1911 N 174.416 0.165178 -1.56732 0
M  V30 1912 C 175.693 0.908443 -1.73224 0
M  V30 1913 C 176.073 2.0013 -0.67165 0
M  V30 1914 O 175.421 2.26353 0.31253 0
M  V30 1915 C 175.631 1.46756 -3.16644 0
M  V30 1916 C 176.979 1.93809 -3.77787 0
M  V30 1917 O 178.003 1.56537 -3.1996 0
M  V30 1918 O 176.862 2.62486 -4.79336 0
M  V30 1919 H 173.956 0.428025 -0.707618 0
M  V30 1920 H 176.502 0.152526 -1.69013 0
M  V30 1921 H 175.274 0.68129 -3.85323 0
M  V30 1922 H 174.897 2.28749 -3.25207 0
M  V30 1923 N 175.894 1.51508 0.433938 0
M  V30 1924 C 177.142 1.6402 1.18075 0
M  V30 1925 C 177.463 0.360328 1.91642 0
M  V30 1926 O 176.733 -0.623945 1.85698 0
M  V30 1927 H 175.313 0.6045 0.43885 0
M  V30 1928 H 177.975 1.88452 0.497178 0
M  V30 1929 H 177.071 2.46949 1.90847 0
M  V30 1930 N 177.372 -0.689602 1.41712 0
M  V30 1931 C 178.618 -1.45181 1.41599 0
M  V30 1932 C 178.951 -1.94181 0.0270081 0
M  V30 1933 O 178.226 -1.6993 -0.946265 0
M  V30 1934 C 178.509 -2.65945 2.42787 0
M  V30 1935 C 178.362 -2.22672 3.90816 0
M  V30 1936 C 179.681 -3.68149 2.41151 0
M  V30 1937 H 176.8 -0.526576 0.515642 0
M  V30 1938 H 179.442 -0.784947 1.73028 0
M  V30 1939 H 177.592 -3.2284 2.16116 0
M  V30 1940 H 179.264 -1.71058 4.28412 0
M  V30 1941 H 177.507 -1.54394 4.05395 0
M  V30 1942 H 178.178 -3.0935 4.57172 0
M  V30 1943 H 180.654 -3.2094 2.64834 0
M  V30 1944 H 179.53 -4.50248 3.13955 0
M  V30 1945 H 179.791 -4.18259 1.43221 0
M  V30 1946 N 178.85 -1.27639 -0.924453 0
M  V30 1947 C 179.798 -1.10485 -2.04685 0
M  V30 1948 C 180.792 -0.0270421 -1.69378 0
M  V30 1949 O 181.998 -0.185008 -1.79047 0
M  V30 1950 H 178.373 -0.340546 -0.670472 0
M  V30 1951 H 180.344 -2.05566 -2.16298 0
M  V30 1952 C 179.093 -0.772229 -3.39016 0
M  V30 1953 H 178.416 -1.59351 -3.66671 0
M  V30 1954 H 179.856 -0.692097 -4.18313 0
M  V30 1955 C 178.315 0.523554 -3.32807 0
M  V30 1956 O 178.845 1.55702 -3.70297 0
M  V30 1957 N 177.051 0.520363 -2.85903 0
M  V30 1958 H 176.598 -0.32107 -2.55591 0
M  V30 1959 H 176.556 1.38742 -2.82131 0
M  V30 1960 N 180.328 1.1314 -1.09713 0
M  V30 1961 C 181.574 1.84757 -0.836224 0
M  V30 1962 C 181.907 1.8347 0.636598 0
M  V30 1963 O 181.182 1.27491 1.46889 0
M  V30 1964 C 181.465 3.32782 -1.37578 0
M  V30 1965 C 181.318 3.42567 -2.91493 0
M  V30 1966 C 182.637 4.28307 -1.01198 0
M  V30 1967 H 179.756 0.67082 -0.305236 0
M  V30 1968 H 182.398 1.3278 -1.35903 0
M  V30 1969 H 180.548 3.77177 -0.931097 0
M  V30 1970 H 182.22 3.06862 -3.44432 0
M  V30 1971 H 180.463 2.83349 -3.28475 0
M  V30 1972 H 181.134 4.46674 -3.24324 0
M  V30 1973 H 183.61 3.91999 -1.39556 0
M  V30 1974 H 182.486 5.30307 -1.41653 0
M  V30 1975 H 182.747 4.42029 0.0794833 0
M  V30 1976 N 181.806 0.884767 1.30421 0
M  V30 1977 C 183.083 0.423185 1.90967 0
M  V30 1978 C 183.463 -1.09605 1.80416 0
M  V30 1979 O 182.811 -1.93126 1.22125 0
M  V30 1980 C 183.021 0.921056 3.36627 0
M  V30 1981 C 184.369 0.955903 4.137 0
M  V30 1982 O 185.393 0.867706 3.4547 0
M  V30 1983 O 184.252 1.08614 5.35598 0
M  V30 1984 H 181.346 0.129369 0.816819 0
M  V30 1985 H 183.892 0.973653 1.3899 0
M  V30 1986 H 182.664 1.96489 3.3839 0
M  V30 1987 H 182.287 0.349741 3.96059 0
M  V30 1988 N 183.284 -1.43765 0.645699 0
M  V30 1989 C 184.217 -2.2798 -0.100072 0
M  V30 1990 C 185.195 -1.39391 -0.837194 0
M  V30 1991 O 186.379 -1.68833 -0.838306 0
M  V30 1992 C 183.506 -3.18643 -1.14823 0
M  V30 1993 C 182.552 -4.2344 -0.510009 0
M  V30 1994 S 183.385 -5.30761 0.710824 0
M  V30 1995 C 184.541 -6.24992 -0.33699 0
M  V30 1996 H 184.774 -2.90884 0.614322 0
M  V30 1997 H 182.307 -1.48166 0.434304 0
M  V30 1998 H 184.265 -3.71424 -1.74799 0
M  V30 1999 H 182.926 -2.54932 -1.8349 0
M  V30 2000 H 182.119 -4.86948 -1.29991 0
M  V30 2001 H 181.721 -3.73997 0.0154577 0
M  V30 2002 H 184.013 -6.66691 -1.20537 0
M  V30 2003 H 184.956 -7.07612 0.262879 0
M  V30 2004 H 185.364 -5.60517 -0.669425 0
M  V30 2005 N 184.763 -0.387143 -1.52771 0
M  V30 2006 C 185.713 0.465942 -2.23188 0
M  V30 2007 C 186.697 1.03138 -1.23496 0
M  V30 2008 O 187.889 0.957845 -1.48843 0
M  V30 2009 C 185.018 1.59384 -3.04059 0
M  V30 2010 C 184.104 1.04024 -4.11144 0
M  V30 2011 N 184.495 0.211416 -5.05358 0
M  V30 2012 C 182.793 1.31295 -4.26237 0
M  V30 2013 C 183.494 -0.0941698 -5.81624 0
M  V30 2014 N 182.47 0.509207 -5.4121 0
M  V30 2015 H 186.272 -0.173856 -2.93385 0
M  V30 2016 H 183.786 -0.19633 -1.61209 0
M  V30 2017 H 185.783 2.21738 -3.53041 0
M  V30 2018 H 184.443 2.23648 -2.35397 0
M  V30 2019 H 185.454 -0.151151 -5.17679 0
M  V30 2020 H 182.131 1.95679 -3.68803 0
M  V30 2021 H 183.521 -0.765572 -6.67524 0
M  V30 2022 N 186.241 1.57166 -0.116904 0
M  V30 2023 C 187.171 2.18222 0.830759 0
M  V30 2024 C 188.152 1.12167 1.27877 0
M  V30 2025 O 189.337 1.40394 1.34176 0
M  V30 2026 C 186.467 2.77996 2.08172 0
M  V30 2027 C 185.421 3.89614 1.77157 0
M  V30 2028 C 184.747 4.36187 3.09265 0
M  V30 2029 C 186.047 5.1181 1.04151 0
M  V30 2030 H 187.741 2.97664 0.321992 0
M  V30 2031 H 185.287 1.4318 0.153434 0
M  V30 2032 H 187.24 3.19366 2.74924 0
M  V30 2033 H 185.964 1.9584 2.6137 0
M  V30 2034 H 184.623 3.48816 1.12796 0
M  V30 2035 H 184.271 3.50893 3.60393 0
M  V30 2036 H 183.971 5.11455 2.89288 0
M  V30 2037 H 185.495 4.80207 3.77139 0
M  V30 2038 H 186.909 5.50214 1.61052 0
M  V30 2039 H 185.306 5.92648 0.942762 0
M  V30 2040 H 186.376 4.84892 0.0279022 0
M  V30 2041 N 187.719 -0.156864 1.56817 0
M  V30 2042 C 188.666 -1.19394 1.97519 0
M  V30 2043 C 189.636 -1.4322 0.841265 0
M  V30 2044 O 190.821 -1.55719 1.10255 0
M  V30 2045 C 187.961 -2.52483 2.35258 0
M  V30 2046 C 187.074 -2.35914 3.61896 0
M  V30 2047 C 186.209 -3.61969 3.88782 0
M  V30 2048 C 185.248 -3.40395 5.08722 0
M  V30 2049 N 184.385 -4.58556 5.31668 0
M  V30 2050 H 189.225 -0.839845 2.85921 0
M  V30 2051 H 186.762 -0.403264 1.41464 0
M  V30 2052 H 188.72 -3.30071 2.55165 0
M  V30 2053 H 187.35 -2.85859 1.49949 0
M  V30 2054 H 186.402 -1.49429 3.49821 0
M  V30 2055 H 187.714 -2.15926 4.49641 0
M  V30 2056 H 186.868 -4.47989 4.09135 0
M  V30 2057 H 185.607 -3.84951 2.9944 0
M  V30 2058 H 184.612 -2.52763 4.88253 0
M  V30 2059 H 185.837 -3.18822 5.99608 0
M  V30 2060 H 183.783 -4.81729 4.45279 0
M  V30 2061 H 183.7 -4.41535 6.13664 0
M  V30 2062 H 184.968 -5.45817 5.5651 0
M  V30 2063 N 189.197 -1.51736 -0.425897 0
M  V30 2064 C 190.129 -1.70083 -1.53638 0
M  V30 2065 C 191.142 -0.581349 -1.52066 0
M  V30 2066 O 192.331 -0.856017 -1.56635 0
M  V30 2067 C 189.431 -1.71078 -2.9255 0
M  V30 2068 C 188.604 -2.99795 -3.185 0
M  V30 2069 C 187.663 -2.92825 -4.37196 0
M  V30 2070 O 186.689 -3.66756 -4.35291 0
M  V30 2071 N 187.891 -2.0946 -5.41393 0
M  V30 2072 H 190.656 -2.65882 -1.383 0
M  V30 2073 H 188.217 -1.49765 -0.614988 0
M  V30 2074 H 190.209 -1.63969 -3.69995 0
M  V30 2075 H 188.779 -0.828242 -3.01428 0
M  V30 2076 H 187.999 -3.20684 -2.2925 0
M  V30 2077 H 189.287 -3.84977 -3.32671 0
M  V30 2078 H 188.685 -1.48792 -5.45781 0
M  V30 2079 H 187.242 -2.08221 -6.17647 0
M  V30 2080 N 190.675 0.682077 -1.42076 0
M  V30 2081 C 191.924 1.43786 -1.41451 0
M  V30 2082 C 192.237 1.95574 -0.0317074 0
M  V30 2083 O 193.443 2.71326 0.0971462 0
M  V30 2084 C 191.899 2.60071 -2.48779 0
M  V30 2085 C 191.507 2.15013 -3.93031 0
M  V30 2086 C 193.251 3.37626 -2.57311 0
M  V30 2087 C 191.158 3.28336 -4.91883 0
M  V30 2088 H 190.088 0.540143 -0.526082 0
M  V30 2089 H 192.739 0.739157 -1.67955 0
M  V30 2090 H 191.121 3.32275 -2.15429 0
M  V30 2091 H 192.295 1.5001 -4.35699 0
M  V30 2092 H 190.61 1.50416 -3.88284 0
M  V30 2093 H 193.207 4.22012 -3.28345 0
M  V30 2094 H 193.55 3.83727 -1.61429 0
M  V30 2095 H 194.083 2.72488 -2.89819 0
M  V30 2096 H 190.822 2.87234 -5.89217 0
M  V30 2097 H 190.342 3.92145 -4.53853 0
M  V30 2098 H 192.021 3.93913 -5.13265 0
M  V30 2099 N 192.153 1.28127 0.917671 0
M  V30 2100 C 193.063 1.13556 2.05286 0
M  V30 2101 C 194.079 0.0630914 1.73886 0
M  V30 2102 O 195.255 0.271598 1.9956 0
M  V30 2103 C 192.32 0.794676 3.3747 0
M  V30 2104 C 191.381 1.94909 3.82504 0
M  V30 2105 C 190.614 1.62437 5.0838 0
M  V30 2106 O 190.837 0.536905 5.67867 0
M  V30 2107 O 189.771 2.46677 5.4903 0
M  V30 2108 H 193.597 2.08844 2.20495 0
M  V30 2109 H 191.182 1.07409 1.03845 0
M  V30 2110 H 193.064 0.618344 4.16839 0
M  V30 2111 H 191.739 -0.128581 3.23445 0
M  V30 2112 H 190.646 2.18055 3.03978 0
M  V30 2113 H 191.979 2.85291 4.01086 0
M  V30 2114 N 193.631 -1.12557 1.10312 0
M  V30 2115 C 194.88 -1.83395 0.839588 0
M  V30 2116 C 195.193 -1.84939 -0.636929 0
M  V30 2117 O 196.399 -2.51761 -1.01631 0
M  V30 2118 C 194.855 -3.29303 1.45215 0
M  V30 2119 C 194.463 -3.36122 2.96186 0
M  V30 2120 C 196.207 -4.05121 1.26796 0
M  V30 2121 C 194.114 -4.76357 3.50483 0
M  V30 2122 H 193.044 -0.687133 0.310425 0
M  V30 2123 H 195.695 -1.26746 1.32694 0
M  V30 2124 H 194.077 -3.85812 0.892469 0
M  V30 2125 H 195.251 -2.89559 3.58458 0
M  V30 2126 H 193.566 -2.73776 3.13745 0
M  V30 2127 H 196.163 -5.08668 1.64806 0
M  V30 2128 H 196.506 -4.15773 0.209409 0
M  V30 2129 H 197.039 -3.54967 1.79563 0
M  V30 2130 H 193.778 -4.70899 4.55998 0
M  V30 2131 H 193.298 -5.23377 2.92978 0
M  V30 2132 H 194.977 -5.45294 3.48228 0
M  V30 2133 N 195.109 -0.891671 -1.2995 0
M  V30 2134 C 196.056 -0.361736 -2.27948 0
M  V30 2135 C 197.026 0.551761 -1.56668 0
M  V30 2136 O 198.211 0.478736 -1.84696 0
M  V30 2137 C 195.351 0.411825 -3.42634 0
M  V30 2138 C 194.464 -0.531651 -4.28716 0
M  V30 2139 C 193.599 0.258167 -5.30572 0
M  V30 2140 C 192.638 -0.680349 -6.08307 0
M  V30 2141 N 191.775 0.0745613 -7.0206 0
M  V30 2142 H 196.615 -1.20254 -2.72659 0
M  V30 2143 H 194.152 -0.604352 -1.34112 0
M  V30 2144 H 196.11 0.876304 -4.07893 0
M  V30 2145 H 194.74 1.21715 -2.98974 0
M  V30 2146 H 193.792 -1.11463 -3.63703 0
M  V30 2147 H 195.104 -1.25038 -4.82874 0
M  V30 2148 H 194.258 0.784204 -6.0161 0
M  V30 2149 H 192.997 1.01008 -4.77126 0
M  V30 2150 H 192.002 -1.21796 -5.3614 0
M  V30 2151 H 193.227 -1.43145 -6.63842 0
M  V30 2152 H 191.173 0.808883 -6.50994 0
M  V30 2153 H 191.09 -0.584409 -7.53738 0
M  V30 2154 H 192.358 0.581123 -7.77331 0
M  V30 2155 N 196.587 1.43421 -0.653314 0
M  V30 2156 C 197.534 2.30768 0.0382271 0
M  V30 2157 C 198.504 1.44755 0.814576 0
M  V30 2158 O 199.689 1.73624 0.791162 0
M  V30 2159 C 196.829 3.30336 0.998599 0
M  V30 2160 C 195.942 4.31448 0.218342 0
M  V30 2161 C 195.077 5.18098 1.17252 0
M  V30 2162 C 194.116 6.10902 0.382702 0
M  V30 2163 N 193.253 6.90176 1.28848 0
M  V30 2164 H 198.093 2.89357 -0.712511 0
M  V30 2165 H 195.63 1.42548 -0.363128 0
M  V30 2166 H 197.588 3.86572 1.56901 0
M  V30 2167 H 196.218 2.73397 1.71621 0
M  V30 2168 H 195.27 3.77506 -0.46836 0
M  V30 2169 H 196.582 4.97227 -0.395812 0
M  V30 2170 H 195.736 5.7896 1.81356 0
M  V30 2171 H 194.475 4.52444 1.82058 0
M  V30 2172 H 193.48 5.49128 -0.27169 0
M  V30 2173 H 194.705 6.78598 -0.260957 0
M  V30 2174 H 192.651 6.27171 1.92334 0
M  V30 2175 H 192.568 7.52478 0.728887 0
M  V30 2176 H 193.836 7.55543 1.91766 0
M  V30 2177 N 198.065 0.39524 1.52563 0
M  V30 2178 C 199.312 -0.185044 2.01653 0
M  V30 2179 C 199.64 -1.46317 1.28146 0
M  V30 2180 O 198.895 -1.9213 0.372074 0
M  V30 2181 C 199.194 -0.493444 3.53977 0
M  V30 2182 C 198.86 0.69384 4.4553 0
M  V30 2183 C 197.522 1.01954 4.70275 0
M  V30 2184 C 199.874 1.48785 4.99512 0
M  V30 2185 C 197.202 2.14069 5.46252 0
M  V30 2186 C 199.554 2.59965 5.76716 0
M  V30 2187 C 198.218 2.93037 5.99738 0
M  V30 2188 H 197.488 -0.0677123 0.7379 0
M  V30 2189 H 200.135 0.533807 1.8391 0
M  V30 2190 H 198.44 -1.29369 3.69825 0
M  V30 2191 H 200.137 -0.955163 3.89458 0
M  V30 2192 H 196.727 0.429987 4.26438 0
M  V30 2193 H 200.911 1.24946 4.80315 0
M  V30 2194 H 196.167 2.40056 5.62302 0
M  V30 2195 H 200.341 3.21887 6.17545 0
M  V30 2196 H 197.968 3.8003 6.58393 0
M  V30 2197 N 199.544 -1.57102 0.125237 0
M  V30 2198 C 200.491 -2.15641 -0.822655 0
M  V30 2199 C 201.461 -1.08313 -1.25927 0
M  V30 2200 O 202.646 -1.36251 -1.33567 0
M  V30 2201 C 199.786 -2.76504 -2.06494 0
M  V30 2202 C 198.899 -3.98158 -1.67612 0
M  V30 2203 C 198.034 -4.47088 -2.86854 0
M  V30 2204 C 197.073 -5.6126 -2.44242 0
M  V30 2205 N 196.21 -6.04905 -3.56419 0
M  V30 2206 H 201.05 -2.96313 -0.316625 0
M  V30 2207 H 198.587 -1.46388 -0.144588 0
M  V30 2208 H 200.545 -3.09925 -2.79289 0
M  V30 2209 H 199.175 -1.98512 -2.54545 0
M  V30 2210 H 198.227 -3.70858 -0.846661 0
M  V30 2211 H 199.539 -4.80934 -1.32301 0
M  V30 2212 H 198.693 -4.82451 -3.67867 0
M  V30 2213 H 197.432 -3.63275 -3.25396 0
M  V30 2214 H 196.437 -5.25495 -1.61663 0
M  V30 2215 H 197.662 -6.46843 -2.0681 0
M  V30 2216 H 195.608 -5.24032 -3.94623 0
M  V30 2217 H 195.525 -6.82552 -3.25051 0
M  V30 2218 H 196.793 -6.44907 -4.37853 0
M  V30 2219 N 201.022 0.148545 -1.56898 0
M  V30 2220 C 202.252 0.875118 -1.8715 0
M  V30 2221 C 202.66 1.75322 -0.711262 0
M  V30 2222 O 202.003 1.80745 0.328151 0
M  V30 2223 C 202.065 1.7844 -3.12089 0
M  V30 2224 C 201.729 1.08361 -4.43967 0
M  V30 2225 C 202.726 0.438247 -5.1805 0
M  V30 2226 C 200.411 1.07358 -4.90693 0
M  V30 2227 C 202.405 -0.20779 -6.37061 0
M  V30 2228 C 200.092 0.42373 -6.09629 0
M  V30 2229 C 201.09 -0.215829 -6.82659 0
M  V30 2230 O 200.778 -0.855378 -7.99336 0
M  V30 2231 H 200.51 0.258504 -0.624621 0
M  V30 2232 H 203.064 0.14652 -2.04877 0
M  V30 2233 H 201.294 2.55389 -2.90367 0
M  V30 2234 H 202.983 2.38279 -3.286 0
M  V30 2235 H 203.749 0.437817 -4.8302 0
M  V30 2236 H 199.628 1.5608 -4.33774 0
M  V30 2237 H 203.172 -0.70758 -6.94002 0
M  V30 2238 H 199.069 0.421822 -6.4412 0
M  V30 2239 H 199.837 -0.756892 -8.14993 0
M  V30 2240 N 202.5 1.5196 0.417844 0
M  V30 2241 C 203.748 1.65263 1.16329 0
M  V30 2242 C 204.069 0.380634 1.91249 0
M  V30 2243 O 203.339 -0.604214 1.86349 0
M  V30 2244 H 201.919 0.60912 0.432414 0
M  V30 2245 H 204.581 1.88969 0.477162 0
M  V30 2246 H 203.677 2.4896 1.88217 0
M  V30 2247 N 203.978 -0.674533 1.42435 0
M  V30 2248 C 205.227 -1.43034 1.42212 0
M  V30 2249 C 205.54 -1.95555 0.0420788 0
M  V30 2250 O 206.746 -2.71374 -0.0827558 0
M  V30 2251 C 205.202 -2.58748 2.50155 0
M  V30 2252 C 204.81 -2.12925 3.94166 0
M  V30 2253 C 206.554 -3.36257 2.59098 0
M  V30 2254 C 204.461 -3.25723 4.93618 0
M  V30 2255 H 203.391 -0.537345 0.528939 0
M  V30 2256 H 206.042 -0.73024 1.68344 0
M  V30 2257 H 204.424 -3.31128 2.17188 0
M  V30 2258 H 205.598 -1.47697 4.36488 0
M  V30 2259 H 203.913 -1.48354 3.89076 0
M  V30 2260 H 206.51 -4.20264 3.30578 0
M  V30 2261 H 206.853 -3.82866 1.63461 0
M  V30 2262 H 207.386 -2.70947 2.9126 0
M  V30 2263 H 204.125 -2.84105 5.90732 0
M  V30 2264 H 203.645 -3.89732 4.55926 0
M  V30 2265 H 205.324 -3.91186 5.15347 0
M  V30 2266 N 205.456 -1.28612 -0.910864 0
M  V30 2267 C 206.366 -1.14643 -2.0468 0
M  V30 2268 C 207.382 -0.0723121 -1.7385 0
M  V30 2269 O 208.558 -0.282178 -1.99413 0
M  V30 2270 C 205.623 -0.812561 -3.37044 0
M  V30 2271 C 204.684 -1.96935 -3.81465 0
M  V30 2272 C 203.917 -1.65131 -5.07511 0
M  V30 2273 O 204.14 -0.567013 -5.67575 0
M  V30 2274 O 203.074 -2.49585 -5.47714 0
M  V30 2275 H 206.9 -2.1001 -2.19384 0
M  V30 2276 H 204.485 -1.07958 -1.03274 0
M  V30 2277 H 206.367 -0.640441 -4.16505 0
M  V30 2278 H 205.042 0.111426 -3.23508 0
M  V30 2279 H 203.949 -2.19664 -3.02818 0
M  V30 2280 H 205.282 -2.87414 -3.99567 0
M  V30 2281 N 206.934 1.1197 -1.10907 0
M  V30 2282 C 207.844 2.21433 -0.774896 0
M  V30 2283 C 208.86 1.72478 0.229657 0
M  V30 2284 O 210.036 2.01288 0.0672008 0
M  V30 2285 C 207.101 3.4602 -0.216986 0
M  V30 2286 C 206.162 4.09791 -1.27944 0
M  V30 2287 C 205.395 5.28431 -0.748055 0
M  V30 2288 O 205.618 5.68823 0.423833 0
M  V30 2289 O 204.552 5.82644 -1.51027 0
M  V30 2290 H 208.378 2.5242 -1.68873 0
M  V30 2291 H 205.963 1.20399 -0.884555 0
M  V30 2292 H 207.845 4.21304 0.090059 0
M  V30 2293 H 206.52 3.16698 0.669633 0
M  V30 2294 H 205.427 3.36265 -1.63941 0
M  V30 2295 H 206.76 4.4328 -2.13925 0
M  V30 2296 N 208.412 0.89855 1.29475 0
M  V30 2297 C 209.362 0.346767 2.25348 0
M  V30 2298 C 210.346 -0.532509 1.51833 0
M  V30 2299 O 211.538 -0.374714 1.72988 0
M  V30 2300 C 208.667 -0.425681 3.40651 0
M  V30 2301 C 207.753 0.46845 4.21505 0
M  V30 2302 N 208.144 1.57514 4.80648 0
M  V30 2303 C 206.442 0.26603 4.45206 0
M  V30 2304 C 207.143 2.12889 5.41344 0
M  V30 2305 N 206.119 1.42208 5.24669 0
M  V30 2306 H 209.921 1.19219 2.68634 0
M  V30 2307 H 207.435 0.749473 1.44072 0
M  V30 2308 H 209.432 -0.837716 4.08397 0
M  V30 2309 H 208.092 -1.26838 2.98902 0
M  V30 2310 H 209.103 1.95789 4.79465 0
M  V30 2311 H 205.78 -0.538394 4.14014 0
M  V30 2312 H 207.17 3.05901 5.98226 0
M  V30 2313 N 209.89 -1.43072 0.660911 0
M  V30 2314 C 211.138 -2.01323 0.177094 0
M  V30 2315 C 211.459 -1.5245 -1.2159 0
M  V30 2316 O 210.729 -0.740322 -1.81373 0
M  V30 2317 H 209.309 -0.744382 0.0624804 0
M  V30 2318 H 211.971 -1.75179 0.854305 0
M  V30 2319 H 211.067 -3.11649 0.167641 0
M  V30 2320 N 211.368 -0.403325 -1.52352 0
M  V30 2321 C 212.315 0.425011 -2.26853 0
M  V30 2322 C 213.285 1.04598 -1.29029 0
M  V30 2323 O 214.47 1.07135 -1.57882 0
M  V30 2324 C 211.61 1.53888 -3.08889 0
M  V30 2325 C 210.723 0.939396 -4.21663 0
M  V30 2326 C 209.858 2.02547 -4.91068 0
M  V30 2327 C 208.897 1.40263 -5.95813 0
M  V30 2328 N 208.034 2.4286 -6.58759 0
M  V30 2329 H 212.874 -0.21674 -2.97211 0
M  V30 2330 H 210.411 -0.118722 -1.4662 0
M  V30 2331 H 212.369 2.19558 -3.54753 0
M  V30 2332 H 210.999 2.15074 -2.40714 0
M  V30 2333 H 210.051 0.171898 -3.80011 0
M  V30 2334 H 211.363 0.44436 -4.96817 0
M  V30 2335 H 210.517 2.75958 -5.40308 0
M  V30 2336 H 209.256 2.55415 -4.15469 0
M  V30 2337 H 208.261 0.653833 -5.45898 0
M  V30 2338 H 209.486 0.881719 -6.73352 0
M  V30 2339 H 207.432 2.94871 -5.85992 0
M  V30 2340 H 207.349 1.98152 -7.2957 0
M  V30 2341 H 208.617 3.15858 -7.12639 0
M  V30 2342 N 212.846 1.57033 -0.133567 0
M  V30 2343 C 214.092 1.95976 0.521649 0
M  V30 2344 C 214.425 1.01779 1.65393 0
M  V30 2345 O 213.7 0.0576581 1.94415 0
M  V30 2346 C 213.983 3.44738 1.04057 0
M  V30 2347 C 213.836 4.49711 -0.0892897 0
M  V30 2348 C 215.155 3.95682 1.92675 0
M  V30 2349 H 212.274 0.712579 0.188149 0
M  V30 2350 H 214.916 1.88813 -0.212076 0
M  V30 2351 H 213.066 3.50973 1.66583 0
M  V30 2352 H 214.738 4.55565 -0.725152 0
M  V30 2353 H 212.981 4.27261 -0.750378 0
M  V30 2354 H 213.652 5.51099 0.315284 0
M  V30 2355 H 216.128 3.91841 1.39998 0
M  V30 2356 H 215.004 5.00262 2.25897 0
M  V30 2357 H 215.265 3.37239 2.85872 0
M  V30 2358 N 214.325 -0.140222 1.56975 0
M  V30 2359 C 215.272 -1.17292 1.98774 0
M  V30 2360 C 216.242 -1.4232 0.856408 0
M  V30 2361 O 217.427 -1.54541 1.119 0
M  V30 2362 C 214.567 -2.49973 2.37923 0
M  V30 2363 C 213.68 -2.32062 3.64378 0
M  V30 2364 C 212.815 -3.57825 3.926 0
M  V30 2365 C 211.854 -3.3498 5.12303 0
M  V30 2366 N 210.991 -4.52891 5.36502 0
M  V30 2367 H 215.831 -0.809472 2.86795 0
M  V30 2368 H 213.368 -0.388237 1.41884 0
M  V30 2369 H 215.326 -3.27346 2.58652 0
M  V30 2370 H 213.956 -2.84252 1.52972 0
M  V30 2371 H 213.008 -1.45711 3.51387 0
M  V30 2372 H 214.32 -2.11145 4.51906 0
M  V30 2373 H 213.474 -4.43624 4.13863 0
M  V30 2374 H 212.213 -3.81753 3.03506 0
M  V30 2375 H 211.218 -2.4757 4.90906 0
M  V30 2376 H 212.443 -3.12444 6.02956 0
M  V30 2377 H 210.389 -4.76979 4.50363 0
M  V30 2378 H 210.306 -4.35001 6.18312 0
M  V30 2379 H 211.574 -5.39884 5.62268 0
M  V30 2380 N 215.803 -1.52179 -0.40978 0
M  V30 2381 C 216.736 -1.70196 -1.52015 0
M  V30 2382 C 217.714 -0.549542 -1.53032 0
M  V30 2383 O 218.898 -0.776815 -1.71749 0
M  V30 2384 C 216.025 -1.74069 -2.90547 0
M  V30 2385 C 215.071 -2.95601 -3.07445 0
M  V30 2386 S 215.904 -4.55956 -2.80827 0
M  V30 2387 C 217.06 -4.62614 -4.21591 0
M  V30 2388 H 217.293 -2.64109 -1.36504 0
M  V30 2389 H 214.826 -1.4221 -0.601312 0
M  V30 2390 H 216.784 -1.76985 -3.70387 0
M  V30 2391 H 215.445 -0.812835 -3.034 0
M  V30 2392 H 214.638 -2.94791 -4.08796 0
M  V30 2393 H 214.24 -2.90569 -2.35469 0
M  V30 2394 H 216.532 -4.39951 -5.15218 0
M  V30 2395 H 217.475 -5.64548 -4.27424 0
M  V30 2396 H 217.883 -3.91654 -4.06531 0
M  V30 2397 N 217.281 0.66697 -1.42791 0
M  V30 2398 C 218.697 0.981027 -1.25889 0
M  V30 2399 C 218.897 2.00793 -0.168695 0
M  V30 2400 O 217.953 2.48321 0.45747 0
M  V30 2401 C 219.266 1.47838 -2.61848 0
M  V30 2402 C 220.814 1.59575 -2.69267 0
M  V30 2403 C 221.289 2.12704 -4.05612 0
M  V30 2404 N 222.78 2.20026 -4.07606 0
M  V30 2405 C 223.515 2.62227 -5.09926 0
M  V30 2406 N 223.011 3.03824 -6.22626 0
M  V30 2407 N 224.804 2.62045 -4.97281 0
M  V30 2408 H 216.955 -0.0127891 -2.12396 0
M  V30 2409 H 219.218 0.0568258 -0.946295 0
M  V30 2410 H 218.924 0.798299 -3.4252 0
M  V30 2411 H 218.798 2.45579 -2.86305 0
M  V30 2412 H 221.185 2.26687 -1.88936 0
M  V30 2413 H 221.266 0.60302 -2.48591 0
M  V30 2414 H 220.91 1.46198 -4.86404 0
M  V30 2415 H 220.84 3.12782 -4.23645 0
M  V30 2416 H 223.331 1.90708 -3.2625 0
M  V30 2417 H 223.644 3.34734 -6.96544 0
M  V30 2418 H 221.989 3.01662 -6.26119 0
M  V30 2419 H 225.18 2.28916 -4.08308 0
M  V30 2420 H 225.353 2.94613 -5.77154 0
M  V30 2421 N 218.759 1.29093 0.90403 0
M  V30 2422 C 220.007 1.16583 1.65085 0
M  V30 2423 C 220.328 -0.283933 1.92922 0
M  V30 2424 O 219.598 -1.19509 1.55224 0
M  V30 2425 H 218.178 0.428467 0.611903 0
M  V30 2426 H 220.84 1.61959 1.08422 0
M  V30 2427 H 219.936 1.71266 2.6091 0
M  V30 2428 N 220.237 -1.11381 1.11499 0
M  V30 2429 C 221.485 -1.8277 0.862524 0
M  V30 2430 C 221.806 -1.85097 -0.613534 0
M  V30 2431 O 221.076 -1.32198 -1.4457 0
M  V30 2432 H 219.656 -0.676823 0.316101 0
M  V30 2433 H 222.318 -1.34816 1.4075 0
M  V30 2434 H 221.414 -2.86614 1.23527 0
M  V30 2435 N 221.715 -0.905404 -1.28997 0
M  V30 2436 C 222.645 -0.404212 -2.29975 0
M  V30 2437 C 223.626 0.523784 -1.61835 0
M  V30 2438 O 224.811 0.433298 -1.89304 0
M  V30 2439 C 221.941 0.364042 -3.45387 0
M  V30 2440 C 220.895 -0.474048 -4.25367 0
M  V30 2441 C 220.221 0.422045 -5.33032 0
M  V30 2442 C 221.521 -1.72696 -4.92923 0
M  V30 2443 H 223.215 -1.24807 -2.72146 0
M  V30 2444 H 220.761 -0.601585 -1.30832 0
M  V30 2445 H 222.714 0.725447 -4.15109 0
M  V30 2446 H 221.438 1.24174 -3.02074 0
M  V30 2447 H 220.097 -0.81786 -3.57361 0
M  V30 2448 H 219.745 1.29804 -4.85963 0
M  V30 2449 H 219.445 -0.135057 -5.87445 0
M  V30 2450 H 220.969 0.779517 -6.05604 0
M  V30 2451 H 222.383 -1.43495 -5.55051 0
M  V30 2452 H 220.78 -2.22582 -5.57295 0
M  V30 2453 H 221.85 -2.45964 -4.17887 0
M  V30 2454 N 223.193 1.4272 -0.668489 0
M  V30 2455 C 224.123 2.335 -0.000100175 0
M  V30 2456 C 225.104 1.50328 0.795964 0
M  V30 2457 O 226.289 1.78949 0.754385 0
M  V30 2458 C 223.419 3.33874 0.956302 0
M  V30 2459 C 222.373 4.27152 0.269278 0
M  V30 2460 C 221.699 5.17684 1.33818 0
M  V30 2461 C 222.999 5.15373 -0.847805 0
M  V30 2462 H 224.693 2.89639 -0.758244 0
M  V30 2463 H 222.239 1.39269 -0.366079 0
M  V30 2464 H 224.192 3.9629 1.43292 0
M  V30 2465 H 222.916 2.76025 1.74579 0
M  V30 2466 H 221.575 3.66123 -0.187042 0
M  V30 2467 H 221.223 4.56165 2.1195 0
M  V30 2468 H 220.923 5.80918 0.883659 0
M  V30 2469 H 222.447 5.82974 1.81586 0
M  V30 2470 H 223.861 5.7151 -0.452681 0
M  V30 2471 H 222.258 5.87407 -1.22773 0
M  V30 2472 H 223.328 4.5415 -1.69929 0
M  V30 2473 N 224.671 0.411399 1.52136 0
M  V30 2474 C 226.087 0.0623865 1.59478 0
M  V30 2475 C 226.287 -1.42554 1.4241 0
M  V30 2476 O 225.343 -2.19263 1.2522 0
M  V30 2477 C 226.656 0.559331 2.95452 0
M  V30 2478 C 228.204 0.517503 3.08692 0
M  V30 2479 C 228.679 0.990994 4.4715 0
M  V30 2480 N 230.17 0.947908 4.53397 0
M  V30 2481 C 230.905 1.28544 5.58806 0
M  V30 2482 N 230.401 1.69454 6.71757 0
M  V30 2483 N 232.194 1.20526 5.49026 0
M  V30 2484 H 224.345 1.37982 1.61477 0
M  V30 2485 H 226.608 0.566977 0.759764 0
M  V30 2486 H 226.314 1.59938 3.1323 0
M  V30 2487 H 226.188 -0.0298014 3.77188 0
M  V30 2488 H 228.575 -0.513505 2.90598 0
M  V30 2489 H 228.656 1.14272 2.28857 0
M  V30 2490 H 228.3 2.02034 4.65988 0
M  V30 2491 H 228.23 0.34257 5.25485 0
M  V30 2492 H 230.721 0.647157 3.72317 0
M  V30 2493 H 231.034 1.93513 7.48179 0
M  V30 2494 H 229.379 1.73359 6.73032 0
M  V30 2495 H 232.57 0.884505 4.59667 0
M  V30 2496 H 232.743 1.47161 6.31069 0
M  V30 2497 N 226.149 -1.5696 0.141893 0
M  V30 2498 C 227.377 -2.00322 -0.517579 0
M  V30 2499 C 227.792 -1.02193 -1.58752 0
M  V30 2500 O 227.149 -0.0181619 -1.82491 0
M  V30 2501 C 227.2 -3.43618 -1.12289 0
M  V30 2502 O 226.921 -4.37995 -0.0956929 0
M  V30 2503 C 228.422 -4.02231 -1.86347 0
M  V30 2504 H 225.642 -0.657243 -0.135177 0
M  V30 2505 H 228.186 -2.03146 0.234973 0
M  V30 2506 H 226.341 -3.41662 -1.82609 0
M  V30 2507 H 226.755 -5.21729 -0.538469 0
M  V30 2508 H 228.229 -5.04509 -2.23997 0
M  V30 2509 H 228.706 -3.42655 -2.74744 0
M  V30 2510 H 229.312 -4.07802 -1.20737 0
M  V30 2511 N 227.627 0.131896 -1.57047 0
M  V30 2512 C 228.857 0.855219 -1.88068 0
M  V30 2513 C 229.265 1.74557 -0.729817 0
M  V30 2514 O 228.608 1.81083 0.308962 0
M  V30 2515 C 228.67 1.75119 -3.13964 0
M  V30 2516 C 228.334 1.03646 -4.45091 0
M  V30 2517 C 229.331 0.383276 -5.18485 0
M  V30 2518 C 227.016 1.02148 -4.91804 0
M  V30 2519 C 229.01 -0.275347 -6.36805 0
M  V30 2520 C 226.697 0.359047 -6.10044 0
M  V30 2521 C 227.695 -0.288222 -6.82392 0
M  V30 2522 O 227.383 -0.94011 -7.98384 0
M  V30 2523 H 227.115 0.251864 -0.627328 0
M  V30 2524 H 229.669 0.124782 -2.05021 0
M  V30 2525 H 227.899 2.52295 -2.9306 0
M  V30 2526 H 229.588 2.3478 -3.31109 0
M  V30 2527 H 230.354 0.386562 -4.83457 0
M  V30 2528 H 226.233 1.5147 -4.35405 0
M  V30 2529 H 229.777 -0.781148 -6.93213 0
M  V30 2530 H 225.674 0.35348 -6.44531 0
M  V30 2531 H 226.442 -0.84329 -8.14144 0
M  V30 2532 N 229.106 1.52395 0.401703 0
M  V30 2533 C 230.355 1.66044 1.14509 0
M  V30 2534 C 230.668 0.400216 1.91462 0
M  V30 2535 O 231.874 0.416632 2.68284 0
M  V30 2536 C 230.33 2.93388 2.0845 0
M  V30 2537 C 229.938 4.26545 1.36978 0
M  V30 2538 C 231.682 3.16402 2.83001 0
M  V30 2539 C 229.589 5.45007 2.29611 0
M  V30 2540 H 228.519 0.618562 0.431158 0
M  V30 2541 H 231.17 1.78886 0.40892 0
M  V30 2542 H 229.552 2.74263 2.8565 0
M  V30 2543 H 230.726 4.56179 0.650916 0
M  V30 2544 H 229.041 4.09692 0.74438 0
M  V30 2545 H 231.638 4.02085 3.52465 0
M  V30 2546 H 231.981 2.30943 3.46368 0
M  V30 2547 H 232.514 3.36034 2.12898 0
M  V30 2548 H 229.253 6.32835 1.70879 0
M  V30 2549 H 228.773 5.19702 2.9945 0
M  V30 2550 H 230.452 5.7838 2.89974 0
M  V30 2551 N 230.584 -0.659388 1.43143 0
M  V30 2552 C 231.833 -1.41518 1.43721 0
M  V30 2553 C 232.146 -1.95499 0.0628176 0
M  V30 2554 O 233.352 -2.71446 -0.0539683 0
M  V30 2555 C 231.808 -2.5608 2.52885 0
M  V30 2556 C 231.416 -2.08733 3.96402 0
M  V30 2557 C 233.16 -3.3349 2.62649 0
M  V30 2558 C 231.067 -3.20469 4.97045 0
M  V30 2559 H 229.997 -0.531705 0.534608 0
M  V30 2560 H 232.648 -0.712343 1.69109 0
M  V30 2561 H 231.03 -3.28805 2.20688 0
M  V30 2562 H 232.204 -1.43059 4.3803 0
M  V30 2563 H 230.519 -1.44219 3.90627 0
M  V30 2564 H 233.116 -4.16734 3.35017 0
M  V30 2565 H 233.459 -3.8111 1.67513 0
M  V30 2566 H 233.992 -2.67842 2.94118 0
M  V30 2567 H 230.731 -2.77824 5.93712 0
M  V30 2568 H 230.251 -3.84874 4.60034 0
M  V30 2569 H 231.93 -3.85698 5.19467 0
M  V30 2570 N 232.062 -1.29571 -0.897171 0
M  V30 2571 C 233.287 -1.20705 -1.68656 0
M  V30 2572 C 233.712 0.228582 -1.86706 0
M  V30 2573 O 233.07 1.16494 -1.3892 0
M  V30 2574 C 233.118 -1.9282 -3.04717 0
M  V30 2575 O 232.222 -1.24697 -3.93096 0
M  V30 2576 H 231.563 -0.418126 -0.515816 0
M  V30 2577 H 234.093 -1.71183 -1.12061 0
M  V30 2578 H 234.103 -2.01372 -3.54843 0
M  V30 2579 H 232.778 -2.97239 -2.90899 0
M  V30 2580 H 231.355 -1.2442 -3.51531 0
M  V30 2581 N 233.54 1.10788 -1.12088 0
M  V30 2582 C 234.789 1.82036 -0.868659 0
M  V30 2583 C 235.102 1.85929 0.607426 0
M  V30 2584 O 236.308 2.53346 0.97613 0
M  V30 2585 C 234.764 3.26951 -1.50435 0
M  V30 2586 C 234.372 3.31367 -3.01496 0
M  V30 2587 C 236.116 4.03053 -1.33225 0
M  V30 2588 C 234.023 4.7072 -3.58017 0
M  V30 2589 H 232.953 0.682108 -0.321318 0
M  V30 2590 H 235.604 1.24618 -1.34694 0
M  V30 2591 H 233.986 3.84343 -0.953735 0
M  V30 2592 H 235.16 2.83819 -3.6302 0
M  V30 2593 H 233.475 2.6875 -3.18061 0
M  V30 2594 H 236.072 5.05981 -1.72878 0
M  V30 2595 H 236.415 4.15387 -0.275529 0
M  V30 2596 H 236.948 3.52066 -1.85188 0
M  V30 2597 H 233.687 4.63585 -4.63432 0
M  V30 2598 H 233.207 5.1865 -3.01268 0
M  V30 2599 H 234.886 5.39685 -3.56859 0
M  V30 2600 N 235.018 0.912232 1.28515 0
M  V30 2601 C 235.948 0.416403 2.29757 0
M  V30 2602 C 236.929 -0.515194 1.6211 0
M  V30 2603 O 238.114 -0.423253 1.89532 0
M  V30 2604 C 235.244 -0.34572 3.45575 0
M  V30 2605 C 234.198 0.496599 4.25109 0
M  V30 2606 C 233.524 -0.393771 5.33248 0
M  V30 2607 C 234.824 1.75307 4.92001 0
M  V30 2608 H 236.518 1.26249 2.7148 0
M  V30 2609 H 234.064 0.608515 1.30511 0
M  V30 2610 H 236.017 -0.703422 4.15488 0
M  V30 2611 H 234.741 -1.2257 3.02728 0
M  V30 2612 H 233.4 0.8368 3.56922 0
M  V30 2613 H 233.048 -1.27225 4.86644 0
M  V30 2614 H 232.748 0.166209 5.87365 0
M  V30 2615 H 234.272 -0.747389 6.06009 0
M  V30 2616 H 235.686 1.46437 5.54283 0
M  V30 2617 H 234.083 2.25534 5.56106 0
M  V30 2618 H 235.153 2.48176 4.16577 0
M  V30 2619 N 236.496 -1.42363 0.676048 0
M  V30 2620 C 237.743 -2.01522 0.19883 0
M  V30 2621 C 238.071 -1.53456 -1.19505 0
M  V30 2622 O 237.326 -0.727967 -1.81657 0
M  V30 2623 C 237.625 -3.56929 0.183431 0
M  V30 2624 C 237.291 -4.24431 1.52215 0
M  V30 2625 C 235.953 -4.42585 1.8887 0
M  V30 2626 C 238.305 -4.62459 2.40377 0
M  V30 2627 C 235.633 -4.96039 3.13309 0
M  V30 2628 C 237.985 -5.17294 3.64129 0
M  V30 2629 C 236.649 -5.33661 4.00951 0
M  V30 2630 H 235.919 -0.737419 0.0727571 0
M  V30 2631 H 238.566 -1.70531 0.871281 0
M  V30 2632 H 236.871 -3.87594 -0.572532 0
M  V30 2633 H 238.568 -4.00486 -0.203035 0
M  V30 2634 H 235.158 -4.10661 1.22701 0
M  V30 2635 H 239.342 -4.48105 2.13343 0
M  V30 2636 H 234.598 -5.06896 3.41857 0
M  V30 2637 H 238.772 -5.45704 4.32644 0
M  V30 2638 H 236.399 -5.74845 4.9745 0
M  V30 2639 N 237.974 -0.419461 -1.51915 0
M  V30 2640 C 238.921 0.400927 -2.27291 0
M  V30 2641 C 239.891 1.03224 -1.30131 0
M  V30 2642 O 241.076 1.05455 -1.59009 0
M  V30 2643 C 238.216 1.50603 -3.10504 0
M  V30 2644 C 237.329 0.89462 -4.22635 0
M  V30 2645 C 236.464 1.97328 -4.93189 0
M  V30 2646 C 235.503 1.33935 -5.97267 0
M  V30 2647 N 234.64 2.3586 -6.61298 0
M  V30 2648 H 239.48 -0.248251 -2.96964 0
M  V30 2649 H 237.017 -0.134266 -1.46486 0
M  V30 2650 H 238.975 2.15783 -3.57062 0
M  V30 2651 H 237.605 2.12509 -2.42981 0
M  V30 2652 H 236.657 0.131583 -3.80172 0
M  V30 2653 H 237.969 0.391641 -4.9726 0
M  V30 2654 H 237.123 2.70211 -5.43204 0
M  V30 2655 H 235.862 2.50994 -4.18155 0
M  V30 2656 H 234.867 0.595896 -5.46561 0
M  V30 2657 H 236.092 0.810252 -6.74249 0
M  V30 2658 H 234.038 2.88639 -5.89087 0
M  V30 2659 H 233.955 1.90403 -7.3163 0
M  V30 2660 H 235.223 3.08282 -7.15949 0
M  V30 2661 N 239.452 1.56882 -0.150215 0
M  V30 2662 C 240.677 2.01027 0.510184 0
M  V30 2663 C 241.102 1.02966 1.57415 0
M  V30 2664 O 240.46 0.00590158 1.81299 0
M  V30 2665 C 240.508 3.43899 1.08472 0
M  V30 2666 O 239.612 3.4885 2.19948 0
M  V30 2667 H 238.953 0.652233 0.124451 0
M  V30 2668 H 241.483 2.03093 -0.247894 0
M  V30 2669 H 241.493 3.82766 1.41259 0
M  V30 2670 H 240.168 4.14776 0.305582 0
M  V30 2671 H 238.745 3.21827 1.88366 0
M  V30 2672 N 240.93 -0.123565 1.57115 0
M  V30 2673 C 242.179 -0.830704 1.83799 0
M  V30 2674 C 242.492 -1.81259 0.735158 0
M  V30 2675 O 243.698 -2.56558 0.888278 0
M  V30 2676 C 242.154 -1.52802 3.25852 0
M  V30 2677 C 241.762 -0.587356 4.44133 0
M  V30 2678 C 243.506 -2.22056 3.61789 0
M  V30 2679 C 241.413 -1.28764 5.77212 0
M  V30 2680 H 240.343 -0.313967 0.685522 0
M  V30 2681 H 242.994 -0.0834359 1.8331 0
M  V30 2682 H 241.376 -2.32175 3.20797 0
M  V30 2683 H 242.55 0.172829 4.60476 0
M  V30 2684 H 240.865 -0.00201892 4.164 0
M  V30 2685 H 243.462 -2.75131 4.58483 0
M  V30 2686 H 243.805 -2.99644 2.88997 0
M  V30 2687 H 244.338 -1.49576 3.68608 0
M  V30 2688 H 241.077 -0.55314 6.53162 0
M  V30 2689 H 240.597 -2.01995 5.64764 0
M  V30 2690 H 242.276 -1.8221 6.20813 0
M  V30 2691 N 242.408 -1.52605 -0.393616 0
M  V30 2692 C 243.655 -1.67424 -1.1391 0
M  V30 2693 C 243.983 -0.411859 -1.90089 0
M  V30 2694 O 243.238 0.605626 -1.86093 0
M  V30 2695 C 243.537 -2.85721 -2.14705 0
M  V30 2696 C 243.203 -4.23342 -1.55218 0
M  V30 2697 C 241.865 -4.60771 -1.3872 0
M  V30 2698 C 244.217 -5.09041 -1.11924 0
M  V30 2699 C 241.545 -5.81563 -0.774689 0
M  V30 2700 C 243.897 -6.30452 -0.520853 0
M  V30 2701 C 242.561 -6.66617 -0.343134 0
M  V30 2702 H 241.831 -0.612648 -0.416826 0
M  V30 2703 H 244.478 -1.8674 -0.424315 0
M  V30 2704 H 242.783 -2.60803 -2.92385 0
M  V30 2705 H 244.48 -2.94382 -2.72288 0
M  V30 2706 H 241.07 -3.93855 -1.69045 0
M  V30 2707 H 245.254 -4.80695 -1.23473 0
M  V30 2708 H 240.51 -6.08196 -0.625154 0
M  V30 2709 H 244.684 -6.96175 -0.177065 0
M  V30 2710 H 242.311 -7.60083 0.133571 0
M  V30 2711 N 243.887 0.651787 -1.4349 0
M  V30 2712 C 244.797 1.79368 -1.5121 0
M  V30 2713 C 245.813 1.69361 -0.399093 0
M  V30 2714 O 246.989 1.90505 -0.653431 0
M  V30 2715 C 244.054 3.15653 -1.43401 0
M  V30 2716 C 243.115 3.37446 -2.65384 0
M  V30 2717 C 242.348 4.67229 -2.57939 0
M  V30 2718 O 242.571 5.46676 -1.62792 0
M  V30 2719 O 241.505 4.90773 -3.48462 0
M  V30 2720 H 245.331 1.7581 -2.47638 0
M  V30 2721 H 242.916 0.810447 -1.25507 0
M  V30 2722 H 244.798 3.96935 -1.41494 0
M  V30 2723 H 243.473 3.19798 -0.501085 0
M  V30 2724 H 242.38 2.55923 -2.72863 0
M  V30 2725 H 243.713 3.38148 -3.57654 0
M  V30 2726 N 245.365 1.30045 0.890287 0
M  V30 2727 C 246.611 1.18737 1.64406 0
M  V30 2728 C 246.944 -0.258525 1.92472 0
M  V30 2729 O 246.219 -1.18562 1.54186 0
M  V30 2730 C 246.502 2.01087 2.98724 0
M  V30 2731 C 246.355 3.53867 2.77665 0
M  V30 2732 C 247.674 1.84457 3.9958 0
M  V30 2733 H 244.793 0.432698 0.596608 0
M  V30 2734 H 247.435 1.5962 1.0306 0
M  V30 2735 H 245.585 1.66349 3.51084 0
M  V30 2736 H 247.257 3.98637 2.32133 0
M  V30 2737 H 245.5 3.78318 2.12269 0
M  V30 2738 H 246.171 4.06772 3.7315 0
M  V30 2739 H 248.647 2.14817 3.56361 0
M  V30 2740 H 247.523 2.44411 4.91482 0
M  V30 2741 H 247.784 0.802276 4.3476 0
M  V30 2742 N 246.843 -1.10192 1.12674 0
M  V30 2743 C 247.806 -2.14786 0.799979 0
M  V30 2744 C 248.806 -1.59711 -0.18685 0
M  V30 2745 O 249.996 -1.74156 0.0392558 0
M  V30 2746 C 247.128 -3.40374 0.189228 0
M  V30 2747 H 248.321 -2.45203 1.72671 0
M  V30 2748 H 245.874 -1.25597 0.930326 0
M  V30 2749 H 246.609 -3.15577 -0.747107 0
M  V30 2750 H 246.394 -3.81637 0.899766 0
M  V30 2751 H 247.884 -4.17594 -0.0228143 0
M  V30 2752 N 248.321 -0.919034 -1.28029 0
M  V30 2753 C 249.568 -0.554934 -1.94748 0
M  V30 2754 C 249.896 0.90231 -1.72304 0
M  V30 2755 O 249.151 1.65767 -1.04018 0
M  V30 2756 C 249.45 -0.816855 -3.4794 0
M  V30 2757 C 249.116 -2.25448 -3.90492 0
M  V30 2758 C 247.778 -2.64752 -4.01821 0
M  V30 2759 C 250.13 -3.18977 -4.12193 0
M  V30 2760 C 247.458 -3.96727 -4.32232 0
M  V30 2761 C 249.81 -4.50523 -4.44086 0
M  V30 2762 C 248.474 -4.89673 -4.53626 0
M  V30 2763 H 247.744 -0.203065 -0.712633 0
M  V30 2764 H 250.391 -1.16136 -1.52265 0
M  V30 2765 H 248.696 -0.127677 -3.91592 0
M  V30 2766 H 250.393 -0.514238 -3.97689 0
M  V30 2767 H 246.983 -1.93952 -3.82205 0
M  V30 2768 H 251.167 -2.89817 -4.02889 0
M  V30 2769 H 246.423 -4.26754 -4.37825 0
M  V30 2770 H 250.597 -5.23005 -4.59825 0
M  V30 2771 H 248.224 -5.91969 -4.76946 0
M  V30 2772 N 249.799 1.42003 -0.683588 0
M  V30 2773 C 250.729 2.33487 -0.024866 0
M  V30 2774 C 251.71 1.51163 0.779975 0
M  V30 2775 O 252.895 1.79739 0.735362 0
M  V30 2776 C 250.025 3.3487 0.920836 0
M  V30 2777 C 248.979 4.27414 0.223958 0
M  V30 2778 C 248.305 5.19074 1.2832 0
M  V30 2779 C 249.605 5.14445 -0.90242 0
M  V30 2780 H 251.299 2.88819 -0.788921 0
M  V30 2781 H 248.845 1.38873 -0.38083 0
M  V30 2782 H 250.798 3.97787 1.39081 0
M  V30 2783 H 249.522 2.77861 1.71642 0
M  V30 2784 H 248.181 3.65904 -0.225864 0
M  V30 2785 H 247.829 4.58387 2.071 0
M  V30 2786 H 247.529 5.81822 0.821995 0
M  V30 2787 H 249.053 5.84867 1.75392 0
M  V30 2788 H 250.467 5.70998 -0.513272 0
M  V30 2789 H 248.864 5.86072 -1.28997 0
M  V30 2790 H 249.934 4.52322 -1.74737 0
M  V30 2791 N 251.277 0.427512 1.51691 0
M  V30 2792 C 252.207 -0.3796 2.30394 0
M  V30 2793 C 253.188 -1.02982 1.35384 0
M  V30 2794 O 254.373 -1.03534 1.643 0
M  V30 2795 C 251.503 -1.48649 3.1388 0
M  V30 2796 C 250.457 -0.960294 4.17088 0
M  V30 2797 C 249.783 -2.16219 4.89033 0
M  V30 2798 C 251.083 -0.00153679 5.223 0
M  V30 2799 H 252.777 0.277164 2.98114 0
M  V30 2800 H 250.323 0.134739 1.43368 0
M  V30 2801 H 252.276 -2.05826 3.67714 0
M  V30 2802 H 251 -2.1714 2.43962 0
M  V30 2803 H 249.659 -0.410806 3.64291 0
M  V30 2804 H 249.307 -2.83307 4.15628 0
M  V30 2805 H 249.007 -1.81654 5.58816 0
M  V30 2806 H 250.531 -2.73968 5.45687 0
M  V30 2807 H 251.945 -0.482687 5.71264 0
M  V30 2808 H 250.342 0.256199 5.99553 0
M  V30 2809 H 251.412 0.938174 4.75738 0
M  V30 2810 N 252.755 -1.56801 0.158532 0
M  V30 2811 C 254.004 -1.95665 -0.489702 0
M  V30 2812 C 254.317 -1.04654 -1.65248 0
M  V30 2813 O 255.523 -1.33146 -2.3661 0
M  V30 2814 C 253.979 -3.47874 -0.922582 0
M  V30 2815 C 253.587 -4.47489 0.213893 0
M  V30 2816 C 255.331 -3.95583 -1.53996 0
M  V30 2817 C 253.238 -5.90921 -0.237903 0
M  V30 2818 H 252.168 -0.730516 -0.186716 0
M  V30 2819 H 254.819 -1.81861 0.244722 0
M  V30 2820 H 253.201 -3.57051 -1.71261 0
M  V30 2821 H 254.375 -4.50017 0.991036 0
M  V30 2822 H 252.69 -4.09764 0.740407 0
M  V30 2823 H 255.287 -5.0019 -1.8898 0
M  V30 2824 H 255.63 -3.37789 -2.43319 0
M  V30 2825 H 256.163 -3.8937 -0.814611 0
M  V30 2826 H 252.902 -6.52559 0.620236 0
M  V30 2827 H 252.422 -5.91729 -0.980676 0
M  V30 2828 H 254.101 -6.43352 -0.686067 0
M  V30 2829 N 254.233 0.115231 -1.57178 0
M  V30 2830 C 255.165 1.16694 -1.97269 0
M  V30 2831 C 256.178 1.37445 -0.872502 0
M  V30 2832 O 257.367 1.36454 -1.15077 0
M  V30 2833 C 254.467 2.52627 -2.25905 0
M  V30 2834 C 253.64 2.52427 -3.57211 0
M  V30 2835 C 252.699 3.70134 -3.74016 0
M  V30 2836 O 251.725 3.53546 -4.46087 0
M  V30 2837 N 252.927 4.88844 -3.13068 0
M  V30 2838 H 255.692 0.82588 -2.88096 0
M  V30 2839 H 253.253 0.304461 -1.59011 0
M  V30 2840 H 255.245 3.29937 -2.34359 0
M  V30 2841 H 253.815 2.789 -1.41186 0
M  V30 2842 H 253.035 1.60805 -3.5991 0
M  V30 2843 H 254.323 2.49353 -4.43509 0
M  V30 2844 H 253.721 5.05225 -2.54489 0
M  V30 2845 H 252.278 5.63817 -3.27037 0
M  V30 2846 N 255.711 1.52812 0.385517 0
M  V30 2847 C 256.957 1.69225 1.12847 0
M  V30 2848 C 257.312 0.42864 1.87564 0
M  V30 2849 O 256.605 -0.57779 1.8268 0
M  V30 2850 C 256.799 2.86856 2.13187 0
M  V30 2851 C 256.628 4.24535 1.48325 0
M  V30 2852 C 255.398 4.89701 1.24585 0
M  V30 2853 C 257.596 5.05794 0.931501 0
M  V30 2854 N 255.578 6.11353 0.558644 0
M  V30 2855 C 256.949 6.1888 0.372552 0
M  V30 2856 C 259.004 4.90963 0.828248 0
M  V30 2857 C 257.707 7.18757 -0.279556 0
M  V30 2858 C 259.733 5.91095 0.189956 0
M  V30 2859 C 259.095 7.03489 -0.358207 0
M  V30 2860 H 255.194 0.67268 0.39878 0
M  V30 2861 H 257.778 1.9017 0.417528 0
M  V30 2862 H 255.949 2.67484 2.81614 0
M  V30 2863 H 257.681 2.92188 2.80014 0
M  V30 2864 H 254.436 4.48485 1.52178 0
M  V30 2865 H 254.86 6.76606 0.230983 0
M  V30 2866 H 259.502 4.04274 1.23784 0
M  V30 2867 H 257.22 8.05052 -0.701152 0
M  V30 2868 H 260.806 5.81694 0.111264 0
M  V30 2869 H 259.686 7.79642 -0.844314 0
M  V30 2870 N 257.189 -0.644168 1.43834 0
M  V30 2871 C 258.419 -1.42939 1.49171 0
M  V30 2872 C 258.827 -1.88874 0.111048 0
M  V30 2873 O 258.17 -1.60656 -0.8908 0
M  V30 2874 C 258.232 -2.69151 2.38324 0
M  V30 2875 C 257.896 -2.45097 3.85715 0
M  V30 2876 C 258.893 -2.07747 4.76589 0
M  V30 2877 C 256.578 -2.59141 4.30292 0
M  V30 2878 C 258.572 -1.8475 6.10038 0
M  V30 2879 C 256.259 -2.35759 5.63792 0
M  V30 2880 C 257.257 -1.9862 6.53482 0
M  V30 2881 O 256.945 -1.75489 7.84512 0
M  V30 2882 H 256.677 -0.445271 0.508635 0
M  V30 2883 H 259.231 -0.79621 1.8934 0
M  V30 2884 H 257.461 -3.3506 1.93058 0
M  V30 2885 H 259.15 -3.31123 2.3476 0
M  V30 2886 H 259.916 -1.96465 4.43426 0
M  V30 2887 H 255.795 -2.87022 3.60749 0
M  V30 2888 H 259.339 -1.55686 6.80006 0
M  V30 2889 H 255.236 -2.46646 5.9652 0
M  V30 2890 H 256.004 -1.89841 7.9618 0
M  V30 2891 N 258.668 -1.30515 -0.883378 0
M  V30 2892 C 259.917 -1.18795 -1.63005 0
M  V30 2893 C 260.23 0.255923 -1.93919 0
M  V30 2894 O 261.436 0.494654 -2.66956 0
M  V30 2895 C 259.892 -2.07878 -2.93794 0
M  V30 2896 C 259.5 -3.57184 -2.70414 0
M  V30 2897 C 261.244 -2.04924 -3.71761 0
M  V30 2898 C 259.151 -4.38317 -3.97029 0
M  V30 2899 H 258.081 -0.441031 -0.611562 0
M  V30 2900 H 260.732 -1.55275 -0.977854 0
M  V30 2901 H 259.114 -1.64283 -3.60315 0
M  V30 2902 H 260.288 -4.08937 -2.12384 0
M  V30 2903 H 258.603 -3.61976 -2.0582 0
M  V30 2904 H 261.2 -2.62792 -4.65665 0
M  V30 2905 H 261.543 -1.0331 -4.03277 0
M  V30 2906 H 262.076 -2.46649 -3.12104 0
M  V30 2907 H 258.815 -5.40632 -3.70671 0
M  V30 2908 H 258.335 -3.91326 -4.54559 0
M  V30 2909 H 260.014 -4.49834 -4.65036 0
M  V30 2910 N 260.146 1.09593 -1.13257 0
M  V30 2911 C 261.376 1.85231 -0.915049 0
M  V30 2912 C 261.784 1.81345 0.539498 0
M  V30 2913 O 261.127 1.20664 1.38513 0
M  V30 2914 C 261.189 3.34275 -1.3229 0
M  V30 2915 C 260.853 3.6191 -2.79052 0
M  V30 2916 C 261.85 3.57777 -3.77216 0
M  V30 2917 C 259.535 3.90309 -3.16171 0
M  V30 2918 C 261.529 3.81652 -5.1051 0
M  V30 2919 C 259.216 4.13839 -4.49644 0
M  V30 2920 C 260.214 4.09502 -5.46623 0
M  V30 2921 O 259.902 4.32426 -6.77689 0
M  V30 2922 H 259.634 0.591997 -0.326367 0
M  V30 2923 H 262.188 1.394 -1.50854 0
M  V30 2924 H 260.418 3.80805 -0.672667 0
M  V30 2925 H 262.107 3.9132 -1.07812 0
M  V30 2926 H 262.873 3.35865 -3.49885 0
M  V30 2927 H 258.752 3.92811 -2.41289 0
M  V30 2928 H 262.296 3.78182 -5.86195 0
M  V30 2929 H 258.193 4.35232 -4.767 0
M  V30 2930 H 258.961 4.49896 -6.83766 0
M  V30 2931 N 261.624 0.925811 1.2754 0
M  V30 2932 C 262.872 0.564138 1.94067 0
M  V30 2933 C 263.193 -0.897188 1.73134 0
M  V30 2934 O 262.463 -1.63573 1.07799 0
M  V30 2935 H 261.043 0.205645 0.718136 0
M  V30 2936 H 263.705 1.1778 1.55287 0
M  V30 2937 H 262.801 0.76881 3.02483 0
M  V30 2938 N 263.102 -1.41638 0.69111 0
M  V30 2939 C 264.349 -2.01299 0.220193 0
M  V30 2940 C 264.677 -1.54715 -1.17871 0
M  V30 2941 O 263.932 -0.747193 -1.80874 0
M  V30 2942 C 264.231 -3.56714 0.221277 0
M  V30 2943 C 263.897 -4.22792 1.56709 0
M  V30 2944 C 262.559 -4.40557 1.93554 0
M  V30 2945 C 264.911 -4.59883 2.45268 0
M  V30 2946 C 262.239 -4.92688 3.18552 0
M  V30 2947 C 264.591 -5.13403 3.69595 0
M  V30 2948 C 263.255 -5.29379 4.06589 0
M  V30 2949 H 262.525 -0.736606 0.0805743 0
M  V30 2950 H 265.172 -1.69598 0.889319 0
M  V30 2951 H 263.477 -3.8818 -0.531391 0
M  V30 2952 H 265.174 -4.00678 -0.160547 0
M  V30 2953 H 261.764 -4.09336 1.2705 0
M  V30 2954 H 265.948 -4.45817 2.18084 0
M  V30 2955 H 261.204 -5.03242 3.47214 0
M  V30 2956 H 265.378 -5.41084 4.38407 0
M  V30 2957 H 263.005 -5.69537 5.03519 0
M  V30 2958 N 264.58 -0.43555 -1.51462 0
M  V30 2959 C 265.805 0.132627 -2.06976 0
M  V30 2960 C 266.23 1.35848 -1.30104 0
M  V30 2961 O 265.588 1.78112 -0.338493 0
M  V30 2962 C 265.636 0.43523 -3.57964 0
M  V30 2963 O 264.74 1.52198 -3.83288 0
M  V30 2964 H 264.081 0.00265 -0.663995 0
M  V30 2965 H 266.611 -0.616369 -1.95095 0
M  V30 2966 H 266.621 0.686206 -4.02188 0
M  V30 2967 H 265.296 -0.460739 -4.1334 0
M  V30 2968 H 263.873 1.2611 -3.50928 0
M  V30 2969 N 266.058 1.56714 -0.166846 0
M  V30 2970 C 266.988 2.20754 0.760913 0
M  V30 2971 C 267.969 1.16178 1.24244 0
M  V30 2972 O 269.154 1.44592 1.29641 0
M  V30 2973 C 266.284 2.84478 1.99223 0
M  V30 2974 C 265.238 3.95053 1.64672 0
M  V30 2975 C 264.564 4.45805 2.95232 0
M  V30 2976 C 265.864 5.14865 0.878155 0
M  V30 2977 H 267.558 2.98537 0.22713 0
M  V30 2978 H 265.104 1.43596 0.107805 0
M  V30 2979 H 267.057 3.27951 2.64624 0
M  V30 2980 H 265.781 2.04056 2.55007 0
M  V30 2981 H 264.44 3.52228 1.01641 0
M  V30 2982 H 264.088 3.62181 3.49047 0
M  V30 2983 H 263.788 5.204 2.7287 0
M  V30 2984 H 265.312 4.91962 3.6167 0
M  V30 2985 H 266.726 5.55059 1.43466 0
M  V30 2986 H 265.123 5.95348 0.753738 0
M  V30 2987 H 266.193 4.84735 -0.126377 0
M  V30 2988 N 267.536 -0.106894 1.57237 0
M  V30 2989 C 268.761 -0.830287 1.90055 0
M  V30 2990 C 269.186 -1.72064 0.75998 0
M  V30 2991 O 268.544 -1.78982 -0.288991 0
M  V30 2992 C 268.592 -1.6295 3.21683 0
M  V30 2993 O 267.696 -2.73748 3.08441 0
M  V30 2994 H 267.037 -0.228855 0.623315 0
M  V30 2995 H 269.567 -0.085658 2.04421 0
M  V30 2996 H 269.577 -2.01621 3.54701 0
M  V30 2997 H 268.252 -0.975989 4.04286 0
M  V30 2998 H 266.829 -2.38192 2.86913 0
M  V30 2999 N 269.014 -1.53014 -0.377408 0
M  V30 3000 C 269.977 -1.77957 -1.44444 0
M  V30 3001 C 270.977 -0.649763 -1.47087 0
M  V30 3002 O 272.167 -0.917897 -1.48055 0
M  V30 3003 C 269.299 -1.89089 -2.83651 0
M  V30 3004 H 270.492 -2.73243 -1.23606 0
M  V30 3005 H 268.045 -1.43912 -0.609844 0
M  V30 3006 H 268.78 -0.958293 -3.09818 0
M  V30 3007 H 268.565 -2.71254 -2.83132 0
M  V30 3008 H 270.055 -2.1002 -3.60945 0
M  V30 3009 N 270.492 0.636531 -1.44174 0
M  V30 3010 C 271.738 1.39826 -1.4689 0
M  V30 3011 C 272.071 1.93947 -0.0990585 0
M  V30 3012 O 271.346 1.73325 0.882544 0
M  V30 3013 C 271.629 2.56751 -2.5249 0
M  V30 3014 C 271.482 2.08014 -3.98811 0
M  V30 3015 C 272.801 3.58946 -2.54649 0
M  V30 3016 H 269.92 0.507075 -0.53483 0
M  V30 3017 H 272.562 0.720188 -1.75822 0
M  V30 3018 H 270.712 3.14597 -2.2795 0
M  V30 3019 H 272.384 1.5504 -4.34466 0
M  V30 3020 H 270.627 1.39242 -4.10846 0
M  V30 3021 H 271.298 2.92169 -4.68339 0
M  V30 3022 H 273.774 3.1089 -2.76563 0
M  V30 3023 H 272.65 4.38286 -3.3045 0
M  V30 3024 H 272.911 4.12655 -1.58646 0
M  V30 3025 N 271.97 1.30982 0.876444 0
M  V30 3026 C 273.2 1.23063 1.65949 0
M  V30 3027 C 273.608 -0.207537 1.88058 0
M  V30 3028 O 272.951 -1.14781 1.43426 0
M  V30 3029 C 273.013 1.89768 3.05333 0
M  V30 3030 C 272.677 3.39106 3.0636 0
M  V30 3031 C 273.674 4.3496 2.84791 0
M  V30 3032 C 271.359 3.80693 3.27686 0
M  V30 3033 C 273.353 5.70375 2.84519 0
M  V30 3034 C 271.04 5.16223 3.27043 0
M  V30 3035 C 272.038 6.10875 3.05485 0
M  V30 3036 O 271.726 7.43928 3.04674 0
M  V30 3037 H 271.458 0.426685 0.524324 0
M  V30 3038 H 274.012 1.7329 1.10271 0
M  V30 3039 H 272.242 1.34082 3.6271 0
M  V30 3040 H 273.931 1.75853 3.65829 0
M  V30 3041 H 274.697 4.0416 2.68103 0
M  V30 3042 H 270.576 3.07457 3.43499 0
M  V30 3043 H 274.12 6.44228 2.67611 0
M  V30 3044 H 270.017 5.4666 3.43269 0
M  V30 3045 H 270.785 7.53022 3.2078 0
M  V30 3046 N 273.449 -1.08991 1.13837 0
M  V30 3047 C 274.677 -1.85011 0.926202 0
M  V30 3048 C 275.092 -1.8135 -0.525127 0
M  V30 3049 O 274.449 -1.21287 -1.36366 0
M  V30 3050 C 274.5 -3.32802 1.41155 0
M  V30 3051 O 274.221 -3.36444 2.80601 0
M  V30 3052 C 275.722 -4.25649 1.23847 0
M  V30 3053 H 272.942 -0.584249 0.32999 0
M  V30 3054 H 275.486 -1.37688 1.51202 0
M  V30 3055 H 273.641 -3.77536 0.868631 0
M  V30 3056 H 274.055 -4.28657 3.02248 0
M  V30 3057 H 275.529 -5.27485 1.62675 0
M  V30 3058 H 276.006 -4.38828 0.18065 0
M  V30 3059 H 276.612 -3.86735 1.76964 0
M  V30 3060 N 274.927 -0.932562 -1.27047 0
M  V30 3061 C 276.167 -0.582919 -1.95912 0
M  V30 3062 C 276.531 0.860629 -1.71631 0
M  V30 3063 O 277.732 1.31878 -2.34225 0
M  V30 3064 C 276.003 -0.905673 -3.45734 0
M  V30 3065 S 277.562 -0.665277 -4.33727 0
M  V30 3066 H 274.38 -0.215 -0.677714 0
M  V30 3067 H 276.982 -1.20204 -1.54179 0
M  V30 3068 H 275.686 -1.95386 -3.60905 0
M  V30 3069 H 275.217 -0.275939 -3.92431 0
M  V30 3070 H 277.232 0.474635 -4.93925 0
M  V30 3071 N 276.405 1.4127 -0.698611 0
M  V30 3072 C 277.352 2.30773 -0.0352094 0
M  V30 3073 C 278.322 1.47273 0.768111 0
M  V30 3074 O 279.507 1.76053 0.735524 0
M  V30 3075 C 276.647 3.33346 0.893 0
M  V30 3076 C 275.76 4.31924 0.0809695 0
M  V30 3077 C 274.895 5.21566 1.0071 0
M  V30 3078 C 273.934 6.11811 0.188155 0
M  V30 3079 N 273.071 6.93926 1.06825 0
M  V30 3080 H 277.911 2.86943 -0.804207 0
M  V30 3081 H 275.448 1.4132 -0.408294 0
M  V30 3082 H 277.406 3.91368 1.44523 0
M  V30 3083 H 276.036 2.78719 1.62836 0
M  V30 3084 H 275.088 3.75825 -0.588224 0
M  V30 3085 H 276.4 4.95716 -0.553801 0
M  V30 3086 H 275.554 5.84437 1.62845 0
M  V30 3087 H 274.293 4.58008 1.67572 0
M  V30 3088 H 273.298 5.47986 -0.446254 0
M  V30 3089 H 274.523 6.77425 -0.476716 0
M  V30 3090 H 272.469 6.32973 1.72283 0
M  V30 3091 H 272.386 7.54416 0.489123 0
M  V30 3092 H 273.654 7.61262 1.67632 0
M  V30 3093 N 277.883 0.443576 1.51229 0
M  V30 3094 C 279.299 0.0962001 1.5931 0
M  V30 3095 C 279.499 -1.39501 1.45402 0
M  V30 3096 O 278.555 -2.16557 1.29843 0
M  V30 3097 C 279.868 0.621875 2.94199 0
M  V30 3098 C 281.416 0.582865 3.07525 0
M  V30 3099 C 281.891 1.08562 4.44948 0
M  V30 3100 N 283.382 1.04387 4.51284 0
M  V30 3101 C 284.117 1.40368 5.55954 0
M  V30 3102 N 283.613 1.83664 6.68011 0
M  V30 3103 N 285.406 1.32145 5.46346 0
M  V30 3104 H 277.557 1.41376 1.58514 0
M  V30 3105 H 279.82 0.582965 0.747567 0
M  V30 3106 H 279.526 1.66546 3.09767 0
M  V30 3107 H 279.4 0.0502125 3.77167 0
M  V30 3108 H 281.787 -0.451749 2.91622 0
M  V30 3109 H 281.868 1.191 2.26382 0
M  V30 3110 H 281.512 2.11873 4.61598 0
M  V30 3111 H 281.442 0.453956 5.2464 0
M  V30 3112 H 283.933 0.725986 3.70861 0
M  V30 3113 H 284.246 2.0934 7.43906 0
M  V30 3114 H 282.591 1.87596 6.69203 0
M  V30 3115 H 285.782 0.981808 4.57688 0
M  V30 3116 H 285.955 1.60514 6.27805 0
M  V30 3117 N 279.361 -1.56624 0.175154 0
M  V30 3118 C 280.638 -1.88688 -0.515373 0
M  V30 3119 C 281.018 -1.08564 -1.81044 0
M  V30 3120 O 280.366 -0.180703 -2.27784 0
M  V30 3121 C 280.576 -3.40768 -0.753552 0
M  V30 3122 C 281.924 -4.10587 -1.08184 0
M  V30 3123 O 282.948 -3.46106 -0.841961 0
M  V30 3124 O 281.807 -5.24512 -1.53459 0
M  V30 3125 H 278.901 -0.78301 -0.26613 0
M  V30 3126 H 281.447 -1.68347 0.213877 0
M  V30 3127 H 280.219 -3.90965 0.161829 0
M  V30 3128 H 279.842 -3.66733 -1.53598 0
M  V30 3129 N 280.839 0.0985539 -1.57292 0
M  V30 3130 C 282.25 0.653457 -1.74891 0
M  V30 3131 C 282.601 1.7929 -0.796838 0
M  V30 3132 O 281.726 2.16385 0.0254886 0
M  V30 3133 C 282.321 1.19216 -3.17133 0
M  V30 3134 C 280.88 1.69316 -3.36168 0
M  V30 3135 C 280.027 0.601294 -2.70702 0
M  V30 3136 H 282.978 -0.127497 -1.58187 0
M  V30 3137 H 282.999 2.06154 -3.19814 0
M  V30 3138 H 282.511 0.362635 -3.86402 0
M  V30 3139 H 280.612 2.5468 -2.71972 0
M  V30 3140 H 280.725 1.78853 -4.44464 0
M  V30 3141 H 279.089 1.0399 -2.32504 0
M  V30 3142 H 279.872 -0.217592 -3.4261 0
M  V30 3143 N 282.317 1.53212 0.369288 0
M  V30 3144 C 283.557 1.70915 1.12105 0
M  V30 3145 C 283.921 0.449444 1.86665 0
M  V30 3146 O 285.122 0.503105 2.6405 0
M  V30 3147 C 283.393 2.9222 2.05772 0
M  V30 3148 S 284.952 3.30609 2.88519 0
M  V30 3149 H 281.77 0.601445 0.379189 0
M  V30 3150 H 284.372 1.91306 0.402794 0
M  V30 3151 H 283.076 3.82103 1.49752 0
M  V30 3152 H 282.607 2.7422 2.82076 0
M  V30 3153 H 284.622 2.82333 4.08047 0
M  V30 3154 N 283.795 -0.628877 1.44509 0
M  V30 3155 C 285.206 -1.21054 1.42137 0
M  V30 3156 C 285.557 -1.95715 0.137881 0
M  V30 3157 O 284.682 -2.02554 -0.761645 0
M  V30 3158 C 285.277 -2.20189 2.57493 0
M  V30 3159 C 283.836 -2.73777 2.58308 0
M  V30 3160 C 282.983 -1.48813 2.33987 0
M  V30 3161 H 285.934 -0.41942 1.53057 0
M  V30 3162 H 285.955 -3.02833 2.30375 0
M  V30 3163 H 285.467 -1.6582 3.50892 0
M  V30 3164 H 283.568 -3.32142 1.68856 0
M  V30 3165 H 283.681 -3.19662 3.56865 0
M  V30 3166 H 282.045 -1.77024 1.83124 0
M  V30 3167 H 282.828 -0.963442 3.29504 0
M  V30 3168 N 285.273 -1.31445 -0.869486 0
M  V30 3169 C 286.223 -1.15731 -1.96444 0
M  V30 3170 C 287.207 -0.0681855 -1.60755 0
M  V30 3171 O 288.399 -0.293154 -1.74555 0
M  V30 3172 C 285.528 -0.867255 -3.32165 0
M  V30 3173 C 284.614 -1.99738 -3.74119 0
M  V30 3174 N 285.005 -3.24447 -3.88031 0
M  V30 3175 C 283.303 -1.89723 -4.03635 0
M  V30 3176 C 284.004 -3.98374 -4.23879 0
M  V30 3177 N 282.98 -3.26547 -4.3459 0
M  V30 3178 H 286.782 -2.10296 -2.05312 0
M  V30 3179 H 284.296 -1.23009 -1.06031 0
M  V30 3180 H 286.293 -0.735668 -4.10358 0
M  V30 3181 H 284.953 0.0701614 -3.24624 0
M  V30 3182 H 285.964 -3.59557 -3.72746 0
M  V30 3183 H 282.641 -1.03449 -4.04481 0
M  V30 3184 H 284.031 -5.05844 -4.42235 0
M  V30 3185 N 286.751 1.08385 -1.14413 0
M  V30 3186 C 287.683 2.1519 -0.789036 0
M  V30 3187 C 288.696 1.61638 0.19417 0
M  V30 3188 O 289.885 1.78479 -0.0275711 0
M  V30 3189 C 286.985 3.38565 -0.15058 0
M  V30 3190 C 286.158 4.21501 -1.16857 0
M  V30 3191 C 285.217 5.23277 -0.553832 0
M  V30 3192 O 284.243 5.56041 -1.21686 0
M  V30 3193 N 285.445 5.76629 0.669296 0
M  V30 3194 H 288.21 2.46257 -1.70814 0
M  V30 3195 H 285.771 1.24198 -1.03858 0
M  V30 3196 H 287.763 4.03777 0.273181 0
M  V30 3197 H 286.333 3.05299 0.671667 0
M  V30 3198 H 285.553 3.52265 -1.76926 0
M  V30 3199 H 286.841 4.73731 -1.85624 0
M  V30 3200 H 286.239 5.52243 1.22654 0
M  V30 3201 H 284.796 6.43521 1.03556 0
M  V30 3202 N 288.23 0.939286 1.26551 0
M  V30 3203 C 289.476 0.586715 1.94128 0
M  V30 3204 C 289.809 -0.8717 1.73537 0
M  V30 3205 O 289.084 -1.62339 1.07127 0
M  V30 3206 C 289.367 0.927497 3.4795 0
M  V30 3207 C 289.22 2.44052 3.77834 0
M  V30 3208 C 290.539 0.441569 4.37879 0
M  V30 3209 H 287.658 0.21463 0.705055 0
M  V30 3210 H 290.3 1.17316 1.49455 0
M  V30 3211 H 288.45 0.428431 3.8613 0
M  V30 3212 H 290.122 3.01216 3.4938 0
M  V30 3213 H 288.365 2.8848 3.23978 0
M  V30 3214 H 289.036 2.62947 4.85348 0
M  V30 3215 H 291.512 0.869448 4.06915 0
M  V30 3216 H 290.388 0.708856 5.44304 0
M  V30 3217 H 290.649 -0.658467 4.37169 0
M  V30 3218 N 289.708 -1.40897 0.706093 0
M  V30 3219 C 290.985 -1.94868 0.169099 0
M  V30 3220 C 291.365 -1.64485 -1.32318 0
M  V30 3221 O 290.713 -0.95744 -2.07474 0
M  V30 3222 C 290.923 -3.45798 0.471654 0
M  V30 3223 C 292.271 -4.22663 0.405127 0
M  V30 3224 O 293.295 -3.53865 0.407168 0
M  V30 3225 O 292.154 -5.45216 0.374383 0
M  V30 3226 H 289.248 -0.82673 0.0211352 0
M  V30 3227 H 291.794 -1.50558 0.782976 0
M  V30 3228 H 290.566 -3.61235 1.50416 0
M  V30 3229 H 290.189 -3.97225 -0.172666 0
M  V30 3230 N 291.186 -0.45159 -1.50991 0
M  V30 3231 C 292.426 0.109066 -2.04109 0
M  V30 3232 C 292.79 1.38716 -1.32747 0
M  V30 3233 O 293.991 2.02896 -1.76314 0
M  V30 3234 C 292.262 0.308354 -3.56067 0
M  V30 3235 S 293.821 0.830369 -4.30872 0
M  V30 3236 H 290.639 0.0251531 -0.710555 0
M  V30 3237 H 293.241 -0.614264 -1.85599 0
M  V30 3238 H 291.945 -0.627962 -4.05567 0
M  V30 3239 H 291.476 1.05836 -3.78896 0
M  V30 3240 H 293.491 2.10626 -4.49279 0
M  V30 3241 N 292.664 1.56529 -0.183458 0
M  V30 3242 C 293.911 1.97244 0.458357 0
M  V30 3243 C 294.239 1.06992 1.62428 0
M  V30 3244 O 293.494 0.106542 1.9541 0
M  V30 3245 C 293.793 3.43939 0.971637 0
M  V30 3246 C 293.459 4.5083 -0.0796784 0
M  V30 3247 C 292.121 4.79786 -0.368584 0
M  V30 3248 C 294.473 5.15138 -0.792638 0
M  V30 3249 C 291.801 5.70345 -1.37563 0
M  V30 3250 C 294.153 6.06784 -1.78875 0
M  V30 3251 C 292.817 6.34102 -2.08497 0
M  V30 3252 H 292.087 0.721768 0.167725 0
M  V30 3253 H 294.734 1.89472 -0.277976 0
M  V30 3254 H 293.039 3.48724 1.78602 0
M  V30 3255 H 294.736 3.72791 1.47744 0
M  V30 3256 H 291.326 4.28317 0.155668 0
M  V30 3257 H 295.51 4.92868 -0.582659 0
M  V30 3258 H 290.766 5.89789 -1.61118 0
M  V30 3259 H 294.94 6.55677 -2.3465 0
M  V30 3260 H 292.567 7.04074 -2.86678 0
M  V30 3261 N 294.142 -0.090211 1.57342 0
M  V30 3262 C 295.072 -1.10976 2.05443 0
M  V30 3263 C 296.053 -1.41482 0.944284 0
M  V30 3264 O 297.238 -1.51428 1.21586 0
M  V30 3265 C 294.368 -2.42831 2.48295 0
M  V30 3266 C 293.322 -2.26721 3.63018 0
M  V30 3267 C 292.648 -3.63796 3.91863 0
M  V30 3268 C 293.948 -1.7037 4.93732 0
M  V30 3269 H 295.642 -0.709564 2.9087 0
M  V30 3270 H 293.188 -0.339874 1.39932 0
M  V30 3271 H 295.141 -3.14431 2.80555 0
M  V30 3272 H 293.865 -2.84795 1.59873 0
M  V30 3273 H 292.524 -1.57565 3.31012 0
M  V30 3274 H 292.172 -4.03297 3.00601 0
M  V30 3275 H 291.872 -3.53861 4.69101 0
M  V30 3276 H 293.396 -4.36855 4.26603 0
M  V30 3277 H 294.81 -2.31816 5.24342 0
M  V30 3278 H 293.207 -1.71181 5.75167 0
M  V30 3279 H 294.277 -0.663542 4.80339 0
M  V30 3280 N 295.62 -1.53406 -0.361157 0
M  V30 3281 C 296.845 -1.74024 -1.12829 0
M  V30 3282 C 297.27 -0.470069 -1.82132 0
M  V30 3283 O 296.628 0.57619 -1.719 0
M  V30 3284 C 296.676 -2.90903 -2.13091 0
M  V30 3285 O 295.78 -2.59821 -3.20261 0
M  V30 3286 H 295.121 -0.577804 -0.327168 0
M  V30 3287 H 297.651 -2.00307 -0.41693 0
M  V30 3288 H 297.661 -3.17194 -2.56616 0
M  V30 3289 H 296.336 -3.83034 -1.62042 0
M  V30 3290 H 294.913 -2.44362 -2.81677 0
M  V30 3291 N 297.098 0.621204 -1.44841 0
M  V30 3292 C 298.514 0.94048 -1.28946 0
M  V30 3293 C 298.714 2.00154 -0.23249 0
M  V30 3294 O 297.77 2.49651 0.378237 0
M  V30 3295 C 299.083 1.39433 -2.66419 0
M  V30 3296 C 300.631 1.50927 -2.74208 0
M  V30 3297 C 301.106 1.99692 -4.12174 0
M  V30 3298 N 302.597 2.06947 -4.144 0
M  V30 3299 C 303.332 2.45871 -5.1801 0
M  V30 3300 N 302.828 2.83862 -6.31977 0
M  V30 3301 N 304.621 2.46092 -5.05366 0
M  V30 3302 H 296.772 -0.0803548 -2.12248 0
M  V30 3303 H 299.035 0.0266913 -0.947624 0
M  V30 3304 H 298.741 0.688925 -3.44887 0
M  V30 3305 H 298.615 2.36347 -2.93973 0
M  V30 3306 H 301.002 2.20561 -1.96053 0
M  V30 3307 H 301.083 0.523627 -2.50383 0
M  V30 3308 H 300.727 1.30649 -4.90809 0
M  V30 3309 H 300.657 2.99146 -4.33381 0
M  V30 3310 H 303.148 1.80232 -3.32152 0
M  V30 3311 H 303.461 3.12405 -7.0684 0
M  V30 3312 H 301.806 2.8159 -6.35399 0
M  V30 3313 H 304.997 2.1581 -4.15384 0
M  V30 3314 H 305.17 2.76102 -5.86235 0
M  V30 3315 N 298.576 1.31904 0.862503 0
M  V30 3316 C 299.987 1.19803 1.43193 0
M  V30 3317 C 300.338 -0.192567 1.95253 0
M  V30 3318 O 299.463 -1.09081 1.86896 0
M  V30 3319 C 300.058 2.16883 2.60283 0
M  V30 3320 C 298.617 2.08692 3.13248 0
M  V30 3321 C 297.764 2.05691 1.85975 0
M  V30 3322 H 300.715 1.43846 0.670365 0
M  V30 3323 H 300.736 1.76278 3.37204 0
M  V30 3324 H 300.248 3.18083 2.22363 0
M  V30 3325 H 298.349 1.10713 3.55771 0
M  V30 3326 H 298.462 2.9815 3.75025 0
M  V30 3327 H 296.826 1.50814 2.05249 0
M  V30 3328 H 297.609 3.08659 1.50282 0
M  V30 3329 N 300.054 -1.07777 1.14986 0
M  V30 3330 C 301.282 -1.84018 0.945773 0
M  V30 3331 C 301.697 -1.81897 -0.505863 0
M  V30 3332 O 301.054 -1.22726 -1.35072 0
M  V30 3333 C 301.105 -3.31287 1.44677 0
M  V30 3334 O 300.826 -3.33449 2.84154 0
M  V30 3335 C 302.327 -4.24311 1.28355 0
M  V30 3336 H 299.547 -0.580716 0.336169 0
M  V30 3337 H 302.091 -1.36077 1.52654 0
M  V30 3338 H 300.246 -3.76594 0.908625 0
M  V30 3339 H 300.66 -4.25427 3.06777 0
M  V30 3340 H 302.134 -5.2573 1.68261 0
M  V30 3341 H 302.611 -4.38612 0.227184 0
M  V30 3342 H 303.217 -3.84836 1.81056 0
M  V30 3343 N 301.532 -0.945985 -1.26051 0
M  V30 3344 C 302.442 -0.465633 -2.29933 0
M  V30 3345 C 303.458 0.462761 -1.67733 0
M  V30 3346 O 304.634 0.341118 -1.9849 0
M  V30 3347 C 301.699 0.256994 -3.45746 0
M  V30 3348 C 300.76 -0.708549 -4.23412 0
M  V30 3349 C 299.993 -0.0203135 -5.33696 0
M  V30 3350 O 300.216 1.19571 -5.57726 0
M  V30 3351 O 299.15 -0.701459 -5.97799 0
M  V30 3352 H 302.976 -1.32866 -2.73094 0
M  V30 3353 H 300.561 -0.712071 -1.31339 0
M  V30 3354 H 302.443 0.663852 -4.16138 0
M  V30 3355 H 301.118 1.09533 -3.04605 0
M  V30 3356 H 300.025 -1.16545 -3.55483 0
M  V30 3357 H 301.358 -1.51465 -4.68315 0
M  V30 3358 N 303.011 1.40521 -0.713556 0
M  V30 3359 C 303.958 2.30723 -0.059684 0
M  V30 3360 C 304.928 1.48079 0.752448 0
M  V30 3361 O 306.113 1.76823 0.71681 0
M  V30 3362 C 303.253 3.34274 0.857594 0
M  V30 3363 C 302.366 4.31986 0.0351536 0
M  V30 3364 C 301.501 5.22605 0.951724 0
M  V30 3365 C 300.54 6.11976 0.123253 0
M  V30 3366 N 299.677 6.9502 0.99459 0
M  V30 3367 H 304.517 2.86074 -0.834596 0
M  V30 3368 H 302.054 1.40879 -0.42326 0
M  V30 3369 H 304.012 3.92879 1.40364 0
M  V30 3370 H 302.642 2.8043 1.59871 0
M  V30 3371 H 301.694 3.7518 -0.628052 0
M  V30 3372 H 303.006 4.95101 -0.606347 0
M  V30 3373 H 302.16 5.86131 1.56638 0
M  V30 3374 H 300.899 4.59759 1.62705 0
M  V30 3375 H 299.904 5.47482 -0.50435 0
M  V30 3376 H 301.129 6.76881 -0.548539 0
M  V30 3377 H 299.075 6.34764 1.6556 0
M  V30 3378 H 298.992 7.54892 0.40908 0
M  V30 3379 H 300.26 7.62997 1.59549 0
M  V30 3380 N 304.489 0.459591 1.5075 0
M  V30 3381 C 305.717 -0.0973749 2.06671 0
M  V30 3382 C 306.132 -1.34524 1.32472 0
M  V30 3383 O 305.489 -1.7827 0.390634 0
M  V30 3384 C 305.54 -0.39714 3.59312 0
M  V30 3385 O 305.261 0.801214 4.30711 0
M  V30 3386 C 306.762 -1.00234 4.31819 0
M  V30 3387 H 303.982 0.00195854 0.670997 0
M  V30 3388 H 306.526 0.645072 1.94059 0
M  V30 3389 H 304.681 -1.08951 3.71764 0
M  V30 3390 H 305.095 0.538857 5.21725 0
M  V30 3391 H 306.569 -1.16193 5.39632 0
M  V30 3392 H 307.046 -1.98939 3.91561 0
M  V30 3393 H 307.652 -0.348699 4.23868 0
M  V30 3394 N 305.967 -1.56429 0.191757 0
M  V30 3395 C 307.216 -1.9666 -0.448088 0
M  V30 3396 C 307.529 -1.08136 -1.62991 0
M  V30 3397 O 308.735 -1.38135 -2.33733 0
M  V30 3398 C 307.191 -3.49753 -0.848585 0
M  V30 3399 C 306.799 -4.46935 0.308764 0
M  V30 3400 C 308.543 -3.9876 -1.4557 0
M  V30 3401 C 306.45 -5.91293 -0.112506 0
M  V30 3402 H 305.38 -0.734312 -0.171179 0
M  V30 3403 H 308.031 -1.81301 0.283242 0
M  V30 3404 H 306.413 -3.60604 -1.63649 0
M  V30 3405 H 307.587 -4.47813 1.08627 0
M  V30 3406 H 305.902 -4.08102 0.827158 0
M  V30 3407 H 308.499 -5.04086 -1.78328 0
M  V30 3408 H 308.842 -3.42875 -2.36099 0
M  V30 3409 H 309.375 -3.9101 -0.731836 0
M  V30 3410 H 306.114 -6.51097 0.758514 0
M  V30 3411 H 305.634 -5.93676 -0.854941 0
M  V30 3412 H 307.313 -6.44663 -0.549448 0
M  V30 3413 N 307.445 0.0818655 -1.57387 0
M  V30 3414 C 308.692 0.782914 -1.86753 0
M  V30 3415 C 309.02 1.78082 -0.782118 0
M  V30 3416 O 308.275 1.94426 0.22295 0
M  V30 3417 C 308.574 1.53513 -3.22752 0
M  V30 3418 C 308.24 0.678134 -4.45771 0
M  V30 3419 C 306.902 0.441929 -4.79166 0
M  V30 3420 C 309.254 0.0832243 -5.21134 0
M  V30 3421 C 306.582 -0.398833 -5.85343 0
M  V30 3422 C 308.934 -0.744935 -6.28199 0
M  V30 3423 C 307.598 -0.991107 -6.60101 0
M  V30 3424 H 306.868 0.286489 -0.683378 0
M  V30 3425 H 309.515 0.0439808 -1.91449 0
M  V30 3426 H 307.82 2.34599 -3.138 0
M  V30 3427 H 309.517 2.08218 -3.42705 0
M  V30 3428 H 306.107 0.872357 -4.19628 0
M  V30 3429 H 310.291 0.252847 -4.95655 0
M  V30 3430 H 305.547 -0.598405 -6.08465 0
M  V30 3431 H 309.721 -1.21271 -6.8576 0
M  V30 3432 H 307.348 -1.64437 -7.42202 0
M  V30 3433 N 308.923 1.53595 0.353017 0
M  V30 3434 C 310.172 1.69603 1.09168 0
M  V30 3435 C 310.485 0.460925 1.90092 0
M  V30 3436 O 311.691 0.501774 2.66823 0
M  V30 3437 C 310.147 2.99872 1.9901 0
M  V30 3438 C 309.755 4.30687 1.23339 0
M  V30 3439 C 311.499 3.25246 2.72792 0
M  V30 3440 C 309.406 5.52036 2.12156 0
M  V30 3441 H 308.336 0.631966 0.411261 0
M  V30 3442 H 310.987 1.80096 0.351802 0
M  V30 3443 H 309.369 2.83212 2.7678 0
M  V30 3444 H 310.543 4.58019 0.505456 0
M  V30 3445 H 308.858 4.11853 0.613663 0
M  V30 3446 H 311.455 4.13095 3.39495 0
M  V30 3447 H 311.798 2.41846 3.38846 0
M  V30 3448 H 312.331 3.42638 2.021 0
M  V30 3449 H 309.07 6.37951 1.50659 0
M  V30 3450 H 308.59 5.28966 2.82764 0
M  V30 3451 H 310.269 5.87313 2.71427 0
M  V30 3452 N 310.401 -0.613514 1.45168 0
M  V30 3453 C 311.65 -1.36874 1.4815 0
M  V30 3454 C 311.963 -1.952 0.124982 0
M  V30 3455 O 313.169 -2.71481 0.0324176 0
M  V30 3456 C 311.625 -2.47905 2.60904 0
M  V30 3457 C 311.233 -1.96016 4.02842 0
M  V30 3458 C 312.977 -3.24965 2.73126 0
M  V30 3459 C 310.884 -3.04494 5.06988 0
M  V30 3460 H 309.814 -0.514428 0.551253 0
M  V30 3461 H 312.465 -0.658182 1.7129 0
M  V30 3462 H 310.847 -3.21618 2.31037 0
M  V30 3463 H 312.021 -1.29051 4.4236 0
M  V30 3464 H 310.336 -1.31719 3.95018 0
M  V30 3465 H 312.933 -4.05865 3.48106 0
M  V30 3466 H 313.276 -3.75588 1.79553 0
M  V30 3467 H 313.809 -2.5835 3.0249 0
M  V30 3468 H 310.548 -2.58795 6.0225 0
M  V30 3469 H 310.068 -3.70044 4.72046 0
M  V30 3470 H 311.747 -3.68976 5.31475 0
M  V30 3471 N 311.879 -1.3236 -0.855495 0
M  V30 3472 C 313.126 -1.22872 -1.60962 0
M  V30 3473 C 313.454 0.209658 -1.93367 0
M  V30 3474 O 312.709 1.16243 -1.57436 0
M  V30 3475 C 313.008 -2.03275 -2.93963 0
M  V30 3476 C 312.674 -3.5264 -2.80991 0
M  V30 3477 C 311.336 -3.93364 -2.7716 0
M  V30 3478 C 313.688 -4.47626 -2.66983 0
M  V30 3479 C 311.016 -5.27319 -2.572 0
M  V30 3480 C 313.368 -5.81723 -2.48558 0
M  V30 3481 C 312.032 -6.2165 -2.4312 0
M  V30 3482 H 311.302 -0.44962 -0.589001 0
M  V30 3483 H 313.949 -1.63777 -0.992442 0
M  V30 3484 H 312.254 -1.55095 -3.59795 0
M  V30 3485 H 313.951 -1.93303 -3.51333 0
M  V30 3486 H 310.541 -3.20295 -2.84797 0
M  V30 3487 H 314.725 -4.17084 -2.68988 0
M  V30 3488 H 309.981 -5.57311 -2.51424 0
M  V30 3489 H 314.155 -6.5494 -2.36699 0
M  V30 3490 H 311.782 -7.25388 -2.27412 0
M  V30 3491 N 313.357 1.07166 -1.15556 0
M  V30 3492 C 314.29 2.13808 -0.797593 0
M  V30 3493 C 315.268 1.6101 0.226812 0
M  V30 3494 O 316.452 1.88161 0.112932 0
M  V30 3495 C 313.579 3.38187 -0.186371 0
M  V30 3496 C 312.625 4.09766 -1.18297 0
M  V30 3497 S 313.458 4.60932 -2.72584 0
M  V30 3498 C 314.614 5.88583 -2.12886 0
M  V30 3499 H 314.847 2.43843 -1.70083 0
M  V30 3500 H 312.38 1.19467 -0.978106 0
M  V30 3501 H 314.338 4.10189 0.159837 0
M  V30 3502 H 312.999 3.06326 0.694489 0
M  V30 3503 H 312.192 4.99065 -0.703562 0
M  V30 3504 H 311.794 3.43736 -1.47381 0
M  V30 3505 H 314.086 6.60866 -1.49208 0
M  V30 3506 H 315.029 6.41241 -3.0036 0
M  V30 3507 H 315.437 5.42194 -1.57116 0
M  V30 3508 N 314.835 0.952656 1.25548 0
M  V30 3509 C 315.765 0.489287 2.28316 0
M  V30 3510 C 316.746 -0.463359 1.63667 0
M  V30 3511 O 317.931 -0.36274 1.90782 0
M  V30 3512 C 315.061 -0.235603 3.465 0
M  V30 3513 C 314.015 0.631593 4.23314 0
M  V30 3514 C 313.341 -0.223923 5.34231 0
M  V30 3515 C 314.641 1.90871 4.86174 0
M  V30 3516 H 316.335 1.34822 2.67326 0
M  V30 3517 H 313.881 0.649728 1.28509 0
M  V30 3518 H 315.834 -0.570882 4.17515 0
M  V30 3519 H 314.558 -1.12877 3.06474 0
M  V30 3520 H 313.217 0.949929 3.54079 0
M  V30 3521 H 312.865 -1.11678 4.90446 0
M  V30 3522 H 312.565 0.35299 5.86539 0
M  V30 3523 H 314.089 -0.554214 6.0808 0
M  V30 3524 H 315.503 1.63997 5.49343 0
M  V30 3525 H 313.9 2.43112 5.4865 0
M  V30 3526 H 314.97 2.61304 4.08471 0
M  V30 3527 N 316.313 -1.40141 0.720998 0
M  V30 3528 C 317.559 -2.01084 0.263231 0
M  V30 3529 C 317.892 -1.57052 -1.14229 0
M  V30 3530 O 317.167 -0.793027 -1.77599 0
M  V30 3531 C 317.45 -3.58401 0.349344 0
M  V30 3532 C 317.303 -4.12491 1.79363 0
M  V30 3533 C 318.622 -4.39231 -0.276351 0
M  V30 3534 H 315.741 -0.730572 0.0971228 0
M  V30 3535 H 318.383 -1.66543 0.914518 0
M  V30 3536 H 316.533 -3.87958 -0.205165 0
M  V30 3537 H 318.205 -3.93711 2.40394 0
M  V30 3538 H 316.448 -3.66576 2.31958 0
M  V30 3539 H 317.119 -5.21646 1.80524 0
M  V30 3540 H 319.595 -4.15637 0.196184 0
M  V30 3541 H 318.471 -5.48586 -0.185681 0
M  V30 3542 H 318.732 -4.20643 -1.36059 0
M  V30 3543 N 317.792 -0.46758 -1.50504 0
M  V30 3544 C 319.038 0.0887532 -2.02606 0
M  V30 3545 C 319.371 1.39686 -1.34913 0
M  V30 3546 O 318.646 1.88644 -0.473694 0
M  V30 3547 C 318.929 0.276206 -3.59039 0
M  V30 3548 C 318.782 -1.05267 -4.37309 0
M  V30 3549 C 320.101 1.03235 -4.27821 0
M  V30 3550 H 317.22 0.0307814 -0.736357 0
M  V30 3551 H 319.862 -0.612485 -1.79857 0
M  V30 3552 H 318.012 0.8735 -3.78553 0
M  V30 3553 H 319.684 -1.68628 -4.29374 0
M  V30 3554 H 317.927 -1.65015 -4.01189 0
M  V30 3555 H 318.598 -0.875197 -5.45018 0
M  V30 3556 H 321.074 0.526111 -4.12761 0
M  V30 3557 H 319.95 1.1323 -5.37094 0
M  V30 3558 H 320.211 2.06806 -3.90748 0
M  V30 3559 N 319.27 1.56325 -0.20005 0
M  V30 3560 C 320.495 2.02548 0.44597 0
M  V30 3561 C 320.92 1.07922 1.5406 0
M  V30 3562 O 320.278 0.0635775 1.81188 0
M  V30 3563 C 320.326 3.47175 0.974761 0
M  V30 3564 O 319.43 3.55671 2.08739 0
M  V30 3565 H 318.771 0.655862 0.103638 0
M  V30 3566 H 321.301 2.02201 -0.312381 0
M  V30 3567 H 321.311 3.87067 1.2901 0
M  V30 3568 H 319.986 4.15538 0.17347 0
M  V30 3569 H 318.563 3.27657 1.78032 0
M  V30 3570 N 320.748 -0.0735177 1.57428 0
M  V30 3571 C 321.678 -1.0879 2.06608 0
M  V30 3572 C 322.659 -1.40473 0.959237 0
M  V30 3573 O 323.844 -1.5013 1.23185 0
M  V30 3574 C 320.974 -2.40183 2.50857 0
M  V30 3575 C 319.928 -2.22858 3.65402 0
M  V30 3576 C 319.254 -3.59619 3.957 0
M  V30 3577 C 320.554 -1.65123 4.95511 0
M  V30 3578 H 322.248 -0.678673 2.91607 0
M  V30 3579 H 319.794 -0.325013 1.40284 0
M  V30 3580 H 321.747 -3.11437 2.83874 0
M  V30 3581 H 320.471 -2.83083 1.62885 0
M  V30 3582 H 319.13 -1.54045 3.32664 0
M  V30 3583 H 318.778 -4.00086 3.04861 0
M  V30 3584 H 318.478 -3.48866 4.72828 0
M  V30 3585 H 320.002 -4.32306 4.31212 0
M  V30 3586 H 321.416 -2.26241 5.26771 0
M  V30 3587 H 319.813 -1.65071 5.7695 0
M  V30 3588 H 320.883 -0.612559 4.81015 0
M  V30 3589 N 322.226 -1.5378 -0.344866 0
M  V30 3590 C 323.472 -1.71216 -1.08687 0
M  V30 3591 C 323.805 -0.473281 -1.88345 0
M  V30 3592 O 323.08 0.52968 -1.87149 0
M  V30 3593 C 323.363 -2.97486 -2.02914 0
M  V30 3594 C 323.216 -4.31579 -1.26727 0
M  V30 3595 C 324.535 -3.19422 -3.0275 0
M  V30 3596 H 321.654 -0.62301 -0.393735 0
M  V30 3597 H 324.296 -1.8645 -0.365563 0
M  V30 3598 H 322.446 -2.84629 -2.64421 0
M  V30 3599 H 324.118 -4.56284 -0.67845 0
M  V30 3600 H 322.361 -4.30049 -0.569273 0
M  V30 3601 H 323.032 -5.16106 -1.95803 0
M  V30 3602 H 325.508 -3.316 -2.51357 0
M  V30 3603 H 324.384 -4.09169 -3.65885 0
M  V30 3604 H 324.645 -2.35656 -3.74057 0
M  V30 3605 N 323.704 0.605807 -1.45491 0
M  V30 3606 C 324.929 1.39625 -1.53361 0
M  V30 3607 C 325.354 1.87351 -0.167645 0
M  V30 3608 O 324.712 1.60243 0.848051 0
M  V30 3609 C 324.76 2.57559 -2.5238 0
M  V30 3610 O 323.864 3.58248 -2.04285 0
M  V30 3611 H 323.205 0.416771 -0.516912 0
M  V30 3612 H 325.735 0.737103 -1.90861 0
M  V30 3613 H 325.745 3.0478 -2.71244 0
M  V30 3614 H 324.42 2.22171 -3.51586 0
M  V30 3615 H 322.997 3.17664 -1.95305 0
M  V30 3616 N 325.182 1.32811 0.848464 0
M  V30 3617 C 326.112 1.24882 1.97299 0
M  V30 3618 C 327.093 0.131357 1.69592 0
M  V30 3619 O 328.278 0.319553 1.91553 0
M  V30 3620 C 325.408 0.97746 3.33261 0
M  V30 3621 C 324.362 2.05682 3.75338 0
M  V30 3622 C 323.688 1.63777 5.09 0
M  V30 3623 C 324.988 3.47254 3.90144 0
M  V30 3624 H 326.682 2.18966 2.04191 0
M  V30 3625 H 324.228 1.05413 0.981029 0
M  V30 3626 H 326.181 0.908513 4.1149 0
M  V30 3627 H 324.905 0.000980011 3.266 0
M  V30 3628 H 323.564 2.11603 2.99366 0
M  V30 3629 H 323.212 0.648569 4.98801 0
M  V30 3630 H 322.912 2.36 5.38124 0
M  V30 3631 H 324.436 1.5833 5.89715 0
M  V30 3632 H 325.85 3.43888 4.58709 0
M  V30 3633 H 324.247 4.1788 4.30693 0
M  V30 3634 H 325.317 3.86462 2.92874 0
M  V30 3635 N 326.66 -1.06551 1.16123 0
M  V30 3636 C 327.623 -2.12132 0.867906 0
M  V30 3637 C 328.623 -1.60224 -0.135944 0
M  V30 3638 O 329.813 -1.73943 0.0946422 0
M  V30 3639 C 326.945 -3.396 0.297419 0
M  V30 3640 H 328.138 -2.39586 1.80385 0
M  V30 3641 H 325.691 -1.22574 0.969812 0
M  V30 3642 H 326.426 -3.17794 -0.64633 0
M  V30 3643 H 326.211 -3.78581 1.02073 0
M  V30 3644 H 327.701 -4.17455 0.110052 0
M  V30 3645 N 328.138 -0.959301 -1.25041 0
M  V30 3646 C 329.068 -0.501388 -2.28053 0
M  V30 3647 C 330.049 0.454673 -1.63911 0
M  V30 3648 O 331.234 0.352618 -1.90972 0
M  V30 3649 C 328.364 0.217224 -3.4662 0
M  V30 3650 C 327.318 -0.654034 -4.22973 0
M  V30 3651 C 326.644 0.195589 -5.34342 0
M  V30 3652 C 327.944 -1.93447 -4.85155 0
M  V30 3653 H 329.638 -1.36238 -2.66608 0
M  V30 3654 H 327.184 -0.656534 -1.28163 0
M  V30 3655 H 329.137 0.548732 -4.17812 0
M  V30 3656 H 327.861 1.1125 -3.07068 0
M  V30 3657 H 326.52 -0.968693 -3.5357 0
M  V30 3658 H 326.168 1.09076 -4.91031 0
M  V30 3659 H 325.868 -0.384091 -5.86343 0
M  V30 3660 H 327.392 0.521958 -6.08365 0
M  V30 3661 H 328.806 -1.66908 -5.48466 0
M  V30 3662 H 327.203 -2.46018 -5.47353 0
M  V30 3663 H 328.273 -2.63466 -4.07079 0
M  V30 3664 N 329.616 1.39756 -0.72842 0
M  V30 3665 C 330.564 2.32485 -0.0731849 0
M  V30 3666 C 331.558 1.52717 0.733063 0
M  V30 3667 O 332.764 1.68428 0.634988 0
M  V30 3668 H 329.139 0.751984 -0.00486469 0
M  V30 3669 H 331.11 2.85382 -0.871761 0
M  V30 3670 C 329.859 3.37773 0.824908 0
M  V30 3671 H 329.182 3.99227 0.213915 0
M  V30 3672 H 330.622 4.05121 1.25111 0
M  V30 3673 C 329.081 2.74287 1.95622 0
M  V30 3674 O 329.611 2.61618 3.04826 0
M  V30 3675 N 327.817 2.32475 1.74367 0
M  V30 3676 H 327.364 2.4298 0.855494 0
M  V30 3677 H 327.322 1.90337 2.50238 0
M  V30 3678 N 331.094 0.475555 1.50254 0
M  V30 3679 C 332.343 -0.0795996 2.01543 0
M  V30 3680 C 332.656 -1.4038 1.36209 0
M  V30 3681 O 333.862 -2.04415 1.7868 0
M  V30 3682 C 332.318 -0.192363 3.59386 0
M  V30 3683 C 331.926 1.12367 4.33679 0
M  V30 3684 C 333.67 -0.699238 4.18701 0
M  V30 3685 C 331.577 0.974453 5.83317 0
M  V30 3686 H 330.507 -0.0335228 0.753254 0
M  V30 3687 H 333.158 0.611128 1.73025 0
M  V30 3688 H 331.54 -0.946974 3.84511 0
M  V30 3689 H 332.714 1.88958 4.20276 0
M  V30 3690 H 331.029 1.562 3.85993 0
M  V30 3691 H 333.626 -0.827978 5.28251 0
M  V30 3692 H 333.969 -1.69171 3.80377 0
M  V30 3693 H 334.502 -0.00188807 3.978 0
M  V30 3694 H 331.241 1.94042 6.26121 0
M  V30 3695 H 330.761 0.248998 5.99283 0
M  V30 3696 H 332.44 0.642867 6.43798 0
M  V30 3697 N 332.573 -1.56217 0.208337 0
M  V30 3698 C 333.822 -1.97124 -0.427204 0
M  V30 3699 C 334.135 -1.09859 -1.61835 0
M  V30 3700 O 335.341 -1.40606 -2.32255 0
M  V30 3701 C 333.797 -3.50633 -0.811442 0
M  V30 3702 C 333.405 -4.46582 0.35615 0
M  V30 3703 C 335.149 -4.00282 -1.41332 0
M  V30 3704 C 333.056 -5.91379 -0.0497852 0
M  V30 3705 H 331.986 -0.736086 -0.163381 0
M  V30 3706 H 334.637 -1.8099 0.302456 0
M  V30 3707 H 333.019 -3.62319 -1.59815 0
M  V30 3708 H 334.193 -4.46636 1.1337 0
M  V30 3709 H 332.508 -4.07202 0.870396 0
M  V30 3710 H 335.105 -5.0595 -1.72972 0
M  V30 3711 H 335.448 -3.45359 -2.32449 0
M  V30 3712 H 335.981 -3.91764 -0.690323 0
M  V30 3713 H 332.72 -6.50255 0.827529 0
M  V30 3714 H 332.24 -5.94549 -0.791926 0
M  V30 3715 H 333.919 -6.45209 -0.481042 0
M  V30 3716 N 334.051 0.0651679 -1.57465 0
M  V30 3717 C 334.961 1.09448 -2.07505 0
M  V30 3718 C 335.977 1.41974 -1.00595 0
M  V30 3719 O 337.153 1.52018 -1.32107 0
M  V30 3720 C 334.218 2.38689 -2.51453 0
M  V30 3721 C 333.279 2.13073 -3.72691 0
M  V30 3722 C 332.512 3.36152 -4.14533 0
M  V30 3723 O 332.735 4.45517 -3.56189 0
M  V30 3724 O 331.669 3.23974 -5.07272 0
M  V30 3725 H 335.495 0.69935 -2.95538 0
M  V30 3726 H 333.08 0.279752 -1.46757 0
M  V30 3727 H 334.962 3.14736 -2.80212 0
M  V30 3728 H 333.637 2.77568 -1.66546 0
M  V30 3729 H 332.544 1.34709 -3.49005 0
M  V30 3730 H 333.877 1.79071 -4.5847 0
M  V30 3731 N 335.529 1.53961 0.336706 0
M  V30 3732 C 336.459 1.85417 1.41925 0
M  V30 3733 C 337.44 0.709856 1.5458 0
M  V30 3734 O 338.625 0.962396 1.68676 0
M  V30 3735 C 335.755 2.06985 2.78881 0
M  V30 3736 C 334.709 3.22813 2.81026 0
M  V30 3737 C 334.035 3.29727 4.20932 0
M  V30 3738 C 335.335 4.60767 2.45949 0
M  V30 3739 H 337.029 2.76079 1.15848 0
M  V30 3740 H 334.575 1.32839 0.555859 0
M  V30 3741 H 336.528 2.27575 3.54665 0
M  V30 3742 H 335.252 1.13061 3.06406 0
M  V30 3743 H 333.911 3.0209 2.07695 0
M  V30 3744 H 333.559 2.33385 4.45579 0
M  V30 3745 H 333.259 4.07566 4.23277 0
M  V30 3746 H 334.783 3.52536 4.98549 0
M  V30 3747 H 336.197 4.81325 3.11446 0
M  V30 3748 H 334.594 5.4106 2.59566 0
M  V30 3749 H 335.664 4.6391 1.41122 0
M  V30 3750 N 337.007 -0.598083 1.45811 0
M  V30 3751 C 338.254 -1.35681 1.50323 0
M  V30 3752 C 338.582 -1.9393 0.148739 0
M  V30 3753 O 337.837 -1.76094 -0.853787 0
M  V30 3754 C 338.136 -2.51669 2.53766 0
M  V30 3755 C 337.802 -2.11508 3.98215 0
M  V30 3756 C 336.464 -2.0027 4.37545 0
M  V30 3757 C 338.816 -1.80308 4.89018 0
M  V30 3758 C 336.144 -1.56067 5.65562 0
M  V30 3759 C 338.496 -1.37589 6.17456 0
M  V30 3760 C 337.16 -1.24916 6.55708 0
M  V30 3761 H 336.43 -0.496492 0.550069 0
M  V30 3762 H 339.077 -0.675052 1.79207 0
M  V30 3763 H 337.382 -3.25225 2.18486 0
M  V30 3764 H 339.079 -3.09895 2.54492 0
M  V30 3765 H 335.669 -2.21185 3.67117 0
M  V30 3766 H 339.853 -1.87884 4.59362 0
M  V30 3767 H 335.109 -1.44886 5.93985 0
M  V30 3768 H 339.283 -1.12495 6.87254 0
M  V30 3769 H 336.91 -0.904386 7.54801 0
M  V30 3770 N 338.485 -1.33259 -0.841409 0
M  V30 3771 C 339.715 -1.2742 -1.62628 0
M  V30 3772 C 340.123 0.157604 -1.88542 0
M  V30 3773 O 339.466 1.10938 -1.46419 0
M  V30 3774 C 339.528 -1.97797 -3.00194 0
M  V30 3775 C 339.192 -3.47109 -2.97261 0
M  V30 3776 C 340.189 -4.42358 -2.73159 0
M  V30 3777 C 337.874 -3.89247 -3.17478 0
M  V30 3778 C 339.868 -5.77718 -2.69296 0
M  V30 3779 C 337.555 -5.24713 -3.13241 0
M  V30 3780 C 338.553 -6.1876 -2.89181 0
M  V30 3781 O 338.241 -7.51745 -2.84843 0
M  V30 3782 H 337.973 -0.440436 -0.512827 0
M  V30 3783 H 340.527 -1.76153 -1.05638 0
M  V30 3784 H 338.757 -1.43652 -3.59028 0
M  V30 3785 H 340.446 -1.8549 -3.61038 0
M  V30 3786 H 341.212 -4.11127 -2.57294 0
M  V30 3787 H 337.091 -3.16456 -3.35226 0
M  V30 3788 H 340.635 -6.51097 -2.50436 0
M  V30 3789 H 336.532 -5.55569 -3.28654 0
M  V30 3790 H 337.3 -7.61262 -3.00702 0
M  V30 3791 N 339.963 1.05934 -1.16686 0
M  V30 3792 C 341.209 1.79065 -0.95203 0
M  V30 3793 C 341.542 1.87147 0.518629 0
M  V30 3794 O 340.817 1.36574 1.38484 0
M  V30 3795 C 341.1 3.23359 -1.58464 0
M  V30 3796 C 340.953 3.23336 -3.12689 0
M  V30 3797 C 342.272 4.21004 -1.28232 0
M  V30 3798 H 339.391 0.65005 -0.34728 0
M  V30 3799 H 342.033 1.23868 -1.44072 0
M  V30 3800 H 340.183 3.70493 -1.16908 0
M  V30 3801 H 341.855 2.84336 -3.6325 0
M  V30 3802 H 340.098 2.61886 -3.4583 0
M  V30 3803 H 340.769 4.25144 -3.52075 0
M  V30 3804 H 343.245 3.8233 -1.64203 0
M  V30 3805 H 342.121 5.20225 -1.75092 0
M  V30 3806 H 342.382 4.41639 -0.201791 0
M  V30 3807 N 341.441 0.965919 1.2453 0
M  V30 3808 C 342.688 0.626831 1.92554 0
M  V30 3809 C 343.016 -0.837739 1.75534 0
M  V30 3810 O 342.271 -1.61793 1.10098 0
M  V30 3811 C 342.57 0.945428 3.44669 0
M  V30 3812 C 342.236 2.39785 3.81856 0
M  V30 3813 C 340.898 2.79483 3.91718 0
M  V30 3814 C 343.25 3.34055 4.00071 0
M  V30 3815 C 340.578 4.12496 4.1721 0
M  V30 3816 C 342.93 4.66694 4.27059 0
M  V30 3817 C 341.594 5.06172 4.3514 0
M  V30 3818 H 340.864 0.229374 0.704605 0
M  V30 3819 H 343.511 1.21707 1.4785 0
M  V30 3820 H 341.816 0.272926 3.90848 0
M  V30 3821 H 343.513 0.661484 3.95507 0
M  V30 3822 H 340.103 2.08003 3.74743 0
M  V30 3823 H 344.287 3.04571 3.91855 0
M  V30 3824 H 339.543 4.42709 4.21685 0
M  V30 3825 H 343.717 5.3971 4.40097 0
M  V30 3826 H 341.344 6.09262 4.54646 0
M  V30 3827 N 342.919 -1.39368 0.735821 0
M  V30 3828 C 344.166 -2.00497 0.284123 0
M  V30 3829 C 344.494 -1.58387 -1.12889 0
M  V30 3830 O 343.749 -0.804359 -1.78406 0
M  V30 3831 C 344.048 -3.5583 0.334651 0
M  V30 3832 C 343.714 -4.17593 1.7008 0
M  V30 3833 C 342.376 -4.34176 2.07472 0
M  V30 3834 C 344.728 -4.51848 2.59775 0
M  V30 3835 C 342.056 -4.82304 3.34065 0
M  V30 3836 C 344.408 -5.01384 3.85741 0
M  V30 3837 C 343.072 -5.16175 4.23225 0
M  V30 3838 H 342.342 -0.73367 0.103968 0
M  V30 3839 H 344.989 -1.66683 0.942825 0
M  V30 3840 H 343.294 -3.89674 -0.407625 0
M  V30 3841 H 344.991 -4.00986 -0.0329927 0
M  V30 3842 H 341.581 -4.05087 1.40008 0
M  V30 3843 H 345.765 -4.38653 2.32157 0
M  V30 3844 H 341.021 -4.91941 3.63049 0
M  V30 3845 H 345.195 -5.26863 4.55399 0
M  V30 3846 H 342.822 -5.5323 5.21384 0
M  V30 3847 N 344.397 -0.483516 -1.5 0
M  V30 3848 C 345.344 0.304164 -2.28787 0
M  V30 3849 C 346.314 0.976114 -1.34392 0
M  V30 3850 O 347.499 0.986156 -1.63339 0
M  V30 3851 C 344.639 1.37298 -3.16612 0
M  V30 3852 C 343.752 0.714561 -4.26049 0
M  V30 3853 C 342.887 1.76232 -5.01114 0
M  V30 3854 C 341.926 1.08483 -6.0241 0
M  V30 3855 N 341.063 2.076 -6.70706 0
M  V30 3856 H 345.903 -0.373981 -2.95644 0
M  V30 3857 H 343.44 -0.196275 -1.45785 0
M  V30 3858 H 345.398 2.00445 -3.65893 0
M  V30 3859 H 344.028 2.02012 -2.51776 0
M  V30 3860 H 343.08 -0.0297798 -3.80388 0
M  V30 3861 H 344.392 0.180383 -4.98474 0
M  V30 3862 H 343.546 2.46929 -5.54176 0
M  V30 3863 H 342.285 2.33033 -4.28424 0
M  V30 3864 H 341.29 0.363545 -5.48597 0
M  V30 3865 H 342.515 0.523551 -6.77079 0
M  V30 3866 H 340.461 2.63394 -6.00799 0
M  V30 3867 H 340.378 1.59201 -7.39047 0
M  V30 3868 H 341.646 2.77639 -7.2838 0
M  V30 3869 N 345.875 1.56104 -0.216619 0
M  V30 3870 C 347.123 1.97781 0.415593 0
M  V30 3871 C 347.444 1.10536 1.60645 0
M  V30 3872 O 346.714 0.181303 1.95059 0
M  V30 3873 H 345.294 0.730415 0.156534 0
M  V30 3874 H 347.956 1.92445 -0.308366 0
M  V30 3875 H 347.052 3.03072 0.74525 0
M  V30 3876 N 347.353 -0.0568162 1.57498 0
M  V30 3877 C 348.599 -0.75422 1.88253 0
M  V30 3878 C 348.932 -1.76461 0.810865 0
M  V30 3879 O 348.207 -1.93691 -0.177259 0
M  V30 3880 C 348.49 -1.44878 3.2967 0
M  V30 3881 C 348.343 -0.453789 4.47505 0
M  V30 3882 C 349.662 -2.38994 3.69554 0
M  V30 3883 H 346.781 -0.272724 0.684683 0
M  V30 3884 H 349.423 -0.0172113 1.89992 0
M  V30 3885 H 347.573 -2.077 3.28318 0
M  V30 3886 H 349.245 0.170371 4.60985 0
M  V30 3887 H 347.488 0.229552 4.33192 0
M  V30 3888 H 348.159 -0.977699 5.43273 0
M  V30 3889 H 350.635 -1.86239 3.72095 0
M  V30 3890 H 349.511 -2.84587 4.69363 0
M  V30 3891 H 349.772 -3.24461 3.00296 0
M  V30 3892 N 348.832 -1.54138 -0.328536 0
M  V30 3893 C 349.779 -1.83176 -1.40411 0
M  V30 3894 C 350.749 -0.678494 -1.5161 0
M  V30 3895 O 351.934 -0.92443 -1.6691 0
M  V30 3896 C 349.074 -2.06035 -2.76846 0
M  V30 3897 C 348.187 -3.33727 -2.74318 0
M  V30 3898 C 347.322 -3.46574 -4.02567 0
M  V30 3899 C 346.361 -4.68159 -3.94327 0
M  V30 3900 N 345.498 -4.77959 -5.14296 0
M  V30 3901 H 350.338 -2.74938 -1.14948 0
M  V30 3902 H 347.875 -1.36166 -0.556538 0
M  V30 3903 H 349.833 -2.1728 -3.56153 0
M  V30 3904 H 348.463 -1.1757 -3.00628 0
M  V30 3905 H 347.515 -3.31246 -1.8703 0
M  V30 3906 H 348.827 -4.23139 -2.64111 0
M  V30 3907 H 347.981 -3.57333 -4.90304 0
M  V30 3908 H 346.72 -2.55245 -4.15574 0
M  V30 3909 H 345.725 -4.57461 -3.04974 0
M  V30 3910 H 346.95 -5.60868 -3.82889 0
M  V30 3911 H 344.896 -3.89544 -5.27818 0
M  V30 3912 H 344.813 -5.6133 -5.06404 0
M  V30 3913 H 346.081 -4.93044 -6.03761 0
M  V30 3914 N 350.31 0.590341 -1.46126 0
M  V30 3915 C 351.587 1.35029 -1.41515 0
M  V30 3916 C 351.967 2.10888 -0.0946472 0
M  V30 3917 O 351.315 2.08998 0.923693 0
M  V30 3918 C 351.525 2.28269 -2.63997 0
M  V30 3919 C 352.873 2.90338 -3.09821 0
M  V30 3920 O 353.897 2.38585 -2.64492 0
M  V30 3921 O 352.756 3.84321 -3.88535 0
M  V30 3922 H 349.85 0.606317 -0.562413 0
M  V30 3923 H 352.396 0.611994 -1.58281 0
M  V30 3924 H 351.168 1.71591 -3.51671 0
M  V30 3925 H 350.791 3.0945 -2.49652 0
M  V30 3926 N 351.788 1.33704 0.83433 0
M  V30 3927 C 353.204 1.13137 1.12571 0
M  V30 3928 C 353.404 -0.0747261 2.01361 0
M  V30 3929 O 352.46 -0.753647 2.4099 0
M  V30 3930 C 353.773 2.42105 1.78342 0
M  V30 3931 C 355.321 2.48054 1.90888 0
M  V30 3932 C 355.796 3.76995 2.60075 0
M  V30 3933 N 357.287 3.78092 2.67584 0
M  V30 3934 C 358.022 4.74574 3.21818 0
M  V30 3935 N 357.518 5.81434 3.76705 0
M  V30 3936 N 359.311 4.62044 3.20112 0
M  V30 3937 H 351.462 2.11 0.243489 0
M  V30 3938 H 353.725 0.932532 0.17055 0
M  V30 3939 H 353.431 3.30391 1.20561 0
M  V30 3940 H 353.305 2.54594 2.7832 0
M  V30 3941 H 355.692 1.60215 2.47821 0
M  V30 3942 H 355.773 2.39502 0.898459 0
M  V30 3943 H 355.417 4.65219 2.03799 0
M  V30 3944 H 355.347 3.82825 3.61597 0
M  V30 3945 H 357.838 3.00865 2.28667 0
M  V30 3946 H 358.151 6.51084 4.16305 0
M  V30 3947 H 356.496 5.85163 3.7498 0
M  V30 3948 H 359.687 3.77716 2.76493 0
M  V30 3949 H 359.86 5.37406 3.62076 0
M  V30 3950 N 353.266 -1.05314 1.17247 0
M  V30 3951 C 354.512 -1.78557 0.961513 0
M  V30 3952 C 354.845 -1.87419 -0.508697 0
M  V30 3953 O 354.12 -1.37307 -1.37757 0
M  V30 3954 C 354.403 -3.22514 1.60176 0
M  V30 3955 C 354.256 -3.21673 3.14399 0
M  V30 3956 C 355.575 -4.20318 1.30463 0
M  V30 3957 H 352.694 -0.6482 0.350723 0
M  V30 3958 H 355.336 -1.23102 1.44727 0
M  V30 3959 H 353.486 -3.69867 1.18871 0
M  V30 3960 H 355.158 -2.82405 3.64753 0
M  V30 3961 H 353.401 -2.60048 3.47214 0
M  V30 3962 H 354.072 -4.23271 3.54324 0
M  V30 3963 H 356.548 -3.81454 1.66229 0
M  V30 3964 H 355.424 -5.19289 1.77848 0
M  V30 3965 H 355.685 -4.41526 0.22521 0
M  V30 3966 N 354.744 -0.972509 -1.24016 0
M  V30 3967 C 355.691 -0.505969 -2.25186 0
M  V30 3968 C 356.661 0.451009 -1.5986 0
M  V30 3969 O 357.846 0.360307 -1.87367 0
M  V30 3970 C 354.986 0.193089 -3.44559 0
M  V30 3971 C 354.099 -0.803222 -4.24467 0
M  V30 3972 C 353.234 -0.0797793 -5.3114 0
M  V30 3973 C 352.273 -1.06583 -6.02749 0
M  V30 3974 N 351.41 -0.372074 -7.01113 0
M  V30 3975 H 356.25 -1.37351 -2.64459 0
M  V30 3976 H 353.787 -0.688419 -1.29997 0
M  V30 3977 H 355.745 0.615125 -4.1264 0
M  V30 3978 H 354.375 1.02455 -3.06109 0
M  V30 3979 H 353.427 -1.34368 -3.55878 0
M  V30 3980 H 354.739 -1.55494 -4.73944 0
M  V30 3981 H 353.893 0.400015 -6.0538 0
M  V30 3982 H 352.632 0.704597 -4.82583 0
M  V30 3983 H 351.637 -1.55645 -5.27309 0
M  V30 3984 H 352.862 -1.85074 -6.53395 0
M  V30 3985 H 350.808 0.393238 -6.5482 0
M  V30 3986 H 350.725 -1.06258 -7.48495 0
M  V30 3987 H 351.993 0.0855932 -7.79453 0
M  V30 3988 N 356.222 1.38976 -0.743202 0
M  V30 3989 C 357.47 1.99948 -0.29417 0
M  V30 3990 C 357.791 1.59279 1.12495 0
M  V30 3991 O 357.061 0.844808 1.76748 0
M  V30 3992 H 355.641 0.739473 -0.105774 0
M  V30 3993 H 358.303 1.699 -0.954986 0
M  V30 3994 H 357.399 3.10142 -0.349056 0
M  V30 3995 N 357.7 0.491464 1.49741 0
M  V30 3996 C 358.647 -0.292027 2.28945 0
M  V30 3997 C 359.617 -0.968973 1.34908 0
M  V30 3998 O 360.802 -0.97748 1.6386 0
M  V30 3999 C 357.942 -1.35617 3.17336 0
M  V30 4000 C 357.055 -0.691957 4.26422 0
M  V30 4001 C 356.19 -1.73572 5.02042 0
M  V30 4002 C 355.229 -1.05286 6.02977 0
M  V30 4003 N 354.366 -2.0404 6.71798 0
M  V30 4004 H 359.206 0.389654 2.95442 0
M  V30 4005 H 356.743 0.204003 1.45679 0
M  V30 4006 H 358.701 -1.98502 3.66951 0
M  V30 4007 H 357.331 -2.00674 2.52844 0
M  V30 4008 H 356.383 0.0499523 3.80367 0
M  V30 4009 H 357.695 -0.153946 4.98562 0
M  V30 4010 H 356.849 -2.43987 5.55478 0
M  V30 4011 H 355.588 -2.30757 4.29654 0
M  V30 4012 H 354.593 -0.334446 5.48782 0
M  V30 4013 H 355.818 -0.487636 6.77347 0
M  V30 4014 H 353.764 -2.60205 6.02187 0
M  V30 4015 H 353.681 -1.55279 7.39881 0
M  V30 4016 H 354.949 -2.73772 7.29842 0
M  V30 4017 N 359.178 -1.55987 0.224894 0
M  V30 4018 C 360.403 -2.03232 -0.41369 0
M  V30 4019 C 360.828 -1.10359 -1.52323 0
M  V30 4020 O 360.186 -0.092395 -1.81064 0
M  V30 4021 C 360.234 -3.48682 -0.919405 0
M  V30 4022 O 359.338 -3.58947 -2.03054 0
M  V30 4023 H 358.679 -0.657428 -0.0931903 0
M  V30 4024 H 361.209 -2.01679 0.34451 0
M  V30 4025 H 361.219 -3.8907 -1.22835 0
M  V30 4026 H 359.894 -4.15761 -0.107339 0
M  V30 4027 H 358.471 -3.30448 -1.72796 0
M  V30 4028 N 360.656 0.0484629 -1.57525 0
M  V30 4029 C 361.933 0.777447 -1.79486 0
M  V30 4030 C 362.313 1.94597 -0.818251 0
M  V30 4031 O 361.661 2.28047 0.143767 0
M  V30 4032 C 361.871 1.22864 -3.26658 0
M  V30 4033 C 363.219 1.65251 -3.91123 0
M  V30 4034 O 364.243 1.32372 -3.3069 0
M  V30 4035 O 363.102 2.26207 -4.97486 0
M  V30 4036 H 360.196 0.374357 -0.737419 0
M  V30 4037 H 362.742 0.0267359 -1.69679 0
M  V30 4038 H 361.514 0.393589 -3.89316 0
M  V30 4039 H 361.137 2.03996 -3.41279 0
M  V30 4040 N 362.134 1.5431 0.320358 0
M  V30 4041 C 363.545 1.63872 0.894594 0
M  V30 4042 C 363.896 0.534847 1.88769 0
M  V30 4043 O 363.021 -0.331732 2.13842 0
M  V30 4044 C 363.616 2.97049 1.62934 0
M  V30 4045 C 362.175 3.08796 2.15226 0
M  V30 4046 C 361.322 2.59456 0.978671 0
M  V30 4047 H 364.273 1.58398 0.0978544 0
M  V30 4048 H 364.294 2.87388 2.49376 0
M  V30 4049 H 363.806 3.7737 0.906302 0
M  V30 4050 H 361.907 2.33156 2.90636 0
M  V30 4051 H 362.02 4.14649 2.40006 0
M  V30 4052 H 360.384 2.1543 1.35875 0
M  V30 4053 H 361.167 3.42237 0.269895 0
M  V30 4054 N 363.613 -0.582584 1.46437 0
M  V30 4055 C 364.843 -1.36484 1.55099 0
M  V30 4056 C 365.251 -1.88233 0.191056 0
M  V30 4057 O 364.594 -1.6429 -0.821858 0
M  V30 4058 C 364.656 -2.588 2.49525 0
M  V30 4059 C 364.32 -2.28517 3.95764 0
M  V30 4060 C 365.317 -1.87346 4.84972 0
M  V30 4061 C 363.002 -2.40658 4.40896 0
M  V30 4062 C 364.996 -1.5871 6.17325 0
M  V30 4063 C 362.683 -2.11635 5.73284 0
M  V30 4064 C 363.681 -1.70725 6.61318 0
M  V30 4065 O 363.369 -1.42057 7.91249 0
M  V30 4066 H 363.101 -0.423297 0.527063 0
M  V30 4067 H 365.655 -0.715188 1.92547 0
M  V30 4068 H 363.885 -3.26571 2.07095 0
M  V30 4069 H 365.574 -3.20868 2.48593 0
M  V30 4070 H 366.34 -1.77481 4.5136 0
M  V30 4071 H 362.219 -2.71463 3.72598 0
M  V30 4072 H 365.763 -1.26704 6.85997 0
M  V30 4073 H 361.66 -2.21124 6.06444 0
M  V30 4074 H 362.428 -1.55901 8.03515 0
M  V30 4075 N 365.091 -1.34144 -0.827227 0
M  V30 4076 C 366.041 -1.21923 -1.92663 0
M  V30 4077 C 367.025 -0.119294 -1.60457 0
M  V30 4078 O 368.217 -0.348539 -1.73534 0
M  V30 4079 C 365.346 -0.972492 -3.29238 0
M  V30 4080 C 364.432 -2.1154 -3.67576 0
M  V30 4081 N 364.823 -3.36627 -3.77512 0
M  V30 4082 C 363.121 -2.02468 -3.97395 0
M  V30 4083 C 363.822 -4.11658 -4.1099 0
M  V30 4084 N 362.798 -3.40207 -4.23981 0
M  V30 4085 H 366.6 -2.16721 -1.98517 0
M  V30 4086 H 364.114 -1.2632 -1.02064 0
M  V30 4087 H 366.111 -0.865847 -4.0781 0
M  V30 4088 H 364.771 -0.0331509 -3.24683 0
M  V30 4089 H 365.782 -3.71234 -3.61118 0
M  V30 4090 H 362.459 -1.16265 -4.00985 0
M  V30 4091 H 363.849 -5.19657 -4.25918 0
M  V30 4092 N 366.569 1.04691 -1.17803 0
M  V30 4093 C 367.532 2.10724 -0.901545 0
M  V30 4094 C 368.532 1.6042 0.110437 0
M  V30 4095 O 369.722 1.7377 -0.122303 0
M  V30 4096 C 366.854 3.39084 -0.351409 0
M  V30 4097 H 368.047 2.36686 -1.84174 0
M  V30 4098 H 365.6 1.21015 -0.98919 0
M  V30 4099 H 366.335 3.18782 0.59569 0
M  V30 4100 H 366.12 3.76909 -1.08083 0
M  V30 4101 H 367.61 4.17227 -0.176451 0
M  V30 4102 N 368.047 0.979072 1.23499 0
M  V30 4103 C 369.275 0.665202 1.95915 0
M  V30 4104 C 369.69 -0.767571 1.72493 0
M  V30 4105 O 369.047 -1.51635 1.01554 0
M  V30 4106 C 369.098 0.944438 3.48945 0
M  V30 4107 O 368.819 2.3209 3.71572 0
M  V30 4108 C 370.32 0.646336 4.38563 0
M  V30 4109 H 367.54 0.247218 0.623798 0
M  V30 4110 H 370.084 1.31009 1.57025 0
M  V30 4111 H 368.239 0.345575 3.85856 0
M  V30 4112 H 368.653 2.40957 4.65876 0
M  V30 4113 H 370.127 0.892091 5.44744 0
M  V30 4114 H 370.604 -0.419575 4.37191 0
M  V30 4115 H 371.21 1.22562 4.07258 0
M  V30 4116 N 369.525 -1.3858 0.750561 0
M  V30 4117 C 370.75 -2.04997 0.314812 0
M  V30 4118 C 371.175 -1.56235 -1.04749 0
M  V30 4119 O 370.533 -0.712981 -1.66692 0
M  V30 4120 C 370.581 -3.58961 0.343415 0
M  V30 4121 O 369.685 -4.07025 -0.663628 0
M  V30 4122 H 369.026 -0.649081 0.139962 0
M  V30 4123 H 371.556 -1.77313 1.02084 0
M  V30 4124 H 371.566 -4.07542 0.193233 0
M  V30 4125 H 370.241 -3.93811 1.33738 0
M  V30 4126 H 368.818 -3.6982 -0.478307 0
M  V30 4127 N 371.003 -0.499398 -1.49478 0
M  V30 4128 C 372.251 0.0455996 -2.02049 0
M  V30 4129 C 372.572 1.37633 -1.38138 0
M  V30 4130 O 371.842 1.8842 -0.536166 0
M  V30 4131 H 370.422 0.0198416 -0.746736 0
M  V30 4132 H 373.084 -0.656274 -1.83519 0
M  V30 4133 H 372.18 0.176445 -3.11601 0
M  V30 4134 N 372.481 1.55866 -0.233164 0
M  V30 4135 C 373.444 2.1953 0.658715 0
M  V30 4136 C 374.444 1.16053 1.11303 0
M  V30 4137 O 375.634 1.41218 1.01996 0
M  V30 4138 C 372.766 2.82791 1.90373 0
M  V30 4139 H 373.959 2.99721 0.10347 0
M  V30 4140 H 371.512 1.56291 0.0164245 0
M  V30 4141 H 372.247 2.06501 2.50056 0
M  V30 4142 H 372.032 3.58578 1.58632 0
M  V30 4143 H 373.522 3.31556 2.53891 0
M  V30 4144 N 373.959 -0.0401083 1.57549 0
M  V30 4145 C 374.889 -1.04384 2.08869 0
M  V30 4146 C 375.87 -1.38407 0.988817 0
M  V30 4147 O 377.055 -1.47483 1.26342 0
M  V30 4148 C 374.185 -2.34808 2.55895 0
M  V30 4149 C 373.139 -2.15057 3.70047 0
M  V30 4150 C 372.465 -3.51145 4.03239 0
M  V30 4151 C 373.765 -1.54576 4.98902 0
M  V30 4152 H 375.459 -0.616666 2.92981 0
M  V30 4153 H 373.005 -0.295184 1.40942 0
M  V30 4154 H 374.958 -3.05346 2.90417 0
M  V30 4155 H 373.682 -2.79565 1.68853 0
M  V30 4156 H 372.341 -1.46954 3.35857 0
M  V30 4157 H 371.989 -3.93529 3.13279 0
M  V30 4158 H 371.689 -3.38758 4.80122 0
M  V30 4159 H 373.213 -4.23062 4.40285 0
M  V30 4160 H 374.627 -2.15017 5.31451 0
M  V30 4161 H 373.024 -1.52796 5.80322 0
M  V30 4162 H 374.094 -0.51039 4.82206 0
M  V30 4163 N 375.437 -1.54477 -0.31217 0
M  V30 4164 C 376.662 -1.77526 -1.07235 0
M  V30 4165 C 377.087 -0.527775 -1.80544 0
M  V30 4166 O 376.445 0.52121 -1.73646 0
M  V30 4167 C 376.493 -2.97535 -2.03728 0
M  V30 4168 O 375.597 -2.69878 -3.11833 0
M  V30 4169 H 374.938 -0.58792 -0.30862 0
M  V30 4170 H 377.468 -2.01532 -0.352993 0
M  V30 4171 H 377.478 -3.25198 -2.46395 0
M  V30 4172 H 376.153 -3.87996 -1.49774 0
M  V30 4173 H 374.73 -2.53199 -2.7376 0
M  V30 4174 N 376.915 0.57481 -1.46744 0
M  V30 4175 C 378.326 1.15695 -1.46532 0
M  V30 4176 C 378.677 1.95068 -0.210425 0
M  V30 4177 O 377.802 2.05241 0.685944 0
M  V30 4178 C 378.397 2.1048 -2.65487 0
M  V30 4179 C 376.956 2.64002 -2.68291 0
M  V30 4180 C 376.103 1.40026 -2.39349 0
M  V30 4181 H 379.054 0.362325 -1.54509 0
M  V30 4182 H 379.075 2.94074 -2.41455 0
M  V30 4183 H 378.587 1.52683 -3.56805 0
M  V30 4184 H 376.688 3.25646 -1.81067 0
M  V30 4185 H 376.801 3.06197 -3.68483 0
M  V30 4186 H 375.165 1.70106 -1.89568 0
M  V30 4187 H 375.948 0.840485 -3.32852 0
M  V30 4188 N 378.394 1.34581 0.820102 0
M  V30 4189 C 379.357 1.2628 1.91275 0
M  V30 4190 C 380.357 0.177344 1.59819 0
M  V30 4191 O 381.547 0.430156 1.68806 0
M  V30 4192 C 378.679 0.950327 3.27386 0
M  V30 4193 H 379.872 2.23421 2.00057 0
M  V30 4194 H 377.425 1.1891 1.0144 0
M  V30 4195 H 378.16 -0.0177938 3.24295 0
M  V30 4196 H 377.945 1.73549 3.51601 0
M  V30 4197 H 379.435 0.917492 4.07396 0
M  V30 4198 N 379.872 -1.04064 1.18357 0
M  V30 4199 C 380.819 -2.12077 0.910603 0
M  V30 4200 C 381.789 -1.65421 -0.15 0
M  V30 4201 O 382.974 -1.90797 -0.0103614 0
M  V30 4202 C 380.114 -3.42252 0.442472 0
M  V30 4203 C 379.227 -4.0252 1.5685 0
M  V30 4204 C 378.362 -5.20657 1.05309 0
M  V30 4205 C 377.401 -5.72955 2.1538 0
M  V30 4206 N 376.538 -6.8238 1.65233 0
M  V30 4207 H 381.378 -2.34764 1.83548 0
M  V30 4208 H 378.915 -1.15157 0.915279 0
M  V30 4209 H 380.873 -4.16921 0.152534 0
M  V30 4210 H 379.503 -3.19712 -0.445428 0
M  V30 4211 H 378.555 -3.25178 1.97391 0
M  V30 4212 H 379.867 -4.37362 2.39824 0
M  V30 4213 H 379.021 -6.0244 0.717677 0
M  V30 4214 H 377.76 -4.87318 0.19293 0
M  V30 4215 H 376.765 -4.89793 2.49766 0
M  V30 4216 H 377.99 -6.08337 3.01832 0
M  V30 4217 H 375.936 -6.50917 0.815064 0
M  V30 4218 H 375.853 -7.16286 2.41805 0
M  V30 4219 H 377.121 -7.67788 1.34619 0
M  V30 4220 N 381.35 -0.985608 -1.22978 0
M  V30 4221 C 382.627 -0.573599 -1.87001 0
M  V30 4222 C 383.007 0.949213 -1.88555 0
M  V30 4223 O 382.355 1.82811 -1.37086 0
M  V30 4224 C 382.565 -1.18564 -3.28243 0
M  V30 4225 C 383.913 -1.28163 -4.04796 0
M  V30 4226 O 384.937 -1.13949 -3.37482 0
M  V30 4227 O 383.796 -1.50832 -5.25273 0
M  V30 4228 H 380.89 -0.193868 -0.803955 0
M  V30 4229 H 383.436 -1.08102 -1.30813 0
M  V30 4230 H 382.208 -2.22758 -3.21706 0
M  V30 4231 H 381.831 -0.663363 -3.92027 0
M  V30 4232 N 382.828 1.3818 -0.7579 0
M  V30 4233 C 384.068 2.01864 -0.320968 0
M  V30 4234 C 384.432 1.58863 1.07827 0
M  V30 4235 O 385.633 2.14908 1.61456 0
M  V30 4236 C 383.904 3.54626 -0.44446 0
M  V30 4237 S 385.463 4.38706 -0.0907467 0
M  V30 4238 H 382.281 0.700056 -0.124268 0
M  V30 4239 H 384.883 1.68611 -0.989468 0
M  V30 4240 H 383.587 3.83411 -1.4637 0
M  V30 4241 H 383.118 3.92661 0.241073 0
M  V30 4242 H 385.133 4.83435 1.11826 0
M  V30 4243 N 384.306 0.507319 1.49211 0
M  V30 4244 C 385.554 -0.0348839 2.0207 0
M  V30 4245 C 385.875 -1.36898 1.38866 0
M  V30 4246 O 385.145 -1.88133 0.546151 0
M  V30 4247 H 383.725 -0.0158812 0.746831 0
M  V30 4248 H 386.387 0.665998 1.83168 0
M  V30 4249 H 385.483 -0.159917 3.1169 0
M  V30 4250 N 385.784 -1.5574 0.241426 0
M  V30 4251 C 387.009 -2.0366 -0.392111 0
M  V30 4252 C 387.434 -1.11969 -1.51144 0
M  V30 4253 O 386.792 -0.111594 -1.80956 0
M  V30 4254 C 386.84 -3.49638 -0.882371 0
M  V30 4255 O 385.944 -3.6108 -1.99235 0
M  V30 4256 H 385.285 -0.658379 -0.0862122 0
M  V30 4257 H 387.815 -2.01302 0.365881 0
M  V30 4258 H 387.825 -3.90351 -1.18702 0
M  V30 4259 H 386.5 -4.15852 -0.0632361 0
M  V30 4260 H 385.077 -3.32262 -1.69282 0
M  V30 4261 N 387.262 0.0317525 -1.57568 0
M  V30 4262 C 388.194 1.06073 -2.03178 0
M  V30 4263 C 389.207 1.32627 -0.944132 0
M  V30 4264 O 390.396 1.30162 -1.22148 0
M  V30 4265 C 387.496 2.40297 -2.38978 0
M  V30 4266 C 386.669 2.33137 -3.70089 0
M  V30 4267 C 385.728 3.49787 -3.9311 0
M  V30 4268 O 384.754 3.29403 -4.64201 0
M  V30 4269 N 385.956 4.71562 -3.38541 0
M  V30 4270 H 388.721 0.672006 -2.92069 0
M  V30 4271 H 386.282 0.219745 -1.60402 0
M  V30 4272 H 388.274 3.1705 -2.51518 0
M  V30 4273 H 386.844 2.71024 -1.55771 0
M  V30 4274 H 386.064 1.415 -3.67928 0
M  V30 4275 H 387.352 2.25493 -4.56104 0
M  V30 4276 H 386.75 4.91024 -2.80912 0
M  V30 4277 H 385.307 5.45689 -3.56464 0
M  V30 4278 N 388.74 1.54641 0.303973 0
M  V30 4279 C 389.687 1.85386 1.37479 0
M  V30 4280 C 390.657 0.702528 1.50512 0
M  V30 4281 O 391.842 0.950867 1.65418 0
M  V30 4282 C 388.982 2.10413 2.73533 0
M  V30 4283 C 388.095 3.38049 2.68974 0
M  V30 4284 C 387.23 3.52934 3.97002 0
M  V30 4285 C 386.269 4.74373 3.86829 0
M  V30 4286 N 385.406 4.8608 5.06627 0
M  V30 4287 H 390.246 2.76732 1.1056 0
M  V30 4288 H 387.783 1.37034 0.534805 0
M  V30 4289 H 389.741 2.22919 3.52652 0
M  V30 4290 H 388.371 1.22338 2.98719 0
M  V30 4291 H 387.423 3.3418 1.81736 0
M  V30 4292 H 388.735 4.27288 2.57346 0
M  V30 4293 H 387.889 3.65088 4.84557 0
M  V30 4294 H 386.628 2.61824 4.1146 0
M  V30 4295 H 385.633 4.62255 2.97658 0
M  V30 4296 H 386.858 5.66888 3.73918 0
M  V30 4297 H 384.804 3.97891 5.21554 0
M  V30 4298 H 384.721 5.69315 4.9741 0
M  V30 4299 H 385.989 5.02587 5.95841 0
M  V30 4300 N 390.218 -0.567019 1.47046 0
M  V30 4301 C 391.448 -1.34831 1.56538 0
M  V30 4302 C 391.856 -1.8802 0.21101 0
M  V30 4303 O 391.199 -1.65152 -0.804387 0
M  V30 4304 C 391.261 -2.56139 2.52256 0
M  V30 4305 C 390.925 -2.24307 3.98165 0
M  V30 4306 C 391.922 -1.82192 4.86931 0
M  V30 4307 C 389.607 -2.35968 4.43423 0
M  V30 4308 C 391.601 -1.52153 6.18973 0
M  V30 4309 C 389.288 -2.05542 5.75496 0
M  V30 4310 C 390.286 -1.63701 6.63092 0
M  V30 4311 O 389.974 -1.33657 7.92711 0
M  V30 4312 H 389.706 -0.417683 0.531523 0
M  V30 4313 H 392.26 -0.694726 1.93294 0
M  V30 4314 H 390.49 -3.24356 2.10548 0
M  V30 4315 H 392.179 -3.18214 2.51982 0
M  V30 4316 H 392.945 -1.72684 4.53217 0
M  V30 4317 H 388.824 -2.67495 3.75456 0
M  V30 4318 H 392.368 -1.19421 6.87302 0
M  V30 4319 H 388.265 -2.14679 6.08755 0
M  V30 4320 H 389.033 -1.4737 8.05124 0
M  V30 4321 N 391.696 -1.35014 -0.812953 0
M  V30 4322 C 392.659 -1.27292 -1.90602 0
M  V30 4323 C 393.659 -0.185817 -1.59723 0
M  V30 4324 O 394.849 -0.439102 -1.68575 0
M  V30 4325 C 391.981 -0.967676 -3.26877 0
M  V30 4326 H 393.174 -2.24479 -1.9887 0
M  V30 4327 H 390.727 -1.19446 -1.00808 0
M  V30 4328 H 391.462 0.0005954 -3.243 0
M  V30 4329 H 391.247 -1.75412 -3.50675 0
M  V30 4330 H 392.737 -0.939085 -4.06904 0
M  V30 4331 N 393.175 1.03435 -1.18907 0
M  V30 4332 C 394.405 1.8012 -1.01195 0
M  V30 4333 C 394.813 1.8395 0.442613 0
M  V30 4334 O 394.156 1.27836 1.31923 0
M  V30 4335 C 394.218 3.26792 -1.49823 0
M  V30 4336 C 393.882 3.46609 -2.97844 0
M  V30 4337 C 394.879 3.37278 -3.95651 0
M  V30 4338 C 392.564 3.73001 -3.36416 0
M  V30 4339 C 394.558 3.54054 -5.30023 0
M  V30 4340 C 392.245 3.89423 -4.70949 0
M  V30 4341 C 393.243 3.79951 -5.67562 0
M  V30 4342 O 392.931 3.95895 -6.99659 0
M  V30 4343 H 392.663 0.573865 -0.357289 0
M  V30 4344 H 395.217 1.31207 -1.58031 0
M  V30 4345 H 393.447 3.76703 -0.873578 0
M  V30 4346 H 395.136 3.85055 -1.28404 0
M  V30 4347 H 395.902 3.16846 -3.67197 0
M  V30 4348 H 391.781 3.79469 -2.61772 0
M  V30 4349 H 395.325 3.46577 -6.05417 0
M  V30 4350 H 391.222 4.09351 -4.99101 0
M  V30 4351 H 391.99 4.13019 -7.06653 0
M  V30 4352 N 394.653 0.992116 1.22453 0
M  V30 4353 C 395.9 0.667534 1.91181 0
M  V30 4354 C 396.228 -0.800317 1.77271 0
M  V30 4355 O 395.483 -1.59421 1.13505 0
M  V30 4356 C 395.782 1.01832 3.42586 0
M  V30 4357 C 395.448 2.47831 3.76684 0
M  V30 4358 C 394.11 2.87729 3.85701 0
M  V30 4359 C 396.462 3.42466 3.92895 0
M  V30 4360 C 393.79 4.21252 4.08367 0
M  V30 4361 C 396.142 4.75648 4.17064 0
M  V30 4362 C 394.806 5.15288 4.24305 0
M  V30 4363 H 394.076 0.244268 0.699581 0
M  V30 4364 H 396.723 1.24816 1.45235 0
M  V30 4365 H 395.028 0.355769 3.90181 0
M  V30 4366 H 396.725 0.745228 3.94014 0
M  V30 4367 H 393.315 2.15905 3.70247 0
M  V30 4368 H 397.499 3.12814 3.85307 0
M  V30 4369 H 392.755 4.51554 4.122 0
M  V30 4370 H 396.929 5.48924 4.2855 0
M  V30 4371 H 394.556 6.18769 4.41621 0
M  V30 4372 N 396.131 -1.37776 0.765217 0
M  V30 4373 C 397.079 -2.32209 0.134798 0
M  V30 4374 C 398.073 -1.54607 -0.692315 0
M  V30 4375 O 399.279 -1.70052 -0.590109 0
M  V30 4376 H 395.654 -0.751591 0.0248005 0
M  V30 4377 H 397.625 -2.8297 0.947119 0
M  V30 4378 C 396.374 -3.39841 -0.735063 0
M  V30 4379 H 395.697 -3.99654 -0.107991 0
M  V30 4380 H 397.137 -4.08296 -1.14326 0
M  V30 4381 C 395.596 -2.79378 -1.88281 0
M  V30 4382 O 396.126 -2.69608 -2.97783 0
M  V30 4383 N 394.332 -2.37016 -1.68142 0
M  V30 4384 H 393.879 -2.45162 -0.790772 0
M  V30 4385 H 393.837 -1.96905 -2.45104 0
M  V30 4386 N 397.609 -0.515225 -1.4894 0
M  V30 4387 C 398.857 0.0241671 -2.02086 0
M  V30 4388 C 399.178 1.3616 -1.3959 0
M  V30 4389 O 398.448 1.87841 -0.556121 0
M  V30 4390 H 397.028 0.0119203 -0.746905 0
M  V30 4391 H 399.69 -0.675702 -1.82812 0
M  V30 4392 H 398.786 0.143385 -3.1177 0
M  V30 4393 N 399.087 1.5561 -0.249682 0
M  V30 4394 C 400.327 2.00916 0.37579 0
M  V30 4395 C 400.691 1.13409 1.54927 0
M  V30 4396 O 401.892 1.48183 2.24266 0
M  V30 4397 C 400.163 3.48949 0.772633 0
M  V30 4398 S 401.722 4.16261 1.38824 0
M  V30 4399 H 398.54 0.70112 0.118117 0
M  V30 4400 H 401.142 1.92052 -0.365567 0
M  V30 4401 H 399.846 4.103 -0.090683 0
M  V30 4402 H 399.377 3.61745 1.5461 0
M  V30 4403 H 401.392 4.17778 2.67724 0
M  V30 4404 N 400.565 -0.0233959 1.57583 0
M  V30 4405 C 401.79 -0.728376 1.94189 0
M  V30 4406 C 402.215 -1.67793 0.850119 0
M  V30 4407 O 401.573 -1.80262 -0.19371 0
M  V30 4408 C 401.621 -1.45669 3.29868 0
M  V30 4409 O 400.725 -2.57013 3.22518 0
M  V30 4410 H 400.066 -0.195493 0.63457 0
M  V30 4411 H 402.596 0.0228214 2.04587 0
M  V30 4412 H 402.606 -1.82535 3.6489 0
M  V30 4413 H 401.281 -0.760314 4.08891 0
M  V30 4414 H 399.858 -2.22648 2.99136 0
M  V30 4415 N 402.043 -1.548 -0.295768 0
M  V30 4416 C 403.268 -1.78653 -1.05346 0
M  V30 4417 C 403.693 -0.546894 -1.79974 0
M  V30 4418 O 403.051 0.502763 -1.7419 0
M  V30 4419 C 403.099 -2.99679 -2.00561 0
M  V30 4420 O 402.203 -2.7317 -3.08953 0
M  V30 4421 H 401.544 -0.59116 -0.302367 0
M  V30 4422 H 404.074 -2.01895 -0.331598 0
M  V30 4423 H 404.084 -3.27793 -2.42932 0
M  V30 4424 H 402.759 -3.89562 -1.4565 0
M  V30 4425 H 401.336 -2.56089 -2.71059 0
M  V30 4426 N 403.521 0.559213 -1.47345 0
M  V30 4427 C 404.932 1.14134 -1.47751 0
M  V30 4428 C 405.283 1.94834 -0.231103 0
M  V30 4429 O 404.408 2.05957 0.664137 0
M  V30 4430 C 405.003 2.07653 -2.67705 0
M  V30 4431 C 403.562 2.61141 -2.71076 0
M  V30 4432 C 402.709 1.3748 -2.40821 0
M  V30 4433 H 405.66 0.345917 -1.54884 0
M  V30 4434 H 405.681 2.91497 -2.44561 0
M  V30 4435 H 405.193 1.4889 -3.58404 0
M  V30 4436 H 403.294 3.23707 -1.84511 0
M  V30 4437 H 403.407 3.02272 -3.7171 0
M  V30 4438 H 401.771 1.68086 -1.91362 0
M  V30 4439 H 402.554 0.805135 -3.33725 0
M  V30 4440 N 404.999 1.35443 0.805782 0
M  V30 4441 C 406.227 1.31878 1.59423 0
M  V30 4442 C 406.642 -0.103562 1.88516 0
M  V30 4443 O 405.999 -1.05575 1.48863 0
M  V30 4444 C 406.05 2.12426 2.92502 0
M  V30 4445 O 405.771 3.49115 2.6467 0
M  V30 4446 C 407.272 2.16455 3.86862 0
M  V30 4447 H 404.492 0.453002 0.495005 0
M  V30 4448 H 407.036 1.78309 1.00131 0
M  V30 4449 H 405.191 1.69593 3.48306 0
M  V30 4450 H 405.605 3.90957 3.49647 0
M  V30 4451 H 407.079 2.77204 4.77349 0
M  V30 4452 H 407.556 1.16352 4.23508 0
M  V30 4453 H 408.162 2.59453 3.36993 0
M  V30 4454 N 406.477 -1.02803 1.19454 0
M  V30 4455 C 407.44 -2.09264 0.934955 0
M  V30 4456 C 408.44 -1.60576 -0.0849015 0
M  V30 4457 O 409.63 -1.73554 0.149933 0
M  V30 4458 C 406.762 -3.38482 0.40531 0
M  V30 4459 H 407.955 -2.33726 1.87916 0
M  V30 4460 H 405.508 -1.19426 1.00832 0
M  V30 4461 H 406.243 -3.19689 -0.544899 0
M  V30 4462 H 406.028 -3.75142 1.14065 0
M  V30 4463 H 407.518 -4.16894 0.242806 0
M  V30 4464 N 407.956 -0.998596 -1.21925 0
M  V30 4465 C 409.367 -0.711939 -1.72593 0
M  V30 4466 C 409.718 0.770842 -1.80423 0
M  V30 4467 O 408.843 1.60237 -1.4544 0
M  V30 4468 C 409.438 -1.28567 -3.13458 0
M  V30 4469 C 407.997 -1.04828 -3.61508 0
M  V30 4470 C 407.144 -1.4024 -2.39224 0
M  V30 4471 H 410.095 -1.17027 -1.07193 0
M  V30 4472 H 410.116 -0.667098 -3.74607 0
M  V30 4473 H 409.628 -2.36486 -3.07727 0
M  V30 4474 H 407.729 0.0140383 -3.72597 0
M  V30 4475 H 407.842 -1.71566 -4.47328 0
M  V30 4476 H 406.206 -0.821077 -2.41103 0
M  V30 4477 H 406.989 -2.49176 -2.36149 0
M  V30 4478 N 409.434 1.37368 -0.772513 0
M  V30 4479 C 410.364 2.32856 -0.173304 0
M  V30 4480 C 411.345 1.55818 0.682262 0
M  V30 4481 O 412.53 1.84052 0.619566 0
M  V30 4482 C 409.66 3.40048 0.706007 0
M  V30 4483 C 408.614 4.27973 -0.0483144 0
M  V30 4484 C 407.94 5.26184 0.950491 0
M  V30 4485 C 409.24 5.07665 -1.22776 0
M  V30 4486 H 410.934 2.83217 -0.971002 0
M  V30 4487 H 408.48 1.3617 -0.468377 0
M  V30 4488 H 410.433 4.05827 1.13501 0
M  V30 4489 H 409.157 2.88214 1.53623 0
M  V30 4490 H 407.816 3.63726 -0.458107 0
M  V30 4491 H 407.464 4.7063 1.77529 0
M  V30 4492 H 407.164 5.85872 0.450314 0
M  V30 4493 H 408.688 5.94838 1.37842 0
M  V30 4494 H 410.102 5.66578 -0.875366 0
M  V30 4495 H 408.499 5.76681 -1.66007 0
M  V30 4496 H 409.569 4.40294 -2.03149 0
M  V30 4497 N 410.912 0.523116 1.48665 0
M  V30 4498 C 412.137 -0.0117284 2.07397 0
M  V30 4499 C 412.562 -1.28031 1.37803 0
M  V30 4500 O 411.92 -1.75836 0.441762 0
M  V30 4501 C 411.968 -0.225786 3.59892 0
M  V30 4502 O 411.072 -1.29592 3.91509 0
M  V30 4503 H 410.413 0.0360673 0.66302 0
M  V30 4504 H 412.943 0.729066 1.9117 0
M  V30 4505 H 412.953 -0.450552 4.05505 0
M  V30 4506 H 411.628 0.700944 4.09951 0
M  V30 4507 H 410.205 -1.05436 3.57684 0
M  V30 4508 N 412.39 -1.55475 0.257931 0
M  V30 4509 C 413.801 -1.8511 -0.243135 0
M  V30 4510 C 414.152 -1.17986 -1.5676 0
M  V30 4511 O 413.277 -0.462102 -2.11409 0
M  V30 4512 C 413.872 -3.35826 -0.447929 0
M  V30 4513 C 412.431 -3.65647 -0.893245 0
M  V30 4514 C 411.578 -2.7729 0.0232965 0
M  V30 4515 H 414.529 -1.51261 0.480199 0
M  V30 4516 H 414.55 -3.58002 -1.28898 0
M  V30 4517 H 414.062 -3.84652 0.516196 0
M  V30 4518 H 412.163 -3.22308 -1.86945 0
M  V30 4519 H 412.276 -4.73312 -0.742469 0
M  V30 4520 H 410.64 -2.49942 -0.490021 0
M  V30 4521 H 411.423 -3.28926 0.982994 0
M  V30 4522 N 413.868 0.0150385 -1.57593 0
M  V30 4523 C 414.801 1.04475 -2.0288 0
M  V30 4524 C 415.779 1.3436 -0.915764 0
M  V30 4525 O 416.963 1.46779 -1.18271 0
M  V30 4526 C 414.09 2.37608 -2.41371 0
M  V30 4527 C 413.136 2.23487 -3.63257 0
M  V30 4528 S 413.969 1.57505 -5.11813 0
M  V30 4529 C 415.125 2.921 -5.5356 0
M  V30 4530 H 415.358 0.65907 -2.89903 0
M  V30 4531 H 412.891 0.225452 -1.52745 0
M  V30 4532 H 414.849 3.14165 -2.64217 0
M  V30 4533 H 413.51 2.7332 -1.54775 0
M  V30 4534 H 412.703 3.21802 -3.87891 0
M  V30 4535 H 412.305 1.55074 -3.40335 0
M  V30 4536 H 414.597 3.88419 -5.55101 0
M  V30 4537 H 415.54 2.72184 -6.53698 0
M  V30 4538 H 415.948 2.95318 -4.8109 0
M  V30 4539 N 415.346 1.54954 0.287554 0
M  V30 4540 C 416.571 1.79209 1.04397 0
M  V30 4541 C 416.996 0.556431 1.79682 0
M  V30 4542 O 416.354 -0.493518 1.74454 0
M  V30 4543 C 416.402 3.00739 1.98969 0
M  V30 4544 O 415.506 2.74805 3.075 0
M  V30 4545 H 414.847 0.592755 0.299227 0
M  V30 4546 H 417.377 2.02068 0.320886 0
M  V30 4547 H 417.387 3.29077 2.4119 0
M  V30 4548 H 416.062 3.90329 1.43582 0
M  V30 4549 H 414.639 2.57523 2.69697 0
M  V30 4550 N 416.824 -0.551391 1.4764 0
M  V30 4551 C 418.235 -1.13349 1.48354 0
M  V30 4552 C 418.586 -1.94709 0.241432 0
M  V30 4553 O 417.711 -2.06306 -0.653205 0
M  V30 4554 C 418.306 -2.0623 2.68802 0
M  V30 4555 C 416.865 -2.597 2.72457 0
M  V30 4556 C 416.012 -1.36201 2.41546 0
M  V30 4557 H 418.963 -0.337698 1.55065 0
M  V30 4558 H 418.984 -2.90196 2.46103 0
M  V30 4559 H 418.496 -1.46987 3.59188 0
M  V30 4560 H 416.597 -3.22724 1.86225 0
M  V30 4561 H 416.71 -3.00296 3.73308 0
M  V30 4562 H 415.074 -1.67068 1.9225 0
M  V30 4563 H 415.857 -0.787425 3.34147 0
M  V30 4564 N 418.302 -1.35869 -0.798587 0
M  V30 4565 C 419.713 -1.26498 -1.37314 0
M  V30 4566 C 420.064 0.0991899 -1.95949 0
M  V30 4567 O 419.189 1.0004 -1.91888 0
M  V30 4568 C 419.784 -2.29054 -2.49639 0
M  V30 4569 C 418.343 -2.234 -3.02935 0
M  V30 4570 C 417.49 -2.14329 -1.75949 0
M  V30 4571 H 420.441 -1.46881 -0.600971 0
M  V30 4572 H 420.462 -1.92166 -3.28409 0
M  V30 4573 H 419.974 -3.2833 -2.06933 0
M  V30 4574 H 418.075 -1.27562 -3.50084 0
M  V30 4575 H 418.188 -3.15703 -3.60372 0
M  V30 4576 H 416.552 -1.60435 -1.9782 0
M  V30 4577 H 417.335 -3.15477 -1.35384 0
M  V30 4578 N 419.78 1.02168 -1.19998 0
M  V30 4579 C 421.028 1.75338 -1.00504 0
M  V30 4580 C 421.349 1.89387 0.464506 0
M  V30 4581 O 420.619 1.43268 1.33608 0
M  V30 4582 H 419.199 0.649564 -0.368885 0
M  V30 4583 H 421.861 1.23205 -1.51018 0
M  V30 4584 H 420.957 2.75892 -1.45912 0
M  V30 4585 N 421.258 1.00505 1.21394 0
M  V30 4586 C 422.488 0.705584 1.94178 0
M  V30 4587 C 422.896 -0.735846 1.74304 0
M  V30 4588 O 422.239 -1.50954 1.04683 0
M  V30 4589 C 422.301 0.94689 3.46806 0
M  V30 4590 C 421.965 2.37517 3.90429 0
M  V30 4591 C 422.962 3.35539 3.97127 0
M  V30 4592 C 420.647 2.71284 4.22742 0
M  V30 4593 C 422.641 4.65395 4.3553 0
M  V30 4594 C 420.328 4.01356 4.60822 0
M  V30 4595 C 421.326 4.98223 4.67186 0
M  V30 4596 O 421.014 6.25969 5.04399 0
M  V30 4597 H 420.746 0.259216 0.624326 0
M  V30 4598 H 423.3 1.34592 1.55159 0
M  V30 4599 H 421.53 0.249386 3.85895 0
M  V30 4600 H 423.219 0.640804 4.0081 0
M  V30 4601 H 423.985 3.10786 3.7234 0
M  V30 4602 H 419.864 1.96581 4.16985 0
M  V30 4603 H 423.408 5.41002 4.40412 0
M  V30 4604 H 419.305 4.25893 4.85063 0
M  V30 4605 H 420.073 6.30085 5.22431 0
M  V30 4606 N 422.737 -1.36956 0.779787 0
M  V30 4607 C 423.684 -2.30175 0.169697 0
M  V30 4608 C 424.654 -1.51501 -0.68094 0
M  V30 4609 O 425.839 -1.80042 -0.631629 0
M  V30 4610 C 422.979 -3.37985 -0.697131 0
M  V30 4611 C 422.092 -4.31661 0.170992 0
M  V30 4612 C 421.227 -5.2655 -0.701298 0
M  V30 4613 C 420.266 -6.11867 0.168869 0
M  V30 4614 N 419.403 -6.98973 -0.661855 0
M  V30 4615 H 424.243 -2.81767 0.970135 0
M  V30 4616 H 421.78 -1.38699 0.489994 0
M  V30 4617 H 423.738 -3.99128 -1.2146 0
M  V30 4618 H 422.368 -2.87739 -1.46309 0
M  V30 4619 H 421.42 -3.71756 0.80634 0
M  V30 4620 H 422.732 -4.91644 0.841875 0
M  V30 4621 H 421.886 -5.92937 -1.28494 0
M  V30 4622 H 420.625 -4.66998 -1.40584 0
M  V30 4623 H 419.63 -5.44452 0.764986 0
M  V30 4624 H 420.855 -6.73493 0.870863 0
M  V30 4625 H 418.801 -6.41941 -1.35086 0
M  V30 4626 H 418.718 -7.55984 -0.0484447 0
M  V30 4627 H 419.986 -7.6974 -1.22963 0
M  V30 4628 N 424.215 -0.530993 -1.48385 0
M  V30 4629 C 425.145 0.219985 -2.32461 0
M  V30 4630 C 426.126 0.934111 -1.42156 0
M  V30 4631 O 427.311 0.919694 -1.71042 0
M  V30 4632 C 424.441 1.26674 -3.23375 0
M  V30 4633 C 423.395 0.67069 -4.22712 0
M  V30 4634 C 422.721 1.82017 -5.02766 0
M  V30 4635 C 424.021 -0.358268 -5.2107 0
M  V30 4636 H 425.715 -0.48187 -2.95497 0
M  V30 4637 H 423.261 -0.233182 -1.42099 0
M  V30 4638 H 425.214 1.80006 -3.81019 0
M  V30 4639 H 423.938 1.99818 -2.58341 0
M  V30 4640 H 422.597 0.158878 -3.66256 0
M  V30 4641 H 422.245 2.54002 -4.34157 0
M  V30 4642 H 421.945 1.42727 -5.70003 0
M  V30 4643 H 423.469 2.35725 -5.63264 0
M  V30 4644 H 424.883 0.0880081 -5.73232 0
M  V30 4645 H 423.28 -0.66861 -5.96364 0
M  V30 4646 H 424.35 -1.26367 -4.68145 0
M  V30 4647 N 425.693 1.55336 -0.266172 0
M  V30 4648 C 426.939 1.99692 0.353681 0
M  V30 4649 C 427.272 1.1543 1.56172 0
M  V30 4650 O 426.547 0.222218 1.93226 0
M  V30 4651 C 426.83 3.52316 0.74466 0
M  V30 4652 C 426.683 4.47337 -0.470101 0
M  V30 4653 C 428.002 4.10588 1.58447 0
M  V30 4654 H 425.121 0.725961 0.12708 0
M  V30 4655 H 427.763 1.86336 -0.371333 0
M  V30 4656 H 425.913 3.63829 1.36239 0
M  V30 4657 H 427.585 4.4778 -1.10864 0
M  V30 4658 H 425.828 4.19364 -1.10978 0
M  V30 4659 H 426.499 5.51788 -0.15291 0
M  V30 4660 H 428.975 4.02297 1.06286 0
M  V30 4661 H 427.851 5.17607 1.82686 0
M  V30 4662 H 428.112 3.60253 2.56262 0
M  V30 4663 N 427.171 -0.0066808 1.57599 0
M  V30 4664 C 428.399 -0.704087 1.94551 0
M  V30 4665 C 428.814 -1.67677 0.867746 0
M  V30 4666 O 428.171 -1.8185 -0.153925 0
M  V30 4667 C 428.222 -1.44177 3.31505 0
M  V30 4668 O 427.943 -0.508097 4.35144 0
M  V30 4669 C 429.444 -2.23429 3.82876 0
M  V30 4670 H 426.664 -0.196523 0.641576 0
M  V30 4671 H 429.208 0.042453 2.04456 0
M  V30 4672 H 427.363 -2.13999 3.22929 0
M  V30 4673 H 427.777 -1.02782 5.14331 0
M  V30 4674 H 429.251 -2.70552 4.8115 0
M  V30 4675 H 429.728 -3.05818 3.15233 0
M  V30 4676 H 430.334 -1.58636 3.94607 0
M  V30 4677 N 428.649 -1.55105 -0.279332 0
M  V30 4678 C 429.897 -1.75066 -1.00977 0
M  V30 4679 C 430.218 -0.551276 -1.87045 0
M  V30 4680 O 429.488 0.433984 -1.91032 0
M  V30 4681 H 428.068 -0.645578 -0.375816 0
M  V30 4682 H 430.73 -1.92497 -0.305089 0
M  V30 4683 H 429.826 -2.64894 -1.65038 0
M  V30 4684 N 430.127 0.543554 -1.4793 0
M  V30 4685 C 431.404 1.30458 -1.4574 0
M  V30 4686 C 431.784 2.1048 -0.161692 0
M  V30 4687 O 431.132 2.11831 0.856734 0
M  V30 4688 C 431.342 2.19754 -2.71126 0
M  V30 4689 C 432.69 2.80334 -3.18901 0
M  V30 4690 O 433.714 2.30049 -2.71948 0
M  V30 4691 O 432.573 3.71766 -4.00565 0
M  V30 4692 H 429.667 0.588117 -0.581418 0
M  V30 4693 H 432.213 0.561328 -1.60147 0
M  V30 4694 H 430.985 1.60316 -3.56952 0
M  V30 4695 H 430.608 3.01351 -2.59371 0
M  V30 4696 N 431.605 1.3629 0.791371 0
M  V30 4697 C 433.021 1.16661 1.08914 0
M  V30 4698 C 433.221 -0.0106266 2.01497 0
M  V30 4699 O 432.277 -0.676596 2.43266 0
M  V30 4700 C 433.59 2.47656 1.70549 0
M  V30 4701 C 435.138 2.54002 1.82899 0
M  V30 4702 C 435.613 3.85078 2.47949 0
M  V30 4703 N 437.104 3.86413 2.5542 0
M  V30 4704 C 437.839 4.84572 3.06557 0
M  V30 4705 N 437.335 5.93124 3.58016 0
M  V30 4706 N 439.128 4.71994 3.05251 0
M  V30 4707 H 431.279 2.11668 0.176238 0
M  V30 4708 H 433.542 0.937486 0.140796 0
M  V30 4709 H 433.248 3.34059 1.09989 0
M  V30 4710 H 433.122 2.63319 2.70079 0
M  V30 4711 H 435.509 1.68018 2.42598 0
M  V30 4712 H 435.59 2.42239 0.821808 0
M  V30 4713 H 435.234 4.71467 1.88895 0
M  V30 4714 H 435.164 3.94135 3.49235 0
M  V30 4715 H 437.655 3.07988 2.18979 0
M  V30 4716 H 437.968 6.63999 3.95381 0
M  V30 4717 H 436.313 5.96796 3.56173 0
M  V30 4718 H 439.504 3.86321 2.64336 0
M  V30 4719 H 439.677 5.48653 3.44796 0
M  V30 4720 N 433.083 -1.0153 1.20538 0
M  V30 4721 C 434.031 -2.12215 0.952235 0
M  V30 4722 C 435.025 -1.69123 -0.0968735 0
M  V30 4723 O 436.231 -1.7992 0.0536006 0
M  V30 4724 H 432.606 -0.693576 0.290613 0
M  V30 4725 H 434.577 -2.3075 1.89201 0
M  V30 4726 C 433.326 -3.43755 0.522287 0
M  V30 4727 H 432.649 -3.7734 1.32115 0
M  V30 4728 H 434.089 -4.22254 0.384389 0
M  V30 4729 C 432.548 -3.28088 -0.765489 0
M  V30 4730 O 433.078 -3.57921 -1.8236 0
M  V30 4731 N 431.284 -2.81333 -0.728011 0
M  V30 4732 H 430.831 -2.57255 0.133332 0
M  V30 4733 H 430.789 -2.71232 -1.58999 0
M  V30 4734 N 434.561 -1.01147 -1.20859 0
M  V30 4735 C 435.509 -0.57059 -2.25493 0
M  V30 4736 C 436.503 0.388109 -1.64894 0
M  V30 4737 O 437.709 0.258592 -1.78133 0
M  V30 4738 H 434.084 -0.166191 -0.733406 0
M  V30 4739 H 436.055 -1.46411 -2.60012 0
M  V30 4740 C 434.804 0.0805241 -3.47607 0
M  V30 4741 H 434.127 -0.648156 -3.94511 0
M  V30 4742 H 435.567 0.352197 -4.22535 0
M  V30 4743 C 434.026 1.32175 -3.09889 0
M  V30 4744 O 434.556 2.41553 -3.20959 0
M  V30 4745 N 432.762 1.20392 -2.64488 0
M  V30 4746 H 432.309 0.313905 -2.5568 0
M  V30 4747 H 432.267 2.03541 -2.39621 0
M  V30 4748 N 436.039 1.36541 -0.78704 0
M  V30 4749 C 437.264 2.0409 -0.369053 0
M  V30 4750 C 437.689 1.58957 1.00569 0
M  V30 4751 O 437.047 0.756926 1.64743 0
M  V30 4752 C 437.095 3.57924 -0.438466 0
M  V30 4753 O 436.199 4.08642 0.555479 0
M  V30 4754 H 435.54 0.645142 -0.157122 0
M  V30 4755 H 438.07 1.74545 -1.06749 0
M  V30 4756 H 438.08 4.06887 -0.301218 0
M  V30 4757 H 436.755 3.90127 -1.44132 0
M  V30 4758 H 435.332 3.70958 0.380088 0
M  V30 4759 N 437.518 0.538854 1.48102 0
M  V30 4760 C 438.743 0.0102694 2.07397 0
M  V30 4761 C 439.168 -1.26562 1.39153 0
M  V30 4762 O 438.526 -1.75357 0.460387 0
M  V30 4763 C 438.574 -0.187602 3.60112 0
M  V30 4764 O 437.678 -1.25432 3.92862 0
M  V30 4765 H 437.019 0.0430975 0.6626 0
M  V30 4766 H 439.549 0.749301 1.90385 0
M  V30 4767 H 439.559 -0.407517 4.0596 0
M  V30 4768 H 438.234 0.744386 4.09184 0
M  V30 4769 H 436.811 -1.01636 3.58782 0
M  V30 4770 N 438.996 -1.55193 0.274407 0
M  V30 4771 C 440.236 -2.01488 -0.343778 0
M  V30 4772 C 440.6 -1.1586 -1.53103 0
M  V30 4773 O 441.801 -1.51732 -2.2188 0
M  V30 4774 C 440.072 -3.50134 -0.717021 0
M  V30 4775 S 441.631 -4.18417 -1.32184 0
M  V30 4776 H 438.449 -0.70291 -0.106948 0
M  V30 4777 H 441.051 -1.91446 0.396075 0
M  V30 4778 H 439.755 -4.10104 0.155947 0
M  V30 4779 H 439.286 -3.64159 -1.48835 0
M  V30 4780 H 441.301 -4.21984 -2.61044 0
M  V30 4781 N 440.474 -0.00167713 -1.576 0
M  V30 4782 C 441.89 0.354422 -1.55615 0
M  V30 4783 C 442.09 1.74679 -1.00447 0
M  V30 4784 O 441.146 2.4428 -0.639022 0
M  V30 4785 C 442.459 0.22812 -2.99833 0
M  V30 4786 C 444.007 0.302934 -3.11531 0
M  V30 4787 C 444.482 0.205737 -4.57538 0
M  V30 4788 N 445.973 0.263584 -4.62449 0
M  V30 4789 C 446.708 0.211742 -5.73009 0
M  V30 4790 N 446.204 0.110399 -6.92712 0
M  V30 4791 N 447.997 0.263729 -5.61481 0
M  V30 4792 H 440.148 -0.912498 -1.918 0
M  V30 4793 H 442.411 -0.349928 -0.881053 0
M  V30 4794 H 442.117 -0.729934 -3.44042 0
M  V30 4795 H 441.991 1.00951 -3.6344 0
M  V30 4796 H 444.378 1.25143 -2.67251 0
M  V30 4797 H 444.459 -0.508357 -2.50698 0
M  V30 4798 H 444.103 -0.739225 -5.02492 0
M  V30 4799 H 444.033 1.03554 -5.16318 0
M  V30 4800 H 446.524 0.343173 -3.76339 0
M  V30 4801 H 446.837 0.0767828 -7.72762 0
M  V30 4802 H 445.182 0.0760025 -6.94958 0
M  V30 4803 H 448.373 0.34111 -4.66855 0
M  V30 4804 H 448.546 0.219862 -6.47627 0
M  V30 4805 N 441.952 1.55251 0.271103 0
M  V30 4806 C 442.9 1.89054 1.35504 0
M  V30 4807 C 443.894 0.767064 1.51038 0
M  V30 4808 O 445.1 0.951429 1.528 0
M  V30 4809 H 441.475 0.600072 0.45323 0
M  V30 4810 H 443.446 2.79598 1.04247 0
M  V30 4811 C 442.195 2.18068 2.70817 0
M  V30 4812 H 441.518 3.04005 2.59656 0
M  V30 4813 H 442.958 2.4564 3.45597 0
M  V30 4814 C 441.417 0.988901 3.2206 0
M  V30 4815 O 441.947 0.224501 4.01072 0
M  V30 4816 N 440.153 0.786085 2.79766 0
M  V30 4817 H 439.7 1.40937 2.15626 0
M  V30 4818 H 439.658 -0.00969349 3.14399 0
M  V30 4819 N 443.43 -0.535701 1.48216 0
M  V30 4820 C 444.66 -1.3148 1.59363 0
M  V30 4821 C 445.068 -1.8753 0.250844 0
M  V30 4822 O 444.411 -1.66821 -0.769174 0
M  V30 4823 C 444.473 -2.50731 2.57632 0
M  V30 4824 C 444.137 -2.15811 4.02833 0
M  V30 4825 C 445.134 -1.71822 4.90686 0
M  V30 4826 C 442.819 -2.26509 4.48329 0
M  V30 4827 C 444.813 -1.3899 6.22062 0
M  V30 4828 C 442.5 -1.93289 5.79726 0
M  V30 4829 C 443.498 -1.49599 6.66415 0
M  V30 4830 O 443.186 -1.16812 7.95368 0
M  V30 4831 H 442.918 -0.406315 0.540263 0
M  V30 4832 H 445.472 -0.653569 1.94725 0
M  V30 4833 H 443.702 -3.19817 2.1738 0
M  V30 4834 H 445.391 -3.12797 2.58675 0
M  V30 4835 H 446.157 -1.63031 4.56778 0
M  V30 4836 H 442.036 -2.59471 3.81045 0
M  V30 4837 H 445.58 -1.04816 6.89681 0
M  V30 4838 H 441.477 -2.01718 6.13172 0
M  V30 4839 H 442.245 -1.30259 8.08069 0
M  V30 4840 N 444.908 -1.36708 -0.784132 0
M  V30 4841 C 445.856 -1.31533 -1.91838 0
M  V30 4842 C 446.85 -0.206205 -1.6814 0
M  V30 4843 O 448.056 -0.373519 -1.76082 0
M  V30 4844 H 444.431 -0.409613 -0.630651 0
M  V30 4845 H 446.402 -2.2731 -1.9332 0
M  V30 4846 C 445.151 -1.12679 -3.28936 0
M  V30 4847 H 444.474 -1.97274 -3.4774 0
M  V30 4848 H 445.914 -1.13106 -4.08636 0
M  V30 4849 C 444.373 0.168281 -3.36479 0
M  V30 4850 O 444.903 1.15625 -3.84699 0
M  V30 4851 N 443.109 0.214762 -2.89805 0
M  V30 4852 H 442.656 -0.589852 -2.50756 0
M  V30 4853 H 442.614 1.08094 -2.95234 0
M  V30 4854 N 446.386 1.0089 -1.21074 0
M  V30 4855 C 447.333 2.09588 -0.966512 0
M  V30 4856 C 448.303 1.65761 0.106089 0
M  V30 4857 O 449.488 1.90758 -0.0402287 0
M  V30 4858 C 446.628 3.40958 -0.533058 0
M  V30 4859 C 445.741 3.9822 -1.67467 0
M  V30 4860 C 444.876 5.17682 -1.19076 0
M  V30 4861 C 443.915 5.67043 -2.30496 0
M  V30 4862 N 443.052 6.77759 -1.83267 0
M  V30 4863 H 447.892 2.29815 -1.89708 0
M  V30 4864 H 445.429 1.12689 -0.945489 0
M  V30 4865 H 447.387 4.1637 -0.263019 0
M  V30 4866 H 446.017 3.20781 0.360505 0
M  V30 4867 H 445.069 3.1983 -2.05944 0
M  V30 4868 H 446.381 4.3085 -2.51336 0
M  V30 4869 H 445.535 6.00326 -0.877151 0
M  V30 4870 H 444.274 4.86635 -0.322066 0
M  V30 4871 H 443.279 4.82999 -2.62664 0
M  V30 4872 H 444.504 6.00121 -3.17855 0
M  V30 4873 H 442.45 6.48527 -0.987356 0
M  V30 4874 H 442.367 7.09624 -2.60711 0
M  V30 4875 H 443.635 7.63949 -1.54928 0
M  V30 4876 N 447.864 1.01787 1.20321 0
M  V30 4877 C 448.796 0.547357 2.22568 0
M  V30 4878 C 449.809 -0.370922 1.58518 0
M  V30 4879 O 450.998 -0.169067 1.77698 0
M  V30 4880 C 448.098 -0.223031 3.38165 0
M  V30 4881 C 447.271 0.697472 4.31803 0
M  V30 4882 C 446.33 -0.025562 5.26194 0
M  V30 4883 O 445.356 0.597367 5.66057 0
M  V30 4884 N 446.558 -1.29999 5.65757 0
M  V30 4885 H 449.323 1.42668 2.63564 0
M  V30 4886 H 446.884 0.895552 1.34876 0
M  V30 4887 H 448.876 -0.716002 3.98316 0
M  V30 4888 H 447.446 -1.00366 2.9605 0
M  V30 4889 H 446.666 1.37073 3.69601 0
M  V30 4890 H 447.954 1.32347 4.91286 0
M  V30 4891 H 447.352 -1.827 5.35385 0
M  V30 4892 H 445.909 -1.73766 6.28211 0
M  V30 4893 N 449.342 -1.36122 0.79427 0
M  V30 4894 C 450.305 -2.28309 0.201889 0
M  V30 4895 C 451.305 -1.49041 -0.603603 0
M  V30 4896 O 452.495 -1.68964 -0.423888 0
M  V30 4897 C 449.627 -3.3321 -0.719978 0
M  V30 4898 H 450.82 -2.82208 1.01481 0
M  V30 4899 H 448.373 -1.45768 0.564037 0
M  V30 4900 H 449.108 -2.84475 -1.55706 0
M  V30 4901 H 448.893 -3.91835 -0.144266 0
M  V30 4902 H 450.383 -4.02044 -1.12916 0
M  V30 4903 N 450.82 -0.546701 -1.47814 0
M  V30 4904 C 452.045 -0.021268 -2.07389 0
M  V30 4905 C 452.47 1.25822 -1.39822 0
M  V30 4906 O 451.828 1.75111 -0.46968 0
M  V30 4907 C 451.876 0.168502 -3.60206 0
M  V30 4908 O 450.98 1.23347 -3.93522 0
M  V30 4909 H 450.321 -0.0466108 -0.662362 0
M  V30 4910 H 452.851 -0.759387 -1.89985 0
M  V30 4911 H 452.861 0.385982 -4.0617 0
M  V30 4912 H 451.536 -0.766075 -4.08784 0
M  V30 4913 H 450.113 0.997319 -3.59316 0
M  V30 4914 N 452.299 1.55045 -0.282633 0
M  V30 4915 C 453.209 2.26491 0.61147 0
M  V30 4916 C 454.225 1.29348 1.16384 0
M  V30 4917 O 455.401 1.62298 1.19253 0
M  V30 4918 C 452.466 2.97779 1.77563 0
M  V30 4919 C 451.527 4.10418 1.25919 0
M  V30 4920 C 450.76 4.78297 2.36786 0
M  V30 4921 O 450.983 4.45426 3.56303 0
M  V30 4922 O 449.917 5.66089 2.04517 0
M  V30 4923 H 453.743 3.03683 0.0324615 0
M  V30 4924 H 451.328 1.49317 -0.0497576 0
M  V30 4925 H 453.21 3.42554 2.45427 0
M  V30 4926 H 451.885 2.23498 2.34159 0
M  V30 4927 H 450.792 3.70082 0.546797 0
M  V30 4928 H 452.125 4.86622 0.738887 0
M  V30 4929 N 453.777 0.010035 1.57597 0
M  V30 4930 C 454.709 -1.00649 2.05918 0
M  V30 4931 C 455.722 -1.30077 0.978964 0
M  V30 4932 O 456.911 -1.26878 1.25556 0
M  V30 4933 C 454.011 -2.33876 2.45265 0
M  V30 4934 C 453.184 -2.23242 3.7614 0
M  V30 4935 C 452.243 -3.39242 4.02245 0
M  V30 4936 O 451.269 -3.1698 4.72771 0
M  V30 4937 N 452.471 -4.6242 3.50924 0
M  V30 4938 H 455.236 -0.594333 2.93748 0
M  V30 4939 H 452.797 -0.17714 1.60928 0
M  V30 4940 H 454.789 -3.1027 2.59836 0
M  V30 4941 H 453.359 -2.66799 1.62902 0
M  V30 4942 H 452.579 -1.31696 3.71551 0
M  V30 4943 H 453.867 -2.13321 4.61922 0
M  V30 4944 H 453.265 -4.83404 2.93832 0
M  V30 4945 H 451.822 -5.36046 3.70807 0
M  V30 4946 N 455.255 -1.55392 -0.262866 0
M  V30 4947 C 456.203 -1.8977 -1.345 0
M  V30 4948 C 457.197 -0.775063 -1.50629 0
M  V30 4949 O 458.403 -0.959519 -1.52293 0
M  V30 4950 H 454.778 -0.602467 -0.450041 0
M  V30 4951 H 456.749 -2.80147 -1.02762 0
M  V30 4952 C 455.498 -2.19501 -2.69657 0
M  V30 4953 H 454.821 -3.05378 -2.5804 0
M  V30 4954 H 456.261 -2.47469 -3.44289 0
M  V30 4955 C 454.72 -1.00597 -3.21531 0
M  V30 4956 O 455.25 -0.245768 -4.00947 0
M  V30 4957 N 453.456 -0.800911 -2.79345 0
M  V30 4958 H 453.003 -1.42079 -2.14875 0
M  V30 4959 H 452.961 -0.00697996 -3.14399 0
M  V30 4960 N 456.733 0.527833 -1.48498 0
M  V30 4961 C 457.979 1.28295 -1.57836 0
M  V30 4962 C 458.334 1.9077 -0.249943 0
M  V30 4963 O 457.627 1.76421 0.747402 0
M  V30 4964 C 457.821 2.39275 -2.65485 0
M  V30 4965 C 457.65 1.87679 -4.08664 0
M  V30 4966 C 456.42 1.70187 -4.75778 0
M  V30 4967 C 458.618 1.40409 -4.94762 0
M  V30 4968 N 456.6 1.13238 -6.03366 0
M  V30 4969 C 457.971 0.954216 -6.12613 0
M  V30 4970 C 460.026 1.28732 -4.8097 0
M  V30 4971 C 458.729 0.39915 -7.18192 0
M  V30 4972 C 460.755 0.746244 -5.86673 0
M  V30 4973 C 460.117 0.306457 -7.03733 0
M  V30 4974 H 456.216 0.460408 -0.632099 0
M  V30 4975 H 458.8 0.594913 -1.85388 0
M  V30 4976 H 456.971 3.05572 -2.3975 0
M  V30 4977 H 458.703 3.06308 -2.64495 0
M  V30 4978 H 455.458 1.93772 -4.32145 0
M  V30 4979 H 455.882 0.867687 -6.71417 0
M  V30 4980 H 460.524 1.61338 -3.90807 0
M  V30 4981 H 458.242 0.0607678 -8.08077 0
M  V30 4982 H 461.828 0.659041 -5.78055 0
M  V30 4983 H 460.708 -0.105708 -7.84129 0
M  V30 4984 N 458.211 1.37122 0.776871 0
M  V30 4985 C 459.174 1.32301 1.8716 0
M  V30 4986 C 460.174 0.228099 1.59174 0
M  V30 4987 O 461.364 0.483642 1.67352 0
M  V30 4988 C 458.496 1.054 3.24197 0
M  V30 4989 H 459.689 2.29673 1.92848 0
M  V30 4990 H 457.242 1.22077 0.97606 0
M  V30 4991 H 457.977 0.0853872 3.24188 0
M  V30 4992 H 457.762 1.84648 3.45901 0
M  V30 4993 H 459.252 1.04664 4.04271 0
M  V30 4994 N 459.689 -1.00246 1.21608 0
M  V30 4995 C 460.637 -2.11193 0.97469 0
M  V30 4996 C 461.631 -1.69216 -0.0789303 0
M  V30 4997 O 462.837 -1.79853 0.0726806 0
M  V30 4998 H 459.212 -0.690455 0.297953 0
M  V30 4999 H 461.183 -2.2873 1.91638 0
M  V30 5000 C 459.932 -3.43182 0.558717 0
M  V30 5001 H 459.255 -3.75918 1.3611 0
M  V30 5002 H 460.695 -4.21823 0.429154 0
M  V30 5003 C 459.154 -3.28882 -0.730648 0
M  V30 5004 O 459.684 -3.59835 -1.78554 0
M  V30 5005 N 457.89 -2.8209 -0.698131 0
M  V30 5006 H 457.437 -2.57099 0.16061 0
M  V30 5007 H 457.395 -2.72903 -1.56113 0
M  V30 5008 N 461.167 -1.02423 -1.1978 0
M  V30 5009 C 462.397 -0.736387 -1.93031 0
M  V30 5010 C 462.805 0.708023 -1.75453 0
M  V30 5011 O 462.148 1.4927 -1.07071 0
M  V30 5012 C 462.21 -1.00194 -3.45255 0
M  V30 5013 C 461.874 -2.43698 -3.86601 0
M  V30 5014 C 462.871 -3.41814 -3.91738 0
M  V30 5015 C 460.556 -2.77975 -4.18372 0
M  V30 5016 C 462.55 -4.72265 -4.28071 0
M  V30 5017 C 460.237 -4.08636 -4.54378 0
M  V30 5018 C 461.235 -5.05592 -4.59201 0
M  V30 5019 O 460.923 -6.33914 -4.94376 0
M  V30 5020 H 460.655 -0.269116 -0.620123 0
M  V30 5021 H 463.209 -1.37043 -1.52998 0
M  V30 5022 H 461.439 -0.310747 -3.85449 0
M  V30 5023 H 463.128 -0.704488 -3.9974 0
M  V30 5024 H 463.894 -3.16671 -3.67348 0
M  V30 5025 H 459.773 -2.0319 -4.13805 0
M  V30 5026 H 463.317 -5.4794 -4.3175 0
M  V30 5027 H 459.214 -4.33556 -4.78226 0
M  V30 5028 H 459.982 -6.38317 -5.12341 0
M  V30 5029 N 462.645 1.35699 -0.801477 0
M  V30 5030 C 463.87 2.03687 -0.390678 0
M  V30 5031 C 464.295 1.60015 0.988778 0
M  V30 5032 O 463.653 0.774357 1.63931 0
M  V30 5033 C 463.701 3.57439 -0.476404 0
M  V30 5034 O 462.805 4.09208 0.512106 0
M  V30 5035 H 462.146 0.64344 -0.163956 0
M  V30 5036 H 464.676 1.73403 -1.08594 0
M  V30 5037 H 464.686 4.06544 -0.344357 0
M  V30 5038 H 463.361 3.88576 -1.48262 0
M  V30 5039 H 461.938 3.7134 0.340721 0
M  V30 5040 N 464.123 0.554532 1.47522 0
M  V30 5041 C 465.086 -0.184174 2.28459 0
M  V30 5042 C 466.086 -0.845195 1.36796 0
M  V30 5043 O 467.276 -0.701467 1.59452 0
M  V30 5044 C 464.408 -1.26903 3.16399 0
M  V30 5045 H 465.601 0.526751 2.95238 0
M  V30 5046 H 463.154 0.311375 1.53167 0
M  V30 5047 H 463.889 -2.01244 2.54306 0
M  V30 5048 H 463.674 -0.799883 3.83854 0
M  V30 5049 H 465.164 -1.78794 3.77389 0
M  V30 5050 N 465.601 -1.54893 0.290851 0
M  V30 5051 C 466.511 -2.26812 -0.59945 0
M  V30 5052 C 467.527 -1.29963 -1.15696 0
M  V30 5053 O 468.703 -1.62928 -1.18391 0
M  V30 5054 C 465.768 -2.98716 -1.75982 0
M  V30 5055 C 464.829 -4.1108 -1.2374 0
M  V30 5056 C 464.062 -4.79546 -2.34246 0
M  V30 5057 O 464.285 -4.47309 -3.53936 0
M  V30 5058 O 463.219 -5.67165 -2.01512 0
M  V30 5059 H 467.045 -3.03696 -0.0163561 0
M  V30 5060 H 464.63 -1.49289 0.0576755 0
M  V30 5061 H 466.512 -3.43851 -2.43607 0
M  V30 5062 H 465.187 -2.24737 -2.3297 0
M  V30 5063 H 464.094 -3.70367 -0.527163 0
M  V30 5064 H 465.427 -4.87007 -0.71307 0
M  V30 5065 N 467.08 -0.0183926 -1.57589 0
M  V30 5066 C 468.012 0.995557 -2.06449 0
M  V30 5067 C 469.025 1.29556 -0.985849 0
M  V30 5068 O 470.214 1.2621 -1.26227 0
M  V30 5069 C 467.314 2.32572 -2.46502 0
M  V30 5070 C 466.487 2.21245 -3.77319 0
M  V30 5071 C 465.546 3.37104 -4.04039 0
M  V30 5072 O 464.572 3.14468 -4.74445 0
M  V30 5073 N 465.774 4.60553 -3.53372 0
M  V30 5074 H 468.539 0.578746 -2.94059 0
M  V30 5075 H 466.1 0.168603 -1.6102 0
M  V30 5076 H 468.092 3.08887 -2.61478 0
M  V30 5077 H 466.662 2.65931 -1.64315 0
M  V30 5078 H 465.882 1.29723 -3.72244 0
M  V30 5079 H 467.17 2.10868 -4.63047 0
M  V30 5080 H 466.568 4.81839 -2.96391 0
M  V30 5081 H 465.125 5.34072 -3.73644 0
M  V30 5082 N 468.558 1.5553 0.254621 0
M  V30 5083 C 469.506 1.9048 1.33492 0
M  V30 5084 C 470.5 0.78304 1.50216 0
M  V30 5085 O 471.706 0.967582 1.51782 0
M  V30 5086 H 468.081 0.604846 0.44684 0
M  V30 5087 H 470.052 2.80688 1.01275 0
M  V30 5088 C 468.801 2.20928 2.68489 0
M  V30 5089 H 468.124 3.06742 2.56417 0
M  V30 5090 H 469.564 2.49291 3.42972 0
M  V30 5091 C 468.023 1.023 3.20993 0
M  V30 5092 O 468.553 0.267027 4.00811 0
M  V30 5093 N 466.759 0.815714 2.78917 0
M  V30 5094 H 466.306 1.43217 2.14119 0
M  V30 5095 H 466.264 0.0236532 3.14391 0
M  V30 5096 N 470.036 -0.519951 1.48776 0
M  V30 5097 C 471.452 -0.849418 1.35119 0
M  V30 5098 C 471.652 -1.98077 0.36982 0
M  V30 5099 O 470.708 -2.51664 -0.205359 0
M  V30 5100 C 472.021 -1.20748 2.75391 0
M  V30 5101 C 473.569 -1.31679 2.83954 0
M  V30 5102 C 474.044 -1.70824 4.24951 0
M  V30 5103 N 475.535 -1.77908 4.27672 0
M  V30 5104 C 476.27 -2.09603 5.33717 0
M  V30 5105 N 475.766 -2.39652 6.5003 0
M  V30 5106 N 477.559 -2.10694 5.21119 0
M  V30 5107 H 469.71 0.226377 2.1119 0
M  V30 5108 H 471.973 0.0386519 0.947212 0
M  V30 5109 H 471.679 -0.449703 3.48813 0
M  V30 5110 H 471.553 -2.15534 3.09556 0
M  V30 5111 H 473.94 -2.06532 2.10781 0
M  V30 5112 H 474.021 -0.3499 2.53396 0
M  V30 5113 H 473.665 -0.965282 4.98643 0
M  V30 5114 H 473.595 -2.6858 4.52959 0
M  V30 5115 H 476.086 -1.56923 3.43779 0
M  V30 5116 H 476.399 -2.6297 7.26682 0
M  V30 5117 H 474.744 -2.37149 6.53288 0
M  V30 5118 H 477.935 -1.86682 4.29264 0
M  V30 5119 H 478.108 -2.35062 6.03863 0
M  V30 5120 N 471.514 -1.37532 -0.769588 0
M  V30 5121 C 472.447 -1.27839 -1.8903 0
M  V30 5122 C 473.425 -0.158504 -1.61826 0
M  V30 5123 O 474.609 -0.333086 -1.85534 0
M  V30 5124 C 471.736 -0.977072 -3.24301 0
M  V30 5125 C 470.782 -2.11414 -3.70414 0
M  V30 5126 S 471.615 -3.73409 -3.83831 0
M  V30 5127 C 472.771 -3.45432 -5.21946 0
M  V30 5128 H 473.004 -2.22694 -1.96963 0
M  V30 5129 H 470.537 -1.2318 -0.930914 0
M  V30 5130 H 472.495 -0.810049 -4.02428 0
M  V30 5131 H 471.156 -0.0459701 -3.14066 0
M  V30 5132 H 470.349 -1.85837 -4.68488 0
M  V30 5133 H 469.951 -2.24141 -2.99394 0
M  V30 5134 H 472.243 -3.00554 -6.07185 0
M  V30 5135 H 473.186 -4.42841 -5.52537 0
M  V30 5136 H 473.594 -2.80311 -4.89986 0
M  V30 5137 N 472.992 0.995999 -1.22138 0
M  V30 5138 C 474.24 1.73167 -1.042 0
M  V30 5139 C 474.561 1.90329 0.42423 0
M  V30 5140 O 473.831 1.4607 1.30539 0
M  V30 5141 H 472.411 0.641593 -0.38258 0
M  V30 5142 H 475.073 1.19974 -1.53598 0
M  V30 5143 H 474.169 2.72734 -1.51731 0
M  V30 5144 N 474.47 1.03057 1.19235 0
M  V30 5145 C 475.402 0.570932 2.21975 0
M  V30 5146 C 476.415 -0.354088 1.58903 0
M  V30 5147 O 477.604 -0.150211 1.77867 0
M  V30 5148 C 474.704 -0.187152 3.38383 0
M  V30 5149 C 473.877 0.743231 4.31039 0
M  V30 5150 C 472.936 0.0302493 5.26191 0
M  V30 5151 O 471.962 0.657371 5.65391 0
M  V30 5152 N 473.164 -1.23991 5.67104 0
M  V30 5153 H 475.929 1.45456 2.62036 0
M  V30 5154 H 473.49 0.909807 1.33918 0
M  V30 5155 H 475.482 -0.673715 3.99053 0
M  V30 5156 H 474.052 -0.972205 2.97098 0
M  V30 5157 H 473.272 1.40985 3.68126 0
M  V30 5158 H 474.56 1.3755 4.89854 0
M  V30 5159 H 473.958 -1.77011 5.37293 0
M  V30 5160 H 472.515 -1.67093 6.30018 0
M  V30 5161 N 475.948 -1.35272 0.808662 0
M  V30 5162 C 476.911 -2.28082 0.226093 0
M  V30 5163 C 477.911 -1.49673 -0.587762 0
M  V30 5164 O 479.101 -1.69404 -0.405943 0
M  V30 5165 C 476.233 -3.33955 -0.684596 0
M  V30 5166 H 477.426 -2.81116 1.04469 0
M  V30 5167 H 474.979 -1.45162 0.579466 0
M  V30 5168 H 475.714 -2.86111 -1.5268 0
M  V30 5169 H 475.499 -3.91965 -0.102699 0
M  V30 5170 H 476.989 -4.03219 -1.08646 0
M  V30 5171 N 477.426 -0.562348 -1.47226 0
M  V30 5172 C 478.674 -0.0401371 -2.0206 0
M  V30 5173 C 478.995 1.3165 -1.43852 0
M  V30 5174 O 478.265 1.85976 -0.615599 0
M  V30 5175 H 476.845 -0.0118479 -0.746906 0
M  V30 5176 H 479.507 -0.73352 -1.8057 0
M  V30 5177 H 478.603 0.0441254 -3.12069 0
M  V30 5178 N 478.904 1.54736 -0.299062 0
M  V30 5179 C 480.129 2.04975 0.316254 0
M  V30 5180 C 480.554 1.17501 1.46885 0
M  V30 5181 O 479.912 0.178678 1.80417 0
M  V30 5182 C 479.96 3.52672 0.751997 0
M  V30 5183 O 479.064 3.68226 1.85697 0
M  V30 5184 H 478.405 0.661126 0.0617175 0
M  V30 5185 H 480.935 1.99805 -0.440341 0
M  V30 5186 H 480.945 3.94488 1.04133 0
M  V30 5187 H 479.62 4.158 -0.0911482 0
M  V30 5188 H 478.197 3.38316 1.56834 0
M  V30 5189 N 480.382 0.0267497 1.57577 0
M  V30 5190 C 481.61 -0.662661 1.96001 0
M  V30 5191 C 482.025 -1.65799 0.903117 0
M  V30 5192 O 481.382 -1.82135 -0.115317 0
M  V30 5193 C 481.433 -1.37112 3.34488 0
M  V30 5194 O 481.154 -0.415683 4.36123 0
M  V30 5195 C 482.655 -2.15257 3.8753 0
M  V30 5196 H 479.875 -0.18287 0.6456 0
M  V30 5197 H 482.419 0.0858116 2.0432 0
M  V30 5198 H 480.574 -2.07101 3.27395 0
M  V30 5199 H 480.988 -0.918496 5.16395 0
M  V30 5200 H 482.462 -2.60285 4.86781 0
M  V30 5201 H 482.939 -2.99063 3.21649 0
M  V30 5202 H 483.545 -1.50231 3.97883 0
M  V30 5203 N 481.861 -1.55662 -0.24637 0
M  V30 5204 C 483.11 -1.7672 -0.972254 0
M  V30 5205 C 483.423 -0.59078 -1.86465 0
M  V30 5206 O 484.629 -0.684391 -2.62732 0
M  V30 5207 C 483.085 -3.12869 -1.7788 0
M  V30 5208 C 482.693 -4.38161 -0.933768 0
M  V30 5209 C 484.437 -3.43265 -2.49738 0
M  V30 5210 C 482.344 -5.6534 -1.73623 0
M  V30 5211 H 481.274 -0.658795 -0.366749 0
M  V30 5212 H 483.925 -1.82092 -0.226902 0
M  V30 5213 H 482.307 -3.01606 -2.56612 0
M  V30 5214 H 483.481 -4.60413 -0.188736 0
M  V30 5215 H 481.796 -4.15102 -0.328488 0
M  V30 5216 H 484.393 -4.35501 -3.10231 0
M  V30 5217 H 484.736 -2.64614 -3.2138 0
M  V30 5218 H 485.269 -3.55746 -1.78016 0
M  V30 5219 H 482.008 -6.46814 -1.06354 0
M  V30 5220 H 481.528 -5.47188 -2.45653 0
M  V30 5221 H 483.207 -6.04616 -2.30323 0
M  V30 5222 N 483.339 0.512053 -1.4905 0
M  V30 5223 C 484.564 1.2959 -1.6193 0
M  V30 5224 C 484.989 1.85906 -0.286454 0
M  V30 5225 O 484.347 1.65312 0.744426 0
M  V30 5226 C 484.395 2.40987 -2.68249 0
M  V30 5227 O 483.499 3.44531 -2.26654 0
M  V30 5228 H 482.84 0.383053 -0.542371 0
M  V30 5229 H 485.37 0.614231 -1.95162 0
M  V30 5230 H 485.38 2.86913 -2.90078 0
M  V30 5231 H 484.055 1.99361 -3.65004 0
M  V30 5232 H 482.632 3.046 -2.15112 0
M  V30 5233 N 484.817 1.37938 0.762283 0
M  V30 5234 C 485.765 1.34569 1.89721 0
M  V30 5235 C 486.759 0.232929 1.67791 0
M  V30 5236 O 487.965 0.401485 1.75465 0
M  V30 5237 H 484.34 0.419594 0.624055 0
M  V30 5238 H 486.311 2.30357 1.8968 0
M  V30 5239 C 485.06 1.17898 3.27101 0
M  V30 5240 H 484.383 2.02781 3.44558 0
M  V30 5241 H 485.823 1.19593 4.06784 0
M  V30 5242 C 484.282 -0.114728 3.36705 0
M  V30 5243 O 484.812 -1.0949 3.8649 0
M  V30 5244 N 483.018 -0.16863 2.9011 0
M  V30 5245 H 482.565 0.62967 2.49786 0
M  V30 5246 H 482.523 -1.03383 2.96916 0
M  V30 5247 N 486.295 -0.989507 1.22664 0
M  V30 5248 C 487.52 -1.77031 1.08051 0
M  V30 5249 C 487.945 -1.84535 -0.364483 0
M  V30 5250 O 487.303 -1.3003 -1.2634 0
M  V30 5251 C 487.351 -3.18 1.70024 0
M  V30 5252 O 486.455 -4.01161 0.956216 0
M  V30 5253 H 485.796 -0.545008 0.379292 0
M  V30 5254 H 488.326 -1.24277 1.62531 0
M  V30 5255 H 488.336 -3.68616 1.74888 0
M  V30 5256 H 487.011 -3.11853 2.75174 0
M  V30 5257 H 485.588 -3.59687 0.98384 0
M  V30 5258 N 487.773 -1.03688 -1.18687 0
M  V30 5259 C 488.723 -0.595067 -2.20098 0
M  V30 5260 C 489.707 0.360465 -1.5681 0
M  V30 5261 O 490.899 0.180136 -1.76081 0
M  V30 5262 C 488.028 0.0444495 -3.43271 0
M  V30 5263 C 487.114 -0.934002 -4.13687 0
M  V30 5264 N 487.505 -2.09957 -4.60165 0
M  V30 5265 C 485.803 -0.759177 -4.39491 0
M  V30 5266 C 486.504 -2.71735 -5.1433 0
M  V30 5267 N 485.48 -1.99638 -5.05614 0
M  V30 5268 H 489.282 -1.48336 -2.5372 0
M  V30 5269 H 486.796 -0.904949 -1.3485 0
M  V30 5270 H 488.793 0.37864 -4.15177 0
M  V30 5271 H 487.453 0.928325 -3.11147 0
M  V30 5272 H 488.464 -2.47863 -4.54735 0
M  V30 5273 H 485.141 0.0749292 -4.17433 0
M  V30 5274 H 486.531 -3.70492 -5.60523 0
M  V30 5275 N 489.251 1.34841 -0.815825 0
M  V30 5276 C 490.214 2.27959 -0.238185 0
M  V30 5277 C 491.214 1.49983 0.579816 0
M  V30 5278 O 492.404 1.69617 0.396953 0
M  V30 5279 C 489.536 3.34314 0.666876 0
M  V30 5280 H 490.729 2.80558 -1.05958 0
M  V30 5281 H 488.282 1.44852 -0.587156 0
M  V30 5282 H 489.017 2.86916 1.5116 0
M  V30 5283 H 488.802 3.92014 0.0819106 0
M  V30 5284 H 490.292 4.0379 1.06506 0
M  V30 5285 N 490.729 0.570148 1.46925 0
M  V30 5286 C 491.661 -0.207909 2.28255 0
M  V30 5287 C 492.674 -0.867301 1.37774 0
M  V30 5288 O 493.863 -0.738976 1.62485 0
M  V30 5289 C 490.963 -1.31298 3.12433 0
M  V30 5290 C 490.136 -0.747915 4.30958 0
M  V30 5291 C 489.195 -1.7391 4.9663 0
M  V30 5292 O 488.221 -1.2801 5.54619 0
M  V30 5293 N 489.423 -3.07288 4.92498 0
M  V30 5294 H 492.188 0.489794 2.95671 0
M  V30 5295 H 489.749 0.407076 1.56699 0
M  V30 5296 H 491.741 -1.97507 3.53232 0
M  V30 5297 H 490.311 -1.91373 2.47175 0
M  V30 5298 H 489.531 0.0913066 3.94094 0
M  V30 5299 H 490.819 -0.349958 5.07595 0
M  V30 5300 H 490.217 -3.47213 4.46609 0
M  V30 5301 H 488.774 -3.69021 5.37277 0
M  V30 5302 N 492.207 -1.54576 0.307264 0
M  V30 5303 C 493.618 -1.8579 -0.184121 0
M  V30 5304 C 493.969 -1.22914 -1.52927 0
M  V30 5305 O 493.094 -0.529126 -2.09831 0
M  V30 5306 C 493.689 -3.37081 -0.340862 0
M  V30 5307 C 492.248 -3.68304 -0.776465 0
M  V30 5308 C 491.395 -2.77076 0.111503 0
M  V30 5309 H 494.346 -1.49656 0.528078 0
M  V30 5310 H 494.367 -3.61922 -1.17443 0
M  V30 5311 H 493.879 -3.82815 0.638309 0
M  V30 5312 H 491.98 -3.28092 -1.76596 0
M  V30 5313 H 492.093 -4.75434 -0.591512 0
M  V30 5314 H 490.457 -2.51374 -0.410256 0
M  V30 5315 H 491.24 -3.25632 1.08714 0
M  V30 5316 N 493.685 -0.035106 -1.57561 0
M  V30 5317 C 494.932 0.642229 -1.92046 0
M  V30 5318 C 495.26 1.7179 -0.91206 0
M  V30 5319 O 494.515 1.95544 0.0781153 0
M  V30 5320 C 494.814 1.29149 -3.3325 0
M  V30 5321 C 494.48 0.345604 -4.49574 0
M  V30 5322 C 493.142 0.0852775 -4.81124 0
M  V30 5323 C 495.494 -0.303569 -5.20315 0
M  V30 5324 C 492.822 -0.831927 -5.80772 0
M  V30 5325 C 495.174 -1.20886 -6.20942 0
M  V30 5326 C 493.838 -1.47802 -6.50931 0
M  V30 5327 H 493.108 0.235008 -0.702746 0
M  V30 5328 H 495.755 -0.0981529 -1.91248 0
M  V30 5329 H 494.06 2.10676 -3.30337 0
M  V30 5330 H 495.757 1.82223 -3.57205 0
M  V30 5331 H 492.347 0.558683 -4.24943 0
M  V30 5332 H 496.531 -0.115515 -4.96166 0
M  V30 5333 H 491.787 -1.0481 -6.02349 0
M  V30 5334 H 495.961 -1.71804 -6.74875 0
M  V30 5335 H 493.588 -2.19039 -7.2796 0
M  V30 5336 N 495.163 1.55791 0.238111 0
M  V30 5337 C 496.44 1.68798 0.98826 0
M  V30 5338 C 496.82 0.577562 2.03045 0
M  V30 5339 O 496.168 -0.41778 2.24648 0
M  V30 5340 C 496.378 3.09454 1.61367 0
M  V30 5341 C 497.726 3.68335 2.11221 0
M  V30 5342 O 498.75 3.1231 1.71292 0
M  V30 5343 O 497.609 4.6657 2.84561 0
M  V30 5344 H 494.703 0.686881 0.460568 0
M  V30 5345 H 497.249 1.68118 0.231202 0
M  V30 5346 H 496.021 3.81726 0.860295 0
M  V30 5347 H 495.644 3.14182 2.4367 0
M  V30 5348 N 496.642 -0.504142 1.49319 0
M  V30 5349 C 497.889 -1.25846 1.58647 0
M  V30 5350 C 498.217 -1.92592 0.27177 0
M  V30 5351 O 497.472 -1.81167 -0.74007 0
M  V30 5352 C 497.771 -2.35021 2.69258 0
M  V30 5353 C 497.437 -1.85755 4.1086 0
M  V30 5354 C 496.099 -1.72038 4.49395 0
M  V30 5355 C 498.451 -1.48844 4.99495 0
M  V30 5356 C 495.779 -1.19783 5.74342 0
M  V30 5357 C 498.131 -0.980422 6.24956 0
M  V30 5358 C 496.795 -0.829622 6.62324 0
M  V30 5359 H 496.065 -0.460505 0.580531 0
M  V30 5360 H 498.712 -0.559716 1.83138 0
M  V30 5361 H 497.017 -3.10672 2.38726 0
M  V30 5362 H 498.714 -2.93083 2.73685 0
M  V30 5363 H 495.304 -1.9739 3.80441 0
M  V30 5364 H 499.488 -1.5829 4.70381 0
M  V30 5365 H 494.744 -1.06817 6.01997 0
M  V30 5366 H 498.918 -0.685608 6.93017 0
M  V30 5367 H 496.545 -0.42253 7.59025 0
M  V30 5368 N 498.12 -1.38341 -0.754957 0
M  V30 5369 C 499.531 -1.30803 -1.3322 0
M  V30 5370 C 499.882 0.0368 -1.96165 0
M  V30 5371 O 499.007 0.938844 -1.94974 0
M  V30 5372 C 499.602 -2.3688 -2.42225 0
M  V30 5373 C 498.161 -2.32925 -2.95674 0
M  V30 5374 C 497.308 -2.19819 -1.69042 0
M  V30 5375 H 500.259 -1.48719 -0.553937 0
M  V30 5376 H 500.28 -2.02517 -3.22129 0
M  V30 5377 H 499.792 -3.34747 -1.96383 0
M  V30 5378 H 497.893 -1.38635 -3.45848 0
M  V30 5379 H 498.006 -3.27008 -3.50146 0
M  V30 5380 H 496.37 -1.66648 -1.92615 0
M  V30 5381 H 497.153 -3.19625 -1.25279 0
M  V30 5382 N 499.598 0.982988 -1.23187 0
M  V30 5383 C 500.875 1.69814 -0.970707 0
M  V30 5384 C 501.255 2.04811 0.511424 0
M  V30 5385 O 500.603 1.73924 1.48198 0
M  V30 5386 C 500.813 2.94143 -1.87831 0
M  V30 5387 C 502.161 3.66712 -2.14026 0
M  V30 5388 O 503.185 3.04171 -1.8536 0
M  V30 5389 O 502.044 4.79258 -2.62629 0
M  V30 5390 H 499.138 0.741659 -0.365884 0
M  V30 5391 H 501.684 1.03844 -1.34218 0
M  V30 5392 H 500.456 2.64858 -2.88038 0
M  V30 5393 H 500.079 3.6785 -1.50905 0
M  V30 5394 N 501.076 1.04316 1.18135 0
M  V30 5395 C 502.353 0.662166 1.84051 0
M  V30 5396 C 502.733 -0.858169 1.9287 0
M  V30 5397 O 502.081 -1.76062 1.45652 0
M  V30 5398 C 502.291 1.3409 3.22212 0
M  V30 5399 C 503.639 1.4733 3.9822 0
M  V30 5400 O 504.663 1.29921 3.31661 0
M  V30 5401 O 503.522 1.75722 5.17479 0
M  V30 5402 H 500.616 0.232005 0.79379 0
M  V30 5403 H 503.162 1.1422 1.25506 0
M  V30 5404 H 501.934 2.37853 3.10711 0
M  V30 5405 H 501.557 0.849649 3.88416 0
M  V30 5406 N 502.554 -1.34406 0.822964 0
M  V30 5407 C 503.502 -2.31428 0.233165 0
M  V30 5408 C 504.496 -1.57404 -0.626118 0
M  V30 5409 O 505.702 -1.72402 -0.517453 0
M  V30 5410 H 502.077 -0.749863 0.0566557 0
M  V30 5411 H 504.048 -2.78699 1.06628 0
M  V30 5412 C 502.797 -3.42653 -0.590264 0
M  V30 5413 H 502.12 -3.99753 0.0616129 0
M  V30 5414 H 503.56 -4.12778 -0.969054 0
M  V30 5415 C 502.019 -2.87112 -1.76262 0
M  V30 5416 O 502.549 -2.81995 -2.8608 0
M  V30 5417 N 500.755 -2.43934 -1.57938 0
M  V30 5418 H 500.302 -2.48296 -0.686078 0
M  V30 5419 H 500.26 -2.07123 -2.36532 0
M  V30 5420 N 504.032 -0.577932 -1.46621 0
M  V30 5421 C 504.964 0.195801 -2.28362 0
M  V30 5422 C 505.977 0.859983 -1.38232 0
M  V30 5423 O 507.166 0.730349 -1.62875 0
M  V30 5424 C 504.266 1.29639 -3.13124 0
M  V30 5425 C 503.439 0.725049 -4.31349 0
M  V30 5426 C 502.498 1.71274 -4.97546 0
M  V30 5427 O 501.524 1.25067 -5.5529 0
M  V30 5428 N 502.726 3.04672 -4.94121 0
M  V30 5429 H 505.491 -0.505468 -2.95407 0
M  V30 5430 H 503.052 -0.415381 -1.56481 0
M  V30 5431 H 505.044 1.95631 -3.54275 0
M  V30 5432 H 503.614 1.90059 -2.48186 0
M  V30 5433 H 502.834 -0.112205 -3.9404 0
M  V30 5434 H 504.122 0.323034 -5.07774 0
M  V30 5435 H 503.52 3.4484 -4.48444 0
M  V30 5436 H 502.077 3.66166 -5.39227 0
M  V30 5437 N 505.51 1.54411 -0.315457 0
M  V30 5438 C 506.458 2.25514 0.569771 0
M  V30 5439 C 507.452 1.2663 1.12522 0
M  V30 5440 O 508.658 1.44434 1.07419 0
M  V30 5441 H 505.033 0.724257 0.202376 0
M  V30 5442 H 507.004 2.98354 -0.0522895 0
M  V30 5443 C 505.753 3.02004 1.72305 0
M  V30 5444 H 505.076 3.77906 1.30488 0
M  V30 5445 H 506.516 3.55014 2.31821 0
M  V30 5446 C 504.975 2.09822 2.63583 0
M  V30 5447 O 505.505 1.67574 3.65078 0
M  V30 5448 N 503.711 1.75478 2.31637 0
M  V30 5449 H 503.258 2.10032 1.49145 0
M  V30 5450 H 503.216 1.14079 2.92973 0
M  V30 5451 N 506.988 0.0434614 1.5754 0
M  V30 5452 C 508.213 -0.645358 1.97104 0
M  V30 5453 C 508.638 -1.64037 0.920521 0
M  V30 5454 O 507.996 -1.80922 -0.11708 0
M  V30 5455 C 508.044 -1.31547 3.35749 0
M  V30 5456 O 507.148 -2.43103 3.33129 0
M  V30 5457 H 506.489 -0.168403 0.64229 0
M  V30 5458 H 509.019 0.109573 2.04306 0
M  V30 5459 H 509.029 -1.66895 3.72304 0
M  V30 5460 H 507.704 -0.586205 4.11748 0
M  V30 5461 H 506.281 -2.0976 3.0831 0
M  V30 5462 N 508.466 -1.55915 -0.229846 0
M  V30 5463 C 509.413 -1.91734 -1.28478 0
M  V30 5464 C 510.383 -0.773539 -1.46988 0
M  V30 5465 O 511.568 -1.02871 -1.60693 0
M  V30 5466 C 508.708 -2.23224 -2.63182 0
M  V30 5467 C 507.821 -3.50497 -2.52539 0
M  V30 5468 C 506.956 -3.71474 -3.79711 0
M  V30 5469 C 505.995 -4.92289 -3.63755 0
M  V30 5470 N 505.132 -5.09698 -4.82858 0
M  V30 5471 H 509.972 -2.81692 -0.972308 0
M  V30 5472 H 507.509 -1.39429 -0.468815 0
M  V30 5473 H 509.467 -2.3949 -3.41614 0
M  V30 5474 H 508.097 -1.36451 -2.92542 0
M  V30 5475 H 507.149 -3.4247 -1.65585 0
M  V30 5476 H 508.461 -4.39079 -2.36666 0
M  V30 5477 H 507.615 -3.87791 -4.66586 0
M  V30 5478 H 506.354 -2.81157 -3.985 0
M  V30 5479 H 505.359 -4.7593 -2.75264 0
M  V30 5480 H 506.584 -5.84083 -3.46445 0
M  V30 5481 H 504.53 -4.22322 -5.01976 0
M  V30 5482 H 504.447 -5.92399 -4.69681 0
M  V30 5483 H 505.715 -5.30443 -5.71183 0
M  V30 5484 N 509.944 0.496216 -1.49584 0
M  V30 5485 C 510.891 1.59722 -1.66606 0
M  V30 5486 C 511.861 1.58158 -0.507477 0
M  V30 5487 O 513.046 1.76072 -0.735076 0
M  V30 5488 C 510.186 2.97844 -1.74308 0
M  V30 5489 C 509.299 3.09388 -3.01502 0
M  V30 5490 C 508.434 4.38271 -3.00153 0
M  V30 5491 C 507.473 4.43466 -4.21906 0
M  V30 5492 N 506.61 5.63784 -4.1844 0
M  V30 5493 H 511.45 1.44515 -2.60613 0
M  V30 5494 H 508.987 0.703048 -1.29212 0
M  V30 5495 H 510.945 3.77907 -1.76754 0
M  V30 5496 H 509.575 3.11743 -0.837619 0
M  V30 5497 H 508.627 2.22357 -3.08645 0
M  V30 5498 H 509.939 3.09085 -3.91494 0
M  V30 5499 H 509.093 5.2666 -3.01188 0
M  V30 5500 H 507.832 4.41146 -2.07947 0
M  V30 5501 H 506.837 3.53478 -4.21109 0
M  V30 5502 H 508.062 4.42303 -5.1531 0
M  V30 5503 H 506.008 5.67491 -3.29074 0
M  V30 5504 H 505.925 5.65118 -5.02173 0
M  V30 5505 H 507.193 6.54367 -4.23585 0
M  V30 5506 N 511.423 1.38739 0.74761 0
M  V30 5507 C 512.353 1.39173 1.87492 0
M  V30 5508 C 513.334 0.256794 1.6815 0
M  V30 5509 O 514.519 0.460762 1.88655 0
M  V30 5510 C 511.649 1.22197 3.25093 0
M  V30 5511 C 510.603 2.32957 3.59047 0
M  V30 5512 C 509.929 2.01082 4.95449 0
M  V30 5513 C 511.229 3.75237 3.6331 0
M  V30 5514 H 512.923 2.3351 1.87386 0
M  V30 5515 H 510.469 1.12399 0.900134 0
M  V30 5516 H 512.422 1.21124 4.03617 0
M  V30 5517 H 511.146 0.243241 3.25693 0
M  V30 5518 H 509.805 2.33226 2.82845 0
M  V30 5519 H 509.453 1.01678 4.92616 0
M  V30 5520 H 509.153 2.75267 5.19136 0
M  V30 5521 H 510.677 2.01638 5.76346 0
M  V30 5522 H 512.091 3.76966 4.31937 0
M  V30 5523 H 510.488 4.48677 3.98509 0
M  V30 5524 H 511.558 4.07122 2.634 0
M  V30 5525 N 512.901 -0.976442 1.23707 0
M  V30 5526 C 513.864 -2.0511 1.02287 0
M  V30 5527 C 514.864 -1.60791 -0.0167195 0
M  V30 5528 O 516.054 -1.72761 0.223408 0
M  V30 5529 C 513.186 -3.36458 0.548507 0
M  V30 5530 H 514.379 -2.25545 1.9766 0
M  V30 5531 H 511.932 -1.15042 1.05806 0
M  V30 5532 H 512.667 -3.21713 -0.408818 0
M  V30 5533 H 512.452 -3.69967 1.29874 0
M  V30 5534 H 513.942 -4.15489 0.419406 0
M  V30 5535 N 514.379 -1.04941 -1.1758 0
M  V30 5536 C 515.342 -0.652456 -2.19717 0
M  V30 5537 C 516.342 0.294745 -1.58076 0
M  V30 5538 O 517.532 0.0789579 -1.74021 0
M  V30 5539 C 514.664 0.0420712 -3.40874 0
M  V30 5540 H 515.857 -1.55642 -2.5635 0
M  V30 5541 H 513.41 -0.842995 -1.31618 0
M  V30 5542 H 514.145 0.95943 -3.09783 0
M  V30 5543 H 513.93 -0.638844 -3.86861 0
M  V30 5544 H 515.42 0.306 -4.16477 0
M  V30 5545 N 515.857 1.33968 -0.830081 0
M  V30 5546 C 517.105 1.97672 -0.420734 0
M  V30 5547 C 517.426 1.66111 1.02138 0
M  V30 5548 O 516.696 0.955503 1.71017 0
M  V30 5549 H 515.276 0.73125 -0.152587 0
M  V30 5550 H 517.938 1.63483 -1.0611 0
M  V30 5551 H 517.034 3.07294 -0.545588 0
M  V30 5552 N 517.335 0.585699 1.46312 0
M  V30 5553 C 518.285 -0.166813 2.27389 0
M  V30 5554 C 519.269 -0.859076 1.36047 0
M  V30 5555 O 520.461 -0.752678 1.60199 0
M  V30 5556 C 517.59 -1.17791 3.2246 0
M  V30 5557 C 516.676 -0.487605 4.21288 0
M  V30 5558 N 517.067 0.45849 5.03718 0
M  V30 5559 C 515.365 -0.737971 4.39852 0
M  V30 5560 C 516.066 0.862213 5.75275 0
M  V30 5561 N 515.042 0.210707 5.43191 0
M  V30 5562 H 518.844 0.560167 2.88512 0
M  V30 5563 H 516.358 0.407715 1.57199 0
M  V30 5564 H 518.355 -1.73122 3.79255 0
M  V30 5565 H 517.015 -1.90568 2.62896 0
M  V30 5566 H 518.026 0.834163 5.11138 0
M  V30 5567 H 514.703 -1.45209 3.91434 0
M  V30 5568 H 516.093 1.64128 6.51546 0
M  V30 5569 N 518.813 -1.54241 0.323641 0
M  V30 5570 C 519.723 -2.28033 -0.551205 0
M  V30 5571 C 520.739 -1.32388 -1.12913 0
M  V30 5572 O 521.915 -1.65403 -1.14908 0
M  V30 5573 C 518.98 -3.02382 -1.69606 0
M  V30 5574 C 518.041 -4.13612 -1.14993 0
M  V30 5575 C 517.274 -4.84407 -2.24022 0
M  V30 5576 O 517.497 -4.54716 -3.44368 0
M  V30 5577 O 516.431 -5.71312 -1.89436 0
M  V30 5578 H 520.257 -3.03662 0.048066 0
M  V30 5579 H 517.842 -1.49133 0.0893289 0
M  V30 5580 H 519.724 -3.48941 -2.36259 0
M  V30 5581 H 518.399 -2.29628 -2.28151 0
M  V30 5582 H 517.306 -3.71402 -0.448484 0
M  V30 5583 H 518.639 -4.8841 -0.609608 0
M  V30 5584 N 520.291 -0.0518155 -1.57515 0
M  V30 5585 C 521.221 0.920283 -2.146 0
M  V30 5586 C 522.202 1.32406 -1.06783 0
M  V30 5587 O 523.387 1.39866 -1.34726 0
M  V30 5588 C 520.517 2.1949 -2.6915 0
M  V30 5589 C 519.471 1.93116 -3.81956 0
M  V30 5590 C 518.797 3.27037 -4.23026 0
M  V30 5591 C 520.097 1.25225 -5.07066 0
M  V30 5592 H 521.791 0.444801 -2.96077 0
M  V30 5593 H 519.337 0.212508 -1.42423 0
M  V30 5594 H 521.29 2.87894 -3.07725 0
M  V30 5595 H 520.014 2.69244 -1.84865 0
M  V30 5596 H 518.673 1.27123 -3.43854 0
M  V30 5597 H 518.321 3.74595 -3.3569 0
M  V30 5598 H 518.021 3.10189 -4.99056 0
M  V30 5599 H 519.545 3.96673 -4.64202 0
M  V30 5600 H 520.959 1.83666 -5.43083 0
M  V30 5601 H 519.356 1.18702 -5.88243 0
M  V30 5602 H 520.426 0.228382 -4.84362 0
M  V30 5603 N 521.769 1.56035 0.221574 0
M  V30 5604 C 522.701 1.889 1.29805 0
M  V30 5605 C 523.714 0.777269 1.43047 0
M  V30 5606 O 524.903 1.05557 1.43945 0
M  V30 5607 C 522.003 2.0825 2.67367 0
M  V30 5608 C 521.176 3.39267 2.76073 0
M  V30 5609 C 520.235 3.48049 3.94649 0
M  V30 5610 O 519.261 4.2108 3.82988 0
M  V30 5611 N 520.463 2.79191 5.08953 0
M  V30 5612 H 523.228 2.81831 1.01938 0
M  V30 5613 H 520.789 1.5658 0.411612 0
M  V30 5614 H 522.781 2.11441 3.45072 0
M  V30 5615 H 521.351 1.21944 2.87834 0
M  V30 5616 H 520.571 3.48175 1.84846 0
M  V30 5617 H 521.859 4.25575 2.7886 0
M  V30 5618 H 521.257 2.19635 5.21322 0
M  V30 5619 H 519.814 2.88043 5.84701 0
M  V30 5620 N 523.247 -0.488276 1.49845 0
M  V30 5621 C 524.658 -1.06955 1.53028 0
M  V30 5622 C 525.009 -1.9351 0.323797 0
M  V30 5623 O 524.134 -2.08891 -0.565116 0
M  V30 5624 C 524.729 -1.94643 2.77307 0
M  V30 5625 C 523.288 -2.4791 2.83227 0
M  V30 5626 C 522.435 -1.25833 2.47106 0
M  V30 5627 H 525.386 -0.271626 1.56358 0
M  V30 5628 H 525.407 -2.79496 2.5819 0
M  V30 5629 H 524.919 -1.31621 3.65099 0
M  V30 5630 H 523.02 -3.14535 1.99745 0
M  V30 5631 H 523.133 -2.84193 3.85709 0
M  V30 5632 H 521.497 -1.58764 1.99163 0
M  V30 5633 H 522.28 -0.644993 3.37186 0
M  V30 5634 N 524.725 -1.39134 -0.740242 0
M  V30 5635 C 525.655 -1.40165 -1.86751 0
M  V30 5636 C 526.636 -0.265708 -1.68012 0
M  V30 5637 O 527.821 -0.47076 -1.88408 0
M  V30 5638 C 524.951 -1.2392 -3.2444 0
M  V30 5639 C 523.905 -2.34858 -3.57807 0
M  V30 5640 C 523.231 -2.03707 -4.94376 0
M  V30 5641 C 524.531 -3.77159 -3.61315 0
M  V30 5642 H 526.225 -2.345 -1.86145 0
M  V30 5643 H 523.771 -1.12875 -0.89416 0
M  V30 5644 H 525.724 -1.23263 -4.02969 0
M  V30 5645 H 524.448 -0.26051 -3.25559 0
M  V30 5646 H 523.107 -2.34723 -2.81604 0
M  V30 5647 H 522.755 -1.04289 -4.9207 0
M  V30 5648 H 522.455 -2.78016 -5.17669 0
M  V30 5649 H 523.979 -2.04691 -5.75268 0
M  V30 5650 H 525.393 -3.79252 -4.29931 0
M  V30 5651 H 523.79 -4.50784 -3.96124 0
M  V30 5652 H 524.86 -4.08513 -2.61238 0
M  V30 5653 N 526.204 0.969867 -1.24223 0
M  V30 5654 C 527.167 2.04564 -1.03373 0
M  V30 5655 C 528.167 1.60798 0.00819206 0
M  V30 5656 O 529.357 1.72641 -0.232567 0
M  V30 5657 C 526.489 3.36163 -0.566343 0
M  V30 5658 H 527.682 2.24494 -1.98853 0
M  V30 5659 H 525.235 1.1448 -1.06415 0
M  V30 5660 H 525.97 3.21925 0.391751 0
M  V30 5661 H 525.755 3.69273 -1.31834 0
M  V30 5662 H 527.245 4.1526 -0.441435 0
M  V30 5663 N 527.682 1.05563 1.17022 0
M  V30 5664 C 528.931 0.763036 1.8671 0
M  V30 5665 C 529.244 -0.712857 1.82147 0
M  V30 5666 O 530.45 -1.11955 2.47343 0
M  V30 5667 C 528.906 1.31474 3.35026 0
M  V30 5668 C 528.514 2.82034 3.48081 0
M  V30 5669 C 530.258 1.09935 4.10018 0
M  V30 5670 C 528.165 3.30486 4.90442 0
M  V30 5671 H 527.095 0.281747 0.699382 0
M  V30 5672 H 529.746 1.2734 1.32124 0
M  V30 5673 H 528.128 0.732171 3.89173 0
M  V30 5674 H 529.302 3.46178 3.04133 0
M  V30 5675 H 527.617 3.02156 2.86515 0
M  V30 5676 H 530.214 1.43632 5.15048 0
M  V30 5677 H 530.557 0.0373072 4.16283 0
M  V30 5678 H 531.09 1.64732 3.62089 0
M  V30 5679 H 527.829 4.36137 4.89352 0
M  V30 5680 H 527.349 2.71086 5.35044 0
M  V30 5681 H 529.028 3.25382 5.59227 0
M  V30 5682 N 529.16 -1.33526 0.837174 0
M  V30 5683 C 530.406 -1.9813 0.432704 0
M  V30 5684 C 530.739 -1.66168 -1.00508 0
M  V30 5685 O 530.014 -0.94069 -1.70239 0
M  V30 5686 C 530.297 -3.54151 0.651834 0
M  V30 5687 C 530.15 -3.95806 2.13676 0
M  V30 5688 C 531.469 -4.39993 0.0968937 0
M  V30 5689 H 528.588 -0.719713 0.15869 0
M  V30 5690 H 531.23 -1.58193 1.05237 0
M  V30 5691 H 529.38 -3.88301 0.124369 0
M  V30 5692 H 531.052 -3.71921 2.72896 0
M  V30 5693 H 529.295 -3.45599 2.62191 0
M  V30 5694 H 529.966 -5.0447 2.24084 0
M  V30 5695 H 532.442 -4.12479 0.547733 0
M  V30 5696 H 531.318 -5.48186 0.279917 0
M  V30 5697 H 531.579 -4.3066 -0.9992 0
M  V30 5698 N 530.638 -0.59345 -1.46 0
M  V30 5699 C 531.915 -0.0157933 -1.95594 0
M  V30 5700 C 532.295 1.44807 -1.53604 0
M  V30 5701 O 531.643 2.14342 -0.791824 0
M  V30 5702 C 531.853 -0.199081 -3.48432 0
M  V30 5703 C 533.201 -0.0724943 -4.24538 0
M  V30 5704 O 534.225 -0.128469 -3.55968 0
M  V30 5705 O 533.084 0.0542426 -5.46473 0
M  V30 5706 H 530.178 0.043749 -0.825842 0
M  V30 5707 H 532.724 -0.662522 -1.56233 0
M  V30 5708 H 531.496 -1.21631 -3.71916 0
M  V30 5709 H 531.119 0.483576 -3.94648 0
M  V30 5710 N 532.116 1.54067 -0.331816 0
M  V30 5711 C 533.048 2.22139 0.564538 0
M  V30 5712 C 534.061 1.22408 1.07332 0
M  V30 5713 O 535.25 1.4883 0.985481 0
M  V30 5714 C 532.35 2.87876 1.78831 0
M  V30 5715 C 531.523 4.13817 1.41682 0
M  V30 5716 C 530.582 4.63072 2.49901 0
M  V30 5717 O 529.608 5.27562 2.13699 0
M  V30 5718 N 530.81 4.38001 3.80967 0
M  V30 5719 H 533.575 2.99694 -0.0183736 0
M  V30 5720 H 531.136 1.61153 -0.155396 0
M  V30 5721 H 533.128 3.17747 2.50637 0
M  V30 5722 H 531.698 2.13977 2.27887 0
M  V30 5723 H 530.918 3.9062 0.530044 0
M  V30 5724 H 532.206 4.95762 1.14443 0
M  V30 5725 H 531.604 3.864 4.13173 0
M  V30 5726 H 530.161 4.72507 4.48977 0
M  V30 5727 N 533.594 0.0601682 1.57485 0
M  V30 5728 C 535.01 -0.296422 1.56823 0
M  V30 5729 C 535.21 -1.70831 1.0686 0
M  V30 5730 O 534.266 -2.4174 0.729245 0
M  V30 5731 C 535.579 -0.116681 3.00474 0
M  V30 5732 C 537.127 -0.187103 3.1244 0
M  V30 5733 C 537.602 -0.035783 4.57986 0
M  V30 5734 N 539.093 -0.0917676 4.63109 0
M  V30 5735 C 539.828 0.00107251 5.734 0
M  V30 5736 N 539.324 0.146773 6.92645 0
M  V30 5737 N 541.117 -0.0551577 5.62073 0
M  V30 5738 H 533.268 0.983055 1.88281 0
M  V30 5739 H 535.531 0.382386 0.867459 0
M  V30 5740 H 535.237 0.85712 3.41096 0
M  V30 5741 H 535.111 -0.873929 3.66936 0
M  V30 5742 H 537.498 -1.15138 2.71712 0
M  V30 5743 H 537.579 0.601052 2.48638 0
M  V30 5744 H 537.223 0.925212 4.99402 0
M  V30 5745 H 537.153 -0.843196 5.19806 0
M  V30 5746 H 539.644 -0.203261 3.77353 0
M  V30 5747 H 539.957 0.210076 7.72514 0
M  V30 5748 H 538.302 0.181979 6.94762 0
M  V30 5749 H 541.493 -0.167605 4.678 0
M  V30 5750 H 541.666 0.020652 6.47997 0
M  V30 5751 N 535.072 -1.5615 -0.213296 0
M  V30 5752 C 536.483 -1.69645 -0.779582 0
M  V30 5753 C 536.834 -0.663615 -1.84636 0
M  V30 5754 O 535.959 0.183633 -2.15619 0
M  V30 5755 C 536.554 -3.07567 -1.42084 0
M  V30 5756 C 535.113 -3.22889 -1.93442 0
M  V30 5757 C 534.26 -2.65581 -0.797612 0
M  V30 5758 H 537.211 -1.58696 0.0114951 0
M  V30 5759 H 537.232 -3.03884 -2.28986 0
M  V30 5760 H 536.744 -3.82716 -0.644187 0
M  V30 5761 H 534.845 -2.52623 -2.73884 0
M  V30 5762 H 534.958 -4.30197 -2.10872 0
M  V30 5763 H 533.322 -2.24278 -1.20712 0
M  V30 5764 H 534.105 -3.43284 -0.033494 0
M  V30 5765 N 536.55 0.480323 -1.50102 0
M  V30 5766 C 537.775 1.26126 -1.64642 0
M  V30 5767 C 538.2 1.85257 -0.325823 0
M  V30 5768 O 537.558 1.66854 0.709194 0
M  V30 5769 C 537.606 2.35243 -2.73301 0
M  V30 5770 O 536.71 3.39646 -2.33911 0
M  V30 5771 H 536.051 0.371463 -0.550374 0
M  V30 5772 H 538.581 0.572696 -1.96421 0
M  V30 5773 H 538.591 2.80695 -2.96098 0
M  V30 5774 H 537.266 1.91574 -3.6915 0
M  V30 5775 H 535.843 2.99969 -2.21525 0
M  V30 5776 N 538.028 1.39524 0.732853 0
M  V30 5777 C 539.253 1.40329 1.52717 0
M  V30 5778 C 539.678 0.000286574 1.881 0
M  V30 5779 O 539.036 -0.987262 1.52062 0
M  V30 5780 C 539.084 2.28464 2.78992 0
M  V30 5781 O 538.188 1.716 3.75003 0
M  V30 5782 H 537.529 0.47778 0.461109 0
M  V30 5783 H 540.059 1.83546 0.903996 0
M  V30 5784 H 540.069 2.43051 3.27705 0
M  V30 5785 H 538.744 3.30425 2.52572 0
M  V30 5786 H 537.321 1.66267 3.33781 0
M  V30 5787 N 539.506 -0.963266 1.24736 0
M  V30 5788 C 540.922 -1.23273 1.01371 0
M  V30 5789 C 541.122 -1.99618 -0.274776 0
M  V30 5790 O 540.178 -2.32293 -0.989769 0
M  V30 5791 C 541.491 -2.01554 2.23152 0
M  V30 5792 C 543.039 -2.14629 2.27823 0
M  V30 5793 C 543.514 -2.96307 3.49237 0
M  V30 5794 N 545.005 -3.03887 3.49581 0
M  V30 5795 C 545.74 -3.67456 4.40186 0
M  V30 5796 N 545.236 -4.32706 5.41052 0
M  V30 5797 N 547.029 -3.64511 4.27888 0
M  V30 5798 H 539.18 -0.452294 2.07528 0
M  V30 5799 H 541.443 -0.262521 0.910926 0
M  V30 5800 H 541.149 -1.52847 3.1675 0
M  V30 5801 H 541.023 -3.02278 2.25628 0
M  V30 5802 H 543.41 -2.62537 1.34753 0
M  V30 5803 H 543.491 -1.13238 2.2937 0
M  V30 5804 H 543.135 -2.49091 4.42624 0
M  V30 5805 H 543.065 -3.97905 3.44933 0
M  V30 5806 H 545.556 -2.57477 2.76611 0
M  V30 5807 H 545.869 -4.79042 6.06415 0
M  V30 5808 H 544.214 -4.31361 5.44934 0
M  V30 5809 H 547.405 -3.12715 3.4832 0
M  V30 5810 H 547.578 -4.13768 4.98698 0
M  V30 5811 N 540.985 -1.06182 -1.16461 0
M  V30 5812 C 541.948 -0.675723 -2.19013 0
M  V30 5813 C 542.948 0.277963 -1.58379 0
M  V30 5814 O 544.138 0.0604962 -1.74095 0
M  V30 5815 C 541.27 0.00591459 -3.40899 0
M  V30 5816 H 542.463 -1.58353 -2.54685 0
M  V30 5817 H 540.016 -0.856908 -1.30716 0
M  V30 5818 H 540.751 0.92652 -3.10783 0
M  V30 5819 H 540.536 -0.67984 -3.86161 0
M  V30 5820 H 542.026 0.26181 -4.16778 0
M  V30 5821 N 542.463 1.3308 -0.844243 0
M  V30 5822 C 543.688 2.02341 -0.455282 0
M  V30 5823 C 544.113 1.6308 0.93737 0
M  V30 5824 O 543.471 0.826118 1.61385 0
M  V30 5825 C 543.519 3.55743 -0.58988 0
M  V30 5826 O 542.623 4.1063 0.38166 0
M  V30 5827 H 541.964 0.637898 -0.184343 0
M  V30 5828 H 544.494 1.6986 -1.14056 0
M  V30 5829 H 544.504 4.05243 -0.473522 0
M  V30 5830 H 543.179 3.83662 -1.60549 0
M  V30 5831 H 541.756 3.72236 0.22241 0
M  V30 5832 N 543.941 0.601185 1.45683 0
M  V30 5833 C 545.166 0.0982245 2.07167 0
M  V30 5834 C 545.591 -1.20546 1.44396 0
M  V30 5835 O 544.949 -1.73247 0.534347 0
M  V30 5836 C 544.997 -0.0346976 3.60583 0
M  V30 5837 O 544.101 -1.08657 3.97828 0
M  V30 5838 H 543.442 0.0711618 0.660176 0
M  V30 5839 H 545.972 0.829376 1.87036 0
M  V30 5840 H 545.982 -0.234969 4.07323 0
M  V30 5841 H 544.657 0.917265 4.05659 0
M  V30 5842 H 543.234 -0.863275 3.6277 0
M  V30 5843 N 545.419 -1.53889 0.339982 0
M  V30 5844 C 546.835 -1.59595 -0.0120752 0
M  V30 5845 C 547.035 -1.35605 -1.49042 0
M  V30 5846 O 546.091 -1.14856 -2.24865 0
M  V30 5847 C 547.404 -2.9774 0.420898 0
M  V30 5848 C 548.952 -3.1077 0.37294 0
M  V30 5849 C 549.427 -4.51286 0.781327 0
M  V30 5850 N 550.918 -4.57325 0.735374 0
M  V30 5851 C 551.653 -5.64194 1.02336 0
M  V30 5852 N 551.149 -6.7893 1.37933 0
M  V30 5853 N 552.942 -5.54051 0.947838 0
M  V30 5854 H 545.093 -1.67738 1.30299 0
M  V30 5855 H 547.356 -0.785385 0.530918 0
M  V30 5856 H 547.062 -3.20349 1.45152 0
M  V30 5857 H 546.936 -3.76639 -0.205721 0
M  V30 5858 H 549.323 -2.87886 -0.648505 0
M  V30 5859 H 549.404 -2.33939 1.03472 0
M  V30 5860 H 549.048 -4.74905 1.80077 0
M  V30 5861 H 548.978 -5.26511 0.0970679 0
M  V30 5862 H 551.469 -3.74931 0.472773 0
M  V30 5863 H 551.782 -7.56392 1.58402 0
M  V30 5864 H 550.127 -6.80386 1.41774 0
M  V30 5865 H 553.318 -4.63293 0.669115 0
M  V30 5866 H 553.491 -6.37246 1.17563 0
M  V30 5867 N 546.897 -0.0685191 -1.57451 0
M  V30 5868 C 547.86 0.885173 -2.11417 0
M  V30 5869 C 548.86 1.22853 -1.03748 0
M  V30 5870 O 550.05 1.16235 -1.2975 0
M  V30 5871 C 547.182 2.18964 -2.61281 0
M  V30 5872 H 548.375 0.417034 -2.96986 0
M  V30 5873 H 545.928 0.18014 -1.55258 0
M  V30 5874 H 546.663 2.70321 -1.79156 0
M  V30 5875 H 546.448 1.9534 -3.39977 0
M  V30 5876 H 547.938 2.87242 -3.0312 0
M  V30 5877 N 548.375 1.56261 0.205012 0
M  V30 5878 C 549.6 1.84491 0.947512 0
M  V30 5879 C 550.025 0.650894 1.76479 0
M  V30 5880 O 549.383 -0.40035 1.76824 0
M  V30 5881 C 549.431 3.10863 1.82747 0
M  V30 5882 O 548.535 2.90719 2.925 0
M  V30 5883 H 547.876 0.607783 0.267386 0
M  V30 5884 H 550.406 2.03485 0.213323 0
M  V30 5885 H 550.416 3.41399 2.23407 0
M  V30 5886 H 549.091 3.97392 1.2269 0
M  V30 5887 H 547.668 2.71457 2.55667 0
M  V30 5888 N 549.853 -0.472356 1.50355 0
M  V30 5889 C 551.078 -1.25251 1.65309 0
M  V30 5890 C 551.503 -1.85081 0.335643 0
M  V30 5891 O 550.861 -1.67227 -0.700335 0
M  V30 5892 C 550.909 -2.3379 2.74544 0
M  V30 5893 O 550.013 -3.38401 2.35709 0
M  V30 5894 H 549.354 -0.368539 0.552336 0
M  V30 5895 H 551.884 -0.562271 1.96722 0
M  V30 5896 H 551.894 -2.79121 2.97583 0
M  V30 5897 H 550.569 -1.89614 3.70161 0
M  V30 5898 H 549.146 -2.9879 2.23112 0
M  V30 5899 N 551.331 -1.39911 -0.725443 0
M  V30 5900 C 552.747 -1.21725 -1.03224 0
M  V30 5901 C 552.947 -0.0855224 -2.01318 0
M  V30 5902 O 552.003 0.55976 -2.46217 0
M  V30 5903 C 553.316 -2.55511 -1.58539 0
M  V30 5904 C 554.864 -2.62439 -1.70572 0
M  V30 5905 C 555.339 -3.9647 -2.29294 0
M  V30 5906 N 556.83 -3.98159 -2.36692 0
M  V30 5907 C 557.565 -4.98647 -2.83088 0
M  V30 5908 N 557.061 -6.0953 -3.2931 0
M  V30 5909 N 558.854 -4.8602 -2.82384 0
M  V30 5910 H 551.005 -2.12267 -0.075048 0
M  V30 5911 H 553.268 -0.943136 -0.0959066 0
M  V30 5912 H 552.974 -3.38926 -0.939249 0
M  V30 5913 H 552.848 -2.75905 -2.57208 0
M  V30 5914 H 555.235 -1.79401 -2.34306 0
M  V30 5915 H 555.316 -2.45885 -0.705297 0
M  V30 5916 H 554.96 -4.79942 -1.66186 0
M  V30 5917 H 554.89 -4.10349 -3.30032 0
M  V30 5918 H 557.381 -3.18085 -2.04035 0
M  V30 5919 H 557.694 -6.82106 -3.6325 0
M  V30 5920 H 556.039 -6.1311 -3.27294 0
M  V30 5921 H 559.23 -3.98493 -2.45603 0
M  V30 5922 H 559.403 -5.64478 -3.18226 0
M  V30 5923 N 552.809 0.956637 -1.25245 0
M  V30 5924 C 554.22 1.51569 -1.09012 0
M  V30 5925 C 554.571 1.93322 0.334813 0
M  V30 5926 O 553.696 1.78421 1.22454 0
M  V30 5927 C 554.291 2.75444 -1.97271 0
M  V30 5928 C 552.85 3.27669 -1.8523 0
M  V30 5929 C 551.997 2.00517 -1.91542 0
M  V30 5930 H 554.948 0.773746 -1.3856 0
M  V30 5931 H 554.969 3.4919 -1.51151 0
M  V30 5932 H 554.481 2.45024 -3.00973 0
M  V30 5933 H 552.582 3.62914 -0.844045 0
M  V30 5934 H 552.695 3.9582 -2.69932 0
M  V30 5935 H 551.059 2.15727 -1.35404 0
M  V30 5936 H 551.842 1.72448 -2.96844 0
M  V30 5937 N 554.287 1.06798 1.15896 0
M  V30 5938 C 555.703 0.792423 1.38538 0
M  V30 5939 C 555.903 -0.60592 1.92174 0
M  V30 5940 O 554.959 -1.36561 2.12385 0
M  V30 5941 C 556.272 1.86157 2.36149 0
M  V30 5942 C 557.82 1.88567 2.49823 0
M  V30 5943 C 558.295 2.9455 3.5072 0
M  V30 5944 N 559.786 2.93616 3.58251 0
M  V30 5945 C 560.521 3.72267 4.36125 0
M  V30 5946 N 560.017 4.60751 5.17379 0
M  V30 5947 N 561.81 3.60637 4.31158 0
M  V30 5948 H 553.961 1.96993 0.794198 0
M  V30 5949 H 556.224 0.853942 0.411688 0
M  V30 5950 H 555.93 2.86603 2.03843 0
M  V30 5951 H 555.804 1.71692 3.3586 0
M  V30 5952 H 558.191 0.887765 2.8143 0
M  V30 5953 H 558.272 2.0711 1.5013 0
M  V30 5954 H 557.916 3.94537 3.19849 0
M  V30 5955 H 557.846 2.73255 4.50155 0
M  V30 5956 H 560.337 2.29472 3.00252 0
M  V30 5957 H 560.65 5.17408 5.74028 0
M  V30 5958 H 558.995 4.64803 5.16704 0
M  V30 5959 H 562.186 2.90892 3.66742 0
M  V30 5960 H 562.359 4.22176 4.91601 0
M  V30 5961 N 555.766 -1.3263 0.851289 0
M  V30 5962 C 557.177 -1.79653 0.5081 0
M  V30 5963 C 557.528 -1.70327 -0.973815 0
M  V30 5964 O 556.653 -1.25986 -1.75944 0
M  V30 5965 C 557.248 -3.26196 0.915515 0
M  V30 5966 C 555.807 -3.71187 0.624277 0
M  V30 5967 C 554.954 -2.53804 1.11709 0
M  V30 5968 H 557.905 -1.19976 1.03882 0
M  V30 5969 H 557.926 -3.79801 0.230535 0
M  V30 5970 H 557.438 -3.32952 1.99411 0
M  V30 5971 H 555.539 -3.69948 -0.443737 0
M  V30 5972 H 555.652 -4.64132 1.18821 0
M  V30 5973 H 554.016 -2.48964 0.537484 0
M  V30 5974 H 554.799 -2.63315 2.20272 0
M  V30 5975 N 557.244 -0.608902 -1.45362 0
M  V30 5976 C 558.521 -0.0365378 -1.95566 0
M  V30 5977 C 558.901 1.43169 -1.55131 0
M  V30 5978 O 558.249 2.1349 -0.814513 0
M  V30 5979 C 558.459 -0.236026 -3.48201 0
M  V30 5980 C 559.807 -0.117518 -4.24437 0
M  V30 5981 O 560.831 -0.166217 -3.55812 0
M  V30 5982 O 559.69 -0.00372127 -5.465 0
M  V30 5983 H 556.784 0.0349874 -0.82626 0
M  V30 5984 H 559.33 -0.679055 -1.55521 0
M  V30 5985 H 558.102 -1.25569 -3.70605 0
M  V30 5986 H 557.725 0.441691 -3.95139 0
M  V30 5987 N 558.722 1.53707 -0.348139 0
M  V30 5988 C 559.999 1.93247 0.302475 0
M  V30 5989 C 560.379 1.28012 1.67857 0
M  V30 5990 O 559.727 0.43274 2.24365 0
M  V30 5991 C 559.937 3.47031 0.370159 0
M  V30 5992 C 561.285 4.20066 0.61882 0
M  V30 5993 O 562.309 3.53319 0.452087 0
M  V30 5994 O 561.168 5.38318 0.94215 0
M  V30 5995 H 558.262 0.807736 0.177458 0
M  V30 5996 H 560.808 1.64927 -0.399651 0
M  V30 5997 H 559.58 3.86745 -0.59534 0
M  V30 5998 H 559.203 3.81532 1.11888 0
M  V30 5999 N 560.2 0.0768682 1.57412 0
M  V30 6000 C 561.13 -0.886026 2.16037 0
M  V30 6001 C 562.111 -1.30691 1.08876 0
M  V30 6002 O 563.296 -1.37705 1.36934 0
M  V30 6003 C 560.426 -2.1518 2.72608 0
M  V30 6004 C 559.38 -1.87015 3.8498 0
M  V30 6005 C 558.706 -3.20266 4.28175 0
M  V30 6006 C 560.006 -1.17143 5.08994 0
M  V30 6007 H 561.7 -0.397642 2.96748 0
M  V30 6008 H 559.246 -0.189823 1.42743 0
M  V30 6009 H 561.199 -2.82962 3.12266 0
M  V30 6010 H 559.923 -2.66269 1.89125 0
M  V30 6011 H 558.582 -1.21636 3.45833 0
M  V30 6012 H 558.23 -3.69207 3.41607 0
M  V30 6013 H 557.93 -3.0221 5.03927 0
M  V30 6014 H 559.454 -3.89237 4.70454 0
M  V30 6015 H 560.868 -1.75003 5.45937 0
M  V30 6016 H 559.265 -1.09328 5.90057 0
M  V30 6017 H 560.335 -0.151295 4.84664 0
M  V30 6018 N 561.678 -1.56367 -0.196722 0
M  V30 6019 C 562.588 -1.97617 -1.2643 0
M  V30 6020 C 563.604 -0.883598 -1.49895 0
M  V30 6021 O 564.78 -1.18921 -1.62541 0
M  V30 6022 C 561.845 -2.30595 -2.58895 0
M  V30 6023 C 560.906 -3.53551 -2.43516 0
M  V30 6024 C 560.139 -3.84946 -3.69665 0
M  V30 6025 O 560.362 -3.17655 -4.73763 0
M  V30 6026 O 559.296 -4.78379 -3.65291 0
M  V30 6027 H 563.122 -2.88648 -0.944233 0
M  V30 6028 H 560.707 -1.43901 -0.401592 0
M  V30 6029 H 562.589 -2.52889 -3.37083 0
M  V30 6030 H 561.264 -1.42732 -2.90533 0
M  V30 6031 H 560.171 -3.36507 -1.63445 0
M  V30 6032 H 561.504 -4.41875 -2.16812 0
M  V30 6033 N 563.156 0.464375 -1.50603 0
M  V30 6034 C 564.405 1.21277 -1.61167 0
M  V30 6035 C 564.718 1.92953 -0.320704 0
M  V30 6036 O 565.924 2.69778 -0.30534 0
M  V30 6037 C 564.38 2.20403 -2.84518 0
M  V30 6038 C 563.988 1.54499 -4.20516 0
M  V30 6039 C 565.732 2.95843 -3.0443 0
M  V30 6040 C 563.639 2.51951 -5.35047 0
M  V30 6041 H 562.569 0.456367 -0.600204 0
M  V30 6042 H 565.22 0.48254 -1.77042 0
M  V30 6043 H 563.602 2.96746 -2.62217 0
M  V30 6044 H 564.776 0.83899 -4.53098 0
M  V30 6045 H 563.091 0.913152 -4.06264 0
M  V30 6046 H 565.688 3.6879 -3.87167 0
M  V30 6047 H 566.031 3.55622 -2.16423 0
M  V30 6048 H 566.564 2.26611 -3.26944 0
M  V30 6049 H 563.303 1.96901 -6.25228 0
M  V30 6050 H 562.823 3.20683 -5.06875 0
M  V30 6051 H 564.502 3.13643 -5.65895 0
M  V30 6052 O 564.673 1.49538 0.609965 0
M  V30 6053 H 565.364 1.46731 1.26451 0
M  V30 END ATOM
M  V30 BEGIN BOND
M  V30 END BOND
M  V30 END CTAB
M  END
$$$$
