drugbank_target|Q99720 Sigma non-opioid intracellular receptor 1 (DB00321; DB00409; DB00502; DB00514; DB00574; DB00652; DB00907; DB00956; DB01488; DB01708; DB03575; DB06174; DB09014; DB11186)
 OpenBabel12092119253D

  0  0  0     0  0            999 V3000
M  V30 BEGIN CTAB
M  V30 COUNTS 3514 3569 0 0 0
M  V30 BEGIN ATOM
M  V30 1 H -0.908 1.98254 -0.117106 0
M  V30 2 N 0 1.576 0 0
M  V30 3 C 0.933 2.03868 1.02534 0
M  V30 4 C 1.911 0.928543 1.3348 0
M  V30 5 O 3.095 1.19667 1.45644 0
M  V30 6 C 0.222 2.43627 2.35294 0
M  V30 7 C -0.732 3.65373 2.2001 0
M  V30 8 S 0.101 5.13292 1.52614 0
M  V30 9 C 1.257 5.56322 2.86805 0
M  V30 10 H 1.49 2.90518 0.631377 0
M  V30 11 H -0.977 1.52953 0.210867 0
M  V30 12 H 0.981 2.67203 3.11629 0
M  V30 13 H -0.358 1.57376 2.7183 0
M  V30 14 H -1.165 3.90944 3.18086 0
M  V30 15 H -1.563 3.418 1.51819 0
M  V30 16 H 0.729 5.58782 3.83104 0
M  V30 17 H 1.672 6.56266 2.65933 0
M  V30 18 H 2.08 4.83886 2.90714 0
M  V30 19 N 1.4781 -0.272755 1.55222 0
M  V30 20 C 2.4101 -1.35946 1.8453 0
M  V30 21 C 3.4231 -1.45525 0.729818 0
M  V30 22 O 4.6121 -1.47337 1.00767 0
M  V30 23 C 1.7121 -2.74069 1.99347 0
M  V30 24 C 0.8851 -2.87079 3.30007 0
M  V30 25 C -0.0559 -4.05879 3.34886 0
M  V30 26 O -1.0299 -3.96626 4.08261 0
M  V30 27 N 0.1721 -5.17857 2.62307 0
M  V30 28 H 2.9371 -1.11149 2.78327 0
M  V30 29 H 0.4981 -0.462869 1.55142 0
M  V30 30 H 2.4901 -3.51838 1.99981 0
M  V30 31 H 1.0601 -2.91688 1.12415 0
M  V30 32 H 0.2801 -1.96193 3.41909 0
M  V30 33 H 1.5681 -2.92701 4.16177 0
M  V30 34 H 0.9661 -5.28261 2.02377 0
M  V30 35 H -0.4769 -5.93855 2.68663 0
M  V30 36 N 2.9562 -1.48159 -0.537278 0
M  V30 37 C 4.2022 -1.57015 -1.29297 0
M  V30 38 C 4.5572 -0.237791 -1.90925 0
M  V30 39 O 3.8502 0.758621 -1.75942 0
M  V30 40 C 4.0442 -2.63956 -2.40961 0
M  V30 41 C 3.8732 -4.07461 -1.90278 0
M  V30 42 C 2.6432 -4.74685 -1.73213 0
M  V30 43 C 4.8412 -4.93858 -1.43556 0
M  V30 44 N 2.8232 -6.02633 -1.17078 0
M  V30 45 C 4.1942 -6.11993 -0.993204 0
M  V30 46 C 6.2492 -4.80141 -1.31792 0
M  V30 47 C 4.9522 -7.17923 -0.444872 0
M  V30 48 C 6.9782 -5.86186 -0.783585 0
M  V30 49 C 6.3402 -7.03524 -0.351261 0
M  V30 50 H 2.4392 -0.629154 -0.464423 0
M  V30 51 H 5.0232 -1.85006 -0.606705 0
M  V30 52 H 3.1942 -2.378 -3.07093 0
M  V30 53 H 4.9262 -2.62539 -3.07986 0
M  V30 54 H 1.6812 -4.30902 -1.9652 0
M  V30 55 H 2.1052 -6.7085 -0.910421 0
M  V30 56 H 6.7472 -3.89772 -1.63823 0
M  V30 57 H 4.4652 -8.08022 -0.11222 0
M  V30 58 H 8.0512 -5.77624 -0.695835 0
M  V30 59 H 6.9312 -7.8418 0.055777 0
M  V30 60 N 4.4343 0.785586 -1.36625 0
M  V30 61 C 5.3973 1.87999 -1.31107 0
M  V30 62 C 6.3973 1.59316 -0.217959 0
M  V30 63 O 7.5873 1.67656 -0.472977 0
M  V30 64 C 4.7193 3.24861 -1.03334 0
M  V30 65 H 5.9123 1.94307 -2.2844 0
M  V30 66 H 3.4653 0.983813 -1.21453 0
M  V30 67 H 4.2003 3.24235 -0.0647432 0
M  V30 68 H 3.9853 3.4707 -1.82441 0
M  V30 69 H 5.4753 4.04929 -1.02088 0
M  V30 70 N 5.9124 1.20967 1.01018 0
M  V30 71 C 7.1584 1.02526 1.74975 0
M  V30 72 C 7.4914 -0.4408 1.89131 0
M  V30 73 O 6.7664 -1.32718 1.42184 0
M  V30 74 C 7.0494 1.71699 3.1653 0
M  V30 75 C 6.9024 3.25791 3.10129 0
M  V30 76 C 8.2214 1.45531 4.15342 0
M  V30 77 H 5.3404 0.373863 0.635134 0
M  V30 78 H 7.9824 1.49071 1.17805 0
M  V30 79 H 6.1324 1.32128 3.65341 0
M  V30 80 H 7.8044 3.74697 2.69072 0
M  V30 81 H 6.0474 3.56363 2.47362 0
M  V30 82 H 6.7184 3.69353 4.10222 0
M  V30 83 H 9.1944 1.79872 3.75213 0
M  V30 84 H 8.0704 1.96453 5.1254 0
M  V30 85 H 8.3314 0.384237 4.40427 0
M  V30 86 N 7.3905 -1.2043 1.01659 0
M  V30 87 C 8.6385 -1.89423 0.704522 0
M  V30 88 C 8.9595 -1.79231 -0.768197 0
M  V30 89 O 8.2295 -1.1947 -1.55254 0
M  V30 90 H 6.8095 -0.701178 0.257602 0
M  V30 91 H 9.4715 -1.4626 1.28818 0
M  V30 92 H 8.5675 -2.96052 0.987916 0
M  V30 93 N 8.8686 -0.792821 -1.36206 0
M  V30 94 C 10.2846 -0.474903 -1.52371 0
M  V30 95 C 10.4846 1.00622 -1.74578 0
M  V30 96 O 9.5406 1.79162 -1.77924 0
M  V30 97 C 10.8536 -1.3083 -2.70747 0
M  V30 98 C 12.4016 -1.30234 -2.84619 0
M  V30 99 C 12.8766 -2.11956 -4.06004 0
M  V30 100 N 14.3676 -2.09419 -4.13156 0
M  V30 101 C 15.1026 -2.69419 -5.06163 0
M  V30 102 N 14.5986 -3.3829 -6.04592 0
M  V30 103 N 16.3916 -2.59134 -4.98804 0
M  V30 104 H 8.5426 -1.75222 -1.20046 0
M  V30 105 H 10.8056 -0.745024 -0.586211 0
M  V30 106 H 10.5116 -2.35881 -2.6087 0
M  V30 107 H 10.3856 -0.95196 -3.6499 0
M  V30 108 H 12.7726 -0.259748 -2.93955 0
M  V30 109 H 12.8536 -1.69847 -1.91274 0
M  V30 110 H 12.4976 -3.16248 -3.97429 0
M  V30 111 H 12.4276 -1.69711 -4.98503 0
M  V30 112 H 14.9186 -1.59297 -3.42685 0
M  V30 113 H 15.2316 -3.81394 -6.7213 0
M  V30 114 H 13.5766 -3.42393 -6.04807 0
M  V30 115 H 16.7676 -2.04927 -4.20859 0
M  V30 116 H 16.9406 -3.06185 -5.711 0
M  V30 117 N 10.3467 1.47872 -0.545128 0
M  V30 118 C 11.7627 1.5829 -0.204032 0
M  V30 119 C 11.9627 1.54529 1.29317 0
M  V30 120 O 11.0187 1.44232 2.07252 0
M  V30 121 C 12.3317 2.89304 -0.819987 0
M  V30 122 C 13.8797 3.02864 -0.790105 0
M  V30 123 C 14.3547 4.3656 -1.38491 0
M  V30 124 N 15.8457 4.43165 -1.34755 0
M  V30 125 C 16.5807 5.45153 -1.77753 0
M  V30 126 N 16.0767 6.54016 -2.2855 0
M  V30 127 N 17.8697 5.36125 -1.68897 0
M  V30 128 H 10.0207 1.4856 -1.51802 0
M  V30 129 H 12.2837 0.706305 -0.632327 0
M  V30 130 H 11.9897 2.97757 -1.87173 0
M  V30 131 H 11.8637 3.75957 -0.305915 0
M  V30 132 H 14.2507 2.94014 0.252913 0
M  V30 133 H 14.3317 2.17782 -1.34181 0
M  V30 134 H 13.9757 4.46164 -2.42693 0
M  V30 135 H 13.9057 5.20353 -0.808754 0
M  V30 136 H 16.3967 3.65083 -0.975855 0
M  V30 137 H 16.7097 7.27994 -2.59314 0
M  V30 138 H 15.0547 6.54938 -2.32553 0
M  V30 139 H 18.2457 4.49975 -1.28998 0
M  V30 140 H 18.4187 6.15472 -2.02726 0
M  V30 141 N 11.8248 0.280983 1.55075 0
M  V30 142 C 13.0708 -0.327573 2.00745 0
M  V30 143 C 13.4258 -1.53045 1.16598 0
M  V30 144 O 12.7188 -1.90221 0.229451 0
M  V30 145 C 12.9128 -0.754656 3.49342 0
M  V30 146 C 12.7418 0.40529 4.4787 0
M  V30 147 C 11.5118 0.890947 4.97383 0
M  V30 148 C 13.7098 1.24371 4.99035 0
M  V30 149 N 11.6918 2.01975 5.79724 0
M  V30 150 C 13.0628 2.22031 5.7888 0
M  V30 151 C 15.1178 1.27638 4.81262 0
M  V30 152 C 13.8208 3.22709 6.42846 0
M  V30 153 C 15.8468 2.27164 5.46031 0
M  V30 154 C 15.2088 3.23556 6.25692 0
M  V30 155 H 11.3078 -0.0848774 0.77738 0
M  V30 156 H 13.8918 0.406342 1.90413 0
M  V30 157 H 12.0628 -1.45778 3.60005 0
M  V30 158 H 13.7948 -1.34105 3.81835 0
M  V30 159 H 10.5498 0.469262 4.71269 0
M  V30 160 H 10.9738 2.58794 6.25584 0
M  V30 161 H 15.6158 0.544936 4.19274 0
M  V30 162 H 13.3338 3.96784 7.0398 0
M  V30 163 H 16.9198 2.30441 5.34217 0
M  V30 164 H 15.7998 3.99309 6.74924 0
M  V30 165 N 13.3029 -1.57598 0.00835791 0
M  V30 166 C 14.2659 -2.07884 -0.965242 0
M  V30 167 C 15.2659 -0.989825 -1.26725 0
M  V30 168 O 16.4559 -1.25218 -1.21104 0
M  V30 169 C 13.5879 -2.52731 -2.28779 0
M  V30 170 H 14.7809 -2.95178 -0.530112 0
M  V30 171 H 12.3339 -1.54458 -0.239283 0
M  V30 172 H 13.0689 -1.68705 -2.76964 0
M  V30 173 H 12.8539 -3.32272 -2.08177 0
M  V30 174 H 14.3439 -2.91933 -2.98605 0
M  V30 175 N 14.781 0.264519 -1.55364 0
M  V30 176 C 16.027 0.992314 -1.77552 0
M  V30 177 C 16.382 1.83626 -0.574379 0
M  V30 178 O 15.675 1.86648 0.432782 0
M  V30 179 C 15.869 1.9004 -3.02687 0
M  V30 180 C 15.698 1.14583 -4.34857 0
M  V30 181 C 14.468 0.858068 -4.97961 0
M  V30 182 C 16.666 0.532069 -5.1154 0
M  V30 183 N 14.648 0.0775974 -6.13851 0
M  V30 184 C 16.019 -0.113823 -6.19896 0
M  V30 185 C 18.074 0.440763 -4.95945 0
M  V30 186 C 16.777 -0.842231 -7.14352 0
M  V30 187 C 18.803 -0.274072 -5.90765 0
M  V30 188 C 18.165 -0.90867 -6.98515 0
M  V30 189 H 14.264 0.344811 -0.701875 0
M  V30 190 H 16.848 0.267141 -1.92859 0
M  V30 191 H 15.019 2.59775 -2.88741 0
M  V30 192 H 16.751 2.56243 -3.13243 0
M  V30 193 H 13.506 1.16547 -4.59036 0
M  V30 194 H 13.93 -0.300216 -6.76334 0
M  V30 195 H 18.572 0.917064 -4.12735 0
M  V30 196 H 16.29 -1.33019 -7.97077 0
M  V30 197 H 19.876 -0.345151 -5.80775 0
M  V30 198 H 18.756 -1.45299 -7.70622 0
M  V30 199 N 16.2591 1.48442 0.529413 0
M  V30 200 C 17.2221 1.62524 1.61612 0
M  V30 201 C 18.2221 0.498509 1.52877 0
M  V30 202 O 19.4121 0.76431 1.56537 0
M  V30 203 C 16.5441 1.59597 3.01233 0
M  V30 204 H 17.7371 2.59423 1.50465 0
M  V30 205 H 15.2901 1.37047 0.751514 0
M  V30 206 H 16.0251 0.641781 3.17886 0
M  V30 207 H 15.8101 2.41397 3.08982 0
M  V30 208 H 17.3001 1.72646 3.80241 0
M  V30 209 N 17.7372 -0.778329 1.37039 0
M  V30 210 C 18.7002 -1.87301 1.32102 0
M  V30 211 C 19.7002 -1.59198 0.226405 0
M  V30 212 O 20.8902 -1.67403 0.481861 0
M  V30 213 C 18.0222 -3.24309 1.05055 0
M  V30 214 H 19.2152 -1.93093 2.29467 0
M  V30 215 H 16.7682 -0.977358 1.21973 0
M  V30 216 H 17.5032 -3.24196 0.0819373 0
M  V30 217 H 17.2882 -3.46098 1.84279 0
M  V30 218 H 18.7782 -4.04382 1.04234 0
M  V30 219 N 19.2153 -1.21501 -1.00376 0
M  V30 220 C 20.1453 -0.999478 -2.11028 0
M  V30 221 C 21.1263 0.0759671 -1.6993 0
M  V30 222 O 22.3113 -0.0841106 -1.94018 0
M  V30 223 C 19.4413 -0.564709 -3.42678 0
M  V30 224 C 18.3953 -1.58486 -3.97576 0
M  V30 225 C 17.7213 -1.00628 -5.25146 0
M  V30 226 C 19.0213 -2.97204 -4.29496 0
M  V30 227 H 20.7153 -1.92495 -2.29317 0
M  V30 228 H 18.2613 -0.92693 -1.102 0
M  V30 229 H 20.2143 -0.401091 -4.19487 0
M  V30 230 H 18.9383 0.396411 -3.24185 0
M  V30 231 H 17.5973 -1.73606 -3.22888 0
M  V30 232 H 17.2453 -0.0368439 -5.02987 0
M  V30 233 H 16.9453 -1.68771 -5.62841 0
M  V30 234 H 18.4693 -0.854015 -6.04598 0
M  V30 235 H 19.8833 -2.8552 -4.97143 0
M  V30 236 H 18.2803 -3.62372 -4.78338 0
M  V30 237 H 19.3503 -3.47956 -3.3772 0
M  V30 238 N 20.6934 1.19889 -1.02296 0
M  V30 239 C 21.6234 2.25141 -0.619174 0
M  V30 240 C 22.6044 1.66051 0.368915 0
M  V30 241 O 23.7894 1.92546 0.252941 0
M  V30 242 C 20.9194 3.4728 0.0368783 0
M  V30 243 C 19.8734 4.19005 -0.872865 0
M  V30 244 C 19.1994 5.34637 -0.0822402 0
M  V30 245 C 20.4994 4.74452 -2.18387 0
M  V30 246 H 22.1934 2.59171 -1.49903 0
M  V30 247 H 19.7394 1.24579 -0.722222 0
M  V30 248 H 21.6924 4.20098 0.330958 0
M  V30 249 H 20.4164 3.12433 0.95149 0
M  V30 250 H 19.0754 3.48061 -1.15105 0
M  V30 251 H 18.7234 4.96034 0.83422 0
M  V30 252 H 18.4234 5.83557 -0.688149 0
M  V30 253 H 19.9474 6.10255 0.205238 0
M  V30 254 H 21.3614 5.39055 -1.95172 0
M  V30 255 H 19.7584 5.33834 -2.74119 0
M  V30 256 H 20.8284 3.92844 -2.84257 0
M  V30 257 N 22.1715 0.800033 1.35784 0
M  V30 258 C 23.1015 0.220184 2.3246 0
M  V30 259 C 24.0825 -0.65073 1.57161 0
M  V30 260 O 25.2675 -0.582359 1.85263 0
M  V30 261 C 22.3975 -0.637353 3.41402 0
M  V30 262 C 21.3515 0.134531 4.27789 0
M  V30 263 C 20.6775 -0.844285 5.27992 0
M  V30 264 C 21.9775 1.32979 5.05088 0
M  V30 265 H 23.6715 1.02787 2.81203 0
M  V30 266 H 21.2175 0.495717 1.35199 0
M  V30 267 H 23.1705 -1.05302 4.08031 0
M  V30 268 H 21.8945 -1.47785 2.91251 0
M  V30 269 H 20.5535 0.531296 3.6273 0
M  V30 270 H 20.2015 -1.68011 4.74111 0
M  V30 271 H 19.9015 -0.332184 5.8666 0
M  V30 272 H 21.4255 -1.2583 5.97494 0
M  V30 273 H 22.8395 0.98934 5.64699 0
M  V30 274 H 21.2365 1.77593 5.7322 0
M  V30 275 H 22.3065 2.11978 4.36111 0
M  V30 276 N 23.6496 -1.47581 0.552962 0
M  V30 277 C 24.6126 -2.28439 -0.186605 0
M  V30 278 C 25.6126 -1.36706 -0.84665 0
M  V30 279 O 26.8026 -1.59378 -0.703164 0
M  V30 280 C 23.9346 -3.16264 -1.2724 0
M  V30 281 H 25.1276 -2.95294 0.523609 0
M  V30 282 H 22.6806 -1.532 0.309745 0
M  V30 283 H 23.4156 -2.54091 -2.01514 0
M  V30 284 H 23.2006 -3.83769 -0.803968 0
M  V30 285 H 24.6906 -3.77198 -1.79196 0
M  V30 286 N 25.1277 -0.289203 -1.54924 0
M  V30 287 C 26.3737 0.323998 -2.00195 0
M  V30 288 C 26.7067 1.54441 -1.17735 0
M  V30 289 O 25.9817 1.92875 -0.250878 0
M  V30 290 C 26.2647 0.692276 -3.53383 0
M  V30 291 C 26.1177 -0.536457 -4.46589 0
M  V30 292 C 27.4367 1.52335 -4.12895 0
M  V30 293 H 24.5557 0.116289 -0.727768 0
M  V30 294 H 27.1977 -0.398954 -1.85764 0
M  V30 295 H 25.3477 1.30822 -3.65811 0
M  V30 296 H 27.0197 -1.17499 -4.46085 0
M  V30 297 H 25.2627 -1.17192 -4.1767 0
M  V30 298 H 25.9337 -0.234806 -5.515 0
M  V30 299 H 28.4097 1.00302 -4.0383 0
M  V30 300 H 27.2857 1.74982 -5.20262 0
M  V30 301 H 27.5467 2.50886 -3.64018 0
M  V30 302 N 26.6058 1.57591 -0.0167156 0
M  V30 303 C 27.5688 2.08393 0.954204 0
M  V30 304 C 28.5688 0.996531 1.26198 0
M  V30 305 O 29.7588 1.25858 1.20438 0
M  V30 306 C 26.8908 2.5394 2.27436 0
M  V30 307 H 28.0838 2.95455 0.514451 0
M  V30 308 H 25.6368 1.54582 0.231089 0
M  V30 309 H 26.3718 1.70171 2.76066 0
M  V30 310 H 26.1568 3.33371 2.06412 0
M  V30 311 H 27.6468 2.93512 2.97053 0
M  V30 312 N 28.0839 -0.256276 1.55502 0
M  V30 313 C 29.0469 -1.30047 1.88734 0
M  V30 314 C 30.0469 -1.4154 0.763086 0
M  V30 315 O 31.2369 -1.40403 1.03115 0
M  V30 316 C 28.3689 -2.67953 2.10747 0
M  V30 317 H 29.5619 -1.01802 2.82093 0
M  V30 318 H 27.1149 -0.495134 1.4825 0
M  V30 319 H 27.8499 -3.01351 1.19825 0
M  V30 320 H 27.6349 -2.60993 2.92617 0
M  V30 321 H 29.1249 -3.43368 2.37673 0
M  V30 322 N 29.562 -1.4872 -0.521534 0
M  V30 323 C 30.808 -1.574 -1.27879 0
M  V30 324 C 31.141 -0.250817 -1.92573 0
M  V30 325 O 30.416 0.743934 -1.79711 0
M  V30 326 C 30.699 -2.71843 -2.36164 0
M  V30 327 C 30.552 -4.13893 -1.76105 0
M  V30 328 C 31.871 -2.82008 -3.37875 0
M  V30 329 H 28.99 -0.572941 -0.463581 0
M  V30 330 H 31.632 -1.80927 -0.580119 0
M  V30 331 H 29.782 -2.51914 -2.95756 0
M  V30 332 H 31.454 -4.45284 -1.20499 0
M  V30 333 H 29.697 -4.20498 -1.06601 0
M  V30 334 H 30.368 -4.89804 -2.5455 0
M  V30 335 H 32.844 -3.00086 -2.88249 0
M  V30 336 H 31.72 -3.63796 -4.11028 0
M  V30 337 H 31.981 -1.90511 -3.98946 0
M  V30 338 N 31.0401 0.771051 -1.3745 0
M  V30 339 C 31.9701 1.89827 -1.3597 0
M  V30 340 C 32.9511 1.68562 -0.228216 0
M  V30 341 O 34.1361 1.8941 -0.428675 0
M  V30 342 C 31.2661 3.2712 -1.16662 0
M  V30 343 C 30.2201 3.6295 -2.2683 0
M  V30 344 C 29.5461 4.98791 -1.92644 0
M  V30 345 C 30.8461 3.69627 -3.69017 0
M  V30 346 H 32.5401 1.91323 -2.30295 0
M  V30 347 H 30.0861 0.919082 -1.10855 0
M  V30 348 H 32.0391 4.05615 -1.14256 0
M  V30 349 H 30.7631 3.26059 -0.187926 0
M  V30 350 H 29.4221 2.86763 -2.28392 0
M  V30 351 H 29.0701 4.94271 -0.933021 0
M  V30 352 H 28.7701 5.23733 -2.66416 0
M  V30 353 H 30.2941 5.79685 -1.91826 0
M  V30 354 H 31.7081 4.38273 -3.69581 0
M  V30 355 H 30.1051 4.06067 -4.41848 0
M  V30 356 H 31.1751 2.70273 -4.02592 0
M  V30 357 N 32.5182 1.22032 0.997298 0
M  V30 358 C 33.7462 1.06841 1.7718 0
M  V30 359 C 34.1612 -0.381325 1.84909 0
M  V30 360 O 33.5182 -1.26437 1.31605 0
M  V30 361 C 33.5692 1.66814 3.20711 0
M  V30 362 O 33.2902 3.06116 3.13408 0
M  V30 363 C 34.7912 1.56838 4.14628 0
M  V30 364 H 32.0112 0.374782 0.556578 0
M  V30 365 H 34.5552 1.61532 1.2541 0
M  V30 366 H 32.7102 1.16196 3.69564 0
M  V30 367 H 33.1242 3.34926 4.0364 0
M  V30 368 H 34.5982 2.03532 5.13107 0
M  V30 369 H 35.0752 0.524155 4.36061 0
M  V30 370 H 35.6812 2.06741 3.7167 0
M  V30 371 N 33.9963 -1.19345 1.0293 0
M  V30 372 C 34.9283 -2.22036 0.56857 0
M  V30 373 C 35.9413 -1.58865 -0.355779 0
M  V30 374 O 37.1303 -1.77851 -0.152103 0
M  V30 375 C 34.2303 -3.38363 -0.190752 0
M  V30 376 C 33.4033 -4.31118 0.738643 0
M  V30 377 C 32.4623 -5.26194 0.0246497 0
M  V30 378 O 31.4883 -5.65461 0.651354 0
M  V30 379 N 32.6903 -5.66971 -1.24594 0
M  V30 380 H 35.4553 -2.6219 1.45177 0
M  V30 381 H 33.0163 -1.34015 0.908381 0
M  V30 382 H 35.0083 -3.98981 -0.677961 0
M  V30 383 H 33.5783 -2.96994 -0.975366 0
M  V30 384 H 32.7983 -3.68276 1.40593 0
M  V30 385 H 34.0863 -4.90001 1.37029 0
M  V30 386 H 33.4843 -5.37104 -1.77583 0
M  V30 387 H 32.0413 -6.2984 -1.67764 0
M  V30 388 N 35.4744 -0.807222 -1.35358 0
M  V30 389 C 36.7204 -0.388463 -1.99045 0
M  V30 390 C 37.0534 1.04184 -1.63888 0
M  V30 391 O 36.3284 1.72292 -0.902535 0
M  V30 392 C 36.6114 -0.572783 -3.55515 0
M  V30 393 C 36.4644 -2.04807 -4.00468 0
M  V30 394 C 37.7834 0.00114064 -4.401 0
M  V30 395 H 34.9024 -0.142619 -0.723069 0
M  V30 396 H 37.5444 -1.01687 -1.60498 0
M  V30 397 H 35.6944 -0.0378425 -3.88482 0
M  V30 398 H 37.3664 -2.64544 -3.77908 0
M  V30 399 H 35.6094 -2.54427 -3.51353 0
M  V30 400 H 36.2804 -2.12792 -5.09337 0
M  V30 401 H 38.7564 -0.455716 -4.13597 0
M  V30 402 H 37.6324 -0.157737 -5.48673 0
M  V30 403 H 37.8934 1.09488 -4.28328 0
M  V30 404 N 36.9525 1.47285 -0.560781 0
M  V30 405 C 38.1985 2.02764 -0.0381184 0
M  V30 406 C 38.5315 1.43384 1.30976 0
M  V30 407 O 37.8065 0.590733 1.85312 0
M  V30 408 C 38.0895 3.60064 0.0511427 0
M  V30 409 C 37.9425 4.2987 -1.32408 0
M  V30 410 C 39.2615 4.33439 0.762795 0
M  V30 411 H 36.3805 0.736841 -0.0153264 0
M  V30 412 H 39.0225 1.75675 -0.723759 0
M  V30 413 H 37.1725 3.83274 0.635065 0
M  V30 414 H 38.8445 4.17989 -1.95148 0
M  V30 415 H 37.0875 3.90085 -1.8978 0
M  V30 416 H 37.7585 5.38478 -1.21431 0
M  V30 417 H 40.2345 4.15243 0.266965 0
M  V30 418 H 39.1105 5.43124 0.794221 0
M  V30 419 H 39.3715 4.02915 1.81966 0
M  V30 420 N 38.4306 0.297415 1.54768 0
M  V30 421 C 39.6766 -0.306263 2.01081 0
M  V30 422 C 40.0316 -1.518 1.18214 0
M  V30 423 O 39.3246 -1.89967 0.249613 0
M  V30 424 C 39.5186 -0.717561 3.50123 0
M  V30 425 C 39.3476 0.45277 4.47415 0
M  V30 426 C 38.1176 0.943651 4.9641 0
M  V30 427 C 40.3156 1.29657 4.97688 0
M  V30 428 N 38.2976 2.08112 5.77549 0
M  V30 429 C 39.6686 2.28158 5.76493 0
M  V30 430 C 41.7236 1.32735 4.79881 0
M  V30 431 C 40.4266 3.29509 6.39387 0
M  V30 432 C 42.4526 2.32943 5.43591 0
M  V30 433 C 41.8146 3.30174 6.22225 0
M  V30 434 H 37.9136 -0.0766274 0.778237 0
M  V30 435 H 40.4976 0.426515 1.89971 0
M  V30 436 H 38.6686 -1.41952 3.6153 0
M  V30 437 H 40.4006 -1.30047 3.83236 0
M  V30 438 H 37.1556 0.51922 4.70745 0
M  V30 439 H 37.5796 2.65414 6.22803 0
M  V30 440 H 42.2216 0.589375 4.18672 0
M  V30 441 H 39.9396 4.04228 6.99732 0
M  V30 442 H 43.5256 2.36094 5.31743 0
M  V30 443 H 42.4056 4.06445 6.7065 0
M  V30 444 N 39.9087 -1.5758 0.0250728 0
M  V30 445 C 40.8387 -2.13007 -0.956575 0
M  V30 446 C 41.8197 -1.0452 -1.342 0
M  V30 447 O 43.0047 -1.32332 -1.42133 0
M  V30 448 C 40.1347 -2.65386 -2.24026 0
M  V30 449 C 39.0887 -3.78623 -1.99571 0
M  V30 450 C 38.4147 -4.17414 -3.3417 0
M  V30 451 C 39.7147 -5.04867 -1.33814 0
M  V30 452 H 41.4087 -2.9528 -0.494991 0
M  V30 453 H 38.9547 -1.42042 -0.236651 0
M  V30 454 H 40.9077 -3.02794 -2.93076 0
M  V30 455 H 39.6317 -1.80268 -2.72343 0
M  V30 456 H 38.2907 -3.41646 -1.32941 0
M  V30 457 H 37.9387 -3.29284 -3.80238 0
M  V30 458 H 37.6387 -4.93719 -3.18615 0
M  V30 459 H 39.1627 -4.57402 -4.04495 0
M  V30 460 H 40.5767 -5.39888 -1.92857 0
M  V30 461 H 38.9737 -5.86144 -1.28669 0
M  V30 462 H 40.0437 -4.83904 -0.310561 0
M  V30 463 N 41.3868 0.248026 -1.55636 0
M  V30 464 C 42.6328 0.973427 -1.78594 0
M  V30 465 C 42.9878 1.83007 -0.593823 0
M  V30 466 O 42.2808 1.87097 0.412961 0
M  V30 467 C 42.4748 1.86819 -3.04686 0
M  V30 468 C 42.3038 1.09965 -4.36048 0
M  V30 469 C 41.0738 0.805204 -4.98843 0
M  V30 470 C 43.2718 0.477783 -5.12076 0
M  V30 471 N 41.2538 0.0124859 -6.13899 0
M  V30 472 C 42.6248 -0.179565 -6.1974 0
M  V30 473 C 44.6798 0.388136 -4.96385 0
M  V30 474 C 43.3828 -0.91795 -7.13419 0
M  V30 475 C 45.4088 -0.336716 -5.90441 0
M  V30 476 C 44.7708 -0.982705 -6.97511 0
M  V30 477 H 40.8698 0.337348 -0.705493 0
M  V30 478 H 43.4538 0.24667 -1.93131 0
M  V30 479 H 41.6248 2.56698 -2.9148 0
M  V30 480 H 43.3568 2.52907 -3.15944 0
M  V30 481 H 40.1118 1.11671 -4.60246 0
M  V30 482 H 40.5358 -0.371933 -6.75978 0
M  V30 483 H 45.1778 0.873237 -4.13684 0
M  V30 484 H 42.8958 -1.41466 -7.95621 0
M  V30 485 H 46.4818 -0.406731 -5.80377 0
M  V30 486 H 45.3618 -1.53464 -7.69037 0
M  V30 487 N 42.8649 1.48995 0.513639 0
M  V30 488 C 43.7949 1.67636 1.62544 0
M  V30 489 C 44.7759 0.525087 1.61793 0
M  V30 490 O 45.9609 0.759502 1.78732 0
M  V30 491 C 43.0909 1.73114 3.01079 0
M  V30 492 C 42.0449 2.87905 3.16693 0
M  V30 493 C 41.3709 2.78486 4.56453 0
M  V30 494 C 42.6709 4.29005 2.97913 0
M  V30 495 H 44.3649 2.60716 1.47198 0
M  V30 496 H 41.9109 1.25465 0.706714 0
M  V30 497 H 43.8639 1.84742 3.78746 0
M  V30 498 H 42.5879 0.766241 3.17484 0
M  V30 499 H 41.2469 2.75859 2.41448 0
M  V30 500 H 40.8949 1.7993 4.69717 0
M  V30 501 H 40.5949 3.55523 4.67843 0
M  V30 502 H 42.1189 2.92104 5.36197 0
M  V30 503 H 43.5329 4.41798 3.65359 0
M  V30 504 H 41.9299 5.07166 3.20785 0
M  V30 505 H 42.9999 4.44329 1.94165 0
M  V30 506 N 44.343 -0.763751 1.37857 0
M  V30 507 C 45.591 -1.51957 1.33243 0
M  V30 508 C 45.912 -1.94835 -0.0801709 0
M  V30 509 O 45.182 -1.66894 -1.02582 0
M  V30 510 H 43.762 -0.563626 0.49024 0
M  V30 511 H 46.424 -0.908504 1.7243 0
M  V30 512 H 45.52 -2.41523 1.97669 0
M  V30 513 N 45.8211 -1.22559 -0.990812 0
M  V30 514 C 47.0491 -1.07779 -1.76611 0
M  V30 515 C 47.4641 0.371513 -1.85109 0
M  V30 516 O 46.8211 1.25737 -1.32274 0
M  V30 517 C 46.8721 -1.68512 -3.19822 0
M  V30 518 O 46.5931 -3.07774 -3.1178 0
M  V30 519 C 48.0941 -1.59035 -4.13791 0
M  V30 520 H 45.3141 -0.377729 -0.554583 0
M  V30 521 H 47.8581 -1.62195 -1.24551 0
M  V30 522 H 46.0131 -1.18154 -3.68942 0
M  V30 523 H 46.4271 -3.37062 -4.01858 0
M  V30 524 H 47.9011 -2.0625 -5.1202 0
M  V30 525 H 48.3781 -0.547273 -4.35777 0
M  V30 526 H 48.9841 -2.08709 -3.70568 0
M  V30 527 N 47.2992 1.18797 -1.03562 0
M  V30 528 C 48.2312 2.21731 -0.580337 0
M  V30 529 C 49.2442 1.59051 0.347349 0
M  V30 530 O 50.4332 1.77929 0.142669 0
M  V30 531 C 47.5332 3.38459 0.172805 0
M  V30 532 C 46.7062 4.3072 -0.761496 0
M  V30 533 C 45.7652 5.26174 -0.0525547 0
M  V30 534 O 44.7912 5.65108 -0.681333 0
M  V30 535 N 45.9932 5.67624 1.21586 0
M  V30 536 H 48.7582 2.61417 -1.46565 0
M  V30 537 H 46.3192 1.33531 -0.915476 0
M  V30 538 H 48.3112 3.99335 0.656793 0
M  V30 539 H 46.8812 2.97507 0.959602 0
M  V30 540 H 46.1012 3.67525 -1.42544 0
M  V30 541 H 47.3892 4.89267 -1.39626 0
M  V30 542 H 46.7872 5.38038 1.74732 0
M  V30 543 H 45.3442 6.30721 1.64421 0
M  V30 544 N 48.7773 0.814389 1.34928 0
M  V30 545 C 50.0023 0.410097 2.03305 0
M  V30 546 C 50.4273 -0.973464 1.60951 0
M  V30 547 O 49.7853 -1.63185 0.789964 0
M  V30 548 C 49.8333 0.51049 3.56968 0
M  V30 549 O 48.9373 -0.473035 4.09678 0
M  V30 550 H 48.2783 0.170088 0.641846 0
M  V30 551 H 50.8083 1.10244 1.72358 0
M  V30 552 H 50.8183 0.383135 4.06197 0
M  V30 553 H 49.4933 1.51963 3.87144 0
M  V30 554 H 48.0703 -0.305272 3.71648 0
M  V30 555 N 50.2554 -1.46986 0.568584 0
M  V30 556 C 51.5024 -2.02441 0.0487986 0
M  V30 557 C 51.8304 -1.44169 -1.30559 0
M  V30 558 O 51.0854 -0.591213 -1.86556 0
M  V30 559 C 51.3844 -3.57306 -0.081836 0
M  V30 560 C 51.0504 -4.34552 1.20313 0
M  V30 561 C 49.7124 -4.55376 1.5552 0
M  V30 562 C 52.0644 -4.79016 2.05411 0
M  V30 563 C 49.3924 -5.17913 2.7565 0
M  V30 564 C 51.7444 -5.42879 3.24754 0
M  V30 565 C 50.4084 -5.61933 3.60261 0
M  V30 566 H 49.6784 -0.740785 0.0178567 0
M  V30 567 H 52.3254 -1.76525 0.742384 0
M  V30 568 H 50.6304 -3.8228 -0.858463 0
M  V30 569 H 52.3274 -3.97876 -0.499546 0
M  V30 570 H 48.9174 -4.18631 0.919014 0
M  V30 571 H 53.1014 -4.62696 1.79516 0
M  V30 572 H 48.3574 -5.30858 3.03315 0
M  V30 573 H 52.5314 -5.76293 3.90973 0
M  V30 574 H 50.1584 -6.10161 4.53439 0
M  V30 575 N 51.7335 -0.305618 -1.54608 0
M  V30 576 C 52.9795 0.302746 -2.00528 0
M  V30 577 C 53.3125 1.53184 -1.19367 0
M  V30 578 O 52.5875 1.92598 -0.271321 0
M  V30 579 C 52.8705 0.654756 -3.54097 0
M  V30 580 C 52.7235 -0.583793 -4.45995 0
M  V30 581 C 54.0425 1.47947 -4.14487 0
M  V30 582 H 51.1615 0.108564 -0.72896 0
M  V30 583 H 53.8035 -0.418634 -1.85331 0
M  V30 584 H 51.9535 1.26935 -3.67178 0
M  V30 585 H 53.6255 -1.22224 -4.44814 0
M  V30 586 H 51.8685 -1.21615 -4.16404 0
M  V30 587 H 52.5395 -0.293287 -5.5122 0
M  V30 588 H 55.0155 0.96013 -4.04871 0
M  V30 589 H 53.8915 1.69454 -5.22088 0
M  V30 590 H 54.1525 2.47011 -3.66658 0
M  V30 591 N 53.2116 1.57565 -0.0334293 0
M  V30 592 C 54.4586 1.91978 0.644272 0
M  V30 593 C 54.7866 0.910231 1.71887 0
M  V30 594 O 54.0416 -0.0801961 1.95536 0
M  V30 595 C 54.3406 3.33112 1.29504 0
M  V30 596 C 54.0066 4.49537 0.350388 0
M  V30 597 C 52.6686 4.81115 0.0903974 0
M  V30 598 C 55.0206 5.20347 -0.298032 0
M  V30 599 C 52.3486 5.8086 -0.825746 0
M  V30 600 C 54.7006 6.2107 -1.20226 0
M  V30 601 C 53.3646 6.51088 -1.4711 0
M  V30 602 H 52.6346 0.702496 0.235756 0
M  V30 603 H 55.2816 1.91259 -0.0961176 0
M  V30 604 H 53.5866 3.30113 2.11028 0
M  V30 605 H 55.2836 3.57011 1.82603 0
M  V30 606 H 51.8736 4.24883 0.563205 0
M  V30 607 H 56.0576 4.96178 -0.110234 0
M  V30 608 H 51.3136 6.02461 -1.04169 0
M  V30 609 H 55.4876 6.75057 -1.71086 0
M  V30 610 H 53.1146 7.28193 -2.18264 0
M  V30 611 N 54.6897 -0.239769 1.55765 0
M  V30 612 C 55.6217 -1.32001 1.87372 0
M  V30 613 C 56.6347 -1.43944 0.760522 0
M  V30 614 O 57.8237 -1.45167 1.0387 0
M  V30 615 C 54.9237 -2.69779 2.05115 0
M  V30 616 C 54.0967 -2.80014 3.36022 0
M  V30 617 C 53.1557 -3.98684 3.4342 0
M  V30 618 O 52.1817 -3.87877 4.16582 0
M  V30 619 N 53.3837 -5.12176 2.73232 0
M  V30 620 H 56.1487 -1.0522 2.80622 0
M  V30 621 H 53.7097 -0.429857 1.56089 0
M  V30 622 H 55.7017 -3.47517 2.07399 0
M  V30 623 H 54.2717 -2.89237 1.18577 0
M  V30 624 H 53.4917 -1.88896 3.45994 0
M  V30 625 H 54.7797 -2.83808 4.22292 0
M  V30 626 H 54.1777 -5.2385 2.13536 0
M  V30 627 H 52.7347 -5.88022 2.81199 0
M  V30 628 N 56.1678 -1.49265 -0.50573 0
M  V30 629 C 57.5838 -1.35923 -0.836486 0
M  V30 630 C 57.7838 -0.388704 -1.97715 0
M  V30 631 O 56.8398 0.181336 -2.51848 0
M  V30 632 C 58.1528 -2.76531 -1.18115 0
M  V30 633 C 59.7008 -2.85197 -1.28964 0
M  V30 634 C 60.1758 -4.26561 -1.66761 0
M  V30 635 N 61.6668 -4.2935 -1.73819 0
M  V30 636 C 62.4018 -5.35693 -2.045 0
M  V30 637 N 61.8978 -6.52287 -2.33438 0
M  V30 638 N 63.6908 -5.23105 -2.05711 0
M  V30 639 H 55.8418 -2.10965 0.246519 0
M  V30 640 H 58.1048 -0.9468 0.0476887 0
M  V30 641 H 57.8108 -3.49226 -0.416398 0
M  V30 642 H 57.6848 -3.11599 -2.1257 0
M  V30 643 H 60.0718 -2.12742 -2.04511 0
M  V30 644 H 60.1528 -2.53718 -0.325704 0
M  V30 645 H 59.7968 -4.99541 -0.917656 0
M  V30 646 H 59.7268 -4.55502 -2.64246 0
M  V30 647 H 62.2178 -3.4526 -1.53635 0
M  V30 648 H 62.5308 -7.29158 -2.56024 0
M  V30 649 H 60.8758 -6.55521 -2.30905 0
M  V30 650 H 64.0668 -4.31026 -1.82577 0
M  V30 651 H 64.2398 -6.06078 -2.29289 0
M  V30 652 N 57.6459 0.756429 -1.3826 0
M  V30 653 C 58.5559 1.9009 -1.37488 0
M  V30 654 C 59.5719 1.71855 -0.272366 0
M  V30 655 O 60.7479 1.94827 -0.510318 0
M  V30 656 C 57.8129 3.25421 -1.19592 0
M  V30 657 C 56.8739 3.56202 -2.39622 0
M  V30 658 C 56.1069 4.85075 -2.2257 0
M  V30 659 O 56.3299 5.57246 -1.21793 0
M  V30 660 O 55.2639 5.15269 -3.11098 0
M  V30 661 H 59.0899 1.93695 -2.33914 0
M  V30 662 H 56.6749 0.901313 -1.1915 0
M  V30 663 H 58.5569 4.06337 -1.11661 0
M  V30 664 H 57.2319 3.22634 -0.262486 0
M  V30 665 H 56.1389 2.75458 -2.53128 0
M  V30 666 H 57.4719 3.63747 -3.31586 0
M  V30 667 N 59.124 1.23083 0.984299 0
M  V30 668 C 60.034 1.02515 2.11016 0
M  V30 669 C 61.05 -0.0291702 1.73976 0
M  V30 670 O 62.226 0.165434 2.00719 0
M  V30 671 C 59.291 0.614673 3.41208 0
M  V30 672 C 58.352 1.74359 3.92297 0
M  V30 673 C 57.585 1.35261 5.16275 0
M  V30 674 O 57.808 0.235136 5.69915 0
M  V30 675 O 56.742 2.17227 5.61334 0
M  V30 676 H 60.568 1.96862 2.31255 0
M  V30 677 H 58.153 1.01753 1.09392 0
M  V30 678 H 60.035 0.396518 4.1953 0
M  V30 679 H 58.71 -0.299851 3.22308 0
M  V30 680 H 57.617 2.01635 3.1511 0
M  V30 681 H 58.95 2.63629 4.15645 0
M  V30 682 N 60.6021 -1.18246 1.0419 0
M  V30 683 C 61.8511 -1.87588 0.741194 0
M  V30 684 C 62.1641 -1.81303 -0.734066 0
M  V30 685 O 63.3701 -2.46019 -1.14834 0
M  V30 686 C 61.8261 -3.36538 1.27555 0
M  V30 687 C 61.4341 -3.51349 2.77953 0
M  V30 688 C 63.1781 -4.11273 1.05143 0
M  V30 689 C 61.0851 -4.94265 3.2474 0
M  V30 690 H 60.0151 -0.702622 0.273565 0
M  V30 691 H 62.6661 -1.33601 1.25789 0
M  V30 692 H 61.0481 -3.9 0.686703 0
M  V30 693 H 62.2221 -3.08153 3.42605 0
M  V30 694 H 60.5371 -2.90022 2.98791 0
M  V30 695 H 63.1341 -5.16689 1.37611 0
M  V30 696 H 63.4771 -4.16298 -0.0112774 0
M  V30 697 H 64.0101 -3.63987 1.60495 0
M  V30 698 H 60.7491 -4.94408 4.30396 0
M  V30 699 H 60.2691 -5.38172 2.64823 0
M  V30 700 H 61.9481 -5.62987 3.18834 0
M  V30 701 N 62.0802 -0.821533 -1.34494 0
M  V30 702 C 63.0432 -0.247847 -2.27856 0
M  V30 703 C 64.0432 0.573453 -1.50227 0
M  V30 704 O 65.2332 0.389759 -1.69784 0
M  V30 705 C 62.3652 0.652698 -3.34593 0
M  V30 706 H 63.5582 -1.07146 -2.80107 0
M  V30 707 H 61.1112 -0.593291 -1.44602 0
M  V30 708 H 61.8462 1.49943 -2.87555 0
M  V30 709 H 61.6312 0.065292 -3.92046 0
M  V30 710 H 63.1212 1.04793 -4.04238 0
M  V30 711 N 63.5583 1.46682 -0.576371 0
M  V30 712 C 64.4903 2.28341 0.198231 0
M  V30 713 C 65.5033 1.38141 0.861453 0
M  V30 714 O 66.6923 1.62797 0.732082 0
M  V30 715 C 63.7923 3.12986 1.29972 0
M  V30 716 C 62.9653 4.31271 0.729639 0
M  V30 717 C 62.0243 4.97363 1.71803 0
M  V30 718 O 61.0503 5.55156 1.25658 0
M  V30 719 N 62.2523 4.93796 3.05198 0
M  V30 720 H 65.0173 2.9546 -0.502324 0
M  V30 721 H 62.5783 1.56525 -0.413715 0
M  V30 722 H 64.5703 3.54066 1.96008 0
M  V30 723 H 63.1403 2.47984 1.90323 0
M  V30 724 H 62.3603 3.94052 -0.108012 0
M  V30 725 H 63.6483 5.07739 0.328438 0
M  V30 726 H 63.0463 4.48077 3.45317 0
M  V30 727 H 61.6033 5.38837 3.6674 0
M  V30 728 N 65.0364 0.313813 1.54444 0
M  V30 729 C 65.9664 -0.549454 2.26943 0
M  V30 730 C 66.9474 -1.12741 1.27372 0
M  V30 731 O 68.1324 -1.15436 1.56167 0
M  V30 732 C 65.2624 -1.71523 3.01989 0
M  V30 733 C 64.2164 -1.26703 4.08816 0
M  V30 734 C 63.5424 -2.51898 4.71647 0
M  V30 735 C 64.8424 -0.388962 5.2085 0
M  V30 736 H 66.5364 0.0552661 2.99349 0
M  V30 737 H 64.0824 0.0280207 1.43973 0
M  V30 738 H 66.0354 -2.32535 3.51433 0
M  V30 739 H 64.7594 -2.34639 2.27183 0
M  V30 740 H 63.4184 -0.679896 3.6024 0
M  V30 741 H 63.0664 -3.13356 3.93468 0
M  V30 742 H 62.7664 -2.22605 5.43802 0
M  V30 743 H 64.2904 -3.1369 5.23861 0
M  V30 744 H 65.7044 -0.905107 5.6611 0
M  V30 745 H 64.1014 -0.18924 5.99802 0
M  V30 746 H 65.1714 0.582699 4.81386 0
M  V30 747 N 66.5145 -1.57545 0.0417849 0
M  V30 748 C 67.4775 -2.09885 -0.92093 0
M  V30 749 C 68.4775 -1.01648 -1.24596 0
M  V30 750 O 69.6675 -1.27759 -1.1842 0
M  V30 751 C 66.7995 -2.57527 -2.23367 0
M  V30 752 H 67.9925 -2.96236 -0.467382 0
M  V30 753 H 65.5455 -1.5493 -0.206467 0
M  V30 754 H 66.2805 -1.74542 -2.73323 0
M  V30 755 H 66.0655 -3.36613 -2.01083 0
M  V30 756 H 67.5555 -2.98201 -2.92346 0
M  V30 757 N 67.9926 0.231505 -1.5589 0
M  V30 758 C 69.4086 0.580748 -1.48659 0
M  V30 759 C 69.6086 1.87617 -0.73498 0
M  V30 760 O 68.6646 2.51046 -0.270586 0
M  V30 761 C 69.9776 0.669202 -2.93159 0
M  V30 762 C 71.5256 0.760499 -3.03621 0
M  V30 763 C 72.0006 0.880383 -4.49459 0
M  V30 764 N 73.4916 0.944861 -4.53461 0
M  V30 765 C 74.2266 1.05716 -5.63571 0
M  V30 766 N 73.7226 1.13403 -6.83456 0
M  V30 767 N 75.5156 1.09152 -5.514 0
M  V30 768 H 67.6666 -0.618695 -2.03189 0
M  V30 769 H 69.9296 -0.215728 -0.923128 0
M  V30 770 H 69.6356 -0.212904 -3.51055 0
M  V30 771 H 69.5096 1.5361 -3.44505 0
M  V30 772 H 71.8966 1.63305 -2.45796 0
M  V30 773 H 71.9776 -0.131864 -2.5546 0
M  V30 774 H 71.6216 0.0123284 -5.07899 0
M  V30 775 H 71.5516 1.78802 -4.95316 0
M  V30 776 H 74.0426 0.896176 -3.6712 0
M  V30 777 H 74.3556 1.21921 -7.63122 0
M  V30 778 H 72.7006 1.10333 -6.86186 0
M  V30 779 H 75.8916 1.02805 -4.56671 0
M  V30 780 H 76.0646 1.17558 -6.37247 0
M  V30 781 N 69.4707 1.49531 0.497807 0
M  V30 782 C 70.4027 1.62559 1.61578 0
M  V30 783 C 71.4157 0.508134 1.54667 0
M  V30 784 O 72.6047 0.780309 1.60541 0
M  V30 785 C 69.7047 1.56925 3.00379 0
M  V30 786 C 68.8777 2.84257 3.3244 0
M  V30 787 C 67.9367 2.71632 4.50669 0
M  V30 788 O 66.9627 3.4557 4.52294 0
M  V30 789 N 68.1647 1.83391 5.5077 0
M  V30 790 H 70.9297 2.58981 1.50828 0
M  V30 791 H 68.4907 1.4666 0.685743 0
M  V30 792 H 70.4827 1.46129 3.77397 0
M  V30 793 H 69.0527 0.683483 3.05037 0
M  V30 794 H 68.2727 3.09381 2.44289 0
M  V30 795 H 69.5607 3.68666 3.5066 0
M  V30 796 H 68.9587 1.22583 5.52259 0
M  V30 797 H 67.5157 1.78515 6.26878 0
M  V30 798 N 70.9488 -0.749086 1.3866 0
M  V30 799 C 72.1788 -1.53611 1.38157 0
M  V30 800 C 72.5868 -1.89177 -0.0293595 0
M  V30 801 O 71.9298 -1.53606 -1.00752 0
M  V30 802 C 71.9918 -2.86087 2.17702 0
M  V30 803 C 71.6558 -2.73034 3.66472 0
M  V30 804 C 72.6528 -2.42526 4.59866 0
M  V30 805 C 70.3378 -2.90345 4.09884 0
M  V30 806 C 72.3318 -2.29492 5.94653 0
M  V30 807 C 70.0188 -2.7693 5.4475 0
M  V30 808 C 71.0168 -2.46547 6.36949 0
M  V30 809 O 70.7048 -2.33199 7.69333 0
M  V30 810 H 70.4368 -0.481773 0.474205 0
M  V30 811 H 72.9908 -0.934465 1.82912 0
M  V30 812 H 71.2208 -3.48458 1.67672 0
M  V30 813 H 72.9098 -3.47625 2.09551 0
M  V30 814 H 73.6758 -2.28816 4.27631 0
M  V30 815 H 69.5548 -3.1299 3.38464 0
M  V30 816 H 73.0988 -2.05698 6.66584 0
M  V30 817 H 68.9958 -2.90215 5.76581 0
M  V30 818 H 69.7638 -2.48376 7.79905 0
M  V30 819 N 72.4269 -1.23603 -0.977757 0
M  V30 820 C 73.3899 -1.02069 -2.05218 0
M  V30 821 C 74.3899 0.0184305 -1.60789 0
M  V30 822 O 75.5799 -0.221569 -1.72785 0
M  V30 823 C 72.7119 -0.544926 -3.36517 0
M  V30 824 H 73.9049 -1.9742 -2.25755 0
M  V30 825 H 71.4579 -1.05684 -1.15155 0
M  V30 826 H 72.1929 0.412241 -3.21669 0
M  V30 827 H 71.9779 -1.2948 -3.70105 0
M  V30 828 H 73.4679 -0.414985 -4.15533 0
M  V30 829 N 73.905 1.17692 -1.04816 0
M  V30 830 C 75.153 1.87488 -0.754497 0
M  V30 831 C 75.474 1.81205 0.720407 0
M  V30 832 O 74.744 1.23544 1.52032 0
M  V30 833 H 73.324 0.694101 -0.276102 0
M  V30 834 H 75.986 1.42793 -1.32651 0
M  V30 835 H 75.082 2.93328 -1.06606 0
M  V30 836 N 75.3831 0.828654 1.34056 0
M  V30 837 C 76.3131 0.269443 2.3194 0
M  V30 838 C 77.2941 -0.617247 1.58506 0
M  V30 839 O 78.4791 -0.542931 1.86456 0
M  V30 840 C 75.6091 -0.564793 3.42677 0
M  V30 841 C 74.5631 0.225241 4.27407 0
M  V30 842 C 73.8891 -0.7321 5.29664 0
M  V30 843 C 75.1891 1.43663 5.02154 0
M  V30 844 H 76.8831 1.08728 2.7896 0
M  V30 845 H 74.4291 0.524283 1.34117 0
M  V30 846 H 76.3821 -0.966233 4.10173 0
M  V30 847 H 75.1061 -1.41574 2.9432 0
M  V30 848 H 73.7651 0.608117 3.61521 0
M  V30 849 H 73.4131 -1.57916 4.77568 0
M  V30 850 H 73.1131 -0.20767 5.87233 0
M  V30 851 H 74.6371 -1.13128 6.00029 0
M  V30 852 H 76.0511 1.1089 5.62473 0
M  V30 853 H 74.4481 1.89711 5.69324 0
M  V30 854 H 75.5181 2.21181 4.31517 0
M  V30 855 N 76.8612 -1.46375 0.584142 0
M  V30 856 C 78.1382 -1.956 0.0033388 0
M  V30 857 C 78.5182 -1.52679 -1.45782 0
M  V30 858 O 77.8662 -0.77816 -2.14842 0
M  V30 859 C 78.0762 -3.48551 0.176891 0
M  V30 860 C 79.4242 -4.24576 0.0454609 0
M  V30 861 O 80.4482 -3.56043 0.105801 0
M  V30 862 O 79.3072 -5.46427 -0.0890376 0
M  V30 863 H 76.4012 -0.825547 -0.0490066 0
M  V30 864 H 78.9472 -1.56652 0.65256 0
M  V30 865 H 77.7192 -3.72683 1.1926 0
M  V30 866 H 77.3422 -3.94332 -0.508695 0
M  V30 867 N 78.3393 -0.321999 -1.54275 0
M  V30 868 C 79.2893 0.560185 -2.21011 0
M  V30 869 C 80.2733 1.08283 -1.19011 0
M  V30 870 O 81.4653 1.02011 -1.44647 0
M  V30 871 C 78.5943 1.72137 -2.97025 0
M  V30 872 C 77.6803 1.21369 -4.06363 0
M  V30 873 N 78.0713 0.425566 -5.04007 0
M  V30 874 C 76.3693 1.49255 -4.20284 0
M  V30 875 C 77.0703 0.152601 -5.815 0
M  V30 876 N 76.0463 0.738294 -5.38563 0
M  V30 877 H 79.8483 -0.049265 -2.93859 0
M  V30 878 H 77.3623 -0.127779 -1.61897 0
M  V30 879 H 79.3593 2.36512 -3.43319 0
M  V30 880 H 78.0193 2.33431 -2.25699 0
M  V30 881 H 79.0303 0.068551 -5.17855 0
M  V30 882 H 75.7073 2.11145 -3.60172 0
M  V30 883 H 77.0973 -0.481764 -6.70171 0
M  V30 884 N 79.8174 1.5752 -0.0501392 0
M  V30 885 C 80.7274 2.14952 0.939827 0
M  V30 886 C 81.7434 1.10706 1.34239 0
M  V30 887 O 82.9194 1.42869 1.41952 0
M  V30 888 C 79.9844 2.68232 2.19665 0
M  V30 889 C 79.0454 3.87272 1.85253 0
M  V30 890 C 78.2784 4.38002 3.04943 0
M  V30 891 O 78.5014 3.87811 4.18281 0
M  V30 892 O 77.4354 5.29602 2.86017 0
M  V30 893 H 81.2614 2.9986 0.481392 0
M  V30 894 H 78.8464 1.4841 0.171699 0
M  V30 895 H 80.7284 3.02475 2.93406 0
M  V30 896 H 79.4034 1.86395 2.64648 0
M  V30 897 H 78.3104 3.5792 1.0883 0
M  V30 898 H 79.6434 4.70336 1.4507 0
M  V30 899 N 81.2955 -0.223234 1.56011 0
M  V30 900 C 82.2255 -1.27988 1.95298 0
M  V30 901 C 83.2065 -1.48976 0.820979 0
M  V30 902 O 84.3915 -1.61188 1.08315 0
M  V30 903 C 81.5215 -2.63 2.26822 0
M  V30 904 C 80.4755 -2.56671 3.42497 0
M  V30 905 C 79.8015 -3.95697 3.59622 0
M  V30 906 C 81.1015 -2.11601 4.77517 0
M  V30 907 H 82.7955 -0.953525 2.8381 0
M  V30 908 H 80.3415 -0.457244 1.36548 0
M  V30 909 H 82.2945 -3.37077 2.52898 0
M  V30 910 H 81.0185 -2.9732 1.35161 0
M  V30 911 H 79.6775 -1.85051 3.16467 0
M  V30 912 H 79.3255 -4.27322 2.6534 0
M  V30 913 H 79.0255 -3.92345 4.37424 0
M  V30 914 H 80.5495 -4.71438 3.88044 0
M  V30 915 H 81.9635 -2.7542 5.02809 0
M  V30 916 H 80.3605 -2.19311 5.5859 0
M  V30 917 H 81.4305 -1.06824 4.72987 0
M  V30 918 N 82.7736 -1.49793 -0.48987 0
M  V30 919 C 83.7366 -1.66752 -1.57246 0
M  V30 920 C 84.7366 -0.538867 -1.51502 0
M  V30 921 O 85.9266 -0.805545 -1.54456 0
M  V30 922 C 83.0586 -1.67528 -2.96896 0
M  V30 923 H 84.2516 -2.63321 -1.43534 0
M  V30 924 H 81.8046 -1.38992 -0.714914 0
M  V30 925 H 82.5396 -0.725837 -3.16073 0
M  V30 926 H 82.3246 -2.49504 -3.02473 0
M  V30 927 H 83.8146 -1.82667 -3.7553 0
M  V30 928 N 84.2517 0.741722 -1.39055 0
M  V30 929 C 85.4987 1.50114 -1.35912 0
M  V30 930 C 85.8267 1.94443 0.0470937 0
M  V30 931 O 85.0817 1.66612 1.02659 0
M  V30 932 C 85.3807 2.7592 -2.27163 0
M  V30 933 C 85.0467 2.50493 -3.74919 0
M  V30 934 C 83.7087 2.43267 -4.1518 0
M  V30 935 C 86.0607 2.28585 -4.684 0
M  V30 936 C 83.3887 2.12166 -5.46994 0
M  V30 937 C 85.7407 1.99002 -6.00484 0
M  V30 938 C 84.4047 1.90241 -6.39816 0
M  V30 939 H 83.6747 0.549306 -0.497336 0
M  V30 940 H 86.3217 0.851896 -1.71508 0
M  V30 941 H 84.6267 3.45553 -1.84663 0
M  V30 942 H 86.3237 3.33923 -2.22028 0
M  V30 943 H 82.9137 2.56992 -3.43006 0
M  V30 944 H 87.0977 2.33139 -4.38132 0
M  V30 945 H 82.3537 2.03901 -5.76398 0
M  V30 946 H 86.5277 1.81057 -6.72452 0
M  V30 947 H 84.1547 1.65907 -7.41875 0
M  V30 948 N 85.7298 1.2412 0.971189 0
M  V30 949 C 86.9548 1.10667 1.75407 0
M  V30 950 C 87.3798 -0.337048 1.85056 0
M  V30 951 O 86.7378 -1.24396 1.31892 0
M  V30 952 C 86.7858 1.74726 3.15441 0
M  V30 953 O 85.8898 1.01566 3.99697 0
M  V30 954 H 85.2308 0.387341 0.539317 0
M  V30 955 H 87.7608 1.64358 1.2185 0
M  V30 956 H 87.7708 1.80341 3.6598 0
M  V30 957 H 86.4458 2.79773 3.07734 0
M  V30 958 H 85.0228 1.03713 3.58187 0
M  V30 959 N 87.2079 -1.17134 1.05439 0
M  V30 960 C 88.6239 -1.39454 0.776201 0
M  V30 961 C 88.8239 -1.91454 -0.628307 0
M  V30 962 O 87.8799 -2.10777 -1.39031 0
M  V30 963 C 89.1929 -2.38305 1.83388 0
M  V30 964 C 90.7409 -2.52006 1.85639 0
M  V30 965 C 91.2159 -3.54133 2.90437 0
M  V30 966 N 92.7069 -3.61653 2.89415 0
M  V30 967 C 93.4419 -4.4044 3.67152 0
M  V30 968 N 92.9379 -5.22721 4.54681 0
M  V30 969 N 94.7309 -4.35337 3.55581 0
M  V30 970 H 86.8819 -0.817134 1.96053 0
M  V30 971 H 89.1449 -0.421626 0.849079 0
M  V30 972 H 88.8509 -2.07173 2.84204 0
M  V30 973 H 88.7249 -3.37841 1.67761 0
M  V30 974 H 91.1119 -2.82447 0.85486 0
M  V30 975 H 91.1929 -1.52537 2.05344 0
M  V30 976 H 90.8369 -3.24431 3.90777 0
M  V30 977 H 90.7669 -4.53313 2.67983 0
M  V30 978 H 93.2579 -3.02909 2.25952 0
M  V30 979 H 93.5709 -5.80027 5.10674 0
M  V30 980 H 91.9159 -5.22093 4.58741 0
M  V30 981 H 95.1069 -3.70112 2.86592 0
M  V30 982 H 95.2799 -4.96494 4.1641 0
M  V30 983 N 88.686 -0.835752 -1.33615 0
M  V30 984 C 89.616 -0.281739 -2.31794 0
M  V30 985 C 90.597 0.608833 -1.58831 0
M  V30 986 O 91.782 0.533035 -1.86741 0
M  V30 987 C 88.912 0.546612 -3.42971 0
M  V30 988 C 87.866 -0.247904 -4.27281 0
M  V30 989 C 87.192 0.704001 -5.30045 0
M  V30 990 C 88.492 -1.46324 -5.01385 0
M  V30 991 H 90.186 -1.10206 -2.78379 0
M  V30 992 H 87.732 -0.531388 -1.33837 0
M  V30 993 H 89.685 0.944467 -4.1068 0
M  V30 994 H 88.409 1.40011 -2.95067 0
M  V30 995 H 87.068 -0.627281 -3.61194 0
M  V30 996 H 86.716 1.55381 -4.78399 0
M  V30 997 H 86.416 0.176524 -5.87335 0
M  V30 998 H 87.94 1.09944 -6.0062 0
M  V30 999 H 89.354 -1.13871 -5.61877 0
M  V30 1000 H 87.751 -1.92728 -5.6831 0
M  V30 1001 H 88.821 -2.23467 -4.30338 0
M  V30 1002 N 90.1641 1.46063 -0.591896 0
M  V30 1003 C 91.4131 2.01547 -0.0786637 0
M  V30 1004 C 91.7261 1.46796 1.29268 0
M  V30 1005 O 92.9321 1.94157 1.89777 0
M  V30 1006 C 91.3881 3.59787 -0.0900024 0
M  V30 1007 C 90.9961 4.23534 -1.46023 0
M  V30 1008 C 92.7401 4.22895 0.368806 0
M  V30 1009 C 90.6471 5.73881 -1.4288 0
M  V30 1010 H 89.5771 0.753564 -0.0256388 0
M  V30 1011 H 92.2281 1.677 -0.744905 0
M  V30 1012 H 90.6101 3.90752 0.642586 0
M  V30 1013 H 91.7841 4.04167 -2.21328 0
M  V30 1014 H 90.0991 3.72558 -1.85982 0
M  V30 1015 H 92.6961 5.33116 0.411258 0
M  V30 1016 H 93.0391 3.9247 1.38827 0
M  V30 1017 H 93.5721 3.9659 -0.31001 0
M  V30 1018 H 90.3111 6.0898 -2.42536 0
M  V30 1019 H 89.8311 5.95486 -0.718095 0
M  V30 1020 H 91.5101 6.36776 -1.14565 0
M  V30 1021 N 91.6422 0.330177 1.54103 0
M  V30 1022 C 92.8882 -0.270806 2.00984 0
M  V30 1023 C 93.2212 -1.51265 1.21789 0
M  V30 1024 O 92.4962 -1.92142 0.301927 0
M  V30 1025 C 92.7792 -0.598339 3.55094 0
M  V30 1026 C 92.6322 0.654674 4.4501 0
M  V30 1027 C 93.9512 -1.41334 4.16789 0
M  V30 1028 H 91.0702 -0.0969531 0.730595 0
M  V30 1029 H 93.7122 0.448066 1.84641 0
M  V30 1030 H 91.8622 -1.21078 3.69151 0
M  V30 1031 H 93.5342 1.29285 4.42813 0
M  V30 1032 H 91.7772 1.28224 4.14416 0
M  V30 1033 H 92.4482 0.380944 5.50684 0
M  V30 1034 H 94.9242 -0.895597 4.06347 0
M  V30 1035 H 93.8002 -1.61127 5.24718 0
M  V30 1036 H 94.0612 -2.41146 3.70541 0
M  V30 1037 N 93.1203 -1.57491 0.0584922 0
M  V30 1038 C 94.0303 -2.15448 -0.928414 0
M  V30 1039 C 95.0463 -1.11416 -1.3365 0
M  V30 1040 O 96.2223 -1.4362 -1.41193 0
M  V30 1041 C 93.2873 -2.69393 -2.18239 0
M  V30 1042 C 92.3483 -3.88249 -1.83196 0
M  V30 1043 C 91.5813 -4.39613 -3.02616 0
M  V30 1044 O 91.8043 -3.90023 -4.16219 0
M  V30 1045 O 90.7383 -5.31111 -2.83204 0
M  V30 1046 H 94.5643 -3.00112 -0.465483 0
M  V30 1047 H 92.1493 -1.48499 -0.163826 0
M  V30 1048 H 94.0313 -3.04026 -2.91798 0
M  V30 1049 H 92.7063 -1.87796 -2.63656 0
M  V30 1050 H 91.6133 -3.58492 -1.06931 0
M  V30 1051 H 92.9463 -4.71098 -1.42573 0
M  V30 1052 N 94.5984 0.214957 -1.56127 0
M  V30 1053 C 95.5284 1.2695 -1.95974 0
M  V30 1054 C 96.5094 1.48539 -0.828868 0
M  V30 1055 O 97.6944 1.60611 -1.09168 0
M  V30 1056 C 94.8244 2.61794 -2.28214 0
M  V30 1057 C 93.7784 2.54851 -3.43853 0
M  V30 1058 C 93.1044 3.93785 -3.61715 0
M  V30 1059 C 94.4044 2.09065 -4.78632 0
M  V30 1060 H 96.0984 0.93846 -2.84312 0
M  V30 1061 H 93.6444 0.449996 -1.36788 0
M  V30 1062 H 95.5974 3.35731 -2.54682 0
M  V30 1063 H 94.3214 2.96599 -1.36736 0
M  V30 1064 H 92.9804 1.8337 -3.17444 0
M  V30 1065 H 92.6284 4.25908 -2.67602 0
M  V30 1066 H 92.3284 3.90019 -4.39498 0
M  V30 1067 H 93.8524 4.69374 -3.90539 0
M  V30 1068 H 95.2664 2.7275 -5.04262 0
M  V30 1069 H 93.6634 2.16346 -5.59745 0
M  V30 1070 H 94.7334 1.04315 -4.73547 0
M  V30 1071 N 96.0765 1.50051 0.48192 0
M  V30 1072 C 97.4925 1.37237 0.814756 0
M  V30 1073 C 97.6925 0.420109 1.97072 0
M  V30 1074 O 96.7485 -0.141246 2.52105 0
M  V30 1075 C 98.0615 2.78375 1.13701 0
M  V30 1076 C 99.6095 2.87213 1.2441 0
M  V30 1077 C 100.084 4.29161 1.59954 0
M  V30 1078 N 101.575 4.32061 1.66967 0
M  V30 1079 C 102.31 5.38879 1.95952 0
M  V30 1080 N 101.806 6.55918 2.23031 0
M  V30 1081 N 103.599 5.26312 1.97363 0
M  V30 1082 H 95.7505 2.10546 -0.28005 0
M  V30 1083 H 98.0135 0.945921 -0.0627454 0
M  V30 1084 H 97.7195 3.49845 0.360787 0
M  V30 1085 H 97.5935 3.14941 2.07586 0
M  V30 1086 H 99.9805 2.15969 2.01101 0
M  V30 1087 H 100.061 2.54204 0.285299 0
M  V30 1088 H 99.7055 5.00938 0.838067 0
M  V30 1089 H 99.6355 4.59648 2.56966 0
M  V30 1090 H 102.126 3.47661 1.48123 0
M  V30 1091 H 102.439 7.33139 2.44391 0
M  V30 1092 H 100.784 6.59112 2.20447 0
M  V30 1093 H 103.975 4.33876 1.75697 0
M  V30 1094 H 104.148 6.09649 2.19618 0
M  V30 1095 N 97.5546 -0.734337 1.39446 0
M  V30 1096 C 98.9706 -1.03997 1.21065 0
M  V30 1097 C 99.1706 -2.01369 0.0727019 0
M  V30 1098 O 98.2266 -2.45856 -0.575426 0
M  V30 1099 C 99.5396 -1.60163 2.54496 0
M  V30 1100 C 101.088 -1.7224 2.61347 0
M  V30 1101 C 101.563 -2.31814 3.95002 0
M  V30 1102 N 103.054 -2.39223 3.96644 0
M  V30 1103 C 103.789 -2.86258 4.96834 0
M  V30 1104 N 103.285 -3.33184 6.07421 0
M  V30 1105 N 105.078 -2.85473 4.84213 0
M  V30 1106 H 97.2286 -0.0885624 2.12215 0
M  V30 1107 H 99.4916 -0.10191 0.942506 0
M  V30 1108 H 99.1976 -0.960811 3.38321 0
M  V30 1109 H 99.0716 -2.5896 2.74262 0
M  V30 1110 H 101.459 -2.35443 1.77906 0
M  V30 1111 H 101.54 -0.720939 2.4543 0
M  V30 1112 H 101.184 -1.69238 4.78875 0
M  V30 1113 H 101.114 -3.32638 4.08239 0
M  V30 1114 H 103.605 -2.06057 3.16779 0
M  V30 1115 H 103.918 -3.67586 6.7978 0
M  V30 1116 H 102.263 -3.31191 6.11013 0
M  V30 1117 H 105.454 -2.48136 3.96921 0
M  V30 1118 H 105.627 -3.21814 5.62441 0
M  V30 1119 N 99.0327 -1.24633 -0.964593 0
M  V30 1120 C 99.9627 -1.06611 -2.07741 0
M  V30 1121 C 100.944 0.0218666 -1.70086 0
M  V30 1122 O 102.129 -0.145793 -1.93652 0
M  V30 1123 C 99.2587 -0.673444 -3.40708 0
M  V30 1124 C 98.2127 -1.71054 -3.92332 0
M  V30 1125 C 97.5387 -1.17285 -5.21678 0
M  V30 1126 C 98.8387 -3.10718 -4.19824 0
M  V30 1127 H 100.533 -1.99693 -2.23076 0
M  V30 1128 H 98.0787 -0.96152 -1.07195 0
M  V30 1129 H 100.032 -0.534345 -4.17998 0
M  V30 1130 H 98.7557 0.293073 -3.25282 0
M  V30 1131 H 97.4147 -1.83791 -3.17201 0
M  V30 1132 H 97.0627 -0.196847 -5.02615 0
M  V30 1133 H 96.7627 -1.86592 -5.57187 0
M  V30 1134 H 98.2867 -1.04593 -6.01575 0
M  V30 1135 H 99.7007 -3.01192 -4.87808 0
M  V30 1136 H 98.0977 -3.77406 -4.66567 0
M  V30 1137 H 99.1677 -3.58524 -3.26479 0
M  V30 1138 N 100.511 1.16574 -1.06058 0
M  V30 1139 C 101.461 2.18854 -0.63929 0
M  V30 1140 C 102.445 1.57505 0.328798 0
M  V30 1141 O 103.637 1.76408 0.144623 0
M  V30 1142 C 100.766 3.43291 -0.0247203 0
M  V30 1143 C 99.8518 4.11722 -1.01716 0
M  V30 1144 N 100.243 4.55841 -2.19186 0
M  V30 1145 C 98.5408 4.37872 -0.847569 0
M  V30 1146 C 99.2418 5.08751 -2.82042 0
M  V30 1147 N 98.2178 5.01489 -2.09784 0
M  V30 1148 H 102.02 2.5068 -1.53417 0
M  V30 1149 H 99.5338 1.32999 -0.931935 0
M  V30 1150 H 101.531 4.15856 0.294915 0
M  V30 1151 H 100.191 3.12954 0.865448 0
M  V30 1152 H 101.202 4.49649 -2.56975 0
M  V30 1153 H 97.8788 4.17499 -0.00918848 0
M  V30 1154 H 99.2688 5.52944 -3.81709 0
M  V30 1155 N 101.989 0.842826 1.3317 0
M  V30 1156 C 103.4 0.496651 1.79973 0
M  V30 1157 C 103.751 -0.984641 1.69703 0
M  V30 1158 O 102.876 -1.76743 1.24863 0
M  V30 1159 C 103.471 0.894727 3.26772 0
M  V30 1160 C 102.03 0.600629 3.71577 0
M  V30 1161 C 101.177 1.10091 2.5451 0
M  V30 1162 H 104.128 1.03116 1.20635 0
M  V30 1163 H 104.149 0.206347 3.7994 0
M  V30 1164 H 103.661 1.97287 3.34215 0
M  V30 1165 H 101.762 -0.467284 3.69658 0
M  V30 1166 H 101.875 1.15863 4.64879 0
M  V30 1167 H 100.239 0.52162 2.49301 0
M  V30 1168 H 101.022 2.18591 2.64713 0
M  V30 1169 N 103.467 -1.45747 0.599634 0
M  V30 1170 C 104.715 -2.01893 0.0915472 0
M  V30 1171 C 105.036 -1.47155 -1.27946 0
M  V30 1172 O 104.306 -0.66273 -1.84349 0
M  V30 1173 H 102.886 -0.746363 0.0308524 0
M  V30 1174 H 105.548 -1.78645 0.779237 0
M  V30 1175 H 104.644 -3.1208 0.0353086 0
M  V30 1176 N 104.945 -0.338344 -1.53925 0
M  V30 1177 C 105.895 0.536712 -2.21593 0
M  V30 1178 C 106.879 1.07015 -1.20153 0
M  V30 1179 O 108.071 1.00471 -1.45721 0
M  V30 1180 C 105.2 1.68977 -2.98834 0
M  V30 1181 C 104.286 1.17052 -4.07627 0
M  V30 1182 N 104.677 0.372085 -5.0443 0
M  V30 1183 C 102.975 1.44789 -4.21844 0
M  V30 1184 C 103.676 0.0909171 -5.81629 0
M  V30 1185 N 102.652 0.681131 -5.39316 0
M  V30 1186 H 106.454 -0.0804298 -2.9379 0
M  V30 1187 H 103.968 -0.144943 -1.61752 0
M  V30 1188 H 105.965 2.32857 -3.45808 0
M  V30 1189 H 104.625 2.31024 -2.28162 0
M  V30 1190 H 105.636 0.0136217 -5.17898 0
M  V30 1191 H 102.313 2.07313 -3.62391 0
M  V30 1192 H 103.703 -0.552817 -6.69622 0
M  V30 1193 N 106.423 1.57458 -0.0668435 0
M  V30 1194 C 107.669 1.93587 0.6043 0
M  V30 1195 C 108.002 0.946722 1.69561 0
M  V30 1196 O 107.277 -0.0248516 1.94484 0
M  V30 1197 C 107.56 3.40014 1.18585 0
M  V30 1198 C 107.413 4.49685 0.101529 0
M  V30 1199 C 108.732 3.87154 2.09284 0
M  V30 1200 H 105.851 0.703958 0.218202 0
M  V30 1201 H 108.493 1.89542 -0.131804 0
M  V30 1202 H 106.643 3.43592 1.81319 0
M  V30 1203 H 108.315 4.5823 -0.531279 0
M  V30 1204 H 106.558 4.30059 -0.568487 0
M  V30 1205 H 107.229 5.49266 0.54874 0
M  V30 1206 H 109.705 3.85551 1.56491 0
M  V30 1207 H 108.581 4.90231 2.46911 0
M  V30 1208 H 108.842 3.2481 2.99918 0
M  V30 1209 N 107.901 -0.206675 1.56239 0
M  V30 1210 C 108.831 -1.25909 1.96645 0
M  V30 1211 C 109.812 -1.48097 0.836734 0
M  V30 1212 O 110.997 -1.6003 1.10019 0
M  V30 1213 C 108.127 -2.6058 2.29599 0
M  V30 1214 C 107.081 -2.53024 3.452 0
M  V30 1215 C 106.407 -3.91861 3.63798 0
M  V30 1216 C 107.707 -2.06524 4.79734 0
M  V30 1217 H 109.401 -0.923369 2.84806 0
M  V30 1218 H 106.947 -0.442735 1.37025 0
M  V30 1219 H 108.9 -3.34375 2.56459 0
M  V30 1220 H 107.624 -2.95869 1.38307 0
M  V30 1221 H 106.283 -1.81684 3.18412 0
M  V30 1222 H 105.931 -4.24483 2.69857 0
M  V30 1223 H 105.631 -3.87683 4.4156 0
M  V30 1224 H 107.155 -4.67296 3.93022 0
M  V30 1225 H 108.569 -2.70072 5.05702 0
M  V30 1226 H 106.966 -2.13374 5.60885 0
M  V30 1227 H 108.036 -1.01802 4.74093 0
M  V30 1228 N 109.379 -1.50304 -0.473955 0
M  V30 1229 C 110.79 -1.54042 -1.0549 0
M  V30 1230 C 111.141 -0.342248 -1.93192 0
M  V30 1231 O 110.266 0.545157 -2.09421 0
M  V30 1232 C 110.861 -2.79152 -1.91989 0
M  V30 1233 C 109.42 -2.8558 -2.45196 0
M  V30 1234 C 108.567 -2.48295 -1.2347 0
M  V30 1235 H 111.518 -1.5661 -0.256693 0
M  V30 1236 H 111.539 -2.60845 -2.7702 0
M  V30 1237 H 111.051 -3.66339 -1.28131 0
M  V30 1238 H 109.152 -2.02738 -3.12615 0
M  V30 1239 H 109.265 -3.88403 -2.80499 0
M  V30 1240 H 107.629 -2.00669 -1.56856 0
M  V30 1241 H 108.412 -3.37787 -0.612789 0
M  V30 1242 N 110.857 0.726932 -1.39834 0
M  V30 1243 C 112.134 1.47902 -1.28001 0
M  V30 1244 C 112.514 2.1083 0.106789 0
M  V30 1245 O 111.862 1.99242 1.11869 0
M  V30 1246 C 112.072 2.52392 -2.41038 0
M  V30 1247 C 113.42 3.18546 -2.80737 0
M  V30 1248 O 114.444 2.62708 -2.40547 0
M  V30 1249 O 113.303 4.19604 -3.50135 0
M  V30 1250 H 110.397 0.657163 -0.502062 0
M  V30 1251 H 112.943 0.760071 -1.51727 0
M  V30 1252 H 111.715 2.04329 -3.33715 0
M  V30 1253 H 111.338 3.31837 -2.19021 0
M  V30 1254 N 112.336 1.25143 0.95797 0
M  V30 1255 C 113.246 1.06968 2.08794 0
M  V30 1256 C 114.262 0.00773911 1.73998 0
M  V30 1257 O 115.438 0.207972 2.00323 0
M  V30 1258 C 112.503 0.68691 3.39827 0
M  V30 1259 C 111.564 1.82641 3.88511 0
M  V30 1260 C 110.797 1.46181 5.1329 0
M  V30 1261 O 111.02 0.355971 5.69288 0
M  V30 1262 O 109.954 2.29085 5.566 0
M  V30 1263 H 113.78 2.01723 2.27027 0
M  V30 1264 H 111.365 1.04051 1.07209 0
M  V30 1265 H 113.247 0.485417 4.18595 0
M  V30 1266 H 111.922 -0.231417 3.22872 0
M  V30 1267 H 110.829 2.08274 3.10762 0
M  V30 1268 H 112.162 2.72386 4.09959 0
M  V30 1269 N 113.814 -1.1601 1.06675 0
M  V30 1270 C 114.724 -2.24156 0.692179 0
M  V30 1271 C 115.74 -1.71507 -0.293513 0
M  V30 1272 O 116.916 -2.009 -0.141861 0
M  V30 1273 C 113.981 -3.46587 0.0884131 0
M  V30 1274 C 113.042 -4.14257 1.12646 0
M  V30 1275 C 112.275 -5.30844 0.551416 0
M  V30 1276 O 112.498 -5.66858 -0.634656 0
M  V30 1277 O 111.432 -5.87848 1.29298 0
M  V30 1278 H 115.258 -2.58513 1.59388 0
M  V30 1279 H 112.843 -1.23599 0.83926 0
M  V30 1280 H 114.725 -4.20679 -0.246361 0
M  V30 1281 H 113.4 -3.13994 -0.786712 0
M  V30 1282 H 112.307 -3.42118 1.51348 0
M  V30 1283 H 113.64 -4.50914 1.97325 0
M  V30 1284 N 115.292 -0.849877 -1.32721 0
M  V30 1285 C 116.222 -0.306308 -2.31482 0
M  V30 1286 C 117.203 0.591952 -1.59468 0
M  V30 1287 O 118.388 0.513199 -1.87296 0
M  V30 1288 C 115.518 0.510204 -3.43532 0
M  V30 1289 C 114.472 -0.293209 -4.26994 0
M  V30 1290 C 113.798 0.647743 -5.30762 0
M  V30 1291 C 115.098 -1.51634 -4.99804 0
M  V30 1292 H 116.792 -1.13153 -2.77195 0
M  V30 1293 H 114.338 -0.545553 -1.33266 0
M  V30 1294 H 116.291 0.900856 -4.11658 0
M  V30 1295 H 115.015 1.36874 -2.96535 0
M  V30 1296 H 113.674 -0.665555 -3.60508 0
M  V30 1297 H 113.322 1.50299 -4.8002 0
M  V30 1298 H 113.022 0.11422 -5.87489 0
M  V30 1299 H 114.546 1.03567 -6.01753 0
M  V30 1300 H 115.96 -1.19824 -5.60638 0
M  V30 1301 H 114.357 -1.98745 -5.66234 0
M  V30 1302 H 115.427 -2.28018 -4.27943 0
M  V30 1303 N 116.77 1.45427 -0.607355 0
M  V30 1304 C 117.702 2.2871 0.149752 0
M  V30 1305 C 118.715 1.39937 0.831958 0
M  V30 1306 O 119.904 1.64313 0.697385 0
M  V30 1307 C 117.004 3.15673 1.23304 0
M  V30 1308 C 116.177 4.32722 0.637996 0
M  V30 1309 C 115.236 5.00895 1.61215 0
M  V30 1310 O 114.262 5.57697 1.13854 0
M  V30 1311 N 115.464 5.00159 2.94655 0
M  V30 1312 H 118.229 2.94328 -0.564882 0
M  V30 1313 H 115.79 1.55612 -0.446823 0
M  V30 1314 H 117.782 3.58144 1.88454 0
M  V30 1315 H 116.352 2.51965 1.8502 0
M  V30 1316 H 115.572 3.93734 -0.191572 0
M  V30 1317 H 116.86 5.08321 0.220665 0
M  V30 1318 H 116.258 4.553 3.35735 0
M  V30 1319 H 114.815 5.46495 3.55228 0
M  V30 1320 N 118.248 0.346503 1.53744 0
M  V30 1321 C 119.494 -0.242135 2.01954 0
M  V30 1322 C 119.849 -1.47962 1.22984 0
M  V30 1323 O 119.142 -1.89077 0.309924 0
M  V30 1324 C 119.336 -0.605809 3.52228 0
M  V30 1325 C 119.165 0.594882 4.45748 0
M  V30 1326 C 117.935 1.1011 4.93157 0
M  V30 1327 C 120.133 1.45425 4.93311 0
M  V30 1328 N 118.115 2.26381 5.70636 0
M  V30 1329 C 119.486 2.46383 5.68942 0
M  V30 1330 C 121.541 1.47935 4.75415 0
M  V30 1331 C 120.244 3.49684 6.28581 0
M  V30 1332 C 122.27 2.50119 5.35905 0
M  V30 1333 C 121.632 3.49803 6.11406 0
M  V30 1334 H 117.731 -0.0518296 0.780281 0
M  V30 1335 H 120.315 0.486736 1.88518 0
M  V30 1336 H 118.486 -1.30378 3.65864 0
M  V30 1337 H 120.218 -1.17789 3.87179 0
M  V30 1338 H 116.973 0.668721 4.68855 0
M  V30 1339 H 117.397 2.85094 6.14044 0
M  V30 1340 H 122.039 0.722274 4.16585 0
M  V30 1341 H 119.757 4.26285 6.86518 0
M  V30 1342 H 123.343 2.52892 5.23963 0
M  V30 1343 H 122.223 4.27576 6.5738 0
M  V30 1344 N 119.726 -1.57421 0.075193 0
M  V30 1345 C 120.972 -1.93905 -0.594025 0
M  V30 1346 C 121.305 -0.955701 -1.69056 0
M  V30 1347 O 120.58 0.0145373 -1.94495 0
M  V30 1348 C 120.863 -3.40638 -1.1678 0
M  V30 1349 C 120.716 -4.49733 -0.0776792 0
M  V30 1350 C 122.035 -3.88259 -2.07228 0
M  V30 1351 H 119.154 -0.705105 -0.214466 0
M  V30 1352 H 121.796 -1.8947 0.141854 0
M  V30 1353 H 119.946 -3.44549 -1.79494 0
M  V30 1354 H 121.618 -4.57942 0.555573 0
M  V30 1355 H 119.861 -4.29751 0.591286 0
M  V30 1356 H 120.532 -5.49549 -0.519603 0
M  V30 1357 H 123.008 -3.86376 -1.54445 0
M  V30 1358 H 121.884 -4.91533 -2.44308 0
M  V30 1359 H 122.145 -3.26396 -2.98191 0
M  V30 1360 N 121.204 0.198386 -1.56346 0
M  V30 1361 C 122.451 0.919286 -1.80431 0
M  V30 1362 C 122.779 1.83393 -0.647866 0
M  V30 1363 O 122.034 1.92236 0.366556 0
M  V30 1364 C 122.333 1.77031 -3.10475 0
M  V30 1365 C 121.999 1.00693 -4.39513 0
M  V30 1366 C 120.661 0.796145 -4.74568 0
M  V30 1367 C 123.013 0.469559 -5.19081 0
M  V30 1368 C 120.341 0.0364588 -5.86689 0
M  V30 1369 C 122.693 -0.2769 -6.31994 0
M  V30 1370 C 121.357 -0.49873 -6.65634 0
M  V30 1371 H 120.627 0.336391 -0.660244 0
M  V30 1372 H 123.274 0.185872 -1.90596 0
M  V30 1373 H 121.579 2.5723 -2.95533 0
M  V30 1374 H 123.276 2.33065 -3.26315 0
M  V30 1375 H 119.866 1.18122 -4.12001 0
M  V30 1376 H 124.05 0.619816 -4.92414 0
M  V30 1377 H 119.306 -0.145412 -6.11227 0
M  V30 1378 H 123.48 -0.700684 -6.92866 0
M  V30 1379 H 121.107 -1.0893 -7.52355 0
M  V30 1380 N 122.682 1.50554 0.465978 0
M  V30 1381 C 123.928 1.62038 1.21949 0
M  V30 1382 C 124.261 0.322116 1.9151 0
M  V30 1383 O 123.536 -0.676723 1.82348 0
M  V30 1384 C 123.819 2.80421 2.25912 0
M  V30 1385 C 123.672 4.20144 1.60622 0
M  V30 1386 C 124.991 2.94354 3.27176 0
M  V30 1387 H 122.11 0.589752 0.441998 0
M  V30 1388 H 124.752 1.82956 0.51257 0
M  V30 1389 H 122.902 2.62717 2.86203 0
M  V30 1390 H 124.574 4.49449 1.03889 0
M  V30 1391 H 122.817 4.24165 0.909211 0
M  V30 1392 H 123.488 4.98914 2.36196 0
M  V30 1393 H 125.964 3.10578 2.76913 0
M  V30 1394 H 124.84 3.788 3.97242 0
M  V30 1395 H 125.101 2.05186 3.916 0
M  V30 1396 N 124.16 -0.719506 1.40217 0
M  V30 1397 C 125.108 -1.85493 1.40339 0
M  V30 1398 C 126.102 -1.66995 0.284415 0
M  V30 1399 O 127.308 -1.74148 0.455252 0
M  V30 1400 H 123.683 -0.610857 0.438586 0
M  V30 1401 H 125.654 -1.82506 2.36081 0
M  V30 1402 C 124.403 -3.23321 1.27901 0
M  V30 1403 H 123.726 -3.38159 2.1328 0
M  V30 1404 H 125.166 -4.02914 1.32045 0
M  V30 1405 C 123.625 -3.36898 -0.0111355 0
M  V30 1406 O 124.155 -3.89674 -0.975538 0
M  V30 1407 N 122.361 -2.90492 -0.0793393 0
M  V30 1408 H 121.908 -2.47731 0.706183 0
M  V30 1409 H 121.866 -2.99955 -0.942038 0
M  V30 1410 N 125.638 -1.25649 -0.95132 0
M  V30 1411 C 126.601 -1.06399 -2.03007 0
M  V30 1412 C 127.601 -0.0156794 -1.60792 0
M  V30 1413 O 128.791 -0.25817 -1.72276 0
M  V30 1414 C 125.923 -0.616184 -3.35285 0
M  V30 1415 H 127.116 -2.02164 -2.21517 0
M  V30 1416 H 124.669 -1.08103 -1.12887 0
M  V30 1417 H 125.404 0.343917 -3.22471 0
M  V30 1418 H 125.189 -1.37301 -3.67275 0
M  V30 1419 H 126.679 -0.503032 -4.14559 0
M  V30 1420 N 127.117 1.15442 -1.07289 0
M  V30 1421 C 128.365 1.85845 -0.794096 0
M  V30 1422 C 128.686 1.82692 0.681809 0
M  V30 1423 O 127.956 1.26741 1.49377 0
M  V30 1424 H 126.536 0.688089 -0.290763 0
M  V30 1425 H 129.198 1.39947 -1.3565 0
M  V30 1426 H 128.294 2.91001 -1.12804 0
M  V30 1427 N 128.595 0.856903 1.32268 0
M  V30 1428 C 129.843 0.460474 1.96784 0
M  V30 1429 C 130.164 -0.987701 1.68135 0
M  V30 1430 O 129.434 -1.69058 0.989765 0
M  V30 1431 H 128.014 0.167289 0.728027 0
M  V30 1432 H 130.676 1.09383 1.61312 0
M  V30 1433 H 129.772 0.60739 3.06133 0
M  V30 1434 N 130.073 -1.45103 0.615059 0
M  V30 1435 C 131.319 -2.03035 0.121804 0
M  V30 1436 C 131.674 -1.47393 -1.23665 0
M  V30 1437 O 130.967 -0.642061 -1.80522 0
M  V30 1438 C 131.161 -3.57386 0.0318797 0
M  V30 1439 C 130.99 -4.28 1.38007 0
M  V30 1440 C 129.76 -4.65624 1.9627 0
M  V30 1441 C 131.958 -4.5948 2.31047 0
M  V30 1442 N 129.94 -5.21132 3.24492 0
M  V30 1443 C 131.311 -5.159 3.43872 0
M  V30 1444 C 133.366 -4.41423 2.30326 0
M  V30 1445 C 132.069 -5.56165 4.5615 0
M  V30 1446 C 134.095 -4.82726 3.41658 0
M  V30 1447 C 133.457 -5.39245 4.53205 0
M  V30 1448 H 129.556 -0.77702 0.0881159 0
M  V30 1449 H 132.14 -1.76819 0.815044 0
M  V30 1450 H 130.311 -3.83247 -0.630599 0
M  V30 1451 H 132.043 -4.01976 -0.468721 0
M  V30 1452 H 128.798 -4.49421 1.49392 0
M  V30 1453 H 129.222 -5.53377 3.90004 0
M  V30 1454 H 133.864 -3.97033 1.45343 0
M  V30 1455 H 131.582 -5.99517 5.41854 0
M  V30 1456 H 135.168 -4.7048 3.42257 0
M  V30 1457 H 134.048 -5.70616 5.37929 0
M  V30 1458 N 131.551 -0.354651 -1.53558 0
M  V30 1459 C 132.484 0.540273 -2.21712 0
M  V30 1460 C 133.462 1.09161 -1.2051 0
M  V30 1461 O 134.646 1.14979 -1.49372 0
M  V30 1462 C 131.773 1.74435 -2.90328 0
M  V30 1463 C 130.819 1.32146 -4.05512 0
M  V30 1464 S 131.652 0.331924 -5.3447 0
M  V30 1465 C 132.808 1.54258 -6.06593 0
M  V30 1466 H 133.041 -0.0385776 -2.97275 0
M  V30 1467 H 130.574 -0.138736 -1.53775 0
M  V30 1468 H 132.532 2.43507 -3.30476 0
M  V30 1469 H 131.193 2.29444 -2.1451 0
M  V30 1470 H 130.386 2.21952 -4.52497 0
M  V30 1471 H 129.988 0.710091 -3.67197 0
M  V30 1472 H 132.28 2.47534 -6.30661 0
M  V30 1473 H 133.223 1.11431 -6.99277 0
M  V30 1474 H 133.631 1.74367 -5.36895 0
M  V30 1475 N 133.029 1.57378 -0.0835403 0
M  V30 1476 C 134.277 1.93547 0.581718 0
M  V30 1477 C 134.598 0.96524 1.69435 0
M  V30 1478 O 133.868 0.0153369 1.95894 0
M  V30 1479 H 132.448 0.714521 0.217874 0
M  V30 1480 H 135.11 1.94366 -0.144158 0
M  V30 1481 H 134.206 2.95665 0.999423 0
M  V30 1482 N 134.507 -0.190092 1.56449 0
M  V30 1483 C 135.47 -1.21925 1.9408 0
M  V30 1484 C 136.47 -1.38176 0.822431 0
M  V30 1485 O 137.66 -1.35903 1.08977 0
M  V30 1486 C 134.792 -2.58773 2.21922 0
M  V30 1487 H 135.985 -0.897464 2.86157 0
M  V30 1488 H 133.538 -0.43181 1.50217 0
M  V30 1489 H 134.273 -2.95998 1.32499 0
M  V30 1490 H 134.058 -2.48348 3.03424 0
M  V30 1491 H 135.548 -3.32978 2.52022 0
M  V30 1492 N 135.985 -1.50799 -0.457987 0
M  V30 1493 C 136.918 -1.65273 -1.57353 0
M  V30 1494 C 137.896 -0.500578 -1.54703 0
M  V30 1495 O 139.08 -0.721781 -1.74134 0
M  V30 1496 C 136.207 -1.64737 -2.95938 0
M  V30 1497 C 135.253 -2.8567 -3.16693 0
M  V30 1498 S 136.086 -4.46791 -2.95191 0
M  V30 1499 C 137.242 -4.48968 -4.36095 0
M  V30 1500 H 137.475 -2.59633 -1.44838 0
M  V30 1501 H 135.008 -1.40225 -0.64625 0
M  V30 1502 H 136.966 -1.65112 -3.7583 0
M  V30 1503 H 135.627 -0.715899 -3.05833 0
M  V30 1504 H 134.82 -2.81637 -4.17967 0
M  V30 1505 H 134.422 -2.8293 -2.44594 0
M  V30 1506 H 136.714 -4.23337 -5.28954 0
M  V30 1507 H 137.657 -5.50664 -4.45168 0
M  V30 1508 H 138.065 -3.78522 -4.18786 0
M  V30 1509 N 137.463 0.71206 -1.40597 0
M  V30 1510 C 138.703 1.48438 -1.40519 0
M  V30 1511 C 139.067 1.91998 -0.00767611 0
M  V30 1512 O 140.268 2.6854 0.118239 0
M  V30 1513 C 138.539 2.67514 -2.37004 0
M  V30 1514 S 140.098 3.56875 -2.55315 0
M  V30 1515 H 136.916 0.507457 -0.498005 0
M  V30 1516 H 139.518 0.832355 -1.76896 0
M  V30 1517 H 138.222 2.33689 -3.37368 0
M  V30 1518 H 137.753 3.37625 -2.01923 0
M  V30 1519 H 139.768 4.62081 -1.8082 0
M  V30 1520 N 138.941 1.26152 0.944643 0
M  V30 1521 C 139.871 1.09902 2.06019 0
M  V30 1522 C 140.852 0.00519538 1.70099 0
M  V30 1523 O 142.037 0.176583 1.93396 0
M  V30 1524 C 139.167 0.727562 3.39594 0
M  V30 1525 C 138.121 1.77274 3.89561 0
M  V30 1526 C 137.447 1.25569 5.19747 0
M  V30 1527 C 138.747 3.17357 4.14827 0
M  V30 1528 H 140.441 2.03217 2.19871 0
M  V30 1529 H 137.987 0.978452 1.05652 0
M  V30 1530 H 139.94 0.600777 4.17095 0
M  V30 1531 H 138.664 -0.241287 3.25707 0
M  V30 1532 H 137.323 1.88814 3.14237 0
M  V30 1533 H 136.971 0.276783 5.02238 0
M  V30 1534 H 136.671 1.95433 5.54148 0
M  V30 1535 H 138.195 1.1415 5.99835 0
M  V30 1536 H 139.609 3.08914 4.82954 0
M  V30 1537 H 138.006 3.84781 4.60504 0
M  V30 1538 H 139.076 3.63673 3.20734 0
M  V30 1539 N 140.419 -1.14872 1.07899 0
M  V30 1540 C 141.349 -2.2193 0.725887 0
M  V30 1541 C 142.33 -1.67622 -0.28927 0
M  V30 1542 O 143.515 -1.93533 -0.160787 0
M  V30 1543 C 140.645 -3.47061 0.128856 0
M  V30 1544 C 139.599 -4.14363 1.07178 0
M  V30 1545 C 138.925 -5.33636 0.337229 0
M  V30 1546 C 140.225 -4.63492 2.40775 0
M  V30 1547 H 141.919 -2.51724 1.62097 0
M  V30 1548 H 139.465 -1.20991 0.780838 0
M  V30 1549 H 141.418 -4.21199 -0.130147 0
M  V30 1550 H 140.142 -3.16617 -0.80134 0
M  V30 1551 H 138.801 -3.42173 1.3158 0
M  V30 1552 H 138.449 -4.99449 -0.596606 0
M  V30 1553 H 138.149 -5.79609 0.965788 0
M  V30 1554 H 139.673 -6.10539 0.0861567 0
M  V30 1555 H 141.087 -5.2913 2.20669 0
M  V30 1556 H 139.484 -5.20148 2.99276 0
M  V30 1557 H 140.554 -3.78834 3.02676 0
M  V30 1558 N 141.898 -0.863906 -1.31812 0
M  V30 1559 C 142.848 -0.286898 -2.26188 0
M  V30 1560 C 143.832 0.572577 -1.50367 0
M  V30 1561 O 145.024 0.420447 -1.71934 0
M  V30 1562 C 142.153 0.515849 -3.39402 0
M  V30 1563 C 141.239 -0.356531 -4.22599 0
M  V30 1564 N 141.63 -1.44716 -4.84656 0
M  V30 1565 C 139.928 -0.147898 -4.45755 0
M  V30 1566 C 140.629 -1.98462 -5.46798 0
M  V30 1567 N 139.605 -1.28247 -5.28255 0
M  V30 1568 H 143.407 -1.12055 -2.717 0
M  V30 1569 H 140.921 -0.711012 -1.46008 0
M  V30 1570 H 142.918 0.945701 -4.06032 0
M  V30 1571 H 141.578 1.34718 -2.95434 0
M  V30 1572 H 142.589 -1.83008 -4.84488 0
M  V30 1573 H 139.266 0.647973 -4.12441 0
M  V30 1574 H 140.656 -2.89932 -6.06126 0
M  V30 1575 N 143.376 1.44774 -0.622745 0
M  V30 1576 C 144.339 2.29069 0.0774015 0
M  V30 1577 C 145.339 1.4059 0.780461 0
M  V30 1578 O 146.529 1.62551 0.626322 0
M  V30 1579 C 143.661 3.21974 1.12006 0
M  V30 1580 H 144.854 2.92459 -0.663901 0
M  V30 1581 H 142.407 1.51548 -0.382486 0
M  V30 1582 H 143.142 2.63417 1.89162 0
M  V30 1583 H 142.927 3.87168 0.619951 0
M  V30 1584 H 144.417 3.85318 1.60995 0
M  V30 1585 N 144.854 0.36279 1.53368 0
M  V30 1586 C 146.079 -0.231226 2.06107 0
M  V30 1587 C 146.504 -1.419 1.23474 0
M  V30 1588 O 145.862 -1.79524 0.253128 0
M  V30 1589 C 145.91 -0.605523 3.5548 0
M  V30 1590 O 145.014 -1.70312 3.7559 0
M  V30 1591 H 144.355 -0.034327 0.663112 0
M  V30 1592 H 146.885 0.522584 1.97814 0
M  V30 1593 H 146.895 -0.877314 3.98456 0
M  V30 1594 H 145.57 0.263004 4.15068 0
M  V30 1595 H 144.147 -1.4271 3.44512 0
M  V30 1596 N 146.332 -1.57332 0.0918853 0
M  V30 1597 C 147.262 -2.16872 -0.865371 0
M  V30 1598 C 148.243 -1.10118 -1.29646 0
M  V30 1599 O 149.428 -1.38242 -1.36392 0
M  V30 1600 C 146.558 -2.74649 -2.12569 0
M  V30 1601 C 145.512 -3.86747 -1.83333 0
M  V30 1602 C 144.838 -4.31212 -3.16166 0
M  V30 1603 C 146.138 -5.10089 -1.1228 0
M  V30 1604 H 147.832 -2.97114 -0.369307 0
M  V30 1605 H 145.378 -1.42918 -0.176194 0
M  V30 1606 H 147.331 -3.14952 -2.7997 0
M  V30 1607 H 146.055 -1.91657 -2.64452 0
M  V30 1608 H 144.714 -3.46978 -1.18331 0
M  V30 1609 H 144.362 -3.45115 -3.6593 0
M  V30 1610 H 144.062 -5.06788 -2.97388 0
M  V30 1611 H 145.586 -4.74146 -3.84731 0
M  V30 1612 H 147 -5.47582 -1.69785 0
M  V30 1613 H 145.397 -5.91073 -1.03693 0
M  V30 1614 H 146.467 -4.84786 -0.105041 0
M  V30 1615 N 147.81 0.181792 -1.56548 0
M  V30 1616 C 149.035 0.920019 -1.85877 0
M  V30 1617 C 149.46 1.75494 -0.677021 0
M  V30 1618 O 148.818 1.77399 0.374056 0
M  V30 1619 C 148.866 1.78112 -3.13542 0
M  V30 1620 O 147.97 2.88152 -2.95029 0
M  V30 1621 H 147.311 0.258334 -0.611686 0
M  V30 1622 H 149.841 0.183092 -2.03779 0
M  V30 1623 H 149.851 2.18314 -3.44678 0
M  V30 1624 H 148.526 1.16777 -3.99169 0
M  V30 1625 H 147.103 2.51609 -2.75222 0
M  V30 1626 N 149.288 1.51039 0.449983 0
M  V30 1627 C 150.198 1.74261 1.57067 0
M  V30 1628 C 151.214 0.626363 1.62335 0
M  V30 1629 O 152.39 0.907162 1.79812 0
M  V30 1630 C 149.455 1.85114 2.93144 0
M  V30 1631 C 148.516 3.0893 2.98095 0
M  V30 1632 C 147.749 3.19256 4.27681 0
M  V30 1633 O 147.972 2.35835 5.19363 0
M  V30 1634 O 146.906 4.12144 4.38658 0
M  V30 1635 H 150.732 2.69303 1.40391 0
M  V30 1636 H 148.317 1.35389 0.631688 0
M  V30 1637 H 150.199 1.94311 3.73926 0
M  V30 1638 H 148.874 0.932588 3.09975 0
M  V30 1639 H 147.781 3.0522 2.16314 0
M  V30 1640 H 149.114 4.00433 2.86206 0
M  V30 1641 N 150.766 -0.704594 1.40972 0
M  V30 1642 C 151.996 -1.49138 1.42974 0
M  V30 1643 C 152.404 -1.89175 0.0308406 0
M  V30 1644 O 151.747 -1.56734 -0.958138 0
M  V30 1645 C 151.809 -2.79016 2.26694 0
M  V30 1646 C 151.473 -2.61236 3.74973 0
M  V30 1647 C 152.47 -2.27773 4.67349 0
M  V30 1648 C 150.155 -2.77158 4.18914 0
M  V30 1649 C 152.149 -2.10457 6.01653 0
M  V30 1650 C 149.836 -2.59459 5.53285 0
M  V30 1651 C 150.834 -2.26158 6.4447 0
M  V30 1652 O 150.522 -2.08605 7.76363 0
M  V30 1653 H 150.254 -0.466443 0.489292 0
M  V30 1654 H 152.808 -0.8758 1.85793 0
M  V30 1655 H 151.038 -3.42947 1.78673 0
M  V30 1656 H 152.727 -3.40782 2.20504 0
M  V30 1657 H 153.493 -2.15095 4.34694 0
M  V30 1658 H 149.372 -3.02064 3.48251 0
M  V30 1659 H 152.916 -1.84387 6.72791 0
M  V30 1660 H 148.813 -2.71725 5.85522 0
M  V30 1661 H 149.581 -2.23439 7.87412 0
M  V30 1662 N 152.244 -1.26651 -0.937939 0
M  V30 1663 C 153.49 -1.12553 -1.687 0
M  V30 1664 C 153.823 0.329782 -1.91379 0
M  V30 1665 O 153.098 1.24202 -1.4968 0
M  V30 1666 C 153.381 -1.89862 -3.05981 0
M  V30 1667 C 153.234 -3.43318 -2.90607 0
M  V30 1668 C 154.553 -1.69499 -4.0615 0
M  V30 1669 H 151.672 -0.410257 -0.612257 0
M  V30 1670 H 154.314 -1.55685 -1.08913 0
M  V30 1671 H 152.464 -1.53204 -3.57017 0
M  V30 1672 H 154.136 -3.89747 -2.46769 0
M  V30 1673 H 152.379 -3.70179 -2.26164 0
M  V30 1674 H 153.05 -3.92642 -3.8799 0
M  V30 1675 H 155.526 -2.01442 -3.64088 0
M  V30 1676 H 154.402 -2.26002 -5.00214 0
M  V30 1677 H 154.663 -0.640365 -4.37438 0
M  V30 1678 N 153.722 1.14298 -1.08507 0
M  V30 1679 C 154.652 2.21542 -0.737646 0
M  V30 1680 C 155.633 1.67773 0.280377 0
M  V30 1681 O 156.818 1.93616 0.150521 0
M  V30 1682 C 153.948 3.46988 -0.147259 0
M  V30 1683 C 152.902 4.13789 -1.09374 0
M  V30 1684 C 152.228 5.33449 -0.365524 0
M  V30 1685 C 153.528 4.62208 -2.4323 0
M  V30 1686 H 155.222 2.5086 -1.6343 0
M  V30 1687 H 152.768 1.20576 -0.787243 0
M  V30 1688 H 154.721 4.21262 0.107808 0
M  V30 1689 H 153.445 3.17037 0.784538 0
M  V30 1690 H 152.104 3.4147 -1.33393 0
M  V30 1691 H 151.752 4.99759 0.57011 0
M  V30 1692 H 151.452 5.79088 -0.996512 0
M  V30 1693 H 152.976 6.10485 -0.118534 0
M  V30 1694 H 154.39 5.27952 -2.23472 0
M  V30 1695 H 152.787 5.18553 -3.02031 0
M  V30 1696 H 153.857 3.77224 -3.04681 0
M  V30 1697 N 155.201 0.870884 1.31352 0
M  V30 1698 C 156.131 0.343096 2.30966 0
M  V30 1699 C 157.112 -0.566507 1.60389 0
M  V30 1700 O 158.297 -0.483336 1.88089 0
M  V30 1701 C 155.427 -0.455487 3.443 0
M  V30 1702 C 154.381 0.361103 4.26474 0
M  V30 1703 C 153.707 -0.563221 5.31725 0
M  V30 1704 C 155.007 1.59566 4.97329 0
M  V30 1705 H 156.701 1.17548 2.75359 0
M  V30 1706 H 154.247 0.566686 1.32381 0
M  V30 1707 H 156.2 -0.83525 4.13039 0
M  V30 1708 H 154.924 -1.32139 2.98675 0
M  V30 1709 H 153.583 0.722825 3.59403 0
M  V30 1710 H 153.231 -1.42643 4.82351 0
M  V30 1711 H 152.931 -0.0207409 5.87596 0
M  V30 1712 H 154.455 -0.939808 6.03324 0
M  V30 1713 H 155.869 1.28728 5.58661 0
M  V30 1714 H 154.266 2.07728 5.63 0
M  V30 1715 H 155.336 2.34798 4.24262 0
M  V30 1716 N 156.679 -1.44442 0.630414 0
M  V30 1717 C 157.926 -2.02052 0.134617 0
M  V30 1718 C 158.254 -1.49576 -1.24327 0
M  V30 1719 O 157.509 -0.669806 -1.83881 0
M  V30 1720 C 157.808 -3.57332 0.0697835 0
M  V30 1721 C 157.474 -4.29058 1.38635 0
M  V30 1722 C 156.136 -4.4837 1.74694 0
M  V30 1723 C 158.488 -4.69872 2.25543 0
M  V30 1724 C 155.816 -5.05756 2.97369 0
M  V30 1725 C 158.168 -5.28616 3.47487 0
M  V30 1726 C 156.832 -5.46147 3.8377 0
M  V30 1727 H 156.102 -0.739361 0.0492598 0
M  V30 1728 H 158.749 -1.73217 0.816586 0
M  V30 1729 H 157.054 -3.85577 -0.695553 0
M  V30 1730 H 158.751 -3.99637 -0.330344 0
M  V30 1731 H 155.341 -4.14357 1.09574 0
M  V30 1732 H 159.525 -4.54666 1.98979 0
M  V30 1733 H 154.781 -5.17515 3.25558 0
M  V30 1734 H 158.955 -5.59192 4.15063 0
M  V30 1735 H 156.582 -5.9038 4.7891 0
M  V30 1736 N 158.157 -0.370918 -1.53173 0
M  V30 1737 C 159.405 0.216673 -2.00935 0
M  V30 1738 C 159.726 1.48845 -1.25977 0
M  V30 1739 O 158.996 1.92286 -0.374551 0
M  V30 1740 H 157.576 0.0830565 -0.742368 0
M  V30 1741 H 160.238 -0.49838 -1.8842 0
M  V30 1742 H 159.334 0.439893 -3.08984 0
M  V30 1743 N 159.635 1.57281 -0.100228 0
M  V30 1744 C 160.863 1.98879 0.570509 0
M  V30 1745 C 161.278 0.979476 1.61405 0
M  V30 1746 O 160.635 -0.0302288 1.82475 0
M  V30 1747 C 160.686 3.4052 1.2136 0
M  V30 1748 O 160.407 4.37588 0.211786 0
M  V30 1749 C 161.908 3.97149 1.96945 0
M  V30 1750 H 159.128 0.653428 0.152555 0
M  V30 1751 H 161.672 2.03697 -0.18103 0
M  V30 1752 H 159.827 3.367 1.91603 0
M  V30 1753 H 160.241 5.20118 0.676607 0
M  V30 1754 H 161.715 4.98393 2.37294 0
M  V30 1755 H 162.192 3.3525 2.83733 0
M  V30 1756 H 162.798 4.04458 1.31506 0
M  V30 1757 N 161.113 -0.173488 1.56642 0
M  V30 1758 C 162.076 -1.19859 1.95362 0
M  V30 1759 C 163.076 -1.37296 0.83704 0
M  V30 1760 O 164.266 -1.34739 1.10413 0
M  V30 1761 C 161.398 -2.56405 2.24654 0
M  V30 1762 H 162.591 -0.867062 2.87092 0
M  V30 1763 H 160.144 -0.415853 1.50666 0
M  V30 1764 H 160.879 -2.94576 1.35631 0
M  V30 1765 H 160.664 -2.45115 3.06041 0
M  V30 1766 H 162.154 -3.30287 2.5554 0
M  V30 1767 N 162.591 -1.51276 -0.441967 0
M  V30 1768 C 163.521 -1.752 -1.54361 0
M  V30 1769 C 164.502 -0.601682 -1.59103 0
M  V30 1770 O 165.687 -0.843913 -1.74905 0
M  V30 1771 C 162.817 -1.87282 -2.92477 0
M  V30 1772 C 161.771 -3.02687 -3.02596 0
M  V30 1773 C 161.097 -2.99947 -4.42647 0
M  V30 1774 C 162.397 -4.4273 -2.77106 0
M  V30 1775 H 164.091 -2.67442 -1.34592 0
M  V30 1776 H 161.637 -1.28694 -0.646048 0
M  V30 1777 H 163.59 -2.02602 -3.695 0
M  V30 1778 H 162.314 -0.916844 -3.13467 0
M  V30 1779 H 160.973 -2.87065 -2.28012 0
M  V30 1780 H 160.621 -2.02136 -4.60597 0
M  V30 1781 H 160.321 -3.77439 -4.50348 0
M  V30 1782 H 161.845 -3.17354 -5.2165 0
M  V30 1783 H 163.259 -4.58727 -3.43864 0
M  V30 1784 H 161.656 -5.21893 -2.96222 0
M  V30 1785 H 162.726 -4.53087 -1.72744 0
M  V30 1786 N 164.069 0.697108 -1.41344 0
M  V30 1787 C 165.317 1.45426 -1.40341 0
M  V30 1788 C 165.638 1.94996 -0.0128787 0
M  V30 1789 O 164.908 1.71599 0.945027 0
M  V30 1790 H 163.488 0.539594 -0.516573 0
M  V30 1791 H 166.15 0.825201 -1.76569 0
M  V30 1792 H 165.246 2.31817 -2.08967 0
M  V30 1793 N 165.547 1.27147 0.931209 0
M  V30 1794 C 166.772 1.16191 1.71797 0
M  V30 1795 C 167.197 -0.278004 1.86034 0
M  V30 1796 O 166.555 -1.20137 1.35782 0
M  V30 1797 C 166.603 1.84673 3.09723 0
M  V30 1798 O 165.707 1.14231 3.96264 0
M  V30 1799 H 165.048 0.404303 0.526721 0
M  V30 1800 H 167.578 1.68152 1.1656 0
M  V30 1801 H 167.588 1.91893 3.60057 0
M  V30 1802 H 166.263 2.89421 2.98677 0
M  V30 1803 H 164.84 1.15056 3.54706 0
M  V30 1804 N 167.025 -1.13721 1.09112 0
M  V30 1805 C 168.441 -1.36914 0.820174 0
M  V30 1806 C 168.641 -1.93356 -0.567079 0
M  V30 1807 O 167.697 -2.15093 -1.32255 0
M  V30 1808 C 169.01 -2.3235 1.90877 0
M  V30 1809 C 170.558 -2.45973 1.93562 0
M  V30 1810 C 171.033 -3.44714 3.01556 0
M  V30 1811 N 172.524 -3.52263 3.00775 0
M  V30 1812 C 173.259 -4.28536 3.80978 0
M  V30 1813 N 172.755 -5.07991 4.71081 0
M  V30 1814 N 174.548 -4.23804 3.69251 0
M  V30 1815 H 166.699 -0.754348 1.98553 0
M  V30 1816 H 168.962 -0.3944 0.862063 0
M  V30 1817 H 168.668 -1.98027 2.90651 0
M  V30 1818 H 168.542 -3.32332 1.78424 0
M  V30 1819 H 170.929 -2.79584 0.944286 0
M  V30 1820 H 171.01 -1.45926 2.10093 0
M  V30 1821 H 170.654 -3.11835 4.00901 0
M  V30 1822 H 170.584 -4.44558 2.82269 0
M  V30 1823 H 173.075 -2.95567 2.35475 0
M  V30 1824 H 173.388 -5.63487 5.28869 0
M  V30 1825 H 171.733 -5.07235 4.75119 0
M  V30 1826 H 174.924 -3.60806 2.98222 0
M  V30 1827 H 175.097 -4.82995 4.31995 0
M  V30 1828 N 168.503 -0.877838 -1.30888 0
M  V30 1829 C 169.751 -0.491723 -1.96027 0
M  V30 1830 C 170.072 0.960827 -1.69685 0
M  V30 1831 O 169.342 1.67462 -1.01654 0
M  V30 1832 H 167.922 -0.17885 -0.725273 0
M  V30 1833 H 170.584 -1.11935 -1.59551 0
M  V30 1834 H 169.68 -0.656016 -3.05128 0
M  V30 1835 N 169.982 1.44106 -0.638065 0
M  V30 1836 C 170.932 2.27843 0.0847285 0
M  V30 1837 C 171.916 1.39055 0.809471 0
M  V30 1838 O 173.108 1.62808 0.694435 0
M  V30 1839 C 170.237 3.26497 1.06089 0
M  V30 1840 C 169.323 4.22772 0.33541 0
M  V30 1841 N 169.714 5.01737 -0.639787 0
M  V30 1842 C 168.012 4.42227 0.578921 0
M  V30 1843 C 168.713 5.71792 -1.06904 0
M  V30 1844 N 167.689 5.42079 -0.406395 0
M  V30 1845 H 171.491 2.86305 -0.663814 0
M  V30 1846 H 169.005 1.55627 -0.464122 0
M  V30 1847 H 171.002 3.8525 1.59337 0
M  V30 1848 H 169.662 2.69595 1.80966 0
M  V30 1849 H 170.673 5.07799 -1.01789 0
M  V30 1850 H 167.35 3.96415 1.31003 0
M  V30 1851 H 168.74 6.45205 -1.8751 0
M  V30 1852 N 171.46 0.379036 1.52974 0
M  V30 1853 C 172.685 -0.209353 2.06341 0
M  V30 1854 C 173.11 -1.40583 1.24972 0
M  V30 1855 O 172.468 -1.79246 0.272155 0
M  V30 1856 C 172.516 -0.567786 3.56102 0
M  V30 1857 O 171.62 -1.66318 3.77375 0
M  V30 1858 H 170.961 -0.0272919 0.663439 0
M  V30 1859 H 173.491 0.543536 1.97248 0
M  V30 1860 H 173.501 -0.835003 3.99364 0
M  V30 1861 H 172.176 0.307013 4.14765 0
M  V30 1862 H 170.753 -1.39048 3.46006 0
M  V30 1863 N 172.938 -1.57226 0.108567 0
M  V30 1864 C 174.186 -1.94448 -0.550853 0
M  V30 1865 C 174.507 -0.992074 -1.67878 0
M  V30 1866 O 173.777 -0.0465 -1.95845 0
M  V30 1867 H 172.357 -0.717897 -0.206479 0
M  V30 1868 H 175.019 -1.94112 0.175062 0
M  V30 1869 H 174.115 -2.97218 -0.952259 0
M  V30 1870 N 174.416 0.165178 -1.56732 0
M  V30 1871 C 175.832 0.517174 -1.50988 0
M  V30 1872 C 176.032 1.84331 -0.813894 0
M  V30 1873 O 175.088 2.49672 -0.37682 0
M  V30 1874 C 176.401 0.544261 -2.95733 0
M  V30 1875 C 177.949 0.631039 -3.06573 0
M  V30 1876 C 178.424 0.68896 -4.52788 0
M  V30 1877 N 179.915 0.751683 -4.5706 0
M  V30 1878 C 180.65 0.817177 -5.67547 0
M  V30 1879 N 180.146 0.843129 -6.8765 0
M  V30 1880 N 181.939 0.856668 -5.55534 0
M  V30 1881 H 174.09 -0.704318 -2.00382 0
M  V30 1882 H 176.353 -0.254687 -0.913148 0
M  V30 1883 H 176.059 -0.361607 -3.49836 0
M  V30 1884 H 175.933 1.3886 -3.5071 0
M  V30 1885 H 178.32 1.52733 -2.52501 0
M  V30 1886 H 178.401 -0.240095 -2.54671 0
M  V30 1887 H 178.045 -0.2031 -5.07494 0
M  V30 1888 H 177.975 1.57633 -5.02454 0
M  V30 1889 H 180.466 0.739661 -3.70591 0
M  V30 1890 H 180.779 0.894448 -7.67606 0
M  V30 1891 H 179.124 0.811304 -6.90248 0
M  V30 1892 H 182.315 0.833437 -4.60621 0
M  V30 1893 H 182.488 0.904247 -6.4166 0
M  V30 1894 N 175.894 1.51508 0.433938 0
M  V30 1895 C 177.124 1.67914 1.20369 0
M  V30 1896 C 177.532 0.377461 1.85397 0
M  V30 1897 O 176.875 -0.654255 1.71654 0
M  V30 1898 C 176.937 2.74045 2.32679 0
M  V30 1899 C 176.601 4.16543 1.87991 0
M  V30 1900 C 177.598 5.01211 1.38145 0
M  V30 1901 C 175.283 4.6266 1.95579 0
M  V30 1902 C 177.277 6.30056 0.964774 0
M  V30 1903 C 174.964 5.91501 1.53523 0
M  V30 1904 C 175.962 6.75027 1.04055 0
M  V30 1905 O 175.65 8.01459 0.625964 0
M  V30 1906 H 175.382 0.566578 0.368735 0
M  V30 1907 H 177.936 1.98709 0.51999 0
M  V30 1908 H 176.166 2.38572 3.04336 0
M  V30 1909 H 177.855 2.79295 2.94532 0
M  V30 1910 H 178.621 4.66783 1.31675 0
M  V30 1911 H 174.5 3.97767 2.33029 0
M  V30 1912 H 178.044 6.95202 0.57796 0
M  V30 1913 H 173.941 6.25442 1.59665 0
M  V30 1914 H 174.709 8.15043 0.751509 0
M  V30 1915 N 177.372 -0.689602 1.41712 0
M  V30 1916 C 178.618 -1.45041 1.42599 0
M  V30 1917 C 178.973 -1.92366 0.0363764 0
M  V30 1918 O 178.266 -1.67022 -0.938844 0
M  V30 1919 C 178.46 -2.67298 2.37247 0
M  V30 1920 C 178.289 -2.31935 3.85274 0
M  V30 1921 C 177.059 -2.2201 4.53916 0
M  V30 1922 C 179.257 -1.94526 4.76093 0
M  V30 1923 N 177.239 -1.79594 5.87043 0
M  V30 1924 C 178.61 -1.62915 5.98213 0
M  V30 1925 C 180.665 -1.81388 4.63684 0
M  V30 1926 C 179.368 -1.19486 7.09306 0
M  V30 1927 C 181.394 -1.39364 5.74745 0
M  V30 1928 C 180.756 -1.08668 6.95967 0
M  V30 1929 H 176.855 -0.527806 0.577014 0
M  V30 1930 H 179.439 -0.797266 1.77628 0
M  V30 1931 H 177.61 -3.30325 2.04304 0
M  V30 1932 H 179.342 -3.33806 2.28814 0
M  V30 1933 H 176.097 -2.406 4.07932 0
M  V30 1934 H 176.521 -1.60851 6.57614 0
M  V30 1935 H 181.163 -2.03772 3.70455 0
M  V30 1936 H 178.881 -0.958477 8.02396 0
M  V30 1937 H 182.467 -1.2974 5.6715 0
M  V30 1938 H 181.347 -0.766417 7.80446 0
M  V30 1939 N 178.85 -1.27639 -0.924453 0
M  V30 1940 C 179.813 -1.10681 -2.00705 0
M  V30 1941 C 180.813 -0.0497823 -1.60723 0
M  V30 1942 O 182.003 -0.294654 -1.7169 0
M  V30 1943 C 179.135 -0.687164 -3.33902 0
M  V30 1944 H 180.328 -2.06817 -2.17179 0
M  V30 1945 H 177.881 -1.10473 -1.10569 0
M  V30 1946 H 178.616 0.275439 -3.23128 0
M  V30 1947 H 178.401 -1.45061 -3.6428 0
M  V30 1948 H 179.891 -0.590853 -4.13399 0
M  V30 1949 N 180.328 1.1314 -1.09713 0
M  V30 1950 C 181.238 2.22242 -0.751367 0
M  V30 1951 C 182.254 1.72224 0.247938 0
M  V30 1952 O 183.43 2.01205 0.0885463 0
M  V30 1953 C 180.495 3.46231 -0.180274 0
M  V30 1954 C 179.556 4.11125 -1.2359 0
M  V30 1955 C 178.789 5.29195 -0.691966 0
M  V30 1956 O 179.012 5.68342 0.48414 0
M  V30 1957 O 177.946 5.84214 -1.44838 0
M  V30 1958 H 181.772 2.54197 -1.66186 0
M  V30 1959 H 179.357 1.21331 -0.871735 0
M  V30 1960 H 181.239 4.21185 0.134739 0
M  V30 1961 H 179.914 3.1597 0.703185 0
M  V30 1962 H 178.821 3.37985 -1.60366 0
M  V30 1963 H 180.154 4.45524 -2.09211 0
M  V30 1964 N 181.806 0.884767 1.30421 0
M  V30 1965 C 183.055 0.499164 1.95426 0
M  V30 1966 C 183.368 -0.95645 1.70621 0
M  V30 1967 O 184.574 -1.44889 2.29607 0
M  V30 1968 C 183.03 0.84177 3.49917 0
M  V30 1969 C 182.638 2.31514 3.83543 0
M  V30 1970 C 184.382 0.525355 4.21237 0
M  V30 1971 C 182.289 2.59939 5.31212 0
M  V30 1972 H 181.219 0.182944 0.73147 0
M  V30 1973 H 183.87 1.07971 1.48373 0
M  V30 1974 H 182.252 0.190311 3.95542 0
M  V30 1975 H 183.426 3.0109 3.48829 0
M  V30 1976 H 181.741 2.59907 3.25326 0
M  V30 1977 H 184.338 0.714762 5.29901 0
M  V30 1978 H 184.681 -0.535222 4.12845 0
M  V30 1979 H 185.214 1.134 3.81294 0
M  V30 1980 H 181.953 3.64736 5.44654 0
M  V30 1981 H 181.473 1.94972 5.67227 0
M  V30 1982 H 183.152 2.45429 5.98643 0
M  V30 1983 N 183.284 -1.43765 0.645699 0
M  V30 1984 C 184.509 -2.06767 0.161883 0
M  V30 1985 C 184.934 -1.48034 -1.16049 0
M  V30 1986 O 184.292 -0.587369 -1.71522 0
M  V30 1987 C 184.34 -3.60519 0.0762003 0
M  V30 1988 O 183.444 -4.00982 -0.963721 0
M  V30 1989 H 182.785 -0.657675 0.091429 0
M  V30 1990 H 185.315 -1.84397 0.886499 0
M  V30 1991 H 185.325 -4.07853 -0.109604 0
M  V30 1992 H 184 -4.02646 1.04157 0
M  V30 1993 H 182.577 -3.65253 -0.751312 0
M  V30 1994 N 184.763 -0.387143 -1.52771 0
M  V30 1995 C 186.04 0.253197 -1.93954 0
M  V30 1996 C 186.42 1.64545 -1.32243 0
M  V30 1997 O 185.768 2.23191 -0.489699 0
M  V30 1998 C 185.978 0.281722 -3.47861 0
M  V30 1999 C 187.326 0.511715 -4.21505 0
M  V30 2000 O 188.35 0.362023 -3.54356 0
M  V30 2001 O 187.209 0.804847 -5.40541 0
M  V30 2002 H 184.303 0.156845 -0.811991 0
M  V30 2003 H 186.849 -0.441494 -1.63856 0
M  V30 2004 H 185.621 -0.693571 -3.85104 0
M  V30 2005 H 185.244 1.02142 -3.84256 0
M  V30 2006 N 186.241 1.57166 -0.116904 0
M  V30 2007 C 187.469 1.99473 0.549383 0
M  V30 2008 C 187.884 0.996541 1.60357 0
M  V30 2009 O 187.241 -0.0108731 1.82497 0
M  V30 2010 C 187.292 3.41788 1.17741 0
M  V30 2011 O 187.013 4.37788 0.165362 0
M  V30 2012 C 188.514 3.99216 1.92722 0
M  V30 2013 H 185.734 0.655009 0.145616 0
M  V30 2014 H 188.278 2.03494 -0.202625 0
M  V30 2015 H 186.433 3.38713 1.88021 0
M  V30 2016 H 186.847 5.20806 0.621403 0
M  V30 2017 H 188.321 5.00882 2.31995 0
M  V30 2018 H 188.798 3.3824 2.80161 0
M  V30 2019 H 189.404 4.0583 1.27209 0
M  V30 2020 N 187.719 -0.156864 1.56817 0
M  V30 2021 C 188.968 -0.869504 1.81996 0
M  V30 2022 C 189.281 -1.82777 0.696545 0
M  V30 2023 O 190.487 -2.58384 0.833658 0
M  V30 2024 C 188.943 -1.59679 3.22538 0
M  V30 2025 C 188.551 -0.681431 4.42787 0
M  V30 2026 C 190.295 -2.2968 3.56997 0
M  V30 2027 C 188.202 -1.40978 5.74351 0
M  V30 2028 H 187.132 -0.328438 0.678708 0
M  V30 2029 H 189.783 -0.1223 1.83092 0
M  V30 2030 H 188.165 -2.38927 3.158 0
M  V30 2031 H 189.339 0.0751166 4.60739 0
M  V30 2032 H 187.654 -0.0903431 4.16302 0
M  V30 2033 H 190.251 -2.84794 4.52544 0
M  V30 2034 H 190.594 -3.05707 2.82576 0
M  V30 2035 H 191.127 -1.57361 3.65352 0
M  V30 2036 H 187.866 -0.691561 6.51842 0
M  V30 2037 H 187.386 -2.13929 5.60352 0
M  V30 2038 H 189.065 -1.95337 6.16808 0
M  V30 2039 N 189.197 -1.51736 -0.425897 0
M  V30 2040 C 190.446 -1.64201 -1.17136 0
M  V30 2041 C 190.759 -0.369705 -1.92074 0
M  V30 2042 O 191.965 -0.373898 -2.68913 0
M  V30 2043 C 190.421 -2.90035 -2.13091 0
M  V30 2044 C 190.029 -4.24312 -1.43747 0
M  V30 2045 C 191.773 -3.1186 -2.87999 0
M  V30 2046 C 189.68 -5.41285 -2.38253 0
M  V30 2047 H 188.61 -0.611624 -0.440944 0
M  V30 2048 H 191.261 -1.78212 -0.437328 0
M  V30 2049 H 189.643 -2.69684 -2.89977 0
M  V30 2050 H 190.817 -4.55086 -0.723408 0
M  V30 2051 H 189.132 -4.08456 -0.809465 0
M  V30 2052 H 191.729 -3.96427 -3.58817 0
M  V30 2053 H 192.072 -2.25403 -3.49999 0
M  V30 2054 H 192.605 -3.32605 -2.18217 0
M  V30 2055 H 189.344 -6.30037 -1.80925 0
M  V30 2056 H 188.864 -5.14872 -3.0768 0
M  V30 2057 H 190.543 -5.73694 -2.99139 0
M  V30 2058 N 190.675 0.682077 -1.42076 0
M  V30 2059 C 191.9 1.47558 -1.45744 0
M  V30 2060 C 192.325 1.87977 -0.0680981 0
M  V30 2061 O 191.683 1.55522 0.9318 0
M  V30 2062 C 191.731 2.70575 -2.38373 0
M  V30 2063 O 190.835 3.68573 -1.85007 0
M  V30 2064 H 190.176 0.443585 -0.494093 0
M  V30 2065 H 192.706 0.837238 -1.86686 0
M  V30 2066 H 192.716 3.18729 -2.54707 0
M  V30 2067 H 191.391 2.40495 -3.39315 0
M  V30 2068 H 189.968 3.2757 -1.78192 0
M  V30 2069 N 192.153 1.28127 0.917671 0
M  V30 2070 C 193.401 1.14825 1.66312 0
M  V30 2071 C 193.722 -0.304379 1.9261 0
M  V30 2072 O 192.992 -1.21149 1.53947 0
M  V30 2073 H 191.572 0.421953 0.616413 0
M  V30 2074 H 194.234 1.608 1.10134 0
M  V30 2075 H 193.33 1.68489 2.62712 0
M  V30 2076 N 193.631 -1.12557 1.10312 0
M  V30 2077 C 194.859 -1.87864 0.866873 0
M  V30 2078 C 195.274 -1.79588 -0.582557 0
M  V30 2079 O 194.631 -1.16887 -1.40156 0
M  V30 2080 C 194.682 -3.37125 1.30496 0
M  V30 2081 O 194.403 -3.45201 2.69755 0
M  V30 2082 C 195.904 -4.29373 1.10243 0
M  V30 2083 H 193.124 -0.594452 0.311236 0
M  V30 2084 H 195.668 -1.42429 1.46745 0
M  V30 2085 H 193.823 -3.80109 0.748081 0
M  V30 2086 H 194.237 -4.38056 2.88457 0
M  V30 2087 H 195.711 -5.32394 1.45811 0
M  V30 2088 H 196.188 -4.39181 0.0409492 0
M  V30 2089 H 196.794 -3.92169 1.64571 0
M  V30 2090 N 195.109 -0.891671 -1.2995 0
M  V30 2091 C 196.356 -0.513501 -1.95881 0
M  V30 2092 C 196.684 0.938655 -1.70351 0
M  V30 2093 O 195.939 1.67936 -1.00478 0
M  V30 2094 C 196.238 -0.742868 -3.49594 0
M  V30 2095 C 195.904 -2.17114 -3.95186 0
M  V30 2096 C 194.566 -2.56169 -4.07346 0
M  V30 2097 C 196.918 -3.10162 -4.18866 0
M  V30 2098 C 194.246 -3.87469 -4.4055 0
M  V30 2099 C 196.598 -4.41001 -4.53542 0
M  V30 2100 C 195.262 -4.79941 -4.63911 0
M  V30 2101 H 194.532 -0.187903 -0.71678 0
M  V30 2102 H 197.179 -1.1288 -1.54694 0
M  V30 2103 H 195.484 -0.044586 -3.91775 0
M  V30 2104 H 197.181 -0.429767 -3.9869 0
M  V30 2105 H 193.771 -1.85801 -3.86233 0
M  V30 2106 H 197.955 -2.81206 -4.08946 0
M  V30 2107 H 193.211 -4.17371 -4.46779 0
M  V30 2108 H 197.385 -5.13133 -4.70815 0
M  V30 2109 H 195.012 -5.81719 -4.89395 0
M  V30 2110 N 196.587 1.43421 -0.653314 0
M  V30 2111 C 197.537 2.2792 0.060558 0
M  V30 2112 C 198.521 1.39906 0.794677 0
M  V30 2113 O 199.713 1.63536 0.677128 0
M  V30 2114 C 196.842 3.27603 1.0262 0
M  V30 2115 C 195.928 4.23104 0.290551 0
M  V30 2116 N 196.319 5.01031 -0.692967 0
M  V30 2117 C 194.617 4.42816 0.531984 0
M  V30 2118 C 195.318 5.70626 -1.12963 0
M  V30 2119 N 194.294 5.41617 -0.463867 0
M  V30 2120 H 198.096 2.85585 -0.694143 0
M  V30 2121 H 195.61 1.55126 -0.480602 0
M  V30 2122 H 197.607 3.86918 1.55242 0
M  V30 2123 H 196.267 2.71499 1.78096 0
M  V30 2124 H 197.278 5.0669 -1.07169 0
M  V30 2125 H 193.955 3.97782 1.26791 0
M  V30 2126 H 195.345 6.4318 -1.94343 0
M  V30 2127 N 198.065 0.39524 1.52563 0
M  V30 2128 C 198.997 -0.472201 2.24283 0
M  V30 2129 C 200.01 -1.02178 1.26742 0
M  V30 2130 O 201.199 -0.923097 1.52778 0
M  V30 2131 C 198.299 -1.66775 2.95024 0
M  V30 2132 C 197.472 -1.2445 4.19322 0
M  V30 2133 C 196.531 -2.30539 4.7301 0
M  V30 2134 O 195.557 -1.91702 5.35947 0
M  V30 2135 N 196.759 -3.6253 4.53379 0
M  V30 2136 H 199.524 0.142282 2.99362 0
M  V30 2137 H 197.085 0.2219 1.60372 0
M  V30 2138 H 199.077 -2.37283 3.27839 0
M  V30 2139 H 197.647 -2.18845 2.23217 0
M  V30 2140 H 196.867 -0.368069 3.92478 0
M  V30 2141 H 198.155 -0.938457 5.0007 0
M  V30 2142 H 197.553 -3.96841 4.03154 0
M  V30 2143 H 196.11 -4.29055 4.90668 0
M  V30 2144 N 199.544 -1.57102 0.125237 0
M  V30 2145 C 200.79 -1.96488 -0.525753 0
M  V30 2146 C 201.145 -1.00786 -1.6389 0
M  V30 2147 O 200.438 -0.038979 -1.9156 0
M  V30 2148 C 200.632 -3.40096 -1.09862 0
M  V30 2149 C 200.461 -4.4968 -0.0425004 0
M  V30 2150 C 199.231 -5.03781 0.391463 0
M  V30 2151 C 201.429 -5.08936 0.740829 0
M  V30 2152 N 199.411 -5.96948 1.4327 0
M  V30 2153 C 200.782 -5.98105 1.6331 0
M  V30 2154 C 202.837 -4.91576 0.791029 0
M  V30 2155 C 201.54 -6.71774 2.57122 0
M  V30 2156 C 203.566 -5.6593 1.71688 0
M  V30 2157 C 202.928 -6.5479 2.59672 0
M  V30 2158 H 199.027 -0.765072 -0.161831 0
M  V30 2159 H 201.611 -1.93511 0.214801 0
M  V30 2160 H 199.782 -3.43707 -1.80887 0
M  V30 2161 H 201.514 -3.66591 -1.71444 0
M  V30 2162 H 198.269 -4.736 -0.00213584 0
M  V30 2163 H 198.693 -6.48236 1.95243 0
M  V30 2164 H 203.335 -4.22615 0.124915 0
M  V30 2165 H 201.053 -7.39977 3.24744 0
M  V30 2166 H 204.639 -5.54501 1.76125 0
M  V30 2167 H 203.519 -7.11316 3.30149 0
M  V30 2168 N 201.022 0.148545 -1.56898 0
M  V30 2169 C 202.438 0.501131 -1.51528 0
M  V30 2170 C 202.638 1.83458 -0.833399 0
M  V30 2171 O 201.694 2.49259 -0.40328 0
M  V30 2172 C 203.007 0.512864 -2.96294 0
M  V30 2173 C 204.555 0.598487 -3.07225 0
M  V30 2174 C 205.03 0.640897 -4.53494 0
M  V30 2175 N 206.521 0.703163 -4.57832 0
M  V30 2176 C 207.256 0.756935 -5.68382 0
M  V30 2177 N 206.752 0.770147 -6.88506 0
M  V30 2178 N 208.545 0.797698 -5.56411 0
M  V30 2179 H 200.696 -0.725532 -1.99624 0
M  V30 2180 H 202.959 -0.264358 -0.910395 0
M  V30 2181 H 202.665 -0.398691 -3.49433 0
M  V30 2182 H 202.539 1.35133 -3.52163 0
M  V30 2183 H 204.926 1.50046 -2.54106 0
M  V30 2184 H 205.007 -0.267093 -2.54402 0
M  V30 2185 H 204.651 -0.256915 -5.0725 0
M  V30 2186 H 204.581 1.52295 -5.04097 0
M  V30 2187 H 207.072 0.700314 -3.71354 0
M  V30 2188 H 207.385 0.812983 -7.68512 0
M  V30 2189 H 205.73 0.738049 -6.9107 0
M  V30 2190 H 208.921 0.784535 -4.61479 0
M  V30 2191 H 209.094 0.83614 -6.42583 0
M  V30 2192 N 202.5 1.5196 0.417844 0
M  V30 2193 C 203.41 1.77554 1.53336 0
M  V30 2194 C 204.426 0.660655 1.6097 0
M  V30 2195 O 205.602 0.945099 1.77848 0
M  V30 2196 C 202.667 1.91291 2.89152 0
M  V30 2197 C 201.728 3.15183 2.91475 0
M  V30 2198 C 200.961 3.28256 4.20813 0
M  V30 2199 O 201.184 2.46798 5.14244 0
M  V30 2200 O 200.118 4.21356 4.29817 0
M  V30 2201 H 203.944 2.7222 1.34647 0
M  V30 2202 H 201.529 1.36698 0.602828 0
M  V30 2203 H 203.411 2.02199 3.69721 0
M  V30 2204 H 202.086 0.998129 3.07927 0
M  V30 2205 H 200.993 3.09739 2.09791 0
M  V30 2206 H 202.326 4.06414 2.77648 0
M  V30 2207 N 203.978 -0.674533 1.42435 0
M  V30 2208 C 205.226 -1.43175 1.42637 0
M  V30 2209 C 205.547 -1.94951 0.0438992 0
M  V30 2210 O 204.817 -1.7308 -0.917607 0
M  V30 2211 H 203.397 -0.531307 0.525092 0
M  V30 2212 H 206.059 -0.797006 1.77859 0
M  V30 2213 H 205.155 -2.28463 2.12629 0
M  V30 2214 N 205.456 -1.28612 -0.910864 0
M  V30 2215 C 206.684 -1.18792 -1.69399 0
M  V30 2216 C 207.099 0.253039 -1.87097 0
M  V30 2217 O 206.456 1.17071 -1.40003 0
M  V30 2218 C 206.507 -1.88511 -3.08457 0
M  V30 2219 O 206.228 -3.26979 -2.91576 0
M  V30 2220 C 207.729 -1.85029 -4.02839 0
M  V30 2221 H 204.949 -0.412233 -0.529438 0
M  V30 2222 H 207.493 -1.69788 -1.13984 0
M  V30 2223 H 205.648 -1.41379 -3.60681 0
M  V30 2224 H 206.062 -3.61936 -3.79608 0
M  V30 2225 H 207.536 -2.38395 -4.97867 0
M  V30 2226 H 208.013 -0.823303 -4.31414 0
M  V30 2227 H 208.619 -2.31853 -3.56545 0
M  V30 2228 N 206.934 1.1197 -1.10907 0
M  V30 2229 C 208.162 1.87402 -0.876824 0
M  V30 2230 C 208.577 1.79894 0.573025 0
M  V30 2231 O 207.934 1.17629 1.39534 0
M  V30 2232 C 207.985 3.36428 -1.32282 0
M  V30 2233 O 207.706 3.43765 -2.71582 0
M  V30 2234 C 209.207 4.28783 -1.12518 0
M  V30 2235 H 206.427 0.592793 -0.314384 0
M  V30 2236 H 208.971 1.41649 -1.47499 0
M  V30 2237 H 207.126 3.79706 -0.768229 0
M  V30 2238 H 207.54 4.3652 -2.90776 0
M  V30 2239 H 209.014 5.31613 -1.48633 0
M  V30 2240 H 209.491 4.39153 -0.0642394 0
M  V30 2241 H 210.097 3.91291 -1.66648 0
M  V30 2242 N 208.412 0.89855 1.29475 0
M  V30 2243 C 209.359 0.373819 2.27753 0
M  V30 2244 C 210.329 -0.543444 1.56958 0
M  V30 2245 O 211.514 -0.468934 1.84948 0
M  V30 2246 C 208.654 -0.393648 3.42848 0
M  V30 2247 C 207.767 0.554379 4.28428 0
M  V30 2248 C 206.902 -0.230026 5.30702 0
M  V30 2249 C 205.941 0.712599 6.07938 0
M  V30 2250 N 205.078 -0.0373283 7.0209 0
M  V30 2251 H 209.918 1.21699 2.72017 0
M  V30 2252 H 207.455 0.611456 1.33789 0
M  V30 2253 H 209.413 -0.85466 4.08352 0
M  V30 2254 H 208.043 -1.20128 2.99615 0
M  V30 2255 H 207.095 1.13391 3.63107 0
M  V30 2256 H 208.407 1.27597 4.82204 0
M  V30 2257 H 207.561 -0.752288 6.02018 0
M  V30 2258 H 206.3 -0.984758 4.77654 0
M  V30 2259 H 205.305 1.24637 5.35486 0
M  V30 2260 H 206.53 1.46664 6.63074 0
M  V30 2261 H 204.476 -0.774348 6.51414 0
M  V30 2262 H 204.393 0.624374 7.53417 0
M  V30 2263 H 205.661 -0.539891 7.77628 0
M  V30 2264 N 209.89 -1.43072 0.660911 0
M  V30 2265 C 211.115 -2.06584 0.183805 0
M  V30 2266 C 211.54 -1.49257 -1.14472 0
M  V30 2267 O 210.898 -0.605528 -1.70889 0
M  V30 2268 C 210.946 -3.60418 0.114434 0
M  V30 2269 O 210.05 -4.01981 -0.921137 0
M  V30 2270 H 209.391 -0.656669 0.0983994 0
M  V30 2271 H 211.921 -1.83447 0.906006 0
M  V30 2272 H 211.931 -4.07946 -0.0663394 0
M  V30 2273 H 210.606 -4.01519 1.08422 0
M  V30 2274 H 209.183 -3.66029 -0.71253 0
M  V30 2275 N 211.368 -0.403325 -1.52352 0
M  V30 2276 C 212.278 0.432009 -2.30588 0
M  V30 2277 C 213.294 1.05884 -1.38075 0
M  V30 2278 O 214.47 1.06161 -1.71148 0
M  V30 2279 C 211.535 1.53669 -3.10784 0
M  V30 2280 C 210.596 0.933525 -4.19027 0
M  V30 2281 C 209.829 1.98557 -4.9539 0
M  V30 2282 O 210.052 3.20283 -4.71991 0
M  V30 2283 O 208.986 1.59504 -5.80381 0
M  V30 2284 H 212.812 -0.205739 -3.03002 0
M  V30 2285 H 210.397 -0.166675 -1.48467 0
M  V30 2286 H 212.279 2.17814 -3.60742 0
M  V30 2287 H 210.954 2.15915 -2.41169 0
M  V30 2288 H 209.861 0.254954 -3.7323 0
M  V30 2289 H 211.194 0.35508 -4.90918 0
M  V30 2290 N 212.846 1.57033 -0.133567 0
M  V30 2291 C 214.092 1.95976 0.521649 0
M  V30 2292 C 214.425 1.01779 1.65393 0
M  V30 2293 O 213.7 0.0576581 1.94415 0
M  V30 2294 C 213.983 3.44738 1.04057 0
M  V30 2295 C 213.836 4.49711 -0.0892897 0
M  V30 2296 C 215.155 3.95682 1.92675 0
M  V30 2297 H 212.274 0.712579 0.188149 0
M  V30 2298 H 214.916 1.88813 -0.212076 0
M  V30 2299 H 213.066 3.50973 1.66583 0
M  V30 2300 H 214.738 4.55565 -0.725152 0
M  V30 2301 H 212.981 4.27261 -0.750378 0
M  V30 2302 H 213.652 5.51099 0.315284 0
M  V30 2303 H 216.128 3.91841 1.39998 0
M  V30 2304 H 215.004 5.00262 2.25897 0
M  V30 2305 H 215.265 3.37239 2.85872 0
M  V30 2306 N 214.325 -0.140222 1.56975 0
M  V30 2307 C 215.572 -0.851687 1.83719 0
M  V30 2308 C 215.9 -1.80862 0.715485 0
M  V30 2309 O 215.155 -1.93464 -0.294956 0
M  V30 2310 C 215.454 -1.65386 3.16832 0
M  V30 2311 C 215.12 -0.843112 4.42947 0
M  V30 2312 C 213.782 -0.619464 4.77196 0
M  V30 2313 C 216.134 -0.276582 5.20466 0
M  V30 2314 C 213.462 0.181312 5.8642 0
M  V30 2315 C 215.814 0.51127 6.30531 0
M  V30 2316 C 214.478 0.745432 6.63325 0
M  V30 2317 H 213.748 -0.311654 0.672274 0
M  V30 2318 H 216.395 -0.115006 1.91154 0
M  V30 2319 H 214.7 -2.46084 3.04877 0
M  V30 2320 H 216.397 -2.20793 3.34741 0
M  V30 2321 H 212.987 -1.0275 4.16101 0
M  V30 2322 H 217.171 -0.436632 4.94376 0
M  V30 2323 H 212.427 0.372165 6.10266 0
M  V30 2324 H 216.601 0.957354 6.89788 0
M  V30 2325 H 214.228 1.36778 7.47794 0
M  V30 2326 N 215.803 -1.52179 -0.40978 0
M  V30 2327 C 217.033 -1.69807 -1.17682 0
M  V30 2328 C 217.441 -0.406908 -1.84773 0
M  V30 2329 O 216.784 0.626863 -1.72673 0
M  V30 2330 C 216.846 -2.77712 -2.2829 0
M  V30 2331 C 216.51 -4.19481 -1.81341 0
M  V30 2332 C 217.507 -5.03345 -1.30154 0
M  V30 2333 C 215.192 -4.65713 -1.88194 0
M  V30 2334 C 217.186 -6.31511 -0.864416 0
M  V30 2335 C 214.873 -5.93869 -1.44093 0
M  V30 2336 C 215.871 -6.76597 -0.933023 0
M  V30 2337 O 215.559 -8.02354 -0.49838 0
M  V30 2338 H 215.291 -0.572372 -0.359675 0
M  V30 2339 H 217.845 -1.99511 -0.488311 0
M  V30 2340 H 216.075 -2.43383 -3.00502 0
M  V30 2341 H 217.764 -2.83946 -2.90051 0
M  V30 2342 H 218.53 -4.68819 -1.24232 0
M  V30 2343 H 214.409 -4.01424 -2.26671 0
M  V30 2344 H 217.953 -6.96033 -0.467286 0
M  V30 2345 H 213.85 -6.27903 -1.49694 0
M  V30 2346 H 214.618 -8.16135 -0.621747 0
M  V30 2347 N 217.281 0.66697 -1.42791 0
M  V30 2348 C 218.692 1.2478 -1.38877 0
M  V30 2349 C 219.043 1.96012 -0.0859426 0
M  V30 2350 O 218.168 2.00463 0.815081 0
M  V30 2351 C 218.763 2.26938 -2.51564 0
M  V30 2352 C 217.322 2.80529 -2.50959 0
M  V30 2353 C 216.469 1.54965 -2.29959 0
M  V30 2354 H 219.42 0.459853 -1.51892 0
M  V30 2355 H 219.441 3.08834 -2.22265 0
M  V30 2356 H 218.953 1.75065 -3.46372 0
M  V30 2357 H 217.054 3.36502 -1.59991 0
M  V30 2358 H 217.167 3.29012 -3.48265 0
M  V30 2359 H 215.531 1.81817 -1.78366 0
M  V30 2360 H 216.314 1.05047 -3.26833 0
M  V30 2361 N 218.759 1.29093 0.90403 0
M  V30 2362 C 220.007 1.16583 1.65085 0
M  V30 2363 C 220.328 -0.283933 1.92922 0
M  V30 2364 O 219.598 -1.19509 1.55224 0
M  V30 2365 H 218.178 0.428467 0.611903 0
M  V30 2366 H 220.84 1.61959 1.08422 0
M  V30 2367 H 219.936 1.71266 2.6091 0
M  V30 2368 N 220.237 -1.11381 1.11499 0
M  V30 2369 C 221.147 -2.21019 0.786628 0
M  V30 2370 C 222.163 -1.72597 -0.220507 0
M  V30 2371 O 223.339 -2.01321 -0.0565251 0
M  V30 2372 C 220.404 -3.459 0.235333 0
M  V30 2373 C 219.465 -4.09107 1.30115 0
M  V30 2374 C 218.698 -5.28027 0.776068 0
M  V30 2375 O 218.921 -5.6904 -0.393661 0
M  V30 2376 O 217.855 -5.81835 1.54114 0
M  V30 2377 H 221.681 -2.51521 1.70209 0
M  V30 2378 H 219.266 -1.19928 0.890928 0
M  V30 2379 H 221.148 -4.21346 -0.067715 0
M  V30 2380 H 219.823 -3.17049 -0.652828 0
M  V30 2381 H 218.73 -3.35391 1.65722 0
M  V30 2382 H 220.063 -4.42139 2.16273 0
M  V30 2383 N 221.715 -0.905404 -1.28997 0
M  V30 2384 C 222.943 -0.549846 -1.9946 0
M  V30 2385 C 223.358 0.866834 -1.67724 0
M  V30 2386 O 222.715 1.57298 -0.925404 0
M  V30 2387 C 222.766 -0.739387 -3.53858 0
M  V30 2388 O 222.487 -2.10031 -3.84472 0
M  V30 2389 C 223.988 -0.389541 -4.41585 0
M  V30 2390 H 221.208 -0.210429 -0.637151 0
M  V30 2391 H 223.752 -1.21632 -1.64396 0
M  V30 2392 H 221.907 -0.120023 -3.87214 0
M  V30 2393 H 222.321 -2.13385 -4.79132 0
M  V30 2394 H 223.795 -0.572972 -5.49018 0
M  V30 2395 H 224.272 0.673756 -4.34001 0
M  V30 2396 H 224.878 -0.986089 -4.1371 0
M  V30 2397 N 223.193 1.4272 -0.668489 0
M  V30 2398 C 224.439 2.01923 -0.188419 0
M  V30 2399 C 224.772 1.52704 1.19979 0
M  V30 2400 O 224.047 0.726566 1.8042 0
M  V30 2401 C 224.33 3.59451 -0.216085 0
M  V30 2402 C 224.183 4.18864 -1.6393 0
M  V30 2403 C 225.502 4.37903 0.439179 0
M  V30 2404 H 222.621 0.733674 -0.0699412 0
M  V30 2405 H 225.263 1.69822 -0.852076 0
M  V30 2406 H 223.413 3.86929 0.349012 0
M  V30 2407 H 225.085 4.02362 -2.25616 0
M  V30 2408 H 223.328 3.74933 -2.18193 0
M  V30 2409 H 223.999 5.27987 -1.61039 0
M  V30 2410 H 226.475 4.16079 -0.0417878 0
M  V30 2411 H 225.351 5.47519 0.389157 0
M  V30 2412 H 225.612 4.15303 1.51577 0
M  V30 2413 N 224.671 0.411399 1.52136 0
M  V30 2414 C 225.917 -0.163888 2.02137 0
M  V30 2415 C 226.25 -1.44597 1.29636 0
M  V30 2416 O 225.525 -1.90272 0.403353 0
M  V30 2417 C 225.808 -0.40927 3.57767 0
M  V30 2418 C 225.661 0.889643 4.40914 0
M  V30 2419 C 226.98 -1.19042 4.23694 0
M  V30 2420 H 224.099 -0.0580896 0.734707 0
M  V30 2421 H 226.741 0.54531 1.82007 0
M  V30 2422 H 224.891 -1.0134 3.7505 0
M  V30 2423 H 226.563 1.52575 4.35337 0
M  V30 2424 H 224.806 1.50011 4.07037 0
M  V30 2425 H 225.477 0.672314 5.4789 0
M  V30 2426 H 227.953 -0.678942 4.10524 0
M  V30 2427 H 226.829 -1.33086 5.32522 0
M  V30 2428 H 227.09 -2.21166 3.82803 0
M  V30 2429 N 226.149 -1.5696 0.141893 0
M  V30 2430 C 227.099 -2.13074 -0.811383 0
M  V30 2431 C 228.083 -1.05726 -1.21288 0
M  V30 2432 O 229.275 -1.31914 -1.18015 0
M  V30 2433 C 226.404 -2.75186 -2.0525 0
M  V30 2434 C 225.49 -3.8965 -1.67432 0
M  V30 2435 N 225.881 -4.95733 -1.0041 0
M  V30 2436 C 224.179 -4.00262 -1.96739 0
M  V30 2437 C 224.88 -5.75858 -0.822345 0
M  V30 2438 N 223.856 -5.26452 -1.3546 0
M  V30 2439 H 227.658 -2.92465 -0.290031 0
M  V30 2440 H 225.172 -1.6229 -0.0598218 0
M  V30 2441 H 227.169 -3.13745 -2.74535 0
M  V30 2442 H 225.829 -1.97266 -2.57907 0
M  V30 2443 H 226.84 -5.13607 -0.665441 0
M  V30 2444 H 223.517 -3.33412 -2.51282 0
M  V30 2445 H 224.907 -6.71254 -0.294496 0
M  V30 2446 N 227.627 0.131896 -1.57047 0
M  V30 2447 C 228.875 0.840269 -1.83804 0
M  V30 2448 C 229.196 1.81017 -0.72512 0
M  V30 2449 O 228.466 1.94272 0.251995 0
M  V30 2450 H 227.046 0.313294 -0.678127 0
M  V30 2451 H 229.708 0.122294 -1.94516 0
M  V30 2452 H 228.804 1.39335 -2.79271 0
M  V30 2453 N 229.106 1.52395 0.401703 0
M  V30 2454 C 230.517 1.58899 0.980202 0
M  V30 2455 C 230.868 0.434032 1.91339 0
M  V30 2456 O 229.993 -0.444619 2.11783 0
M  V30 2457 C 230.588 2.87994 1.78451 0
M  V30 2458 C 229.147 2.96953 2.31292 0
M  V30 2459 C 228.294 2.53903 1.11483 0
M  V30 2460 H 231.245 1.57657 0.18168 0
M  V30 2461 H 231.266 2.73765 2.64259 0
M  V30 2462 H 230.778 3.72035 1.10506 0
M  V30 2463 H 228.879 2.17422 3.02586 0
M  V30 2464 H 228.992 4.01344 2.61649 0
M  V30 2465 H 227.356 2.07925 1.47104 0
M  V30 2466 H 228.139 3.40326 0.450928 0
M  V30 2467 N 230.584 -0.659388 1.43143 0
M  V30 2468 C 231.832 -1.41654 1.44147 0
M  V30 2469 C 232.153 -1.94893 0.0645739 0
M  V30 2470 O 231.423 -1.74044 -0.899198 0
M  V30 2471 H 230.003 -0.525708 0.530697 0
M  V30 2472 H 232.665 -0.778097 1.78694 0
M  V30 2473 H 231.761 -2.26195 2.1504 0
M  V30 2474 N 232.062 -1.29571 -0.897171 0
M  V30 2475 C 232.972 -1.16808 -2.03453 0
M  V30 2476 C 233.988 -0.0907471 -1.73763 0
M  V30 2477 O 235.164 -0.303312 -1.99103 0
M  V30 2478 C 232.229 -0.848264 -3.36163 0
M  V30 2479 C 231.29 -2.0097 -3.79354 0
M  V30 2480 C 230.523 -1.70505 -5.05731 0
M  V30 2481 O 230.746 -0.62718 -5.66941 0
M  V30 2482 O 229.68 -2.5538 -5.45036 0
M  V30 2483 H 233.506 -2.12325 -2.17144 0
M  V30 2484 H 231.091 -1.09047 -1.02123 0
M  V30 2485 H 232.973 -0.684581 -4.15802 0
M  V30 2486 H 231.648 0.0771071 -3.23608 0
M  V30 2487 H 230.555 -2.22863 -3.00471 0
M  V30 2488 H 231.888 -2.91636 -3.96496 0
M  V30 2489 N 233.54 1.10788 -1.12088 0
M  V30 2490 C 234.503 2.15207 -0.788577 0
M  V30 2491 C 235.503 1.59609 0.195317 0
M  V30 2492 O 236.693 1.74174 -0.0300193 0
M  V30 2493 C 233.825 3.4047 -0.171174 0
M  V30 2494 H 235.018 2.46116 -1.71368 0
M  V30 2495 H 232.571 1.26089 -0.923652 0
M  V30 2496 H 233.306 3.15176 0.763832 0
M  V30 2497 H 233.091 3.82109 -0.879514 0
M  V30 2498 H 234.581 4.17576 0.04496 0
M  V30 2499 N 235.018 0.912232 1.28515 0
M  V30 2500 C 236.246 0.560416 1.99166 0
M  V30 2501 C 236.661 -0.857927 1.68182 0
M  V30 2502 O 236.018 -1.56805 0.933733 0
M  V30 2503 C 236.069 0.758142 3.53461 0
M  V30 2504 O 235.79 2.12067 3.83352 0
M  V30 2505 C 237.291 0.412954 4.41372 0
M  V30 2506 H 234.511 0.213805 0.636026 0
M  V30 2507 H 237.055 1.22502 1.63749 0
M  V30 2508 H 235.21 0.140556 3.87145 0
M  V30 2509 H 235.624 2.15923 4.77993 0
M  V30 2510 H 237.098 0.60208 5.48707 0
M  V30 2511 H 237.575 -0.65073 4.34353 0
M  V30 2512 H 238.181 1.00802 4.13182 0
M  V30 2513 N 236.496 -1.42363 0.676048 0
M  V30 2514 C 237.459 -2.29199 0.00766941 0
M  V30 2515 C 238.459 -1.43389 -0.727745 0
M  V30 2516 O 239.649 -1.64764 -0.56556 0
M  V30 2517 C 236.781 -3.2591 -0.999785 0
M  V30 2518 H 237.974 -2.89794 0.771988 0
M  V30 2519 H 235.527 -1.50024 0.438468 0
M  V30 2520 H 236.262 -2.70256 -1.79255 0
M  V30 2521 H 236.047 -3.89202 -0.475829 0
M  V30 2522 H 237.537 -3.91028 -1.46583 0
M  V30 2523 N 237.974 -0.419461 -1.51915 0
M  V30 2524 C 239.22 0.153166 -2.02221 0
M  V30 2525 C 239.553 1.43907 -1.30401 0
M  V30 2526 O 238.828 1.90055 -0.413438 0
M  V30 2527 C 239.111 0.390291 -3.57979 0
M  V30 2528 C 238.964 -0.913014 -4.40436 0
M  V30 2529 C 240.283 1.16794 -4.2432 0
M  V30 2530 H 237.402 0.0541924 -0.735005 0
M  V30 2531 H 240.044 -0.554955 -1.81715 0
M  V30 2532 H 238.194 0.993491 -3.75582 0
M  V30 2533 H 239.866 -1.54882 -4.34522 0
M  V30 2534 H 238.109 -1.52168 -4.06236 0
M  V30 2535 H 238.78 -0.701361 -5.47526 0
M  V30 2536 H 241.256 0.657161 -4.10878 0
M  V30 2537 H 240.132 1.3026 -5.3322 0
M  V30 2538 H 240.393 2.19132 -3.83971 0
M  V30 2539 N 239.452 1.56882 -0.150215 0
M  V30 2540 C 240.362 2.20494 0.801222 0
M  V30 2541 C 241.378 1.19019 1.26927 0
M  V30 2542 O 242.554 1.51607 1.32579 0
M  V30 2543 C 239.619 2.81659 2.02161 0
M  V30 2544 C 238.68 3.9827 1.60249 0
M  V30 2545 C 237.913 4.56508 2.7647 0
M  V30 2546 O 238.136 4.13627 3.92771 0
M  V30 2547 O 237.07 5.46719 2.51757 0
M  V30 2548 H 240.896 3.02315 0.289717 0
M  V30 2549 H 238.481 1.49202 0.0769684 0
M  V30 2550 H 240.363 3.20522 2.73576 0
M  V30 2551 H 239.038 2.02849 2.52258 0
M  V30 2552 H 237.945 3.64117 0.858477 0
M  V30 2553 H 239.278 4.78609 1.14864 0
M  V30 2554 N 240.93 -0.123565 1.57115 0
M  V30 2555 C 242.176 -0.828428 1.85765 0
M  V30 2556 C 242.531 -1.77709 0.737371 0
M  V30 2557 O 241.824 -1.89787 -0.262978 0
M  V30 2558 C 242.018 -1.62016 3.18568 0
M  V30 2559 C 241.847 -0.749663 4.43407 0
M  V30 2560 C 240.617 -0.406251 5.03664 0
M  V30 2561 C 242.815 -0.0693505 5.14253 0
M  V30 2562 N 240.797 0.475389 6.12057 0
M  V30 2563 C 242.168 0.671474 6.16353 0
M  V30 2564 C 244.223 0.00754393 4.97899 0
M  V30 2565 C 242.926 1.48197 7.03868 0
M  V30 2566 C 244.952 0.804845 5.85898 0
M  V30 2567 C 244.314 1.53388 6.87497 0
M  V30 2568 H 240.413 -0.280219 0.73007 0
M  V30 2569 H 242.997 -0.0924183 1.94481 0
M  V30 2570 H 241.168 -2.32724 3.10957 0
M  V30 2571 H 242.9 -2.27 3.35042 0
M  V30 2572 H 239.655 -0.747446 4.67665 0
M  V30 2573 H 240.079 0.907924 6.70884 0
M  V30 2574 H 244.721 -0.541741 4.19315 0
M  V30 2575 H 242.439 2.04242 7.81864 0
M  V30 2576 H 246.025 0.866642 5.75309 0
M  V30 2577 H 244.905 2.1409 7.5441 0
M  V30 2578 N 242.408 -1.52605 -0.393616 0
M  V30 2579 C 243.656 -1.67093 -1.13685 0
M  V30 2580 C 243.977 -0.411011 -1.90619 0
M  V30 2581 O 243.247 0.574491 -1.87287 0
M  V30 2582 H 241.827 -0.615923 -0.422668 0
M  V30 2583 H 244.489 -1.89704 -0.447039 0
M  V30 2584 H 243.585 -2.51922 -1.84232 0
M  V30 2585 N 243.887 0.651787 -1.4349 0
M  V30 2586 C 245.298 1.233 -1.40193 0
M  V30 2587 C 245.649 1.9591 -0.106727 0
M  V30 2588 O 244.774 2.01316 0.793773 0
M  V30 2589 C 245.369 2.24257 -2.53957 0
M  V30 2590 C 243.928 2.77852 -2.5392 0
M  V30 2591 C 243.075 1.52517 -2.3159 0
M  V30 2592 H 246.026 0.443717 -1.52371 0
M  V30 2593 H 246.047 3.0646 -2.25528 0
M  V30 2594 H 245.559 1.71382 -3.4821 0
M  V30 2595 H 243.66 3.34786 -1.63551 0
M  V30 2596 H 243.773 3.25299 -3.51735 0
M  V30 2597 H 242.137 1.79915 -1.80285 0
M  V30 2598 H 242.92 1.01574 -3.27929 0
M  V30 2599 N 245.365 1.30045 0.890287 0
M  V30 2600 C 246.313 1.15873 2.01683 0
M  V30 2601 C 247.307 0.0719403 1.69247 0
M  V30 2602 O 248.513 0.232414 1.78493 0
M  V30 2603 H 244.888 0.358203 0.661207 0
M  V30 2604 H 246.859 2.11229 2.10772 0
M  V30 2605 C 245.608 0.861842 3.36849 0
M  V30 2606 H 244.931 1.69016 3.62317 0
M  V30 2607 H 246.371 0.802762 4.16331 0
M  V30 2608 C 244.83 -0.435132 3.34078 0
M  V30 2609 O 245.36 -1.4583 3.74295 0
M  V30 2610 N 243.566 -0.444377 2.87182 0
M  V30 2611 H 243.113 0.388723 2.5465 0
M  V30 2612 H 243.071 -1.31213 2.85711 0
M  V30 2613 N 246.843 -1.10192 1.12674 0
M  V30 2614 C 248.071 -1.85983 0.906527 0
M  V30 2615 C 248.486 -1.80783 -0.544333 0
M  V30 2616 O 247.843 -1.19834 -1.37645 0
M  V30 2617 C 247.894 -3.34281 1.37618 0
M  V30 2618 O 247.615 -3.39401 2.77017 0
M  V30 2619 C 249.116 -4.26938 1.19325 0
M  V30 2620 H 246.336 -0.587716 0.323775 0
M  V30 2621 H 248.88 -1.39284 1.49734 0
M  V30 2622 H 247.035 -3.78436 0.828539 0
M  V30 2623 H 247.449 -4.31838 2.97684 0
M  V30 2624 H 248.923 -5.29181 1.57071 0
M  V30 2625 H 249.4 -4.38995 0.134097 0
M  V30 2626 H 250.006 -3.8859 1.72852 0
M  V30 2627 N 248.321 -0.919034 -1.28029 0
M  V30 2628 C 249.567 -0.565221 -1.95389 0
M  V30 2629 C 249.922 0.882325 -1.70976 0
M  V30 2630 O 249.215 1.61988 -1.02325 0
M  V30 2631 C 249.409 -0.816855 -3.4794 0
M  V30 2632 C 249.238 -2.28731 -3.87185 0
M  V30 2633 C 248.008 -2.93841 -4.11079 0
M  V30 2634 C 250.206 -3.26415 -3.97439 0
M  V30 2635 N 248.188 -4.31129 -4.37037 0
M  V30 2636 C 249.559 -4.48884 -4.27672 0
M  V30 2637 C 251.614 -3.21742 -3.79982 0
M  V30 2638 C 250.317 -5.67268 -4.42266 0
M  V30 2639 C 252.343 -4.39431 -3.95796 0
M  V30 2640 C 251.705 -5.60675 -4.26407 0
M  V30 2641 H 247.804 -0.256797 -0.738633 0
M  V30 2642 H 250.388 -1.18386 -1.54573 0
M  V30 2643 H 248.559 -0.227445 -3.87733 0
M  V30 2644 H 250.291 -0.426542 -4.02446 0
M  V30 2645 H 247.046 -2.44547 -4.05578 0
M  V30 2646 H 247.47 -5.02127 -4.5409 0
M  V30 2647 H 252.112 -2.29079 -3.55363 0
M  V30 2648 H 249.83 -6.60406 -4.65714 0
M  V30 2649 H 253.416 -4.37323 -3.83719 0
M  V30 2650 H 252.296 -6.50223 -4.38383 0
M  V30 2651 N 249.799 1.42003 -0.683588 0
M  V30 2652 C 250.732 2.28166 0.039592 0
M  V30 2653 C 251.71 1.41562 0.799942 0
M  V30 2654 O 252.894 1.70997 0.793248 0
M  V30 2655 C 250.021 3.21575 1.06335 0
M  V30 2656 C 249.067 4.24643 0.397562 0
M  V30 2657 S 249.9 5.2869 -0.851296 0
M  V30 2658 C 251.056 6.25666 0.171166 0
M  V30 2659 H 251.289 2.89153 -0.691229 0
M  V30 2660 H 248.822 1.46962 -0.473435 0
M  V30 2661 H 250.78 3.75928 1.6489 0
M  V30 2662 H 249.441 2.59707 1.76667 0
M  V30 2663 H 248.634 4.90223 1.17035 0
M  V30 2664 H 248.236 3.73824 -0.114611 0
M  V30 2665 H 250.528 6.69653 1.02819 0
M  V30 2666 H 251.471 7.06666 -0.450397 0
M  V30 2667 H 251.879 5.62095 0.520578 0
M  V30 2668 N 251.277 0.427512 1.51691 0
M  V30 2669 C 252.523 -0.142439 2.02299 0
M  V30 2670 C 252.856 -1.43214 1.31162 0
M  V30 2671 O 252.131 -1.89833 0.423511 0
M  V30 2672 C 252.414 -0.371301 3.58181 0
M  V30 2673 C 252.267 0.936358 4.39946 0
M  V30 2674 C 253.586 -1.14542 4.24933 0
M  V30 2675 H 250.705 -0.0502937 0.735282 0
M  V30 2676 H 253.347 0.564584 1.81418 0
M  V30 2677 H 251.497 -0.973559 3.76104 0
M  V30 2678 H 253.169 1.57184 4.33694 0
M  V30 2679 H 251.412 1.5432 4.05423 0
M  V30 2680 H 252.083 0.730388 5.47147 0
M  V30 2681 H 254.559 -0.635362 4.11221 0
M  V30 2682 H 253.435 -1.27431 5.33903 0
M  V30 2683 H 253.696 -2.17093 3.85127 0
M  V30 2684 N 252.755 -1.56801 0.158532 0
M  V30 2685 C 253.665 -2.20916 -0.789518 0
M  V30 2686 C 254.681 -1.1969 -1.26294 0
M  V30 2687 O 255.857 -1.52308 -1.31773 0
M  V30 2688 C 252.922 -2.82727 -2.00665 0
M  V30 2689 C 251.983 -3.99114 -1.58134 0
M  V30 2690 C 251.216 -4.57968 -2.74045 0
M  V30 2691 O 251.439 -4.15704 -3.90572 0
M  V30 2692 O 250.373 -5.48047 -2.48855 0
M  V30 2693 H 254.199 -3.02464 -0.273681 0
M  V30 2694 H 251.784 -1.4924 -0.0690548 0
M  V30 2695 H 253.666 -3.21968 -2.71872 0
M  V30 2696 H 252.341 -2.04184 -2.51179 0
M  V30 2697 H 251.248 -3.64567 -0.839155 0
M  V30 2698 H 252.581 -4.79212 -1.12325 0
M  V30 2699 N 254.233 0.115231 -1.57178 0
M  V30 2700 C 255.463 0.835224 -1.88964 0
M  V30 2701 C 255.871 1.73774 -0.74829 0
M  V30 2702 O 255.214 1.81401 0.289739 0
M  V30 2703 C 255.276 1.7178 -3.15804 0
M  V30 2704 C 254.94 0.989198 -4.46166 0
M  V30 2705 C 255.937 0.328263 -5.18863 0
M  V30 2706 C 253.622 0.969256 -4.9286 0
M  V30 2707 C 255.616 -0.342873 -6.36477 0
M  V30 2708 C 253.303 0.294324 -6.10391 0
M  V30 2709 C 254.301 -0.360582 -6.82048 0
M  V30 2710 O 253.989 -1.02474 -7.97342 0
M  V30 2711 H 253.721 0.245197 -0.629964 0
M  V30 2712 H 256.275 0.10303 -2.05141 0
M  V30 2713 H 254.505 2.49173 -2.95719 0
M  V30 2714 H 256.194 2.31255 -3.33581 0
M  V30 2715 H 256.96 0.335263 -4.8384 0
M  V30 2716 H 252.839 1.46844 -4.36987 0
M  V30 2717 H 256.383 -0.854629 -6.92345 0
M  V30 2718 H 252.28 0.285099 -6.4487 0
M  V30 2719 H 253.048 -0.929594 -8.13204 0
M  V30 2720 N 255.711 1.52812 0.385517 0
M  V30 2721 C 256.959 1.67694 1.12797 0
M  V30 2722 C 257.28 0.421115 1.90399 0
M  V30 2723 O 256.55 -0.564551 1.87589 0
M  V30 2724 H 255.13 0.618155 0.419396 0
M  V30 2725 H 257.792 1.89938 0.436972 0
M  V30 2726 H 256.888 2.52896 1.82894 0
M  V30 2727 N 257.189 -0.644168 1.43834 0
M  V30 2728 C 258.605 -0.960875 1.27434 0
M  V30 2729 C 258.805 -2.00499 0.200618 0
M  V30 2730 O 257.861 -2.49018 -0.417906 0
M  V30 2731 C 259.174 -1.43653 2.64167 0
M  V30 2732 C 260.722 -1.55271 2.71772 0
M  V30 2733 C 261.197 -2.06224 4.08944 0
M  V30 2734 N 262.688 -2.13513 4.11055 0
M  V30 2735 C 263.423 -2.54081 5.14033 0
M  V30 2736 N 262.919 -2.9388 6.27381 0
M  V30 2737 N 264.712 -2.54101 5.01387 0
M  V30 2738 H 256.863 0.0465779 2.12349 0
M  V30 2739 H 259.126 -0.0417638 0.94708 0
M  V30 2740 H 258.832 -0.743706 3.43747 0
M  V30 2741 H 258.706 -2.40993 2.90176 0
M  V30 2742 H 261.093 -2.23653 1.92519 0
M  V30 2743 H 261.174 -0.563395 2.49519 0
M  V30 2744 H 260.818 -1.38441 4.88668 0
M  V30 2745 H 260.748 -3.06003 4.28567 0
M  V30 2746 H 263.239 -1.85493 3.29242 0
M  V30 2747 H 263.552 -3.2361 7.01781 0
M  V30 2748 H 261.897 -2.91663 6.30839 0
M  V30 2749 H 265.088 -2.22391 4.11898 0
M  V30 2750 H 265.261 -2.85394 5.81768 0
M  V30 2751 N 258.668 -1.30515 -0.883378 0
M  V30 2752 C 259.916 -1.19194 -1.63209 0
M  V30 2753 C 260.237 0.253205 -1.93349 0
M  V30 2754 O 259.507 1.17025 -1.57105 0
M  V30 2755 H 258.087 -0.438148 -0.605009 0
M  V30 2756 H 260.749 -1.63663 -1.05832 0
M  V30 2757 H 259.845 -1.75396 -2.58153 0
M  V30 2758 N 260.146 1.09593 -1.13257 0
M  V30 2759 C 261.392 1.82003 -0.89458 0
M  V30 2760 C 261.725 1.85402 0.577906 0
M  V30 2761 O 261 1.32099 1.42759 0
M  V30 2762 C 261.283 3.28237 -1.48096 0
M  V30 2763 C 261.136 3.3312 -3.02244 0
M  V30 2764 C 262.455 4.24871 -1.14774 0
M  V30 2765 H 259.574 0.66077 -0.326424 0
M  V30 2766 H 262.216 1.28389 -1.40058 0
M  V30 2767 H 260.366 3.74024 -1.05062 0
M  V30 2768 H 262.038 2.95748 -3.54021 0
M  V30 2769 H 260.281 2.72756 -3.37323 0
M  V30 2770 H 260.952 4.3613 -3.38371 0
M  V30 2771 H 263.428 3.87361 -1.51957 0
M  V30 2772 H 262.304 5.25532 -1.58452 0
M  V30 2773 H 262.565 4.42058 -0.0611849 0
M  V30 2774 N 261.624 0.925811 1.2754 0
M  V30 2775 C 262.873 0.561084 1.93739 0
M  V30 2776 C 263.186 -0.901685 1.73577 0
M  V30 2777 O 264.392 -1.37511 2.34101 0
M  V30 2778 C 262.848 0.952668 3.47062 0
M  V30 2779 C 262.456 2.43599 3.75983 0
M  V30 2780 C 264.2 0.659103 4.19352 0
M  V30 2781 C 262.107 2.76707 5.22673 0
M  V30 2782 H 261.037 0.206122 0.725279 0
M  V30 2783 H 263.688 1.12637 1.44863 0
M  V30 2784 H 262.07 0.316053 3.94737 0
M  V30 2785 H 263.244 3.12035 3.39073 0
M  V30 2786 H 261.559 2.70125 3.16893 0
M  V30 2787 H 264.156 0.882985 5.27359 0
M  V30 2788 H 264.499 -0.403607 4.14339 0
M  V30 2789 H 265.032 1.25473 3.77494 0
M  V30 2790 H 261.771 3.8188 5.32774 0
M  V30 2791 H 261.291 2.12919 5.60737 0
M  V30 2792 H 262.97 2.6435 5.90532 0
M  V30 2793 N 263.102 -1.41638 0.69111 0
M  V30 2794 C 264.513 -1.84346 0.295517 0
M  V30 2795 C 264.864 -1.57833 -1.16547 0
M  V30 2796 O 263.989 -1.04648 -1.89414 0
M  V30 2797 C 264.584 -3.34636 0.529575 0
M  V30 2798 C 263.143 -3.7593 0.187944 0
M  V30 2799 C 262.29 -2.65082 0.814052 0
M  V30 2800 H 265.241 -1.31253 0.892092 0
M  V30 2801 H 265.262 -3.79903 -0.213148 0
M  V30 2802 H 264.774 -3.53901 1.59297 0
M  V30 2803 H 262.875 -3.62268 -0.871367 0
M  V30 2804 H 262.988 -4.74808 0.63985 0
M  V30 2805 H 261.352 -2.53528 0.244017 0
M  V30 2806 H 262.135 -2.87167 1.88123 0
M  V30 2807 N 264.58 -0.43555 -1.51462 0
M  V30 2808 C 265.805 0.132627 -2.06976 0
M  V30 2809 C 266.23 1.35848 -1.30104 0
M  V30 2810 O 265.588 1.78112 -0.338493 0
M  V30 2811 C 265.636 0.43523 -3.57964 0
M  V30 2812 O 264.74 1.52198 -3.83288 0
M  V30 2813 H 264.081 0.00265 -0.663995 0
M  V30 2814 H 266.611 -0.616369 -1.95095 0
M  V30 2815 H 266.621 0.686206 -4.02188 0
M  V30 2816 H 265.296 -0.460739 -4.1334 0
M  V30 2817 H 263.873 1.2611 -3.50928 0
M  V30 2818 N 266.058 1.56714 -0.166846 0
M  V30 2819 C 267.286 2.0112 0.485644 0
M  V30 2820 C 267.701 1.04705 1.57106 0
M  V30 2821 O 267.058 0.0471923 1.82439 0
M  V30 2822 C 267.109 3.45361 1.06808 0
M  V30 2823 O 266.83 4.38092 0.0259995 0
M  V30 2824 C 268.331 4.05145 1.79924 0
M  V30 2825 H 265.551 0.65931 0.124704 0
M  V30 2826 H 268.095 2.02746 -0.267262 0
M  V30 2827 H 266.25 3.44524 1.7715 0
M  V30 2828 H 266.664 5.22519 0.455398 0
M  V30 2829 H 268.138 5.08009 2.15942 0
M  V30 2830 H 268.615 3.46982 2.69258 0
M  V30 2831 H 269.221 4.09672 1.14234 0
M  V30 2832 N 267.536 -0.106894 1.57237 0
M  V30 2833 C 268.466 -1.13148 2.04254 0
M  V30 2834 C 269.447 -1.42476 0.929224 0
M  V30 2835 O 270.632 -1.52709 1.19973 0
M  V30 2836 C 267.762 -2.4545 2.45706 0
M  V30 2837 C 266.716 -2.30558 3.60592 0
M  V30 2838 C 266.042 -3.67931 3.87983 0
M  V30 2839 C 267.342 -1.75597 4.91897 0
M  V30 2840 H 269.036 -0.740374 2.90101 0
M  V30 2841 H 266.582 -0.354696 1.39563 0
M  V30 2842 H 268.535 -3.17389 2.77205 0
M  V30 2843 H 267.259 -2.86475 1.56843 0
M  V30 2844 H 265.918 -1.61067 3.29322 0
M  V30 2845 H 265.566 -4.06462 2.96306 0
M  V30 2846 H 265.266 -3.58817 4.65322 0
M  V30 2847 H 266.79 -4.41356 4.21945 0
M  V30 2848 H 268.204 -2.37364 5.21854 0
M  V30 2849 H 266.601 -1.77272 5.73319 0
M  V30 2850 H 267.671 -0.714451 4.79608 0
M  V30 2851 N 269.014 -1.53014 -0.377408 0
M  V30 2852 C 269.977 -1.77957 -1.44444 0
M  V30 2853 C 270.977 -0.649763 -1.47087 0
M  V30 2854 O 272.167 -0.917897 -1.48055 0
M  V30 2855 C 269.299 -1.89089 -2.83651 0
M  V30 2856 H 270.492 -2.73243 -1.23606 0
M  V30 2857 H 268.045 -1.43912 -0.609844 0
M  V30 2858 H 268.78 -0.958293 -3.09818 0
M  V30 2859 H 268.565 -2.71254 -2.83132 0
M  V30 2860 H 270.055 -2.1002 -3.60945 0
M  V30 2861 N 270.492 0.636531 -1.44174 0
M  V30 2862 C 271.739 1.39619 -1.46672 0
M  V30 2863 C 272.067 1.94257 -0.0972691 0
M  V30 2864 O 271.322 1.73768 0.900175 0
M  V30 2865 C 271.621 2.58309 -2.47005 0
M  V30 2866 C 271.287 2.21992 -3.92467 0
M  V30 2867 C 269.949 2.118 -4.32081 0
M  V30 2868 C 272.301 1.9321 -4.84065 0
M  V30 2869 C 269.629 1.71007 -5.61225 0
M  V30 2870 C 271.981 1.53911 -6.13591 0
M  V30 2871 C 270.645 1.42257 -6.52165 0
M  V30 2872 H 269.915 0.510902 -0.536712 0
M  V30 2873 H 272.562 0.722328 -1.77355 0
M  V30 2874 H 270.867 3.30903 -2.09786 0
M  V30 2875 H 272.564 3.16533 -2.46186 0
M  V30 2876 H 269.154 2.30841 -3.61124 0
M  V30 2877 H 273.338 1.99997 -4.54219 0
M  V30 2878 H 268.594 1.60583 -5.89935 0
M  V30 2879 H 272.768 1.30677 -6.8403 0
M  V30 2880 H 270.395 1.10419 -7.52138 0
M  V30 2881 N 271.97 1.30982 0.876444 0
M  V30 2882 C 272.933 1.18054 1.96459 0
M  V30 2883 C 273.933 0.109399 1.60427 0
M  V30 2884 O 275.123 0.358173 1.70478 0
M  V30 2885 C 272.255 0.810616 3.31122 0
M  V30 2886 H 273.448 2.14735 2.09354 0
M  V30 2887 H 271.001 1.145 1.06392 0
M  V30 2888 H 271.736 -0.155322 3.23928 0
M  V30 2889 H 271.521 1.58481 3.58645 0
M  V30 2890 H 273.011 0.743876 4.10921 0
M  V30 2891 N 273.449 -1.08991 1.13837 0
M  V30 2892 C 274.379 -2.17771 0.842507 0
M  V30 2893 C 275.36 -1.6892 -0.20001 0
M  V30 2894 O 276.545 -1.94113 -0.0579731 0
M  V30 2895 C 273.675 -3.4589 0.312644 0
M  V30 2896 C 272.629 -4.08099 1.28992 0
M  V30 2897 C 271.955 -5.31098 0.619623 0
M  V30 2898 C 273.255 -4.50077 2.65005 0
M  V30 2899 H 274.949 -2.42777 1.75213 0
M  V30 2900 H 272.495 -1.16682 0.843875 0
M  V30 2901 H 274.448 -4.21297 0.0933043 0
M  V30 2902 H 273.172 -3.20419 -0.632382 0
M  V30 2903 H 271.831 -3.34717 1.49533 0
M  V30 2904 H 271.479 -5.0191 -0.33102 0
M  V30 2905 H 271.179 -5.73674 1.27167 0
M  V30 2906 H 272.703 -6.09224 0.409669 0
M  V30 2907 H 274.117 -5.16688 2.48407 0
M  V30 2908 H 272.514 -5.03553 3.26427 0
M  V30 2909 H 273.584 -3.62257 3.22332 0
M  V30 2910 N 274.927 -0.932562 -1.27047 0
M  V30 2911 C 275.89 -0.440064 -2.24936 0
M  V30 2912 C 276.89 0.444071 -1.54547 0
M  V30 2913 O 278.08 0.244465 -1.72476 0
M  V30 2914 C 275.212 0.36678 -3.38921 0
M  V30 2915 H 276.405 -1.305 -2.70018 0
M  V30 2916 H 273.958 -0.713707 -1.39054 0
M  V30 2917 H 274.693 1.25033 -2.99228 0
M  V30 2918 H 274.478 -0.267204 -3.91188 0
M  V30 2919 H 275.968 0.701567 -4.11665 0
M  V30 2920 N 276.405 1.4127 -0.698611 0
M  V30 2921 C 277.682 1.94955 -0.158762 0
M  V30 2922 C 278.062 1.63781 1.33188 0
M  V30 2923 O 277.41 0.946423 2.07979 0
M  V30 2924 C 277.62 3.46044 -0.453309 0
M  V30 2925 C 278.968 4.22872 -0.382707 0
M  V30 2926 O 279.992 3.54076 -0.388396 0
M  V30 2927 O 278.851 5.45407 -0.345463 0
M  V30 2928 H 275.945 0.82683 -0.0167505 0
M  V30 2929 H 278.491 1.50971 -0.77498 0
M  V30 2930 H 277.263 3.62028 -1.48498 0
M  V30 2931 H 276.886 3.97128 0.19373 0
M  V30 2932 N 277.883 0.443576 1.51229 0
M  V30 2933 C 279.111 -0.11929 2.06556 0
M  V30 2934 C 279.526 -1.35921 1.31038 0
M  V30 2935 O 278.883 -1.78675 0.371704 0
M  V30 2936 C 278.934 -0.435228 3.5887 0
M  V30 2937 O 278.655 0.755486 4.31537 0
M  V30 2938 C 280.156 -1.04808 4.30732 0
M  V30 2939 H 277.376 -0.0051584 0.67098 0
M  V30 2940 H 279.92 0.624453 1.94733 0
M  V30 2941 H 278.075 -1.12887 3.70588 0
M  V30 2942 H 278.489 0.483491 5.22267 0
M  V30 2943 H 279.963 -1.2191 5.3837 0
M  V30 2944 H 280.44 -2.03081 3.89429 0
M  V30 2945 H 281.046 -0.393637 4.23474 0
M  V30 2946 N 279.361 -1.56624 0.175154 0
M  V30 2947 C 280.607 -1.9729 -0.469506 0
M  V30 2948 C 280.94 -1.06128 -1.62636 0
M  V30 2949 O 280.215 -0.109183 -1.94193 0
M  V30 2950 C 280.498 -3.47375 -0.948804 0
M  V30 2951 C 280.351 -4.49317 0.208491 0
M  V30 2952 C 281.67 -4.00652 -1.82116 0
M  V30 2953 H 278.789 -0.717317 -0.16919 0
M  V30 2954 H 281.431 -1.88184 0.262062 0
M  V30 2955 H 279.581 -3.55267 -1.57219 0
M  V30 2956 H 281.253 -4.53482 0.845682 0
M  V30 2957 H 279.496 -4.25121 0.863395 0
M  V30 2958 H 280.167 -5.51741 -0.169059 0
M  V30 2959 H 282.643 -3.95416 -1.2956 0
M  V30 2960 H 281.519 -5.06075 -2.12554 0
M  V30 2961 H 281.78 -3.44699 -2.7683 0
M  V30 2962 N 280.839 0.0985539 -1.57292 0
M  V30 2963 C 282.086 0.802678 -1.85912 0
M  V30 2964 C 282.414 1.78901 -0.763186 0
M  V30 2965 O 281.669 1.94178 0.243559 0
M  V30 2966 C 281.968 1.56927 -3.21105 0
M  V30 2967 C 281.634 0.725376 -4.45027 0
M  V30 2968 C 280.296 0.492726 -4.78671 0
M  V30 2969 C 282.648 0.138493 -5.21016 0
M  V30 2970 C 279.976 -0.336727 -5.85733 0
M  V30 2971 C 282.328 -0.678264 -6.28953 0
M  V30 2972 C 280.992 -0.921039 -6.61115 0
M  V30 2973 H 280.262 0.293721 -0.680301 0
M  V30 2974 H 282.909 0.0642841 -1.91392 0
M  V30 2975 H 281.214 2.37914 -3.11294 0
M  V30 2976 H 282.911 2.11841 -3.40477 0
M  V30 2977 H 279.501 0.916815 -4.18679 0
M  V30 2978 H 283.685 0.305404 -4.95359 0
M  V30 2979 H 278.941 -0.533836 -6.09065 0
M  V30 2980 H 283.115 -1.1399 -6.87007 0
M  V30 2981 H 280.742 -1.56556 -7.43905 0
M  V30 2982 N 282.317 1.53212 0.369288 0
M  V30 2983 C 283.542 1.73423 1.1375 0
M  V30 2984 C 283.967 0.460404 1.82378 0
M  V30 2985 O 283.325 -0.585298 1.71592 0
M  V30 2986 C 283.373 2.89769 2.1463 0
M  V30 2987 O 282.477 2.58119 3.21634 0
M  V30 2988 H 281.818 0.576061 0.330227 0
M  V30 2989 H 284.348 2.00083 0.427547 0
M  V30 2990 H 284.358 3.15829 2.58294 0
M  V30 2991 H 283.033 3.8217 1.64071 0
M  V30 2992 H 281.61 2.42864 2.82969 0
M  V30 2993 N 283.795 -0.628877 1.44509 0
M  V30 2994 C 285.023 -1.41554 1.50897 0
M  V30 2995 C 285.438 -1.8832 0.134564 0
M  V30 2996 O 284.795 -1.60969 -0.859965 0
M  V30 2997 C 284.846 -2.63435 2.47556 0
M  V30 2998 O 284.567 -2.18619 3.79654 0
M  V30 2999 C 286.068 -3.56537 2.63431 0
M  V30 3000 H 283.288 -0.434044 0.511709 0
M  V30 3001 H 285.832 -0.768895 1.89495 0
M  V30 3002 H 283.987 -3.24187 2.12089 0
M  V30 3003 H 284.401 -2.97652 4.31861 0
M  V30 3004 H 285.875 -4.38657 3.35088 0
M  V30 3005 H 286.352 -4.05493 1.68738 0
M  V30 3006 H 286.958 -3.01653 2.9981 0
M  V30 3007 N 285.273 -1.31445 -0.869486 0
M  V30 3008 C 286.205 -1.14955 -1.98287 0
M  V30 3009 C 287.218 -0.0885037 -1.62559 0
M  V30 3010 O 288.407 -0.336044 -1.75308 0
M  V30 3011 C 285.507 -0.734255 -3.3085 0
M  V30 3012 C 284.68 -1.88042 -3.94917 0
M  V30 3013 C 283.739 -1.4511 -5.05796 0
M  V30 3014 O 282.765 -2.16082 -5.2659 0
M  V30 3015 N 283.967 -0.338763 -5.79511 0
M  V30 3016 H 286.732 -2.10856 -2.12979 0
M  V30 3017 H 284.293 -1.23786 -1.04349 0
M  V30 3018 H 286.285 -0.42975 -4.02412 0
M  V30 3019 H 284.855 0.133158 -3.12316 0
M  V30 3020 H 284.075 -2.35222 -3.1633 0
M  V30 3021 H 285.363 -2.6481 -4.34457 0
M  V30 3022 H 284.761 0.252274 -5.65137 0
M  V30 3023 H 283.318 -0.0937925 -6.51733 0
M  V30 3024 N 286.751 1.08385 -1.14413 0
M  V30 3025 C 288.028 1.77429 -0.823297 0
M  V30 3026 C 288.408 1.9974 0.683163 0
M  V30 3027 O 287.756 1.60739 1.62405 0
M  V30 3028 C 287.966 3.09004 -1.62227 0
M  V30 3029 C 289.314 3.83532 -1.82177 0
M  V30 3030 O 290.338 3.18786 -1.58915 0
M  V30 3031 O 289.197 4.99792 -2.21067 0
M  V30 3032 H 286.291 0.769999 -0.301712 0
M  V30 3033 H 288.837 1.14846 -1.24934 0
M  V30 3034 H 287.609 2.88316 -2.64555 0
M  V30 3035 H 287.232 3.79316 -1.19187 0
M  V30 3036 N 288.23 0.939286 1.26551 0
M  V30 3037 C 289.477 0.585847 1.9384 0
M  V30 3038 C 289.805 -0.874784 1.73718 0
M  V30 3039 O 289.06 -1.64092 1.06642 0
M  V30 3040 C 289.359 0.872106 3.46596 0
M  V30 3041 C 289.025 2.31632 3.86856 0
M  V30 3042 C 287.687 2.71111 3.97558 0
M  V30 3043 C 290.039 3.25494 4.07066 0
M  V30 3044 C 287.367 4.03553 4.25866 0
M  V30 3045 C 289.719 4.57531 4.36862 0
M  V30 3046 C 288.383 4.96828 4.45778 0
M  V30 3047 H 287.653 0.214377 0.709312 0
M  V30 3048 H 290.3 1.18544 1.50398 0
M  V30 3049 H 288.605 0.18996 3.91339 0
M  V30 3050 H 290.302 0.577442 3.96821 0
M  V30 3051 H 286.892 2.00008 3.79071 0
M  V30 3052 H 291.076 2.9619 3.98227 0
M  V30 3053 H 286.332 4.33665 4.30981 0
M  V30 3054 H 290.506 5.30254 4.51446 0
M  V30 3055 H 288.133 5.99482 4.67468 0
M  V30 3056 N 289.708 -1.40897 0.706093 0
M  V30 3057 C 290.638 -2.33418 0.0620085 0
M  V30 3058 C 291.619 -1.52385 -0.755827 0
M  V30 3059 O 292.804 -1.80886 -0.706674 0
M  V30 3060 C 289.934 -3.36293 -0.867445 0
M  V30 3061 C 288.888 -4.27716 -0.155932 0
M  V30 3062 C 288.214 -5.2105 -1.20046 0
M  V30 3063 C 289.514 -5.12944 0.984149 0
M  V30 3064 H 291.208 -2.87527 0.83477 0
M  V30 3065 H 288.754 -1.38249 0.402875 0
M  V30 3066 H 290.707 -3.99949 -1.32735 0
M  V30 3067 H 289.431 -2.80556 -1.67199 0
M  V30 3068 H 288.09 -3.65498 0.284047 0
M  V30 3069 H 287.738 -4.61624 -1.99781 0
M  V30 3070 H 287.438 -5.83056 -0.729328 0
M  V30 3071 H 288.962 -5.87584 -1.66066 0
M  V30 3072 H 290.376 -5.70109 0.604048 0
M  V30 3073 H 288.773 -5.83945 1.38304 0
M  V30 3074 H 289.843 -4.49485 1.81911 0
M  V30 3075 N 291.186 -0.45159 -1.50991 0
M  V30 3076 C 292.414 0.108334 -2.06616 0
M  V30 3077 C 292.829 1.35224 -1.31757 0
M  V30 3078 O 292.186 1.78475 -0.381174 0
M  V30 3079 C 292.237 0.41619 -3.59096 0
M  V30 3080 O 291.958 -0.778361 -4.3113 0
M  V30 3081 C 293.459 1.02523 -4.31282 0
M  V30 3082 H 290.679 0.00159995 -0.670998 0
M  V30 3083 H 293.223 -0.634771 -1.94399 0
M  V30 3084 H 291.378 1.10921 -3.71181 0
M  V30 3085 H 291.792 -0.511181 -5.22003 0
M  V30 3086 H 293.266 1.19053 -5.39009 0
M  V30 3087 H 293.743 2.01013 -3.905 0
M  V30 3088 H 294.349 0.371173 -4.23677 0
M  V30 3089 N 292.664 1.56529 -0.183458 0
M  V30 3090 C 293.594 2.21549 0.737456 0
M  V30 3091 C 294.575 1.17489 1.23005 0
M  V30 3092 O 295.76 1.45959 1.281 0
M  V30 3093 C 292.89 2.86575 1.96194 0
M  V30 3094 C 291.844 3.96778 1.60473 0
M  V30 3095 C 291.17 4.48911 2.90487 0
M  V30 3096 C 292.47 5.15767 0.823497 0
M  V30 3097 H 294.164 2.98761 0.195453 0
M  V30 3098 H 291.71 1.43702 0.0925686 0
M  V30 3099 H 293.663 3.30739 2.61131 0
M  V30 3100 H 292.387 2.06749 2.52828 0
M  V30 3101 H 291.046 3.53286 0.978997 0
M  V30 3102 H 290.694 3.65862 3.45186 0
M  V30 3103 H 290.394 5.23265 2.67335 0
M  V30 3104 H 291.918 4.95771 3.56432 0
M  V30 3105 H 293.332 5.56549 1.37571 0
M  V30 3106 H 291.729 5.96114 0.690551 0
M  V30 3107 H 292.799 4.84574 -0.177782 0
M  V30 3108 N 294.142 -0.090211 1.57342 0
M  V30 3109 C 295.389 -0.792807 1.86335 0
M  V30 3110 C 295.717 -1.78494 0.772662 0
M  V30 3111 O 294.972 -1.94305 -0.233258 0
M  V30 3112 C 295.271 -1.55222 3.21933 0
M  V30 3113 C 294.937 -0.701765 4.45406 0
M  V30 3114 C 293.599 -0.467334 4.78925 0
M  V30 3115 C 295.951 -0.11086 5.21082 0
M  V30 3116 C 293.279 0.367785 5.85546 0
M  V30 3117 C 295.631 0.711609 6.28585 0
M  V30 3118 C 294.295 0.956086 6.60617 0
M  V30 3119 H 293.565 -0.290109 0.681849 0
M  V30 3120 H 296.212 -0.0541332 1.91423 0
M  V30 3121 H 294.517 -2.3626 3.12551 0
M  V30 3122 H 296.214 -2.10032 3.41595 0
M  V30 3123 H 292.804 -0.894598 4.1916 0
M  V30 3124 H 296.988 -0.279129 4.95514 0
M  V30 3125 H 292.244 0.566128 6.08773 0
M  V30 3126 H 296.418 1.17632 6.86393 0
M  V30 3127 H 294.045 1.60499 7.43064 0
M  V30 3128 N 295.62 -1.53406 -0.361157 0
M  V30 3129 C 296.85 -1.73465 -1.1222 0
M  V30 3130 C 297.258 -0.465486 -1.83384 0
M  V30 3131 O 296.601 0.571611 -1.7458 0
M  V30 3132 C 296.663 -2.84834 -2.19339 0
M  V30 3133 C 296.327 -4.25038 -1.67903 0
M  V30 3134 C 297.324 -5.07231 -1.14074 0
M  V30 3135 C 295.009 -4.71464 -1.73282 0
M  V30 3136 C 297.003 -6.33942 -0.663068 0
M  V30 3137 C 294.69 -5.98153 -1.25127 0
M  V30 3138 C 295.688 -6.79223 -0.717296 0
M  V30 3139 O 295.376 -8.03533 -0.242865 0
M  V30 3140 H 295.108 -0.583526 -0.341283 0
M  V30 3141 H 297.662 -2.00964 -0.424591 0
M  V30 3142 H 295.892 -2.5282 -2.92607 0
M  V30 3143 H 297.581 -2.9303 -2.80871 0
M  V30 3144 H 298.347 -4.72534 -1.09254 0
M  V30 3145 H 294.226 -4.08432 -2.13786 0
M  V30 3146 H 297.77 -6.97167 -0.245612 0
M  V30 3147 H 293.667 -6.32347 -1.29642 0
M  V30 3148 H 294.435 -8.177 -0.361786 0
M  V30 3149 N 297.098 0.621204 -1.44841 0
M  V30 3150 C 298.326 1.40752 -1.51646 0
M  V30 3151 C 298.741 1.88246 -0.144549 0
M  V30 3152 O 298.098 1.61422 0.851416 0
M  V30 3153 C 298.149 2.62119 -2.4895 0
M  V30 3154 O 297.87 2.16602 -3.80808 0
M  V30 3155 C 299.371 3.55135 -2.65319 0
M  V30 3156 H 296.591 0.431325 -0.514004 0
M  V30 3157 H 299.135 0.758835 -1.899 0
M  V30 3158 H 297.29 3.23058 -2.13805 0
M  V30 3159 H 297.704 2.95358 -4.33433 0
M  V30 3160 H 299.178 4.36874 -3.37409 0
M  V30 3161 H 299.655 4.04592 -1.70886 0
M  V30 3162 H 300.261 3.00058 -3.01405 0
M  V30 3163 N 298.576 1.31904 0.862503 0
M  V30 3164 C 299.506 1.22782 1.98612 0
M  V30 3165 C 300.487 0.113362 1.69722 0
M  V30 3166 O 301.672 0.299218 1.91881 0
M  V30 3167 C 298.802 0.942058 3.34279 0
M  V30 3168 C 297.756 2.0169 3.77499 0
M  V30 3169 C 297.082 1.58369 5.10709 0
M  V30 3170 C 298.382 3.43096 3.93805 0
M  V30 3171 H 300.076 2.16788 2.06502 0
M  V30 3172 H 297.622 1.04366 0.992154 0
M  V30 3173 H 299.575 0.864818 4.1243 0
M  V30 3174 H 298.299 -0.0336603 3.26583 0
M  V30 3175 H 296.958 2.08416 3.01593 0
M  V30 3176 H 296.606 0.595628 4.99461 0
M  V30 3177 H 296.306 2.30279 5.40597 0
M  V30 3178 H 297.83 1.52067 5.91361 0
M  V30 3179 H 299.244 3.39003 4.62331 0
M  V30 3180 H 297.641 4.13288 4.35101 0
M  V30 3181 H 298.711 3.83334 2.96957 0
M  V30 3182 N 300.054 -1.07777 1.14986 0
M  V30 3183 C 301.47 -1.32373 0.891596 0
M  V30 3184 C 301.67 -1.9609 -0.463788 0
M  V30 3185 O 300.726 -2.21801 -1.20667 0
M  V30 3186 C 302.039 -2.21905 2.02925 0
M  V30 3187 C 303.587 -2.35367 2.06329 0
M  V30 3188 C 304.062 -3.28245 3.19405 0
M  V30 3189 N 305.553 -3.35824 3.19024 0
M  V30 3190 C 306.288 -4.07739 4.03158 0
M  V30 3191 N 305.784 -4.82306 4.97346 0
M  V30 3192 N 307.577 -4.03635 3.91197 0
M  V30 3193 H 299.728 -0.648039 2.02273 0
M  V30 3194 H 301.991 -0.348149 0.881757 0
M  V30 3195 H 301.697 -1.82342 3.0074 0
M  V30 3196 H 301.571 -3.22407 1.95789 0
M  V30 3197 H 303.958 -2.74186 1.09116 0
M  V30 3198 H 304.039 -1.34585 2.17533 0
M  V30 3199 H 303.683 -2.90146 4.16867 0
M  V30 3200 H 303.613 -4.28971 3.05437 0
M  V30 3201 H 306.104 -2.8267 2.50811 0
M  V30 3202 H 306.417 -5.34661 5.57994 0
M  V30 3203 H 304.762 -4.81337 5.01338 0
M  V30 3204 H 307.953 -3.44491 3.16928 0
M  V30 3205 H 308.126 -4.59417 4.5699 0
M  V30 3206 N 301.532 -0.945985 -1.26051 0
M  V30 3207 C 302.757 -0.612525 -1.98149 0
M  V30 3208 C 303.182 0.806623 -1.69927 0
M  V30 3209 O 302.54 1.54411 -0.950108 0
M  V30 3210 C 302.588 -0.866981 -3.50023 0
M  V30 3211 O 301.692 0.0585333 -4.12358 0
M  V30 3212 H 301.033 -0.23379 -0.621481 0
M  V30 3213 H 303.563 -1.27023 -1.60395 0
M  V30 3214 H 303.573 -0.789792 -4.00283 0
M  V30 3215 H 302.248 -1.90135 -3.69894 0
M  V30 3216 H 300.825 -0.0701241 -3.72834 0
M  V30 3217 N 303.011 1.40521 -0.713556 0
M  V30 3218 C 304.241 2.0494 -0.261395 0
M  V30 3219 C 304.649 1.53861 1.10107 0
M  V30 3220 O 303.992 0.689321 1.70276 0
M  V30 3221 C 304.054 3.59138 -0.161227 0
M  V30 3222 C 303.718 4.33096 -1.45865 0
M  V30 3223 C 304.715 4.61182 -2.40016 0
M  V30 3224 C 302.4 4.72043 -1.71701 0
M  V30 3225 C 304.394 5.27196 -3.58251 0
M  V30 3226 C 302.081 5.37789 -2.90218 0
M  V30 3227 C 303.079 5.65295 -3.83315 0
M  V30 3228 O 302.767 6.29683 -4.99754 0
M  V30 3229 H 302.499 0.666041 -0.115608 0
M  V30 3230 H 305.053 1.80954 -0.971849 0
M  V30 3231 H 303.283 3.81936 0.605153 0
M  V30 3232 H 304.972 4.05091 0.256105 0
M  V30 3233 H 305.738 4.31559 -2.21318 0
M  V30 3234 H 301.617 4.50003 -1.00092 0
M  V30 3235 H 305.161 5.48582 -4.30934 0
M  V30 3236 H 301.058 5.66831 -3.08825 0
M  V30 3237 H 301.826 6.4818 -4.99805 0
M  V30 3238 N 304.489 0.459591 1.5075 0
M  V30 3239 C 305.452 -0.329093 2.26825 0
M  V30 3240 C 306.452 -0.930481 1.31144 0
M  V30 3241 O 307.642 -0.801453 1.54669 0
M  V30 3242 C 304.774 -1.46768 3.07688 0
M  V30 3243 H 305.967 0.337924 2.9799 0
M  V30 3244 H 303.52 0.213336 1.54837 0
M  V30 3245 H 304.255 -2.17009 2.40993 0
M  V30 3246 H 304.04 -1.04238 3.77991 0
M  V30 3247 H 305.53 -2.02433 3.65254 0
M  V30 3248 N 305.967 -1.56429 0.191757 0
M  V30 3249 C 307.383 -1.58754 -0.164137 0
M  V30 3250 C 307.583 -1.20782 -1.61288 0
M  V30 3251 O 306.639 -0.928999 -2.34789 0
M  V30 3252 C 307.952 -3.00396 0.135195 0
M  V30 3253 C 309.5 -3.1291 0.0750351 0
M  V30 3254 C 309.975 -4.56679 0.347632 0
M  V30 3255 N 311.466 -4.62252 0.296131 0
M  V30 3256 C 312.201 -5.71379 0.480948 0
M  V30 3257 N 311.697 -6.88986 0.725933 0
M  V30 3258 N 313.49 -5.60563 0.415435 0
M  V30 3259 H 305.641 -1.79393 1.13718 0
M  V30 3260 H 307.904 -0.832414 0.453643 0
M  V30 3261 H 307.61 -3.32726 1.13958 0
M  V30 3262 H 307.484 -3.72963 -0.563773 0
M  V30 3263 H 309.871 -2.80394 -0.919948 0
M  V30 3264 H 309.952 -2.42736 0.807029 0
M  V30 3265 H 309.596 -4.89907 1.33992 0
M  V30 3266 H 309.526 -5.25039 -0.405212 0
M  V30 3267 H 312.017 -3.7773 0.113259 0
M  V30 3268 H 312.33 -7.68046 0.855857 0
M  V30 3269 H 310.675 -6.90801 0.762788 0
M  V30 3270 H 313.866 -4.67561 0.224486 0
M  V30 3271 H 314.039 -6.45551 0.562889 0
M  V30 3272 N 307.445 0.0818655 -1.57387 0
M  V30 3273 C 308.693 0.781368 -1.86384 0
M  V30 3274 C 309.014 1.78618 -0.782342 0
M  V30 3275 O 308.284 1.94976 0.190061 0
M  V30 3276 H 306.864 0.291562 -0.687751 0
M  V30 3277 H 309.526 0.060348 -1.94807 0
M  V30 3278 H 308.622 1.3038 -2.83562 0
M  V30 3279 N 308.923 1.53595 0.353017 0
M  V30 3280 C 309.853 1.83902 1.43883 0
M  V30 3281 C 310.834 0.693421 1.55324 0
M  V30 3282 O 312.019 0.944452 1.69687 0
M  V30 3283 C 309.149 2.04016 2.8106 0
M  V30 3284 C 308.103 3.19814 2.84434 0
M  V30 3285 C 307.429 3.25244 4.24406 0
M  V30 3286 C 308.729 4.58133 2.50822 0
M  V30 3287 H 310.423 2.74835 1.1877 0
M  V30 3288 H 307.969 1.32242 0.569917 0
M  V30 3289 H 309.922 2.238 3.57059 0
M  V30 3290 H 308.646 1.09804 3.07588 0
M  V30 3291 H 307.305 2.9987 2.10887 0
M  V30 3292 H 306.953 2.28646 4.48029 0
M  V30 3293 H 306.653 4.03054 4.27576 0
M  V30 3294 H 308.177 3.47228 5.0226 0
M  V30 3295 H 309.591 4.77995 3.16534 0
M  V30 3296 H 307.988 5.38276 2.6529 0
M  V30 3297 H 309.058 4.62387 1.46034 0
M  V30 3298 N 310.401 -0.613514 1.45168 0
M  V30 3299 C 311.817 -0.933629 1.29443 0
M  V30 3300 C 312.017 -2.00028 0.243101 0
M  V30 3301 O 311.073 -2.49848 -0.364992 0
M  V30 3302 C 312.386 -1.38018 2.67155 0
M  V30 3303 C 313.934 -1.49471 2.75004 0
M  V30 3304 C 314.409 -1.97503 4.13227 0
M  V30 3305 N 315.9 -2.04746 4.15491 0
M  V30 3306 C 316.635 -2.43121 5.19307 0
M  V30 3307 N 316.131 -2.80506 6.33473 0
M  V30 3308 N 317.924 -2.43408 5.06664 0
M  V30 3309 H 310.075 0.0916097 2.12202 0
M  V30 3310 H 312.338 -0.0216655 0.947752 0
M  V30 3311 H 312.044 -0.670625 3.45247 0
M  V30 3312 H 311.918 -2.34784 2.95222 0
M  V30 3313 H 314.305 -2.19519 1.9722 0
M  V30 3314 H 314.386 -0.510342 2.50657 0
M  V30 3315 H 314.03 -1.28045 4.91495 0
M  V30 3316 H 313.96 -2.96843 4.34962 0
M  V30 3317 H 316.451 -1.78468 3.33103 0
M  V30 3318 H 316.764 -3.08652 7.08487 0
M  V30 3319 H 315.109 -2.78216 6.36884 0
M  V30 3320 H 318.3 -2.13604 4.16523 0
M  V30 3321 H 318.473 -2.72989 5.87691 0
M  V30 3322 N 311.879 -1.3236 -0.855495 0
M  V30 3323 C 312.809 -1.23833 -1.97958 0
M  V30 3324 C 313.79 -0.122361 -1.69659 0
M  V30 3325 O 314.975 -0.30939 -1.9172 0
M  V30 3326 C 312.105 -0.959772 -3.33775 0
M  V30 3327 C 311.059 -2.03689 -3.76424 0
M  V30 3328 C 310.385 -1.61075 -5.09862 0
M  V30 3329 C 311.685 -3.4518 -3.9198 0
M  V30 3330 H 313.379 -2.1788 -2.0535 0
M  V30 3331 H 310.925 -1.04891 -0.986605 0
M  V30 3332 H 312.878 -0.886678 -4.11966 0
M  V30 3333 H 311.602 0.0163404 -3.26596 0
M  V30 3334 H 310.261 -2.10012 -3.00484 0
M  V30 3335 H 309.909 -0.622107 -4.99138 0
M  V30 3336 H 309.609 -2.33143 -5.39368 0
M  V30 3337 H 311.133 -1.55201 -5.90546 0
M  V30 3338 H 312.547 -3.4145 -4.60526 0
M  V30 3339 H 310.944 -4.1559 -4.32903 0
M  V30 3340 H 312.014 -3.84903 -2.94919 0
M  V30 3341 N 313.357 1.07166 -1.15556 0
M  V30 3342 C 314.267 2.17947 -0.868116 0
M  V30 3343 C 315.283 1.73297 0.156297 0
M  V30 3344 O 316.459 2.01392 -0.0182327 0
M  V30 3345 C 313.524 3.44789 -0.36355 0
M  V30 3346 C 312.585 4.03996 -1.45209 0
M  V30 3347 C 311.818 5.24783 -0.971508 0
M  V30 3348 O 312.041 5.70109 0.182194 0
M  V30 3349 O 310.975 5.75715 -1.75603 0
M  V30 3350 H 314.801 2.4503 -1.79427 0
M  V30 3351 H 312.386 1.16539 -0.934824 0
M  V30 3352 H 314.268 4.21307 -0.0887113 0
M  V30 3353 H 312.943 3.19253 0.534708 0
M  V30 3354 H 311.85 3.29009 -1.78056 0
M  V30 3355 H 313.183 4.33808 -2.32533 0
M  V30 3356 N 314.835 0.952656 1.25548 0
M  V30 3357 C 315.765 0.489287 2.28316 0
M  V30 3358 C 316.746 -0.463359 1.63667 0
M  V30 3359 O 317.931 -0.36274 1.90782 0
M  V30 3360 C 315.061 -0.235603 3.465 0
M  V30 3361 C 314.015 0.631593 4.23314 0
M  V30 3362 C 313.341 -0.223923 5.34231 0
M  V30 3363 C 314.641 1.90871 4.86174 0
M  V30 3364 H 316.335 1.34822 2.67326 0
M  V30 3365 H 313.881 0.649728 1.28509 0
M  V30 3366 H 315.834 -0.570882 4.17515 0
M  V30 3367 H 314.558 -1.12877 3.06474 0
M  V30 3368 H 313.217 0.949929 3.54079 0
M  V30 3369 H 312.865 -1.11678 4.90446 0
M  V30 3370 H 312.565 0.35299 5.86539 0
M  V30 3371 H 314.089 -0.554214 6.0808 0
M  V30 3372 H 315.503 1.63997 5.49343 0
M  V30 3373 H 313.9 2.43112 5.4865 0
M  V30 3374 H 314.97 2.61304 4.08471 0
M  V30 3375 N 316.313 -1.40141 0.720998 0
M  V30 3376 C 317.541 -2.05096 0.272656 0
M  V30 3377 C 317.956 -1.54334 -1.0875 0
M  V30 3378 O 317.313 -0.702211 -1.6845 0
M  V30 3379 C 317.364 -3.60636 0.249835 0
M  V30 3380 O 317.085 -4.09526 1.55629 0
M  V30 3381 C 318.586 -4.42772 -0.216396 0
M  V30 3382 H 315.806 -0.659897 0.121558 0
M  V30 3383 H 318.35 -1.79449 0.980723 0
M  V30 3384 H 316.505 -3.85232 -0.409237 0
M  V30 3385 H 316.919 -5.03758 1.4604 0
M  V30 3386 H 318.393 -5.51702 -0.181212 0
M  V30 3387 H 318.87 -4.20756 -1.25941 0
M  V30 3388 H 319.476 -4.23294 0.412596 0
M  V30 3389 N 317.792 -0.46758 -1.50504 0
M  V30 3390 C 319.02 0.0864133 -2.06719 0
M  V30 3391 C 319.435 1.33819 -1.33184 0
M  V30 3392 O 318.792 1.78061 -0.400083 0
M  V30 3393 C 318.843 0.378079 -3.59517 0
M  V30 3394 O 318.564 -0.824044 -4.3028 0
M  V30 3395 C 320.065 0.979426 -4.32345 0
M  V30 3396 H 317.285 -0.00551697 -0.670977 0
M  V30 3397 H 319.829 -0.655354 -1.93715 0
M  V30 3398 H 317.984 1.06977 -3.72337 0
M  V30 3399 H 318.398 -0.566518 -5.21432 0
M  V30 3400 H 319.872 1.1333 -5.40241 0
M  V30 3401 H 320.349 1.9686 -3.9261 0
M  V30 3402 H 320.955 0.326216 -4.24047 0
M  V30 3403 N 319.27 1.56325 -0.20005 0
M  V30 3404 C 320.5 2.01811 0.442232 0
M  V30 3405 C 320.908 1.07932 1.55394 0
M  V30 3406 O 320.251 0.0772685 1.83537 0
M  V30 3407 C 320.313 3.43685 1.05457 0
M  V30 3408 C 319.977 4.56928 0.0809833 0
M  V30 3409 C 320.974 5.15009 -0.711471 0
M  V30 3410 C 318.659 5.0229 -0.0315364 0
M  V30 3411 C 320.653 6.16904 -1.60336 0
M  V30 3412 C 318.34 6.04028 -0.926981 0
M  V30 3413 C 319.338 6.6121 -1.71146 0
M  V30 3414 O 319.026 7.60971 -2.59189 0
M  V30 3415 H 318.758 0.666173 0.114848 0
M  V30 3416 H 321.312 2.03085 -0.307511 0
M  V30 3417 H 319.542 3.39413 1.85299 0
M  V30 3418 H 321.231 3.72948 1.60201 0
M  V30 3419 H 321.997 4.80827 -0.634873 0
M  V30 3420 H 317.876 4.57476 0.568902 0
M  V30 3421 H 321.42 6.61464 -2.21611 0
M  V30 3422 H 317.317 6.37634 -1.00468 0
M  V30 3423 H 318.085 7.7841 -2.53023 0
M  V30 3424 N 320.748 -0.0735177 1.57428 0
M  V30 3425 C 321.678 -1.0879 2.06608 0
M  V30 3426 C 322.659 -1.40473 0.959237 0
M  V30 3427 O 323.844 -1.5013 1.23185 0
M  V30 3428 C 320.974 -2.40183 2.50857 0
M  V30 3429 C 319.928 -2.22858 3.65402 0
M  V30 3430 C 319.254 -3.59619 3.957 0
M  V30 3431 C 320.554 -1.65123 4.95511 0
M  V30 3432 H 322.248 -0.678673 2.91607 0
M  V30 3433 H 319.794 -0.325013 1.40284 0
M  V30 3434 H 321.747 -3.11437 2.83874 0
M  V30 3435 H 320.471 -2.83083 1.62885 0
M  V30 3436 H 319.13 -1.54045 3.32664 0
M  V30 3437 H 318.778 -4.00086 3.04861 0
M  V30 3438 H 318.478 -3.48866 4.72828 0
M  V30 3439 H 320.002 -4.32306 4.31212 0
M  V30 3440 H 321.416 -2.26241 5.26771 0
M  V30 3441 H 319.813 -1.65071 5.7695 0
M  V30 3442 H 320.883 -0.612559 4.81015 0
M  V30 3443 N 322.226 -1.5378 -0.344866 0
M  V30 3444 C 323.473 -1.70963 -1.08526 0
M  V30 3445 C 323.801 -0.472126 -1.88683 0
M  V30 3446 O 323.056 0.546116 -1.87926 0
M  V30 3447 C 323.355 -2.92407 -2.05506 0
M  V30 3448 C 323.021 -4.28066 -1.41671 0
M  V30 3449 C 321.683 -4.64951 -1.2399 0
M  V30 3450 C 324.035 -5.12344 -0.956726 0
M  V30 3451 C 321.363 -5.83733 -0.589277 0
M  V30 3452 C 323.715 -6.3179 -0.320015 0
M  V30 3453 C 322.379 -6.67372 -0.130881 0
M  V30 3454 H 321.649 -0.625598 -0.397124 0
M  V30 3455 H 324.296 -1.87995 -0.36469 0
M  V30 3456 H 322.601 -2.69973 -2.8394 0
M  V30 3457 H 324.298 -3.02895 -2.62784 0
M  V30 3458 H 320.888 -3.99034 -1.56429 0
M  V30 3459 H 325.072 -4.8438 -1.08118 0
M  V30 3460 H 320.328 -6.09877 -0.431344 0
M  V30 3461 H 324.502 -6.96386 0.0445072 0
M  V30 3462 H 322.129 -7.59273 0.375318 0
M  V30 3463 N 323.704 0.605807 -1.45491 0
M  V30 3464 C 324.952 1.36207 -1.49305 0
M  V30 3465 C 325.273 1.94519 -0.136863 0
M  V30 3466 O 324.543 1.77261 0.833983 0
M  V30 3467 H 323.123 0.50565 -0.549843 0
M  V30 3468 H 325.785 0.711239 -1.81459 0
M  V30 3469 H 324.881 2.18058 -2.23287 0
M  V30 3470 N 325.182 1.32811 0.848464 0
M  V30 3471 C 326.114 1.18095 1.96433 0
M  V30 3472 C 327.127 0.114354 1.62398 0
M  V30 3473 O 328.316 0.363892 1.74751 0
M  V30 3474 C 325.416 0.786798 3.2964 0
M  V30 3475 C 324.589 1.943 3.91875 0
M  V30 3476 C 323.648 1.53138 5.03423 0
M  V30 3477 O 322.674 2.24432 5.23086 0
M  V30 3478 N 323.876 0.430915 5.78898 0
M  V30 3479 H 326.641 2.14218 2.09597 0
M  V30 3480 H 324.202 1.2543 1.02367 0
M  V30 3481 H 326.194 0.493715 4.01677 0
M  V30 3482 H 324.764 -0.0834541 3.12489 0
M  V30 3483 H 323.984 2.40224 3.12547 0
M  V30 3484 H 325.272 2.71689 4.30189 0
M  V30 3485 H 324.67 -0.162333 5.65467 0
M  V30 3486 H 323.227 0.197466 6.51501 0
M  V30 3487 N 326.66 -1.06551 1.16123 0
M  V30 3488 C 327.937 -1.76097 0.85142 0
M  V30 3489 C 328.317 -2.00802 -0.6513 0
M  V30 3490 O 327.665 -1.63302 -1.59827 0
M  V30 3491 C 327.875 -3.06384 1.67122 0
M  V30 3492 C 329.223 -3.80585 1.88255 0
M  V30 3493 O 330.247 -3.16218 1.63966 0
M  V30 3494 O 329.106 -4.96212 2.2899 0
M  V30 3495 H 326.2 -0.765102 0.313923 0
M  V30 3496 H 328.746 -1.12844 1.26745 0
M  V30 3497 H 327.518 -2.84071 2.69108 0
M  V30 3498 H 327.141 -3.77371 1.25206 0
M  V30 3499 N 328.138 -0.959301 -1.25041 0
M  V30 3500 C 329.549 -0.65667 -1.74771 0
M  V30 3501 C 329.9 0.827852 -1.77879 0
M  V30 3502 O 329.025 1.64783 -1.40269 0
M  V30 3503 C 329.62 -1.1853 -3.1739 0
M  V30 3504 C 328.179 -0.932734 -3.6466 0
M  V30 3505 C 327.326 -1.32558 -2.43564 0
M  V30 3506 H 330.277 -1.13558 -1.10862 0
M  V30 3507 H 330.298 -0.547582 -3.76539 0
M  V30 3508 H 329.81 -2.26576 -3.15095 0
M  V30 3509 H 327.911 0.13257 -3.72364 0
M  V30 3510 H 328.024 -1.57248 -4.52559 0
M  V30 3511 H 326.388 -0.743956 -2.43593 0
M  V30 3512 H 327.171 -2.41537 -2.43957 0
M  V30 3513 O 329.655 1.36296 -0.866345 0
M  V30 3514 H 330.346 1.88046 -0.464585 0
M  V30 END ATOM
M  V30 BEGIN BOND
M  V30 END BOND
M  V30 END CTAB
M  END
$$$$
