drugbank_target|P35963 Gag-Pol polyprotein (DB01721)
 OpenBabel12092119513D

  0  0  0     0  0            999 V3000
M  V30 BEGIN CTAB
M  V30 COUNTS 22907 23159 0 0 0
M  V30 BEGIN ATOM
M  V30 1 H -0.908 1.98254 -0.117106 0
M  V30 2 N 0 1.576 0 0
M  V30 3 C 0.933 2.03868 1.02534 0
M  V30 4 C 1.911 0.928543 1.3348 0
M  V30 5 O 3.095 1.19667 1.45644 0
M  V30 6 C 0.222 2.43627 2.35294 0
M  V30 7 C -0.732 3.65373 2.2001 0
M  V30 8 S 0.101 5.13292 1.52614 0
M  V30 9 C 1.257 5.56322 2.86805 0
M  V30 10 H 1.49 2.90518 0.631377 0
M  V30 11 H -0.977 1.52953 0.210867 0
M  V30 12 H 0.981 2.67203 3.11629 0
M  V30 13 H -0.358 1.57376 2.7183 0
M  V30 14 H -1.165 3.90944 3.18086 0
M  V30 15 H -1.563 3.418 1.51819 0
M  V30 16 H 0.729 5.58782 3.83104 0
M  V30 17 H 1.672 6.56266 2.65933 0
M  V30 18 H 2.08 4.83886 2.90714 0
M  V30 19 N 1.4781 -0.272755 1.55222 0
M  V30 20 C 2.7261 -1.00234 1.75492 0
M  V30 21 C 3.0471 -1.8681 0.5592 0
M  V30 22 O 2.3171 -1.91215 -0.425882 0
M  V30 23 H 0.8971 -0.373076 0.647166 0
M  V30 24 H 3.5591 -0.296926 1.92625 0
M  V30 25 H 2.6551 -1.63913 2.65592 0
M  V30 26 N 2.9562 -1.48159 -0.537278 0
M  V30 27 C 3.9192 -1.61665 -1.62472 0
M  V30 28 C 4.9192 -0.490395 -1.5314 0
M  V30 29 O 6.1092 -0.755998 -1.5694 0
M  V30 30 C 3.2412 -1.57997 -3.02076 0
M  V30 31 H 4.4342 -2.58621 -1.51839 0
M  V30 32 H 1.9872 -1.36647 -0.758771 0
M  V30 33 H 2.7222 -0.624913 -3.18222 0
M  V30 34 H 2.5072 -2.39755 -3.10258 0
M  V30 35 H 3.9972 -1.70627 -3.81151 0
M  V30 36 N 4.4343 0.785586 -1.36625 0
M  V30 37 C 5.8503 1.08419 -1.17122 0
M  V30 38 C 6.0503 2.015 0.00208491 0
M  V30 39 O 5.1063 2.43551 0.666278 0
M  V30 40 C 6.4193 1.69498 -2.48377 0
M  V30 41 C 7.9673 1.81821 -2.54775 0
M  V30 42 C 8.4423 2.46315 -3.86126 0
M  V30 43 N 9.9333 2.53779 -3.87492 0
M  V30 44 C 10.6683 3.045 -4.85868 0
M  V30 45 N 10.1643 3.55499 -5.94637 0
M  V30 46 N 11.9573 3.03247 -4.73284 0
M  V30 47 H 4.1083 0.167264 -2.1174 0
M  V30 48 H 6.3713 0.13682 -0.938075 0
M  V30 49 H 6.0773 1.08571 -3.34522 0
M  V30 50 H 5.9513 2.6896 -2.64462 0
M  V30 51 H 8.3383 2.41884 -1.69045 0
M  V30 52 H 8.4193 0.811532 -2.42586 0
M  V30 53 H 8.0633 1.86895 -4.72263 0
M  V30 54 H 7.9933 3.47561 -3.95612 0
M  V30 55 H 10.4843 2.17672 -3.08913 0
M  V30 56 H 10.7973 3.92562 -6.65669 0
M  V30 57 H 9.1423 3.5364 -5.98301 0
M  V30 58 H 12.3333 2.62696 -3.87438 0
M  V30 59 H 12.5063 3.42467 -5.50109 0
M  V30 60 N 5.9124 1.20967 1.01018 0
M  V30 61 C 6.8754 0.965918 2.07853 0
M  V30 62 C 7.8754 -0.0610545 1.60684 0
M  V30 63 O 9.0654 0.175681 1.73312 0
M  V30 64 C 6.1974 0.455513 3.37843 0
M  V30 65 H 7.3904 1.91365 2.3091 0
M  V30 66 H 4.9434 1.02594 1.17916 0
M  V30 67 H 5.6784 -0.497381 3.20463 0
M  V30 68 H 5.4634 1.19622 3.73407 0
M  V30 69 H 6.9534 0.304667 4.16487 0
M  V30 70 N 7.3905 -1.2043 1.01659 0
M  V30 71 C 8.6155 -1.94318 0.724942 0
M  V30 72 C 9.0405 -1.74266 -0.708034 0
M  V30 73 O 8.3985 -1.03694 -1.48719 0
M  V30 74 C 8.4465 -3.44486 1.06591 0
M  V30 75 O 7.5505 -4.12017 0.177599 0
M  V30 76 H 6.8915 -0.60708 0.26898 0
M  V30 77 H 9.4215 -1.52861 1.35995 0
M  V30 78 H 9.4315 -3.95106 1.01762 0
M  V30 79 H 8.1065 -3.58404 2.10997 0
M  V30 80 H 6.6835 -3.71821 0.283421 0
M  V30 81 N 8.8686 -0.792821 -1.36206 0
M  V30 82 C 10.1146 -0.36733 -1.99446 0
M  V30 83 C 10.4476 1.05917 -1.62774 0
M  V30 84 O 9.7226 1.7324 -0.88421 0
M  V30 85 C 10.0056 -0.535044 -3.56103 0
M  V30 86 C 9.8586 -2.00548 -4.02617 0
M  V30 87 C 11.1776 0.0478191 -4.40074 0
M  V30 88 H 8.2966 -0.134941 -0.724541 0
M  V30 89 H 10.9386 -0.999794 -1.61568 0
M  V30 90 H 9.0886 0.00336329 -3.885 0
M  V30 91 H 10.7606 -2.60521 -3.80692 0
M  V30 92 H 9.0036 -2.50686 -3.54032 0
M  V30 93 H 9.6746 -2.07377 -5.11565 0
M  V30 94 H 12.1506 -0.411822 -4.14057 0
M  V30 95 H 11.0266 -0.0995336 -5.4881 0
M  V30 96 H 11.2876 1.14025 -4.27142 0
M  V30 97 N 10.3467 1.47872 -0.545128 0
M  V30 98 C 11.2767 2.32661 0.197793 0
M  V30 99 C 12.2577 1.43041 0.920504 0
M  V30 100 O 13.4427 1.71912 0.90333 0
M  V30 101 C 10.5727 3.24569 1.23582 0
M  V30 102 C 9.5267 4.23333 0.630323 0
M  V30 103 C 8.8527 5.0448 1.77211 0
M  V30 104 C 10.1527 5.20704 -0.407974 0
M  V30 105 H 11.8467 2.95024 -0.510045 0
M  V30 106 H 9.3927 1.4187 -0.246731 0
M  V30 107 H 11.3457 3.8272 1.76362 0
M  V30 108 H 10.0697 2.60236 1.97344 0
M  V30 109 H 8.7287 3.6639 0.123922 0
M  V30 110 H 8.3767 4.36561 2.49847 0
M  V30 111 H 8.0767 5.71339 1.37281 0
M  V30 112 H 9.6007 5.65487 2.3034 0
M  V30 113 H 11.0147 5.7329 0.033305 0
M  V30 114 H 9.4117 5.95699 -0.725486 0
M  V30 115 H 10.4817 4.66917 -1.30828 0
M  V30 116 N 11.8248 0.280983 1.55075 0
M  V30 117 C 13.0498 -0.340154 2.04592 0
M  V30 118 C 13.4748 -1.48246 1.15779 0
M  V30 119 O 12.8328 -1.80614 0.15761 0
M  V30 120 C 12.8808 -0.793104 3.5177 0
M  V30 121 O 11.9848 -1.89981 3.66034 0
M  V30 122 H 11.3258 -0.0694289 0.66036 0
M  V30 123 H 13.8558 0.416993 2.00306 0
M  V30 124 H 13.8658 -1.08729 3.93245 0
M  V30 125 H 12.5408 0.0426163 4.15878 0
M  V30 126 H 11.1178 -1.60771 3.36463 0
M  V30 127 N 13.3029 -1.57598 0.00835791 0
M  V30 128 C 14.2659 -2.07884 -0.965242 0
M  V30 129 C 15.2659 -0.989825 -1.26725 0
M  V30 130 O 16.4559 -1.25218 -1.21104 0
M  V30 131 C 13.5879 -2.52731 -2.28779 0
M  V30 132 H 14.7809 -2.95178 -0.530112 0
M  V30 133 H 12.3339 -1.54458 -0.239283 0
M  V30 134 H 13.0689 -1.68705 -2.76964 0
M  V30 135 H 12.8539 -3.32272 -2.08177 0
M  V30 136 H 14.3439 -2.91933 -2.98605 0
M  V30 137 N 14.781 0.264519 -1.55364 0
M  V30 138 C 16.029 0.993021 -1.76021 0
M  V30 139 C 16.35 1.86511 -0.569099 0
M  V30 140 O 15.62 1.91438 0.415735 0
M  V30 141 H 14.2 0.369639 -0.649135 0
M  V30 142 H 16.862 0.286707 -1.9278 0
M  V30 143 H 15.958 1.62502 -2.66457 0
M  V30 144 N 16.2591 1.48442 0.529413 0
M  V30 145 C 17.1691 1.6569 1.66084 0
M  V30 146 C 18.1851 0.539432 1.65427 0
M  V30 147 O 19.3611 0.810572 1.84368 0
M  V30 148 C 16.4261 1.69315 3.02545 0
M  V30 149 C 15.4871 2.92694 3.14052 0
M  V30 150 C 14.7201 2.96137 4.44003 0
M  V30 151 O 14.9431 2.07973 5.31134 0
M  V30 152 O 13.8771 3.88312 4.59888 0
M  V30 153 H 17.7031 2.61483 1.54469 0
M  V30 154 H 15.2881 1.3185 0.702567 0
M  V30 155 H 17.1701 1.74217 3.83701 0
M  V30 156 H 15.8451 0.766966 3.14483 0
M  V30 157 H 14.7521 2.93324 2.32189 0
M  V30 158 H 16.0851 3.84699 3.0703 0
M  V30 159 N 17.7372 -0.778329 1.37039 0
M  V30 160 C 18.6672 -1.90546 1.34962 0
M  V30 161 C 19.6482 -1.68681 0.219274 0
M  V30 162 O 20.8332 -1.89634 0.418624 0
M  V30 163 C 17.9632 -3.27734 1.14925 0
M  V30 164 C 16.9172 -3.64147 2.24902 0
M  V30 165 C 16.2432 -4.99806 1.89996 0
M  V30 166 C 17.5432 -3.71579 3.67051 0
M  V30 167 H 19.2372 -1.92541 2.29277 0
M  V30 168 H 16.7832 -0.924948 1.10366 0
M  V30 169 H 18.7362 -4.06215 1.12104 0
M  V30 170 H 17.4602 -3.26154 0.170631 0
M  V30 171 H 16.1192 -2.8797 2.26868 0
M  V30 172 H 15.7672 -4.94759 0.906796 0
M  V30 173 H 15.4672 -5.25139 2.63634 0
M  V30 174 H 16.9912 -5.80694 1.88749 0
M  V30 175 H 18.4052 -4.40227 3.67251 0
M  V30 176 H 16.8022 -4.08405 4.39688 0
M  V30 177 H 17.8722 -2.72404 4.01154 0
M  V30 178 N 19.2153 -1.21501 -1.00376 0
M  V30 179 C 20.4923 -0.941745 -1.71437 0
M  V30 180 C 20.8723 0.546114 -2.03914 0
M  V30 181 O 20.2203 1.51128 -1.71384 0
M  V30 182 C 20.4303 -1.82812 -2.97289 0
M  V30 183 C 21.7783 -2.07771 -3.70292 0
M  V30 184 O 22.8023 -1.80171 -3.07273 0
M  V30 185 O 21.6613 -2.54456 -4.83647 0
M  V30 186 H 18.7553 -0.353243 -0.747762 0
M  V30 187 H 21.3013 -1.32436 -1.06108 0
M  V30 188 H 20.0733 -2.83501 -2.69709 0
M  V30 189 H 19.6963 -1.4464 -3.70358 0
M  V30 190 N 20.6934 1.19889 -1.02296 0
M  V30 191 C 21.6404 2.22901 -0.598651 0
M  V30 192 C 22.6104 1.61588 0.384521 0
M  V30 193 O 23.7954 1.88697 0.282522 0
M  V30 194 C 20.9354 3.45063 0.0504476 0
M  V30 195 C 20.0484 4.20783 -0.978053 0
M  V30 196 C 19.1834 5.30356 -0.299338 0
M  V30 197 C 18.2224 5.97826 -1.31416 0
M  V30 198 N 17.3594 6.98975 -0.661667 0
M  V30 199 H 22.1994 2.58554 -1.48169 0
M  V30 200 H 19.7364 1.27039 -0.741584 0
M  V30 201 H 21.6944 4.14831 0.443971 0
M  V30 202 H 20.3244 3.10084 0.897097 0
M  V30 203 H 19.3764 3.50018 -1.48969 0
M  V30 204 H 20.6884 4.67109 -1.74958 0
M  V30 205 H 19.8424 6.06516 0.149347 0
M  V30 206 H 18.5814 4.85084 0.504445 0
M  V30 207 H 17.5864 5.20422 -1.77317 0
M  V30 208 H 18.8114 6.45183 -2.11933 0
M  V30 209 H 16.7574 6.55886 0.122132 0
M  V30 210 H 16.6744 7.43461 -1.37117 0
M  V30 211 H 17.9424 7.7914 -0.236785 0
M  V30 212 N 22.1715 0.800033 1.35784 0
M  V30 213 C 23.4175 0.38701 1.99684 0
M  V30 214 C 23.7725 -1.03268 1.62338 0
M  V30 215 O 23.0655 -1.70543 0.87325 0
M  V30 216 C 23.2595 0.500276 3.53881 0
M  V30 217 C 23.0885 1.92942 4.06206 0
M  V30 218 C 21.8585 2.55637 4.35865 0
M  V30 219 C 24.0565 2.89307 4.25213 0
M  V30 220 N 22.0385 3.9003 4.74078 0
M  V30 221 C 23.4095 4.08556 4.66349 0
M  V30 222 C 25.4645 2.86225 4.07406 0
M  V30 223 C 24.1675 5.25146 4.91543 0
M  V30 224 C 26.1935 4.02011 4.33752 0
M  V30 225 C 25.5555 5.20007 4.75155 0
M  V30 226 H 21.6545 0.189252 0.758754 0
M  V30 227 H 24.2385 1.03988 1.64604 0
M  V30 228 H 22.4095 -0.122568 3.88207 0
M  V30 229 H 24.1415 0.0624733 4.04652 0
M  V30 230 H 20.8965 2.07039 4.25948 0
M  V30 231 H 21.3205 4.59205 4.97454 0
M  V30 232 H 25.9625 1.96154 3.74544 0
M  V30 233 H 23.6805 6.15794 5.23281 0
M  V30 234 H 27.2665 4.00999 4.21534 0
M  V30 235 H 26.1465 6.08113 4.95145 0
M  V30 236 N 23.6496 -1.47581 0.552962 0
M  V30 237 C 24.5596 -2.33743 -0.200353 0
M  V30 238 C 25.5756 -1.47928 -0.916151 0
M  V30 239 O 26.7516 -1.80865 -0.885993 0
M  V30 240 C 23.8166 -3.24536 -1.21973 0
M  V30 241 C 22.8776 -4.26238 -0.511819 0
M  V30 242 C 22.1106 -5.12693 -1.48263 0
M  V30 243 O 22.3336 -5.01525 -2.71714 0
M  V30 244 O 21.2676 -5.93375 -1.00945 0
M  V30 245 H 25.0936 -2.9945 0.506304 0
M  V30 246 H 22.6786 -1.46071 0.313622 0
M  V30 247 H 24.5606 -3.80631 -1.80827 0
M  V30 248 H 23.2356 -2.61462 -1.90839 0
M  V30 249 H 22.1426 -3.73914 0.117799 0
M  V30 250 H 23.4756 -4.92014 0.135308 0
M  V30 251 N 25.1277 -0.289203 -1.54924 0
M  V30 252 C 26.0747 0.592115 -2.23075 0
M  V30 253 C 27.0447 1.13881 -1.20915 0
M  V30 254 O 28.2297 1.18551 -1.495 0
M  V30 255 C 25.3697 1.76376 -2.96623 0
M  V30 256 C 24.4827 1.24959 -4.13533 0
M  V30 257 C 23.6177 2.38416 -4.74691 0
M  V30 258 C 22.6567 1.84072 -5.83767 0
M  V30 259 N 21.7937 2.91057 -6.38929 0
M  V30 260 H 26.6337 0.00432038 -2.98 0
M  V30 261 H 24.1707 -0.00963529 -1.47097 0
M  V30 262 H 26.1287 2.45268 -3.3749 0
M  V30 263 H 24.7587 2.32337 -2.24097 0
M  V30 264 H 23.8107 0.453307 -3.77689 0
M  V30 265 H 25.1227 0.811662 -4.92152 0
M  V30 266 H 24.2767 3.15276 -5.18349 0
M  V30 267 H 23.0157 2.8553 -3.95378 0
M  V30 268 H 22.0207 1.05697 -5.39545 0
M  V30 269 H 23.2457 1.37877 -6.64956 0
M  V30 270 H 21.1917 3.37526 -5.62505 0
M  V30 271 H 21.1087 2.51724 -7.12861 0
M  V30 272 H 22.3767 3.6785 -6.87246 0
M  V30 273 N 26.6058 1.57591 -0.0167156 0
M  V30 274 C 27.8548 1.90461 0.663877 0
M  V30 275 C 28.1678 0.893515 1.73999 0
M  V30 276 O 29.3738 1.11302 2.47637 0
M  V30 277 C 27.8298 3.38155 1.23204 0
M  V30 278 C 27.4378 4.47597 0.189866 0
M  V30 279 C 29.1818 3.80111 1.88986 0
M  V30 280 C 27.0888 5.86379 0.768964 0
M  V30 281 H 26.0188 0.710738 0.251729 0
M  V30 282 H 28.6698 1.83326 -0.0799926 0
M  V30 283 H 27.0518 3.40182 2.02712 0
M  V30 284 H 28.2258 4.57112 -0.581846 0
M  V30 285 H 26.5408 4.14766 -0.368475 0
M  V30 286 H 29.1378 4.81145 2.33247 0
M  V30 287 H 29.4808 3.14511 2.72743 0
M  V30 288 H 30.0138 3.80454 1.16187 0
M  V30 289 H 26.7528 6.55493 -0.0301957 0
M  V30 290 H 26.2728 5.80496 1.50945 0
M  V30 291 H 27.9518 6.34563 1.26251 0
M  V30 292 N 28.0839 -0.256276 1.55502 0
M  V30 293 C 29.4999 -0.604325 1.47716 0
M  V30 294 C 29.6999 -1.88763 0.705039 0
M  V30 295 O 28.7559 -2.51445 0.230613 0
M  V30 296 C 30.0689 -0.715756 2.92057 0
M  V30 297 C 31.6169 -0.808706 3.02372 0
M  V30 298 C 32.0919 -0.951777 4.48001 0
M  V30 299 N 33.5829 -1.01688 4.519 0
M  V30 300 C 34.3179 -1.14668 5.61817 0
M  V30 301 N 33.8139 -1.24261 6.81565 0
M  V30 302 N 35.6069 -1.1791 5.49594 0
M  V30 303 H 27.7579 0.586291 2.04148 0
M  V30 304 H 30.0209 0.201015 0.926443 0
M  V30 305 H 29.7269 0.157027 3.51349 0
M  V30 306 H 29.6009 -1.59071 3.42018 0
M  V30 307 H 31.9879 -1.67195 2.43166 0
M  V30 308 H 32.0689 0.0912063 2.55637 0
M  V30 309 H 31.7129 -0.0931291 5.07815 0
M  V30 310 H 31.6429 -1.86659 4.92408 0
M  V30 311 H 34.1339 -0.954468 3.65648 0
M  V30 312 H 34.4469 -1.34046 7.61086 0
M  V30 313 H 32.7919 -1.21236 6.84344 0
M  V30 314 H 35.9829 -1.10057 4.54978 0
M  V30 315 H 36.1559 -1.27681 6.35296 0
M  V30 316 N 29.562 -1.4872 -0.521534 0
M  V30 317 C 30.492 -1.66771 -1.63431 0
M  V30 318 C 31.473 -0.516499 -1.62069 0
M  V30 319 O 32.658 -0.750013 -1.79132 0
M  V30 320 C 29.788 -1.71515 -3.01993 0
M  V30 321 C 28.742 -2.86222 -3.18216 0
M  V30 322 C 28.068 -2.76061 -4.57924 0
M  V30 323 C 29.368 -4.27419 -3.00184 0
M  V30 324 H 31.062 -2.59932 -1.48579 0
M  V30 325 H 28.608 -1.25089 -0.713358 0
M  V30 326 H 30.561 -1.82731 -3.7972 0
M  V30 327 H 29.285 -0.749393 -3.17886 0
M  V30 328 H 27.944 -2.74575 -2.42908 0
M  V30 329 H 27.592 -1.77437 -4.70665 0
M  V30 330 H 27.292 -3.53037 -4.69722 0
M  V30 331 H 28.816 -2.89256 -5.37739 0
M  V30 332 H 30.23 -4.39855 -3.67697 0
M  V30 333 H 28.627 -5.05458 -3.2347 0
M  V30 334 H 29.697 -4.43293 -1.96518 0
M  V30 335 N 31.0401 0.771051 -1.3745 0
M  V30 336 C 32.4561 1.07171 -1.18265 0
M  V30 337 C 32.6561 2.01491 -0.019287 0
M  V30 338 O 31.7121 2.44244 0.640408 0
M  V30 339 C 33.0251 1.66854 -2.50161 0
M  V30 340 C 34.5731 1.79109 -2.56689 0
M  V30 341 C 35.0481 2.42205 -3.88717 0
M  V30 342 N 36.5391 2.49655 -3.90162 0
M  V30 343 C 37.2741 2.9933 -4.8907 0
M  V30 344 N 36.7701 3.49172 -5.98374 0
M  V30 345 N 38.5631 2.9821 -4.76474 0
M  V30 346 H 30.7141 0.144796 -2.11906 0
M  V30 347 H 32.9771 0.126863 -0.939473 0
M  V30 348 H 32.6831 1.05017 -3.35655 0
M  V30 349 H 32.5571 2.6614 -2.673 0
M  V30 350 H 34.9441 2.40077 -1.71601 0
M  V30 351 H 35.0251 0.785757 -2.43433 0
M  V30 352 H 34.6691 1.81875 -4.74219 0
M  V30 353 H 34.5991 3.43345 -3.99276 0
M  V30 354 H 37.0901 2.14383 -3.11205 0
M  V30 355 H 37.4031 3.8548 -6.69795 0
M  V30 356 H 35.7481 3.47275 -6.02018 0
M  V30 357 H 38.9391 2.58572 -3.90203 0
M  V30 358 H 39.1121 3.36613 -5.53711 0
M  V30 359 N 32.5182 1.22032 0.997298 0
M  V30 360 C 33.9292 1.0397 1.55071 0
M  V30 361 C 34.2802 -0.398192 1.92117 0
M  V30 362 O 33.4052 -1.28254 1.74298 0
M  V30 363 C 34.0002 1.88109 2.81781 0
M  V30 364 C 32.5592 1.74357 3.33581 0
M  V30 365 C 31.7062 1.84846 2.06706 0
M  V30 366 H 34.6572 1.35941 0.818883 0
M  V30 367 H 34.6782 1.39589 3.53971 0
M  V30 368 H 34.1902 2.92754 2.54787 0
M  V30 369 H 32.2912 0.72427 3.65493 0
M  V30 370 H 32.4042 2.56772 4.04481 0
M  V30 371 H 30.7682 1.28238 2.20062 0
M  V30 372 H 31.5512 2.91014 1.82114 0
M  V30 373 N 33.9963 -1.19345 1.0293 0
M  V30 374 C 35.2443 -1.88665 0.724574 0
M  V30 375 C 35.5653 -1.80036 -0.749144 0
M  V30 376 O 34.8353 -1.2111 -1.53978 0
M  V30 377 H 33.4153 -0.698406 0.265025 0
M  V30 378 H 36.0773 -1.44885 1.30362 0
M  V30 379 H 35.1733 -2.94987 1.01926 0
M  V30 380 N 35.4744 -0.807222 -1.35358 0
M  V30 381 C 36.7224 -0.387122 -1.98358 0
M  V30 382 C 37.0434 1.04942 -1.64354 0
M  V30 383 O 36.3134 1.72615 -0.926339 0
M  V30 384 H 34.8934 -0.140154 -0.733734 0
M  V30 385 H 37.5554 -1.0332 -1.6526 0
M  V30 386 H 36.6514 -0.493352 -3.08176 0
M  V30 387 N 36.9525 1.47285 -0.560781 0
M  V30 388 C 37.8995 2.30058 0.18491 0
M  V30 389 C 38.8695 1.39281 0.904986 0
M  V30 390 O 40.0545 1.68241 0.899979 0
M  V30 391 C 37.1945 3.23317 1.20666 0
M  V30 392 C 36.3075 4.29186 0.492285 0
M  V30 393 C 35.4425 5.09592 1.49964 0
M  V30 394 C 34.4815 6.07232 0.770439 0
M  V30 395 N 33.6185 6.80584 1.72479 0
M  V30 396 H 38.4585 2.93302 -0.527048 0
M  V30 397 H 35.9955 1.44568 -0.271738 0
M  V30 398 H 37.9535 3.75811 1.81168 0
M  V30 399 H 36.5835 2.61929 1.88661 0
M  V30 400 H 35.6355 3.7972 -0.227333 0
M  V30 401 H 36.9475 4.98738 -0.0787929 0
M  V30 402 H 36.1015 5.66254 2.17809 0
M  V30 403 H 34.8405 4.3995 2.10464 0
M  V30 404 H 33.8455 5.49745 0.0780846 0
M  V30 405 H 35.0705 6.78884 0.171134 0
M  V30 406 H 33.0165 6.1367 2.3183 0
M  V30 407 H 32.9335 7.46319 1.20596 0
M  V30 408 H 34.2015 7.41818 2.39428 0
M  V30 409 N 38.4306 0.297415 1.54768 0
M  V30 410 C 39.3776 -0.580276 2.23386 0
M  V30 411 C 40.3476 -1.13238 1.21517 0
M  V30 412 O 41.5326 -1.17757 1.50126 0
M  V30 413 C 38.6726 -1.74801 2.97555 0
M  V30 414 C 37.7856 -1.22764 4.1419 0
M  V30 415 C 36.9206 -2.35895 4.75949 0
M  V30 416 C 35.9596 -1.80974 5.84735 0
M  V30 417 N 35.0966 -2.87664 6.40464 0
M  V30 418 H 39.9366 0.0114833 2.97998 0
M  V30 419 H 37.4736 0.0174361 1.4709 0
M  V30 420 H 39.4316 -2.43475 3.38786 0
M  V30 421 H 38.0616 -2.31145 2.25326 0
M  V30 422 H 37.1136 -0.433271 3.77924 0
M  V30 423 H 38.4256 -0.785551 4.92575 0
M  V30 424 H 37.5796 -3.12523 5.20014 0
M  V30 425 H 36.3186 -2.83429 3.96887 0
M  V30 426 H 35.3236 -1.02834 5.40097 0
M  V30 427 H 36.5486 -1.34348 6.65678 0
M  V30 428 H 34.4946 -3.34538 5.64287 0
M  V30 429 H 34.4116 -2.4794 7.14186 0
M  V30 430 H 35.6796 -3.642 6.89187 0
M  V30 431 N 39.9087 -1.5758 0.0250728 0
M  V30 432 C 40.8407 -2.06869 -0.986796 0
M  V30 433 C 41.8537 -0.991332 -1.29137 0
M  V30 434 O 43.0427 -1.26761 -1.25674 0
M  V30 435 C 40.1427 -2.47486 -2.31525 0
M  V30 436 C 39.3157 -3.78253 -2.19643 0
M  V30 437 C 38.3747 -4.05464 -3.35388 0
M  V30 438 O 37.4007 -4.75774 -3.12454 0
M  V30 439 N 38.6027 -3.55321 -4.59051 0
M  V30 440 H 41.3677 -2.94302 -0.566276 0
M  V30 441 H 38.9287 -1.6109 -0.161776 0
M  V30 442 H 40.9207 -2.62785 -3.07776 0
M  V30 443 H 39.4907 -1.65441 -2.65232 0
M  V30 444 H 38.7107 -3.7279 -1.28144 0
M  V30 445 H 39.9987 -4.63936 -2.08903 0
M  V30 446 H 39.3967 -2.98431 -4.80578 0
M  V30 447 H 37.9537 -3.75905 -5.32483 0
M  V30 448 N 41.3868 0.248026 -1.55636 0
M  V30 449 C 42.6168 0.992367 -1.81206 0
M  V30 450 C 43.0248 1.7949 -0.598324 0
M  V30 451 O 42.3678 1.78292 0.442434 0
M  V30 452 C 42.4298 1.97926 -3.00109 0
M  V30 453 C 42.0938 1.36377 -4.36177 0
M  V30 454 C 43.0908 0.76682 -5.14214 0
M  V30 455 C 40.7758 1.38347 -4.82872 0
M  V30 456 C 42.7698 0.197778 -6.37093 0
M  V30 457 C 40.4568 0.810574 -6.057 0
M  V30 458 C 41.4548 0.218754 -6.8265 0
M  V30 459 O 41.1428 -0.345298 -8.03158 0
M  V30 460 H 40.8748 0.297704 -0.606917 0
M  V30 461 H 43.4288 0.276517 -2.0353 0
M  V30 462 H 41.6588 2.73339 -2.73538 0
M  V30 463 H 43.3478 2.58694 -3.12781 0
M  V30 464 H 44.1138 0.744114 -4.79258 0
M  V30 465 H 39.9928 1.8335 -4.2297 0
M  V30 466 H 43.5368 -0.264788 -6.97097 0
M  V30 467 H 39.4338 0.830604 -6.40134 0
M  V30 468 H 40.2018 -0.237055 -8.18157 0
M  V30 469 N 42.8649 1.48995 0.513639 0
M  V30 470 C 44.2809 1.35478 0.843682 0
M  V30 471 C 44.4809 0.378213 1.97919 0
M  V30 472 O 43.5369 -0.194689 2.51748 0
M  V30 473 C 44.8499 2.75901 1.1958 0
M  V30 474 C 46.3979 2.84509 1.30474 0
M  V30 475 C 46.8729 4.25671 1.69021 0
M  V30 476 N 48.3639 4.28422 1.76094 0
M  V30 477 C 49.0989 5.34601 2.07338 0
M  V30 478 N 48.5949 6.5104 2.36894 0
M  V30 479 N 50.3879 5.22007 2.08483 0
M  V30 480 H 42.5389 2.11092 -0.235328 0
M  V30 481 H 44.8019 0.947039 -0.0426669 0
M  V30 482 H 44.5079 3.49001 0.434913 0
M  V30 483 H 44.3819 3.10467 2.1422 0
M  V30 484 H 46.7689 2.11655 2.05637 0
M  V30 485 H 46.8499 2.53542 0.339155 0
M  V30 486 H 46.4939 4.99048 0.944135 0
M  V30 487 H 46.4239 4.54094 2.66658 0
M  V30 488 H 48.9149 3.44441 1.55464 0
M  V30 489 H 49.2279 7.2779 2.59887 0
M  V30 490 H 47.5729 6.54287 2.34378 0
M  V30 491 H 50.7639 4.30051 1.84861 0
M  V30 492 H 50.9369 6.04854 2.325 0
M  V30 493 N 44.343 -0.763751 1.37857 0
M  V30 494 C 45.273 -1.89103 1.36975 0
M  V30 495 C 46.254 -1.68439 0.237152 0
M  V30 496 O 47.439 -1.8918 0.438713 0
M  V30 497 C 44.569 -3.26496 1.18395 0
M  V30 498 C 43.523 -3.61741 2.28751 0
M  V30 499 C 42.849 -4.97762 1.95286 0
M  V30 500 C 44.149 -3.67665 3.70972 0
M  V30 501 H 45.843 -1.90099 2.31307 0
M  V30 502 H 43.389 -0.91319 1.11341 0
M  V30 503 H 45.342 -4.05003 1.16406 0
M  V30 504 H 44.066 -3.25955 0.205215 0
M  V30 505 H 42.725 -2.85547 2.29909 0
M  V30 506 H 42.373 -4.93769 0.959221 0
M  V30 507 H 42.073 -5.22313 2.69189 0
M  V30 508 H 43.597 -5.7866 1.94898 0
M  V30 509 H 45.011 -4.36307 3.719 0
M  V30 510 H 43.408 -4.03718 4.43995 0
M  V30 511 H 44.478 -2.68134 4.0402 0
M  V30 512 N 45.8211 -1.22559 -0.990812 0
M  V30 513 C 46.7681 -0.997519 -2.0813 0
M  V30 514 C 47.7381 0.0814702 -1.659 0
M  V30 515 O 48.9231 -0.0685424 -1.90677 0
M  V30 516 C 46.0631 -0.583615 -3.40129 0
M  V30 517 C 45.1761 -1.7336 -3.9569 0
M  V30 518 C 44.3111 -1.26748 -5.15857 0
M  V30 519 C 43.3501 -2.38888 -5.63559 0
M  V30 520 N 42.4871 -1.93308 -6.74964 0
M  V30 521 H 47.3271 -1.93099 -2.26973 0
M  V30 522 H 44.8641 -0.962114 -1.11273 0
M  V30 523 H 46.8221 -0.324801 -4.15934 0
M  V30 524 H 45.4521 0.312845 -3.2128 0
M  V30 525 H 44.5041 -2.10669 -3.16738 0
M  V30 526 H 45.8161 -2.57704 -4.27071 0
M  V30 527 H 44.9701 -0.966173 -5.98957 0
M  V30 528 H 43.7091 -0.394272 -4.86104 0
M  V30 529 H 42.7141 -2.69805 -4.79046 0
M  V30 530 H 43.9391 -3.26728 -5.95336 0
M  V30 531 H 41.8851 -1.08352 -6.4699 0
M  V30 532 H 41.8021 -2.71217 -7.05675 0
M  V30 533 H 43.0701 -1.66252 -7.61564 0
M  V30 534 N 47.2992 1.18797 -1.03562 0
M  V30 535 C 48.2492 2.20161 -0.592724 0
M  V30 536 C 49.2332 1.56772 0.362133 0
M  V30 537 O 50.4252 1.76062 0.182009 0
M  V30 538 C 47.5542 3.43266 0.0481024 0
M  V30 539 C 46.6402 4.13786 -0.9296 0
M  V30 540 N 47.0312 4.60388 -2.09467 0
M  V30 541 C 45.3292 4.39572 -0.754499 0
M  V30 542 C 46.0302 5.14619 -2.71187 0
M  V30 543 N 45.0062 5.05826 -1.991 0
M  V30 544 H 48.8082 2.53877 -1.48066 0
M  V30 545 H 46.3222 1.34946 -0.903514 0
M  V30 546 H 48.3192 4.15136 0.383058 0
M  V30 547 H 46.9792 3.11048 0.931636 0
M  V30 548 H 47.9902 4.54999 -2.47379 0
M  V30 549 H 44.6672 4.17425 0.0793713 0
M  V30 550 H 46.0572 5.60917 -3.69895 0
M  V30 551 N 48.7773 0.814389 1.34928 0
M  V30 552 C 50.0263 0.394871 1.97797 0
M  V30 553 C 50.3393 -1.04555 1.65311 0
M  V30 554 O 51.5453 -1.56856 2.21604 0
M  V30 555 C 50.0013 0.655103 3.53888 0
M  V30 556 C 49.6093 2.10858 3.95276 0
M  V30 557 C 51.3533 0.301329 4.23429 0
M  V30 558 C 49.2603 2.31415 5.44244 0
M  V30 559 H 48.1903 0.143913 0.740139 0
M  V30 560 H 50.8413 0.999544 1.53888 0
M  V30 561 H 49.2233 -0.0196253 3.95995 0
M  V30 562 H 50.3973 2.82176 3.64298 0
M  V30 563 H 48.7123 2.42297 3.38646 0
M  V30 564 H 51.3093 0.432869 5.32945 0
M  V30 565 H 51.6523 -0.75331 4.09428 0
M  V30 566 H 52.1853 0.930288 3.86769 0
M  V30 567 H 48.9243 3.35353 5.63222 0
M  V30 568 H 48.4443 1.6463 5.76764 0
M  V30 569 H 50.1233 2.13352 6.10811 0
M  V30 570 N 50.2554 -1.46986 0.568584 0
M  V30 571 C 51.5014 -2.02741 0.0488709 0
M  V30 572 C 51.8344 -1.44077 -1.30214 0
M  V30 573 O 51.1094 -0.600552 -1.84996 0
M  V30 574 C 51.3924 -3.60086 -0.032047 0
M  V30 575 C 51.2454 -4.29162 1.34686 0
M  V30 576 C 52.5644 -4.33838 -0.739798 0
M  V30 577 H 49.6834 -0.736749 0.0192338 0
M  V30 578 H 52.3254 -1.75289 0.733065 0
M  V30 579 H 50.4754 -3.83606 -0.61473 0
M  V30 580 H 52.1474 -4.16948 1.97362 0
M  V30 581 H 50.3904 -3.89073 1.91846 0
M  V30 582 H 51.0614 -5.37826 1.24285 0
M  V30 583 H 53.5374 -4.15378 -0.244939 0
M  V30 584 H 52.4134 -5.43537 -0.765406 0
M  V30 585 H 52.6744 -4.03875 -1.79827 0
M  V30 586 N 51.7335 -0.305618 -1.54608 0
M  V30 587 C 52.9795 0.295595 -2.01241 0
M  V30 588 C 53.3345 1.51171 -1.19018 0
M  V30 589 O 52.6275 1.89832 -0.259684 0
M  V30 590 C 52.8215 0.698983 -3.50498 0
M  V30 591 C 52.6505 -0.476491 -4.47168 0
M  V30 592 C 51.4205 -0.969963 -4.95903 0
M  V30 593 C 53.6185 -1.32294 -4.96994 0
M  V30 594 N 51.6005 -2.11172 -5.76437 0
M  V30 595 C 52.9715 -2.31212 -5.75275 0
M  V30 596 C 55.0265 -1.35278 -4.7917 0
M  V30 597 C 53.7295 -3.32896 -6.37631 0
M  V30 598 C 55.7555 -2.35823 -5.42348 0
M  V30 599 C 55.1175 -3.33469 -6.20466 0
M  V30 600 H 51.2165 0.0724992 -0.778632 0
M  V30 601 H 53.8005 -0.436583 -1.89742 0
M  V30 602 H 51.9715 1.40032 -3.62278 0
M  V30 603 H 53.7035 1.28013 -3.8392 0
M  V30 604 H 50.4585 -0.544178 -4.70463 0
M  V30 605 H 50.8825 -2.68714 -6.21387 0
M  V30 606 H 55.5245 -0.61157 -4.18354 0
M  V30 607 H 53.2425 -4.07933 -6.97579 0
M  V30 608 H 56.8285 -2.38911 -5.30484 0
M  V30 609 H 55.7085 -4.09996 -6.68485 0
M  V30 610 N 53.2116 1.57565 -0.0334293 0
M  V30 611 C 54.1746 2.09393 0.932048 0
M  V30 612 C 55.1746 1.00986 1.25134 0
M  V30 613 O 56.3646 1.27129 1.19096 0
M  V30 614 C 53.4966 2.56338 2.2473 0
M  V30 615 H 54.6896 2.95984 0.483085 0
M  V30 616 H 52.2426 1.54819 0.21468 0
M  V30 617 H 52.9776 1.7309 2.74245 0
M  V30 618 H 52.7626 3.35542 2.02865 0
M  V30 619 H 54.2526 2.96646 2.93923 0
M  V30 620 N 54.6897 -0.239769 1.55765 0
M  V30 621 C 55.9147 -0.988373 1.82335 0
M  V30 622 C 56.3397 -1.77886 0.611421 0
M  V30 623 O 55.6977 -1.75889 -0.439639 0
M  V30 624 C 55.7457 -1.89627 3.06715 0
M  V30 625 O 54.8497 -2.98904 2.84131 0
M  V30 626 H 54.1907 -0.280858 0.601677 0
M  V30 627 H 56.7207 -0.258597 2.02959 0
M  V30 628 H 56.7307 -2.30957 3.36338 0
M  V30 629 H 55.4057 -1.31511 3.9456 0
M  V30 630 H 53.9827 -2.61651 2.65694 0
M  V30 631 N 56.1678 -1.49265 -0.50573 0
M  V30 632 C 57.5838 -1.35923 -0.836486 0
M  V30 633 C 57.7838 -0.388704 -1.97715 0
M  V30 634 O 56.8398 0.181336 -2.51848 0
M  V30 635 C 58.1528 -2.76531 -1.18115 0
M  V30 636 C 59.7008 -2.85197 -1.28964 0
M  V30 637 C 60.1758 -4.26561 -1.66761 0
M  V30 638 N 61.6668 -4.2935 -1.73819 0
M  V30 639 C 62.4018 -5.35693 -2.045 0
M  V30 640 N 61.8978 -6.52287 -2.33438 0
M  V30 641 N 63.6908 -5.23105 -2.05711 0
M  V30 642 H 55.8418 -2.10965 0.246519 0
M  V30 643 H 58.1048 -0.9468 0.0476887 0
M  V30 644 H 57.8108 -3.49226 -0.416398 0
M  V30 645 H 57.6848 -3.11599 -2.1257 0
M  V30 646 H 60.0718 -2.12742 -2.04511 0
M  V30 647 H 60.1528 -2.53718 -0.325704 0
M  V30 648 H 59.7968 -4.99541 -0.917656 0
M  V30 649 H 59.7268 -4.55502 -2.64246 0
M  V30 650 H 62.2178 -3.4526 -1.53635 0
M  V30 651 H 62.5308 -7.29158 -2.56024 0
M  V30 652 H 60.8758 -6.55521 -2.30905 0
M  V30 653 H 64.0668 -4.31026 -1.82577 0
M  V30 654 H 64.2398 -6.06078 -2.29289 0
M  V30 655 N 57.6459 0.756429 -1.3826 0
M  V30 656 C 58.5559 1.9009 -1.37488 0
M  V30 657 C 59.5719 1.71855 -0.272366 0
M  V30 658 O 60.7479 1.94827 -0.510318 0
M  V30 659 C 57.8129 3.25421 -1.19592 0
M  V30 660 C 56.8739 3.56202 -2.39622 0
M  V30 661 C 56.1069 4.85075 -2.2257 0
M  V30 662 O 56.3299 5.57246 -1.21793 0
M  V30 663 O 55.2639 5.15269 -3.11098 0
M  V30 664 H 59.0899 1.93695 -2.33914 0
M  V30 665 H 56.6749 0.901313 -1.1915 0
M  V30 666 H 58.5569 4.06337 -1.11661 0
M  V30 667 H 57.2319 3.22634 -0.262486 0
M  V30 668 H 56.1389 2.75458 -2.53128 0
M  V30 669 H 57.4719 3.63747 -3.31586 0
M  V30 670 N 59.124 1.23083 0.984299 0
M  V30 671 C 60.054 1.03292 2.09411 0
M  V30 672 C 61.035 -0.048923 1.7003 0
M  V30 673 O 62.22 0.114967 1.93859 0
M  V30 674 C 59.35 0.619155 3.41736 0
M  V30 675 C 58.304 1.64791 3.95004 0
M  V30 676 C 57.63 1.0897 5.23478 0
M  V30 677 C 58.93 3.03999 4.24714 0
M  V30 678 H 60.624 1.96119 2.26225 0
M  V30 679 H 58.17 0.944344 1.08711 0
M  V30 680 H 60.123 0.467777 4.18796 0
M  V30 681 H 58.847 -0.344786 3.24775 0
M  V30 682 H 57.506 1.78721 3.20085 0
M  V30 683 H 57.154 0.11686 5.02864 0
M  V30 684 H 56.854 1.77704 5.60085 0
M  V30 685 H 58.378 0.950093 6.03163 0
M  V30 686 H 59.792 2.93393 4.92538 0
M  V30 687 H 58.189 3.69936 4.72512 0
M  V30 688 H 59.259 3.53285 3.32142 0
M  V30 689 N 60.6021 -1.18246 1.0419 0
M  V30 690 C 61.5121 -2.25574 0.644476 0
M  V30 691 C 62.5281 -1.70845 -0.329826 0
M  V30 692 O 63.7041 -2.00554 -0.184443 0
M  V30 693 C 60.7691 -3.46697 0.014877 0
M  V30 694 C 59.8301 -4.16554 1.03834 0
M  V30 695 C 59.0631 -5.31894 0.438692 0
M  V30 696 O 59.2861 -5.65385 -0.754752 0
M  V30 697 O 58.2201 -5.90459 1.168 0
M  V30 698 H 62.0461 -2.61836 1.53869 0
M  V30 699 H 59.6311 -1.25352 0.812854 0
M  V30 700 H 61.5131 -4.20062 -0.335538 0
M  V30 701 H 60.1881 -3.12255 -0.853138 0
M  V30 702 H 59.0951 -3.45251 1.44057 0
M  V30 703 H 60.4281 -4.54998 1.87716 0
M  V30 704 N 62.0802 -0.821533 -1.34494 0
M  V30 705 C 63.4962 -0.507117 -1.51329 0
M  V30 706 C 63.6962 0.968964 -1.76673 0
M  V30 707 O 62.7522 1.75348 -1.81685 0
M  V30 708 C 64.0652 -1.36544 -2.67911 0
M  V30 709 C 65.6132 -1.36242 -2.81793 0
M  V30 710 C 66.0882 -2.2052 -4.01416 0
M  V30 711 N 67.5792 -2.18136 -4.08621 0
M  V30 712 C 68.3142 -2.80095 -5.00334 0
M  V30 713 N 67.8102 -3.51039 -5.9728 0
M  V30 714 N 69.6032 -2.69656 -4.93196 0
M  V30 715 H 61.7542 -1.77729 -1.16302 0
M  V30 716 H 64.0172 -0.757291 -0.570276 0
M  V30 717 H 63.7232 -2.41361 -2.55808 0
M  V30 718 H 63.5972 -1.02917 -3.62888 0
M  V30 719 H 65.9842 -0.322041 -2.93338 0
M  V30 720 H 66.0652 -1.73866 -1.87628 0
M  V30 721 H 65.7092 -3.24607 -3.90631 0
M  V30 722 H 65.6392 -1.80247 -4.94791 0
M  V30 723 H 68.1302 -1.6653 -3.39229 0
M  V30 724 H 68.4432 -3.95565 -6.63889 0
M  V30 725 H 66.7882 -3.55145 -5.97409 0
M  V30 726 H 69.9792 -2.13808 -4.16418 0
M  V30 727 H 70.1522 -3.1823 -5.64476 0
M  V30 728 N 63.5583 1.46682 -0.576371 0
M  V30 729 C 64.8053 2.02412 -0.0595339 0
M  V30 730 C 65.1333 1.44859 1.29793 0
M  V30 731 O 64.3883 0.601099 1.8624 0
M  V30 732 C 64.6873 3.57345 0.062886 0
M  V30 733 C 64.3533 4.33908 -1.22616 0
M  V30 734 C 63.0153 4.54544 -1.57933 0
M  V30 735 C 65.3673 4.77919 -2.07948 0
M  V30 736 C 62.6953 5.16444 -2.78393 0
M  V30 737 C 65.0473 5.41149 -3.27629 0
M  V30 738 C 63.7113 5.60014 -3.63236 0
M  V30 739 H 62.9813 0.74068 -0.021785 0
M  V30 740 H 65.6283 1.76128 -0.751735 0
M  V30 741 H 63.9333 3.82729 0.838178 0
M  V30 742 H 65.6303 3.98136 0.478439 0
M  V30 743 H 62.2203 4.18138 -0.941202 0
M  V30 744 H 66.4043 4.61738 -1.81967 0
M  V30 745 H 61.6603 5.29242 -3.06126 0
M  V30 746 H 65.8343 5.74211 -3.94023 0
M  V30 747 H 63.4613 6.07748 -4.56669 0
M  V30 748 N 65.0364 0.313813 1.54444 0
M  V30 749 C 65.9994 -0.54379 2.22656 0
M  V30 750 C 66.9994 -1.05124 1.21678 0
M  V30 751 O 68.1894 -0.945225 1.46325 0
M  V30 752 C 65.3214 -1.75427 2.92298 0
M  V30 753 H 66.5144 0.0523599 2.99854 0
M  V30 754 H 64.0674 0.0647834 1.56166 0
M  V30 755 H 64.8024 -2.38991 2.19211 0
M  V30 756 H 64.5874 -1.39791 3.66334 0
M  V30 757 H 66.0774 -2.36325 3.44297 0
M  V30 758 N 66.5145 -1.57545 0.0417849 0
M  V30 759 C 67.7605 -1.92601 -0.635021 0
M  V30 760 C 68.0935 -0.919627 -1.71045 0
M  V30 761 O 67.3685 0.0557892 -1.9442 0
M  V30 762 C 67.6515 -3.38085 -1.23979 0
M  V30 763 C 67.5045 -4.49467 -0.173057 0
M  V30 764 C 68.8235 -3.83776 -2.15416 0
M  V30 765 H 65.9425 -0.700397 -0.229374 0
M  V30 766 H 68.5845 -1.89728 0.101633 0
M  V30 767 H 66.7345 -3.40664 -1.86762 0
M  V30 768 H 68.4065 -4.59018 0.458312 0
M  V30 769 H 66.6495 -4.30909 0.499996 0
M  V30 770 H 67.3205 -5.48323 -0.636054 0
M  V30 771 H 69.7965 -3.83013 -1.62605 0
M  V30 772 H 68.6725 -4.8624 -2.54679 0
M  V30 773 H 68.9335 -3.19998 -3.05047 0
M  V30 774 N 67.9926 0.231505 -1.5589 0
M  V30 775 C 69.2696 0.981096 -1.69215 0
M  V30 776 C 69.6496 2.02799 -0.586164 0
M  V30 777 O 68.9976 2.24823 0.408253 0
M  V30 778 C 69.2076 1.60054 -3.10135 0
M  V30 779 C 70.5556 2.09658 -3.69227 0
M  V30 780 O 71.5796 1.69967 -3.13033 0
M  V30 781 O 70.4386 2.8258 -4.67772 0
M  V30 782 H 67.5326 0.457653 -0.688827 0
M  V30 783 H 70.0786 0.224073 -1.68214 0
M  V30 784 H 68.8506 0.844105 -3.82087 0
M  V30 785 H 68.4736 2.42336 -3.15212 0
M  V30 786 N 69.4707 1.49531 0.497807 0
M  V30 787 C 70.8817 1.52344 1.07927 0
M  V30 788 C 71.2327 0.311469 1.93712 0
M  V30 789 O 70.3577 -0.578405 2.08527 0
M  V30 790 C 70.9527 2.76062 1.96405 0
M  V30 791 C 69.5117 2.81643 2.49709 0
M  V30 792 C 68.6587 2.46299 1.27404 0
M  V30 793 H 71.6097 1.56182 0.281576 0
M  V30 794 H 71.6307 2.56405 2.81135 0
M  V30 795 H 71.1427 3.64254 1.33943 0
M  V30 796 H 69.2437 1.97739 3.15801 0
M  V30 797 H 69.3567 3.83891 2.86643 0
M  V30 798 H 67.7207 1.98148 1.60029 0
M  V30 799 H 68.5037 3.36769 0.66645 0
M  V30 800 N 70.9488 -0.749086 1.3866 0
M  V30 801 C 72.1968 -1.50535 1.34847 0
M  V30 802 C 72.5178 -1.94909 -0.0595016 0
M  V30 803 O 71.7878 -1.67973 -1.00806 0
M  V30 804 H 70.3678 -0.558395 0.49619 0
M  V30 805 H 73.0298 -0.890165 1.73384 0
M  V30 806 H 72.1258 -2.39413 2.00219 0
M  V30 807 N 72.4269 -1.23603 -0.977757 0
M  V30 808 C 73.3569 -1.04401 -2.0886 0
M  V30 809 C 74.3379 0.0399052 -1.70053 0
M  V30 810 O 75.5229 -0.125246 -1.93796 0
M  V30 811 C 72.6529 -0.637269 -3.41403 0
M  V30 812 C 71.6069 -1.66883 -3.94124 0
M  V30 813 C 70.9329 -1.11745 -5.22893 0
M  V30 814 C 72.2329 -3.06247 -4.23096 0
M  V30 815 H 73.9269 -1.97316 -2.25182 0
M  V30 816 H 71.4729 -0.950096 -1.08209 0
M  V30 817 H 73.4259 -0.48998 -4.18542 0
M  V30 818 H 72.1499 0.327557 -3.24953 0
M  V30 819 H 70.8089 -1.80416 -3.19133 0
M  V30 820 H 70.4569 -0.143527 -5.02795 0
M  V30 821 H 70.1569 -1.80672 -5.59134 0
M  V30 822 H 71.6809 -0.982067 -6.02651 0
M  V30 823 H 73.0949 -2.96001 -4.90975 0
M  V30 824 H 71.4919 -3.72436 -4.70544 0
M  V30 825 H 72.5619 -3.55041 -3.30263 0
M  V30 826 N 73.905 1.17692 -1.04816 0
M  V30 827 C 74.835 2.23777 -0.666791 0
M  V30 828 C 75.816 1.66796 0.33361 0
M  V30 829 O 77.001 1.93039 0.212042 0
M  V30 830 C 74.131 3.47281 -0.0367933 0
M  V30 831 C 73.085 4.17059 -0.961546 0
M  V30 832 C 72.411 5.34342 -0.195626 0
M  V30 833 C 73.711 4.69713 -2.28402 0
M  V30 834 H 75.405 2.55933 -1.55367 0
M  V30 835 H 72.951 1.23019 -0.748484 0
M  V30 836 H 74.904 4.20706 0.241775 0
M  V30 837 H 73.628 3.14381 0.885004 0
M  V30 838 H 72.287 3.45541 -1.22462 0
M  V30 839 H 71.935 4.97692 0.728816 0
M  V30 840 H 71.635 5.81966 -0.811775 0
M  V30 841 H 73.159 6.10553 0.0757473 0
M  V30 842 H 74.573 5.34794 -2.06563 0
M  V30 843 H 72.97 5.279 -2.8538 0
M  V30 844 H 74.04 3.86726 -2.92525 0
M  V30 845 N 75.3831 0.828654 1.34056 0
M  V30 846 C 76.2931 0.256725 2.33191 0
M  V30 847 C 77.3091 -0.611898 1.62886 0
M  V30 848 O 78.4851 -0.51844 1.94613 0
M  V30 849 C 75.5501 -0.567238 3.42028 0
M  V30 850 C 74.6111 0.324458 4.28072 0
M  V30 851 C 73.8441 -0.460274 5.31712 0
M  V30 852 O 74.0671 -1.693 5.44696 0
M  V30 853 O 73.0011 0.160391 6.01686 0
M  V30 854 H 76.8271 1.07739 2.83947 0
M  V30 855 H 74.4121 0.59093 1.37217 0
M  V30 856 H 76.2941 -1.03582 4.08471 0
M  V30 857 H 74.9691 -1.36513 2.93506 0
M  V30 858 H 73.8761 0.840659 3.64532 0
M  V30 859 H 75.2091 1.08685 4.8005 0
M  V30 860 N 76.8612 -1.46375 0.584142 0
M  V30 861 C 78.0892 -2.06761 0.0759296 0
M  V30 862 C 78.5042 -1.43266 -1.22965 0
M  V30 863 O 77.8612 -0.538458 -1.74376 0
M  V30 864 C 77.9122 -3.61375 -0.0950384 0
M  V30 865 O 77.6332 -4.22495 1.15887 0
M  V30 866 C 79.1342 -4.38693 -0.637434 0
M  V30 867 H 76.3542 -0.668479 0.0581075 0
M  V30 868 H 78.8982 -1.8798 0.805218 0
M  V30 869 H 77.0532 -3.79578 -0.774554 0
M  V30 870 H 77.4672 -5.15385 0.973598 0
M  V30 871 H 78.9412 -5.47464 -0.706237 0
M  V30 872 H 79.4182 -4.06836 -1.65472 0
M  V30 873 H 80.0242 -4.25299 0.00725967 0
M  V30 874 N 78.3393 -0.321999 -1.54275 0
M  V30 875 C 79.5643 0.285791 -2.05422 0
M  V30 876 C 79.9893 1.45124 -1.19669 0
M  V30 877 O 79.3473 1.80132 -0.205441 0
M  V30 878 C 79.3953 0.69956 -3.53749 0
M  V30 879 O 78.4993 1.8021 -3.70942 0
M  V30 880 H 77.8403 0.0518962 -0.661969 0
M  V30 881 H 80.3703 -0.469954 -1.9913 0
M  V30 882 H 80.3803 0.982649 -3.9599 0
M  V30 883 H 79.0553 -0.152864 -4.15619 0
M  V30 884 H 77.6323 1.51794 -3.40607 0
M  V30 885 N 79.8174 1.5752 -0.0501392 0
M  V30 886 C 80.7274 2.14952 0.939827 0
M  V30 887 C 81.7434 1.10706 1.34239 0
M  V30 888 O 82.9194 1.42869 1.41952 0
M  V30 889 C 79.9844 2.68232 2.19665 0
M  V30 890 C 79.0454 3.87272 1.85253 0
M  V30 891 C 78.2784 4.38002 3.04943 0
M  V30 892 O 78.5014 3.87811 4.18281 0
M  V30 893 O 77.4354 5.29602 2.86017 0
M  V30 894 H 81.2614 2.9986 0.481392 0
M  V30 895 H 78.8464 1.4841 0.171699 0
M  V30 896 H 80.7284 3.02475 2.93406 0
M  V30 897 H 79.4034 1.86395 2.64648 0
M  V30 898 H 78.3104 3.5792 1.0883 0
M  V30 899 H 79.6434 4.70336 1.4507 0
M  V30 900 N 81.2955 -0.223234 1.56011 0
M  V30 901 C 82.5435 -0.946003 1.78592 0
M  V30 902 C 82.8645 -1.84936 0.618349 0
M  V30 903 O 82.1345 -1.92473 -0.364833 0
M  V30 904 H 80.7145 -0.352298 0.658707 0
M  V30 905 H 83.3765 -0.235494 1.93472 0
M  V30 906 H 82.4725 -1.55381 2.70672 0
M  V30 907 N 82.7736 -1.49793 -0.48987 0
M  V30 908 C 84.0136 -1.61466 -1.25332 0
M  V30 909 C 84.3776 -0.299688 -1.89647 0
M  V30 910 O 85.5786 -0.291687 -2.67213 0
M  V30 911 C 83.8496 -2.74944 -2.28343 0
M  V30 912 S 85.4086 -3.06637 -3.13878 0
M  V30 913 H 82.2266 -0.569411 -0.425784 0
M  V30 914 H 84.8286 -1.875 -0.553541 0
M  V30 915 H 83.5326 -3.68994 -1.79643 0
M  V30 916 H 83.0636 -2.50938 -3.02975 0
M  V30 917 H 85.0786 -2.49015 -4.29192 0
M  V30 918 N 84.2517 0.741722 -1.39055 0
M  V30 919 C 85.6677 1.04638 -1.20512 0
M  V30 920 C 85.8677 2.01405 -0.0620218 0
M  V30 921 O 84.9237 2.45547 0.588457 0
M  V30 922 C 86.2367 1.6151 -2.53643 0
M  V30 923 C 87.7847 1.73623 -2.6043 0
M  V30 924 C 88.2597 2.33906 -3.93767 0
M  V30 925 N 89.7507 2.41323 -3.9537 0
M  V30 926 C 90.4857 2.88888 -4.95309 0
M  V30 927 N 89.9817 3.36401 -6.05645 0
M  V30 928 N 91.7747 2.88037 -4.82692 0
M  V30 929 H 83.9257 0.0998155 -2.12165 0
M  V30 930 H 86.1887 0.106907 -0.941953 0
M  V30 931 H 85.8947 0.978739 -3.37807 0
M  V30 932 H 85.7687 2.60411 -2.72885 0
M  V30 933 H 88.1557 2.36384 -1.76655 0
M  V30 934 H 88.2367 0.733945 -2.45045 0
M  V30 935 H 87.8807 1.71776 -4.7797 0
M  V30 936 H 87.8107 3.34799 -4.06469 0
M  V30 937 H 90.3017 2.07734 -3.15682 0
M  V30 938 H 90.6147 3.71186 -6.77821 0
M  V30 939 H 88.9597 3.34427 -6.09248 0
M  V30 940 H 92.1507 2.50237 -3.95599 0
M  V30 941 H 92.3237 3.24792 -5.60726 0
M  V30 942 N 85.7298 1.2412 0.971189 0
M  V30 943 C 86.6618 0.988349 2.06795 0
M  V30 944 C 87.6748 -0.0409541 1.62748 0
M  V30 945 O 88.8638 0.195673 1.77424 0
M  V30 946 C 85.9638 0.469023 3.35639 0
M  V30 947 C 85.1368 1.56065 4.08611 0
M  V30 948 C 84.1958 1.04458 5.15728 0
M  V30 949 O 83.2218 1.73553 5.42096 0
M  V30 950 N 84.4238 -0.122817 5.8037 0
M  V30 951 H 87.1888 1.93265 2.29061 0
M  V30 952 H 84.7498 1.15102 1.13856 0
M  V30 953 H 86.7418 0.108613 4.04554 0
M  V30 954 H 85.3118 -0.380919 3.1027 0
M  V30 955 H 84.5318 2.09341 3.34021 0
M  V30 956 H 85.8198 2.29449 4.54126 0
M  V30 957 H 85.2178 -0.700563 5.61345 0
M  V30 958 H 83.7748 -0.424404 6.50417 0
M  V30 959 N 87.2079 -1.17134 1.05439 0
M  V30 960 C 88.4569 -1.86791 0.761049 0
M  V30 961 C 88.7699 -1.82072 -0.714795 0
M  V30 962 O 89.9759 -2.47223 -1.12218 0
M  V30 963 C 88.4319 -3.35166 1.31117 0
M  V30 964 C 88.0399 -3.48381 2.81664 0
M  V30 965 C 89.7839 -4.10134 1.09499 0
M  V30 966 C 87.6909 -4.90793 3.29964 0
M  V30 967 H 86.6209 -0.699681 0.281002 0
M  V30 968 H 89.2719 -1.3226 1.27199 0
M  V30 969 H 87.6539 -3.8925 0.72803 0
M  V30 970 H 88.8279 -3.04502 3.45855 0
M  V30 971 H 87.1429 -2.86836 3.01851 0
M  V30 972 H 89.7399 -5.152 1.43084 0
M  V30 973 H 90.0829 -4.16287 0.0328772 0
M  V30 974 H 90.6159 -3.62264 1.64346 0
M  V30 975 H 87.3549 -4.89816 4.35616 0
M  V30 976 H 86.8749 -5.35333 2.70516 0
M  V30 977 H 88.5539 -5.59573 3.24787 0
M  V30 978 N 88.686 -0.835752 -1.33615 0
M  V30 979 C 89.616 -0.281739 -2.31794 0
M  V30 980 C 90.597 0.608833 -1.58831 0
M  V30 981 O 91.782 0.533035 -1.86741 0
M  V30 982 C 88.912 0.546612 -3.42971 0
M  V30 983 C 87.866 -0.247904 -4.27281 0
M  V30 984 C 87.192 0.704001 -5.30045 0
M  V30 985 C 88.492 -1.46324 -5.01385 0
M  V30 986 H 90.186 -1.10206 -2.78379 0
M  V30 987 H 87.732 -0.531388 -1.33837 0
M  V30 988 H 89.685 0.944467 -4.1068 0
M  V30 989 H 88.409 1.40011 -2.95067 0
M  V30 990 H 87.068 -0.627281 -3.61194 0
M  V30 991 H 86.716 1.55381 -4.78399 0
M  V30 992 H 86.416 0.176524 -5.87335 0
M  V30 993 H 87.94 1.09944 -6.0062 0
M  V30 994 H 89.354 -1.13871 -5.61877 0
M  V30 995 H 87.751 -1.92728 -5.6831 0
M  V30 996 H 88.821 -2.23467 -4.30338 0
M  V30 997 N 90.1641 1.46063 -0.591896 0
M  V30 998 C 91.4121 2.01938 -0.0808391 0
M  V30 999 C 91.7331 1.46475 1.28725 0
M  V30 1000 O 91.0031 0.652944 1.84698 0
M  V30 1001 H 89.5831 0.746516 -0.0268938 0
M  V30 1002 H 92.2451 1.79055 -0.769752 0
M  V30 1003 H 91.3411 3.12094 -0.0187578 0
M  V30 1004 N 91.6422 0.330177 1.54103 0
M  V30 1005 C 92.5742 -0.566902 2.22079 0
M  V30 1006 C 93.5872 -1.07462 1.22294 0
M  V30 1007 O 94.7762 -0.987065 1.48726 0
M  V30 1008 C 91.8762 -1.79138 2.87685 0
M  V30 1009 C 91.0492 -1.42123 4.13666 0
M  V30 1010 C 90.1082 -2.50394 4.62806 0
M  V30 1011 O 89.1342 -2.14261 5.27334 0
M  V30 1012 N 90.3362 -3.81433 4.37595 0
M  V30 1013 H 93.1012 0.0151844 2.99696 0
M  V30 1014 H 90.6622 0.153681 1.61169 0
M  V30 1015 H 92.6542 -2.50975 3.1748 0
M  V30 1016 H 91.2242 -2.28115 2.13734 0
M  V30 1017 H 90.4442 -0.534201 3.90564 0
M  V30 1018 H 91.7322 -1.14971 4.9564 0
M  V30 1019 H 91.1302 -4.13584 3.8596 0
M  V30 1020 H 89.6872 -4.4948 4.72029 0
M  V30 1021 N 93.1203 -1.57491 0.0584922 0
M  V30 1022 C 94.0503 -2.14988 -0.911178 0
M  V30 1023 C 95.0313 -1.07343 -1.31952 0
M  V30 1024 O 96.2163 -1.35318 -1.39294 0
M  V30 1025 C 93.3463 -2.70078 -2.18347 0
M  V30 1026 C 92.3003 -3.82771 -1.91495 0
M  V30 1027 C 91.6263 -4.24408 -3.25241 0
M  V30 1028 C 92.9263 -5.07592 -1.23075 0
M  V30 1029 H 94.6203 -2.96263 -0.432246 0
M  V30 1030 H 92.1663 -1.42512 -0.206469 0
M  V30 1031 H 94.1193 -3.08943 -2.86587 0
M  V30 1032 H 92.8433 -1.86005 -2.68458 0
M  V30 1033 H 91.5023 -3.44389 -1.25664 0
M  V30 1034 H 91.1503 -3.37275 -3.73168 0
M  V30 1035 H 90.8503 -5.00366 -3.08071 0
M  V30 1036 H 92.3743 -4.65879 -3.94701 0
M  V30 1037 H 93.7883 -5.43857 -1.81362 0
M  V30 1038 H 92.1853 -5.88741 -1.16207 0
M  V30 1039 H 93.2553 -4.84454 -0.207847 0
M  V30 1040 N 94.5984 0.214957 -1.56127 0
M  V30 1041 C 95.5304 1.29004 -1.89448 0
M  V30 1042 C 96.5434 1.42716 -0.783326 0
M  V30 1043 O 97.7324 1.43496 -1.06166 0
M  V30 1044 C 94.8324 2.66482 -2.09381 0
M  V30 1045 C 94.0054 2.74633 -3.40434 0
M  V30 1046 C 93.0644 3.9317 -3.49719 0
M  V30 1047 O 92.0904 3.812 -4.227 0
M  V30 1048 N 93.2924 5.07765 -2.81346 0
M  V30 1049 H 96.0574 1.00743 -2.82261 0
M  V30 1050 H 93.6184 0.40497 -1.56753 0
M  V30 1051 H 95.6104 3.44173 -2.12901 0
M  V30 1052 H 94.1804 2.87314 -1.23163 0
M  V30 1053 H 93.4004 1.83368 -3.48955 0
M  V30 1054 H 94.6884 2.77054 -4.26754 0
M  V30 1055 H 94.0864 5.20386 -2.21843 0
M  V30 1056 H 92.6434 5.83474 -2.90519 0
M  V30 1057 N 96.0765 1.50051 0.48192 0
M  V30 1058 C 97.4875 1.5348 1.06305 0
M  V30 1059 C 97.8385 0.331997 1.93371 0
M  V30 1060 O 96.9635 -0.556256 2.09129 0
M  V30 1061 C 97.5585 2.7813 1.93466 0
M  V30 1062 C 96.1175 2.84275 2.46707 0
M  V30 1063 C 95.2645 2.47637 1.24785 0
M  V30 1064 H 98.2155 1.56472 0.264995 0
M  V30 1065 H 98.2365 2.59372 2.78399 0
M  V30 1066 H 97.7485 3.65654 1.30072 0
M  V30 1067 H 95.8495 2.01077 3.13686 0
M  V30 1068 H 95.9625 3.8691 2.82555 0
M  V30 1069 H 94.3265 1.99835 1.57918 0
M  V30 1070 H 95.1095 3.37457 0.630694 0
M  V30 1071 N 97.5546 -0.734337 1.39446 0
M  V30 1072 C 98.7796 -1.52866 1.40167 0
M  V30 1073 C 99.2046 -1.881 -0.00171513 0
M  V30 1074 O 98.5626 -1.51957 -0.988879 0
M  V30 1075 C 98.6106 -2.79235 2.28167 0
M  V30 1076 O 97.7146 -3.75185 1.71201 0
M  V30 1077 H 97.0556 -0.461618 0.477289 0
M  V30 1078 H 99.5856 -0.905949 1.8345 0
M  V30 1079 H 99.5956 -3.27963 2.42702 0
M  V30 1080 H 98.2706 -2.52923 3.30156 0
M  V30 1081 H 96.8476 -3.33958 1.65912 0
M  V30 1082 N 99.0327 -1.24633 -0.964593 0
M  V30 1083 C 99.9627 -1.06611 -2.07741 0
M  V30 1084 C 100.944 0.0218666 -1.70086 0
M  V30 1085 O 102.129 -0.145793 -1.93652 0
M  V30 1086 C 99.2587 -0.673444 -3.40708 0
M  V30 1087 C 98.2127 -1.71054 -3.92332 0
M  V30 1088 C 97.5387 -1.17285 -5.21678 0
M  V30 1089 C 98.8387 -3.10718 -4.19824 0
M  V30 1090 H 100.533 -1.99693 -2.23076 0
M  V30 1091 H 98.0787 -0.96152 -1.07195 0
M  V30 1092 H 100.032 -0.534345 -4.17998 0
M  V30 1093 H 98.7557 0.293073 -3.25282 0
M  V30 1094 H 97.4147 -1.83791 -3.17201 0
M  V30 1095 H 97.0627 -0.196847 -5.02615 0
M  V30 1096 H 96.7627 -1.86592 -5.57187 0
M  V30 1097 H 98.2867 -1.04593 -6.01575 0
M  V30 1098 H 99.7007 -3.01192 -4.87808 0
M  V30 1099 H 98.0977 -3.77406 -4.66567 0
M  V30 1100 H 99.1677 -3.58524 -3.26479 0
M  V30 1101 N 100.511 1.16574 -1.06058 0
M  V30 1102 C 101.443 2.2045 -0.627239 0
M  V30 1103 C 102.456 1.59752 0.313534 0
M  V30 1104 O 103.645 1.78192 0.104896 0
M  V30 1105 C 100.745 3.3875 0.100974 0
M  V30 1106 C 99.9178 4.29008 -0.852687 0
M  V30 1107 C 98.9768 5.25944 -0.164152 0
M  V30 1108 O 98.0028 5.63535 -0.801047 0
M  V30 1109 N 99.2048 5.70075 1.09518 0
M  V30 1110 H 101.97 2.58249 -1.52077 0
M  V30 1111 H 99.5308 1.3156 -0.943594 0
M  V30 1112 H 101.523 4.00638 0.57194 0
M  V30 1113 H 100.093 2.99476 0.89628 0
M  V30 1114 H 99.3128 3.64419 -1.50308 0
M  V30 1115 H 100.601 4.86195 -1.49972 0
M  V30 1116 H 99.9988 5.41624 1.6328 0
M  V30 1117 H 98.5558 6.34067 1.51006 0
M  V30 1118 N 101.989 0.842826 1.3317 0
M  V30 1119 C 103.217 0.454055 2.01856 0
M  V30 1120 C 103.632 -0.94587 1.63397 0
M  V30 1121 O 102.989 -1.61534 0.849302 0
M  V30 1122 C 103.04 0.569715 3.56982 0
M  V30 1123 O 102.761 1.91448 3.94055 0
M  V30 1124 C 104.262 0.178412 4.42941 0
M  V30 1125 H 101.482 0.17979 0.646465 0
M  V30 1126 H 104.026 1.1365 1.70012 0
M  V30 1127 H 102.181 -0.0648587 3.87346 0
M  V30 1128 H 102.595 1.90282 4.88767 0
M  V30 1129 H 104.069 0.310376 5.51127 0
M  V30 1130 H 104.546 -0.880056 4.30293 0
M  V30 1131 H 105.152 0.787579 4.17944 0
M  V30 1132 N 103.467 -1.45747 0.599634 0
M  V30 1133 C 104.715 -2.01893 0.0915472 0
M  V30 1134 C 105.036 -1.47155 -1.27946 0
M  V30 1135 O 104.306 -0.66273 -1.84349 0
M  V30 1136 H 102.886 -0.746363 0.0308524 0
M  V30 1137 H 105.548 -1.78645 0.779237 0
M  V30 1138 H 104.644 -3.1208 0.0353086 0
M  V30 1139 N 104.945 -0.338344 -1.53925 0
M  V30 1140 C 106.17 0.263987 -2.05713 0
M  V30 1141 C 106.595 1.43847 -1.21201 0
M  V30 1142 O 105.953 1.79904 -0.224535 0
M  V30 1143 C 106.001 0.662 -3.54471 0
M  V30 1144 O 105.105 1.76265 -3.72833 0
M  V30 1145 H 104.446 0.0448722 -0.662482 0
M  V30 1146 H 106.976 -0.491048 -1.9862 0
M  V30 1147 H 106.986 0.940594 -3.9701 0
M  V30 1148 H 105.661 -0.196937 -4.15433 0
M  V30 1149 H 104.238 1.48173 -3.42198 0
M  V30 1150 N 106.423 1.57458 -0.0668435 0
M  V30 1151 C 107.333 2.15937 0.916975 0
M  V30 1152 C 108.349 1.12123 1.33058 0
M  V30 1153 O 109.525 1.44366 1.40429 0
M  V30 1154 C 106.59 2.70547 2.16807 0
M  V30 1155 C 105.651 3.89215 1.81135 0
M  V30 1156 C 104.884 4.41211 3.0028 0
M  V30 1157 O 105.107 3.92225 4.14144 0
M  V30 1158 O 104.041 5.32605 2.80384 0
M  V30 1159 H 107.867 3.00354 0.449561 0
M  V30 1160 H 105.452 1.48584 0.155949 0
M  V30 1161 H 107.334 3.0557 2.90181 0
M  V30 1162 H 106.009 1.89192 2.62656 0
M  V30 1163 H 104.916 3.59054 1.05028 0
M  V30 1164 H 106.249 4.71848 1.40073 0
M  V30 1165 N 107.901 -0.206675 1.56239 0
M  V30 1166 C 108.811 -1.27686 1.96808 0
M  V30 1167 C 109.827 -1.50455 0.874035 0
M  V30 1168 O 111.003 -1.63295 1.17884 0
M  V30 1169 C 108.068 -2.60358 2.28942 0
M  V30 1170 C 107.129 -2.45762 3.51994 0
M  V30 1171 C 106.362 -3.72108 3.82585 0
M  V30 1172 O 106.585 -4.75776 3.14631 0
M  V30 1173 O 105.519 -3.6833 4.76043 0
M  V30 1174 H 109.345 -0.962593 2.88041 0
M  V30 1175 H 106.93 -0.410746 1.43643 0
M  V30 1176 H 108.812 -3.38687 2.50737 0
M  V30 1177 H 107.487 -2.91435 1.4088 0
M  V30 1178 H 106.394 -1.65584 3.35459 0
M  V30 1179 H 107.727 -2.19621 4.40486 0
M  V30 1180 N 109.379 -1.50304 -0.473955 0
M  V30 1181 C 110.309 -1.71886 -1.58042 0
M  V30 1182 C 111.29 -0.567799 -1.60344 0
M  V30 1183 O 112.475 -0.806623 -1.76656 0
M  V30 1184 C 109.605 -1.81036 -2.96384 0
M  V30 1185 C 108.559 -2.962 -3.08949 0
M  V30 1186 C 107.885 -2.9049 -4.48909 0
M  V30 1187 C 109.185 -4.36752 -2.86434 0
M  V30 1188 H 110.879 -2.64527 -1.40234 0
M  V30 1189 H 108.425 -1.27295 -0.673201 0
M  V30 1190 H 110.378 -1.94719 -3.73714 0
M  V30 1191 H 109.102 -0.850147 -3.15341 0
M  V30 1192 H 107.761 -2.82164 -2.3405 0
M  V30 1193 H 107.409 -1.92321 -4.64781 0
M  V30 1194 H 107.109 -3.67802 -4.58253 0
M  V30 1195 H 108.633 -3.06218 -5.28264 0
M  V30 1196 H 110.047 -4.5133 -3.53517 0
M  V30 1197 H 108.444 -5.15493 -3.07225 0
M  V30 1198 H 109.514 -4.49321 -1.82316 0
M  V30 1199 N 110.857 0.726932 -1.39834 0
M  V30 1200 C 112.273 1.03354 -1.21615 0
M  V30 1201 C 112.473 2.01327 -0.08338 0
M  V30 1202 O 111.529 2.46158 0.56238 0
M  V30 1203 C 112.842 1.58811 -2.55342 0
M  V30 1204 C 114.39 1.70851 -2.62257 0
M  V30 1205 C 114.865 2.29716 -3.96225 0
M  V30 1206 N 116.356 2.37116 -3.97907 0
M  V30 1207 C 117.091 2.83619 -4.98345 0
M  V30 1208 N 116.587 3.29958 -6.09179 0
M  V30 1209 N 118.38 2.82901 -4.8572 0
M  V30 1210 H 110.531 0.0773069 -2.12259 0
M  V30 1211 H 112.794 0.0969102 -0.943034 0
M  V30 1212 H 112.5 0.942855 -3.38826 0
M  V30 1213 H 112.374 2.57502 -2.75632 0
M  V30 1214 H 114.761 2.34497 -1.79152 0
M  V30 1215 H 114.842 0.707913 -2.45809 0
M  V30 1216 H 114.486 1.66696 -4.79765 0
M  V30 1217 H 114.416 3.30469 -4.09997 0
M  V30 1218 H 116.907 2.04374 -3.17868 0
M  V30 1219 H 117.22 3.63976 -6.8172 0
M  V30 1220 H 115.565 3.27946 -6.12761 0
M  V30 1221 H 118.756 2.46027 -3.98231 0
M  V30 1222 H 118.929 3.18827 -5.6414 0
M  V30 1223 N 112.336 1.25143 0.95797 0
M  V30 1224 C 113.561 1.12521 1.74223 0
M  V30 1225 C 113.986 -0.317402 1.85403 0
M  V30 1226 O 113.344 -1.2299 1.33204 0
M  V30 1227 C 113.392 1.78062 3.1357 0
M  V30 1228 O 112.496 1.058 3.98598 0
M  V30 1229 H 111.837 0.39304 0.535178 0
M  V30 1230 H 114.367 1.65641 1.201 0
M  V30 1231 H 114.377 1.84213 3.64046 0
M  V30 1232 H 113.052 2.83021 3.04749 0
M  V30 1233 H 111.629 1.07506 3.57067 0
M  V30 1234 N 113.814 -1.1601 1.06675 0
M  V30 1235 C 114.744 -2.22688 0.702307 0
M  V30 1236 C 115.725 -1.67306 -0.307032 0
M  V30 1237 O 116.91 -1.93352 -0.181305 0
M  V30 1238 C 114.04 -3.47178 0.092038 0
M  V30 1239 C 112.994 -4.15477 1.02777 0
M  V30 1240 C 112.32 -5.33963 0.28061 0
M  V30 1241 C 113.62 -4.66019 2.35846 0
M  V30 1242 H 115.314 -2.53429 1.59419 0
M  V30 1243 H 112.86 -1.21813 0.767961 0
M  V30 1244 H 114.813 -4.21037 -0.174814 0
M  V30 1245 H 113.537 -3.15749 -0.834877 0
M  V30 1246 H 112.196 -3.43549 1.27944 0
M  V30 1247 H 111.844 -4.98788 -0.649545 0
M  V30 1248 H 111.544 -5.806 0.904258 0
M  V30 1249 H 113.068 -6.10596 0.021396 0
M  V30 1250 H 114.482 -5.3144 2.15045 0
M  V30 1251 H 112.879 -5.23293 2.93743 0
M  V30 1252 H 113.949 -3.82023 2.98641 0
M  V30 1253 N 115.292 -0.849877 -1.32721 0
M  V30 1254 C 116.522 -0.46408 -2.0132 0
M  V30 1255 C 116.93 0.94246 -1.64056 0
M  V30 1256 O 116.273 1.6257 -0.855379 0
M  V30 1257 C 116.335 -0.517887 -3.5575 0
M  V30 1258 C 115.999 -1.88248 -4.16427 0
M  V30 1259 C 116.996 -2.84726 -4.35002 0
M  V30 1260 C 114.681 -2.17832 -4.52609 0
M  V30 1261 C 116.675 -4.08945 -4.8892 0
M  V30 1262 C 114.362 -3.42304 -5.06232 0
M  V30 1263 C 115.36 -4.37677 -5.24335 0
M  V30 1264 O 115.048 -5.59946 -5.76815 0
M  V30 1265 H 114.78 -0.181327 -0.651227 0
M  V30 1266 H 117.334 -1.14713 -1.70382 0
M  V30 1267 H 115.564 0.221997 -3.86062 0
M  V30 1268 H 117.253 -0.148366 -4.05629 0
M  V30 1269 H 118.019 -2.63174 -4.07388 0
M  V30 1270 H 113.898 -1.44385 -4.37806 0
M  V30 1271 H 117.442 -4.83396 -5.02966 0
M  V30 1272 H 113.339 -3.63709 -5.33278 0
M  V30 1273 H 114.107 -5.61838 -5.95214 0
M  V30 1274 N 116.77 1.45427 -0.607355 0
M  V30 1275 C 117.718 2.32269 0.12411 0
M  V30 1276 C 118.712 1.45955 0.859854 0
M  V30 1277 O 119.918 1.6244 0.775447 0
M  V30 1278 H 116.293 0.749691 0.0588839 0
M  V30 1279 H 118.264 2.91743 -0.626762 0
M  V30 1280 C 117.013 3.29567 1.1082 0
M  V30 1281 H 116.336 3.95978 0.551492 0
M  V30 1282 H 117.776 3.93061 1.58995 0
M  V30 1283 C 116.235 2.56722 2.18164 0
M  V30 1284 O 116.765 2.34842 3.25902 0
M  V30 1285 N 114.971 2.16861 1.93442 0
M  V30 1286 H 114.518 2.34855 1.05834 0
M  V30 1287 H 114.476 1.68444 2.65469 0
M  V30 1288 N 118.248 0.346503 1.53744 0
M  V30 1289 C 119.476 -0.25041 2.05379 0
M  V30 1290 C 119.891 -1.43979 1.22129 0
M  V30 1291 O 119.248 -1.80677 0.257321 0
M  V30 1292 C 119.299 -0.662575 3.55376 0
M  V30 1293 O 119.02 0.479515 4.35468 0
M  V30 1294 C 120.521 -1.31989 4.23195 0
M  V30 1295 H 117.741 -0.0478198 0.669294 0
M  V30 1296 H 120.285 0.499346 1.9831 0
M  V30 1297 H 118.44 -1.36227 3.62658 0
M  V30 1298 H 118.854 0.15037 5.24284 0
M  V30 1299 H 120.328 -1.55902 5.29527 0
M  V30 1300 H 120.805 -2.27436 3.75725 0
M  V30 1301 H 121.411 -0.662154 4.20114 0
M  V30 1302 N 119.726 -1.57421 0.075193 0
M  V30 1303 C 120.972 -1.93905 -0.594025 0
M  V30 1304 C 121.305 -0.955701 -1.69056 0
M  V30 1305 O 120.58 0.0145373 -1.94495 0
M  V30 1306 C 120.863 -3.40638 -1.1678 0
M  V30 1307 C 120.716 -4.49733 -0.0776792 0
M  V30 1308 C 122.035 -3.88259 -2.07228 0
M  V30 1309 H 119.154 -0.705105 -0.214466 0
M  V30 1310 H 121.796 -1.8947 0.141854 0
M  V30 1311 H 119.946 -3.44549 -1.79494 0
M  V30 1312 H 121.618 -4.57942 0.555573 0
M  V30 1313 H 119.861 -4.29751 0.591286 0
M  V30 1314 H 120.532 -5.49549 -0.519603 0
M  V30 1315 H 123.008 -3.86376 -1.54445 0
M  V30 1316 H 121.884 -4.91533 -2.44308 0
M  V30 1317 H 122.145 -3.26396 -2.98191 0
M  V30 1318 N 121.204 0.198386 -1.56346 0
M  V30 1319 C 122.167 1.22952 -1.93431 0
M  V30 1320 C 123.167 1.38611 -0.815092 0
M  V30 1321 O 124.357 1.36479 -1.08255 0
M  V30 1322 C 121.489 2.59946 -2.20546 0
M  V30 1323 H 122.682 0.912626 -2.85677 0
M  V30 1324 H 120.235 0.43977 -1.49986 0
M  V30 1325 H 120.97 2.96696 -1.30927 0
M  V30 1326 H 120.755 2.49953 -3.02102 0
M  V30 1327 H 122.245 3.3431 -2.50253 0
M  V30 1328 N 122.682 1.50554 0.465978 0
M  V30 1329 C 123.91 1.65563 1.24083 0
M  V30 1330 C 124.325 0.341051 1.85694 0
M  V30 1331 O 123.682 -0.677543 1.69457 0
M  V30 1332 C 123.733 2.75051 2.34583 0
M  V30 1333 O 123.454 4.01413 1.75497 0
M  V30 1334 C 124.955 3.01078 3.25372 0
M  V30 1335 H 122.175 0.55638 0.375077 0
M  V30 1336 H 124.719 1.96807 0.555624 0
M  V30 1337 H 122.874 2.46486 2.9887 0
M  V30 1338 H 123.288 4.62002 2.48303 0
M  V30 1339 H 124.762 3.81339 3.99105 0
M  V30 1340 H 125.239 2.12349 3.84453 0
M  V30 1341 H 125.845 3.31194 2.66816 0
M  V30 1342 N 124.16 -0.719506 1.40217 0
M  V30 1343 C 125.09 -1.8465 1.42922 0
M  V30 1344 C 126.071 -1.67599 0.29062 0
M  V30 1345 O 127.256 -1.87688 0.498677 0
M  V30 1346 C 124.386 -3.22565 1.28722 0
M  V30 1347 C 123.34 -3.54281 2.40144 0
M  V30 1348 C 122.666 -4.91298 2.11023 0
M  V30 1349 C 123.966 -3.55676 3.82481 0
M  V30 1350 H 125.66 -1.82644 2.37237 0
M  V30 1351 H 123.206 -0.877305 1.1419 0
M  V30 1352 H 125.159 -4.01095 1.29232 0
M  V30 1353 H 123.883 -3.25137 0.308811 0
M  V30 1354 H 122.542 -2.78088 2.38877 0
M  V30 1355 H 122.19 -4.90468 1.11582 0
M  V30 1356 H 121.89 -5.13485 2.8567 0
M  V30 1357 H 123.414 -5.72166 2.13209 0
M  V30 1358 H 124.828 -4.24254 3.85592 0
M  V30 1359 H 123.225 -3.89388 4.56614 0
M  V30 1360 H 124.295 -2.55144 4.12346 0
M  V30 1361 N 125.638 -1.25649 -0.95132 0
M  V30 1362 C 126.868 -1.13179 -1.72841 0
M  V30 1363 C 127.276 0.316827 -1.86528 0
M  V30 1364 O 126.619 1.22948 -1.3649 0
M  V30 1365 C 126.681 -1.71644 -3.15878 0
M  V30 1366 C 126.345 -3.20667 -3.25609 0
M  V30 1367 C 127.342 -4.17616 -3.09666 0
M  V30 1368 C 125.027 -3.6094 -3.49324 0
M  V30 1369 C 127.021 -5.52817 -3.17289 0
M  V30 1370 C 124.708 -4.96278 -3.56584 0
M  V30 1371 C 125.706 -5.92025 -3.40581 0
M  V30 1372 O 125.394 -7.24899 -3.47528 0
M  V30 1373 H 125.126 -0.395389 -0.54831 0
M  V30 1374 H 127.68 -1.66566 -1.20187 0
M  V30 1375 H 125.91 -1.12707 -3.69911 0
M  V30 1376 H 127.599 -1.54225 -3.75459 0
M  V30 1377 H 128.365 -3.87842 -2.91211 0
M  V30 1378 H 124.244 -2.86907 -3.6084 0
M  V30 1379 H 127.788 -6.2753 -3.04716 0
M  V30 1380 H 123.685 -5.25716 -3.74556 0
M  V30 1381 H 124.453 -7.33039 -3.64138 0
M  V30 1382 N 127.117 1.15442 -1.07289 0
M  V30 1383 C 128.357 1.8788 -0.805012 0
M  V30 1384 C 128.721 1.80413 0.656907 0
M  V30 1385 O 129.922 2.47874 1.0398 0
M  V30 1386 C 128.193 3.3298 -1.29843 0
M  V30 1387 S 129.752 4.23158 -1.16114 0
M  V30 1388 H 126.57 0.64839 -0.291739 0
M  V30 1389 H 129.172 1.39285 -1.37186 0
M  V30 1390 H 127.876 3.35958 -2.35712 0
M  V30 1391 H 127.407 3.86629 -0.726767 0
M  V30 1392 H 129.422 4.96103 -0.0982778 0
M  V30 1393 N 128.595 0.856903 1.32268 0
M  V30 1394 C 129.841 0.462069 1.97466 0
M  V30 1395 C 130.174 -0.980298 1.67642 0
M  V30 1396 O 129.449 -1.68824 0.965858 0
M  V30 1397 C 129.732 0.704336 3.53145 0
M  V30 1398 C 129.585 2.19529 3.9259 0
M  V30 1399 C 130.904 0.1622 4.39801 0
M  V30 1400 H 128.023 0.169357 0.717278 0
M  V30 1401 H 130.665 1.07574 1.56614 0
M  V30 1402 H 128.815 0.181999 3.88073 0
M  V30 1403 H 130.487 2.78387 3.67829 0
M  V30 1404 H 128.73 2.67292 3.41668 0
M  V30 1405 H 129.401 2.31549 5.01088 0
M  V30 1406 H 131.877 0.608905 4.11621 0
M  V30 1407 H 130.753 0.361265 5.4771 0
M  V30 1408 H 131.014 -0.935158 4.32096 0
M  V30 1409 N 130.073 -1.45103 0.615059 0
M  V30 1410 C 131.023 -2.27679 -0.120966 0
M  V30 1411 C 132.007 -1.3775 -0.831491 0
M  V30 1412 O 133.199 -1.61683 -0.720249 0
M  V30 1413 C 130.328 -3.24767 -1.1127 0
M  V30 1414 C 129.414 -4.22184 -0.402627 0
M  V30 1415 N 129.805 -5.02692 0.559884 0
M  V30 1416 C 128.103 -4.4125 -0.649202 0
M  V30 1417 C 128.804 -5.73421 0.977942 0
M  V30 1418 N 127.78 -5.42657 0.320104 0
M  V30 1419 H 131.582 -2.87325 0.618181 0
M  V30 1420 H 129.096 -1.56345 0.439304 0
M  V30 1421 H 131.093 -3.82666 -1.65446 0
M  V30 1422 H 129.753 -2.66682 -1.85232 0
M  V30 1423 H 130.764 -5.09354 0.936976 0
M  V30 1424 H 127.441 -3.9428 -1.37293 0
M  V30 1425 H 128.831 -6.48107 1.77222 0
M  V30 1426 N 131.551 -0.354651 -1.53558 0
M  V30 1427 C 132.483 0.5315 -2.22952 0
M  V30 1428 C 133.496 1.05503 -1.23988 0
M  V30 1429 O 134.685 0.963279 -1.50277 0
M  V30 1430 C 131.785 1.74538 -2.90499 0
M  V30 1431 C 130.958 1.35524 -4.15875 0
M  V30 1432 C 130.017 2.42999 -4.66731 0
M  V30 1433 O 129.043 2.05844 -5.30676 0
M  V30 1434 N 130.245 3.74423 -4.43608 0
M  V30 1435 H 133.01 -0.0628615 -2.99634 0
M  V30 1436 H 130.571 -0.179302 -1.60904 0
M  V30 1437 H 132.563 2.45892 -3.21433 0
M  V30 1438 H 131.133 2.24686 -2.17336 0
M  V30 1439 H 130.353 0.471998 -3.91364 0
M  V30 1440 H 131.641 1.07071 -4.97406 0
M  V30 1441 H 131.039 4.07391 -3.92491 0
M  V30 1442 H 129.596 4.41913 -4.7912 0
M  V30 1443 N 133.029 1.57378 -0.0835403 0
M  V30 1444 C 133.976 2.13384 0.879539 0
M  V30 1445 C 134.946 1.04936 1.28754 0
M  V30 1446 O 136.131 1.32662 1.37133 0
M  V30 1447 C 133.271 2.70932 2.13752 0
M  V30 1448 C 132.384 3.93575 1.7811 0
M  V30 1449 C 131.519 4.39326 2.98607 0
M  V30 1450 C 130.558 5.54587 2.59037 0
M  V30 1451 N 129.695 5.95243 3.72331 0
M  V30 1452 H 134.535 2.9537 0.395076 0
M  V30 1453 H 132.072 1.45953 0.183349 0
M  V30 1454 H 134.03 3.02411 2.87408 0
M  V30 1455 H 132.66 1.91693 2.59718 0
M  V30 1456 H 131.712 3.68483 0.94469 0
M  V30 1457 H 133.024 4.77258 1.45005 0
M  V30 1458 H 132.178 4.72528 3.80529 0
M  V30 1459 H 130.917 3.5452 3.34913 0
M  V30 1460 H 129.922 5.21024 1.75539 0
M  V30 1461 H 131.147 6.41133 2.23887 0
M  V30 1462 H 129.093 5.13385 4.08378 0
M  V30 1463 H 129.01 6.73694 3.43034 0
M  V30 1464 H 130.278 6.33072 4.54797 0
M  V30 1465 N 134.507 -0.190092 1.56449 0
M  V30 1466 C 135.756 -0.907912 1.80111 0
M  V30 1467 C 136.069 -1.84214 0.657619 0
M  V30 1468 O 137.275 -2.60094 0.778663 0
M  V30 1469 C 135.731 -1.66485 3.19078 0
M  V30 1470 C 135.339 -0.7752 4.41242 0
M  V30 1471 C 137.083 -2.37201 3.52045 0
M  V30 1472 C 134.99 -1.53129 5.71231 0
M  V30 1473 H 133.92 -0.34276 0.671589 0
M  V30 1474 H 136.571 -0.161109 1.82791 0
M  V30 1475 H 134.953 -2.45572 3.10661 0
M  V30 1476 H 136.127 -0.0226298 4.60794 0
M  V30 1477 H 134.442 -0.178627 4.16017 0
M  V30 1478 H 137.039 -2.94329 4.46402 0
M  V30 1479 H 137.382 -3.11632 2.76028 0
M  V30 1480 H 137.915 -1.65075 3.61932 0
M  V30 1481 H 134.654 -0.82967 6.50228 0
M  V30 1482 H 134.174 -2.25767 5.55688 0
M  V30 1483 H 135.853 -2.08377 6.12526 0
M  V30 1484 N 135.985 -1.50799 -0.457987 0
M  V30 1485 C 136.895 -1.73426 -1.57989 0
M  V30 1486 C 137.911 -0.617745 -1.62665 0
M  V30 1487 O 139.087 -0.897614 -1.80291 0
M  V30 1488 C 136.152 -1.83557 -2.94122 0
M  V30 1489 C 135.213 -3.07345 -2.99729 0
M  V30 1490 C 134.446 -3.16983 -4.29368 0
M  V30 1491 O 134.669 -2.33077 -5.20607 0
M  V30 1492 O 133.603 -4.09812 -4.40837 0
M  V30 1493 H 137.429 -2.68555 -1.41817 0
M  V30 1494 H 135.014 -1.35052 -0.638859 0
M  V30 1495 H 136.896 -1.92326 -3.74952 0
M  V30 1496 H 135.571 -0.916137 -3.10465 0
M  V30 1497 H 134.478 -3.04068 -2.1793 0
M  V30 1498 H 135.811 -3.9891 -2.88326 0
M  V30 1499 N 137.463 0.71206 -1.40597 0
M  V30 1500 C 138.709 1.47416 -1.39271 0
M  V30 1501 C 139.042 1.942 0.00388791 0
M  V30 1502 O 138.317 1.68403 0.973179 0
M  V30 1503 C 138.6 2.69774 -2.38525 0
M  V30 1504 C 138.453 2.28861 -3.87224 0
M  V30 1505 C 139.772 3.71939 -2.35264 0
M  V30 1506 H 136.891 0.534713 -0.5072 0
M  V30 1507 H 139.533 0.812375 -1.71757 0
M  V30 1508 H 137.683 3.26238 -2.10953 0
M  V30 1509 H 139.355 1.77852 -4.25636 0
M  V30 1510 H 137.598 1.60824 -4.02887 0
M  V30 1511 H 138.269 3.16584 -4.52193 0
M  V30 1512 H 140.745 3.25113 -2.59694 0
M  V30 1513 H 139.621 4.55186 -3.06753 0
M  V30 1514 H 139.882 4.20484 -1.36549 0
M  V30 1515 N 138.941 1.26152 0.944643 0
M  V30 1516 C 139.888 1.07408 2.04285 0
M  V30 1517 C 140.858 -0.0198413 1.66088 0
M  V30 1518 O 142.043 0.139264 1.90291 0
M  V30 1519 C 139.183 0.70945 3.37729 0
M  V30 1520 C 138.296 1.87926 3.88983 0
M  V30 1521 C 137.431 1.45807 5.10797 0
M  V30 1522 C 136.47 2.5964 5.54305 0
M  V30 1523 N 135.607 2.18226 6.67324 0
M  V30 1524 H 140.447 2.01389 2.1965 0
M  V30 1525 H 137.984 1.00275 1.07626 0
M  V30 1526 H 139.942 0.478948 4.14442 0
M  V30 1527 H 138.572 -0.193389 3.2222 0
M  V30 1528 H 137.624 2.22279 3.08701 0
M  V30 1529 H 138.936 2.73377 4.17213 0
M  V30 1530 H 138.09 1.18781 5.94959 0
M  V30 1531 H 136.829 0.574414 4.84305 0
M  V30 1532 H 135.834 2.87399 4.68702 0
M  V30 1533 H 137.059 3.48599 5.828 0
M  V30 1534 H 135.005 1.3229 6.42523 0
M  V30 1535 H 134.922 2.97221 6.95123 0
M  V30 1536 H 136.19 1.94403 7.54869 0
M  V30 1537 N 140.419 -1.14872 1.07899 0
M  V30 1538 C 141.696 -1.81928 0.71845 0
M  V30 1539 C 142.076 -1.95417 -0.798455 0
M  V30 1540 O 141.424 -1.50997 -1.715 0
M  V30 1541 C 141.634 -3.17937 1.43935 0
M  V30 1542 C 142.982 -3.93501 1.59506 0
M  V30 1543 O 144.006 -3.27509 1.40058 0
M  V30 1544 O 142.865 -5.1183 1.91551 0
M  V30 1545 H 139.959 -0.78628 0.256305 0
M  V30 1546 H 142.505 -1.21934 1.18026 0
M  V30 1547 H 141.277 -3.0325 2.47295 0
M  V30 1548 H 140.9 -3.85619 0.968687 0
M  V30 1549 N 141.898 -0.863906 -1.31812 0
M  V30 1550 C 143.126 -0.486111 -2.01108 0
M  V30 1551 C 143.541 0.919755 -1.64882 0
M  V30 1552 O 142.898 1.60162 -0.874893 0
M  V30 1553 C 142.949 -0.626435 -3.56031 0
M  V30 1554 O 142.67 -1.97693 -3.90959 0
M  V30 1555 C 144.171 -0.248857 -4.42601 0
M  V30 1556 H 141.391 -0.190052 -0.643523 0
M  V30 1557 H 143.935 -1.1634 -1.68182 0
M  V30 1558 H 142.09 0.00322717 -3.874 0
M  V30 1559 H 142.504 -1.98034 -4.85678 0
M  V30 1560 H 143.978 -0.398016 -5.50563 0
M  V30 1561 H 144.455 0.811489 -4.31638 0
M  V30 1562 H 145.061 -0.853971 -4.16638 0
M  V30 1563 N 143.376 1.44774 -0.622745 0
M  V30 1564 C 144.323 2.30635 0.0871679 0
M  V30 1565 C 145.293 1.42994 0.845097 0
M  V30 1566 O 146.478 1.71907 0.827812 0
M  V30 1567 C 143.618 3.28144 1.06844 0
M  V30 1568 C 142.731 4.30888 0.309809 0
M  V30 1569 C 141.866 5.15494 1.28215 0
M  V30 1570 C 140.905 6.09953 0.512198 0
M  V30 1571 N 140.042 6.87287 1.43458 0
M  V30 1572 H 144.882 2.90803 -0.650974 0
M  V30 1573 H 142.419 1.43286 -0.33281 0
M  V30 1574 H 144.377 3.83157 1.65066 0
M  V30 1575 H 143.007 2.69695 1.77382 0
M  V30 1576 H 142.059 3.78414 -0.388181 0
M  V30 1577 H 143.371 4.97955 -0.290254 0
M  V30 1578 H 142.525 5.74983 1.93596 0
M  V30 1579 H 141.264 4.48481 1.91614 0
M  V30 1580 H 140.269 5.49581 -0.155151 0
M  V30 1581 H 141.494 6.78999 -0.116958 0
M  V30 1582 H 139.44 6.2295 2.05594 0
M  V30 1583 H 139.357 7.50763 0.888335 0
M  V30 1584 H 140.625 7.51306 2.07749 0
M  V30 1585 N 144.854 0.36279 1.53368 0
M  V30 1586 C 145.764 -0.492994 2.29362 0
M  V30 1587 C 146.78 -1.09507 1.35219 0
M  V30 1588 O 147.956 -1.10662 1.68273 0
M  V30 1589 C 145.021 -1.61855 3.066 0
M  V30 1590 C 144.082 -1.04429 4.16405 0
M  V30 1591 C 143.315 -2.11621 4.89951 0
M  V30 1592 O 143.538 -3.32684 4.63333 0
M  V30 1593 O 142.472 -1.74835 5.75948 0
M  V30 1594 H 146.298 0.125331 3.03441 0
M  V30 1595 H 143.883 0.127253 1.48857 0
M  V30 1596 H 145.765 -2.27302 3.54841 0
M  V30 1597 H 144.44 -2.22233 2.3536 0
M  V30 1598 H 143.347 -0.353819 3.72423 0
M  V30 1599 H 144.68 -0.485113 4.89804 0
M  V30 1600 N 146.332 -1.57332 0.0918853 0
M  V30 1601 C 147.295 -2.12708 -0.85369 0
M  V30 1602 C 148.295 -1.05561 -1.213 0
M  V30 1603 O 149.485 -1.31461 -1.14296 0
M  V30 1604 C 146.617 -2.64503 -2.15061 0
M  V30 1605 H 147.81 -2.97573 -0.3729 0
M  V30 1606 H 145.363 -1.55509 -0.157072 0
M  V30 1607 H 146.098 -1.83149 -2.67632 0
M  V30 1608 H 145.883 -3.4284 -1.90272 0
M  V30 1609 H 147.373 -3.07351 -2.82711 0
M  V30 1610 N 147.81 0.181792 -1.56548 0
M  V30 1611 C 148.74 1.22765 -1.98623 0
M  V30 1612 C 149.721 1.46747 -0.860189 0
M  V30 1613 O 150.906 1.58259 -1.12551 0
M  V30 1614 C 148.036 2.56894 -2.33715 0
M  V30 1615 C 146.99 2.475 -3.49182 0
M  V30 1616 C 146.316 3.86023 -3.69986 0
M  V30 1617 C 147.616 1.98866 -4.82959 0
M  V30 1618 H 149.31 0.877942 -2.86239 0
M  V30 1619 H 146.856 0.42088 -1.37712 0
M  V30 1620 H 148.809 3.30253 -2.61746 0
M  V30 1621 H 147.533 2.93632 -1.42997 0
M  V30 1622 H 146.192 1.76596 -3.21262 0
M  V30 1623 H 145.84 4.20136 -2.76576 0
M  V30 1624 H 145.54 3.80609 -4.47672 0
M  V30 1625 H 147.064 4.60984 -4.00407 0
M  V30 1626 H 148.478 2.61992 -5.09934 0
M  V30 1627 H 146.875 2.04424 -5.64208 0
M  V30 1628 H 147.945 0.942465 -4.75653 0
M  V30 1629 N 149.288 1.51039 0.449983 0
M  V30 1630 C 150.198 1.74261 1.57067 0
M  V30 1631 C 151.214 0.626363 1.62335 0
M  V30 1632 O 152.39 0.907162 1.79812 0
M  V30 1633 C 149.455 1.85114 2.93144 0
M  V30 1634 C 148.516 3.0893 2.98095 0
M  V30 1635 C 147.749 3.19256 4.27681 0
M  V30 1636 O 147.972 2.35835 5.19363 0
M  V30 1637 O 146.906 4.12144 4.38658 0
M  V30 1638 H 150.732 2.69303 1.40391 0
M  V30 1639 H 148.317 1.35389 0.631688 0
M  V30 1640 H 150.199 1.94311 3.73926 0
M  V30 1641 H 148.874 0.932588 3.09975 0
M  V30 1642 H 147.781 3.0522 2.16314 0
M  V30 1643 H 149.114 4.00433 2.86206 0
M  V30 1644 N 150.766 -0.704594 1.40972 0
M  V30 1645 C 151.713 -1.81862 1.42109 0
M  V30 1646 C 152.683 -1.63781 0.276593 0
M  V30 1647 O 153.868 -1.84759 0.4763 0
M  V30 1648 C 151.008 -3.19669 1.30022 0
M  V30 1649 C 150.121 -3.49246 2.54267 0
M  V30 1650 C 149.256 -4.76618 2.3454 0
M  V30 1651 C 148.295 -4.99133 3.54306 0
M  V30 1652 N 147.432 -6.17726 3.33706 0
M  V30 1653 H 152.272 -1.80226 2.37324 0
M  V30 1654 H 149.809 -0.880238 1.17857 0
M  V30 1655 H 151.767 -3.99263 1.21018 0
M  V30 1656 H 150.397 -3.20506 0.384192 0
M  V30 1657 H 149.449 -2.64125 2.73756 0
M  V30 1658 H 150.761 -3.61788 3.43381 0
M  V30 1659 H 149.915 -5.64249 2.22952 0
M  V30 1660 H 148.654 -4.66305 1.42867 0
M  V30 1661 H 147.659 -4.09953 3.66359 0
M  V30 1662 H 148.884 -5.11311 4.4692 0
M  V30 1663 H 146.83 -6.08642 2.44725 0
M  V30 1664 H 146.747 -6.30995 4.16391 0
M  V30 1665 H 148.015 -7.08115 3.25873 0
M  V30 1666 N 152.244 -1.26651 -0.937939 0
M  V30 1667 C 153.493 -1.11775 -1.67897 0
M  V30 1668 C 153.806 0.33794 -1.92659 0
M  V30 1669 O 155.012 0.607434 -2.64618 0
M  V30 1670 C 153.468 -1.9523 -3.02346 0
M  V30 1671 C 153.076 -3.45393 -2.8532 0
M  V30 1672 C 154.82 -1.88972 -3.80118 0
M  V30 1673 C 152.727 -4.21083 -4.15263 0
M  V30 1674 H 151.657 -0.414696 -0.629717 0
M  V30 1675 H 154.308 -1.50988 -1.04283 0
M  V30 1676 H 152.69 -1.48853 -3.66959 0
M  V30 1677 H 153.864 -3.99561 -2.29537 0
M  V30 1678 H 152.179 -3.52921 -2.20988 0
M  V30 1679 H 154.776 -2.42805 -4.76392 0
M  V30 1680 H 155.119 -0.86113 -4.07296 0
M  V30 1681 H 155.652 -2.33189 -3.22285 0
M  V30 1682 H 152.391 -5.24425 -3.93267 0
M  V30 1683 H 151.911 -3.71695 -4.70747 0
M  V30 1684 H 153.59 -4.29706 -4.83696 0
M  V30 1685 N 153.722 1.14298 -1.08507 0
M  V30 1686 C 154.632 2.23027 -0.727753 0
M  V30 1687 C 155.648 1.71952 0.26619 0
M  V30 1688 O 156.824 2.011 0.109882 0
M  V30 1689 C 153.889 3.46403 -0.143541 0
M  V30 1690 C 152.95 4.12413 -1.19223 0
M  V30 1691 C 152.183 5.29899 -0.635798 0
M  V30 1692 O 152.406 5.67796 0.544393 0
M  V30 1693 O 151.34 5.85717 -1.38634 0
M  V30 1694 H 155.166 2.55945 -1.63481 0
M  V30 1695 H 152.751 1.22248 -0.858817 0
M  V30 1696 H 154.633 4.21018 0.179404 0
M  V30 1697 H 153.308 3.15206 0.736659 0
M  V30 1698 H 152.215 3.39667 -1.56772 0
M  V30 1699 H 153.548 4.47718 -2.04474 0
M  V30 1700 N 155.201 0.870884 1.31352 0
M  V30 1701 C 156.111 0.330783 2.32256 0
M  V30 1702 C 157.127 -0.559767 1.6475 0
M  V30 1703 O 158.303 -0.456263 1.96164 0
M  V30 1704 C 155.368 -0.458137 3.4366 0
M  V30 1705 C 154.429 0.460482 4.26823 0
M  V30 1706 C 153.662 -0.290881 5.32907 0
M  V30 1707 O 153.885 -1.51885 5.49806 0
M  V30 1708 O 152.819 0.351732 6.00871 0
M  V30 1709 H 156.645 1.16718 2.80376 0
M  V30 1710 H 154.23 0.634285 1.35267 0
M  V30 1711 H 156.112 -0.905343 4.1156 0
M  V30 1712 H 154.787 -1.27106 2.97701 0
M  V30 1713 H 153.694 0.956207 3.61673 0
M  V30 1714 H 155.027 1.23903 4.7635 0
M  V30 1715 N 156.679 -1.44442 0.630414 0
M  V30 1716 C 157.589 -2.34476 -0.0761693 0
M  V30 1717 C 158.605 -1.52576 -0.836449 0
M  V30 1718 O 159.781 -1.85307 -0.788874 0
M  V30 1719 C 156.846 -3.30545 -1.04599 0
M  V30 1720 C 155.907 -4.28352 -0.28516 0
M  V30 1721 C 155.14 -5.19831 -1.20878 0
M  V30 1722 O 155.363 -5.15223 -2.44747 0
M  V30 1723 O 154.297 -5.97892 -0.693491 0
M  V30 1724 H 158.123 -2.96345 0.664324 0
M  V30 1725 H 155.708 -1.44203 0.39061 0
M  V30 1726 H 157.59 -3.89681 -1.60396 0
M  V30 1727 H 156.265 -2.7121 -1.76711 0
M  V30 1728 H 155.172 -3.72764 0.315837 0
M  V30 1729 H 156.505 -4.90605 0.395924 0
M  V30 1730 N 158.157 -0.370918 -1.53173 0
M  V30 1731 C 159.089 0.507823 -2.23503 0
M  V30 1732 C 160.102 1.04182 -1.251 0
M  V30 1733 O 161.291 0.947286 -1.5129 0
M  V30 1734 C 158.391 1.71447 -2.92334 0
M  V30 1735 C 157.564 1.31105 -4.17289 0
M  V30 1736 C 156.623 2.38035 -4.69282 0
M  V30 1737 O 155.649 2.00204 -5.32829 0
M  V30 1738 N 156.851 3.69697 -4.47554 0
M  V30 1739 H 159.616 -0.0946382 -2.99551 0
M  V30 1740 H 157.177 -0.196358 -1.60705 0
M  V30 1741 H 159.169 2.42469 -3.24023 0
M  V30 1742 H 157.739 2.22368 -2.19707 0
M  V30 1743 H 156.959 0.430462 -3.91843 0
M  V30 1744 H 158.247 1.0179 -4.98514 0
M  V30 1745 H 157.645 4.03205 -3.9679 0
M  V30 1746 H 156.202 4.36807 -4.8378 0
M  V30 1747 N 159.635 1.57281 -0.100228 0
M  V30 1748 C 160.583 2.15542 0.874328 0
M  V30 1749 C 161.577 1.09962 1.28859 0
M  V30 1750 O 162.783 1.28298 1.26252 0
M  V30 1751 H 159.158 0.689567 0.300003 0
M  V30 1752 H 161.129 2.96241 0.35829 0
M  V30 1753 C 159.878 2.75454 2.1218 0
M  V30 1754 H 159.201 3.56384 1.81193 0
M  V30 1755 H 160.641 3.19781 2.78417 0
M  V30 1756 C 159.1 1.71602 2.89921 0
M  V30 1757 O 159.63 1.15804 3.84646 0
M  V30 1758 N 157.836 1.41975 2.53558 0
M  V30 1759 H 157.383 1.87539 1.76598 0
M  V30 1760 H 157.341 0.727274 3.05873 0
M  V30 1761 N 161.113 -0.173488 1.56642 0
M  V30 1762 C 162.06 -1.21482 1.96242 0
M  V30 1763 C 163.03 -1.44104 0.826027 0
M  V30 1764 O 164.215 -1.5688 1.08597 0
M  V30 1765 C 161.355 -2.54964 2.32567 0
M  V30 1766 C 160.468 -2.39739 3.59373 0
M  V30 1767 C 159.603 -3.66072 3.84921 0
M  V30 1768 C 158.642 -3.45771 5.05083 0
M  V30 1769 N 157.779 -4.64169 5.26775 0
M  V30 1770 H 162.619 -0.870123 2.85014 0
M  V30 1771 H 160.156 -0.418245 1.41029 0
M  V30 1772 H 162.114 -3.32758 2.5165 0
M  V30 1773 H 160.744 -2.87433 1.46908 0
M  V30 1774 H 159.796 -1.53131 3.48217 0
M  V30 1775 H 161.108 -2.20683 4.47326 0
M  V30 1776 H 160.262 -4.52303 4.0436 0
M  V30 1777 H 159.001 -3.88105 2.9534 0
M  V30 1778 H 158.006 -2.57927 4.85545 0
M  V30 1779 H 159.231 -3.25163 5.96193 0
M  V30 1780 H 157.177 -4.86425 4.40144 0
M  V30 1781 H 157.094 -4.48019 6.08946 0
M  V30 1782 H 158.362 -5.51689 5.5069 0
M  V30 1783 N 162.591 -1.51276 -0.441967 0
M  V30 1784 C 163.816 -1.67799 -1.21895 0
M  V30 1785 C 164.241 -0.372864 -1.84367 0
M  V30 1786 O 163.599 0.666501 -1.68604 0
M  V30 1787 C 163.647 -2.79199 -2.28211 0
M  V30 1788 O 162.751 -2.42479 -3.33583 0
M  V30 1789 H 162.092 -0.559649 -0.357336 0
M  V30 1790 H 164.622 -1.97815 -0.522522 0
M  V30 1791 H 164.632 -3.03146 -2.73069 0
M  V30 1792 H 163.307 -3.73906 -1.82118 0
M  V30 1793 H 161.884 -2.29087 -2.94234 0
M  V30 1794 N 164.069 0.697108 -1.41344 0
M  V30 1795 C 165.016 1.81106 -1.43071 0
M  V30 1796 C 165.986 1.63632 -0.285275 0
M  V30 1797 O 167.171 1.84504 -0.486091 0
M  V30 1798 C 164.311 3.18975 -1.31715 0
M  V30 1799 C 163.424 3.47892 -2.56115 0
M  V30 1800 C 162.559 4.75367 -2.37064 0
M  V30 1801 C 161.598 4.97247 -3.56948 0
M  V30 1802 N 160.735 6.15947 -3.36977 0
M  V30 1803 H 165.575 1.78965 -2.38276 0
M  V30 1804 H 163.112 0.873975 -1.18322 0
M  V30 1805 H 165.07 3.98615 -1.23133 0
M  V30 1806 H 163.7 3.20297 -0.401183 0
M  V30 1807 H 162.752 2.62669 -2.75153 0
M  V30 1808 H 164.064 3.59962 -3.45295 0
M  V30 1809 H 163.218 5.63059 -2.25941 0
M  V30 1810 H 161.957 4.65541 -1.45338 0
M  V30 1811 H 160.962 4.08004 -3.68527 0
M  V30 1812 H 162.187 5.08934 -4.49626 0
M  V30 1813 H 160.133 6.07336 -2.47949 0
M  V30 1814 H 160.05 6.28777 -4.19732 0
M  V30 1815 H 161.318 7.06377 -3.29623 0
M  V30 1816 N 165.547 1.27147 0.931209 0
M  V30 1817 C 166.494 1.09568 2.03134 0
M  V30 1818 C 167.464 -0.00222433 1.661 0
M  V30 1819 O 168.649 0.159439 1.90133 0
M  V30 1820 C 165.789 0.745231 3.36957 0
M  V30 1821 C 164.902 1.92041 3.86968 0
M  V30 1822 C 164.037 1.51216 5.09222 0
M  V30 1823 C 163.076 2.65504 5.5152 0
M  V30 1824 N 162.213 2.25291 6.64972 0
M  V30 1825 H 167.053 2.03708 2.17502 0
M  V30 1826 H 164.59 1.01411 1.06556 0
M  V30 1827 H 166.548 0.522878 4.1391 0
M  V30 1828 H 165.178 -0.159202 3.22407 0
M  V30 1829 H 164.23 2.25541 3.06326 0
M  V30 1830 H 165.542 2.77787 4.1429 0
M  V30 1831 H 164.696 1.25084 5.93666 0
M  V30 1832 H 163.435 0.625749 4.83669 0
M  V30 1833 H 162.44 2.92354 4.65628 0
M  V30 1834 H 163.665 3.54761 5.7907 0
M  V30 1835 H 161.611 1.39098 6.41083 0
M  V30 1836 H 161.528 3.04577 6.91931 0
M  V30 1837 H 162.796 2.02398 7.52765 0
M  V30 1838 N 167.025 -1.13721 1.09112 0
M  V30 1839 C 167.972 -2.19031 0.727591 0
M  V30 1840 C 168.942 -1.63555 -0.289656 0
M  V30 1841 O 170.127 -1.90023 -0.172026 0
M  V30 1842 C 167.267 -3.4477 0.15082 0
M  V30 1843 C 166.38 -4.14365 1.22172 0
M  V30 1844 C 165.515 -5.27709 0.608042 0
M  V30 1845 C 164.554 -5.89147 1.66047 0
M  V30 1846 N 163.691 -6.93929 1.06806 0
M  V30 1847 H 168.531 -2.49475 1.62991 0
M  V30 1848 H 166.068 -1.22499 0.81439 0
M  V30 1849 H 168.026 -4.16714 -0.201358 0
M  V30 1850 H 166.656 -3.14787 -0.714783 0
M  V30 1851 H 165.708 -3.40737 1.69122 0
M  V30 1852 H 167.02 -4.56114 2.01895 0
M  V30 1853 H 166.174 -6.06355 0.204523 0
M  V30 1854 H 164.913 -4.872 -0.220769 0
M  V30 1855 H 163.918 -5.09198 2.07357 0
M  V30 1856 H 165.143 -6.31729 2.49189 0
M  V30 1857 H 163.089 -6.55483 0.260476 0
M  V30 1858 H 163.006 -7.34202 1.8023 0
M  V30 1859 H 164.274 -7.76434 0.690644 0
M  V30 1860 N 168.503 -0.877838 -1.30888 0
M  V30 1861 C 169.466 -0.344265 -2.266 0
M  V30 1862 C 170.466 0.50922 -1.52524 0
M  V30 1863 O 171.656 0.317398 -1.71284 0
M  V30 1864 C 168.788 0.510198 -3.37061 0
M  V30 1865 H 169.981 -1.1893 -2.7531 0
M  V30 1866 H 167.534 -0.654088 -1.41956 0
M  V30 1867 H 168.269 1.37612 -2.93655 0
M  V30 1868 H 168.054 -0.101047 -3.9197 0
M  V30 1869 H 169.544 0.875537 -4.08319 0
M  V30 1870 N 169.982 1.44106 -0.638065 0
M  V30 1871 C 170.914 2.28976 0.101205 0
M  V30 1872 C 171.927 1.4167 0.802088 0
M  V30 1873 O 173.116 1.65755 0.662375 0
M  V30 1874 C 170.216 3.18217 1.16581 0
M  V30 1875 C 169.389 4.33978 0.546066 0
M  V30 1876 C 168.448 5.04202 1.50554 0
M  V30 1877 O 167.474 5.59986 1.01999 0
M  V30 1878 N 168.676 5.06296 2.8398 0
M  V30 1879 H 171.441 2.93064 -0.627186 0
M  V30 1880 H 169.002 1.54629 -0.479731 0
M  V30 1881 H 170.994 3.62061 1.80815 0
M  V30 1882 H 169.564 2.55833 1.79634 0
M  V30 1883 H 168.784 3.93239 -0.275046 0
M  V30 1884 H 170.072 5.08675 0.112793 0
M  V30 1885 H 169.47 4.62319 3.26002 0
M  V30 1886 H 168.027 5.53907 3.43556 0
M  V30 1887 N 171.46 0.379036 1.52974 0
M  V30 1888 C 172.392 -0.495963 2.2377 0
M  V30 1889 C 173.405 -1.03517 1.25651 0
M  V30 1890 O 174.594 -0.939249 1.51791 0
M  V30 1891 C 171.694 -1.69894 2.93239 0
M  V30 1892 C 170.867 -1.2889 4.17979 0
M  V30 1893 C 169.926 -2.35543 4.70538 0
M  V30 1894 O 168.952 -1.97375 5.33883 0
M  V30 1895 N 170.154 -3.67318 4.49508 0
M  V30 1896 H 172.919 0.110523 2.99496 0
M  V30 1897 H 170.48 0.204878 1.60598 0
M  V30 1898 H 172.472 -2.40747 3.25304 0
M  V30 1899 H 171.042 -2.212 2.20883 0
M  V30 1900 H 170.262 -0.409676 3.92065 0
M  V30 1901 H 171.55 -0.991443 4.99047 0
M  V30 1902 H 170.948 -4.01095 3.98923 0
M  V30 1903 H 169.505 -4.34235 4.8609 0
M  V30 1904 N 172.938 -1.57226 0.108567 0
M  V30 1905 C 173.901 -2.13602 -0.831082 0
M  V30 1906 C 174.901 -1.06841 -1.20173 0
M  V30 1907 O 176.091 -1.32666 -1.12895 0
M  V30 1908 C 173.223 -2.66769 -2.12243 0
M  V30 1909 H 174.416 -2.97951 -0.341317 0
M  V30 1910 H 171.969 -1.55667 -0.14057 0
M  V30 1911 H 172.704 -1.85977 -2.65675 0
M  V30 1912 H 172.489 -3.44839 -1.86625 0
M  V30 1913 H 173.979 -3.10332 -2.79435 0
M  V30 1914 N 174.416 0.165178 -1.56732 0
M  V30 1915 C 175.379 1.18822 -1.95995 0
M  V30 1916 C 176.379 1.3685 -0.84431 0
M  V30 1917 O 177.569 1.34152 -1.11126 0
M  V30 1918 C 174.701 2.5521 -2.26011 0
M  V30 1919 H 175.894 0.851825 -2.87548 0
M  V30 1920 H 173.447 0.407857 -1.50885 0
M  V30 1921 H 174.182 2.93852 -1.37191 0
M  V30 1922 H 173.967 2.43489 -3.07336 0
M  V30 1923 H 175.457 3.28927 -2.57288 0
M  V30 1924 N 175.894 1.51508 0.433938 0
M  V30 1925 C 176.857 1.72473 1.50949 0
M  V30 1926 C 177.857 0.594725 1.49398 0
M  V30 1927 O 179.047 0.862315 1.5136 0
M  V30 1928 C 176.179 1.78431 2.90474 0
M  V30 1929 H 177.372 2.68467 1.33662 0
M  V30 1930 H 174.925 1.41549 0.662836 0
M  V30 1931 H 175.66 0.842645 3.13161 0
M  V30 1932 H 175.445 2.60558 2.93005 0
M  V30 1933 H 176.935 1.96479 3.68491 0
M  V30 1934 N 177.372 -0.689602 1.41712 0
M  V30 1935 C 178.649 -1.44457 1.31877 0
M  V30 1936 C 179.029 -2.11039 -0.0508537 0
M  V30 1937 O 178.377 -2.02138 -1.06547 0
M  V30 1938 C 178.587 -2.45913 2.47645 0
M  V30 1939 C 179.935 -3.10991 2.89084 0
M  V30 1940 O 180.959 -2.56238 2.47428 0
M  V30 1941 O 179.818 -4.10174 3.61137 0
M  V30 1942 H 176.912 -0.64362 0.519309 0
M  V30 1943 H 179.458 -0.719576 1.53689 0
M  V30 1944 H 178.23 -1.95409 3.39015 0
M  V30 1945 H 177.853 -3.25913 2.27742 0
M  V30 1946 N 178.85 -1.27639 -0.924453 0
M  V30 1947 C 180.078 -1.16989 -1.70649 0
M  V30 1948 C 180.493 0.272869 -1.86818 0
M  V30 1949 O 179.85 1.18549 -1.38753 0
M  V30 1950 C 179.901 -1.85229 -3.10439 0
M  V30 1951 O 179.622 -3.23868 -2.95028 0
M  V30 1952 C 181.123 -1.80746 -4.04779 0
M  V30 1953 H 178.343 -0.406595 -0.53378 0
M  V30 1954 H 180.887 -1.68569 -1.15778 0
M  V30 1955 H 179.042 -1.37545 -3.6216 0
M  V30 1956 H 179.456 -3.57889 -3.83426 0
M  V30 1957 H 180.93 -2.33101 -5.00368 0
M  V30 1958 H 181.407 -0.777499 -4.32263 0
M  V30 1959 H 182.013 -2.28059 -3.58984 0
M  V30 1960 N 180.328 1.1314 -1.09713 0
M  V30 1961 C 181.576 1.84119 -0.833338 0
M  V30 1962 C 181.897 1.84097 0.642904 0
M  V30 1963 O 181.167 1.29881 1.46655 0
M  V30 1964 H 179.747 0.681766 -0.305293 0
M  V30 1965 H 182.409 1.37038 -1.38588 0
M  V30 1966 H 181.505 2.88543 -1.18951 0
M  V30 1967 N 181.806 0.884767 1.30421 0
M  V30 1968 C 182.754 0.340869 2.30089 0
M  V30 1969 C 183.748 -0.55201 1.60154 0
M  V30 1970 O 184.954 -0.436467 1.74628 0
M  V30 1971 H 181.329 0.0915739 0.746404 0
M  V30 1972 H 183.3 1.19513 2.73421 0
M  V30 1973 C 182.049 -0.429779 3.45034 0
M  V30 1974 H 181.372 0.248024 3.9903 0
M  V30 1975 H 182.812 -0.775445 4.16849 0
M  V30 1976 C 181.271 -1.62677 2.95022 0
M  V30 1977 O 181.801 -2.72614 2.95033 0
M  V30 1978 N 180.007 -1.46387 2.51036 0
M  V30 1979 H 179.554 -0.569506 2.51226 0
M  V30 1980 H 179.512 -2.26612 2.17932 0
M  V30 1981 N 183.284 -1.43765 0.645699 0
M  V30 1982 C 184.509 -2.06767 0.161883 0
M  V30 1983 C 184.934 -1.48034 -1.16049 0
M  V30 1984 O 184.292 -0.587369 -1.71522 0
M  V30 1985 C 184.34 -3.60519 0.0762003 0
M  V30 1986 O 183.444 -4.00982 -0.963721 0
M  V30 1987 H 182.785 -0.657675 0.091429 0
M  V30 1988 H 185.315 -1.84397 0.886499 0
M  V30 1989 H 185.325 -4.07853 -0.109604 0
M  V30 1990 H 184 -4.02646 1.04157 0
M  V30 1991 H 182.577 -3.65253 -0.751312 0
M  V30 1992 N 184.763 -0.387143 -1.52771 0
M  V30 1993 C 185.988 0.198407 -2.06449 0
M  V30 1994 C 186.413 1.39918 -1.25716 0
M  V30 1995 O 185.771 1.79099 -0.281657 0
M  V30 1996 C 185.819 0.548893 -3.56398 0
M  V30 1997 O 184.923 1.64315 -3.78252 0
M  V30 1998 H 184.264 0.0237731 -0.663574 0
M  V30 1999 H 186.794 -0.553989 -1.96957 0
M  V30 2000 H 186.804 0.813812 -3.99801 0
M  V30 2001 H 185.479 -0.329005 -4.14597 0
M  V30 2002 H 184.056 1.37211 -3.46738 0
M  V30 2003 N 186.241 1.57166 -0.116904 0
M  V30 2004 C 187.173 2.12271 0.864507 0
M  V30 2005 C 188.186 1.06494 1.23138 0
M  V30 2006 O 189.375 1.33873 1.18069 0
M  V30 2007 C 186.475 2.60564 2.16702 0
M  V30 2008 C 185.648 3.90416 1.97216 0
M  V30 2009 C 184.707 4.24329 3.11178 0
M  V30 2010 O 183.733 4.93182 2.84184 0
M  V30 2011 N 184.935 3.8148 4.37554 0
M  V30 2012 H 187.7 2.97102 0.393726 0
M  V30 2013 H 185.261 1.61759 0.0675805 0
M  V30 2014 H 187.253 2.80282 2.91932 0
M  V30 2015 H 185.823 1.80623 2.55135 0
M  V30 2016 H 185.043 3.79627 1.06192 0
M  V30 2017 H 186.331 4.75327 1.81499 0
M  V30 2018 H 185.729 3.25943 4.62361 0
M  V30 2019 H 184.286 4.06311 5.09661 0
M  V30 2020 N 187.719 -0.156864 1.56817 0
M  V30 2021 C 188.965 -0.872416 1.83076 0
M  V30 2022 C 189.298 -1.81261 0.697001 0
M  V30 2023 O 188.573 -1.92171 -0.30008 0
M  V30 2024 C 188.856 -1.65551 3.19789 0
M  V30 2025 C 188.709 -0.737467 4.43713 0
M  V30 2026 C 190.028 -2.62012 3.53606 0
M  V30 2027 H 187.147 -0.315715 0.665953 0
M  V30 2028 H 189.789 -0.138004 1.89498 0
M  V30 2029 H 187.939 -2.28159 3.14445 0
M  V30 2030 H 189.611 -0.123143 4.61136 0
M  V30 2031 H 187.854 -0.0464067 4.33775 0
M  V30 2032 H 188.525 -1.32122 5.35955 0
M  V30 2033 H 191.001 -2.09525 3.59497 0
M  V30 2034 H 189.877 -3.13861 4.50314 0
M  V30 2035 H 190.138 -3.42902 2.79053 0
M  V30 2036 N 189.197 -1.51736 -0.425897 0
M  V30 2037 C 190.422 -1.69082 -1.20108 0
M  V30 2038 C 190.847 -0.392398 -1.83962 0
M  V30 2039 O 190.205 0.64858 -1.69302 0
M  V30 2040 C 190.253 -2.81604 -2.25237 0
M  V30 2041 O 189.357 -2.46004 -3.30992 0
M  V30 2042 H 188.698 -0.563408 -0.35138 0
M  V30 2043 H 191.228 -1.98358 -0.501512 0
M  V30 2044 H 191.238 -3.06025 -2.69838 0
M  V30 2045 H 189.913 -3.75817 -1.78142 0
M  V30 2046 H 188.49 -2.32195 -2.91787 0
M  V30 2047 N 190.675 0.682077 -1.42076 0
M  V30 2048 C 191.607 1.80755 -1.40926 0
M  V30 2049 C 192.62 1.59833 -0.309398 0
M  V30 2050 O 193.809 1.69087 -0.572014 0
M  V30 2051 C 190.909 3.17744 -1.17865 0
M  V30 2052 C 190.082 3.65578 -2.40149 0
M  V30 2053 C 189.141 4.81277 -2.12742 0
M  V30 2054 O 188.167 4.92197 -2.85887 0
M  V30 2055 N 189.369 5.69474 -1.12602 0
M  V30 2056 H 192.134 1.82229 -2.37935 0
M  V30 2057 H 189.695 0.864903 -1.36861 0
M  V30 2058 H 191.687 3.9279 -0.9746 0
M  V30 2059 H 190.257 3.11214 -0.294068 0
M  V30 2060 H 189.477 2.81291 -2.76169 0
M  V30 2061 H 190.765 3.94278 -3.21593 0
M  V30 2062 H 190.163 5.63297 -0.520899 0
M  V30 2063 H 188.72 6.44363 -0.981842 0
M  V30 2064 N 192.153 1.28127 0.917671 0
M  V30 2065 C 193.101 1.11569 2.04096 0
M  V30 2066 C 194.095 0.0360242 1.69362 0
M  V30 2067 O 195.301 0.194501 1.78946 0
M  V30 2068 H 191.676 0.344097 0.668656 0
M  V30 2069 H 193.647 2.06711 2.15205 0
M  V30 2070 C 192.396 0.790197 3.38602 0
M  V30 2071 H 191.719 1.61293 3.6582 0
M  V30 2072 H 193.159 0.714271 4.1794 0
M  V30 2073 C 191.618 -0.505897 3.3308 0
M  V30 2074 O 192.148 -1.53736 3.71117 0
M  V30 2075 N 190.354 -0.505193 2.86175 0
M  V30 2076 H 189.901 0.334621 2.55417 0
M  V30 2077 H 189.859 -1.37243 2.82863 0
M  V30 2078 N 193.631 -1.12557 1.10312 0
M  V30 2079 C 194.861 -1.87592 0.865617 0
M  V30 2080 C 195.269 -1.79851 -0.587389 0
M  V30 2081 O 194.612 -1.16949 -1.41664 0
M  V30 2082 C 194.674 -3.37665 1.23381 0
M  V30 2083 C 194.338 -3.69181 2.69359 0
M  V30 2084 C 195.335 -3.67652 3.67597 0
M  V30 2085 C 193.02 -3.98555 3.05711 0
M  V30 2086 C 195.014 -3.95053 5.00212 0
M  V30 2087 C 192.701 -4.25616 4.38514 0
M  V30 2088 C 193.699 -4.23851 5.35574 0
M  V30 2089 O 193.387 -4.50242 6.65986 0
M  V30 2090 H 193.119 -0.600442 0.310557 0
M  V30 2091 H 195.673 -1.4335 1.47105 0
M  V30 2092 H 193.903 -3.82454 0.571467 0
M  V30 2093 H 195.592 -3.94041 0.973994 0
M  V30 2094 H 196.358 -3.45024 3.40857 0
M  V30 2095 H 192.237 -3.99071 2.30789 0
M  V30 2096 H 195.781 -3.93591 5.75962 0
M  V30 2097 H 191.678 -4.47718 4.64994 0
M  V30 2098 H 192.446 -4.67867 6.71597 0
M  V30 2099 N 195.109 -0.891671 -1.2995 0
M  V30 2100 C 196.52 -0.563104 -1.78006 0
M  V30 2101 C 196.871 0.920978 -1.73241 0
M  V30 2102 O 195.996 1.71987 -1.31337 0
M  V30 2103 C 196.591 -1.01539 -3.23226 0
M  V30 2104 C 195.15 -0.738124 -3.69092 0
M  V30 2105 C 194.297 -1.19461 -2.50249 0
M  V30 2106 H 197.248 -1.07522 -1.16725 0
M  V30 2107 H 197.269 -0.347217 -3.78912 0
M  V30 2108 H 196.781 -2.09555 -3.26662 0
M  V30 2109 H 194.882 0.329766 -3.71138 0
M  V30 2110 H 194.995 -1.33037 -4.60259 0
M  V30 2111 H 193.359 -0.613787 -2.47194 0
M  V30 2112 H 194.142 -2.28265 -2.56417 0
M  V30 2113 N 196.587 1.43421 -0.653314 0
M  V30 2114 C 197.836 2.01032 -0.164076 0
M  V30 2115 C 198.149 1.52147 1.22926 0
M  V30 2116 O 199.355 2.02031 1.81371 0
M  V30 2117 C 197.811 3.59082 -0.24252 0
M  V30 2118 C 197.419 4.1696 -1.63855 0
M  V30 2119 C 199.163 4.24079 0.18911 0
M  V30 2120 C 197.07 5.67304 -1.67092 0
M  V30 2121 H 196 0.751798 -0.0575769 0
M  V30 2122 H 198.651 1.6439 -0.815362 0
M  V30 2123 H 197.033 3.93125 0.476276 0
M  V30 2124 H 198.207 3.94416 -2.38271 0
M  V30 2125 H 196.522 3.64335 -2.01616 0
M  V30 2126 H 199.119 5.34381 0.184775 0
M  V30 2127 H 199.462 3.98005 1.22056 0
M  V30 2128 H 199.995 3.94918 -0.477938 0
M  V30 2129 H 196.734 5.98145 -2.68146 0
M  V30 2130 H 196.254 5.91904 -0.970014 0
M  V30 2131 H 197.933 6.31344 -1.4147 0
M  V30 2132 N 198.065 0.39524 1.52563 0
M  V30 2133 C 199.311 -0.185318 2.01952 0
M  V30 2134 C 199.644 -1.45964 1.28095 0
M  V30 2135 O 198.919 -1.90689 0.38315 0
M  V30 2136 C 199.202 -0.447193 3.57312 0
M  V30 2137 C 199.055 0.842828 4.41833 0
M  V30 2138 C 200.374 -1.23529 4.22408 0
M  V30 2139 H 197.493 -0.0658788 0.73405 0
M  V30 2140 H 200.135 0.525975 1.82575 0
M  V30 2141 H 198.285 -1.05312 3.73954 0
M  V30 2142 H 199.957 1.4795 4.36931 0
M  V30 2143 H 198.2 1.45686 4.08605 0
M  V30 2144 H 198.871 0.614165 5.48573 0
M  V30 2145 H 201.347 -0.722445 4.0978 0
M  V30 2146 H 200.223 -1.38727 5.3108 0
M  V30 2147 H 200.484 -2.25213 3.80436 0
M  V30 2148 N 199.544 -1.57102 0.125237 0
M  V30 2149 C 200.476 -2.12726 -0.853237 0
M  V30 2150 C 201.489 -1.07145 -1.22571 0
M  V30 2151 O 202.678 -1.34497 -1.17358 0
M  V30 2152 C 199.778 -2.61709 -2.15317 0
M  V30 2153 C 198.951 -3.91456 -1.95143 0
M  V30 2154 C 198.01 -4.25973 -3.08923 0
M  V30 2155 O 197.036 -4.94682 -2.81564 0
M  V30 2156 N 198.238 -3.83795 -4.35524 0
M  V30 2157 H 201.003 -2.97307 -0.377964 0
M  V30 2158 H 198.564 -1.61792 -0.0590011 0
M  V30 2159 H 200.556 -2.81826 -2.90441 0
M  V30 2160 H 199.126 -1.81974 -2.54174 0
M  V30 2161 H 198.346 -3.80185 -1.04177 0
M  V30 2162 H 199.634 -4.76283 -1.78976 0
M  V30 2163 H 199.032 -3.2839 -4.60626 0
M  V30 2164 H 197.589 -4.09008 -5.07499 0
M  V30 2165 N 201.022 0.148545 -1.56898 0
M  V30 2166 C 201.97 1.20265 -1.99096 0
M  V30 2167 C 202.964 1.44559 -0.883123 0
M  V30 2168 O 204.17 1.4487 -1.0683 0
M  V30 2169 H 200.545 0.404786 -0.63376 0
M  V30 2170 H 202.516 0.82004 -2.86911 0
M  V30 2171 C 201.265 2.52886 -2.3863 0
M  V30 2172 H 200.588 2.35021 -3.23427 0
M  V30 2173 H 202.028 3.25274 -2.7198 0
M  V30 2174 C 200.487 3.13315 -1.23837 0
M  V30 2175 O 201.017 3.98077 -0.538268 0
M  V30 2176 N 199.223 2.72742 -1.00301 0
M  V30 2177 H 198.77 2.03912 -1.5741 0
M  V30 2178 H 198.728 3.13507 -0.236838 0
M  V30 2179 N 202.5 1.5196 0.417844 0
M  V30 2180 C 203.43 1.77634 1.51554 0
M  V30 2181 C 204.411 0.626918 1.58126 0
M  V30 2182 O 205.596 0.871632 1.7354 0
M  V30 2183 C 202.726 1.91911 2.8946 0
M  V30 2184 C 201.68 3.07463 2.97743 0
M  V30 2185 C 201.006 3.06951 4.37819 0
M  V30 2186 C 202.306 4.47082 2.70027 0
M  V30 2187 H 204 2.6955 1.3032 0
M  V30 2188 H 201.546 1.29706 0.625492 0
M  V30 2189 H 203.499 2.08455 3.6623 0
M  V30 2190 H 202.223 0.966598 3.11969 0
M  V30 2191 H 200.882 2.90656 2.23416 0
M  V30 2192 H 200.53 2.09438 4.57323 0
M  V30 2193 H 200.23 3.84556 4.44286 0
M  V30 2194 H 201.754 3.25613 5.16535 0
M  V30 2195 H 203.168 4.6414 3.36522 0
M  V30 2196 H 201.565 5.2654 2.87881 0
M  V30 2197 H 202.635 4.55777 1.65514 0
M  V30 2198 N 203.978 -0.674533 1.42435 0
M  V30 2199 C 204.91 -1.80005 1.41883 0
M  V30 2200 C 205.923 -1.59667 0.31787 0
M  V30 2201 O 207.112 -1.68781 0.580973 0
M  V30 2202 C 204.212 -3.17114 1.19549 0
M  V30 2203 C 203.385 -3.64299 2.42084 0
M  V30 2204 C 202.444 -4.80142 2.15291 0
M  V30 2205 O 201.47 -4.90673 2.88493 0
M  V30 2206 N 202.672 -5.68869 1.1562 0
M  V30 2207 H 205.437 -1.80964 2.38898 0
M  V30 2208 H 202.998 -0.857633 1.37318 0
M  V30 2209 H 204.99 -3.92267 0.995417 0
M  V30 2210 H 203.56 -3.11053 0.310569 0
M  V30 2211 H 202.78 -2.79822 2.77657 0
M  V30 2212 H 204.068 -3.92567 3.23679 0
M  V30 2213 H 203.466 -5.63012 0.550765 0
M  V30 2214 H 202.023 -6.43833 1.016 0
M  V30 2215 N 205.456 -1.28612 -0.910864 0
M  V30 2216 C 206.704 -1.15705 -1.65701 0
M  V30 2217 C 207.025 0.29416 -1.92769 0
M  V30 2218 O 206.295 1.20331 -1.54588 0
M  V30 2219 H 204.875 -0.425216 -0.614167 0
M  V30 2220 H 207.537 -1.61381 -1.0928 0
M  V30 2221 H 206.633 -1.6988 -2.61815 0
M  V30 2222 N 206.934 1.1197 -1.10907 0
M  V30 2223 C 207.866 2.17592 -0.720175 0
M  V30 2224 C 208.879 1.60938 0.245495 0
M  V30 2225 O 210.068 1.78476 0.0292245 0
M  V30 2226 C 207.168 3.38873 -0.0427917 0
M  V30 2227 C 206.341 4.25006 -1.03388 0
M  V30 2228 C 205.4 5.24774 -0.387075 0
M  V30 2229 O 204.426 5.59631 -1.03934 0
M  V30 2230 N 205.628 5.74208 0.852407 0
M  V30 2231 H 208.393 2.51567 -1.62893 0
M  V30 2232 H 205.954 1.27439 -0.998543 0
M  V30 2233 H 207.946 4.02703 0.401501 0
M  V30 2234 H 206.516 3.03007 0.768456 0
M  V30 2235 H 205.736 3.57716 -1.65629 0
M  V30 2236 H 207.024 4.79397 -1.70458 0
M  V30 2237 H 206.422 5.48062 1.40161 0
M  V30 2238 H 204.979 6.39901 1.23977 0
M  V30 2239 N 208.412 0.89855 1.29475 0
M  V30 2240 C 209.345 0.319981 2.25945 0
M  V30 2241 C 210.323 -0.567189 1.52387 0
M  V30 2242 O 211.507 -0.514254 1.8135 0
M  V30 2243 C 208.634 -0.544013 3.34303 0
M  V30 2244 C 207.68 0.275682 4.25608 0
M  V30 2245 S 208.513 1.67272 5.08704 0
M  V30 2246 C 209.669 0.815621 6.20563 0
M  V30 2247 H 209.902 1.13767 2.74671 0
M  V30 2248 H 207.435 0.69882 1.3768 0
M  V30 2249 H 209.393 -1.03673 3.97193 0
M  V30 2250 H 208.054 -1.33593 2.84274 0
M  V30 2251 H 207.247 -0.384263 5.02533 0
M  V30 2252 H 206.849 0.701496 3.67362 0
M  V30 2253 H 209.141 0.0385042 6.77489 0
M  V30 2254 H 210.084 1.55691 6.90772 0
M  V30 2255 H 210.492 0.370516 5.63283 0
M  V30 2256 N 209.89 -1.43072 0.660911 0
M  V30 2257 C 211.136 -2.0202 0.177708 0
M  V30 2258 C 211.469 -1.52066 -1.20787 0
M  V30 2259 O 210.744 -0.716987 -1.80802 0
M  V30 2260 C 211.027 -3.59561 0.197019 0
M  V30 2261 C 210.88 -4.19727 1.61706 0
M  V30 2262 C 212.199 -4.37664 -0.462396 0
M  V30 2263 H 209.318 -0.734034 0.0660494 0
M  V30 2264 H 211.96 -1.70272 0.843058 0
M  V30 2265 H 210.11 -3.86739 -0.369527 0
M  V30 2266 H 211.782 -4.03553 2.23479 0
M  V30 2267 H 210.025 -3.76084 2.16201 0
M  V30 2268 H 210.696 -5.28834 1.58237 0
M  V30 2269 H 213.172 -4.16095 0.0197215 0
M  V30 2270 H 212.048 -5.47305 -0.418188 0
M  V30 2271 H 212.309 -4.14493 -1.53778 0
M  V30 2272 N 211.368 -0.403325 -1.52352 0
M  V30 2273 C 212.318 0.442244 -2.2367 0
M  V30 2274 C 213.302 1.01823 -1.24583 0
M  V30 2275 O 214.494 0.942005 -1.49851 0
M  V30 2276 C 211.623 1.5615 -3.05732 0
M  V30 2277 C 210.709 0.996575 -4.12225 0
M  V30 2278 N 211.1 0.157804 -5.05554 0
M  V30 2279 C 209.398 1.26767 -4.27605 0
M  V30 2280 C 210.099 -0.155853 -5.81491 0
M  V30 2281 N 209.075 0.451775 -5.41719 0
M  V30 2282 H 212.877 -0.204964 -2.93184 0
M  V30 2283 H 210.391 -0.213418 -1.60992 0
M  V30 2284 H 212.388 2.17981 -3.55373 0
M  V30 2285 H 211.048 2.21139 -2.37755 0
M  V30 2286 H 212.059 -0.206049 -5.1749 0
M  V30 2287 H 208.736 1.91757 -3.70858 0
M  V30 2288 H 210.126 -0.836329 -6.66675 0
M  V30 2289 N 212.846 1.57033 -0.133567 0
M  V30 2290 C 213.778 2.13176 0.841944 0
M  V30 2291 C 214.791 1.07794 1.22001 0
M  V30 2292 O 215.98 1.35117 1.16643 0
M  V30 2293 C 213.08 2.62847 2.13926 0
M  V30 2294 C 212.253 3.92486 1.93064 0
M  V30 2295 C 211.312 4.27605 3.0666 0
M  V30 2296 O 210.338 4.96168 2.78937 0
M  V30 2297 N 211.54 3.861 4.33483 0
M  V30 2298 H 214.305 2.97503 0.362192 0
M  V30 2299 H 211.866 1.61821 0.05042 0
M  V30 2300 H 213.858 2.83363 2.88942 0
M  V30 2301 H 212.428 1.83319 2.53205 0
M  V30 2302 H 211.648 3.80732 1.02159 0
M  V30 2303 H 212.936 4.77225 1.76447 0
M  V30 2304 H 212.334 3.30828 4.58878 0
M  V30 2305 H 210.891 4.11694 5.05323 0
M  V30 2306 N 214.325 -0.140222 1.56975 0
M  V30 2307 C 215.288 -1.15689 1.97861 0
M  V30 2308 C 216.288 -1.3549 0.865974 0
M  V30 2309 O 217.478 -1.32367 1.13246 0
M  V30 2310 C 214.61 -2.51582 2.30042 0
M  V30 2311 H 215.803 -0.805971 2.88867 0
M  V30 2312 H 213.356 -0.383801 1.51515 0
M  V30 2313 H 214.091 -2.91632 1.41849 0
M  V30 2314 H 213.876 -2.38569 3.11171 0
M  V30 2315 H 215.366 -3.24792 2.62488 0
M  V30 2316 N 215.803 -1.52179 -0.40978 0
M  V30 2317 C 217.052 -1.65434 -1.15388 0
M  V30 2318 C 217.365 -0.390056 -1.91671 0
M  V30 2319 O 218.571 -0.402399 -2.68501 0
M  V30 2320 C 217.027 -2.92279 -2.10003 0
M  V30 2321 C 216.635 -4.25813 -1.39239 0
M  V30 2322 C 218.379 -3.14897 -2.84675 0
M  V30 2323 C 216.286 -5.43782 -2.32498 0
M  V30 2324 H 215.216 -0.616267 -0.434432 0
M  V30 2325 H 217.867 -1.78666 -0.418401 0
M  V30 2326 H 216.249 -2.72744 -2.871 0
M  V30 2327 H 217.423 -4.55828 -0.675099 0
M  V30 2328 H 215.738 -4.09292 -0.766097 0
M  V30 2329 H 218.335 -4.0021 -3.54593 0
M  V30 2330 H 218.678 -2.29103 -3.47588 0
M  V30 2331 H 219.211 -3.34901 -2.14677 0
M  V30 2332 H 215.95 -6.3192 -1.74233 0
M  V30 2333 H 215.47 -5.18106 -3.02201 0
M  V30 2334 H 217.149 -5.76834 -2.93038 0
M  V30 2335 N 217.281 0.66697 -1.42791 0
M  V30 2336 C 218.506 1.46004 -1.47301 0
M  V30 2337 C 218.931 1.87894 -0.0880317 0
M  V30 2338 O 218.289 1.56502 0.915253 0
M  V30 2339 C 218.337 2.68031 -2.41229 0
M  V30 2340 O 217.441 3.6659 -1.88906 0
M  V30 2341 H 216.782 0.43832 -0.49877 0
M  V30 2342 H 219.312 0.817391 -1.87563 0
M  V30 2343 H 219.322 3.1601 -2.58073 0
M  V30 2344 H 217.997 2.36883 -3.41847 0
M  V30 2345 H 216.574 3.25661 -1.81656 0
M  V30 2346 N 218.759 1.29093 0.90403 0
M  V30 2347 C 220.17 1.15186 1.46932 0
M  V30 2348 C 220.521 -0.254587 1.94541 0
M  V30 2349 O 219.646 -1.14972 1.83332 0
M  V30 2350 C 220.241 2.08492 2.67051 0
M  V30 2351 C 218.8 1.98621 3.19729 0
M  V30 2352 C 217.947 1.9967 1.92425 0
M  V30 2353 H 220.898 1.41641 0.715789 0
M  V30 2354 H 220.919 1.65461 3.42641 0
M  V30 2355 H 220.431 3.10847 2.3237 0
M  V30 2356 H 218.532 0.993389 3.59114 0
M  V30 2357 H 218.645 2.86068 3.8432 0
M  V30 2358 H 217.009 1.44208 2.09943 0
M  V30 2359 H 217.792 3.03721 1.60026 0
M  V30 2360 N 220.237 -1.11381 1.11499 0
M  V30 2361 C 221.653 -1.35143 0.849031 0
M  V30 2362 C 221.853 -1.94515 -0.525938 0
M  V30 2363 O 220.909 -2.1785 -1.27662 0
M  V30 2364 C 222.222 -2.28249 1.95762 0
M  V30 2365 C 223.77 -2.41812 1.98736 0
M  V30 2366 C 224.245 -3.3824 3.088 0
M  V30 2367 N 225.736 -3.45803 3.08179 0
M  V30 2368 C 226.471 -4.20358 3.89982 0
M  V30 2369 N 225.967 -4.97884 4.8175 0
M  V30 2370 N 227.76 -4.15877 3.78157 0
M  V30 2371 H 219.911 -0.712062 2.00109 0
M  V30 2372 H 222.174 -0.376025 0.870235 0
M  V30 2373 H 221.88 -1.91817 2.94787 0
M  V30 2374 H 221.754 -3.28473 1.85433 0
M  V30 2375 H 224.141 -2.77518 1.00338 0
M  V30 2376 H 224.222 -1.41437 2.13141 0
M  V30 2377 H 223.866 -3.03261 4.07425 0
M  V30 2378 H 223.796 -4.38471 2.91635 0
M  V30 2379 H 226.287 -2.90506 2.41691 0
M  V30 2380 H 226.6 -5.52142 5.40702 0
M  V30 2381 H 224.945 -4.97043 4.85771 0
M  V30 2382 H 228.136 -3.544 3.05808 0
M  V30 2383 H 228.309 -4.73723 4.42143 0
M  V30 2384 N 221.715 -0.905404 -1.28997 0
M  V30 2385 C 222.943 -0.549846 -1.9946 0
M  V30 2386 C 223.358 0.866834 -1.67724 0
M  V30 2387 O 222.715 1.57298 -0.925404 0
M  V30 2388 C 222.766 -0.739387 -3.53858 0
M  V30 2389 O 222.487 -2.10031 -3.84472 0
M  V30 2390 C 223.988 -0.389541 -4.41585 0
M  V30 2391 H 221.208 -0.210429 -0.637151 0
M  V30 2392 H 223.752 -1.21632 -1.64396 0
M  V30 2393 H 221.907 -0.120023 -3.87214 0
M  V30 2394 H 222.321 -2.13385 -4.79132 0
M  V30 2395 H 223.795 -0.572972 -5.49018 0
M  V30 2396 H 224.272 0.673756 -4.34001 0
M  V30 2397 H 224.878 -0.986089 -4.1371 0
M  V30 2398 N 223.193 1.4272 -0.668489 0
M  V30 2399 C 224.123 2.335 -0.000100175 0
M  V30 2400 C 225.104 1.50328 0.795964 0
M  V30 2401 O 226.289 1.78949 0.754385 0
M  V30 2402 C 223.419 3.33874 0.956302 0
M  V30 2403 C 222.373 4.27152 0.269278 0
M  V30 2404 C 221.699 5.17684 1.33818 0
M  V30 2405 C 222.999 5.15373 -0.847805 0
M  V30 2406 H 224.693 2.89639 -0.758244 0
M  V30 2407 H 222.239 1.39269 -0.366079 0
M  V30 2408 H 224.192 3.9629 1.43292 0
M  V30 2409 H 222.916 2.76025 1.74579 0
M  V30 2410 H 221.575 3.66123 -0.187042 0
M  V30 2411 H 221.223 4.56165 2.1195 0
M  V30 2412 H 220.923 5.80918 0.883659 0
M  V30 2413 H 222.447 5.82974 1.81586 0
M  V30 2414 H 223.861 5.7151 -0.452681 0
M  V30 2415 H 222.258 5.87407 -1.22773 0
M  V30 2416 H 223.328 4.5415 -1.69929 0
M  V30 2417 N 224.671 0.411399 1.52136 0
M  V30 2418 C 225.619 -0.427633 2.28635 0
M  V30 2419 C 226.613 -1.04383 1.33419 0
M  V30 2420 O 227.819 -0.981772 1.50868 0
M  V30 2421 H 224.194 -0.156689 0.735495 0
M  V30 2422 H 226.165 0.238761 2.97443 0
M  V30 2423 C 224.914 -1.53082 3.12188 0
M  V30 2424 H 224.237 -1.06601 3.85326 0
M  V30 2425 H 225.677 -2.09167 3.68816 0
M  V30 2426 C 224.136 -2.49946 2.25895 0
M  V30 2427 O 224.666 -3.53884 1.90076 0
M  V30 2428 N 222.872 -2.2021 1.8962 0
M  V30 2429 H 222.419 -1.35719 2.18948 0
M  V30 2430 H 222.377 -2.85266 1.32176 0
M  V30 2431 N 226.149 -1.5696 0.141893 0
M  V30 2432 C 227.112 -2.15316 -0.785587 0
M  V30 2433 C 228.112 -1.09366 -1.1788 0
M  V30 2434 O 229.302 -1.35031 -1.10056 0
M  V30 2435 C 226.434 -2.71211 -2.06537 0
M  V30 2436 H 227.627 -2.98608 -0.278041 0
M  V30 2437 H 225.18 -1.5593 -0.107519 0
M  V30 2438 H 225.915 -1.91571 -2.6167 0
M  V30 2439 H 225.7 -3.4872 -1.79268 0
M  V30 2440 H 227.19 -3.16189 -2.72789 0
M  V30 2441 N 227.627 0.131896 -1.57047 0
M  V30 2442 C 228.873 0.838268 -1.85323 0
M  V30 2443 C 229.228 1.78098 -0.727937 0
M  V30 2444 O 228.521 1.89645 0.27304 0
M  V30 2445 C 228.715 1.63703 -3.17704 0
M  V30 2446 C 228.544 0.773167 -4.43004 0
M  V30 2447 C 227.314 0.432956 -5.03442 0
M  V30 2448 C 229.512 0.0966216 -5.14209 0
M  V30 2449 N 227.494 -0.442924 -6.123 0
M  V30 2450 C 228.865 -0.638778 -6.16701 0
M  V30 2451 C 230.92 0.018861 -4.97896 0
M  V30 2452 C 229.623 -1.44462 -7.04644 0
M  V30 2453 C 231.649 -0.773762 -5.86316 0
M  V30 2454 C 231.011 -1.4974 -6.883 0
M  V30 2455 H 227.11 0.284086 -0.728573 0
M  V30 2456 H 229.694 0.102731 -1.94429 0
M  V30 2457 H 227.865 2.3437 -3.09718 0
M  V30 2458 H 229.597 2.28774 -3.33833 0
M  V30 2459 H 226.352 0.772237 -4.67262 0
M  V30 2460 H 226.776 -0.872332 -6.71356 0
M  V30 2461 H 231.418 0.56397 -4.19022 0
M  V30 2462 H 229.136 -2.00093 -7.82936 0
M  V30 2463 H 232.722 -0.83612 -5.75761 0
M  V30 2464 H 231.602 -2.10087 -7.55535 0
M  V30 2465 N 229.106 1.52395 0.401703 0
M  V30 2466 C 230.352 1.67065 1.14966 0
M  V30 2467 C 230.685 0.403052 1.89971 0
M  V30 2468 O 229.96 -0.598774 1.85054 0
M  V30 2469 C 230.243 2.8975 2.13815 0
M  V30 2470 C 230.096 4.26578 1.42658 0
M  V30 2471 C 231.415 3.07965 3.14397 0
M  V30 2472 H 228.534 0.607968 0.416587 0
M  V30 2473 H 231.176 1.84965 0.434511 0
M  V30 2474 H 229.326 2.74619 2.74803 0
M  V30 2475 H 230.998 4.53451 0.847329 0
M  V30 2476 H 229.241 4.27639 0.72849 0
M  V30 2477 H 229.912 5.08483 2.14823 0
M  V30 2478 H 232.388 3.22043 2.63491 0
M  V30 2479 H 231.264 3.95308 3.80819 0
M  V30 2480 H 231.525 2.21611 3.82545 0
M  V30 2481 N 230.584 -0.659388 1.43143 0
M  V30 2482 C 231.531 -1.77249 1.47822 0
M  V30 2483 C 232.501 -1.62818 0.328558 0
M  V30 2484 O 233.686 -1.83151 0.534838 0
M  V30 2485 C 230.826 -3.15371 1.40126 0
M  V30 2486 C 229.939 -3.4098 2.65249 0
M  V30 2487 C 229.074 -4.68915 2.49584 0
M  V30 2488 C 228.113 -4.87608 3.70006 0
M  V30 2489 N 227.25 -6.06796 3.53189 0
M  V30 2490 H 232.09 -1.72584 2.42938 0
M  V30 2491 H 229.627 -0.842297 1.20598 0
M  V30 2492 H 231.585 -3.9521 1.33659 0
M  V30 2493 H 230.215 -3.19121 0.485964 0
M  V30 2494 H 229.267 -2.55282 2.8202 0
M  V30 2495 H 230.579 -3.50681 3.54717 0
M  V30 2496 H 229.733 -5.56871 2.4079 0
M  V30 2497 H 228.472 -4.61524 1.5763 0
M  V30 2498 H 227.477 -3.9809 3.79215 0
M  V30 2499 H 228.702 -4.96834 4.62961 0
M  V30 2500 H 226.648 -6.00549 2.63965 0
M  V30 2501 H 226.565 -6.17428 4.36255 0
M  V30 2502 H 227.833 -6.9739 3.48236 0
M  V30 2503 N 232.062 -1.29571 -0.897171 0
M  V30 2504 C 233.308 -1.17863 -1.65034 0
M  V30 2505 C 233.641 0.268729 -1.92332 0
M  V30 2506 O 232.916 1.19378 -1.53555 0
M  V30 2507 C 233.199 -1.995 -2.99786 0
M  V30 2508 C 233.052 -3.5239 -2.79538 0
M  V30 2509 C 234.371 -1.82335 -4.00552 0
M  V30 2510 H 231.49 -0.429528 -0.598895 0
M  V30 2511 H 234.132 -1.59072 -1.03905 0
M  V30 2512 H 232.282 -1.64485 -3.51962 0
M  V30 2513 H 233.954 -3.97401 -2.34244 0
M  V30 2514 H 232.197 -3.77187 -2.14273 0
M  V30 2515 H 232.868 -4.04787 -3.75302 0
M  V30 2516 H 235.344 -2.12924 -3.57495 0
M  V30 2517 H 234.22 -2.41801 -4.92771 0
M  V30 2518 H 234.481 -0.779209 -4.35179 0
M  V30 2519 N 233.54 1.10788 -1.12088 0
M  V30 2520 C 234.786 1.82942 -0.875226 0
M  V30 2521 C 235.119 1.84779 0.597538 0
M  V30 2522 O 234.394 1.30578 1.44152 0
M  V30 2523 C 234.677 3.29789 -1.44606 0
M  V30 2524 C 234.53 3.36307 -2.98693 0
M  V30 2525 C 235.849 4.26064 -1.10261 0
M  V30 2526 H 232.968 0.664195 -0.319397 0
M  V30 2527 H 235.61 1.29867 -1.38689 0
M  V30 2528 H 233.76 3.75118 -1.01089 0
M  V30 2529 H 235.432 2.99487 -3.50864 0
M  V30 2530 H 233.675 2.76318 -3.34411 0
M  V30 2531 H 234.346 4.39694 -3.33726 0
M  V30 2532 H 236.822 3.88951 -1.4784 0
M  V30 2533 H 235.698 5.27183 -1.52869 0
M  V30 2534 H 235.959 4.42098 -0.0142953 0
M  V30 2535 N 235.018 0.912232 1.28515 0
M  V30 2536 C 235.928 0.404506 2.31086 0
M  V30 2537 C 236.944 -0.50707 1.66448 0
M  V30 2538 O 238.12 -0.393624 1.97516 0
M  V30 2539 C 235.185 -0.348572 3.44943 0
M  V30 2540 C 234.246 0.59604 4.25142 0
M  V30 2541 C 233.479 -0.121194 5.33562 0
M  V30 2542 O 233.702 -1.34317 5.5436 0
M  V30 2543 O 232.636 0.542716 5.99448 0
M  V30 2544 H 236.462 1.25579 2.76521 0
M  V30 2545 H 234.047 0.676998 1.33181 0
M  V30 2546 H 235.929 -0.77395 4.14232 0
M  V30 2547 H 234.604 -1.17571 3.01594 0
M  V30 2548 H 233.511 1.07079 3.58448 0
M  V30 2549 H 234.844 1.38995 4.72167 0
M  V30 2550 N 236.496 -1.42363 0.676048 0
M  V30 2551 C 237.406 -2.346 -0.00153389 0
M  V30 2552 C 238.422 -1.5516 -0.787485 0
M  V30 2553 O 239.598 -1.87723 -0.729521 0
M  V30 2554 C 236.663 -3.33705 -0.940298 0
M  V30 2555 C 235.724 -4.29042 -0.148739 0
M  V30 2556 C 234.957 -5.23413 -1.04279 0
M  V30 2557 O 235.18 -5.22749 -2.28232 0
M  V30 2558 O 234.114 -5.99795 -0.502925 0
M  V30 2559 H 237.94 -2.94082 0.758268 0
M  V30 2560 H 235.525 -1.42888 0.436289 0
M  V30 2561 H 237.407 -3.94586 -1.47917 0
M  V30 2562 H 236.082 -2.76695 -1.67993 0
M  V30 2563 H 234.989 -3.71571 0.43427 0
M  V30 2564 H 236.322 -4.89097 0.551805 0
M  V30 2565 N 237.974 -0.419461 -1.51915 0
M  V30 2566 C 238.921 0.400927 -2.27291 0
M  V30 2567 C 239.891 1.03224 -1.30131 0
M  V30 2568 O 241.076 1.05455 -1.59009 0
M  V30 2569 C 238.216 1.50603 -3.10504 0
M  V30 2570 C 237.329 0.89462 -4.22635 0
M  V30 2571 C 236.464 1.97328 -4.93189 0
M  V30 2572 C 235.503 1.33935 -5.97267 0
M  V30 2573 N 234.64 2.3586 -6.61298 0
M  V30 2574 H 239.48 -0.248251 -2.96964 0
M  V30 2575 H 237.017 -0.134266 -1.46486 0
M  V30 2576 H 238.975 2.15783 -3.57062 0
M  V30 2577 H 237.605 2.12509 -2.42981 0
M  V30 2578 H 236.657 0.131583 -3.80172 0
M  V30 2579 H 237.969 0.391641 -4.9726 0
M  V30 2580 H 237.123 2.70211 -5.43204 0
M  V30 2581 H 235.862 2.50994 -4.18155 0
M  V30 2582 H 234.867 0.595896 -5.46561 0
M  V30 2583 H 236.092 0.810252 -6.74249 0
M  V30 2584 H 234.038 2.88639 -5.89087 0
M  V30 2585 H 233.955 1.90403 -7.3163 0
M  V30 2586 H 235.223 3.08282 -7.15949 0
M  V30 2587 N 239.452 1.56882 -0.150215 0
M  V30 2588 C 240.415 2.1573 0.774157 0
M  V30 2589 C 241.415 1.0999 1.17298 0
M  V30 2590 O 242.605 1.35613 1.09338 0
M  V30 2591 C 239.737 2.72302 2.05096 0
M  V30 2592 H 240.93 2.98752 0.262201 0
M  V30 2593 H 238.483 1.55985 0.099248 0
M  V30 2594 H 239.218 1.92956 2.6065 0
M  V30 2595 H 239.003 3.49665 1.77416 0
M  V30 2596 H 240.493 3.17632 2.71109 0
M  V30 2597 N 240.93 -0.123565 1.57115 0
M  V30 2598 C 242.177 -0.832153 1.84612 0
M  V30 2599 C 242.505 -1.80093 0.734627 0
M  V30 2600 O 241.76 -1.93766 -0.27442 0
M  V30 2601 C 242.059 -1.62016 3.18568 0
M  V30 2602 C 241.725 -0.796084 4.43817 0
M  V30 2603 C 240.387 -0.568816 4.77826 0
M  V30 2604 C 242.739 -0.221364 5.2073 0
M  V30 2605 C 240.067 0.243499 5.86194 0
M  V30 2606 C 242.419 0.578117 6.29953 0
M  V30 2607 C 241.083 0.815744 6.62497 0
M  V30 2608 H 240.353 -0.304507 0.675542 0
M  V30 2609 H 243 -0.0947248 1.91266 0
M  V30 2610 H 241.305 -2.42837 3.0747 0
M  V30 2611 H 243.002 -2.17231 3.37064 0
M  V30 2612 H 239.592 -0.983307 4.17168 0
M  V30 2613 H 243.776 -0.384173 4.94811 0
M  V30 2614 H 239.032 0.436871 6.09837 0
M  V30 2615 H 243.206 1.03046 6.88734 0
M  V30 2616 H 240.833 1.44701 7.46301 0
M  V30 2617 N 242.408 -1.52605 -0.393616 0
M  V30 2618 C 243.633 -1.71592 -1.16495 0
M  V30 2619 C 244.058 -0.43133 -1.83088 0
M  V30 2620 O 243.416 0.612523 -1.7064 0
M  V30 2621 C 243.464 -2.86318 -2.19213 0
M  V30 2622 O 242.568 -2.52969 -3.257 0
M  V30 2623 H 241.909 -0.570734 -0.33935 0
M  V30 2624 H 244.439 -1.99377 -0.459324 0
M  V30 2625 H 244.449 -3.1168 -2.63286 0
M  V30 2626 H 243.124 -3.79511 -1.7013 0
M  V30 2627 H 241.701 -2.38332 -2.86797 0
M  V30 2628 N 243.887 0.651787 -1.4349 0
M  V30 2629 C 245.298 1.233 -1.40193 0
M  V30 2630 C 245.649 1.9591 -0.106727 0
M  V30 2631 O 244.774 2.01316 0.793773 0
M  V30 2632 C 245.369 2.24257 -2.53957 0
M  V30 2633 C 243.928 2.77852 -2.5392 0
M  V30 2634 C 243.075 1.52517 -2.3159 0
M  V30 2635 H 246.026 0.443717 -1.52371 0
M  V30 2636 H 246.047 3.0646 -2.25528 0
M  V30 2637 H 245.559 1.71382 -3.4821 0
M  V30 2638 H 243.66 3.34786 -1.63551 0
M  V30 2639 H 243.773 3.25299 -3.51735 0
M  V30 2640 H 242.137 1.79915 -1.80285 0
M  V30 2641 H 242.92 1.01574 -3.27929 0
M  V30 2642 N 245.365 1.30045 0.890287 0
M  V30 2643 C 246.275 1.17885 2.02831 0
M  V30 2644 C 247.291 0.0999609 1.73713 0
M  V30 2645 O 248.467 0.313867 1.98939 0
M  V30 2646 C 245.532 0.866079 3.35708 0
M  V30 2647 C 244.593 2.02979 3.78283 0
M  V30 2648 C 243.826 1.73184 5.0482 0
M  V30 2649 O 244.049 0.657237 5.66601 0
M  V30 2650 O 242.983 2.58267 5.43674 0
M  V30 2651 H 246.809 2.13474 2.16015 0
M  V30 2652 H 244.394 1.09587 1.01543 0
M  V30 2653 H 246.276 0.706623 4.15433 0
M  V30 2654 H 244.951 -0.0599443 3.23644 0
M  V30 2655 H 243.858 2.24454 2.99285 0
M  V30 2656 H 245.191 2.93734 3.94944 0
M  V30 2657 N 246.843 -1.10192 1.12674 0
M  V30 2658 C 248.089 -1.82475 0.884915 0
M  V30 2659 C 248.422 -1.85093 -0.58773 0
M  V30 2660 O 247.697 -1.3134 -1.43457 0
M  V30 2661 C 247.98 -3.29018 1.46353 0
M  V30 2662 C 247.833 -3.34718 3.00473 0
M  V30 2663 C 249.152 -4.25473 1.12519 0
M  V30 2664 H 246.271 -0.662492 0.322915 0
M  V30 2665 H 248.913 -1.2913 1.39375 0
M  V30 2666 H 247.063 -3.74576 1.03077 0
M  V30 2667 H 248.735 -2.97622 3.52447 0
M  V30 2668 H 246.978 -2.74541 3.35872 0
M  V30 2669 H 247.649 -4.37918 3.36053 0
M  V30 2670 H 250.125 -3.88161 1.499 0
M  V30 2671 H 249.001 -5.26365 1.55663 0
M  V30 2672 H 249.262 -4.42084 0.0377407 0
M  V30 2673 N 248.321 -0.919034 -1.28029 0
M  V30 2674 C 249.57 -0.550802 -1.94034 0
M  V30 2675 C 249.883 0.910877 -1.73096 0
M  V30 2676 O 251.089 1.3875 -2.33368 0
M  V30 2677 C 249.545 -0.934249 -3.47563 0
M  V30 2678 C 249.153 -2.41602 -3.7727 0
M  V30 2679 C 250.897 -0.636854 -4.19696 0
M  V30 2680 C 248.804 -2.73932 -5.24133 0
M  V30 2681 H 247.734 -0.202273 -0.726362 0
M  V30 2682 H 250.385 -1.11867 -1.45458 0
M  V30 2683 H 248.767 -0.295115 -3.94899 0
M  V30 2684 H 249.941 -3.10233 -3.40723 0
M  V30 2685 H 248.256 -2.68441 -3.18321 0
M  V30 2686 H 250.853 -0.855005 -5.2782 0
M  V30 2687 H 251.196 0.425575 -4.14119 0
M  V30 2688 H 251.729 -1.23469 -3.78154 0
M  V30 2689 H 248.468 -3.79049 -5.34792 0
M  V30 2690 H 247.988 -2.09942 -5.61858 0
M  V30 2691 H 249.667 -2.61215 -5.91925 0
M  V30 2692 N 249.799 1.42003 -0.683588 0
M  V30 2693 C 251.21 1.84501 -0.285736 0
M  V30 2694 C 251.561 1.57213 1.17382 0
M  V30 2695 O 250.686 1.03642 1.89966 0
M  V30 2696 C 251.281 3.34912 -0.511821 0
M  V30 2697 C 249.84 3.76025 -0.168005 0
M  V30 2698 C 248.987 2.6551 -0.799983 0
M  V30 2699 H 251.938 1.31724 -0.885119 0
M  V30 2700 H 251.959 3.79784 0.233292 0
M  V30 2701 H 251.471 3.54741 -1.57418 0
M  V30 2702 H 249.572 3.61801 0.890567 0
M  V30 2703 H 249.685 4.75141 -0.614661 0
M  V30 2704 H 248.049 2.53654 -0.230568 0
M  V30 2705 H 248.832 2.8816 -1.86597 0
M  V30 2706 N 251.277 0.427512 1.51691 0
M  V30 2707 C 252.21 -0.433876 2.24037 0
M  V30 2708 C 253.188 -1.03287 1.25581 0
M  V30 2709 O 254.372 -1.07722 1.54688 0
M  V30 2710 C 251.499 -1.60385 2.98319 0
M  V30 2711 C 250.545 -1.12648 4.11355 0
M  V30 2712 S 251.378 -0.076543 5.35445 0
M  V30 2713 C 252.534 -1.25141 6.13262 0
M  V30 2714 H 252.767 0.180367 2.96752 0
M  V30 2715 H 250.3 0.211946 1.52938 0
M  V30 2716 H 252.258 -2.27462 3.41718 0
M  V30 2717 H 250.919 -2.18948 2.25213 0
M  V30 2718 H 250.112 -2.0011 4.62571 0
M  V30 2719 H 249.714 -0.534088 3.70167 0
M  V30 2720 H 252.006 -2.17162 6.41753 0
M  V30 2721 H 252.949 -0.779411 7.03797 0
M  V30 2722 H 253.357 -1.48553 5.44603 0
M  V30 2723 N 252.755 -1.56801 0.158532 0
M  V30 2724 C 254.002 -1.9649 -0.489679 0
M  V30 2725 C 254.33 -1.04394 -1.6411 0
M  V30 2726 O 253.585 -0.0754401 -1.95555 0
M  V30 2727 C 253.884 -3.4235 -1.02623 0
M  V30 2728 C 253.55 -4.50899 0.00794526 0
M  V30 2729 C 252.212 -4.80312 0.292207 0
M  V30 2730 C 254.564 -5.16333 0.710584 0
M  V30 2731 C 251.892 -5.72461 1.28472 0
M  V30 2732 C 254.244 -6.09553 1.69199 0
M  V30 2733 C 252.908 -6.37339 1.98383 0
M  V30 2734 H 252.178 -0.719009 -0.179186 0
M  V30 2735 H 254.825 -1.8989 0.247798 0
M  V30 2736 H 253.13 -3.45838 -1.84128 0
M  V30 2737 H 254.827 -3.70393 -1.53656 0
M  V30 2738 H 251.417 -4.28015 -0.22379 0
M  V30 2739 H 255.601 -4.93732 0.504174 0
M  V30 2740 H 250.857 -5.92278 1.51714 0
M  V30 2741 H 255.031 -6.59327 2.24189 0
M  V30 2742 H 252.658 -7.08546 2.7544 0
M  V30 2743 N 254.233 0.115231 -1.57178 0
M  V30 2744 C 255.458 0.840354 -1.89612 0
M  V30 2745 C 255.883 1.72464 -0.750845 0
M  V30 2746 O 255.241 1.78826 0.298478 0
M  V30 2747 C 255.289 1.64654 -3.20814 0
M  V30 2748 O 254.393 2.7538 -3.06985 0
M  V30 2749 H 253.734 0.232158 -0.622092 0
M  V30 2750 H 256.264 0.0964977 -2.04372 0
M  V30 2751 H 256.274 2.03499 -3.53627 0
M  V30 2752 H 254.949 0.997416 -4.03763 0
M  V30 2753 H 253.526 2.3971 -2.85646 0
M  V30 2754 N 255.711 1.52812 0.385517 0
M  V30 2755 C 256.674 1.77188 1.45386 0
M  V30 2756 C 257.674 0.641953 1.4743 0
M  V30 2757 O 258.864 0.910033 1.4854 0
M  V30 2758 C 255.996 1.87582 2.8465 0
M  V30 2759 H 257.189 2.72583 1.25054 0
M  V30 2760 H 254.742 1.43586 0.617467 0
M  V30 2761 H 255.477 0.941849 3.10322 0
M  V30 2762 H 255.262 2.69748 2.84567 0
M  V30 2763 H 256.752 2.08102 3.62054 0
M  V30 2764 N 257.189 -0.644168 1.43834 0
M  V30 2765 C 258.119 -1.76814 1.52509 0
M  V30 2766 C 259.1 -1.65823 0.379052 0
M  V30 2767 O 260.285 -1.84781 0.597466 0
M  V30 2768 C 257.415 -3.15288 1.4564 0
M  V30 2769 C 256.369 -3.41053 2.58586 0
M  V30 2770 C 255.695 -4.79421 2.36769 0
M  V30 2771 C 256.995 -3.34902 4.00797 0
M  V30 2772 H 258.689 -1.69812 2.46586 0
M  V30 2773 H 256.235 -0.815542 1.1868 0
M  V30 2774 H 258.188 -3.93681 1.50311 0
M  V30 2775 H 256.912 -3.23043 0.480725 0
M  V30 2776 H 255.571 -2.65035 2.53282 0
M  V30 2777 H 255.219 -4.83863 1.37424 0
M  V30 2778 H 254.919 -4.9762 3.12487 0
M  V30 2779 H 256.443 -5.6006 2.43238 0
M  V30 2780 H 257.857 -4.03218 4.07539 0
M  V30 2781 H 256.254 -3.64637 4.76613 0
M  V30 2782 H 257.324 -2.32928 4.25291 0
M  V30 2783 N 258.668 -1.30515 -0.883378 0
M  V30 2784 C 259.893 -1.22487 -1.67367 0
M  V30 2785 C 260.318 0.208767 -1.86938 0
M  V30 2786 O 259.676 1.15015 -1.40148 0
M  V30 2787 C 259.724 -1.96041 -3.02655 0
M  V30 2788 O 258.828 -1.28859 -3.91751 0
M  V30 2789 H 258.169 -0.423573 -0.511353 0
M  V30 2790 H 260.699 -1.72362 -1.10239 0
M  V30 2791 H 260.709 -2.05124 -3.52687 0
M  V30 2792 H 259.384 -3.00307 -2.8773 0
M  V30 2793 H 257.961 -1.28141 -3.50192 0
M  V30 2794 N 260.146 1.09593 -1.13257 0
M  V30 2795 C 261.056 2.19739 -0.821691 0
M  V30 2796 C 262.072 1.72926 0.19302 0
M  V30 2797 O 263.248 2.01385 0.0244895 0
M  V30 2798 C 260.313 3.45482 -0.290333 0
M  V30 2799 C 259.374 4.06985 -1.36607 0
M  V30 2800 C 258.607 5.26726 -0.859975 0
M  V30 2801 O 258.83 5.69594 0.303082 0
M  V30 2802 O 257.764 5.7931 -1.63351 0
M  V30 2803 H 261.59 2.48781 -1.74189 0
M  V30 2804 H 259.175 1.18496 -0.909894 0
M  V30 2805 H 261.057 4.214 0.000674022 0
M  V30 2806 H 259.732 3.18047 0.602306 0
M  V30 2807 H 258.639 3.32712 -1.71037 0
M  V30 2808 H 259.972 4.38643 -2.23279 0
M  V30 2809 N 261.624 0.925811 1.2754 0
M  V30 2810 C 262.872 0.564138 1.94067 0
M  V30 2811 C 263.193 -0.897188 1.73134 0
M  V30 2812 O 262.463 -1.63573 1.07799 0
M  V30 2813 H 261.043 0.205645 0.718136 0
M  V30 2814 H 263.705 1.1778 1.55287 0
M  V30 2815 H 262.801 0.76881 3.02483 0
M  V30 2816 N 263.102 -1.41638 0.69111 0
M  V30 2817 C 264.065 -2.29178 0.0319786 0
M  V30 2818 C 265.065 -1.44153 -0.712496 0
M  V30 2819 O 266.255 -1.65354 -0.548053 0
M  V30 2820 C 263.387 -3.26952 -0.965161 0
M  V30 2821 H 264.58 -2.88959 0.802681 0
M  V30 2822 H 262.133 -1.4955 0.454356 0
M  V30 2823 H 262.868 -2.72142 -1.76378 0
M  V30 2824 H 262.653 -3.89685 -0.434522 0
M  V30 2825 H 264.143 -3.92561 -1.42428 0
M  V30 2826 N 264.58 -0.43555 -1.51462 0
M  V30 2827 C 265.808 0.130242 -2.0649 0
M  V30 2828 C 266.223 1.36614 -1.30315 0
M  V30 2829 O 265.58 1.78869 -0.362223 0
M  V30 2830 C 265.631 0.454253 -3.58635 0
M  V30 2831 O 265.352 -0.73259 -4.31931 0
M  V30 2832 C 266.853 1.07091 -4.3017 0
M  V30 2833 H 264.073 0.00871669 -0.670943 0
M  V30 2834 H 266.617 -0.614117 -1.95061 0
M  V30 2835 H 264.772 1.14851 -3.69984 0
M  V30 2836 H 265.186 -0.455787 -5.22516 0
M  V30 2837 H 266.66 1.24764 -5.37716 0
M  V30 2838 H 267.137 2.05144 -3.88346 0
M  V30 2839 H 267.743 0.416089 -4.2326 0
M  V30 2840 N 266.058 1.56714 -0.166846 0
M  V30 2841 C 267.469 1.83378 0.350646 0
M  V30 2842 C 267.82 1.08646 1.63372 0
M  V30 2843 O 266.945 0.338058 2.13743 0
M  V30 2844 C 267.54 3.32643 0.642963 0
M  V30 2845 C 266.099 3.59818 1.10491 0
M  V30 2846 C 265.246 2.76954 0.138411 0
M  V30 2847 H 268.197 1.53803 -0.391193 0
M  V30 2848 H 268.218 3.49878 1.49551 0
M  V30 2849 H 267.73 3.87007 -0.291055 0
M  V30 2850 H 265.831 3.1086 2.05418 0
M  V30 2851 H 265.944 4.68178 1.01716 0
M  V30 2852 H 264.308 2.4666 0.634911 0
M  V30 2853 H 265.091 3.34097 -0.789549 0
M  V30 2854 N 267.536 -0.106894 1.57237 0
M  V30 2855 C 268.468 -1.15646 1.97885 0
M  V30 2856 C 269.481 -1.36981 0.879779 0
M  V30 2857 O 270.67 -1.35841 1.15799 0
M  V30 2858 C 267.77 -2.51425 2.27241 0
M  V30 2859 C 266.943 -2.50529 3.58545 0
M  V30 2860 C 266.002 -3.68145 3.75973 0
M  V30 2861 O 265.028 -3.51176 4.47956 0
M  V30 2862 N 266.23 -4.87177 3.15656 0
M  V30 2863 H 268.995 -0.81059 2.8853 0
M  V30 2864 H 266.556 -0.296024 1.59171 0
M  V30 2865 H 268.548 -3.28689 2.36105 0
M  V30 2866 H 267.118 -2.78147 1.42663 0
M  V30 2867 H 266.338 -1.58894 3.60758 0
M  V30 2868 H 267.626 -2.46997 4.44826 0
M  V30 2869 H 267.024 -5.03868 2.57165 0
M  V30 2870 H 265.581 -5.62075 3.30023 0
M  V30 2871 N 269.014 -1.53014 -0.377408 0
M  V30 2872 C 270.291 -1.59215 -1.13622 0
M  V30 2873 C 270.671 -0.392407 -2.07421 0
M  V30 2874 O 270.019 0.618342 -2.19975 0
M  V30 2875 C 270.229 -2.93669 -1.88573 0
M  V30 2876 C 271.577 -3.47822 -2.43526 0
M  V30 2877 O 272.601 -2.9562 -1.98715 0
M  V30 2878 O 271.46 -4.39055 -3.25412 0
M  V30 2879 H 268.554 -0.642625 -0.52054 0
M  V30 2880 H 271.1 -1.65353 -0.381625 0
M  V30 2881 H 269.872 -3.7243 -1.20048 0
M  V30 2882 H 269.495 -2.90968 -2.70968 0
M  V30 2883 N 270.492 0.636531 -1.44174 0
M  V30 2884 C 271.422 1.76003 -1.53444 0
M  V30 2885 C 272.403 1.65619 -0.387841 0
M  V30 2886 O 273.588 1.84461 -0.607257 0
M  V30 2887 C 270.718 3.14511 -1.4731 0
M  V30 2888 C 269.672 3.39677 -2.60391 0
M  V30 2889 C 268.998 4.78159 -2.39308 0
M  V30 2890 C 270.298 3.32772 -4.02567 0
M  V30 2891 H 271.992 1.68501 -2.47483 0
M  V30 2892 H 269.538 0.809237 -1.19111 0
M  V30 2893 H 271.491 3.92878 -1.52397 0
M  V30 2894 H 270.215 3.22783 -0.49785 0
M  V30 2895 H 268.874 2.63688 -2.54684 0
M  V30 2896 H 268.522 4.83128 -1.39988 0
M  V30 2897 H 268.222 4.95956 -3.15122 0
M  V30 2898 H 269.746 5.58762 -2.46205 0
M  V30 2899 H 271.16 4.01051 -4.09672 0
M  V30 2900 H 269.557 3.62104 -4.7854 0
M  V30 2901 H 270.627 2.30669 -4.2652 0
M  V30 2902 N 271.97 1.30982 0.876444 0
M  V30 2903 C 272.918 1.18006 2.00443 0
M  V30 2904 C 273.912 0.0898871 1.69161 0
M  V30 2905 O 275.118 0.251333 1.78237 0
M  V30 2906 H 271.493 0.365196 0.65737 0
M  V30 2907 H 273.464 2.13453 2.0852 0
M  V30 2908 C 272.213 0.897521 3.35916 0
M  V30 2909 H 271.536 1.7285 3.60504 0
M  V30 2910 H 272.976 0.846874 4.15456 0
M  V30 2911 C 271.435 -0.399674 3.34521 0
M  V30 2912 O 271.965 -1.41852 3.7582 0
M  V30 2913 N 270.171 -0.413893 2.87637 0
M  V30 2914 H 269.718 0.41571 2.54224 0
M  V30 2915 H 269.676 -1.28175 2.87086 0
M  V30 2916 N 273.449 -1.08991 1.13837 0
M  V30 2917 C 274.677 -1.85011 0.926202 0
M  V30 2918 C 275.092 -1.8135 -0.525127 0
M  V30 2919 O 274.449 -1.21287 -1.36366 0
M  V30 2920 C 274.5 -3.32802 1.41155 0
M  V30 2921 O 274.221 -3.36444 2.80601 0
M  V30 2922 C 275.722 -4.25649 1.23847 0
M  V30 2923 H 272.942 -0.584249 0.32999 0
M  V30 2924 H 275.486 -1.37688 1.51202 0
M  V30 2925 H 273.641 -3.77536 0.868631 0
M  V30 2926 H 274.055 -4.28657 3.02248 0
M  V30 2927 H 275.529 -5.27485 1.62675 0
M  V30 2928 H 276.006 -4.38828 0.18065 0
M  V30 2929 H 276.612 -3.86735 1.76964 0
M  V30 2930 N 274.927 -0.932562 -1.27047 0
M  V30 2931 C 275.86 -0.379774 -2.25018 0
M  V30 2932 C 276.838 0.526587 -1.53837 0
M  V30 2933 O 278.022 0.465992 -1.82649 0
M  V30 2934 C 275.149 0.455187 -3.35627 0
M  V30 2935 C 274.195 -0.388428 -4.24728 0
M  V30 2936 S 275.028 -1.80701 -5.04091 0
M  V30 2937 C 276.184 -0.979865 -6.18182 0
M  V30 2938 H 276.417 -1.2101 -2.71558 0
M  V30 2939 H 273.95 -0.735078 -1.35779 0
M  V30 2940 H 275.908 0.931052 -3.99802 0
M  V30 2941 H 274.569 1.26009 -2.87716 0
M  V30 2942 H 273.762 0.25089 -5.03375 0
M  V30 2943 H 273.364 -0.798649 -3.65373 0
M  V30 2944 H 275.656 -0.218115 -6.77149 0
M  V30 2945 H 276.599 -1.73951 -6.86401 0
M  V30 2946 H 277.007 -0.51973 -5.62102 0
M  V30 2947 N 276.405 1.4127 -0.698611 0
M  V30 2948 C 277.335 2.33447 -0.049629 0
M  V30 2949 C 278.316 1.51982 0.763898 0
M  V30 2950 O 279.501 1.80509 0.716257 0
M  V30 2951 C 276.631 3.35828 0.885267 0
M  V30 2952 C 275.585 4.27627 0.178613 0
M  V30 2953 C 274.911 5.20406 1.22807 0
M  V30 2954 C 276.211 5.13459 -0.956933 0
M  V30 2955 H 277.905 2.87966 -0.81951 0
M  V30 2956 H 275.451 1.38461 -0.395538 0
M  V30 2957 H 277.404 3.9924 1.34854 0
M  V30 2958 H 276.128 2.79666 1.68685 0
M  V30 2959 H 274.787 3.65643 -0.26466 0
M  V30 2960 H 274.435 4.60558 2.02226 0
M  V30 2961 H 274.135 5.82661 0.760239 0
M  V30 2962 H 275.659 5.86695 1.69179 0
M  V30 2963 H 277.073 5.70421 -0.573805 0
M  V30 2964 H 275.47 5.8467 -1.35205 0
M  V30 2965 H 276.54 4.50443 -1.79524 0
M  V30 2966 N 277.883 0.443576 1.51229 0
M  V30 2967 C 278.831 -0.37904 2.29491 0
M  V30 2968 C 279.825 -1.0153 1.35603 0
M  V30 2969 O 281.031 -0.94955 1.52917 0
M  V30 2970 H 277.406 -0.141053 0.738653 0
M  V30 2971 H 279.377 0.301799 2.9687 0
M  V30 2972 C 278.126 -1.46426 3.15364 0
M  V30 2973 H 277.449 -0.984037 3.87501 0
M  V30 2974 H 278.889 -2.01297 3.7317 0
M  V30 2975 C 277.348 -2.45099 2.31146 0
M  V30 2976 O 277.878 -3.49773 1.9754 0
M  V30 2977 N 276.084 -2.16139 1.94249 0
M  V30 2978 H 275.631 -1.31044 2.21777 0
M  V30 2979 H 275.589 -2.82398 1.38198 0
M  V30 2980 N 279.361 -1.56624 0.175154 0
M  V30 2981 C 280.589 -2.01374 -0.474971 0
M  V30 2982 C 281.004 -1.05537 -1.56548 0
M  V30 2983 O 280.361 -0.0568668 -1.82411 0
M  V30 2984 C 280.412 -3.45923 -1.04975 0
M  V30 2985 O 280.133 -4.381 -0.00276605 0
M  V30 2986 C 281.634 -4.06093 -1.77773 0
M  V30 2987 H 278.854 -0.659962 -0.121206 0
M  V30 2988 H 281.398 -2.02601 0.27801 0
M  V30 2989 H 279.553 -3.45458 -1.75321 0
M  V30 2990 H 279.967 -5.22753 -0.427681 0
M  V30 2991 H 281.441 -5.09147 -2.13245 0
M  V30 2992 H 281.918 -3.48405 -2.67414 0
M  V30 2993 H 282.524 -4.10272 -1.12059 0
M  V30 2994 N 280.839 0.0985539 -1.57292 0
M  V30 2995 C 282.085 0.803867 -1.86188 0
M  V30 2996 C 282.418 1.78549 -0.763794 0
M  V30 2997 O 281.693 1.93153 0.22855 0
M  V30 2998 C 281.976 1.53568 -3.25713 0
M  V30 2999 C 281.829 0.572277 -4.46145 0
M  V30 3000 C 283.148 2.48708 -3.63087 0
M  V30 3001 H 280.267 0.290781 -0.677211 0
M  V30 3002 H 282.909 0.0675783 -1.8988 0
M  V30 3003 H 281.059 2.16332 -3.22696 0
M  V30 3004 H 282.731 -0.0480894 -4.61275 0
M  V30 3005 H 280.974 -0.114618 -4.33649 0
M  V30 3006 H 281.645 1.12139 -5.40489 0
M  V30 3007 H 284.121 1.96039 -3.67026 0
M  V30 3008 H 282.997 2.96932 -4.61652 0
M  V30 3009 H 283.258 3.32309 -2.91588 0
M  V30 3010 N 282.317 1.53212 0.369288 0
M  V30 3011 C 283.565 1.68881 1.11012 0
M  V30 3012 C 283.886 0.441285 1.89941 0
M  V30 3013 O 283.156 -0.544623 1.88177 0
M  V30 3014 H 281.736 0.622569 0.412816 0
M  V30 3015 H 284.398 1.90391 0.416802 0
M  V30 3016 H 283.494 2.54822 1.80201 0
M  V30 3017 N 283.795 -0.628877 1.44509 0
M  V30 3018 C 285.043 -1.38565 1.4712 0
M  V30 3019 C 285.364 -1.94712 0.105899 0
M  V30 3020 O 284.634 -1.75912 -0.862079 0
M  V30 3021 H 283.214 -0.514333 0.541729 0
M  V30 3022 H 285.876 -0.740018 1.80305 0
M  V30 3023 H 284.972 -2.21583 2.19789 0
M  V30 3024 N 285.273 -1.31445 -0.869486 0
M  V30 3025 C 286.223 -1.15731 -1.96444 0
M  V30 3026 C 287.207 -0.0681855 -1.60755 0
M  V30 3027 O 288.399 -0.293154 -1.74555 0
M  V30 3028 C 285.528 -0.867255 -3.32165 0
M  V30 3029 C 284.614 -1.99738 -3.74119 0
M  V30 3030 N 285.005 -3.24447 -3.88031 0
M  V30 3031 C 283.303 -1.89723 -4.03635 0
M  V30 3032 C 284.004 -3.98374 -4.23879 0
M  V30 3033 N 282.98 -3.26547 -4.3459 0
M  V30 3034 H 286.782 -2.10296 -2.05312 0
M  V30 3035 H 284.296 -1.23009 -1.06031 0
M  V30 3036 H 286.293 -0.735668 -4.10358 0
M  V30 3037 H 284.953 0.0701614 -3.24624 0
M  V30 3038 H 285.964 -3.59557 -3.72746 0
M  V30 3039 H 282.641 -1.03449 -4.04481 0
M  V30 3040 H 284.031 -5.05844 -4.42235 0
M  V30 3041 N 286.751 1.08385 -1.14413 0
M  V30 3042 C 287.683 2.1519 -0.789036 0
M  V30 3043 C 288.696 1.61638 0.19417 0
M  V30 3044 O 289.885 1.78479 -0.0275711 0
M  V30 3045 C 286.985 3.38565 -0.15058 0
M  V30 3046 C 286.158 4.21501 -1.16857 0
M  V30 3047 C 285.217 5.23277 -0.553832 0
M  V30 3048 O 284.243 5.56041 -1.21686 0
M  V30 3049 N 285.445 5.76629 0.669296 0
M  V30 3050 H 288.21 2.46257 -1.70814 0
M  V30 3051 H 285.771 1.24198 -1.03858 0
M  V30 3052 H 287.763 4.03777 0.273181 0
M  V30 3053 H 286.333 3.05299 0.671667 0
M  V30 3054 H 285.553 3.52265 -1.76926 0
M  V30 3055 H 286.841 4.73731 -1.85624 0
M  V30 3056 H 286.239 5.52243 1.22654 0
M  V30 3057 H 284.796 6.43521 1.03556 0
M  V30 3058 N 288.23 0.939286 1.26551 0
M  V30 3059 C 289.193 0.451987 2.24699 0
M  V30 3060 C 290.193 -0.435869 1.5478 0
M  V30 3061 O 291.383 -0.235314 1.72603 0
M  V30 3062 C 288.515 -0.348801 3.39111 0
M  V30 3063 H 289.708 1.3193 2.69322 0
M  V30 3064 H 287.261 0.721072 1.38673 0
M  V30 3065 H 287.996 -1.23444 2.99887 0
M  V30 3066 H 287.781 0.287945 3.91041 0
M  V30 3067 H 289.271 -0.679726 4.12031 0
M  V30 3068 N 289.708 -1.40897 0.706093 0
M  V30 3069 C 290.671 -2.29131 0.0562841 0
M  V30 3070 C 291.671 -1.44901 -0.697166 0
M  V30 3071 O 292.861 -1.65926 -0.530484 0
M  V30 3072 C 289.993 -3.27957 -0.93043 0
M  V30 3073 H 291.186 -2.88091 0.833284 0
M  V30 3074 H 288.739 -1.4906 0.470192 0
M  V30 3075 H 289.474 -2.73997 -1.73482 0
M  V30 3076 H 289.259 -3.90124 -0.393166 0
M  V30 3077 H 290.749 -3.94049 -1.38256 0
M  V30 3078 N 291.186 -0.45159 -1.50991 0
M  V30 3079 C 292.119 0.398179 -2.24699 0
M  V30 3080 C 293.097 1.01276 -1.27208 0
M  V30 3081 O 294.281 1.05247 -1.56382 0
M  V30 3082 C 291.408 1.55618 -3.00833 0
M  V30 3083 C 290.454 1.0609 -4.13095 0
M  V30 3084 S 291.287 -0.00865136 -5.35499 0
M  V30 3085 C 292.443 1.15369 -6.15175 0
M  V30 3086 H 292.676 -0.227555 -2.96428 0
M  V30 3087 H 290.209 -0.236251 -1.52582 0
M  V30 3088 H 292.167 2.21997 -3.45293 0
M  V30 3089 H 290.828 2.15337 -2.28667 0
M  V30 3090 H 290.021 1.92726 -4.65696 0
M  V30 3091 H 289.623 0.47513 -3.7097 0
M  V30 3092 H 291.915 2.06925 -6.45126 0
M  V30 3093 H 292.858 0.667344 -7.04948 0
M  V30 3094 H 293.266 1.3987 -5.46897 0
M  V30 3095 N 292.664 1.56529 -0.183458 0
M  V30 3096 C 293.596 2.15747 0.773697 0
M  V30 3097 C 294.609 1.1162 1.1851 0
M  V30 3098 O 295.798 1.3876 1.12285 0
M  V30 3099 C 292.898 2.6952 2.05456 0
M  V30 3100 C 292.071 3.98429 1.8048 0
M  V30 3101 C 291.13 4.37145 2.92901 0
M  V30 3102 O 290.156 5.04791 2.6301 0
M  V30 3103 N 291.358 3.99695 4.2098 0
M  V30 3104 H 294.123 2.98505 0.26736 0
M  V30 3105 H 291.684 1.619 -0.0010878 0
M  V30 3106 H 293.676 2.92412 2.79781 0
M  V30 3107 H 292.246 1.91282 2.47245 0
M  V30 3108 H 291.466 3.8379 0.899947 0
M  V30 3109 H 292.754 4.82597 1.61175 0
M  V30 3110 H 292.152 3.4526 4.48121 0
M  V30 3111 H 290.709 4.27562 4.9197 0
M  V30 3112 N 294.142 -0.090211 1.57342 0
M  V30 3113 C 295.075 -1.14035 1.97664 0
M  V30 3114 C 296.053 -1.38576 0.850616 0
M  V30 3115 O 297.237 -1.52255 1.11134 0
M  V30 3116 C 294.364 -2.48854 2.2976 0
M  V30 3117 C 293.41 -2.40564 3.52181 0
M  V30 3118 S 294.243 -1.81745 5.03715 0
M  V30 3119 C 295.399 -3.18178 5.38993 0
M  V30 3120 H 295.632 -0.796636 2.86428 0
M  V30 3121 H 293.165 -0.298072 1.51496 0
M  V30 3122 H 295.123 -3.26413 2.48927 0
M  V30 3123 H 293.784 -2.80393 1.41558 0
M  V30 3124 H 292.977 -3.39942 3.72096 0
M  V30 3125 H 292.579 -1.71135 3.32549 0
M  V30 3126 H 294.871 -4.14461 5.35937 0
M  V30 3127 H 295.814 -3.03062 6.39968 0
M  V30 3128 H 296.222 -3.17935 4.66452 0
M  V30 3129 N 295.62 -1.53406 -0.361157 0
M  V30 3130 C 296.55 -1.83136 -1.44857 0
M  V30 3131 C 297.531 -0.685174 -1.5569 0
M  V30 3132 O 298.716 -0.93544 -1.70186 0
M  V30 3133 C 295.846 -2.02522 -2.82138 0
M  V30 3134 C 294.8 -3.18302 -2.86126 0
M  V30 3135 C 294.126 -3.22989 -4.26125 0
M  V30 3136 C 295.426 -4.56796 -2.53248 0
M  V30 3137 H 297.12 -2.74201 -1.20226 0
M  V30 3138 H 294.666 -1.31938 -0.576922 0
M  V30 3139 H 296.619 -2.21904 -3.58241 0
M  V30 3140 H 295.343 -1.08172 -3.08166 0
M  V30 3141 H 294.002 -2.98747 -2.12475 0
M  V30 3142 H 293.65 -2.26267 -4.49235 0
M  V30 3143 H 293.35 -4.00781 -4.29708 0
M  V30 3144 H 294.874 -3.44559 -5.04094 0
M  V30 3145 H 296.288 -4.7631 -3.19064 0
M  V30 3146 H 294.685 -5.36862 -2.68141 0
M  V30 3147 H 295.755 -4.61606 -1.48484 0
M  V30 3148 N 297.098 0.621204 -1.44841 0
M  V30 3149 C 298.045 1.73267 -1.5247 0
M  V30 3150 C 299.015 1.6189 -0.371611 0
M  V30 3151 O 300.2 1.81668 -0.58321 0
M  V30 3152 C 297.34 3.11545 -1.48438 0
M  V30 3153 C 296.453 3.33827 -2.74196 0
M  V30 3154 C 295.588 4.62133 -2.61929 0
M  V30 3155 C 294.627 4.77627 -3.82804 0
M  V30 3156 N 293.764 5.97219 -3.69153 0
M  V30 3157 H 298.604 1.66082 -2.47428 0
M  V30 3158 H 296.141 0.810026 -1.22788 0
M  V30 3159 H 298.099 3.91528 -1.4409 0
M  V30 3160 H 296.729 3.1772 -0.570402 0
M  V30 3161 H 295.781 2.47715 -2.88689 0
M  V30 3162 H 297.093 3.41153 -3.6389 0
M  V30 3163 H 296.247 5.50291 -2.5547 0
M  V30 3164 H 294.986 4.57182 -1.69811 0
M  V30 3165 H 293.991 3.87896 -3.89637 0
M  V30 3166 H 295.216 4.84385 -4.75971 0
M  V30 3167 H 293.162 5.93339 -2.79794 0
M  V30 3168 H 293.079 6.05644 -4.52472 0
M  V30 3169 H 294.347 6.87912 -3.66603 0
M  V30 3170 N 298.576 1.31904 0.862503 0
M  V30 3171 C 299.486 1.22161 2.00285 0
M  V30 3172 C 300.502 0.136785 1.73462 0
M  V30 3173 O 301.678 0.355994 1.98229 0
M  V30 3174 C 298.743 0.937093 3.33796 0
M  V30 3175 C 297.804 2.10957 3.73893 0
M  V30 3176 C 297.037 1.83853 5.01033 0
M  V30 3177 O 297.26 0.777274 5.65079 0
M  V30 3178 O 296.194 2.69741 5.38074 0
M  V30 3179 H 300.02 2.18008 2.11439 0
M  V30 3180 H 297.605 1.11716 0.991957 0
M  V30 3181 H 299.487 0.794583 4.13841 0
M  V30 3182 H 298.162 0.00871894 3.23699 0
M  V30 3183 H 297.069 2.30752 2.94456 0
M  V30 3184 H 298.402 3.02046 3.88625 0
M  V30 3185 N 300.054 -1.07777 1.14986 0
M  V30 3186 C 301.282 -1.84018 0.945773 0
M  V30 3187 C 301.697 -1.81897 -0.505863 0
M  V30 3188 O 301.054 -1.22726 -1.35072 0
M  V30 3189 C 301.105 -3.31287 1.44677 0
M  V30 3190 O 300.826 -3.33449 2.84154 0
M  V30 3191 C 302.327 -4.24311 1.28355 0
M  V30 3192 H 299.547 -0.580716 0.336169 0
M  V30 3193 H 302.091 -1.36077 1.52654 0
M  V30 3194 H 300.246 -3.76594 0.908625 0
M  V30 3195 H 300.66 -4.25427 3.06777 0
M  V30 3196 H 302.134 -5.2573 1.68261 0
M  V30 3197 H 302.611 -4.38612 0.227184 0
M  V30 3198 H 303.217 -3.84836 1.81056 0
M  V30 3199 N 301.532 -0.945985 -1.26051 0
M  V30 3200 C 302.781 -0.591836 -1.92822 0
M  V30 3201 C 303.094 0.873956 -1.7499 0
M  V30 3202 O 304.3 1.33769 -2.36259 0
M  V30 3203 C 302.756 -1.00776 -3.45503 0
M  V30 3204 C 302.364 -2.4955 -3.7206 0
M  V30 3205 C 304.108 -0.725735 -4.1825 0
M  V30 3206 C 302.015 -2.84988 -5.18205 0
M  V30 3207 H 300.945 -0.217635 -0.721908 0
M  V30 3208 H 303.596 -1.14927 -1.43052 0
M  V30 3209 H 301.978 -0.378812 -3.94184 0
M  V30 3210 H 303.152 -3.1739 -3.34066 0
M  V30 3211 H 301.467 -2.75133 -3.12555 0
M  V30 3212 H 304.064 -0.966771 -5.25887 0
M  V30 3213 H 304.407 0.337639 -4.14929 0
M  V30 3214 H 304.94 -1.31463 -3.7545 0
M  V30 3215 H 301.679 -3.90307 -5.26631 0
M  V30 3216 H 301.199 -2.21813 -5.57278 0
M  V30 3217 H 302.878 -2.73712 -5.86252 0
M  V30 3218 N 303.011 1.40521 -0.713556 0
M  V30 3219 C 303.959 2.32549 -0.0485227 0
M  V30 3220 C 304.953 1.51931 0.74922 0
M  V30 3221 O 306.159 1.67745 0.652816 0
M  V30 3222 H 302.534 0.751994 0.00311138 0
M  V30 3223 H 304.505 2.86291 -0.841443 0
M  V30 3224 C 303.254 3.36879 0.860687 0
M  V30 3225 H 302.577 3.98978 0.256246 0
M  V30 3226 H 304.017 4.03772 1.294 0
M  V30 3227 C 302.476 2.72197 1.9852 0
M  V30 3228 O 303.006 2.5837 3.07584 0
M  V30 3229 N 301.212 2.30612 1.76823 0
M  V30 3230 H 300.759 2.42059 0.881217 0
M  V30 3231 H 300.717 1.87672 2.52243 0
M  V30 3232 N 304.489 0.459591 1.5075 0
M  V30 3233 C 305.399 -0.34613 2.32033 0
M  V30 3234 C 306.415 -1.00686 1.41909 0
M  V30 3235 O 307.591 -0.997361 1.7497 0
M  V30 3236 C 304.656 -1.42029 3.16273 0
M  V30 3237 C 303.717 -0.777362 4.22203 0
M  V30 3238 C 302.95 -1.80034 5.02418 0
M  V30 3239 O 303.173 -3.02544 4.83553 0
M  V30 3240 O 302.107 -1.37853 5.85901 0
M  V30 3241 H 305.933 0.318054 3.0203 0
M  V30 3242 H 303.518 0.221663 1.47746 0
M  V30 3243 H 305.4 -2.04275 3.68578 0
M  V30 3244 H 304.075 -2.06815 2.49016 0
M  V30 3245 H 302.982 -0.116256 3.73919 0
M  V30 3246 H 304.315 -0.172634 4.91897 0
M  V30 3247 N 305.967 -1.56429 0.191757 0
M  V30 3248 C 306.877 -2.22541 -0.742481 0
M  V30 3249 C 307.893 -1.22342 -1.23727 0
M  V30 3250 O 309.069 -1.55069 -1.28513 0
M  V30 3251 C 306.134 -2.8692 -1.94623 0
M  V30 3252 C 305.195 -4.02378 -1.49633 0
M  V30 3253 C 304.428 -4.63678 -2.6427 0
M  V30 3254 O 304.651 -4.23895 -3.81666 0
M  V30 3255 O 303.585 -5.53202 -2.37174 0
M  V30 3256 H 307.411 -3.02977 -0.209462 0
M  V30 3257 H 304.996 -1.49353 -0.0373832 0
M  V30 3258 H 306.878 -3.27663 -2.64982 0
M  V30 3259 H 305.553 -2.09466 -2.46791 0
M  V30 3260 H 304.46 -3.66265 -0.761636 0
M  V30 3261 H 305.793 -4.81487 -1.02134 0
M  V30 3262 N 307.445 0.0818655 -1.57387 0
M  V30 3263 C 308.408 1.08265 -2.02018 0
M  V30 3264 C 309.408 1.32183 -0.915664 0
M  V30 3265 O 310.598 1.28073 -1.18081 0
M  V30 3266 C 307.73 2.42871 -2.39221 0
M  V30 3267 H 308.923 0.698204 -2.91659 0
M  V30 3268 H 306.476 0.327303 -1.52835 0
M  V30 3269 H 307.211 2.86167 -1.52575 0
M  V30 3270 H 306.996 2.26855 -3.19811 0
M  V30 3271 H 308.486 3.14826 -2.74362 0
M  V30 3272 N 308.923 1.53595 0.353017 0
M  V30 3273 C 309.886 1.80232 1.41594 0
M  V30 3274 C 310.886 0.673081 1.46035 0
M  V30 3275 O 312.076 0.941335 1.46576 0
M  V30 3276 C 309.208 1.93578 2.80607 0
M  V30 3277 H 310.401 2.75174 1.19244 0
M  V30 3278 H 307.954 1.44864 0.586872 0
M  V30 3279 H 308.689 1.00746 3.08254 0
M  V30 3280 H 308.474 2.75724 2.78781 0
M  V30 3281 H 309.964 2.15735 3.57558 0
M  V30 3282 N 310.401 -0.613514 1.45168 0
M  V30 3283 C 311.311 -1.75296 1.55912 0
M  V30 3284 C 312.327 -1.68244 0.443856 0
M  V30 3285 O 313.503 -1.88706 0.70371 0
M  V30 3286 C 310.568 -3.1174 1.5172 0
M  V30 3287 C 309.629 -3.30291 2.74238 0
M  V30 3288 C 308.862 -4.60226 2.70236 0
M  V30 3289 O 309.085 -5.42168 1.77229 0
M  V30 3290 O 308.019 -4.81361 3.61352 0
M  V30 3291 H 311.845 -1.69183 2.52212 0
M  V30 3292 H 309.43 -0.776886 1.27612 0
M  V30 3293 H 311.312 -3.93044 1.51968 0
M  V30 3294 H 309.987 -3.18357 0.585697 0
M  V30 3295 H 308.894 -2.48598 2.79553 0
M  V30 3296 H 310.227 -3.28547 3.66494 0
M  V30 3297 N 311.879 -1.3236 -0.855495 0
M  V30 3298 C 313.125 -1.24064 -1.61182 0
M  V30 3299 C 313.48 0.195914 -1.914 0
M  V30 3300 O 312.773 1.13345 -1.54478 0
M  V30 3301 C 312.967 -2.03275 -2.93963 0
M  V30 3302 C 312.796 -3.54486 -2.76712 0
M  V30 3303 C 311.566 -4.23824 -2.75139 0
M  V30 3304 C 313.764 -4.49154 -2.50531 0
M  V30 3305 N 311.746 -5.61095 -2.4909 0
M  V30 3306 C 313.117 -5.74195 -2.3388 0
M  V30 3307 C 315.172 -4.3842 -2.35992 0
M  V30 3308 C 313.875 -6.89716 -2.04168 0
M  V30 3309 C 315.901 -5.53739 -2.0767 0
M  V30 3310 C 315.263 -6.77779 -1.9182 0
M  V30 3311 H 311.362 -0.509139 -0.59355 0
M  V30 3312 H 313.946 -1.66715 -1.00569 0
M  V30 3313 H 312.117 -1.6297 -3.52555 0
M  V30 3314 H 313.849 -1.86881 -3.58967 0
M  V30 3315 H 310.604 -3.75934 -2.88047 0
M  V30 3316 H 311.028 -6.33411 -2.38996 0
M  V30 3317 H 315.67 -3.43172 -2.46967 0
M  V30 3318 H 313.388 -7.84977 -1.9193 0
M  V30 3319 H 316.974 -5.4736 -1.97201 0
M  V30 3320 H 315.854 -7.65504 -1.70217 0
M  V30 3321 N 313.357 1.07166 -1.15556 0
M  V30 3322 C 314.634 1.76546 -0.842069 0
M  V30 3323 C 315.014 2.00453 0.661939 0
M  V30 3324 O 314.362 1.62452 1.60691 0
M  V30 3325 C 314.572 3.07266 -1.65495 0
M  V30 3326 C 315.92 3.81578 -1.86234 0
M  V30 3327 O 316.944 3.17083 -1.62287 0
M  V30 3328 O 315.803 4.97419 -2.26355 0
M  V30 3329 H 312.897 0.766756 -0.309862 0
M  V30 3330 H 315.443 1.13514 -1.26145 0
M  V30 3331 H 314.215 2.85494 -2.67598 0
M  V30 3332 H 313.838 3.7803 -1.23203 0
M  V30 3333 N 314.835 0.952656 1.25548 0
M  V30 3334 C 316.251 0.656769 1.4546 0
M  V30 3335 C 316.451 -0.78633 1.85524 0
M  V30 3336 O 315.507 -1.56183 1.98402 0
M  V30 3337 C 316.82 1.62801 2.52817 0
M  V30 3338 C 318.368 1.63897 2.66659 0
M  V30 3339 C 318.843 2.5978 3.77198 0
M  V30 3340 N 320.334 2.58133 3.84606 0
M  V30 3341 C 321.069 3.29003 4.69621 0
M  V30 3342 N 320.565 4.09339 5.58939 0
M  V30 3343 N 322.358 3.179 4.63569 0
M  V30 3344 H 314.509 1.88526 0.978344 0
M  V30 3345 H 316.772 0.810815 0.491206 0
M  V30 3346 H 316.478 2.65869 2.30232 0
M  V30 3347 H 316.352 1.38898 3.50695 0
M  V30 3348 H 318.739 0.615481 2.8861 0
M  V30 3349 H 318.82 1.91858 1.69187 0
M  V30 3350 H 318.464 3.62254 3.55997 0
M  V30 3351 H 318.394 2.29105 4.7415 0
M  V30 3352 H 320.885 1.99809 3.20757 0
M  V30 3353 H 321.198 4.6034 6.20731 0
M  V30 3354 H 319.543 4.13438 5.58654 0
M  V30 3355 H 322.734 2.54612 3.92798 0
M  V30 3356 H 322.907 3.73398 5.29602 0
M  V30 3357 N 316.313 -1.40141 0.720998 0
M  V30 3358 C 317.243 -2.33339 0.0867621 0
M  V30 3359 C 318.224 -1.53178 -0.739622 0
M  V30 3360 O 319.409 -1.81625 -0.687449 0
M  V30 3361 C 316.539 -3.37194 -0.831728 0
M  V30 3362 C 315.493 -4.27857 -0.110558 0
M  V30 3363 C 314.819 -5.22294 -1.14513 0
M  V30 3364 C 316.119 -5.11872 1.0385 0
M  V30 3365 H 317.813 -2.86626 0.865219 0
M  V30 3366 H 315.359 -1.37814 0.417516 0
M  V30 3367 H 317.312 -4.01335 -1.28485 0
M  V30 3368 H 316.036 -2.82314 -1.64214 0
M  V30 3369 H 314.695 -3.65176 0.322797 0
M  V30 3370 H 314.343 -4.63717 -1.94874 0
M  V30 3371 H 314.043 -5.83797 -0.667446 0
M  V30 3372 H 315.567 -5.89312 -1.59824 0
M  V30 3373 H 316.981 -5.69436 0.664482 0
M  V30 3374 H 315.378 -5.82445 1.4449 0
M  V30 3375 H 316.448 -4.4753 1.86668 0
M  V30 3376 N 317.792 -0.46758 -1.50504 0
M  V30 3377 C 318.742 0.34698 -2.25344 0
M  V30 3378 C 319.726 0.964469 -1.2879 0
M  V30 3379 O 320.918 0.8776 -1.53711 0
M  V30 3380 C 318.047 1.43042 -3.1208 0
M  V30 3381 C 317.133 0.82084 -4.16081 0
M  V30 3382 N 317.524 -0.0567602 -5.05768 0
M  V30 3383 C 315.822 1.08517 -4.32597 0
M  V30 3384 C 316.523 -0.402343 -5.80307 0
M  V30 3385 N 315.499 0.221607 -5.43148 0
M  V30 3386 H 319.301 -0.329129 -2.92051 0
M  V30 3387 H 316.815 -0.281508 -1.59942 0
M  V30 3388 H 318.812 2.02712 -3.64299 0
M  V30 3389 H 317.472 2.10856 -2.46921 0
M  V30 3390 H 318.483 -0.425349 -5.1615 0
M  V30 3391 H 315.16 1.75855 -3.78657 0
M  V30 3392 H 316.55 -1.11834 -6.62528 0
M  V30 3393 N 319.27 1.56325 -0.20005 0
M  V30 3394 C 320.681 1.8408 0.31167 0
M  V30 3395 C 321.032 1.12087 1.61031 0
M  V30 3396 O 320.157 0.38332 2.12978 0
M  V30 3397 C 320.752 3.33932 0.57226 0
M  V30 3398 C 319.311 3.6208 1.02834 0
M  V30 3399 C 318.458 2.77186 0.079634 0
M  V30 3400 H 321.409 1.52939 -0.423729 0
M  V30 3401 H 321.43 3.52971 1.42096 0
M  V30 3402 H 320.942 3.86303 -0.37308 0
M  V30 3403 H 319.043 3.15147 1.98778 0
M  V30 3404 H 319.156 4.7023 0.917624 0
M  V30 3405 H 317.52 2.47951 0.582448 0
M  V30 3406 H 318.303 3.32347 -0.860238 0
M  V30 3407 N 320.748 -0.0735177 1.57428 0
M  V30 3408 C 321.994 -0.774145 1.87443 0
M  V30 3409 C 322.327 -1.77311 0.792103 0
M  V30 3410 O 321.602 -1.93492 -0.197793 0
M  V30 3411 C 321.885 -1.48367 3.28115 0
M  V30 3412 C 321.738 -0.501227 4.46999 0
M  V30 3413 C 323.057 -2.429 3.66998 0
M  V30 3414 H 320.176 -0.279971 0.681752 0
M  V30 3415 H 322.818 -0.0373616 1.89963 0
M  V30 3416 H 320.968 -2.11171 3.26097 0
M  V30 3417 H 322.64 0.121468 4.6114 0
M  V30 3418 H 320.883 0.183593 4.33411 0
M  V30 3419 H 321.554 -1.03526 5.42205 0
M  V30 3420 H 324.03 -1.90175 3.70098 0
M  V30 3421 H 322.906 -2.89549 4.66318 0
M  V30 3422 H 323.167 -3.27628 2.96837 0
M  V30 3423 N 322.226 -1.5378 -0.344866 0
M  V30 3424 C 323.176 -1.78057 -1.42407 0
M  V30 3425 C 324.16 -0.635732 -1.47808 0
M  V30 3426 O 325.352 -0.89508 -1.527 0
M  V30 3427 C 322.481 -1.99242 -2.79566 0
M  V30 3428 C 321.567 -3.19787 -2.78562 0
M  V30 3429 N 321.958 -4.41284 -2.47189 0
M  V30 3430 C 320.256 -3.2093 -3.0971 0
M  V30 3431 C 320.957 -5.23128 -2.54385 0
M  V30 3432 N 319.933 -4.59813 -2.89953 0
M  V30 3433 H 323.735 -2.69588 -1.17046 0
M  V30 3434 H 321.249 -1.52687 -0.553217 0
M  V30 3435 H 323.246 -2.14768 -3.57324 0
M  V30 3436 H 321.906 -1.08953 -3.05875 0
M  V30 3437 H 322.917 -4.68657 -2.20411 0
M  V30 3438 H 319.594 -2.40603 -3.41199 0
M  V30 3439 H 320.984 -6.30096 -2.333 0
M  V30 3440 N 323.704 0.605807 -1.45491 0
M  V30 3441 C 324.667 1.69836 -1.5391 0
M  V30 3442 C 325.667 1.55261 -0.418424 0
M  V30 3443 O 326.857 1.60296 -0.681965 0
M  V30 3444 C 323.989 3.09117 -1.43734 0
M  V30 3445 H 325.182 1.63738 -2.51257 0
M  V30 3446 H 322.735 0.821689 -1.32959 0
M  V30 3447 H 323.47 3.20791 -0.475788 0
M  V30 3448 H 323.255 3.21104 -2.25021 0
M  V30 3449 H 324.745 3.88696 -1.52661 0
M  V30 3450 N 325.182 1.32811 0.848464 0
M  V30 3451 C 326.43 1.23479 1.59991 0
M  V30 3452 C 326.751 -0.201853 1.93952 0
M  V30 3453 O 326.021 -1.12818 1.60153 0
M  V30 3454 H 324.601 0.454034 0.593179 0
M  V30 3455 H 327.263 1.66412 1.01455 0
M  V30 3456 H 326.359 1.82178 2.53412 0
M  V30 3457 N 326.66 -1.06551 1.16123 0
M  V30 3458 C 328.071 -1.60768 0.949232 0
M  V30 3459 C 328.422 -1.89523 -0.507508 0
M  V30 3460 O 327.547 -1.66671 -1.38021 0
M  V30 3461 C 328.142 -2.92086 1.71671 0
M  V30 3462 C 326.701 -3.43015 1.54977 0
M  V30 3463 C 325.848 -2.16947 1.72711 0
M  V30 3464 H 328.799 -0.895354 1.31031 0
M  V30 3465 H 328.82 -3.6138 1.19099 0
M  V30 3466 H 328.332 -2.71127 2.7769 0
M  V30 3467 H 326.433 -3.69039 0.513873 0
M  V30 3468 H 326.546 -4.18516 2.33198 0
M  V30 3469 H 324.91 -2.27041 1.15431 0
M  V30 3470 H 325.693 -1.98473 2.80113 0
M  V30 3471 N 328.138 -0.959301 -1.25041 0
M  V30 3472 C 329.387 -0.612254 -1.92183 0
M  V30 3473 C 329.7 0.855347 -1.75907 0
M  V30 3474 O 330.906 1.31256 -2.37664 0
M  V30 3475 C 329.362 -1.04435 -3.44414 0
M  V30 3476 C 328.97 -2.53482 -3.69393 0
M  V30 3477 C 330.714 -0.770055 -4.17457 0
M  V30 3478 C 328.621 -2.90468 -5.15153 0
M  V30 3479 H 327.551 -0.225279 -0.719559 0
M  V30 3480 H 330.202 -1.16438 -1.41825 0
M  V30 3481 H 328.584 -0.4206 -3.9376 0
M  V30 3482 H 329.758 -3.20916 -3.30681 0
M  V30 3483 H 328.073 -2.78432 -3.0962 0
M  V30 3484 H 330.67 -1.02249 -5.24832 0
M  V30 3485 H 331.013 0.293611 -4.15263 0
M  V30 3486 H 331.546 -1.35437 -3.74034 0
M  V30 3487 H 328.285 -3.95871 -5.22462 0
M  V30 3488 H 327.805 -2.27711 -5.54894 0
M  V30 3489 H 329.484 -2.79914 -5.83315 0
M  V30 3490 N 329.616 1.39756 -0.72842 0
M  V30 3491 C 330.579 2.29012 -0.0927297 0
M  V30 3492 C 331.579 1.45992 0.674025 0
M  V30 3493 O 332.769 1.66749 0.50402 0
M  V30 3494 C 329.901 3.29396 0.878137 0
M  V30 3495 H 331.094 2.86729 -0.879011 0
M  V30 3496 H 328.647 1.48293 -0.493847 0
M  V30 3497 H 329.382 2.76722 1.69101 0
M  V30 3498 H 329.167 3.907 0.331051 0
M  V30 3499 H 330.657 3.96199 1.3197 0
M  V30 3500 N 331.094 0.475555 1.50254 0
M  V30 3501 C 332.505 0.0215174 1.86688 0
M  V30 3502 C 332.856 -1.38467 1.39001 0
M  V30 3503 O 331.981 -2.02732 0.756894 0
M  V30 3504 C 332.576 0.0322715 3.38785 0
M  V30 3505 C 331.135 -0.366314 3.74613 0
M  V30 3506 C 330.282 0.415832 2.74164 0
M  V30 3507 H 333.233 0.689612 1.42934 0
M  V30 3508 H 333.254 -0.76889 3.7265 0
M  V30 3509 H 332.766 1.05584 3.73462 0
M  V30 3510 H 330.867 -1.39406 3.45538 0
M  V30 3511 H 330.98 -0.064555 4.79057 0
M  V30 3512 H 329.344 -0.131048 2.54363 0
M  V30 3513 H 330.127 1.43899 3.11686 0
M  V30 3514 N 332.573 -1.56217 0.208337 0
M  V30 3515 C 333.821 -1.97558 -0.426076 0
M  V30 3516 C 334.142 -1.09683 -1.61229 0
M  V30 3517 O 333.412 -0.170956 -1.95153 0
M  V30 3518 H 331.992 -0.729575 -0.160405 0
M  V30 3519 H 334.654 -1.92606 0.298155 0
M  V30 3520 H 333.75 -3.02672 -0.761312 0
M  V30 3521 N 334.051 0.0651679 -1.57465 0
M  V30 3522 C 334.983 1.10359 -2.00882 0
M  V30 3523 C 335.996 1.346 -0.915788 0
M  V30 3524 O 337.185 1.32723 -1.1936 0
M  V30 3525 C 334.285 2.45312 -2.33828 0
M  V30 3526 C 333.458 2.40934 -3.65061 0
M  V30 3527 C 332.517 3.58047 -3.85602 0
M  V30 3528 O 331.543 3.39175 -4.57109 0
M  V30 3529 N 332.745 4.78637 -3.28462 0
M  V30 3530 H 335.51 0.733807 -2.90578 0
M  V30 3531 H 333.071 0.253719 -1.599 0
M  V30 3532 H 335.063 3.22314 -2.44737 0
M  V30 3533 H 333.633 2.74267 -1.49988 0
M  V30 3534 H 332.853 1.49273 -3.64844 0
M  V30 3535 H 334.141 2.35117 -4.51218 0
M  V30 3536 H 333.539 4.96872 -2.70433 0
M  V30 3537 H 332.096 5.53127 -3.44809 0
M  V30 3538 N 335.529 1.53961 0.336706 0
M  V30 3539 C 336.462 1.77255 1.43722 0
M  V30 3540 C 337.44 0.62193 1.50236 0
M  V30 3541 O 338.624 0.857874 1.67847 0
M  V30 3542 C 335.751 1.87733 2.81912 0
M  V30 3543 C 334.797 3.09933 2.92991 0
M  V30 3544 S 335.63 4.68836 2.58753 0
M  V30 3545 C 336.786 4.82202 3.99039 0
M  V30 3546 H 337.019 2.70322 1.23748 0
M  V30 3547 H 334.552 1.44917 0.532777 0
M  V30 3548 H 336.51 1.94455 3.61521 0
M  V30 3549 H 335.171 0.956666 2.99177 0
M  V30 3550 H 334.364 3.1396 3.94265 0
M  V30 3551 H 333.966 3.01472 2.21338 0
M  V30 3552 H 336.258 4.64032 4.9364 0
M  V30 3553 H 337.201 5.84298 4.00002 0
M  V30 3554 H 337.609 4.10604 3.87382 0
M  V30 3555 N 337.007 -0.598083 1.45811 0
M  V30 3556 C 338.423 -0.919847 1.30426 0
M  V30 3557 C 338.623 -1.99759 0.264303 0
M  V30 3558 O 337.679 -2.50221 -0.338472 0
M  V30 3559 C 338.992 -1.35176 2.68603 0
M  V30 3560 C 340.54 -1.46546 2.76574 0
M  V30 3561 C 341.015 -1.9311 4.15298 0
M  V30 3562 N 342.506 -2.00328 4.1764 0
M  V30 3563 C 343.241 -2.37599 5.21856 0
M  V30 3564 N 342.737 -2.73771 6.36413 0
M  V30 3565 N 344.53 -2.38021 5.09218 0
M  V30 3566 H 336.681 0.114111 2.12093 0
M  V30 3567 H 338.944 -0.0116121 0.947929 0
M  V30 3568 H 338.65 -0.633969 3.45939 0
M  V30 3569 H 338.524 -2.3164 2.97696 0
M  V30 3570 H 340.911 -2.17415 1.99537 0
M  V30 3571 H 340.992 -0.483727 2.51185 0
M  V30 3572 H 340.636 -1.22824 4.92825 0
M  V30 3573 H 340.566 -2.92213 4.38086 0
M  V30 3574 H 343.057 -1.74925 3.34977 0
M  V30 3575 H 343.37 -3.0112 7.11721 0
M  V30 3576 H 341.715 -2.71445 6.39799 0
M  V30 3577 H 344.906 -2.09174 4.18765 0
M  V30 3578 H 345.079 -2.66741 5.90554 0
M  V30 3579 N 338.485 -1.33259 -0.841409 0
M  V30 3580 C 339.395 -1.25332 -1.98316 0
M  V30 3581 C 340.411 -0.164364 -1.73222 0
M  V30 3582 O 341.587 -0.387486 -1.97637 0
M  V30 3583 C 338.652 -0.990078 -3.32262 0
M  V30 3584 C 337.713 -2.16879 -3.70489 0
M  V30 3585 C 336.946 -1.91801 -4.98044 0
M  V30 3586 O 337.169 -0.867075 -5.63771 0
M  V30 3587 O 336.103 -2.78267 -5.33714 0
M  V30 3588 H 339.929 -2.21344 -2.07944 0
M  V30 3589 H 337.514 -1.1328 -0.974058 0
M  V30 3590 H 339.396 -0.860321 -4.12524 0
M  V30 3591 H 338.071 -0.0602155 -3.23644 0
M  V30 3592 H 336.978 -2.35407 -2.90748 0
M  V30 3593 H 338.311 -3.0819 -3.8377 0
M  V30 3594 N 339.963 1.05934 -1.16686 0
M  V30 3595 C 341.374 1.60263 -0.957745 0
M  V30 3596 C 341.725 1.89789 0.49745 0
M  V30 3597 O 340.85 1.67401 1.37135 0
M  V30 3598 C 341.445 2.91172 -1.73218 0
M  V30 3599 C 340.004 3.42188 -1.56794 0
M  V30 3600 C 339.151 2.16028 -1.73859 0
M  V30 3601 H 342.102 0.888392 -1.31504 0
M  V30 3602 H 342.123 3.60744 -1.21014 0
M  V30 3603 H 341.635 2.6965 -2.79124 0
M  V30 3604 H 339.736 3.68762 -0.533437 0
M  V30 3605 H 339.849 4.17273 -2.35414 0
M  V30 3606 H 338.213 2.26426 -1.16633 0
M  V30 3607 H 338.996 1.96985 -2.81161 0
M  V30 3608 N 341.441 0.965919 1.2453 0
M  V30 3609 C 342.857 0.67216 1.44756 0
M  V30 3610 C 343.057 -0.766609 1.86347 0
M  V30 3611 O 342.113 -1.5407 2.00047 0
M  V30 3612 C 343.426 1.65473 2.51076 0
M  V30 3613 C 344.974 1.66716 2.64905 0
M  V30 3614 C 345.449 2.63766 3.74421 0
M  V30 3615 N 346.94 2.62198 3.81846 0
M  V30 3616 C 347.675 3.33966 4.66106 0
M  V30 3617 N 347.171 4.15245 5.54566 0
M  V30 3618 N 348.964 3.22799 4.60171 0
M  V30 3619 H 341.115 1.89553 0.958293 0
M  V30 3620 H 343.378 0.815979 0.482579 0
M  V30 3621 H 343.084 2.68296 2.27399 0
M  V30 3622 H 342.958 1.4261 3.49202 0
M  V30 3623 H 345.345 0.646057 2.87941 0
M  V30 3624 H 345.426 1.93642 1.67142 0
M  V30 3625 H 345.07 3.6601 3.52135 0
M  V30 3626 H 345 2.34121 4.71694 0
M  V30 3627 H 347.491 2.032 3.18619 0
M  V30 3628 H 347.804 4.66898 6.15814 0
M  V30 3629 H 346.149 4.1934 5.54237 0
M  V30 3630 H 349.34 2.58764 3.90075 0
M  V30 3631 H 349.513 3.78994 5.25612 0
M  V30 3632 N 342.919 -1.39368 0.735821 0
M  V30 3633 C 344.167 -2.00101 0.283562 0
M  V30 3634 C 344.488 -1.5868 -1.13338 0
M  V30 3635 O 343.758 -0.835423 -1.77193 0
M  V30 3636 H 342.338 -0.740024 0.101851 0
M  V30 3637 H 345 -1.70404 0.945962 0
M  V30 3638 H 344.096 -3.10323 0.332604 0
M  V30 3639 N 344.397 -0.483516 -1.5 0
M  V30 3640 C 345.622 0.0667119 -2.07293 0
M  V30 3641 C 346.047 1.3164 -1.3436 0
M  V30 3642 O 345.405 1.76945 -0.394987 0
M  V30 3643 C 345.453 0.321126 -3.59167 0
M  V30 3644 O 344.557 1.39927 -3.87936 0
M  V30 3645 H 343.898 -0.0184758 -0.663743 0
M  V30 3646 H 346.428 -0.678125 -1.93035 0
M  V30 3647 H 346.438 0.557906 -4.04168 0
M  V30 3648 H 345.113 -0.592007 -4.11665 0
M  V30 3649 H 343.69 1.14882 -3.54763 0
M  V30 3650 N 345.875 1.56104 -0.216619 0
M  V30 3651 C 347.152 1.89988 0.465165 0
M  V30 3652 C 347.532 1.13326 1.78102 0
M  V30 3653 O 346.88 0.241033 2.27225 0
M  V30 3654 C 347.09 3.42646 0.662939 0
M  V30 3655 C 348.438 4.13311 0.972602 0
M  V30 3656 O 349.462 3.48217 0.749901 0
M  V30 3657 O 348.321 5.28396 1.39499 0
M  V30 3658 H 345.415 0.78979 0.245276 0
M  V30 3659 H 347.961 1.67721 -0.258436 0
M  V30 3660 H 346.733 3.90399 -0.26543 0
M  V30 3661 H 346.356 3.70677 1.43821 0
M  V30 3662 N 347.353 -0.0568162 1.57498 0
M  V30 3663 C 348.602 -0.752001 1.87157 0
M  V30 3664 C 348.915 -1.77978 0.811375 0
M  V30 3665 O 350.121 -2.52559 0.996293 0
M  V30 3666 C 348.577 -1.38844 3.3204 0
M  V30 3667 C 348.185 -0.398456 4.46225 0
M  V30 3668 C 349.929 -2.06512 3.70882 0
M  V30 3669 C 347.836 -1.04166 5.82154 0
M  V30 3670 H 346.766 -0.28461 0.698222 0
M  V30 3671 H 349.417 -0.00561272 1.83499 0
M  V30 3672 H 347.799 -2.1836 3.30356 0
M  V30 3673 H 348.973 0.367977 4.59328 0
M  V30 3674 H 347.288 0.174592 4.16034 0
M  V30 3675 H 349.885 -2.55437 4.6974 0
M  V30 3676 H 350.228 -2.87117 3.01445 0
M  V30 3677 H 350.761 -1.33808 3.7462 0
M  V30 3678 H 347.5 -0.275614 6.5492 0
M  V30 3679 H 347.02 -1.7786 5.72823 0
M  V30 3680 H 348.699 -1.55715 6.27982 0
M  V30 3681 N 348.832 -1.54138 -0.328536 0
M  V30 3682 C 349.795 -1.82462 -1.38709 0
M  V30 3683 C 350.795 -0.696229 -1.44946 0
M  V30 3684 O 351.985 -0.964535 -1.4506 0
M  V30 3685 C 349.117 -1.98018 -2.77492 0
M  V30 3686 H 350.31 -2.77037 -1.14851 0
M  V30 3687 H 347.863 -1.45779 -0.563751 0
M  V30 3688 H 348.598 -1.05637 -3.06613 0
M  V30 3689 H 348.383 -2.80124 -2.74359 0
M  V30 3690 H 349.873 -2.21396 -3.54081 0
M  V30 3691 N 350.31 0.590341 -1.46126 0
M  V30 3692 C 351.558 1.34616 -1.50742 0
M  V30 3693 C 351.879 1.94363 -0.157486 0
M  V30 3694 O 351.149 1.78136 0.815136 0
M  V30 3695 H 349.729 0.499789 -0.555175 0
M  V30 3696 H 352.391 0.691953 -1.82203 0
M  V30 3697 H 351.487 2.15678 -2.25587 0
M  V30 3698 N 351.788 1.33704 0.83433 0
M  V30 3699 C 353.016 1.28467 1.62185 0
M  V30 3700 C 353.431 -0.143526 1.88254 0
M  V30 3701 O 352.788 -1.08709 1.4659 0
M  V30 3702 C 352.839 2.06174 2.96942 0
M  V30 3703 O 352.56 3.43422 2.72016 0
M  V30 3704 C 354.061 2.08201 3.91366 0
M  V30 3705 H 351.281 0.4424 0.504503 0
M  V30 3706 H 353.825 1.76145 1.03891 0
M  V30 3707 H 351.98 1.62167 3.51825 0
M  V30 3708 H 352.394 3.83453 3.57861 0
M  V30 3709 H 353.868 2.67017 4.83121 0
M  V30 3710 H 354.345 1.07343 4.2588 0
M  V30 3711 H 354.951 2.52246 3.42421 0
M  V30 3712 N 353.266 -1.05314 1.17247 0
M  V30 3713 C 354.494 -1.81971 0.984593 0
M  V30 3714 C 354.909 -1.82929 -0.467166 0
M  V30 3715 O 354.266 -1.25564 -1.32438 0
M  V30 3716 C 354.317 -3.28143 1.51672 0
M  V30 3717 O 354.038 -3.27347 2.91163 0
M  V30 3718 C 355.539 -4.21493 1.37326 0
M  V30 3719 H 352.759 -0.573455 0.348411 0
M  V30 3720 H 355.303 -1.32808 1.55506 0
M  V30 3721 H 353.458 -3.74582 0.988302 0
M  V30 3722 H 353.872 -4.18824 3.15732 0
M  V30 3723 H 355.346 -5.22043 1.79375 0
M  V30 3724 H 355.823 -4.38031 0.320169 0
M  V30 3725 H 356.429 -3.80909 1.89178 0
M  V30 3726 N 354.744 -0.972509 -1.24016 0
M  V30 3727 C 355.969 -0.654417 -1.96805 0
M  V30 3728 C 356.394 0.770398 -1.716 0
M  V30 3729 O 355.752 1.52361 -0.982647 0
M  V30 3730 C 355.8 -0.941031 -3.48105 0
M  V30 3731 O 354.904 -0.0289472 -4.1239 0
M  V30 3732 H 354.245 -0.24692 -0.616382 0
M  V30 3733 H 356.775 -1.30396 -1.57664 0
M  V30 3734 H 356.785 -0.87452 -3.98517 0
M  V30 3735 H 355.46 -1.97939 -3.65777 0
M  V30 3736 H 354.037 -0.149192 -3.72601 0
M  V30 3737 N 356.222 1.38976 -0.743202 0
M  V30 3738 C 357.45 2.04636 -0.30525 0
M  V30 3739 C 357.865 1.56044 1.06281 0
M  V30 3740 O 357.222 0.728921 1.67311 0
M  V30 3741 C 357.273 3.60193 -0.307177 0
M  V30 3742 O 356.994 4.06998 -1.62124 0
M  V30 3743 C 358.495 4.4306 0.145928 0
M  V30 3744 H 355.715 0.65788 -0.132041 0
M  V30 3745 H 358.259 1.77866 -1.00915 0
M  V30 3746 H 356.414 3.85835 0.347898 0
M  V30 3747 H 356.828 5.01371 -1.54036 0
M  V30 3748 H 358.302 5.51921 0.0934183 0
M  V30 3749 H 358.779 4.22706 1.19231 0
M  V30 3750 H 359.385 4.22584 -0.479886 0
M  V30 3751 N 357.7 0.491464 1.49741 0
M  V30 3752 C 358.63 -0.28154 2.31796 0
M  V30 3753 C 359.611 -0.971473 1.3963 0
M  V30 3754 O 360.796 -0.964719 1.68543 0
M  V30 3755 C 357.926 -1.35203 3.19902 0
M  V30 3756 C 356.88 -0.782529 4.20786 0
M  V30 3757 C 356.206 -1.95283 4.97764 0
M  V30 3758 C 357.506 0.21999 5.21837 0
M  V30 3759 H 359.2 0.403355 2.96671 0
M  V30 3760 H 356.746 0.195425 1.42668 0
M  V30 3761 H 358.699 -1.90045 3.76113 0
M  V30 3762 H 357.423 -2.06598 2.52953 0
M  V30 3763 H 356.082 -0.255928 3.65706 0
M  V30 3764 H 355.73 -2.65423 4.2727 0
M  V30 3765 H 355.43 -1.57789 5.66018 0
M  V30 3766 H 356.954 -2.50577 5.56816 0
M  V30 3767 H 358.368 -0.23996 5.72798 0
M  V30 3768 H 356.765 0.51026 5.97927 0
M  V30 3769 H 357.835 1.13911 4.7133 0
M  V30 3770 N 359.178 -1.55987 0.224894 0
M  V30 3771 C 360.11 -2.17722 -0.716224 0
M  V30 3772 C 361.123 -1.14723 -1.15509 0
M  V30 3773 O 362.312 -1.41688 -1.08567 0
M  V30 3774 C 359.412 -2.74873 -1.98238 0
M  V30 3775 C 358.585 -4.03074 -1.69853 0
M  V30 3776 C 357.644 -4.44757 -2.81208 0
M  V30 3777 O 356.67 -5.11587 -2.49534 0
M  V30 3778 N 357.872 -4.10716 -4.10235 0
M  V30 3779 H 360.637 -2.99109 -0.188123 0
M  V30 3780 H 358.198 -1.6184 0.0440123 0
M  V30 3781 H 360.19 -2.99727 -2.7193 0
M  V30 3782 H 358.76 -1.9777 -2.42086 0
M  V30 3783 H 357.98 -3.86041 -0.797875 0
M  V30 3784 H 359.268 -4.86701 -1.48324 0
M  V30 3785 H 358.666 -3.57019 -4.38809 0
M  V30 3786 H 357.223 -4.40455 -4.80461 0
M  V30 3787 N 360.656 0.0484629 -1.57525 0
M  V30 3788 C 361.566 1.07241 -2.08654 0
M  V30 3789 C 362.582 1.409 -1.02095 0
M  V30 3790 O 363.758 1.50609 -1.33712 0
M  V30 3791 C 360.823 2.36008 -2.5397 0
M  V30 3792 C 359.884 2.09108 -3.7493 0
M  V30 3793 C 359.117 3.31736 -4.18075 0
M  V30 3794 O 359.34 4.41714 -3.60895 0
M  V30 3795 O 358.274 3.18576 -5.10679 0
M  V30 3796 H 362.1 0.667965 -2.96263 0
M  V30 3797 H 359.685 0.26417 -1.47046 0
M  V30 3798 H 361.567 3.11747 -2.83535 0
M  V30 3799 H 360.242 2.75786 -1.69481 0
M  V30 3800 H 359.149 1.31 -3.50414 0
M  V30 3801 H 360.482 1.74198 -4.60343 0
M  V30 3802 N 362.134 1.5431 0.320358 0
M  V30 3803 C 363.066 1.80262 1.41556 0
M  V30 3804 C 364.079 0.684723 1.477 0
M  V30 3805 O 365.268 0.961886 1.50366 0
M  V30 3806 C 362.368 1.90825 2.8007 0
M  V30 3807 C 361.541 3.21023 2.97091 0
M  V30 3808 C 360.6 3.22247 4.15985 0
M  V30 3809 O 359.626 3.95871 4.08992 0
M  V30 3810 N 360.828 2.46258 5.25678 0
M  V30 3811 H 363.593 2.74778 1.19655 0
M  V30 3812 H 361.154 1.53646 0.510358 0
M  V30 3813 H 363.146 1.89067 3.57821 0
M  V30 3814 H 361.716 1.03392 2.95006 0
M  V30 3815 H 360.936 3.35715 2.06614 0
M  V30 3816 H 362.224 4.0698 3.05361 0
M  V30 3817 H 361.622 1.86037 5.34235 0
M  V30 3818 H 360.179 2.50275 6.01835 0
M  V30 3819 N 363.613 -0.582584 1.46437 0
M  V30 3820 C 364.862 -1.337 1.5102 0
M  V30 3821 C 365.175 -1.94891 0.166359 0
M  V30 3822 O 366.381 -2.71351 0.0899954 0
M  V30 3823 C 364.837 -2.42315 2.66104 0
M  V30 3824 C 364.445 -1.87427 4.06909 0
M  V30 3825 C 366.189 -3.19099 2.79958 0
M  V30 3826 C 364.096 -2.93672 5.13333 0
M  V30 3827 H 363.026 -0.502619 0.562041 0
M  V30 3828 H 365.677 -0.621701 1.72647 0
M  V30 3829 H 364.059 -3.16645 2.37807 0
M  V30 3830 H 365.233 -1.19639 4.44998 0
M  V30 3831 H 363.548 -1.2331 3.97723 0
M  V30 3832 H 366.145 -3.9839 3.56636 0
M  V30 3833 H 366.488 -3.71695 1.87479 0
M  V30 3834 H 367.021 -2.51875 3.07902 0
M  V30 3835 H 363.76 -2.45962 6.07604 0
M  V30 3836 H 363.28 -3.59948 4.79789 0
M  V30 3837 H 364.959 -3.5762 5.39182 0
M  V30 3838 N 365.091 -1.34144 -0.827227 0
M  V30 3839 C 366.339 -1.26009 -1.58007 0
M  V30 3840 C 366.66 0.170971 -1.94249 0
M  V30 3841 O 365.93 1.10256 -1.61927 0
M  V30 3842 H 364.51 -0.463414 -0.585881 0
M  V30 3843 H 367.172 -1.68005 -0.987951 0
M  V30 3844 H 366.268 -1.86187 -2.50481 0
M  V30 3845 N 366.569 1.04691 -1.17803 0
M  V30 3846 C 367.815 1.78181 -0.980977 0
M  V30 3847 C 368.17 1.86191 0.484825 0
M  V30 3848 O 367.463 1.35436 1.35527 0
M  V30 3849 C 367.657 3.21467 -1.56186 0
M  V30 3850 C 367.486 3.27422 -3.08261 0
M  V30 3851 C 366.256 3.36415 -3.77032 0
M  V30 3852 C 368.454 3.15947 -4.0581 0
M  V30 3853 N 366.436 3.31554 -5.16667 0
M  V30 3854 C 367.807 3.18514 -5.31929 0
M  V30 3855 C 369.862 2.99945 -3.97413 0
M  V30 3856 C 368.565 3.06723 -6.50625 0
M  V30 3857 C 370.591 2.89497 -5.15699 0
M  V30 3858 C 369.953 2.92702 -6.40706 0
M  V30 3859 H 366.052 0.6641 -0.412911 0
M  V30 3860 H 368.636 1.24762 -1.49474 0
M  V30 3861 H 366.807 3.73245 -1.07436 0
M  V30 3862 H 368.539 3.8322 -1.30093 0
M  V30 3863 H 365.294 3.41887 -3.27735 0
M  V30 3864 H 365.718 3.3258 -5.89678 0
M  V30 3865 H 370.36 2.96302 -3.01604 0
M  V30 3866 H 368.078 3.0912 -7.46639 0
M  V30 3867 H 371.664 2.78179 -5.10987 0
M  V30 3868 H 370.544 2.84697 -7.30696 0
M  V30 3869 N 368.047 0.979072 1.23499 0
M  V30 3870 C 368.98 0.463027 2.23453 0
M  V30 3871 C 369.958 -0.469128 1.55685 0
M  V30 3872 O 371.142 -0.397882 1.84253 0
M  V30 3873 C 368.269 -0.330308 3.37086 0
M  V30 3874 C 367.315 0.545795 4.22993 0
M  V30 3875 S 368.148 1.99285 4.97037 0
M  V30 3876 C 369.304 1.20862 6.1412 0
M  V30 3877 H 369.537 1.31005 2.6688 0
M  V30 3878 H 367.07 0.784965 1.32957 0
M  V30 3879 H 369.028 -0.782027 4.02982 0
M  V30 3880 H 367.689 -1.15244 2.92194 0
M  V30 3881 H 366.882 -0.0638928 5.03959 0
M  V30 3882 H 366.484 0.933705 3.62157 0
M  V30 3883 H 368.776 0.469284 6.75873 0
M  V30 3884 H 369.719 1.99307 6.79472 0
M  V30 3885 H 370.127 0.727992 5.59786 0
M  V30 3886 N 369.525 -1.3858 0.750561 0
M  V30 3887 C 370.753 -2.04471 0.316098 0
M  V30 3888 C 371.168 -1.56606 -1.05452 0
M  V30 3889 O 370.525 -0.737784 -1.66922 0
M  V30 3890 C 370.576 -3.60025 0.326275 0
M  V30 3891 O 370.297 -4.06133 1.6428 0
M  V30 3892 C 371.798 -4.43131 -0.122429 0
M  V30 3893 H 369.018 -0.65717 0.135528 0
M  V30 3894 H 371.562 -1.77329 1.01857 0
M  V30 3895 H 369.717 -3.86014 -0.327431 0
M  V30 3896 H 370.131 -5.00547 1.56693 0
M  V30 3897 H 371.605 -5.51963 -0.0641473 0
M  V30 3898 H 372.082 -4.23333 -1.16988 0
M  V30 3899 H 372.688 -4.22323 0.50229 0
M  V30 3900 N 371.003 -0.499398 -1.49478 0
M  V30 3901 C 371.951 0.293604 -2.3074 0
M  V30 3902 C 372.945 0.96427 -1.39277 0
M  V30 3903 O 374.151 0.892141 -1.56336 0
M  V30 3904 H 370.526 0.113541 -0.743379 0
M  V30 3905 H 372.497 -0.411772 -2.95545 0
M  V30 3906 C 371.246 1.3462 -3.20582 0
M  V30 3907 H 370.569 0.83954 -3.90886 0
M  V30 3908 H 372.009 1.87308 -3.80384 0
M  V30 3909 C 370.468 2.36351 -2.40083 0
M  V30 3910 O 370.998 3.422 -2.10385 0
M  V30 3911 N 369.204 2.0878 -2.02137 0
M  V30 3912 H 368.751 1.22723 -2.26488 0
M  V30 3913 H 368.709 2.77075 -1.48583 0
M  V30 3914 N 372.481 1.55866 -0.233164 0
M  V30 3915 C 373.429 2.22176 0.68851 0
M  V30 3916 C 374.423 1.20487 1.19076 0
M  V30 3917 O 375.629 1.38536 1.14925 0
M  V30 3918 H 372.004 0.712511 0.240483 0
M  V30 3919 H 373.975 2.98212 0.105935 0
M  V30 3920 C 372.724 2.92446 1.88071 0
M  V30 3921 H 372.047 3.70458 1.50337 0
M  V30 3922 H 373.487 3.42226 2.50314 0
M  V30 3923 C 371.946 1.95555 2.74335 0
M  V30 3924 O 372.476 1.47986 3.73447 0
M  V30 3925 N 370.682 1.62953 2.40613 0
M  V30 3926 H 370.229 2.01831 1.60069 0
M  V30 3927 H 370.187 0.983886 2.98609 0
M  V30 3928 N 373.959 -0.0401083 1.57549 0
M  V30 3929 C 375.37 -0.588097 1.77196 0
M  V30 3930 C 375.721 -1.76209 0.862832 0
M  V30 3931 O 374.846 -2.16331 0.0548389 0
M  V30 3932 C 375.441 -1.07363 3.21339 0
M  V30 3933 C 374 -1.56723 3.42221 0
M  V30 3934 C 373.147 -0.50041 2.72747 0
M  V30 3935 H 376.098 0.186119 1.57605 0
M  V30 3936 H 376.119 -1.94143 3.27244 0
M  V30 3937 H 375.631 -0.218975 3.87482 0
M  V30 3938 H 373.732 -2.4441 2.81237 0
M  V30 3939 H 373.845 -1.62234 4.50796 0
M  V30 3940 H 372.209 -0.952894 2.36203 0
M  V30 3941 H 372.992 0.344599 3.41566 0
M  V30 3942 N 375.437 -1.54477 -0.31217 0
M  V30 3943 C 376.848 -1.64344 -0.885891 0
M  V30 3944 C 377.199 -0.54485 -1.88483 0
M  V30 3945 O 376.324 0.320387 -2.14015 0
M  V30 3946 C 376.919 -2.97908 -1.61357 0
M  V30 3947 C 375.478 -3.09933 -2.13585 0
M  V30 3948 C 374.625 -2.59971 -0.964897 0
M  V30 3949 H 377.576 -1.58448 -0.0894528 0
M  V30 3950 H 377.597 -2.88706 -2.47848 0
M  V30 3951 H 377.109 -3.77845 -0.886277 0
M  V30 3952 H 375.21 -2.34694 -2.89395 0
M  V30 3953 H 375.323 -4.15916 -2.37804 0
M  V30 3954 H 373.687 -2.16147 -1.34731 0
M  V30 3955 H 374.47 -3.42376 -0.251742 0
M  V30 3956 N 376.915 0.57481 -1.46744 0
M  V30 3957 C 378.164 1.32898 -1.51727 0
M  V30 3958 C 378.477 1.948 -0.176692 0
M  V30 3959 O 379.683 2.71299 -0.104385 0
M  V30 3960 C 378.139 2.40901 -2.67385 0
M  V30 3961 C 377.747 1.85266 -4.07898 0
M  V30 3962 C 379.491 3.17609 -2.81646 0
M  V30 3963 C 377.398 2.90945 -5.14883 0
M  V30 3964 H 376.328 0.499631 -0.564699 0
M  V30 3965 H 378.979 0.612536 -1.72975 0
M  V30 3966 H 377.361 3.15379 -2.39483 0
M  V30 3967 H 378.535 1.17278 -4.45626 0
M  V30 3968 H 376.85 1.21199 -3.98371 0
M  V30 3969 H 379.447 3.96493 -3.58744 0
M  V30 3970 H 379.79 3.70696 -1.89448 0
M  V30 3971 H 380.323 2.50239 -3.09233 0
M  V30 3972 H 377.062 2.42736 -6.089 0
M  V30 3973 H 376.582 3.57398 -4.81691 0
M  V30 3974 H 378.261 3.54755 -5.41071 0
M  V30 3975 N 378.394 1.34581 0.820102 0
M  V30 3976 C 379.805 1.24298 1.39309 0
M  V30 3977 C 380.156 -0.130351 1.95767 0
M  V30 3978 O 379.281 -1.0308 1.90272 0
M  V30 3979 C 379.876 2.25054 2.53251 0
M  V30 3980 C 378.435 2.18552 3.0645 0
M  V30 3981 C 377.582 2.11503 1.79337 0
M  V30 3982 H 380.533 1.45906 0.624262 0
M  V30 3983 H 380.554 1.86917 3.31425 0
M  V30 3984 H 380.066 3.24996 2.1213 0
M  V30 3985 H 378.167 1.21976 3.52069 0
M  V30 3986 H 378.28 3.0993 3.65349 0
M  V30 3987 H 376.644 1.57268 2.00347 0
M  V30 3988 H 377.427 3.13284 1.40386 0
M  V30 3989 N 379.872 -1.04064 1.18357 0
M  V30 3990 C 381.118 -1.77528 0.980397 0
M  V30 3991 C 381.451 -1.87948 -0.48879 0
M  V30 3992 O 380.726 -1.3876 -1.36293 0
M  V30 3993 C 381.009 -3.20797 1.63588 0
M  V30 3994 C 380.862 -3.1832 3.17793 0
M  V30 3995 C 382.181 -4.18911 1.34914 0
M  V30 3996 H 379.3 -0.644443 0.357578 0
M  V30 3997 H 381.942 -1.2156 1.46024 0
M  V30 3998 H 380.092 -3.68586 1.22788 0
M  V30 3999 H 381.764 -2.78521 3.67728 0
M  V30 4000 H 380.007 -2.56351 3.49952 0
M  V30 4001 H 380.678 -4.19489 3.58794 0
M  V30 4002 H 383.154 -3.7967 1.70265 0
M  V30 4003 H 382.03 -5.17374 1.83346 0
M  V30 4004 H 382.291 -4.41262 0.272027 0
M  V30 4005 N 381.35 -0.985608 -1.22978 0
M  V30 4006 C 382.598 -0.656087 -1.91154 0
M  V30 4007 C 382.919 0.813561 -1.77218 0
M  V30 4008 O 382.189 1.58244 -1.1548 0
M  V30 4009 H 380.769 -0.239674 -0.707506 0
M  V30 4010 H 383.431 -1.25054 -1.49491 0
M  V30 4011 H 382.527 -0.912253 -2.9847 0
M  V30 4012 N 382.828 1.3818 -0.7579 0
M  V30 4013 C 383.738 2.3421 -0.135247 0
M  V30 4014 C 384.754 1.59487 0.695683 0
M  V30 4015 O 385.93 1.91657 0.618832 0
M  V30 4016 C 382.995 3.3862 0.744139 0
M  V30 4017 C 382.056 4.2918 -0.101658 0
M  V30 4018 C 381.289 5.28603 0.735851 0
M  V30 4019 O 381.512 5.35166 1.97366 0
M  V30 4020 O 380.446 6.01707 0.152372 0
M  V30 4021 H 384.272 2.8916 -0.928436 0
M  V30 4022 H 381.857 1.40101 -0.518855 0
M  V30 4023 H 383.739 4.02539 1.2466 0
M  V30 4024 H 382.414 2.86019 1.51575 0
M  V30 4025 H 381.321 3.68407 -0.650167 0
M  V30 4026 H 382.654 4.85048 -0.836024 0
M  V30 4027 N 384.306 0.507319 1.49211 0
M  V30 4028 C 385.555 -0.0368315 2.01666 0
M  V30 4029 C 385.868 -1.37459 1.39156 0
M  V30 4030 O 387.074 -2.00579 1.82976 0
M  V30 4031 C 385.53 -0.116089 3.59713 0
M  V30 4032 C 385.138 1.2154 4.31198 0
M  V30 4033 C 386.882 -0.610268 4.2009 0
M  V30 4034 C 384.789 1.09796 5.81119 0
M  V30 4035 H 383.719 -0.0175376 0.753796 0
M  V30 4036 H 386.37 0.647691 1.71689 0
M  V30 4037 H 384.752 -0.8652 3.86433 0
M  V30 4038 H 385.926 1.9783 4.16173 0
M  V30 4039 H 384.241 1.64352 3.82593 0
M  V30 4040 H 386.838 -0.715742 5.29888 0
M  V30 4041 H 387.181 -1.61064 3.8388 0
M  V30 4042 H 387.714 0.0824916 3.97714 0
M  V30 4043 H 384.453 2.0728 6.21864 0
M  V30 4044 H 383.973 0.376058 5.9862 0
M  V30 4045 H 385.652 0.779281 6.4229 0
M  V30 4046 N 385.784 -1.5574 0.241426 0
M  V30 4047 C 387.014 -2.02913 -0.38857 0
M  V30 4048 C 387.422 -1.12014 -1.52478 0
M  V30 4049 O 386.765 -0.125903 -1.83268 0
M  V30 4050 C 386.827 -3.4636 -0.963075 0
M  V30 4051 C 386.491 -4.56982 0.0401916 0
M  V30 4052 C 387.488 -5.12941 0.847766 0
M  V30 4053 C 385.173 -5.0203 0.164699 0
M  V30 4054 C 387.167 -6.12437 1.76636 0
M  V30 4055 C 384.854 -6.01358 1.0868 0
M  V30 4056 C 385.852 -6.5644 1.88616 0
M  V30 4057 O 385.54 -7.53831 2.79273 0
M  V30 4058 H 385.272 -0.668983 -0.0971452 0
M  V30 4059 H 387.826 -2.02198 0.361248 0
M  V30 4060 H 386.056 -3.44206 -1.76235 0
M  V30 4061 H 387.745 -3.77065 -1.50257 0
M  V30 4062 H 388.511 -4.78974 0.762133 0
M  V30 4063 H 384.39 -4.58824 -0.447411 0
M  V30 4064 H 387.934 -6.55355 2.39071 0
M  V30 4065 H 383.831 -6.34746 1.17338 0
M  V30 4066 H 384.599 -7.71428 2.73572 0
M  V30 4067 N 387.262 0.0317525 -1.57568 0
M  V30 4068 C 388.209 1.0332 -2.06382 0
M  V30 4069 C 389.179 1.36082 -0.952414 0
M  V30 4070 O 390.364 1.46466 -1.2228 0
M  V30 4071 C 387.504 2.32989 -2.54578 0
M  V30 4072 C 386.617 2.0641 -3.79498 0
M  V30 4073 C 385.752 3.2993 -4.16317 0
M  V30 4074 C 384.791 2.98893 -5.34162 0
M  V30 4075 N 383.928 4.14857 -5.66426 0
M  V30 4076 H 388.768 0.609982 -2.9169 0
M  V30 4077 H 386.305 0.289573 -1.44222 0
M  V30 4078 H 388.263 3.0875 -2.80587 0
M  V30 4079 H 386.893 2.73039 -1.7219 0
M  V30 4080 H 385.945 1.21158 -3.6059 0
M  V30 4081 H 387.257 1.79513 -4.65378 0
M  V30 4082 H 386.411 4.1406 -4.4344 0
M  V30 4083 H 385.15 3.59938 -3.29083 0
M  V30 4084 H 384.155 2.13164 -5.06795 0
M  V30 4085 H 385.38 2.70165 -6.23047 0
M  V30 4086 H 383.326 4.44821 -4.82151 0
M  V30 4087 H 383.243 3.91374 -6.4681 0
M  V30 4088 H 384.511 4.99868 -5.98124 0
M  V30 4089 N 388.74 1.54641 0.303973 0
M  V30 4090 C 390.156 1.45788 0.649463 0
M  V30 4091 C 390.356 0.64666 1.90842 0
M  V30 4092 O 389.412 0.153183 2.52035 0
M  V30 4093 C 390.725 2.89718 0.805227 0
M  V30 4094 C 392.273 2.99742 0.901305 0
M  V30 4095 C 392.748 4.44863 1.08909 0
M  V30 4096 N 394.239 4.48559 1.15536 0
M  V30 4097 C 394.974 5.58026 1.3189 0
M  V30 4098 N 394.47 6.77422 1.45161 0
M  V30 4099 N 396.263 5.45708 1.34755 0
M  V30 4100 H 388.414 2.05854 -0.523237 0
M  V30 4101 H 390.677 0.932186 -0.172431 0
M  V30 4102 H 390.383 3.51666 -0.0489108 0
M  V30 4103 H 390.257 3.36964 1.69513 0
M  V30 4104 H 392.644 2.3791 1.74593 0
M  V30 4105 H 392.725 2.55797 -0.0125531 0
M  V30 4106 H 392.369 5.07288 0.249241 0
M  V30 4107 H 392.299 4.86436 2.01713 0
M  V30 4108 H 394.79 3.6254 1.06646 0
M  V30 4109 H 395.103 7.56604 1.57387 0
M  V30 4110 H 393.448 6.80292 1.42223 0
M  V30 4111 H 396.639 4.51378 1.23996 0
M  V30 4112 H 396.812 6.3107 1.47157 0
M  V30 4113 N 390.218 -0.567019 1.47046 0
M  V30 4114 C 391.464 -1.32434 1.54379 0
M  V30 4115 C 391.819 -1.91365 0.199276 0
M  V30 4116 O 391.112 -1.74378 -0.793915 0
M  V30 4117 C 391.306 -2.4623 2.59047 0
M  V30 4118 C 391.135 -1.98448 4.03545 0
M  V30 4119 C 389.905 -1.82741 4.71098 0
M  V30 4120 C 392.103 -1.53477 4.90866 0
M  V30 4121 N 390.085 -1.29196 6.00151 0
M  V30 4122 C 391.456 -1.1163 6.09868 0
M  V30 4123 C 393.511 -1.41438 4.77388 0
M  V30 4124 C 392.214 -0.589425 7.16881 0
M  V30 4125 C 394.24 -0.901528 5.84488 0
M  V30 4126 C 393.602 -0.492932 7.02673 0
M  V30 4127 H 389.701 -0.477005 0.61967 0
M  V30 4128 H 392.285 -0.643856 1.83746 0
M  V30 4129 H 390.456 -3.11821 2.31564 0
M  V30 4130 H 392.188 -3.13213 2.56281 0
M  V30 4131 H 388.943 -2.05162 4.26855 0
M  V30 4132 H 389.367 -1.0454 6.6888 0
M  V30 4133 H 394.009 -1.71643 3.86392 0
M  V30 4134 H 391.727 -0.274994 8.07632 0
M  V30 4135 H 395.313 -0.812071 5.76105 0
M  V30 4136 H 394.193 -0.102227 7.84133 0
M  V30 4137 N 391.696 -1.35014 -0.812953 0
M  V30 4138 C 392.945 -1.27269 -1.56479 0
M  V30 4139 C 393.258 0.152771 -1.95002 0
M  V30 4140 O 394.464 0.352451 -2.69203 0
M  V30 4141 C 392.92 -2.23159 -2.82362 0
M  V30 4142 C 392.528 -3.71016 -2.511 0
M  V30 4143 C 394.272 -2.24342 -3.60376 0
M  V30 4144 C 392.179 -4.58746 -3.73237 0
M  V30 4145 H 391.109 -0.472829 -0.587324 0
M  V30 4146 H 393.76 -1.6024 -0.894171 0
M  V30 4147 H 392.142 -1.83151 -3.51101 0
M  V30 4148 H 393.316 -4.1962 -1.90409 0
M  V30 4149 H 391.631 -3.72378 -1.86343 0
M  V30 4150 H 394.228 -2.87107 -4.51081 0
M  V30 4151 H 394.571 -1.24542 -3.97234 0
M  V30 4152 H 395.104 -2.62846 -2.98591 0
M  V30 4153 H 391.843 -5.59521 -3.41492 0
M  V30 4154 H 391.363 -4.14871 -4.33176 0
M  V30 4155 H 393.042 -4.73852 -4.40537 0
M  V30 4156 N 393.175 1.03435 -1.18907 0
M  V30 4157 C 394.424 1.76143 -0.982669 0
M  V30 4158 C 394.737 1.89416 0.487953 0
M  V30 4159 O 395.943 2.59041 0.813036 0
M  V30 4160 C 394.399 3.16722 -1.70924 0
M  V30 4161 C 394.007 3.11522 -3.21959 0
M  V30 4162 C 395.751 3.93764 -1.58588 0
M  V30 4163 C 393.658 4.46999 -3.87228 0
M  V30 4164 H 392.588 0.660292 -0.364047 0
M  V30 4165 H 395.239 1.158 -1.42347 0
M  V30 4166 H 393.621 3.775 -1.19623 0
M  V30 4167 H 394.795 2.60158 -3.80335 0
M  V30 4168 H 393.11 2.47978 -3.34508 0
M  V30 4169 H 395.707 4.93963 -2.04707 0
M  V30 4170 H 396.05 4.12794 -0.539142 0
M  V30 4171 H 396.583 3.39576 -2.07203 0
M  V30 4172 H 393.322 4.33174 -4.91976 0
M  V30 4173 H 392.842 4.98441 -3.33642 0
M  V30 4174 H 394.521 5.15898 -3.90459 0
M  V30 4175 N 394.653 0.992116 1.22453 0
M  V30 4176 C 395.583 0.561677 2.26644 0
M  V30 4177 C 396.564 -0.411055 1.65059 0
M  V30 4178 O 397.749 -0.301861 1.9184 0
M  V30 4179 C 394.879 -0.125247 3.47074 0
M  V30 4180 C 393.833 0.765948 4.21091 0
M  V30 4181 C 393.159 -0.0538484 5.34673 0
M  V30 4182 C 394.459 2.06242 4.79856 0
M  V30 4183 H 396.153 1.43259 2.62902 0
M  V30 4184 H 393.699 0.690283 1.26377 0
M  V30 4185 H 395.652 -0.437764 4.1912 0
M  V30 4186 H 394.376 -1.03069 3.0991 0
M  V30 4187 H 393.035 1.0621 3.50878 0
M  V30 4188 H 392.683 -0.960188 4.9375 0
M  V30 4189 H 392.383 0.539415 5.85119 0
M  V30 4190 H 393.907 -0.360477 6.09535 0
M  V30 4191 H 395.321 1.8139 5.43848 0
M  V30 4192 H 393.718 2.60444 5.40638 0
M  V30 4193 H 394.788 2.74167 3.99951 0
M  V30 4194 N 396.131 -1.37776 0.765217 0
M  V30 4195 C 397.379 -1.99454 0.325943 0
M  V30 4196 C 397.7 -1.61049 -1.09947 0
M  V30 4197 O 396.97 -0.872821 -1.75381 0
M  V30 4198 H 395.55 -0.737697 0.117525 0
M  V30 4199 H 398.212 -1.68359 0.981895 0
M  V30 4200 H 397.308 -3.09547 0.398353 0
M  V30 4201 N 397.609 -0.515225 -1.4894 0
M  V30 4202 C 398.539 0.244628 -2.32215 0
M  V30 4203 C 399.52 0.949136 -1.41157 0
M  V30 4204 O 400.705 0.937783 -1.70057 0
M  V30 4205 C 397.835 1.30096 -3.22013 0
M  V30 4206 C 396.789 0.715486 -4.21977 0
M  V30 4207 C 396.115 1.87339 -5.00808 0
M  V30 4208 C 397.415 -0.302982 -5.2142 0
M  V30 4209 H 399.109 -0.450501 -2.95991 0
M  V30 4210 H 396.655 -0.218098 -1.42339 0
M  V30 4211 H 398.608 1.84037 -3.79089 0
M  V30 4212 H 397.332 2.02547 -2.56207 0
M  V30 4213 H 395.991 0.197715 -3.66066 0
M  V30 4214 H 395.639 2.58592 -4.31438 0
M  V30 4215 H 395.339 1.48764 -5.68457 0
M  V30 4216 H 396.863 2.41686 -5.60732 0
M  V30 4217 H 398.277 0.148802 -5.73107 0
M  V30 4218 H 396.674 -0.60532 -5.97039 0
M  V30 4219 H 397.744 -1.21395 -4.69459 0
M  V30 4220 N 399.087 1.5561 -0.249682 0
M  V30 4221 C 400.035 2.22894 0.664906 0
M  V30 4222 C 401.029 1.21743 1.17792 0
M  V30 4223 O 402.235 1.39748 1.13449 0
M  V30 4224 H 398.61 0.715022 0.232912 0
M  V30 4225 H 400.581 2.98307 0.0742998 0
M  V30 4226 C 399.33 2.94424 1.84959 0
M  V30 4227 H 398.653 3.72031 1.46399 0
M  V30 4228 H 400.093 3.44862 2.4667 0
M  V30 4229 C 398.552 1.98454 2.72245 0
M  V30 4230 O 399.082 1.51939 3.71857 0
M  V30 4231 N 397.288 1.65496 2.38871 0
M  V30 4232 H 396.835 2.03517 1.57919 0
M  V30 4233 H 396.793 1.0155 2.97548 0
M  V30 4234 N 400.565 -0.0233959 1.57583 0
M  V30 4235 C 401.512 -1.02224 2.06927 0
M  V30 4236 C 402.482 -1.35575 0.959617 0
M  V30 4237 O 403.667 -1.45815 1.23055 0
M  V30 4238 C 400.807 -2.31636 2.5581 0
M  V30 4239 C 399.92 -2.04394 3.80588 0
M  V30 4240 C 399.055 -3.27717 4.18061 0
M  V30 4241 C 398.094 -2.96056 5.3574 0
M  V30 4242 N 397.231 -4.11847 5.68618 0
M  V30 4243 H 402.071 -0.594504 2.9201 0
M  V30 4244 H 399.608 -0.281921 1.44373 0
M  V30 4245 H 401.566 -3.07258 2.82221 0
M  V30 4246 H 400.196 -2.72122 1.73636 0
M  V30 4247 H 399.248 -1.19244 3.61227 0
M  V30 4248 H 400.56 -1.77042 4.66323 0
M  V30 4249 H 399.714 -4.11702 4.4563 0
M  V30 4250 H 398.453 -3.58188 3.30988 0
M  V30 4251 H 397.458 -2.10474 5.07918 0
M  V30 4252 H 398.683 -2.66857 6.24471 0
M  V30 4253 H 396.629 -4.42258 4.84504 0
M  V30 4254 H 396.546 -3.87938 6.48876 0
M  V30 4255 H 397.814 -4.96689 6.00766 0
M  V30 4256 N 402.043 -1.548 -0.295768 0
M  V30 4257 C 403.292 -1.73538 -1.02798 0
M  V30 4258 C 403.605 -0.531159 -1.8825 0
M  V30 4259 O 404.811 -0.600458 -2.64777 0
M  V30 4260 C 403.267 -3.07051 -1.87744 0
M  V30 4261 C 402.875 -4.34968 -1.07269 0
M  V30 4262 C 404.619 -3.35146 -2.60533 0
M  V30 4263 C 402.526 -5.5953 -1.91521 0
M  V30 4264 H 401.456 -0.646794 -0.387522 0
M  V30 4265 H 404.107 -1.81278 -0.284718 0
M  V30 4266 H 402.489 -2.93289 -2.66078 0
M  V30 4267 H 403.663 -4.5958 -0.335117 0
M  V30 4268 H 401.978 -4.13847 -0.460384 0
M  V30 4269 H 404.575 -4.2541 -3.23929 0
M  V30 4270 H 404.918 -2.54255 -3.29636 0
M  V30 4271 H 405.451 -3.49902 -1.89244 0
M  V30 4272 H 402.19 -6.43103 -1.26878 0
M  V30 4273 H 401.71 -5.39096 -2.62937 0
M  V30 4274 H 403.389 -5.96982 -2.49442 0
M  V30 4275 N 403.521 0.559213 -1.47345 0
M  V30 4276 C 404.767 1.31843 -1.54095 0
M  V30 4277 C 405.1 1.93149 -0.201726 0
M  V30 4278 O 404.375 1.77759 0.789428 0
M  V30 4279 C 404.658 2.43006 -2.65744 0
M  V30 4280 C 404.511 1.86581 -4.09277 0
M  V30 4281 C 405.83 3.44943 -2.73318 0
M  V30 4282 H 402.949 0.478012 -0.560957 0
M  V30 4283 H 405.591 0.625977 -1.79392 0
M  V30 4284 H 403.741 3.02072 -2.44305 0
M  V30 4285 H 405.413 1.31792 -4.42073 0
M  V30 4286 H 403.656 1.17268 -4.17649 0
M  V30 4287 H 404.327 2.66933 -4.83168 0
M  V30 4288 H 406.803 2.95793 -2.92653 0
M  V30 4289 H 405.679 4.20153 -3.53218 0
M  V30 4290 H 405.94 4.03665 -1.80296 0
M  V30 4291 N 404.999 1.35443 0.805782 0
M  V30 4292 C 406.415 1.15499 1.10146 0
M  V30 4293 C 406.615 -0.0319975 2.01475 0
M  V30 4294 O 405.671 -0.70236 2.42535 0
M  V30 4295 C 406.984 2.45833 1.73166 0
M  V30 4296 C 408.532 2.52047 1.85583 0
M  V30 4297 C 409.007 3.82427 2.52019 0
M  V30 4298 N 410.498 3.83682 2.59504 0
M  V30 4299 C 411.233 4.81294 3.11679 0
M  V30 4300 N 410.729 5.89294 3.64287 0
M  V30 4301 N 412.522 4.6873 3.1024 0
M  V30 4302 H 404.673 2.11469 0.198678 0
M  V30 4303 H 406.936 0.93594 0.150731 0
M  V30 4304 H 406.642 3.32874 1.13526 0
M  V30 4305 H 406.516 2.6044 2.72857 0
M  V30 4306 H 408.903 1.65435 2.44367 0
M  V30 4307 H 408.984 2.41354 0.847455 0
M  V30 4308 H 408.628 4.69437 1.93885 0
M  V30 4309 H 408.558 3.90409 3.53395 0
M  V30 4310 H 411.049 3.05648 2.22234 0
M  V30 4311 H 411.362 6.59768 4.02401 0
M  V30 4312 H 409.707 5.92985 3.62483 0
M  V30 4313 H 412.898 3.83496 2.68419 0
M  V30 4314 H 413.071 5.44965 3.50596 0
M  V30 4315 N 406.477 -1.02803 1.19454 0
M  V30 4316 C 407.41 -2.107 0.876396 0
M  V30 4317 C 408.388 -1.61741 -0.166897 0
M  V30 4318 O 409.572 -1.88451 -0.0430195 0
M  V30 4319 C 406.699 -3.37262 0.311758 0
M  V30 4320 C 405.745 -4.05093 1.33424 0
M  V30 4321 S 406.578 -4.50498 2.89503 0
M  V30 4322 C 407.734 -5.80277 2.34584 0
M  V30 4323 H 407.967 -2.37362 1.79016 0
M  V30 4324 H 405.5 -1.15755 1.02177 0
M  V30 4325 H 407.458 -4.10499 -0.00748752 0
M  V30 4326 H 406.119 -3.08693 -0.58032 0
M  V30 4327 H 405.312 -4.9611 0.888302 0
M  V30 4328 H 404.914 -3.3803 1.60037 0
M  V30 4329 H 407.206 -6.54873 1.73633 0
M  V30 4330 H 408.149 -6.29651 3.23952 0
M  V30 4331 H 408.557 -5.3599 1.77131 0
M  V30 4332 N 407.956 -0.998596 -1.21925 0
M  V30 4333 C 409.186 -0.695276 -1.94549 0
M  V30 4334 C 409.594 0.745079 -1.73911 0
M  V30 4335 O 408.937 1.51507 -1.03881 0
M  V30 4336 C 408.999 -0.928485 -3.47303 0
M  V30 4337 C 408.663 -2.35443 -3.91683 0
M  V30 4338 C 409.66 -3.33428 -3.98901 0
M  V30 4339 C 407.345 -2.69038 -4.24174 0
M  V30 4340 C 409.339 -4.63079 -4.37992 0
M  V30 4341 C 407.026 -3.98906 -4.62944 0
M  V30 4342 C 408.024 -4.95738 -4.69822 0
M  V30 4343 O 407.712 -6.23285 -5.07711 0
M  V30 4344 H 407.444 -0.255902 -0.625692 0
M  V30 4345 H 409.998 -1.33767 -1.5587 0
M  V30 4346 H 408.228 -0.228917 -3.86022 0
M  V30 4347 H 409.917 -0.619539 -4.01144 0
M  V30 4348 H 410.683 -3.08807 -3.73983 0
M  V30 4349 H 406.562 -1.94367 -4.18022 0
M  V30 4350 H 410.106 -5.38658 -4.43275 0
M  V30 4351 H 406.003 -4.23314 -4.87314 0
M  V30 4352 H 406.771 -6.27306 -5.25766 0
M  V30 4353 N 409.434 1.37368 -0.772513 0
M  V30 4354 C 410.659 2.0447 -0.347386 0
M  V30 4355 C 411.084 1.57882 1.0225 0
M  V30 4356 O 410.442 0.73941 1.65537 0
M  V30 4357 C 410.49 3.58369 -0.400479 0
M  V30 4358 O 409.594 4.0803 0.598789 0
M  V30 4359 H 408.935 0.646773 -0.15027 0
M  V30 4360 H 411.465 1.75667 -1.04892 0
M  V30 4361 H 411.475 4.07183 -0.258045 0
M  V30 4362 H 410.15 3.91633 -1.39986 0
M  V30 4363 H 408.727 3.70534 0.419411 0
M  V30 4364 N 410.912 0.523116 1.48665 0
M  V30 4365 C 412.323 0.0808997 1.86525 0
M  V30 4366 C 412.674 -1.33975 1.43336 0
M  V30 4367 O 411.799 -2.00221 0.821009 0
M  V30 4368 C 412.394 0.140037 3.3851 0
M  V30 4369 C 410.953 -0.246948 3.75589 0
M  V30 4370 C 410.1 0.502845 2.72703 0
M  V30 4371 H 413.051 0.734736 1.40667 0
M  V30 4372 H 413.072 -0.649945 3.74908 0
M  V30 4373 H 412.584 1.17412 3.69914 0
M  V30 4374 H 410.685 -1.28343 3.49798 0
M  V30 4375 H 410.798 0.0878859 4.79019 0
M  V30 4376 H 409.162 -0.0500581 2.54651 0
M  V30 4377 H 409.945 1.53743 3.0695 0
M  V30 4378 N 412.39 -1.55475 0.257931 0
M  V30 4379 C 413.618 -2.03609 -0.367559 0
M  V30 4380 C 414.033 -1.13687 -1.50734 0
M  V30 4381 O 413.39 -0.153479 -1.81853 0
M  V30 4382 C 413.441 -3.51001 -0.864908 0
M  V30 4383 O 413.162 -4.37499 0.229465 0
M  V30 4384 C 414.663 -4.14946 -1.55997 0
M  V30 4385 H 411.883 -0.665459 -0.0860521 0
M  V30 4386 H 414.427 -2.00843 0.385014 0
M  V30 4387 H 412.582 -3.54266 -1.56762 0
M  V30 4388 H 412.996 -5.24286 -0.14998 0
M  V30 4389 H 414.47 -5.19735 -1.85956 0
M  V30 4390 H 414.947 -3.6209 -2.4857 0
M  V30 4391 H 415.553 -4.15635 -0.901543 0
M  V30 4392 N 413.868 0.0150385 -1.57593 0
M  V30 4393 C 415.093 0.718067 -1.94573 0
M  V30 4394 C 415.518 1.6734 -0.859005 0
M  V30 4395 O 414.876 1.80362 0.184147 0
M  V30 4396 C 414.924 1.43918 -3.30636 0
M  V30 4397 O 414.028 2.55299 -3.23876 0
M  V30 4398 H 413.369 0.192125 -0.635597 0
M  V30 4399 H 415.899 -0.0336708 -2.04572 0
M  V30 4400 H 415.909 1.80598 -3.65853 0
M  V30 4401 H 414.584 0.738619 -4.09289 0
M  V30 4402 H 413.161 2.21058 -3.00312 0
M  V30 4403 N 415.346 1.54954 0.287554 0
M  V30 4404 C 416.595 1.74081 1.01877 0
M  V30 4405 C 416.908 0.541135 1.87966 0
M  V30 4406 O 418.114 0.614491 2.64455 0
M  V30 4407 C 416.57 3.08042 1.86113 0
M  V30 4408 C 416.178 4.35531 1.04961 0
M  V30 4409 C 417.922 3.36523 2.58752 0
M  V30 4410 C 415.829 5.60538 1.88551 0
M  V30 4411 H 414.759 0.64884 0.384087 0
M  V30 4412 H 417.41 1.81426 0.275101 0
M  V30 4413 H 415.792 2.94696 2.64519 0
M  V30 4414 H 416.966 4.59751 0.31074 0
M  V30 4415 H 415.281 4.14085 0.43843 0
M  V30 4416 H 417.878 4.27122 3.21668 0
M  V30 4417 H 418.221 2.56 3.28283 0
M  V30 4418 H 418.754 3.50901 1.87386 0
M  V30 4419 H 415.493 6.43767 1.23466 0
M  V30 4420 H 415.013 5.40483 2.60074 0
M  V30 4421 H 416.692 5.98297 2.46273 0
M  V30 4422 N 416.824 -0.551391 1.4764 0
M  V30 4423 C 417.754 -1.66757 1.63445 0
M  V30 4424 C 418.735 -1.63077 0.483742 0
M  V30 4425 O 419.92 -1.80607 0.71377 0
M  V30 4426 C 417.05 -3.05387 1.65396 0
M  V30 4427 C 416.004 -3.23918 2.79752 0
M  V30 4428 C 415.33 -4.63393 2.66779 0
M  V30 4429 C 416.63 -3.08735 4.21284 0
M  V30 4430 H 418.324 -1.53786 2.56886 0
M  V30 4431 H 415.87 -0.738415 1.23626 0
M  V30 4432 H 417.823 -3.83325 1.75043 0
M  V30 4433 H 416.547 -3.19332 0.685195 0
M  V30 4434 H 415.206 -2.48391 2.69625 0
M  V30 4435 H 414.854 -4.74144 1.67918 0
M  V30 4436 H 414.554 -4.7674 3.43501 0
M  V30 4437 H 416.078 -5.43458 2.78364 0
M  V30 4438 H 417.492 -3.76484 4.32357 0
M  V30 4439 H 415.889 -3.33588 4.98838 0
M  V30 4440 H 416.959 -2.0541 4.39243 0
M  V30 4441 N 418.302 -1.35869 -0.798587 0
M  V30 4442 C 419.579 -1.20145 -1.54352 0
M  V30 4443 C 419.959 0.216161 -2.0999 0
M  V30 4444 O 419.307 1.22068 -1.93162 0
M  V30 4445 C 419.517 -2.27602 -2.64572 0
M  V30 4446 C 420.865 -2.63811 -3.32699 0
M  V30 4447 O 421.889 -2.26576 -2.74849 0
M  V30 4448 O 420.748 -3.27866 -4.37226 0
M  V30 4449 H 417.842 -0.467248 -0.682355 0
M  V30 4450 H 420.388 -1.47574 -0.837859 0
M  V30 4451 H 419.16 -3.2265 -2.21388 0
M  V30 4452 H 418.783 -2.01488 -3.42766 0
M  V30 4453 N 419.78 1.02168 -1.19998 0
M  V30 4454 C 421.029 1.75091 -1.0013 0
M  V30 4455 C 421.342 1.89923 0.467835 0
M  V30 4456 O 422.548 2.59888 0.785515 0
M  V30 4457 C 421.004 3.14892 -1.74273 0
M  V30 4458 C 420.612 3.0809 -3.25245 0
M  V30 4459 C 422.356 3.9206 -1.62755 0
M  V30 4460 C 420.263 4.42867 -3.91948 0
M  V30 4461 H 419.193 0.656394 -0.37103 0
M  V30 4462 H 421.844 1.14284 -1.43567 0
M  V30 4463 H 420.226 3.7621 -1.2362 0
M  V30 4464 H 421.4 2.5611 -3.83072 0
M  V30 4465 H 419.715 2.44416 -3.3712 0
M  V30 4466 H 422.312 4.91764 -2.09934 0
M  V30 4467 H 422.655 4.12199 -0.582894 0
M  V30 4468 H 423.188 3.37359 -2.10793 0
M  V30 4469 H 419.927 4.27931 -4.96543 0
M  V30 4470 H 419.447 4.94874 -3.3891 0
M  V30 4471 H 421.126 5.11728 -3.95909 0
M  V30 4472 N 421.258 1.00505 1.21394 0
M  V30 4473 C 422.674 0.717873 1.42544 0
M  V30 4474 C 422.874 -0.706936 1.88692 0
M  V30 4475 O 421.93 -1.47627 2.04847 0
M  V30 4476 C 423.243 1.73377 2.45684 0
M  V30 4477 C 424.791 1.75059 2.59467 0
M  V30 4478 C 425.266 2.75545 3.6584 0
M  V30 4479 N 426.757 2.74213 3.73311 0
M  V30 4480 C 427.492 3.48626 4.55245 0
M  V30 4481 N 426.988 4.32678 5.41075 0
M  V30 4482 N 428.781 3.37276 4.49668 0
M  V30 4483 H 420.932 1.92506 0.897503 0
M  V30 4484 H 423.195 0.830919 0.456375 0
M  V30 4485 H 422.901 2.75395 2.18748 0
M  V30 4486 H 422.775 1.53647 3.44489 0
M  V30 4487 H 425.162 0.737337 2.8574 0
M  V30 4488 H 425.243 1.98861 1.60897 0
M  V30 4489 H 424.887 3.77028 3.40313 0
M  V30 4490 H 424.817 2.49009 4.64007 0
M  V30 4491 H 427.308 2.13234 3.11993 0
M  V30 4492 H 427.621 4.86253 6.00648 0
M  V30 4493 H 425.966 4.3676 5.40616 0
M  V30 4494 H 429.157 2.71043 3.81646 0
M  V30 4495 H 429.33 3.95524 5.13288 0
M  V30 4496 N 422.737 -1.36956 0.779787 0
M  V30 4497 C 423.669 -2.28833 0.129639 0
M  V30 4498 C 424.682 -1.4902 -0.655511 0
M  V30 4499 O 425.871 -1.71578 -0.492279 0
M  V30 4500 C 422.971 -3.2833 -0.839792 0
M  V30 4501 C 422.144 -4.3727 -0.10675 0
M  V30 4502 C 421.203 -5.16789 -0.990717 0
M  V30 4503 O 420.229 -5.67406 -0.451516 0
M  V30 4504 N 421.431 -5.32294 -2.3161 0
M  V30 4505 H 424.196 -2.85268 0.918803 0
M  V30 4506 H 421.757 -1.49019 0.632841 0
M  V30 4507 H 423.749 -3.78413 -1.43477 0
M  V30 4508 H 422.319 -2.72605 -1.52988 0
M  V30 4509 H 421.539 -3.88478 0.669216 0
M  V30 4510 H 422.827 -5.07229 0.399464 0
M  V30 4511 H 422.225 -4.92768 -2.77843 0
M  V30 4512 H 420.782 -5.85656 -2.86095 0
M  V30 4513 N 424.215 -0.530993 -1.48385 0
M  V30 4514 C 425.463 0.00273189 -2.021 0
M  V30 4515 C 425.784 1.34672 -1.41027 0
M  V30 4516 O 425.054 1.8724 -0.576012 0
M  V30 4517 H 423.634 0.00399774 -0.746989 0
M  V30 4518 H 426.296 -0.695054 -1.82085 0
M  V30 4519 H 425.392 0.11031 -3.11905 0
M  V30 4520 N 425.693 1.55336 -0.266172 0
M  V30 4521 C 427.104 1.85236 0.233315 0
M  V30 4522 C 427.455 1.18816 1.56132 0
M  V30 4523 O 426.58 0.473307 2.11161 0
M  V30 4524 C 427.175 3.36059 0.430113 0
M  V30 4525 C 425.734 3.66116 0.873842 0
M  V30 4526 C 424.881 2.77274 -0.0380016 0
M  V30 4527 H 427.832 1.51004 -0.488214 0
M  V30 4528 H 427.853 3.58681 1.26998 0
M  V30 4529 H 427.365 3.84373 -0.536588 0
M  V30 4530 H 425.466 3.23295 1.85233 0
M  V30 4531 H 425.579 4.73699 0.717358 0
M  V30 4532 H 423.943 2.50198 0.476759 0
M  V30 4533 H 424.726 3.284 -1.00042 0
M  V30 4534 N 427.171 -0.0066808 1.57599 0
M  V30 4535 C 428.118 -1.00024 2.08 0
M  V30 4536 C 429.088 -1.34549 0.973943 0
M  V30 4537 O 430.273 -1.44502 1.24595 0
M  V30 4538 C 427.413 -2.2891 2.58252 0
M  V30 4539 C 426.526 -2.00346 3.82734 0
M  V30 4540 C 425.661 -3.23265 4.21513 0
M  V30 4541 C 424.7 -2.90357 5.3885 0
M  V30 4542 N 423.837 -4.05793 5.72954 0
M  V30 4543 H 428.677 -0.563499 2.92624 0
M  V30 4544 H 426.214 -0.266592 1.44664 0
M  V30 4545 H 428.172 -3.04247 2.85464 0
M  V30 4546 H 426.802 -2.70265 1.76512 0
M  V30 4547 H 425.854 -1.15406 3.62471 0
M  V30 4548 H 427.166 -1.72086 4.68175 0
M  V30 4549 H 426.32 -4.06953 4.49971 0
M  V30 4550 H 425.059 -3.54657 3.34768 0
M  V30 4551 H 424.064 -2.05075 5.10122 0
M  V30 4552 H 425.289 -2.60219 6.27266 0
M  V30 4553 H 423.235 -4.37094 4.89167 0
M  V30 4554 H 423.152 -3.81034 6.52954 0
M  V30 4555 H 424.42 -4.90289 6.06001 0
M  V30 4556 N 428.649 -1.55105 -0.279332 0
M  V30 4557 C 429.559 -1.90638 -1.36727 0
M  V30 4558 C 430.575 -0.802899 -1.54368 0
M  V30 4559 O 431.751 -1.10138 -1.68616 0
M  V30 4560 C 428.816 -2.16547 -2.70755 0
M  V30 4561 C 427.877 -3.40146 -2.61915 0
M  V30 4562 C 427.11 -3.6481 -3.8955 0
M  V30 4563 O 427.333 -2.92095 -4.89935 0
M  V30 4564 O 426.267 -4.58343 -3.90135 0
M  V30 4565 H 430.093 -2.83237 -1.09591 0
M  V30 4566 H 427.678 -1.4157 -0.477306 0
M  V30 4567 H 429.56 -2.34665 -3.50014 0
M  V30 4568 H 428.235 -1.27131 -2.9769 0
M  V30 4569 H 427.142 -3.2737 -1.81052 0
M  V30 4570 H 428.475 -4.29761 -2.3993 0
M  V30 4571 N 430.127 0.543554 -1.4793 0
M  V30 4572 C 431.538 1.12561 -1.48953 0
M  V30 4573 C 431.889 1.94578 -0.251754 0
M  V30 4574 O 431.014 2.0665 0.642255 0
M  V30 4575 C 431.609 2.04801 -2.69892 0
M  V30 4576 C 430.168 2.58251 -2.73831 0
M  V30 4577 C 429.315 1.34918 -2.42265 0
M  V30 4578 H 432.266 0.32947 -1.55242 0
M  V30 4579 H 432.287 2.88886 -2.47639 0
M  V30 4580 H 431.799 1.4508 -3.59963 0
M  V30 4581 H 429.9 3.21732 -1.87934 0
M  V30 4582 H 430.013 2.98312 -3.74895 0
M  V30 4583 H 428.377 1.66046 -1.93134 0
M  V30 4584 H 429.16 0.769693 -3.3456 0
M  V30 4585 N 431.605 1.3629 0.791371 0
M  V30 4586 C 432.852 1.30412 1.54916 0
M  V30 4587 C 433.18 -0.117162 1.94147 0
M  V30 4588 O 432.435 -1.08599 1.62803 0
M  V30 4589 C 432.734 2.17068 2.8393 0
M  V30 4590 C 432.4 3.65645 2.63846 0
M  V30 4591 C 431.062 4.0614 2.58077 0
M  V30 4592 C 433.414 4.59855 2.45322 0
M  V30 4593 C 430.742 5.3899 2.31748 0
M  V30 4594 C 433.094 5.9292 2.2052 0
M  V30 4595 C 431.758 6.32542 2.13183 0
M  V30 4596 H 431.028 0.47721 0.566879 0
M  V30 4597 H 433.675 1.68325 0.913172 0
M  V30 4598 H 431.98 1.72085 3.51986 0
M  V30 4599 H 433.677 2.09846 3.4171 0
M  V30 4600 H 430.267 3.33518 2.69191 0
M  V30 4601 H 434.451 4.29443 2.48782 0
M  V30 4602 H 429.707 5.68672 2.24548 0
M  V30 4603 H 433.881 6.65487 2.05182 0
M  V30 4604 H 431.508 7.35412 1.92544 0
M  V30 4605 N 433.083 -1.0153 1.20538 0
M  V30 4606 C 434.499 -1.27461 0.96051 0
M  V30 4607 C 434.699 -1.98273 -0.359193 0
M  V30 4608 O 433.755 -2.27886 -1.0874 0
M  V30 4609 C 435.068 -2.10837 2.14402 0
M  V30 4610 C 436.616 -2.24099 2.18515 0
M  V30 4611 C 437.091 -3.10852 3.36355 0
M  V30 4612 N 438.582 -3.18441 3.36377 0
M  V30 4613 C 439.317 -3.85795 4.24205 0
M  V30 4614 N 438.813 -4.55264 5.22213 0
M  V30 4615 N 440.606 -3.82331 4.12043 0
M  V30 4616 H 432.757 -0.539907 2.05423 0
M  V30 4617 H 435.02 -0.30092 0.898972 0
M  V30 4618 H 434.726 -1.66144 3.09983 0
M  V30 4619 H 434.6 -3.11576 2.12604 0
M  V30 4620 H 436.987 -2.68016 1.23497 0
M  V30 4621 H 437.068 -1.22865 2.24361 0
M  V30 4622 H 436.712 -2.6764 4.31661 0
M  V30 4623 H 436.642 -4.12177 3.27746 0
M  V30 4624 H 439.133 -2.68978 2.65442 0
M  V30 4625 H 439.446 -5.04331 5.85551 0
M  V30 4626 H 437.791 -4.54085 5.26148 0
M  V30 4627 H 440.982 -3.27207 3.34743 0
M  V30 4628 H 441.155 -4.34547 4.807 0
M  V30 4629 N 434.561 -1.01147 -1.20859 0
M  V30 4630 C 435.838 -0.613136 -1.85742 0
M  V30 4631 C 436.218 0.909004 -1.90526 0
M  V30 4632 O 435.566 1.79862 -1.40932 0
M  V30 4633 C 435.776 -1.255 -3.25654 0
M  V30 4634 C 437.124 -1.3672 -4.01986 0
M  V30 4635 O 438.148 -1.21082 -3.34989 0
M  V30 4636 O 437.007 -1.6194 -5.21956 0
M  V30 4637 H 434.101 -0.210878 -0.799662 0
M  V30 4638 H 436.647 -1.10853 -1.2849 0
M  V30 4639 H 435.419 -2.29532 -3.16908 0
M  V30 4640 H 435.042 -0.746369 -3.90532 0
M  V30 4641 N 436.039 1.36541 -0.78704 0
M  V30 4642 C 437.269 2.03266 -0.369662 0
M  V30 4643 C 437.677 1.59481 1.01796 0
M  V30 4644 O 437.02 0.778612 1.66383 0
M  V30 4645 C 437.082 3.57779 -0.351371 0
M  V30 4646 C 436.746 4.24756 -1.68617 0
M  V30 4647 C 437.743 4.47811 -2.64124 0
M  V30 4648 C 435.428 4.62277 -1.96481 0
M  V30 4649 C 437.422 5.07464 -3.85693 0
M  V30 4650 C 435.109 5.21649 -3.18317 0
M  V30 4651 C 436.107 5.44182 -4.12741 0
M  V30 4652 O 435.795 6.02307 -5.32429 0
M  V30 4653 H 435.527 0.658977 -0.150751 0
M  V30 4654 H 438.081 1.75548 -1.0664 0
M  V30 4655 H 436.311 3.84606 0.401847 0
M  V30 4656 H 438 4.05879 0.0410147 0
M  V30 4657 H 438.766 4.19221 -2.43883 0
M  V30 4658 H 434.645 4.44065 -1.23805 0
M  V30 4659 H 438.189 5.24968 -4.59407 0
M  V30 4660 H 434.086 5.49664 -3.38437 0
M  V30 4661 H 434.854 6.20775 -5.33461 0
M  V30 4662 N 437.518 0.538854 1.48102 0
M  V30 4663 C 438.764 0.00801365 2.02798 0
M  V30 4664 C 439.097 -1.3309 1.41424 0
M  V30 4665 O 438.372 -1.86169 0.563158 0
M  V30 4666 C 438.655 -0.104589 3.59948 0
M  V30 4667 C 438.508 1.26012 4.31788 0
M  V30 4668 C 439.827 -0.827055 4.32259 0
M  V30 4669 H 436.946 0.00438624 0.736987 0
M  V30 4670 H 439.588 0.6976 1.7673 0
M  V30 4671 H 437.738 -0.691893 3.82289 0
M  V30 4672 H 439.41 1.88922 4.2084 0
M  V30 4673 H 437.653 1.83968 3.92859 0
M  V30 4674 H 438.324 1.13424 5.40221 0
M  V30 4675 H 440.8 -0.328578 4.14801 0
M  V30 4676 H 439.676 -0.87476 5.41885 0
M  V30 4677 H 439.937 -1.87927 4.0017 0
M  V30 4678 N 438.996 -1.55193 0.274407 0
M  V30 4679 C 440.273 -1.91584 -0.394331 0
M  V30 4680 C 440.653 -1.19858 -1.73774 0
M  V30 4681 O 440.001 -0.3252 -2.26174 0
M  V30 4682 C 440.211 -3.4487 -0.535311 0
M  V30 4683 C 441.559 -4.16636 -0.818534 0
M  V30 4684 O 442.583 -3.5076 -0.620146 0
M  V30 4685 O 441.442 -5.33209 -1.19792 0
M  V30 4686 H 438.536 -0.798349 -0.215794 0
M  V30 4687 H 441.082 -1.66646 0.320507 0
M  V30 4688 H 439.854 -3.89145 0.410141 0
M  V30 4689 H 439.477 -3.75759 -1.29964 0
M  V30 4690 N 440.474 -0.00167713 -1.576 0
M  V30 4691 C 441.89 0.354422 -1.55615 0
M  V30 4692 C 442.09 1.74679 -1.00447 0
M  V30 4693 O 441.146 2.4428 -0.639022 0
M  V30 4694 C 442.459 0.22812 -2.99833 0
M  V30 4695 C 444.007 0.302934 -3.11531 0
M  V30 4696 C 444.482 0.205737 -4.57538 0
M  V30 4697 N 445.973 0.263584 -4.62449 0
M  V30 4698 C 446.708 0.211742 -5.73009 0
M  V30 4699 N 446.204 0.110399 -6.92712 0
M  V30 4700 N 447.997 0.263729 -5.61481 0
M  V30 4701 H 440.148 -0.912498 -1.918 0
M  V30 4702 H 442.411 -0.349928 -0.881053 0
M  V30 4703 H 442.117 -0.729934 -3.44042 0
M  V30 4704 H 441.991 1.00951 -3.6344 0
M  V30 4705 H 444.378 1.25143 -2.67251 0
M  V30 4706 H 444.459 -0.508357 -2.50698 0
M  V30 4707 H 444.103 -0.739225 -5.02492 0
M  V30 4708 H 444.033 1.03554 -5.16318 0
M  V30 4709 H 446.524 0.343173 -3.76339 0
M  V30 4710 H 446.837 0.0767828 -7.72762 0
M  V30 4711 H 445.182 0.0760025 -6.94958 0
M  V30 4712 H 448.373 0.34111 -4.66855 0
M  V30 4713 H 448.546 0.219862 -6.47627 0
M  V30 4714 N 441.952 1.55251 0.271103 0
M  V30 4715 C 443.199 1.75946 1.00245 0
M  V30 4716 C 443.527 0.561611 1.86215 0
M  V30 4717 O 442.782 -0.455832 1.90317 0
M  V30 4718 C 443.081 3.01879 1.91321 0
M  V30 4719 C 442.747 4.34337 1.21086 0
M  V30 4720 C 441.409 4.70338 1.01666 0
M  V30 4721 C 443.761 5.16325 0.71119 0
M  V30 4722 C 441.089 5.8588 0.310099 0
M  V30 4723 C 443.441 6.32597 0.0182157 0
M  V30 4724 C 442.105 6.67236 -0.18768 0
M  V30 4725 H 441.375 0.643833 0.366824 0
M  V30 4726 H 444.022 1.89521 0.27458 0
M  V30 4727 H 442.327 2.83212 2.70736 0
M  V30 4728 H 444.024 3.15088 2.48033 0
M  V30 4729 H 440.614 4.06043 1.37213 0
M  V30 4730 H 444.798 4.88987 0.848844 0
M  V30 4731 H 440.054 6.1124 0.139873 0
M  V30 4732 H 444.228 6.9538 -0.376711 0
M  V30 4733 H 441.855 7.56618 -0.73715 0
M  V30 4734 N 443.43 -0.535701 1.48216 0
M  V30 4735 C 444.66 -1.3148 1.59363 0
M  V30 4736 C 445.068 -1.8753 0.250844 0
M  V30 4737 O 444.411 -1.66821 -0.769174 0
M  V30 4738 C 444.473 -2.50731 2.57632 0
M  V30 4739 C 444.137 -2.15811 4.02833 0
M  V30 4740 C 445.134 -1.71822 4.90686 0
M  V30 4741 C 442.819 -2.26509 4.48329 0
M  V30 4742 C 444.813 -1.3899 6.22062 0
M  V30 4743 C 442.5 -1.93289 5.79726 0
M  V30 4744 C 443.498 -1.49599 6.66415 0
M  V30 4745 O 443.186 -1.16812 7.95368 0
M  V30 4746 H 442.918 -0.406315 0.540263 0
M  V30 4747 H 445.472 -0.653569 1.94725 0
M  V30 4748 H 443.702 -3.19817 2.1738 0
M  V30 4749 H 445.391 -3.12797 2.58675 0
M  V30 4750 H 446.157 -1.63031 4.56778 0
M  V30 4751 H 442.036 -2.59471 3.81045 0
M  V30 4752 H 445.58 -1.04816 6.89681 0
M  V30 4753 H 441.477 -2.01718 6.13172 0
M  V30 4754 H 442.245 -1.30259 8.08069 0
M  V30 4755 N 444.908 -1.36708 -0.784132 0
M  V30 4756 C 445.855 -1.31466 -1.89698 0
M  V30 4757 C 446.825 -0.18239 -1.65096 0
M  V30 4758 O 448.01 -0.369762 -1.87183 0
M  V30 4759 C 445.15 -1.1151 -3.26588 0
M  V30 4760 C 444.263 -2.33859 -3.63227 0
M  V30 4761 C 443.398 -2.06873 -4.89262 0
M  V30 4762 C 442.437 -3.25154 -5.18595 0
M  V30 4763 N 441.574 -2.978 -6.35814 0
M  V30 4764 H 446.414 -2.26619 -1.93515 0
M  V30 4765 H 443.951 -1.12625 -0.946256 0
M  V30 4766 H 445.909 -0.979653 -4.05535 0
M  V30 4767 H 444.539 -0.200103 -3.22179 0
M  V30 4768 H 443.591 -2.58188 -2.79362 0
M  V30 4769 H 444.903 -3.22109 -3.8085 0
M  V30 4770 H 444.057 -1.90289 -5.76086 0
M  V30 4771 H 442.796 -1.15942 -4.73718 0
M  V30 4772 H 441.801 -3.42292 -4.30251 0
M  V30 4773 H 443.026 -4.1692 -5.36055 0
M  V30 4774 H 440.972 -2.09485 -6.21653 0
M  V30 4775 H 440.889 -3.7959 -6.53794 0
M  V30 4776 H 442.157 -2.84805 -7.25607 0
M  V30 4777 N 446.386 1.0089 -1.21074 0
M  V30 4778 C 447.614 1.78191 -1.05145 0
M  V30 4779 C 448.029 1.84537 0.398952 0
M  V30 4780 O 447.386 1.30393 1.27687 0
M  V30 4781 C 447.437 3.22288 -1.63746 0
M  V30 4782 O 447.158 3.16315 -3.03111 0
M  V30 4783 C 448.659 4.16106 -1.52875 0
M  V30 4784 H 445.879 0.560129 -0.369454 0
M  V30 4785 H 448.423 1.26945 -1.60328 0
M  V30 4786 H 446.578 3.70655 -1.12664 0
M  V30 4787 H 446.992 4.06817 -3.31059 0
M  V30 4788 H 448.466 5.15026 -1.98626 0
M  V30 4789 H 448.943 4.36541 -0.482521 0
M  V30 4790 H 449.549 3.73625 -2.03185 0
M  V30 4791 N 447.864 1.01787 1.20321 0
M  V30 4792 C 448.794 0.609625 2.25401 0
M  V30 4793 C 449.775 -0.375951 1.65893 0
M  V30 4794 O 450.96 -0.261101 1.92437 0
M  V30 4795 C 448.09 -0.0515995 3.47262 0
M  V30 4796 C 447.044 0.855095 4.19371 0
M  V30 4797 C 446.37 0.0595757 5.34667 0
M  V30 4798 C 447.67 2.16374 4.75373 0
M  V30 4799 H 449.364 1.48803 2.59804 0
M  V30 4800 H 446.91 0.716934 1.24884 0
M  V30 4801 H 448.863 -0.348764 4.19954 0
M  V30 4802 H 447.587 -0.964726 3.12027 0
M  V30 4803 H 446.246 1.13628 3.48546 0
M  V30 4804 H 445.894 -0.85524 4.95676 0
M  V30 4805 H 445.594 0.663406 5.83843 0
M  V30 4806 H 447.118 -0.231105 6.10162 0
M  V30 4807 H 448.532 1.92885 5.39878 0
M  V30 4808 H 446.929 2.71853 5.34991 0
M  V30 4809 H 447.999 2.82589 3.94045 0
M  V30 4810 N 449.342 -1.36122 0.79427 0
M  V30 4811 C 450.758 -1.5232 0.476525 0
M  V30 4812 C 450.958 -1.74685 -1.00436 0
M  V30 4813 O 450.014 -1.78115 -1.78973 0
M  V30 4814 C 451.327 -2.70607 1.31119 0
M  V30 4815 C 452.875 -2.8448 1.30537 0
M  V30 4816 C 453.35 -4.05778 2.12387 0
M  V30 4817 N 454.841 -4.12933 2.09859 0
M  V30 4818 C 455.576 -5.05876 2.69957 0
M  V30 4819 N 455.072 -6.04232 3.38934 0
M  V30 4820 N 456.865 -4.98528 2.59665 0
M  V30 4821 H 449.016 -1.1986 1.75349 0
M  V30 4822 H 451.279 -0.585418 0.745647 0
M  V30 4823 H 450.985 -2.60619 2.36158 0
M  V30 4824 H 450.859 -3.64888 0.955843 0
M  V30 4825 H 453.246 -2.93927 0.262876 0
M  V30 4826 H 453.327 -1.91093 1.70051 0
M  V30 4827 H 452.971 -3.97092 3.1667 0
M  V30 4828 H 452.901 -4.98323 1.70242 0
M  V30 4829 H 455.392 -3.42515 1.59662 0
M  V30 4830 H 455.705 -6.71724 3.82109 0
M  V30 4831 H 454.05 -6.04443 3.43036 0
M  V30 4832 H 457.241 -4.20641 2.05375 0
M  V30 4833 H 457.414 -5.70773 3.06793 0
M  V30 4834 N 450.82 -0.546701 -1.47814 0
M  V30 4835 C 451.783 0.196287 -2.28358 0
M  V30 4836 C 452.783 0.852437 -1.36346 0
M  V30 4837 O 453.973 0.709913 -1.59078 0
M  V30 4838 C 451.105 1.28579 -3.15722 0
M  V30 4839 H 452.298 -0.511086 -2.95513 0
M  V30 4840 H 449.851 -0.303248 -1.5333 0
M  V30 4841 H 450.586 2.0259 -2.53235 0
M  V30 4842 H 450.371 0.820229 -3.83425 0
M  V30 4843 H 451.861 1.80793 -3.76435 0
M  V30 4844 N 452.299 1.55045 -0.282633 0
M  V30 4845 C 453.209 2.26491 0.61147 0
M  V30 4846 C 454.225 1.29348 1.16384 0
M  V30 4847 O 455.401 1.62298 1.19253 0
M  V30 4848 C 452.466 2.97779 1.77563 0
M  V30 4849 C 451.527 4.10418 1.25919 0
M  V30 4850 C 450.76 4.78297 2.36786 0
M  V30 4851 O 450.983 4.45426 3.56303 0
M  V30 4852 O 449.917 5.66089 2.04517 0
M  V30 4853 H 453.743 3.03683 0.0324615 0
M  V30 4854 H 451.328 1.49317 -0.0497576 0
M  V30 4855 H 453.21 3.42554 2.45427 0
M  V30 4856 H 451.885 2.23498 2.34159 0
M  V30 4857 H 450.792 3.70082 0.546797 0
M  V30 4858 H 452.125 4.86622 0.738887 0
M  V30 4859 N 453.777 0.010035 1.57597 0
M  V30 4860 C 454.709 -1.00649 2.05918 0
M  V30 4861 C 455.722 -1.30077 0.978964 0
M  V30 4862 O 456.911 -1.26878 1.25556 0
M  V30 4863 C 454.011 -2.33876 2.45265 0
M  V30 4864 C 453.184 -2.23242 3.7614 0
M  V30 4865 C 452.243 -3.39242 4.02245 0
M  V30 4866 O 451.269 -3.1698 4.72771 0
M  V30 4867 N 452.471 -4.6242 3.50924 0
M  V30 4868 H 455.236 -0.594333 2.93748 0
M  V30 4869 H 452.797 -0.17714 1.60928 0
M  V30 4870 H 454.789 -3.1027 2.59836 0
M  V30 4871 H 453.359 -2.66799 1.62902 0
M  V30 4872 H 452.579 -1.31696 3.71551 0
M  V30 4873 H 453.867 -2.13321 4.61922 0
M  V30 4874 H 453.265 -4.83404 2.93832 0
M  V30 4875 H 451.822 -5.36046 3.70807 0
M  V30 4876 N 455.255 -1.55392 -0.262866 0
M  V30 4877 C 456.218 -1.88181 -1.30846 0
M  V30 4878 C 457.218 -0.757079 -1.41862 0
M  V30 4879 O 458.408 -1.02519 -1.40838 0
M  V30 4880 C 455.54 -2.09609 -2.68844 0
M  V30 4881 H 456.733 -2.81659 -1.02997 0
M  V30 4882 H 454.286 -1.48039 -0.501414 0
M  V30 4883 H 455.021 -1.18547 -3.01856 0
M  V30 4884 H 454.806 -2.91508 -2.62231 0
M  V30 4885 H 456.296 -2.36215 -3.44372 0
M  V30 4886 N 456.733 0.527833 -1.48498 0
M  V30 4887 C 457.958 1.313 -1.60546 0
M  V30 4888 C 458.383 1.86199 -0.26672 0
M  V30 4889 O 457.741 1.64513 0.761918 0
M  V30 4890 C 457.789 2.43818 -2.65678 0
M  V30 4891 O 456.893 3.46916 -2.22987 0
M  V30 4892 H 456.234 0.388784 -0.538277 0
M  V30 4893 H 458.764 0.634896 -1.945 0
M  V30 4894 H 458.774 2.89973 -2.87018 0
M  V30 4895 H 457.449 2.03222 -3.62869 0
M  V30 4896 H 456.026 3.06864 -2.11869 0
M  V30 4897 N 458.211 1.37122 0.776871 0
M  V30 4898 C 459.143 1.28342 1.89897 0
M  V30 4899 C 460.156 0.200277 1.61563 0
M  V30 4900 O 461.345 0.456012 1.72577 0
M  V30 4901 C 458.445 0.960427 3.25006 0
M  V30 4902 C 457.618 2.148 3.81025 0
M  V30 4903 C 456.677 1.79608 4.94598 0
M  V30 4904 O 455.703 2.51845 5.10454 0
M  V30 4905 N 456.905 0.737171 5.758 0
M  V30 4906 H 459.67 2.25027 1.97947 0
M  V30 4907 H 457.231 1.3068 0.955739 0
M  V30 4908 H 459.223 0.705942 3.98495 0
M  V30 4909 H 457.793 0.0823066 3.12492 0
M  V30 4910 H 457.013 2.56454 2.99374 0
M  V30 4911 H 458.301 2.9411 4.15183 0
M  V30 4912 H 457.699 0.137637 5.65533 0
M  V30 4913 H 456.256 0.542534 6.49538 0
M  V30 4914 N 459.689 -1.00246 1.21608 0
M  V30 4915 C 460.599 -2.12515 0.993709 0
M  V30 4916 C 461.615 -1.73913 -0.0549939 0
M  V30 4917 O 462.791 -2.00943 0.135619 0
M  V30 4918 C 459.856 -3.42083 0.563953 0
M  V30 4919 C 458.917 -3.94843 1.68516 0
M  V30 4920 C 458.15 -5.18226 1.27582 0
M  V30 4921 O 458.373 -5.70201 0.150506 0
M  V30 4922 O 457.307 -5.64497 2.0887 0
M  V30 4923 H 461.133 -2.34152 1.93407 0
M  V30 4924 H 458.718 -1.10891 1.00118 0
M  V30 4925 H 460.6 -4.20073 0.334194 0
M  V30 4926 H 459.275 -3.21828 -0.347665 0
M  V30 4927 H 458.182 -3.18068 1.96935 0
M  V30 4928 H 459.515 -4.19512 2.5743 0
M  V30 4929 N 461.167 -1.02423 -1.1978 0
M  V30 4930 C 462.413 -0.719051 -1.89625 0
M  V30 4931 C 462.746 0.750083 -1.7913 0
M  V30 4932 O 462.021 1.54574 -1.18056 0
M  V30 4933 C 462.304 -1.16499 -3.40735 0
M  V30 4934 C 462.157 -2.695 -3.60125 0
M  V30 4935 C 463.476 -0.742166 -4.33797 0
M  V30 4936 H 460.595 -0.26269 -0.688595 0
M  V30 4937 H 463.237 -1.27333 -1.41018 0
M  V30 4938 H 461.387 -0.69341 -3.82262 0
M  V30 4939 H 463.059 -3.24569 -3.278 0
M  V30 4940 H 461.302 -3.10113 -3.03336 0
M  V30 4941 H 461.973 -2.95757 -4.66081 0
M  V30 4942 H 464.449 -1.1477 -3.99959 0
M  V30 4943 H 463.325 -1.08213 -5.38127 0
M  V30 4944 H 463.586 0.355747 -4.40666 0
M  V30 4945 N 462.645 1.35699 -0.801477 0
M  V30 4946 C 463.592 2.29876 -0.206294 0
M  V30 4947 C 464.562 1.52565 0.656752 0
M  V30 4948 O 465.747 1.81024 0.602906 0
M  V30 4949 C 462.887 3.39052 0.643272 0
M  V30 4950 C 462 4.31335 -0.239644 0
M  V30 4951 C 461.135 5.27599 0.61744 0
M  V30 4952 C 460.174 6.11521 -0.26619 0
M  V30 4953 N 459.311 6.99938 0.550571 0
M  V30 4954 H 464.151 2.80187 -1.01484 0
M  V30 4955 H 461.688 1.37902 -0.511997 0
M  V30 4956 H 463.646 4.0101 1.15094 0
M  V30 4957 H 462.276 2.9003 1.41713 0
M  V30 4958 H 461.328 3.70426 -0.865381 0
M  V30 4959 H 462.64 4.90243 -0.919985 0
M  V30 4960 H 461.794 5.94906 1.19045 0
M  V30 4961 H 460.533 4.69176 1.33137 0
M  V30 4962 H 459.538 5.43166 -0.851507 0
M  V30 4963 H 460.763 6.72022 -0.9779 0
M  V30 4964 H 458.709 6.44008 1.24856 0
M  V30 4965 H 458.626 7.55966 -0.071832 0
M  V30 4966 H 459.894 7.71599 1.10702 0
M  V30 4967 N 464.123 0.554532 1.47522 0
M  V30 4968 C 465.071 -0.207765 2.3167 0
M  V30 4969 C 466.065 -0.911914 1.4276 0
M  V30 4970 O 467.271 -0.833504 1.59539 0
M  V30 4971 H 463.646 -0.0858726 0.747081 0
M  V30 4972 H 465.617 0.521178 2.93813 0
M  V30 4973 C 464.366 -1.2263 3.25357 0
M  V30 4974 H 463.689 -0.693887 3.93732 0
M  V30 4975 H 465.129 -1.73062 3.87073 0
M  V30 4976 C 463.588 -2.27278 2.4869 0
M  V30 4977 O 464.118 -3.34156 2.22941 0
M  V30 4978 N 462.324 -2.01134 2.09746 0
M  V30 4979 H 461.871 -1.14232 2.30887 0
M  V30 4980 H 461.829 -2.71369 1.58765 0
M  V30 4981 N 465.601 -1.54893 0.290851 0
M  V30 4982 C 466.847 -2.00949 -0.314784 0
M  V30 4983 C 467.202 -1.1757 -1.52299 0
M  V30 4984 O 466.495 -0.241558 -1.90071 0
M  V30 4985 C 466.689 -3.49815 -0.732397 0
M  V30 4986 C 466.518 -4.47603 0.433799 0
M  V30 4987 C 465.288 -4.96806 0.922599 0
M  V30 4988 C 467.486 -4.98233 1.27546 0
M  V30 4989 N 465.468 -5.78426 2.05662 0
M  V30 4990 C 466.839 -5.77455 2.25712 0
M  V30 4991 C 468.894 -4.80439 1.307 0
M  V30 4992 C 467.597 -6.40778 3.26796 0
M  V30 4993 C 469.623 -5.44574 2.30637 0
M  V30 4994 C 468.985 -6.23619 3.27533 0
M  V30 4995 H 465.084 -0.777905 -0.0799257 0
M  V30 4996 H 467.668 -1.9015 0.418458 0
M  V30 4997 H 465.839 -3.60925 -1.43483 0
M  V30 4998 H 467.571 -3.82681 -1.31671 0
M  V30 4999 H 464.326 -4.70961 0.49926 0
M  V30 5000 H 464.75 -6.23923 2.62772 0
M  V30 5001 H 469.392 -4.18918 0.571622 0
M  V30 5002 H 467.11 -7.01439 4.01258 0
M  V30 5003 H 470.696 -5.32739 2.33838 0
M  V30 5004 H 469.576 -6.72367 4.03599 0
M  V30 5005 N 467.08 -0.0183926 -1.57589 0
M  V30 5006 C 468.013 1.00148 -2.0505 0
M  V30 5007 C 468.991 1.32387 -0.944058 0
M  V30 5008 O 470.175 1.44237 -1.21358 0
M  V30 5009 C 467.302 2.32435 -2.46357 0
M  V30 5010 C 466.348 2.15731 -3.67916 0
M  V30 5011 S 467.181 1.46613 -5.15039 0
M  V30 5012 C 468.337 2.80293 -5.59631 0
M  V30 5013 H 468.57 0.597429 -2.91235 0
M  V30 5014 H 466.103 0.193002 -1.53189 0
M  V30 5015 H 468.061 3.0849 -2.70822 0
M  V30 5016 H 466.722 2.69975 -1.60537 0
M  V30 5017 H 465.915 3.13502 -3.9463 0
M  V30 5018 H 465.517 1.4782 -3.43548 0
M  V30 5019 H 467.809 3.76557 -5.63215 0
M  V30 5020 H 468.752 2.58256 -6.59325 0
M  V30 5021 H 469.16 2.85047 -4.87246 0
M  V30 5022 N 468.558 1.5553 0.254621 0
M  V30 5023 C 469.786 1.81046 1.00149 0
M  V30 5024 C 470.201 0.593047 1.79244 0
M  V30 5025 O 469.558 -0.438196 1.77161 0
M  V30 5026 C 469.609 3.04684 1.94551 0
M  V30 5027 O 469.33 4.21725 1.18658 0
M  V30 5028 C 470.831 3.42943 2.80901 0
M  V30 5029 H 468.051 0.602653 0.295044 0
M  V30 5030 H 470.595 2.02576 0.279842 0
M  V30 5031 H 468.75 2.85226 2.62154 0
M  V30 5032 H 469.164 4.91746 1.82445 0
M  V30 5033 H 470.638 4.32576 3.42902 0
M  V30 5034 H 471.115 2.63176 3.51617 0
M  V30 5035 H 471.721 3.64724 2.18762 0
M  V30 5036 N 470.036 -0.519951 1.48776 0
M  V30 5037 C 470.946 -1.65025 1.66745 0
M  V30 5038 C 471.962 -1.6508 0.549954 0
M  V30 5039 O 473.138 -1.83848 0.822295 0
M  V30 5040 C 470.203 -3.0146 1.71238 0
M  V30 5041 C 469.264 -3.12182 2.94688 0
M  V30 5042 C 468.497 -4.42109 2.98958 0
M  V30 5043 O 468.72 -5.29799 2.1135 0
M  V30 5044 O 467.654 -4.57406 3.91233 0
M  V30 5045 H 471.48 -1.52801 2.62461 0
M  V30 5046 H 469.065 -0.694157 1.32294 0
M  V30 5047 H 470.947 -3.82584 1.76657 0
M  V30 5048 H 469.622 -3.13988 0.786975 0
M  V30 5049 H 468.529 -2.30316 2.94797 0
M  V30 5050 H 469.862 -3.04574 3.86646 0
M  V30 5051 N 471.514 -1.37532 -0.769588 0
M  V30 5052 C 472.742 -1.36059 -1.55871 0
M  V30 5053 C 473.157 0.053544 -1.88724 0
M  V30 5054 O 472.514 1.01591 -1.5161 0
M  V30 5055 C 472.565 -2.20107 -2.86767 0
M  V30 5056 O 472.286 -3.56009 -2.55321 0
M  V30 5057 C 473.787 -2.26636 -3.80987 0
M  V30 5058 H 471.007 -0.465967 -0.482821 0
M  V30 5059 H 473.551 -1.80901 -0.953686 0
M  V30 5060 H 471.706 -1.78768 -3.43687 0
M  V30 5061 H 472.12 -4.0009 -3.39158 0
M  V30 5062 H 473.594 -2.89763 -4.69831 0
M  V30 5063 H 474.071 -1.2754 -4.20274 0
M  V30 5064 H 474.677 -2.68296 -3.29996 0
M  V30 5065 N 472.992 0.995999 -1.22138 0
M  V30 5066 C 473.922 2.10387 -1.01289 0
M  V30 5067 C 474.903 1.69975 0.0651454 0
M  V30 5068 O 476.088 1.9396 -0.0964628 0
M  V30 5069 C 473.218 3.42312 -0.586517 0
M  V30 5070 C 472.172 3.96558 -1.61014 0
M  V30 5071 C 471.498 5.24494 -1.0397 0
M  V30 5072 C 472.798 4.27595 -2.99933 0
M  V30 5073 H 474.492 2.28086 -1.93951 0
M  V30 5074 H 472.038 1.09607 -0.933928 0
M  V30 5075 H 473.991 4.19223 -0.427793 0
M  V30 5076 H 472.715 3.24431 0.375761 0
M  V30 5077 H 471.374 3.21776 -1.75658 0
M  V30 5078 H 471.022 5.02953 -0.0688703 0
M  V30 5079 H 470.722 5.61755 -1.72352 0
M  V30 5080 H 472.246 6.04042 -0.892494 0
M  V30 5081 H 473.66 4.95315 -2.8868 0
M  V30 5082 H 472.057 4.76021 -3.6541 0
M  V30 5083 H 473.127 3.35498 -3.50099 0
M  V30 5084 N 474.47 1.03057 1.19235 0
M  V30 5085 C 475.4 0.633497 2.24742 0
M  V30 5086 C 476.381 -0.358335 1.66283 0
M  V30 5087 O 477.566 -0.240676 1.92703 0
M  V30 5088 C 474.696 -0.0147648 3.47297 0
M  V30 5089 C 473.65 0.899527 4.18441 0
M  V30 5090 C 472.976 0.116281 5.34574 0
M  V30 5091 C 474.276 2.21404 4.73051 0
M  V30 5092 H 475.97 1.5155 2.58211 0
M  V30 5093 H 473.516 0.73014 1.24117 0
M  V30 5094 H 475.469 -0.304202 4.20301 0
M  V30 5095 H 474.193 -0.931577 3.13032 0
M  V30 5096 H 472.852 1.17319 3.47321 0
M  V30 5097 H 472.5 -0.802619 4.96555 0
M  V30 5098 H 472.2 0.725293 5.83107 0
M  V30 5099 H 473.724 -0.166376 6.10373 0
M  V30 5100 H 475.138 1.98601 5.37802 0
M  V30 5101 H 473.535 2.77512 5.32078 0
M  V30 5102 H 474.605 2.86752 3.91026 0
M  V30 5103 N 475.948 -1.35272 0.808662 0
M  V30 5104 C 477.194 -1.99003 0.390581 0
M  V30 5105 C 477.527 -1.63999 -1.0401 0
M  V30 5106 O 476.802 -0.904368 -1.72196 0
M  V30 5107 C 477.085 -3.55454 0.576566 0
M  V30 5108 C 476.938 -4.00249 2.05233 0
M  V30 5109 C 478.257 -4.401 0.00354277 0
M  V30 5110 H 475.376 -0.722917 0.143388 0
M  V30 5111 H 478.018 -1.6039 1.01858 0
M  V30 5112 H 476.168 -3.88477 0.0419766 0
M  V30 5113 H 477.84 -3.77626 2.64946 0
M  V30 5114 H 476.083 -3.51082 2.54801 0
M  V30 5115 H 476.754 -5.0911 2.13333 0
M  V30 5116 H 479.23 -4.13548 0.460117 0
M  V30 5117 H 478.106 -5.48656 0.163575 0
M  V30 5118 H 478.367 -4.28444 -1.09032 0
M  V30 5119 N 477.426 -0.562348 -1.47226 0
M  V30 5120 C 478.358 0.220011 -2.28142 0
M  V30 5121 C 479.371 0.874596 -1.37312 0
M  V30 5122 O 480.56 0.747583 -1.62091 0
M  V30 5123 C 477.66 1.32953 -3.11732 0
M  V30 5124 C 476.833 0.770759 -4.30556 0
M  V30 5125 C 475.892 1.76541 -4.95701 0
M  V30 5126 O 474.918 1.3095 -5.53932 0
M  V30 5127 N 476.12 3.09896 -4.90861 0
M  V30 5128 H 478.885 -0.474107 -2.95926 0
M  V30 5129 H 476.446 -0.398761 -1.56912 0
M  V30 5130 H 478.438 1.99378 -3.5218 0
M  V30 5131 H 477.008 1.92681 -2.46156 0
M  V30 5132 H 476.228 -0.0704056 -3.94137 0
M  V30 5133 H 477.516 0.376872 -5.07402 0
M  V30 5134 H 476.914 3.49577 -4.44761 0
M  V30 5135 H 475.471 3.71865 -5.35313 0
M  V30 5136 N 478.904 1.54736 -0.299062 0
M  V30 5137 C 479.852 2.24897 0.593658 0
M  V30 5138 C 480.846 1.25429 1.13859 0
M  V30 5139 O 482.052 1.43286 1.08945 0
M  V30 5140 H 478.427 0.72207 0.210046 0
M  V30 5141 H 480.398 2.98393 -0.0206421 0
M  V30 5142 C 479.147 3.00159 1.75499 0
M  V30 5143 H 478.47 3.76501 1.34489 0
M  V30 5144 H 479.91 3.52535 2.35574 0
M  V30 5145 C 478.369 2.07015 2.65794 0
M  V30 5146 O 478.899 1.63692 3.66835 0
M  V30 5147 N 477.105 1.73012 2.33485 0
M  V30 5148 H 476.652 2.08439 1.51364 0
M  V30 5149 H 476.61 1.10965 2.94167 0
M  V30 5150 N 480.382 0.0267497 1.57577 0
M  V30 5151 C 481.345 -0.940916 2.08996 0
M  V30 5152 C 482.345 -1.25561 1.00455 0
M  V30 5153 O 483.535 -1.19634 1.26623 0
M  V30 5154 C 480.667 -2.25814 2.55384 0
M  V30 5155 H 481.86 -0.495628 2.95776 0
M  V30 5156 H 479.413 -0.221241 1.54726 0
M  V30 5157 H 480.148 -2.74976 1.71926 0
M  V30 5158 H 479.933 -2.04285 3.34679 0
M  V30 5159 H 481.423 -2.95178 2.95398 0
M  V30 5160 N 481.861 -1.55662 -0.24637 0
M  V30 5161 C 482.809 -1.91186 -1.3248 0
M  V30 5162 C 483.803 -0.790996 -1.49799 0
M  V30 5163 O 485.009 -0.975617 -1.51267 0
M  V30 5164 H 481.384 -0.607207 -0.443626 0
M  V30 5165 H 483.355 -2.81221 -0.997853 0
M  V30 5166 C 482.104 -2.22349 -2.67313 0
M  V30 5167 H 481.427 -3.08097 -2.54786 0
M  V30 5168 H 482.867 -2.51107 -3.41645 0
M  V30 5169 C 481.326 -1.04001 -3.20446 0
M  V30 5170 O 481.856 -0.28828 -4.00664 0
M  V30 5171 N 480.062 -0.830494 -2.7848 0
M  V30 5172 H 479.609 -1.4435 -2.13356 0
M  V30 5173 H 479.567 -0.0403258 -3.14374 0
M  V30 5174 N 483.339 0.512053 -1.4905 0
M  V30 5175 C 484.75 1.09376 -1.51307 0
M  V30 5176 C 485.101 1.94 -0.292971 0
M  V30 5177 O 484.226 2.07965 0.598277 0
M  V30 5178 C 484.821 1.99031 -2.74176 0
M  V30 5179 C 483.38 2.52385 -2.79247 0
M  V30 5180 C 482.527 1.29749 -2.45073 0
M  V30 5181 H 485.478 0.296467 -1.55906 0
M  V30 5182 H 485.499 2.83569 -2.53711 0
M  V30 5183 H 485.011 1.37412 -3.62959 0
M  V30 5184 H 483.112 3.17673 -1.94716 0
M  V30 5185 H 483.225 2.90293 -3.81139 0
M  V30 5186 H 481.589 1.61912 -1.96612 0
M  V30 5187 H 482.372 0.698555 -3.36118 0
M  V30 5188 N 484.817 1.37938 0.762283 0
M  V30 5189 C 486.094 1.24196 1.51112 0
M  V30 5190 C 486.474 -0.160409 2.1049 0
M  V30 5191 O 485.822 -1.16904 1.96331 0
M  V30 5192 C 486.032 2.34537 2.58445 0
M  V30 5193 C 487.38 2.7254 3.25588 0
M  V30 5194 O 488.404 2.33783 2.68745 0
M  V30 5195 O 487.263 3.39343 4.28379 0
M  V30 5196 H 484.357 0.485175 0.669727 0
M  V30 5197 H 486.903 1.49743 0.798438 0
M  V30 5198 H 485.675 3.28406 2.12756 0
M  V30 5199 H 485.298 2.10505 3.37303 0
M  V30 5200 N 486.295 -0.989507 1.22664 0
M  V30 5201 C 487.535 -1.7447 1.06488 0
M  V30 5202 C 487.899 -1.8794 -0.392737 0
M  V30 5203 O 489.1 -2.60175 -0.675446 0
M  V30 5204 C 487.371 -3.11043 1.76031 0
M  V30 5205 S 488.93 -4.02258 1.7531 0
M  V30 5206 H 485.748 -0.600123 0.381278 0
M  V30 5207 H 488.35 -1.18283 1.55658 0
M  V30 5208 H 487.054 -2.98884 2.81241 0
M  V30 5209 H 486.585 -3.72301 1.27105 0
M  V30 5210 H 488.6 -4.89623 0.805208 0
M  V30 5211 N 487.773 -1.03688 -1.18687 0
M  V30 5212 C 488.72 -0.624624 -2.22187 0
M  V30 5213 C 489.69 0.365636 -1.62026 0
M  V30 5214 O 490.875 0.260481 -1.89014 0
M  V30 5215 C 488.015 0.0101738 -3.45099 0
M  V30 5216 C 487.128 -1.02709 -4.19613 0
M  V30 5217 C 486.263 -0.361213 -5.2997 0
M  V30 5218 C 485.302 -1.38384 -5.96252 0
M  V30 5219 N 484.439 -0.743196 -6.98155 0
M  V30 5220 H 489.279 -1.51176 -2.56807 0
M  V30 5221 H 486.816 -0.75636 -1.26165 0
M  V30 5222 H 488.774 0.395528 -4.15321 0
M  V30 5223 H 487.404 0.860848 -3.1111 0
M  V30 5224 H 486.456 -1.53043 -3.48256 0
M  V30 5225 H 487.768 -1.80398 -4.65036 0
M  V30 5226 H 486.922 0.0785537 -6.06649 0
M  V30 5227 H 485.661 0.447799 -4.8564 0
M  V30 5228 H 484.666 -1.83378 -5.18317 0
M  V30 5229 H 485.891 -2.19448 -6.42666 0
M  V30 5230 H 483.837 0.0455789 -6.55984 0
M  V30 5231 H 483.754 -1.45784 -7.41811 0
M  V30 5232 H 485.022 -0.327698 -7.78811 0
M  V30 5233 N 489.251 1.34841 -0.815825 0
M  V30 5234 C 490.479 2.0273 -0.413294 0
M  V30 5235 C 490.894 1.61459 0.978599 0
M  V30 5236 O 490.251 0.816584 1.63212 0
M  V30 5237 C 490.302 3.58058 -0.497676 0
M  V30 5238 O 490.023 3.97832 -1.8347 0
M  V30 5239 C 491.524 4.4321 -0.0891339 0
M  V30 5240 H 488.744 0.649956 -0.166728 0
M  V30 5241 H 491.288 1.72267 -1.10201 0
M  V30 5242 H 489.443 3.87136 0.142886 0
M  V30 5243 H 489.857 4.92501 -1.80396 0
M  V30 5244 H 491.331 5.5164 -0.199274 0
M  V30 5245 H 491.808 4.28432 0.966571 0
M  V30 5246 H 492.414 4.19446 -0.703214 0
M  V30 5247 N 490.729 0.570148 1.46925 0
M  V30 5248 C 491.978 0.0487352 2.01641 0
M  V30 5249 C 492.291 -1.31433 1.44861 0
M  V30 5250 O 493.497 -1.92638 1.91318 0
M  V30 5251 C 491.953 0.0365817 3.59881 0
M  V30 5252 C 491.561 1.39719 4.25655 0
M  V30 5253 C 493.305 -0.431545 4.22301 0
M  V30 5254 C 491.212 1.34345 5.75939 0
M  V30 5255 H 490.142 0.0144492 0.753862 0
M  V30 5256 H 492.793 0.719928 1.68788 0
M  V30 5257 H 491.175 -0.700522 3.89755 0
M  V30 5258 H 492.349 2.15303 4.07408 0
M  V30 5259 H 490.664 1.80431 3.75278 0
M  V30 5260 H 493.261 -0.490354 5.32447 0
M  V30 5261 H 493.604 -1.44638 3.90366 0
M  V30 5262 H 494.137 0.251102 3.97007 0
M  V30 5263 H 490.876 2.33469 6.12513 0
M  V30 5264 H 490.396 0.629615 5.96486 0
M  V30 5265 H 492.075 1.051 6.38407 0
M  V30 5266 N 492.207 -1.54576 0.307264 0
M  V30 5267 C 493.137 -2.26708 -0.55907 0
M  V30 5268 C 494.118 -1.26893 -1.1328 0
M  V30 5269 O 495.303 -1.55677 -1.16097 0
M  V30 5270 C 492.433 -3.01259 -1.72801 0
M  V30 5271 C 491.387 -4.08275 -1.28435 0
M  V30 5272 C 490.713 -4.70575 -2.53895 0
M  V30 5273 C 492.013 -5.2068 -0.411038 0
M  V30 5274 H 493.707 -2.9937 0.042576 0
M  V30 5275 H 491.253 -1.43983 0.0219173 0
M  V30 5276 H 493.206 -3.50444 -2.34023 0
M  V30 5277 H 491.93 -2.26187 -2.356 0
M  V30 5278 H 490.589 -3.59949 -0.695161 0
M  V30 5279 H 490.237 -3.92136 -3.15021 0
M  V30 5280 H 489.937 -5.42854 -2.24908 0
M  V30 5281 H 491.461 -5.22527 -3.15908 0
M  V30 5282 H 492.875 -5.65721 -0.929097 0
M  V30 5283 H 491.272 -5.99716 -0.214664 0
M  V30 5284 H 492.342 -4.81629 0.562287 0
M  V30 5285 N 493.685 -0.035106 -1.57561 0
M  V30 5286 C 494.632 0.94474 -2.10578 0
M  V30 5287 C 495.602 1.3192 -1.00927 0
M  V30 5288 O 496.787 1.41147 -1.28382 0
M  V30 5289 C 493.927 2.21982 -2.64231 0
M  V30 5290 C 493.04 1.90128 -3.87911 0
M  V30 5291 C 492.175 3.11975 -4.29936 0
M  V30 5292 C 491.214 2.75968 -5.46359 0
M  V30 5293 N 490.351 3.90459 -5.83512 0
M  V30 5294 H 495.191 0.485717 -2.94015 0
M  V30 5295 H 492.728 0.228143 -1.4532 0
M  V30 5296 H 494.686 2.96572 -2.9343 0
M  V30 5297 H 493.316 2.6549 -1.83616 0
M  V30 5298 H 492.368 1.05755 -3.65404 0
M  V30 5299 H 493.68 1.59613 -4.72573 0
M  V30 5300 H 492.834 3.9488 -4.60603 0
M  V30 5301 H 491.573 3.45657 -3.44053 0
M  V30 5302 H 490.578 1.91478 -5.1538 0
M  V30 5303 H 491.803 2.43497 -6.33945 0
M  V30 5304 H 489.749 4.23971 -5.00584 0
M  V30 5305 H 489.666 3.63588 -6.62827 0
M  V30 5306 H 490.934 4.7405 -6.18787 0
M  V30 5307 N 495.163 1.55791 0.238111 0
M  V30 5308 C 496.126 1.90239 1.27835 0
M  V30 5309 C 497.126 0.779552 1.4064 0
M  V30 5310 O 498.316 1.04747 1.3919 0
M  V30 5311 C 495.448 2.13859 2.65475 0
M  V30 5312 H 496.641 2.83262 0.985034 0
M  V30 5313 H 494.194 1.48818 0.477799 0
M  V30 5314 H 494.929 1.23334 2.99932 0
M  V30 5315 H 494.714 2.95643 2.57561 0
M  V30 5316 H 496.204 2.41664 3.40571 0
M  V30 5317 N 496.642 -0.504142 1.49319 0
M  V30 5318 C 497.572 -1.61473 1.68667 0
M  V30 5319 C 498.553 -1.61455 0.535378 0
M  V30 5320 O 499.738 -1.78245 0.770868 0
M  V30 5321 C 496.868 -2.99971 1.75028 0
M  V30 5322 C 495.822 -3.14854 2.89916 0
M  V30 5323 C 495.148 -4.54671 2.81387 0
M  V30 5324 C 496.448 -2.95176 4.30893 0
M  V30 5325 H 498.142 -1.45535 2.61648 0
M  V30 5326 H 495.688 -0.698711 1.25913 0
M  V30 5327 H 497.641 -3.77562 1.8715 0
M  V30 5328 H 496.365 -3.1699 0.786441 0
M  V30 5329 H 495.024 -2.39687 2.77391 0
M  V30 5330 H 494.672 -4.68562 1.82917 0
M  V30 5331 H 494.372 -4.6557 3.58494 0
M  V30 5332 H 495.896 -5.34327 2.95512 0
M  V30 5333 H 497.31 -3.62538 4.44116 0
M  V30 5334 H 495.707 -3.17549 5.09198 0
M  V30 5335 H 496.777 -1.91332 4.45556 0
M  V30 5336 N 498.12 -1.38341 -0.754957 0
M  V30 5337 C 499.368 -1.34208 -1.51105 0
M  V30 5338 C 499.689 0.0677634 -1.94882 0
M  V30 5339 O 498.959 1.01517 -1.67544 0
M  V30 5340 H 497.539 -0.493819 -0.560493 0
M  V30 5341 H 500.201 -1.73005 -0.897507 0
M  V30 5342 H 499.297 -1.99203 -2.4026 0
M  V30 5343 N 499.598 0.982988 -1.23187 0
M  V30 5344 C 501.009 1.53847 -1.05773 0
M  V30 5345 C 501.36 1.92568 0.375744 0
M  V30 5346 O 500.485 1.75783 1.26211 0
M  V30 5347 C 501.08 2.79567 -1.91384 0
M  V30 5348 C 499.639 3.31524 -1.78238 0
M  V30 5349 C 498.786 2.04534 -1.87246 0
M  V30 5350 H 501.737 0.802962 -1.36888 0
M  V30 5351 H 501.758 3.52317 -1.43711 0
M  V30 5352 H 501.27 2.51353 -2.95708 0
M  V30 5353 H 499.371 3.64623 -0.766875 0
M  V30 5354 H 499.484 4.01457 -2.61475 0
M  V30 5355 H 497.848 2.1855 -1.30797 0
M  V30 5356 H 498.631 1.78706 -2.9312 0
M  V30 5357 N 501.076 1.04316 1.18135 0
M  V30 5358 C 502.039 0.640794 2.2006 0
M  V30 5359 C 503.039 -0.303124 1.57917 0
M  V30 5360 O 504.229 -0.0881855 1.73977 0
M  V30 5361 C 501.361 -0.060148 3.40847 0
M  V30 5362 H 502.554 1.54281 2.57172 0
M  V30 5363 H 500.107 0.836004 1.32063 0
M  V30 5364 H 500.842 -0.975845 3.0927 0
M  V30 5365 H 500.627 0.618319 3.87194 0
M  V30 5366 H 502.117 -0.328082 4.16309 0
M  V30 5367 N 502.554 -1.34406 0.822964 0
M  V30 5368 C 503.517 -2.2783 0.250271 0
M  V30 5369 C 504.517 -1.50288 -0.571854 0
M  V30 5370 O 505.707 -1.69825 -0.387952 0
M  V30 5371 C 502.839 -3.34663 -0.649137 0
M  V30 5372 H 504.032 -2.79992 1.07444 0
M  V30 5373 H 501.585 -1.44539 0.594829 0
M  V30 5374 H 502.32 -2.87714 -1.49637 0
M  V30 5375 H 502.105 -3.92052 -0.0611199 0
M  V30 5376 H 503.595 -4.04349 -1.04363 0
M  V30 5377 N 504.032 -0.577932 -1.46621 0
M  V30 5378 C 505.26 -0.0671642 -2.06791 0
M  V30 5379 C 505.675 1.23571 -1.42743 0
M  V30 5380 O 505.032 1.74602 -0.531062 0
M  V30 5381 C 505.083 0.110357 -3.61332 0
M  V30 5382 O 504.804 -1.14095 -4.22982 0
M  V30 5383 C 506.305 0.656025 -4.38419 0
M  V30 5384 H 503.525 -0.0552732 -0.66872 0
M  V30 5385 H 506.069 -0.797242 -1.8832 0
M  V30 5386 H 504.224 0.790637 -3.79246 0
M  V30 5387 H 504.638 -0.951742 -5.15793 0
M  V30 5388 H 506.112 0.729438 -5.47159 0
M  V30 5389 H 506.589 1.67195 -4.06131 0
M  V30 5390 H 507.195 0.0107692 -4.25299 0
M  V30 5391 N 505.51 1.54411 -0.315457 0
M  V30 5392 C 506.44 2.27002 0.547039 0
M  V30 5393 C 507.421 1.27492 1.12605 0
M  V30 5394 O 508.606 1.5629 1.15269 0
M  V30 5395 C 505.736 3.02171 1.71201 0
M  V30 5396 C 504.69 4.0895 1.26268 0
M  V30 5397 C 504.016 4.71915 2.51396 0
M  V30 5398 C 505.316 5.20891 0.383419 0
M  V30 5399 H 507.01 2.99343 -0.0584517 0
M  V30 5400 H 504.556 1.4397 -0.0295527 0
M  V30 5401 H 506.509 3.51681 2.32161 0
M  V30 5402 H 505.233 2.27433 2.34397 0
M  V30 5403 H 503.892 3.60312 0.676062 0
M  V30 5404 H 503.54 3.93801 3.12937 0
M  V30 5405 H 503.24 5.44039 2.22026 0
M  V30 5406 H 504.764 5.24195 3.13133 0
M  V30 5407 H 506.178 5.66206 0.899082 0
M  V30 5408 H 504.575 5.99821 0.182857 0
M  V30 5409 H 505.645 4.81324 -0.587821 0
M  V30 5410 N 506.988 0.0434614 1.5754 0
M  V30 5411 C 507.898 -0.94893 2.14552 0
M  V30 5412 C 508.914 -1.34707 1.10136 0
M  V30 5413 O 510.09 -1.42557 1.42266 0
M  V30 5414 C 507.155 -2.208 2.67298 0
M  V30 5415 C 506.216 -1.86893 3.86484 0
M  V30 5416 C 505.449 -3.06797 4.36705 0
M  V30 5417 O 505.672 -4.19921 3.86034 0
M  V30 5418 O 504.606 -2.8826 5.28384 0
M  V30 5419 H 508.432 -0.494099 2.99654 0
M  V30 5420 H 506.017 -0.177989 1.48336 0
M  V30 5421 H 507.899 -2.94686 3.01228 0
M  V30 5422 H 506.574 -2.65436 1.85272 0
M  V30 5423 H 505.481 -1.10347 3.57455 0
M  V30 5424 H 506.814 -1.47062 4.69716 0
M  V30 5425 N 508.466 -1.55915 -0.229846 0
M  V30 5426 C 509.376 -1.94891 -1.30593 0
M  V30 5427 C 510.392 -0.851604 -1.51736 0
M  V30 5428 O 511.568 -1.15447 -1.65027 0
M  V30 5429 C 508.633 -2.25052 -2.63728 0
M  V30 5430 C 507.694 -3.48306 -2.5096 0
M  V30 5431 C 506.927 -3.77019 -3.77747 0
M  V30 5432 O 507.15 -3.07534 -4.80395 0
M  V30 5433 O 506.084 -4.70523 -3.75356 0
M  V30 5434 H 509.91 -2.86581 -1.00525 0
M  V30 5435 H 507.495 -1.43017 -0.432025 0
M  V30 5436 H 509.377 -2.45682 -3.42372 0
M  V30 5437 H 508.052 -1.36538 -2.93495 0
M  V30 5438 H 506.959 -3.32964 -1.70546 0
M  V30 5439 H 508.292 -4.37177 -2.26136 0
M  V30 5440 N 509.944 0.496216 -1.49584 0
M  V30 5441 C 510.877 1.61508 -1.61215 0
M  V30 5442 C 511.855 1.55927 -0.461045 0
M  V30 5443 O 513.039 1.75914 -0.677231 0
M  V30 5444 C 510.166 3.00035 -1.57152 0
M  V30 5445 C 509.212 3.23861 -2.77518 0
M  V30 5446 S 510.045 3.06466 -4.39134 0
M  V30 5447 C 511.201 4.4738 -4.37724 0
M  V30 5448 H 511.434 1.51398 -2.55863 0
M  V30 5449 H 508.967 0.681727 -1.38535 0
M  V30 5450 H 510.925 3.7991 -1.55494 0
M  V30 5451 H 509.586 3.07556 -0.637834 0
M  V30 5452 H 508.779 4.25 -2.70908 0
M  V30 5453 H 508.381 2.51716 -2.76614 0
M  V30 5454 H 510.673 5.39556 -4.09738 0
M  V30 5455 H 511.616 4.59038 -5.39156 0
M  V30 5456 H 512.024 4.28283 -3.67742 0
M  V30 5457 N 511.423 1.38739 0.74761 0
M  V30 5458 C 512.356 1.3083 1.86972 0
M  V30 5459 C 513.334 0.184229 1.61553 0
M  V30 5460 O 514.518 0.36256 1.8498 0
M  V30 5461 C 511.645 1.02854 3.22705 0
M  V30 5462 C 510.691 2.17281 3.67003 0
M  V30 5463 S 511.524 3.79468 3.77842 0
M  V30 5464 C 512.68 3.53692 5.16385 0
M  V30 5465 H 512.913 2.258 1.93395 0
M  V30 5466 H 510.446 1.24646 0.911199 0
M  V30 5467 H 512.404 0.87397 4.01089 0
M  V30 5468 H 511.065 0.0959295 3.13953 0
M  V30 5469 H 510.258 1.93267 4.65472 0
M  V30 5470 H 509.86 2.28876 2.9579 0
M  V30 5471 H 512.152 3.10176 6.02327 0
M  V30 5472 H 513.095 4.51576 5.45422 0
M  V30 5473 H 513.503 2.8807 4.85464 0
M  V30 5474 N 512.901 -0.976442 1.23707 0
M  V30 5475 C 514.129 -1.75341 1.09833 0
M  V30 5476 C 514.544 -1.8553 -0.349885 0
M  V30 5477 O 513.901 -1.33732 -1.24185 0
M  V30 5478 C 513.952 -3.17833 1.72233 0
M  V30 5479 O 513.673 -3.08167 3.11391 0
M  V30 5480 C 515.174 -4.11906 1.63853 0
M  V30 5481 H 512.394 -0.550137 0.384175 0
M  V30 5482 H 514.938 -1.2265 1.63638 0
M  V30 5483 H 513.093 -3.67538 1.22452 0
M  V30 5484 H 513.507 -3.97897 3.41729 0
M  V30 5485 H 514.981 -5.09579 2.12211 0
M  V30 5486 H 515.458 -4.35109 0.598092 0
M  V30 5487 H 516.064 -3.68107 2.13019 0
M  V30 5488 N 514.379 -1.04941 -1.1758 0
M  V30 5489 C 515.342 -0.652456 -2.19717 0
M  V30 5490 C 516.342 0.294745 -1.58076 0
M  V30 5491 O 517.532 0.0789579 -1.74021 0
M  V30 5492 C 514.664 0.0420712 -3.40874 0
M  V30 5493 H 515.857 -1.55642 -2.5635 0
M  V30 5494 H 513.41 -0.842995 -1.31618 0
M  V30 5495 H 514.145 0.95943 -3.09783 0
M  V30 5496 H 513.93 -0.638844 -3.86861 0
M  V30 5497 H 515.42 0.306 -4.16477 0
M  V30 5498 N 515.857 1.33968 -0.830081 0
M  V30 5499 C 517.097 1.99879 -0.427521 0
M  V30 5500 C 517.461 1.64355 0.992546 0
M  V30 5501 O 518.662 2.23164 1.49837 0
M  V30 5502 C 516.933 3.51771 -0.631815 0
M  V30 5503 S 518.492 4.37608 -0.323168 0
M  V30 5504 H 515.31 0.692485 -0.161202 0
M  V30 5505 H 517.912 1.63129 -1.07745 0
M  V30 5506 H 516.616 3.75113 -1.66488 0
M  V30 5507 H 516.147 3.93386 0.0325936 0
M  V30 5508 H 518.162 4.88683 0.860432 0
M  V30 5509 N 517.335 0.585699 1.46312 0
M  V30 5510 C 518.267 -0.183687 2.28463 0
M  V30 5511 C 519.28 -0.85264 1.38686 0
M  V30 5512 O 520.469 -0.721701 1.6326 0
M  V30 5513 C 517.569 -1.27977 3.13808 0
M  V30 5514 C 516.742 -0.702164 4.31727 0
M  V30 5515 C 515.801 -1.68633 4.98447 0
M  V30 5516 O 514.827 -1.22121 5.55945 0
M  V30 5517 N 516.029 -3.02047 4.95729 0
M  V30 5518 H 518.794 0.521127 2.95134 0
M  V30 5519 H 516.355 0.423673 1.56258 0
M  V30 5520 H 518.347 -1.9375 3.55307 0
M  V30 5521 H 516.917 -1.8874 2.4919 0
M  V30 5522 H 516.137 0.1331 3.93975 0
M  V30 5523 H 517.425 -0.296101 5.07938 0
M  V30 5524 H 516.823 -3.42457 4.50266 0
M  V30 5525 H 515.38 -3.63301 5.41161 0
M  V30 5526 N 518.813 -1.54241 0.323641 0
M  V30 5527 C 520.061 -2.00174 -0.278359 0
M  V30 5528 C 520.382 -1.2134 -1.52648 0
M  V30 5529 O 519.652 -0.315244 -1.93347 0
M  V30 5530 H 518.232 -0.739463 -0.105845 0
M  V30 5531 H 520.894 -1.89864 0.440204 0
M  V30 5532 H 519.99 -3.07486 -0.5347 0
M  V30 5533 N 520.291 -0.0518155 -1.57515 0
M  V30 5534 C 521.537 0.622745 -1.93002 0
M  V30 5535 C 521.87 1.70456 -0.930499 0
M  V30 5536 O 521.145 1.94452 0.0434086 0
M  V30 5537 C 521.428 1.21824 -3.38867 0
M  V30 5538 C 521.281 0.144434 -4.49568 0
M  V30 5539 C 522.6 2.12968 -3.8514 0
M  V30 5540 H 519.719 0.22491 -0.701844 0
M  V30 5541 H 522.361 -0.113711 -1.89659 0
M  V30 5542 H 520.511 1.8459 -3.41846 0
M  V30 5543 H 522.183 -0.48753 -4.58717 0
M  V30 5544 H 520.426 -0.527424 -4.30582 0
M  V30 5545 H 521.097 0.601127 -5.48717 0
M  V30 5546 H 523.573 1.60163 -3.8404 0
M  V30 5547 H 522.449 2.51578 -4.87852 0
M  V30 5548 H 522.71 3.03004 -3.21934 0
M  V30 5549 N 521.769 1.56035 0.221574 0
M  V30 5550 C 523.017 1.78693 0.944102 0
M  V30 5551 C 523.338 0.620317 1.8487 0
M  V30 5552 O 522.608 -0.362784 1.92512 0
M  V30 5553 H 521.188 0.659082 0.351597 0
M  V30 5554 H 523.85 1.93497 0.233435 0
M  V30 5555 H 522.946 2.70837 1.55093 0
M  V30 5556 N 523.247 -0.488276 1.49845 0
M  V30 5557 C 524.495 -1.23911 1.59657 0
M  V30 5558 C 524.816 -1.92816 0.291005 0
M  V30 5559 O 524.086 -1.83328 -0.690485 0
M  V30 5560 H 522.666 -0.460357 0.588286 0
M  V30 5561 H 525.328 -0.564794 1.86537 0
M  V30 5562 H 524.424 -1.99625 2.39909 0
M  V30 5563 N 524.725 -1.39134 -0.740242 0
M  V30 5564 C 526.136 -1.32208 -1.31825 0
M  V30 5565 C 526.487 0.0159919 -1.96193 0
M  V30 5566 O 525.612 0.918111 -1.95958 0
M  V30 5567 C 526.207 -2.39436 -2.39699 0
M  V30 5568 C 524.766 -2.36048 -2.93187 0
M  V30 5569 C 523.913 -2.21599 -1.66701 0
M  V30 5570 H 526.864 -1.49298 -0.538133 0
M  V30 5571 H 526.885 -2.05922 -3.19963 0
M  V30 5572 H 526.397 -3.36811 -1.92821 0
M  V30 5573 H 524.498 -1.42295 -3.44359 0
M  V30 5574 H 524.611 -3.30704 -3.46658 0
M  V30 5575 H 522.975 -1.68681 -1.90837 0
M  V30 5576 H 523.758 -3.20936 -1.21882 0
M  V30 5577 N 526.204 0.969867 -1.24223 0
M  V30 5578 C 527.452 1.70918 -1.0785 0
M  V30 5579 C 527.773 1.91186 0.383763 0
M  V30 5580 O 527.043 1.48806 1.27411 0
M  V30 5581 H 525.623 0.633334 -0.396103 0
M  V30 5582 H 528.285 1.16689 -1.56108 0
M  V30 5583 H 527.381 2.69455 -1.57482 0
M  V30 5584 N 527.682 1.05563 1.17022 0
M  V30 5585 C 528.632 0.630007 2.19123 0
M  V30 5586 C 529.616 -0.335472 1.57364 0
M  V30 5587 O 530.808 -0.1521 1.76345 0
M  V30 5588 C 527.937 0.0101676 3.43298 0
M  V30 5589 C 527.023 0.999698 4.12149 0
M  V30 5590 N 527.414 2.17251 4.56766 0
M  V30 5591 C 525.712 0.829 4.38228 0
M  V30 5592 C 526.413 2.79883 5.09942 0
M  V30 5593 N 525.389 2.07656 5.02374 0
M  V30 5594 H 529.191 1.52353 2.51328 0
M  V30 5595 H 526.705 0.926288 1.33393 0
M  V30 5596 H 528.702 -0.312541 4.15727 0
M  V30 5597 H 527.362 -0.878707 3.12584 0
M  V30 5598 H 528.373 2.55067 4.50734 0
M  V30 5599 H 525.05 -0.00850974 4.17499 0
M  V30 5600 H 526.44 3.79362 5.54558 0
M  V30 5601 N 529.16 -1.33526 0.837174 0
M  V30 5602 C 530.107 -2.29248 0.267169 0
M  V30 5603 C 531.077 -1.54252 -0.616071 0
M  V30 5604 O 532.262 -1.82559 -0.554699 0
M  V30 5605 C 529.402 -3.40638 -0.553152 0
M  V30 5606 C 528.515 -4.30548 0.353921 0
M  V30 5607 C 527.65 -5.29051 -0.477339 0
M  V30 5608 C 526.689 -6.106 0.42823 0
M  V30 5609 N 525.826 -7.01152 -0.364801 0
M  V30 5610 H 530.666 -2.77398 1.08877 0
M  V30 5611 H 528.203 -1.36496 0.54838 0
M  V30 5612 H 530.161 -4.03921 -1.04422 0
M  V30 5613 H 528.791 -2.93685 -1.33973 0
M  V30 5614 H 527.843 -3.68001 0.963289 0
M  V30 5615 H 529.155 -4.87631 1.04964 0
M  V30 5616 H 528.309 -5.97853 -1.0323 0
M  V30 5617 H 527.048 -4.72541 -1.2065 0
M  V30 5618 H 526.053 -5.40718 0.995219 0
M  V30 5619 H 527.278 -6.69193 1.15573 0
M  V30 5620 H 525.224 -6.47092 -1.07738 0
M  V30 5621 H 525.141 -7.5551 0.272238 0
M  V30 5622 H 526.409 -7.74263 -0.902054 0
M  V30 5623 N 530.638 -0.59345 -1.46 0
M  V30 5624 C 531.601 0.123538 -2.28867 0
M  V30 5625 C 532.601 0.808628 -1.38989 0
M  V30 5626 O 533.791 0.658945 -1.61256 0
M  V30 5627 C 530.923 1.1847 -3.19653 0
M  V30 5628 H 532.116 -0.604843 -2.93737 0
M  V30 5629 H 529.669 -0.351875 -1.52288 0
M  V30 5630 H 530.404 1.94431 -2.59552 0
M  V30 5631 H 530.189 0.69783 -3.8584 0
M  V30 5632 H 531.679 1.68726 -3.81997 0
M  V30 5633 N 532.116 1.54067 -0.331816 0
M  V30 5634 C 533.532 1.59587 0.0205388 0
M  V30 5635 C 533.732 1.34813 1.49759 0
M  V30 5636 O 532.788 1.13661 2.25471 0
M  V30 5637 C 534.101 2.97959 -0.405103 0
M  V30 5638 C 535.649 3.10964 -0.356454 0
M  V30 5639 C 536.124 4.51694 -0.757384 0
M  V30 5640 N 537.615 4.57709 -0.71111 0
M  V30 5641 C 538.35 5.64729 -0.993427 0
M  V30 5642 N 537.846 6.79652 -1.3433 0
M  V30 5643 N 539.639 5.54546 -0.918442 0
M  V30 5644 H 531.79 1.68426 -1.29407 0
M  V30 5645 H 534.053 0.78819 -0.526745 0
M  V30 5646 H 533.759 3.21115 -1.43451 0
M  V30 5647 H 533.633 3.76524 0.225692 0
M  V30 5648 H 536.02 2.87538 0.663763 0
M  V30 5649 H 536.101 2.34484 -1.02229 0
M  V30 5650 H 535.745 4.75853 -1.77555 0
M  V30 5651 H 535.675 5.26555 -0.0691444 0
M  V30 5652 H 538.166 3.75176 -0.452883 0
M  V30 5653 H 538.479 7.57221 -1.54388 0
M  V30 5654 H 536.824 6.81128 -1.38164 0
M  V30 5655 H 540.015 4.63641 -0.644536 0
M  V30 5656 H 540.188 6.37861 -1.14181 0
M  V30 5657 N 533.594 0.0601682 1.57485 0
M  V30 5658 C 534.84 -0.612501 1.93329 0
M  V30 5659 C 535.173 -1.6996 0.939526 0
M  V30 5660 O 534.448 -1.94472 -0.0330957 0
M  V30 5661 C 534.731 -1.20025 3.39508 0
M  V30 5662 C 534.584 -0.12059 4.49638 0
M  V30 5663 C 535.903 -2.10923 3.86264 0
M  V30 5664 H 533.022 -0.221185 0.703027 0
M  V30 5665 H 535.664 0.123768 1.89596 0
M  V30 5666 H 533.814 -1.82774 3.42821 0
M  V30 5667 H 535.486 0.51185 4.58452 0
M  V30 5668 H 533.729 0.550251 4.30296 0
M  V30 5669 H 534.4 -0.572019 5.49028 0
M  V30 5670 H 536.876 -1.58124 3.84884 0
M  V30 5671 H 535.752 -2.48987 4.8918 0
M  V30 5672 H 536.013 -3.01292 3.23536 0
M  V30 5673 N 535.072 -1.5615 -0.213296 0
M  V30 5674 C 536.002 -1.96109 -1.26742 0
M  V30 5675 C 536.983 -0.830448 -1.48451 0
M  V30 5676 O 538.168 -1.09339 -1.60495 0
M  V30 5677 C 535.298 -2.28492 -2.61551 0
M  V30 5678 C 534.252 -3.44124 -2.54485 0
M  V30 5679 C 533.578 -3.62134 -3.93399 0
M  V30 5680 C 534.878 -4.78855 -2.08556 0
M  V30 5681 H 536.572 -2.84412 -0.935434 0
M  V30 5682 H 534.118 -1.36836 -0.44854 0
M  V30 5683 H 536.071 -2.55039 -3.3546 0
M  V30 5684 H 534.795 -1.37052 -2.96453 0
M  V30 5685 H 533.454 -3.17639 -1.83033 0
M  V30 5686 H 533.102 -2.68055 -4.25623 0
M  V30 5687 H 532.802 -4.39913 -3.89551 0
M  V30 5688 H 534.326 -3.91038 -4.68958 0
M  V30 5689 H 535.74 -5.04552 -2.72213 0
M  V30 5690 H 534.137 -5.59975 -2.1575 0
M  V30 5691 H 535.207 -4.73657 -1.03811 0
M  V30 5692 N 536.55 0.480323 -1.50102 0
M  V30 5693 C 537.513 1.56181 -1.6775 0
M  V30 5694 C 538.513 1.51156 -0.548503 0
M  V30 5695 O 539.703 1.5394 -0.815363 0
M  V30 5696 C 536.835 2.95823 -1.69415 0
M  V30 5697 H 538.028 1.41855 -2.6423 0
M  V30 5698 H 535.581 0.70605 -1.39444 0
M  V30 5699 H 536.316 3.15604 -0.745948 0
M  V30 5700 H 536.101 3.00878 -2.51425 0
M  V30 5701 H 537.591 3.74359 -1.85054 0
M  V30 5702 N 538.028 1.39524 0.732853 0
M  V30 5703 C 538.938 1.40695 1.87729 0
M  V30 5704 C 539.954 0.301496 1.71368 0
M  V30 5705 O 541.13 0.543313 1.93933 0
M  V30 5706 C 538.195 1.25098 3.23344 0
M  V30 5707 C 537.256 2.45634 3.52083 0
M  V30 5708 C 536.489 2.30772 4.81228 0
M  V30 5709 O 536.712 1.31233 5.55098 0
M  V30 5710 O 535.646 3.19799 5.09914 0
M  V30 5711 H 539.472 2.37168 1.89697 0
M  V30 5712 H 537.057 1.20663 0.880959 0
M  V30 5713 H 538.939 1.18541 4.04383 0
M  V30 5714 H 537.614 0.317209 3.22142 0
M  V30 5715 H 536.521 2.57767 2.71122 0
M  V30 5716 H 537.854 3.37712 3.58066 0
M  V30 5717 N 539.506 -0.963266 1.24736 0
M  V30 5718 C 540.469 -2.04013 1.04457 0
M  V30 5719 C 541.469 -1.608 0.000335555 0
M  V30 5720 O 542.659 -1.72515 0.241719 0
M  V30 5721 C 539.791 -3.35858 0.584162 0
M  V30 5722 H 540.984 -2.23436 2.00041 0
M  V30 5723 H 538.537 -1.13914 1.07021 0
M  V30 5724 H 539.272 -3.22128 -0.374673 0
M  V30 5725 H 539.057 -3.68568 1.3379 0
M  V30 5726 H 540.547 -4.1502 0.463451 0
M  V30 5727 N 540.985 -1.06182 -1.16461 0
M  V30 5728 C 541.918 -0.615859 -2.19733 0
M  V30 5729 C 542.896 0.360766 -1.58547 0
M  V30 5730 O 544.08 0.270009 -1.86556 0
M  V30 5731 C 541.207 0.097312 -3.3856 0
M  V30 5732 C 540.253 -0.835889 -4.18229 0
M  V30 5733 S 541.086 -2.33052 -4.82128 0
M  V30 5734 C 542.242 -1.62881 -6.04335 0
M  V30 5735 H 542.475 -1.49079 -2.57221 0
M  V30 5736 H 540.008 -0.874692 -1.27234 0
M  V30 5737 H 541.966 0.502563 -4.07412 0
M  V30 5738 H 540.627 0.948418 -2.99439 0
M  V30 5739 H 539.82 -0.283426 -5.03202 0
M  V30 5740 H 539.422 -1.18097 -3.54865 0
M  V30 5741 H 541.714 -0.933764 -6.71034 0
M  V30 5742 H 542.657 -2.45641 -6.64128 0
M  V30 5743 H 543.065 -1.11189 -5.53441 0
M  V30 5744 N 542.463 1.3308 -0.844243 0
M  V30 5745 C 543.688 2.02341 -0.455282 0
M  V30 5746 C 544.113 1.6308 0.93737 0
M  V30 5747 O 543.471 0.826118 1.61385 0
M  V30 5748 C 543.519 3.55743 -0.58988 0
M  V30 5749 O 542.623 4.1063 0.38166 0
M  V30 5750 H 541.964 0.637898 -0.184343 0
M  V30 5751 H 544.494 1.6986 -1.14056 0
M  V30 5752 H 544.504 4.05243 -0.473522 0
M  V30 5753 H 543.179 3.83662 -1.60549 0
M  V30 5754 H 541.756 3.72236 0.22241 0
M  V30 5755 N 543.941 0.601185 1.45683 0
M  V30 5756 C 544.873 -0.159446 2.28645 0
M  V30 5757 C 545.886 -0.837882 1.39583 0
M  V30 5758 O 547.075 -0.704344 1.64016 0
M  V30 5759 C 544.175 -1.24641 3.15147 0
M  V30 5760 C 543.348 -0.656334 4.32448 0
M  V30 5761 C 542.407 -1.63337 5.00208 0
M  V30 5762 O 541.433 -1.16217 5.57209 0
M  V30 5763 N 542.635 -2.96773 4.98905 0
M  V30 5764 H 545.4 0.5524 2.94565 0
M  V30 5765 H 542.961 0.440223 1.558 0
M  V30 5766 H 544.953 -1.8997 3.57342 0
M  V30 5767 H 543.523 -1.86087 2.51178 0
M  V30 5768 H 542.743 0.174879 3.93812 0
M  V30 5769 H 544.031 -0.242211 5.08223 0
M  V30 5770 H 543.429 -3.37662 4.53873 0
M  V30 5771 H 541.986 -3.57541 5.44984 0
M  V30 5772 N 545.419 -1.53889 0.339982 0
M  V30 5773 C 546.665 -2.01152 -0.258003 0
M  V30 5774 C 546.998 -1.22749 -1.50487 0
M  V30 5775 O 546.273 -0.314156 -1.91946 0
M  V30 5776 C 546.556 -3.55468 -0.575717 0
M  V30 5777 C 546.409 -4.44584 0.682996 0
M  V30 5778 C 547.728 -4.1768 -1.38677 0
M  V30 5779 H 544.847 -0.731198 -0.0922992 0
M  V30 5780 H 547.489 -1.84352 0.459814 0
M  V30 5781 H 545.639 -3.69914 -1.18725 0
M  V30 5782 H 547.311 -4.41981 1.32102 0
M  V30 5783 H 545.554 -4.13592 1.3086 0
M  V30 5784 H 546.225 -5.5043 0.416001 0
M  V30 5785 H 548.701 -4.0691 -0.869705 0
M  V30 5786 H 547.577 -5.25734 -1.57783 0
M  V30 5787 H 547.838 -3.72069 -2.38782 0
M  V30 5788 N 546.897 -0.0685191 -1.57451 0
M  V30 5789 C 548.125 0.610462 -1.97689 0
M  V30 5790 C 548.54 1.63346 -0.946758 0
M  V30 5791 O 547.897 1.82377 0.0669868 0
M  V30 5792 C 547.948 1.28196 -3.38006 0
M  V30 5793 O 547.669 0.299906 -4.37072 0
M  V30 5794 C 549.17 2.04907 -3.931 0
M  V30 5795 H 546.39 0.165689 -0.650222 0
M  V30 5796 H 548.934 -0.139953 -2.04021 0
M  V30 5797 H 547.089 1.98348 -3.32771 0
M  V30 5798 H 547.503 0.78126 -5.18649 0
M  V30 5799 H 548.977 2.47287 -4.93511 0
M  V30 5800 H 549.454 2.9043 -3.29465 0
M  V30 5801 H 550.06 1.39629 -4.01726 0
M  V30 5802 N 548.375 1.56261 0.205012 0
M  V30 5803 C 549.323 1.94631 1.27364 0
M  V30 5804 C 550.317 0.830434 1.47649 0
M  V30 5805 O 551.523 1.01538 1.48627 0
M  V30 5806 H 547.898 0.618755 0.427371 0
M  V30 5807 H 549.869 2.83768 0.922941 0
M  V30 5808 C 548.618 2.29358 2.61324 0
M  V30 5809 H 547.941 3.14744 2.46528 0
M  V30 5810 H 549.381 2.60076 3.34868 0
M  V30 5811 C 547.84 1.12461 3.17575 0
M  V30 5812 O 548.37 0.394407 3.99759 0
M  V30 5813 N 546.576 0.904036 2.7618 0
M  V30 5814 H 546.123 1.49956 2.09454 0
M  V30 5815 H 546.081 0.123662 3.14157 0
M  V30 5816 N 549.853 -0.472356 1.50355 0
M  V30 5817 C 551.078 -1.25251 1.65309 0
M  V30 5818 C 551.503 -1.85081 0.335643 0
M  V30 5819 O 550.861 -1.67227 -0.700335 0
M  V30 5820 C 550.909 -2.3379 2.74544 0
M  V30 5821 O 550.013 -3.38401 2.35709 0
M  V30 5822 H 549.354 -0.368539 0.552336 0
M  V30 5823 H 551.884 -0.562271 1.96722 0
M  V30 5824 H 551.894 -2.79121 2.97583 0
M  V30 5825 H 550.569 -1.89614 3.70161 0
M  V30 5826 H 549.146 -2.9879 2.23112 0
M  V30 5827 N 551.331 -1.39911 -0.725443 0
M  V30 5828 C 552.294 -1.39156 -1.82121 0
M  V30 5829 C 553.294 -0.287018 -1.58218 0
M  V30 5830 O 554.484 -0.545421 -1.65441 0
M  V30 5831 C 551.616 -1.1736 -3.20062 0
M  V30 5832 H 552.809 -2.36672 -1.84191 0
M  V30 5833 H 550.362 -1.25615 -0.930079 0
M  V30 5834 H 551.097 -0.205648 -3.23647 0
M  V30 5835 H 550.882 -1.97358 -3.3881 0
M  V30 5836 H 552.372 -1.19596 -4.00108 0
M  V30 5837 N 552.809 0.956637 -1.25245 0
M  V30 5838 C 554.037 1.73571 -1.12608 0
M  V30 5839 C 554.452 1.86063 0.320324 0
M  V30 5840 O 553.809 1.35691 1.22042 0
M  V30 5841 C 553.86 3.15053 -1.77268 0
M  V30 5842 O 553.581 3.03174 -3.16255 0
M  V30 5843 C 555.082 4.09248 -1.70386 0
M  V30 5844 H 552.302 0.543955 -0.392879 0
M  V30 5845 H 554.846 1.20031 -1.65568 0
M  V30 5846 H 553.001 3.65543 -1.28284 0
M  V30 5847 H 553.415 3.9241 -3.48015 0
M  V30 5848 H 554.889 5.06138 -2.20291 0
M  V30 5849 H 555.366 4.34102 -0.667239 0
M  V30 5850 H 555.972 3.64672 -2.18849 0
M  V30 5851 N 554.287 1.06798 1.15896 0
M  V30 5852 C 555.536 0.782796 1.8589 0
M  V30 5853 C 555.849 -0.693498 1.82893 0
M  V30 5854 O 557.055 -1.09325 2.48516 0
M  V30 5855 C 555.511 1.3502 3.33613 0
M  V30 5856 C 555.119 2.8571 3.45071 0
M  V30 5857 C 556.863 1.14278 4.08829 0
M  V30 5858 C 554.77 3.35669 4.86909 0
M  V30 5859 H 553.7 0.289149 0.696354 0
M  V30 5860 H 556.351 1.28734 1.30766 0
M  V30 5861 H 554.733 0.773407 3.88374 0
M  V30 5862 H 555.907 3.49385 3.00445 0
M  V30 5863 H 554.222 3.05178 2.83294 0
M  V30 5864 H 556.819 1.49087 5.13495 0
M  V30 5865 H 557.162 0.0814575 4.1622 0
M  V30 5866 H 557.695 1.68563 3.60321 0
M  V30 5867 H 554.434 4.41302 4.84698 0
M  V30 5868 H 553.954 2.76745 5.32139 0
M  V30 5869 H 555.633 3.31296 5.55745 0
M  V30 5870 N 555.766 -1.3263 0.851289 0
M  V30 5871 C 556.699 -2.26952 0.238318 0
M  V30 5872 C 557.677 -1.50243 -0.621757 0
M  V30 5873 O 558.861 -1.79378 -0.579298 0
M  V30 5874 C 555.988 -3.32124 -0.664178 0
M  V30 5875 C 555.034 -4.26325 0.122067 0
M  V30 5876 S 555.867 -5.14404 1.48824 0
M  V30 5877 C 557.023 -6.231 0.591372 0
M  V30 5878 H 557.256 -2.78594 1.03791 0
M  V30 5879 H 554.789 -1.4011 0.648731 0
M  V30 5880 H 556.747 -3.93197 -1.17924 0
M  V30 5881 H 555.408 -2.79273 -1.43755 0
M  V30 5882 H 554.601 -5.00821 -0.565181 0
M  V30 5883 H 554.203 -3.69652 0.568602 0
M  V30 5884 H 556.495 -6.77187 -0.205762 0
M  V30 5885 H 557.438 -6.95936 1.30687 0
M  V30 5886 H 557.846 -5.64252 0.167206 0
M  V30 5887 N 557.244 -0.608902 -1.45362 0
M  V30 5888 C 558.177 0.158059 -2.27652 0
M  V30 5889 C 559.155 0.872397 -1.37215 0
M  V30 5890 O 560.339 0.881002 -1.66645 0
M  V30 5891 C 557.466 1.22896 -3.15617 0
M  V30 5892 C 556.512 0.617607 -4.22005 0
M  V30 5893 S 557.345 -0.575518 -5.32398 0
M  V30 5894 C 558.501 0.495938 -6.23932 0
M  V30 5895 H 558.734 -0.540095 -2.92353 0
M  V30 5896 H 556.267 -0.396456 -1.49223 0
M  V30 5897 H 558.225 1.84195 -3.66855 0
M  V30 5898 H 556.886 1.89919 -2.50179 0
M  V30 5899 H 556.079 1.42341 -4.83482 0
M  V30 5900 H 555.681 0.0797273 -3.73915 0
M  V30 5901 H 557.973 1.37465 -6.63408 0
M  V30 5902 H 558.916 -0.0827108 -7.08052 0
M  V30 5903 H 559.324 0.811856 -5.58631 0
M  V30 5904 N 558.722 1.53707 -0.348139 0
M  V30 5905 C 559.654 2.22725 0.540946 0
M  V30 5906 C 560.667 1.2354 1.06027 0
M  V30 5907 O 561.856 1.49867 0.96964 0
M  V30 5908 C 558.956 2.89756 1.75768 0
M  V30 5909 C 558.129 4.15297 1.37285 0
M  V30 5910 C 557.188 4.65697 2.44976 0
M  V30 5911 O 556.214 5.29798 2.08092 0
M  V30 5912 N 557.416 4.42017 3.763 0
M  V30 5913 H 560.181 2.99658 -0.0501592 0
M  V30 5914 H 557.742 1.60979 -0.17248 0
M  V30 5915 H 559.734 3.20388 2.47252 0
M  V30 5916 H 558.304 2.16382 2.25605 0
M  V30 5917 H 557.524 3.9116 0.488584 0
M  V30 5918 H 558.812 4.96948 1.09179 0
M  V30 5919 H 558.21 3.9076 4.09051 0
M  V30 5920 H 556.767 4.77242 4.4394 0
M  V30 5921 N 560.2 0.0768682 1.57412 0
M  V30 5922 C 561.616 -0.279772 1.57129 0
M  V30 5923 C 561.816 -1.69688 1.08666 0
M  V30 5924 O 560.872 -2.40953 0.754843 0
M  V30 5925 C 562.185 -0.0848055 3.0058 0
M  V30 5926 C 563.733 -0.153954 3.12621 0
M  V30 5927 C 564.208 0.0127946 4.57998 0
M  V30 5928 N 565.699 -0.0426435 4.6318 0
M  V30 5929 C 566.434 0.0618892 5.73367 0
M  V30 5930 N 565.93 0.220229 6.9245 0
M  V30 5931 N 567.723 0.00446072 5.621 0
M  V30 5932 H 559.874 1.00297 1.87228 0
M  V30 5933 H 562.137 0.391565 0.863354 0
M  V30 5934 H 561.843 0.89325 3.40168 0
M  V30 5935 H 561.717 -0.834961 3.67843 0
M  V30 5936 H 564.104 -1.1225 2.72917 0
M  V30 5937 H 564.185 0.627389 2.47987 0
M  V30 5938 H 563.829 0.978128 4.98392 0
M  V30 5939 H 563.759 -0.788016 5.20671 0
M  V30 5940 H 566.25 -0.163226 3.77547 0
M  V30 5941 H 566.563 0.291999 7.72248 0
M  V30 5942 H 564.908 0.255658 6.9453 0
M  V30 5943 H 568.099 -0.117979 4.67951 0
M  V30 5944 H 568.272 0.0893796 6.47938 0
M  V30 5945 N 561.678 -1.56367 -0.196722 0
M  V30 5946 C 562.926 -1.80172 -0.915554 0
M  V30 5947 C 563.247 -0.649649 -1.8386 0
M  V30 5948 O 562.517 0.332111 -1.93064 0
M  V30 5949 H 561.097 -0.664592 -0.341067 0
M  V30 5950 H 563.759 -1.93844 -0.202622 0
M  V30 5951 H 562.855 -2.7327 -1.50764 0
M  V30 5952 N 563.156 0.464375 -1.50603 0
M  V30 5953 C 564.104 1.58224 -1.70493 0
M  V30 5954 C 565.098 1.59492 -0.570836 0
M  V30 5955 O 566.304 1.63561 -0.751517 0
M  V30 5956 H 562.679 0.525161 -0.538247 0
M  V30 5957 H 564.65 1.38613 -2.64252 0
M  V30 5958 C 563.399 2.96113 -1.82243 0
M  V30 5959 H 562.722 2.95858 -2.68901 0
M  V30 5960 H 564.162 3.73769 -2.00182 0
M  V30 5961 C 562.621 3.31946 -0.575628 0
M  V30 5962 O 563.151 4.00708 0.282152 0
M  V30 5963 N 561.357 2.87436 -0.427665 0
M  V30 5964 H 560.904 2.31652 -1.12674 0
M  V30 5965 H 560.862 3.11776 0.405379 0
M  V30 5966 N 564.634 1.40294 0.718013 0
M  V30 5967 C 565.881 1.3844 1.47786 0
M  V30 5968 C 566.209 -0.0140838 1.94495 0
M  V30 5969 O 565.464 -0.998165 1.68331 0
M  V30 5970 C 565.763 2.31814 2.72024 0
M  V30 5971 C 565.429 3.79117 2.44093 0
M  V30 5972 C 564.091 4.19249 2.36185 0
M  V30 5973 C 566.443 4.72212 2.20602 0
M  V30 5974 C 563.771 5.50516 2.02851 0
M  V30 5975 C 566.123 6.03775 1.88781 0
M  V30 5976 C 564.787 6.42953 1.79354 0
M  V30 5977 H 564.057 0.506588 0.540786 0
M  V30 5978 H 566.704 1.72929 0.822663 0
M  V30 5979 H 565.009 1.90501 3.42369 0
M  V30 5980 H 566.706 2.27664 3.30106 0
M  V30 5981 H 563.296 3.47318 2.51133 0
M  V30 5982 H 567.48 4.42026 2.25669 0
M  V30 5983 H 562.736 5.79776 1.94088 0
M  V30 5984 H 566.91 6.75428 1.69617 0
M  V30 5985 H 564.537 7.44584 1.53291 0
M  V30 5986 N 566.112 -0.949982 1.2575 0
M  V30 5987 C 567.528 -1.22191 1.02672 0
M  V30 5988 C 567.728 -1.99898 -0.253588 0
M  V30 5989 O 566.784 -2.33329 -0.965076 0
M  V30 5990 C 568.097 -1.99175 2.25277 0
M  V30 5991 C 569.645 -2.12201 2.30087 0
M  V30 5992 C 570.12 -2.92586 3.5236 0
M  V30 5993 N 571.611 -3.00163 3.52784 0
M  V30 5994 C 572.346 -3.62766 4.44059 0
M  V30 5995 N 571.842 -4.26943 5.45611 0
M  V30 5996 N 573.635 -3.59953 4.3173 0
M  V30 5997 H 565.786 -0.430258 2.07996 0
M  V30 5998 H 568.049 -0.252844 0.91366 0
M  V30 5999 H 567.755 -1.49479 3.18354 0
M  V30 6000 H 567.629 -2.99868 2.28821 0
M  V30 6001 H 570.016 -2.61093 1.3753 0
M  V30 6002 H 570.097 -1.10799 2.30559 0
M  V30 6003 H 569.741 -2.44383 4.45241 0
M  V30 6004 H 569.671 -3.94224 3.49134 0
M  V30 6005 H 572.162 -2.54529 2.79327 0
M  V30 6006 H 572.475 -4.72583 6.11461 0
M  V30 6007 H 570.82 -4.25557 5.49478 0
M  V30 6008 H 574.011 -3.09003 3.51617 0
M  V30 6009 H 574.184 -4.08455 5.03059 0
M  V30 6010 N 567.59 -1.07411 -1.15328 0
M  V30 6011 C 568.538 -0.689316 -2.22151 0
M  V30 6012 C 569.532 0.300156 -1.6672 0
M  V30 6013 O 570.738 0.163804 -1.79253 0
M  V30 6014 H 567.113 -0.204834 -0.723566 0
M  V30 6015 H 569.084 -1.59988 -2.51886 0
M  V30 6016 C 567.833 -0.103848 -3.47545 0
M  V30 6017 H 567.156 -0.856367 -3.90521 0
M  V30 6018 H 568.596 0.127725 -4.23808 0
M  V30 6019 C 567.055 1.15563 -3.1646 0
M  V30 6020 O 567.585 2.242 -3.33312 0
M  V30 6021 N 565.791 1.06203 -2.70498 0
M  V30 6022 H 565.338 0.177933 -2.56985 0
M  V30 6023 H 565.296 1.90553 -2.50074 0
M  V30 6024 N 569.068 1.32177 -0.85831 0
M  V30 6025 C 570 2.27688 -0.262835 0
M  V30 6026 C 571.013 1.52588 0.567513 0
M  V30 6027 O 572.202 1.74156 0.391407 0
M  V30 6028 C 569.302 3.32668 0.646937 0
M  V30 6029 C 568.475 4.37148 -0.148372 0
M  V30 6030 C 567.534 5.21686 0.687728 0
M  V30 6031 O 566.56 5.69074 0.119934 0
M  V30 6032 N 567.762 5.44892 2.00182 0
M  V30 6033 H 570.527 2.79426 -1.08356 0
M  V30 6034 H 568.088 1.45076 -0.718647 0
M  V30 6035 H 570.08 3.86134 1.2117 0
M  V30 6036 H 568.65 2.81061 1.36834 0
M  V30 6037 H 567.87 3.83915 -0.894572 0
M  V30 6038 H 569.158 5.04038 -0.694514 0
M  V30 6039 H 568.556 5.08128 2.4864 0
M  V30 6040 H 567.113 6.0134 2.51463 0
M  V30 6041 N 570.547 0.616602 1.45037 0
M  V30 6042 C 571.963 0.280994 1.57107 0
M  V30 6043 C 572.163 -1.21627 1.60653 0
M  V30 6044 O 571.219 -1.9997 1.54169 0
M  V30 6045 C 572.532 0.960116 2.8496 0
M  V30 6046 C 574.08 0.936884 2.98649 0
M  V30 6047 C 574.555 1.59619 4.29285 0
M  V30 6048 N 576.046 1.5621 4.36065 0
M  V30 6049 C 576.781 2.04131 5.35834 0
M  V30 6050 N 576.277 2.60177 6.4209 0
M  V30 6051 N 578.07 1.94845 5.27249 0
M  V30 6052 H 570.221 1.58867 1.40979 0
M  V30 6053 H 572.484 0.666024 0.674623 0
M  V30 6054 H 572.19 2.01473 2.88273 0
M  V30 6055 H 572.064 0.488921 3.74018 0
M  V30 6056 H 574.451 -0.109209 2.94898 0
M  V30 6057 H 574.532 1.44643 2.10979 0
M  V30 6058 H 574.176 2.64166 4.33796 0
M  V30 6059 H 574.106 1.06159 5.15789 0
M  V30 6060 H 576.597 1.15276 3.59889 0
M  V30 6061 H 576.91 2.94513 7.1448 0
M  V30 6062 H 575.255 2.64221 6.42816 0
M  V30 6063 H 578.446 1.50792 4.43147 0
M  V30 6064 H 578.619 2.32504 6.04852 0
M  V30 6065 N 572.025 -1.5352 0.356285 0
M  V30 6066 C 572.972 -2.25439 -0.494569 0
M  V30 6067 C 573.942 -1.25752 -1.08516 0
M  V30 6068 O 575.127 -1.54513 -1.1194 0
M  V30 6069 C 572.267 -3.04011 -1.63313 0
M  V30 6070 C 571.38 -4.18574 -1.06862 0
M  V30 6071 C 570.515 -4.84607 -2.17552 0
M  V30 6072 C 569.554 -5.91218 -1.58518 0
M  V30 6073 N 568.691 -6.50979 -2.63003 0
M  V30 6074 H 573.531 -2.97737 0.125244 0
M  V30 6075 H 571.068 -1.46916 0.0735789 0
M  V30 6076 H 573.026 -3.47834 -2.30363 0
M  V30 6077 H 571.656 -2.33986 -2.22374 0
M  V30 6078 H 570.708 -3.79303 -0.288672 0
M  V30 6079 H 572.02 -4.95215 -0.596924 0
M  V30 6080 H 571.174 -5.31566 -2.92442 0
M  V30 6081 H 569.913 -4.07418 -2.6807 0
M  V30 6082 H 568.918 -5.4363 -0.821391 0
M  V30 6083 H 570.143 -6.70322 -1.08836 0
M  V30 6084 H 568.089 -5.76648 -3.12751 0
M  V30 6085 H 568.006 -7.23131 -2.20493 0
M  V30 6086 H 569.274 -7.02589 -3.37623 0
M  V30 6087 N 573.503 -0.0852151 -1.57369 0
M  V30 6088 C 574.731 0.58946 -1.98325 0
M  V30 6089 C 575.146 1.62333 -0.96403 0
M  V30 6090 O 574.503 1.82438 0.0476395 0
M  V30 6091 C 574.554 1.24604 -3.39347 0
M  V30 6092 O 574.275 0.253532 -4.37366 0
M  V30 6093 C 575.776 2.00726 -3.95252 0
M  V30 6094 H 572.996 0.158783 -0.651942 0
M  V30 6095 H 575.54 -0.161584 -2.03861 0
M  V30 6096 H 573.695 1.94808 -3.34856 0
M  V30 6097 H 574.109 0.726207 -5.19448 0
M  V30 6098 H 575.583 2.42039 -4.96106 0
M  V30 6099 H 576.06 2.86919 -3.32527 0
M  V30 6100 H 576.666 1.3536 -4.03185 0
M  V30 6101 N 574.981 1.5647 0.188427 0
M  V30 6102 C 576.227 1.81281 0.909124 0
M  V30 6103 C 576.56 0.66034 1.82628 0
M  V30 6104 O 575.835 -0.338737 1.91528 0
M  V30 6105 C 576.118 3.16388 1.7196 0
M  V30 6106 C 575.971 4.42137 0.826714 0
M  V30 6107 C 577.29 3.48256 2.69083 0
M  V30 6108 H 574.409 0.659457 0.329068 0
M  V30 6109 H 577.051 1.89182 0.176156 0
M  V30 6110 H 575.201 3.09784 2.34448 0
M  V30 6111 H 576.873 4.60794 0.216025 0
M  V30 6112 H 575.116 4.33594 0.133792 0
M  V30 6113 H 575.787 5.33184 1.42893 0
M  V30 6114 H 578.263 3.55203 2.16726 0
M  V30 6115 H 577.139 4.43899 3.2287 0
M  V30 6116 H 577.4 2.72088 3.48455 0
M  V30 6117 N 576.459 -0.456382 1.50847 0
M  V30 6118 C 577.406 -1.55249 1.70782 0
M  V30 6119 C 578.376 -1.56757 0.549231 0
M  V30 6120 O 579.561 -1.74061 0.7815 0
M  V30 6121 C 576.701 -2.93118 1.82143 0
M  V30 6122 C 575.814 -3.01285 3.09598 0
M  V30 6123 C 574.949 -4.30159 3.11667 0
M  V30 6124 C 573.988 -4.32124 4.33515 0
M  V30 6125 N 573.125 -5.52492 4.3324 0
M  V30 6126 H 577.965 -1.37555 2.64353 0
M  V30 6127 H 575.502 -0.668543 1.3103 0
M  V30 6128 H 577.46 -3.73088 1.86711 0
M  V30 6129 H 576.09 -3.09413 0.919978 0
M  V30 6130 H 575.142 -2.14096 3.14431 0
M  V30 6131 H 576.454 -2.98597 3.99551 0
M  V30 6132 H 575.608 -5.18489 3.15046 0
M  V30 6133 H 574.347 -4.35477 2.1957 0
M  V30 6134 H 573.352 -3.42189 4.30333 0
M  V30 6135 H 574.577 -4.28485 5.26856 0
M  V30 6136 H 572.523 -5.58567 3.44004 0
M  V30 6137 H 572.44 -5.51605 5.16979 0
M  V30 6138 H 573.708 -6.42906 4.40786 0
M  V30 6139 N 577.937 -1.40673 -0.710563 0
M  V30 6140 C 579.177 -1.40677 -1.48288 0
M  V30 6141 C 579.541 -0.0097193 -1.91998 0
M  V30 6142 O 580.742 0.115381 -2.68552 0
M  V30 6143 C 579.013 -2.37289 -2.67262 0
M  V30 6144 S 580.572 -2.55694 -3.56603 0
M  V30 6145 H 577.39 -0.498545 -0.506926 0
M  V30 6146 H 579.992 -1.76984 -0.830472 0
M  V30 6147 H 578.696 -3.37617 -2.3333 0
M  V30 6148 H 578.227 -2.02282 -3.3741 0
M  V30 6149 H 580.242 -1.81311 -4.61888 0
M  V30 6150 N 579.415 0.9433 -1.26252 0
M  V30 6151 C 580.662 1.68925 -1.11672 0
M  V30 6152 C 580.99 1.91499 0.340329 0
M  V30 6153 O 580.245 1.49189 1.26653 0
M  V30 6154 C 580.544 3.07073 -1.82868 0
M  V30 6155 C 580.21 3.04262 -3.32769 0
M  V30 6156 C 578.872 3.03203 -3.7366 0
M  V30 6157 C 581.224 2.96729 -4.28487 0
M  V30 6158 C 578.552 2.92373 -5.0866 0
M  V30 6159 C 580.904 2.87442 -5.63525 0
M  V30 6160 C 579.568 2.84724 -6.03729 0
M  V30 6161 H 578.838 0.618141 -0.408635 0
M  V30 6162 H 581.485 1.10124 -1.56668 0
M  V30 6163 H 579.79 3.69486 -1.30335 0
M  V30 6164 H 581.487 3.63635 -1.69029 0
M  V30 6165 H 578.077 3.05865 -3.00241 0
M  V30 6166 H 582.261 2.96658 -3.97879 0
M  V30 6167 H 577.517 2.88645 -5.38975 0
M  V30 6168 H 581.691 2.80576 -6.37377 0
M  V30 6169 H 579.318 2.76089 -7.08293 0
M  V30 6170 N 580.893 1.08022 1.14757 0
M  V30 6171 C 581.841 0.701088 2.21783 0
M  V30 6172 C 582.835 -0.291311 1.66876 0
M  V30 6173 O 584.041 -0.154296 1.79337 0
M  V30 6174 H 580.416 0.208668 0.722469 0
M  V30 6175 H 582.387 1.61321 2.51034 0
M  V30 6176 C 581.136 0.122278 3.47485 0
M  V30 6177 H 580.459 0.877065 3.90061 0
M  V30 6178 H 581.899 -0.105248 4.23869 0
M  V30 6179 C 580.358 -1.13883 3.17068 0
M  V30 6180 O 580.888 -2.22429 3.34497 0
M  V30 6181 N 579.094 -1.04767 2.71058 0
M  V30 6182 H 578.641 -0.164302 2.57075 0
M  V30 6183 H 578.599 -1.89224 2.51081 0
M  V30 6184 N 582.371 -1.3172 0.865308 0
M  V30 6185 C 583.611 -1.98675 0.480365 0
M  V30 6186 C 583.975 -1.66929 -0.948621 0
M  V30 6187 O 585.176 -2.27059 -1.43867 0
M  V30 6188 C 583.447 -3.49972 0.724858 0
M  V30 6189 S 585.006 -4.36598 0.439078 0
M  V30 6190 H 581.824 -0.687967 0.179506 0
M  V30 6191 H 584.426 -1.60215 1.12033 0
M  V30 6192 H 583.13 -3.70567 1.76375 0
M  V30 6193 H 582.661 -3.93335 0.0717173 0
M  V30 6194 H 584.676 -4.90792 -0.730564 0
M  V30 6195 N 583.85 -0.624285 -1.44708 0
M  V30 6196 C 585.098 -0.125802 -2.01708 0
M  V30 6197 C 585.418 1.2543 -1.49306 0
M  V30 6198 O 584.689 1.83198 -0.693924 0
M  V30 6199 H 583.269 -0.0435161 -0.745731 0
M  V30 6200 H 585.931 -0.809446 -1.77296 0
M  V30 6201 H 585.027 -0.0882734 -3.11975 0
M  V30 6202 N 585.328 1.53329 -0.364422 0
M  V30 6203 C 586.275 2.25698 0.482607 0
M  V30 6204 C 587.245 1.26325 1.07848 0
M  V30 6205 O 588.43 1.55104 1.11119 0
M  V30 6206 C 585.57 3.04873 1.61699 0
M  V30 6207 C 584.683 4.19135 1.0464 0
M  V30 6208 C 583.818 4.85754 2.14979 0
M  V30 6209 C 582.857 5.9205 1.5538 0
M  V30 6210 N 581.994 6.52365 2.59547 0
M  V30 6211 H 586.834 2.97666 -0.141032 0
M  V30 6212 H 584.371 1.46875 -0.0813692 0
M  V30 6213 H 586.329 3.49051 2.28516 0
M  V30 6214 H 584.959 2.35162 2.2113 0
M  V30 6215 H 584.011 3.79451 0.268553 0
M  V30 6216 H 585.323 4.95525 0.570653 0
M  V30 6217 H 584.477 5.3311 2.89619 0
M  V30 6218 H 583.216 4.08834 2.65906 0
M  V30 6219 H 582.221 5.44058 0.792549 0
M  V30 6220 H 583.446 6.7089 1.0528 0
M  V30 6221 H 581.392 5.78298 3.09689 0
M  V30 6222 H 581.309 7.2429 2.16655 0
M  V30 6223 H 582.577 7.0437 3.33892 0
M  V30 6224 N 586.806 0.0935595 1.57322 0
M  V30 6225 C 587.716 -0.880192 2.17462 0
M  V30 6226 C 588.732 -1.31135 1.14366 0
M  V30 6227 O 589.908 -1.37958 1.46729 0
M  V30 6228 C 586.973 -2.12184 2.74188 0
M  V30 6229 C 586.034 -1.74503 3.92234 0
M  V30 6230 C 585.267 -2.92748 4.46245 0
M  V30 6231 O 585.49 -4.07427 3.99198 0
M  V30 6232 O 584.424 -2.71303 5.37288 0
M  V30 6233 H 588.25 -0.398516 3.01074 0
M  V30 6234 H 585.835 -0.130707 1.48827 0
M  V30 6235 H 587.717 -2.84953 3.10451 0
M  V30 6236 H 586.392 -2.59407 1.93623 0
M  V30 6237 H 585.299 -0.989186 3.60785 0
M  V30 6238 H 586.632 -1.32044 4.74157 0
M  V30 6239 N 588.284 -1.56567 -0.180126 0
M  V30 6240 C 589.532 -1.81133 -0.896392 0
M  V30 6241 C 589.853 -0.669114 -1.83161 0
M  V30 6242 O 589.123 0.311616 -1.93406 0
M  V30 6243 H 587.703 -0.668172 -0.333999 0
M  V30 6244 H 590.365 -1.94048 -0.182051 0
M  V30 6245 H 589.461 -2.74854 -1.47857 0
M  V30 6246 N 589.762 0.448376 -1.51087 0
M  V30 6247 C 590.712 1.54156 -1.67988 0
M  V30 6248 C 591.696 1.5178 -0.534015 0
M  V30 6249 O 592.888 1.58419 -0.789448 0
M  V30 6250 C 590.017 2.92437 -1.79822 0
M  V30 6251 C 589.103 2.99611 -3.00157 0
M  V30 6252 N 589.494 2.7655 -4.23502 0
M  V30 6253 C 587.792 3.30764 -2.99184 0
M  V30 6254 C 588.493 2.89281 -5.0467 0
M  V30 6255 N 587.469 3.20473 -4.39088 0
M  V30 6256 H 591.271 1.35061 -2.61028 0
M  V30 6257 H 588.785 0.655504 -1.48583 0
M  V30 6258 H 590.782 3.71068 -1.90037 0
M  V30 6259 H 589.442 3.1256 -0.879554 0
M  V30 6260 H 590.453 2.5169 -4.52628 0
M  V30 6261 H 587.13 3.56732 -2.16907 0
M  V30 6262 H 588.52 2.75499 -6.12821 0
M  V30 6263 N 591.24 1.41047 0.703093 0
M  V30 6264 C 592.489 1.39301 1.4587 0
M  V30 6265 C 592.802 0.00267077 1.956 0
M  V30 6266 O 594.008 -0.137414 2.71152 0
M  V30 6267 C 592.464 2.44891 2.63735 0
M  V30 6268 C 592.072 3.89796 2.20824 0
M  V30 6269 C 593.816 2.5227 3.41409 0
M  V30 6270 C 591.723 4.86955 3.35602 0
M  V30 6271 H 590.653 0.518005 0.547893 0
M  V30 6272 H 593.304 1.66839 0.764009 0
M  V30 6273 H 591.686 2.10472 3.35436 0
M  V30 6274 H 592.86 4.33424 1.56461 0
M  V30 6275 H 591.175 3.86008 1.56163 0
M  V30 6276 H 593.772 3.22044 4.26839 0
M  V30 6277 H 594.115 1.55714 3.86081 0
M  V30 6278 H 594.648 2.85742 2.7676 0
M  V30 6279 H 591.387 5.84888 2.9595 0
M  V30 6280 H 590.907 4.47982 3.98839 0
M  V30 6281 H 592.586 5.07361 4.01489 0
M  V30 6282 N 592.718 -0.936591 1.26751 0
M  V30 6283 C 593.681 -2.01752 1.08761 0
M  V30 6284 C 594.681 -1.60763 0.0344435 0
M  V30 6285 O 595.871 -1.71963 0.278258 0
M  V30 6286 C 593.003 -3.34543 0.655271 0
M  V30 6287 H 594.196 -2.19143 2.04735 0
M  V30 6288 H 591.749 -1.11618 1.09413 0
M  V30 6289 H 592.484 -3.22851 -0.30626 0
M  V30 6290 H 592.269 -3.65647 1.41578 0
M  V30 6291 H 593.759 -4.13944 0.551378 0
M  V30 6292 N 594.196 -1.08629 -1.14182 0
M  V30 6293 C 595.143 -0.718299 -2.19338 0
M  V30 6294 C 596.113 0.296587 -1.63431 0
M  V30 6295 O 597.298 0.180079 -1.89948 0
M  V30 6296 C 594.438 -0.136203 -3.44831 0
M  V30 6297 C 593.551 -1.20414 -4.14879 0
M  V30 6298 C 592.686 -0.585666 -5.27962 0
M  V30 6299 C 591.725 -1.63548 -5.89846 0
M  V30 6300 N 590.862 -1.03864 -6.94375 0
M  V30 6301 H 595.702 -1.61932 -2.50164 0
M  V30 6302 H 593.239 -0.80919 -1.22844 0
M  V30 6303 H 595.197 0.219021 -4.16625 0
M  V30 6304 H 593.827 0.728121 -3.14481 0
M  V30 6305 H 592.879 -1.67676 -3.41451 0
M  V30 6306 H 594.191 -1.99959 -4.56966 0
M  V30 6307 H 593.345 -0.178818 -6.06436 0
M  V30 6308 H 592.084 0.24142 -4.87102 0
M  V30 6309 H 591.089 -2.05197 -5.10073 0
M  V30 6310 H 592.314 -2.46509 -6.3278 0
M  V30 6311 H 590.26 -0.232687 -6.55587 0
M  V30 6312 H 590.177 -1.77116 -7.3496 0
M  V30 6313 H 591.445 -0.657724 -7.7672 0
M  V30 6314 N 595.674 1.31259 -0.872281 0
M  V30 6315 C 596.622 2.30404 -0.318897 0
M  V30 6316 C 597.616 1.5962 0.567267 0
M  V30 6317 O 598.822 1.74204 0.453111 0
M  V30 6318 H 595.197 0.747243 -0.0844474 0
M  V30 6319 H 597.168 2.74549 -1.16899 0
M  V30 6320 C 595.917 3.44608 0.462683 0
M  V30 6321 H 595.24 3.99248 -0.209936 0
M  V30 6322 H 596.68 4.1609 0.815187 0
M  V30 6323 C 595.139 2.93456 1.65485 0
M  V30 6324 O 595.669 2.92418 2.75417 0
M  V30 6325 N 593.875 2.49628 1.48776 0
M  V30 6326 H 593.422 2.50671 0.593452 0
M  V30 6327 H 593.38 2.15759 2.28682 0
M  V30 6328 N 597.152 0.631951 1.44375 0
M  V30 6329 C 598.392 0.14009 2.03919 0
M  V30 6330 C 598.756 -1.21534 1.48639 0
M  V30 6331 O 599.957 -1.79936 1.99691 0
M  V30 6332 C 598.228 0.127174 3.57174 0
M  V30 6333 S 599.787 -0.299946 4.37774 0
M  V30 6334 H 596.605 0.0614891 0.708336 0
M  V30 6335 H 599.207 0.835524 1.76746 0
M  V30 6336 H 597.911 1.11676 3.94913 0
M  V30 6337 H 597.442 -0.589482 3.88958 0
M  V30 6338 H 599.457 -1.54396 4.71568 0
M  V30 6339 N 598.631 -1.53133 0.372548 0
M  V30 6340 C 600.047 -1.59585 0.02178 0
M  V30 6341 C 600.247 -1.38736 -1.46132 0
M  V30 6342 O 599.303 -1.19599 -2.22379 0
M  V30 6343 C 600.616 -2.9678 0.483959 0
M  V30 6344 C 602.164 -3.09909 0.438775 0
M  V30 6345 C 602.639 -4.49527 0.876876 0
M  V30 6346 N 604.13 -4.55663 0.832214 0
M  V30 6347 C 604.865 -5.61896 1.14281 0
M  V30 6348 N 604.361 -6.75852 1.52303 0
M  V30 6349 N 606.154 -5.51916 1.06515 0
M  V30 6350 H 598.305 -1.64936 1.33827 0
M  V30 6351 H 600.568 -0.773947 0.547458 0
M  V30 6352 H 600.274 -3.17198 1.51915 0
M  V30 6353 H 600.148 -3.7699 -0.125784 0
M  V30 6354 H 602.535 -2.89197 -0.587294 0
M  V30 6355 H 602.616 -2.31691 1.0841 0
M  V30 6356 H 602.26 -4.70979 1.90109 0
M  V30 6357 H 602.19 -5.26186 0.208727 0
M  V30 6358 H 604.681 -3.73844 0.552195 0
M  V30 6359 H 604.994 -7.52862 1.7441 0
M  V30 6360 H 603.339 -6.77226 1.56175 0
M  V30 6361 H 606.53 -4.6177 0.767235 0
M  V30 6362 H 606.703 -6.34609 1.31053 0
M  V30 6363 N 600.109 -0.101901 -1.5727 0
M  V30 6364 C 601.072 0.840129 -2.13247 0
M  V30 6365 C 602.072 1.20625 -1.06331 0
M  V30 6366 O 603.262 1.13456 -1.32186 0
M  V30 6367 C 600.394 2.13372 -2.65867 0
M  V30 6368 H 601.587 0.353945 -2.97804 0
M  V30 6369 H 599.14 0.147167 -1.55606 0
M  V30 6370 H 599.875 2.66461 -1.84849 0
M  V30 6371 H 599.66 1.88085 -3.44044 0
M  V30 6372 H 601.15 2.80748 -3.09145 0
M  V30 6373 N 601.587 1.56661 0.17182 0
M  V30 6374 C 602.998 1.71652 0.734329 0
M  V30 6375 C 603.349 0.712335 1.82812 0
M  V30 6376 O 602.474 -0.126401 2.16031 0
M  V30 6377 C 603.069 3.11226 1.3388 0
M  V30 6378 C 601.628 3.27904 1.84813 0
M  V30 6379 C 600.775 2.67603 0.726917 0
M  V30 6380 H 603.726 1.5861 -0.0535665 0
M  V30 6381 H 603.747 3.09849 2.20849 0
M  V30 6382 H 603.259 3.8429 0.54249 0
M  V30 6383 H 601.36 2.59796 2.6709 0
M  V30 6384 H 601.473 4.35637 1.99392 0
M  V30 6385 H 599.837 2.274 1.14723 0
M  V30 6386 H 600.62 3.43252 -0.0575334 0
M  V30 6387 N 603.065 -0.440357 1.51323 0
M  V30 6388 C 604.481 -0.7766 1.39431 0
M  V30 6389 C 604.681 -1.95838 0.474296 0
M  V30 6390 O 603.737 -2.52398 -0.0716692 0
M  V30 6391 C 605.05 -1.05981 2.81405 0
M  V30 6392 C 606.598 -1.16442 2.90534 0
M  V30 6393 C 607.073 -1.48058 4.33408 0
M  V30 6394 N 608.564 -1.54988 4.36501 0
M  V30 6395 C 609.299 -1.81017 5.44078 0
M  V30 6396 N 608.795 -2.04858 6.61819 0
M  V30 6397 N 610.588 -1.82774 5.31554 0
M  V30 6398 H 602.739 0.338006 2.09693 0
M  V30 6399 H 605.002 0.0888072 0.943831 0
M  V30 6400 H 604.708 -0.264173 3.50706 0
M  V30 6401 H 604.582 -1.98822 3.20546 0
M  V30 6402 H 606.969 -1.95068 2.21432 0
M  V30 6403 H 607.05 -0.215088 2.54894 0
M  V30 6404 H 606.694 -0.699605 5.03059 0
M  V30 6405 H 606.624 -2.44192 4.66559 0
M  V30 6406 H 609.115 -1.38479 3.51613 0
M  V30 6407 H 609.428 -2.2408 7.396 0
M  V30 6408 H 607.773 -2.02187 6.6494 0
M  V30 6409 H 610.964 -1.63665 4.38556 0
M  V30 6410 H 611.137 -2.02722 6.15474 0
M  V30 6411 N 604.543 -1.41418 -0.695603 0
M  V30 6412 C 605.49 -1.43264 -1.80954 0
M  V30 6413 C 606.46 -0.287016 -1.63601 0
M  V30 6414 O 607.645 -0.488054 -1.84452 0
M  V30 6415 C 604.785 -1.32054 -3.18835 0
M  V30 6416 C 603.898 -2.56485 -3.4762 0
M  V30 6417 C 603.033 -2.3757 -4.75115 0
M  V30 6418 C 602.072 -3.57477 -4.96867 0
M  V30 6419 N 601.209 -3.37632 -6.15588 0
M  V30 6420 H 606.049 -2.38467 -1.78711 0
M  V30 6421 H 603.586 -1.18415 -0.872715 0
M  V30 6422 H 605.544 -1.23558 -3.98484 0
M  V30 6423 H 604.174 -0.404592 -3.20254 0
M  V30 6424 H 603.226 -2.75432 -2.62376 0
M  V30 6425 H 604.538 -3.45678 -3.59594 0
M  V30 6426 H 603.692 -2.2654 -5.62818 0
M  V30 6427 H 602.431 -1.45834 -4.65386 0
M  V30 6428 H 601.436 -3.68961 -4.07612 0
M  V30 6429 H 602.661 -4.50167 -5.08455 0
M  V30 6430 H 600.607 -2.48596 -6.07072 0
M  V30 6431 H 600.524 -4.20401 -6.2833 0
M  V30 6432 H 601.792 -3.30375 -7.06026 0
M  V30 6433 N 606.021 0.929856 -1.27246 0
M  V30 6434 C 606.968 2.03017 -1.09785 0
M  V30 6435 C 607.938 1.661 0.000456744 0
M  V30 6436 O 609.123 1.90116 -0.161462 0
M  V30 6437 C 606.263 3.36878 -0.748816 0
M  V30 6438 C 605.376 3.86763 -1.92453 0
M  V30 6439 C 604.511 5.09061 -1.51758 0
M  V30 6440 C 603.55 5.51237 -2.66091 0
M  V30 6441 N 602.687 6.64732 -2.25999 0
M  V30 6442 H 607.527 2.17285 -2.03939 0
M  V30 6443 H 605.064 1.06448 -1.01524 0
M  V30 6444 H 607.022 4.13855 -0.527283 0
M  V30 6445 H 605.652 3.22424 0.155771 0
M  V30 6446 H 604.704 3.06086 -2.25867 0
M  V30 6447 H 606.016 4.13994 -2.78227 0
M  V30 6448 H 605.17 5.93532 -1.25716 0
M  V30 6449 H 603.909 4.83602 -0.630896 0
M  V30 6450 H 602.914 4.65316 -2.92849 0
M  V30 6451 H 604.139 5.78692 -3.55377 0
M  V30 6452 H 602.085 6.40935 -1.3978 0
M  V30 6453 H 602.002 6.91607 -3.05313 0
M  V30 6454 H 603.27 7.52549 -2.03199 0
M  V30 6455 N 607.499 1.09233 1.13605 0
M  V30 6456 C 608.747 0.825525 1.84471 0
M  V30 6457 C 609.068 -0.650702 1.83823 0
M  V30 6458 O 608.338 -1.47204 1.29259 0
M  V30 6459 H 606.918 0.3024 0.683054 0
M  V30 6460 H 609.58 1.38006 1.37624 0
M  V30 6461 H 608.676 1.17727 2.89045 0
M  V30 6462 N 608.977 -1.30795 0.87923 0
M  V30 6463 C 610.217 -1.98155 0.50141 0
M  V30 6464 C 610.581 -1.67925 -0.930863 0
M  V30 6465 O 611.782 -2.28572 -1.41451 0
M  V30 6466 C 610.053 -3.49184 0.761937 0
M  V30 6467 S 611.612 -4.36107 0.485361 0
M  V30 6468 H 608.43 -0.686025 0.186792 0
M  V30 6469 H 611.032 -1.59018 1.13726 0
M  V30 6470 H 609.736 -3.68676 1.80295 0
M  V30 6471 H 609.267 -3.93236 0.113432 0
M  V30 6472 H 611.282 -4.9154 -0.678467 0
M  V30 6473 N 610.455 -0.639598 -1.44038 0
M  V30 6474 C 611.701 -0.156248 -2.02799 0
M  V30 6475 C 612.056 1.21145 -1.49471 0
M  V30 6476 O 611.349 1.79406 -0.672608 0
M  V30 6477 C 611.543 -0.0925348 -3.5728 0
M  V30 6478 C 611.372 -1.45252 -4.25596 0
M  V30 6479 C 610.142 -2.04145 -4.62226 0
M  V30 6480 C 612.34 -2.38812 -4.55492 0
M  V30 6481 N 610.322 -3.3329 -5.15549 0
M  V30 6482 C 611.693 -3.52578 -5.09989 0
M  V30 6483 C 613.748 -2.37785 -4.3745 0
M  V30 6484 C 612.451 -4.65525 -5.48342 0
M  V30 6485 C 614.477 -3.49802 -4.76857 0
M  V30 6486 C 613.839 -4.62292 -5.31475 0
M  V30 6487 H 609.938 -0.101292 -0.775412 0
M  V30 6488 H 612.522 -0.844938 -1.75411 0
M  V30 6489 H 610.693 0.565459 -3.84262 0
M  V30 6490 H 612.425 0.400426 -4.02714 0
M  V30 6491 H 609.18 -1.56999 -4.4682 0
M  V30 6492 H 609.604 -3.9934 -5.46678 0
M  V30 6493 H 614.246 -1.52061 -3.94509 0
M  V30 6494 H 611.964 -5.51951 -5.90233 0
M  V30 6495 H 615.55 -3.50193 -4.64603 0
M  V30 6496 H 614.43 -5.47536 -5.61403 0
M  V30 6497 N 611.933 1.52934 -0.380664 0
M  V30 6498 C 612.88 2.26197 0.458641 0
M  V30 6499 C 613.85 1.27462 1.06502 0
M  V30 6500 O 615.035 1.56274 1.09467 0
M  V30 6501 C 612.175 3.06571 1.58456 0
M  V30 6502 C 611.288 4.20222 1.00189 0
M  V30 6503 C 610.423 4.88007 2.09815 0
M  V30 6504 C 609.462 5.93665 1.49092 0
M  V30 6505 N 608.599 6.55081 2.52613 0
M  V30 6506 H 613.439 2.975 -0.172595 0
M  V30 6507 H 610.976 1.4678 -0.0969426 0
M  V30 6508 H 612.934 3.51455 2.24801 0
M  V30 6509 H 611.564 2.37494 2.18624 0
M  V30 6510 H 610.616 3.79714 0.228292 0
M  V30 6511 H 611.928 4.96102 0.518064 0
M  V30 6512 H 611.082 5.36151 2.83948 0
M  V30 6513 H 609.821 4.11632 2.61555 0
M  V30 6514 H 608.826 5.44868 0.7348 0
M  V30 6515 H 610.051 6.71969 0.981582 0
M  V30 6516 H 607.997 5.8155 3.03538 0
M  V30 6517 H 607.914 7.26548 2.08961 0
M  V30 6518 H 609.182 7.07871 3.26402 0
M  V30 6519 N 613.412 0.11024 1.57214 0
M  V30 6520 C 614.652 -0.553061 1.96775 0
M  V30 6521 C 615.016 -1.64403 0.991753 0
M  V30 6522 O 616.217 -2.36561 1.27642 0
M  V30 6523 C 614.488 -1.08004 3.4069 0
M  V30 6524 S 616.047 -1.75309 4.02259 0
M  V30 6525 H 612.865 -0.18003 0.68783 0
M  V30 6526 H 615.467 0.193242 1.94543 0
M  V30 6527 H 614.171 -0.274735 4.09479 0
M  V30 6528 H 613.702 -1.86182 3.46554 0
M  V30 6529 H 615.717 -3.03834 3.923 0
M  V30 6530 N 614.89 -1.56749 -0.16351 0
M  V30 6531 C 616.138 -1.82074 -0.87713 0
M  V30 6532 C 616.459 -0.688503 -1.82441 0
M  V30 6533 O 615.729 0.291085 -1.93725 0
M  V30 6534 H 614.309 -0.671677 -0.326893 0
M  V30 6535 H 616.971 -1.9423 -0.161459 0
M  V30 6536 H 616.067 -2.76407 -1.44934 0
M  V30 6537 N 616.368 0.432326 -1.51554 0
M  V30 6538 C 617.315 1.52512 -1.7323 0
M  V30 6539 C 618.285 1.55863 -0.5741 0
M  V30 6540 O 619.47 1.72796 -0.809093 0
M  V30 6541 C 616.61 2.90183 -1.86783 0
M  V30 6542 C 615.723 2.96322 -3.14352 0
M  V30 6543 C 614.858 4.25147 -3.18471 0
M  V30 6544 C 613.897 4.25172 -4.40335 0
M  V30 6545 N 613.034 5.45529 -4.41975 0
M  V30 6546 H 617.874 1.33332 -2.66508 0
M  V30 6547 H 615.411 0.647613 -1.32077 0
M  V30 6548 H 617.369 3.70071 -1.92623 0
M  V30 6549 H 615.999 3.0791 -0.969087 0
M  V30 6550 H 615.051 2.09066 -3.17798 0
M  V30 6551 H 616.363 2.92203 -4.04251 0
M  V30 6552 H 615.517 5.13411 -3.23255 0
M  V30 6553 H 614.256 4.31929 -2.2647 0
M  V30 6554 H 613.261 3.353 -4.35723 0
M  V30 6555 H 614.486 4.20049 -5.33606 0
M  V30 6556 H 612.432 5.53024 -3.52847 0
M  V30 6557 H 612.349 5.43311 -5.25689 0
M  V30 6558 H 613.617 6.35812 -4.50958 0
M  V30 6559 N 617.846 1.41785 0.688094 0
M  V30 6560 C 618.756 1.46596 1.83158 0
M  V30 6561 C 619.772 0.355862 1.70322 0
M  V30 6562 O 620.948 0.604737 1.92106 0
M  V30 6563 C 618.013 1.35322 3.192 0
M  V30 6564 C 617.074 2.56711 3.4409 0
M  V30 6565 C 616.307 2.45965 4.73642 0
M  V30 6566 O 616.53 1.48827 5.50642 0
M  V30 6567 O 615.464 3.35859 4.99482 0
M  V30 6568 H 619.29 2.43083 1.82056 0
M  V30 6569 H 616.875 1.23404 0.842126 0
M  V30 6570 H 618.757 1.31347 4.00407 0
M  V30 6571 H 617.432 0.419536 3.2097 0
M  V30 6572 H 616.339 2.66262 2.62784 0
M  V30 6573 H 617.672 3.48933 3.47141 0
M  V30 6574 N 619.324 -0.923095 1.27737 0
M  V30 6575 C 620.572 -1.66797 1.14119 0
M  V30 6576 C 620.893 -1.92479 -0.312541 0
M  V30 6577 O 620.163 -1.53432 -1.218 0
M  V30 6578 H 618.743 -0.618196 0.419336 0
M  V30 6579 H 621.405 -1.10815 1.60331 0
M  V30 6580 H 620.501 -2.63424 1.67374 0
M  V30 6581 N 620.802 -1.09834 -1.13024 0
M  V30 6582 C 621.752 -0.710899 -2.16634 0
M  V30 6583 C 622.736 0.276836 -1.58501 0
M  V30 6584 O 623.928 0.0865457 -1.76788 0
M  V30 6585 C 621.057 -0.137574 -3.43024 0
M  V30 6586 C 620.143 -1.15198 -4.08155 0
M  V30 6587 N 620.534 -2.34054 -4.48388 0
M  V30 6588 C 618.832 -0.991074 -4.34849 0
M  V30 6589 C 619.533 -2.98616 -4.99203 0
M  V30 6590 N 618.509 -2.26159 -4.94321 0
M  V30 6591 H 622.311 -1.61576 -2.455 0
M  V30 6592 H 619.825 -0.975158 -1.29863 0
M  V30 6593 H 621.822 0.158031 -4.166 0
M  V30 6594 H 620.482 0.762088 -3.1563 0
M  V30 6595 H 621.493 -2.7162 -4.40957 0
M  V30 6596 H 618.17 -0.146448 -4.17243 0
M  V30 6597 H 619.56 -3.99683 -5.40096 0
M  V30 6598 N 622.28 1.30327 -0.886154 0
M  V30 6599 C 623.212 2.27079 -0.311072 0
M  V30 6600 C 624.225 1.53758 0.53502 0
M  V30 6601 O 625.414 1.74947 0.354378 0
M  V30 6602 C 622.514 3.33965 0.576228 0
M  V30 6603 C 621.687 4.36735 -0.241064 0
M  V30 6604 C 620.746 5.23028 0.576916 0
M  V30 6605 O 619.772 5.692 -0.000802231 0
M  V30 6606 N 620.974 5.49016 1.88579 0
M  V30 6607 H 623.739 2.77065 -1.14259 0
M  V30 6608 H 621.3 1.43519 -0.749258 0
M  V30 6609 H 623.292 3.88618 1.12953 0
M  V30 6610 H 621.862 2.839 1.30842 0
M  V30 6611 H 621.082 3.81932 -0.975805 0
M  V30 6612 H 622.37 5.02451 -0.801272 0
M  V30 6613 H 621.768 5.13288 2.37806 0
M  V30 6614 H 620.325 6.06539 2.38651 0
M  V30 6615 N 623.758 0.647228 1.43697 0
M  V30 6616 C 624.691 -0.097646 2.27991 0
M  V30 6617 C 625.669 -0.83571 1.3948 0
M  V30 6618 O 626.853 -0.836509 1.68922 0
M  V30 6619 C 623.98 -1.14484 3.18765 0
M  V30 6620 C 623.026 -0.505503 4.23494 0
M  V30 6621 S 623.859 0.716471 5.30685 0
M  V30 6622 C 625.015 -0.330339 6.25028 0
M  V30 6623 H 625.248 0.617417 2.90818 0
M  V30 6624 H 622.781 0.435881 1.4812 0
M  V30 6625 H 624.739 -1.74403 3.7161 0
M  V30 6626 H 623.4 -1.83219 2.55127 0
M  V30 6627 H 622.593 -1.29473 4.87086 0
M  V30 6628 H 622.195 0.0194377 3.73995 0
M  V30 6629 H 624.487 -1.19828 6.66819 0
M  V30 6630 H 625.43 0.270409 7.07583 0
M  V30 6631 H 625.838 -0.663459 5.60588 0
M  V30 6632 N 625.236 -1.5273 0.388769 0
M  V30 6633 C 626.183 -2.26437 -0.446639 0
M  V30 6634 C 627.153 -1.28025 -1.05824 0
M  V30 6635 O 628.338 -1.56852 -1.08637 0
M  V30 6636 C 625.478 -3.07407 -1.56828 0
M  V30 6637 C 624.591 -4.20747 -0.979589 0
M  V30 6638 C 623.726 -4.89113 -2.07224 0
M  V30 6639 C 622.765 -5.94447 -1.45942 0
M  V30 6640 N 621.902 -6.56411 -2.49135 0
M  V30 6641 H 626.742 -2.97404 0.18837 0
M  V30 6642 H 624.279 -1.46727 0.104725 0
M  V30 6643 H 626.237 -3.52642 -2.22934 0
M  V30 6644 H 624.867 -2.3865 -2.17361 0
M  V30 6645 H 623.919 -3.7983 -0.208151 0
M  V30 6646 H 625.231 -4.9637 -0.491747 0
M  V30 6647 H 624.385 -5.3765 -2.81101 0
M  V30 6648 H 623.124 -4.13013 -2.59368 0
M  V30 6649 H 622.129 -5.4525 -0.705894 0
M  V30 6650 H 623.354 -6.7248 -0.945932 0
M  V30 6651 H 621.3 -5.83152 -3.00449 0
M  V30 6652 H 621.217 -7.27645 -2.05105 0
M  V30 6653 H 622.485 -7.09592 -3.22644 0
M  V30 6654 N 626.714 -0.118576 -1.57153 0
M  V30 6655 C 627.991 0.583062 -1.86708 0
M  V30 6656 C 628.371 1.84841 -1.01967 0
M  V30 6657 O 627.719 2.28288 -0.0984673 0
M  V30 6658 C 627.929 0.875912 -3.3783 0
M  V30 6659 C 629.277 1.22916 -4.0642 0
M  V30 6660 O 630.301 0.966188 -3.42846 0
M  V30 6661 O 629.16 1.72269 -5.18638 0
M  V30 6662 H 626.254 0.294185 -0.772906 0
M  V30 6663 H 628.8 -0.153048 -1.69008 0
M  V30 6664 H 627.572 -0.0207776 -3.91294 0
M  V30 6665 H 627.195 1.66719 -3.60958 0
M  V30 6666 N 628.193 1.56834 0.155195 0
M  V30 6667 C 629.433 1.84701 0.875488 0
M  V30 6668 C 629.797 0.701747 1.78716 0
M  V30 6669 O 630.998 0.861263 2.54629 0
M  V30 6670 C 629.269 3.1773 1.63654 0
M  V30 6671 S 630.828 3.67128 2.40338 0
M  V30 6672 H 627.646 0.647856 0.292923 0
M  V30 6673 H 630.248 1.95026 0.136024 0
M  V30 6674 H 628.952 3.99059 0.958117 0
M  V30 6675 H 628.483 3.10388 2.41708 0
M  V30 6676 H 630.498 3.35739 3.65368 0
M  V30 6677 N 629.671 -0.424282 1.51781 0
M  V30 6678 C 630.899 -1.1947 1.68921 0
M  V30 6679 C 631.314 -1.84683 0.39213 0
M  V30 6680 O 630.671 -1.71261 -0.630554 0
M  V30 6681 C 630.722 -2.26909 2.81416 0
M  V30 6682 O 630.443 -1.64361 4.061 0
M  V30 6683 C 631.944 -3.16945 3.09937 0
M  V30 6684 H 629.164 -0.359591 0.566511 0
M  V30 6685 H 631.708 -0.501139 1.98265 0
M  V30 6686 H 629.863 -2.91959 2.54635 0
M  V30 6687 H 630.277 -2.35468 4.68674 0
M  V30 6688 H 631.751 -3.88437 3.922 0
M  V30 6689 H 632.228 -3.78451 2.22871 0
M  V30 6690 H 632.834 -2.57581 3.38426 0
M  V30 6691 N 631.149 -1.42148 -0.680565 0
M  V30 6692 C 632.059 -1.47565 -1.82378 0
M  V30 6693 C 633.075 -0.36489 -1.70131 0
M  V30 6694 O 634.251 -0.614916 -1.91783 0
M  V30 6695 C 631.316 -1.37013 -3.18478 0
M  V30 6696 C 630.377 -2.58532 -3.42724 0
M  V30 6697 C 629.61 -2.48473 -4.72331 0
M  V30 6698 O 629.833 -1.51745 -5.49845 0
M  V30 6699 O 628.767 -3.38503 -4.97694 0
M  V30 6700 H 632.593 -2.44045 -1.80764 0
M  V30 6701 H 630.178 -1.23849 -0.835569 0
M  V30 6702 H 632.06 -1.33468 -3.99705 0
M  V30 6703 H 630.735 -0.436552 -3.20743 0
M  V30 6704 H 629.642 -2.67652 -2.61368 0
M  V30 6705 H 630.975 -3.50769 -3.45286 0
M  V30 6706 N 632.627 0.916307 -1.28225 0
M  V30 6707 C 634.043 1.19425 -1.05876 0
M  V30 6708 C 634.243 2.005 0.2005 0
M  V30 6709 O 633.299 2.35806 0.902873 0
M  V30 6710 C 634.612 1.93133 -2.30478 0
M  V30 6711 C 636.16 2.06026 -2.35632 0
M  V30 6712 C 636.635 2.83141 -3.59994 0
M  V30 6713 N 638.126 2.90704 -3.60618 0
M  V30 6714 C 638.861 3.50865 -4.53521 0
M  V30 6715 N 638.357 4.12327 -5.56739 0
M  V30 6716 N 640.15 3.48379 -4.41122 0
M  V30 6717 H 632.301 0.37496 -2.09064 0
M  V30 6718 H 634.564 0.228531 -0.920042 0
M  V30 6719 H 634.27 1.40985 -3.22205 0
M  V30 6720 H 634.144 2.93696 -2.36691 0
M  V30 6721 H 636.531 2.57355 -1.44404 0
M  V30 6722 H 636.612 1.04647 -2.33415 0
M  V30 6723 H 636.256 2.32492 -4.51564 0
M  V30 6724 H 636.186 3.84829 -3.59464 0
M  V30 6725 H 638.677 2.47034 -2.85977 0
M  V30 6726 H 638.99 4.56205 -6.23776 0
M  V30 6727 H 637.335 4.10839 -5.60568 0
M  V30 6728 H 640.526 2.99572 -3.59686 0
M  V30 6729 H 640.699 3.94974 -5.13712 0
M  V30 6730 N 634.105 1.10431 1.1244 0
M  V30 6731 C 635.037 0.710945 2.17895 0
M  V30 6732 C 636.05 -0.252315 1.60833 0
M  V30 6733 O 637.239 -0.03679 1.78462 0
M  V30 6734 C 634.339 0.0284262 3.38888 0
M  V30 6735 C 633.512 1.01585 4.2544 0
M  V30 6736 C 632.571 0.364826 5.24934 0
M  V30 6737 O 631.597 1.01561 5.60066 0
M  V30 6738 N 632.799 -0.87674 5.73841 0
M  V30 6739 H 635.564 1.61826 2.52255 0
M  V30 6740 H 633.125 0.993132 1.27861 0
M  V30 6741 H 635.117 -0.418568 4.0253 0
M  V30 6742 H 633.687 -0.781294 3.02679 0
M  V30 6743 H 632.907 1.64111 3.58415 0
M  V30 6744 H 634.195 1.68425 4.80115 0
M  V30 6745 H 633.593 -1.42483 5.47462 0
M  V30 6746 H 632.15 -1.26688 6.39369 0
M  V30 6747 N 635.583 -1.29855 0.893053 0
M  V30 6748 C 636.546 -2.26183 0.370687 0
M  V30 6749 C 637.546 -1.53108 -0.491385 0
M  V30 6750 O 638.736 -1.71643 -0.297386 0
M  V30 6751 C 635.868 -3.37633 -0.470827 0
M  V30 6752 H 637.061 -2.73903 1.22135 0
M  V30 6753 H 634.614 -1.41183 0.67061 0
M  V30 6754 H 635.349 -2.95241 -1.34175 0
M  V30 6755 H 635.134 -3.91825 0.146784 0
M  V30 6756 H 636.624 -4.09313 -0.827825 0
M  V30 6757 N 637.061 -0.65484 -1.43351 0
M  V30 6758 C 638.009 0.0476784 -2.32551 0
M  V30 6759 C 639.003 0.811403 -1.48703 0
M  V30 6760 O 640.209 0.721621 -1.64902 0
M  V30 6761 H 636.584 0.0342038 -0.751222 0
M  V30 6762 H 638.555 -0.722342 -2.89525 0
M  V30 6763 C 637.304 0.999251 -3.33032 0
M  V30 6764 H 636.627 0.421005 -3.97577 0
M  V30 6765 H 638.067 1.45986 -3.98076 0
M  V30 6766 C 636.526 2.09606 -2.63756 0
M  V30 6767 O 637.056 3.18004 -2.4543 0
M  V30 6768 N 635.262 1.86207 -2.23103 0
M  V30 6769 H 634.809 0.980555 -2.38208 0
M  V30 6770 H 634.767 2.59787 -1.77081 0
M  V30 6771 N 638.539 1.52521 -0.396863 0
M  V30 6772 C 639.786 2.01672 0.182898 0
M  V30 6773 C 640.114 1.28302 1.46181 0
M  V30 6774 O 639.369 0.374118 1.92091 0
M  V30 6775 C 639.668 3.5403 0.489677 0
M  V30 6776 C 639.334 4.45456 -0.698581 0
M  V30 6777 C 637.996 4.70166 -1.02454 0
M  V30 6778 C 640.348 4.99354 -1.49316 0
M  V30 6779 C 637.676 5.46024 -2.1465 0
M  V30 6780 C 640.028 5.76439 -2.60579 0
M  V30 6781 C 638.692 5.99426 -2.93675 0
M  V30 6782 H 637.962 0.737971 0.066927 0
M  V30 6783 H 640.609 1.83853 -0.535764 0
M  V30 6784 H 638.914 3.69963 1.28976 0
M  V30 6785 H 640.611 3.8956 0.951018 0
M  V30 6786 H 637.201 4.26392 -0.434525 0
M  V30 6787 H 641.385 4.80182 -1.25457 0
M  V30 6788 H 636.641 5.62046 -2.40654 0
M  V30 6789 H 640.815 6.17202 -3.22544 0
M  V30 6790 H 638.442 6.57988 -3.80731 0
M  V30 6791 N 640.017 0.126909 1.57088 0
M  V30 6792 C 640.947 -0.816847 2.18746 0
M  V30 6793 C 641.928 -1.27161 1.12979 0
M  V30 6794 O 643.113 -1.33279 1.41246 0
M  V30 6795 C 640.243 -2.06398 2.79315 0
M  V30 6796 C 639.197 -1.74673 3.90735 0
M  V30 6797 C 638.523 -3.06482 4.38147 0
M  V30 6798 C 639.823 -1.0089 5.12463 0
M  V30 6799 H 641.517 -0.303032 2.97863 0
M  V30 6800 H 639.063 -0.144314 1.43275 0
M  V30 6801 H 641.016 -2.72885 3.2111 0
M  V30 6802 H 639.74 -2.60118 1.975 0
M  V30 6803 H 638.399 -1.10572 3.49527 0
M  V30 6804 H 638.047 -3.58152 3.5318 0
M  V30 6805 H 637.747 -2.86025 5.13287 0
M  V30 6806 H 639.271 -3.74073 4.82599 0
M  V30 6807 H 640.685 -1.57546 5.51228 0
M  V30 6808 H 639.082 -0.905006 5.93237 0
M  V30 6809 H 640.152 0.00297335 4.849 0
M  V30 6810 N 641.495 -1.56914 -0.146875 0
M  V30 6811 C 642.911 -1.51582 -0.499518 0
M  V30 6812 C 643.111 -0.83535 -1.83369 0
M  V30 6813 O 642.167 -0.405932 -2.49216 0
M  V30 6814 C 643.48 -2.96349 -0.509711 0
M  V30 6815 C 645.028 -3.07288 -0.595217 0
M  V30 6816 C 645.503 -4.53562 -0.636071 0
M  V30 6817 N 646.994 -4.57906 -0.69829 0
M  V30 6818 C 647.729 -5.68462 -0.750886 0
M  V30 6819 N 647.225 -6.88588 -0.76282 0
M  V30 6820 N 649.018 -5.56496 -0.791777 0
M  V30 6821 H 641.169 -1.99547 0.727656 0
M  V30 6822 H 643.432 -0.910113 0.265327 0
M  V30 6823 H 643.138 -3.4939 0.402409 0
M  V30 6824 H 643.012 -3.52307 -1.34758 0
M  V30 6825 H 645.399 -2.54266 -1.49776 0
M  V30 6826 H 645.48 -2.54373 0.2698 0
M  V30 6827 H 645.124 -5.07222 0.262313 0
M  V30 6828 H 645.054 -5.04259 -1.51758 0
M  V30 6829 H 647.545 -3.71429 -0.696362 0
M  V30 6830 H 647.858 -7.68598 -0.804804 0
M  V30 6831 H 646.203 -6.91148 -0.730694 0
M  V30 6832 H 649.394 -4.61562 -0.779624 0
M  V30 6833 H 649.567 -6.42671 -0.829301 0
M  V30 6834 N 642.974 0.416227 -1.52004 0
M  V30 6835 C 643.884 1.53147 -1.77717 0
M  V30 6836 C 644.9 1.609 -0.662368 0
M  V30 6837 O 646.076 1.77747 -0.946991 0
M  V30 6838 C 643.141 2.88948 -1.91598 0
M  V30 6839 C 642.202 2.9114 -3.15493 0
M  V30 6840 C 641.435 4.20464 -3.28703 0
M  V30 6841 O 641.658 5.13981 -2.47345 0
M  V30 6842 O 640.592 4.29368 -4.21813 0
M  V30 6843 H 644.418 1.34357 -2.72363 0
M  V30 6844 H 642.003 0.601373 -1.36762 0
M  V30 6845 H 643.885 3.69505 -2.02593 0
M  V30 6846 H 642.56 3.07821 -1.00141 0
M  V30 6847 H 641.467 2.09461 -3.09962 0
M  V30 6848 H 642.8 2.77216 -4.06709 0
M  V30 6849 N 644.452 1.42507 0.673017 0
M  V30 6850 C 645.729 1.33554 1.42908 0
M  V30 6851 C 646.109 -0.0262211 2.11084 0
M  V30 6852 O 645.457 -1.04181 2.03368 0
M  V30 6853 C 645.667 2.50498 2.43006 0
M  V30 6854 C 647.015 2.92694 3.07596 0
M  V30 6855 O 648.039 2.50401 2.53333 0
M  V30 6856 O 646.898 3.65899 4.05931 0
M  V30 6857 H 643.992 0.526785 0.637516 0
M  V30 6858 H 646.538 1.54518 0.701591 0
M  V30 6859 H 645.31 3.41272 1.9144 0
M  V30 6860 H 644.933 2.3153 3.23233 0
M  V30 6861 N 645.93 -0.909495 1.28709 0
M  V30 6862 C 646.86 -2.0291 1.15542 0
M  V30 6863 C 647.841 -1.7002 0.0521017 0
M  V30 6864 O 649.026 -1.92835 0.229849 0
M  V30 6865 C 646.156 -3.37458 0.820935 0
M  V30 6866 C 645.11 -3.84524 1.87949 0
M  V30 6867 C 644.436 -5.16086 1.39854 0
M  V30 6868 C 645.736 -4.05918 3.28676 0
M  V30 6869 H 647.43 -2.14183 2.09203 0
M  V30 6870 H 644.976 -1.02913 1.00722 0
M  V30 6871 H 646.929 -4.1528 0.715571 0
M  V30 6872 H 645.653 -3.26249 -0.151374 0
M  V30 6873 H 644.312 -3.08911 1.97408 0
M  V30 6874 H 643.96 -5.01284 0.41518 0
M  V30 6875 H 643.66 -5.48547 2.1064 0
M  V30 6876 H 645.184 -5.96459 1.30649 0
M  V30 6877 H 646.598 -4.74252 3.22115 0
M  V30 6878 H 644.995 -4.49717 3.97334 0
M  V30 6879 H 646.065 -3.10583 3.72379 0
M  V30 6880 N 647.408 -1.11026 -1.11852 0
M  V30 6881 C 648.371 -0.768006 -2.1595 0
M  V30 6882 C 649.371 0.210538 -1.59416 0
M  V30 6883 O 650.561 -0.0133978 -1.74195 0
M  V30 6884 C 647.693 -0.138678 -3.40618 0
M  V30 6885 H 648.886 -1.69012 -2.4774 0
M  V30 6886 H 646.439 -0.911578 -1.26964 0
M  V30 6887 H 647.174 0.793872 -3.14433 0
M  V30 6888 H 646.959 -0.843012 -3.8293 0
M  V30 6889 H 648.449 0.0848039 -4.17514 0
M  V30 6890 N 648.886 1.2938 -0.899927 0
M  V30 6891 C 650.133 1.9555 -0.525963 0
M  V30 6892 C 650.461 1.70945 0.927789 0
M  V30 6893 O 649.716 1.01545 1.67293 0
M  V30 6894 C 650.015 3.49114 -0.765113 0
M  V30 6895 C 649.681 3.93796 -2.19626 0
M  V30 6896 C 648.343 4.05707 -2.58758 0
M  V30 6897 C 650.695 4.16883 -3.12823 0
M  V30 6898 C 648.023 4.38074 -3.90267 0
M  V30 6899 C 650.375 4.50725 -4.4388 0
M  V30 6900 C 649.039 4.60845 -4.82885 0
M  V30 6901 H 648.309 0.715569 -0.192463 0
M  V30 6902 H 650.956 1.53972 -1.13863 0
M  V30 6903 H 649.261 3.91738 -0.069531 0
M  V30 6904 H 650.958 3.98409 -0.455144 0
M  V30 6905 H 647.548 3.85042 -1.88256 0
M  V30 6906 H 651.732 4.07147 -2.83804 0
M  V30 6907 H 646.988 4.44112 -4.20207 0
M  V30 6908 H 651.162 4.67538 -5.16121 0
M  V30 6909 H 648.789 4.85681 -5.84823 0
M  V30 6910 N 650.364 0.662433 1.43002 0
M  V30 6911 C 651.775 0.258315 1.84904 0
M  V30 6912 C 652.126 -1.19703 1.55453 0
M  V30 6913 O 651.251 -1.91484 1.00811 0
M  V30 6914 C 651.846 0.462047 3.35635 0
M  V30 6915 C 650.405 0.112165 3.76233 0
M  V30 6916 C 649.552 0.760479 2.66668 0
M  V30 6917 H 652.503 0.865467 1.33024 0
M  V30 6918 H 652.524 -0.289646 3.79396 0
M  V30 6919 H 652.036 1.52135 3.57039 0
M  V30 6920 H 650.137 -0.944179 3.60439 0
M  V30 6921 H 650.25 0.544058 4.76001 0
M  V30 6922 H 648.614 0.192887 2.53969 0
M  V30 6923 H 649.397 1.82299 2.90898 0
M  V30 6924 N 651.842 -1.52309 0.404946 0
M  V30 6925 C 652.774 -2.24579 -0.45791 0
M  V30 6926 C 653.787 -1.2739 -1.01369 0
M  V30 6927 O 654.976 -1.53363 -0.91335 0
M  V30 6928 C 652.076 -2.9608 -1.64893 0
M  V30 6929 C 651.249 -4.20106 -1.21777 0
M  V30 6930 C 650.308 -4.74468 -2.27523 0
M  V30 6931 O 649.334 -5.37157 -1.88285 0
M  V30 6932 N 650.536 -4.55678 -3.59635 0
M  V30 6933 H 653.301 -2.99265 0.161341 0
M  V30 6934 H 650.862 -1.60228 0.232107 0
M  V30 6935 H 652.854 -3.29344 -2.35191 0
M  V30 6936 H 651.424 -2.24606 -2.17419 0
M  V30 6937 H 650.644 -3.92704 -0.343071 0
M  V30 6938 H 651.932 -5.00658 -0.906596 0
M  V30 6939 H 651.33 -4.05673 -3.94266 0
M  V30 6940 H 649.887 -4.9339 -4.25922 0
M  V30 6941 N 653.32 -0.135238 -1.57019 0
M  V30 6942 C 654.568 0.51777 -1.95355 0
M  V30 6943 C 654.889 1.6617 -1.02042 0
M  V30 6944 O 654.159 1.95738 -0.0797343 0
M  V30 6945 H 652.739 0.194264 -0.721298 0
M  V30 6946 H 655.401 -0.207983 -1.93787 0
M  V30 6947 H 654.497 0.901675 -2.98791 0
M  V30 6948 N 654.798 1.5699 0.138552 0
M  V30 6949 C 655.745 1.98899 1.17081 0
M  V30 6950 C 656.715 0.857922 1.42228 0
M  V30 6951 O 657.9 1.12065 1.54422 0
M  V30 6952 C 655.04 2.38189 2.4972 0
M  V30 6953 C 654.153 3.64624 2.31674 0
M  V30 6954 C 653.288 3.9298 3.57407 0
M  V30 6955 C 652.327 5.1266 3.34435 0
M  V30 6956 N 651.464 5.36983 4.5232 0
M  V30 6957 H 656.304 2.86881 0.80642 0
M  V30 6958 H 653.841 1.41925 0.386727 0
M  V30 6959 H 655.799 2.59 3.2707 0
M  V30 6960 H 654.429 1.53275 2.84089 0
M  V30 6961 H 653.481 3.51542 1.45337 0
M  V30 6962 H 654.793 4.52131 2.10664 0
M  V30 6963 H 653.947 4.14335 4.43183 0
M  V30 6964 H 652.686 3.03912 3.8143 0
M  V30 6965 H 651.691 4.9117 2.47048 0
M  V30 6966 H 652.916 6.03288 3.11802 0
M  V30 6967 H 650.862 4.50871 4.76499 0
M  V30 6968 H 650.779 6.18775 4.34343 0
M  V30 6969 H 652.047 5.62842 5.39285 0
M  V30 6970 N 656.276 -0.40816 1.52223 0
M  V30 6971 C 657.239 -1.48 1.7501 0
M  V30 6972 C 658.239 -1.48367 0.619996 0
M  V30 6973 O 659.429 -1.49874 0.887881 0
M  V30 6974 C 656.561 -2.87403 1.83336 0
M  V30 6975 H 657.754 -1.29086 2.70697 0
M  V30 6976 H 655.307 -0.638715 1.42654 0
M  V30 6977 H 656.042 -3.11686 0.895677 0
M  V30 6978 H 655.827 -2.8854 2.65494 0
M  V30 6979 H 657.317 -3.65103 2.02705 0
M  V30 6980 N 657.755 -1.42862 -0.66545 0
M  V30 6981 C 659.171 -1.25993 -0.979687 0
M  V30 6982 C 659.371 -0.170831 -2.00775 0
M  V30 6983 O 658.427 0.454827 -2.4837 0
M  V30 6984 C 659.74 -2.62005 -1.47559 0
M  V30 6985 C 661.288 -2.69437 -1.59288 0
M  V30 6986 C 661.763 -4.05838 -2.12272 0
M  V30 6987 N 663.254 -4.0784 -2.19592 0
M  V30 6988 C 663.989 -5.10205 -2.61684 0
M  V30 6989 N 663.485 -6.22949 -3.03161 0
M  V30 6990 N 665.278 -4.9756 -2.61516 0
M  V30 6991 H 657.429 -2.12395 0.0150493 0
M  V30 6992 H 659.692 -0.946355 -0.0558187 0
M  V30 6993 H 659.398 -3.42605 -0.794654 0
M  V30 6994 H 659.272 -2.86566 -2.45275 0
M  V30 6995 H 661.659 -1.89178 -2.26486 0
M  V30 6996 H 661.74 -2.48655 -0.600374 0
M  V30 6997 H 661.384 -4.86559 -1.4568 0
M  V30 6998 H 661.314 -4.23977 -3.12331 0
M  V30 6999 H 663.805 -3.26452 -1.90361 0
M  V30 7000 H 664.118 -6.96899 -3.33993 0
M  V30 7001 H 662.463 -6.2644 -3.00995 0
M  V30 7002 H 665.654 -4.08551 -2.28481 0
M  V30 7003 H 665.827 -5.77468 -2.93999 0
M  V30 7004 N 659.233 0.902656 -1.29189 0
M  V30 7005 C 660.18 2.00643 -1.14066 0
M  V30 7006 C 661.15 1.66064 -0.0347756 0
M  V30 7007 O 662.335 1.8973 -0.201752 0
M  V30 7008 C 659.475 3.35214 -0.820104 0
M  V30 7009 C 658.588 3.82594 -2.00614 0
M  V30 7010 C 657.723 5.05727 -1.62522 0
M  V30 7011 C 656.762 5.45469 -2.77724 0
M  V30 7012 N 655.899 6.59789 -2.40048 0
M  V30 7013 H 660.739 2.1291 -2.08502 0
M  V30 7014 H 658.276 1.04271 -1.03759 0
M  V30 7015 H 660.234 4.12643 -0.614949 0
M  V30 7016 H 658.864 3.22682 0.0873452 0
M  V30 7017 H 657.916 3.01226 -2.32308 0
M  V30 7018 H 659.228 4.07999 -2.86946 0
M  V30 7019 H 658.382 5.90732 -1.38277 0
M  V30 7020 H 657.121 4.82155 -0.733333 0
M  V30 7021 H 656.126 4.59 -3.02653 0
M  V30 7022 H 657.351 5.71024 -3.67572 0
M  V30 7023 H 655.297 6.37826 -1.53343 0
M  V30 7024 H 655.214 6.84975 -3.19914 0
M  V30 7025 H 656.482 7.4807 -2.19116 0
M  V30 7026 N 660.711 1.11618 1.11262 0
M  V30 7027 C 661.958 0.86618 1.8304 0
M  V30 7028 C 662.286 -0.608149 1.84748 0
M  V30 7029 O 661.541 -1.46508 1.29745 0
M  V30 7030 C 661.84 1.37529 3.2988 0
M  V30 7031 C 661.506 2.86317 3.4833 0
M  V30 7032 C 660.168 3.26945 3.53073 0
M  V30 7033 C 662.52 3.82136 3.54431 0
M  V30 7034 C 659.848 4.62117 3.61475 0
M  V30 7035 C 662.2 5.17128 3.64365 0
M  V30 7036 C 660.864 5.57312 3.67369 0
M  V30 7037 H 660.134 0.316958 0.66979 0
M  V30 7038 H 662.781 1.3949 1.31205 0
M  V30 7039 H 661.086 0.766842 3.84222 0
M  V30 7040 H 662.783 1.15817 3.83911 0
M  V30 7041 H 659.373 2.53889 3.45309 0
M  V30 7042 H 663.557 3.51847 3.50025 0
M  V30 7043 H 658.813 4.92655 3.62079 0
M  V30 7044 H 662.987 5.91208 3.68029 0
M  V30 7045 H 660.614 6.62045 3.73632 0
M  V30 7046 N 662.189 -1.289 0.906776 0
M  V30 7047 C 663.414 -1.99939 0.551303 0
M  V30 7048 C 663.839 -1.67366 -0.858496 0
M  V30 7049 O 663.197 -0.902176 -1.57259 0
M  V30 7050 C 663.245 -3.52523 0.758937 0
M  V30 7051 O 662.349 -4.11983 -0.185308 0
M  V30 7052 H 661.69 -0.628376 0.214568 0
M  V30 7053 H 664.22 -1.64225 1.2203 0
M  V30 7054 H 664.23 -4.02522 0.666329 0
M  V30 7055 H 662.905 -3.75566 1.78671 0
M  V30 7056 H 661.482 -3.72873 -0.0445577 0
M  V30 7057 N 663.667 -0.670007 -1.42649 0
M  V30 7058 C 664.892 -0.196955 -2.06463 0
M  V30 7059 C 665.317 1.1352 -1.49983 0
M  V30 7060 O 664.675 1.705 -0.616397 0
M  V30 7061 C 664.723 -0.137381 -3.60338 0
M  V30 7062 O 663.827 0.895523 -4.02559 0
M  V30 7063 H 663.168 -0.102579 -0.656029 0
M  V30 7064 H 665.698 -0.917669 -1.82866 0
M  V30 7065 H 665.708 0.0403625 -4.0798 0
M  V30 7066 H 664.383 -1.10977 -4.0082 0
M  V30 7067 H 662.96 0.689209 -3.66476 0
M  V30 7068 N 665.145 1.52092 -0.413018 0
M  V30 7069 C 666.055 2.30858 0.417318 0
M  V30 7070 C 667.071 1.38746 1.05003 0
M  V30 7071 O 668.247 1.71821 1.05069 0
M  V30 7072 C 665.312 3.11756 1.51687 0
M  V30 7073 C 664.373 4.19613 0.906825 0
M  V30 7074 C 663.606 4.96644 1.95399 0
M  V30 7075 O 663.829 4.7402 3.17271 0
M  V30 7076 O 662.763 5.81385 1.55805 0
M  V30 7077 H 666.589 3.02865 -0.225028 0
M  V30 7078 H 664.174 1.48358 -0.176126 0
M  V30 7079 H 666.056 3.62122 2.15512 0
M  V30 7080 H 664.731 2.42539 2.14375 0
M  V30 7081 H 663.638 3.73385 0.231183 0
M  V30 7082 H 664.971 4.91134 0.323814 0
M  V30 7083 N 666.623 0.143563 1.56945 0
M  V30 7084 C 667.555 -0.828353 2.13708 0
M  V30 7085 C 668.568 -1.21313 1.08568 0
M  V30 7086 O 669.757 -1.1578 1.35857 0
M  V30 7087 C 666.857 -2.12248 2.64204 0
M  V30 7088 C 666.03 -1.90561 3.93707 0
M  V30 7089 C 665.089 -3.03931 4.29549 0
M  V30 7090 O 664.115 -2.75772 4.97934 0
M  V30 7091 N 665.317 -4.31016 3.88852 0
M  V30 7092 H 668.082 -0.343242 2.97728 0
M  V30 7093 H 665.643 -0.0401152 1.6185 0
M  V30 7094 H 667.635 -2.87132 2.85197 0
M  V30 7095 H 666.205 -2.52033 1.84928 0
M  V30 7096 H 665.425 -0.997327 3.81375 0
M  V30 7097 H 666.713 -1.73405 4.78339 0
M  V30 7098 H 666.111 -4.56762 3.33743 0
M  V30 7099 H 664.668 -5.02691 4.14903 0
M  V30 7100 N 668.101 -1.57061 -0.130224 0
M  V30 7101 C 669.329 -1.88432 -0.854456 0
M  V30 7102 C 669.744 -0.733608 -1.73964 0
M  V30 7103 O 669.101 0.296029 -1.80083 0
M  V30 7104 C 669.152 -3.1918 -1.69724 0
M  V30 7105 O 668.873 -4.2982 -0.847705 0
M  V30 7106 C 670.374 -3.6418 -2.5276 0
M  V30 7107 H 667.594 -0.624193 -0.246221 0
M  V30 7108 H 670.138 -2.04159 -0.11798 0
M  V30 7109 H 668.293 -3.05156 -2.3866 0
M  V30 7110 H 668.707 -5.04689 -1.42792 0
M  V30 7111 H 670.181 -4.58457 -3.07443 0
M  V30 7112 H 670.658 -2.90285 -3.29592 0
M  V30 7113 H 671.264 -3.80954 -1.89087 0
M  V30 7114 N 669.579 0.400081 -1.52437 0
M  V30 7115 C 670.995 0.739359 -1.41441 0
M  V30 7116 C 671.195 1.94512 -0.526053 0
M  V30 7117 O 670.251 2.525 0.00472502 0
M  V30 7118 C 671.564 0.984824 -2.84116 0
M  V30 7119 C 673.112 1.08698 -2.93519 0
M  V30 7120 C 673.587 1.36515 -4.37181 0
M  V30 7121 N 675.078 1.43361 -4.40457 0
M  V30 7122 C 675.813 1.66528 -5.48686 0
M  V30 7123 N 675.309 1.87239 -6.67018 0
M  V30 7124 N 677.102 1.68617 -5.36213 0
M  V30 7125 H 669.253 -0.393484 -2.08723 0
M  V30 7126 H 671.516 -0.1138 -0.941145 0
M  V30 7127 H 671.222 0.171096 -3.51284 0
M  V30 7128 H 671.096 1.90253 -3.25705 0
M  V30 7129 H 673.483 1.89129 -2.26526 0
M  V30 7130 H 673.564 0.147432 -2.55375 0
M  V30 7131 H 673.208 0.565982 -5.04737 0
M  V30 7132 H 673.138 2.31737 -4.7287 0
M  V30 7133 H 675.629 1.29108 -3.55161 0
M  V30 7134 H 675.942 2.04392 -7.45281 0
M  V30 7135 H 674.287 1.84486 -6.70067 0
M  V30 7136 H 677.478 1.5198 -4.42741 0
M  V30 7137 H 677.651 1.86332 -6.20632 0
M  V30 7138 N 671.057 1.43213 0.657864 0
M  V30 7139 C 672.02 1.47687 1.75275 0
M  V30 7140 C 673.02 0.362179 1.56668 0
M  V30 7141 O 674.21 0.623734 1.62651 0
M  V30 7142 C 671.342 1.32497 3.14098 0
M  V30 7143 H 672.535 2.4519 1.7269 0
M  V30 7144 H 670.088 1.2991 0.869087 0
M  V30 7145 H 670.823 0.359831 3.22298 0
M  V30 7146 H 670.608 2.13299 3.29008 0
M  V30 7147 H 672.098 1.38549 3.93946 0
M  V30 7148 N 672.536 -0.895792 1.29666 0
M  V30 7149 C 673.484 -2.02173 1.15017 0
M  V30 7150 C 674.478 -1.69276 0.0647651 0
M  V30 7151 O 675.684 -1.7859 0.224846 0
M  V30 7152 H 672.059 -0.662719 0.355397 0
M  V30 7153 H 674.03 -2.11666 2.10334 0
M  V30 7154 C 672.779 -3.37212 0.847555 0
M  V30 7155 H 672.102 -3.6303 1.67479 0
M  V30 7156 H 673.542 -4.16668 0.785106 0
M  V30 7157 C 672.001 -3.33891 -0.44929 0
M  V30 7158 O 672.531 -3.73673 -1.47415 0
M  V30 7159 N 670.737 -2.86991 -0.456547 0
M  V30 7160 H 670.284 -2.54813 0.377925 0
M  V30 7161 H 670.242 -2.85152 -1.32423 0
M  V30 7162 N 674.014 -1.12206 -1.10668 0
M  V30 7163 C 675.239 -0.898938 -1.86906 0
M  V30 7164 C 675.664 0.546346 -1.79991 0
M  V30 7165 O 675.022 1.38655 -1.1681 0
M  V30 7166 C 675.07 -1.37529 -3.33344 0
M  V30 7167 O 674.174 -0.55218 -4.08687 0
M  V30 7168 H 673.515 -0.323163 -0.580053 0
M  V30 7169 H 676.045 -1.49355 -1.39837 0
M  V30 7170 H 676.055 -1.3733 -3.84193 0
M  V30 7171 H 674.73 -2.42767 -3.37693 0
M  V30 7172 H 673.307 -0.620947 -3.67694 0
M  V30 7173 N 675.492 1.28418 -0.913599 0
M  V30 7174 C 676.903 1.77024 -0.593237 0
M  V30 7175 C 677.254 1.74779 0.891441 0
M  V30 7176 O 676.379 1.34237 1.69733 0
M  V30 7177 C 676.974 3.21456 -1.07011 0
M  V30 7178 C 675.533 3.67786 -0.800664 0
M  V30 7179 C 674.68 2.48185 -1.23691 0
M  V30 7180 H 677.631 1.14883 -1.09487 0
M  V30 7181 H 677.652 3.78269 -0.411481 0
M  V30 7182 H 677.164 3.23058 -2.1507 0
M  V30 7183 H 675.265 3.71644 0.266725 0
M  V30 7184 H 675.378 4.57934 -1.4083 0
M  V30 7185 H 673.742 2.46116 -0.655655 0
M  V30 7186 H 674.525 2.52506 -2.32585 0
M  V30 7187 N 676.97 0.677563 1.42291 0
M  V30 7188 C 678.219 0.198173 2.00724 0
M  V30 7189 C 678.532 -1.20325 1.54211 0
M  V30 7190 O 679.738 -1.77916 2.05081 0
M  V30 7191 C 678.194 0.303432 3.58619 0
M  V30 7192 C 677.802 1.70909 4.14119 0
M  V30 7193 C 679.546 -0.117103 4.24338 0
M  V30 7194 C 677.453 1.76696 5.64387 0
M  V30 7195 H 676.383 0.070329 0.750713 0
M  V30 7196 H 679.034 0.843147 1.62982 0
M  V30 7197 H 677.416 -0.409482 3.93877 0
M  V30 7198 H 678.59 2.44931 3.90315 0
M  V30 7199 H 676.905 2.07771 3.6086 0
M  V30 7200 H 679.502 -0.0940471 5.34617 0
M  V30 7201 H 679.845 -1.15283 4.00019 0
M  V30 7202 H 680.378 0.5449 3.9405 0
M  V30 7203 H 677.117 2.7826 5.93508 0
M  V30 7204 H 676.637 1.07034 5.90173 0
M  V30 7205 H 678.316 1.52166 6.28852 0
M  V30 7206 N 678.448 -1.51871 0.421078 0
M  V30 7207 C 679.864 -1.59435 0.0725398 0
M  V30 7208 C 680.064 -1.43315 -1.41644 0
M  V30 7209 O 679.12 -1.26614 -2.18461 0
M  V30 7210 C 680.433 -2.9509 0.578132 0
M  V30 7211 C 681.981 -3.08356 0.537149 0
M  V30 7212 C 682.456 -4.4651 1.01945 0
M  V30 7213 N 683.947 -4.52784 0.976758 0
M  V30 7214 C 684.682 -5.57976 1.32099 0
M  V30 7215 N 684.178 -6.70664 1.73727 0
M  V30 7216 N 685.971 -5.48248 1.2402 0
M  V30 7217 H 678.122 -1.60595 1.39007 0
M  V30 7218 H 680.385 -0.756138 0.571803 0
M  V30 7219 H 680.091 -3.12205 1.61929 0
M  V30 7220 H 679.965 -3.772 -0.00578374 0
M  V30 7221 H 682.352 -2.90919 -0.494991 0
M  V30 7222 H 682.433 -2.28125 1.15727 0
M  V30 7223 H 682.077 -4.64692 2.04997 0
M  V30 7224 H 682.007 -5.25256 0.376023 0
M  V30 7225 H 684.498 -3.71898 0.670851 0
M  V30 7226 H 684.811 -7.46932 1.98274 0
M  V30 7227 H 683.156 -6.71914 1.77641 0
M  V30 7228 H 686.347 -4.59095 0.913756 0
M  V30 7229 H 686.52 -6.30119 1.51176 0
M  V30 7230 N 679.926 -0.151884 -1.56866 0
M  V30 7231 C 681.342 0.204486 -1.58285 0
M  V30 7232 C 681.542 1.6431 -1.16639 0
M  V30 7233 O 680.598 2.37077 -0.868946 0
M  V30 7234 C 681.911 -0.0587019 -3.00643 0
M  V30 7235 C 683.459 0.00462303 -3.13 0
M  V30 7236 C 683.934 -0.231297 -4.57416 0
M  V30 7237 N 685.425 -0.178394 -4.62856 0
M  V30 7238 C 686.16 -0.335379 -5.72418 0
M  V30 7239 N 685.656 -0.550355 -6.90611 0
M  V30 7240 N 687.449 -0.272641 -5.61438 0
M  V30 7241 H 679.6 -1.09116 -1.82229 0
M  V30 7242 H 681.863 -0.432311 -0.843689 0
M  V30 7243 H 681.569 -1.05453 -3.35518 0
M  V30 7244 H 681.443 0.658508 -3.71407 0
M  V30 7245 H 683.83 0.991009 -2.77962 0
M  V30 7246 H 683.911 -0.744992 -2.44711 0
M  V30 7247 H 683.555 -1.2148 -4.93158 0
M  V30 7248 H 683.485 0.5387 -5.23837 0
M  V30 7249 H 685.976 -0.0170923 -3.77896 0
M  V30 7250 H 686.289 -0.660116 -7.69976 0
M  V30 7251 H 684.634 -0.586736 -6.92519 0
M  V30 7252 H 687.825 -0.105421 -4.67981 0
M  V30 7253 H 687.998 -0.398418 -6.46774 0
M  V30 7254 N 681.404 1.57128 0.121893 0
M  V30 7255 C 682.314 2.03425 1.16857 0
M  V30 7256 C 683.33 0.954108 1.45509 0
M  V30 7257 O 684.506 1.26541 1.56682 0
M  V30 7258 C 681.571 2.42685 2.47599 0
M  V30 7259 C 680.632 3.64767 2.2637 0
M  V30 7260 C 679.865 4.02145 3.50878 0
M  V30 7261 O 680.088 3.39897 4.58068 0
M  V30 7262 O 679.022 4.95262 3.42051 0
M  V30 7263 H 682.848 2.92825 0.80544 0
M  V30 7264 H 680.433 1.45654 0.332477 0
M  V30 7265 H 682.315 2.68684 3.24634 0
M  V30 7266 H 680.99 1.56432 2.83392 0
M  V30 7267 H 679.897 3.43922 1.47203 0
M  V30 7268 H 681.23 4.51716 1.95482 0
M  V30 7269 N 682.882 -0.391992 1.52647 0
M  V30 7270 C 684.298 -0.731848 1.41831 0
M  V30 7271 C 684.498 -1.9423 0.536361 0
M  V30 7272 O 683.554 -2.52499 0.00866571 0
M  V30 7273 C 684.867 -0.969743 2.84634 0
M  V30 7274 C 686.415 -1.0714 2.94092 0
M  V30 7275 C 686.89 -1.34195 4.37899 0
M  V30 7276 N 688.381 -1.41023 4.41211 0
M  V30 7277 C 689.116 -1.63616 5.49561 0
M  V30 7278 N 688.612 -1.83699 6.68002 0
M  V30 7279 N 690.405 -1.65771 5.371 0
M  V30 7280 H 682.556 0.404547 2.08512 0
M  V30 7281 H 684.819 0.11879 0.940528 0
M  V30 7282 H 684.525 -0.152465 3.51369 0
M  V30 7283 H 684.399 -1.88523 3.26709 0
M  V30 7284 H 686.786 -1.87925 2.27526 0
M  V30 7285 H 686.867 -0.133887 2.55449 0
M  V30 7286 H 686.511 -0.539207 5.0503 0
M  V30 7287 H 686.441 -2.29226 4.74092 0
M  V30 7288 H 688.932 -1.27223 3.55841 0
M  V30 7289 H 689.245 -2.00437 7.46354 0
M  V30 7290 H 687.59 -1.8093 6.71036 0
M  V30 7291 H 690.781 -1.4963 4.43541 0
M  V30 7292 H 690.954 -1.83038 6.21612 0
M  V30 7293 N 684.36 -1.4356 -0.65026 0
M  V30 7294 C 685.292 -1.44918 -1.77571 0
M  V30 7295 C 686.305 -0.344925 -1.59104 0
M  V30 7296 O 687.494 -0.609537 -1.6777 0
M  V30 7297 C 684.594 -1.24914 -3.15039 0
M  V30 7298 C 683.767 -2.48232 -3.60138 0
M  V30 7299 C 682.826 -2.23409 -4.76419 0
M  V30 7300 O 681.852 -2.9678 -4.85706 0
M  V30 7301 N 683.054 -1.25259 -5.66825 0
M  V30 7302 H 685.819 -2.41935 -1.76883 0
M  V30 7303 H 683.38 -1.38754 -0.834202 0
M  V30 7304 H 685.372 -1.06185 -3.90521 0
M  V30 7305 H 683.942 -0.363319 -3.10481 0
M  V30 7306 H 683.162 -2.82366 -2.75069 0
M  V30 7307 H 684.45 -3.30296 -3.87017 0
M  V30 7308 H 683.848 -0.646246 -5.61997 0
M  V30 7309 H 682.405 -1.12513 -6.42016 0
M  V30 7310 N 685.838 0.888903 -1.30139 0
M  V30 7311 C 687.084 1.6428 -1.18912 0
M  V30 7312 C 687.417 1.92499 0.256477 0
M  V30 7313 O 686.692 1.54312 1.18397 0
M  V30 7314 C 686.975 2.9851 -2.01405 0
M  V30 7315 C 686.828 2.77288 -3.54163 0
M  V30 7316 C 688.147 3.99383 -1.84882 0
M  V30 7317 H 685.266 0.596148 -0.433333 0
M  V30 7318 H 687.908 1.0289 -1.5973 0
M  V30 7319 H 686.058 3.50907 -1.66722 0
M  V30 7320 H 687.73 2.31709 -3.98884 0
M  V30 7321 H 685.973 2.11867 -3.78543 0
M  V30 7322 H 686.644 3.72717 -4.07168 0
M  V30 7323 H 689.12 3.56132 -2.15196 0
M  V30 7324 H 687.996 4.91222 -2.44934 0
M  V30 7325 H 688.257 4.34674 -0.806902 0
M  V30 7326 N 687.317 1.12792 1.10072 0
M  V30 7327 C 688.563 0.89679 1.82563 0
M  V30 7328 C 688.918 -0.571152 1.83727 0
M  V30 7329 O 688.211 -1.41697 1.28967 0
M  V30 7330 C 688.405 1.4102 3.28403 0
M  V30 7331 C 688.234 2.92652 3.41445 0
M  V30 7332 C 687.004 3.60928 3.53637 0
M  V30 7333 C 689.202 3.9063 3.34534 0
M  V30 7334 N 687.184 5.00638 3.55295 0
M  V30 7335 C 688.555 5.16492 3.42981 0
M  V30 7336 C 690.61 3.82989 3.18157 0
M  V30 7337 C 689.313 6.35609 3.3674 0
M  V30 7338 C 691.339 5.01633 3.13239 0
M  V30 7339 C 690.701 6.26355 3.22272 0
M  V30 7340 H 686.8 0.381482 0.682638 0
M  V30 7341 H 689.384 1.43491 1.31599 0
M  V30 7342 H 687.555 0.899077 3.77851 0
M  V30 7343 H 689.287 1.12075 3.88872 0
M  V30 7344 H 686.042 3.11429 3.56803 0
M  V30 7345 H 686.466 5.73521 3.59725 0
M  V30 7346 H 691.108 2.87454 3.10049 0
M  V30 7347 H 688.826 7.31407 3.43613 0
M  V30 7348 H 692.412 4.97454 3.01713 0
M  V30 7349 H 691.292 7.1662 3.18473 0
M  V30 7350 N 688.795 -1.27931 0.920396 0
M  V30 7351 C 690.211 -1.47085 0.619537 0
M  V30 7352 C 690.411 -1.83463 -0.833291 0
M  V30 7353 O 689.467 -1.94363 -1.61181 0
M  V30 7354 C 690.78 -2.56878 1.56314 0
M  V30 7355 C 692.328 -2.70743 1.57058 0
M  V30 7356 C 692.803 -3.83687 2.50097 0
M  V30 7357 N 694.294 -3.9105 2.48262 0
M  V30 7358 C 695.029 -4.77842 3.16945 0
M  V30 7359 N 694.525 -5.69176 3.94982 0
M  V30 7360 N 696.318 -4.71509 3.06 0
M  V30 7361 H 688.469 -1.02601 1.85975 0
M  V30 7362 H 690.732 -0.511682 0.798051 0
M  V30 7363 H 690.438 -2.36923 2.59923 0
M  V30 7364 H 690.312 -3.54117 1.29928 0
M  V30 7365 H 692.699 -2.90083 0.541832 0
M  V30 7366 H 692.78 -1.74015 1.8749 0
M  V30 7367 H 692.424 -3.65101 3.53077 0
M  V30 7368 H 692.354 -4.79827 2.16964 0
M  V30 7369 H 694.845 -3.25738 1.91581 0
M  V30 7370 H 695.158 -6.32245 4.44394 0
M  V30 7371 H 693.503 -5.68995 3.99086 0
M  V30 7372 H 696.694 -3.99151 2.44533 0
M  V30 7373 H 696.867 -5.38933 3.59799 0
M  V30 7374 N 690.273 -0.685099 -1.4193 0
M  V30 7375 C 691.689 -0.355632 -1.55587 0
M  V30 7376 C 691.889 1.13823 -1.66273 0
M  V30 7377 O 690.945 1.92387 -1.63534 0
M  V30 7378 C 692.258 -1.09498 -2.80055 0
M  V30 7379 C 693.806 -1.07831 -2.93839 0
M  V30 7380 C 694.281 -1.79919 -4.21181 0
M  V30 7381 N 695.772 -1.76837 -4.28115 0
M  V30 7382 C 696.507 -2.29463 -5.25485 0
M  V30 7383 N 696.003 -2.90516 -6.28945 0
M  V30 7384 N 697.796 -2.19779 -5.17353 0
M  V30 7385 H 689.947 -1.65412 -1.33239 0
M  V30 7386 H 692.21 -0.697453 -0.642078 0
M  V30 7387 H 691.916 -2.14997 -2.78333 0
M  V30 7388 H 691.79 -0.666813 -3.71259 0
M  V30 7389 H 694.177 -0.0316152 -2.95083 0
M  V30 7390 H 694.258 -1.54545 -2.03837 0
M  V30 7391 H 693.902 -2.84562 -4.20698 0
M  V30 7392 H 693.832 -1.30647 -5.10136 0
M  V30 7393 H 696.323 -1.32315 -3.53979 0
M  V30 7394 H 696.636 -3.28266 -6.99615 0
M  V30 7395 H 694.981 -2.94589 -6.29478 0
M  V30 7396 H 698.172 -1.71763 -4.35448 0
M  V30 7397 H 698.345 -2.61097 -5.9307 0
M  V30 7398 N 691.751 1.51645 -0.429126 0
M  V30 7399 C 693.028 1.94579 0.199614 0
M  V30 7400 C 693.408 1.3673 1.60836 0
M  V30 7401 O 692.756 0.551062 2.21756 0
M  V30 7402 C 692.966 3.48506 0.185685 0
M  V30 7403 C 694.314 4.22756 0.395282 0
M  V30 7404 O 695.338 3.55219 0.264165 0
M  V30 7405 O 694.197 5.42555 0.655475 0
M  V30 7406 H 691.291 0.816007 0.134393 0
M  V30 7407 H 693.837 1.62577 -0.486513 0
M  V30 7408 H 692.609 3.83045 -0.799508 0
M  V30 7409 H 692.232 3.86927 0.91507 0
M  V30 7410 N 693.229 0.160201 1.56784 0
M  V30 7411 C 694.177 -0.791402 2.18723 0
M  V30 7412 C 695.171 -1.24567 1.14801 0
M  V30 7413 O 696.377 -1.21262 1.33025 0
M  V30 7414 H 692.752 -0.273458 0.700517 0
M  V30 7415 H 694.723 -0.244931 2.97393 0
M  V30 7416 C 693.472 -2.01509 2.83354 0
M  V30 7417 H 692.795 -1.67454 3.63041 0
M  V30 7418 H 694.235 -2.66006 3.30177 0
M  V30 7419 C 692.694 -2.83159 1.82545 0
M  V30 7420 O 693.224 -3.79944 1.30405 0
M  V30 7421 N 691.43 -2.47953 1.51552 0
M  V30 7422 H 690.977 -1.69309 1.94144 0
M  V30 7423 H 690.935 -3.02873 0.843519 0
M  V30 7424 N 694.707 -1.5719 -0.113559 0
M  V30 7425 C 695.655 -2.01725 -1.158 0
M  V30 7426 C 696.649 -0.915105 -1.42556 0
M  V30 7427 O 697.855 -1.10031 -1.42454 0
M  V30 7428 H 694.23 -0.64262 -0.390569 0
M  V30 7429 H 696.201 -2.88666 -0.755926 0
M  V30 7430 C 694.95 -2.44203 -2.47507 0
M  V30 7431 H 694.273 -3.28582 -2.27758 0
M  V30 7432 H 695.713 -2.79158 -3.19135 0
M  V30 7433 C 694.172 -1.30785 -3.10478 0
M  V30 7434 O 694.702 -0.626807 -3.9678 0
M  V30 7435 N 692.908 -1.06352 -2.7044 0
M  V30 7436 H 692.455 -1.61913 -2.00355 0
M  V30 7437 H 692.413 -0.306614 -3.12901 0
M  V30 7438 N 696.185 0.383891 -1.52853 0
M  V30 7439 C 697.41 1.154 -1.7233 0
M  V30 7440 C 697.835 1.82809 -0.44298 0
M  V30 7441 O 697.193 1.71026 0.601645 0
M  V30 7442 C 697.241 2.17386 -2.87708 0
M  V30 7443 O 696.345 3.24082 -2.55038 0
M  V30 7444 H 695.686 0.335709 -0.572883 0
M  V30 7445 H 698.216 0.44662 -1.99666 0
M  V30 7446 H 698.226 2.61296 -3.1335 0
M  V30 7447 H 696.901 1.6771 -3.80587 0
M  V30 7448 H 695.478 2.85273 -2.40153 0
M  V30 7449 N 697.663 1.43903 0.642637 0
M  V30 7450 C 698.593 1.52697 1.76652 0
M  V30 7451 C 699.574 0.380816 1.65782 0
M  V30 7452 O 700.759 0.599432 1.84717 0
M  V30 7453 C 697.889 1.45975 3.15133 0
M  V30 7454 C 696.843 2.58949 3.40778 0
M  V30 7455 C 696.169 2.37279 4.79169 0
M  V30 7456 C 697.469 4.01153 3.34475 0
M  V30 7457 H 699.163 2.46766 1.69549 0
M  V30 7458 H 696.709 1.18767 0.814279 0
M  V30 7459 H 698.662 1.5073 3.93521 0
M  V30 7460 H 697.386 0.484162 3.22991 0
M  V30 7461 H 696.045 2.53564 2.64765 0
M  V30 7462 H 695.693 1.37939 4.83717 0
M  V30 7463 H 695.393 3.13016 4.97287 0
M  V30 7464 H 696.917 2.43834 5.59801 0
M  V30 7465 H 698.331 4.07968 4.02784 0
M  V30 7466 H 696.728 4.77001 3.64129 0
M  V30 7467 H 697.798 4.25539 2.32475 0
M  V30 7468 N 699.141 -0.881989 1.30609 0
M  V30 7469 C 700.366 -1.67236 1.22665 0
M  V30 7470 C 700.791 -1.8696 -0.206777 0
M  V30 7471 O 700.149 -1.4027 -1.14865 0
M  V30 7472 C 700.197 -3.02446 1.96363 0
M  V30 7473 O 699.301 -3.91614 1.29276 0
M  V30 7474 H 698.642 -0.510902 0.424117 0
M  V30 7475 H 701.172 -1.10055 1.72479 0
M  V30 7476 H 701.182 -3.52468 2.055 0
M  V30 7477 H 699.857 -2.8741 3.00613 0
M  V30 7478 H 698.434 -3.50055 1.28514 0
M  V30 7479 N 700.619 -1.13374 -1.09472 0
M  V30 7480 C 701.529 -0.824029 -2.19652 0
M  V30 7481 C 702.545 0.19118 -1.72947 0
M  V30 7482 O 703.721 0.0223464 -2.01388 0
M  V30 7483 C 700.786 -0.294009 -3.45451 0
M  V30 7484 C 699.847 -1.3704 -4.0684 0
M  V30 7485 C 699.08 -0.86558 -5.26634 0
M  V30 7486 O 699.303 0.29702 -5.69626 0
M  V30 7487 O 698.237 -1.63968 -5.79136 0
M  V30 7488 H 702.063 -1.74454 -2.48595 0
M  V30 7489 H 699.648 -0.911155 -1.18399 0
M  V30 7490 H 701.53 -0.00381039 -4.214 0
M  V30 7491 H 700.205 0.598921 -3.18111 0
M  V30 7492 H 699.112 -1.71391 -3.3253 0
M  V30 7493 H 700.445 -2.23746 -4.38405 0
M  V30 7494 N 702.098 1.27442 -0.927168 0
M  V30 7495 C 703.061 2.2512 -0.430525 0
M  V30 7496 C 704.061 1.54357 0.450619 0
M  V30 7497 O 705.251 1.72371 0.251774 0
M  V30 7498 C 702.383 3.38763 0.381144 0
M  V30 7499 H 703.576 2.70569 -1.29354 0
M  V30 7500 H 701.129 1.39355 -0.707806 0
M  V30 7501 H 701.864 2.98695 1.263 0
M  V30 7502 H 701.649 3.91298 -0.250618 0
M  V30 7503 H 703.139 4.11364 0.719012 0
M  V30 7504 N 703.576 0.692616 1.41565 0
M  V30 7505 C 704.824 0.221896 2.00878 0
M  V30 7506 C 705.145 -1.18164 1.5512 0
M  V30 7507 O 704.415 -1.79679 0.78054 0
M  V30 7508 H 702.995 0.0790463 0.742806 0
M  V30 7509 H 705.657 0.893115 1.73232 0
M  V30 7510 H 704.753 0.23702 3.11199 0
M  V30 7511 N 705.054 -1.51416 0.437162 0
M  V30 7512 C 706.017 -2.26312 -0.362729 0
M  V30 7513 C 707.017 -1.29748 -0.949847 0
M  V30 7514 O 708.207 -1.53462 -0.824325 0
M  V30 7515 C 705.339 -3.05475 -1.5132 0
M  V30 7516 H 706.532 -2.98459 0.29365 0
M  V30 7517 H 704.085 -1.55137 0.190327 0
M  V30 7518 H 704.82 -2.37744 -2.20563 0
M  V30 7519 H 704.605 -3.76401 -1.09838 0
M  V30 7520 H 706.095 -3.62209 -2.07833 0
M  V30 7521 N 706.532 -0.168513 -1.56696 0
M  V30 7522 C 707.809 0.523367 -1.88468 0
M  V30 7523 C 708.189 1.81503 -1.07796 0
M  V30 7524 O 707.537 2.27859 -0.171045 0
M  V30 7525 C 707.747 0.767991 -3.40445 0
M  V30 7526 C 709.095 1.09924 -4.10124 0
M  V30 7527 O 710.119 0.856625 -3.45746 0
M  V30 7528 O 708.978 1.55681 -5.23856 0
M  V30 7529 H 706.072 0.269447 -0.781874 0
M  V30 7530 H 708.618 -0.206739 -1.68436 0
M  V30 7531 H 707.39 -0.145254 -3.9103 0
M  V30 7532 H 707.013 1.55151 -3.66079 0
M  V30 7533 N 708.01 1.57248 0.105221 0
M  V30 7534 C 709.426 1.52853 0.459153 0
M  V30 7535 C 709.626 0.883674 1.8109 0
M  V30 7536 O 708.682 0.471864 2.48052 0
M  V30 7537 C 709.995 2.97596 0.43096 0
M  V30 7538 C 711.543 3.08758 0.513536 0
M  V30 7539 C 712.018 4.55089 0.515593 0
M  V30 7540 N 713.509 4.59597 0.576639 0
M  V30 7541 C 714.244 5.70253 0.599904 0
M  V30 7542 N 713.74 6.90368 0.579985 0
M  V30 7543 N 715.533 5.58399 0.643953 0
M  V30 7544 H 707.684 1.97547 -0.780306 0
M  V30 7545 H 709.947 0.902758 -0.289363 0
M  V30 7546 H 709.653 3.48201 -0.494903 0
M  V30 7547 H 709.527 3.55756 1.2537 0
M  V30 7548 H 711.914 2.58148 1.42982 0
M  V30 7549 H 711.995 2.53568 -0.337148 0
M  V30 7550 H 711.639 5.06348 -0.396701 0
M  V30 7551 H 711.569 5.08105 1.38335 0
M  V30 7552 H 714.06 3.73144 0.597639 0
M  V30 7553 H 714.373 7.70462 0.600741 0
M  V30 7554 H 712.718 6.92843 0.547191 0
M  V30 7555 H 715.909 4.63467 0.656975 0
M  V30 7556 H 716.082 6.44644 0.658616 0
M  V30 7557 N 709.488 -0.375779 1.53054 0
M  V30 7558 C 710.42 -1.47963 1.75042 0
M  V30 7559 C 711.433 -1.50073 0.631031 0
M  V30 7560 O 712.622 -1.53736 0.907052 0
M  V30 7561 C 709.722 -2.86767 1.80604 0
M  V30 7562 C 708.895 -3.08471 3.10104 0
M  V30 7563 C 707.954 -4.27332 3.07041 0
M  V30 7564 O 706.98 -4.22998 3.80869 0
M  V30 7565 N 708.182 -5.34214 2.27147 0
M  V30 7566 H 710.947 -1.29484 2.70285 0
M  V30 7567 H 708.508 -0.565416 1.51706 0
M  V30 7568 H 710.5 -3.64404 1.76045 0
M  V30 7569 H 709.07 -2.98542 0.926897 0
M  V30 7570 H 708.29 -2.18583 3.28048 0
M  V30 7571 H 709.578 -3.19834 3.95706 0
M  V30 7572 H 708.976 -5.40594 1.66656 0
M  V30 7573 H 707.533 -6.10467 2.28415 0
M  V30 7574 N 710.966 -1.44241 -0.634997 0
M  V30 7575 C 712.214 -1.46531 -1.39187 0
M  V30 7576 C 712.535 -0.0976441 -1.94755 0
M  V30 7577 O 711.805 0.869528 -1.75545 0
M  V30 7578 H 710.385 -0.539544 -0.516625 0
M  V30 7579 H 713.047 -1.79989 -0.747655 0
M  V30 7580 H 712.143 -2.18848 -2.22513 0
M  V30 7581 N 712.444 0.87505 -1.31075 0
M  V30 7582 C 713.672 1.66058 -1.23419 0
M  V30 7583 C 714.087 1.87723 0.201347 0
M  V30 7584 O 713.444 1.43178 1.13165 0
M  V30 7585 C 713.495 3.03142 -1.96945 0
M  V30 7586 O 713.216 2.82448 -3.34895 0
M  V30 7587 C 714.717 3.97583 -1.96067 0
M  V30 7588 H 711.937 0.517868 -0.426677 0
M  V30 7589 H 714.481 1.09258 -1.72867 0
M  V30 7590 H 712.636 3.56645 -1.51271 0
M  V30 7591 H 713.05 3.69483 -3.72267 0
M  V30 7592 H 714.524 4.91104 -2.52034 0
M  V30 7593 H 715.001 4.2898 -0.941961 0
M  V30 7594 H 715.607 3.50015 -2.41597 0
M  V30 7595 N 713.922 1.13953 1.08869 0
M  V30 7596 C 715.168 0.906151 1.8143 0
M  V30 7597 C 715.501 -0.566089 1.85766 0
M  V30 7598 O 714.776 -1.41915 1.33006 0
M  V30 7599 C 715.059 1.50183 3.27287 0
M  V30 7600 C 714.912 3.04359 3.31189 0
M  V30 7601 C 716.231 1.17477 4.24131 0
M  V30 7602 H 713.35 0.330624 0.658678 0
M  V30 7603 H 715.992 1.40873 1.27495 0
M  V30 7604 H 714.142 1.07442 3.73348 0
M  V30 7605 H 715.814 3.55896 2.93488 0
M  V30 7606 H 714.057 3.39053 2.70602 0
M  V30 7607 H 714.728 3.41141 4.33966 0
M  V30 7608 H 717.204 1.5442 3.86385 0
M  V30 7609 H 716.08 1.61795 5.24513 0
M  V30 7610 H 716.341 0.0893312 4.4201 0
M  V30 7611 N 715.4 -1.26948 0.933913 0
M  V30 7612 C 716.625 -1.98724 0.593589 0
M  V30 7613 C 717.05 -1.6915 -0.822801 0
M  V30 7614 O 716.408 -0.93533 -1.5531 0
M  V30 7615 C 716.456 -3.50834 0.833542 0
M  V30 7616 O 715.56 -4.12284 -0.0978788 0
M  V30 7617 H 714.901 -0.623683 0.227849 0
M  V30 7618 H 717.431 -1.61599 1.25486 0
M  V30 7619 H 717.441 -4.01018 0.75156 0
M  V30 7620 H 716.116 -3.71691 1.86597 0
M  V30 7621 H 714.693 -3.72884 0.0345443 0
M  V30 7622 N 716.879 -0.700114 -1.41195 0
M  V30 7623 C 718.126 -0.233006 -2.01155 0
M  V30 7624 C 718.454 1.16883 -1.55462 0
M  V30 7625 O 717.709 1.80395 -0.758695 0
M  V30 7626 C 718.008 -0.243986 -3.56566 0
M  V30 7627 C 717.674 -1.59397 -4.21786 0
M  V30 7628 C 716.336 -1.96355 -4.39316 0
M  V30 7629 C 718.688 -2.48192 -4.58312 0
M  V30 7630 C 716.016 -3.21683 -4.9065 0
M  V30 7631 C 718.368 -3.72857 -5.11039 0
M  V30 7632 C 717.032 -4.09951 -5.26779 0
M  V30 7633 H 716.302 -0.085263 -0.736078 0
M  V30 7634 H 718.949 -0.9001 -1.69028 0
M  V30 7635 H 717.254 0.506663 -3.8851 0
M  V30 7636 H 718.951 0.135031 -4.00773 0
M  V30 7637 H 715.541 -1.29654 -4.08519 0
M  V30 7638 H 719.725 -2.20918 -4.4442 0
M  V30 7639 H 714.981 -3.50412 -5.01021 0
M  V30 7640 H 719.155 -4.41844 -5.38282 0
M  V30 7641 H 716.782 -5.07136 -5.66319 0
M  V30 7642 N 718.357 1.51182 -0.445186 0
M  V30 7643 C 719.582 2.07056 0.119445 0
M  V30 7644 C 720.007 1.30966 1.35016 0
M  V30 7645 O 719.365 0.349827 1.77893 0
M  V30 7646 C 719.413 3.58234 0.412428 0
M  V30 7647 O 718.517 3.84249 1.49754 0
M  V30 7648 H 717.858 0.663998 -0.00157797 0
M  V30 7649 H 720.388 1.94699 -0.628779 0
M  V30 7650 H 720.398 4.02617 0.660583 0
M  V30 7651 H 719.073 4.13038 -0.487049 0
M  V30 7652 H 717.65 3.51724 1.23873 0
M  V30 7653 N 719.835 0.176821 1.56605 0
M  V30 7654 C 721.082 -0.466715 1.97048 0
M  V30 7655 C 721.41 -1.6288 1.06302 0
M  V30 7656 O 720.665 -1.95453 0.0982571 0
M  V30 7657 C 720.964 -0.986208 3.43524 0
M  V30 7658 C 720.63 0.0605667 4.50859 0
M  V30 7659 C 719.292 0.348242 4.79938 0
M  V30 7660 C 721.644 0.770794 5.15469 0
M  V30 7661 C 718.972 1.35144 5.70923 0
M  V30 7662 C 721.324 1.76301 6.07537 0
M  V30 7663 C 719.988 2.05808 6.3498 0
M  V30 7664 H 719.258 -0.170783 0.721051 0
M  V30 7665 H 721.905 0.269942 1.89588 0
M  V30 7666 H 720.21 -1.80079 3.47964 0
M  V30 7667 H 721.907 -1.49323 3.72161 0
M  V30 7668 H 718.497 -0.173823 4.28247 0
M  V30 7669 H 722.681 0.56176 4.9311 0
M  V30 7670 H 717.937 1.58616 5.90467 0
M  V30 7671 H 722.111 2.31868 6.56666 0
M  V30 7672 H 719.738 2.8369 7.05283 0
M  V30 7673 N 721.313 -1.57302 -0.09688 0
M  V30 7674 C 722.724 -1.7496 -0.651595 0
M  V30 7675 C 723.075 -0.798746 -1.79205 0
M  V30 7676 O 722.2 0.0231858 -2.16388 0
M  V30 7677 C 722.795 -3.17259 -1.18878 0
M  V30 7678 C 721.354 -3.36348 -1.68958 0
M  V30 7679 C 720.501 -2.70766 -0.598413 0
M  V30 7680 H 723.452 -1.58173 0.12918 0
M  V30 7681 H 723.473 -3.20033 -2.05814 0
M  V30 7682 H 722.985 -3.8644 -0.358523 0
M  V30 7683 H 721.086 -2.72243 -2.5439 0
M  V30 7684 H 721.199 -4.44654 -1.7838 0
M  V30 7685 H 719.563 -2.32615 -1.03743 0
M  V30 7686 H 720.346 -3.42586 0.221238 0
M  V30 7687 N 722.791 0.367657 -1.53252 0
M  V30 7688 C 723.723 1.47032 -1.75824 0
M  V30 7689 C 724.736 1.49736 -0.63898 0
M  V30 7690 O 725.925 1.53253 -0.915193 0
M  V30 7691 C 723.025 2.85805 -1.82122 0
M  V30 7692 C 722.198 3.06822 -3.11736 0
M  V30 7693 C 721.257 4.25698 -3.09302 0
M  V30 7694 O 720.283 4.20972 -3.83107 0
M  V30 7695 N 721.485 5.33002 -2.29977 0
M  V30 7696 H 724.25 1.28048 -2.70968 0
M  V30 7697 H 721.811 0.557363 -1.52004 0
M  V30 7698 H 723.803 3.63465 -1.77975 0
M  V30 7699 H 722.373 2.98046 -0.942716 0
M  V30 7700 H 721.593 2.1684 -3.29202 0
M  V30 7701 H 722.881 3.17731 -3.97397 0
M  V30 7702 H 722.279 5.39703 -1.69521 0
M  V30 7703 H 720.836 6.09247 -2.3165 0
M  V30 7704 N 724.269 1.44576 0.627338 0
M  V30 7705 C 725.518 1.46837 1.38281 0
M  V30 7706 C 725.831 0.10635 1.95311 0
M  V30 7707 O 727.037 0.00651084 2.71499 0
M  V30 7708 C 725.493 2.58527 2.50384 0
M  V30 7709 C 725.101 4.00953 1.99851 0
M  V30 7710 C 726.845 2.70013 3.27557 0
M  V30 7711 C 724.752 5.0406 3.09318 0
M  V30 7712 H 723.682 0.546319 0.519664 0
M  V30 7713 H 726.333 1.70654 0.674497 0
M  V30 7714 H 724.715 2.27957 3.23808 0
M  V30 7715 H 725.889 4.41108 1.33267 0
M  V30 7716 H 724.204 3.93743 1.35482 0
M  V30 7717 H 726.801 3.44217 4.09168 0
M  V30 7718 H 727.144 1.75961 3.77284 0
M  V30 7719 H 727.677 3.00011 2.61224 0
M  V30 7720 H 724.416 5.99753 2.6453 0
M  V30 7721 H 723.936 4.68493 3.74532 0
M  V30 7722 H 725.615 5.2793 3.74031 0
M  V30 7723 N 725.747 -0.868086 1.31537 0
M  V30 7724 C 726.975 -1.65402 1.24298 0
M  V30 7725 C 727.39 -1.87827 -0.191389 0
M  V30 7726 O 726.747 -1.43776 -1.12404 0
M  V30 7727 C 726.798 -3.02093 1.9855 0
M  V30 7728 O 726.519 -2.80668 3.36388 0
M  V30 7729 C 728.02 -3.96538 1.98173 0
M  V30 7730 H 725.24 -0.515598 0.429417 0
M  V30 7731 H 727.784 -1.0834 1.73444 0
M  V30 7732 H 725.939 -3.55838 1.53161 0
M  V30 7733 H 726.353 -3.67504 3.74221 0
M  V30 7734 H 727.827 -4.8976 2.54635 0
M  V30 7735 H 728.304 -4.28474 0.964697 0
M  V30 7736 H 728.91 -3.48729 2.4345 0
M  V30 7737 N 727.225 -1.14528 -1.08264 0
M  V30 7738 C 728.155 -0.856356 -2.1723 0
M  V30 7739 C 729.136 0.189251 -1.69044 0
M  V30 7740 O 730.321 0.0456119 -1.94146 0
M  V30 7741 C 727.451 -0.334662 -3.45684 0
M  V30 7742 C 726.405 -1.31588 -4.0727 0
M  V30 7743 C 725.731 -0.653428 -5.30692 0
M  V30 7744 C 727.031 -2.67866 -4.48381 0
M  V30 7745 H 728.725 -1.76755 -2.41657 0
M  V30 7746 H 726.271 -0.851287 -1.16143 0
M  V30 7747 H 728.224 -0.120128 -4.21229 0
M  V30 7748 H 726.948 0.611967 -3.20815 0
M  V30 7749 H 725.607 -1.51661 -3.33758 0
M  V30 7750 H 725.255 0.299054 -5.0211 0
M  V30 7751 H 724.955 -1.30817 -5.72853 0
M  V30 7752 H 726.479 -0.448453 -6.08951 0
M  V30 7753 H 727.893 -2.51692 -5.15096 0
M  V30 7754 H 726.29 -3.29627 -5.01464 0
M  V30 7755 H 727.36 -3.24632 -3.60198 0
M  V30 7756 N 728.703 1.26451 -0.940633 0
M  V30 7757 C 729.949 1.94401 -0.598303 0
M  V30 7758 C 730.304 1.72449 0.853178 0
M  V30 7759 O 729.597 1.0506 1.60228 0
M  V30 7760 C 729.791 3.46503 -0.875794 0
M  V30 7761 C 729.62 3.83247 -2.3527 0
M  V30 7762 C 728.39 4.06032 -3.00776 0
M  V30 7763 C 730.588 3.91841 -3.33114 0
M  V30 7764 N 728.57 4.29656 -4.38485 0
M  V30 7765 C 729.941 4.19991 -4.56078 0
M  V30 7766 C 731.996 3.74466 -3.28146 0
M  V30 7767 C 730.699 4.32574 -5.74693 0
M  V30 7768 C 732.725 3.88281 -4.46085 0
M  V30 7769 C 732.087 4.16829 -5.67831 0
M  V30 7770 H 728.186 0.734168 -0.269297 0
M  V30 7771 H 730.77 1.52541 -1.20992 0
M  V30 7772 H 728.941 3.87292 -0.293223 0
M  V30 7773 H 730.673 4.01664 -0.494788 0
M  V30 7774 H 727.428 4.01369 -2.51396 0
M  V30 7775 H 727.852 4.45501 -5.09762 0
M  V30 7776 H 732.494 3.51424 -2.35077 0
M  V30 7777 H 730.212 4.54438 -6.68215 0
M  V30 7778 H 733.798 3.76241 -4.43773 0
M  V30 7779 H 732.678 4.27284 -6.5757 0
M  V30 7780 N 730.181 0.707592 1.40822 0
M  V30 7781 C 731.113 0.0105968 2.29198 0
M  V30 7782 C 732.126 -0.732035 1.45414 0
M  V30 7783 O 733.315 -0.580741 1.68789 0
M  V30 7784 C 730.415 -1.00921 3.23525 0
M  V30 7785 C 729.588 -0.333747 4.36125 0
M  V30 7786 C 728.647 -1.25783 5.10945 0
M  V30 7787 O 727.673 -0.745646 5.64295 0
M  V30 7788 N 728.875 -2.58947 5.19545 0
M  V30 7789 H 731.64 0.76938 2.89656 0
M  V30 7790 H 729.201 0.554579 1.52105 0
M  V30 7791 H 731.193 -1.6294 3.70449 0
M  V30 7792 H 729.763 -1.66942 2.6429 0
M  V30 7793 H 728.983 0.466518 3.9143 0
M  V30 7794 H 730.271 0.135444 5.0862 0
M  V30 7795 H 729.669 -3.03065 4.7767 0
M  V30 7796 H 728.226 -3.16131 5.70004 0
M  V30 7797 N 731.66 -1.50943 0.453197 0
M  V30 7798 C 733.076 -1.59245 0.106342 0
M  V30 7799 C 733.276 -1.46287 -1.38572 0
M  V30 7800 O 732.332 -1.31219 -2.15726 0
M  V30 7801 C 733.645 -2.93797 0.640595 0
M  V30 7802 C 735.193 -3.07148 0.602435 0
M  V30 7803 C 735.668 -4.44247 1.11393 0
M  V30 7804 N 737.159 -4.50611 1.07258 0
M  V30 7805 C 737.894 -5.55049 1.43905 0
M  V30 7806 N 737.39 -6.66828 1.87914 0
M  V30 7807 N 739.183 -5.45494 1.35621 0
M  V30 7808 H 731.334 -1.5761 1.42382 0
M  V30 7809 H 733.597 -0.74384 0.587713 0
M  V30 7810 H 733.303 -3.087 1.68515 0
M  V30 7811 H 733.177 -3.77127 0.0742272 0
M  V30 7812 H 735.564 -2.91903 -0.433171 0
M  V30 7813 H 735.645 -2.25619 1.20539 0
M  V30 7814 H 735.289 -4.60239 2.14808 0
M  V30 7815 H 735.219 -5.2434 0.487353 0
M  V30 7816 H 737.71 -3.70391 0.749585 0
M  V30 7817 H 738.023 -7.42558 2.14072 0
M  V30 7818 H 736.368 -6.67995 1.91853 0
M  V30 7819 H 739.559 -4.57053 1.01093 0
M  V30 7820 H 739.732 -6.2677 1.64508 0
M  V30 7821 N 733.138 -0.185124 -1.56509 0
M  V30 7822 C 734.549 0.329221 -1.83774 0
M  V30 7823 C 734.9 1.62093 -1.10545 0
M  V30 7824 O 734.025 2.13334 -0.36298 0
M  V30 7825 C 734.62 0.604099 -3.33371 0
M  V30 7826 C 733.179 1.06284 -3.61083 0
M  V30 7827 C 732.326 0.10608 -2.77097 0
M  V30 7828 H 735.277 -0.409116 -1.53336 0
M  V30 7829 H 735.298 1.45458 -3.51599 0
M  V30 7830 H 734.81 -0.336201 -3.86641 0
M  V30 7831 H 732.911 2.01777 -3.13236 0
M  V30 7832 H 733.024 0.962453 -4.69333 0
M  V30 7833 H 731.388 0.606082 -2.47384 0
M  V30 7834 H 732.171 -0.828486 -3.33153 0
M  V30 7835 N 734.616 1.57351 0.0885366 0
M  V30 7836 C 735.546 2.05561 1.10757 0
M  V30 7837 C 736.527 0.945789 1.41382 0
M  V30 7838 O 737.712 1.21747 1.51299 0
M  V30 7839 C 734.842 2.48554 2.42566 0
M  V30 7840 C 733.796 3.63259 2.26334 0
M  V30 7841 C 733.122 3.9225 3.63378 0
M  V30 7842 C 734.422 4.93913 1.69844 0
M  V30 7843 H 736.116 2.90946 0.706468 0
M  V30 7844 H 733.662 1.39968 0.338385 0
M  V30 7845 H 735.615 2.8089 3.14132 0
M  V30 7846 H 734.339 1.60176 2.84625 0
M  V30 7847 H 732.998 3.31179 1.57213 0
M  V30 7848 H 732.646 3.0103 4.02976 0
M  V30 7849 H 732.346 4.69478 3.53362 0
M  V30 7850 H 733.87 4.27067 4.36401 0
M  V30 7851 H 735.284 5.24588 2.31258 0
M  V30 7852 H 733.681 5.75349 1.70569 0
M  V30 7853 H 734.751 4.80409 0.65843 0
M  V30 7854 N 736.094 -0.359525 1.53444 0
M  V30 7855 C 737.34 -1.10315 1.70172 0
M  V30 7856 C 737.673 -1.88788 0.455287 0
M  V30 7857 O 736.948 -1.86635 -0.547514 0
M  V30 7858 C 737.231 -2.05744 2.95536 0
M  V30 7859 C 737.084 -1.3084 4.3035 0
M  V30 7860 C 738.403 -3.05784 3.16518 0
M  V30 7861 H 735.522 -0.399662 0.619225 0
M  V30 7862 H 738.164 -0.383338 1.86093 0
M  V30 7863 H 736.314 -2.67125 2.82093 0
M  V30 7864 H 737.986 -0.721959 4.55615 0
M  V30 7865 H 736.229 -0.610283 4.29486 0
M  V30 7866 H 736.9 -2.00718 5.14214 0
M  V30 7867 H 739.376 -2.5451 3.29187 0
M  V30 7868 H 738.252 -3.69772 4.05659 0
M  V30 7869 H 738.513 -3.76289 2.32076 0
M  V30 7870 N 737.572 -1.44907 -0.619662 0
M  V30 7871 C 738.8 -1.51795 -1.40591 0
M  V30 7872 C 739.215 -0.146553 -1.8823 0
M  V30 7873 O 738.572 0.849698 -1.61513 0
M  V30 7874 C 738.623 -2.49229 -2.61853 0
M  V30 7875 O 738.344 -3.81039 -2.16197 0
M  V30 7876 C 739.845 -2.65696 -3.54853 0
M  V30 7877 H 737.065 -0.514463 -0.430777 0
M  V30 7878 H 739.609 -1.8998 -0.756813 0
M  V30 7879 H 737.764 -2.14149 -3.2283 0
M  V30 7880 H 738.178 -4.33747 -2.94896 0
M  V30 7881 H 739.652 -3.37874 -4.36515 0
M  V30 7882 H 740.129 -1.71316 -4.0441 0
M  V30 7883 H 740.735 -3.01724 -2.99737 0
M  V30 7884 N 739.05 0.861098 -1.31996 0
M  V30 7885 C 740.299 1.60965 -1.21545 0
M  V30 7886 C 740.612 1.94325 0.222972 0
M  V30 7887 O 741.818 2.67757 0.449272 0
M  V30 7888 C 740.274 2.90223 -2.12834 0
M  V30 7889 C 739.882 2.64313 -3.61722 0
M  V30 7890 C 741.626 3.68229 -2.11205 0
M  V30 7891 C 739.533 3.89532 -4.44993 0
M  V30 7892 H 738.463 0.603988 -0.451348 0
M  V30 7893 H 741.114 0.951358 -1.56912 0
M  V30 7894 H 739.496 3.57475 -1.70375 0
M  V30 7895 H 740.67 2.05413 -4.12483 0
M  V30 7896 H 738.985 1.99647 -3.65418 0
M  V30 7897 H 741.582 4.61138 -2.70658 0
M  V30 7898 H 741.925 4.01466 -1.1014 0
M  V30 7899 H 742.458 3.07873 -2.51911 0
M  V30 7900 H 739.197 3.61441 -5.46846 0
M  V30 7901 H 738.717 4.47851 -3.98985 0
M  V30 7902 H 740.396 4.57334 -4.57663 0
M  V30 7903 N 740.528 1.15101 1.07655 0
M  V30 7904 C 741.475 0.844958 2.14777 0
M  V30 7905 C 742.445 -0.200798 1.64882 0
M  V30 7906 O 743.63 -0.0690278 1.90675 0
M  V30 7907 C 740.77 0.337018 3.4345 0
M  V30 7908 C 739.883 1.44398 4.07153 0
M  V30 7909 C 739.018 0.892487 5.23649 0
M  V30 7910 C 738.057 1.9766 5.79307 0
M  V30 7911 N 737.194 1.44171 6.87138 0
M  V30 7912 H 742.034 1.76242 2.40297 0
M  V30 7913 H 739.571 0.879435 1.17917 0
M  V30 7914 H 741.529 0.024256 4.17193 0
M  V30 7915 H 740.159 -0.543531 3.18191 0
M  V30 7916 H 739.211 1.87299 3.31094 0
M  V30 7917 H 740.523 2.26262 4.4453 0
M  V30 7918 H 739.677 0.532083 6.04362 0
M  V30 7919 H 738.416 0.0429854 4.87681 0
M  V30 7920 H 737.421 2.34586 4.97242 0
M  V30 7921 H 738.646 2.82982 6.17331 0
M  V30 7922 H 736.592 0.614518 6.53115 0
M  V30 7923 H 736.509 2.19665 7.23383 0
M  V30 7924 H 737.777 1.10945 7.71564 0
M  V30 7925 N 742.006 -1.2595 0.947325 0
M  V30 7926 C 743.255 -1.92759 0.593887 0
M  V30 7927 C 743.568 -1.75083 -0.872093 0
M  V30 7928 O 744.774 -2.36401 -1.33518 0
M  V30 7929 C 743.23 -3.45395 1.01144 0
M  V30 7930 C 742.838 -3.71795 2.49946 0
M  V30 7931 C 744.582 -4.18173 0.730185 0
M  V30 7932 C 742.489 -5.17901 2.85539 0
M  V30 7933 H 741.419 -0.721676 0.218403 0
M  V30 7934 H 744.07 -1.4293 1.15079 0
M  V30 7935 H 742.452 -3.94143 0.383007 0
M  V30 7936 H 743.626 -3.33728 3.17746 0
M  V30 7937 H 741.941 -3.12263 2.75465 0
M  V30 7938 H 744.538 -5.25784 0.972367 0
M  V30 7939 H 744.881 -4.14964 -0.333223 0
M  V30 7940 H 745.414 -3.75309 1.31862 0
M  V30 7941 H 742.153 -5.26216 3.90867 0
M  V30 7942 H 741.673 -5.57042 2.22406 0
M  V30 7943 H 743.352 -5.8596 2.74336 0
M  V30 7944 N 743.484 -0.715051 -1.40445 0
M  V30 7945 C 744.732 -0.253826 -2.005 0
M  V30 7946 C 745.053 1.15681 -1.5698 0
M  V30 7947 O 744.323 1.78414 -0.809027 0
M  V30 7948 H 742.903 -0.0908537 -0.741454 0
M  V30 7949 H 745.565 -0.920561 -1.7179 0
M  V30 7950 H 744.661 -0.286499 -3.10782 0
M  V30 7951 N 744.962 1.50701 -0.461195 0
M  V30 7952 C 746.21 2.01867 0.0970051 0
M  V30 7953 C 746.531 1.34591 1.41104 0
M  V30 7954 O 745.801 0.488041 1.89723 0
M  V30 7955 H 744.381 0.74599 0.0388392 0
M  V30 7956 H 747.043 1.85129 -0.609357 0
M  V30 7957 H 746.139 3.11051 0.255688 0
M  V30 7958 N 746.441 0.193421 1.56409 0
M  V30 7959 C 747.373 -0.759944 2.16235 0
M  V30 7960 C 748.386 -1.17797 1.12373 0
M  V30 7961 O 749.575 -1.11399 1.39472 0
M  V30 7962 C 746.675 -2.03735 2.70823 0
M  V30 7963 C 745.848 -1.77939 3.9957 0
M  V30 7964 C 744.907 -2.90111 4.39001 0
M  V30 7965 O 743.933 -2.59791 5.06456 0
M  V30 7966 N 745.135 -4.18426 4.02368 0
M  V30 7967 H 747.9 -0.248348 2.98669 0
M  V30 7968 H 745.461 0.0113966 1.61896 0
M  V30 7969 H 747.453 -2.77914 2.94187 0
M  V30 7970 H 746.023 -2.46022 1.92852 0
M  V30 7971 H 745.243 -0.875491 3.84355 0
M  V30 7972 H 746.531 -1.58099 4.83614 0
M  V30 7973 H 745.929 -4.45913 3.48106 0
M  V30 7974 H 744.486 -4.89237 4.30686 0
M  V30 7975 N 747.919 -1.57396 -0.0801906 0
M  V30 7976 C 748.849 -2.06145 -1.09665 0
M  V30 7977 C 749.83 -0.953273 -1.40878 0
M  V30 7978 O 751.015 -1.22548 -1.50651 0
M  V30 7979 C 748.145 -2.49836 -2.41245 0
M  V30 7980 C 747.099 -3.64454 -2.24405 0
M  V30 7981 C 746.425 -3.94172 -3.61293 0
M  V30 7982 C 747.725 -4.94807 -1.67223 0
M  V30 7983 H 749.419 -2.91316 -0.691028 0
M  V30 7984 H 746.965 -1.40145 -0.330957 0
M  V30 7985 H 748.918 -2.82552 -3.12638 0
M  V30 7986 H 747.642 -1.61683 -2.83771 0
M  V30 7987 H 746.301 -3.32008 -1.55454 0
M  V30 7988 H 745.949 -3.03163 -4.01374 0
M  V30 7989 H 745.649 -4.71345 -3.50867 0
M  V30 7990 H 747.173 -4.29376 -4.3413 0
M  V30 7991 H 748.587 -5.25807 -2.28472 0
M  V30 7992 H 746.984 -5.76245 -1.67515 0
M  V30 7993 H 748.054 -4.80751 -0.632944 0
M  V30 7994 N 749.397 0.351382 -1.53633 0
M  V30 7995 C 750.344 1.43115 -1.81071 0
M  V30 7996 C 751.314 1.52601 -0.655913 0
M  V30 7997 O 752.499 1.68264 -0.89955 0
M  V30 7998 C 749.639 2.79874 -2.01903 0
M  V30 7999 C 748.752 2.79242 -3.29618 0
M  V30 8000 C 747.887 4.07667 -3.40559 0
M  V30 8001 C 746.926 4.01233 -4.62254 0
M  V30 8002 N 746.063 5.21334 -4.70271 0
M  V30 8003 H 750.903 1.19017 -2.73201 0
M  V30 8004 H 748.44 0.576691 -1.35324 0
M  V30 8005 H 750.398 3.5934 -2.11969 0
M  V30 8006 H 749.028 3.0234 -1.13094 0
M  V30 8007 H 748.08 1.91927 -3.28433 0
M  V30 8008 H 749.392 2.70363 -4.19172 0
M  V30 8009 H 748.546 4.95555 -3.50015 0
M  V30 8010 H 747.285 4.19317 -2.49047 0
M  V30 8011 H 746.29 3.11732 -4.52884 0
M  V30 8012 H 747.515 3.91173 -5.55122 0
M  V30 8013 H 745.461 5.33543 -3.81665 0
M  V30 8014 H 745.378 5.14681 -5.5375 0
M  V30 8015 H 746.646 6.11014 -4.84027 0
M  V30 8016 N 750.875 1.45233 0.611969 0
M  V30 8017 C 751.785 1.56098 1.7513 0
M  V30 8018 C 752.801 0.445646 1.68196 0
M  V30 8019 O 753.977 0.705718 1.88631 0
M  V30 8020 C 751.042 1.52052 3.11579 0
M  V30 8021 C 750.103 2.74589 3.29999 0
M  V30 8022 C 749.336 2.70726 4.59938 0
M  V30 8023 O 749.559 1.77806 5.41979 0
M  V30 8024 O 748.493 3.61864 4.80976 0
M  V30 8025 H 752.319 2.52392 1.68914 0
M  V30 8026 H 749.904 1.27695 0.775528 0
M  V30 8027 H 751.786 1.52387 3.92882 0
M  V30 8028 H 750.461 0.589085 3.18295 0
M  V30 8029 H 749.368 2.79817 2.48301 0
M  V30 8030 H 750.701 3.66843 3.28157 0
M  V30 8031 N 752.353 -0.854086 1.3245 0
M  V30 8032 C 753.316 -1.94427 1.21371 0
M  V30 8033 C 754.316 -1.60219 0.136613 0
M  V30 8034 O 755.506 -1.69846 0.387057 0
M  V30 8035 C 752.638 -3.29698 0.866701 0
M  V30 8036 H 753.831 -2.05679 2.18257 0
M  V30 8037 H 751.384 -1.04434 1.1629 0
M  V30 8038 H 752.119 -3.24145 -0.100319 0
M  V30 8039 H 751.904 -3.55903 1.64545 0
M  V30 8040 H 753.394 -4.09599 0.813515 0
M  V30 8041 N 753.831 -1.1567 -1.07043 0
M  V30 8042 C 754.761 -0.879348 -2.16309 0
M  V30 8043 C 755.742 0.171311 -1.69235 0
M  V30 8044 O 756.927 0.0250175 -1.94184 0
M  V30 8045 C 754.057 -0.371307 -3.45309 0
M  V30 8046 C 753.011 -1.359 -4.05851 0
M  V30 8047 C 752.337 -0.709678 -5.29969 0
M  V30 8048 C 753.637 -2.72606 -4.45514 0
M  V30 8049 H 755.331 -1.79308 -2.39768 0
M  V30 8050 H 752.877 -0.863558 -1.15233 0
M  V30 8051 H 754.83 -0.164798 -4.21078 0
M  V30 8052 H 753.554 0.577906 -3.21446 0
M  V30 8053 H 752.213 -1.55193 -3.32131 0
M  V30 8054 H 751.861 0.245782 -5.02399 0
M  V30 8055 H 751.561 -1.36886 -5.71433 0
M  V30 8056 H 753.085 -0.513015 -6.08441 0
M  V30 8057 H 754.499 -2.57141 -5.12398 0
M  V30 8058 H 752.896 -3.34927 -4.97939 0
M  V30 8059 H 753.966 -3.28434 -3.56734 0
M  V30 8060 N 755.309 1.25446 -0.953992 0
M  V30 8061 C 756.239 2.28264 -0.491717 0
M  V30 8062 C 757.22 1.63717 0.461617 0
M  V30 8063 O 758.405 1.90821 0.36071 0
M  V30 8064 C 755.535 3.46525 0.231915 0
M  V30 8065 C 754.489 4.23247 -0.636098 0
M  V30 8066 C 753.815 5.34254 0.218238 0
M  V30 8067 C 755.115 4.85971 -1.91389 0
M  V30 8068 H 756.809 2.67183 -1.35106 0
M  V30 8069 H 754.355 1.2844 -0.651095 0
M  V30 8070 H 756.308 4.17576 0.566439 0
M  V30 8071 H 755.032 3.06594 1.12551 0
M  V30 8072 H 753.691 3.53978 -0.953696 0
M  V30 8073 H 753.339 4.90564 1.11156 0
M  V30 8074 H 753.039 5.86501 -0.359232 0
M  V30 8075 H 754.563 6.08138 0.547743 0
M  V30 8076 H 755.977 5.49168 -1.64581 0
M  V30 8077 H 754.374 5.48391 -2.43696 0
M  V30 8078 H 755.444 4.08192 -2.61738 0
M  V30 8079 N 756.787 0.722489 1.40064 0
M  V30 8080 C 758.064 0.191829 1.94657 0
M  V30 8081 C 758.444 -1.30389 1.66018 0
M  V30 8082 O 757.792 -2.06342 0.981588 0
M  V30 8083 C 758.002 0.511978 3.45224 0
M  V30 8084 C 759.35 0.454426 4.22161 0
M  V30 8085 O 760.374 0.448438 3.53366 0
M  V30 8086 O 759.233 0.437986 5.44742 0
M  V30 8087 H 756.327 0.0307821 0.826427 0
M  V30 8088 H 758.873 0.800493 1.49634 0
M  V30 8089 H 757.645 1.54622 3.59455 0
M  V30 8090 H 757.268 -0.126296 3.97399 0
M  V30 8091 N 758.265 -1.50454 0.469181 0
M  V30 8092 C 759.493 -2.06729 -0.0842134 0
M  V30 8093 C 759.908 -1.33326 -1.33677 0
M  V30 8094 O 759.265 -0.401977 -1.78018 0
M  V30 8095 C 759.316 -3.59557 -0.374253 0
M  V30 8096 O 759.037 -4.30192 0.828622 0
M  V30 8097 C 760.538 -4.32449 -0.974824 0
M  V30 8098 H 757.758 -0.670971 0.006231 0
M  V30 8099 H 760.302 -1.93645 0.657415 0
M  V30 8100 H 758.457 -3.7245 -1.06581 0
M  V30 8101 H 758.871 -5.21371 0.572066 0
M  V30 8102 H 760.345 -5.40361 -1.12755 0
M  V30 8103 H 760.822 -3.92819 -1.96442 0
M  V30 8104 H 761.428 -4.24082 -0.321703 0
M  V30 8105 N 759.743 -0.201713 -1.56304 0
M  V30 8106 C 760.991 0.434447 -1.97375 0
M  V30 8107 C 761.312 1.61692 -1.08998 0
M  V30 8108 O 760.582 1.95223 -0.162682 0
M  V30 8109 H 759.162 0.163497 -0.728888 0
M  V30 8110 H 761.824 -0.289988 -1.92731 0
M  V30 8111 H 760.92 0.774136 -3.02347 0
M  V30 8112 N 761.222 1.57436 0.0718424 0
M  V30 8113 C 762.185 2.02703 1.06977 0
M  V30 8114 C 763.185 0.924062 1.31597 0
M  V30 8115 O 764.375 1.18894 1.27318 0
M  V30 8116 C 761.507 2.40763 2.41342 0
M  V30 8117 H 762.7 2.92098 0.679619 0
M  V30 8118 H 760.253 1.5304 0.317565 0
M  V30 8119 H 760.988 1.54394 2.8519 0
M  V30 8120 H 760.773 3.21249 2.24814 0
M  V30 8121 H 762.263 2.76361 3.13073 0
M  V30 8122 N 762.7 -0.34323 1.53817 0
M  V30 8123 C 763.977 -1.10047 1.61706 0
M  V30 8124 C 764.357 -2.06495 0.438514 0
M  V30 8125 O 763.705 -2.21297 -0.569188 0
M  V30 8126 C 763.915 -1.81985 2.97796 0
M  V30 8127 C 765.263 -2.35717 3.53161 0
M  V30 8128 O 766.287 -1.9208 2.99973 0
M  V30 8129 O 765.146 -3.15551 4.46195 0
M  V30 8130 H 762.24 -0.506096 0.654061 0
M  V30 8131 H 764.786 -0.344697 1.66162 0
M  V30 8132 H 763.558 -1.11722 3.75012 0
M  V30 8133 H 763.181 -2.64419 2.96931 0
M  V30 8134 N 764.178 -1.45556 -0.604258 0
M  V30 8135 C 765.455 -1.40221 -1.36373 0
M  V30 8136 C 765.835 -0.0745195 -2.10968 0
M  V30 8137 O 765.183 0.943594 -2.08107 0
M  V30 8138 C 765.393 -2.61807 -2.30777 0
M  V30 8139 C 766.741 -3.07037 -2.93281 0
M  V30 8140 O 767.765 -2.62203 -2.41097 0
M  V30 8141 O 766.624 -3.8485 -3.88011 0
M  V30 8142 H 763.718 -0.556602 -0.611656 0
M  V30 8143 H 766.264 -1.57689 -0.627069 0
M  V30 8144 H 765.036 -3.50017 -1.74939 0
M  V30 8145 H 764.659 -2.46688 -3.11818 0
M  V30 8146 N 765.656 0.84705 -1.32902 0
M  V30 8147 C 766.884 1.63403 -1.26913 0
M  V30 8148 C 767.299 1.88108 0.161483 0
M  V30 8149 O 766.656 1.45546 1.10103 0
M  V30 8150 C 766.707 2.98896 -2.03331 0
M  V30 8151 O 766.428 2.75281 -3.40811 0
M  V30 8152 C 767.929 3.93335 -2.04457 0
M  V30 8153 H 765.149 0.508701 -0.437566 0
M  V30 8154 H 767.693 1.05567 -1.75145 0
M  V30 8155 H 765.848 3.53356 -1.58802 0
M  V30 8156 H 766.262 3.61504 -3.8002 0
M  V30 8157 H 767.736 4.85647 -2.62394 0
M  V30 8158 H 768.213 4.26885 -1.03274 0
M  V30 8159 H 768.819 3.44812 -2.48967 0
M  V30 8160 N 767.134 1.16236 1.06428 0
M  V30 8161 C 768.38 0.944431 1.79467 0
M  V30 8162 C 768.713 -0.526558 1.86925 0
M  V30 8163 O 767.988 -1.39061 1.35986 0
M  V30 8164 C 768.271 1.57092 3.24028 0
M  V30 8165 C 768.124 3.11315 3.24658 0
M  V30 8166 C 769.443 1.26447 4.21544 0
M  V30 8167 H 766.562 0.344521 0.651517 0
M  V30 8168 H 769.204 1.43545 1.24478 0
M  V30 8169 H 767.354 1.15337 3.70985 0
M  V30 8170 H 769.026 3.62042 2.85873 0
M  V30 8171 H 767.269 3.44716 2.6335 0
M  V30 8172 H 767.94 3.50269 4.26633 0
M  V30 8173 H 770.416 1.62581 3.83023 0
M  V30 8174 H 769.292 1.72885 5.20963 0
M  V30 8175 H 769.553 0.183068 4.41721 0
M  V30 8176 N 768.612 -1.24939 0.960631 0
M  V30 8177 C 769.542 -2.28 0.503815 0
M  V30 8178 C 770.523 -1.63959 -0.452928 0
M  V30 8179 O 771.708 -1.91009 -0.350585 0
M  V30 8180 C 768.838 -3.46643 -0.213535 0
M  V30 8181 C 767.792 -4.22903 0.658535 0
M  V30 8182 C 767.118 -5.34363 -0.189902 0
M  V30 8183 C 768.418 -4.84949 1.93963 0
M  V30 8184 H 770.112 -2.66462 1.36521 0
M  V30 8185 H 767.658 -1.28093 0.657897 0
M  V30 8186 H 769.611 -4.1787 -0.544286 0
M  V30 8187 H 768.335 -3.07187 -1.10923 0
M  V30 8188 H 766.994 -3.53467 0.972455 0
M  V30 8189 H 766.642 -4.91147 -1.08553 0
M  V30 8190 H 766.342 -5.86302 0.390331 0
M  V30 8191 H 767.866 -6.0842 -0.515484 0
M  V30 8192 H 769.28 -5.48288 1.67491 0
M  V30 8193 H 767.677 -5.47091 2.46601 0
M  V30 8194 H 768.747 -4.06799 2.639 0
M  V30 8195 N 770.09 -0.729906 -1.39679 0
M  V30 8196 C 771 -0.0880322 -2.34435 0
M  V30 8197 C 772.016 0.727674 -1.58053 0
M  V30 8198 O 773.192 0.657321 -1.90371 0
M  V30 8199 C 770.257 0.812211 -3.37052 0
M  V30 8200 C 769.318 -0.0151681 -4.29297 0
M  V30 8201 C 768.551 0.842202 -5.27013 0
M  V30 8202 O 768.774 2.08108 -5.31081 0
M  V30 8203 O 767.708 0.27357 -6.01278 0
M  V30 8204 H 771.534 -0.869989 -2.90972 0
M  V30 8205 H 769.119 -0.490522 -1.41118 0
M  V30 8206 H 771.001 1.32745 -3.99946 0
M  V30 8207 H 769.676 1.57307 -2.82907 0
M  V30 8208 H 768.583 -0.575811 -3.69642 0
M  V30 8209 H 769.916 -0.738129 -4.86634 0
M  V30 8210 N 771.568 1.50203 -0.477153 0
M  V30 8211 C 772.478 2.32421 0.319027 0
M  V30 8212 C 773.494 1.43075 0.990233 0
M  V30 8213 O 774.67 1.76123 0.976873 0
M  V30 8214 C 771.735 3.17909 1.38328 0
M  V30 8215 C 770.796 4.23082 0.728036 0
M  V30 8216 C 770.029 5.04484 1.74158 0
M  V30 8217 O 770.252 4.8705 2.96881 0
M  V30 8218 O 769.186 5.8747 1.31006 0
M  V30 8219 H 773.012 3.01638 -0.353281 0
M  V30 8220 H 770.597 1.47478 -0.238891 0
M  V30 8221 H 772.479 3.70937 1.9996 0
M  V30 8222 H 771.154 2.51413 2.03895 0
M  V30 8223 H 770.061 3.7403 0.07261 0
M  V30 8224 H 771.394 4.92065 0.115216 0
M  V30 8225 N 773.046 0.209999 1.56195 0
M  V30 8226 C 773.979 -0.744546 2.15712 0
M  V30 8227 C 774.957 -1.19917 1.09812 0
M  V30 8228 O 776.141 -1.284 1.38006 0
M  V30 8229 C 773.268 -2.00733 2.72807 0
M  V30 8230 C 772.314 -1.69363 3.91431 0
M  V30 8231 S 773.147 -0.828579 5.29051 0
M  V30 8232 C 774.303 -2.10118 5.89577 0
M  V30 8233 H 774.536 -0.238636 2.96341 0
M  V30 8234 H 772.069 -0.00517877 1.54399 0
M  V30 8235 H 774.027 -2.73246 3.06344 0
M  V30 8236 H 772.688 -2.48436 1.92193 0
M  V30 8237 H 771.881 -2.63157 4.29842 0
M  V30 8238 H 771.483 -1.04921 3.58981 0
M  V30 8239 H 773.775 -3.05231 6.04847 0
M  V30 8240 H 774.718 -1.76116 6.85849 0
M  V30 8241 H 775.126 -2.23644 5.18308 0
M  V30 8242 N 774.524 -1.57472 -0.0634922 0
M  V30 8243 C 775.472 -2.05307 -1.09323 0
M  V30 8244 C 776.466 -0.959995 -1.39572 0
M  V30 8245 O 777.672 -1.14507 -1.38882 0
M  V30 8246 H 774.047 -0.65472 -0.369927 0
M  V30 8247 H 776.018 -2.90925 -0.663707 0
M  V30 8248 C 774.767 -2.51954 -2.39613 0
M  V30 8249 H 774.09 -3.35662 -2.1719 0
M  V30 8250 H 775.53 -2.89169 -3.10092 0
M  V30 8251 C 773.989 -1.40596 -3.06161 0
M  V30 8252 O 774.519 -0.752722 -3.94585 0
M  V30 8253 N 772.725 -1.14902 -2.66919 0
M  V30 8254 H 772.272 -1.68205 -1.95102 0
M  V30 8255 H 772.23 -0.406006 -3.11767 0
M  V30 8256 N 776.003 0.335068 -1.53997 0
M  V30 8257 C 776.933 1.41727 -1.85568 0
M  V30 8258 C 777.914 1.54505 -0.7115 0
M  V30 8259 O 779.099 1.68573 -0.964191 0
M  V30 8260 C 776.229 2.7866 -2.07282 0
M  V30 8261 C 775.183 2.80682 -3.23112 0
M  V30 8262 C 774.509 4.20581 -3.30175 0
M  V30 8263 C 775.809 2.45458 -4.61029 0
M  V30 8264 H 777.503 1.15555 -2.76202 0
M  V30 8265 H 775.049 0.554445 -1.32898 0
M  V30 8266 H 777.002 3.54423 -2.27952 0
M  V30 8267 H 775.726 3.06286 -1.13387 0
M  V30 8268 H 774.385 2.07373 -3.02311 0
M  V30 8269 H 774.033 4.4533 -2.33859 0
M  V30 8270 H 773.733 4.22843 -4.08016 0
M  V30 8271 H 775.257 4.98174 -3.53066 0
M  V30 8272 H 776.671 3.10934 -4.81656 0
M  V30 8273 H 775.068 2.5899 -5.41336 0
M  V30 8274 H 776.138 1.40628 -4.6406 0
M  V30 8275 N 777.481 1.45874 0.596531 0
M  V30 8276 C 778.892 1.44798 1.17857 0
M  V30 8277 C 779.243 0.181443 1.95359 0
M  V30 8278 O 778.368 -0.716336 2.042 0
M  V30 8279 C 778.963 2.62333 2.14398 0
M  V30 8280 C 777.522 2.64342 2.67955 0
M  V30 8281 C 776.669 2.37244 1.43564 0
M  V30 8282 H 779.62 1.53954 0.385222 0
M  V30 8283 H 779.641 2.37063 2.97626 0
M  V30 8284 H 779.153 3.54499 1.57963 0
M  V30 8285 H 777.254 1.76213 3.28298 0
M  V30 8286 H 777.367 3.63897 3.11634 0
M  V30 8287 H 775.731 1.87022 1.72901 0
M  V30 8288 H 776.514 3.31568 0.889805 0
M  V30 8289 N 778.959 -0.83999 1.33349 0
M  V30 8290 C 780.207 -1.59202 1.24496 0
M  V30 8291 C 780.528 -1.94077 -0.189499 0
M  V30 8292 O 779.798 -1.60868 -1.11796 0
M  V30 8293 H 778.378 -0.590276 0.457802 0
M  V30 8294 H 781.04 -1.00394 1.67054 0
M  V30 8295 H 780.136 -2.52247 1.83788 0
M  V30 8296 N 780.437 -1.16799 -1.0581 0
M  V30 8297 C 781.853 -0.913935 -1.30841 0
M  V30 8298 C 782.053 0.430439 -1.96849 0
M  V30 8299 O 781.109 1.16885 -2.23817 0
M  V30 8300 C 782.422 -2.06662 -2.18429 0
M  V30 8301 C 783.97 -2.10294 -2.31831 0
M  V30 8302 C 784.445 -3.2493 -3.22776 0
M  V30 8303 N 785.936 -3.24678 -3.30361 0
M  V30 8304 C 786.671 -4.10021 -4.00837 0
M  V30 8305 N 786.167 -5.05461 -4.73795 0
M  V30 8306 N 787.96 -3.97991 -3.96937 0
M  V30 8307 H 780.111 -2.03343 -0.613613 0
M  V30 8308 H 782.374 -0.88754 -0.333133 0
M  V30 8309 H 782.08 -3.03791 -1.77211 0
M  V30 8310 H 781.954 -2.01233 -3.19038 0
M  V30 8311 H 784.341 -1.13754 -2.72294 0
M  V30 8312 H 784.422 -2.19786 -1.30873 0
M  V30 8313 H 784.066 -4.21731 -2.83028 0
M  V30 8314 H 783.996 -3.12674 -4.23725 0
M  V30 8315 H 786.487 -2.55573 -2.78372 0
M  V30 8316 H 786.8 -5.66989 -5.25113 0
M  V30 8317 H 785.145 -5.09436 -4.72758 0
M  V30 8318 H 788.336 -3.2273 -3.39062 0
M  V30 8319 H 788.509 -4.64722 -4.51594 0
M  V30 8320 N 781.915 1.24427 -0.967243 0
M  V30 8321 C 783.161 1.93089 -0.639404 0
M  V30 8322 C 783.516 1.7422 0.816407 0
M  V30 8323 O 782.809 1.08435 1.57964 0
M  V30 8324 C 783.003 3.44568 -0.949096 0
M  V30 8325 C 782.832 3.7817 -2.43346 0
M  V30 8326 C 781.602 3.99561 -3.09321 0
M  V30 8327 C 783.8 3.84687 -3.41351 0
M  V30 8328 N 781.782 4.20259 -4.475 0
M  V30 8329 C 783.153 4.10223 -4.64884 0
M  V30 8330 C 785.208 3.67421 -3.36015 0
M  V30 8331 C 783.911 4.20286 -5.8374 0
M  V30 8332 C 785.937 3.78731 -4.54221 0
M  V30 8333 C 785.299 4.04691 -5.76545 0
M  V30 8334 H 781.398 0.728291 -0.284809 0
M  V30 8335 H 783.982 1.49941 -1.24201 0
M  V30 8336 H 782.153 3.86582 -0.375308 0
M  V30 8337 H 783.885 4.00524 -0.579876 0
M  V30 8338 H 780.64 3.95946 -2.59853 0
M  V30 8339 H 781.064 4.34588 -5.19097 0
M  V30 8340 H 785.706 3.46358 -2.42479 0
M  V30 8341 H 783.424 4.40162 -6.77704 0
M  V30 8342 H 787.01 3.66743 -4.51653 0
M  V30 8343 H 785.89 4.1324 -6.66485 0
M  V30 8344 N 783.393 0.737304 1.3929 0
M  V30 8345 C 784.34 0.0988364 2.30588 0
M  V30 8346 C 785.31 -0.727206 1.49335 0
M  V30 8347 O 786.495 -0.686694 1.78014 0
M  V30 8348 C 783.635 -0.800734 3.35682 0
M  V30 8349 C 782.748 0.0381731 4.31983 0
M  V30 8350 C 781.883 -0.862884 5.24145 0
M  V30 8351 C 780.922 -0.0193639 6.12097 0
M  V30 8352 N 780.059 -0.87648 6.96608 0
M  V30 8353 H 784.899 0.883031 2.84617 0
M  V30 8354 H 782.436 0.447111 1.4014 0
M  V30 8355 H 784.394 -1.33676 3.95205 0
M  V30 8356 H 783.024 -1.55088 2.83103 0
M  V30 8357 H 782.076 0.691641 3.74059 0
M  V30 8358 H 783.388 0.690294 4.94 0
M  V30 8359 H 782.542 -1.46667 5.88705 0
M  V30 8360 H 781.281 -1.54878 4.62454 0
M  V30 8361 H 780.286 0.597202 5.46547 0
M  V30 8362 H 781.511 0.663348 6.75852 0
M  V30 8363 H 779.457 -1.54762 6.37483 0
M  V30 8364 H 779.374 -0.280892 7.55478 0
M  V30 8365 H 780.642 -1.46575 7.65595 0
M  V30 8366 N 784.871 -1.49948 0.485112 0
M  V30 8367 C 786.282 -1.8667 0.0334041 0
M  V30 8368 C 786.633 -1.3988 -1.37579 0
M  V30 8369 O 785.758 -0.769788 -2.02245 0
M  V30 8370 C 786.353 -3.38757 0.0538426 0
M  V30 8371 C 784.912 -3.74839 -0.342453 0
M  V30 8372 C 784.059 -2.73894 0.433281 0
M  V30 8373 H 787.01 -1.42492 0.698699 0
M  V30 8374 H 787.031 -3.73132 -0.745146 0
M  V30 8375 H 786.543 -3.72782 1.07959 0
M  V30 8376 H 784.644 -3.46419 -1.37203 0
M  V30 8377 H 784.757 -4.79088 -0.0340503 0
M  V30 8378 H 783.121 -2.54441 -0.114849 0
M  V30 8379 H 783.904 -3.10763 1.45881 0
M  V30 8380 N 786.349 -0.21828 -1.56081 0
M  V30 8381 C 787.296 0.693189 -2.20144 0
M  V30 8382 C 788.266 1.19274 -1.15598 0
M  V30 8383 O 789.451 1.25243 -1.4394 0
M  V30 8384 C 786.591 1.89715 -2.88275 0
M  V30 8385 C 785.704 1.4368 -4.07407 0
M  V30 8386 C 784.839 2.59807 -4.63329 0
M  V30 8387 C 783.878 2.10492 -5.74769 0
M  V30 8388 N 783.015 3.1988 -6.24997 0
M  V30 8389 H 787.855 0.14016 -2.9767 0
M  V30 8390 H 785.392 0.0574292 -1.46988 0
M  V30 8391 H 787.35 2.60398 -3.25958 0
M  V30 8392 H 785.98 2.42311 -2.13273 0
M  V30 8393 H 785.032 0.625007 -3.7523 0
M  V30 8394 H 786.344 1.03517 -4.8794 0
M  V30 8395 H 785.498 3.38577 -5.03438 0
M  V30 8396 H 784.237 3.03256 -3.81951 0
M  V30 8397 H 783.242 1.30182 -5.34165 0
M  V30 8398 H 784.467 1.68045 -6.5798 0
M  V30 8399 H 782.413 3.62817 -5.46534 0
M  V30 8400 H 782.33 2.83958 -7.00645 0
M  V30 8401 H 783.598 3.98796 -6.69763 0
M  V30 8402 N 787.827 1.57504 0.0551401 0
M  V30 8403 C 788.76 2.00155 1.09604 0
M  V30 8404 C 789.738 0.881274 1.36647 0
M  V30 8405 O 790.922 1.14498 1.49742 0
M  V30 8406 C 788.049 2.35246 2.43674 0
M  V30 8407 C 787.095 3.57452 2.32659 0
M  V30 8408 S 787.928 5.07639 1.7048 0
M  V30 8409 C 789.084 5.45947 3.06093 0
M  V30 8410 H 789.317 2.88131 0.732635 0
M  V30 8411 H 786.85 1.52122 0.264252 0
M  V30 8412 H 788.808 2.56136 3.20787 0
M  V30 8413 H 787.469 1.47769 2.7717 0
M  V30 8414 H 786.662 3.79576 3.31569 0
M  V30 8415 H 786.264 3.36279 1.63685 0
M  V30 8416 H 788.556 5.45036 4.0242 0
M  V30 8417 H 789.499 6.4656 2.88732 0
M  V30 8418 H 789.907 4.73419 3.07466 0
M  V30 8419 N 789.305 -0.326896 1.54172 0
M  V30 8420 C 790.554 -1.06274 1.71431 0
M  V30 8421 C 790.867 -1.89282 0.493123 0
M  V30 8422 O 792.073 -2.65933 0.54699 0
M  V30 8423 C 790.529 -1.93892 3.03206 0
M  V30 8424 C 790.137 -1.16011 4.32719 0
M  V30 8425 C 791.881 -2.67232 3.29829 0
M  V30 8426 C 789.788 -2.02755 5.55558 0
M  V30 8427 H 788.718 -0.400475 0.638855 0
M  V30 8428 H 791.369 -0.321184 1.80667 0
M  V30 8429 H 789.751 -2.71933 2.87869 0
M  V30 8430 H 790.925 -0.427643 4.58811 0
M  V30 8431 H 789.24 -0.54367 4.12836 0
M  V30 8432 H 791.837 -3.32434 4.18798 0
M  V30 8433 H 792.18 -3.34692 2.47562 0
M  V30 8434 H 792.713 -1.96255 3.46018 0
M  V30 8435 H 789.452 -1.3981 6.40417 0
M  V30 8436 H 788.972 -2.73745 5.33689 0
M  V30 8437 H 790.651 -2.61419 5.91835 0
M  V30 8438 N 790.784 -1.46188 -0.588786 0
M  V30 8439 C 792.032 -1.50885 -1.34455 0
M  V30 8440 C 792.353 -0.159555 -1.94346 0
M  V30 8441 O 791.623 0.813239 -1.78222 0
M  V30 8442 H 790.203 -0.555707 -0.499198 0
M  V30 8443 H 792.865 -1.82277 -0.690014 0
M  V30 8444 H 791.961 -2.25816 -2.15438 0
M  V30 8445 N 792.262 0.832906 -1.33792 0
M  V30 8446 C 793.51 1.58539 -1.25338 0
M  V30 8447 C 793.831 1.94175 0.179204 0
M  V30 8448 O 793.101 1.61458 1.10941 0
M  V30 8449 H 791.681 0.58784 -0.460926 0
M  V30 8450 H 794.343 0.995064 -1.67584 0
M  V30 8451 H 793.439 2.51268 -1.85123 0
M  V30 8452 N 793.74 1.17359 1.05189 0
M  V30 8453 C 794.989 0.956412 1.77583 0
M  V30 8454 C 795.302 -0.516018 1.88671 0
M  V30 8455 O 796.508 -0.851401 2.57805 0
M  V30 8456 C 794.964 1.66203 3.19225 0
M  V30 8457 C 794.572 3.17299 3.16267 0
M  V30 8458 C 796.316 1.52725 3.96075 0
M  V30 8459 C 794.223 3.8055 4.52698 0
M  V30 8460 H 793.153 0.354204 0.665624 0
M  V30 8461 H 795.804 1.40612 1.17901 0
M  V30 8462 H 794.186 1.14006 3.79234 0
M  V30 8463 H 795.36 3.76431 2.65776 0
M  V30 8464 H 793.675 3.3079 2.52917 0
M  V30 8465 H 796.272 1.97351 4.96947 0
M  V30 8466 H 796.615 0.477803 4.13549 0
M  V30 8467 H 797.148 2.02139 3.42614 0
M  V30 8468 H 793.887 4.85492 4.4043 0
M  V30 8469 H 793.407 3.26206 5.03339 0
M  V30 8470 H 795.086 3.82757 5.21638 0
M  V30 8471 N 795.218 -1.23913 0.973828 0
M  V30 8472 C 796.466 -1.91771 0.637817 0
M  V30 8473 C 796.787 -1.76434 -0.830435 0
M  V30 8474 O 796.057 -1.13965 -1.59339 0
M  V30 8475 H 794.637 -0.709761 0.232912 0
M  V30 8476 H 797.299 -1.50677 1.23622 0
M  V30 8477 H 796.395 -2.99327 0.883731 0
M  V30 8478 N 796.696 -0.74468 -1.38897 0
M  V30 8479 C 797.944 -0.296298 -1.99916 0
M  V30 8480 C 798.265 1.12325 -1.59399 0
M  V30 8481 O 797.535 1.76658 -0.846689 0
M  V30 8482 H 796.115 -0.106561 -0.73936 0
M  V30 8483 H 798.777 -0.956793 -1.69798 0
M  V30 8484 H 797.873 -0.352356 -3.10105 0
M  V30 8485 N 798.174 1.49689 -0.493057 0
M  V30 8486 C 799.421 2.02427 0.0542714 0
M  V30 8487 C 799.749 1.37339 1.37725 0
M  V30 8488 O 799.004 0.495523 1.89323 0
M  V30 8489 C 799.303 3.56427 0.263536 0
M  V30 8490 C 798.969 4.40111 -0.98046 0
M  V30 8491 C 797.631 4.62699 -1.32148 0
M  V30 8492 C 799.983 4.88847 -1.80771 0
M  V30 8493 C 797.311 5.31268 -2.48941 0
M  V30 8494 C 799.663 5.587 -2.96711 0
M  V30 8495 C 798.327 5.79536 -3.31202 0
M  V30 8496 H 797.597 0.740734 0.0198593 0
M  V30 8497 H 800.244 1.80073 -0.651603 0
M  V30 8498 H 798.549 3.77416 1.05186 0
M  V30 8499 H 800.246 3.94819 0.701348 0
M  V30 8500 H 796.836 4.22765 -0.704814 0
M  V30 8501 H 801.02 4.71231 -1.55741 0
M  V30 8502 H 796.276 5.45603 -2.75911 0
M  V30 8503 H 800.45 5.9544 -3.61143 0
M  V30 8504 H 798.077 6.32443 -4.21805 0
M  V30 8505 N 799.652 0.226554 1.55963 0
M  V30 8506 C 800.901 -0.40417 1.97609 0
M  V30 8507 C 801.214 -1.60541 1.1174 0
M  V30 8508 O 802.42 -2.30598 1.43307 0
M  V30 8509 C 800.876 -0.770466 3.51556 0
M  V30 8510 C 800.484 0.408244 4.46136 0
M  V30 8511 C 802.228 -1.36651 4.01904 0
M  V30 8512 C 800.135 0.0192347 5.91397 0
M  V30 8513 H 799.065 -0.15478 0.737943 0
M  V30 8514 H 801.716 0.323558 1.80625 0
M  V30 8515 H 800.098 -1.55575 3.6416 0
M  V30 8516 H 801.272 1.18575 4.45283 0
M  V30 8517 H 799.587 0.917859 4.06158 0
M  V30 8518 H 802.184 -1.67055 5.07934 0
M  V30 8519 H 802.527 -2.28403 3.48049 0
M  V30 8520 H 803.06 -0.644556 3.92543 0
M  V30 8521 H 799.799 0.90336 6.49245 0
M  V30 8522 H 799.319 -0.722485 5.95433 0
M  V30 8523 H 800.998 -0.405711 6.45727 0
M  V30 8524 N 801.13 -1.57531 -0.0467866 0
M  V30 8525 C 802.077 -2.05387 -1.05285 0
M  V30 8526 C 803.047 -0.939385 -1.36985 0
M  V30 8527 O 804.232 -1.20877 -1.47626 0
M  V30 8528 C 801.372 -2.52343 -2.35408 0
M  V30 8529 C 800.485 -3.77512 -2.10022 0
M  V30 8530 C 799.62 -4.1315 -3.33887 0
M  V30 8531 C 798.659 -5.31286 -3.03976 0
M  V30 8532 N 797.796 -5.62441 -4.20243 0
M  V30 8533 H 802.636 -2.91095 -0.637788 0
M  V30 8534 H 800.173 -1.43939 -0.303322 0
M  V30 8535 H 802.131 -2.77628 -3.11413 0
M  V30 8536 H 800.761 -1.69577 -2.7467 0
M  V30 8537 H 799.813 -3.59417 -1.24594 0
M  V30 8538 H 801.125 -4.63644 -1.83945 0
M  V30 8539 H 800.279 -4.39469 -4.18273 0
M  V30 8540 H 799.018 -3.25634 -3.63062 0
M  V30 8541 H 798.023 -5.04738 -2.17991 0
M  V30 8542 H 799.248 -6.20441 -2.76098 0
M  V30 8543 H 797.194 -4.77885 -4.49402 0
M  V30 8544 H 797.111 -6.43046 -3.97528 0
M  V30 8545 H 798.379 -5.93327 -5.05553 0
M  V30 8546 N 802.608 0.318715 -1.54344 0
M  V30 8547 C 803.854 1.05765 -1.73037 0
M  V30 8548 C 804.187 1.87514 -0.505181 0
M  V30 8549 O 803.462 1.88021 0.497838 0
M  V30 8550 C 803.745 1.97836 -3.00887 0
M  V30 8551 C 803.598 1.19384 -4.33668 0
M  V30 8552 C 804.917 2.97285 -3.24514 0
M  V30 8553 H 802.036 0.383104 -0.629603 0
M  V30 8554 H 804.678 0.333864 -1.87044 0
M  V30 8555 H 802.828 2.59552 -2.89076 0
M  V30 8556 H 804.5 0.600906 -4.57369 0
M  V30 8557 H 802.743 0.496198 -4.30953 0
M  V30 8558 H 803.414 1.87014 -5.19355 0
M  V30 8559 H 805.89 2.45693 -3.35819 0
M  V30 8560 H 804.766 3.58887 -4.15321 0
M  V30 8561 H 805.027 3.70003 -2.41971 0
M  V30 8562 N 804.086 1.46499 0.581025 0
M  V30 8563 C 805.502 1.31491 0.904563 0
M  V30 8564 C 805.702 0.287598 1.99437 0
M  V30 8565 O 804.758 -0.309247 2.50599 0
M  V30 8566 C 806.071 2.70163 1.32032 0
M  V30 8567 C 807.619 2.78266 1.43308 0
M  V30 8568 C 808.094 4.17524 1.8825 0
M  V30 8569 N 809.585 4.19949 1.9544 0
M  V30 8570 C 810.32 5.24594 2.31493 0
M  V30 8571 N 809.816 6.39564 2.66326 0
M  V30 8572 N 811.609 5.11961 2.32062 0
M  V30 8573 H 803.76 2.11946 -0.138856 0
M  V30 8574 H 806.023 0.948 0.000548528 0
M  V30 8575 H 805.729 3.46655 0.593554 0
M  V30 8576 H 805.603 3.00379 2.2815 0
M  V30 8577 H 807.99 2.02061 2.15071 0
M  V30 8578 H 808.071 2.51732 0.45438 0
M  V30 8579 H 807.715 4.94225 1.17065 0
M  V30 8580 H 807.645 4.41466 2.87081 0
M  V30 8581 H 810.136 3.36996 1.71004 0
M  V30 8582 H 810.449 7.15187 2.92793 0
M  V30 8583 H 808.794 6.42923 2.6396 0
M  V30 8584 H 811.985 4.21177 2.04272 0
M  V30 8585 H 812.158 5.93626 2.5983 0
M  V30 8586 N 805.565 -0.825799 1.34232 0
M  V30 8587 C 806.497 -1.94401 1.21413 0
M  V30 8588 C 807.51 -1.6218 0.141902 0
M  V30 8589 O 808.699 -1.74109 0.3935 0
M  V30 8590 C 805.799 -3.28257 0.842635 0
M  V30 8591 C 804.972 -3.88521 2.00924 0
M  V30 8592 C 804.031 -5.00752 1.61661 0
M  V30 8593 O 803.057 -5.19201 2.33279 0
M  V30 8594 N 804.259 -5.78084 0.52911 0
M  V30 8595 H 807.024 -2.05931 2.17744 0
M  V30 8596 H 804.585 -1.00223 1.27149 0
M  V30 8597 H 806.577 -4.00781 0.561822 0
M  V30 8598 H 805.147 -3.12585 -0.0304029 0
M  V30 8599 H 804.367 -3.08425 2.45495 0
M  V30 8600 H 805.655 -4.25516 2.78951 0
M  V30 8601 H 805.053 -5.65661 -0.0663322 0
M  V30 8602 H 803.61 -6.51072 0.308017 0
M  V30 8603 N 807.043 -1.17915 -1.04565 0
M  V30 8604 C 808.273 -0.994716 -1.81077 0
M  V30 8605 C 808.681 0.460146 -1.83519 0
M  V30 8606 O 808.024 1.33136 -1.26572 0
M  V30 8607 C 808.086 -1.46698 -3.28207 0
M  V30 8608 C 807.75 -2.94523 -3.49436 0
M  V30 8609 C 808.747 -3.92414 -3.41038 0
M  V30 8610 C 806.432 -3.32841 -3.76194 0
M  V30 8611 C 808.426 -5.2662 -3.59096 0
M  V30 8612 C 806.113 -4.67212 -3.93899 0
M  V30 8613 C 807.111 -5.6391 -3.8535 0
M  V30 8614 O 806.799 -6.95849 -4.02554 0
M  V30 8615 H 806.531 -0.351797 -0.577248 0
M  V30 8616 H 809.085 -1.56772 -1.32709 0
M  V30 8617 H 807.315 -0.837592 -3.7752 0
M  V30 8618 H 809.004 -1.24724 -3.86263 0
M  V30 8619 H 809.77 -3.64157 -3.20336 0
M  V30 8620 H 805.649 -2.58139 -3.81949 0
M  V30 8621 H 809.193 -6.02082 -3.52339 0
M  V30 8622 H 805.09 -4.95172 -4.14095 0
M  V30 8623 H 805.858 -7.02679 -4.19743 0
M  V30 8624 N 808.521 1.23394 -0.980386 0
M  V30 8625 C 809.798 1.87242 -0.565667 0
M  V30 8626 C 810.178 1.88151 0.957197 0
M  V30 8627 O 809.526 1.36309 1.8339 0
M  V30 8628 C 809.736 3.28743 -1.17172 0
M  V30 8629 C 811.084 4.05335 -1.26446 0
M  V30 8630 O 812.108 3.37962 -1.12517 0
M  V30 8631 O 810.967 5.25908 -1.48604 0
M  V30 8632 H 808.061 0.80477 -0.190459 0
M  V30 8633 H 810.607 1.3127 -1.07547 0
M  V30 8634 H 809.379 3.22647 -2.21392 0
M  V30 8635 H 809.002 3.92305 -0.646739 0
M  V30 8636 N 809.999 0.752036 1.385 0
M  V30 8637 C 810.931 0.0835089 2.29048 0
M  V30 8638 C 811.944 -0.685402 1.47669 0
M  V30 8639 O 813.133 -0.526748 1.70551 0
M  V30 8640 C 810.233 -0.905772 3.26572 0
M  V30 8641 C 809.406 -0.194828 4.36966 0
M  V30 8642 C 808.465 -1.09464 5.14688 0
M  V30 8643 O 807.491 -0.565743 5.66381 0
M  V30 8644 N 808.693 -2.42287 5.2752 0
M  V30 8645 H 811.458 0.861142 2.87062 0
M  V30 8646 H 809.019 0.602689 1.50264 0
M  V30 8647 H 811.011 -1.51072 3.75446 0
M  V30 8648 H 809.581 -1.58449 2.69467 0
M  V30 8649 H 808.801 0.590812 3.89747 0
M  V30 8650 H 810.089 0.297189 5.07931 0
M  V30 8651 H 809.487 -2.87715 4.8707 0
M  V30 8652 H 808.044 -2.97836 5.79773 0
M  V30 8653 N 811.477 -1.49425 0.500989 0
M  V30 8654 C 812.726 -2.01649 -0.04538 0
M  V30 8655 C 813.039 -1.38572 -1.38047 0
M  V30 8656 O 814.245 -1.82124 -2.01353 0
M  V30 8657 C 812.701 -3.5966 -0.131337 0
M  V30 8658 C 812.309 -4.3171 1.19711 0
M  V30 8659 C 814.053 -4.19828 -0.628071 0
M  V30 8660 C 811.96 -5.81579 1.07332 0
M  V30 8661 H 810.89 -0.753715 -0.0207329 0
M  V30 8662 H 813.541 -1.71962 0.640407 0
M  V30 8663 H 811.923 -3.86063 -0.881574 0
M  V30 8664 H 813.097 -4.17008 1.96064 0
M  V30 8665 H 811.412 -3.83286 1.62729 0
M  V30 8666 H 814.009 -5.2958 -0.738198 0
M  V30 8667 H 814.352 -3.83194 -1.6269 0
M  V30 8668 H 814.885 -3.97746 0.0656314 0
M  V30 8669 H 811.624 -6.22738 2.04642 0
M  V30 8670 H 811.144 -5.98774 0.350679 0
M  V30 8671 H 812.823 -6.42614 0.752047 0
M  V30 8672 N 812.955 -0.234822 -1.55841 0
M  V30 8673 C 814.366 0.270588 -1.84729 0
M  V30 8674 C 814.717 1.58494 -1.15646 0
M  V30 8675 O 813.842 2.12071 -0.430667 0
M  V30 8676 C 814.437 0.497733 -3.35124 0
M  V30 8677 C 812.996 0.947428 -3.64281 0
M  V30 8678 C 812.143 0.01787 -2.77294 0
M  V30 8679 H 815.094 -0.457691 -1.51957 0
M  V30 8680 H 815.115 1.34199 -3.56049 0
M  V30 8681 H 814.627 -0.459037 -3.85376 0
M  V30 8682 H 812.728 1.91709 -3.19497 0
M  V30 8683 H 812.841 0.812651 -4.72158 0
M  V30 8684 H 811.205 0.527071 -2.49187 0
M  V30 8685 H 811.988 -0.934056 -3.30349 0
M  V30 8686 N 814.433 1.57553 0.0384317 0
M  V30 8687 C 815.682 1.88022 0.730108 0
M  V30 8688 C 815.995 0.83209 1.77019 0
M  V30 8689 O 817.201 1.0257 2.51379 0
M  V30 8690 C 815.657 3.33637 1.3496 0
M  V30 8691 C 815.265 4.46659 0.346352 0
M  V30 8692 C 817.009 3.73266 2.02169 0
M  V30 8693 C 814.916 5.8333 0.973652 0
M  V30 8694 H 813.846 0.701496 0.276442 0
M  V30 8695 H 816.497 1.83493 -0.0158028 0
M  V30 8696 H 814.879 3.32882 2.1449 0
M  V30 8697 H 816.053 4.58868 -0.421558 0
M  V30 8698 H 814.368 4.15802 -0.223133 0
M  V30 8699 H 816.965 4.72689 2.49938 0
M  V30 8700 H 817.308 3.04776 2.8358 0
M  V30 8701 H 817.841 3.76156 1.29427 0
M  V30 8702 H 814.58 6.55197 0.199163 0
M  V30 8703 H 814.1 5.7486 1.71162 0
M  V30 8704 H 815.779 6.29757 1.48376 0
M  V30 8705 N 815.911 -0.310526 1.54511 0
M  V30 8706 C 816.821 -1.4054 1.87844 0
M  V30 8707 C 817.837 -1.55954 0.771635 0
M  V30 8708 O 819.013 -1.70801 1.06719 0
M  V30 8709 C 816.078 -2.75063 2.11048 0
M  V30 8710 C 815.139 -2.68715 3.348 0
M  V30 8711 C 814.372 -3.96821 3.56887 0
M  V30 8712 O 814.595 -4.95721 2.82165 0
M  V30 8713 O 813.529 -3.99291 4.50389 0
M  V30 8714 H 817.355 -1.15275 2.80972 0
M  V30 8715 H 814.94 -0.505732 1.4058 0
M  V30 8716 H 816.822 -3.54671 2.27566 0
M  V30 8717 H 815.497 -3.00191 1.21108 0
M  V30 8718 H 814.404 -1.87611 3.23655 0
M  V30 8719 H 815.737 -2.4854 4.2484 0
M  V30 8720 N 817.389 -1.46805 -0.573248 0
M  V30 8721 C 818.638 -1.51868 -1.32736 0
M  V30 8722 C 818.951 -0.178765 -1.94781 0
M  V30 8723 O 820.157 -0.107272 -2.71288 0
M  V30 8724 C 818.613 -2.67641 -2.40616 0
M  V30 8725 C 818.221 -4.08094 -1.84832 0
M  V30 8726 C 819.965 -2.81984 -3.17309 0
M  V30 8727 C 817.872 -5.15193 -2.90397 0
M  V30 8728 H 816.802 -0.56523 -0.49903 0
M  V30 8729 H 819.453 -1.7304 -0.610695 0
M  V30 8730 H 817.835 -2.39818 -3.15124 0
M  V30 8731 H 819.009 -4.45751 -1.16803 0
M  V30 8732 H 817.324 -3.985 -1.20775 0
M  V30 8733 H 819.921 -3.59166 -3.96111 0
M  V30 8734 H 820.264 -1.89842 -3.70494 0
M  V30 8735 H 820.797 -3.095 -2.4991 0
M  V30 8736 H 817.536 -6.09158 -2.42088 0
M  V30 8737 H 817.056 -4.82071 -3.56886 0
M  V30 8738 H 818.735 -5.41448 -3.54179 0
M  V30 8739 N 818.867 0.818669 -1.34668 0
M  V30 8740 C 820.107 1.58862 -1.28617 0
M  V30 8741 C 820.471 1.91483 0.140845 0
M  V30 8742 O 821.672 2.66821 0.325583 0
M  V30 8743 C 819.943 2.85044 -2.15604 0
M  V30 8744 S 821.502 3.75553 -2.26948 0
M  V30 8745 H 818.32 0.544454 -0.457265 0
M  V30 8746 H 820.922 0.966679 -1.69928 0
M  V30 8747 H 819.626 2.59083 -3.18284 0
M  V30 8748 H 819.157 3.52231 -1.75205 0
M  V30 8749 H 821.172 4.74682 -1.44539 0
M  V30 8750 N 820.346 1.18468 1.03938 0
M  V30 8751 C 821.594 0.978895 1.76811 0
M  V30 8752 C 821.915 -0.49257 1.88676 0
M  V30 8753 O 821.185 -1.3572 1.41269 0
M  V30 8754 H 819.765 0.359201 0.654968 0
M  V30 8755 H 822.427 1.49173 1.25433 0
M  V30 8756 H 821.523 1.418 2.78027 0
M  V30 8757 N 821.824 -1.22873 0.986916 0
M  V30 8758 C 822.774 -2.2237 0.503547 0
M  V30 8759 C 823.758 -1.55186 -0.424998 0
M  V30 8760 O 824.95 -1.75186 -0.252791 0
M  V30 8761 C 822.079 -3.42794 -0.186355 0
M  V30 8762 C 821.165 -4.17196 0.762143 0
M  V30 8763 N 821.556 -4.68453 1.9075 0
M  V30 8764 C 819.854 -4.42255 0.576797 0
M  V30 8765 C 820.555 -5.25126 2.50235 0
M  V30 8766 N 819.531 -5.13437 1.7856 0
M  V30 8767 H 823.333 -2.59636 1.37718 0
M  V30 8768 H 820.847 -1.38476 0.848415 0
M  V30 8769 H 822.844 -4.13256 -0.549993 0
M  V30 8770 H 821.504 -3.07042 -1.05619 0
M  V30 8771 H 822.515 -4.64595 2.28848 0
M  V30 8772 H 819.192 -4.16766 -0.247474 0
M  V30 8773 H 820.582 -5.75363 3.46997 0
M  V30 8774 N 823.302 -0.75937 -1.38099 0
M  V30 8775 C 824.249 -0.135508 -2.30402 0
M  V30 8776 C 825.219 0.703356 -1.50473 0
M  V30 8777 O 826.404 0.658287 -1.79084 0
M  V30 8778 C 823.544 0.747228 -3.36913 0
M  V30 8779 C 822.657 -0.106893 -4.31868 0
M  V30 8780 C 821.792 0.779388 -5.25451 0
M  V30 8781 C 820.831 -0.0780179 -6.1205 0
M  V30 8782 N 819.968 0.765545 -6.97914 0
M  V30 8783 H 824.808 -0.9282 -2.83176 0
M  V30 8784 H 822.345 -0.46935 -1.39411 0
M  V30 8785 H 824.303 1.27371 -3.97281 0
M  V30 8786 H 822.933 1.50565 -2.85535 0
M  V30 8787 H 821.985 -0.751063 -3.72912 0
M  V30 8788 H 823.297 -0.768798 -4.9284 0
M  V30 8789 H 822.451 1.37282 -5.90964 0
M  V30 8790 H 821.19 1.47501 -4.6486 0
M  V30 8791 H 820.195 -0.684078 -5.45528 0
M  V30 8792 H 821.42 -0.770786 -6.74712 0
M  V30 8793 H 819.366 1.44601 -6.39864 0
M  V30 8794 H 819.283 0.160666 -7.55829 0
M  V30 8795 H 820.551 1.34377 -7.6783 0
M  V30 8796 N 824.78 1.49157 -0.508906 0
M  V30 8797 C 825.743 2.27784 0.25434 0
M  V30 8798 C 826.743 1.34132 0.88686 0
M  V30 8799 O 827.933 1.5722 0.750168 0
M  V30 8800 C 825.065 3.12347 1.36573 0
M  V30 8801 H 826.258 2.96718 -0.435714 0
M  V30 8802 H 823.811 1.54052 -0.264128 0
M  V30 8803 H 824.546 2.47997 2.08969 0
M  V30 8804 H 824.331 3.81213 0.917543 0
M  V30 8805 H 825.821 3.71712 1.90315 0
M  V30 8806 N 826.258 0.243083 1.55714 0
M  V30 8807 C 827.507 -0.383188 1.98027 0
M  V30 8808 C 827.82 -1.59347 1.13436 0
M  V30 8809 O 829.026 -2.29065 1.45745 0
M  V30 8810 C 827.482 -0.733135 3.52354 0
M  V30 8811 C 827.09 0.455539 4.45678 0
M  V30 8812 C 828.834 -1.32381 4.03331 0
M  V30 8813 C 826.741 0.0819591 5.91343 0
M  V30 8814 H 825.671 -0.146944 0.739543 0
M  V30 8815 H 828.322 0.342697 1.80272 0
M  V30 8816 H 826.704 -1.51704 3.65789 0
M  V30 8817 H 827.878 1.23291 4.44 0
M  V30 8818 H 826.193 0.960886 4.05162 0
M  V30 8819 H 828.79 -1.61658 5.09677 0
M  V30 8820 H 829.133 -2.24698 3.50452 0
M  V30 8821 H 829.666 -0.602885 3.93205 0
M  V30 8822 H 826.405 0.972171 6.48251 0
M  V30 8823 H 825.925 -0.659291 5.96166 0
M  V30 8824 H 827.604 -0.3372 6.46121 0
M  V30 8825 N 827.736 -1.57571 -0.0300757 0
M  V30 8826 C 828.984 -1.88852 -0.719666 0
M  V30 8827 C 829.305 -0.840645 -1.75949 0
M  V30 8828 O 828.575 0.125854 -1.95495 0
M  V30 8829 H 827.155 -0.696965 -0.268792 0
M  V30 8830 H 829.817 -1.949 0.00373285 0
M  V30 8831 H 828.913 -2.87695 -1.20987 0
M  V30 8832 N 829.214 0.302327 -1.54673 0
M  V30 8833 C 830.442 1.05669 -1.77881 0
M  V30 8834 C 830.857 1.80983 -0.537648 0
M  V30 8835 O 830.214 1.7573 0.492467 0
M  V30 8836 C 830.265 2.03828 -2.98557 0
M  V30 8837 O 829.986 1.3157 -4.17877 0
M  V30 8838 C 831.487 2.91314 -3.34143 0
M  V30 8839 H 828.707 0.313436 -0.593295 0
M  V30 8840 H 831.251 0.342003 -2.0162 0
M  V30 8841 H 829.406 2.70801 -2.7703 0
M  V30 8842 H 829.82 1.97481 -4.85903 0
M  V30 8843 H 831.294 3.56042 -4.21827 0
M  V30 8844 H 831.771 3.59544 -2.52239 0
M  V30 8845 H 832.377 2.29874 -3.57824 0
M  V30 8846 N 830.692 1.47107 0.565454 0
M  V30 8847 C 831.938 1.53535 1.32495 0
M  V30 8848 C 832.271 0.193537 1.93233 0
M  V30 8849 O 831.546 -0.796956 1.77423 0
M  V30 8850 C 831.829 2.64712 2.4413 0
M  V30 8851 C 831.682 4.08482 1.88314 0
M  V30 8852 C 833.001 2.71853 3.46098 0
M  V30 8853 H 830.12 0.558926 0.480386 0
M  V30 8854 H 832.762 1.79125 0.633575 0
M  V30 8855 H 830.912 2.43023 3.03104 0
M  V30 8856 H 832.584 4.4151 1.33665 0
M  V30 8857 H 830.827 4.17148 1.19037 0
M  V30 8858 H 831.498 4.82032 2.68978 0
M  V30 8859 H 833.974 2.91397 2.97031 0
M  V30 8860 H 832.85 3.51433 4.21646 0
M  V30 8861 H 833.111 1.78584 4.04426 0
M  V30 8862 N 832.17 -0.811516 1.35101 0
M  V30 8863 C 833.1 -1.9378 1.30275 0
M  V30 8864 C 834.081 -1.69165 0.178075 0
M  V30 8865 O 835.266 -1.90599 0.372256 0
M  V30 8866 C 832.396 -3.30439 1.06899 0
M  V30 8867 C 831.35 -3.69523 2.15955 0
M  V30 8868 C 830.676 -5.0429 1.77751 0
M  V30 8869 C 831.976 -3.80419 3.57881 0
M  V30 8870 H 833.67 -1.98075 2.24514 0
M  V30 8871 H 831.216 -0.951586 1.08078 0
M  V30 8872 H 833.169 -4.08828 1.02164 0
M  V30 8873 H 831.893 -3.26473 0.0910462 0
M  V30 8874 H 830.552 -2.93416 2.19778 0
M  V30 8875 H 830.2 -4.96823 0.785876 0
M  V30 8876 H 829.9 -5.31411 2.5075 0
M  V30 8877 H 831.424 -5.85125 1.74533 0
M  V30 8878 H 832.838 -4.49051 3.56407 0
M  V30 8879 H 831.235 -4.19005 4.29598 0
M  V30 8880 H 832.305 -2.82105 3.94391 0
M  V30 8881 N 833.648 -1.19017 -1.03309 0
M  V30 8882 C 834.894 -0.991681 -1.769 0
M  V30 8883 C 835.227 0.476813 -1.88255 0
M  V30 8884 O 834.502 1.35407 -1.39625 0
M  V30 8885 C 834.785 -1.65627 -3.19749 0
M  V30 8886 C 834.638 -3.19813 -3.1629 0
M  V30 8887 C 835.957 -1.37579 -4.18043 0
M  V30 8888 H 833.076 -0.361674 -0.642153 0
M  V30 8889 H 835.718 -1.46795 -1.20628 0
M  V30 8890 H 833.868 -1.25132 -3.67796 0
M  V30 8891 H 835.54 -3.69494 -2.76174 0
M  V30 8892 H 833.783 -3.51578 -2.54117 0
M  V30 8893 H 834.454 -3.61457 -4.17196 0
M  V30 8894 H 836.93 -1.72679 -3.78578 0
M  V30 8895 H 835.806 -1.86636 -5.16196 0
M  V30 8896 H 836.067 -0.300118 -4.4108 0
M  V30 8897 N 835.127 1.22348 -0.993418 0
M  V30 8898 C 836.375 1.90733 -0.668246 0
M  V30 8899 C 836.696 1.77732 0.802261 0
M  V30 8900 O 835.966 1.16486 1.57505 0
M  V30 8901 H 834.546 0.705966 -0.244174 0
M  V30 8902 H 837.208 1.48691 -1.26004 0
M  V30 8903 H 836.304 2.97883 -0.931239 0
M  V30 8904 N 836.605 0.766683 1.37694 0
M  V30 8905 C 838.016 0.394761 1.82479 0
M  V30 8906 C 838.367 -1.07842 1.63904 0
M  V30 8907 O 837.492 -1.83479 1.14737 0
M  V30 8908 C 838.087 0.70974 3.31283 0
M  V30 8909 C 836.646 0.390936 3.74364 0
M  V30 8910 C 835.793 0.956192 2.60293 0
M  V30 8911 H 838.744 0.961756 1.26238 0
M  V30 8912 H 838.765 -0.00742144 3.80499 0
M  V30 8913 H 838.277 1.782 3.4477 0
M  V30 8914 H 836.378 -0.674213 3.66449 0
M  V30 8915 H 836.491 0.895645 4.70654 0
M  V30 8916 H 834.855 0.380744 2.51838 0
M  V30 8917 H 835.638 2.03375 2.76575 0
M  V30 8918 N 838.083 -1.48885 0.516809 0
M  V30 8919 C 839.311 -2.06892 -0.0184017 0
M  V30 8920 C 839.726 -1.37511 -1.29368 0
M  V30 8921 O 839.083 -0.458409 -1.76649 0
M  V30 8922 C 839.134 -3.60566 -0.259673 0
M  V30 8923 O 838.855 -4.27338 0.965065 0
M  V30 8924 C 840.356 -4.35331 -0.836751 0
M  V30 8925 H 837.576 -0.670433 0.0275743 0
M  V30 8926 H 840.12 -1.91455 0.718689 0
M  V30 8927 H 838.275 -3.75653 -0.94678 0
M  V30 8928 H 838.689 -5.19287 0.737647 0
M  V30 8929 H 840.163 -5.43675 -0.955065 0
M  V30 8930 H 840.64 -3.9887 -1.83845 0
M  V30 8931 H 841.246 -4.2489 -0.186622 0
M  V30 8932 N 839.561 -0.251338 -1.55583 0
M  V30 8933 C 840.972 0.25098 -1.85005 0
M  V30 8934 C 841.323 1.57259 -1.17321 0
M  V30 8935 O 840.448 2.11603 -0.453136 0
M  V30 8936 C 841.043 0.462161 -3.35633 0
M  V30 8937 C 839.602 0.908737 -3.65266 0
M  V30 8938 C 838.749 -0.0115418 -2.77298 0
M  V30 8939 H 841.7 -0.473782 -1.51463 0
M  V30 8940 H 841.721 1.30415 -3.57452 0
M  V30 8941 H 841.233 -0.499886 -3.84867 0
M  V30 8942 H 839.334 1.8831 -3.21512 0
M  V30 8943 H 839.447 0.762526 -4.72993 0
M  V30 8944 H 837.811 0.500612 -2.49732 0
M  V30 8945 H 838.594 -0.969042 -3.29339 0
M  V30 8946 N 841.039 1.57585 0.0217189 0
M  V30 8947 C 842.285 1.89887 0.712099 0
M  V30 8948 C 842.618 0.849971 1.74611 0
M  V30 8949 O 841.893 -0.13407 1.94037 0
M  V30 8950 C 842.176 3.32815 1.37499 0
M  V30 8951 C 842.029 4.48405 0.353993 0
M  V30 8952 C 843.348 3.74786 2.30703 0
M  V30 8953 H 840.467 0.690588 0.257405 0
M  V30 8954 H 843.109 1.89983 -0.0251145 0
M  V30 8955 H 841.259 3.32863 2.00335 0
M  V30 8956 H 842.931 4.60491 -0.273015 0
M  V30 8957 H 841.174 4.32573 -0.32599 0
M  V30 8958 H 841.845 5.45316 0.85644 0
M  V30 8959 H 844.321 3.76151 1.77904 0
M  V30 8960 H 843.197 4.75585 2.74061 0
M  V30 8961 H 843.458 3.07449 3.17691 0
M  V30 8962 N 842.517 -0.29412 1.54831 0
M  V30 8963 C 843.465 -1.38296 1.87021 0
M  V30 8964 C 844.459 -1.5216 0.744557 0
M  V30 8965 O 845.665 -1.54196 0.92864 0
M  V30 8966 H 842.04 -0.462088 0.593278 0
M  V30 8967 H 844.011 -1.08386 2.7802 0
M  V30 8968 C 842.76 -2.74024 2.14023 0
M  V30 8969 H 842.083 -2.6414 3.00117 0
M  V30 8970 H 843.523 -3.49205 2.40482 0
M  V30 8971 C 841.982 -3.23492 0.940982 0
M  V30 8972 O 842.512 -4.01361 0.164937 0
M  V30 8973 N 840.718 -2.80902 0.744467 0
M  V30 8974 H 840.265 -2.17694 1.37721 0
M  V30 8975 H 840.223 -3.14349 -0.0563652 0
M  V30 8976 N 843.995 -1.47404 -0.557645 0
M  V30 8977 C 845.244 -1.53268 -1.31118 0
M  V30 8978 C 845.557 -0.199414 -1.94581 0
M  V30 8979 O 846.763 -0.136039 -2.71159 0
M  V30 8980 C 845.219 -2.70178 -2.37764 0
M  V30 8981 C 844.827 -4.10032 -1.80493 0
M  V30 8982 C 846.571 -2.85334 -3.14301 0
M  V30 8983 C 844.478 -5.18244 -2.84916 0
M  V30 8984 H 843.408 -0.570491 -0.493007 0
M  V30 8985 H 846.059 -1.73678 -0.592308 0
M  V30 8986 H 844.441 -2.43147 -3.12563 0
M  V30 8987 H 845.615 -4.46964 -1.12069 0
M  V30 8988 H 843.93 -3.99759 -1.16542 0
M  V30 8989 H 846.527 -3.63347 -3.92279 0
M  V30 8990 H 846.87 -1.93761 -3.68459 0
M  V30 8991 H 847.403 -3.12133 -2.46613 0
M  V30 8992 H 844.142 -6.11691 -2.35614 0
M  V30 8993 H 843.662 -4.85829 -3.51753 0
M  V30 8994 H 845.341 -5.45174 -3.48417 0
M  V30 8995 N 845.473 0.80434 -1.35529 0
M  V30 8996 C 846.722 1.55665 -1.28263 0
M  V30 8997 C 847.035 1.95096 0.140352 0
M  V30 8998 O 848.241 2.69422 0.335303 0
M  V30 8999 C 846.697 2.80935 -2.24952 0
M  V30 9000 C 846.305 2.48733 -3.72607 0
M  V30 9001 C 848.049 3.5894 -2.26632 0
M  V30 9002 C 845.956 3.70308 -4.61114 0
M  V30 9003 H 844.886 0.584301 -0.476559 0
M  V30 9004 H 847.537 0.88395 -1.60806 0
M  V30 9005 H 845.919 3.49927 -1.85383 0
M  V30 9006 H 847.093 1.87733 -4.20824 0
M  V30 9007 H 845.408 1.83969 -3.73557 0
M  V30 9008 H 848.005 4.49244 -2.89973 0
M  V30 9009 H 848.348 3.96433 -1.27069 0
M  V30 9010 H 848.881 2.96912 -2.64742 0
M  V30 9011 H 845.62 3.37922 -5.61684 0
M  V30 9012 H 845.14 4.30526 -4.17621 0
M  V30 9013 H 846.819 4.37511 -4.76648 0
M  V30 9014 N 846.951 1.19563 1.02676 0
M  V30 9015 C 848.199 0.997593 1.75763 0
M  V30 9016 C 848.52 -0.47253 1.89188 0
M  V30 9017 O 847.79 -1.34214 1.42701 0
M  V30 9018 H 846.37 0.366128 0.651122 0
M  V30 9019 H 849.032 1.50495 1.23844 0
M  V30 9020 H 848.128 1.44741 2.76508 0
M  V30 9021 N 848.429 -1.21819 0.999893 0
M  V30 9022 C 849.845 -1.42847 0.711824 0
M  V30 9023 C 850.045 -1.88391 -0.714928 0
M  V30 9024 O 849.101 -2.0422 -1.48494 0
M  V30 9025 C 850.414 -2.46417 1.72334 0
M  V30 9026 C 851.962 -2.60207 1.73958 0
M  V30 9027 C 852.437 -3.67005 2.73992 0
M  V30 9028 N 853.928 -3.7447 2.72628 0
M  V30 9029 C 854.663 -4.56718 3.46693 0
M  V30 9030 N 854.159 -5.42904 4.3038 0
M  V30 9031 N 855.952 -4.51094 3.35366 0
M  V30 9032 H 848.103 -0.905656 1.92124 0
M  V30 9033 H 850.366 -0.459893 0.828977 0
M  V30 9034 H 850.072 -2.19914 2.74465 0
M  V30 9035 H 849.946 -3.45137 1.52186 0
M  V30 9036 H 852.333 -2.8605 0.725217 0
M  V30 9037 H 852.414 -1.61739 1.98177 0
M  V30 9038 H 852.058 -3.41908 3.75582 0
M  V30 9039 H 851.988 -4.65058 2.4704 0
M  V30 9040 H 854.479 -3.12895 2.11909 0
M  V30 9041 H 854.792 -6.02704 4.83702 0
M  V30 9042 H 853.137 -5.42463 4.34464 0
M  V30 9043 H 856.328 -3.82791 2.69423 0
M  V30 9044 H 856.501 -5.1496 3.93344 0
M  V30 9045 N 849.908 -0.773975 -1.37286 0
M  V30 9046 C 850.856 -0.149581 -2.32119 0
M  V30 9047 C 851.85 0.682457 -1.55045 0
M  V30 9048 O 853.056 0.579269 -1.70424 0
M  V30 9049 H 849.431 -0.0295857 -0.751418 0
M  V30 9050 H 851.402 -0.965117 -2.82362 0
M  V30 9051 C 850.151 0.713409 -3.40302 0
M  V30 9052 H 849.474 0.0825416 -3.99715 0
M  V30 9053 H 850.914 1.11723 -4.09016 0
M  V30 9054 C 849.373 1.86498 -2.80571 0
M  V30 9055 O 849.903 2.9606 -2.71498 0
M  V30 9056 N 848.109 1.66629 -2.38082 0
M  V30 9057 H 847.656 0.775145 -2.45661 0
M  V30 9058 H 847.614 2.43845 -1.98461 0
M  V30 9059 N 851.386 1.48609 -0.524698 0
M  V30 9060 C 852.316 2.32366 0.229837 0
M  V30 9061 C 853.297 1.41759 0.940129 0
M  V30 9062 O 854.482 1.7065 0.926936 0
M  V30 9063 C 851.612 3.22835 1.28043 0
M  V30 9064 C 850.566 4.22424 0.688603 0
M  V30 9065 C 849.892 5.0199 1.84146 0
M  V30 9066 C 851.192 5.21217 -0.336176 0
M  V30 9067 H 852.886 2.95698 -0.469339 0
M  V30 9068 H 850.432 1.42197 -0.227156 0
M  V30 9069 H 852.385 3.80253 1.8162 0
M  V30 9070 H 851.109 2.57492 2.00912 0
M  V30 9071 H 849.768 3.66185 0.174402 0
M  V30 9072 H 849.416 4.33076 2.5584 0
M  V30 9073 H 849.116 5.69392 1.45142 0
M  V30 9074 H 850.64 5.62259 2.38111 0
M  V30 9075 H 852.054 5.7319 0.112307 0
M  V30 9076 H 850.451 5.96642 -0.643324 0
M  V30 9077 H 851.521 4.68676 -1.24381 0
M  V30 9078 N 852.864 0.259585 1.55447 0
M  V30 9079 C 853.794 -0.62852 2.24882 0
M  V30 9080 C 854.775 -1.17128 1.23349 0
M  V30 9081 O 855.96 -1.20829 1.52033 0
M  V30 9082 C 853.09 -1.81983 2.95803 0
M  V30 9083 C 852.044 -1.40929 4.04132 0
M  V30 9084 C 851.37 -2.68246 4.62545 0
M  V30 9085 C 852.67 -0.570956 5.1917 0
M  V30 9086 H 854.364 -0.0495021 2.99359 0
M  V30 9087 H 851.91 -0.0223688 1.43983 0
M  V30 9088 H 853.863 -2.44689 3.43082 0
M  V30 9089 H 852.587 -2.42444 2.18835 0
M  V30 9090 H 851.246 -0.805519 3.57641 0
M  V30 9091 H 850.894 -3.26931 3.82263 0
M  V30 9092 H 850.594 -2.41495 5.35681 0
M  V30 9093 H 852.118 -3.31827 5.12565 0
M  V30 9094 H 853.532 -1.10262 5.62597 0
M  V30 9095 H 851.929 -0.398979 5.98772 0
M  V30 9096 H 852.999 0.413918 4.8313 0
M  V30 9097 N 854.342 -1.57594 -0.0133615 0
M  V30 9098 C 855.57 -1.94251 -0.712328 0
M  V30 9099 C 855.985 -0.86063 -1.68043 0
M  V30 9100 O 855.342 0.161632 -1.81783 0
M  V30 9101 C 855.393 -3.30891 -1.45581 0
M  V30 9102 O 855.114 -4.34924 -0.526539 0
M  V30 9103 C 856.615 -3.81926 -2.2505 0
M  V30 9104 H 853.835 -0.640737 -0.199241 0
M  V30 9105 H 856.379 -2.04472 0.0337855 0
M  V30 9106 H 854.534 -3.22019 -2.15366 0
M  V30 9107 H 854.948 -5.1389 -1.04962 0
M  V30 9108 H 856.422 -4.79999 -2.72589 0
M  V30 9109 H 856.899 -3.13934 -3.07152 0
M  V30 9110 H 857.505 -3.93931 -1.60308 0
M  V30 9111 N 855.82 0.285905 -1.54985 0
M  V30 9112 C 856.752 1.37505 -1.83371 0
M  V30 9113 C 857.765 1.46138 -0.717454 0
M  V30 9114 O 858.954 1.48186 -0.995142 0
M  V30 9115 C 856.054 2.7575 -1.97016 0
M  V30 9116 C 855.227 2.89866 -3.27561 0
M  V30 9117 C 854.286 4.08704 -3.31433 0
M  V30 9118 O 853.312 4.00073 -4.04883 0
M  V30 9119 N 854.514 5.20062 -2.57907 0
M  V30 9120 H 857.279 1.13505 -2.77375 0
M  V30 9121 H 854.84 0.476006 -1.54744 0
M  V30 9122 H 856.832 3.5352 -1.96991 0
M  V30 9123 H 855.402 2.9263 -1.09938 0
M  V30 9124 H 854.622 1.99085 -3.40234 0
M  V30 9125 H 855.91 2.96219 -4.13681 0
M  V30 9126 H 855.308 5.29958 -1.97891 0
M  V30 9127 H 853.865 5.96111 -2.63619 0
M  V30 9128 N 857.298 1.47698 0.54982 0
M  V30 9129 C 858.547 1.53961 1.30303 0
M  V30 9130 C 858.86 0.209731 1.94472 0
M  V30 9131 O 860.066 0.150418 2.71083 0
M  V30 9132 C 858.522 2.71436 2.36328 0
M  V30 9133 C 858.13 4.10983 1.78316 0
M  V30 9134 C 859.874 2.86996 3.12783 0
M  V30 9135 C 857.781 5.19747 2.82164 0
M  V30 9136 H 856.711 0.573098 0.489975 0
M  V30 9137 H 859.362 1.73989 0.583089 0
M  V30 9138 H 857.744 2.44801 3.11269 0
M  V30 9139 H 858.918 4.47552 1.09697 0
M  V30 9140 H 857.233 4.00371 1.1442 0
M  V30 9141 H 859.83 3.65422 3.90347 0
M  V30 9142 H 860.173 1.95712 3.67427 0
M  V30 9143 H 860.706 3.13436 2.44954 0
M  V30 9144 H 857.445 6.12932 2.32366 0
M  V30 9145 H 856.965 4.87688 3.49171 0
M  V30 9146 H 858.644 5.47014 3.4552 0
M  V30 9147 N 858.776 -0.797141 1.35954 0
M  V30 9148 C 860.024 -1.55161 1.29497 0
M  V30 9149 C 860.345 -1.94582 -0.127659 0
M  V30 9150 O 859.615 -1.64343 -1.06622 0
M  V30 9151 H 858.195 -0.575413 0.47635 0
M  V30 9152 H 860.857 -0.950282 1.70164 0
M  V30 9153 H 859.953 -2.46272 1.9172 0
M  V30 9154 N 860.254 -1.20106 -1.0204 0
M  V30 9155 C 861.494 -1.02013 -1.77123 0
M  V30 9156 C 861.858 0.440439 -1.8688 0
M  V30 9157 O 863.059 0.74144 -2.58372 0
M  V30 9158 C 861.33 -1.68058 -3.15423 0
M  V30 9159 S 862.889 -1.65016 -4.0659 0
M  V30 9160 H 859.707 -0.365882 -0.609632 0
M  V30 9161 H 862.309 -1.52597 -1.22206 0
M  V30 9162 H 861.013 -2.73544 -3.05944 0
M  V30 9163 H 860.544 -1.17589 -3.75415 0
M  V30 9164 H 862.559 -0.680341 -4.91514 0
M  V30 9165 N 861.732 1.21287 -1.00634 0
M  V30 9166 C 862.96 1.94385 -0.708678 0
M  V30 9167 C 863.375 1.7416 0.728957 0
M  V30 9168 O 862.732 1.04906 1.49335 0
M  V30 9169 C 862.783 3.46755 -1.02193 0
M  V30 9170 O 862.504 3.6631 -2.40309 0
M  V30 9171 C 864.005 4.37014 -0.743867 0
M  V30 9172 H 861.225 0.618136 -0.261052 0
M  V30 9173 H 863.769 1.54067 -1.34475 0
M  V30 9174 H 861.924 3.8499 -0.431441 0
M  V30 9175 H 862.338 4.60393 -2.51274 0
M  V30 9176 H 863.812 5.42621 -1.01321 0
M  V30 9177 H 864.289 4.38017 0.322084 0
M  V30 9178 H 864.895 4.04426 -1.31603 0
M  V30 9179 N 863.21 0.781244 1.36873 0
M  V30 9180 C 864.14 0.188128 2.32741 0
M  V30 9181 C 865.121 -0.672326 1.56249 0
M  V30 9182 O 866.306 -0.607835 1.84442 0
M  V30 9183 C 863.436 -0.684341 3.40491 0
M  V30 9184 C 862.39 0.0755641 4.27933 0
M  V30 9185 C 861.716 -0.916968 5.26779 0
M  V30 9186 C 863.016 1.26006 5.06873 0
M  V30 9187 H 864.71 0.989016 2.82593 0
M  V30 9188 H 862.256 0.477038 1.35869 0
M  V30 9189 H 864.209 -1.10915 4.06541 0
M  V30 9190 H 862.933 -1.51785 2.89187 0
M  V30 9191 H 861.592 0.481258 3.63427 0
M  V30 9192 H 861.24 -1.74528 4.71751 0
M  V30 9193 H 860.94 -0.413 5.86147 0
M  V30 9194 H 862.464 -1.34052 5.95703 0
M  V30 9195 H 863.878 0.911425 5.66009 0
M  V30 9196 H 862.275 1.69676 5.75613 0
M  V30 9197 H 863.345 2.05948 4.38991 0
M  V30 9198 N 864.689 -1.48329 0.532571 0
M  V30 9199 C 865.637 -2.31336 -0.242133 0
M  V30 9200 C 866.631 -1.41391 -0.933006 0
M  V30 9201 O 867.837 -1.58284 -0.857096 0
M  V30 9202 H 864.212 -0.745724 -0.0969536 0
M  V30 9203 H 866.183 -2.94555 0.477504 0
M  V30 9204 C 864.932 -3.23501 -1.27446 0
M  V30 9205 H 864.255 -3.92659 -0.752261 0
M  V30 9206 H 865.695 -3.84461 -1.78789 0
M  V30 9207 C 864.154 -2.45288 -2.30944 0
M  V30 9208 O 864.684 -2.17955 -3.37429 0
M  V30 9209 N 862.89 -2.06737 -2.04226 0
M  V30 9210 H 862.437 -2.29166 -1.17647 0
M  V30 9211 H 862.395 -1.54719 -2.73696 0
M  V30 9212 N 866.167 -0.267825 -1.55308 0
M  V30 9213 C 867.414 0.351036 -1.99434 0
M  V30 9214 C 867.742 1.56406 -1.15618 0
M  V30 9215 O 866.997 1.94548 -0.212045 0
M  V30 9216 C 867.296 0.784247 -3.48689 0
M  V30 9217 C 866.962 -0.323328 -4.49739 0
M  V30 9218 C 865.624 -0.627467 -4.77091 0
M  V30 9219 C 867.976 -1.07002 -5.10098 0
M  V30 9220 C 865.304 -1.682 -5.62073 0
M  V30 9221 C 867.656 -2.11422 -5.96224 0
M  V30 9222 C 866.32 -2.42479 -6.21901 0
M  V30 9223 H 865.59 0.128453 -0.729781 0
M  V30 9224 H 868.237 -0.380018 -1.87692 0
M  V30 9225 H 866.542 1.59485 -3.57871 0
M  V30 9226 H 868.239 1.2737 -3.80234 0
M  V30 9227 H 864.829 -0.0761528 -4.28532 0
M  V30 9228 H 869.013 -0.848302 -4.88996 0
M  V30 9229 H 864.269 -1.92772 -5.80215 0
M  V30 9230 H 868.443 -2.69759 -6.4203 0
M  V30 9231 H 866.07 -3.24328 -6.87543 0
M  V30 9232 N 867.645 1.57599 0.00500368 0
M  V30 9233 C 869.056 1.78462 0.54848 0
M  V30 9234 C 869.407 0.901869 1.74243 0
M  V30 9235 O 868.532 0.103014 2.16155 0
M  V30 9236 C 869.127 3.2365 1.00179 0
M  V30 9237 C 867.686 3.45627 1.49061 0
M  V30 9238 C 866.833 2.73794 0.439531 0
M  V30 9239 H 869.784 1.57151 -0.22118 0
M  V30 9240 H 869.805 3.31488 1.86805 0
M  V30 9241 H 869.317 3.87873 0.132607 0
M  V30 9242 H 867.418 2.86612 2.38085 0
M  V30 9243 H 867.531 4.54298 1.52152 0
M  V30 9244 H 865.895 2.38267 0.900043 0
M  V30 9245 H 866.678 3.40714 -0.420599 0
M  V30 9246 N 869.123 -0.277682 1.55134 0
M  V30 9247 C 870.372 -1.00766 1.74726 0
M  V30 9248 C 870.685 -1.87617 0.553092 0
M  V30 9249 O 871.891 -2.64058 0.631318 0
M  V30 9250 C 870.347 -1.84147 3.09221 0
M  V30 9251 C 869.955 -1.02186 4.3619 0
M  V30 9252 C 871.699 -2.56604 3.38164 0
M  V30 9253 C 869.606 -1.84978 5.61727 0
M  V30 9254 H 868.536 -0.379948 0.651273 0
M  V30 9255 H 871.187 -0.263543 1.81598 0
M  V30 9256 H 869.569 -2.62637 2.96375 0
M  V30 9257 H 870.743 -0.281459 4.5994 0
M  V30 9258 H 869.058 -0.412054 4.14356 0
M  V30 9259 H 871.655 -3.18942 4.29162 0
M  V30 9260 H 871.998 -3.26647 2.58085 0
M  V30 9261 H 872.531 -1.85147 3.52087 0
M  V30 9262 H 869.27 -1.19365 6.4454 0
M  V30 9263 H 868.79 -2.56628 5.42128 0
M  V30 9264 H 870.469 -2.42458 5.99853 0
M  V30 9265 N 870.601 -1.47988 -0.541979 0
M  V30 9266 C 871.826 -1.59286 -1.32826 0
M  V30 9267 C 872.251 -0.24894 -1.86445 0
M  V30 9268 O 871.609 0.777581 -1.63778 0
M  V30 9269 C 871.657 -2.6334 -2.46343 0
M  V30 9270 O 870.761 -2.19667 -3.49028 0
M  V30 9271 H 870.102 -0.534543 -0.393903 0
M  V30 9272 H 872.632 -1.93885 -0.653427 0
M  V30 9273 H 872.642 -2.84238 -2.92699 0
M  V30 9274 H 871.317 -3.60913 -2.06675 0
M  V30 9275 H 869.894 -2.08932 -3.08872 0
M  V30 9276 N 872.079 0.78992 -1.36375 0
M  V30 9277 C 873.49 1.36506 -1.2737 0
M  V30 9278 C 873.841 1.96008 0.086711 0
M  V30 9279 O 872.966 1.92521 0.988159 0
M  V30 9280 C 873.561 2.48175 -2.30639 0
M  V30 9281 C 872.12 3.01506 -2.25325 0
M  V30 9282 C 871.267 1.74581 -2.15445 0
M  V30 9283 H 874.218 0.591606 -1.47261 0
M  V30 9284 H 874.239 3.27179 -1.94253 0
M  V30 9285 H 873.751 2.04838 -3.2964 0
M  V30 9286 H 871.852 3.49265 -1.29788 0
M  V30 9287 H 871.965 3.58355 -3.17992 0
M  V30 9288 H 870.329 1.96794 -1.61692 0
M  V30 9289 H 871.112 1.33373 -3.16333 0
M  V30 9290 N 873.557 1.20646 1.01402 0
M  V30 9291 C 874.806 1.01242 1.7445 0
M  V30 9292 C 875.119 -0.455732 1.90217 0
M  V30 9293 O 876.325 -0.768951 2.60383 0
M  V30 9294 C 874.781 1.76275 3.13776 0
M  V30 9295 C 874.389 3.27201 3.06013 0
M  V30 9296 C 876.133 1.65248 3.91016 0
M  V30 9297 C 874.04 3.9476 4.40362 0
M  V30 9298 H 872.97 0.375202 0.654018 0
M  V30 9299 H 875.621 1.44292 1.13367 0
M  V30 9300 H 874.003 1.26013 3.75415 0
M  V30 9301 H 875.177 3.84695 2.53665 0
M  V30 9302 H 873.492 3.38669 2.42265 0
M  V30 9303 H 876.089 2.13061 4.90417 0
M  V30 9304 H 876.432 0.609128 4.1182 0
M  V30 9305 H 876.965 2.12937 3.3601 0
M  V30 9306 H 873.704 4.99258 4.24761 0
M  V30 9307 H 873.224 3.42054 4.92706 0
M  V30 9308 H 874.903 3.99159 5.09196 0
M  V30 9309 N 875.035 -1.20752 1.01276 0
M  V30 9310 C 875.945 -2.27079 0.589277 0
M  V30 9311 C 876.961 -1.6999 -0.371389 0
M  V30 9312 O 878.137 -2.00044 -0.233294 0
M  V30 9313 C 875.202 -3.4663 -0.0696715 0
M  V30 9314 C 874.263 -4.18962 0.936454 0
M  V30 9315 C 873.496 -5.32806 0.308856 0
M  V30 9316 O 873.719 -5.63376 -0.8924 0
M  V30 9317 O 872.653 -5.93131 1.02367 0
M  V30 9318 H 876.479 -2.6551 1.47438 0
M  V30 9319 H 874.064 -1.27297 0.782045 0
M  V30 9320 H 875.946 -4.19119 -0.437873 0
M  V30 9321 H 874.621 -3.10082 -0.929029 0
M  V30 9322 H 873.528 -3.48661 1.35595 0
M  V30 9323 H 874.861 -4.59441 1.76565 0
M  V30 9324 N 876.513 -0.788492 -1.36457 0
M  V30 9325 C 877.741 -0.372365 -2.03522 0
M  V30 9326 C 878.156 1.01093 -1.59454 0
M  V30 9327 O 877.513 1.64824 -0.783535 0
M  V30 9328 C 877.564 -0.425435 -3.58988 0
M  V30 9329 O 877.285 -1.75418 -4.01448 0
M  V30 9330 C 878.786 0.000180167 -4.433 0
M  V30 9331 H 876.006 -0.1536 -0.653183 0
M  V30 9332 H 878.55 -1.06708 -1.74452 0
M  V30 9333 H 876.705 0.220856 -3.8677 0
M  V30 9334 H 877.119 -1.70437 -4.96036 0
M  V30 9335 H 878.593 -0.0880919 -5.5193 0
M  V30 9336 H 879.07 1.05269 -4.26398 0
M  V30 9337 H 879.676 -0.618563 -4.20778 0
M  V30 9338 N 877.991 1.48044 -0.54043 0
M  V30 9339 C 879.237 2.02797 -0.0101718 0
M  V30 9340 C 879.57 1.41565 1.32939 0
M  V30 9341 O 878.845 0.565139 1.86109 0
M  V30 9342 C 879.128 3.59959 0.100758 0
M  V30 9343 C 878.981 4.31654 -1.26471 0
M  V30 9344 C 880.3 4.32347 0.822455 0
M  V30 9345 H 877.419 0.736982 -0.00517052 0
M  V30 9346 H 880.061 1.76656 -0.69948 0
M  V30 9347 H 878.211 3.82363 0.687824 0
M  V30 9348 H 879.883 4.20639 -1.89369 0
M  V30 9349 H 878.126 3.92663 -1.84386 0
M  V30 9350 H 878.797 5.401 -1.13998 0
M  V30 9351 H 881.273 4.14835 0.324164 0
M  V30 9352 H 880.149 5.41978 0.868993 0
M  V30 9353 H 880.41 4.00369 1.87501 0
M  V30 9354 N 879.47 0.276058 1.55163 0
M  V30 9355 C 880.881 -0.221516 1.85381 0
M  V30 9356 C 881.232 -1.55372 1.19808 0
M  V30 9357 O 880.357 -2.10855 0.486742 0
M  V30 9358 C 880.952 -0.408706 3.36326 0
M  V30 9359 C 879.511 -0.850512 3.66665 0
M  V30 9360 C 878.658 0.055656 2.77244 0
M  V30 9361 H 881.609 0.497819 1.5069 0
M  V30 9362 H 881.63 -1.24711 3.59482 0
M  V30 9363 H 881.142 0.561052 3.84023 0
M  V30 9364 H 879.243 -1.83171 3.24468 0
M  V30 9365 H 879.356 -0.687181 4.74146 0
M  V30 9366 H 877.72 -0.460819 2.50497 0
M  V30 9367 H 878.503 1.02131 3.27756 0
M  V30 9368 N 880.948 -1.576 0.00335426 0
M  V30 9369 C 882.194 -1.90996 -0.681799 0
M  V30 9370 C 882.527 -0.877643 -1.73237 0
M  V30 9371 O 881.802 0.103183 -1.94226 0
M  V30 9372 C 882.085 -3.34961 -1.32187 0
M  V30 9373 C 881.938 -4.48911 -0.28261 0
M  V30 9374 C 883.257 -3.78408 -2.24711 0
M  V30 9375 H 880.376 -0.694596 -0.246386 0
M  V30 9376 H 883.018 -1.89919 0.055336 0
M  V30 9377 H 881.168 -3.36008 -1.95014 0
M  V30 9378 H 882.84 -4.59999 0.346241 0
M  V30 9379 H 881.083 -4.32 0.394768 0
M  V30 9380 H 881.754 -5.46609 -0.769576 0
M  V30 9381 H 884.23 -3.78934 -1.71897 0
M  V30 9382 H 883.106 -4.79885 -2.66461 0
M  V30 9383 H 883.367 -3.12464 -3.1276 0
M  V30 9384 N 882.426 0.269451 -1.5528 0
M  V30 9385 C 883.373 1.33316 -1.88403 0
M  V30 9386 C 884.343 1.48909 -0.735881 0
M  V30 9387 O 885.528 1.63259 -0.987479 0
M  V30 9388 C 882.668 2.68778 -2.16454 0
M  V30 9389 C 881.781 2.61377 -3.43956 0
M  V30 9390 C 880.916 3.89042 -3.6169 0
M  V30 9391 C 879.955 3.76166 -4.82872 0
M  V30 9392 N 879.092 4.95673 -4.97245 0
M  V30 9393 H 883.932 1.04368 -2.79126 0
M  V30 9394 H 881.469 0.504147 -1.38191 0
M  V30 9395 H 883.427 3.47599 -2.30719 0
M  V30 9396 H 882.057 2.9592 -1.28961 0
M  V30 9397 H 881.109 1.74247 -3.38145 0
M  V30 9398 H 882.421 2.47764 -4.32914 0
M  V30 9399 H 881.575 4.76304 -3.75791 0
M  V30 9400 H 880.314 4.05526 -2.70924 0
M  V30 9401 H 879.319 2.87287 -4.68771 0
M  V30 9402 H 880.544 3.61198 -5.75077 0
M  V30 9403 H 878.49 5.12561 -4.09411 0
M  V30 9404 H 878.407 4.84605 -5.80254 0
M  V30 9405 H 879.675 5.84498 -5.15735 0
M  V30 9406 N 883.904 1.48273 0.534124 0
M  V30 9407 C 884.834 1.6538 1.64839 0
M  V30 9408 C 885.815 0.502741 1.62501 0
M  V30 9409 O 887 0.734799 1.79762 0
M  V30 9410 C 884.13 1.68949 3.03436 0
M  V30 9411 C 883.084 2.83513 3.20631 0
M  V30 9412 C 882.41 2.72169 4.60248 0
M  V30 9413 C 883.71 4.24858 3.03797 0
M  V30 9414 H 885.404 2.58663 1.50777 0
M  V30 9415 H 882.95 1.24479 0.723937 0
M  V30 9416 H 884.903 1.79505 3.81256 0
M  V30 9417 H 883.627 0.722415 3.1851 0
M  V30 9418 H 882.286 2.72505 2.45227 0
M  V30 9419 H 881.934 1.7344 4.72152 0
M  V30 9420 H 881.634 3.49042 4.72698 0
M  V30 9421 H 883.158 2.84687 5.40172 0
M  V30 9422 H 884.572 4.36721 3.71413 0
M  V30 9423 H 882.969 5.02697 3.27743 0
M  V30 9424 H 884.039 4.41611 2.0027 0
M  V30 9425 N 885.382 -0.782676 1.36792 0
M  V30 9426 C 886.329 -1.89558 1.31667 0
M  V30 9427 C 887.299 -1.65076 0.184147 0
M  V30 9428 O 888.484 -1.87143 0.371753 0
M  V30 9429 C 885.624 -3.26469 1.11858 0
M  V30 9430 C 884.737 -3.62978 2.34245 0
M  V30 9431 C 883.872 -4.89041 2.07394 0
M  V30 9432 C 882.911 -5.18249 3.25706 0
M  V30 9433 N 882.048 -6.35497 2.98476 0
M  V30 9434 H 886.888 -1.93274 2.26824 0
M  V30 9435 H 884.425 -0.945057 1.12726 0
M  V30 9436 H 886.383 -4.05431 0.983968 0
M  V30 9437 H 885.013 -3.22158 0.203531 0
M  V30 9438 H 884.065 -2.79087 2.58485 0
M  V30 9439 H 885.377 -3.80507 3.22514 0
M  V30 9440 H 884.531 -5.75883 1.90901 0
M  V30 9441 H 883.27 -4.73594 1.16446 0
M  V30 9442 H 882.275 -4.29887 3.4275 0
M  V30 9443 H 883.5 -5.35611 4.1749 0
M  V30 9444 H 881.446 -6.21429 2.10146 0
M  V30 9445 H 881.363 -6.5339 3.80286 0
M  V30 9446 H 882.631 -7.25304 2.85577 0
M  V30 9447 N 886.86 -1.21182 -1.00761 0
M  V30 9448 C 888.271 -1.02652 -1.55947 0
M  V30 9449 C 888.622 0.414466 -1.91772 0
M  V30 9450 O 887.747 1.29727 -1.73204 0
M  V30 9451 C 888.342 -1.85713 -2.83366 0
M  V30 9452 C 886.901 -1.71523 -3.35048 0
M  V30 9453 C 886.048 -1.83087 -2.08265 0
M  V30 9454 H 888.999 -1.35242 -0.830379 0
M  V30 9455 H 889.02 -1.36583 -3.55141 0
M  V30 9456 H 888.532 -2.90584 -2.5726 0
M  V30 9457 H 886.633 -0.693257 -3.66094 0
M  V30 9458 H 886.746 -2.53333 -4.06644 0
M  V30 9459 H 885.11 -1.26367 -2.21141 0
M  V30 9460 H 885.893 -2.8946 -1.84575 0
M  V30 9461 N 888.338 1.20213 -1.01915 0
M  V30 9462 C 889.586 1.89272 -0.708552 0
M  V30 9463 C 889.907 1.79394 0.76438 0
M  V30 9464 O 889.177 1.198 1.54999 0
M  V30 9465 H 887.757 0.700628 -0.259094 0
M  V30 9466 H 890.419 1.45985 -1.29129 0
M  V30 9467 H 889.515 2.95841 -0.994215 0
M  V30 9468 N 889.816 0.795718 1.36037 0
M  V30 9469 C 890.749 0.144269 2.27744 0
M  V30 9470 C 891.727 -0.683351 1.47543 0
M  V30 9471 O 892.911 -0.652976 1.76829 0
M  V30 9472 C 890.038 -0.800944 3.29094 0
M  V30 9473 C 889.084 -0.0543234 4.26465 0
M  V30 9474 S 889.917 1.27426 5.20118 0
M  V30 9475 C 891.073 0.333213 6.25012 0
M  V30 9476 H 891.306 0.921827 2.82648 0
M  V30 9477 H 888.839 0.590241 1.42673 0
M  V30 9478 H 890.797 -1.34082 3.87985 0
M  V30 9479 H 889.458 -1.5518 2.7309 0
M  V30 9480 H 888.651 -0.771788 4.98056 0
M  V30 9481 H 888.253 0.415264 3.71687 0
M  V30 9482 H 890.545 -0.485604 6.75757 0
M  V30 9483 H 891.488 1.01798 7.00744 0
M  V30 9484 H 891.896 -0.066256 5.64461 0
M  V30 9485 N 891.294 -1.47756 0.548274 0
M  V30 9486 C 892.571 -1.9555 -0.0443603 0
M  V30 9487 C 892.951 -1.49079 -1.49462 0
M  V30 9488 O 892.299 -0.725538 -2.16675 0
M  V30 9489 C 892.509 -3.48879 0.0918425 0
M  V30 9490 C 893.857 -4.2456 -0.0580879 0
M  V30 9491 O 894.881 -3.56195 0.018946 0
M  V30 9492 O 893.74 -5.46048 -0.222261 0
M  V30 9493 H 890.834 -0.824106 -0.0691235 0
M  V30 9494 H 893.38 -1.58196 0.614166 0
M  V30 9495 H 892.152 -3.7548 1.10137 0
M  V30 9496 H 891.775 -3.92975 -0.604704 0
M  V30 9497 N 892.772 -0.284283 -1.55015 0
M  V30 9498 C 894.02 0.329212 -1.99401 0
M  V30 9499 C 894.341 1.55687 -1.17416 0
M  V30 9500 O 893.611 1.94087 -0.265937 0
M  V30 9501 H 892.191 0.12463 -0.73653 0
M  V30 9502 H 894.853 -0.391743 -1.90922 0
M  V30 9503 H 893.949 0.61278 -3.06025 0
M  V30 9504 N 894.251 1.57596 -0.0117121 0
M  V30 9505 C 895.662 1.79033 0.529521 0
M  V30 9506 C 896.013 0.920299 1.73277 0
M  V30 9507 O 895.138 0.125934 2.16033 0
M  V30 9508 C 895.733 3.24695 0.967405 0
M  V30 9509 C 894.292 3.47188 1.45387 0
M  V30 9510 C 893.439 2.74245 0.410466 0
M  V30 9511 H 896.39 1.56908 -0.237836 0
M  V30 9512 H 896.411 3.33451 1.83278 0
M  V30 9513 H 895.923 3.87992 0.0914605 0
M  V30 9514 H 894.024 2.89121 2.35032 0
M  V30 9515 H 894.137 4.55886 1.47325 0
M  V30 9516 H 892.501 2.39209 0.874721 0
M  V30 9517 H 893.284 3.40248 -0.456713 0
M  V30 9518 N 895.729 -0.261212 1.5542 0
M  V30 9519 C 896.676 -1.32315 1.89107 0
M  V30 9520 C 897.646 -1.48517 0.743767 0
M  V30 9521 O 898.831 -1.62733 0.996123 0
M  V30 9522 C 895.971 -2.67626 2.17877 0
M  V30 9523 C 895.084 -2.59549 3.45338 0
M  V30 9524 C 894.219 -3.87118 3.63748 0
M  V30 9525 C 893.258 -3.736 4.8486 0
M  V30 9526 N 892.395 -4.93029 4.99867 0
M  V30 9527 H 897.235 -1.02886 2.79675 0
M  V30 9528 H 894.772 -0.496812 1.38456 0
M  V30 9529 H 896.73 -3.4637 2.32559 0
M  V30 9530 H 895.36 -2.95232 1.30529 0
M  V30 9531 H 894.412 -1.72452 3.39064 0
M  V30 9532 H 895.724 -2.45465 4.34222 0
M  V30 9533 H 894.878 -4.74305 3.78312 0
M  V30 9534 H 893.617 -4.04084 2.73071 0
M  V30 9535 H 892.622 -2.84797 4.70288 0
M  V30 9536 H 893.847 -3.58143 5.76984 0
M  V30 9537 H 891.793 -5.10383 4.12123 0
M  V30 9538 H 891.71 -4.81521 5.82815 0
M  V30 9539 H 892.978 -5.81754 5.18828 0
M  V30 9540 N 897.207 -1.48554 -0.526253 0
M  V30 9541 C 898.453 -1.56994 -1.28378 0
M  V30 9542 C 898.786 -0.244701 -1.92652 0
M  V30 9543 O 898.061 0.749636 -1.79473 0
M  V30 9544 C 898.344 -2.71092 -2.37026 0
M  V30 9545 C 898.197 -4.13331 -1.77418 0
M  V30 9546 C 899.516 -2.80934 -3.38769 0
M  V30 9547 H 896.635 -0.571466 -0.465398 0
M  V30 9548 H 899.277 -1.80742 -0.585861 0
M  V30 9549 H 897.427 -2.50973 -2.96555 0
M  V30 9550 H 899.099 -4.44899 -1.21912 0
M  V30 9551 H 897.342 -4.20158 -1.07936 0
M  V30 9552 H 898.013 -4.88994 -2.56104 0
M  V30 9553 H 900.489 -2.9917 -2.892 0
M  V30 9554 H 899.365 -3.62489 -4.12181 0
M  V30 9555 H 899.626 -1.89244 -3.99549 0
M  V30 9556 N 898.685 0.775411 -1.37205 0
M  V30 9557 C 899.632 1.88857 -1.32671 0
M  V30 9558 C 900.602 1.64976 -0.192899 0
M  V30 9559 O 901.787 1.86944 -0.381673 0
M  V30 9560 C 898.927 3.25871 -1.13588 0
M  V30 9561 C 898.04 3.61731 -2.36167 0
M  V30 9562 C 897.175 4.87934 -2.09985 0
M  V30 9563 C 896.214 5.16514 -3.2845 0
M  V30 9564 N 895.351 6.33905 -3.01842 0
M  V30 9565 H 900.191 1.92068 -2.27846 0
M  V30 9566 H 897.728 0.939066 -1.13225 0
M  V30 9567 H 899.686 4.04903 -1.00546 0
M  V30 9568 H 898.316 3.22045 -0.220613 0
M  V30 9569 H 897.368 2.77712 -2.59962 0
M  V30 9570 H 898.68 3.78792 -3.24528 0
M  V30 9571 H 897.834 5.74863 -1.93953 0
M  V30 9572 H 896.573 4.7297 -1.18956 0
M  V30 9573 H 895.578 4.28063 -3.45025 0
M  V30 9574 H 896.803 5.33389 -4.20325 0
M  V30 9575 H 894.749 6.20306 -2.13439 0
M  V30 9576 H 894.666 6.51364 -3.83746 0
M  V30 9577 H 895.934 7.23779 -2.8942 0
M  V30 9578 N 900.163 1.21714 1.00117 0
M  V30 9579 C 901.095 0.937627 2.09144 0
M  V30 9580 C 902.108 -0.0806291 1.626 0
M  V30 9581 O 903.297 0.152348 1.77849 0
M  V30 9582 C 900.397 0.387036 3.36683 0
M  V30 9583 C 899.57 1.46054 4.12295 0
M  V30 9584 C 898.629 0.918505 5.18122 0
M  V30 9585 O 897.655 1.60282 5.46167 0
M  V30 9586 N 898.857 -0.264308 5.79898 0
M  V30 9587 H 901.622 1.87622 2.33705 0
M  V30 9588 H 899.183 1.12291 1.16629 0
M  V30 9589 H 901.175 0.00992825 4.04699 0
M  V30 9590 H 899.745 -0.456467 3.09249 0
M  V30 9591 H 898.965 2.01133 3.39027 0
M  V30 9592 H 900.253 2.18306 4.59587 0
M  V30 9593 H 899.651 -0.837242 5.5947 0
M  V30 9594 H 898.208 -0.582886 6.49188 0
M  V30 9595 N 901.641 -1.19671 1.02551 0
M  V30 9596 C 902.887 -1.89818 0.730801 0
M  V30 9597 C 903.242 -1.77917 -0.732355 0
M  V30 9598 O 902.535 -1.15848 -1.5261 0
M  V30 9599 C 902.729 -3.39647 1.11241 0
M  V30 9600 C 902.558 -3.66129 2.61112 0
M  V30 9601 C 901.328 -3.84348 3.28032 0
M  V30 9602 C 903.526 -3.67963 3.59316 0
M  V30 9603 N 901.508 -3.98429 4.67041 0
M  V30 9604 C 902.879 -3.87575 4.83927 0
M  V30 9605 C 904.934 -3.50971 3.53162 0
M  V30 9606 C 903.637 -3.91957 6.03127 0
M  V30 9607 C 905.663 -3.56629 4.71773 0
M  V30 9608 C 905.025 -3.76722 5.95197 0
M  V30 9609 H 901.124 -0.713873 0.319232 0
M  V30 9610 H 903.708 -1.43844 1.31213 0
M  V30 9611 H 901.879 -3.84352 0.559324 0
M  V30 9612 H 903.611 -3.97301 0.77031 0
M  V30 9613 H 900.366 -3.83097 2.78448 0
M  V30 9614 H 900.79 -4.09327 5.39241 0
M  V30 9615 H 905.432 -3.34395 2.58728 0
M  V30 9616 H 903.15 -4.07326 6.97933 0
M  V30 9617 H 906.736 -3.44777 4.68637 0
M  V30 9618 H 905.616 -3.8097 6.85442 0
M  V30 9619 N 903.119 -0.802921 -1.35613 0
M  V30 9620 C 904.53 -0.443004 -1.81368 0
M  V30 9621 C 904.881 1.03459 -1.66706 0
M  V30 9622 O 904.006 1.80372 -1.19561 0
M  V30 9623 C 904.601 -0.797324 -3.29284 0
M  V30 9624 C 903.16 -0.490055 -3.73196 0
M  V30 9625 C 902.307 -1.02487 -2.57666 0
M  V30 9626 H 905.258 -0.994888 -1.23643 0
M  V30 9627 H 905.279 -0.0934638 -3.80385 0
M  V30 9628 H 904.791 -1.87278 -3.39924 0
M  V30 9629 H 902.892 0.576818 -3.68108 0
M  V30 9630 H 903.005 -1.02012 -4.68114 0
M  V30 9631 H 901.369 -0.44738 -2.5074 0
M  V30 9632 H 902.152 -2.10636 -2.71085 0
M  V30 9633 N 904.597 1.47463 -0.556102 0
M  V30 9634 C 905.527 2.32801 0.180497 0
M  V30 9635 C 906.508 1.43721 0.909848 0
M  V30 9636 O 907.693 1.72578 0.89053 0
M  V30 9637 C 904.823 3.25478 1.21167 0
M  V30 9638 C 903.777 4.2379 0.598846 0
M  V30 9639 C 903.103 5.05783 1.73457 0
M  V30 9640 C 904.403 5.20387 -0.446659 0
M  V30 9641 H 906.097 2.94636 -0.531956 0
M  V30 9642 H 903.643 1.41683 -0.257267 0
M  V30 9643 H 905.596 3.8402 1.73513 0
M  V30 9644 H 904.32 2.61695 1.95405 0
M  V30 9645 H 902.979 3.66472 0.0966897 0
M  V30 9646 H 902.627 4.38405 2.46596 0
M  V30 9647 H 902.327 5.72343 1.33031 0
M  V30 9648 H 903.851 5.67183 2.26131 0
M  V30 9649 H 905.265 5.73299 -0.00930019 0
M  V30 9650 H 903.662 5.95143 -0.769735 0
M  V30 9651 H 904.732 4.65932 -1.34295 0
M  V30 9652 N 906.075 0.2925 1.54862 0
M  V30 9653 C 907.303 -0.322113 2.04377 0
M  V30 9654 C 907.718 -1.48164 1.17016 0
M  V30 9655 O 907.075 -1.81466 0.19395 0
M  V30 9656 C 907.126 -0.786506 3.5284 0
M  V30 9657 O 906.847 0.326863 4.36879 0
M  V30 9658 C 908.348 -1.46715 4.18318 0
M  V30 9659 H 905.568 -0.0712074 0.667211 0
M  V30 9660 H 908.112 0.429657 1.99935 0
M  V30 9661 H 906.267 -1.48832 3.5767 0
M  V30 9662 H 906.681 -0.0331558 5.2449 0
M  V30 9663 H 908.155 -1.74333 5.23748 0
M  V30 9664 H 908.632 -2.40443 3.67538 0
M  V30 9665 H 909.238 -0.808735 4.1754 0
M  V30 9666 N 907.553 -1.57587 0.0200696 0
M  V30 9667 C 908.463 -2.13119 -0.980676 0
M  V30 9668 C 909.479 -1.08124 -1.36328 0
M  V30 9669 O 910.655 -1.40134 -1.44653 0
M  V30 9670 C 907.72 -2.63991 -2.24743 0
M  V30 9671 C 906.781 -3.83667 -1.9261 0
M  V30 9672 C 906.014 -4.32103 -3.13246 0
M  V30 9673 O 906.237 -3.79758 -4.25606 0
M  V30 9674 O 905.171 -5.24047 -2.96072 0
M  V30 9675 H 908.997 -2.98887 -0.538528 0
M  V30 9676 H 906.582 -1.48055 -0.19999 0
M  V30 9677 H 908.464 -2.9682 -2.99125 0
M  V30 9678 H 907.139 -1.81311 -2.68157 0
M  V30 9679 H 906.046 -3.55778 -1.15641 0
M  V30 9680 H 907.379 -4.67482 -1.54019 0
M  V30 9681 N 909.032 0.252966 -1.55557 0
M  V30 9682 C 909.942 1.33472 -1.92931 0
M  V30 9683 C 910.958 1.52983 -0.828985 0
M  V30 9684 O 912.134 1.66723 -1.12984 0
M  V30 9685 C 909.199 2.6704 -2.21112 0
M  V30 9686 C 908.26 2.56103 -3.44542 0
M  V30 9687 C 907.493 3.83302 -3.71369 0
M  V30 9688 O 907.716 4.84907 -3.00368 0
M  V30 9689 O 906.65 3.823 -4.64898 0
M  V30 9690 H 910.476 1.04768 -2.85057 0
M  V30 9691 H 908.061 0.453208 -1.4236 0
M  V30 9692 H 909.943 3.45981 -2.40572 0
M  V30 9693 H 908.618 2.95489 -1.32166 0
M  V30 9694 H 907.525 1.7547 -3.30396 0
M  V30 9695 H 908.858 2.32601 -4.33772 0
M  V30 9696 N 910.51 1.48831 0.518367 0
M  V30 9697 C 911.457 1.64216 1.62178 0
M  V30 9698 C 912.427 0.483942 1.58894 0
M  V30 9699 O 913.612 0.708857 1.77144 0
M  V30 9700 C 910.752 1.69867 3.00399 0
M  V30 9701 C 909.865 2.96875 3.1383 0
M  V30 9702 C 909 2.93613 4.42679 0
M  V30 9703 C 908.039 4.15276 4.4968 0
M  V30 9704 N 907.176 4.10024 5.69934 0
M  V30 9705 H 912.016 2.58439 1.48368 0
M  V30 9706 H 909.553 1.28154 0.722152 0
M  V30 9707 H 911.511 1.71124 3.8049 0
M  V30 9708 H 910.141 0.791249 3.12952 0
M  V30 9709 H 909.193 3.0531 2.26914 0
M  V30 9710 H 910.505 3.86863 3.14863 0
M  V30 9711 H 909.659 2.93337 5.31073 0
M  V30 9712 H 908.398 2.01375 4.44184 0
M  V30 9713 H 907.403 4.15816 3.59691 0
M  V30 9714 H 908.628 5.08687 4.49904 0
M  V30 9715 H 906.574 3.20613 5.72314 0
M  V30 9716 H 906.491 4.93728 5.72511 0
M  V30 9717 H 907.759 4.13824 6.60583 0
M  V30 9718 N 911.988 -0.768124 1.37614 0
M  V30 9719 C 913.237 -1.5221 1.32345 0
M  V30 9720 C 913.55 -1.95399 -0.0885761 0
M  V30 9721 O 914.756 -2.70216 -0.263752 0
M  V30 9722 C 913.212 -2.74872 2.32322 0
M  V30 9723 C 912.82 -2.38767 3.79071 0
M  V30 9724 C 914.564 -3.52805 2.36069 0
M  V30 9725 C 912.471 -3.57953 4.7077 0
M  V30 9726 H 911.401 -0.571461 0.491883 0
M  V30 9727 H 914.052 -0.841004 1.63093 0
M  V30 9728 H 912.434 -3.44889 1.94596 0
M  V30 9729 H 913.608 -1.7651 4.25654 0
M  V30 9730 H 911.923 -1.74 3.78303 0
M  V30 9731 H 914.52 -4.41397 3.01782 0
M  V30 9732 H 914.863 -3.92925 1.37535 0
M  V30 9733 H 915.396 -2.89788 2.72521 0
M  V30 9734 H 912.135 -3.22911 5.70446 0
M  V30 9735 H 911.655 -4.19302 4.28889 0
M  V30 9736 H 913.334 -4.2472 4.8808 0
M  V30 9737 N 913.466 -1.22244 -0.994698 0
M  V30 9738 C 914.413 -0.990906 -2.08446 0
M  V30 9739 C 915.383 0.086737 -1.65873 0
M  V30 9740 O 916.568 -0.0624882 -1.90698 0
M  V30 9741 C 913.708 -0.572813 -3.40313 0
M  V30 9742 C 912.821 -1.72103 -3.96238 0
M  V30 9743 C 911.956 -1.2511 -5.16257 0
M  V30 9744 C 910.995 -2.37098 -5.64315 0
M  V30 9745 N 910.132 -1.91164 -6.75574 0
M  V30 9746 H 914.972 -1.92377 -2.27585 0
M  V30 9747 H 912.509 -0.958576 -1.11578 0
M  V30 9748 H 914.467 -0.311594 -4.16035 0
M  V30 9749 H 913.097 0.323044 -3.21179 0
M  V30 9750 H 912.149 -2.09662 -3.17405 0
M  V30 9751 H 913.461 -2.56347 -4.27888 0
M  V30 9752 H 912.615 -0.947152 -5.99261 0
M  V30 9753 H 911.354 -0.378836 -4.86226 0
M  V30 9754 H 910.359 -2.68283 -4.799 0
M  V30 9755 H 911.584 -3.24837 -5.96371 0
M  V30 9756 H 909.53 -1.06298 -6.47331 0
M  V30 9757 H 909.447 -2.68975 -7.06533 0
M  V30 9758 H 910.715 -1.63833 -7.62088 0
M  V30 9759 N 914.944 1.19125 -1.03184 0
M  V30 9760 C 915.907 2.20662 -0.619766 0
M  V30 9761 C 916.907 1.57621 0.318179 0
M  V30 9762 O 918.097 1.73885 0.104783 0
M  V30 9763 C 915.229 3.40774 0.0926696 0
M  V30 9764 H 916.422 2.58633 -1.5182 0
M  V30 9765 H 913.975 1.32855 -0.823364 0
M  V30 9766 H 914.71 3.08324 1.00531 0
M  V30 9767 H 914.495 3.87766 -0.581344 0
M  V30 9768 H 915.985 4.15977 0.367792 0
M  V30 9769 N 916.422 0.810101 1.35185 0
M  V30 9770 C 917.352 0.237453 2.32289 0
M  V30 9771 C 918.333 -0.639032 1.5764 0
M  V30 9772 O 919.518 -0.568575 1.8569 0
M  V30 9773 C 916.648 -0.611964 3.41866 0
M  V30 9774 C 915.602 0.166318 4.27677 0
M  V30 9775 C 914.928 -0.805024 5.28605 0
M  V30 9776 C 916.228 1.36729 5.04086 0
M  V30 9777 H 917.922 1.04874 2.80432 0
M  V30 9778 H 915.468 0.505751 1.34826 0
M  V30 9779 H 917.421 -1.02267 4.08802 0
M  V30 9780 H 916.145 -1.45617 2.92341 0
M  V30 9781 H 914.804 0.558238 3.62325 0
M  V30 9782 H 914.452 -1.64483 4.75347 0
M  V30 9783 H 914.152 -0.288577 5.86891 0
M  V30 9784 H 915.676 -1.21386 5.98413 0
M  V30 9785 H 917.09 1.03128 5.63948 0
M  V30 9786 H 915.487 1.81848 5.71884 0
M  V30 9787 H 916.557 2.15214 4.34524 0
M  V30 9788 N 917.9 -1.47166 0.563914 0
M  V30 9789 C 919.146 -2.02756 0.0424338 0
M  V30 9790 C 919.479 -1.43662 -1.3067 0
M  V30 9791 O 918.754 -0.594676 -1.85186 0
M  V30 9792 C 919.037 -3.60074 -0.0434793 0
M  V30 9793 C 918.89 -4.29587 1.33323 0
M  V30 9794 C 920.209 -4.336 -0.753568 0
M  V30 9795 H 917.328 -0.736806 0.0168946 0
M  V30 9796 H 919.97 -1.75521 0.727496 0
M  V30 9797 H 918.12 -3.83409 -0.626906 0
M  V30 9798 H 919.792 -4.17573 1.96037 0
M  V30 9799 H 918.035 -3.8968 1.9061 0
M  V30 9800 H 918.706 -5.38218 1.22576 0
M  V30 9801 H 921.182 -4.15299 -0.258126 0
M  V30 9802 H 920.058 -5.43291 -0.782659 0
M  V30 9803 H 920.319 -4.03302 -1.81108 0
M  V30 9804 N 919.378 -0.300708 -1.54705 0
M  V30 9805 C 920.288 0.584996 -2.27189 0
M  V30 9806 C 921.304 1.14866 -1.30697 0
M  V30 9807 O 922.48 1.17351 -1.63679 0
M  V30 9808 C 919.545 1.74076 -2.99831 0
M  V30 9809 C 918.606 1.2112 -4.1186 0
M  V30 9810 C 917.839 2.31188 -4.81028 0
M  V30 9811 O 918.062 3.5108 -4.49554 0
M  V30 9812 O 916.996 1.97897 -5.68437 0
M  V30 9813 H 920.822 -0.00298177 -3.037 0
M  V30 9814 H 918.407 -0.0671802 -1.49249 0
M  V30 9815 H 920.289 2.41413 -3.45395 0
M  V30 9816 H 918.964 2.31535 -2.26215 0
M  V30 9817 H 917.871 0.50357 -3.70695 0
M  V30 9818 H 919.204 0.682046 -4.87452 0
M  V30 9819 N 920.856 1.57574 -0.0284266 0
M  V30 9820 C 922.105 1.9095 0.649704 0
M  V30 9821 C 922.418 0.906421 1.7333 0
M  V30 9822 O 923.624 1.1314 2.46803 0
M  V30 9823 C 922.08 3.39061 1.20687 0
M  V30 9824 C 921.688 4.47726 0.156597 0
M  V30 9825 C 923.432 3.81505 1.86156 0
M  V30 9826 C 921.339 5.86935 0.725365 0
M  V30 9827 H 920.269 0.712589 0.24644 0
M  V30 9828 H 922.92 1.83261 -0.0936143 0
M  V30 9829 H 921.302 3.41679 2.00178 0
M  V30 9830 H 922.476 4.56667 -0.6158 0
M  V30 9831 H 920.791 4.14481 -0.399288 0
M  V30 9832 H 923.388 4.82865 2.29665 0
M  V30 9833 H 923.731 3.16529 2.70398 0
M  V30 9834 H 924.264 3.81307 1.13356 0
M  V30 9835 H 921.003 6.55453 -0.0789081 0
M  V30 9836 H 920.523 5.81602 1.46627 0
M  V30 9837 H 922.202 6.35483 1.21532 0
M  V30 9838 N 922.334 -0.244713 1.55689 0
M  V30 9839 C 923.574 -0.979776 1.79387 0
M  V30 9840 C 923.938 -1.8244 0.598298 0
M  V30 9841 O 925.139 -2.59141 0.7141 0
M  V30 9842 C 923.41 -1.81573 3.07841 0
M  V30 9843 S 924.969 -2.60959 3.52769 0
M  V30 9844 H 921.787 -0.329526 0.630027 0
M  V30 9845 H 924.389 -0.247435 1.93928 0
M  V30 9846 H 923.093 -1.18497 3.92921 0
M  V30 9847 H 922.624 -2.59078 2.96044 0
M  V30 9848 H 924.639 -3.83987 3.14275 0
M  V30 9849 N 923.813 -1.49104 -0.510467 0
M  V30 9850 C 925.041 -1.61806 -1.28944 0
M  V30 9851 C 925.456 -0.285774 -1.86625 0
M  V30 9852 O 924.813 0.727551 -1.67371 0
M  V30 9853 C 924.864 -2.67966 -2.42645 0
M  V30 9854 O 924.585 -3.96026 -1.87337 0
M  V30 9855 C 926.086 -2.91286 -3.34166 0
M  V30 9856 H 923.306 -0.544999 -0.391429 0
M  V30 9857 H 925.85 -1.95071 -0.613805 0
M  V30 9858 H 924.005 -2.37505 -3.06056 0
M  V30 9859 H 924.419 -4.54427 -2.61909 0
M  V30 9860 H 925.893 -3.69323 -4.1025 0
M  V30 9861 H 926.37 -2.00842 -3.90588 0
M  V30 9862 H 926.976 -3.23127 -2.76531 0
M  V30 9863 N 925.291 0.760815 -1.38019 0
M  V30 9864 C 926.201 1.90526 -1.36884 0
M  V30 9865 C 927.217 1.71941 -0.266908 0
M  V30 9866 O 928.393 1.94988 -0.50413 0
M  V30 9867 C 925.458 3.25799 -1.18558 0
M  V30 9868 C 924.519 3.56961 -2.3849 0
M  V30 9869 C 923.752 4.8578 -2.21029 0
M  V30 9870 O 923.975 5.57629 -1.20023 0
M  V30 9871 O 922.909 5.16254 -3.0946 0
M  V30 9872 H 926.735 1.94437 -2.33298 0
M  V30 9873 H 924.32 0.905091 -1.18863 0
M  V30 9874 H 926.202 4.0669 -1.1037 0
M  V30 9875 H 924.877 3.22716 -0.252241 0
M  V30 9876 H 923.784 2.7626 -2.52252 0
M  V30 9877 H 925.117 3.64798 -3.30429 0
M  V30 9878 N 926.769 1.22769 0.988202 0
M  V30 9879 C 927.702 0.945196 2.07705 0
M  V30 9880 C 928.68 -0.11363 1.62202 0
M  V30 9881 O 929.864 0.0189624 1.8849 0
M  V30 9882 C 926.991 0.422474 3.36055 0
M  V30 9883 C 926.037 1.4667 4.00487 0
M  V30 9884 S 926.87 3.04158 4.40736 0
M  V30 9885 C 928.026 2.53536 5.7225 0
M  V30 9886 H 928.259 1.86723 2.31348 0
M  V30 9887 H 925.792 1.05928 1.12333 0
M  V30 9888 H 927.75 0.12748 4.10302 0
M  V30 9889 H 926.411 -0.478515 3.10434 0
M  V30 9890 H 925.604 1.05093 4.92921 0
M  V30 9891 H 925.206 1.71064 3.32585 0
M  V30 9892 H 927.498 1.95069 6.4881 0
M  V30 9893 H 928.441 3.44479 6.1866 0
M  V30 9894 H 928.849 1.94658 5.29876 0
M  V30 9895 N 928.247 -1.18576 1.03814 0
M  V30 9896 C 929.157 -2.25778 0.637311 0
M  V30 9897 C 930.173 -1.7074 -0.335248 0
M  V30 9898 O 931.349 -2.00494 -0.19081 0
M  V30 9899 C 928.414 -3.467 0.00386953 0
M  V30 9900 C 927.475 -4.16881 1.02511 0
M  V30 9901 C 926.708 -5.32031 0.421802 0
M  V30 9902 O 926.931 -5.65142 -0.772699 0
M  V30 9903 O 925.865 -5.90826 1.14925 0
M  V30 9904 H 929.691 -2.62323 1.53037 0
M  V30 9905 H 927.276 -1.25609 0.80887 0
M  V30 9906 H 929.158 -4.19953 -0.348873 0
M  V30 9907 H 927.833 -3.11983 -0.863047 0
M  V30 9908 H 926.74 -3.45707 1.4296 0
M  V30 9909 H 928.073 -4.55592 1.86271 0
M  V30 9910 N 929.725 -0.817259 -1.34754 0
M  V30 9911 C 930.672 -0.233108 -2.2962 0
M  V30 9912 C 931.642 0.638902 -1.53321 0
M  V30 9913 O 932.827 0.581739 -1.81715 0
M  V30 9914 C 929.967 0.603659 -3.39779 0
M  V30 9915 C 929.08 -0.289967 -4.31026 0
M  V30 9916 C 928.215 0.555825 -5.28284 0
M  V30 9917 C 927.254 -0.337539 -6.11169 0
M  V30 9918 N 926.391 0.468847 -7.00533 0
M  V30 9919 H 931.231 -1.04747 -2.78984 0
M  V30 9920 H 928.768 -0.528056 -1.37295 0
M  V30 9921 H 930.726 1.10407 -4.02326 0
M  V30 9922 H 929.356 1.38319 -2.91664 0
M  V30 9923 H 928.408 -0.908552 -3.69391 0
M  V30 9924 H 929.72 -0.977136 -4.89135 0
M  V30 9925 H 928.874 1.12094 -5.96255 0
M  V30 9926 H 927.613 1.27652 -4.70698 0
M  V30 9927 H 926.618 -0.914839 -5.42135 0
M  V30 9928 H 927.843 -1.05626 -6.70835 0
M  V30 9929 H 925.789 1.17332 -6.45422 0
M  V30 9930 H 925.706 -0.160052 -7.55831 0
M  V30 9931 H 926.974 1.01689 -7.72839 0
M  V30 9932 N 931.203 1.46865 -0.571711 0
M  V30 9933 C 932.113 2.33979 0.170571 0
M  V30 9934 C 933.129 1.49083 0.897239 0
M  V30 9935 O 934.305 1.81979 0.862888 0
M  V30 9936 C 931.37 3.26063 1.17831 0
M  V30 9937 C 930.431 4.26855 0.457499 0
M  V30 9938 C 929.664 5.14539 1.41722 0
M  V30 9939 O 929.887 5.04945 2.65305 0
M  V30 9940 O 928.821 5.94612 0.9338 0
M  V30 9941 H 932.647 2.98781 -0.544396 0
M  V30 9942 H 930.232 1.4566 -0.332198 0
M  V30 9943 H 932.114 3.82903 1.75965 0
M  V30 9944 H 930.789 2.63871 1.87493 0
M  V30 9945 H 929.696 3.73734 -0.165406 0
M  V30 9946 H 931.029 4.91802 -0.197953 0
M  V30 9947 N 932.681 0.308908 1.54543 0
M  V30 9948 C 933.929 -0.297447 1.99899 0
M  V30 9949 C 934.25 -1.53799 1.19878 0
M  V30 9950 O 933.52 -1.93639 0.29678 0
M  V30 9951 H 932.1 -0.112897 0.738419 0
M  V30 9952 H 934.762 0.422067 1.90275 0
M  V30 9953 H 933.858 -0.564016 3.06961 0
M  V30 9954 N 934.159 -1.57557 0.0367827 0
M  V30 9955 C 935.106 -2.10679 -0.942499 0
M  V30 9956 C 936.076 -1.01068 -1.31812 0
M  V30 9957 O 937.261 -1.28533 -1.41011 0
M  V30 9958 C 934.401 -2.64467 -2.21701 0
M  V30 9959 C 933.514 -3.88114 -1.89715 0
M  V30 9960 C 932.649 -4.30268 -3.11518 0
M  V30 9961 C 931.688 -5.46652 -2.75387 0
M  V30 9962 N 930.825 -5.83927 -3.89838 0
M  V30 9963 H 935.665 -2.94066 -0.482588 0
M  V30 9964 H 933.202 -1.45344 -0.226597 0
M  V30 9965 H 935.16 -2.93745 -2.96259 0
M  V30 9966 H 933.79 -1.83898 -2.65295 0
M  V30 9967 H 932.842 -3.65516 -1.05366 0
M  V30 9968 H 934.154 -4.72743 -1.5911 0
M  V30 9969 H 933.308 -4.61023 -3.94389 0
M  V30 9970 H 932.047 -3.44421 -3.4529 0
M  V30 9971 H 931.052 -5.15583 -1.90929 0
M  V30 9972 H 932.277 -6.34204 -2.42822 0
M  V30 9973 H 930.223 -5.01035 -4.23438 0
M  V30 9974 H 930.14 -6.63214 -3.62883 0
M  V30 9975 H 931.408 -6.19291 -4.73391 0
M  V30 9976 N 935.637 0.236453 -1.55816 0
M  V30 9977 C 936.886 0.960981 -1.77336 0
M  V30 9978 C 937.199 1.86085 -0.602641 0
M  V30 9979 O 938.405 2.62291 -0.701106 0
M  V30 9980 C 936.861 1.75884 -3.13995 0
M  V30 9981 C 936.469 0.905849 -4.38746 0
M  V30 9982 C 938.213 2.47548 -3.44848 0
M  V30 9983 C 936.12 1.7002 -5.66434 0
M  V30 9984 H 935.05 0.362547 -0.661117 0
M  V30 9985 H 937.701 0.215303 -1.82233 0
M  V30 9986 H 936.083 2.54687 -3.03234 0
M  V30 9987 H 937.257 0.159415 -4.60524 0
M  V30 9988 H 935.572 0.30205 -4.15303 0
M  V30 9989 H 938.169 3.07452 -4.37467 0
M  V30 9990 H 938.512 3.19689 -2.66655 0
M  V30 9991 H 939.045 1.75747 -3.56872 0
M  V30 9992 H 935.784 1.02234 -6.47479 0
M  V30 9993 H 935.304 2.42164 -5.48741 0
M  V30 9994 H 936.983 2.26469 -6.0607 0
M  V30 9995 N 937.115 1.49373 0.502552 0
M  V30 9996 C 938.34 1.62752 1.28556 0
M  V30 9997 C 938.765 0.298285 1.8572 0
M  V30 9998 O 938.123 -0.733885 1.65782 0
M  V30 9999 C 938.171 2.69778 2.39274 0
M  V30 10000 O 937.275 2.28843 3.43081 0
M  V30 10001 H 936.616 0.544799 0.379592 0
M  V30 10002 H 939.146 1.9555 0.601792 0
M  V30 10003 H 939.156 2.91899 2.8506 0
M  V30 10004 H 937.831 3.66266 1.97033 0
M  V30 10005 H 936.408 2.17047 3.03224 0
M  V30 10006 N 938.594 -0.753485 1.38421 0
M  V30 10007 C 939.541 -1.86723 1.35659 0
M  V30 10008 C 940.511 -1.64648 0.219121 0
M  V30 10009 O 941.696 -1.86313 0.411366 0
M  V30 10010 C 938.836 -3.24023 1.18758 0
M  V30 10011 C 937.949 -3.57928 2.41892 0
M  V30 10012 C 937.084 -4.84532 2.17721 0
M  V30 10013 C 936.123 -5.11224 3.36626 0
M  V30 10014 N 935.26 -6.29023 3.11889 0
M  V30 10015 H 940.1 -1.88419 2.30873 0
M  V30 10016 H 937.637 -0.920934 1.14705 0
M  V30 10017 H 939.595 -4.03252 1.06974 0
M  V30 10018 H 938.225 -3.21654 0.27182 0
M  V30 10019 H 937.277 -2.73541 2.64347 0
M  V30 10020 H 938.589 -3.73581 3.30513 0
M  V30 10021 H 937.743 -5.71704 2.03074 0
M  V30 10022 H 936.482 -4.71018 1.26465 0
M  V30 10023 H 935.487 -4.2252 3.51791 0
M  V30 10024 H 936.712 -5.26635 4.28757 0
M  V30 10025 H 934.658 -6.16832 2.2328 0
M  V30 10026 H 934.575 -6.45177 3.9406 0
M  V30 10027 H 935.843 -7.19083 3.00898 0
M  V30 10028 N 940.072 -1.23292 -0.981677 0
M  V30 10029 C 941.321 -1.05832 -1.71705 0
M  V30 10030 C 941.634 0.40514 -1.91358 0
M  V30 10031 O 942.84 0.699645 -2.6233 0
M  V30 10032 C 941.296 -1.84532 -3.08992 0
M  V30 10033 C 940.904 -3.35199 -2.9723 0
M  V30 10034 C 942.648 -1.75557 -3.86497 0
M  V30 10035 C 940.555 -4.06296 -4.29741 0
M  V30 10036 H 939.485 -0.39241 -0.64384 0
M  V30 10037 H 942.136 -1.47247 -1.09502 0
M  V30 10038 H 940.518 -1.35923 -3.71942 0
M  V30 10039 H 941.692 -3.91286 -2.43377 0
M  V30 10040 H 940.007 -3.44973 -2.332 0
M  V30 10041 H 942.604 -2.25989 -4.84596 0
M  V30 10042 H 942.947 -0.718101 -4.1006 0
M  V30 10043 H 943.48 -2.21771 -3.30246 0
M  V30 10044 H 940.219 -5.10344 -4.11375 0
M  V30 10045 H 939.739 -3.54997 -4.83464 0
M  V30 10046 H 941.418 -4.12519 -4.98434 0
M  V30 10047 N 941.55 1.18024 -1.04442 0
M  V30 10048 C 942.798 1.87727 -0.74854 0
M  V30 10049 C 943.119 1.80975 0.726156 0
M  V30 10050 O 942.389 1.23061 1.52423 0
M  V30 10051 H 940.969 0.694974 -0.273897 0
M  V30 10052 H 943.631 1.43213 -1.32197 0
M  V30 10053 H 942.727 2.93665 -1.05674 0
M  V30 10054 N 943.028 0.824394 1.34319 0
M  V30 10055 C 944.439 0.471802 1.8064 0
M  V30 10056 C 944.79 -1.00793 1.6833 0
M  V30 10057 O 943.915 -1.78447 1.22416 0
M  V30 10058 C 944.51 0.849609 3.27974 0
M  V30 10059 C 943.069 0.549365 3.72369 0
M  V30 10060 C 942.216 1.06573 2.56003 0
M  V30 10061 H 945.167 1.01443 1.22045 0
M  V30 10062 H 945.188 0.153968 3.80188 0
M  V30 10063 H 944.7 1.92663 3.36902 0
M  V30 10064 H 942.801 -0.518182 3.68979 0
M  V30 10065 H 942.914 1.09446 4.66432 0
M  V30 10066 H 941.278 0.487214 2.49997 0
M  V30 10067 H 942.061 2.14923 2.677 0
M  V30 10068 N 944.506 -1.46559 0.579492 0
M  V30 10069 C 945.416 -2.34066 -0.15816 0
M  V30 10070 C 946.432 -1.49556 -0.88932 0
M  V30 10071 O 947.608 -1.82434 -0.853226 0
M  V30 10072 C 944.673 -3.26683 -1.161 0
M  V30 10073 C 943.734 -4.27092 -0.434855 0
M  V30 10074 C 942.967 -5.15283 -1.38992 0
M  V30 10075 O 943.19 -5.06345 -2.62623 0
M  V30 10076 O 942.124 -5.95099 -0.902253 0
M  V30 10077 H 945.95 -2.98488 0.560234 0
M  V30 10078 H 943.535 -1.45482 0.339918 0
M  V30 10079 H 945.417 -3.8383 -1.73932 0
M  V30 10080 H 944.092 -2.64862 -1.86091 0
M  V30 10081 H 942.999 -3.73641 0.185224 0
M  V30 10082 H 944.332 -4.9169 0.224031 0
M  V30 10083 N 945.984 -0.3171 -1.54377 0
M  V30 10084 C 946.932 0.567371 -2.25574 0
M  V30 10085 C 947.926 1.12387 -1.2675 0
M  V30 10086 O 949.132 1.07266 -1.44548 0
M  V30 10087 H 945.507 0.201605 -0.724472 0
M  V30 10088 H 947.478 -0.0554644 -2.98348 0
M  V30 10089 C 946.227 1.71984 -3.02187 0
M  V30 10090 H 945.55 1.30086 -3.78044 0
M  V30 10091 H 946.99 2.31443 -3.5526 0
M  V30 10092 C 945.449 2.6336 -2.10103 0
M  V30 10093 O 945.979 3.64899 -1.67962 0
M  V30 10094 N 944.185 2.3145 -1.75725 0
M  V30 10095 H 943.732 1.48921 -2.10191 0
M  V30 10096 H 943.69 2.92852 -1.14391 0
M  V30 10097 N 947.462 1.57535 -0.0451378 0
M  V30 10098 C 948.873 1.80116 0.491426 0
M  V30 10099 C 949.224 0.956846 1.71286 0
M  V30 10100 O 948.349 0.17173 2.15718 0
M  V30 10101 C 948.944 3.26674 0.898315 0
M  V30 10102 C 947.503 3.50194 1.37989 0
M  V30 10103 C 946.65 2.75054 0.352202 0
M  V30 10104 H 949.601 1.56368 -0.271065 0
M  V30 10105 H 949.622 3.37263 1.76164 0
M  V30 10106 H 949.134 3.88099 0.009141 0
M  V30 10107 H 947.235 2.94041 2.28846 0
M  V30 10108 H 947.348 4.58909 1.37622 0
M  V30 10109 H 945.712 2.4101 0.823784 0
M  V30 10110 H 946.495 3.39203 -0.528782 0
M  V30 10111 N 948.94 -0.228186 1.55939 0
M  V30 10112 C 950.17 -0.969211 1.82455 0
M  V30 10113 C 950.578 -1.78714 0.621133 0
M  V30 10114 O 949.921 -1.78841 -0.419694 0
M  V30 10115 C 949.983 -1.94088 3.02605 0
M  V30 10116 C 949.647 -1.30811 4.37878 0
M  V30 10117 C 950.644 -0.701275 5.15149 0
M  V30 10118 C 948.329 -1.32187 4.84595 0
M  V30 10119 C 950.323 -0.116631 6.37293 0
M  V30 10120 C 948.01 -0.733375 6.06683 0
M  V30 10121 C 949.008 -0.131804 6.82873 0
M  V30 10122 O 948.696 0.447549 8.02653 0
M  V30 10123 H 948.428 -0.289951 0.610659 0
M  V30 10124 H 950.982 -0.250576 2.03866 0
M  V30 10125 H 949.212 -2.69833 2.76996 0
M  V30 10126 H 950.901 -2.5469 3.1605 0
M  V30 10127 H 951.667 -0.683022 4.80166 0
M  V30 10128 H 947.546 -1.77949 4.25271 0
M  V30 10129 H 951.09 0.353539 6.96704 0
M  V30 10130 H 946.987 -0.749019 6.4114 0
M  V30 10131 H 947.755 0.341224 8.17788 0
M  V30 10132 N 950.418 -1.49637 -0.494624 0
M  V30 10133 C 951.366 -1.6727 -1.61627 0
M  V30 10134 C 952.36 -0.538587 -1.6061 0
M  V30 10135 O 953.566 -0.718411 -1.65042 0
M  V30 10136 H 949.941 -0.527557 -0.535899 0
M  V30 10137 H 951.912 -2.61405 -1.43909 0
M  V30 10138 C 950.661 -1.7624 -2.99725 0
M  V30 10139 H 949.984 -2.62886 -3.01216 0
M  V30 10140 H 951.424 -1.92611 -3.77726 0
M  V30 10141 C 949.883 -0.508632 -3.33038 0
M  V30 10142 O 950.413 0.362828 -4.00058 0
M  V30 10143 N 948.619 -0.369667 -2.88239 0
M  V30 10144 H 948.166 -1.07984 -2.33875 0
M  V30 10145 H 948.124 0.468112 -3.10896 0
M  V30 10146 N 951.896 0.746133 -1.38819 0
M  V30 10147 C 953.124 1.53539 -1.38685 0
M  V30 10148 C 953.539 1.88788 0.0215039 0
M  V30 10149 O 952.896 1.53312 0.990031 0
M  V30 10150 C 952.947 2.8299 -2.24942 0
M  V30 10151 O 952.668 2.49242 -3.60292 0
M  V30 10152 C 954.169 3.77085 -2.3307 0
M  V30 10153 H 951.389 0.474842 -0.474095 0
M  V30 10154 H 953.933 0.922844 -1.82493 0
M  V30 10155 H 952.088 3.40603 -1.84576 0
M  V30 10156 H 952.502 3.32319 -4.05789 0
M  V30 10157 H 953.976 4.64845 -2.97696 0
M  V30 10158 H 954.453 4.18049 -1.34655 0
M  V30 10159 H 955.059 3.25394 -2.73859 0
M  V30 10160 N 953.375 1.23811 0.975125 0
M  V30 10161 C 954.786 1.0675 1.53171 0
M  V30 10162 C 955.137 -0.363475 1.92804 0
M  V30 10163 O 954.262 -1.25089 1.76583 0
M  V30 10164 C 954.857 1.93161 2.78342 0
M  V30 10165 C 953.416 1.80346 3.30382 0
M  V30 10166 C 952.563 1.88544 2.03338 0
M  V30 10167 H 955.514 1.37396 0.79423 0
M  V30 10168 H 955.535 1.45951 3.51395 0
M  V30 10169 H 955.047 2.97302 2.49465 0
M  V30 10170 H 953.148 0.790077 3.64127 0
M  V30 10171 H 953.261 2.64026 3.99784 0
M  V30 10172 H 951.625 1.32186 2.17713 0
M  V30 10173 H 952.408 2.94252 1.76836 0
M  V30 10174 N 954.853 -1.17469 1.05066 0
M  V30 10175 C 956.099 -1.87976 0.761113 0
M  V30 10176 C 956.432 -1.80756 -0.709995 0
M  V30 10177 O 955.707 -1.21469 -1.51906 0
M  V30 10178 C 955.99 -3.38055 1.2406 0
M  V30 10179 C 955.843 -3.54032 2.77455 0
M  V30 10180 C 957.162 -4.32036 0.838612 0
M  V30 10181 H 954.281 -0.682573 0.277963 0
M  V30 10182 H 956.923 -1.38147 1.30443 0
M  V30 10183 H 955.073 -3.80622 0.778388 0
M  V30 10184 H 956.745 -3.20489 3.3179 0
M  V30 10185 H 954.988 -2.96352 3.16793 0
M  V30 10186 H 955.659 -4.59377 3.06066 0
M  V30 10187 H 958.135 -3.97303 1.23651 0
M  V30 10188 H 957.011 -5.35583 1.20173 0
M  V30 10189 H 957.272 -4.41349 -0.257498 0
M  V30 10190 N 956.331 -0.831506 -1.3388 0
M  V30 10191 C 957.578 -0.423674 -1.98018 0
M  V30 10192 C 957.906 1.01533 -1.65895 0
M  V30 10193 O 957.161 1.72342 -0.927183 0
M  V30 10194 C 957.46 -0.582733 -3.52617 0
M  V30 10195 C 957.126 -1.98874 -4.04673 0
M  V30 10196 C 955.788 -2.37334 -4.186 0
M  V30 10197 C 958.14 -2.90745 -4.3257 0
M  V30 10198 C 955.468 -3.66984 -4.57755 0
M  V30 10199 C 957.82 -4.19868 -4.73174 0
M  V30 10200 C 956.484 -4.58294 -4.85307 0
M  V30 10201 H 955.754 -0.155033 -0.7246 0
M  V30 10202 H 958.401 -1.05711 -1.59679 0
M  V30 10203 H 956.706 0.134052 -3.91571 0
M  V30 10204 H 958.403 -0.247576 -4.00235 0
M  V30 10205 H 954.993 -1.68001 -3.94301 0
M  V30 10206 H 959.177 -2.62272 -4.2134 0
M  V30 10207 H 954.433 -3.9657 -4.65341 0
M  V30 10208 H 958.607 -4.91138 -4.93717 0
M  V30 10209 H 956.234 -5.58805 -5.15404 0
M  V30 10210 N 957.809 1.4625 -0.587256 0
M  V30 10211 C 958.772 2.28812 0.133238 0
M  V30 10212 C 959.772 1.38645 0.814513 0
M  V30 10213 O 960.962 1.60975 0.665774 0
M  V30 10214 C 958.094 3.19147 1.19824 0
M  V30 10215 H 959.287 2.93991 -0.592386 0
M  V30 10216 H 956.84 1.52435 -0.345416 0
M  V30 10217 H 957.575 2.58725 1.95529 0
M  V30 10218 H 957.36 3.85541 0.71418 0
M  V30 10219 H 958.85 3.81278 1.70344 0
M  V30 10220 N 959.287 0.325282 1.54207 0
M  V30 10221 C 960.536 -0.27768 1.99779 0
M  V30 10222 C 960.849 -1.5311 1.21723 0
M  V30 10223 O 962.055 -2.21017 1.57682 0
M  V30 10224 C 960.511 -0.545329 3.55745 0
M  V30 10225 C 960.119 0.691143 4.42637 0
M  V30 10226 C 961.863 -1.10815 4.09781 0
M  V30 10227 C 959.77 0.395302 5.90077 0
M  V30 10228 H 958.7 -0.107536 0.746292 0
M  V30 10229 H 961.351 0.437773 1.78202 0
M  V30 10230 H 959.733 -1.32101 3.73317 0
M  V30 10231 H 960.907 1.46653 4.3684 0
M  V30 10232 H 959.222 1.1743 3.99499 0
M  V30 10233 H 961.819 -1.34414 5.1753 0
M  V30 10234 H 962.162 -2.05806 3.6187 0
M  V30 10235 H 962.695 -0.393608 3.95848 0
M  V30 10236 H 959.434 1.31443 6.42186 0
M  V30 10237 H 958.954 -0.34235 5.98822 0
M  V30 10238 H 960.633 0.00576877 6.47 0
M  V30 10239 N 960.765 -1.57509 0.0534917 0
M  V30 10240 C 961.712 -2.11667 -0.920101 0
M  V30 10241 C 962.682 -1.0246 -1.30733 0
M  V30 10242 O 963.867 -1.30021 -1.39639 0
M  V30 10243 C 961.007 -2.66803 -2.18883 0
M  V30 10244 C 960.12 -3.90104 -1.85588 0
M  V30 10245 C 959.255 -4.33547 -3.06937 0
M  V30 10246 C 958.294 -5.49542 -2.69573 0
M  V30 10247 N 957.431 -5.88029 -3.83623 0
M  V30 10248 H 962.271 -2.94562 -0.451371 0
M  V30 10249 H 959.808 -1.45576 -0.211168 0
M  V30 10250 H 961.766 -2.96871 -2.93127 0
M  V30 10251 H 960.396 -1.86702 -2.63329 0
M  V30 10252 H 959.448 -3.66613 -1.01484 0
M  V30 10253 H 960.76 -4.74404 -1.54087 0
M  V30 10254 H 959.914 -4.6518 -3.89477 0
M  V30 10255 H 958.653 -3.48064 -3.41618 0
M  V30 10256 H 957.658 -5.17579 -1.8545 0
M  V30 10257 H 958.883 -6.36743 -2.36082 0
M  V30 10258 H 956.829 -5.05498 -4.181 0
M  V30 10259 H 956.746 -6.67025 -3.55828 0
M  V30 10260 H 958.014 -6.24277 -4.66796 0
M  V30 10261 N 962.243 0.219913 -1.56058 0
M  V30 10262 C 963.19 1.27254 -1.92549 0
M  V30 10263 C 964.16 1.46493 -0.782883 0
M  V30 10264 O 965.345 1.60035 -1.03892 0
M  V30 10265 C 962.485 2.61756 -2.24896 0
M  V30 10266 C 961.598 2.50302 -3.52098 0
M  V30 10267 C 960.733 3.77338 -3.73884 0
M  V30 10268 C 959.772 3.60613 -4.94595 0
M  V30 10269 N 958.909 4.79603 -5.12763 0
M  V30 10270 H 963.749 0.954352 -2.82305 0
M  V30 10271 H 961.286 0.459928 -1.39725 0
M  V30 10272 H 963.244 3.40082 -2.4166 0
M  V30 10273 H 961.874 2.91668 -1.38311 0
M  V30 10274 H 960.926 1.63401 -3.43517 0
M  V30 10275 H 962.238 2.33866 -4.40577 0
M  V30 10276 H 961.392 4.64108 -3.90754 0
M  V30 10277 H 960.131 3.96702 -2.83689 0
M  V30 10278 H 959.136 2.72228 -4.77674 0
M  V30 10279 H 960.361 3.42719 -5.86277 0
M  V30 10280 H 958.307 4.99277 -4.2551 0
M  V30 10281 H 958.224 4.65899 -5.95377 0
M  V30 10282 H 959.492 5.67794 -5.34069 0
M  V30 10283 N 963.721 1.49897 0.486681 0
M  V30 10284 C 964.668 1.67619 1.58658 0
M  V30 10285 C 965.638 0.517537 1.57831 0
M  V30 10286 O 966.823 0.746272 1.756 0
M  V30 10287 C 963.963 1.762 2.96728 0
M  V30 10288 C 963.076 3.03465 3.07462 0
M  V30 10289 C 962.211 3.02937 4.36351 0
M  V30 10290 C 961.25 4.24721 4.4077 0
M  V30 10291 N 960.387 4.22021 5.61108 0
M  V30 10292 H 965.227 2.61528 1.42853 0
M  V30 10293 H 962.764 1.29657 0.694807 0
M  V30 10294 H 964.722 1.79156 3.76774 0
M  V30 10295 H 963.352 0.857452 3.11203 0
M  V30 10296 H 962.404 3.10054 2.20387 0
M  V30 10297 H 963.716 3.93454 3.06586 0
M  V30 10298 H 962.87 3.04536 5.24731 0
M  V30 10299 H 961.609 2.10751 4.39813 0
M  V30 10300 H 960.614 4.23352 3.5079 0
M  V30 10301 H 961.839 5.18116 4.39013 0
M  V30 10302 H 959.785 3.3268 5.65385 0
M  V30 10303 H 959.702 5.05761 5.61909 0
M  V30 10304 H 960.97 4.27743 6.51656 0
M  V30 10305 N 965.199 -0.738761 1.39212 0
M  V30 10306 C 966.476 -1.48982 1.26742 0
M  V30 10307 C 966.856 -2.10732 -0.12466 0
M  V30 10308 O 966.204 -1.98287 -1.13554 0
M  V30 10309 C 966.414 -2.54427 2.38889 0
M  V30 10310 C 967.762 -3.20915 2.78027 0
M  V30 10311 O 968.786 -2.64738 2.38311 0
M  V30 10312 O 967.645 -4.22558 3.46565 0
M  V30 10313 H 964.739 -0.661395 0.496473 0
M  V30 10314 H 967.285 -0.772907 1.51077 0
M  V30 10315 H 966.057 -2.07151 3.3197 0
M  V30 10316 H 965.68 -3.33682 2.162 0
M  V30 10317 N 966.677 -1.24326 -0.968545 0
M  V30 10318 C 967.902 -1.1104 -1.75171 0
M  V30 10319 C 968.327 0.333109 -1.85127 0
M  V30 10320 O 967.685 1.24115 -1.32156 0
M  V30 10321 C 967.733 -1.75397 -3.15068 0
M  V30 10322 O 966.837 -1.02417 -3.9948 0
M  V30 10323 H 966.178 -0.388488 -0.538491 0
M  V30 10324 H 968.708 -1.64617 -1.215 0
M  V30 10325 H 968.718 -1.8112 -3.65595 0
M  V30 10326 H 967.393 -2.80427 -3.07138 0
M  V30 10327 H 965.97 -1.04475 -3.57966 0
M  V30 10328 N 968.156 1.1691 -1.05688 0
M  V30 10329 C 969.384 1.91204 -0.790485 0
M  V30 10330 C 969.799 1.77095 0.654434 0
M  V30 10331 O 969.156 1.11146 1.44751 0
M  V30 10332 C 969.207 3.42108 -1.16808 0
M  V30 10333 O 968.928 3.55788 -2.55629 0
M  V30 10334 C 970.429 4.33466 -0.92855 0
M  V30 10335 H 967.649 0.606508 -0.287035 0
M  V30 10336 H 970.193 1.48225 -1.40888 0
M  V30 10337 H 968.348 3.82814 -0.59434 0
M  V30 10338 H 968.762 4.49321 -2.70575 0
M  V30 10339 H 970.236 5.37836 -1.24245 0
M  V30 10340 H 970.713 4.38989 0.136016 0
M  V30 10341 H 971.319 3.98481 -1.48638 0
M  V30 10342 N 969.634 0.838594 1.33437 0
M  V30 10343 C 970.581 0.269609 2.2922 0
M  V30 10344 C 971.551 -0.614429 1.54318 0
M  V30 10345 O 972.736 -0.552756 1.82618 0
M  V30 10346 C 969.876 -0.549527 3.40697 0
M  V30 10347 C 968.989 0.358502 4.3051 0
M  V30 10348 C 968.124 -0.471709 5.29101 0
M  V30 10349 C 967.163 0.434728 6.10554 0
M  V30 10350 N 966.3 -0.357339 7.0119 0
M  V30 10351 H 971.14 1.09172 2.77282 0
M  V30 10352 H 968.677 0.549832 1.36438 0
M  V30 10353 H 970.635 -1.03992 4.04032 0
M  V30 10354 H 969.265 -1.33661 2.93828 0
M  V30 10355 H 968.317 0.967204 3.67899 0
M  V30 10356 H 969.629 1.05483 4.87519 0
M  V30 10357 H 968.783 -1.02594 5.97963 0
M  V30 10358 H 967.522 -1.20147 4.72669 0
M  V30 10359 H 966.527 1.00097 5.40611 0
M  V30 10360 H 967.752 1.16285 6.6907 0
M  V30 10361 H 965.698 -1.07049 6.47207 0
M  V30 10362 H 965.615 0.280277 7.5548 0
M  V30 10363 H 966.883 -0.893814 7.74359 0
M  V30 10364 N 971.112 -1.45937 0.595003 0
M  V30 10365 C 972.358 -2.03184 0.0938125 0
M  V30 10366 C 972.713 -1.45675 -1.25684 0
M  V30 10367 O 972.006 -0.617122 -1.8139 0
M  V30 10368 C 972.2 -3.57396 -0.0173747 0
M  V30 10369 C 972.029 -4.29861 1.32096 0
M  V30 10370 C 970.799 -4.68285 1.89835 0
M  V30 10371 C 972.997 -4.6262 2.24693 0
M  V30 10372 N 970.979 -5.25554 3.17279 0
M  V30 10373 C 972.35 -5.20589 3.36729 0
M  V30 10374 C 974.405 -4.44555 2.24221 0
M  V30 10375 C 973.108 -5.62398 4.48443 0
M  V30 10376 C 975.134 -4.87388 3.34973 0
M  V30 10377 C 974.496 -5.45439 4.4573 0
M  V30 10378 H 970.595 -0.77816 0.0773994 0
M  V30 10379 H 973.179 -1.77926 0.790599 0
M  V30 10380 H 971.35 -3.82341 -0.683354 0
M  V30 10381 H 973.082 -4.01292 -0.524073 0
M  V30 10382 H 969.837 -4.51437 1.43185 0
M  V30 10383 H 970.261 -5.58699 3.8234 0
M  V30 10384 H 974.903 -3.98998 1.39857 0
M  V30 10385 H 972.621 -6.06927 5.3354 0
M  V30 10386 H 976.207 -4.75152 3.3574 0
M  V30 10387 H 975.087 -5.77975 5.30014 0
M  V30 10388 N 972.59 -0.333456 -1.54032 0
M  V30 10389 C 974.006 0.0188405 -1.59589 0
M  V30 10390 C 974.206 1.49615 -1.34972 0
M  V30 10391 O 973.262 2.2535 -1.13901 0
M  V30 10392 C 974.575 -0.408273 -2.97915 0
M  V30 10393 C 976.123 -0.359763 -3.10926 0
M  V30 10394 C 976.598 -0.76219 -4.51613 0
M  V30 10395 N 978.089 -0.715981 -4.57633 0
M  V30 10396 C 978.824 -0.999436 -5.64623 0
M  V30 10397 N 978.32 -1.35053 -6.79509 0
M  V30 10398 N 980.113 -0.924343 -5.54448 0
M  V30 10399 H 972.264 -1.29587 -1.68289 0
M  V30 10400 H 974.527 -0.527584 -0.787629 0
M  V30 10401 H 974.233 -1.43793 -3.20962 0
M  V30 10402 H 974.107 0.221685 -3.76548 0
M  V30 10403 H 976.494 0.660703 -2.87609 0
M  V30 10404 H 976.575 -1.02479 -2.34375 0
M  V30 10405 H 976.219 -1.78062 -4.75664 0
M  V30 10406 H 976.149 -0.0747478 -5.26547 0
M  V30 10407 H 978.64 -0.456875 -3.75128 0
M  V30 10408 H 978.953 -1.55194 -7.57057 0
M  V30 10409 H 977.298 -1.38889 -6.80981 0
M  V30 10410 H 980.489 -0.649469 -4.63573 0
M  V30 10411 H 980.662 -1.1486 -6.37739 0
M  V30 10412 N 974.068 1.57479 -0.061844 0
M  V30 10413 C 975.015 2.12152 0.908862 0
M  V30 10414 C 975.985 1.03152 1.30188 0
M  V30 10415 O 977.17 1.3076 1.38948 0
M  V30 10416 C 974.31 2.6796 2.17465 0
M  V30 10417 C 973.423 3.91083 1.83517 0
M  V30 10418 C 972.558 4.35169 3.04633 0
M  V30 10419 C 971.597 5.50964 2.66655 0
M  V30 10420 N 970.734 5.90055 3.80499 0
M  V30 10421 H 975.574 2.94797 0.435743 0
M  V30 10422 H 973.111 1.45686 0.203445 0
M  V30 10423 H 975.069 2.98421 2.91548 0
M  V30 10424 H 973.699 1.88096 2.62335 0
M  V30 10425 H 972.751 3.67146 0.995381 0
M  V30 10426 H 974.063 4.75214 1.51569 0
M  V30 10427 H 973.217 4.67239 3.87005 0
M  V30 10428 H 971.956 3.49871 3.39767 0
M  V30 10429 H 970.961 5.18556 1.82703 0
M  V30 10430 H 972.186 6.37986 2.32702 0
M  V30 10431 H 970.132 5.07708 4.15414 0
M  V30 10432 H 970.049 6.68903 3.52285 0
M  V30 10433 H 971.317 6.26744 4.63479 0
M  V30 10434 N 975.546 -0.211634 1.56173 0
M  V30 10435 C 976.476 -1.26533 1.96244 0
M  V30 10436 C 977.457 -1.48362 0.832028 0
M  V30 10437 O 978.642 -1.60378 1.0951 0
M  V30 10438 C 975.772 -2.61307 2.2877 0
M  V30 10439 C 974.726 -2.54119 3.44395 0
M  V30 10440 C 974.052 -3.93014 3.62552 0
M  V30 10441 C 975.352 -2.08046 4.79076 0
M  V30 10442 H 977.046 -0.932407 2.84511 0
M  V30 10443 H 974.592 -0.447084 1.36884 0
M  V30 10444 H 976.545 -3.35188 2.55396 0
M  V30 10445 H 975.269 -2.96307 1.37367 0
M  V30 10446 H 973.928 -1.82694 3.17834 0
M  V30 10447 H 973.576 -4.25338 2.68508 0
M  V30 10448 H 973.276 -3.89083 4.40327 0
M  V30 10449 H 974.8 -4.68542 3.91537 0
M  V30 10450 H 976.214 -2.71676 5.04842 0
M  V30 10451 H 974.611 -2.15154 5.60204 0
M  V30 10452 H 975.681 -1.03306 4.73768 0
M  V30 10453 N 977.024 -1.50153 -0.478725 0
M  V30 10454 C 978.27 -1.60998 -1.23318 0
M  V30 10455 C 978.603 -0.305868 -1.91776 0
M  V30 10456 O 977.878 0.692158 -1.81767 0
M  V30 10457 C 978.161 -2.78495 -2.28282 0
M  V30 10458 C 978.014 -4.18767 -1.64178 0
M  V30 10459 C 979.333 -2.91569 -3.2966 0
M  V30 10460 H 976.452 -0.585983 -0.446982 0
M  V30 10461 H 979.094 -1.82514 -0.528063 0
M  V30 10462 H 977.244 -2.60281 -2.8842 0
M  V30 10463 H 978.916 -4.48552 -1.07696 0
M  V30 10464 H 977.159 -4.23379 -0.94514 0
M  V30 10465 H 977.83 -4.96894 -2.40417 0
M  V30 10466 H 980.306 -3.08219 -2.79536 0
M  V30 10467 H 979.182 -3.75419 -4.0044 0
M  V30 10468 H 979.443 -2.01859 -3.93326 0
M  V30 10469 N 978.502 0.731368 -1.39602 0
M  V30 10470 C 979.779 1.48308 -1.27531 0
M  V30 10471 C 980.159 2.10795 0.113482 0
M  V30 10472 O 979.507 1.98886 1.12501 0
M  V30 10473 C 979.717 2.53156 -2.40235 0
M  V30 10474 C 981.065 3.19436 -2.79725 0
M  V30 10475 O 982.089 2.6347 -2.39712 0
M  V30 10476 O 980.948 4.20714 -3.48801 0
M  V30 10477 H 978.042 0.658753 -0.499973 0
M  V30 10478 H 980.588 0.764884 -1.51485 0
M  V30 10479 H 979.36 2.05387 -3.33064 0
M  V30 10480 H 978.983 3.3253 -2.17966 0
M  V30 10481 N 979.98 1.24838 0.961938 0
M  V30 10482 C 981.227 1.09151 1.70564 0
M  V30 10483 C 981.555 -0.368719 1.90973 0
M  V30 10484 O 980.81 -1.28854 1.47293 0
M  V30 10485 C 981.109 1.78289 3.09754 0
M  V30 10486 C 980.775 3.28216 3.09169 0
M  V30 10487 C 979.437 3.69118 3.08716 0
M  V30 10488 C 981.789 4.24035 3.03058 0
M  V30 10489 C 979.117 5.04263 2.99892 0
M  V30 10490 C 981.469 5.59195 2.95776 0
M  V30 10491 C 980.133 5.99436 2.93655 0
M  V30 10492 H 979.403 0.399414 0.624139 0
M  V30 10493 H 982.05 1.55016 1.12438 0
M  V30 10494 H 980.355 1.24835 3.7138 0
M  V30 10495 H 982.052 1.63612 3.66104 0
M  V30 10496 H 978.642 2.95667 3.10289 0
M  V30 10497 H 982.826 3.93431 3.02532 0
M  V30 10498 H 978.082 5.3463 2.96615 0
M  V30 10499 H 982.256 6.33142 2.90007 0
M  V30 10500 H 979.883 7.04116 2.86573 0
M  V30 10501 N 981.458 -1.16348 1.06306 0
M  V30 10502 C 982.874 -1.38873 0.786543 0
M  V30 10503 C 983.074 -1.91915 -0.614061 0
M  V30 10504 O 982.13 -2.11804 -1.3746 0
M  V30 10505 C 983.443 -2.36936 1.85154 0
M  V30 10506 C 984.991 -2.5062 1.87506 0
M  V30 10507 C 985.466 -3.51965 2.9306 0
M  V30 10508 N 986.957 -3.59492 2.92095 0
M  V30 10509 C 987.692 -4.37699 3.70415 0
M  V30 10510 N 987.188 -5.19327 4.58553 0
M  V30 10511 N 988.981 -4.32683 3.58806 0
M  V30 10512 H 981.132 -0.802542 1.96655 0
M  V30 10513 H 983.395 -0.415304 0.852189 0
M  V30 10514 H 983.101 -2.05056 2.85736 0
M  V30 10515 H 982.975 -3.36585 1.70267 0
M  V30 10516 H 985.362 -2.81804 0.875827 0
M  V30 10517 H 985.443 -1.51006 2.06472 0
M  V30 10518 H 985.087 -3.21518 3.93177 0
M  V30 10519 H 985.017 -4.51309 2.71344 0
M  V30 10520 H 987.508 -3.01222 2.28197 0
M  V30 10521 H 987.821 -5.76216 5.1497 0
M  V30 10522 H 986.166 -5.1867 4.62608 0
M  V30 10523 H 989.357 -3.67971 2.89335 0
M  V30 10524 H 989.53 -4.93386 4.20088 0
M  V30 10525 N 982.937 -0.845659 -1.3299 0
M  V30 10526 C 983.847 -0.2864 -2.32845 0
M  V30 10527 C 984.863 0.591105 -1.63652 0
M  V30 10528 O 986.039 0.493615 -1.95257 0
M  V30 10529 C 983.104 0.523636 -3.42723 0
M  V30 10530 C 982.165 -0.378945 -4.27624 0
M  V30 10531 C 981.398 0.392526 -5.32255 0
M  V30 10532 O 981.621 1.6235 -5.46808 0
M  V30 10533 O 980.555 -0.237 -6.01433 0
M  V30 10534 H 984.381 -1.11346 -2.82552 0
M  V30 10535 H 981.966 -0.608356 -1.36453 0
M  V30 10536 H 983.848 0.983718 -4.09757 0
M  V30 10537 H 982.523 1.32764 -2.95221 0
M  V30 10538 H 981.43 -0.887012 -3.63432 0
M  V30 10539 H 982.763 -1.1479 -4.78627 0
M  V30 10540 N 984.415 1.45619 -0.602734 0
M  V30 10541 C 985.345 2.33258 0.106342 0
M  V30 10542 C 986.326 1.46543 0.863664 0
M  V30 10543 O 987.511 1.75324 0.835175 0
M  V30 10544 C 984.641 3.29168 1.10751 0
M  V30 10545 C 983.595 4.25481 0.463717 0
M  V30 10546 C 982.921 5.11046 1.57278 0
M  V30 10547 C 984.221 5.18702 -0.61199 0
M  V30 10548 H 985.915 2.92795 -0.625423 0
M  V30 10549 H 983.461 1.40793 -0.302213 0
M  V30 10550 H 985.414 3.89346 1.61208 0
M  V30 10551 H 984.138 2.6778 1.8698 0
M  V30 10552 H 982.797 3.66595 -0.0199496 0
M  V30 10553 H 982.445 4.46029 2.32524 0
M  V30 10554 H 982.145 5.76286 1.14755 0
M  V30 10555 H 983.669 5.74091 2.07972 0
M  V30 10556 H 985.083 5.72979 -0.191686 0
M  V30 10557 H 983.48 5.92393 -0.958686 0
M  V30 10558 H 984.55 4.61424 -1.4905 0
M  V30 10559 N 985.893 0.34162 1.53853 0
M  V30 10560 C 986.841 -0.531412 2.26448 0
M  V30 10561 C 987.835 -1.10357 1.28521 0
M  V30 10562 O 989.041 -1.04953 1.46236 0
M  V30 10563 H 985.416 -0.190054 0.727588 0
M  V30 10564 H 987.387 0.102922 2.98222 0
M  V30 10565 C 986.136 -1.67154 3.04885 0
M  V30 10566 H 985.459 -1.24055 3.80066 0
M  V30 10567 H 986.899 -2.25762 3.58898 0
M  V30 10568 C 985.358 -2.59984 2.14266 0
M  V30 10569 O 985.888 -3.62181 1.73746 0
M  V30 10570 N 984.094 -2.28625 1.79385 0
M  V30 10571 H 983.641 -1.45559 2.12533 0
M  V30 10572 H 983.599 -2.90995 1.19035 0
M  V30 10573 N 987.371 -1.57444 0.0701946 0
M  V30 10574 C 988.318 -2.12631 -0.897599 0
M  V30 10575 C 989.288 -1.03841 -1.29639 0
M  V30 10576 O 990.473 -1.31495 -1.38253 0
M  V30 10577 C 987.613 -2.6911 -2.16041 0
M  V30 10578 C 986.726 -3.9205 -1.8144 0
M  V30 10579 C 985.861 -4.36778 -3.02321 0
M  V30 10580 C 984.9 -5.52371 -2.63729 0
M  V30 10581 N 984.037 -5.92065 -3.77364 0
M  V30 10582 H 988.877 -2.95024 -0.420104 0
M  V30 10583 H 986.414 -1.45792 -0.195716 0
M  V30 10584 H 988.372 -2.99963 -2.89962 0
M  V30 10585 H 987.002 -1.89484 -2.61334 0
M  V30 10586 H 986.054 -3.67669 -0.975896 0
M  V30 10587 H 987.366 -4.76011 -1.49046 0
M  V30 10588 H 986.52 -4.69285 -3.84521 0
M  V30 10589 H 985.259 -3.51668 -3.37907 0
M  V30 10590 H 984.264 -5.19517 -1.7995 0
M  V30 10591 H 985.489 -6.39212 -2.29315 0
M  V30 10592 H 983.435 -5.09904 -4.12715 0
M  V30 10593 H 983.352 -6.70762 -3.48733 0
M  V30 10594 H 984.62 -6.29193 -4.60148 0
M  V30 10595 N 988.849 0.203349 -1.56283 0
M  V30 10596 C 990.265 0.55384 -1.49682 0
M  V30 10597 C 990.465 1.86261 -0.768701 0
M  V30 10598 O 989.521 2.50517 -0.315824 0
M  V30 10599 C 990.834 0.616216 -2.94318 0
M  V30 10600 C 992.382 0.705611 -3.04943 0
M  V30 10601 C 992.857 0.79917 -4.50974 0
M  V30 10602 N 994.348 0.862916 -4.55091 0
M  V30 10603 C 995.083 0.955334 -5.65386 0
M  V30 10604 N 994.579 1.01057 -6.8539 0
M  V30 10605 N 996.372 0.991884 -5.53279 0
M  V30 10606 H 988.523 -0.655244 -2.0204 0
M  V30 10607 H 990.786 -0.232344 -0.919087 0
M  V30 10608 H 990.492 -0.27619 -3.50614 0
M  V30 10609 H 990.366 1.47371 -3.4722 0
M  V30 10610 H 992.753 1.58845 -2.48701 0
M  V30 10611 H 992.834 -0.177921 -2.5518 0
M  V30 10612 H 992.478 -0.0792841 -5.07838 0
M  V30 10613 H 992.408 1.69838 -4.9846 0
M  V30 10614 H 994.899 0.829812 -3.68677 0
M  V30 10615 H 995.212 1.08137 -7.65197 0
M  V30 10616 H 993.557 0.979384 -6.88065 0
M  V30 10617 H 996.748 0.945514 -4.58451 0
M  V30 10618 H 996.921 1.06045 -6.39264 0
M  V30 10619 N 990.327 1.50405 0.470755 0
M  V30 10620 C 991.555 1.65168 1.24608 0
M  V30 10621 C 991.97 0.335153 1.85801 0
M  V30 10622 O 991.327 -0.682919 1.69241 0
M  V30 10623 C 991.378 2.74305 2.35455 0
M  V30 10624 O 991.099 4.00854 1.76771 0
M  V30 10625 C 992.6 3.00044 3.26326 0
M  V30 10626 H 989.82 0.555186 0.376842 0
M  V30 10627 H 992.364 1.9663 0.56187 0
M  V30 10628 H 990.519 2.45536 2.99651 0
M  V30 10629 H 990.933 4.61211 2.49769 0
M  V30 10630 H 992.407 3.8007 4.00313 0
M  V30 10631 H 992.884 2.11128 3.85126 0
M  V30 10632 H 993.49 3.30345 2.67866 0
M  V30 10633 N 991.805 -0.723954 1.39988 0
M  V30 10634 C 992.737 -1.84859 1.35498 0
M  V30 10635 C 993.75 -1.60681 0.261812 0
M  V30 10636 O 994.939 -1.7071 0.521566 0
M  V30 10637 C 992.039 -3.21103 1.08381 0
M  V30 10638 C 991.212 -3.72546 2.2919 0
M  V30 10639 C 990.271 -4.8738 1.9836 0
M  V30 10640 O 989.297 -5.00467 2.71149 0
M  V30 10641 N 990.499 -5.72566 0.956461 0
M  V30 10642 H 993.264 -1.89212 2.3242 0
M  V30 10643 H 990.825 -0.905152 1.34233 0
M  V30 10644 H 992.817 -3.9551 0.857564 0
M  V30 10645 H 991.387 -3.1195 0.201549 0
M  V30 10646 H 990.607 -2.89365 2.67697 0
M  V30 10647 H 991.895 -4.03652 3.09746 0
M  V30 10648 H 991.293 -5.64595 0.353444 0
M  V30 10649 H 989.85 -6.46993 0.790118 0
M  V30 10650 N 993.283 -1.25346 -0.955304 0
M  V30 10651 C 994.56 -1.00829 -1.67609 0
M  V30 10652 C 994.94 0.465675 -2.059 0
M  V30 10653 O 994.288 1.44287 -1.77182 0
M  V30 10654 C 994.498 -1.94337 -2.89886 0
M  V30 10655 C 995.846 -2.22142 -3.61854 0
M  V30 10656 O 996.87 -1.9209 -2.99967 0
M  V30 10657 O 995.729 -2.73239 -4.73289 0
M  V30 10658 H 992.823 -0.382314 -0.733325 0
M  V30 10659 H 995.369 -1.36498 -1.00829 0
M  V30 10660 H 994.141 -2.93867 -2.58376 0
M  V30 10661 H 993.764 -1.59062 -3.64397 0
M  V30 10662 N 994.761 1.15782 -1.06922 0
M  V30 10663 C 996.008 1.86465 -0.789752 0
M  V30 10664 C 996.336 1.82075 0.684022 0
M  V30 10665 O 995.591 1.23576 1.51748 0
M  V30 10666 C 995.89 3.35284 -1.2377 0
M  V30 10667 C 995.556 3.59871 -2.71668 0
M  V30 10668 C 994.218 3.6629 -3.12066 0
M  V30 10669 C 996.57 3.69929 -3.67154 0
M  V30 10670 C 993.898 3.80275 -4.46775 0
M  V30 10671 C 996.25 3.85436 -5.01619 0
M  V30 10672 C 994.914 3.901 -5.41644 0
M  V30 10673 H 994.184 0.682324 -0.288991 0
M  V30 10674 H 996.831 1.36861 -1.33945 0
M  V30 10675 H 995.136 3.87065 -0.607309 0
M  V30 10676 H 996.833 3.88371 -0.998431 0
M  V30 10677 H 993.423 3.55512 -2.39393 0
M  V30 10678 H 997.607 3.64274 -3.37073 0
M  V30 10679 H 992.863 3.8214 -4.77262 0
M  V30 10680 H 997.037 3.92161 -5.75485 0
M  V30 10681 H 994.664 4.00688 -6.46029 0
M  V30 10682 N 996.239 0.8527 1.3254 0
M  V30 10683 C 997.485 0.46507 1.98012 0
M  V30 10684 C 997.84 -0.968179 1.66265 0
M  V30 10685 O 997.133 -1.66985 0.9395 0
M  V30 10686 C 997.327 0.638757 3.51646 0
M  V30 10687 C 997.156 2.08734 3.98322 0
M  V30 10688 C 995.926 2.72544 4.25497 0
M  V30 10689 C 998.124 3.0577 4.13533 0
M  V30 10690 N 996.106 4.08333 4.58408 0
M  V30 10691 C 997.477 4.26542 4.49958 0
M  V30 10692 C 999.532 3.01991 3.95861 0
M  V30 10693 C 998.235 5.4403 4.70557 0
M  V30 10694 C 1000.26 4.18722 4.17643 0
M  V30 10695 C 999.623 5.38252 4.54383 0
M  V30 10696 H 995.722 0.218881 0.750743 0
M  V30 10697 H 998.306 1.10368 1.60397 0
M  V30 10698 H 996.477 0.0298629 3.88389 0
M  V30 10699 H 998.209 0.221215 4.04095 0
M  V30 10700 H 994.964 2.23594 4.17496 0
M  V30 10701 H 995.388 4.78372 4.79051 0
M  V30 10702 H 1000.03 2.107 3.66559 0
M  V30 10703 H 997.748 6.35854 4.98714 0
M  V30 10704 H 1001.33 4.17232 4.05474 0
M  V30 10705 H 1000.21 6.27075 4.709 0
M  V30 10706 N 997.718 -1.45297 0.610449 0
M  V30 10707 C 998.628 -2.34349 -0.108475 0
M  V30 10708 C 999.644 -1.51409 -0.857397 0
M  V30 10709 O 1000.82 -1.84202 -0.814337 0
M  V30 10710 C 997.885 -3.29072 -1.09144 0
M  V30 10711 C 996.946 -4.27918 -0.344165 0
M  V30 10712 C 996.179 -5.18116 -1.28031 0
M  V30 10713 O 996.402 -5.11802 -2.51824 0
M  V30 10714 O 995.336 -5.96879 -0.775821 0
M  V30 10715 H 999.162 -2.97232 0.623421 0
M  V30 10716 H 996.747 -1.44728 0.3707 0
M  V30 10717 H 998.629 -3.87433 -1.65751 0
M  V30 10718 H 997.304 -2.68749 -1.80431 0
M  V30 10719 H 996.211 -3.73164 0.264437 0
M  V30 10720 H 997.544 -4.91104 0.328275 0
M  V30 10721 N 999.196 -0.349774 -1.5367 0
M  V30 10722 C 1000.44 0.245189 -2.01312 0
M  V30 10723 C 1000.77 1.49702 -1.23705 0
M  V30 10724 O 1000.05 1.91742 -0.326371 0
M  V30 10725 C 1000.33 0.553071 -3.55827 0
M  V30 10726 C 1000.19 -0.71129 -4.4414 0
M  V30 10727 C 1001.5 1.36015 -4.18555 0
M  V30 10728 H 998.624 0.0876415 -0.73177 0
M  V30 10729 H 1001.27 -0.471543 -1.84056 0
M  V30 10730 H 999.416 1.16367 -3.70663 0
M  V30 10731 H 1001.09 -1.34913 -4.41131 0
M  V30 10732 H 999.331 -1.33491 -4.1275 0
M  V30 10733 H 1000 -0.45104 -5.50154 0
M  V30 10734 H 1002.48 0.843778 -4.07455 0
M  V30 10735 H 1001.35 1.54432 -5.26728 0
M  V30 10736 H 1001.61 2.36408 -3.73582 0
M  V30 10737 N 1000.67 1.57404 -0.0785433 0
M  V30 10738 C 1001.61 2.101 0.916013 0
M  V30 10739 C 1002.62 1.03459 1.25698 0
M  V30 10740 O 1003.81 1.30954 1.21299 0
M  V30 10741 C 1000.91 2.55202 2.22992 0
M  V30 10742 C 1000.08 3.85491 2.06678 0
M  V30 10743 C 999.14 4.16614 3.21433 0
M  V30 10744 O 998.166 4.86105 2.96126 0
M  V30 10745 N 999.368 3.70697 4.46726 0
M  V30 10746 H 1002.13 2.96054 0.466059 0
M  V30 10747 H 999.694 1.61546 0.107006 0
M  V30 10748 H 1001.69 2.7308 2.9868 0
M  V30 10749 H 1000.26 1.74348 2.59464 0
M  V30 10750 H 999.476 3.76925 1.15417 0
M  V30 10751 H 1000.76 4.70759 1.93036 0
M  V30 10752 H 1000.16 3.14571 4.70172 0
M  V30 10753 H 998.719 3.93762 5.19418 0
M  V30 10754 N 1002.15 -0.195058 1.56388 0
M  V30 10755 C 1003.08 -1.24444 1.97575 0
M  V30 10756 C 1004.06 -1.47471 0.847717 0
M  V30 10757 O 1005.25 -1.59208 1.11205 0
M  V30 10758 C 1002.38 -2.58866 2.31529 0
M  V30 10759 C 1001.33 -2.50451 3.47071 0
M  V30 10760 C 1000.66 -3.89146 3.667 0
M  V30 10761 C 1001.96 -2.02953 4.81256 0
M  V30 10762 H 1003.65 -0.902178 2.85484 0
M  V30 10763 H 1001.2 -0.43254 1.3735 0
M  V30 10764 H 1003.15 -3.3246 2.58936 0
M  V30 10765 H 1001.87 -2.94833 1.40502 0
M  V30 10766 H 1000.53 -1.79313 3.19754 0
M  V30 10767 H 1000.18 -4.22466 2.73004 0
M  V30 10768 H 999.882 -3.84391 4.44429 0
M  V30 10769 H 1001.41 -4.64363 3.96484 0
M  V30 10770 H 1002.82 -2.66306 5.07695 0
M  V30 10771 H 1001.22 -2.092 5.62455 0
M  V30 10772 H 1002.29 -0.982757 4.74837 0
M  V30 10773 N 1003.63 -1.50653 -0.462772 0
M  V30 10774 C 1004.88 -1.61737 -1.21184 0
M  V30 10775 C 1005.2 -0.32369 -1.92295 0
M  V30 10776 O 1004.47 0.659269 -1.84473 0
M  V30 10777 H 1003.05 -0.596015 -0.450306 0
M  V30 10778 H 1005.71 -1.87469 -0.533051 0
M  V30 10779 H 1004.81 -2.43262 -1.95525 0
M  V30 10780 N 1005.11 0.71652 -1.4037 0
M  V30 10781 C 1006.36 1.47193 -1.37903 0
M  V30 10782 C 1006.67 1.95593 0.0159939 0
M  V30 10783 O 1007.88 2.71009 0.163282 0
M  V30 10784 C 1006.33 2.6606 -2.42363 0
M  V30 10785 C 1005.94 2.24533 -3.87671 0
M  V30 10786 C 1007.68 3.438 -2.49001 0
M  V30 10787 C 1005.59 3.40234 -4.8373 0
M  V30 10788 H 1004.52 0.552811 -0.512753 0
M  V30 10789 H 1007.17 0.779894 -1.66102 0
M  V30 10790 H 1005.55 3.37429 -2.07262 0
M  V30 10791 H 1006.73 1.6059 -4.31911 0
M  V30 10792 H 1005.04 1.59839 -3.845 0
M  V30 10793 H 1007.64 4.29893 -3.17956 0
M  V30 10794 H 1007.98 3.8755 -1.52023 0
M  V30 10795 H 1008.52 2.79474 -2.83088 0
M  V30 10796 H 1005.26 3.01517 -5.82037 0
M  V30 10797 H 1004.78 4.03095 -4.44156 0
M  V30 10798 H 1006.45 4.06312 -5.03507 0
M  V30 10799 N 1006.59 1.25851 0.948643 0
M  V30 10800 C 1008 1.09975 1.50872 0
M  V30 10801 C 1008.35 -0.322497 1.93531 0
M  V30 10802 O 1007.47 -1.21316 1.79197 0
M  V30 10803 C 1008.07 1.99021 2.74182 0
M  V30 10804 C 1006.63 1.87313 3.26483 0
M  V30 10805 C 1005.77 1.92815 1.99293 0
M  V30 10806 H 1008.73 1.3905 0.764908 0
M  V30 10807 H 1008.75 1.53372 3.4822 0
M  V30 10808 H 1008.26 3.02527 2.43103 0
M  V30 10809 H 1006.36 0.867136 3.62369 0
M  V30 10810 H 1006.47 2.72446 3.94094 0
M  V30 10811 H 1004.84 1.36774 2.1486 0
M  V30 10812 H 1005.62 2.97936 1.70554 0
M  V30 10813 N 1008.06 -1.15214 1.07534 0
M  V30 10814 C 1009.01 -2.18022 0.667108 0
M  V30 10815 C 1010 -1.57911 -0.308714 0
M  V30 10816 O 1011.19 -1.76578 -0.122147 0
M  V30 10817 C 1008.32 -3.43232 0.0684348 0
M  V30 10818 C 1007.41 -4.10393 1.06951 0
M  V30 10819 N 1007.8 -4.53013 2.24973 0
M  V30 10820 C 1006.09 -4.36758 0.903262 0
M  V30 10821 C 1006.8 -5.05118 2.88498 0
M  V30 10822 N 1005.77 -4.98777 2.16153 0
M  V30 10823 H 1009.57 -2.48706 1.56597 0
M  V30 10824 H 1007.09 -1.31801 0.948796 0
M  V30 10825 H 1009.08 -4.16197 -0.241934 0
M  V30 10826 H 1007.74 -3.14031 -0.825525 0
M  V30 10827 H 1008.76 -4.4634 2.6268 0
M  V30 10828 H 1005.43 -4.17453 0.0623543 0
M  V30 10829 H 1006.82 -5.48039 3.8872 0
M  V30 10830 N 1009.54 -0.859717 -1.32086 0
M  V30 10831 C 1010.95 -0.519529 -1.79326 0
M  V30 10832 C 1011.3 0.96295 -1.70944 0
M  V30 10833 O 1010.43 1.75139 -1.27104 0
M  V30 10834 C 1011.02 -0.936267 -3.25606 0
M  V30 10835 C 1009.58 -0.647899 -3.70782 0
M  V30 10836 C 1008.73 -1.13323 -2.53087 0
M  V30 10837 H 1011.68 -1.04643 -1.19312 0
M  V30 10838 H 1011.7 -0.254714 -3.79646 0
M  V30 10839 H 1011.21 -2.01527 -3.31675 0
M  V30 10840 H 1009.32 0.420172 -3.70223 0
M  V30 10841 H 1009.43 -1.21774 -4.63366 0
M  V30 10842 H 1007.79 -0.553325 -2.48617 0
M  V30 10843 H 1008.58 -2.21945 -2.61907 0
M  V30 10844 N 1011.02 1.44971 -0.618145 0
M  V30 10845 C 1011.98 2.29044 0.0846739 0
M  V30 10846 C 1012.98 1.40341 0.784921 0
M  V30 10847 O 1014.17 1.62351 0.631479 0
M  V30 10848 C 1011.31 3.21617 1.13027 0
M  V30 10849 H 1012.5 2.92668 -0.654612 0
M  V30 10850 H 1010.05 1.51668 -0.377672 0
M  V30 10851 H 1010.79 2.62815 1.89997 0
M  V30 10852 H 1010.57 3.86969 0.63224 0
M  V30 10853 H 1012.06 3.84805 1.62218 0
M  V30 10854 N 1012.5 0.357919 1.53482 0
M  V30 10855 C 1013.75 -0.2337 2.00744 0
M  V30 10856 C 1014.07 -1.49908 1.2471 0
M  V30 10857 O 1013.34 -1.92597 0.358235 0
M  V30 10858 H 1011.92 -0.0893474 0.741637 0
M  V30 10859 H 1014.58 0.482388 1.88836 0
M  V30 10860 H 1013.68 -0.466073 3.086 0
M  V30 10861 N 1013.98 -1.5736 0.0868897 0
M  V30 10862 C 1014.91 -2.16596 -0.872252 0
M  V30 10863 C 1015.89 -1.09706 -1.29995 0
M  V30 10864 O 1017.07 -1.37808 -1.36831 0
M  V30 10865 C 1014.2 -2.73972 -2.1344 0
M  V30 10866 C 1013.16 -3.86163 -1.8456 0
M  V30 10867 C 1012.48 -4.30206 -3.17533 0
M  V30 10868 C 1013.78 -5.0973 -1.13899 0
M  V30 10869 H 1015.48 -2.96995 -0.378738 0
M  V30 10870 H 1013.02 -1.42861 -0.18073 0
M  V30 10871 H 1014.98 -3.14062 -2.80968 0
M  V30 10872 H 1013.7 -1.90817 -2.6506 0
M  V30 10873 H 1012.36 -3.466 -1.19432 0
M  V30 10874 H 1012.01 -3.43951 -3.67024 0
M  V30 10875 H 1011.71 -5.05841 -2.98996 0
M  V30 10876 H 1013.23 -4.72922 -3.86234 0
M  V30 10877 H 1014.64 -5.4704 -1.71523 0
M  V30 10878 H 1013.04 -5.90741 -1.05569 0
M  V30 10879 H 1014.11 -4.8475 -0.120432 0
M  V30 10880 N 1015.45 0.186762 -1.56489 0
M  V30 10881 C 1016.4 1.23141 -1.95205 0
M  V30 10882 C 1017.37 1.44799 -0.81378 0
M  V30 10883 O 1018.56 1.57795 -1.07263 0
M  V30 10884 C 1015.7 2.56926 -2.30397 0
M  V30 10885 C 1014.81 2.42777 -3.57328 0
M  V30 10886 C 1013.94 3.69323 -3.81804 0
M  V30 10887 C 1012.98 3.50041 -5.02133 0
M  V30 10888 N 1012.12 4.68619 -5.2282 0
M  V30 10889 H 1016.96 0.894256 -2.84266 0
M  V30 10890 H 1014.5 0.430187 -1.40669 0
M  V30 10891 H 1016.46 3.3488 -2.4882 0
M  V30 10892 H 1015.09 2.88668 -1.44466 0
M  V30 10893 H 1014.14 1.56078 -3.46906 0
M  V30 10894 H 1015.45 2.24468 -4.45439 0
M  V30 10895 H 1014.6 4.55715 -4.00511 0
M  V30 10896 H 1013.34 3.90595 -2.92039 0
M  V30 10897 H 1012.35 2.62034 -4.8334 0
M  V30 10898 H 1013.57 3.30206 -5.93414 0
M  V30 10899 H 1011.52 4.90139 -4.36005 0
M  V30 10900 H 1011.44 4.53165 -6.05126 0
M  V30 10901 H 1012.7 5.56338 -5.45993 0
M  V30 10902 N 1016.93 1.50896 0.454776 0
M  V30 10903 C 1017.88 1.70947 1.55067 0
M  V30 10904 C 1018.85 0.550899 1.56698 0
M  V30 10905 O 1020.03 0.783352 1.73978 0
M  V30 10906 C 1017.17 1.82455 2.92924 0
M  V30 10907 C 1016.29 3.09919 3.00956 0
M  V30 10908 C 1015.42 3.12125 4.29827 0
M  V30 10909 C 1014.46 4.33975 4.31662 0
M  V30 10910 N 1013.6 4.33828 5.5203 0
M  V30 10911 H 1018.44 2.645 1.37273 0
M  V30 10912 H 1015.98 1.31101 0.667148 0
M  V30 10913 H 1017.93 1.87108 3.72889 0
M  V30 10914 H 1016.56 0.92327 3.09315 0
M  V30 10915 H 1015.62 3.14659 2.13761 0
M  V30 10916 H 1016.93 3.99869 2.98172 0
M  V30 10917 H 1016.08 3.15598 5.18154 0
M  V30 10918 H 1014.82 2.20033 4.35243 0
M  V30 10919 H 1013.83 4.30697 3.41731 0
M  V30 10920 H 1015.05 5.27312 4.27924 0
M  V30 10921 H 1013 3.44598 5.58201 0
M  V30 10922 H 1012.91 5.17566 5.51055 0
M  V30 10923 H 1014.18 4.4147 6.42437 0
M  V30 10924 N 1018.41 -0.709066 1.40748 0
M  V30 10925 C 1019.36 -1.82312 1.4153 0
M  V30 10926 C 1020.33 -1.63868 0.271392 0
M  V30 10927 O 1021.51 -1.8491 0.470431 0
M  V30 10928 C 1018.65 -3.2008 1.29006 0
M  V30 10929 C 1017.77 -3.50051 2.53156 0
M  V30 10930 C 1016.9 -4.7736 2.33025 0
M  V30 10931 C 1015.94 -5.00255 3.52719 0
M  V30 10932 N 1015.08 -6.18782 3.31743 0
M  V30 10933 H 1019.92 -1.80978 2.36751 0
M  V30 10934 H 1017.45 -0.883975 1.17577 0
M  V30 10935 H 1019.41 -3.99645 1.19749 0
M  V30 10936 H 1018.04 -3.20626 0.374014 0
M  V30 10937 H 1017.09 -2.64993 2.72916 0
M  V30 10938 H 1018.41 -3.62877 3.42231 0
M  V30 10939 H 1017.56 -5.64954 2.21159 0
M  V30 10940 H 1016.3 -4.66756 1.41386 0
M  V30 10941 H 1015.3 -4.11114 3.65055 0
M  V30 10942 H 1016.53 -5.12728 4.45295 0
M  V30 10943 H 1014.47 -6.09416 2.42791 0
M  V30 10944 H 1014.39 -6.32313 4.14386 0
M  V30 10945 H 1015.66 -7.09146 3.23623 0
M  V30 10946 N 1019.89 -1.26353 -0.941956 0
M  V30 10947 C 1020.84 -1.07842 -2.04056 0
M  V30 10948 C 1021.81 0.0163064 -1.66092 0
M  V30 10949 O 1022.99 -0.143313 -1.90261 0
M  V30 10950 C 1020.13 -0.716636 -3.37577 0
M  V30 10951 C 1019.24 -1.88754 -3.88582 0
M  V30 10952 C 1018.38 -1.46893 -5.10486 0
M  V30 10953 C 1017.42 -2.60819 -5.53751 0
M  V30 10954 N 1016.56 -2.19646 -6.66858 0
M  V30 10955 H 1021.4 -2.01856 -2.19221 0
M  V30 10956 H 1018.93 -1.00504 -1.07412 0
M  V30 10957 H 1020.89 -0.487768 -4.14339 0
M  V30 10958 H 1019.52 0.18653 -3.22261 0
M  V30 10959 H 1018.57 -2.22936 -3.08227 0
M  V30 10960 H 1019.88 -2.74264 -4.1663 0
M  V30 10961 H 1019.04 -1.20047 -5.94705 0
M  V30 10962 H 1017.78 -0.584721 -4.84182 0
M  V30 10963 H 1016.78 -2.88396 -4.6809 0
M  V30 10964 H 1018.01 -3.49838 -5.82057 0
M  V30 10965 H 1015.95 -1.33657 -6.4224 0
M  V30 10966 H 1015.87 -2.987 -6.94489 0
M  V30 10967 H 1017.14 -1.96009 -7.54454 0
M  V30 10968 N 1021.37 1.14642 -1.08144 0
M  V30 10969 C 1022.59 1.90025 -0.830972 0
M  V30 10970 C 1023.02 1.77904 0.610879 0
M  V30 10971 O 1022.38 1.11735 1.42776 0
M  V30 10972 C 1022.42 3.38085 -1.25422 0
M  V30 10973 O 1021.53 4.10412 -0.404486 0
M  V30 10974 H 1020.87 0.591327 -0.302041 0
M  V30 10975 H 1023.4 1.4513 -1.44216 0
M  V30 10976 H 1023.41 3.88894 -1.23391 0
M  V30 10977 H 1022.08 3.46226 -2.30435 0
M  V30 10978 H 1020.66 3.69693 -0.487987 0
M  V30 10979 N 1022.85 0.866709 1.31628 0
M  V30 10980 C 1024.09 0.476731 1.97117 0
M  V30 10981 C 1024.42 -0.967813 1.68366 0
M  V30 10982 O 1023.7 -1.68101 0.978377 0
M  V30 10983 C 1023.98 0.730561 3.52611 0
M  V30 10984 C 1023.84 2.2244 3.90948 0
M  V30 10985 C 1025.15 0.19488 4.39668 0
M  V30 10986 H 1022.27 0.174682 0.715999 0
M  V30 10987 H 1024.92 1.08735 1.5581 0
M  V30 10988 H 1023.07 0.210834 3.87927 0
M  V30 10989 H 1024.74 2.81113 3.6575 0
M  V30 10990 H 1022.98 2.69824 3.39673 0
M  V30 10991 H 1023.65 2.35266 4.99353 0
M  V30 10992 H 1026.13 0.639478 4.11157 0
M  V30 10993 H 1025 0.401958 5.47426 0
M  V30 10994 H 1025.26 -0.90302 4.32779 0
M  V30 10995 N 1024.32 -1.44642 0.625825 0
M  V30 10996 C 1025.55 -2.06458 0.135116 0
M  V30 10997 C 1025.97 -1.46729 -1.18811 0
M  V30 10998 O 1025.32 -0.58818 -1.72762 0
M  V30 10999 C 1025.37 -3.61499 0.00850114 0
M  V30 11000 O 1025.1 -4.19002 1.2794 0
M  V30 11001 C 1026.6 -4.40339 -0.511527 0
M  V30 11002 H 1023.82 -0.666541 0.0772294 0
M  V30 11003 H 1026.36 -1.85597 0.858726 0
M  V30 11004 H 1024.52 -3.81641 -0.665522 0
M  V30 11005 H 1024.93 -5.12385 1.12081 0
M  V30 11006 H 1026.4 -5.49262 -0.549149 0
M  V30 11007 H 1026.88 -4.11409 -1.53752 0
M  V30 11008 H 1027.49 -4.25104 0.129066 0
M  V30 11009 N 1025.8 -0.366053 -1.5329 0
M  V30 11010 C 1027.05 0.223824 -2.01561 0
M  V30 11011 C 1027.38 1.48382 -1.25286 0
M  V30 11012 O 1026.66 1.91385 -0.34669 0
M  V30 11013 C 1026.94 0.5153 -3.56394 0
M  V30 11014 C 1026.79 -0.758357 -4.43361 0
M  V30 11015 C 1028.11 1.31568 -4.19974 0
M  V30 11016 H 1025.23 0.0798751 -0.732659 0
M  V30 11017 H 1027.87 -0.491038 -1.83545 0
M  V30 11018 H 1026.02 1.12429 -3.71876 0
M  V30 11019 H 1027.69 -1.39584 -4.39675 0
M  V30 11020 H 1025.94 -1.37862 -4.11311 0
M  V30 11021 H 1026.61 -0.509366 -5.49645 0
M  V30 11022 H 1029.08 0.800514 -4.08327 0
M  V30 11023 H 1027.96 1.48837 -5.28336 0
M  V30 11024 H 1028.22 2.32432 -3.76069 0
M  V30 11025 N 1027.28 1.57312 -0.0952337 0
M  V30 11026 C 1028.21 2.17056 0.860753 0
M  V30 11027 C 1029.19 1.10394 1.29411 0
M  V30 11028 O 1030.38 1.38532 1.36098 0
M  V30 11029 C 1027.51 2.751 2.11984 0
M  V30 11030 C 1026.46 3.87136 1.8251 0
M  V30 11031 C 1025.79 4.31883 3.15247 0
M  V30 11032 C 1027.09 5.10326 1.11194 0
M  V30 11033 H 1028.78 2.97192 0.362983 0
M  V30 11034 H 1026.33 1.42955 0.173151 0
M  V30 11035 H 1028.28 3.15547 2.79299 0
M  V30 11036 H 1027 1.92219 2.64044 0
M  V30 11037 H 1025.66 3.47229 1.17592 0
M  V30 11038 H 1025.31 3.45893 3.65195 0
M  V30 11039 H 1025.01 5.0742 2.96309 0
M  V30 11040 H 1026.53 4.74964 3.83721 0
M  V30 11041 H 1027.95 5.47942 1.6862 0
M  V30 11042 H 1026.34 5.91293 1.02435 0
M  V30 11043 H 1027.41 4.84807 0.0947227 0
M  V30 11044 N 1028.76 -0.17846 1.56586 0
M  V30 11045 C 1030.03 -0.923096 1.72448 0
M  V30 11046 C 1030.41 -2.00692 0.654659 0
M  V30 11047 O 1029.76 -2.26079 -0.33171 0
M  V30 11048 C 1029.97 -1.49435 3.15389 0
M  V30 11049 C 1031.32 -1.97005 3.76131 0
M  V30 11050 O 1032.34 -1.59244 3.18622 0
M  V30 11051 O 1031.2 -2.66541 4.77094 0
M  V30 11052 H 1028.3 -0.434009 0.703964 0
M  V30 11053 H 1030.84 -0.16685 1.68878 0
M  V30 11054 H 1029.62 -0.713933 3.84732 0
M  V30 11055 H 1029.24 -2.31498 3.23256 0
M  V30 11056 N 1030.24 -1.51135 -0.446768 0
M  V30 11057 C 1031.48 -1.63578 -1.19875 0
M  V30 11058 C 1031.81 -0.346478 -1.91084 0
M  V30 11059 O 1031.09 0.653447 -1.83195 0
M  V30 11060 C 1031.37 -2.83275 -2.22323 0
M  V30 11061 C 1031.23 -4.22155 -1.55259 0
M  V30 11062 C 1032.54 -2.98496 -3.23401 0
M  V30 11063 H 1029.66 -0.595333 -0.434452 0
M  V30 11064 H 1032.31 -1.83593 -0.48923 0
M  V30 11065 H 1030.46 -2.6634 -2.82834 0
M  V30 11066 H 1032.13 -4.50736 -0.981571 0
M  V30 11067 H 1030.37 -4.25288 -0.855122 0
M  V30 11068 H 1031.04 -5.01882 -2.29823 0
M  V30 11069 H 1033.52 -3.14079 -2.72935 0
M  V30 11070 H 1032.39 -3.83828 -3.92386 0
M  V30 11071 H 1032.65 -2.10157 -3.88956 0
M  V30 11072 N 1031.71 0.701592 -1.41122 0
M  V30 11073 C 1032.96 1.45871 -1.39879 0
M  V30 11074 C 1033.28 1.94999 -0.00668769 0
M  V30 11075 O 1032.55 1.71298 0.95047 0
M  V30 11076 H 1031.13 0.541231 -0.514857 0
M  V30 11077 H 1033.79 0.830803 -1.76306 0
M  V30 11078 H 1032.89 2.32479 -2.0823 0
M  V30 11079 N 1033.19 1.2685 0.935242 0
M  V30 11080 C 1034.47 1.03483 1.65984 0
M  V30 11081 C 1034.85 -0.432859 2.06614 0
M  V30 11082 O 1034.2 -1.4145 1.79455 0
M  V30 11083 C 1034.41 1.98924 2.86758 0
M  V30 11084 C 1035.75 2.2787 3.58274 0
M  V30 11085 O 1036.78 1.96838 2.96873 0
M  V30 11086 O 1035.64 2.80734 4.68882 0
M  V30 11087 H 1032.73 0.393932 0.72715 0
M  V30 11088 H 1035.28 1.38085 0.986445 0
M  V30 11089 H 1034.05 2.9794 2.53668 0
M  V30 11090 H 1033.67 1.64839 3.6182 0
M  V30 11091 N 1034.67 -1.14067 1.0875 0
M  V30 11092 C 1035.63 -2.17453 0.724341 0
M  V30 11093 C 1036.63 -1.58959 -0.242614 0
M  V30 11094 O 1037.82 -1.74186 -0.0217008 0
M  V30 11095 C 1034.96 -3.40828 0.0700236 0
M  V30 11096 H 1036.15 -2.51094 1.63987 0
M  V30 11097 H 1033.7 -1.28775 0.885813 0
M  V30 11098 H 1034.44 -3.1277 -0.857061 0
M  V30 11099 H 1034.22 -3.84551 0.76569 0
M  V30 11100 H 1035.71 -4.17258 -0.168905 0
M  V30 11101 N 1036.15 -0.873678 -1.31166 0
M  V30 11102 C 1037.38 -0.500317 -2.0045 0
M  V30 11103 C 1037.79 0.912716 -1.65729 0
M  V30 11104 O 1037.13 1.61001 -0.884563 0
M  V30 11105 C 1037.19 -0.58197 -3.54758 0
M  V30 11106 C 1036.86 -1.95728 -4.12964 0
M  V30 11107 C 1037.85 -2.92526 -4.29796 0
M  V30 11108 C 1035.54 -2.2596 -4.48606 0
M  V30 11109 C 1037.53 -4.17697 -4.81464 0
M  V30 11110 C 1035.22 -3.5138 -4.99976 0
M  V30 11111 C 1036.22 -4.47064 -5.16356 0
M  V30 11112 O 1035.9 -5.70259 -5.66621 0
M  V30 11113 H 1035.64 -0.193044 -0.64785 0
M  V30 11114 H 1038.19 -1.17768 -1.68285 0
M  V30 11115 H 1036.42 0.152326 -3.864 0
M  V30 11116 H 1038.11 -0.221506 -4.05295 0
M  V30 11117 H 1038.88 -2.70479 -4.02574 0
M  V30 11118 H 1034.75 -1.52258 -4.3513 0
M  V30 11119 H 1038.3 -4.92389 -4.94165 0
M  V30 11120 H 1034.2 -3.73269 -5.26631 0
M  V30 11121 H 1034.96 -5.72483 -5.84983 0
M  V30 11122 N 1037.63 1.44308 -0.633487 0
M  V30 11123 C 1038.87 2.02023 -0.138917 0
M  V30 11124 C 1039.2 1.49841 1.24008 0
M  V30 11125 O 1038.46 0.673718 1.83738 0
M  V30 11126 C 1038.76 3.57316 -0.0773886 0
M  V30 11127 C 1038.42 4.28762 -1.39548 0
M  V30 11128 C 1037.08 4.47997 -1.75648 0
M  V30 11129 C 1039.44 4.69391 -2.26542 0
M  V30 11130 C 1036.76 5.05121 -2.98445 0
M  V30 11131 C 1039.12 5.27876 -3.48612 0
M  V30 11132 C 1037.78 5.45329 -3.84932 0
M  V30 11133 H 1037.05 0.739254 -0.0508333 0
M  V30 11134 H 1039.7 1.73043 -0.820271 0
M  V30 11135 H 1038 3.85724 0.687345 0
M  V30 11136 H 1039.7 3.99706 0.321837 0
M  V30 11137 H 1036.29 4.14122 -1.10456 0
M  V30 11138 H 1040.47 4.54241 -1.99946 0
M  V30 11139 H 1035.73 5.16821 -3.26658 0
M  V30 11140 H 1039.9 5.58307 -4.16253 0
M  V30 11141 H 1037.53 5.8936 -4.80166 0
M  V30 11142 N 1039.1 0.374177 1.53094 0
M  V30 11143 C 1040.33 -0.215903 2.06273 0
M  V30 11144 C 1040.75 -1.40979 1.24526 0
M  V30 11145 O 1040.11 -1.79331 0.266462 0
M  V30 11146 C 1040.16 -0.579089 3.5592 0
M  V30 11147 O 1039.26 -1.67516 3.76845 0
M  V30 11148 H 1038.61 -0.0293981 0.663349 0
M  V30 11149 H 1041.14 0.537271 1.9742 0
M  V30 11150 H 1041.15 -0.847678 3.99097 0
M  V30 11151 H 1039.82 0.293843 4.14861 0
M  V30 11152 H 1038.4 -1.40146 3.45563 0
M  V30 11153 N 1040.58 -1.57259 0.103575 0
M  V30 11154 C 1041.83 -1.94945 -0.558953 0
M  V30 11155 C 1042.16 -0.986038 -1.67305 0
M  V30 11156 O 1041.44 -0.0205464 -1.94489 0
M  V30 11157 C 1041.72 -3.42689 -1.10617 0
M  V30 11158 C 1041.57 -4.498 0.00345246 0
M  V30 11159 C 1042.89 -3.91933 -2.00191 0
M  V30 11160 H 1040.01 -0.708859 -0.201713 0
M  V30 11161 H 1042.65 -1.89183 0.176006 0
M  V30 11162 H 1040.8 -3.4773 -1.73251 0
M  V30 11163 H 1042.47 -4.56866 0.638082 0
M  V30 11164 H 1040.72 -4.28615 0.668705 0
M  V30 11165 H 1041.39 -5.50397 -0.420396 0
M  V30 11166 H 1043.86 -3.89098 -1.4745 0
M  V30 11167 H 1042.74 -4.9586 -2.35402 0
M  V30 11168 H 1043 -3.31722 -2.92255 0
M  V30 11169 N 1042.06 0.170153 -1.56679 0
M  V30 11170 C 1043.47 0.732502 -1.7173 0
M  V30 11171 C 1043.82 1.82736 -0.71428 0
M  V30 11172 O 1042.95 2.16044 0.124102 0
M  V30 11173 C 1043.54 1.33548 -3.11368 0
M  V30 11174 C 1042.1 1.84464 -3.281 0
M  V30 11175 C 1041.25 0.724069 -2.6768 0
M  V30 11176 H 1044.2 -0.0552543 -1.58604 0
M  V30 11177 H 1044.22 2.20519 -3.10083 0
M  V30 11178 H 1043.73 0.5384 -3.84347 0
M  V30 11179 H 1041.83 2.66813 -2.6008 0
M  V30 11180 H 1041.95 1.98928 -4.35849 0
M  V30 11181 H 1040.31 1.14481 -2.27522 0
M  V30 11182 H 1041.09 -0.0611861 -3.43245 0
M  V30 11183 N 1043.54 1.5137 0.438746 0
M  V30 11184 C 1044.47 1.75528 1.53987 0
M  V30 11185 C 1045.45 0.605067 1.58975 0
M  V30 11186 O 1046.63 0.847634 1.74725 0
M  V30 11187 C 1043.76 1.87904 2.92078 0
M  V30 11188 C 1042.72 3.0333 3.01951 0
M  V30 11189 C 1042.04 3.00888 4.42007 0
M  V30 11190 C 1043.34 4.43319 2.76163 0
M  V30 11191 H 1045.04 2.67728 1.34022 0
M  V30 11192 H 1042.58 1.28831 0.643308 0
M  V30 11193 H 1044.54 2.03388 3.69068 0
M  V30 11194 H 1043.26 0.923514 3.13271 0
M  V30 11195 H 1041.92 2.87549 2.274 0
M  V30 11196 H 1041.57 2.03116 4.60166 0
M  V30 11197 H 1041.27 3.78397 4.49544 0
M  V30 11198 H 1042.79 3.18464 5.20973 0
M  V30 11199 H 1044.21 4.59458 3.42887 0
M  V30 11200 H 1042.6 5.22523 2.9511 0
M  V30 11201 H 1043.67 4.53453 1.71779 0
M  V30 11202 N 1045.02 -0.694098 1.41492 0
M  V30 11203 C 1045.97 -1.80016 1.39923 0
M  V30 11204 C 1046.95 -1.58561 0.273377 0
M  V30 11205 O 1048.14 -1.69368 0.514157 0
M  V30 11206 C 1045.27 -3.18333 1.28526 0
M  V30 11207 C 1044.36 -3.45478 2.45979 0
M  V30 11208 N 1044.75 -3.43313 3.71443 0
M  V30 11209 C 1043.05 -3.76033 2.39824 0
M  V30 11210 C 1043.75 -3.69404 4.4935 0
M  V30 11211 N 1042.72 -3.89221 3.79484 0
M  V30 11212 H 1046.53 -1.76707 2.34844 0
M  V30 11213 H 1044.04 -0.894148 1.35568 0
M  V30 11214 H 1046.04 -3.97567 1.25484 0
M  V30 11215 H 1044.7 -3.22852 0.345904 0
M  V30 11216 H 1045.71 -3.2366 4.04308 0
M  V30 11217 H 1042.38 -3.87913 1.54368 0
M  V30 11218 H 1043.77 -3.73854 5.58285 0
M  V30 11219 N 1046.49 -1.27344 -0.928501 0
M  V30 11220 C 1047.4 -1.11812 -2.06241 0
M  V30 11221 C 1048.42 -0.048347 -1.73933 0
M  V30 11222 O 1049.6 -0.25467 -1.99783 0
M  V30 11223 C 1046.66 -0.766036 -3.38131 0
M  V30 11224 C 1045.72 -1.91659 -3.84142 0
M  V30 11225 C 1044.96 -1.58121 -5.09738 0
M  V30 11226 O 1045.18 -0.488742 -5.68302 0
M  V30 11227 O 1044.11 -2.42013 -5.51102 0
M  V30 11228 H 1047.94 -2.06967 -2.22258 0
M  V30 11229 H 1045.52 -1.06524 -1.04752 0
M  V30 11230 H 1047.41 -0.582982 -4.17348 0
M  V30 11231 H 1046.08 0.155998 -3.23324 0
M  V30 11232 H 1044.99 -2.1547 -3.05816 0
M  V30 11233 H 1046.32 -2.8188 -4.0349 0
M  V30 11234 N 1047.97 1.13488 -1.09353 0
M  V30 11235 C 1049.25 1.80998 -0.741559 0
M  V30 11236 C 1049.63 1.96418 0.773505 0
M  V30 11237 O 1048.98 1.53168 1.69563 0
M  V30 11238 C 1049.19 3.16078 -1.47972 0
M  V30 11239 C 1050.54 3.91438 -1.64504 0
M  V30 11240 O 1051.56 3.25699 -1.44218 0
M  V30 11241 O 1050.42 5.0935 -1.98054 0
M  V30 11242 H 1047.51 0.782953 -0.266297 0
M  V30 11243 H 1050.06 1.20422 -1.19569 0
M  V30 11244 H 1048.83 3.00076 -2.51137 0
M  V30 11245 H 1048.45 3.84354 -1.01772 0
M  V30 11246 N 1049.45 0.880621 1.30701 0
M  V30 11247 C 1050.7 0.496875 1.96309 0
M  V30 11248 C 1051.03 -0.953064 1.69549 0
M  V30 11249 O 1050.28 -1.68782 0.990507 0
M  V30 11250 C 1050.58 0.713203 3.50212 0
M  V30 11251 C 1050.25 2.13756 3.97013 0
M  V30 11252 C 1048.91 2.52706 4.09503 0
M  V30 11253 C 1051.26 3.066 4.21481 0
M  V30 11254 C 1048.59 3.8372 4.43819 0
M  V30 11255 C 1050.94 4.3714 4.57265 0
M  V30 11256 C 1049.6 4.7599 4.67963 0
M  V30 11257 H 1048.87 0.18182 0.718347 0
M  V30 11258 H 1051.52 1.11564 1.55646 0
M  V30 11259 H 1049.83 0.0113694 3.91798 0
M  V30 11260 H 1051.52 0.39595 3.9904 0
M  V30 11261 H 1048.11 1.8252 3.87794 0
M  V30 11262 H 1052.3 2.77729 4.11315 0
M  V30 11263 H 1047.55 4.13568 4.50301 0
M  V30 11264 H 1051.73 5.09123 4.75149 0
M  V30 11265 H 1049.35 5.77549 4.94309 0
M  V30 11266 N 1050.93 -1.4397 0.641131 0
M  V30 11267 C 1052.35 -1.56607 0.30762 0
M  V30 11268 C 1052.55 -1.62694 -1.18882 0
M  V30 11269 O 1051.6 -1.57541 -1.97325 0
M  V30 11270 C 1052.91 -2.83289 1.00834 0
M  V30 11271 C 1054.46 -2.97016 0.98744 0
M  V30 11272 C 1054.94 -4.26514 1.66882 0
M  V30 11273 N 1056.43 -4.33351 1.63589 0
M  V30 11274 C 1057.16 -5.32292 2.13196 0
M  V30 11275 N 1056.66 -6.37582 2.71038 0
M  V30 11276 N 1058.45 -5.23866 2.03766 0
M  V30 11277 H 1050.6 -1.38262 1.61237 0
M  V30 11278 H 1052.87 -0.663221 0.677378 0
M  V30 11279 H 1052.57 -2.84812 2.06337 0
M  V30 11280 H 1052.45 -3.73134 0.552333 0
M  V30 11281 H 1054.83 -2.95041 -0.0591395 0
M  V30 11282 H 1054.91 -2.08493 1.48203 0
M  V30 11283 H 1054.56 -4.2925 2.71491 0
M  V30 11284 H 1054.49 -5.13912 1.14898 0
M  V30 11285 H 1056.98 -3.5788 1.21368 0
M  V30 11286 H 1057.29 -7.09378 3.06597 0
M  V30 11287 H 1055.64 -6.38239 2.75093 0
M  V30 11288 H 1058.83 -4.40524 1.58291 0
M  V30 11289 H 1059 -6.00819 2.42737 0
M  V30 11290 N 1052.41 -0.382291 -1.52893 0
M  V30 11291 C 1053.35 0.456234 -2.26246 0
M  V30 11292 C 1054.32 1.06366 -1.27575 0
M  V30 11293 O 1055.51 1.09301 -1.5639 0
M  V30 11294 C 1052.65 1.5813 -3.06739 0
M  V30 11295 C 1051.76 0.997416 -4.20328 0
M  V30 11296 C 1050.9 2.09296 -4.8823 0
M  V30 11297 C 1049.94 1.4846 -5.93823 0
M  V30 11298 N 1049.07 2.51916 -6.55349 0
M  V30 11299 H 1053.91 -0.175761 -2.97481 0
M  V30 11300 H 1051.45 -0.0985046 -1.4677 0
M  V30 11301 H 1053.41 2.24426 -3.51694 0
M  V30 11302 H 1052.04 2.18371 -2.37727 0
M  V30 11303 H 1051.09 0.224251 -3.79738 0
M  V30 11304 H 1052.4 0.512784 -4.96157 0
M  V30 11305 H 1051.56 2.83377 -5.36453 0
M  V30 11306 H 1050.3 2.61116 -4.1191 0
M  V30 11307 H 1049.3 0.729001 -5.44946 0
M  V30 11308 H 1050.53 0.97443 -6.72073 0
M  V30 11309 H 1048.47 3.02919 -5.81873 0
M  V30 11310 H 1048.39 2.08188 -7.26769 0
M  V30 11311 H 1049.66 3.25649 -7.08218 0
M  V30 11312 N 1053.89 1.57202 -0.111913 0
M  V30 11313 C 1055.12 1.99008 0.554907 0
M  V30 11314 C 1055.52 0.990323 1.61212 0
M  V30 11315 O 1054.87 -0.0259612 1.83682 0
M  V30 11316 C 1054.93 3.37218 1.24598 0
M  V30 11317 C 1054.59 4.55752 0.337549 0
M  V30 11318 C 1055.59 5.18192 -0.421026 0
M  V30 11319 C 1053.27 5.01674 0.25069 0
M  V30 11320 C 1055.27 6.24938 -1.25426 0
M  V30 11321 C 1052.96 6.08282 -0.586186 0
M  V30 11322 C 1053.95 6.6978 -1.3373 0
M  V30 11323 O 1053.64 7.7433 -2.16029 0
M  V30 11324 H 1053.37 0.658669 0.152091 0
M  V30 11325 H 1055.93 2.04492 -0.192937 0
M  V30 11326 H 1054.16 3.28467 2.04074 0
M  V30 11327 H 1055.85 3.63359 1.809 0
M  V30 11328 H 1056.61 4.83634 -0.363752 0
M  V30 11329 H 1052.49 4.53558 0.825005 0
M  V30 11330 H 1056.04 6.72869 -1.84102 0
M  V30 11331 H 1051.93 6.42271 -0.64488 0
M  V30 11332 H 1052.7 7.91395 -2.08894 0
M  V30 11333 N 1055.36 -0.161842 1.56767 0
M  V30 11334 C 1056.59 -0.892247 1.86672 0
M  V30 11335 C 1057.01 -1.75407 0.69841 0
M  V30 11336 O 1056.36 -1.7945 -0.332251 0
M  V30 11337 C 1056.41 -1.7612 3.15696 0
M  V30 11338 O 1056.14 -0.934131 4.28025 0
M  V30 11339 C 1057.64 -2.60046 3.59014 0
M  V30 11340 H 1054.86 -0.258747 0.619105 0
M  V30 11341 H 1057.4 -0.159089 2.0388 0
M  V30 11342 H 1055.56 -2.44759 3.00286 0
M  V30 11343 H 1055.97 -1.52931 5.01709 0
M  V30 11344 H 1057.44 -3.16618 4.5217 0
M  V30 11345 H 1057.92 -3.35374 2.83586 0
M  V30 11346 H 1058.53 -1.96724 3.77067 0
M  V30 11347 N 1056.84 -1.516 -0.430713 0
M  V30 11348 C 1057.8 -1.72794 -1.50582 0
M  V30 11349 C 1058.8 -0.597903 -1.49271 0
M  V30 11350 O 1059.99 -0.865535 -1.51176 0
M  V30 11351 C 1057.13 -1.79049 -2.90093 0
M  V30 11352 H 1058.32 -2.68751 -1.33091 0
M  V30 11353 H 1055.87 -1.4169 -0.659822 0
M  V30 11354 H 1056.61 -0.849309 -3.12981 0
M  V30 11355 H 1056.39 -2.61181 -2.92449 0
M  V30 11356 H 1057.88 -1.97262 -3.68072 0
M  V30 11357 N 1058.32 0.686584 -1.41858 0
M  V30 11358 C 1059.57 1.44665 -1.41698 0
M  V30 11359 C 1059.89 1.94478 -0.0292442 0
M  V30 11360 O 1059.15 1.70512 0.960421 0
M  V30 11361 C 1059.45 2.66793 -2.37816 0
M  V30 11362 C 1059.11 2.35587 -3.8446 0
M  V30 11363 C 1057.78 2.26788 -4.24406 0
M  V30 11364 C 1060.13 2.10028 -4.77009 0
M  V30 11365 C 1057.46 1.90538 -5.54898 0
M  V30 11366 C 1059.81 1.75285 -6.07831 0
M  V30 11367 C 1058.47 1.64987 -6.46789 0
M  V30 11368 H 1057.74 0.529367 -0.518509 0
M  V30 11369 H 1060.39 0.783938 -1.74719 0
M  V30 11370 H 1058.69 3.38041 -1.9808 0
M  V30 11371 H 1060.39 3.24953 -2.34961 0
M  V30 11372 H 1056.98 2.43334 -3.52826 0
M  V30 11373 H 1061.17 2.15766 -4.46944 0
M  V30 11374 H 1056.42 1.81125 -5.83955 0
M  V30 11375 H 1060.6 1.5453 -6.79039 0
M  V30 11376 H 1058.22 1.36667 -7.47814 0
M  V30 11377 N 1059.8 1.27835 0.921735 0
M  V30 11378 C 1061.03 1.17352 1.704 0
M  V30 11379 C 1061.44 -0.268892 1.86875 0
M  V30 11380 O 1060.8 -1.18253 1.39005 0
M  V30 11381 C 1060.85 1.85889 3.10045 0
M  V30 11382 O 1060.57 3.24495 2.94338 0
M  V30 11383 C 1062.07 1.81607 4.04393 0
M  V30 11384 H 1059.29 0.40773 0.532914 0
M  V30 11385 H 1061.83 1.68815 1.15419 0
M  V30 11386 H 1059.99 1.38316 3.61867 0
M  V30 11387 H 1060.4 3.58705 3.82663 0
M  V30 11388 H 1061.88 2.34165 4.99871 0
M  V30 11389 H 1062.35 0.786697 4.32097 0
M  V30 11390 H 1062.96 2.28822 3.58498 0
M  V30 11391 N 1061.28 -1.12907 1.09954 0
M  V30 11392 C 1062.52 -1.83661 0.833761 0
M  V30 11393 C 1062.84 -1.84736 -0.642798 0
M  V30 11394 O 1064.04 -2.51437 -1.0243 0
M  V30 11395 C 1062.5 -3.29763 1.44168 0
M  V30 11396 C 1062.11 -3.3706 2.95118 0
M  V30 11397 C 1063.85 -4.05522 1.25509 0
M  V30 11398 C 1061.76 -4.77467 3.48969 0
M  V30 11399 H 1060.69 -0.688115 0.308242 0
M  V30 11400 H 1063.34 -1.27166 1.32291 0
M  V30 11401 H 1061.72 -3.86094 0.880215 0
M  V30 11402 H 1062.9 -2.90695 3.57537 0
M  V30 11403 H 1061.21 -2.7477 3.12874 0
M  V30 11404 H 1063.81 -5.09188 1.63191 0
M  V30 11405 H 1064.15 -4.15837 0.196208 0
M  V30 11406 H 1064.68 -3.55536 1.78435 0
M  V30 11407 H 1061.42 -4.72344 4.54501 0
M  V30 11408 H 1060.94 -5.24305 2.91315 0
M  V30 11409 H 1062.62 -5.46397 3.46495 0
M  V30 11410 N 1062.75 -0.88754 -1.30232 0
M  V30 11411 C 1064.16 -0.55745 -1.78184 0
M  V30 11412 C 1064.52 0.926474 -1.72948 0
M  V30 11413 O 1063.64 1.72403 -1.3079 0
M  V30 11414 C 1064.24 -1.00512 -3.23547 0
M  V30 11415 C 1062.79 -0.726402 -3.69324 0
M  V30 11416 C 1061.94 -1.18666 -2.50627 0
M  V30 11417 H 1064.89 -1.07151 -1.17066 0
M  V30 11418 H 1064.91 -0.335185 -3.79021 0
M  V30 11419 H 1064.43 -2.08517 -3.27326 0
M  V30 11420 H 1062.53 0.341548 -3.71031 0
M  V30 11421 H 1062.64 -1.31575 -4.60679 0
M  V30 11422 H 1061 -0.605936 -2.47387 0
M  V30 11423 H 1061.79 -2.2745 -2.57141 0
M  V30 11424 N 1064.23 1.43628 -0.648757 0
M  V30 11425 C 1065.46 2.06732 -0.166284 0
M  V30 11426 C 1065.88 1.48281 1.15734 0
M  V30 11427 O 1065.24 0.591018 1.71396 0
M  V30 11428 C 1065.29 3.60502 -0.0838732 0
M  V30 11429 O 1064.39 4.01186 0.955185 0
M  V30 11430 H 1063.73 0.657479 -0.0928285 0
M  V30 11431 H 1066.26 1.84208 -0.890421 0
M  V30 11432 H 1066.27 4.07875 0.100923 0
M  V30 11433 H 1064.95 4.02424 -1.05014 0
M  V30 11434 H 1063.53 3.65412 0.743537 0
M  V30 11435 N 1065.71 0.390394 1.52688 0
M  V30 11436 C 1066.96 -0.192697 2.00777 0
M  V30 11437 C 1067.27 -1.4781 1.28108 0
M  V30 11438 O 1068.48 -2.1413 1.66914 0
M  V30 11439 C 1066.93 -0.393955 3.57737 0
M  V30 11440 C 1066.54 0.878259 4.39307 0
M  V30 11441 C 1068.29 -0.933352 4.14112 0
M  V30 11442 C 1066.19 0.645218 5.8787 0
M  V30 11443 H 1065.12 -0.0757862 0.750182 0
M  V30 11444 H 1067.77 0.512961 1.76184 0
M  V30 11445 H 1066.16 -1.16149 3.78583 0
M  V30 11446 H 1067.33 1.65049 4.30227 0
M  V30 11447 H 1065.65 1.34269 3.94158 0
M  V30 11448 H 1068.24 -1.12343 5.22765 0
M  V30 11449 H 1068.59 -1.90272 3.70273 0
M  V30 11450 H 1069.12 -0.225361 3.97161 0
M  V30 11451 H 1065.86 1.58562 6.36033 0
M  V30 11452 H 1065.38 -0.0880609 5.99735 0
M  V30 11453 H 1067.06 0.280178 6.46393 0
M  V30 11454 N 1067.19 -1.57141 0.120249 0
M  V30 11455 C 1068.14 -2.16638 -0.846809 0
M  V30 11456 C 1069.13 -1.11594 -1.27449 0
M  V30 11457 O 1070.34 -1.29895 -1.24608 0
M  V30 11458 H 1066.71 -0.693331 -0.291197 0
M  V30 11459 H 1068.68 -2.96673 -0.320536 0
M  V30 11460 C 1067.43 -2.78134 -2.08655 0
M  V30 11461 H 1066.75 -3.58662 -1.76639 0
M  V30 11462 H 1068.19 -3.23301 -2.74322 0
M  V30 11463 C 1066.65 -1.7528 -2.87713 0
M  V30 11464 O 1067.18 -1.20693 -3.8314 0
M  V30 11465 N 1065.39 -1.45192 -2.51729 0
M  V30 11466 H 1064.94 -1.89773 -1.74195 0
M  V30 11467 H 1064.89 -0.766166 -3.04922 0
M  V30 11468 N 1068.67 0.153526 -1.5685 0
M  V30 11469 C 1069.61 1.20896 -1.98713 0
M  V30 11470 C 1070.61 1.44839 -0.878529 0
M  V30 11471 O 1071.81 1.45208 -1.0637 0
M  V30 11472 H 1068.19 0.406797 -0.632472 0
M  V30 11473 H 1070.16 0.829145 -2.86649 0
M  V30 11474 C 1068.91 2.53642 -2.37825 0
M  V30 11475 H 1068.23 2.36047 -3.22679 0
M  V30 11476 H 1069.67 3.26136 -2.70946 0
M  V30 11477 C 1068.13 3.13706 -1.22841 0
M  V30 11478 O 1068.66 3.98246 -0.525626 0
M  V30 11479 N 1066.87 2.73059 -0.99435 0
M  V30 11480 H 1066.41 2.0441 -1.56761 0
M  V30 11481 H 1066.37 3.1358 -0.226883 0
M  V30 11482 N 1070.14 1.51827 0.422667 0
M  V30 11483 C 1071.05 1.77066 1.53899 0
M  V30 11484 C 1072.07 0.655541 1.61179 0
M  V30 11485 O 1073.25 0.939448 1.78147 0
M  V30 11486 C 1070.31 1.90372 2.89758 0
M  V30 11487 C 1069.37 3.14256 2.92475 0
M  V30 11488 C 1068.61 3.26918 4.21853 0
M  V30 11489 O 1068.83 2.45164 5.15025 0
M  V30 11490 O 1067.76 4.19989 4.31153 0
M  V30 11491 H 1071.59 2.71791 1.35511 0
M  V30 11492 H 1069.17 1.36506 0.607165 0
M  V30 11493 H 1071.06 2.01024 3.70361 0
M  V30 11494 H 1069.73 0.988347 3.08242 0
M  V30 11495 H 1068.64 3.09072 2.10773 0
M  V30 11496 H 1069.97 4.0553 2.78937 0
M  V30 11497 N 1071.62 -0.679052 1.4222 0
M  V30 11498 C 1072.85 -1.46747 1.45852 0
M  V30 11499 C 1073.27 -1.88675 0.0685937 0
M  V30 11500 O 1072.62 -1.57861 -0.915757 0
M  V30 11501 C 1072.67 -2.71935 2.38188 0
M  V30 11502 O 1072.39 -2.31768 3.71773 0
M  V30 11503 C 1073.9 -3.65536 2.50796 0
M  V30 11504 H 1071.12 -0.451682 0.49621 0
M  V30 11505 H 1073.66 -0.834723 1.86689 0
M  V30 11506 H 1071.81 -3.31409 2.00616 0
M  V30 11507 H 1072.23 -3.12579 4.21182 0
M  V30 11508 H 1073.7 -4.50113 3.19535 0
M  V30 11509 H 1074.18 -4.11148 1.54447 0
M  V30 11510 H 1074.79 -3.11957 2.89072 0
M  V30 11511 N 1073.1 -1.28322 -0.914942 0
M  V30 11512 C 1074.51 -1.13937 -1.47903 0
M  V30 11513 C 1074.86 0.271072 -1.94318 0
M  V30 11514 O 1073.99 1.16522 -1.8235 0
M  V30 11515 C 1074.58 -2.06221 -2.68809 0
M  V30 11516 C 1073.14 -1.95903 -3.21402 0
M  V30 11517 C 1072.29 -1.98031 -1.94111 0
M  V30 11518 H 1075.24 -1.41029 -0.727772 0
M  V30 11519 H 1075.26 -1.6255 -3.44031 0
M  V30 11520 H 1074.77 -3.08866 -2.34997 0
M  V30 11521 H 1072.87 -0.962907 -3.59943 0
M  V30 11522 H 1072.99 -2.82799 -3.86732 0
M  V30 11523 H 1071.35 -1.42423 -2.11158 0
M  V30 11524 H 1072.13 -3.02354 -1.62595 0
M  V30 11525 N 1074.58 1.12322 -1.10551 0
M  V30 11526 C 1075.83 1.83495 -0.846998 0
M  V30 11527 C 1076.15 1.8457 0.629205 0
M  V30 11528 O 1075.42 1.30968 1.45686 0
M  V30 11529 H 1074 0.679479 -0.310351 0
M  V30 11530 H 1076.66 1.36004 -1.39602 0
M  V30 11531 H 1075.76 2.87651 -1.21092 0
M  V30 11532 N 1076.06 0.894434 1.2976 0
M  V30 11533 C 1077.28 0.532916 1.99919 0
M  V30 11534 C 1077.7 -0.881022 1.66983 0
M  V30 11535 O 1077.06 -1.58076 0.912035 0
M  V30 11536 C 1077.11 0.70936 3.54472 0
M  V30 11537 O 1076.83 2.06764 3.86239 0
M  V30 11538 C 1078.33 0.352089 4.419 0
M  V30 11539 H 1075.55 0.205019 0.638912 0
M  V30 11540 H 1078.09 1.20233 1.65421 0
M  V30 11541 H 1076.25 0.0871901 3.87302 0
M  V30 11542 H 1076.66 2.09315 4.80924 0
M  V30 11543 H 1078.14 0.526405 5.49484 0
M  V30 11544 H 1078.61 -0.710527 4.33415 0
M  V30 11545 H 1079.22 0.950979 4.14532 0
M  V30 11546 N 1077.53 -1.43282 0.656365 0
M  V30 11547 C 1078.95 -1.56272 0.324213 0
M  V30 11548 C 1079.15 -1.63946 -1.1715 0
M  V30 11549 O 1078.21 -1.59625 -1.95643 0
M  V30 11550 C 1079.52 -2.82204 1.03833 0
M  V30 11551 C 1081.07 -2.95952 1.01889 0
M  V30 11552 C 1081.54 -4.2472 1.71397 0
M  V30 11553 N 1083.03 -4.31591 1.68176 0
M  V30 11554 C 1083.77 -5.30001 2.1883 0
M  V30 11555 N 1083.26 -6.34671 2.77785 0
M  V30 11556 N 1085.06 -5.21676 2.09311 0
M  V30 11557 H 1077.21 -1.36544 1.62694 0
M  V30 11558 H 1079.47 -0.655999 0.684375 0
M  V30 11559 H 1079.18 -2.82608 2.09346 0
M  V30 11560 H 1079.05 -3.72527 0.591878 0
M  V30 11561 H 1081.44 -2.95087 -0.0278431 0
M  V30 11562 H 1081.52 -2.0691 1.50406 0
M  V30 11563 H 1081.16 -4.26346 2.76028 0
M  V30 11564 H 1081.09 -5.12665 1.20342 0
M  V30 11565 H 1083.58 -3.56573 1.25157 0
M  V30 11566 H 1083.9 -7.06087 3.14104 0
M  V30 11567 H 1082.24 -6.35285 2.81847 0
M  V30 11568 H 1085.43 -4.3882 1.62955 0
M  V30 11569 H 1085.61 -5.9821 2.49095 0
M  V30 11570 N 1079.01 -0.398486 -1.52479 0
M  V30 11571 C 1080.24 0.180295 -2.05812 0
M  V30 11572 C 1080.65 1.40301 -1.26934 0
M  V30 11573 O 1079.99 1.81039 -0.311544 0
M  V30 11574 C 1080.06 0.60601 -3.54355 0
M  V30 11575 C 1079.72 -0.504508 -4.54207 0
M  V30 11576 C 1080.72 -1.36478 -5.01667 0
M  V30 11577 C 1078.4 -0.674161 -4.97755 0
M  V30 11578 C 1080.4 -2.37975 -5.91309 0
M  V30 11579 C 1078.08 -1.69246 -5.87196 0
M  V30 11580 C 1079.08 -2.54367 -6.33866 0
M  V30 11581 O 1078.77 -3.54454 -7.21538 0
M  V30 11582 H 1078.5 0.0286396 -0.675393 0
M  V30 11583 H 1081.06 -0.564912 -1.97479 0
M  V30 11584 H 1079.29 1.40334 -3.60338 0
M  V30 11585 H 1080.97 1.1115 -3.90385 0
M  V30 11586 H 1081.74 -1.24506 -4.68746 0
M  V30 11587 H 1077.62 -0.0213029 -4.60995 0
M  V30 11588 H 1081.16 -3.0445 -6.27659 0
M  V30 11589 H 1077.06 -1.81252 -6.1953 0
M  V30 11590 H 1077.83 -3.50571 -7.39623 0
M  V30 11591 N 1080.49 1.57075 -0.12858 0
M  V30 11592 C 1081.42 2.12907 0.848708 0
M  V30 11593 C 1082.44 1.07406 1.22343 0
M  V30 11594 O 1083.63 1.34746 1.17071 0
M  V30 11595 C 1080.73 2.62167 2.1476 0
M  V30 11596 C 1079.9 3.91871 1.94309 0
M  V30 11597 C 1078.96 4.26629 3.08016 0
M  V30 11598 O 1077.98 4.9528 2.80511 0
M  V30 11599 N 1079.19 3.84721 4.34706 0
M  V30 11600 H 1081.95 2.97387 0.371636 0
M  V30 11601 H 1079.51 1.61805 0.0555574 0
M  V30 11602 H 1081.5 2.82444 2.89841 0
M  V30 11603 H 1080.07 1.82514 2.53786 0
M  V30 11604 H 1079.29 3.80406 1.03367 0
M  V30 11605 H 1080.58 4.76662 1.77962 0
M  V30 11606 H 1079.98 3.2937 4.59926 0
M  V30 11607 H 1078.54 4.10087 5.06628 0
M  V30 11608 N 1081.97 -0.145205 1.5693 0
M  V30 11609 C 1083.2 -0.871133 1.87336 0
M  V30 11610 C 1083.61 -1.7517 0.714992 0
M  V30 11611 O 1082.95 -1.80815 -0.324304 0
M  V30 11612 C 1083.01 -1.77775 3.12468 0
M  V30 11613 C 1082.68 -1.07416 4.44197 0
M  V30 11614 C 1083.67 -0.42722 5.18142 0
M  V30 11615 C 1081.36 -1.06313 4.9092 0
M  V30 11616 C 1083.35 0.221348 6.37016 0
M  V30 11617 C 1081.04 -0.410755 6.09718 0
M  V30 11618 C 1082.04 0.230357 6.82611 0
M  V30 11619 O 1081.73 0.872389 7.99152 0
M  V30 11620 H 1081.46 -0.257174 0.62517 0
M  V30 11621 H 1084.01 -0.142159 2.04907 0
M  V30 11622 H 1082.24 -2.54771 2.9091 0
M  V30 11623 H 1083.93 -2.37579 3.29107 0
M  V30 11624 H 1084.7 -0.427536 4.83112 0
M  V30 11625 H 1080.58 -1.55156 4.34105 0
M  V30 11626 H 1084.12 0.722349 6.9385 0
M  V30 11627 H 1080.02 -0.408112 6.44209 0
M  V30 11628 H 1080.78 0.774236 8.1483 0
M  V30 11629 N 1083.45 -1.52049 -0.414609 0
M  V30 11630 C 1084.4 -1.75603 -1.52533 0
M  V30 11631 C 1085.39 -0.622965 -1.57529 0
M  V30 11632 O 1086.6 -0.804886 -1.61002 0
M  V30 11633 H 1082.97 -0.555222 -0.507181 0
M  V30 11634 H 1084.94 -2.68666 -1.2985 0
M  V30 11635 C 1083.69 -1.9188 -2.89961 0
M  V30 11636 H 1083.01 -2.78483 -2.86857 0
M  V30 11637 H 1084.45 -2.12363 -3.66985 0
M  V30 11638 C 1082.91 -0.684453 -3.29874 0
M  V30 11639 O 1083.44 0.150256 -4.01419 0
M  V30 11640 N 1081.65 -0.521936 -2.85874 0
M  V30 11641 H 1081.2 -1.20229 -2.27822 0
M  V30 11642 H 1081.15 0.302655 -3.1294 0
M  V30 11643 N 1084.93 0.6715 -1.42579 0
M  V30 11644 C 1086.17 1.43366 -1.43436 0
M  V30 11645 C 1086.5 1.94131 -0.0517339 0
M  V30 11646 O 1085.78 1.71121 0.924548 0
M  V30 11647 C 1086.06 2.62832 -2.46154 0
M  V30 11648 C 1085.92 2.17677 -3.9362 0
M  V30 11649 C 1087.23 3.65049 -2.4582 0
M  V30 11650 H 1084.35 0.519967 -0.522306 0
M  V30 11651 H 1087 0.762849 -1.74013 0
M  V30 11652 H 1085.15 3.20062 -2.2021 0
M  V30 11653 H 1086.82 1.65588 -4.30556 0
M  V30 11654 H 1085.06 1.49219 -4.07328 0
M  V30 11655 H 1085.73 3.03503 -4.61075 0
M  V30 11656 H 1088.21 3.17541 -2.68899 0
M  V30 11657 H 1087.08 4.46213 -3.19664 0
M  V30 11658 H 1087.34 4.16401 -1.48536 0
M  V30 11659 N 1086.4 1.28806 0.908124 0
M  V30 11660 C 1087.33 1.15758 2.02787 0
M  V30 11661 C 1088.31 0.053911 1.70015 0
M  V30 11662 O 1089.5 0.231901 1.9281 0
M  V30 11663 C 1086.63 0.824526 3.37371 0
M  V30 11664 C 1085.58 1.88359 3.84324 0
M  V30 11665 C 1084.91 1.40404 5.15937 0
M  V30 11666 C 1086.21 3.29108 4.05568 0
M  V30 11667 H 1087.9 2.09431 2.13961 0
M  V30 11668 H 1085.45 1.00831 1.02806 0
M  V30 11669 H 1087.4 0.71999 4.15204 0
M  V30 11670 H 1086.13 -0.147902 3.26265 0
M  V30 11671 H 1084.79 1.97736 3.087 0
M  V30 11672 H 1084.43 0.420515 5.01239 0
M  V30 11673 H 1084.13 2.11224 5.48323 0
M  V30 11674 H 1085.66 1.31283 5.9632 0
M  V30 11675 H 1087.07 3.2262 4.73909 0
M  V30 11676 H 1085.47 3.97812 4.49294 0
M  V30 11677 H 1086.54 3.72709 3.10187 0
M  V30 11678 N 1087.88 -1.11734 1.11145 0
M  V30 11679 C 1089.29 -1.64928 0.874959 0
M  V30 11680 C 1089.64 -1.87012 -0.593375 0
M  V30 11681 O 1088.77 -1.60206 -1.45475 0
M  V30 11682 C 1089.36 -2.99608 1.58178 0
M  V30 11683 C 1087.92 -3.49723 1.39179 0
M  V30 11684 C 1087.07 -2.24595 1.62642 0
M  V30 11685 H 1090.02 -0.954154 1.26813 0
M  V30 11686 H 1090.04 -3.66434 1.02501 0
M  V30 11687 H 1089.55 -2.83504 2.65042 0
M  V30 11688 H 1087.65 -3.70998 0.345111 0
M  V30 11689 H 1087.77 -4.28711 2.13878 0
M  V30 11690 H 1086.13 -2.32067 1.04961 0
M  V30 11691 H 1086.91 -2.11036 2.70774 0
M  V30 11692 N 1089.36 -0.901303 -1.29284 0
M  V30 11693 C 1090.29 -0.337552 -2.26701 0
M  V30 11694 C 1091.3 0.517039 -1.54371 0
M  V30 11695 O 1092.49 0.333937 -1.75349 0
M  V30 11696 C 1089.59 0.537214 -3.34615 0
M  V30 11697 C 1088.77 -0.292017 -4.36424 0
M  V30 11698 C 1087.83 0.515837 -5.23666 0
M  V30 11699 O 1086.85 -0.0672303 -5.6916 0
M  V30 11700 N 1088.05 1.82159 -5.51179 0
M  V30 11701 H 1090.82 -1.17484 -2.75713 0
M  V30 11702 H 1088.38 -0.765957 -1.42635 0
M  V30 11703 H 1090.37 1.0841 -3.8991 0
M  V30 11704 H 1088.94 1.2752 -2.85408 0
M  V30 11705 H 1088.16 -1.02031 -3.80767 0
M  V30 11706 H 1089.45 -0.859855 -5.01482 0
M  V30 11707 H 1088.85 2.318 -5.16028 0
M  V30 11708 H 1087.4 2.31556 -6.09282 0
M  V30 11709 N 1090.84 1.42931 -0.663954 0
M  V30 11710 C 1092.09 2.01284 -0.181379 0
M  V30 11711 C 1092.41 1.52708 1.21265 0
M  V30 11712 O 1091.68 0.744181 1.81215 0
M  V30 11713 H 1090.26 0.744248 -0.0640646 0
M  V30 11714 H 1092.92 1.74997 -0.858031 0
M  V30 11715 H 1092.01 3.11613 -0.174273 0
M  V30 11716 N 1092.32 0.406567 1.52266 0
M  V30 11717 C 1093.56 -0.1627 2.02748 0
M  V30 11718 C 1093.92 -1.43022 1.28695 0
M  V30 11719 O 1093.21 -1.87715 0.383881 0
M  V30 11720 C 1093.4 -0.467124 3.54334 0
M  V30 11721 C 1093.23 0.76934 4.4307 0
M  V30 11722 C 1092 1.29377 4.88456 0
M  V30 11723 C 1094.2 1.64671 4.87225 0
M  V30 11724 N 1092.18 2.48599 5.61313 0
M  V30 11725 C 1093.55 2.68519 5.58836 0
M  V30 11726 C 1095.61 1.66477 4.69244 0
M  V30 11727 C 1094.31 3.74081 6.14374 0
M  V30 11728 C 1096.34 2.70956 5.25677 0
M  V30 11729 C 1095.7 3.73525 5.97209 0
M  V30 11730 H 1091.8 -0.0211706 0.781713 0
M  V30 11731 H 1094.38 0.560338 1.86463 0
M  V30 11732 H 1092.55 -1.15921 3.70698 0
M  V30 11733 H 1094.29 -1.02505 3.91503 0
M  V30 11734 H 1091.04 0.85219 4.6587 0
M  V30 11735 H 1091.46 3.0897 6.02384 0
M  V30 11736 H 1096.11 0.88519 4.1343 0
M  V30 11737 H 1093.82 4.52896 6.69261 0
M  V30 11738 H 1097.41 2.73258 5.13635 0
M  V30 11739 H 1096.29 4.53043 6.40095 0
M  V30 11740 N 1093.79 -1.57004 0.136909 0
M  V30 11741 C 1094.74 -2.16246 -0.806607 0
M  V30 11742 C 1095.71 -1.09246 -1.25118 0
M  V30 11743 O 1096.9 -1.3724 -1.32551 0
M  V30 11744 C 1094.04 -2.78031 -2.04433 0
M  V30 11745 C 1093.15 -3.99393 -1.64649 0
M  V30 11746 C 1092.28 -4.49208 -2.83524 0
M  V30 11747 C 1091.32 -5.63059 -2.40064 0
M  V30 11748 N 1090.46 -6.07537 -3.51913 0
M  V30 11749 H 1095.3 -2.9654 -0.294596 0
M  V30 11750 H 1092.84 -1.46491 -0.133705 0
M  V30 11751 H 1094.8 -3.11992 -2.76978 0
M  V30 11752 H 1093.43 -2.00398 -2.53062 0
M  V30 11753 H 1092.48 -3.71477 -0.819077 0
M  V30 11754 H 1093.79 -4.81904 -1.28723 0
M  V30 11755 H 1092.94 -4.85171 -3.64271 0
M  V30 11756 H 1091.68 -3.65683 -3.22688 0
M  V30 11757 H 1090.69 -5.26682 -1.57754 0
M  V30 11758 H 1091.91 -6.48362 -2.01997 0
M  V30 11759 H 1089.86 -5.2695 -3.90717 0
M  V30 11760 H 1089.78 -6.84949 -3.1997 0
M  V30 11761 H 1091.04 -6.48143 -4.33048 0
M  V30 11762 N 1095.27 0.136881 -1.57004 0
M  V30 11763 C 1096.52 0.8461 -1.83536 0
M  V30 11764 C 1096.84 1.81246 -0.71937 0
M  V30 11765 O 1096.11 1.94191 0.258161 0
M  V30 11766 H 1094.69 0.315446 -0.677128 0
M  V30 11767 H 1097.35 0.128469 -1.94476 0
M  V30 11768 H 1096.45 1.40221 -2.78827 0
M  V30 11769 N 1096.75 1.52266 0.40654 0
M  V30 11770 C 1097.98 1.70598 1.17945 0
M  V30 11771 C 1098.4 0.415793 1.83447 0
M  V30 11772 O 1097.76 -0.626968 1.70114 0
M  V30 11773 C 1097.81 2.84449 2.21633 0
M  V30 11774 O 1096.91 2.50199 3.27833 0
M  V30 11775 H 1096.25 0.567837 0.344177 0
M  V30 11776 H 1098.78 1.98981 0.476211 0
M  V30 11777 H 1098.79 3.09436 2.65919 0
M  V30 11778 H 1097.47 3.78055 1.73341 0
M  V30 11779 H 1096.04 2.35892 2.88807 0
M  V30 11780 N 1098.23 -0.663929 1.42933 0
M  V30 11781 C 1099.64 -1.24484 1.39143 0
M  V30 11782 C 1099.99 -1.95993 0.0901142 0
M  V30 11783 O 1099.12 -2.00636 -0.810812 0
M  V30 11784 C 1099.71 -2.26402 2.52047 0
M  V30 11785 C 1098.27 -2.79995 2.51555 0
M  V30 11786 C 1097.42 -1.54475 2.30289 0
M  V30 11787 H 1100.37 -0.456619 1.51989 0
M  V30 11788 H 1100.39 -3.08361 2.22921 0
M  V30 11789 H 1099.9 -1.74328 3.46744 0
M  V30 11790 H 1098 -3.36161 1.60707 0
M  V30 11791 H 1098.11 -3.2827 3.48964 0
M  V30 11792 H 1096.48 -1.81437 1.78753 0
M  V30 11793 H 1097.26 -1.04351 3.27056 0
M  V30 11794 N 1099.71 -1.29285 -0.901281 0
M  V30 11795 C 1100.67 -1.14283 -1.98676 0
M  V30 11796 C 1101.67 -0.0787641 -1.60607 0
M  V30 11797 O 1102.86 -0.325574 -1.71131 0
M  V30 11798 C 1099.99 -0.747279 -3.32609 0
M  V30 11799 H 1101.18 -2.10701 -2.13413 0
M  V30 11800 H 1098.74 -1.12449 -1.08558 0
M  V30 11801 H 1099.47 0.217111 -3.23572 0
M  V30 11802 H 1099.26 -1.51608 -3.61604 0
M  V30 11803 H 1100.75 -0.665322 -4.12266 0
M  V30 11804 N 1101.18 1.11143 -1.11736 0
M  V30 11805 C 1102.43 1.82311 -0.862875 0
M  V30 11806 C 1102.75 1.85735 0.613326 0
M  V30 11807 O 1103.95 2.53034 0.984168 0
M  V30 11808 C 1102.41 3.27427 -1.49396 0
M  V30 11809 C 1102.02 3.32323 -3.00443 0
M  V30 11810 C 1103.76 4.03474 -1.31944 0
M  V30 11811 C 1101.67 4.71855 -3.56521 0
M  V30 11812 H 1100.6 0.683124 -0.31915 0
M  V30 11813 H 1103.25 1.25045 -1.34298 0
M  V30 11814 H 1101.63 3.84644 -0.941528 0
M  V30 11815 H 1102.8 2.84971 -3.62117 0
M  V30 11816 H 1101.12 2.69758 -3.17206 0
M  V30 11817 H 1103.72 5.06528 -1.71271 0
M  V30 11818 H 1104.06 4.15473 -0.262339 0
M  V30 11819 H 1104.59 3.52652 -1.84069 0
M  V30 11820 H 1101.33 4.65054 -4.61958 0
M  V30 11821 H 1100.85 5.19604 -2.99619 0
M  V30 11822 H 1102.53 5.40816 -3.55144 0
M  V30 11823 N 1102.66 0.908147 1.28804 0
M  V30 11824 C 1103.91 0.538404 1.95211 0
M  V30 11825 C 1104.24 -0.916886 1.71533 0
M  V30 11826 O 1103.49 -1.66643 1.02609 0
M  V30 11827 C 1103.79 0.787327 3.4862 0
M  V30 11828 C 1103.46 2.22129 3.92389 0
M  V30 11829 C 1102.12 2.61336 4.04051 0
M  V30 11830 C 1104.47 3.15471 4.14883 0
M  V30 11831 C 1101.8 3.93048 4.3558 0
M  V30 11832 C 1104.15 4.46741 4.47889 0
M  V30 11833 C 1102.82 4.85809 4.57761 0
M  V30 11834 H 1102.09 0.197016 0.714329 0
M  V30 11835 H 1104.73 1.14841 1.53244 0
M  V30 11836 H 1103.04 0.0944731 3.91686 0
M  V30 11837 H 1104.73 0.480503 3.98111 0
M  V30 11838 H 1101.32 1.90704 3.83836 0
M  V30 11839 H 1105.51 2.86391 4.05332 0
M  V30 11840 H 1100.76 4.23027 4.41428 0
M  V30 11841 H 1104.94 5.19087 4.64243 0
M  V30 11842 H 1102.57 5.87904 4.81947 0
M  V30 11843 N 1104.14 -1.42577 0.671525 0
M  V30 11844 C 1105.07 -2.2915 -0.0477361 0
M  V30 11845 C 1106.09 -1.43503 -0.768805 0
M  V30 11846 O 1107.27 -1.67256 -0.623509 0
M  V30 11847 C 1104.37 -3.20851 -1.09122 0
M  V30 11848 C 1103.55 -4.35134 -0.44463 0
M  V30 11849 C 1102.61 -5.07579 -1.38745 0
M  V30 11850 O 1101.63 -5.62215 -0.889015 0
M  V30 11851 N 1102.83 -5.12786 -2.72086 0
M  V30 11852 H 1105.6 -2.9152 0.695415 0
M  V30 11853 H 1103.16 -1.53467 0.515689 0
M  V30 11854 H 1105.15 -3.66183 -1.72315 0
M  V30 11855 H 1103.72 -2.59956 -1.73614 0
M  V30 11856 H 1102.94 -3.9249 0.36675 0
M  V30 11857 H 1104.23 -5.088 0.00595927 0
M  V30 11858 H 1103.63 -4.69802 -3.15123 0
M  V30 11859 H 1102.19 -5.61774 -3.30535 0
M  V30 11860 N 1105.62 -0.414636 -1.52048 0
M  V30 11861 C 1106.84 0.161137 -2.06773 0
M  V30 11862 C 1107.27 1.37628 -1.2822 0
M  V30 11863 O 1106.63 1.78562 -0.313915 0
M  V30 11864 C 1106.67 0.48452 -3.5733 0
M  V30 11865 O 1105.78 1.57466 -3.81154 0
M  V30 11866 H 1105.12 0.0118003 -0.663895 0
M  V30 11867 H 1107.65 -0.589424 -1.95926 0
M  V30 11868 H 1107.66 0.741567 -4.01204 0
M  V30 11869 H 1106.33 -0.403733 -4.13936 0
M  V30 11870 H 1104.91 1.30935 -3.49157 0
M  V30 11871 N 1107.1 1.56929 -0.145233 0
M  V30 11872 C 1108.32 2.00864 0.516564 0
M  V30 11873 C 1108.75 1.02466 1.57741 0
M  V30 11874 O 1108.1 0.000145439 1.813 0
M  V30 11875 C 1108.15 3.43552 1.09563 0
M  V30 11876 O 1107.26 3.4815 2.21055 0
M  V30 11877 H 1106.6 0.651835 0.126521 0
M  V30 11878 H 1109.13 2.0317 -0.241445 0
M  V30 11879 H 1109.14 3.82316 1.42473 0
M  V30 11880 H 1107.81 4.14677 0.318749 0
M  V30 11881 H 1106.39 3.21228 1.89387 0
M  V30 11882 N 1108.58 -0.128553 1.57075 0
M  V30 11883 C 1109.51 -1.18822 1.94825 0
M  V30 11884 C 1110.49 -1.40609 0.816571 0
M  V30 11885 O 1111.67 -1.5492 1.07388 0
M  V30 11886 C 1108.8 -2.54383 2.23623 0
M  V30 11887 C 1107.84 -2.4908 3.4621 0
M  V30 11888 S 1108.68 -1.93974 4.99133 0
M  V30 11889 C 1109.83 -3.31228 5.31074 0
M  V30 11890 H 1110.07 -0.866246 2.844 0
M  V30 11891 H 1107.6 -0.334927 1.50724 0
M  V30 11892 H 1109.56 -3.32386 2.40893 0
M  V30 11893 H 1108.22 -2.83761 1.34678 0
M  V30 11894 H 1107.41 -3.48915 3.63695 0
M  V30 11895 H 1107.01 -1.79193 3.28277 0
M  V30 11896 H 1109.3 -4.27407 5.25671 0
M  V30 11897 H 1110.25 -3.18578 6.32387 0
M  V30 11898 H 1110.66 -3.29215 4.5856 0
M  V30 11899 N 1110.05 -1.5248 -0.398459 0
M  V30 11900 C 1111.28 -1.70925 -1.16586 0
M  V30 11901 C 1111.7 -0.42342 -1.83991 0
M  V30 11902 O 1111.05 0.601395 -1.72306 0
M  V30 11903 C 1111.1 -2.85226 -2.22099 0
M  V30 11904 O 1110.83 -4.08831 -1.57444 0
M  V30 11905 C 1112.33 -3.15272 -3.11639 0
M  V30 11906 H 1109.55 -0.572533 -0.349924 0
M  V30 11907 H 1112.09 -1.99087 -0.467416 0
M  V30 11908 H 1110.25 -2.59553 -2.87595 0
M  V30 11909 H 1110.66 -4.72603 -2.2748 0
M  V30 11910 H 1112.13 -3.98737 -3.81724 0
M  V30 11911 H 1112.61 -2.29262 -3.74614 0
M  V30 11912 H 1113.22 -3.42749 -2.518 0
M  V30 11913 N 1111.53 0.65634 -1.43283 0
M  V30 11914 C 1112.76 1.44408 -1.48168 0
M  V30 11915 C 1113.17 1.88542 -0.0986016 0
M  V30 11916 O 1112.53 1.59298 0.890527 0
M  V30 11917 C 1112.58 2.68111 -2.42484 0
M  V30 11918 O 1112.3 2.25824 -3.75413 0
M  V30 11919 C 1113.8 3.61499 -2.56579 0
M  V30 11920 H 1111.02 0.443731 -0.503333 0
M  V30 11921 H 1113.57 0.804917 -1.87993 0
M  V30 11922 H 1111.72 3.28175 -2.05863 0
M  V30 11923 H 1112.14 3.05839 -4.26102 0
M  V30 11924 H 1113.61 4.44972 -3.26655 0
M  V30 11925 H 1114.09 4.08639 -1.60969 0
M  V30 11926 H 1114.69 3.07319 -2.93998 0
M  V30 11927 N 1113.01 1.29761 0.894412 0
M  V30 11928 C 1114.26 1.17409 1.64006 0
M  V30 11929 C 1114.57 -0.272355 1.93695 0
M  V30 11930 O 1115.78 -0.517269 2.66527 0
M  V30 11931 C 1114.23 2.05379 2.95546 0
M  V30 11932 C 1113.84 3.54878 2.73433 0
M  V30 11933 C 1115.59 2.01765 3.73485 0
M  V30 11934 C 1113.49 4.34935 4.00731 0
M  V30 11935 H 1112.42 0.43583 0.615279 0
M  V30 11936 H 1115.07 1.5444 0.990983 0
M  V30 11937 H 1113.46 1.61222 3.61695 0
M  V30 11938 H 1114.63 4.07122 2.15844 0
M  V30 11939 H 1112.94 3.60218 2.08882 0
M  V30 11940 H 1115.54 2.58835 4.67877 0
M  V30 11941 H 1115.88 0.998876 4.04139 0
M  V30 11942 H 1116.42 2.43994 3.14184 0
M  V30 11943 H 1113.16 5.3747 3.75241 0
M  V30 11944 H 1112.68 3.87458 4.5786 0
M  V30 11945 H 1114.36 4.45875 4.68833 0
M  V30 11946 N 1114.49 -1.10549 1.12324 0
M  V30 11947 C 1115.42 -2.18911 0.812416 0
M  V30 11948 C 1116.4 -1.68628 -0.22327 0
M  V30 11949 O 1117.58 -1.94015 -0.0847184 0
M  V30 11950 C 1114.71 -3.46288 0.264947 0
M  V30 11951 C 1113.67 -4.09838 1.23356 0
M  V30 11952 C 1112.99 -5.31901 0.546374 0
M  V30 11953 C 1114.29 -4.53686 2.58778 0
M  V30 11954 H 1115.99 -2.45169 1.71851 0
M  V30 11955 H 1113.53 -1.17834 0.827715 0
M  V30 11956 H 1115.49 -4.21385 0.0352364 0
M  V30 11957 H 1114.21 -3.19517 -0.676479 0
M  V30 11958 H 1112.87 -3.36746 1.44906 0
M  V30 11959 H 1112.52 -5.01406 -0.400157 0
M  V30 11960 H 1112.22 -5.75372 1.19249 0
M  V30 11961 H 1113.74 -6.09731 0.325673 0
M  V30 11962 H 1115.16 -5.20063 2.41263 0
M  V30 11963 H 1113.55 -5.08003 3.19457 0
M  V30 11964 H 1114.62 -3.66665 3.17309 0
M  V30 11965 N 1115.97 -0.914965 -1.28321 0
M  V30 11966 C 1116.88 -0.409424 -2.31 0
M  V30 11967 C 1117.89 0.503526 -1.66555 0
M  V30 11968 O 1119.07 0.38942 -1.97599 0
M  V30 11969 C 1116.13 0.34123 -3.45017 0
M  V30 11970 C 1115.19 -0.605087 -4.25014 0
M  V30 11971 C 1114.43 0.109837 -5.33587 0
M  V30 11972 O 1114.65 1.33136 -5.54645 0
M  V30 11973 O 1113.58 -0.555474 -5.99331 0
M  V30 11974 H 1117.41 -1.26167 -2.76253 0
M  V30 11975 H 1114.99 -0.679831 -1.33036 0
M  V30 11976 H 1116.88 0.765132 -4.14396 0
M  V30 11977 H 1115.55 1.16929 -3.01843 0
M  V30 11978 H 1114.46 -1.07841 -3.58219 0
M  V30 11979 H 1115.79 -1.39999 -4.7187 0
M  V30 11980 N 1117.44 1.42219 -0.679077 0
M  V30 11981 C 1118.85 1.8459 -0.279877 0
M  V30 11982 C 1119.21 1.56839 1.17881 0
M  V30 11983 O 1118.33 1.03039 1.90294 0
M  V30 11984 C 1118.93 3.35072 -0.501185 0
M  V30 11985 C 1117.48 3.76076 -0.156065 0
M  V30 11986 C 1116.63 2.65763 -0.791549 0
M  V30 11987 H 1119.58 1.32005 -0.880932 0
M  V30 11988 H 1119.6 3.79708 0.245349 0
M  V30 11989 H 1119.12 3.55239 -1.56291 0
M  V30 11990 H 1117.22 3.61516 0.90205 0
M  V30 11991 H 1117.33 4.75334 -0.599572 0
M  V30 11992 H 1115.69 2.53726 -0.222514 0
M  V30 11993 H 1116.48 2.88751 -1.85682 0
M  V30 11994 N 1118.92 0.422693 1.51826 0
M  V30 11995 C 1120.17 -0.148641 2.01954 0
M  V30 11996 C 1120.5 -1.43982 1.30765 0
M  V30 11997 O 1119.75 -1.91428 0.406668 0
M  V30 11998 C 1120.05 -0.429516 3.5481 0
M  V30 11999 C 1119.72 0.774088 4.44206 0
M  V30 12000 C 1118.38 1.1042 4.6836 0
M  V30 12001 C 1120.73 1.5777 4.96747 0
M  V30 12002 C 1118.06 2.23887 5.42302 0
M  V30 12003 C 1120.41 2.70325 5.71933 0
M  V30 12004 C 1119.07 3.03807 5.94355 0
M  V30 12005 H 1118.34 -0.0543917 0.739001 0
M  V30 12006 H 1120.99 0.566892 1.82917 0
M  V30 12007 H 1119.3 -1.22678 3.72099 0
M  V30 12008 H 1120.99 -0.884761 3.91118 0
M  V30 12009 H 1117.58 0.506834 4.25593 0
M  V30 12010 H 1121.77 1.33589 4.77983 0
M  V30 12011 H 1117.02 2.50159 5.5788 0
M  V30 12012 H 1121.2 3.32974 6.11638 0
M  V30 12013 H 1118.82 3.91844 6.51431 0
M  V30 12014 N 1120.4 -1.5685 0.153553 0
M  V30 12015 C 1121.82 -1.58306 -0.202801 0
M  V30 12016 C 1122.02 -1.16813 -1.64186 0
M  V30 12017 O 1121.07 -0.871468 -2.36985 0
M  V30 12018 C 1122.38 -3.00636 0.0619012 0
M  V30 12019 C 1123.93 -3.13 -0.00129219 0
M  V30 12020 C 1124.41 -4.57391 0.236164 0
M  V30 12021 N 1125.9 -4.62837 0.18332 0
M  V30 12022 C 1126.63 -5.72382 0.341471 0
M  V30 12023 N 1126.13 -6.90552 0.557704 0
M  V30 12024 N 1127.92 -5.61409 0.278615 0
M  V30 12025 H 1120.07 -1.82113 1.09309 0
M  V30 12026 H 1122.34 -0.843228 0.433209 0
M  V30 12027 H 1122.04 -3.35406 1.0581 0
M  V30 12028 H 1121.92 -3.71477 -0.654555 0
M  V30 12029 H 1124.3 -2.78068 -0.98805 0
M  V30 12030 H 1124.38 -2.44632 0.747596 0
M  V30 12031 H 1124.03 -4.93029 1.22005 0
M  V30 12032 H 1123.96 -5.23894 -0.533125 0
M  V30 12033 H 1126.45 -3.77894 0.0211138 0
M  V30 12034 H 1126.76 -7.69905 0.66831 0
M  V30 12035 H 1125.11 -6.92456 0.594105 0
M  V30 12036 H 1128.3 -4.6797 0.110401 0
M  V30 12037 H 1128.47 -6.46731 0.4053 0
M  V30 12038 N 1121.88 0.120221 -1.57141 0
M  V30 12039 C 1122.82 1.14751 -2.00252 0
M  V30 12040 C 1123.79 1.41217 -0.874462 0
M  V30 12041 O 1124.98 1.53104 -1.13859 0
M  V30 12042 C 1122.12 2.46923 -2.41087 0
M  V30 12043 C 1121.23 2.27403 -3.67303 0
M  V30 12044 C 1120.37 3.52797 -3.97125 0
M  V30 12045 C 1119.41 3.28429 -5.16528 0
M  V30 12046 N 1118.54 4.46022 -5.42226 0
M  V30 12047 H 1123.38 0.772884 -2.87803 0
M  V30 12048 H 1120.92 0.370137 -1.42367 0
M  V30 12049 H 1122.88 3.24025 -2.62799 0
M  V30 12050 H 1121.51 2.82281 -1.5658 0
M  V30 12051 H 1120.56 1.41224 -3.53214 0
M  V30 12052 H 1121.87 2.05373 -4.54558 0
M  V30 12053 H 1121.03 4.38318 -4.19479 0
M  V30 12054 H 1119.77 3.77857 -3.08343 0
M  V30 12055 H 1118.77 2.41299 -4.94019 0
M  V30 12056 H 1120 3.0474 -6.06886 0
M  V30 12057 H 1117.94 4.71205 -4.56401 0
M  V30 12058 H 1117.86 4.27092 -6.23802 0
M  V30 12059 H 1119.13 5.3268 -5.69098 0
M  V30 12060 N 1123.36 1.52689 0.390367 0
M  V30 12061 C 1124.29 1.73622 1.49626 0
M  V30 12062 C 1125.3 0.616682 1.50668 0
M  V30 12063 O 1126.49 0.892341 1.54595 0
M  V30 12064 C 1123.59 1.77859 2.88477 0
M  V30 12065 C 1122.76 3.07146 3.11416 0
M  V30 12066 C 1121.82 3.02949 4.30242 0
M  V30 12067 O 1120.85 3.76816 4.26613 0
M  V30 12068 N 1122.05 2.22039 5.36357 0
M  V30 12069 H 1124.82 2.69037 1.32057 0
M  V30 12070 H 1122.38 1.51159 0.579867 0
M  V30 12071 H 1124.37 1.72559 3.66067 0
M  V30 12072 H 1122.94 0.898367 2.99413 0
M  V30 12073 H 1122.16 3.25947 2.21703 0
M  V30 12074 H 1123.45 3.92637 3.23595 0
M  V30 12075 H 1122.84 1.6149 5.4216 0
M  V30 12076 H 1121.4 2.2258 6.12619 0
M  V30 12077 N 1124.83 -0.648732 1.43629 0
M  V30 12078 C 1125.78 -1.78269 1.49409 0
M  V30 12079 C 1126.78 -1.6537 0.367288 0
M  V30 12080 O 1127.98 -1.71663 0.541476 0
M  V30 12081 H 1124.36 -0.58824 0.468484 0
M  V30 12082 H 1126.33 -1.70514 2.44883 0
M  V30 12083 C 1125.08 -3.16545 1.43856 0
M  V30 12084 H 1124.4 -3.2711 2.29868 0
M  V30 12085 H 1125.84 -3.95833 1.51961 0
M  V30 12086 C 1124.3 -3.36535 0.156779 0
M  V30 12087 O 1124.83 -3.94052 -0.780124 0
M  V30 12088 N 1123.04 -2.90526 0.0655319 0
M  V30 12089 H 1122.58 -2.43904 0.828768 0
M  V30 12090 H 1122.54 -3.04277 -0.791379 0
M  V30 12091 N 1126.31 -1.30234 -0.887518 0
M  V30 12092 C 1127.72 -1.17048 -1.45453 0
M  V30 12093 C 1128.07 0.229793 -1.9485 0
M  V30 12094 O 1127.2 1.12628 -1.84781 0
M  V30 12095 C 1127.79 -2.11876 -2.64375 0
M  V30 12096 C 1126.35 -2.02676 -3.17174 0
M  V30 12097 C 1125.5 -2.02104 -1.89866 0
M  V30 12098 H 1128.45 -1.42541 -0.697694 0
M  V30 12099 H 1128.47 -1.69811 -3.40506 0
M  V30 12100 H 1127.98 -3.13781 -2.28392 0
M  V30 12101 H 1126.09 -1.03904 -3.57819 0
M  V30 12102 H 1126.2 -2.90939 -3.80646 0
M  V30 12103 H 1124.56 -1.4687 -2.0809 0
M  V30 12104 H 1125.35 -3.05735 -1.56145 0
M  V30 12105 N 1127.79 1.09952 -1.12909 0
M  V30 12106 C 1129.07 1.78547 -0.798767 0
M  V30 12107 C 1129.45 1.9878 0.710624 0
M  V30 12108 O 1128.8 1.58485 1.64604 0
M  V30 12109 C 1129.01 3.1121 -1.57953 0
M  V30 12110 C 1130.35 3.86006 -1.76874 0
M  V30 12111 O 1131.38 3.20946 -1.54506 0
M  V30 12112 O 1130.24 5.02791 -2.14158 0
M  V30 12113 H 1127.33 0.774084 -0.291072 0
M  V30 12114 H 1129.88 1.16557 -1.2334 0
M  V30 12115 H 1128.65 2.91935 -2.60557 0
M  V30 12116 H 1128.27 3.80922 -1.13948 0
M  V30 12117 N 1129.27 0.921757 1.27833 0
M  V30 12118 C 1130.2 0.433466 2.29441 0
M  V30 12119 C 1131.18 -0.503133 1.62489 0
M  V30 12120 O 1132.36 -0.409156 1.89841 0
M  V30 12121 C 1129.49 -0.320029 3.45822 0
M  V30 12122 C 1128.45 0.528178 4.24728 0
M  V30 12123 C 1127.77 -0.354132 5.33526 0
M  V30 12124 C 1129.07 1.78959 4.90684 0
M  V30 12125 H 1130.77 1.28263 2.70535 0
M  V30 12126 H 1128.31 0.618197 1.30055 0
M  V30 12127 H 1130.27 -0.672526 4.15999 0
M  V30 12128 H 1128.99 -1.20317 3.0363 0
M  V30 12129 H 1127.65 0.863302 3.5629 0
M  V30 12130 H 1127.3 -1.23605 4.87576 0
M  V30 12131 H 1127 0.209855 5.87225 0
M  V30 12132 H 1128.52 -0.702333 6.06547 0
M  V30 12133 H 1129.94 1.50552 5.53179 0
M  V30 12134 H 1128.33 2.29661 5.54415 0
M  V30 12135 H 1129.4 2.51265 4.14721 0
M  V30 12136 N 1130.75 -1.41857 0.686609 0
M  V30 12137 C 1131.99 -2.01666 0.214118 0
M  V30 12138 C 1132.33 -1.5422 -1.18025 0
M  V30 12139 O 1131.6 -0.749482 -1.7948 0
M  V30 12140 C 1131.88 -3.59147 0.261841 0
M  V30 12141 C 1131.74 -4.16742 1.69251 0
M  V30 12142 C 1133.06 -4.38427 -0.383378 0
M  V30 12143 H 1130.17 -0.732724 0.0792785 0
M  V30 12144 H 1132.82 -1.68724 0.873633 0
M  V30 12145 H 1130.97 -3.87342 -0.29971 0
M  V30 12146 H 1132.64 -3.99456 2.30722 0
M  V30 12147 H 1130.88 -3.72124 2.2295 0
M  V30 12148 H 1131.55 -5.25894 1.6775 0
M  V30 12149 H 1134.03 -4.15992 0.0947701 0
M  V30 12150 H 1132.9 -5.4797 -0.319401 0
M  V30 12151 H 1133.17 -4.172 -1.46276 0
M  V30 12152 N 1132.22 -0.430739 -1.51599 0
M  V30 12153 C 1133.47 0.139396 -2.01218 0
M  V30 12154 C 1133.79 1.44361 -1.31982 0
M  V30 12155 O 1134.99 2.0963 -1.72533 0
M  V30 12156 C 1133.45 0.298969 -3.58656 0
M  V30 12157 C 1133.06 -0.994424 -4.36824 0
M  V30 12158 C 1134.8 0.82323 -4.16441 0
M  V30 12159 C 1132.71 -0.800855 -5.85952 0
M  V30 12160 H 1131.64 0.0558698 -0.751927 0
M  V30 12161 H 1134.29 -0.559493 -1.74762 0
M  V30 12162 H 1132.67 1.06071 -3.8153 0
M  V30 12163 H 1133.84 -1.76398 -4.257 0
M  V30 12164 H 1132.16 -1.44672 -3.9046 0
M  V30 12165 H 1134.76 0.984434 -5.2556 0
M  V30 12166 H 1135.1 1.80388 -3.75188 0
M  V30 12167 H 1135.63 0.119982 -3.97619 0
M  V30 12168 H 1132.37 -1.75369 -6.31606 0
M  V30 12169 H 1131.89 -0.0709793 -5.99758 0
M  V30 12170 H 1133.57 -0.451459 -6.45423 0
M  V30 12171 N 1133.7 1.56767 -0.161869 0
M  V30 12172 C 1134.93 2.00673 0.491314 0
M  V30 12173 C 1135.34 1.04111 1.5798 0
M  V30 12174 O 1134.68 0.0324889 1.83671 0
M  V30 12175 C 1134.75 3.41011 1.13806 0
M  V30 12176 C 1134.41 4.56595 0.192384 0
M  V30 12177 C 1135.41 5.16591 -0.585671 0
M  V30 12178 C 1133.09 5.02218 0.0909594 0
M  V30 12179 C 1135.09 6.20631 -1.45245 0
M  V30 12180 C 1132.77 6.06109 -0.77941 0
M  V30 12181 C 1133.77 6.65187 -1.54971 0
M  V30 12182 O 1133.46 7.67065 -2.40555 0
M  V30 12183 H 1133.19 0.663174 0.131059 0
M  V30 12184 H 1135.74 2.03775 -0.257896 0
M  V30 12185 H 1133.97 3.34793 1.93521 0
M  V30 12186 H 1135.66 3.68931 1.69248 0
M  V30 12187 H 1136.43 4.82232 -0.517432 0
M  V30 12188 H 1132.31 4.55953 0.680292 0
M  V30 12189 H 1135.85 6.66671 -2.05415 0
M  V30 12190 H 1131.75 6.39894 -0.848887 0
M  V30 12191 H 1132.52 7.84348 -2.33966 0
M  V30 12192 N 1135.18 -0.111886 1.57202 0
M  V30 12193 C 1136.11 -1.16274 1.97517 0
M  V30 12194 C 1137.13 -1.37259 0.875425 0
M  V30 12195 O 1138.31 -1.36208 1.15367 0
M  V30 12196 C 1135.41 -2.52145 2.26442 0
M  V30 12197 C 1134.59 -2.51666 3.57747 0
M  V30 12198 C 1133.65 -3.69337 3.74802 0
M  V30 12199 O 1132.67 -3.52596 4.46839 0
M  V30 12200 N 1133.87 -4.88177 3.14108 0
M  V30 12201 H 1136.64 -0.819747 2.88271 0
M  V30 12202 H 1134.2 -0.301076 1.59076 0
M  V30 12203 H 1136.19 -3.29437 2.3506 0
M  V30 12204 H 1134.76 -2.78599 1.41779 0
M  V30 12205 H 1133.98 -1.60038 3.60252 0
M  V30 12206 H 1135.27 -2.48408 4.44039 0
M  V30 12207 H 1134.67 -5.04682 2.55564 0
M  V30 12208 H 1133.23 -5.6312 3.28237 0
M  V30 12209 N 1136.66 -1.52894 -0.382264 0
M  V30 12210 C 1137.89 -1.71902 -1.146 0
M  V30 12211 C 1138.3 -0.44017 -1.84009 0
M  V30 12212 O 1137.64 0.595616 -1.73776 0
M  V30 12213 C 1137.7 -2.81785 -2.23244 0
M  V30 12214 C 1137.37 -4.22684 -1.73745 0
M  V30 12215 C 1138.36 -5.05611 -1.21054 0
M  V30 12216 C 1136.05 -4.69031 -1.79763 0
M  V30 12217 C 1138.04 -6.32968 -0.750368 0
M  V30 12218 C 1135.73 -5.96371 -1.33358 0
M  V30 12219 C 1136.73 -6.7817 -0.810832 0
M  V30 12220 O 1136.41 -8.03122 -0.353577 0
M  V30 12221 H 1136.15 -0.578767 -0.349292 0
M  V30 12222 H 1138.7 -2.00359 -0.452246 0
M  V30 12223 H 1136.93 -2.48764 -2.96063 0
M  V30 12224 H 1138.62 -2.89131 -2.84883 0
M  V30 12225 H 1139.39 -4.70984 -1.15755 0
M  V30 12226 H 1135.26 -4.05447 -2.19394 0
M  V30 12227 H 1138.81 -6.96763 -0.341666 0
M  V30 12228 H 1134.71 -6.30501 -1.38344 0
M  V30 12229 H 1135.47 -8.17124 -0.474439 0
M  V30 12230 N 1138.14 0.641106 -1.43971 0
M  V30 12231 C 1139.07 1.76599 -1.44527 0
M  V30 12232 C 1140.05 1.59709 -0.305257 0
M  V30 12233 O 1141.23 1.81728 -0.50071 0
M  V30 12234 C 1138.36 3.14052 -1.26843 0
M  V30 12235 C 1137.41 3.49615 -2.44278 0
M  V30 12236 S 1138.24 3.4822 -4.06821 0
M  V30 12237 C 1139.39 4.8831 -3.91541 0
M  V30 12238 H 1139.63 1.75858 -2.3971 0
M  V30 12239 H 1137.16 0.814834 -1.31148 0
M  V30 12240 H 1139.12 3.93376 -1.17327 0
M  V30 12241 H 1137.78 3.12342 -0.331872 0
M  V30 12242 H 1136.97 4.49611 -2.2774 0
M  V30 12243 H 1136.57 2.77732 -2.50482 0
M  V30 12244 H 1138.87 5.77282 -3.54615 0
M  V30 12245 H 1139.81 5.099 -4.91333 0
M  V30 12246 H 1140.22 4.62414 -3.2378 0
M  V30 12247 N 1139.62 1.30703 0.880598 0
M  V30 12248 C 1140.89 1.1043 1.61445 0
M  V30 12249 C 1141.27 -0.344837 2.08264 0
M  V30 12250 O 1140.62 -1.33711 1.85293 0
M  V30 12251 C 1140.83 2.10908 2.78063 0
M  V30 12252 C 1142.18 2.42861 3.48287 0
M  V30 12253 O 1143.2 2.09252 2.88257 0
M  V30 12254 O 1142.06 3.00369 4.56553 0
M  V30 12255 H 1139.16 0.424419 0.709787 0
M  V30 12256 H 1141.7 1.42144 0.926991 0
M  V30 12257 H 1140.47 3.08431 2.40803 0
M  V30 12258 H 1140.1 1.80036 3.54503 0
M  V30 12259 N 1141.09 -1.09351 1.1349 0
M  V30 12260 C 1142.37 -1.78121 0.808225 0
M  V30 12261 C 1142.75 -1.99154 -0.700072 0
M  V30 12262 O 1142.1 -1.59356 -1.63762 0
M  V30 12263 C 1142.31 -3.10368 1.59601 0
M  V30 12264 C 1143.66 -3.85063 1.78919 0
M  V30 12265 O 1144.68 -3.20122 1.56206 0
M  V30 12266 O 1143.54 -5.01648 2.16821 0
M  V30 12267 H 1140.63 -0.77253 0.295173 0
M  V30 12268 H 1143.18 -1.15901 1.23956 0
M  V30 12269 H 1141.95 -2.90549 2.62101 0
M  V30 12270 H 1141.57 -3.80312 1.15967 0
M  V30 12271 N 1142.57 -0.928524 -1.27343 0
M  V30 12272 C 1143.5 -0.445627 -2.29208 0
M  V30 12273 C 1144.48 0.494508 -1.62753 0
M  V30 12274 O 1145.67 0.399082 -1.90055 0
M  V30 12275 C 1142.8 0.301684 -3.45987 0
M  V30 12276 C 1141.75 -0.550695 -4.24442 0
M  V30 12277 C 1141.08 0.325833 -5.33706 0
M  V30 12278 C 1142.38 -1.81559 -4.89728 0
M  V30 12279 H 1144.07 -1.29696 -2.69851 0
M  V30 12280 H 1141.62 -0.625085 -1.29725 0
M  V30 12281 H 1143.57 0.650455 -4.1635 0
M  V30 12282 H 1142.29 1.18705 -3.04264 0
M  V30 12283 H 1140.95 -0.882185 -3.55827 0
M  V30 12284 H 1140.6 1.21018 -4.88225 0
M  V30 12285 H 1140.3 -0.240994 -5.87106 0
M  V30 12286 H 1141.83 0.670156 -6.06911 0
M  V30 12287 H 1143.24 -1.53483 -5.52373 0
M  V30 12288 H 1141.64 -2.32598 -5.53189 0
M  V30 12289 H 1142.71 -2.53461 -4.13383 0
M  V30 12290 N 1144.05 1.41491 -0.694123 0
M  V30 12291 C 1145.28 2.0528 -0.233128 0
M  V30 12292 C 1145.69 1.52329 1.12217 0
M  V30 12293 O 1145.03 0.66579 1.7121 0
M  V30 12294 C 1145.09 3.59326 -0.111718 0
M  V30 12295 C 1144.76 4.35065 -1.39882 0
M  V30 12296 C 1145.75 4.64446 -2.33637 0
M  V30 12297 C 1143.44 4.74364 -1.65179 0
M  V30 12298 C 1145.43 5.32083 -3.50951 0
M  V30 12299 C 1143.12 5.41737 -2.82779 0
M  V30 12300 C 1144.12 5.70524 -3.75488 0
M  V30 12301 O 1143.81 6.36511 -4.91029 0
M  V30 12302 H 1143.54 0.667571 -0.106418 0
M  V30 12303 H 1146.09 1.82276 -0.94682 0
M  V30 12304 H 1144.32 3.81065 0.65773 0
M  V30 12305 H 1146.01 4.047 0.311906 0
M  V30 12306 H 1146.78 4.34568 -2.1535 0
M  V30 12307 H 1142.66 4.5134 -0.93881 0
M  V30 12308 H 1146.2 5.54468 -4.23333 0
M  V30 12309 H 1142.1 5.71033 -3.00984 0
M  V30 12310 H 1142.86 6.55006 -4.90825 0
M  V30 12311 N 1145.53 0.438773 1.51369 0
M  V30 12312 C 1146.77 -0.127401 2.02399 0
M  V30 12313 C 1147.11 -1.42235 1.32223 0
M  V30 12314 O 1146.38 -1.89513 0.437607 0
M  V30 12315 C 1146.66 -0.344673 3.58447 0
M  V30 12316 C 1146.52 0.969027 4.39238 0
M  V30 12317 C 1147.84 -1.11381 4.25773 0
M  V30 12318 H 1144.96 -0.0448281 0.735635 0
M  V30 12319 H 1147.6 0.57805 1.80993 0
M  V30 12320 H 1145.75 -0.945582 3.76817 0
M  V30 12321 H 1147.42 1.60403 4.32514 0
M  V30 12322 H 1145.66 1.57329 4.04265 0
M  V30 12323 H 1146.33 0.771029 5.46589 0
M  V30 12324 H 1148.81 -0.604785 4.11681 0
M  V30 12325 H 1147.69 -1.23459 5.34835 0
M  V30 12326 H 1147.95 -2.14225 3.8673 0
M  V30 12327 N 1147.01 -1.56678 0.170181 0
M  V30 12328 C 1148.25 -1.9646 -0.474125 0
M  V30 12329 C 1148.57 -1.05719 -1.63855 0
M  V30 12330 O 1147.84 -0.123316 -1.95511 0
M  V30 12331 H 1146.42 -0.725446 -0.178149 0
M  V30 12332 H 1149.09 -1.93276 0.251099 0
M  V30 12333 H 1148.18 -3.00726 -0.834894 0
M  V30 12334 N 1148.48 0.103547 -1.57259 0
M  V30 12335 C 1149.71 0.82624 -1.90232 0
M  V30 12336 C 1150.13 1.71902 -0.763641 0
M  V30 12337 O 1149.49 1.79043 0.285181 0
M  V30 12338 C 1149.54 1.62265 -3.22029 0
M  V30 12339 O 1148.64 2.73091 -3.09023 0
M  V30 12340 H 1147.98 0.227528 -0.6238 0
M  V30 12341 H 1150.51 0.081307 -2.04438 0
M  V30 12342 H 1150.52 2.00865 -3.5513 0
M  V30 12343 H 1149.2 0.967383 -4.04493 0
M  V30 12344 H 1147.78 2.3758 -2.8742 0
M  V30 12345 N 1149.96 1.53094 0.37415 0
M  V30 12346 C 1151.24 1.59456 1.13283 0
M  V30 12347 C 1151.62 0.396821 2.07337 0
M  V30 12348 O 1150.97 -0.613659 2.20106 0
M  V30 12349 C 1151.18 2.94069 1.87948 0
M  V30 12350 C 1152.52 3.4834 2.42785 0
M  V30 12351 O 1153.55 2.96042 1.98085 0
M  V30 12352 O 1152.41 4.39747 3.24477 0
M  V30 12353 H 1149.5 0.643731 0.519171 0
M  V30 12354 H 1152.05 1.65434 0.378105 0
M  V30 12355 H 1150.82 3.72685 1.19255 0
M  V30 12356 H 1150.44 2.91544 2.70348 0
M  V30 12357 N 1151.44 -0.633461 1.44309 0
M  V30 12358 C 1152.37 -1.75676 1.53819 0
M  V30 12359 C 1153.35 -1.65537 0.391365 0
M  V30 12360 O 1154.54 -1.84332 0.611181 0
M  V30 12361 C 1151.67 -3.14197 1.47979 0
M  V30 12362 C 1150.62 -3.39122 2.61113 0
M  V30 12363 C 1149.95 -4.77648 2.40325 0
M  V30 12364 C 1151.25 -3.31914 4.03274 0
M  V30 12365 H 1152.94 -1.67974 2.47841 0
M  V30 12366 H 1150.49 -0.8067 1.19283 0
M  V30 12367 H 1152.44 -3.92553 1.53233 0
M  V30 12368 H 1151.16 -3.22677 0.504718 0
M  V30 12369 H 1149.82 -2.63145 2.55245 0
M  V30 12370 H 1149.47 -4.82829 1.41016 0
M  V30 12371 H 1149.17 -4.95284 3.16177 0
M  V30 12372 H 1150.69 -5.58237 2.47394 0
M  V30 12373 H 1152.11 -4.00178 4.10524 0
M  V30 12374 H 1150.5 -3.61085 4.7931 0
M  V30 12375 H 1151.57 -2.29761 4.2701 0
M  V30 12376 N 1152.92 -1.31168 -0.873655 0
M  V30 12377 C 1153.83 -1.20458 -2.01313 0
M  V30 12378 C 1154.84 -0.122074 -1.73571 0
M  V30 12379 O 1156.02 -0.339176 -1.98523 0
M  V30 12380 C 1153.09 -0.90876 -3.34578 0
M  V30 12381 C 1152.15 -2.07779 -3.75668 0
M  V30 12382 C 1151.38 -1.79599 -5.02573 0
M  V30 12383 O 1151.6 -0.729338 -5.65718 0
M  V30 12384 O 1150.54 -2.65169 -5.40341 0
M  V30 12385 H 1154.36 -2.16207 -2.13279 0
M  V30 12386 H 1151.95 -1.10871 -1.00139 0
M  V30 12387 H 1153.83 -0.759469 -4.145 0
M  V30 12388 H 1152.5 0.0187249 -3.23695 0
M  V30 12389 H 1151.41 -2.28247 -2.96402 0
M  V30 12390 H 1152.74 -2.9874 -3.91172 0
M  V30 12391 N 1154.4 1.08748 -1.14068 0
M  V30 12392 C 1155.65 1.8044 -0.901352 0
M  V30 12393 C 1155.96 1.86995 0.573791 0
M  V30 12394 O 1157.16 2.55065 0.930275 0
M  V30 12395 C 1155.62 3.24185 -1.56308 0
M  V30 12396 C 1155.23 3.25875 -3.07424 0
M  V30 12397 C 1156.97 4.00584 -1.40473 0
M  V30 12398 C 1154.88 4.64186 -3.66449 0
M  V30 12399 H 1153.81 0.676201 -0.333569 0
M  V30 12400 H 1156.46 1.22169 -1.3692 0
M  V30 12401 H 1154.84 3.82561 -1.0229 0
M  V30 12402 H 1156.02 2.77225 -3.6808 0
M  V30 12403 H 1154.33 2.62969 -3.22856 0
M  V30 12404 H 1156.93 5.02781 -1.81976 0
M  V30 12405 H 1157.27 4.14823 -0.350408 0
M  V30 12406 H 1157.8 3.48668 -1.91508 0
M  V30 12407 H 1154.54 4.5515 -4.71719 0
M  V30 12408 H 1154.06 5.13132 -3.10574 0
M  V30 12409 H 1155.74 5.33161 -3.66536 0
M  V30 12410 N 1155.87 0.935264 1.26849 0
M  V30 12411 C 1157.12 0.578545 1.93642 0
M  V30 12412 C 1157.44 -0.884296 1.73796 0
M  V30 12413 O 1156.71 -1.62768 1.09011 0
M  V30 12414 H 1155.29 0.210976 0.716588 0
M  V30 12415 H 1157.96 1.1893 1.54407 0
M  V30 12416 H 1157.05 0.791268 3.01903 0
M  V30 12417 N 1157.35 -1.41121 0.701616 0
M  V30 12418 C 1158.28 -2.292 0.000880842 0
M  V30 12419 C 1159.3 -1.45102 -0.738192 0
M  V30 12420 O 1160.49 -1.68541 -0.587891 0
M  V30 12421 C 1157.59 -3.23094 -1.02292 0
M  V30 12422 C 1156.76 -4.35979 -0.352231 0
M  V30 12423 C 1155.82 -5.10408 -1.27947 0
M  V30 12424 O 1154.84 -5.63974 -0.769561 0
M  V30 12425 N 1156.05 -5.18442 -2.61147 0
M  V30 12426 H 1158.81 -2.8998 0.757094 0
M  V30 12427 H 1156.37 -1.52339 0.548126 0
M  V30 12428 H 1158.36 -3.69755 -1.64509 0
M  V30 12429 H 1156.93 -2.6358 -1.68061 0
M  V30 12430 H 1156.15 -3.91624 0.44992 0
M  V30 12431 H 1157.44 -5.08673 0.113882 0
M  V30 12432 H 1156.84 -4.76381 -3.05087 0
M  V30 12433 H 1155.4 -5.68659 -3.18544 0
M  V30 12434 N 1158.83 -0.446794 -1.51134 0
M  V30 12435 C 1159.78 0.378002 -2.24845 0
M  V30 12436 C 1160.76 0.982126 -1.27448 0
M  V30 12437 O 1161.96 0.8987 -1.52487 0
M  V30 12438 C 1159.09 1.4733 -3.10079 0
M  V30 12439 C 1158.17 0.878102 -4.1491 0
M  V30 12440 N 1158.56 0.0129452 -5.05798 0
M  V30 12441 C 1156.86 1.14468 -4.3106 0
M  V30 12442 C 1157.56 -0.322333 -5.80806 0
M  V30 12443 N 1156.54 0.296438 -5.42791 0
M  V30 12444 H 1160.34 -0.28885 -2.92477 0
M  V30 12445 H 1157.85 -0.259439 -1.60314 0
M  V30 12446 H 1159.85 2.07713 -3.6147 0
M  V30 12447 H 1158.51 2.14239 -2.43992 0
M  V30 12448 H 1159.52 -0.354177 -5.16688 0
M  V30 12449 H 1156.2 1.81056 -3.76198 0
M  V30 12450 H 1157.59 -1.02693 -6.64006 0
M  V30 12451 N 1160.31 1.56586 -0.178487 0
M  V30 12452 C 1161.72 1.58609 0.17759 0
M  V30 12453 C 1161.92 1.19411 1.62306 0
M  V30 12454 O 1160.98 0.90906 2.35568 0
M  V30 12455 C 1162.29 3.005 -0.109722 0
M  V30 12456 C 1163.84 3.12962 -0.0485036 0
M  V30 12457 C 1164.32 4.56957 -0.308901 0
M  V30 12458 N 1165.81 4.62487 -0.25693 0
M  V30 12459 C 1166.54 5.71767 -0.432488 0
M  V30 12460 N 1166.04 6.89577 -0.667494 0
M  V30 12461 N 1167.83 5.60895 -0.367895 0
M  V30 12462 H 1159.98 1.80351 -1.12193 0
M  V30 12463 H 1162.25 0.83623 -0.446569 0
M  V30 12464 H 1161.95 3.3368 -1.11133 0
M  V30 12465 H 1161.83 3.72472 0.595373 0
M  V30 12466 H 1164.21 2.79604 0.943687 0
M  V30 12467 H 1164.29 2.43411 -0.78642 0
M  V30 12468 H 1163.94 4.91025 -1.29833 0
M  V30 12469 H 1163.87 5.24676 0.449711 0
M  V30 12470 H 1166.36 3.77813 -0.0812308 0
M  V30 12471 H 1166.67 7.68744 -0.79071 0
M  V30 12472 H 1165.02 6.91423 -0.704193 0
M  V30 12473 H 1168.21 4.67735 -0.184837 0
M  V30 12474 H 1168.38 6.46005 -0.508138 0
M  V30 12475 N 1161.79 -0.095206 1.57312 0
M  V30 12476 C 1163.01 -0.81227 1.90289 0
M  V30 12477 C 1163.43 -1.72287 0.772178 0
M  V30 12478 O 1162.79 -1.80698 -0.255841 0
M  V30 12479 C 1162.84 -1.62572 3.22882 0
M  V30 12480 O 1162.56 -0.75175 4.31602 0
M  V30 12481 C 1164.06 -2.44585 3.6972 0
M  V30 12482 H 1161.28 -0.232256 0.629522 0
M  V30 12483 H 1163.82 -0.0724733 2.04372 0
M  V30 12484 H 1161.98 -2.31803 3.10397 0
M  V30 12485 H 1162.39 -1.31514 5.07744 0
M  V30 12486 H 1163.87 -2.97155 4.65191 0
M  V30 12487 H 1164.34 -3.23044 2.97555 0
M  V30 12488 H 1164.95 -1.80554 3.85072 0
M  V30 12489 N 1163.26 -1.53291 -0.366026 0
M  V30 12490 C 1164.21 -1.79697 -1.44836 0
M  V30 12491 C 1165.18 -0.641321 -1.5322 0
M  V30 12492 O 1166.37 -0.883453 -1.69115 0
M  V30 12493 C 1163.51 -1.99223 -2.81788 0
M  V30 12494 C 1162.62 -3.26938 -2.82375 0
M  V30 12495 C 1161.75 -3.36654 -4.10898 0
M  V30 12496 C 1160.79 -4.58404 -4.05626 0
M  V30 12497 N 1159.93 -4.65275 -5.25798 0
M  V30 12498 H 1164.77 -2.72053 -1.21619 0
M  V30 12499 H 1162.31 -1.34768 -0.589577 0
M  V30 12500 H 1164.27 -2.0853 -3.61346 0
M  V30 12501 H 1162.9 -1.10204 -3.03406 0
M  V30 12502 H 1161.95 -3.26587 -1.95052 0
M  V30 12503 H 1163.26 -4.16573 -2.74351 0
M  V30 12504 H 1162.41 -3.4527 -4.98872 0
M  V30 12505 H 1161.15 -2.45035 -4.21674 0
M  V30 12506 H 1160.16 -4.49888 -3.16039 0
M  V30 12507 H 1161.38 -5.51364 -3.96453 0
M  V30 12508 H 1159.33 -3.76557 -5.3716 0
M  V30 12509 H 1159.25 -5.48814 -5.19942 0
M  V30 12510 H 1160.51 -4.78175 -6.15605 0
M  V30 12511 N 1164.74 0.6258 -1.44643 0
M  V30 12512 C 1165.99 1.38125 -1.46984 0
M  V30 12513 C 1166.3 1.95299 -0.108429 0
M  V30 12514 O 1167.51 2.71498 -0.00940005 0
M  V30 12515 C 1165.97 2.50108 -2.58793 0
M  V30 12516 C 1165.57 1.99424 -4.01166 0
M  V30 12517 C 1167.32 3.27269 -2.70361 0
M  V30 12518 C 1165.23 3.08781 -5.04389 0
M  V30 12519 H 1164.16 0.519083 -0.546872 0
M  V30 12520 H 1166.81 0.67268 -1.70726 0
M  V30 12521 H 1165.19 3.23565 -2.28302 0
M  V30 12522 H 1166.36 1.32797 -4.4125 0
M  V30 12523 H 1164.68 1.35063 -3.93887 0
M  V30 12524 H 1167.27 4.08802 -3.44652 0
M  V30 12525 H 1167.62 3.77097 -1.76362 0
M  V30 12526 H 1168.15 2.60905 -3.00289 0
M  V30 12527 H 1164.89 2.63891 -6.00035 0
M  V30 12528 H 1164.41 3.74033 -4.68892 0
M  V30 12529 H 1166.09 3.73469 -5.28328 0
M  V30 12530 N 1166.22 1.31629 0.866686 0
M  V30 12531 C 1167.13 1.21524 2.00671 0
M  V30 12532 C 1168.15 0.131277 1.73504 0
M  V30 12533 O 1169.32 0.349699 1.98341 0
M  V30 12534 C 1166.39 0.926491 3.34091 0
M  V30 12535 C 1165.45 2.09769 3.7456 0
M  V30 12536 C 1164.68 1.82262 5.01614 0
M  V30 12537 O 1164.9 0.759329 5.65323 0
M  V30 12538 O 1163.84 2.68031 5.38928 0
M  V30 12539 H 1167.66 2.17335 2.1213 0
M  V30 12540 H 1165.25 1.11401 0.995499 0
M  V30 12541 H 1167.13 0.78144 4.14091 0
M  V30 12542 H 1165.81 -0.00155829 3.237 0
M  V30 12543 H 1164.71 2.29816 2.95187 0
M  V30 12544 H 1166.05 3.0081 3.89582 0
M  V30 12545 N 1167.7 -1.08142 1.14644 0
M  V30 12546 C 1168.61 -2.18675 0.849607 0
M  V30 12547 C 1169.63 -1.73158 -0.170983 0
M  V30 12548 O 1170.8 -2.014 0.0011579 0
M  V30 12549 C 1167.87 -3.45084 0.334305 0
M  V30 12550 C 1166.93 -4.05213 1.41779 0
M  V30 12551 C 1166.16 -5.25588 0.926981 0
M  V30 12552 O 1166.38 -5.69934 -0.230522 0
M  V30 12553 O 1165.32 -5.77183 1.70715 0
M  V30 12554 H 1169.14 -2.46542 1.77343 0
M  V30 12555 H 1166.73 -1.17328 0.924911 0
M  V30 12556 H 1168.61 -4.21367 0.0529893 0
M  V30 12557 H 1167.29 -3.18788 -0.561755 0
M  V30 12558 H 1166.19 -3.30507 1.7526 0
M  V30 12559 H 1167.53 -4.35764 2.28847 0
M  V30 12560 N 1169.18 -0.941978 -1.26351 0
M  V30 12561 C 1170.11 -0.469913 -2.28723 0
M  V30 12562 C 1171.09 0.477218 -1.63269 0
M  V30 12563 O 1172.27 0.378902 -1.90468 0
M  V30 12564 C 1169.4 0.264971 -3.46288 0
M  V30 12565 C 1168.36 -0.595682 -4.23834 0
M  V30 12566 C 1167.68 0.269208 -5.34022 0
M  V30 12567 C 1168.98 -1.86743 -4.87775 0
M  V30 12568 H 1170.68 -1.32551 -2.6846 0
M  V30 12569 H 1168.22 -0.638809 -1.29055 0
M  V30 12570 H 1170.18 0.606259 -4.17016 0
M  V30 12571 H 1168.9 1.15471 -3.05506 0
M  V30 12572 H 1167.56 -0.919875 -3.54872 0
M  V30 12573 H 1167.21 1.15832 -4.89481 0
M  V30 12574 H 1166.91 -0.30325 -5.86817 0
M  V30 12575 H 1168.43 0.605748 -6.07588 0
M  V30 12576 H 1169.85 -1.59333 -5.50714 0
M  V30 12577 H 1168.24 -2.38452 -5.50691 0
M  V30 12578 H 1169.31 -2.57831 -4.10671 0
M  V30 12579 N 1170.66 1.40747 -0.709091 0
M  V30 12580 C 1172.07 1.54961 -0.381989 0
M  V30 12581 C 1172.27 1.68181 1.10985 0
M  V30 12582 O 1171.33 1.66776 1.89584 0
M  V30 12583 C 1172.64 2.78156 -1.14236 0
M  V30 12584 C 1174.19 2.91967 -1.12803 0
M  V30 12585 C 1174.66 4.18066 -1.87042 0
M  V30 12586 N 1176.15 4.25052 -1.84078 0
M  V30 12587 C 1176.89 5.21514 -2.38349 0
M  V30 12588 N 1176.39 6.23924 -3.01149 0
M  V30 12589 N 1178.18 5.13548 -2.28528 0
M  V30 12590 H 1170.33 1.30412 -1.6765 0
M  V30 12591 H 1172.59 0.630147 -0.70825 0
M  V30 12592 H 1172.3 2.74643 -2.19691 0
M  V30 12593 H 1172.17 3.70074 -0.729731 0
M  V30 12594 H 1174.56 2.94987 -0.0816956 0
M  V30 12595 H 1174.64 2.01185 -1.57982 0
M  V30 12596 H 1174.28 4.15808 -2.91662 0
M  V30 12597 H 1174.21 5.07845 -1.39287 0
M  V30 12598 H 1176.71 3.51682 -1.38305 0
M  V30 12599 H 1177.02 6.93942 -3.40094 0
M  V30 12600 H 1175.36 6.24387 -3.05231 0
M  V30 12601 H 1178.55 4.3247 -1.79129 0
M  V30 12602 H 1178.73 5.88553 -2.71126 0
M  V30 12603 N 1172.13 0.454803 1.50895 0
M  V30 12604 C 1173.07 -0.383826 2.25963 0
M  V30 12605 C 1174.08 -0.971263 1.30653 0
M  V30 12606 O 1175.27 -0.862434 1.56283 0
M  V30 12607 C 1172.37 -1.55069 3.01342 0
M  V30 12608 C 1171.54 -1.07899 4.23883 0
M  V30 12609 C 1170.6 -2.118 4.81692 0
M  V30 12610 O 1169.63 -1.70523 5.43057 0
M  V30 12611 N 1170.83 -3.44459 4.67256 0
M  V30 12612 H 1173.59 0.259646 2.98573 0
M  V30 12613 H 1171.15 0.284661 1.59378 0
M  V30 12614 H 1173.15 -2.24236 3.36898 0
M  V30 12615 H 1171.72 -2.09917 2.31633 0
M  V30 12616 H 1170.94 -0.213773 3.9362 0
M  V30 12617 H 1172.22 -0.741501 5.03368 0
M  V30 12618 H 1171.62 -3.80716 4.18416 0
M  V30 12619 H 1170.18 -4.0947 5.07127 0
M  V30 12620 N 1173.61 -1.56489 0.186789 0
M  V30 12621 C 1174.56 -2.15311 -0.750024 0
M  V30 12622 C 1175.55 -1.09156 -1.18211 0
M  V30 12623 O 1176.74 -1.3524 -1.14189 0
M  V30 12624 C 1173.87 -2.80952 -1.97284 0
M  V30 12625 C 1172.95 -3.94286 -1.56204 0
M  V30 12626 N 1173.34 -4.98406 -0.861705 0
M  V30 12627 C 1171.64 -4.05733 -1.85194 0
M  V30 12628 C 1172.34 -5.77977 -0.657078 0
M  V30 12629 N 1171.32 -5.30116 -1.20326 0
M  V30 12630 H 1175.12 -2.93176 -0.206148 0
M  V30 12631 H 1172.63 -1.62395 -0.0133163 0
M  V30 12632 H 1174.63 -3.21479 -2.65437 0
M  V30 12633 H 1173.29 -2.04572 -2.52152 0
M  V30 12634 H 1174.3 -5.15302 -0.518067 0
M  V30 12635 H 1170.98 -3.40472 -2.4163 0
M  V30 12636 H 1172.37 -6.71822 -0.102123 0
M  V30 12637 N 1175.09 0.086862 -1.5736 0
M  V30 12638 C 1176.02 1.10538 -2.05678 0
M  V30 12639 C 1177 1.41281 -0.947293 0
M  V30 12640 O 1178.19 1.51169 -1.21908 0
M  V30 12641 C 1175.32 2.42302 -2.48812 0
M  V30 12642 C 1174.27 2.25948 -3.63499 0
M  V30 12643 C 1173.6 3.62961 -3.92637 0
M  V30 12644 C 1174.9 1.69319 -4.94094 0
M  V30 12645 H 1176.59 0.703371 -2.91021 0
M  V30 12646 H 1174.14 0.336895 -1.40004 0
M  V30 12647 H 1176.09 3.13833 -2.81224 0
M  V30 12648 H 1174.81 2.84454 -1.60479 0
M  V30 12649 H 1173.47 1.5686 -3.31347 0
M  V30 12650 H 1173.12 4.02656 -3.01459 0
M  V30 12651 H 1172.82 3.52862 -4.69853 0
M  V30 12652 H 1174.34 4.35946 -4.27531 0
M  V30 12653 H 1175.76 2.30699 -5.24834 0
M  V30 12654 H 1174.15 1.69957 -5.7553 0
M  V30 12655 H 1175.22 0.653318 -4.80479 0
M  V30 12656 N 1176.57 1.53483 0.357892 0
M  V30 12657 C 1177.5 1.83444 1.44466 0
M  V30 12658 C 1178.48 0.688486 1.55544 0
M  V30 12659 O 1179.66 0.93906 1.69986 0
M  V30 12660 C 1176.79 2.03122 2.81707 0
M  V30 12661 C 1175.75 3.1891 2.85448 0
M  V30 12662 C 1175.07 3.23895 4.25436 0
M  V30 12663 C 1176.37 4.57334 2.52275 0
M  V30 12664 H 1178.07 2.74456 1.19642 0
M  V30 12665 H 1175.61 1.3206 0.574112 0
M  V30 12666 H 1177.57 2.22666 3.57768 0
M  V30 12667 H 1176.29 1.08827 3.07935 0
M  V30 12668 H 1174.95 2.99199 2.11838 0
M  V30 12669 H 1174.6 2.27223 4.48753 0
M  V30 12670 H 1174.3 4.01694 4.28854 0
M  V30 12671 H 1175.82 3.45632 5.0336 0
M  V30 12672 H 1177.24 4.76988 3.1805 0
M  V30 12673 H 1175.63 5.37431 2.66998 0
M  V30 12674 H 1176.7 4.61921 1.47501 0
M  V30 12675 N 1178.05 -0.61812 1.44973 0
M  V30 12676 C 1179.46 -0.937734 1.29146 0
M  V30 12677 C 1179.66 -2.00104 0.236749 0
M  V30 12678 O 1178.72 -2.49731 -0.372923 0
M  V30 12679 C 1180.03 -1.38865 2.66715 0
M  V30 12680 C 1181.58 -1.50343 2.74529 0
M  V30 12681 C 1182.05 -1.98814 4.12598 0
M  V30 12682 N 1183.54 -2.06064 4.14839 0
M  V30 12683 C 1184.28 -2.44768 5.18533 0
M  V30 12684 N 1183.78 -2.82516 6.32579 0
M  V30 12685 N 1185.57 -2.45016 5.05889 0
M  V30 12686 H 1177.72 0.084872 2.1223 0
M  V30 12687 H 1179.98 -0.0246744 0.947679 0
M  V30 12688 H 1179.69 -0.681583 3.45032 0
M  V30 12689 H 1179.56 -2.3572 2.94475 0
M  V30 12690 H 1181.95 -2.20144 1.96522 0
M  V30 12691 H 1182.03 -0.518297 2.50494 0
M  V30 12692 H 1181.67 -1.29604 4.91086 0
M  V30 12693 H 1181.6 -2.98223 4.34017 0
M  V30 12694 H 1184.1 -1.79525 3.32535 0
M  V30 12695 H 1184.41 -3.109 7.07504 0
M  V30 12696 H 1182.75 -2.80237 6.35997 0
M  V30 12697 H 1185.94 -2.14925 4.15842 0
M  V30 12698 H 1186.12 -2.74854 5.86821 0
M  V30 12699 N 1179.52 -1.32087 -0.859693 0
M  V30 12700 C 1180.77 -1.23551 -1.61575 0
M  V30 12701 C 1181.12 0.20199 -1.91337 0
M  V30 12702 O 1180.42 1.13834 -1.54118 0
M  V30 12703 C 1180.61 -2.0234 -2.94607 0
M  V30 12704 C 1180.44 -3.53606 -2.77836 0
M  V30 12705 C 1179.21 -4.22948 -2.76483 0
M  V30 12706 C 1181.41 -4.48356 -2.51955 0
M  V30 12707 N 1179.39 -5.60301 -2.5087 0
M  V30 12708 C 1180.76 -5.7345 -2.35702 0
M  V30 12709 C 1182.82 -4.37669 -2.37383 0
M  V30 12710 C 1181.52 -6.89064 -2.06357 0
M  V30 12711 C 1183.55 -5.53077 -2.09427 0
M  V30 12712 C 1182.91 -6.77167 -1.93971 0
M  V30 12713 H 1179.01 -0.507252 -0.595164 0
M  V30 12714 H 1181.59 -1.66395 -1.01098 0
M  V30 12715 H 1179.76 -1.6185 -3.53071 0
M  V30 12716 H 1181.49 -1.8574 -3.59559 0
M  V30 12717 H 1178.25 -3.75017 -2.89239 0
M  V30 12718 H 1178.67 -6.32649 -2.41006 0
M  V30 12719 H 1183.31 -3.42386 -2.48056 0
M  V30 12720 H 1181.03 -7.84363 -1.94421 0
M  V30 12721 H 1184.62 -5.46731 -1.98937 0
M  V30 12722 H 1183.5 -7.64959 -1.72646 0
M  V30 12723 N 1181 1.07532 -1.15215 0
M  V30 12724 C 1182.25 1.79737 -0.924062 0
M  V30 12725 C 1182.57 1.87072 0.550356 0
M  V30 12726 O 1181.84 1.37029 1.4 0
M  V30 12727 H 1180.42 0.665704 -0.338891 0
M  V30 12728 H 1183.08 1.29961 -1.45245 0
M  V30 12729 H 1182.18 2.82256 -1.33184 0
M  V30 12730 N 1182.48 0.948665 1.2585 0
M  V30 12731 C 1183.73 0.600236 1.934 0
M  V30 12732 C 1184.06 -0.86185 1.74363 0
M  V30 12733 O 1183.31 -1.63294 1.07858 0
M  V30 12734 C 1183.61 0.89784 3.45939 0
M  V30 12735 C 1183.28 2.345 3.85124 0
M  V30 12736 C 1181.94 2.74058 3.95532 0
M  V30 12737 C 1184.29 3.2851 4.04636 0
M  V30 12738 C 1181.62 4.06707 4.22855 0
M  V30 12739 C 1183.97 4.60764 4.3345 0
M  V30 12740 C 1182.63 5.00127 4.42074 0
M  V30 12741 H 1181.9 0.219642 0.707699 0
M  V30 12742 H 1184.55 1.19658 1.49513 0
M  V30 12743 H 1182.86 0.219037 3.91187 0
M  V30 12744 H 1184.55 0.606916 3.96381 0
M  V30 12745 H 1181.14 2.02819 3.77574 0
M  V30 12746 H 1185.33 2.99141 3.96015 0
M  V30 12747 H 1180.58 4.36856 4.27746 0
M  V30 12748 H 1184.76 5.33594 4.47493 0
M  V30 12749 H 1182.38 6.02939 4.63 0
M  V30 12750 N 1183.96 -1.40369 0.716545 0
M  V30 12751 C 1185.19 -2.05181 0.266143 0
M  V30 12752 C 1185.6 -1.53988 -1.09239 0
M  V30 12753 O 1184.96 -0.696859 -1.68672 0
M  V30 12754 C 1185.01 -3.60713 0.238384 0
M  V30 12755 O 1184.73 -4.10018 1.54328 0
M  V30 12756 C 1186.23 -4.42701 -0.230453 0
M  V30 12757 H 1183.45 -0.66028 0.119463 0
M  V30 12758 H 1186 -1.7976 0.97502 0
M  V30 12759 H 1184.15 -3.85101 -0.421466 0
M  V30 12760 H 1184.56 -5.0422 1.4444 0
M  V30 12761 H 1186.04 -5.51642 -0.198728 0
M  V30 12762 H 1186.52 -4.20354 -1.27276 0
M  V30 12763 H 1187.12 -4.23423 0.399155 0
M  V30 12764 N 1185.44 -0.462799 -1.50652 0
M  V30 12765 C 1186.66 0.0929761 -2.06691 0
M  V30 12766 C 1187.08 1.34241 -1.32758 0
M  V30 12767 O 1186.44 1.78187 -0.394427 0
M  V30 12768 C 1186.49 0.389492 -3.59396 0
M  V30 12769 O 1186.21 -0.810379 -4.3054 0
M  V30 12770 C 1187.71 0.993147 -4.32032 0
M  V30 12771 H 1184.93 -0.00338664 -0.670991 0
M  V30 12772 H 1187.47 -0.649201 -1.93922 0
M  V30 12773 H 1185.63 1.08159 -3.71995 0
M  V30 12774 H 1186.04 -0.54996 -5.21609 0
M  V30 12775 H 1187.52 1.15044 -5.39878 0
M  V30 12776 H 1187.99 1.98106 -3.91983 0
M  V30 12777 H 1188.6 0.339677 -4.23941 0
M  V30 12778 N 1186.91 1.56388 -0.195085 0
M  V30 12779 C 1188.33 1.8398 0.317513 0
M  V30 12780 C 1188.68 1.11575 1.61386 0
M  V30 12781 O 1187.8 0.376557 2.13099 0
M  V30 12782 C 1188.4 3.33749 0.582859 0
M  V30 12783 C 1186.96 3.61752 1.03983 0
M  V30 12784 C 1186.1 2.77159 0.088434 0
M  V30 12785 H 1189.05 1.53072 -0.418871 0
M  V30 12786 H 1189.07 3.52519 1.43216 0
M  V30 12787 H 1188.59 3.86419 -0.360813 0
M  V30 12788 H 1186.69 3.14515 1.99778 0
M  V30 12789 H 1186.8 4.69937 0.932549 0
M  V30 12790 H 1185.16 2.47765 0.590317 0
M  V30 12791 H 1185.95 3.32619 -0.849682 0
M  V30 12792 N 1188.39 -0.0785156 1.57404 0
M  V30 12793 C 1189.67 -0.811557 1.77969 0
M  V30 12794 C 1190.05 -1.96123 0.780966 0
M  V30 12795 O 1189.4 -2.27731 -0.18726 0
M  V30 12796 C 1189.61 -1.29075 3.24254 0
M  V30 12797 C 1190.96 -1.72685 3.87898 0
M  V30 12798 O 1191.98 -1.38658 3.28104 0
M  V30 12799 O 1190.84 -2.3566 4.93079 0
M  V30 12800 H 1187.93 -0.388361 0.73014 0
M  V30 12801 H 1190.48 -0.0591118 1.69597 0
M  V30 12802 H 1189.25 -0.467813 3.88494 0
M  V30 12803 H 1188.87 -2.10472 3.37324 0
M  V30 12804 N 1189.87 -1.5367 -0.349747 0
M  V30 12805 C 1190.82 -1.81223 -1.42922 0
M  V30 12806 C 1191.79 -0.657536 -1.52531 0
M  V30 12807 O 1192.97 -0.90134 -1.68168 0
M  V30 12808 C 1190.11 -2.022 -2.79659 0
M  V30 12809 C 1189.23 -3.29915 -2.78891 0
M  V30 12810 C 1188.36 -3.40993 -4.07305 0
M  V30 12811 C 1187.4 -4.6268 -4.00741 0
M  V30 12812 N 1186.54 -4.70826 -5.20833 0
M  V30 12813 H 1191.38 -2.73328 -1.18727 0
M  V30 12814 H 1188.91 -1.35386 -0.57525 0
M  V30 12815 H 1190.87 -2.12351 -3.59114 0
M  V30 12816 H 1189.5 -1.13416 -3.0222 0
M  V30 12817 H 1188.55 -3.28637 -1.91577 0
M  V30 12818 H 1189.87 -4.19459 -2.69917 0
M  V30 12819 H 1189.02 -3.50542 -4.95182 0
M  V30 12820 H 1187.76 -2.49493 -4.19052 0
M  V30 12821 H 1186.76 -4.53215 -3.11249 0
M  V30 12822 H 1187.99 -5.55538 -3.90582 0
M  V30 12823 H 1185.93 -3.82233 -5.33136 0
M  V30 12824 H 1185.85 -5.54297 -5.14092 0
M  V30 12825 H 1187.12 -4.84677 -6.10499 0
M  V30 12826 N 1191.35 0.610423 -1.45298 0
M  V30 12827 C 1192.3 1.7213 -1.53753 0
M  V30 12828 C 1193.27 1.61609 -0.383632 0
M  V30 12829 O 1194.45 1.8123 -0.596694 0
M  V30 12830 C 1191.59 3.10433 -1.50749 0
M  V30 12831 C 1190.7 3.3178 -2.76669 0
M  V30 12832 C 1189.84 4.60173 -2.65356 0
M  V30 12833 C 1188.88 4.74769 -3.86343 0
M  V30 12834 N 1188.01 5.94459 -3.73581 0
M  V30 12835 H 1192.85 1.64239 -2.48655 0
M  V30 12836 H 1190.39 0.800879 -1.23387 0
M  V30 12837 H 1192.35 3.90446 -1.46996 0
M  V30 12838 H 1190.98 3.17288 -0.593998 0
M  V30 12839 H 1190.03 2.45563 -2.90522 0
M  V30 12840 H 1191.34 3.38439 -3.66416 0
M  V30 12841 H 1190.5 5.48377 -2.59553 0
M  V30 12842 H 1189.24 4.55907 -1.73204 0
M  V30 12843 H 1188.24 3.8499 -3.92509 0
M  V30 12844 H 1189.47 4.80834 -4.79557 0
M  V30 12845 H 1187.41 5.91243 -2.84196 0
M  V30 12846 H 1187.33 6.02265 -4.5696 0
M  V30 12847 H 1188.6 6.85168 -3.71705 0
M  V30 12848 N 1192.83 1.32541 0.852676 0
M  V30 12849 C 1193.78 1.18224 1.94954 0
M  V30 12850 C 1194.76 0.0886514 1.60656 0
M  V30 12851 O 1195.95 0.315359 1.74168 0
M  V30 12852 C 1193.08 0.909484 3.31034 0
M  V30 12853 C 1192.17 2.04486 3.71546 0
M  V30 12854 N 1192.56 3.29362 3.83868 0
M  V30 12855 C 1190.86 1.94848 4.01186 0
M  V30 12856 C 1191.56 4.0374 4.18771 0
M  V30 12857 N 1190.53 3.32054 4.30396 0
M  V30 12858 H 1194.34 2.12893 2.02617 0
M  V30 12859 H 1191.85 1.24349 1.04456 0
M  V30 12860 H 1193.85 0.787865 4.09388 0
M  V30 12861 H 1192.51 -0.0288163 3.24687 0
M  V30 12862 H 1193.52 3.64274 3.68137 0
M  V30 12863 H 1190.19 1.08591 4.0313 0
M  V30 12864 H 1191.58 5.11434 4.35757 0
M  V30 12865 N 1194.3 -1.0692 1.15784 0
M  V30 12866 C 1195.24 -2.14168 0.816375 0
M  V30 12867 C 1196.25 -1.61872 -0.17357 0
M  V30 12868 O 1197.44 -1.78429 0.0502973 0
M  V30 12869 C 1194.54 -3.38346 0.193682 0
M  V30 12870 C 1193.71 -4.19979 1.22215 0
M  V30 12871 C 1192.77 -5.2253 0.620424 0
M  V30 12872 O 1191.8 -5.54446 1.28757 0
M  V30 12873 N 1193 -5.77434 -0.595811 0
M  V30 12874 H 1195.76 -2.44062 1.73937 0
M  V30 12875 H 1193.32 -1.22865 1.05431 0
M  V30 12876 H 1195.32 -4.04092 -0.22174 0
M  V30 12877 H 1193.89 -3.06129 -0.632735 0
M  V30 12878 H 1193.11 -3.49984 1.81397 0
M  V30 12879 H 1194.39 -4.71329 1.91641 0
M  V30 12880 H 1193.79 -5.5376 -1.15611 0
M  V30 12881 H 1192.35 -6.44788 -0.953529 0
M  V30 12882 N 1195.78 -0.955326 -1.25345 0
M  V30 12883 C 1196.73 -0.474888 -2.25862 0
M  V30 12884 C 1197.7 0.472996 -1.59223 0
M  V30 12885 O 1198.88 0.386094 -1.86853 0
M  V30 12886 C 1196.02 0.240554 -3.44261 0
M  V30 12887 C 1195.14 -0.74465 -4.25534 0
M  V30 12888 C 1194.27 -0.00657513 -5.312 0
M  V30 12889 C 1193.31 -0.982666 -6.04161 0
M  V30 12890 N 1192.45 -0.275418 -7.0156 0
M  V30 12891 H 1197.29 -1.33693 -2.66327 0
M  V30 12892 H 1194.83 -0.670439 -1.30933 0
M  V30 12893 H 1196.78 0.671933 -4.11753 0
M  V30 12894 H 1195.41 1.06664 -3.04668 0
M  V30 12895 H 1194.47 -1.29451 -3.57696 0
M  V30 12896 H 1195.78 -1.48948 -4.76042 0
M  V30 12897 H 1194.93 0.483404 -6.04771 0
M  V30 12898 H 1193.67 0.771035 -4.81567 0
M  V30 12899 H 1192.68 -1.48364 -5.29404 0
M  V30 12900 H 1193.9 -1.76052 -6.55883 0
M  V30 12901 H 1191.85 0.483441 -6.54216 0
M  V30 12902 H 1191.76 -0.959324 -7.49889 0
M  V30 12903 H 1193.03 0.193002 -7.79261 0
M  V30 12904 N 1197.26 1.39987 -0.723979 0
M  V30 12905 C 1198.17 2.3447 -0.0780936 0
M  V30 12906 C 1199.19 1.57744 0.734368 0
M  V30 12907 O 1200.36 1.90091 0.665385 0
M  V30 12908 C 1197.43 3.36705 0.826492 0
M  V30 12909 C 1196.49 4.293 0.00303036 0
M  V30 12910 C 1195.72 5.26651 0.864535 0
M  V30 12911 O 1195.95 5.30194 2.10357 0
M  V30 12912 O 1194.88 6.01157 0.299057 0
M  V30 12913 H 1198.71 2.91338 -0.857646 0
M  V30 12914 H 1196.29 1.41324 -0.484536 0
M  V30 12915 H 1198.17 3.9938 1.34439 0
M  V30 12916 H 1196.85 2.82237 1.58505 0
M  V30 12917 H 1195.75 3.69883 -0.560136 0
M  V30 12918 H 1197.09 4.86942 -0.717494 0
M  V30 12919 N 1198.74 0.470782 1.50404 0
M  V30 12920 C 1200.15 0.0155901 1.86693 0
M  V30 12921 C 1200.5 -1.38908 1.38561 0
M  V30 12922 O 1199.63 -2.02971 0.750454 0
M  V30 12923 C 1200.22 0.0215152 3.38793 0
M  V30 12924 C 1198.78 -0.378206 3.74495 0
M  V30 12925 C 1197.93 0.407126 2.74295 0
M  V30 12926 H 1200.88 0.68507 1.43152 0
M  V30 12927 H 1200.9 -0.780717 3.72404 0
M  V30 12928 H 1200.41 1.04397 3.73795 0
M  V30 12929 H 1198.51 -1.40503 3.45094 0
M  V30 12930 H 1198.63 -0.0797643 4.79034 0
M  V30 12931 H 1196.99 -0.139123 2.5432 0
M  V30 12932 H 1197.77 1.42909 3.12141 0
M  V30 12933 N 1200.22 -1.56282 0.203376 0
M  V30 12934 C 1201.63 -1.84146 -0.307752 0
M  V30 12935 C 1201.98 -1.12429 -1.60792 0
M  V30 12936 O 1201.1 -0.387852 -2.12896 0
M  V30 12937 C 1201.7 -3.34053 -0.565152 0
M  V30 12938 C 1200.26 -3.62298 -1.02063 0
M  V30 12939 C 1199.41 -2.77202 -0.0737343 0
M  V30 12940 H 1202.36 -1.52848 0.426983 0
M  V30 12941 H 1202.38 -3.53273 -1.41345 0
M  V30 12942 H 1201.89 -3.86222 0.381301 0
M  V30 12943 H 1199.99 -3.1557 -1.98107 0
M  V30 12944 H 1200.1 -4.70424 -0.907614 0
M  V30 12945 H 1198.47 -2.48074 -0.577169 0
M  V30 12946 H 1199.25 -3.32164 0.86731 0
M  V30 12947 N 1201.7 0.070167 -1.57444 0
M  V30 12948 C 1202.94 0.769014 -1.8733 0
M  V30 12949 C 1203.27 1.77496 -0.79533 0
M  V30 12950 O 1202.53 1.94586 0.208495 0
M  V30 12951 C 1202.82 1.5111 -3.23883 0
M  V30 12952 C 1202.49 0.644988 -4.46263 0
M  V30 12953 C 1201.15 0.406307 -4.79482 0
M  V30 12954 C 1203.5 0.0444938 -5.21181 0
M  V30 12955 C 1200.83 -0.442322 -5.8503 0
M  V30 12956 C 1203.18 -0.791599 -6.27628 0
M  V30 12957 C 1201.85 -1.04014 -6.59346 0
M  V30 12958 H 1201.12 0.281402 -0.685488 0
M  V30 12959 H 1203.77 0.029752 -1.91477 0
M  V30 12960 H 1202.07 2.32261 -3.15535 0
M  V30 12961 H 1203.77 2.05665 -3.44242 0
M  V30 12962 H 1200.36 0.841148 -4.20265 0
M  V30 12963 H 1204.54 0.216005 -4.9583 0
M  V30 12964 H 1199.8 -0.643607 -6.08003 0
M  V30 12965 H 1203.97 -1.26363 -6.8484 0
M  V30 12966 H 1201.6 -1.69949 -7.4096 0
M  V30 12967 N 1203.17 1.53854 0.341593 0
M  V30 12968 C 1204.1 1.84966 1.42513 0
M  V30 12969 C 1205.08 0.704944 1.54805 0
M  V30 12970 O 1206.27 0.957036 1.68981 0
M  V30 12971 C 1203.4 2.06099 2.79536 0
M  V30 12972 C 1202.35 3.21919 2.82049 0
M  V30 12973 C 1201.68 3.28389 4.21977 0
M  V30 12974 C 1202.98 4.59984 2.4741 0
M  V30 12975 H 1204.67 2.7571 1.16724 0
M  V30 12976 H 1202.22 1.32662 0.560073 0
M  V30 12977 H 1204.17 2.26448 3.55386 0
M  V30 12978 H 1202.9 1.12087 3.06764 0
M  V30 12979 H 1201.56 3.01429 2.08653 0
M  V30 12980 H 1201.2 2.3197 4.46317 0
M  V30 12981 H 1200.9 4.0622 4.24569 0
M  V30 12982 H 1202.43 3.50951 4.99666 0
M  V30 12983 H 1203.84 4.80334 3.12973 0
M  V30 12984 H 1202.24 5.40233 2.61282 0
M  V30 12985 H 1203.31 4.6346 1.42594 0
M  V30 12986 N 1204.65 -0.602709 1.4562 0
M  V30 12987 C 1205.9 -1.36159 1.51103 0
M  V30 12988 C 1206.25 -1.91794 0.152552 0
M  V30 12989 O 1205.55 -1.7239 -0.836201 0
M  V30 12990 C 1205.74 -2.52474 2.52966 0
M  V30 12991 C 1205.57 -2.0823 3.98585 0
M  V30 12992 C 1204.34 -1.94175 4.66502 0
M  V30 12993 C 1206.54 -1.65402 4.86977 0
M  V30 12994 N 1204.52 -1.43792 5.96822 0
M  V30 12995 C 1205.89 -1.26469 6.06964 0
M  V30 12996 C 1207.94 -1.53038 4.73797 0
M  V30 12997 C 1206.65 -0.764065 7.1523 0
M  V30 12998 C 1208.67 -1.04379 5.82116 0
M  V30 12999 C 1208.04 -0.664136 7.01262 0
M  V30 13000 H 1204.13 -0.491974 0.607853 0
M  V30 13001 H 1206.72 -0.688472 1.82121 0
M  V30 13002 H 1204.89 -3.17375 2.23891 0
M  V30 13003 H 1206.62 -3.19369 2.48567 0
M  V30 13004 H 1203.38 -2.1551 4.21726 0
M  V30 13005 H 1203.8 -1.2082 6.66132 0
M  V30 13006 H 1208.44 -1.81014 3.82091 0
M  V30 13007 H 1206.16 -0.471858 8.06721 0
M  V30 13008 H 1209.75 -0.952316 5.73953 0
M  V30 13009 H 1208.63 -0.293412 7.83651 0
M  V30 13010 N 1206.13 -1.32992 -0.845635 0
M  V30 13011 C 1207.06 -1.17018 -1.95913 0
M  V30 13012 C 1208.04 -0.0673433 -1.6246 0
M  V30 13013 O 1209.22 -0.22833 -1.87112 0
M  V30 13014 C 1206.35 -0.793343 -3.29278 0
M  V30 13015 C 1205.4 -1.90271 -3.81705 0
M  V30 13016 S 1206.23 -3.51256 -4.04202 0
M  V30 13017 C 1207.39 -3.15564 -5.40528 0
M  V30 13018 H 1207.62 -2.11278 -2.09163 0
M  V30 13019 H 1205.15 -1.17756 -0.998644 0
M  V30 13020 H 1207.11 -0.582694 -4.06343 0
M  V30 13021 H 1205.77 0.130539 -3.13829 0
M  V30 13022 H 1204.96 -1.59225 -4.78188 0
M  V30 13023 H 1204.57 -2.06968 -3.11513 0
M  V30 13024 H 1206.86 -2.65969 -6.23111 0
M  V30 13025 H 1207.8 -4.11102 -5.76542 0
M  V30 13026 H 1208.21 -2.52341 -5.04959 0
M  V30 13027 N 1207.61 1.06304 -1.1635 0
M  V30 13028 C 1208.86 1.78747 -0.943074 0
M  V30 13029 C 1209.18 1.87646 0.530483 0
M  V30 13030 O 1208.45 1.38506 1.38538 0
M  V30 13031 H 1207.03 0.662072 -0.345932 0
M  V30 13032 H 1209.69 1.28413 -1.46615 0
M  V30 13033 H 1208.78 2.80828 -1.3617 0
M  V30 13034 N 1209.09 0.96196 1.24836 0
M  V30 13035 C 1210.32 0.637214 1.96528 0
M  V30 13036 C 1210.72 -0.79638 1.71623 0
M  V30 13037 O 1210.07 -1.54524 0.993372 0
M  V30 13038 C 1210.13 0.824972 3.49906 0
M  V30 13039 C 1209.79 2.23711 3.985 0
M  V30 13040 C 1210.79 3.21439 4.08623 0
M  V30 13041 C 1208.47 2.56327 4.31974 0
M  V30 13042 C 1210.47 4.49872 4.51546 0
M  V30 13043 C 1208.16 3.84987 4.74582 0
M  V30 13044 C 1209.15 4.81572 4.84332 0
M  V30 13045 O 1208.84 6.07938 5.25991 0
M  V30 13046 H 1208.57 0.237214 0.633013 0
M  V30 13047 H 1211.13 1.29081 1.59773 0
M  V30 13048 H 1209.36 0.114219 3.86531 0
M  V30 13049 H 1211.05 0.500179 4.02806 0
M  V30 13050 H 1211.81 2.97569 3.82985 0
M  V30 13051 H 1207.69 1.81872 4.23608 0
M  V30 13052 H 1211.24 5.25261 4.59071 0
M  V30 13053 H 1207.13 4.08661 4.99666 0
M  V30 13054 H 1207.9 6.11421 5.44157 0
M  V30 13055 N 1210.56 -1.39601 0.731392 0
M  V30 13056 C 1211.47 -2.34425 0.090527 0
M  V30 13057 C 1212.49 -1.58131 -0.725992 0
M  V30 13058 O 1213.67 -1.90441 -0.655294 0
M  V30 13059 C 1210.73 -3.37138 -0.808624 0
M  V30 13060 C 1209.79 -4.29295 0.0197365 0
M  V30 13061 C 1209.02 -5.27102 -0.836593 0
M  V30 13062 O 1209.25 -5.31302 -2.07543 0
M  V30 13063 O 1208.18 -6.01307 -0.267172 0
M  V30 13064 H 1212.01 -2.9088 0.873084 0
M  V30 13065 H 1209.59 -1.41066 0.492024 0
M  V30 13066 H 1211.47 -4.00087 -1.32319 0
M  V30 13067 H 1210.15 -2.83074 -1.57006 0
M  V30 13068 H 1209.06 -3.69581 0.579744 0
M  V30 13069 H 1210.39 -4.86555 0.743308 0
M  V30 13070 N 1212.04 -0.478751 -1.50152 0
M  V30 13071 C 1212.97 0.301182 -2.31549 0
M  V30 13072 C 1213.95 0.983276 -1.38801 0
M  V30 13073 O 1215.14 0.978973 -1.67719 0
M  V30 13074 C 1212.27 1.3791 -3.18745 0
M  V30 13075 C 1211.22 0.818175 -4.20107 0
M  V30 13076 C 1210.55 1.99496 -4.9609 0
M  V30 13077 C 1211.85 -0.17574 -5.22004 0
M  V30 13078 H 1213.54 -0.378188 -2.97002 0
M  V30 13079 H 1211.09 -0.183323 -1.42828 0
M  V30 13080 H 1213.04 1.93227 -3.74488 0
M  V30 13081 H 1211.77 2.08735 -2.51192 0
M  V30 13082 H 1210.42 0.286924 -3.65475 0
M  V30 13083 H 1210.07 2.69036 -4.25004 0
M  V30 13084 H 1209.77 1.62582 -5.6466 0
M  V30 13085 H 1211.3 2.55288 -5.54671 0
M  V30 13086 H 1212.71 0.288513 -5.72574 0
M  V30 13087 H 1211.11 -0.459549 -5.98338 0
M  V30 13088 H 1212.18 -1.09911 -4.72279 0
M  V30 13089 N 1213.52 1.56172 -0.211661 0
M  V30 13090 C 1214.47 2.16477 0.715675 0
M  V30 13091 C 1215.45 1.11023 1.16459 0
M  V30 13092 O 1216.65 1.3704 1.12023 0
M  V30 13093 C 1213.78 2.84055 1.92789 0
M  V30 13094 C 1212.86 3.96721 1.49911 0
M  V30 13095 N 1213.25 4.99714 0.782304 0
M  V30 13096 C 1211.55 4.08628 1.78716 0
M  V30 13097 C 1212.25 5.78949 0.565043 0
M  V30 13098 N 1211.23 5.31963 1.11878 0
M  V30 13099 H 1215.03 2.93467 0.15948 0
M  V30 13100 H 1212.54 1.62395 -0.012521 0
M  V30 13101 H 1214.54 3.25662 2.60289 0
M  V30 13102 H 1213.2 2.08558 2.48865 0
M  V30 13103 H 1214.21 5.16061 0.436021 0
M  V30 13104 H 1210.89 3.44273 2.36183 0
M  V30 13105 H 1212.28 6.719 -0.00477074 0
M  V30 13106 N 1215 -0.0618163 1.57479 0
M  V30 13107 C 1216.41 -0.612461 1.76368 0
M  V30 13108 C 1216.76 -1.77381 0.838466 0
M  V30 13109 O 1215.89 -2.16386 0.0250211 0
M  V30 13110 C 1216.48 -1.11782 3.19829 0
M  V30 13111 C 1215.04 -1.61424 3.40028 0
M  V30 13112 C 1214.19 -0.53795 2.72032 0
M  V30 13113 H 1217.14 0.164382 1.57846 0
M  V30 13114 H 1217.16 -1.98634 3.24538 0
M  V30 13115 H 1216.67 -0.272353 3.87143 0
M  V30 13116 H 1214.77 -2.48263 2.77842 0
M  V30 13117 H 1214.88 -1.68431 4.48517 0
M  V30 13118 H 1213.25 -0.985355 2.34868 0
M  V30 13119 H 1214.03 0.297495 3.42009 0
M  V30 13120 N 1216.48 -1.54033 -0.333429 0
M  V30 13121 C 1217.75 -1.62404 -1.09015 0
M  V30 13122 C 1218.13 -0.451653 -2.06212 0
M  V30 13123 O 1217.48 0.555086 -2.21655 0
M  V30 13124 C 1217.69 -2.98949 -1.80085 0
M  V30 13125 C 1219.04 -3.54655 -2.33464 0
M  V30 13126 O 1220.06 -3.0119 -1.90166 0
M  V30 13127 O 1218.92 -4.48195 -3.12703 0
M  V30 13128 H 1216.02 -0.65727 -0.501921 0
M  V30 13129 H 1218.56 -1.66378 -0.33411 0
M  V30 13130 H 1217.33 -3.75716 -1.09332 0
M  V30 13131 H 1216.96 -2.98609 -2.62523 0
M  V30 13132 N 1217.95 0.594978 -1.45938 0
M  V30 13133 C 1218.9 1.70489 -1.5557 0
M  V30 13134 C 1219.87 1.61193 -0.400751 0
M  V30 13135 O 1221.06 1.80587 -0.615882 0
M  V30 13136 C 1218.2 3.08817 -1.54033 0
M  V30 13137 C 1217.31 3.28827 -2.80173 0
M  V30 13138 C 1216.44 4.57333 -2.70222 0
M  V30 13139 C 1215.48 4.70644 -3.91357 0
M  V30 13140 N 1214.62 5.90463 -3.79865 0
M  V30 13141 H 1219.46 1.61593 -2.50383 0
M  V30 13142 H 1217 0.787747 -1.24229 0
M  V30 13143 H 1218.96 3.88865 -1.51129 0
M  V30 13144 H 1217.59 3.1664 -0.627617 0
M  V30 13145 H 1216.64 2.42467 -2.9311 0
M  V30 13146 H 1217.95 3.34534 -3.69985 0
M  V30 13147 H 1217.1 5.45593 -2.65354 0
M  V30 13148 H 1215.84 4.54045 -1.7803 0
M  V30 13149 H 1214.85 3.80805 -3.9657 0
M  V30 13150 H 1216.07 4.75721 -4.8463 0
M  V30 13151 H 1214.02 5.88196 -2.90451 0
M  V30 13152 H 1213.94 5.97385 -4.63322 0
M  V30 13153 H 1215.2 6.81187 -3.78952 0
M  V30 13154 N 1219.43 1.33438 0.838571 0
M  V30 13155 C 1220.68 1.26106 1.59589 0
M  V30 13156 C 1221.03 -0.171524 1.91634 0
M  V30 13157 O 1220.33 -1.11368 1.55909 0
M  V30 13158 C 1220.52 2.07002 2.9135 0
M  V30 13159 C 1220.35 3.57981 2.72175 0
M  V30 13160 C 1219.12 4.27293 2.69719 0
M  V30 13161 C 1221.32 4.52308 2.4479 0
M  V30 13162 N 1219.3 5.64221 2.41925 0
M  V30 13163 C 1220.67 5.77127 2.26549 0
M  V30 13164 C 1222.73 4.4139 2.3039 0
M  V30 13165 C 1221.43 6.9226 1.95368 0
M  V30 13166 C 1223.45 5.56339 2.00602 0
M  V30 13167 C 1222.82 6.80167 1.83173 0
M  V30 13168 H 1218.92 0.516656 0.587018 0
M  V30 13169 H 1221.5 1.67982 0.984382 0
M  V30 13170 H 1219.67 1.67446 3.50452 0
M  V30 13171 H 1221.4 1.91437 3.56558 0
M  V30 13172 H 1218.16 3.79571 2.83236 0
M  V30 13173 H 1218.58 6.36403 2.30911 0
M  V30 13174 H 1223.22 3.46289 2.42577 0
M  V30 13175 H 1220.94 7.87357 1.81918 0
M  V30 13176 H 1224.53 5.49827 1.90214 0
M  V30 13177 H 1223.41 7.67609 1.60455 0
M  V30 13178 N 1220.91 -1.05686 1.16912 0
M  V30 13179 C 1222.14 -1.82282 0.978811 0
M  V30 13180 C 1222.55 -1.8278 -0.472972 0
M  V30 13181 O 1221.91 -1.25143 -1.32836 0
M  V30 13182 C 1221.96 -3.28623 1.50629 0
M  V30 13183 O 1221.68 -3.28269 2.90122 0
M  V30 13184 C 1223.18 -4.21927 1.35987 0
M  V30 13185 H 1220.4 -0.574558 0.346588 0
M  V30 13186 H 1222.95 -1.33301 1.55084 0
M  V30 13187 H 1221.1 -3.74893 0.976404 0
M  V30 13188 H 1221.52 -4.19824 3.14401 0
M  V30 13189 H 1222.99 -5.2261 1.77716 0
M  V30 13190 H 1223.47 -4.38131 0.30626 0
M  V30 13191 H 1224.07 -3.81508 1.87968 0
M  V30 13192 N 1222.39 -0.968567 -1.24324 0
M  V30 13193 C 1223.63 -0.631863 -1.92705 0
M  V30 13194 C 1223.97 0.83096 -1.75524 0
M  V30 13195 O 1223.24 1.59795 -1.10887 0
M  V30 13196 C 1223.53 -1.00845 -3.45691 0
M  V30 13197 C 1223.38 -2.52803 -3.72036 0
M  V30 13198 C 1224.7 -0.543647 -4.36729 0
M  V30 13199 H 1221.82 -0.231027 -0.699854 0
M  V30 13200 H 1224.46 -1.20773 -1.46676 0
M  V30 13201 H 1222.61 -0.518434 -3.85025 0
M  V30 13202 H 1224.28 -3.09289 -3.42255 0
M  V30 13203 H 1222.52 -2.95963 -3.17157 0
M  V30 13204 H 1223.19 -2.74203 -4.79079 0
M  V30 13205 H 1225.67 -0.964182 -4.04775 0
M  V30 13206 H 1224.55 -0.8357 -5.42501 0
M  V30 13207 H 1224.81 0.556256 -4.38587 0
M  V30 13208 N 1223.87 1.39211 -0.738786 0
M  V30 13209 C 1224.8 2.29117 -0.0616489 0
M  V30 13210 C 1225.81 1.47008 0.699462 0
M  V30 13211 O 1227 1.70041 0.542998 0
M  V30 13212 C 1224.1 3.25692 0.936893 0
M  V30 13213 C 1223.27 4.3676 0.236515 0
M  V30 13214 C 1222.33 5.1362 1.1437 0
M  V30 13215 O 1221.36 5.65816 0.619762 0
M  V30 13216 N 1222.56 5.25184 2.4731 0
M  V30 13217 H 1225.33 2.8787 -0.833711 0
M  V30 13218 H 1222.89 1.50832 -0.588323 0
M  V30 13219 H 1224.88 3.73987 1.54648 0
M  V30 13220 H 1223.45 2.67943 1.61014 0
M  V30 13221 H 1222.67 3.90293 -0.553594 0
M  V30 13222 H 1223.96 5.08192 -0.248707 0
M  V30 13223 H 1223.35 4.84302 2.92349 0
M  V30 13224 H 1221.91 5.76905 3.03355 0
M  V30 13225 N 1225.34 0.486708 1.49896 0
M  V30 13226 C 1226.76 0.0353906 1.86666 0
M  V30 13227 C 1227.11 -1.3743 1.40026 0
M  V30 13228 O 1226.23 -2.02163 0.77194 0
M  V30 13229 C 1226.83 0.0574475 3.38751 0
M  V30 13230 C 1225.39 -0.338464 3.74875 0
M  V30 13231 C 1224.53 0.436196 2.73848 0
M  V30 13232 H 1227.48 0.700215 1.42417 0
M  V30 13233 H 1227.5 -0.741175 3.73212 0
M  V30 13234 H 1227.02 1.08356 3.72667 0
M  V30 13235 H 1225.12 -1.36835 3.46565 0
M  V30 13236 H 1225.23 -0.0289519 4.79091 0
M  V30 13237 H 1223.59 -0.112141 2.54453 0
M  V30 13238 H 1224.38 1.46212 3.10608 0
M  V30 13239 N 1226.82 -1.56058 0.219941 0
M  V30 13240 C 1228.07 -1.97436 -0.412543 0
M  V30 13241 C 1228.39 -1.11058 -1.61014 0
M  V30 13242 O 1229.59 -1.42328 -2.31203 0
M  V30 13243 C 1228.05 -3.51227 -0.785362 0
M  V30 13244 C 1227.66 -4.46305 0.389328 0
M  V30 13245 C 1229.4 -4.01321 -1.38354 0
M  V30 13246 C 1227.31 -5.914 -0.00583531 0
M  V30 13247 H 1226.24 -0.73728 -0.157906 0
M  V30 13248 H 1228.89 -1.8076 0.315898 0
M  V30 13249 H 1227.27 -3.63497 -1.57118 0
M  V30 13250 H 1228.44 -4.45781 1.16686 0
M  V30 13251 H 1226.76 -4.06543 0.900633 0
M  V30 13252 H 1229.36 -5.07221 -1.69207 0
M  V30 13253 H 1229.7 -3.47077 -2.29876 0
M  V30 13254 H 1230.23 -3.92267 -0.66119 0
M  V30 13255 H 1226.97 -6.49623 0.87583 0
M  V30 13256 H 1226.49 -5.95121 -0.74772 0
M  V30 13257 H 1228.17 -6.45549 -0.43308 0
M  V30 13258 N 1228.3 0.053464 -1.57509 0
M  V30 13259 C 1229.55 0.750212 -1.88414 0
M  V30 13260 C 1229.88 1.76288 -0.814619 0
M  V30 13261 O 1229.16 1.93728 0.173136 0
M  V30 13262 C 1229.44 1.44176 -3.29978 0
M  V30 13263 C 1229.29 0.444263 -4.47601 0
M  V30 13264 C 1230.61 2.38207 -3.70061 0
M  V30 13265 H 1227.73 0.271266 -0.685262 0
M  V30 13266 H 1230.37 0.0131676 -1.89995 0
M  V30 13267 H 1228.52 2.07001 -3.2876 0
M  V30 13268 H 1230.19 -0.180182 -4.60948 0
M  V30 13269 H 1228.44 -0.238771 -4.33142 0
M  V30 13270 H 1229.11 0.966134 -5.43479 0
M  V30 13271 H 1231.58 1.85446 -3.7249 0
M  V30 13272 H 1230.46 2.83588 -4.69967 0
M  V30 13273 H 1230.72 3.23821 -3.00985 0
M  V30 13274 N 1229.78 1.54207 0.325255 0
M  V30 13275 C 1230.71 1.86467 1.40543 0
M  V30 13276 C 1231.69 0.721324 1.54048 0
M  V30 13277 O 1232.88 0.974905 1.67956 0
M  V30 13278 C 1230.01 2.09052 2.77335 0
M  V30 13279 C 1228.96 3.24893 2.78619 0
M  V30 13280 C 1228.29 3.32846 4.1847 0
M  V30 13281 C 1229.59 4.62582 2.42518 0
M  V30 13282 H 1231.28 2.76932 1.13794 0
M  V30 13283 H 1228.83 1.33248 0.545971 0
M  V30 13284 H 1230.78 2.30204 3.52964 0
M  V30 13285 H 1229.5 1.15335 3.05558 0
M  V30 13286 H 1228.16 3.03625 2.05444 0
M  V30 13287 H 1227.81 2.3669 4.43832 0
M  V30 13288 H 1227.51 4.10701 4.20237 0
M  V30 13289 H 1229.03 3.56231 4.95915 0
M  V30 13290 H 1230.45 4.83627 3.07861 0
M  V30 13291 H 1228.84 5.42974 2.55538 0
M  V30 13292 H 1229.91 4.64946 1.3767 0
M  V30 13293 N 1231.26 -0.58723 1.46251 0
M  V30 13294 C 1232.67 -1.16933 1.45546 0
M  V30 13295 C 1233.02 -1.9524 0.193879 0
M  V30 13296 O 1232.14 -2.04652 -0.70332 0
M  V30 13297 C 1232.74 -2.12723 2.63693 0
M  V30 13298 C 1231.3 -2.66267 2.66043 0
M  V30 13299 C 1230.45 -1.42051 2.38153 0
M  V30 13300 H 1233.4 -0.375411 1.54196 0
M  V30 13301 H 1233.42 -2.96111 2.38953 0
M  V30 13302 H 1232.93 -1.55703 3.55497 0
M  V30 13303 H 1231.03 -3.2717 1.783 0
M  V30 13304 H 1231.14 -3.0931 3.65874 0
M  V30 13305 H 1229.51 -1.71707 1.88119 0
M  V30 13306 H 1230.29 -0.868675 3.32128 0
M  V30 13307 N 1232.74 -1.33881 -0.831482 0
M  V30 13308 C 1233.65 -1.26802 -1.97379 0
M  V30 13309 C 1234.66 -0.177233 -1.73095 0
M  V30 13310 O 1235.84 -0.402163 -1.97344 0
M  V30 13311 C 1232.9 -1.01474 -3.31517 0
M  V30 13312 C 1231.96 -2.19626 -3.68867 0
M  V30 13313 C 1231.2 -1.95497 -4.96605 0
M  V30 13314 O 1231.42 -0.908948 -5.63111 0
M  V30 13315 O 1230.35 -2.82226 -5.31632 0
M  V30 13316 H 1234.18 -2.22883 -2.06293 0
M  V30 13317 H 1231.76 -1.14001 -0.965613 0
M  V30 13318 H 1233.65 -0.890954 -4.11874 0
M  V30 13319 H 1232.32 -0.0842656 -3.2359 0
M  V30 13320 H 1231.23 -2.37561 -2.88991 0
M  V30 13321 H 1232.56 -3.11034 -3.81469 0
M  V30 13322 N 1234.21 1.05064 -1.1747 0
M  V30 13323 C 1235.16 2.12841 -0.89259 0
M  V30 13324 C 1236.13 1.65288 0.16402 0
M  V30 13325 O 1237.32 1.90782 0.026537 0
M  V30 13326 C 1234.46 3.42614 -0.41344 0
M  V30 13327 C 1233.57 4.03835 -1.53432 0
M  V30 13328 C 1232.7 5.21531 -1.00891 0
M  V30 13329 C 1231.74 5.74761 -2.10515 0
M  V30 13330 N 1230.88 6.83756 -1.59442 0
M  V30 13331 H 1235.72 2.36312 -1.81551 0
M  V30 13332 H 1233.26 1.15929 -0.905483 0
M  V30 13333 H 1235.21 4.17035 -0.117181 0
M  V30 13334 H 1233.84 3.19323 0.472517 0
M  V30 13335 H 1232.9 3.2684 -1.94627 0
M  V30 13336 H 1234.21 4.3938 -2.36108 0
M  V30 13337 H 1233.36 6.03027 -0.666575 0
M  V30 13338 H 1232.1 4.87464 -0.151608 0
M  V30 13339 H 1231.11 4.91893 -2.45604 0
M  V30 13340 H 1232.33 6.10875 -2.96663 0
M  V30 13341 H 1230.28 6.51584 -0.759849 0
M  V30 13342 H 1230.19 7.18311 -2.35724 0
M  V30 13343 H 1231.46 7.68901 -1.28105 0
M  V30 13344 N 1235.69 0.975146 1.23809 0
M  V30 13345 C 1236.97 0.557725 1.8748 0
M  V30 13346 C 1237.35 -0.965164 1.87744 0
M  V30 13347 O 1236.7 -1.83966 1.35531 0
M  V30 13348 C 1236.91 1.15777 3.29236 0
M  V30 13349 C 1238.25 1.24726 4.05868 0
M  V30 13350 O 1239.28 1.11084 3.38436 0
M  V30 13351 O 1238.14 1.46373 5.26533 0
M  V30 13352 H 1235.23 0.187045 0.80557 0
M  V30 13353 H 1237.78 1.06989 1.31725 0
M  V30 13354 H 1236.55 2.20023 3.23583 0
M  V30 13355 H 1236.17 0.630103 3.92575 0
M  V30 13356 N 1237.17 -1.38817 0.746158 0
M  V30 13357 C 1238.39 -2.05096 0.308302 0
M  V30 13358 C 1238.82 -1.55902 -1.05244 0
M  V30 13359 O 1238.18 -0.707685 -1.66918 0
M  V30 13360 C 1238.23 -3.59068 0.332016 0
M  V30 13361 O 1237.33 -4.06813 -0.676547 0
M  V30 13362 H 1236.67 -0.649523 0.1379 0
M  V30 13363 H 1239.2 -1.77637 1.0152 0
M  V30 13364 H 1239.21 -4.07601 0.180293 0
M  V30 13365 H 1237.89 -3.94234 1.32487 0
M  V30 13366 H 1236.46 -3.69666 -0.490046 0
M  V30 13367 N 1238.65 -0.49465 -1.49636 0
M  V30 13368 C 1239.89 0.0442152 -2.03352 0
M  V30 13369 C 1240.25 1.35275 -1.36815 0
M  V30 13370 O 1239.54 1.85158 -0.492671 0
M  V30 13371 C 1239.74 0.259743 -3.56455 0
M  V30 13372 C 1239.56 -1.02635 -4.37831 0
M  V30 13373 C 1238.33 -1.57636 -4.80082 0
M  V30 13374 C 1240.53 -1.92797 -4.76795 0
M  V30 13375 N 1238.51 -2.80902 -5.45864 0
M  V30 13376 C 1239.89 -3.00644 -5.4223 0
M  V30 13377 C 1241.94 -1.93552 -4.5874 0
M  V30 13378 C 1240.64 -4.09265 -5.91519 0
M  V30 13379 C 1242.67 -3.01144 -5.08986 0
M  V30 13380 C 1242.03 -4.07709 -5.74415 0
M  V30 13381 H 1238.13 -0.0244415 -0.781618 0
M  V30 13382 H 1240.71 -0.668098 -1.82878 0
M  V30 13383 H 1238.89 0.941108 -3.76826 0
M  V30 13384 H 1240.62 0.795048 -3.96814 0
M  V30 13385 H 1237.37 -1.12236 -4.60109 0
M  V30 13386 H 1237.8 -3.43565 -5.83345 0
M  V30 13387 H 1242.44 -1.12473 -4.07566 0
M  V30 13388 H 1240.16 -4.91146 -6.41717 0
M  V30 13389 H 1243.74 -3.02739 -4.9683 0
M  V30 13390 H 1242.62 -4.89591 -6.12593 0
M  V30 13391 N 1240.13 1.55939 -0.228214 0
M  V30 13392 C 1241.35 2.0287 0.406348 0
M  V30 13393 C 1241.77 1.1079 1.52876 0
M  V30 13394 O 1241.13 0.118747 1.82113 0
M  V30 13395 C 1241.18 3.49286 0.931734 0
M  V30 13396 O 1240.9 4.37857 -0.145933 0
M  V30 13397 C 1242.4 4.11893 1.63887 0
M  V30 13398 H 1239.62 0.663696 0.0987358 0
M  V30 13399 H 1242.16 2.01541 -0.346616 0
M  V30 13400 H 1240.32 3.5121 1.63494 0
M  V30 13401 H 1240.73 5.23904 0.250005 0
M  V30 13402 H 1242.21 5.16091 1.95841 0
M  V30 13403 H 1242.68 3.57281 2.55435 0
M  V30 13404 H 1243.29 4.13839 0.980697 0
M  V30 13405 N 1241.6 -0.0451101 1.57535 0
M  V30 13406 C 1242.85 -0.740209 1.88809 0
M  V30 13407 C 1243.18 -1.75854 0.823956 0
M  V30 13408 O 1242.46 -1.93817 -0.16286 0
M  V30 13409 C 1242.74 -1.42424 3.30737 0
M  V30 13410 C 1242.59 -0.42052 4.4783 0
M  V30 13411 C 1243.91 -2.36241 3.7132 0
M  V30 13412 H 1241.03 -0.267628 0.686691 0
M  V30 13413 H 1243.67 -0.00309149 1.9 0
M  V30 13414 H 1241.82 -2.05254 3.29853 0
M  V30 13415 H 1243.5 0.204625 4.60846 0
M  V30 13416 H 1241.74 0.261739 4.3301 0
M  V30 13417 H 1242.41 -0.937298 5.43984 0
M  V30 13418 H 1244.89 -1.83468 3.73468 0
M  V30 13419 H 1243.76 -2.81091 4.71465 0
M  V30 13420 H 1244.02 -3.2222 3.02699 0
M  V30 13421 N 1243.08 -1.54377 -0.317073 0
M  V30 13422 C 1244.03 -1.84948 -1.41057 0
M  V30 13423 C 1245.02 -0.721887 -1.53249 0
M  V30 13424 O 1246.23 -0.905648 -1.55557 0
M  V30 13425 H 1242.61 -0.586353 -0.470844 0
M  V30 13426 H 1244.58 -2.7638 -1.12501 0
M  V30 13427 C 1243.33 -2.09932 -2.77171 0
M  V30 13428 H 1242.65 -2.96162 -2.68566 0
M  V30 13429 H 1244.09 -2.35272 -3.52737 0
M  V30 13430 C 1242.55 -0.892855 -3.24853 0
M  V30 13431 O 1243.08 -0.105336 -4.01562 0
M  V30 13432 N 1241.28 -0.702685 -2.81976 0
M  V30 13433 H 1240.83 -1.34474 -2.19715 0
M  V30 13434 H 1240.79 0.103024 -3.14231 0
M  V30 13435 N 1244.56 0.579466 -1.4656 0
M  V30 13436 C 1245.84 1.33973 -1.42515 0
M  V30 13437 C 1246.22 2.10812 -0.110317 0
M  V30 13438 O 1245.57 2.09679 0.908135 0
M  V30 13439 C 1245.78 2.26301 -2.65686 0
M  V30 13440 C 1247.12 2.88027 -3.1197 0
M  V30 13441 O 1248.15 2.36612 -2.66257 0
M  V30 13442 O 1247.01 3.81423 -3.9138 0
M  V30 13443 H 1244.1 0.602121 -0.566903 0
M  V30 13444 H 1246.65 0.600214 -1.58731 0
M  V30 13445 H 1245.42 1.68973 -3.52936 0
M  V30 13446 H 1245.04 3.07586 -2.51945 0
M  V30 13447 N 1246.04 1.3432 0.824371 0
M  V30 13448 C 1247.29 1.25938 1.57552 0
M  V30 13449 C 1247.6 -0.169298 1.94866 0
M  V30 13450 O 1248.81 -0.375262 2.68894 0
M  V30 13451 C 1247.26 2.20757 2.84244 0
M  V30 13452 C 1246.87 3.68873 2.54237 0
M  V30 13453 C 1248.61 2.21279 3.62265 0
M  V30 13454 C 1246.52 4.55566 3.77113 0
M  V30 13455 H 1245.45 0.467832 0.591311 0
M  V30 13456 H 1248.1 1.59476 0.907724 0
M  V30 13457 H 1246.48 1.80168 3.52641 0
M  V30 13458 H 1247.66 4.17991 1.93959 0
M  V30 13459 H 1245.97 3.70784 1.89494 0
M  V30 13460 H 1248.57 2.83272 4.53499 0
M  V30 13461 H 1248.91 1.2117 3.98276 0
M  V30 13462 H 1249.45 2.60305 3.00809 0
M  V30 13463 H 1246.19 5.56605 3.46223 0
M  V30 13464 H 1245.71 4.11184 4.36678 0
M  V30 13465 H 1247.38 4.701 4.44539 0
M  V30 13466 N 1247.52 -1.0444 1.18026 0
M  V30 13467 C 1248.45 -2.12388 0.86162 0
M  V30 13468 C 1249.46 -1.62204 -0.139196 0
M  V30 13469 O 1250.65 -1.78282 0.0881334 0
M  V30 13470 C 1247.75 -3.37859 0.265407 0
M  V30 13471 C 1246.92 -4.17292 1.31096 0
M  V30 13472 C 1245.98 -5.21096 0.731121 0
M  V30 13473 O 1245.01 -5.5159 1.40488 0
M  V30 13474 N 1246.21 -5.78568 -0.473194 0
M  V30 13475 H 1248.98 -2.40317 1.79074 0
M  V30 13476 H 1246.54 -1.20601 1.08014 0
M  V30 13477 H 1248.53 -4.04472 -0.135976 0
M  V30 13478 H 1247.1 -3.07403 -0.567658 0
M  V30 13479 H 1246.32 -3.46057 1.8878 0
M  V30 13480 H 1247.61 -4.67158 2.01596 0
M  V30 13481 H 1247 -5.56088 -1.03839 0
M  V30 13482 H 1245.56 -6.46665 -0.816545 0
M  V30 13483 N 1248.99 -0.981699 -1.2329 0
M  V30 13484 C 1249.94 -0.52269 -2.24803 0
M  V30 13485 C 1250.91 0.439116 -1.6019 0
M  V30 13486 O 1252.1 0.346372 -1.8763 0
M  V30 13487 C 1249.24 0.167477 -3.44693 0
M  V30 13488 C 1248.35 -0.834744 -4.23858 0
M  V30 13489 C 1247.48 -0.119249 -5.31066 0
M  V30 13490 C 1246.52 -1.1106 -6.0194 0
M  V30 13491 N 1245.66 -0.424167 -7.00818 0
M  V30 13492 H 1250.5 -1.39312 -2.63431 0
M  V30 13493 H 1248.04 -0.698061 -1.29482 0
M  V30 13494 H 1250 0.584442 -4.13086 0
M  V30 13495 H 1248.63 1.00177 -3.06862 0
M  V30 13496 H 1247.68 -1.37009 -3.5487 0
M  V30 13497 H 1248.99 -1.59012 -4.72776 0
M  V30 13498 H 1248.14 0.355015 -6.0566 0
M  V30 13499 H 1246.88 0.668714 -4.83094 0
M  V30 13500 H 1245.89 -1.5956 -5.26138 0
M  V30 13501 H 1247.11 -1.89924 -6.52001 0
M  V30 13502 H 1245.06 0.344564 -6.55094 0
M  V30 13503 H 1244.98 -1.11817 -7.47685 0
M  V30 13504 H 1246.24 0.0276655 -7.79495 0
M  V30 13505 N 1250.47 1.3842 -0.753509 0
M  V30 13506 C 1251.4 2.33073 -0.141198 0
M  V30 13507 C 1252.38 1.54863 0.70367 0
M  V30 13508 O 1253.57 1.8318 0.644872 0
M  V30 13509 C 1250.7 3.39043 0.752802 0
M  V30 13510 C 1249.65 4.27999 0.0106692 0
M  V30 13511 C 1248.98 5.24824 1.02291 0
M  V30 13512 C 1250.28 5.09308 -1.15768 0
M  V30 13513 H 1251.97 2.84528 -0.93188 0
M  V30 13514 H 1249.52 1.36802 -0.449567 0
M  V30 13515 H 1251.47 4.04224 1.19083 0
M  V30 13516 H 1250.2 2.8607 1.57581 0
M  V30 13517 H 1248.85 3.64323 -0.407939 0
M  V30 13518 H 1248.5 4.68139 1.83998 0
M  V30 13519 H 1248.2 5.85196 0.53101 0
M  V30 13520 H 1249.73 5.92882 1.46026 0
M  V30 13521 H 1251.14 5.6773 -0.797203 0
M  V30 13522 H 1249.54 5.78914 -1.58044 0
M  V30 13523 H 1250.61 4.43051 -1.97062 0
M  V30 13524 N 1251.95 0.502579 1.49372 0
M  V30 13525 C 1253.2 -0.0414423 2.02758 0
M  V30 13526 C 1253.53 -1.36499 1.38136 0
M  V30 13527 O 1252.8 -1.87487 0.517593 0
M  V30 13528 C 1253.09 -0.192333 3.59586 0
M  V30 13529 C 1252.94 1.15445 4.34733 0
M  V30 13530 C 1254.26 -0.932218 4.30114 0
M  V30 13531 H 1251.38 -0.0135869 0.736875 0
M  V30 13532 H 1254.02 0.654296 1.78379 0
M  V30 13533 H 1252.17 -0.78491 3.80488 0
M  V30 13534 H 1253.84 1.78603 4.25322 0
M  V30 13535 H 1252.09 1.74333 3.97228 0
M  V30 13536 H 1252.76 1.00216 5.42827 0
M  V30 13537 H 1255.23 -0.429632 4.13876 0
M  V30 13538 H 1254.11 -1.00664 5.39591 0
M  V30 13539 H 1254.37 -1.9763 3.95468 0
M  V30 13540 N 1253.43 -1.55816 0.23648 0
M  V30 13541 C 1254.68 -1.98294 -0.390373 0
M  V30 13542 C 1255 -1.12573 -1.59224 0
M  V30 13543 O 1254.27 -0.206128 -1.94813 0
M  V30 13544 H 1252.85 -0.732349 -0.14722 0
M  V30 13545 H 1255.51 -1.92037 0.332848 0
M  V30 13546 H 1254.61 -3.03996 -0.706595 0
M  V30 13547 N 1254.91 0.036755 -1.57557 0
M  V30 13548 C 1255.85 1.03975 -2.06053 0
M  V30 13549 C 1256.82 1.36384 -0.948089 0
M  V30 13550 O 1258.01 1.46853 -1.21815 0
M  V30 13551 C 1255.15 2.33796 -2.53837 0
M  V30 13552 C 1254.26 2.07614 -3.78841 0
M  V30 13553 C 1253.4 3.3125 -4.15267 0
M  V30 13554 C 1252.44 3.00587 -5.33211 0
M  V30 13555 N 1251.57 4.16653 -5.65106 0
M  V30 13556 H 1256.41 0.61924 -2.91495 0
M  V30 13557 H 1253.95 0.294151 -1.44129 0
M  V30 13558 H 1255.91 3.09639 -2.79606 0
M  V30 13559 H 1254.54 2.73584 -1.71323 0
M  V30 13560 H 1253.59 1.22302 -3.60203 0
M  V30 13561 H 1254.9 1.80989 -4.64806 0
M  V30 13562 H 1254.06 4.15466 -4.42123 0
M  V30 13563 H 1252.79 3.60981 -3.27939 0
M  V30 13564 H 1251.8 2.14772 -5.06115 0
M  V30 13565 H 1253.02 2.72142 -6.22186 0
M  V30 13566 H 1250.97 4.4635 -4.80737 0
M  V30 13567 H 1250.89 3.93425 -6.45564 0
M  V30 13568 H 1252.16 5.01764 -5.96534 0
M  V30 13569 N 1256.39 1.54543 0.308881 0
M  V30 13570 C 1257.32 1.87947 1.38557 0
M  V30 13571 C 1258.3 0.737622 1.53275 0
M  V30 13572 O 1259.48 0.992664 1.66913 0
M  V30 13573 C 1256.61 2.11982 2.75102 0
M  V30 13574 C 1255.57 3.2783 2.75158 0
M  V30 13575 C 1254.89 3.37266 4.14917 0
M  V30 13576 C 1256.19 4.65129 2.37598 0
M  V30 13577 H 1257.89 2.78123 1.1085 0
M  V30 13578 H 1255.43 1.3382 0.531808 0
M  V30 13579 H 1257.38 2.33935 3.50503 0
M  V30 13580 H 1256.11 1.18569 3.04317 0
M  V30 13581 H 1254.77 3.05787 2.02212 0
M  V30 13582 H 1254.42 2.41384 4.41296 0
M  V30 13583 H 1254.12 4.15135 4.15857 0
M  V30 13584 H 1255.64 3.61471 4.92109 0
M  V30 13585 H 1257.05 4.86865 3.02714 0
M  V30 13586 H 1255.45 5.45653 2.49765 0
M  V30 13587 H 1256.52 4.6638 1.32731 0
M  V30 13588 N 1257.86 -0.571685 1.46866 0
M  V30 13589 C 1258.81 -1.70098 1.58649 0
M  V30 13590 C 1259.81 -1.63191 0.45443 0
M  V30 13591 O 1261.01 -1.68551 0.63171 0
M  V30 13592 H 1257.39 -0.56258 0.499007 0
M  V30 13593 H 1259.36 -1.57293 2.53577 0
M  V30 13594 C 1258.11 -3.08475 1.60433 0
M  V30 13595 H 1257.43 -3.14465 2.46884 0
M  V30 13596 H 1258.87 -3.87221 1.7273 0
M  V30 13597 C 1257.33 -3.35231 0.334948 0
M  V30 13598 O 1257.86 -3.97633 -0.570149 0
M  V30 13599 N 1256.06 -2.8977 0.219441 0
M  V30 13600 H 1255.61 -2.39168 0.956891 0
M  V30 13601 H 1255.57 -3.08044 -0.628975 0
M  V30 13602 N 1259.34 -1.34755 -0.817236 0
M  V30 13603 C 1260.59 -1.28629 -1.57563 0
M  V30 13604 C 1260.94 0.141015 -1.91883 0
M  V30 13605 O 1260.24 1.08874 -1.57661 0
M  V30 13606 C 1260.43 -2.11611 -2.8802 0
M  V30 13607 C 1260.26 -3.62266 -2.66446 0
M  V30 13608 C 1259.03 -4.3153 -2.62887 0
M  V30 13609 C 1261.23 -4.56145 -2.37564 0
M  V30 13610 N 1259.21 -5.67999 -2.32918 0
M  V30 13611 C 1260.58 -5.80658 -2.17339 0
M  V30 13612 C 1262.63 -4.44999 -2.23339 0
M  V30 13613 C 1261.34 -6.9528 -1.8433 0
M  V30 13614 C 1263.36 -5.5946 -1.91726 0
M  V30 13615 C 1262.73 -6.82995 -1.72329 0
M  V30 13616 H 1258.82 -0.52593 -0.578724 0
M  V30 13617 H 1261.41 -1.69527 -0.957533 0
M  V30 13618 H 1259.58 -1.73 -3.47743 0
M  V30 13619 H 1261.31 -1.97085 -3.53468 0
M  V30 13620 H 1258.07 -3.84029 -2.77162 0
M  V30 13621 H 1258.49 -6.39996 -2.20757 0
M  V30 13622 H 1263.13 -3.50104 -2.37037 0
M  V30 13623 H 1260.85 -7.90152 -1.69369 0
M  V30 13624 H 1264.44 -5.52784 -1.81443 0
M  V30 13625 H 1263.32 -7.70065 -1.48222 0
M  V30 13626 N 1260.82 1.03812 -1.18578 0
M  V30 13627 C 1261.78 2.10049 -0.91718 0
M  V30 13628 C 1262.78 1.60498 0.0985122 0
M  V30 13629 O 1263.97 1.73674 -0.135213 0
M  V30 13630 C 1261.1 3.38813 -0.376599 0
M  V30 13631 H 1262.3 2.3531 -1.85927 0
M  V30 13632 H 1259.85 1.20277 -0.998156 0
M  V30 13633 H 1260.59 3.19216 0.571983 0
M  V30 13634 H 1260.37 3.76096 -1.10881 0
M  V30 13635 H 1261.86 4.17084 -0.207453 0
M  V30 13636 N 1262.3 0.988223 1.22768 0
M  V30 13637 C 1263.52 0.679426 1.95955 0
M  V30 13638 C 1263.95 -0.748483 1.72567 0
M  V30 13639 O 1263.31 -1.51097 1.00197 0
M  V30 13640 C 1263.35 0.985284 3.46878 0
M  V30 13641 O 1262.46 0.0814607 4.1232 0
M  V30 13642 H 1261.8 0.254749 0.613188 0
M  V30 13643 H 1264.33 1.32393 1.55991 0
M  V30 13644 H 1264.34 0.925198 3.97371 0
M  V30 13645 H 1263.01 2.02581 3.63227 0
M  V30 13646 H 1261.59 0.196629 3.72381 0
M  V30 13647 N 1263.78 -1.38018 0.760839 0
M  V30 13648 C 1264.71 -2.2899 0.0980916 0
M  V30 13649 C 1265.72 -1.48102 -0.675985 0
M  V30 13650 O 1266.91 -1.70883 -0.515878 0
M  V30 13651 C 1264.01 -3.27142 -0.884959 0
M  V30 13652 C 1263.18 -4.37081 -0.167 0
M  V30 13653 C 1262.24 -5.15375 -1.06184 0
M  V30 13654 O 1261.27 -5.6673 -0.529667 0
M  V30 13655 N 1262.47 -5.29052 -2.38924 0
M  V30 13656 H 1265.23 -2.86508 0.879403 0
M  V30 13657 H 1262.8 -1.49877 0.612245 0
M  V30 13658 H 1264.79 -3.764 -1.48678 0
M  V30 13659 H 1263.36 -2.70471 -1.5673 0
M  V30 13660 H 1262.58 -3.89363 0.615617 0
M  V30 13661 H 1263.87 -5.07732 0.329525 0
M  V30 13662 H 1263.26 -4.88892 -2.84607 0
M  V30 13663 H 1261.82 -5.81658 -2.94139 0
M  V30 13664 N 1265.25 -0.510493 -1.49103 0
M  V30 13665 C 1266.5 0.0325393 -2.01674 0
M  V30 13666 C 1266.82 1.37162 -1.39448 0
M  V30 13667 O 1268.02 2.00189 -1.83402 0
M  V30 13668 C 1266.48 0.108433 -3.59737 0
M  V30 13669 C 1266.09 -1.22458 -4.30939 0
M  V30 13670 C 1267.83 0.601326 -4.20219 0
M  V30 13671 C 1265.74 -1.11033 -5.80884 0
M  V30 13672 H 1264.67 0.0159333 -0.753832 0
M  V30 13673 H 1267.32 -0.651344 -1.71551 0
M  V30 13674 H 1265.7 0.856974 -3.86616 0
M  V30 13675 H 1266.87 -1.98715 -4.15751 0
M  V30 13676 H 1265.19 -1.65166 -3.82242 0
M  V30 13677 H 1267.79 0.704462 -5.30039 0
M  V30 13678 H 1268.13 1.60247 -3.84222 0
M  V30 13679 H 1268.66 -0.0909561 -3.97696 0
M  V30 13680 H 1265.4 -2.08603 -6.21422 0
M  V30 13681 H 1264.92 -0.388798 -5.98539 0
M  V30 13682 H 1266.6 -0.792949 -6.42123 0
M  V30 13683 N 1266.73 1.55688 -0.24474 0
M  V30 13684 C 1267.96 2.02995 0.38425 0
M  V30 13685 C 1268.37 1.12339 1.52239 0
M  V30 13686 O 1267.71 0.129803 1.83241 0
M  V30 13687 C 1267.77 3.46564 0.955701 0
M  V30 13688 C 1267.44 4.56973 -0.0499176 0
M  V30 13689 C 1268.44 5.1276 -0.858682 0
M  V30 13690 C 1266.12 5.01994 -0.175383 0
M  V30 13691 C 1268.11 6.12059 -1.77939 0
M  V30 13692 C 1265.8 6.01126 -1.0996 0
M  V30 13693 C 1266.8 6.56037 -1.90013 0
M  V30 13694 O 1266.49 7.53235 -2.80877 0
M  V30 13695 H 1266.22 0.669189 0.0957212 0
M  V30 13696 H 1268.77 2.02121 -0.36555 0
M  V30 13697 H 1267 3.44581 1.75502 0
M  V30 13698 H 1268.69 3.77383 1.49454 0
M  V30 13699 H 1269.46 4.78811 -0.772325 0
M  V30 13700 H 1265.34 4.58918 0.437644 0
M  V30 13701 H 1268.88 6.54845 -2.40465 0
M  V30 13702 H 1264.78 6.34494 -1.18689 0
M  V30 13703 H 1265.55 7.70844 -2.75214 0
M  V30 13704 N 1268.21 -0.0283989 1.57574 0
M  V30 13705 C 1269.17 -1.01346 2.05576 0
M  V30 13706 C 1270.17 -1.28999 0.960001 0
M  V30 13707 O 1271.36 -1.23991 1.2236 0
M  V30 13708 C 1268.49 -2.34611 2.47327 0
M  V30 13709 H 1269.69 -0.598809 2.93861 0
M  V30 13710 H 1267.24 -0.27524 1.53857 0
M  V30 13711 H 1267.98 -2.80823 1.622 0
M  V30 13712 H 1267.76 -2.1587 3.27326 0
M  V30 13713 H 1269.25 -3.05332 2.84889 0
M  V30 13714 N 1269.69 -1.54705 -0.300681 0
M  V30 13715 C 1270.94 -1.73658 -1.0338 0
M  V30 13716 C 1271.26 -0.525447 -1.87787 0
M  V30 13717 O 1270.53 0.460269 -1.90416 0
M  V30 13718 H 1269.11 -0.640338 -0.384677 0
M  V30 13719 H 1271.77 -1.92059 -0.331588 0
M  V30 13720 H 1270.86 -2.62595 -1.68672 0
M  V30 13721 N 1271.17 0.563888 -1.47167 0
M  V30 13722 C 1272.42 1.31766 -1.5271 0
M  V30 13723 C 1272.73 1.94664 -0.191164 0
M  V30 13724 O 1273.93 2.71214 -0.124543 0
M  V30 13725 C 1272.39 2.38907 -2.69168 0
M  V30 13726 C 1272 1.8223 -4.09263 0
M  V30 13727 C 1273.74 3.15508 -2.83999 0
M  V30 13728 C 1271.65 2.87111 -5.17031 0
M  V30 13729 H 1270.58 0.495421 -0.568396 0
M  V30 13730 H 1273.23 0.599665 -1.73425 0
M  V30 13731 H 1271.61 3.13591 -2.4182 0
M  V30 13732 H 1272.79 1.13963 -4.46485 0
M  V30 13733 H 1271.1 1.18235 -3.99261 0
M  V30 13734 H 1273.7 3.93816 -3.61681 0
M  V30 13735 H 1274.04 3.69277 -1.92197 0
M  V30 13736 H 1274.57 2.47934 -3.11085 0
M  V30 13737 H 1271.31 2.38204 -6.10687 0
M  V30 13738 H 1270.83 3.53809 -4.84334 0
M  V30 13739 H 1272.51 3.50724 -5.43692 0
M  V30 13740 N 1272.64 1.35187 0.810078 0
M  V30 13741 C 1273.59 1.27822 1.92173 0
M  V30 13742 C 1274.56 0.150851 1.65414 0
M  V30 13743 O 1275.75 0.333973 1.87854 0
M  V30 13744 C 1272.89 1.05258 3.28656 0
M  V30 13745 C 1272 2.26884 3.67624 0
M  V30 13746 C 1271.13 1.97499 4.9312 0
M  V30 13747 C 1270.17 3.15198 5.24706 0
M  V30 13748 N 1269.31 2.85612 6.41381 0
M  V30 13749 H 1274.15 2.22884 1.97804 0
M  V30 13750 H 1271.69 1.10799 0.967577 0
M  V30 13751 H 1273.65 0.902084 4.07331 0
M  V30 13752 H 1272.28 0.138583 3.22502 0
M  V30 13753 H 1271.33 2.5281 2.84238 0
M  V30 13754 H 1272.64 3.14783 3.86928 0
M  V30 13755 H 1271.79 1.7926 5.79613 0
M  V30 13756 H 1270.53 1.0688 4.75844 0
M  V30 13757 H 1269.54 3.34019 4.36705 0
M  V30 13758 H 1270.76 4.06614 5.43913 0
M  V30 13759 H 1268.71 1.97583 6.25537 0
M  V30 13760 H 1268.63 3.67044 6.60919 0
M  V30 13761 H 1269.89 2.70906 7.3091 0
M  V30 13762 N 1274.12 -1.03182 1.19127 0
M  V30 13763 C 1275.37 -1.76794 0.993563 0
M  V30 13764 C 1275.7 -1.88306 -0.474809 0
M  V30 13765 O 1274.98 -1.39769 -1.35258 0
M  V30 13766 C 1275.26 -3.19573 1.65968 0
M  V30 13767 C 1275.11 -3.1595 3.2015 0
M  V30 13768 C 1276.43 -4.17897 1.38023 0
M  V30 13769 H 1273.55 -0.641768 0.362357 0
M  V30 13770 H 1276.19 -1.20472 1.46924 0
M  V30 13771 H 1274.34 -3.67663 1.25524 0
M  V30 13772 H 1276.01 -2.7578 3.69788 0
M  V30 13773 H 1274.26 -2.53743 3.51848 0
M  V30 13774 H 1274.93 -4.16811 3.61901 0
M  V30 13775 H 1277.4 -3.78394 1.73082 0
M  V30 13776 H 1276.28 -5.15997 1.87186 0
M  V30 13777 H 1276.54 -4.41048 0.304812 0
M  V30 13778 N 1275.6 -0.99472 -1.22242 0
M  V30 13779 C 1277.02 -0.705762 -1.43147 0
M  V30 13780 C 1277.22 0.722908 -1.88086 0
M  V30 13781 O 1276.27 1.49359 -2.03588 0
M  V30 13782 C 1277.59 -1.71288 -2.47145 0
M  V30 13783 C 1279.13 -1.72853 -2.60942 0
M  V30 13784 C 1279.61 -2.72433 -3.68163 0
M  V30 13785 N 1281.1 -2.71039 -3.75623 0
M  V30 13786 C 1281.83 -3.44753 -4.58184 0
M  V30 13787 N 1281.33 -4.28075 -5.44724 0
M  V30 13788 N 1283.12 -3.33451 -4.52512 0
M  V30 13789 H 1275.27 -1.91738 -0.913792 0
M  V30 13790 H 1277.54 -0.82702 -0.463403 0
M  V30 13791 H 1277.24 -2.7353 -2.21075 0
M  V30 13792 H 1277.12 -1.50721 -3.45779 0
M  V30 13793 H 1279.5 -0.713085 -2.86355 0
M  V30 13794 H 1279.59 -1.9749 -1.62577 0
M  V30 13795 H 1279.23 -3.74129 -3.43497 0
M  V30 13796 H 1279.16 -2.45066 -4.66101 0
M  V30 13797 H 1281.65 -2.10581 -3.1379 0
M  V30 13798 H 1281.96 -4.81143 -6.04749 0
M  V30 13799 H 1280.31 -4.32161 -5.44299 0
M  V30 13800 H 1283.5 -2.67797 -3.8393 0
M  V30 13801 H 1283.67 -3.91158 -5.16623 0
M  V30 13802 N 1277.08 1.37613 -0.768148 0
M  V30 13803 C 1278.01 2.28935 -0.110234 0
M  V30 13804 C 1279.02 1.48459 0.668122 0
M  V30 13805 O 1280.21 1.71154 0.506808 0
M  V30 13806 C 1277.31 3.27606 0.867598 0
M  V30 13807 C 1276.49 4.37163 0.143819 0
M  V30 13808 C 1275.54 5.15931 1.03449 0
M  V30 13809 O 1274.57 5.67003 0.499605 0
M  V30 13810 N 1275.77 5.30311 2.36114 0
M  V30 13811 H 1278.54 2.86037 -0.894585 0
M  V30 13812 H 1276.1 1.4955 -0.620185 0
M  V30 13813 H 1278.09 3.77183 1.4668 0
M  V30 13814 H 1276.66 2.71298 1.55294 0
M  V30 13815 H 1275.88 3.89031 -0.636257 0
M  V30 13816 H 1277.17 5.0755 -0.356446 0
M  V30 13817 H 1276.57 4.90394 2.82011 0
M  V30 13818 H 1275.12 5.83209 2.9105 0
M  V30 13819 N 1278.56 0.518393 1.4883 0
M  V30 13820 C 1279.49 -0.239685 2.32267 0
M  V30 13821 C 1280.47 -0.94613 1.41359 0
M  V30 13822 O 1281.65 -0.934162 1.70256 0
M  V30 13823 C 1278.78 -1.29411 3.22289 0
M  V30 13824 C 1277.74 -0.706504 4.22129 0
M  V30 13825 C 1277.06 -1.86273 5.01205 0
M  V30 13826 C 1278.36 0.314079 5.21355 0
M  V30 13827 H 1280.06 0.4568 2.95895 0
M  V30 13828 H 1277.6 0.221126 1.42292 0
M  V30 13829 H 1279.56 -1.8323 3.7948 0
M  V30 13830 H 1278.28 -2.02001 2.56638 0
M  V30 13831 H 1276.94 -0.189924 3.66108 0
M  V30 13832 H 1276.59 -2.57674 4.31988 0
M  V30 13833 H 1276.29 -1.47554 5.68772 0
M  V30 13834 H 1277.81 -2.40492 5.61245 0
M  V30 13835 H 1279.22 -0.136604 5.73137 0
M  V30 13836 H 1277.62 0.618026 5.96909 0
M  V30 13837 H 1278.69 1.22394 4.69199 0
M  V30 13838 N 1280.03 -1.55556 0.252993 0
M  V30 13839 C 1281.27 -2.00995 -0.371513 0
M  V30 13840 C 1281.64 -1.13739 -1.54685 0
M  V30 13841 O 1282.84 -1.4866 -2.2395 0
M  V30 13842 C 1281.11 -3.49112 -0.765205 0
M  V30 13843 S 1282.67 -4.16556 -1.37938 0
M  V30 13844 H 1279.49 -0.70137 -0.116625 0
M  V30 13845 H 1282.09 -1.91973 0.369654 0
M  V30 13846 H 1280.79 -4.1028 0.0994153 0
M  V30 13847 H 1280.32 -3.62073 -1.5384 0
M  V30 13848 H 1282.34 -4.18346 -2.66835 0
M  V30 13849 N 1281.51 0.0200419 -1.57587 0
M  V30 13850 C 1282.46 1.01784 -2.07144 0
M  V30 13851 C 1283.43 1.3537 -0.962501 0
M  V30 13852 O 1284.61 1.45553 -1.23365 0
M  V30 13853 C 1281.75 2.31091 -2.56302 0
M  V30 13854 C 1280.87 2.03584 -3.81022 0
M  V30 13855 C 1280 3.26827 -4.18757 0
M  V30 13856 C 1279.04 2.94915 -5.36369 0
M  V30 13857 N 1278.18 4.10636 -5.69493 0
M  V30 13858 H 1283.02 0.588288 -2.92136 0
M  V30 13859 H 1280.56 0.278848 -1.44433 0
M  V30 13860 H 1282.51 3.06656 -2.82874 0
M  V30 13861 H 1281.14 2.71752 -1.74215 0
M  V30 13862 H 1280.2 1.18475 -3.6148 0
M  V30 13863 H 1281.51 1.76049 -4.66699 0
M  V30 13864 H 1280.66 4.10753 -4.46505 0
M  V30 13865 H 1279.4 3.57483 -3.31749 0
M  V30 13866 H 1278.41 2.09392 -5.08365 0
M  V30 13867 H 1279.63 2.65528 -6.25037 0
M  V30 13868 H 1277.58 4.41226 -4.85444 0
M  V30 13869 H 1277.49 3.86556 -6.497 0
M  V30 13870 H 1278.76 4.95409 -6.01822 0
M  V30 13871 N 1282.99 1.54862 0.292472 0
M  V30 13872 C 1283.92 1.89406 1.36556 0
M  V30 13873 C 1284.9 0.753838 1.52484 0
M  V30 13874 O 1286.09 1.01031 1.6585 0
M  V30 13875 C 1283.22 2.14888 2.72838 0
M  V30 13876 C 1282.17 3.3073 2.71665 0
M  V30 13877 C 1281.5 3.41648 4.11316 0
M  V30 13878 C 1282.8 4.67622 2.32651 0
M  V30 13879 H 1284.49 2.79284 1.07894 0
M  V30 13880 H 1282.04 1.34377 0.517585 0
M  V30 13881 H 1283.99 2.3764 3.48002 0
M  V30 13882 H 1282.71 1.2179 3.03042 0
M  V30 13883 H 1281.37 3.07915 1.98958 0
M  V30 13884 H 1281.02 2.46051 4.38711 0
M  V30 13885 H 1280.72 4.19522 4.11431 0
M  V30 13886 H 1282.24 3.6667 4.88248 0
M  V30 13887 H 1283.66 4.90048 2.97533 0
M  V30 13888 H 1282.06 5.48272 2.43963 0
M  V30 13889 H 1283.13 4.67762 1.27777 0
M  V30 13890 N 1284.47 -0.556076 1.47464 0
M  V30 13891 C 1285.4 -1.67275 1.62915 0
M  V30 13892 C 1286.38 -1.63229 0.478562 0
M  V30 13893 O 1287.56 -1.80833 0.708032 0
M  V30 13894 C 1284.69 -3.05911 1.64426 0
M  V30 13895 C 1283.65 -3.24804 2.78722 0
M  V30 13896 C 1282.97 -4.64238 2.65307 0
M  V30 13897 C 1284.27 -3.10071 4.20302 0
M  V30 13898 H 1285.97 -1.54601 2.56396 0
M  V30 13899 H 1283.51 -0.742337 1.23391 0
M  V30 13900 H 1285.47 -3.83878 1.73826 0
M  V30 13901 H 1284.19 -3.19547 0.675053 0
M  V30 13902 H 1282.85 -2.49246 2.68835 0
M  V30 13903 H 1282.5 -4.74675 1.66412 0
M  V30 13904 H 1282.2 -4.77828 3.41986 0
M  V30 13905 H 1283.72 -5.44339 2.76637 0
M  V30 13906 H 1285.14 -3.77855 4.3116 0
M  V30 13907 H 1283.53 -3.3517 4.97776 0
M  V30 13908 H 1284.6 -2.06803 4.38589 0
M  V30 13909 N 1285.95 -1.35615 -0.802897 0
M  V30 13910 C 1287.36 -1.15733 -1.099 0
M  V30 13911 C 1287.56 0.0277094 -2.01481 0
M  V30 13912 O 1286.62 0.697196 -2.42684 0
M  V30 13913 C 1287.93 -2.46201 -1.72643 0
M  V30 13914 C 1289.48 -2.52442 -1.85046 0
M  V30 13915 C 1289.96 -3.82962 -2.51205 0
M  V30 13916 N 1291.45 -3.84234 -2.58686 0
M  V30 13917 C 1292.18 -4.81956 -3.10654 0
M  V30 13918 N 1291.68 -5.90068 -3.63032 0
M  V30 13919 N 1293.47 -4.69389 -3.09241 0
M  V30 13920 H 1285.62 -2.11511 -0.194177 0
M  V30 13921 H 1287.88 -0.936259 -0.148739 0
M  V30 13922 H 1287.59 -3.33114 -1.12817 0
M  V30 13923 H 1287.46 -2.6102 -2.72302 0
M  V30 13924 H 1289.85 -1.65955 -2.44014 0
M  V30 13925 H 1289.93 -2.41534 -0.842316 0
M  V30 13926 H 1289.58 -4.69848 -1.92885 0
M  V30 13927 H 1289.51 -3.9116 -3.52564 0
M  V30 13928 H 1292 -3.0612 -2.21582 0
M  V30 13929 H 1292.31 -6.60623 -4.00996 0
M  V30 13930 H 1290.66 -5.93755 -3.6122 0
M  V30 13931 H 1293.85 -3.84066 -2.67602 0
M  V30 13932 H 1294.02 -5.4571 -3.49435 0
M  V30 13933 N 1287.43 1.02549 -1.19673 0
M  V30 13934 C 1288.67 1.75656 -0.999463 0
M  V30 13935 C 1288.99 1.89238 0.470517 0
M  V30 13936 O 1288.26 1.42843 1.34062 0
M  V30 13937 H 1286.84 0.650732 -0.366821 0
M  V30 13938 H 1289.51 1.23684 -1.50627 0
M  V30 13939 H 1288.6 2.76353 -1.45035 0
M  V30 13940 N 1288.9 1.00119 1.21713 0
M  V30 13941 C 1290.13 0.700431 1.94683 0
M  V30 13942 C 1290.55 -0.736333 1.73849 0
M  V30 13943 O 1289.9 -1.49778 1.04272 0
M  V30 13944 C 1289.95 1.00722 3.47185 0
M  V30 13945 O 1289.68 2.38754 3.67326 0
M  V30 13946 C 1291.18 0.725335 4.37326 0
M  V30 13947 H 1288.4 0.25843 0.619238 0
M  V30 13948 H 1290.94 1.3382 1.54636 0
M  V30 13949 H 1289.1 0.415117 3.85169 0
M  V30 13950 H 1289.51 2.49321 4.61454 0
M  V30 13951 H 1290.98 0.990202 5.43046 0
M  V30 13952 H 1291.46 -0.340649 4.37877 0
M  V30 13953 H 1292.07 1.29888 4.04981 0
M  V30 13954 N 1290.38 -1.37203 0.775435 0
M  V30 13955 C 1291.33 -2.30228 0.162388 0
M  V30 13956 C 1292.3 -1.51284 -0.685747 0
M  V30 13957 O 1293.48 -1.7984 -0.637342 0
M  V30 13958 C 1290.62 -3.37762 -0.707858 0
M  V30 13959 C 1289.74 -4.31714 0.157287 0
M  V30 13960 C 1288.87 -5.26325 -0.718012 0
M  V30 13961 C 1287.91 -6.11918 0.149442 0
M  V30 13962 N 1287.05 -6.9876 -0.684043 0
M  V30 13963 H 1291.89 -2.82073 0.961184 0
M  V30 13964 H 1289.42 -1.38854 0.485587 0
M  V30 13965 H 1291.38 -3.98741 -1.22726 0
M  V30 13966 H 1290.01 -2.87273 -1.47222 0
M  V30 13967 H 1289.06 -3.7201 0.794533 0
M  V30 13968 H 1290.38 -4.91909 0.826262 0
M  V30 13969 H 1289.53 -5.92526 -1.30376 0
M  V30 13970 H 1288.27 -4.6655 -1.42066 0
M  V30 13971 H 1287.27 -5.44692 0.747697 0
M  V30 13972 H 1288.5 -6.73766 0.849476 0
M  V30 13973 H 1286.45 -6.41508 -1.37124 0
M  V30 13974 H 1286.36 -7.55965 -0.0724464 0
M  V30 13975 H 1287.63 -7.69346 -1.25407 0
M  V30 13976 N 1291.86 -0.526279 -1.48553 0
M  V30 13977 C 1292.82 0.227739 -2.28066 0
M  V30 13978 C 1293.82 0.871146 -1.35158 0
M  V30 13979 O 1295.01 0.731769 -1.58085 0
M  V30 13980 C 1292.14 1.32918 -3.1392 0
M  V30 13981 H 1293.34 -0.470313 -2.96189 0
M  V30 13982 H 1290.89 -0.282089 -1.53733 0
M  V30 13983 H 1291.63 2.0606 -2.50419 0
M  V30 13984 H 1291.41 0.872991 -3.82258 0
M  V30 13985 H 1292.9 1.85964 -3.73908 0
M  V30 13986 N 1293.34 1.5542 -0.261239 0
M  V30 13987 C 1294.27 2.24949 0.626126 0
M  V30 13988 C 1295.25 1.23474 1.16997 0
M  V30 13989 O 1296.43 1.52161 1.20667 0
M  V30 13990 C 1293.56 2.95996 1.81669 0
M  V30 13991 C 1292.52 4.04282 1.40499 0
M  V30 13992 C 1291.84 4.62831 2.67753 0
M  V30 13993 C 1293.14 5.1923 0.56543 0
M  V30 13994 H 1294.84 2.99364 0.0463164 0
M  V30 13995 H 1292.38 1.43985 0.0208366 0
M  V30 13996 H 1294.34 3.43343 2.44323 0
M  V30 13997 H 1293.06 2.19093 2.42211 0
M  V30 13998 H 1291.72 3.57726 0.801712 0
M  V30 13999 H 1291.37 3.82611 3.26524 0
M  V30 14000 H 1291.07 5.35938 2.40925 0
M  V30 14001 H 1292.59 5.12918 3.31281 0
M  V30 14002 H 1294.01 5.62714 1.09663 0
M  V30 14003 H 1292.4 5.98814 0.392607 0
M  V30 14004 H 1293.47 4.83086 -0.419059 0
M  V30 14005 N 1294.82 -0.0116844 1.57596 0
M  V30 14006 C 1296.04 -0.71026 1.94327 0
M  V30 14007 C 1296.46 -1.67952 0.862418 0
M  V30 14008 O 1295.82 -1.818 -0.159698 0
M  V30 14009 C 1295.87 -1.45228 3.31045 0
M  V30 14010 O 1295.59 -0.52191 4.3498 0
M  V30 14011 C 1297.09 -2.24644 3.82165 0
M  V30 14012 H 1294.31 -0.198559 0.640949 0
M  V30 14013 H 1296.85 0.0359615 2.04468 0
M  V30 14014 H 1295.01 -2.15023 3.22248 0
M  V30 14015 H 1295.42 -1.04415 5.14002 0
M  V30 14016 H 1296.9 -2.72078 4.80289 0
M  V30 14017 H 1297.37 -3.06817 3.14261 0
M  V30 14018 H 1297.98 -1.59888 3.94101 0
M  V30 14019 N 1296.29 -1.55015 -0.284256 0
M  V30 14020 C 1297.2 -1.90203 -1.37332 0
M  V30 14021 C 1298.22 -0.797994 -1.54622 0
M  V30 14022 O 1299.4 -1.09602 -1.68965 0
M  V30 14023 C 1296.46 -2.15687 -2.71441 0
M  V30 14024 C 1295.52 -3.39313 -2.62993 0
M  V30 14025 C 1294.75 -3.63571 -3.90707 0
M  V30 14026 O 1294.98 -2.90538 -4.9086 0
M  V30 14027 O 1293.91 -4.57102 -3.91589 0
M  V30 14028 H 1297.74 -2.82888 -1.1049 0
M  V30 14029 H 1295.32 -1.41418 -0.481798 0
M  V30 14030 H 1297.2 -2.33553 -3.50758 0
M  V30 14031 H 1295.88 -1.26185 -2.98092 0
M  V30 14032 H 1294.79 -3.26793 -1.82091 0
M  V30 14033 H 1296.12 -4.28997 -2.41293 0
M  V30 14034 N 1297.77 0.548248 -1.47757 0
M  V30 14035 C 1299.02 1.30694 -1.55071 0
M  V30 14036 C 1299.35 1.92994 -0.216075 0
M  V30 14037 O 1298.63 1.78341 0.776196 0
M  V30 14038 C 1298.91 2.41024 -2.67543 0
M  V30 14039 C 1298.76 1.83534 -4.10652 0
M  V30 14040 C 1300.08 3.42902 -2.75874 0
M  V30 14041 H 1297.2 0.47383 -0.564494 0
M  V30 14042 H 1299.84 0.612628 -1.79852 0
M  V30 14043 H 1297.99 3.00248 -2.46543 0
M  V30 14044 H 1299.66 1.28503 -4.4304 0
M  V30 14045 H 1297.91 1.14161 -4.18509 0
M  V30 14046 H 1298.58 2.63335 -4.85138 0
M  V30 14047 H 1301.05 2.9361 -2.94843 0
M  V30 14048 H 1299.93 4.17516 -3.5633 0
M  V30 14049 H 1300.19 4.02314 -1.83291 0
M  V30 14050 N 1299.25 1.36039 0.795694 0
M  V30 14051 C 1300.5 1.29251 1.54845 0
M  V30 14052 C 1300.81 -0.127926 1.95181 0
M  V30 14053 O 1302.02 -0.318141 2.6963 0
M  V30 14054 C 1300.47 2.26736 2.79497 0
M  V30 14055 C 1300.08 3.74183 2.46355 0
M  V30 14056 C 1301.83 2.28913 3.5749 0
M  V30 14057 C 1299.73 4.63462 3.67365 0
M  V30 14058 H 1298.66 0.48027 0.581255 0
M  V30 14059 H 1301.31 1.61366 0.873693 0
M  V30 14060 H 1299.7 1.87608 3.4874 0
M  V30 14061 H 1300.87 4.22011 1.8505 0
M  V30 14062 H 1299.18 3.7472 1.81586 0
M  V30 14063 H 1301.78 2.92828 4.47388 0
M  V30 14064 H 1302.12 1.2959 3.95616 0
M  V30 14065 H 1302.66 2.66627 2.9522 0
M  V30 14066 H 1299.4 5.63824 3.34339 0
M  V30 14067 H 1298.92 4.20354 4.27858 0
M  V30 14068 H 1300.6 4.79424 4.34467 0
M  V30 14069 N 1300.73 -1.01913 1.20215 0
M  V30 14070 C 1302.14 -1.5692 1.01159 0
M  V30 14071 C 1302.49 -1.91368 -0.432746 0
M  V30 14072 O 1301.62 -1.71959 -1.31374 0
M  V30 14073 C 1302.21 -2.85125 1.83001 0
M  V30 14074 C 1300.77 -3.36669 1.68318 0
M  V30 14075 C 1299.92 -2.10003 1.81091 0
M  V30 14076 H 1302.87 -0.843246 1.34443 0
M  V30 14077 H 1302.89 -3.56428 1.33188 0
M  V30 14078 H 1302.4 -2.60021 2.88116 0
M  V30 14079 H 1300.5 -3.66739 0.658292 0
M  V30 14080 H 1300.61 -4.09042 2.49442 0
M  V30 14081 H 1298.98 -2.22337 1.24252 0
M  V30 14082 H 1299.76 -1.87329 2.87685 0
M  V30 14083 N 1302.21 -1.00763 -1.2118 0
M  V30 14084 C 1303.14 -0.590493 -2.2591 0
M  V30 14085 C 1304.12 0.390002 -1.65569 0
M  V30 14086 O 1305.3 0.277406 -1.92208 0
M  V30 14087 C 1302.43 0.0810388 -3.47205 0
M  V30 14088 C 1301.39 -0.81951 -4.20081 0
M  V30 14089 C 1300.71 -0.014244 -5.34698 0
M  V30 14090 C 1302.01 -2.12336 -4.7719 0
M  V30 14091 H 1303.71 -1.46595 -2.61056 0
M  V30 14092 H 1301.25 -0.706321 -1.25487 0
M  V30 14093 H 1303.21 0.384355 -4.19644 0
M  V30 14094 H 1301.93 0.991145 -3.11197 0
M  V30 14095 H 1300.59 -1.10669 -3.49497 0
M  V30 14096 H 1300.24 0.897233 -4.94933 0
M  V30 14097 H 1299.94 -0.613883 -5.84384 0
M  V30 14098 H 1301.46 0.282827 -6.09945 0
M  V30 14099 H 1302.87 -1.88301 -5.41494 0
M  V30 14100 H 1301.27 -2.67308 -5.37277 0
M  V30 14101 H 1302.34 -2.79238 -3.96427 0
M  V30 14102 N 1303.68 1.3679 -0.7827 0
M  V30 14103 C 1304.91 2.03678 -0.363734 0
M  V30 14104 C 1305.33 1.59024 1.01768 0
M  V30 14105 O 1304.68 0.776541 1.65155 0
M  V30 14106 C 1304.74 3.59165 -0.410213 0
M  V30 14107 O 1304.46 4.02188 -1.73714 0
M  V30 14108 C 1305.96 4.43296 0.018972 0
M  V30 14109 H 1303.18 0.653828 -0.150829 0
M  V30 14110 H 1305.72 1.74903 -1.05968 0
M  V30 14111 H 1303.88 3.86673 0.237249 0
M  V30 14112 H 1304.29 4.96754 -1.68332 0
M  V30 14113 H 1305.76 5.51962 -0.0646943 0
M  V30 14114 H 1306.24 4.25948 1.07076 0
M  V30 14115 H 1306.85 4.21036 -0.600721 0
M  V30 14116 N 1305.16 0.53415 1.48272 0
M  V30 14117 C 1306.07 -0.230062 2.33469 0
M  V30 14118 C 1307.09 -0.934889 1.46751 0
M  V30 14119 O 1308.26 -0.908921 1.79724 0
M  V30 14120 C 1305.33 -1.2609 3.22958 0
M  V30 14121 C 1304.39 -0.565983 4.25553 0
M  V30 14122 C 1303.62 -1.54771 5.10766 0
M  V30 14123 O 1303.85 -2.7807 4.9803 0
M  V30 14124 O 1302.78 -1.08482 5.92043 0
M  V30 14125 H 1306.61 0.468182 3.0007 0
M  V30 14126 H 1304.19 0.29502 1.46458 0
M  V30 14127 H 1306.07 -1.85652 3.783 0
M  V30 14128 H 1304.75 -1.94148 2.59014 0
M  V30 14129 H 1303.66 0.0702391 3.74034 0
M  V30 14130 H 1304.99 0.0727277 4.92146 0
M  V30 14131 N 1306.64 -1.55279 0.269478 0
M  V30 14132 C 1307.55 -2.25965 -0.63065 0
M  V30 14133 C 1308.57 -1.28357 -1.17476 0
M  V30 14134 O 1309.74 -1.61281 -1.20625 0
M  V30 14135 C 1306.81 -2.96263 -1.80081 0
M  V30 14136 C 1305.87 -4.09336 -1.29394 0
M  V30 14137 C 1305.1 -4.76272 -2.40833 0
M  V30 14138 O 1305.32 -4.42389 -3.60066 0
M  V30 14139 O 1304.26 -5.64334 -2.09309 0
M  V30 14140 H 1308.08 -3.03644 -0.0582069 0
M  V30 14141 H 1305.67 -1.49354 0.0370966 0
M  V30 14142 H 1307.55 -3.40461 -2.48322 0
M  V30 14143 H 1306.23 -2.21505 -2.36045 0
M  V30 14144 H 1305.13 -3.69605 -0.578154 0
M  V30 14145 H 1306.47 -4.85978 -0.780117 0
M  V30 14146 N 1308.12 0.00332656 -1.576 0
M  V30 14147 C 1309.08 0.980628 -2.07163 0
M  V30 14148 C 1310.08 1.27455 -0.980402 0
M  V30 14149 O 1311.27 1.22029 -1.24317 0
M  V30 14150 C 1308.4 2.30647 -2.51028 0
M  V30 14151 H 1309.6 0.551982 -2.94776 0
M  V30 14152 H 1307.15 0.250728 -1.54276 0
M  V30 14153 H 1307.88 2.78207 -1.66647 0
M  V30 14154 H 1307.67 2.10635 -3.30719 0
M  V30 14155 H 1309.16 3.00761 -2.89711 0
M  V30 14156 N 1309.6 1.55164 0.276031 0
M  V30 14157 C 1310.51 1.90928 1.36321 0
M  V30 14158 C 1311.52 0.806183 1.54197 0
M  V30 14159 O 1312.7 1.10497 1.68382 0
M  V30 14160 C 1309.76 2.17123 2.70293 0
M  V30 14161 C 1308.82 3.40703 2.6119 0
M  V30 14162 C 1308.06 3.65638 3.88773 0
M  V30 14163 O 1308.28 2.93137 4.89313 0
M  V30 14164 O 1307.21 4.59172 3.89159 0
M  V30 14165 H 1311.04 2.8347 1.08988 0
M  V30 14166 H 1308.63 1.41672 0.474292 0
M  V30 14167 H 1310.51 2.3541 3.49514 0
M  V30 14168 H 1309.18 1.27765 2.97419 0
M  V30 14169 H 1308.09 3.27754 1.80355 0
M  V30 14170 H 1309.42 4.30271 2.39014 0
M  V30 14171 N 1311.07 -0.540404 1.48045 0
M  V30 14172 C 1312 -1.65538 1.6468 0
M  V30 14173 C 1312.99 -1.62713 0.495847 0
M  V30 14174 O 1314.17 -1.80072 0.727172 0
M  V30 14175 C 1311.3 -3.0415 1.67661 0
M  V30 14176 C 1310.25 -3.2183 2.82152 0
M  V30 14177 C 1309.58 -4.61397 2.70216 0
M  V30 14178 C 1310.88 -3.05596 4.23567 0
M  V30 14179 H 1312.57 -1.51873 2.58021 0
M  V30 14180 H 1310.12 -0.729208 1.24171 0
M  V30 14181 H 1312.07 -3.82013 1.77887 0
M  V30 14182 H 1310.8 -3.18814 0.708907 0
M  V30 14183 H 1309.46 -2.4638 2.71463 0
M  V30 14184 H 1309.1 -4.72883 1.71437 0
M  V30 14185 H 1308.8 -4.74174 3.47035 0
M  V30 14186 H 1310.33 -5.41374 2.82395 0
M  V30 14187 H 1311.74 -3.73261 4.35143 0
M  V30 14188 H 1310.14 -3.29871 5.01303 0
M  V30 14189 H 1311.21 -2.0214 4.40758 0
M  V30 14190 N 1312.55 -1.36459 -0.788468 0
M  V30 14191 C 1313.46 -1.33017 -1.93245 0
M  V30 14192 C 1314.48 -0.232212 -1.72444 0
M  V30 14193 O 1315.65 -0.464743 -1.95965 0
M  V30 14194 C 1312.72 -1.1197 -3.28121 0
M  V30 14195 C 1311.78 -2.3125 -3.61693 0
M  V30 14196 C 1311.01 -2.11197 -4.90134 0
M  V30 14197 O 1311.24 -1.08764 -5.59934 0
M  V30 14198 O 1310.17 -2.98996 -5.22384 0
M  V30 14199 H 1314 -2.29333 -1.99098 0
M  V30 14200 H 1311.58 -1.17016 -0.928856 0
M  V30 14201 H 1313.46 -1.02154 -4.08831 0
M  V30 14202 H 1312.14 -0.187171 -3.23158 0
M  V30 14203 H 1311.05 -2.46635 -2.81286 0
M  V30 14204 H 1312.38 -3.23012 -3.71381 0
M  V30 14205 N 1314.03 1.01274 -1.20754 0
M  V30 14206 C 1314.96 2.11763 -0.983805 0
M  V30 14207 C 1315.94 1.69869 0.0885635 0
M  V30 14208 O 1317.13 1.94075 -0.0697239 0
M  V30 14209 C 1314.26 3.43087 -0.539287 0
M  V30 14210 C 1313.21 3.9874 -1.55534 0
M  V30 14211 C 1312.54 5.25877 -0.967322 0
M  V30 14212 C 1313.84 4.31688 -2.94012 0
M  V30 14213 H 1315.53 2.30737 -1.90789 0
M  V30 14214 H 1313.08 1.10884 -0.918734 0
M  V30 14215 H 1315.03 4.19773 -0.369979 0
M  V30 14216 H 1313.75 3.23883 0.420435 0
M  V30 14217 H 1312.41 3.24166 -1.71207 0
M  V30 14218 H 1312.06 5.03 0.000448307 0
M  V30 14219 H 1311.76 5.64077 -1.64594 0
M  V30 14220 H 1313.28 6.05215 -0.809167 0
M  V30 14221 H 1314.7 4.99246 -2.81827 0
M  V30 14222 H 1313.1 4.81011 -3.58815 0
M  V30 14223 H 1314.17 3.4029 -3.45442 0
M  V30 14224 N 1315.51 1.01404 1.20644 0
M  V30 14225 C 1316.47 0.586941 2.21557 0
M  V30 14226 C 1317.47 -0.341543 1.57131 0
M  V30 14227 O 1318.66 -0.130585 1.7371 0
M  V30 14228 C 1315.79 -0.143248 3.40599 0
M  V30 14229 H 1316.99 1.47964 2.60858 0
M  V30 14230 H 1314.54 0.803551 1.34063 0
M  V30 14231 H 1315.28 -1.05097 3.06798 0
M  V30 14232 H 1315.06 0.523716 3.88587 0
M  V30 14233 H 1316.55 -0.429504 4.15385 0
M  V30 14234 N 1316.99 -1.36373 0.789944 0
M  V30 14235 C 1317.9 -2.3383 0.189873 0
M  V30 14236 C 1318.91 -1.61068 -0.65827 0
M  V30 14237 O 1320.09 -1.93049 -0.573932 0
M  V30 14238 C 1317.15 -3.40264 -0.664905 0
M  V30 14239 C 1316.22 -4.28825 0.201798 0
M  V30 14240 C 1315.45 -5.30176 -0.612278 0
M  V30 14241 O 1315.67 -5.39627 -1.84821 0
M  V30 14242 O 1314.61 -6.01899 -0.0118964 0
M  V30 14243 H 1318.43 -2.86915 0.995671 0
M  V30 14244 H 1316.02 -1.38852 0.551412 0
M  V30 14245 H 1317.9 -4.05339 -1.15231 0
M  V30 14246 H 1316.57 -2.89478 -1.44858 0
M  V30 14247 H 1315.48 -3.66789 0.735974 0
M  V30 14248 H 1316.81 -4.82965 0.949003 0
M  V30 14249 N 1318.47 -0.542005 -1.47987 0
M  V30 14250 C 1319.41 0.227398 -2.31486 0
M  V30 14251 C 1320.41 0.923984 -1.41982 0
M  V30 14252 O 1321.61 0.847 -1.58827 0
M  V30 14253 H 1317.99 0.0922034 -0.746326 0
M  V30 14254 H 1319.96 -0.49625 -2.94245 0
M  V30 14255 C 1318.71 1.25384 -3.24306 0
M  V30 14256 H 1318.03 0.727243 -3.9313 0
M  V30 14257 H 1319.47 1.76337 -3.85592 0
M  V30 14258 C 1317.93 2.29378 -2.46754 0
M  V30 14259 O 1318.46 3.36034 -2.201 0
M  V30 14260 N 1316.67 2.02905 -2.08033 0
M  V30 14261 H 1316.21 1.16186 -2.2991 0
M  V30 14262 H 1316.17 2.72705 -1.56458 0
M  V30 14263 N 1319.94 1.55134 -0.277709 0
M  V30 14264 C 1321.36 1.59417 0.0763615 0
M  V30 14265 C 1321.56 1.29491 1.54384 0
M  V30 14266 O 1320.62 1.05703 2.2931 0
M  V30 14267 C 1321.93 2.99194 -0.300607 0
M  V30 14268 C 1323.48 3.1202 -0.247438 0
M  V30 14269 C 1323.95 4.54068 -0.598884 0
M  V30 14270 N 1325.44 4.59917 -0.550534 0
M  V30 14271 C 1326.18 5.67859 -0.795235 0
M  V30 14272 N 1325.67 6.83936 -1.10469 0
M  V30 14273 N 1327.47 5.5742 -0.723859 0
M  V30 14274 H 1319.62 1.72851 -1.23435 0
M  V30 14275 H 1321.88 0.806137 -0.498846 0
M  V30 14276 H 1321.59 3.25937 -1.32129 0
M  V30 14277 H 1321.46 3.75504 0.35729 0
M  V30 14278 H 1323.85 2.8504 0.763959 0
M  V30 14279 H 1323.93 2.37917 -0.939629 0
M  V30 14280 H 1323.57 4.81774 -1.60798 0
M  V30 14281 H 1323.5 5.26474 0.115126 0
M  V30 14282 H 1325.99 3.76531 -0.321341 0
M  V30 14283 H 1326.31 7.62159 -1.278 0
M  V30 14284 H 1324.65 6.85545 -1.14249 0
M  V30 14285 H 1327.84 4.65613 -0.481925 0
M  V30 14286 H 1328.02 6.41465 -0.917944 0
M  V30 14287 N 1321.42 0.00503138 1.57599 0
M  V30 14288 C 1322.33 -1.00097 2.12174 0
M  V30 14289 C 1323.35 -1.37353 1.06818 0
M  V30 14290 O 1324.52 -1.45984 1.38747 0
M  V30 14291 C 1321.59 -2.27252 2.61835 0
M  V30 14292 C 1320.65 -1.96262 3.81811 0
M  V30 14293 C 1319.88 -3.17355 4.29094 0
M  V30 14294 O 1320.11 -4.2921 3.75679 0
M  V30 14295 O 1319.04 -3.01059 5.21198 0
M  V30 14296 H 1322.87 -0.567024 2.9836 0
M  V30 14297 H 1320.45 -0.214109 1.47858 0
M  V30 14298 H 1322.33 -3.01944 2.93952 0
M  V30 14299 H 1321.01 -2.69875 1.78744 0
M  V30 14300 H 1319.91 -1.19031 3.54658 0
M  V30 14301 H 1321.25 -1.58473 4.65991 0
M  V30 14302 N 1322.9 -1.55308 -0.267798 0
M  V30 14303 C 1324.15 -1.75364 -0.996515 0
M  V30 14304 C 1324.46 -0.565028 -1.87261 0
M  V30 14305 O 1325.67 -0.648119 -2.63651 0
M  V30 14306 C 1324.12 -3.10388 -1.82175 0
M  V30 14307 C 1323.73 -4.36832 -0.994062 0
M  V30 14308 C 1325.48 -3.39791 -2.54445 0
M  V30 14309 C 1323.38 -5.62893 -1.81398 0
M  V30 14310 H 1322.31 -0.653679 -0.375793 0
M  V30 14311 H 1324.96 -1.81762 -0.251975 0
M  V30 14312 H 1323.35 -2.98041 -2.60744 0
M  V30 14313 H 1324.52 -4.6011 -0.252167 0
M  V30 14314 H 1322.83 -4.1461 -0.385662 0
M  V30 14315 H 1325.43 -4.31184 -3.16203 0
M  V30 14316 H 1325.77 -2.60159 -3.24997 0
M  V30 14317 H 1326.31 -3.53259 -1.82902 0
M  V30 14318 H 1323.05 -6.45287 -1.15258 0
M  V30 14319 H 1322.57 -5.43751 -2.5317 0
M  V30 14320 H 1324.25 -6.01384 -2.38634 0
M  V30 14321 N 1324.38 0.532545 -1.4833 0
M  V30 14322 C 1325.31 1.64662 -1.65555 0
M  V30 14323 C 1326.29 1.62447 -0.50447 0
M  V30 14324 O 1327.47 1.79684 -0.736712 0
M  V30 14325 C 1324.6 3.03256 -1.69272 0
M  V30 14326 C 1323.56 3.20329 -2.83854 0
M  V30 14327 C 1322.88 4.59958 -2.72659 0
M  V30 14328 C 1324.18 3.03345 -4.25181 0
M  V30 14329 H 1325.88 1.50502 -2.58823 0
M  V30 14330 H 1323.42 0.722612 -1.24556 0
M  V30 14331 H 1325.38 3.81064 -1.79911 0
M  V30 14332 H 1324.1 3.18433 -0.725805 0
M  V30 14333 H 1322.76 2.44937 -2.72766 0
M  V30 14334 H 1322.41 4.71967 -1.73942 0
M  V30 14335 H 1322.11 4.72327 -3.49544 0
M  V30 14336 H 1323.63 5.39869 -2.85262 0
M  V30 14337 H 1325.05 3.70948 -4.37116 0
M  V30 14338 H 1323.44 3.27208 -5.03045 0
M  V30 14339 H 1324.51 1.998 -4.41824 0
M  V30 14340 N 1325.86 1.36875 0.78122 0
M  V30 14341 C 1326.8 1.31869 1.89418 0
M  V30 14342 C 1327.77 0.185904 1.65056 0
M  V30 14343 O 1328.96 0.373745 1.87104 0
M  V30 14344 C 1326.1 1.12205 3.2635 0
M  V30 14345 C 1325.21 2.34631 3.62729 0
M  V30 14346 C 1324.35 2.07914 4.8882 0
M  V30 14347 C 1323.38 3.26257 5.17902 0
M  V30 14348 N 1322.52 2.99152 6.35179 0
M  V30 14349 H 1327.36 2.2703 1.93032 0
M  V30 14350 H 1324.9 1.12826 0.943857 0
M  V30 14351 H 1326.86 0.988282 4.05326 0
M  V30 14352 H 1325.49 0.206959 3.22136 0
M  V30 14353 H 1324.54 2.58782 2.78812 0
M  V30 14354 H 1325.85 3.22919 3.80164 0
M  V30 14355 H 1325 1.91514 5.7568 0
M  V30 14356 H 1323.74 1.1695 4.7347 0
M  V30 14357 H 1322.75 3.43207 4.29522 0
M  V30 14358 H 1323.97 4.1806 5.35166 0
M  V30 14359 H 1321.92 2.10807 6.21205 0
M  V30 14360 H 1321.84 3.80981 6.52985 0
M  V30 14361 H 1323.1 2.86349 7.25 0
M  V30 14362 N 1327.33 -1.00632 1.21289 0
M  V30 14363 C 1328.24 -2.12829 0.986957 0
M  V30 14364 C 1329.26 -1.73895 -0.0605152 0
M  V30 14365 O 1330.44 -2.00985 0.129238 0
M  V30 14366 C 1327.5 -3.4226 0.553089 0
M  V30 14367 C 1326.56 -3.95376 1.67262 0
M  V30 14368 C 1325.79 -5.18629 1.25936 0
M  V30 14369 O 1326.02 -5.70246 0.132402 0
M  V30 14370 O 1324.95 -5.65157 2.07077 0
M  V30 14371 H 1328.78 -2.34765 1.92663 0
M  V30 14372 H 1326.36 -1.11208 0.997654 0
M  V30 14373 H 1328.24 -4.20177 0.320856 0
M  V30 14374 H 1326.92 -3.21716 -0.357881 0
M  V30 14375 H 1325.83 -3.18692 1.95924 0
M  V30 14376 H 1327.16 -4.20328 2.56097 0
M  V30 14377 N 1328.81 -1.02043 -1.20104 0
M  V30 14378 C 1330.22 -0.742954 -1.71281 0
M  V30 14379 C 1330.57 0.738173 -1.81784 0
M  V30 14380 O 1329.7 1.57588 -1.48307 0
M  V30 14381 C 1330.29 -1.342 -3.11088 0
M  V30 14382 C 1328.85 -1.11331 -3.59559 0
M  V30 14383 C 1328 -1.44532 -2.36655 0
M  V30 14384 H 1330.95 -1.18942 -1.05064 0
M  V30 14385 H 1330.97 -0.734558 -3.73342 0
M  V30 14386 H 1330.48 -2.41998 -3.03411 0
M  V30 14387 H 1328.58 -0.05317 -3.72562 0
M  V30 14388 H 1328.7 -1.79606 -4.4416 0
M  V30 14389 H 1327.06 -0.864431 -2.39582 0
M  V30 14390 H 1327.84 -2.53394 -2.31616 0
M  V30 14391 N 1330.29 1.35952 -0.797165 0
M  V30 14392 C 1331.54 1.99327 -0.373695 0
M  V30 14393 C 1331.87 1.63111 1.05396 0
M  V30 14394 O 1331.14 0.889736 1.72956 0
M  V30 14395 C 1331.43 3.5593 -0.54641 0
M  V30 14396 C 1331.28 4.01975 -2.01832 0
M  V30 14397 C 1332.6 4.40087 0.0337694 0
M  V30 14398 H 1329.72 0.724107 -0.137254 0
M  V30 14399 H 1332.36 1.61248 -1.00495 0
M  V30 14400 H 1330.51 3.88499 -0.00903959 0
M  V30 14401 H 1332.18 3.79859 -2.61735 0
M  V30 14402 H 1330.43 3.5323 -2.51815 0
M  V30 14403 H 1331.1 5.109 -2.09009 0
M  V30 14404 H 1333.57 4.13923 -0.425039 0
M  V30 14405 H 1332.45 5.48775 -0.117054 0
M  V30 14406 H 1332.71 4.27504 1.12661 0
M  V30 14407 N 1331.77 0.549846 1.47697 0
M  V30 14408 C 1332.72 -0.222213 2.26915 0
M  V30 14409 C 1333.7 -0.891996 1.33911 0
M  V30 14410 O 1334.89 -0.791519 1.58316 0
M  V30 14411 C 1332.02 -1.25619 3.19491 0
M  V30 14412 C 1331.11 -0.590193 4.19973 0
M  V30 14413 N 1331.5 0.335519 5.04686 0
M  V30 14414 C 1329.8 -0.845012 4.37922 0
M  V30 14415 C 1330.5 0.721672 5.77206 0
M  V30 14416 N 1329.48 0.078184 5.43544 0
M  V30 14417 H 1333.28 0.489645 2.89792 0
M  V30 14418 H 1330.79 0.36926 1.58146 0
M  V30 14419 H 1332.79 -1.82319 3.74921 0
M  V30 14420 H 1331.45 -1.96922 2.5817 0
M  V30 14421 H 1332.46 0.709271 5.1302 0
M  V30 14422 H 1329.14 -1.54711 3.87777 0
M  V30 14423 H 1330.53 1.48191 6.55354 0
M  V30 14424 N 1333.25 -1.54984 0.285932 0
M  V30 14425 C 1334.49 -1.99436 -0.32709 0
M  V30 14426 C 1334.82 -1.17582 -1.55562 0
M  V30 14427 O 1334.09 -0.268002 -1.94058 0
M  V30 14428 H 1332.67 -0.736662 -0.123846 0
M  V30 14429 H 1335.33 -1.90881 0.393774 0
M  V30 14430 H 1334.42 -3.0609 -0.609523 0
M  V30 14431 N 1334.72 -0.0133892 -1.57594 0
M  V30 14432 C 1335.97 0.669624 -1.91426 0
M  V30 14433 C 1336.3 1.72675 -0.888656 0
M  V30 14434 O 1335.58 1.94288 0.0908138 0
M  V30 14435 C 1335.86 1.30051 -3.35796 0
M  V30 14436 C 1335.71 0.254021 -4.49082 0
M  V30 14437 C 1337.03 2.22297 -3.79832 0
M  V30 14438 H 1334.15 0.241958 -0.69615 0
M  V30 14439 H 1336.79 -0.0674278 -1.8988 0
M  V30 14440 H 1334.94 1.92871 -3.37243 0
M  V30 14441 H 1336.62 -0.375524 -4.59769 0
M  V30 14442 H 1334.86 -0.422267 -4.3174 0
M  V30 14443 H 1335.53 0.734756 -5.47088 0
M  V30 14444 H 1338.01 1.69481 -3.8002 0
M  V30 14445 H 1336.88 2.634 -4.81572 0
M  V30 14446 H 1337.14 3.10764 -3.14449 0
M  V30 14447 N 1336.2 1.55448 0.259558 0
M  V30 14448 C 1337.43 1.80465 1.00577 0
M  V30 14449 C 1337.84 0.585001 1.79929 0
M  V30 14450 O 1337.18 -0.455641 1.7796 0
M  V30 14451 C 1337.25 2.98634 2.00146 0
M  V30 14452 C 1336.91 4.35154 1.39607 0
M  V30 14453 C 1337.91 5.13631 0.804923 0
M  V30 14454 C 1335.59 4.81833 1.41923 0
M  V30 14455 C 1337.59 6.36929 0.245007 0
M  V30 14456 C 1335.27 6.05083 0.855458 0
M  V30 14457 C 1336.27 6.82469 0.269359 0
M  V30 14458 O 1335.96 8.03392 -0.285743 0
M  V30 14459 H 1335.69 0.604693 0.302196 0
M  V30 14460 H 1338.24 2.0332 0.291599 0
M  V30 14461 H 1336.47 2.71504 2.75359 0
M  V30 14462 H 1338.16 3.10855 2.61006 0
M  V30 14463 H 1338.93 4.78693 0.779625 0
M  V30 14464 H 1334.81 4.21599 1.86481 0
M  V30 14465 H 1338.35 6.97274 -0.213098 0
M  V30 14466 H 1334.25 6.395 0.878041 0
M  V30 14467 H 1335.02 8.1831 -0.17639 0
M  V30 14468 N 1337.68 -0.524672 1.4861 0
M  V30 14469 C 1338.91 -1.30292 1.60335 0
M  V30 14470 C 1339.32 -1.87338 0.264774 0
M  V30 14471 O 1338.66 -1.67388 -0.756756 0
M  V30 14472 C 1338.72 -2.48809 2.59488 0
M  V30 14473 C 1338.39 -2.12811 4.04426 0
M  V30 14474 C 1339.38 -1.68171 4.9195 0
M  V30 14475 C 1337.07 -2.23171 4.5 0
M  V30 14476 C 1339.06 -1.34363 6.23077 0
M  V30 14477 C 1336.75 -1.88975 5.81147 0
M  V30 14478 C 1337.75 -1.44643 6.67508 0
M  V30 14479 O 1337.44 -1.10898 7.96214 0
M  V30 14480 H 1337.17 -0.402288 0.543268 0
M  V30 14481 H 1339.72 -0.63908 1.95205 0
M  V30 14482 H 1337.95 -3.18192 2.19751 0
M  V30 14483 H 1339.64 -3.10866 2.60992 0
M  V30 14484 H 1340.41 -1.59632 4.57977 0
M  V30 14485 H 1336.29 -2.56632 3.82963 0
M  V30 14486 H 1339.83 -0.996875 6.90441 0
M  V30 14487 H 1335.73 -1.97156 6.14654 0
M  V30 14488 H 1336.5 -1.2425 8.09014 0
M  V30 14489 N 1339.16 -1.37287 -0.77395 0
M  V30 14490 C 1340.44 -1.2291 -1.52159 0
M  V30 14491 C 1340.82 0.178249 -2.10346 0
M  V30 14492 O 1340.16 1.18564 -1.95333 0
M  V30 14493 C 1340.37 -2.32337 -2.60424 0
M  V30 14494 C 1341.72 -2.69769 -3.27887 0
M  V30 14495 O 1342.75 -2.31497 -2.70717 0
M  V30 14496 O 1341.6 -3.35699 -4.31241 0
M  V30 14497 H 1338.7 -0.47948 -0.673816 0
M  V30 14498 H 1341.24 -1.49061 -0.811105 0
M  V30 14499 H 1340.02 -3.26591 -2.15532 0
M  V30 14500 H 1339.64 -2.07638 -3.39076 0
M  V30 14501 N 1340.64 0.999871 -1.21821 0
M  V30 14502 C 1342.05 1.5529 -1.03642 0
M  V30 14503 C 1342.4 1.92032 0.402246 0
M  V30 14504 O 1341.52 1.74027 1.28622 0
M  V30 14505 C 1342.12 2.82177 -1.87514 0
M  V30 14506 C 1340.68 3.33949 -1.73653 0
M  V30 14507 C 1339.82 2.07095 -1.84409 0
M  V30 14508 H 1342.78 0.821751 -1.35768 0
M  V30 14509 H 1342.8 3.54264 -1.38842 0
M  V30 14510 H 1342.31 2.55405 -2.92216 0
M  V30 14511 H 1340.41 3.65645 -0.716554 0
M  V30 14512 H 1340.52 4.05022 -2.55918 0
M  V30 14513 H 1338.89 2.20332 -1.27773 0
M  V30 14514 H 1339.67 1.82728 -2.90629 0
M  V30 14515 N 1342.11 1.02678 1.19562 0
M  V30 14516 C 1343.34 0.741424 1.93695 0
M  V30 14517 C 1343.76 -0.693203 1.74861 0
M  V30 14518 O 1343.12 -1.47833 1.04953 0
M  V30 14519 C 1343.17 1.09514 3.43568 0
M  V30 14520 O 1342.27 0.212596 4.11852 0
M  V30 14521 H 1341.62 0.274128 0.604773 0
M  V30 14522 H 1344.15 1.37289 1.517 0
M  V30 14523 H 1344.16 1.05115 3.94227 0
M  V30 14524 H 1342.83 2.14034 3.56598 0
M  V30 14525 H 1341.41 0.315 3.71567 0
M  V30 14526 N 1343.59 -1.35528 0.804364 0
M  V30 14527 C 1344.54 -2.29832 0.211186 0
M  V30 14528 C 1345.51 -1.52704 -0.653503 0
M  V30 14529 O 1346.69 -1.81152 -0.599052 0
M  V30 14530 C 1343.83 -3.39188 -0.636054 0
M  V30 14531 C 1342.95 -4.31283 0.248824 0
M  V30 14532 C 1342.08 -5.2773 -0.60621 0
M  V30 14533 C 1341.12 -6.11463 0.279205 0
M  V30 14534 N 1340.26 -7.00054 -0.535672 0
M  V30 14535 H 1345.1 -2.79971 1.0208 0
M  V30 14536 H 1342.64 -1.37793 0.514931 0
M  V30 14537 H 1344.59 -4.01254 -1.14241 0
M  V30 14538 H 1343.22 -2.90331 -1.41095 0
M  V30 14539 H 1342.28 -3.70241 0.873263 0
M  V30 14540 H 1343.59 -4.90046 0.930417 0
M  V30 14541 H 1342.74 -5.95158 -1.17778 0
M  V30 14542 H 1341.48 -4.69458 -1.32138 0
M  V30 14543 H 1340.49 -5.42984 0.863066 0
M  V30 14544 H 1341.71 -6.71813 0.9922 0
M  V30 14545 H 1339.66 -6.44273 -1.23486 0
M  V30 14546 H 1339.57 -7.55949 0.0879213 0
M  V30 14547 H 1340.84 -7.71833 -1.09059 0
M  V30 14548 N 1345.07 -0.557671 -1.47404 0
M  V30 14549 C 1346.35 0.031908 -1.95574 0
M  V30 14550 C 1346.73 1.48509 -1.50027 0
M  V30 14551 O 1346.08 2.16209 -0.73932 0
M  V30 14552 C 1346.29 -0.114055 -3.48814 0
M  V30 14553 C 1347.63 0.0310533 -4.24589 0
M  V30 14554 O 1348.66 -0.041626 -3.56176 0
M  V30 14555 O 1347.52 0.187487 -5.46178 0
M  V30 14556 H 1344.61 0.0638747 -0.82453 0
M  V30 14557 H 1347.16 -0.624227 -1.57802 0
M  V30 14558 H 1345.93 -1.12525 -3.74772 0
M  V30 14559 H 1345.55 0.57967 -3.93352 0
M  V30 14560 N 1346.55 1.54831 -0.294147 0
M  V30 14561 C 1347.48 2.26226 0.57827 0
M  V30 14562 C 1348.46 1.25928 1.14351 0
M  V30 14563 O 1349.65 1.54687 1.17412 0
M  V30 14564 C 1346.78 2.99783 1.75349 0
M  V30 14565 C 1345.73 4.07171 1.31892 0
M  V30 14566 C 1345.06 4.68406 2.57876 0
M  V30 14567 C 1346.36 5.20313 0.455167 0
M  V30 14568 H 1348.05 2.99395 -0.0171936 0
M  V30 14569 H 1345.6 1.43997 -0.00970944 0
M  V30 14570 H 1347.55 3.48448 2.36986 0
M  V30 14571 H 1346.27 2.24181 2.37509 0
M  V30 14572 H 1344.93 3.59346 0.725653 0
M  V30 14573 H 1344.58 3.89451 3.18335 0
M  V30 14574 H 1344.28 5.40927 2.29502 0
M  V30 14575 H 1345.8 5.1983 3.20327 0
M  V30 14576 H 1347.22 5.64913 0.977026 0
M  V30 14577 H 1345.61 5.99512 0.265501 0
M  V30 14578 H 1346.68 4.82088 -0.521434 0
M  V30 14579 N 1348.03 0.0217466 1.57585 0
M  V30 14580 C 1349.28 -0.657793 1.90672 0
M  V30 14581 C 1349.59 -1.73713 0.899066 0
M  V30 14582 O 1350.8 -2.4728 1.12092 0
M  V30 14583 C 1349.25 -1.22124 3.38547 0
M  V30 14584 C 1348.86 -0.175575 4.47656 0
M  V30 14585 C 1350.6 -1.87771 3.80713 0
M  V30 14586 C 1348.51 -0.750239 5.86622 0
M  V30 14587 H 1347.44 -0.249459 0.711538 0
M  V30 14588 H 1350.09 0.0858449 1.83299 0
M  V30 14589 H 1348.47 -2.01625 3.40828 0
M  V30 14590 H 1349.65 0.596436 4.56924 0
M  V30 14591 H 1347.96 0.381715 4.14647 0
M  V30 14592 H 1350.56 -2.3171 4.81887 0
M  V30 14593 H 1350.9 -2.71737 3.1538 0
M  V30 14594 H 1351.44 -1.14971 3.80823 0
M  V30 14595 H 1348.17 0.0511222 6.5548 0
M  V30 14596 H 1347.69 -1.49091 5.80975 0
M  V30 14597 H 1349.37 -1.24225 6.34962 0
M  V30 14598 N 1349.51 -1.55583 -0.251311 0
M  V30 14599 C 1350.47 -1.89148 -1.29443 0
M  V30 14600 C 1351.47 -0.7676 -1.41296 0
M  V30 14601 O 1352.66 -1.03563 -1.40073 0
M  V30 14602 C 1349.79 -2.11601 -2.67279 0
M  V30 14603 H 1350.98 -2.82416 -1.00901 0
M  V30 14604 H 1348.54 -1.48407 -0.490398 0
M  V30 14605 H 1349.27 -1.20787 -3.00967 0
M  V30 14606 H 1349.06 -2.93449 -2.60058 0
M  V30 14607 H 1350.55 -2.38768 -3.42607 0
M  V30 14608 N 1350.98 0.516783 -1.48886 0
M  V30 14609 C 1351.89 1.6467 -1.67095 0
M  V30 14610 C 1352.91 1.64963 -0.553466 0
M  V30 14611 O 1354.09 1.83673 -0.826206 0
M  V30 14612 C 1351.15 3.01095 -1.71879 0
M  V30 14613 C 1350.21 3.11554 -2.95352 0
M  V30 14614 C 1349.44 4.41471 -2.99898 0
M  V30 14615 O 1349.67 5.29348 -2.12477 0
M  V30 14616 O 1348.6 4.56573 -3.92205 0
M  V30 14617 H 1352.43 1.52242 -2.62785 0
M  V30 14618 H 1350.01 0.69134 -1.32442 0
M  V30 14619 H 1351.89 3.82207 -1.77471 0
M  V30 14620 H 1350.57 3.1382 -0.793656 0
M  V30 14621 H 1349.48 2.29689 -2.95286 0
M  V30 14622 H 1350.81 3.03751 -3.87294 0
M  V30 14623 N 1352.46 1.37696 0.766659 0
M  V30 14624 C 1353.71 1.32507 1.52069 0
M  V30 14625 C 1354.02 -0.0864967 1.95409 0
M  V30 14626 O 1355.23 -0.260877 2.70244 0
M  V30 14627 C 1353.69 2.32614 2.74625 0
M  V30 14628 C 1353.29 3.79325 2.38363 0
M  V30 14629 C 1355.04 2.36445 3.52554 0
M  V30 14630 C 1352.94 4.7115 3.57451 0
M  V30 14631 H 1351.87 0.492491 0.570937 0
M  V30 14632 H 1354.53 1.63183 0.839268 0
M  V30 14633 H 1352.91 1.94963 3.44682 0
M  V30 14634 H 1354.08 4.25841 1.76056 0
M  V30 14635 H 1352.4 3.78488 1.73597 0
M  V30 14636 H 1354.99 3.02252 4.41076 0
M  V30 14637 H 1355.34 1.37953 3.92778 0
M  V30 14638 H 1355.87 2.72829 2.89498 0
M  V30 14639 H 1352.61 5.70789 3.22304 0
M  V30 14640 H 1352.13 4.29335 4.18846 0
M  V30 14641 H 1353.81 4.88532 4.242 0
M  V30 14642 N 1353.94 -0.993397 1.22349 0
M  V30 14643 C 1354.87 -2.08543 0.950925 0
M  V30 14644 C 1355.88 -1.62648 -0.0702741 0
M  V30 14645 O 1357.07 -1.77748 0.16367 0
M  V30 14646 C 1354.17 -3.36429 0.408466 0
M  V30 14647 C 1353.35 -4.11356 1.48676 0
M  V30 14648 C 1352.41 -5.17526 0.951478 0
M  V30 14649 O 1351.43 -5.45135 1.63757 0
M  V30 14650 N 1352.63 -5.80055 -0.227378 0
M  V30 14651 H 1355.4 -2.32506 1.89106 0
M  V30 14652 H 1352.96 -1.15911 1.13032 0
M  V30 14653 H 1354.95 -4.04684 0.0356968 0
M  V30 14654 H 1353.52 -3.09534 -0.436767 0
M  V30 14655 H 1352.74 -3.37739 2.03288 0
M  V30 14656 H 1354.03 -4.58187 2.21228 0
M  V30 14657 H 1353.43 -5.59992 -0.801601 0
M  V30 14658 H 1351.98 -6.49546 -0.541538 0
M  V30 14659 N 1355.42 -1.03311 -1.19015 0
M  V30 14660 C 1356.36 -0.617567 -2.22384 0
M  V30 14661 C 1357.33 0.370779 -1.61909 0
M  V30 14662 O 1358.52 0.266481 -1.8893 0
M  V30 14663 C 1355.66 0.0211303 -3.45094 0
M  V30 14664 C 1354.77 -1.01377 -4.19937 0
M  V30 14665 C 1353.91 -0.344385 -5.30082 0
M  V30 14666 C 1352.95 -1.3649 -5.96688 0
M  V30 14667 N 1352.08 -0.721026 -6.98388 0
M  V30 14668 H 1356.92 -1.5036 -2.57286 0
M  V30 14669 H 1354.46 -0.75235 -1.26405 0
M  V30 14670 H 1356.42 0.408713 -4.15193 0
M  V30 14671 H 1355.05 0.870721 -3.10835 0
M  V30 14672 H 1354.1 -1.51937 -3.4874 0
M  V30 14673 H 1355.41 -1.78921 -4.65606 0
M  V30 14674 H 1354.57 0.097814 -6.06621 0
M  V30 14675 H 1353.31 0.463216 -4.85495 0
M  V30 14676 H 1352.31 -1.81732 -5.18897 0
M  V30 14677 H 1353.54 -2.17407 -6.43359 0
M  V30 14678 H 1351.48 0.0664057 -6.55966 0
M  V30 14679 H 1351.4 -1.43428 -7.4227 0
M  V30 14680 H 1352.67 -0.30297 -7.78911 0
M  V30 14681 N 1356.9 1.35099 -0.81154 0
M  V30 14682 C 1357.83 2.28468 -0.183012 0
M  V30 14683 C 1358.84 1.50509 0.620553 0
M  V30 14684 O 1360.03 1.7268 0.4521 0
M  V30 14685 C 1357.13 3.30201 0.762933 0
M  V30 14686 C 1356.3 4.374 0.00466561 0
M  V30 14687 C 1355.36 5.18961 0.869832 0
M  V30 14688 O 1354.39 5.68306 0.318964 0
M  V30 14689 N 1355.59 5.37555 2.19123 0
M  V30 14690 H 1358.35 2.83046 -0.985132 0
M  V30 14691 H 1355.92 1.47502 -0.667449 0
M  V30 14692 H 1357.91 3.81659 1.34606 0
M  V30 14693 H 1356.48 2.76101 1.46584 0
M  V30 14694 H 1355.7 3.8681 -0.759702 0
M  V30 14695 H 1356.99 5.06159 -0.517739 0
M  V30 14696 H 1356.38 4.99118 2.66266 0
M  V30 14697 H 1354.94 5.92174 2.72348 0
M  V30 14698 N 1358.37 0.56548 1.47106 0
M  V30 14699 C 1359.62 0.0444375 2.02051 0
M  V30 14700 C 1359.94 -1.31344 1.44131 0
M  V30 14701 O 1359.21 -1.85845 0.619556 0
M  V30 14702 H 1357.79 0.0134375 0.746879 0
M  V30 14703 H 1360.45 0.737362 1.80413 0
M  V30 14704 H 1359.55 -0.0374834 3.12077 0
M  V30 14705 N 1359.85 -1.54672 0.302354 0
M  V30 14706 C 1360.78 -2.21021 -0.606828 0
M  V30 14707 C 1361.8 -1.20337 -1.09648 0
M  V30 14708 O 1362.99 -1.46923 -1.0137 0
M  V30 14709 C 1360.09 -2.84411 -1.84293 0
M  V30 14710 C 1359.26 -4.11038 -1.49554 0
M  V30 14711 C 1358.32 -4.58219 -2.58693 0
M  V30 14712 O 1357.34 -5.23387 -2.23728 0
M  V30 14713 N 1358.55 -4.30651 -3.89256 0
M  V30 14714 H 1361.31 -2.99675 -0.0388221 0
M  V30 14715 H 1358.87 -1.6142 0.124614 0
M  V30 14716 H 1360.86 -3.12906 -2.56655 0
M  V30 14717 H 1359.43 -2.09589 -2.31929 0
M  V30 14718 H 1358.65 -3.89538 -0.604492 0
M  V30 14719 H 1359.94 -4.93488 -1.23884 0
M  V30 14720 H 1359.34 -3.78445 -4.20471 0
M  V30 14721 H 1357.9 -4.63853 -4.57913 0
M  V30 14722 N 1361.33 -0.0301034 -1.57571 0
M  V30 14723 C 1362.58 0.647042 -1.91462 0
M  V30 14724 C 1362.9 1.72612 -0.907206 0
M  V30 14725 O 1362.17 1.95833 0.0511268 0
M  V30 14726 H 1360.75 0.241988 -0.706718 0
M  V30 14727 H 1363.41 -0.0781385 -1.94743 0
M  V30 14728 H 1362.51 1.09915 -2.92105 0
M  V30 14729 N 1362.81 1.55714 0.243056 0
M  V30 14730 C 1363.74 1.87093 1.32396 0
M  V30 14731 C 1364.75 0.757482 1.44104 0
M  V30 14732 O 1365.94 1.03563 1.45386 0
M  V30 14733 C 1363.04 2.04546 2.70212 0
M  V30 14734 C 1362.22 3.3543 2.80723 0
M  V30 14735 C 1361.27 3.42578 3.99408 0
M  V30 14736 O 1360.3 4.15762 3.88755 0
M  V30 14737 N 1361.5 2.7215 5.12752 0
M  V30 14738 H 1364.27 2.80399 1.05813 0
M  V30 14739 H 1361.83 1.55998 0.433151 0
M  V30 14740 H 1363.82 2.06665 3.47954 0
M  V30 14741 H 1362.39 1.17966 2.89487 0
M  V30 14742 H 1361.61 3.45594 1.89626 0
M  V30 14743 H 1362.9 4.21692 2.84698 0
M  V30 14744 H 1362.3 2.1243 5.24299 0
M  V30 14745 H 1360.85 2.79957 5.88615 0
M  V30 14746 N 1364.29 -0.50888 1.49158 0
M  V30 14747 C 1365.53 -1.26274 1.59456 0
M  V30 14748 C 1365.89 -1.90436 0.274217 0
M  V30 14749 O 1365.18 -1.77359 -0.724875 0
M  V30 14750 C 1365.37 -2.35875 2.6851 0
M  V30 14751 C 1365.2 -1.8246 4.11021 0
M  V30 14752 C 1363.97 -1.64114 4.77907 0
M  V30 14753 C 1366.17 -1.34097 4.9651 0
M  V30 14754 N 1364.15 -1.05546 6.04759 0
M  V30 14755 C 1365.52 -0.876125 6.13779 0
M  V30 14756 C 1367.58 -1.22596 4.82571 0
M  V30 14757 C 1366.28 -0.307659 7.18642 0
M  V30 14758 C 1368.31 -0.671474 5.87576 0
M  V30 14759 C 1367.67 -0.216816 7.04066 0
M  V30 14760 H 1363.77 -0.452321 0.63791 0
M  V30 14761 H 1366.35 -0.571257 1.86131 0
M  V30 14762 H 1364.52 -3.02494 2.43622 0
M  V30 14763 H 1366.26 -3.02915 2.68374 0
M  V30 14764 H 1363.01 -1.88254 4.34577 0
M  V30 14765 H 1363.44 -0.782114 6.72467 0
M  V30 14766 H 1368.08 -1.56348 3.9283 0
M  V30 14767 H 1365.8 0.0421419 8.08089 0
M  V30 14768 H 1369.38 -0.585375 5.78848 0
M  V30 14769 H 1368.26 0.205554 7.83931 0
M  V30 14770 N 1365.76 -1.381 -0.759346 0
M  V30 14771 C 1366.99 -1.37213 -1.54855 0
M  V30 14772 C 1367.41 0.0395175 -1.88759 0
M  V30 14773 O 1366.76 1.00462 -1.5236 0
M  V30 14774 C 1366.82 -2.22232 -2.85123 0
M  V30 14775 O 1366.54 -3.57897 -2.52668 0
M  V30 14776 C 1368.04 -2.29461 -3.79292 0
M  V30 14777 H 1365.26 -0.469542 -0.479345 0
M  V30 14778 H 1367.8 -1.81604 -0.940216 0
M  V30 14779 H 1365.96 -1.81317 -3.42349 0
M  V30 14780 H 1366.37 -4.02599 -3.36176 0
M  V30 14781 H 1367.84 -2.93246 -4.67665 0
M  V30 14782 H 1368.32 -1.3066 -4.19315 0
M  V30 14783 H 1368.93 -2.70741 -3.27993 0
M  V30 14784 N 1367.24 0.986894 -1.22875 0
M  V30 14785 C 1368.47 1.7601 -1.08185 0
M  V30 14786 C 1368.88 1.85545 0.370088 0
M  V30 14787 O 1368.22 1.32915 1.26804 0
M  V30 14788 C 1368.29 3.20661 -1.62532 0
M  V30 14789 C 1367.95 3.34655 -3.11216 0
M  V30 14790 C 1368.95 3.21493 -4.08581 0
M  V30 14791 C 1366.63 3.59512 -3.50794 0
M  V30 14792 C 1368.63 3.32983 -5.43508 0
M  V30 14793 C 1366.31 3.70642 -4.85868 0
M  V30 14794 C 1367.31 3.57387 -5.82034 0
M  V30 14795 O 1367 3.68135 -7.14655 0
M  V30 14796 H 1366.73 0.559402 -0.379533 0
M  V30 14797 H 1369.28 1.24905 -1.63058 0
M  V30 14798 H 1367.51 3.72985 -1.02073 0
M  V30 14799 H 1369.2 3.7972 -1.43415 0
M  V30 14800 H 1369.97 3.02193 -3.79347 0
M  V30 14801 H 1365.85 3.68904 -2.76461 0
M  V30 14802 H 1369.39 3.22553 -6.18551 0
M  V30 14803 H 1365.29 3.89451 -5.1478 0
M  V30 14804 H 1366.06 3.84971 -7.22316 0
M  V30 14805 N 1368.72 1.0394 1.18466 0
M  V30 14806 C 1369.65 0.587413 2.21545 0
M  V30 14807 C 1370.67 -0.34227 1.59161 0
M  V30 14808 O 1371.85 -0.136988 1.77974 0
M  V30 14809 C 1368.95 -0.161999 3.38513 0
M  V30 14810 C 1368.13 0.775243 4.30475 0
M  V30 14811 C 1367.19 0.0693526 5.26154 0
M  V30 14812 O 1366.21 0.69937 5.64887 0
M  V30 14813 N 1367.41 -1.19773 5.68009 0
M  V30 14814 H 1370.18 1.47399 2.60948 0
M  V30 14815 H 1367.74 0.919734 1.33239 0
M  V30 14816 H 1369.73 -0.644041 3.99542 0
M  V30 14817 H 1368.3 -0.950099 2.97812 0
M  V30 14818 H 1367.52 1.43717 3.67068 0
M  V30 14819 H 1368.81 1.41187 4.88819 0
M  V30 14820 H 1368.21 -1.73013 5.38593 0
M  V30 14821 H 1366.77 -1.62407 6.31243 0
M  V30 14822 N 1370.2 -1.34667 0.818693 0
M  V30 14823 C 1371.45 -1.9767 0.401184 0
M  V30 14824 C 1371.76 -1.65644 -1.04027 0
M  V30 14825 O 1372.97 -2.22104 -1.56148 0
M  V30 14826 C 1371.42 -3.53677 0.666398 0
M  V30 14827 C 1371.03 -3.94601 2.12119 0
M  V30 14828 C 1372.77 -4.23331 0.314845 0
M  V30 14829 C 1370.68 -5.43502 2.33151 0
M  V30 14830 H 1369.61 -0.739675 0.146275 0
M  V30 14831 H 1372.26 -1.53568 1.00445 0
M  V30 14832 H 1370.64 -3.95999 -0.00698307 0
M  V30 14833 H 1371.82 -3.63396 2.83338 0
M  V30 14834 H 1370.13 -3.37871 2.43377 0
M  V30 14835 H 1372.73 -5.32804 0.449881 0
M  V30 14836 H 1373.07 -4.09666 -0.740235 0
M  V30 14837 H 1373.61 -3.8647 0.942631 0
M  V30 14838 H 1370.35 -5.62148 3.37149 0
M  V30 14839 H 1369.87 -5.76236 1.66471 0
M  V30 14840 H 1371.54 -6.10127 2.153 0
M  V30 14841 N 1371.68 -0.573274 -1.46804 0
M  V30 14842 C 1372.91 -0.0605105 -2.06511 0
M  V30 14843 C 1373.31 1.24572 -1.42403 0
M  V30 14844 O 1372.66 1.76182 -0.520168 0
M  V30 14845 C 1372.72 0.189394 -3.59001 0
M  V30 14846 C 1372.38 -1.02981 -4.45246 0
M  V30 14847 C 1373.38 -1.93948 -4.82369 0
M  V30 14848 C 1371.07 -1.249 -4.86524 0
M  V30 14849 C 1373.06 -3.0519 -5.59587 0
M  V30 14850 C 1370.75 -2.36449 -5.63503 0
M  V30 14851 C 1371.74 -3.26424 -5.99947 0
M  V30 14852 O 1371.43 -4.36037 -6.75372 0
M  V30 14853 H 1371.16 -0.0501758 -0.674135 0
M  V30 14854 H 1373.72 -0.790951 -1.8956 0
M  V30 14855 H 1371.95 0.974337 -3.74224 0
M  V30 14856 H 1373.64 0.649506 -4.0067 0
M  V30 14857 H 1374.4 -1.78226 -4.51066 0
M  V30 14858 H 1370.28 -0.55779 -4.57613 0
M  V30 14859 H 1373.83 -3.75444 -5.87952 0
M  V30 14860 H 1369.72 -2.52138 -5.94219 0
M  V30 14861 H 1370.49 -4.34285 -6.93786 0
M  V30 14862 N 1373.15 1.5451 -0.310553 0
M  V30 14863 C 1374.09 2.2134 0.595098 0
M  V30 14864 C 1375.1 1.20917 1.09009 0
M  V30 14865 O 1376.29 1.47458 1.0059 0
M  V30 14866 C 1373.39 2.85384 1.82782 0
M  V30 14867 C 1372.56 4.11826 1.47372 0
M  V30 14868 C 1371.62 4.59584 2.56259 0
M  V30 14869 O 1370.65 5.24567 2.20949 0
M  V30 14870 N 1371.85 4.32709 3.86967 0
M  V30 14871 H 1374.61 2.99691 0.0229291 0
M  V30 14872 H 1372.17 1.61351 -0.133173 0
M  V30 14873 H 1374.17 3.14263 2.54992 0
M  V30 14874 H 1372.74 2.10816 2.30815 0
M  V30 14875 H 1371.96 3.89853 0.583826 0
M  V30 14876 H 1373.24 4.94138 1.21265 0
M  V30 14877 H 1372.64 3.80669 4.18458 0
M  V30 14878 H 1371.2 4.66275 4.55446 0
M  V30 14879 N 1374.63 0.0384594 1.57553 0
M  V30 14880 C 1375.54 -0.955737 2.14249 0
M  V30 14881 C 1376.56 -1.35056 1.09708 0
M  V30 14882 O 1377.74 -1.43008 1.41812 0
M  V30 14883 C 1374.8 -2.21647 2.66596 0
M  V30 14884 C 1373.86 -1.88119 3.85888 0
M  V30 14885 C 1373.09 -3.08182 4.35729 0
M  V30 14886 O 1373.32 -4.21145 3.84699 0
M  V30 14887 O 1372.25 -2.89936 5.27467 0
M  V30 14888 H 1376.08 -0.50361 2.99495 0
M  V30 14889 H 1373.66 -0.182698 1.48279 0
M  V30 14890 H 1375.54 -2.9564 3.00291 0
M  V30 14891 H 1374.22 -2.66022 1.84428 0
M  V30 14892 H 1373.13 -1.11481 3.57103 0
M  V30 14893 H 1374.46 -1.48553 4.69247 0
M  V30 14894 N 1376.11 -1.55841 -0.234795 0
M  V30 14895 C 1377.52 -1.68555 -0.802886 0
M  V30 14896 C 1377.87 -0.638107 -1.85533 0
M  V30 14897 O 1377 0.21333 -2.15346 0
M  V30 14898 C 1377.59 -3.0558 -1.46309 0
M  V30 14899 C 1376.15 -3.20192 -1.97874 0
M  V30 14900 C 1375.3 -2.64457 -0.834136 0
M  V30 14901 H 1378.25 -1.58697 -0.0103759 0
M  V30 14902 H 1378.27 -3.007 -2.33152 0
M  V30 14903 H 1377.78 -3.81792 -0.696868 0
M  V30 14904 H 1375.88 -2.48825 -2.77339 0
M  V30 14905 H 1376 -4.27251 -2.1678 0
M  V30 14906 H 1374.36 -2.22593 -1.23791 0
M  V30 14907 H 1375.14 -3.43205 -0.0807988 0
M  V30 14908 N 1377.59 0.500963 -1.49426 0
M  V30 14909 C 1378.84 1.25509 -1.58915 0
M  V30 14910 C 1379.16 1.92534 -0.275868 0
M  V30 14911 O 1378.42 1.81324 0.736212 0
M  V30 14912 C 1378.72 2.34448 -2.69757 0
M  V30 14913 C 1378.38 1.8488 -4.11254 0
M  V30 14914 C 1377.05 1.71081 -4.49761 0
M  V30 14915 C 1379.4 1.4778 -4.9981 0
M  V30 14916 C 1376.73 1.18561 -5.74596 0
M  V30 14917 C 1379.08 0.967118 -6.25164 0
M  V30 14918 C 1377.74 0.815523 -6.62499 0
M  V30 14919 H 1377.01 0.459268 -0.58151 0
M  V30 14920 H 1379.66 0.555817 -1.83256 0
M  V30 14921 H 1377.96 3.10163 -2.39387 0
M  V30 14922 H 1379.66 2.925 -2.74308 0
M  V30 14923 H 1376.25 1.9658 -3.8086 0
M  V30 14924 H 1380.44 1.57288 -4.70717 0
M  V30 14925 H 1375.69 1.05536 -6.02223 0
M  V30 14926 H 1379.87 0.670857 -6.93161 0
M  V30 14927 H 1377.49 0.406375 -7.59113 0
M  V30 14928 N 1379.07 1.38501 0.752011 0
M  V30 14929 C 1380.01 1.35857 1.86578 0
M  V30 14930 C 1380.98 0.220873 1.64625 0
M  V30 14931 O 1382.17 0.413348 1.86269 0
M  V30 14932 C 1379.31 1.19102 3.23896 0
M  V30 14933 C 1378.42 2.42272 3.5767 0
M  V30 14934 C 1377.56 2.18236 4.843 0
M  V30 14935 C 1376.6 3.37169 5.10865 0
M  V30 14936 N 1375.73 3.12558 6.28691 0
M  V30 14937 H 1380.57 2.31073 1.88173 0
M  V30 14938 H 1378.11 1.14803 0.919712 0
M  V30 14939 H 1380.07 1.07404 4.03138 0
M  V30 14940 H 1378.7 0.275243 3.21624 0
M  V30 14941 H 1377.75 2.64638 2.7326 0
M  V30 14942 H 1379.06 3.3091 3.73229 0
M  V30 14943 H 1378.22 2.03682 5.71488 0
M  V30 14944 H 1376.96 1.26966 4.70883 0
M  V30 14945 H 1375.96 3.52241 4.22145 0
M  V30 14946 H 1377.19 4.29317 5.26178 0
M  V30 14947 H 1375.13 2.23937 6.16594 0
M  V30 14948 H 1375.05 3.94746 6.44757 0
M  V30 14949 H 1376.32 3.01663 7.18763 0
M  V30 14950 N 1380.55 -0.980364 1.23396 0
M  V30 14951 C 1381.49 -2.09401 1.01262 0
M  V30 14952 C 1382.49 -1.69331 -0.0483957 0
M  V30 14953 O 1383.69 -1.79693 0.105109 0
M  V30 14954 H 1380.07 -0.684969 0.310358 0
M  V30 14955 H 1382.04 -2.25236 1.95732 0
M  V30 14956 C 1380.79 -3.42118 0.620526 0
M  V30 14957 H 1380.11 -3.73402 1.42868 0
M  V30 14958 H 1381.55 -4.2098 0.505169 0
M  V30 14959 C 1380.01 -3.30146 -0.671208 0
M  V30 14960 O 1380.54 -3.62997 -1.72034 0
M  V30 14961 N 1378.75 -2.83303 -0.647137 0
M  V30 14962 H 1378.29 -2.56767 0.206957 0
M  V30 14963 H 1378.25 -2.75675 -1.51165 0
M  V30 14964 N 1382.02 -1.04567 -1.17913 0
M  V30 14965 C 1382.95 -0.662066 -2.23917 0
M  V30 14966 C 1383.93 0.33713 -1.66726 0
M  V30 14967 O 1385.12 0.216116 -1.92994 0
M  V30 14968 C 1382.25 -0.029463 -3.47288 0
M  V30 14969 C 1381.2 -0.95274 -4.17261 0
M  V30 14970 C 1380.53 -0.184347 -5.34382 0
M  V30 14971 C 1381.83 -2.2741 -4.70194 0
M  V30 14972 H 1383.52 -1.54826 -2.5626 0
M  V30 14973 H 1381.07 -0.745886 -1.23177 0
M  V30 14974 H 1383.02 0.250654 -4.20654 0
M  V30 14975 H 1381.75 0.891638 -3.14193 0
M  V30 14976 H 1380.41 -1.21732 -3.45799 0
M  V30 14977 H 1380.05 0.73932 -4.97537 0
M  V30 14978 H 1379.75 -0.79949 -5.82136 0
M  V30 14979 H 1381.28 0.0886344 -6.10536 0
M  V30 14980 H 1382.69 -2.05433 -5.35229 0
M  V30 14981 H 1381.09 -2.84265 -5.28501 0
M  V30 14982 H 1382.16 -2.91708 -3.87342 0
M  V30 14983 N 1383.5 1.34231 -0.825823 0
M  V30 14984 C 1384.45 2.29467 -0.247724 0
M  V30 14985 C 1385.42 1.53724 0.629127 0
M  V30 14986 O 1386.6 1.82082 0.570156 0
M  V30 14987 C 1383.74 3.40157 0.582012 0
M  V30 14988 C 1382.86 4.30832 -0.317406 0
M  V30 14989 C 1381.99 5.28627 0.522176 0
M  V30 14990 C 1381.03 6.10941 -0.376448 0
M  V30 14991 N 1380.17 7.00817 0.424232 0
M  V30 14992 H 1385.01 2.78311 -1.06521 0
M  V30 14993 H 1382.54 1.36956 -0.536788 0
M  V30 14994 H 1384.5 4.03021 1.07843 0
M  V30 14995 H 1383.13 2.92539 1.36459 0
M  V30 14996 H 1382.18 3.68805 -0.932054 0
M  V30 14997 H 1383.5 4.88503 -1.00826 0
M  V30 14998 H 1382.65 5.96957 1.08295 0
M  V30 14999 H 1381.39 4.71501 1.24652 0
M  V30 15000 H 1380.39 5.41542 -0.94934 0
M  V30 15001 H 1381.62 6.70149 -1.09895 0
M  V30 15002 H 1379.57 6.46156 1.1322 0
M  V30 15003 H 1379.48 7.55713 -0.208175 0
M  V30 15004 H 1380.75 7.7347 0.967664 0
M  V30 15005 N 1384.98 0.581051 1.46498 0
M  V30 15006 C 1386.21 0.0715652 2.06776 0
M  V30 15007 C 1386.62 -1.23267 1.43006 0
M  V30 15008 O 1385.98 -1.74489 0.534776 0
M  V30 15009 C 1386.03 -0.102666 3.61354 0
M  V30 15010 O 1385.75 1.14995 4.22739 0
M  V30 15011 C 1387.25 -0.646692 4.38558 0
M  V30 15012 H 1384.47 0.0566964 0.6686 0
M  V30 15013 H 1387.02 0.801248 1.8815 0
M  V30 15014 H 1385.17 -0.782564 3.79414 0
M  V30 15015 H 1385.59 0.962718 5.15589 0
M  V30 15016 H 1387.06 -0.717791 5.47313 0
M  V30 15017 H 1387.54 -1.6633 4.06486 0
M  V30 15018 H 1388.14 -0.00171739 4.253 0
M  V30 15019 N 1386.46 -1.54343 0.318742 0
M  V30 15020 C 1387.71 -2.00084 -0.284713 0
M  V30 15021 C 1388.03 -1.20855 -1.53033 0
M  V30 15022 O 1387.3 -0.309104 -1.93446 0
M  V30 15023 H 1385.88 -0.739123 -0.108193 0
M  V30 15024 H 1388.54 -1.90002 0.434174 0
M  V30 15025 H 1387.63 -3.07314 -0.544459 0
M  V30 15026 N 1387.94 -0.0468143 -1.5753 0
M  V30 15027 C 1388.88 0.929065 -2.11275 0
M  V30 15028 C 1389.85 1.31166 -1.01905 0
M  V30 15029 O 1391.04 1.40189 -1.29428 0
M  V30 15030 C 1388.18 2.20012 -2.65873 0
M  V30 15031 C 1387.29 1.8724 -3.89314 0
M  V30 15032 C 1386.43 3.08772 -4.32242 0
M  V30 15033 C 1385.46 2.719 -5.48395 0
M  V30 15034 N 1384.6 3.86112 -5.86397 0
M  V30 15035 H 1389.44 0.463854 -2.94368 0
M  V30 15036 H 1386.98 0.217338 -1.45486 0
M  V30 15037 H 1388.94 2.94383 -2.95626 0
M  V30 15038 H 1387.57 2.64118 -1.85584 0
M  V30 15039 H 1386.62 1.03037 -3.6618 0
M  V30 15040 H 1387.93 1.56096 -4.73746 0
M  V30 15041 H 1387.08 3.91446 -4.63525 0
M  V30 15042 H 1385.82 3.4309 -3.46613 0
M  V30 15043 H 1384.83 1.87642 -5.16789 0
M  V30 15044 H 1386.05 2.38779 -6.35737 0
M  V30 15045 H 1384 4.2024 -5.03721 0
M  V30 15046 H 1383.92 3.58652 -6.65511 0
M  V30 15047 H 1385.18 4.69438 -6.22293 0
M  V30 15048 N 1389.41 1.55964 0.226527 0
M  V30 15049 C 1390.64 1.82558 0.967269 0
M  V30 15050 C 1391.05 0.623034 1.78647 0
M  V30 15051 O 1390.4 -0.41779 1.78886 0
M  V30 15052 C 1390.46 3.02812 1.93766 0
M  V30 15053 C 1390.12 4.38017 1.30345 0
M  V30 15054 C 1391.12 5.15223 0.695793 0
M  V30 15055 C 1388.8 4.84735 1.31671 0
M  V30 15056 C 1390.8 6.37305 0.109849 0
M  V30 15057 C 1388.48 6.06761 0.726919 0
M  V30 15058 C 1389.48 6.82886 0.124537 0
M  V30 15059 O 1389.17 8.02605 -0.45609 0
M  V30 15060 H 1388.9 0.610967 0.289301 0
M  V30 15061 H 1391.46 2.03892 0.248407 0
M  V30 15062 H 1389.69 2.77283 2.69538 0
M  V30 15063 H 1391.38 3.16321 2.54353 0
M  V30 15064 H 1392.14 4.80239 0.677912 0
M  V30 15065 H 1388.02 4.2546 1.77496 0
M  V30 15066 H 1391.56 6.96666 -0.360953 0
M  V30 15067 H 1387.46 6.41219 0.742196 0
M  V30 15068 H 1388.23 8.17752 -0.349926 0
M  V30 15069 N 1390.89 -0.493031 1.4969 0
M  V30 15070 C 1391.86 -1.57598 1.6642 0
M  V30 15071 C 1392.86 -1.51615 0.535668 0
M  V30 15072 O 1394.05 -1.54626 0.802283 0
M  V30 15073 C 1391.18 -2.97249 1.66901 0
M  V30 15074 H 1392.37 -1.4409 2.63017 0
M  V30 15075 H 1389.92 -0.717846 1.3884 0
M  V30 15076 H 1390.66 -3.16225 0.719164 0
M  V30 15077 H 1390.44 -3.02999 2.48865 0
M  V30 15078 H 1391.93 -3.75914 1.81874 0
M  V30 15079 N 1392.37 -1.38898 -0.744656 0
M  V30 15080 C 1393.79 -1.20291 -1.04892 0
M  V30 15081 C 1393.99 -0.0577705 -2.01417 0
M  V30 15082 O 1393.04 0.593638 -2.45422 0
M  V30 15083 C 1394.36 -2.53302 -1.62045 0
M  V30 15084 C 1395.9 -2.60063 -1.74173 0
M  V30 15085 C 1396.38 -3.93272 -2.34736 0
M  V30 15086 N 1397.87 -3.9486 -2.42157 0
M  V30 15087 C 1398.6 -4.94698 -2.89933 0
M  V30 15088 N 1398.1 -6.04934 -3.37678 0
M  V30 15089 N 1399.89 -4.82083 -2.89055 0
M  V30 15090 H 1392.04 -2.12144 -0.104294 0
M  V30 15091 H 1394.31 -0.941725 -0.108895 0
M  V30 15092 H 1394.01 -3.376 -0.985868 0
M  V30 15093 H 1393.89 -2.72335 -2.60986 0
M  V30 15094 H 1396.27 -1.76155 -2.36756 0
M  V30 15095 H 1396.36 -2.44889 -0.739115 0
M  V30 15096 H 1396 -4.77607 -1.72784 0
M  V30 15097 H 1395.93 -4.05762 -3.35656 0
M  V30 15098 H 1398.42 -3.15243 -2.08399 0
M  V30 15099 H 1398.73 -6.77036 -3.72616 0
M  V30 15100 H 1397.08 -6.08541 -3.35712 0
M  V30 15101 H 1400.27 -3.9507 -2.51072 0
M  V30 15102 H 1400.44 -5.60039 -3.25975 0
M  V30 15103 N 1393.85 0.973806 -1.23914 0
M  V30 15104 C 1395.08 1.75107 -1.10206 0
M  V30 15105 C 1395.49 1.85604 0.345935 0
M  V30 15106 O 1394.85 1.33996 1.239 0
M  V30 15107 C 1394.9 3.17466 -1.72909 0
M  V30 15108 O 1394.62 3.07504 -3.12047 0
M  V30 15109 C 1396.12 4.11557 -1.6473 0
M  V30 15110 H 1393.34 0.549318 -0.385345 0
M  V30 15111 H 1395.89 1.22301 -1.63898 0
M  V30 15112 H 1394.04 3.67277 -1.23234 0
M  V30 15113 H 1394.45 3.97169 -3.42575 0
M  V30 15114 H 1395.93 5.09126 -2.13295 0
M  V30 15115 H 1396.41 4.3498 -0.607352 0
M  V30 15116 H 1397.01 3.67653 -2.13802 0
M  V30 15117 N 1395.33 1.05191 1.17357 0
M  V30 15118 C 1396.74 0.773255 1.39617 0
M  V30 15119 C 1396.94 -0.632346 1.91321 0
M  V30 15120 O 1396 -1.39475 2.10483 0
M  V30 15121 C 1397.31 1.82885 2.38692 0
M  V30 15122 C 1398.86 1.85106 2.52398 0
M  V30 15123 C 1399.33 2.89689 3.54746 0
M  V30 15124 N 1400.83 2.88651 3.62263 0
M  V30 15125 C 1401.56 3.66221 4.41214 0
M  V30 15126 N 1401.06 4.53577 5.23679 0
M  V30 15127 N 1402.85 3.54661 4.36087 0
M  V30 15128 H 1395 1.9588 0.82127 0
M  V30 15129 H 1397.26 0.848187 0.423417 0
M  V30 15130 H 1396.97 2.83766 2.07773 0
M  V30 15131 H 1396.84 1.67047 3.38194 0
M  V30 15132 H 1399.23 0.848896 2.82627 0
M  V30 15133 H 1399.31 2.05022 1.5297 0
M  V30 15134 H 1398.96 3.90091 3.25255 0
M  V30 15135 H 1398.89 2.67025 4.53878 0
M  V30 15136 H 1401.38 2.25312 3.03386 0
M  V30 15137 H 1401.69 5.09449 5.81104 0
M  V30 15138 H 1400.03 4.57638 5.23061 0
M  V30 15139 H 1403.23 2.8581 3.70716 0
M  V30 15140 H 1403.4 4.15361 4.97372 0
M  V30 15141 N 1396.8 -1.33791 0.83293 0
M  V30 15142 C 1398.05 -1.97582 0.42494 0
M  V30 15143 C 1398.37 -1.66328 -1.01784 0
M  V30 15144 O 1397.64 -0.959141 -1.70814 0
M  V30 15145 H 1396.22 -0.730923 0.154143 0
M  V30 15146 H 1398.89 -1.63257 1.06458 0
M  V30 15147 H 1397.98 -3.07177 0.552127 0
M  V30 15148 N 1398.28 -0.588812 -1.46187 0
M  V30 15149 C 1399.25 0.130803 -2.28826 0
M  V30 15150 C 1400.25 0.813037 -1.38731 0
M  V30 15151 O 1401.44 0.664061 -1.61046 0
M  V30 15152 C 1398.57 1.19484 -3.19275 0
M  V30 15153 H 1399.76 -0.595514 -2.93928 0
M  V30 15154 H 1397.31 -0.347038 -1.52399 0
M  V30 15155 H 1398.05 1.95254 -2.58933 0
M  V30 15156 H 1397.83 0.710077 -3.85617 0
M  V30 15157 H 1399.32 1.69938 -3.81459 0
M  V30 15158 N 1399.76 1.54172 -0.326923 0
M  V30 15159 C 1400.71 2.21189 0.553126 0
M  V30 15160 C 1401.69 1.19356 1.07903 0
M  V30 15161 O 1402.89 1.44972 1.01549 0
M  V30 15162 C 1400.02 2.97573 1.71188 0
M  V30 15163 C 1399.1 4.06748 1.20071 0
M  V30 15164 N 1399.49 5.0414 0.409473 0
M  V30 15165 C 1397.79 4.20759 1.47913 0
M  V30 15166 C 1398.49 5.81546 0.134036 0
M  V30 15167 N 1397.47 5.38796 0.721097 0
M  V30 15168 H 1401.27 2.93841 -0.0586462 0
M  V30 15169 H 1398.78 1.61855 -0.132947 0
M  V30 15170 H 1400.78 3.44072 2.35415 0
M  V30 15171 H 1399.44 2.26443 2.32709 0
M  V30 15172 H 1400.45 5.17874 0.0520181 0
M  V30 15173 H 1397.13 3.60844 2.09995 0
M  V30 15174 H 1398.52 6.70013 -0.503156 0
M  V30 15175 N 1401.24 0.0551678 1.57503 0
M  V30 15176 C 1402.47 -0.6272 1.97164 0
M  V30 15177 C 1402.88 -1.64143 0.932876 0
M  V30 15178 O 1402.24 -1.82314 -0.0824465 0
M  V30 15179 C 1402.29 -1.31057 3.36907 0
M  V30 15180 O 1402.01 -0.336951 4.36802 0
M  V30 15181 C 1403.51 -2.08232 3.91349 0
M  V30 15182 H 1400.73 -0.171196 0.648793 0
M  V30 15183 H 1403.28 0.122651 2.04132 0
M  V30 15184 H 1401.43 -2.01162 3.31078 0
M  V30 15185 H 1401.84 -0.825204 5.17968 0
M  V30 15186 H 1403.32 -2.51463 4.91397 0
M  V30 15187 H 1403.8 -2.93212 3.26991 0
M  V30 15188 H 1404.4 -1.43029 4.00528 0
M  V30 15189 N 1402.72 -1.56081 -0.218252 0
M  V30 15190 C 1403.66 -1.93544 -1.2901 0
M  V30 15191 C 1404.66 -0.817886 -1.48348 0
M  V30 15192 O 1405.86 -1.00274 -1.49483 0
M  V30 15193 H 1402.24 -0.61511 -0.432601 0
M  V30 15194 H 1404.21 -2.82975 -0.946966 0
M  V30 15195 C 1402.96 -2.27134 -2.63259 0
M  V30 15196 H 1402.28 -3.12643 -2.49188 0
M  V30 15197 H 1403.72 -2.57228 -3.3706 0
M  V30 15198 C 1402.18 -1.09764 -3.18518 0
M  V30 15199 O 1402.71 -0.360501 -4.00079 0
M  V30 15200 N 1400.92 -0.880589 -2.76937 0
M  V30 15201 H 1400.46 -1.48175 -2.10718 0
M  V30 15202 H 1400.42 -0.0970234 -3.1425 0
M  V30 15203 N 1404.2 0.485086 -1.49949 0
M  V30 15204 C 1405.47 1.24639 -1.50747 0
M  V30 15205 C 1405.85 2.09683 -0.244162 0
M  V30 15206 O 1405.2 2.1503 0.772949 0
M  V30 15207 C 1405.41 2.08946 -2.7954 0
M  V30 15208 C 1406.76 2.67604 -3.29656 0
M  V30 15209 O 1407.78 2.192 -2.80766 0
M  V30 15210 O 1406.64 3.55761 -4.14845 0
M  V30 15211 H 1403.74 0.564849 -0.604049 0
M  V30 15212 H 1406.28 0.498052 -1.62227 0
M  V30 15213 H 1405.05 1.46185 -3.62968 0
M  V30 15214 H 1404.68 2.90941 -2.70997 0
M  V30 15215 N 1405.67 1.39291 0.737279 0
M  V30 15216 C 1406.92 1.36592 1.49901 0
M  V30 15217 C 1407.25 -0.0388812 1.94161 0
M  V30 15218 O 1406.53 -1.00337 1.66622 0
M  V30 15219 C 1406.81 2.33625 2.74028 0
M  V30 15220 C 1406.66 3.83037 2.35802 0
M  V30 15221 C 1407.98 2.28524 3.76118 0
M  V30 15222 H 1405.1 0.497482 0.543765 0
M  V30 15223 H 1407.74 1.70265 0.843193 0
M  V30 15224 H 1405.89 2.0504 3.29986 0
M  V30 15225 H 1407.57 4.22363 1.85493 0
M  V30 15226 H 1405.81 3.99924 1.68058 0
M  V30 15227 H 1406.48 4.46415 3.24681 0
M  V30 15228 H 1408.96 2.53794 3.29739 0
M  V30 15229 H 1407.83 2.98501 4.60639 0
M  V30 15230 H 1408.09 1.28949 4.22876 0
M  V30 15231 N 1407.15 -0.967221 1.24429 0
M  V30 15232 C 1408.1 -2.06187 1.03709 0
M  V30 15233 C 1409.07 -1.66025 -0.0497665 0
M  V30 15234 O 1410.25 -1.90511 0.104951 0
M  V30 15235 C 1407.39 -3.38952 0.648477 0
M  V30 15236 C 1406.51 -3.92306 1.80886 0
M  V30 15237 C 1405.64 -5.13342 1.36579 0
M  V30 15238 C 1404.68 -5.58893 2.49609 0
M  V30 15239 N 1403.82 -6.71148 2.06165 0
M  V30 15240 H 1408.66 -2.23244 1.97399 0
M  V30 15241 H 1406.19 -1.09415 0.983192 0
M  V30 15242 H 1408.15 -4.15237 0.40419 0
M  V30 15243 H 1406.78 -3.21819 -0.25142 0
M  V30 15244 H 1405.83 -3.12656 2.1668 0
M  V30 15245 H 1407.15 -4.22071 2.65815 0
M  V30 15246 H 1406.3 -5.97003 1.0804 0
M  V30 15247 H 1405.04 -4.85262 0.487051 0
M  V30 15248 H 1404.04 -4.73805 2.78906 0
M  V30 15249 H 1405.27 -5.88987 3.3804 0
M  V30 15250 H 1403.22 -6.44802 1.20691 0
M  V30 15251 H 1403.13 -7.00366 2.84647 0
M  V30 15252 H 1404.4 -7.5825 1.80769 0
M  V30 15253 N 1408.63 -1.05812 -1.16797 0
M  V30 15254 C 1409.56 -0.622584 -2.20582 0
M  V30 15255 C 1410.57 0.316905 -1.59686 0
M  V30 15256 O 1411.76 0.108657 -1.78169 0
M  V30 15257 C 1408.86 0.108124 -3.38727 0
M  V30 15258 C 1408.04 -0.84363 -4.29187 0
M  V30 15259 C 1407.1 -0.15305 -5.25977 0
M  V30 15260 O 1406.12 -0.78915 -5.63703 0
M  V30 15261 N 1407.32 1.10721 -5.69843 0
M  V30 15262 H 1410.09 -1.51532 -2.5857 0
M  V30 15263 H 1407.65 -0.940815 -1.31758 0
M  V30 15264 H 1409.64 0.580395 -4.00517 0
M  V30 15265 H 1408.21 0.902599 -2.99286 0
M  V30 15266 H 1407.43 -1.49538 -3.64735 0
M  V30 15267 H 1408.72 -1.48946 -4.86511 0
M  V30 15268 H 1408.12 1.64423 -5.41278 0
M  V30 15269 H 1406.67 1.52344 -6.33746 0
M  V30 15270 N 1410.11 1.33347 -0.840014 0
M  V30 15271 C 1411.04 2.31703 -0.289138 0
M  V30 15272 C 1412.02 1.59024 0.603759 0
M  V30 15273 O 1413.2 1.86911 0.527071 0
M  V30 15274 C 1410.33 3.43144 0.53566 0
M  V30 15275 C 1409.29 4.272 -0.261544 0
M  V30 15276 C 1408.61 5.30267 0.687075 0
M  V30 15277 C 1409.91 5.00915 -1.47924 0
M  V30 15278 H 1411.61 2.78026 -1.11094 0
M  V30 15279 H 1409.15 1.33666 -0.535658 0
M  V30 15280 H 1411.11 4.10979 0.931351 0
M  V30 15281 H 1409.83 2.95512 1.39069 0
M  V30 15282 H 1408.49 3.60991 -0.638809 0
M  V30 15283 H 1408.14 4.78893 1.53853 0
M  V30 15284 H 1407.84 5.87388 0.157773 0
M  V30 15285 H 1409.36 6.00968 1.08026 0
M  V30 15286 H 1410.78 5.61511 -1.15664 0
M  V30 15287 H 1409.17 5.67692 -1.94541 0
M  V30 15288 H 1410.24 4.29622 -2.24839 0
M  V30 15289 N 1411.59 0.596556 1.45873 0
M  V30 15290 C 1412.81 0.0934926 2.06689 0
M  V30 15291 C 1413.23 -1.21743 1.44305 0
M  V30 15292 O 1412.59 -1.73912 0.553253 0
M  V30 15293 C 1412.64 -0.0643337 3.61443 0
M  V30 15294 O 1412.36 1.19472 4.21495 0
M  V30 15295 C 1413.86 -0.600141 4.39219 0
M  V30 15296 H 1411.08 0.0637846 0.667961 0
M  V30 15297 H 1413.62 0.821159 1.87289 0
M  V30 15298 H 1411.78 -0.742278 3.80222 0
M  V30 15299 H 1412.19 1.01735 5.14539 0
M  V30 15300 H 1413.67 -0.6597 5.48044 0
M  V30 15301 H 1414.14 -1.62009 4.08227 0
M  V30 15302 H 1414.75 0.0433915 4.25278 0
M  V30 15303 N 1413.06 -1.53996 0.335095 0
M  V30 15304 C 1413.97 -2.28436 -0.534244 0
M  V30 15305 C 1414.99 -1.33224 -1.11926 0
M  V30 15306 O 1416.17 -1.66252 -1.13676 0
M  V30 15307 C 1413.23 -3.03634 -1.67354 0
M  V30 15308 C 1412.29 -4.14455 -1.11916 0
M  V30 15309 C 1411.52 -4.86058 -2.20416 0
M  V30 15310 O 1411.75 -4.57263 -3.40979 0
M  V30 15311 O 1410.68 -5.72704 -1.85185 0
M  V30 15312 H 1414.51 -3.03618 0.0706314 0
M  V30 15313 H 1412.09 -1.49062 0.100409 0
M  V30 15314 H 1413.97 -3.50687 -2.33659 0
M  V30 15315 H 1412.65 -2.31317 -2.26438 0
M  V30 15316 H 1411.56 -3.71725 -0.420871 0
M  V30 15317 H 1412.89 -4.8885 -0.573295 0
M  V30 15318 N 1414.54 -0.0635198 -1.57472 0
M  V30 15319 C 1415.5 0.891881 -2.11135 0
M  V30 15320 C 1416.5 1.23182 -1.03358 0
M  V30 15321 O 1417.69 1.16646 -1.2938 0
M  V30 15322 C 1414.83 2.19792 -2.60584 0
M  V30 15323 H 1416.02 0.426461 -2.96852 0
M  V30 15324 H 1413.57 0.185069 -1.552 0
M  V30 15325 H 1414.31 2.70889 -1.78297 0
M  V30 15326 H 1414.09 1.96419 -3.39355 0
M  V30 15327 H 1415.58 2.88203 -3.02206 0
M  V30 15328 N 1416.02 1.56195 0.209972 0
M  V30 15329 C 1417.27 1.80011 0.93402 0
M  V30 15330 C 1417.6 0.635109 1.83521 0
M  V30 15331 O 1416.87 -0.365099 1.91043 0
M  V30 15332 C 1417.16 3.13989 1.76304 0
M  V30 15333 C 1417.01 4.40956 0.887567 0
M  V30 15334 C 1418.33 3.44514 2.73857 0
M  V30 15335 H 1415.45 0.654859 0.338125 0
M  V30 15336 H 1418.09 1.88921 0.20221 0
M  V30 15337 H 1416.24 3.06524 2.38695 0
M  V30 15338 H 1417.91 4.60452 0.279507 0
M  V30 15339 H 1416.15 4.33368 0.193533 0
M  V30 15340 H 1416.83 5.31164 1.50228 0
M  V30 15341 H 1419.3 3.52182 2.216 0
M  V30 15342 H 1418.18 4.39407 3.28957 0
M  V30 15343 H 1418.44 2.6726 3.52171 0
M  V30 15344 N 1417.5 -0.477127 1.50204 0
M  V30 15345 C 1418.43 -1.59319 1.64773 0
M  V30 15346 C 1419.44 -1.53951 0.529427 0
M  V30 15347 O 1420.63 -1.59449 0.802388 0
M  V30 15348 C 1417.73 -2.98185 1.61055 0
M  V30 15349 C 1416.9 -3.28486 2.88817 0
M  V30 15350 C 1415.96 -4.46878 2.77825 0
M  V30 15351 O 1414.99 -4.47483 3.51778 0
M  V30 15352 N 1416.19 -5.48187 1.90974 0
M  V30 15353 H 1418.96 -1.4724 2.61037 0
M  V30 15354 H 1416.52 -0.66544 1.47592 0
M  V30 15355 H 1418.51 -3.75345 1.51323 0
M  V30 15356 H 1417.08 -3.04064 0.725509 0
M  V30 15357 H 1416.3 -2.39997 3.12722 0
M  V30 15358 H 1417.59 -3.4554 3.7347 0
M  V30 15359 H 1416.99 -5.50515 1.30192 0
M  V30 15360 H 1415.54 -6.24355 1.87148 0
M  V30 15361 N 1418.98 -1.3968 -0.729882 0
M  V30 15362 C 1419.92 -1.38808 -1.84393 0
M  V30 15363 C 1420.89 -0.247035 -1.64253 0
M  V30 15364 O 1422.08 -0.44293 -1.85588 0
M  V30 15365 C 1419.22 -1.2424 -3.2196 0
M  V30 15366 C 1418.33 -2.47932 -3.53771 0
M  V30 15367 C 1417.47 -2.25913 -4.80767 0
M  V30 15368 C 1416.51 -3.45254 -5.05436 0
M  V30 15369 N 1415.64 -3.2252 -6.23638 0
M  V30 15370 H 1420.48 -2.34038 -1.84473 0
M  V30 15371 H 1418.02 -1.16252 -0.901332 0
M  V30 15372 H 1419.98 -1.13804 -4.01378 0
M  V30 15373 H 1418.61 -0.326375 -3.21146 0
M  V30 15374 H 1417.66 -2.68952 -2.69015 0
M  V30 15375 H 1418.97 -3.36806 -3.67917 0
M  V30 15376 H 1418.13 -2.12748 -5.68175 0
M  V30 15377 H 1416.86 -1.34441 -4.68804 0
M  V30 15378 H 1415.87 -3.58912 -4.16488 0
M  V30 15379 H 1417.09 -4.37634 -5.19282 0
M  V30 15380 H 1415.04 -2.33718 -6.12953 0
M  V30 15381 H 1414.96 -4.04954 -6.38395 0
M  V30 15382 H 1416.23 -3.1306 -7.13872 0
M  V30 15383 N 1420.45 0.960609 -1.2494 0
M  V30 15384 C 1421.7 1.69884 -1.08731 0
M  V30 15385 C 1422.02 1.92018 0.372602 0
M  V30 15386 O 1423.22 2.6348 0.655018 0
M  V30 15387 C 1421.68 3.05815 -1.8975 0
M  V30 15388 C 1421.29 2.91498 -3.40196 0
M  V30 15389 C 1423.03 3.83462 -1.82092 0
M  V30 15390 C 1420.94 4.22783 -4.13532 0
M  V30 15391 H 1419.87 0.637087 -0.403281 0
M  V30 15392 H 1422.52 1.06987 -1.49084 0
M  V30 15393 H 1420.9 3.69582 -1.42216 0
M  V30 15394 H 1422.07 2.367 -3.9536 0
M  V30 15395 H 1420.39 2.27312 -3.48882 0
M  V30 15396 H 1422.99 4.8069 -2.34181 0
M  V30 15397 H 1423.33 4.08782 -0.787597 0
M  V30 15398 H 1423.86 3.26435 -2.27344 0
M  V30 15399 H 1420.6 4.02653 -5.17253 0
M  V30 15400 H 1420.12 4.77369 -3.63152 0
M  V30 15401 H 1421.8 4.91361 -4.2092 0
M  V30 15402 N 1421.93 1.0643 1.16234 0
M  V30 15403 C 1422.9 0.680383 2.18869 0
M  V30 15404 C 1423.9 -0.274591 1.58438 0
M  V30 15405 O 1425.09 -0.0567907 1.74107 0
M  V30 15406 C 1422.22 0.00134091 3.409 0
M  V30 15407 H 1423.41 1.58894 2.54347 0
M  V30 15408 H 1420.96 0.859688 1.30534 0
M  V30 15409 H 1421.7 -0.919903 3.1098 0
M  V30 15410 H 1421.48 0.688057 3.86016 0
M  V30 15411 H 1422.97 -0.252938 4.16833 0
M  V30 15412 N 1423.41 -1.329 0.847073 0
M  V30 15413 C 1424.64 -2.0171 0.460497 0
M  V30 15414 C 1425.05 -1.63699 -0.940649 0
M  V30 15415 O 1424.41 -0.854454 -1.61262 0
M  V30 15416 C 1424.46 -3.56799 0.581108 0
M  V30 15417 O 1424.18 -3.93442 1.92705 0
M  V30 15418 C 1425.68 -4.42882 0.192552 0
M  V30 15419 H 1422.9 -0.645887 0.181853 0
M  V30 15420 H 1425.45 -1.69648 1.14192 0
M  V30 15421 H 1423.6 -3.87364 -0.0524924 0
M  V30 15422 H 1424.02 -4.88157 1.91841 0
M  V30 15423 H 1425.49 -5.51025 0.327969 0
M  V30 15424 H 1425.97 -4.30571 -0.866315 0
M  V30 15425 H 1426.57 -4.17691 0.800918 0
M  V30 15426 N 1424.89 -0.604284 -1.45555 0
M  V30 15427 C 1425.8 0.118409 -2.34301 0
M  V30 15428 C 1426.81 0.863807 -1.51044 0
M  V30 15429 O 1427.99 0.822138 -1.83856 0
M  V30 15430 C 1425.06 1.10538 -3.28606 0
M  V30 15431 C 1424.12 0.362301 -4.27768 0
M  V30 15432 C 1423.35 1.30226 -5.17568 0
M  V30 15433 O 1423.57 2.53991 -5.10729 0
M  V30 15434 O 1422.51 0.801116 -5.96545 0
M  V30 15435 H 1426.33 -0.610816 -2.97494 0
M  V30 15436 H 1423.92 -0.364562 -1.44884 0
M  V30 15437 H 1425.8 1.67392 -3.86727 0
M  V30 15438 H 1424.47 1.81569 -2.67982 0
M  V30 15439 H 1423.38 -0.248616 -3.73273 0
M  V30 15440 H 1424.71 -0.307454 -4.91239 0
M  V30 15441 N 1426.37 1.53816 -0.343257 0
M  V30 15442 C 1427.59 2.05796 0.257418 0
M  V30 15443 C 1428.02 1.2166 1.43459 0
M  V30 15444 O 1427.37 0.230278 1.79832 0
M  V30 15445 C 1427.42 3.54681 0.65068 0
M  V30 15446 O 1426.53 3.73394 1.75074 0
M  V30 15447 H 1425.87 0.662622 0.042757 0
M  V30 15448 H 1428.4 1.98462 -0.497386 0
M  V30 15449 H 1428.41 3.97308 0.927914 0
M  V30 15450 H 1427.08 4.15368 -0.210199 0
M  V30 15451 H 1425.66 3.42669 1.4708 0
M  V30 15452 N 1427.84 0.0718701 1.57436 0
M  V30 15453 C 1429.09 -0.596799 1.92669 0
M  V30 15454 C 1429.41 -1.70765 0.953876 0
M  V30 15455 O 1430.61 -2.43589 1.19903 0
M  V30 15456 C 1429.07 -1.11291 3.42261 0
M  V30 15457 C 1428.68 -0.0330681 4.47988 0
M  V30 15458 C 1430.42 -1.75564 3.86494 0
M  V30 15459 C 1428.33 -0.56323 5.88712 0
M  V30 15460 H 1427.26 -0.226695 0.719114 0
M  V30 15461 H 1429.91 0.144117 1.82933 0
M  V30 15462 H 1428.29 -1.9068 3.4707 0
M  V30 15463 H 1429.46 0.741501 4.54795 0
M  V30 15464 H 1427.78 0.513438 4.13222 0
M  V30 15465 H 1430.38 -2.16261 4.89014 0
M  V30 15466 H 1430.72 -2.61566 3.23865 0
M  V30 15467 H 1431.25 -1.02798 3.84288 0
M  V30 15468 H 1427.99 0.259632 6.54986 0
M  V30 15469 H 1427.51 -1.30532 5.85424 0
M  V30 15470 H 1429.19 -1.03961 6.38593 0
M  V30 15471 N 1429.32 -1.56304 -0.201686 0
M  V30 15472 C 1430.57 -1.80504 -0.92446 0
M  V30 15473 C 1430.9 -0.644832 -1.83182 0
M  V30 15474 O 1430.18 0.354963 -1.91234 0
M  V30 15475 C 1430.46 -3.14919 -1.74636 0
M  V30 15476 C 1430.31 -4.41421 -0.864169 0
M  V30 15477 C 1431.63 -3.45962 -2.72026 0
M  V30 15478 H 1428.75 -0.656643 -0.334648 0
M  V30 15479 H 1431.39 -1.89025 -0.192188 0
M  V30 15480 H 1429.54 -3.07785 -2.37066 0
M  V30 15481 H 1431.21 -4.60594 -0.255084 0
M  V30 15482 H 1429.46 -4.33465 -0.170548 0
M  V30 15483 H 1430.13 -5.31954 -1.47409 0
M  V30 15484 H 1432.6 -3.53353 -2.1973 0
M  V30 15485 H 1431.48 -4.41146 -3.26622 0
M  V30 15486 H 1431.74 -2.69124 -3.50749 0
M  V30 15487 N 1430.8 0.469154 -1.50455 0
M  V30 15488 C 1432.05 1.21788 -1.60781 0
M  V30 15489 C 1432.36 1.93054 -0.314576 0
M  V30 15490 O 1433.57 2.69873 -0.296773 0
M  V30 15491 C 1432.02 2.21305 -2.83817 0
M  V30 15492 C 1431.63 1.55833 -4.20024 0
M  V30 15493 C 1433.38 2.96808 -3.03489 0
M  V30 15494 C 1431.28 2.53648 -5.34244 0
M  V30 15495 H 1430.21 0.45827 -0.598752 0
M  V30 15496 H 1432.86 0.488159 -1.76888 0
M  V30 15497 H 1431.25 2.97577 -2.61273 0
M  V30 15498 H 1432.42 0.853371 -4.52829 0
M  V30 15499 H 1430.74 0.926046 -4.05972 0
M  V30 15500 H 1433.33 3.70017 -3.85994 0
M  V30 15501 H 1433.68 3.56307 -2.15293 0
M  V30 15502 H 1434.21 2.27648 -3.26223 0
M  V30 15503 H 1430.95 1.98885 -6.246 0
M  V30 15504 H 1430.47 3.22291 -5.05854 0
M  V30 15505 H 1432.15 3.15438 -5.64897 0
M  V30 15506 N 1432.28 1.40065 0.722464 0
M  V30 15507 C 1433.52 1.39178 1.48328 0
M  V30 15508 C 1433.88 -0.00849644 1.92398 0
M  V30 15509 O 1433.17 -0.977541 1.64787 0
M  V30 15510 C 1433.37 2.30949 2.72759 0
M  V30 15511 C 1433.2 3.7976 2.40857 0
M  V30 15512 C 1431.97 4.48615 2.32535 0
M  V30 15513 C 1434.16 4.71426 2.05576 0
M  V30 15514 N 1432.15 5.82695 1.93236 0
M  V30 15515 C 1433.52 5.94251 1.76822 0
M  V30 15516 C 1435.57 4.59327 1.92153 0
M  V30 15517 C 1434.27 7.06327 1.35996 0
M  V30 15518 C 1436.3 5.71338 1.5273 0
M  V30 15519 C 1435.66 6.93244 1.24869 0
M  V30 15520 H 1431.76 0.564547 0.541119 0
M  V30 15521 H 1434.35 1.7572 0.838475 0
M  V30 15522 H 1432.52 1.96545 3.35 0
M  V30 15523 H 1434.25 2.20967 3.39051 0
M  V30 15524 H 1431 4.0221 2.50048 0
M  V30 15525 H 1431.43 6.53684 1.76144 0
M  V30 15526 H 1436.07 3.65602 2.12356 0
M  V30 15527 H 1433.79 7.99942 1.14535 0
M  V30 15528 H 1437.37 5.6397 1.42932 0
M  V30 15529 H 1436.25 7.78446 0.948221 0
M  V30 15530 N 1433.76 -0.95397 1.25448 0
M  V30 15531 C 1435.01 -1.6953 1.10018 0
M  V30 15532 C 1435.33 -1.9166 -0.359385 0
M  V30 15533 O 1434.6 -1.50417 -1.25506 0
M  V30 15534 H 1433.18 -0.628238 0.404136 0
M  V30 15535 H 1435.84 -1.14691 1.57581 0
M  V30 15536 H 1434.93 -2.67427 1.60901 0
M  V30 15537 N 1435.24 -1.07045 -1.15668 0
M  V30 15538 C 1436.18 -0.688004 -2.20307 0
M  V30 15539 C 1437.15 0.319081 -1.63006 0
M  V30 15540 O 1438.34 0.206239 -1.89682 0
M  V30 15541 C 1435.48 -0.0886692 -3.44986 0
M  V30 15542 C 1434.59 -1.14685 -4.16499 0
M  V30 15543 C 1433.73 -0.512852 -5.28719 0
M  V30 15544 C 1432.76 -1.55404 -5.92044 0
M  V30 15545 N 1431.9 -0.942848 -6.9574 0
M  V30 15546 H 1436.74 -1.58469 -2.52372 0
M  V30 15547 H 1434.28 -0.792184 -1.23947 0
M  V30 15548 H 1436.24 0.276415 -4.16283 0
M  V30 15549 H 1434.87 0.77139 -3.13448 0
M  V30 15550 H 1433.92 -1.62955 -3.43729 0
M  V30 15551 H 1435.23 -1.93643 -4.59678 0
M  V30 15552 H 1434.38 -0.0952274 -6.06625 0
M  V30 15553 H 1433.12 0.308524 -4.86723 0
M  V30 15554 H 1432.13 -1.98148 -5.12852 0
M  V30 15555 H 1433.35 -2.37765 -6.36117 0
M  V30 15556 H 1431.3 -0.142319 -6.55846 0
M  V30 15557 H 1431.22 -1.6697 -7.37331 0
M  V30 15558 H 1432.48 -0.550621 -7.77553 0
M  V30 15559 N 1436.71 1.32449 -0.85411 0
M  V30 15560 C 1437.94 2.01463 -0.471188 0
M  V30 15561 C 1438.36 1.64195 0.931954 0
M  V30 15562 O 1437.71 0.862994 1.60806 0
M  V30 15563 C 1437.76 3.56486 -0.600022 0
M  V30 15564 O 1437.49 3.92414 -1.94789 0
M  V30 15565 C 1438.99 4.42773 -0.216036 0
M  V30 15566 H 1436.21 0.644914 -0.185275 0
M  V30 15567 H 1438.75 1.6904 -1.1509 0
M  V30 15568 H 1436.91 3.87387 0.0319488 0
M  V30 15569 H 1437.32 4.87133 -1.94427 0
M  V30 15570 H 1438.79 5.50843 -0.357186 0
M  V30 15571 H 1439.27 4.31025 0.843468 0
M  V30 15572 H 1439.88 4.1726 -0.823058 0
M  V30 15573 N 1438.19 0.611994 1.45232 0
M  V30 15574 C 1439.6 0.193464 1.85695 0
M  V30 15575 C 1439.95 -1.25069 1.5117 0
M  V30 15576 O 1439.08 -1.94894 0.940497 0
M  V30 15577 C 1439.67 0.344334 3.37046 0
M  V30 15578 C 1438.23 -0.0195378 3.76395 0
M  V30 15579 C 1437.38 0.666714 2.69166 0
M  V30 15580 H 1440.33 0.818395 1.35971 0
M  V30 15581 H 1440.35 -0.422209 3.7815 0
M  V30 15582 H 1439.86 1.3955 3.62143 0
M  V30 15583 H 1437.96 -1.06971 3.56915 0
M  V30 15584 H 1438.08 0.377184 4.77613 0
M  V30 15585 H 1436.44 0.103912 2.54488 0
M  V30 15586 H 1437.22 1.7201 2.97099 0
M  V30 15587 N 1439.67 -1.53632 0.351409 0
M  V30 15588 C 1440.62 -2.25281 -0.501724 0
M  V30 15589 C 1441.59 -1.25406 -1.08915 0
M  V30 15590 O 1442.77 -1.54157 -1.1243 0
M  V30 15591 C 1439.91 -3.03491 -1.64278 0
M  V30 15592 C 1439.02 -4.18233 -1.0819 0
M  V30 15593 C 1438.16 -4.83914 -2.1909 0
M  V30 15594 C 1437.2 -5.90712 -1.60394 0
M  V30 15595 N 1436.34 -6.50141 -2.65068 0
M  V30 15596 H 1441.18 -2.97775 0.11579 0
M  V30 15597 H 1438.71 -1.46938 0.0689141 0
M  V30 15598 H 1440.67 -3.47101 -2.31467 0
M  V30 15599 H 1439.3 -2.33279 -2.23116 0
M  V30 15600 H 1438.35 -3.7921 -0.300713 0
M  V30 15601 H 1439.66 -4.95023 -0.612644 0
M  V30 15602 H 1438.82 -5.30635 -2.94128 0
M  V30 15603 H 1437.56 -4.06565 -2.69362 0
M  V30 15604 H 1436.56 -5.43366 -0.838646 0
M  V30 15605 H 1437.79 -6.69973 -1.10964 0
M  V30 15606 H 1435.73 -5.75652 -3.14581 0
M  V30 15607 H 1435.65 -7.22427 -2.22788 0
M  V30 15608 H 1436.92 -7.01513 -3.39852 0
M  V30 15609 N 1441.15 -0.0802183 -1.57396 0
M  V30 15610 C 1442.39 0.586962 -1.93807 0
M  V30 15611 C 1442.72 1.69107 -0.960887 0
M  V30 15612 O 1441.98 1.95688 0.0220779 0
M  V30 15613 C 1442.28 1.19551 -3.36812 0
M  V30 15614 C 1441.94 0.216701 -4.50379 0
M  V30 15615 C 1440.6 -0.0525552 -4.81171 0
M  V30 15616 C 1442.96 -0.452467 -5.19232 0
M  V30 15617 C 1440.28 -0.997923 -5.78151 0
M  V30 15618 C 1442.64 -1.38621 -6.17225 0
M  V30 15619 C 1441.3 -1.66385 -6.4643 0
M  V30 15620 H 1440.57 0.214785 -0.709189 0
M  V30 15621 H 1443.22 -0.152888 -1.90889 0
M  V30 15622 H 1441.52 2.01129 -3.36236 0
M  V30 15623 H 1443.22 1.71918 -3.62278 0
M  V30 15624 H 1439.81 0.436747 -4.26369 0
M  V30 15625 H 1443.99 -0.257573 -4.95631 0
M  V30 15626 H 1439.25 -1.22019 -5.991 0
M  V30 15627 H 1443.42 -1.91063 -6.69677 0
M  V30 15628 H 1441.05 -2.39799 -7.21388 0
M  V30 15629 N 1442.63 1.56409 0.193394 0
M  V30 15630 C 1443.57 1.94681 1.23968 0
M  V30 15631 C 1444.54 0.807634 1.45143 0
M  V30 15632 O 1445.73 1.06593 1.58248 0
M  V30 15633 C 1442.87 2.29306 2.57901 0
M  V30 15634 C 1441.98 3.56296 2.4429 0
M  V30 15635 C 1441.12 3.80235 3.70938 0
M  V30 15636 C 1440.15 5.00645 3.52167 0
M  V30 15637 N 1439.29 5.20829 4.70831 0
M  V30 15638 H 1444.13 2.83884 0.906298 0
M  V30 15639 H 1441.67 1.40486 0.436146 0
M  V30 15640 H 1443.63 2.47398 3.35932 0
M  V30 15641 H 1442.26 1.43241 2.89278 0
M  V30 15642 H 1441.31 3.46241 1.57547 0
M  V30 15643 H 1442.62 4.44483 2.26354 0
M  V30 15644 H 1441.77 3.98575 4.57408 0
M  V30 15645 H 1440.51 2.90381 3.91829 0
M  V30 15646 H 1439.52 4.82225 2.64081 0
M  V30 15647 H 1440.74 5.92009 3.32719 0
M  V30 15648 H 1438.69 4.33923 4.91983 0
M  V30 15649 H 1438.61 6.03199 4.55726 0
M  V30 15650 H 1439.87 5.4363 5.58648 0
M  V30 15651 N 1444.1 -0.461169 1.50702 0
M  V30 15652 C 1445.03 -1.56576 1.73223 0
M  V30 15653 C 1446.01 -1.59855 0.581401 0
M  V30 15654 O 1447.2 -1.75964 0.821602 0
M  V30 15655 C 1444.33 -2.94835 1.83548 0
M  V30 15656 C 1443.28 -3.06421 2.98815 0
M  V30 15657 C 1442.61 -4.46425 2.94293 0
M  V30 15658 C 1443.91 -2.82714 4.3917 0
M  V30 15659 H 1445.6 -1.37982 2.65709 0
M  V30 15660 H 1443.15 -0.662362 1.27862 0
M  V30 15661 H 1445.1 -3.72047 1.97887 0
M  V30 15662 H 1443.83 -3.14608 0.876906 0
M  V30 15663 H 1442.49 -2.31644 2.84142 0
M  V30 15664 H 1442.13 -4.63131 1.96262 0
M  V30 15665 H 1441.83 -4.55111 3.71682 0
M  V30 15666 H 1443.36 -5.25644 3.10695 0
M  V30 15667 H 1444.77 -3.4967 4.54317 0
M  V30 15668 H 1443.17 -3.02835 5.18084 0
M  V30 15669 H 1444.24 -1.78492 4.50853 0
M  V30 15670 N 1445.58 -1.40446 -0.715026 0
M  V30 15671 C 1446.99 -1.34564 -1.29419 0
M  V30 15672 C 1447.34 -0.0193984 -1.9619 0
M  V30 15673 O 1446.47 0.882616 -1.97582 0
M  V30 15674 C 1447.06 -2.43721 -2.35342 0
M  V30 15675 C 1445.62 -2.41297 -2.88881 0
M  V30 15676 C 1444.77 -2.2457 -1.62676 0
M  V30 15677 H 1447.72 -1.50244 -0.511116 0
M  V30 15678 H 1447.74 -2.1166 -3.16197 0
M  V30 15679 H 1447.25 -3.40234 -1.86715 0
M  V30 15680 H 1445.35 -1.48483 -3.41736 0
M  V30 15681 H 1445.47 -3.36903 -3.40637 0
M  V30 15682 H 1443.83 -1.72096 -1.87763 0
M  V30 15683 H 1444.61 -3.23082 -1.16074 0
M  V30 15684 N 1447.06 0.947303 -1.25952 0
M  V30 15685 C 1448.31 1.68721 -1.10527 0
M  V30 15686 C 1448.62 1.92403 0.352215 0
M  V30 15687 O 1449.83 2.6416 0.627036 0
M  V30 15688 C 1448.28 3.03785 -1.92983 0
M  V30 15689 C 1447.89 2.87873 -3.43268 0
M  V30 15690 C 1449.64 3.81509 -1.86149 0
M  V30 15691 C 1447.54 4.18373 -4.17993 0
M  V30 15692 H 1446.47 0.632774 -0.410016 0
M  V30 15693 H 1449.12 1.054 -1.5021 0
M  V30 15694 H 1447.51 3.68052 -1.46128 0
M  V30 15695 H 1448.68 2.32493 -3.97848 0
M  V30 15696 H 1446.99 2.23598 -3.51273 0
M  V30 15697 H 1449.59 4.78179 -2.39267 0
M  V30 15698 H 1449.93 4.07923 -0.83091 0
M  V30 15699 H 1450.47 3.24005 -2.30794 0
M  V30 15700 H 1447.21 3.97145 -5.21494 0
M  V30 15701 H 1446.73 4.7349 -3.68194 0
M  V30 15702 H 1448.41 4.86869 -4.26108 0
M  V30 15703 N 1448.54 1.07657 1.15099 0
M  V30 15704 C 1449.47 0.657598 2.19564 0
M  V30 15705 C 1450.48 -0.29146 1.6017 0
M  V30 15706 O 1451.67 -0.0802981 1.78319 0
M  V30 15707 C 1448.77 -0.0542221 3.38857 0
M  V30 15708 C 1447.95 0.911803 4.27791 0
M  V30 15709 C 1447 0.236709 5.25667 0
M  V30 15710 O 1446.03 0.878731 5.62376 0
M  V30 15711 N 1447.23 -1.01641 5.71532 0
M  V30 15712 H 1450 1.55626 2.56126 0
M  V30 15713 H 1447.56 0.961657 1.30245 0
M  V30 15714 H 1449.55 -0.516603 4.01389 0
M  V30 15715 H 1448.12 -0.854871 3.00684 0
M  V30 15716 H 1447.34 1.55322 3.6231 0
M  V30 15717 H 1448.63 1.56667 4.8408 0
M  V30 15718 H 1448.03 -1.55791 5.43825 0
M  V30 15719 H 1446.58 -1.42242 6.3609 0
M  V30 15720 N 1450.02 -1.31994 0.861122 0
M  V30 15721 C 1450.96 -2.28729 0.308476 0
M  V30 15722 C 1451.93 -1.55338 -0.588148 0
M  V30 15723 O 1453.12 -1.8353 -0.52168 0
M  V30 15724 C 1450.26 -3.4158 -0.491621 0
M  V30 15725 C 1449.37 -4.29839 0.431522 0
M  V30 15726 C 1448.51 -5.29826 -0.381836 0
M  V30 15727 C 1447.55 -6.09728 0.538296 0
M  V30 15728 N 1446.68 -7.01696 -0.238274 0
M  V30 15729 H 1451.52 -2.75389 1.13863 0
M  V30 15730 H 1449.06 -1.35485 0.572911 0
M  V30 15731 H 1451.02 -4.05738 -0.971193 0
M  V30 15732 H 1449.65 -2.96054 -1.28654 0
M  V30 15733 H 1448.7 -3.66204 1.02951 0
M  V30 15734 H 1450.01 -4.85658 1.13742 0
M  V30 15735 H 1449.17 -5.99618 -0.924297 0
M  V30 15736 H 1447.9 -4.7464 -1.12107 0
M  V30 15737 H 1446.91 -5.38834 1.09259 0
M  V30 15738 H 1448.13 -6.67 1.27625 0
M  V30 15739 H 1446.08 -6.4893 -0.960486 0
M  V30 15740 H 1446 -7.54896 0.408466 0
M  V30 15741 H 1447.27 -7.75764 -0.762252 0
M  V30 15742 N 1451.49 -0.619688 -1.44906 0
M  V30 15743 C 1452.4 0.0935512 -2.34413 0
M  V30 15744 C 1453.42 0.847738 -1.51952 0
M  V30 15745 O 1454.6 0.802591 -1.84717 0
M  V30 15746 C 1451.66 1.07047 -3.2976 0
M  V30 15747 C 1450.72 0.31691 -4.28129 0
M  V30 15748 C 1449.96 1.24729 -5.1892 0
M  V30 15749 O 1450.18 2.4856 -5.13395 0
M  V30 15750 O 1449.11 0.737799 -5.97361 0
M  V30 15751 H 1452.94 -0.642335 -2.96829 0
M  V30 15752 H 1450.52 -0.379908 -1.44489 0
M  V30 15753 H 1452.41 1.63281 -3.88481 0
M  V30 15754 H 1451.08 1.78717 -2.69893 0
M  V30 15755 H 1449.99 -0.288192 -3.72988 0
M  V30 15756 H 1451.32 -0.359539 -4.90885 0
M  V30 15757 N 1452.97 1.53444 -0.359552 0
M  V30 15758 C 1454.2 2.05584 0.232953 0
M  V30 15759 C 1454.62 1.23347 1.42937 0
M  V30 15760 O 1453.97 0.272662 1.80452 0
M  V30 15761 C 1454.02 3.55926 0.632359 0
M  V30 15762 O 1453.74 4.35045 -0.516494 0
M  V30 15763 C 1455.25 4.24301 1.28389 0
M  V30 15764 H 1452.47 0.669676 0.042132 0
M  V30 15765 H 1455.01 1.97878 -0.516176 0
M  V30 15766 H 1453.16 3.63802 1.33141 0
M  V30 15767 H 1453.58 5.24138 -0.194906 0
M  V30 15768 H 1455.05 5.30832 1.51397 0
M  V30 15769 H 1455.53 3.77644 2.24236 0
M  V30 15770 H 1456.14 4.20661 0.626438 0
M  V30 15771 N 1454.45 0.0885642 1.57351 0
M  V30 15772 C 1455.7 -0.571435 1.95208 0
M  V30 15773 C 1456.05 -1.66196 0.96936 0
M  V30 15774 O 1455.34 -1.91599 -0.00570677 0
M  V30 15775 C 1455.54 -1.17764 3.37441 0
M  V30 15776 C 1455.37 -0.147362 4.49458 0
M  V30 15777 C 1454.14 0.273866 5.04557 0
M  V30 15778 C 1456.34 0.621935 5.10526 0
M  V30 15779 N 1454.32 1.29309 6.00127 0
M  V30 15780 C 1455.69 1.49317 6.01751 0
M  V30 15781 C 1457.74 0.676169 4.93287 0
M  V30 15782 C 1456.45 2.41386 6.77588 0
M  V30 15783 C 1458.47 1.58443 5.6978 0
M  V30 15784 C 1457.83 2.44331 6.60668 0
M  V30 15785 H 1453.93 -0.179629 0.76109 0
M  V30 15786 H 1456.52 0.169612 1.9396 0
M  V30 15787 H 1454.69 -1.88853 3.39395 0
M  V30 15788 H 1456.42 -1.79947 3.62493 0
M  V30 15789 H 1453.18 -0.112587 4.73466 0
M  V30 15790 H 1453.6 1.80072 6.52613 0
M  V30 15791 H 1458.24 0.0263199 4.22792 0
M  V30 15792 H 1455.96 3.07399 7.4735 0
M  V30 15793 H 1459.55 1.63145 5.58458 0
M  V30 15794 H 1458.43 3.1347 7.18823 0
M  V30 15795 N 1455.93 -1.56509 -0.185096 0
M  V30 15796 C 1456.84 -1.98552 -1.24958 0
M  V30 15797 C 1457.85 -0.894713 -1.49234 0
M  V30 15798 O 1459.03 -1.20126 -1.61653 0
M  V30 15799 C 1456.1 -2.32513 -2.57175 0
M  V30 15800 C 1455.16 -3.55351 -2.40882 0
M  V30 15801 C 1454.39 -3.87683 -3.66794 0
M  V30 15802 O 1454.61 -3.21167 -4.7139 0
M  V30 15803 O 1453.55 -4.8108 -3.61726 0
M  V30 15804 H 1457.37 -2.89342 -0.922756 0
M  V30 15805 H 1454.96 -1.44196 -0.390887 0
M  V30 15806 H 1456.84 -2.55387 -3.35195 0
M  V30 15807 H 1455.51 -1.44888 -2.89464 0
M  V30 15808 H 1454.42 -3.37712 -1.60939 0
M  V30 15809 H 1455.75 -4.43474 -2.13522 0
M  V30 15810 N 1457.41 0.45317 -1.50944 0
M  V30 15811 C 1458.63 1.22672 -1.66611 0
M  V30 15812 C 1459.05 1.85398 -0.356814 0
M  V30 15813 O 1458.41 1.70026 0.663122 0
M  V30 15814 C 1458.46 2.32238 -2.77034 0
M  V30 15815 O 1458.18 1.72081 -4.02889 0
M  V30 15816 C 1459.68 3.22802 -3.03832 0
M  V30 15817 H 1456.9 0.370337 -0.559546 0
M  V30 15818 H 1459.44 0.538884 -1.97272 0
M  V30 15819 H 1457.6 2.96765 -2.49017 0
M  V30 15820 H 1458.01 2.4437 -4.64095 0
M  V30 15821 H 1459.49 3.95851 -3.84716 0
M  V30 15822 H 1459.96 3.82636 -2.15608 0
M  V30 15823 H 1460.57 2.63993 -3.33449 0
M  V30 15824 N 1458.88 1.40823 0.707568 0
M  V30 15825 C 1460.13 1.40743 1.46843 0
M  V30 15826 C 1460.49 0.0119104 1.92396 0
M  V30 15827 O 1459.78 -0.960008 1.65814 0
M  V30 15828 C 1459.97 2.33829 2.70294 0
M  V30 15829 C 1459.8 3.82294 2.36816 0
M  V30 15830 C 1458.57 4.51056 2.27764 0
M  V30 15831 C 1460.77 4.7358 2.00565 0
M  V30 15832 N 1458.75 5.84711 1.87045 0
M  V30 15833 C 1460.12 5.96093 1.7051 0
M  V30 15834 C 1462.18 4.6134 1.8727 0
M  V30 15835 C 1460.88 7.07729 1.28497 0
M  V30 15836 C 1462.91 5.72926 1.46662 0
M  V30 15837 C 1462.27 6.94529 1.1751 0
M  V30 15838 H 1458.37 0.570255 0.535101 0
M  V30 15839 H 1460.95 1.766 0.81979 0
M  V30 15840 H 1459.12 2.00087 3.32896 0
M  V30 15841 H 1460.85 2.2455 3.36689 0
M  V30 15842 H 1457.61 4.04839 2.45768 0
M  V30 15843 H 1458.03 6.55515 1.69201 0
M  V30 15844 H 1462.68 3.67834 2.08467 0
M  V30 15845 H 1460.39 8.01112 1.06044 0
M  V30 15846 H 1463.98 5.65454 1.36942 0
M  V30 15847 H 1462.86 7.79408 0.865604 0
M  V30 15848 N 1460.36 -0.94061 1.26453 0
M  V30 15849 C 1461.61 -1.68985 1.13206 0
M  V30 15850 C 1461.96 -1.89699 -0.321245 0
M  V30 15851 O 1461.26 -1.46698 -1.23249 0
M  V30 15852 C 1461.45 -3.06683 1.83521 0
M  V30 15853 C 1461.28 -2.99405 3.3554 0
M  V30 15854 C 1460.05 -3.02391 4.04831 0
M  V30 15855 C 1462.25 -2.795 4.31723 0
M  V30 15856 N 1460.23 -2.85417 5.43517 0
M  V30 15857 C 1461.6 -2.71101 5.57588 0
M  V30 15858 C 1463.66 -2.64288 4.21967 0
M  V30 15859 C 1462.36 -2.49043 6.74811 0
M  V30 15860 C 1464.38 -2.43604 5.38898 0
M  V30 15861 C 1463.75 -2.35937 6.63712 0
M  V30 15862 H 1459.85 -0.625719 0.469041 0
M  V30 15863 H 1462.43 -1.11306 1.59747 0
M  V30 15864 H 1460.6 -3.62501 1.39454 0
M  V30 15865 H 1462.33 -3.7047 1.62892 0
M  V30 15866 H 1459.09 -3.12124 3.56196 0
M  V30 15867 H 1459.51 -2.80097 6.1634 0
M  V30 15868 H 1464.15 -2.68981 3.26204 0
M  V30 15869 H 1461.87 -2.4309 7.7067 0
M  V30 15870 H 1465.46 -2.32737 5.33221 0
M  V30 15871 H 1464.34 -2.20145 7.52666 0
M  V30 15872 N 1461.84 -1.08266 -1.14527 0
M  V30 15873 C 1463.07 -0.83288 -1.89396 0
M  V30 15874 C 1463.48 0.614823 -1.78509 0
M  V30 15875 O 1462.84 1.42239 -1.14343 0
M  V30 15876 C 1462.89 -1.244 -3.39421 0
M  V30 15877 O 1462.61 -2.63491 -3.50006 0
M  V30 15878 C 1464.11 -1.02488 -4.3129 0
M  V30 15879 H 1461.33 -0.300474 -0.599964 0
M  V30 15880 H 1463.88 -1.44155 -1.4505 0
M  V30 15881 H 1462.03 -0.679466 -3.81395 0
M  V30 15882 H 1462.45 -2.80517 -4.43182 0
M  V30 15883 H 1463.92 -1.36194 -5.34935 0
M  V30 15884 H 1464.4 0.0381961 -4.39183 0
M  V30 15885 H 1465 -1.57477 -3.95071 0
M  V30 15886 N 1463.32 1.31536 -0.86811 0
M  V30 15887 C 1464.23 2.32326 -0.32588 0
M  V30 15888 C 1465.25 1.64632 0.563243 0
M  V30 15889 O 1466.42 1.96067 0.460403 0
M  V30 15890 C 1463.49 3.43562 0.46539 0
M  V30 15891 C 1462.55 4.26919 -0.451472 0
M  V30 15892 C 1461.78 5.32844 0.302129 0
M  V30 15893 O 1462 5.49485 1.53045 0
M  V30 15894 O 1460.94 6.00944 -0.339048 0
M  V30 15895 H 1464.76 2.80622 -1.16126 0
M  V30 15896 H 1462.35 1.35401 -0.631428 0
M  V30 15897 H 1464.23 4.11368 0.914028 0
M  V30 15898 H 1462.91 2.97432 1.27734 0
M  V30 15899 H 1461.81 3.61874 -0.948571 0
M  V30 15900 H 1463.15 4.7661 -1.22897 0
M  V30 15901 N 1464.8 0.627364 1.44575 0
M  V30 15902 C 1466.03 0.137114 2.06145 0
M  V30 15903 C 1466.44 -1.19201 1.46928 0
M  V30 15904 O 1465.78 -1.7413 0.585199 0
M  V30 15905 C 1465.84 -0.0560229 3.59456 0
M  V30 15906 C 1465.5 1.19435 4.41117 0
M  V30 15907 C 1466.5 2.11717 4.74839 0
M  V30 15908 C 1464.19 1.42871 4.81553 0
M  V30 15909 C 1466.18 3.25749 5.47875 0
M  V30 15910 C 1463.87 2.572 5.54339 0
M  V30 15911 C 1464.87 3.48466 5.87419 0
M  V30 15912 O 1464.55 4.60802 6.58723 0
M  V30 15913 H 1464.29 0.0751614 0.671809 0
M  V30 15914 H 1466.84 0.86076 1.86494 0
M  V30 15915 H 1465.07 -0.834775 3.77582 0
M  V30 15916 H 1466.76 -0.500352 4.02804 0
M  V30 15917 H 1467.52 1.94844 4.44141 0
M  V30 15918 H 1463.4 0.727246 4.55228 0
M  V30 15919 H 1466.95 3.97007 5.73612 0
M  V30 15920 H 1462.84 2.74018 5.84452 0
M  V30 15921 H 1463.61 4.59736 6.77189 0
M  V30 15922 N 1466.28 -1.53251 0.367684 0
M  V30 15923 C 1467.52 -2.02269 -0.214246 0
M  V30 15924 C 1467.88 -1.25014 -1.46251 0
M  V30 15925 O 1467.17 -0.335984 -1.88631 0
M  V30 15926 C 1467.36 -3.53031 -0.557149 0
M  V30 15927 C 1467.19 -4.44885 0.656332 0
M  V30 15928 C 1465.96 -4.91591 1.16905 0
M  V30 15929 C 1468.16 -4.91258 1.52218 0
M  V30 15930 N 1466.14 -5.67457 2.34233 0
M  V30 15931 C 1467.51 -5.65488 2.5421 0
M  V30 15932 C 1469.57 -4.73329 1.54481 0
M  V30 15933 C 1468.27 -6.23696 3.58324 0
M  V30 15934 C 1470.3 -5.32403 2.5749 0
M  V30 15935 C 1469.66 -6.06521 3.58206 0
M  V30 15936 H 1465.76 -0.780921 -0.0410579 0
M  V30 15937 H 1468.34 -1.87828 0.512703 0
M  V30 15938 H 1466.51 -3.67628 -1.25317 0
M  V30 15939 H 1468.25 -3.88768 -1.12435 0
M  V30 15940 H 1465 -4.67888 0.733353 0
M  V30 15941 H 1465.42 -6.10052 2.9354 0
M  V30 15942 H 1470.07 -4.15549 0.779688 0
M  V30 15943 H 1467.78 -6.8057 4.35717 0
M  V30 15944 H 1471.37 -5.20423 2.60098 0
M  V30 15945 H 1470.25 -6.51418 4.36606 0
M  V30 15946 N 1467.75 -0.0969077 -1.57302 0
M  V30 15947 C 1468.69 0.891431 -2.11154 0
M  V30 15948 C 1469.7 1.24482 -1.04919 0
M  V30 15949 O 1470.89 1.19762 -1.3236 0
M  V30 15950 C 1467.99 2.19998 -2.57787 0
M  V30 15951 C 1467.16 2.02165 -3.87876 0
M  V30 15952 C 1466.22 3.16549 -4.20337 0
M  V30 15953 O 1465.25 2.90432 -4.89528 0
M  V30 15954 N 1466.45 4.42369 -3.75885 0
M  V30 15955 H 1469.21 0.431477 -2.96578 0
M  V30 15956 H 1466.77 0.0881458 -1.6166 0
M  V30 15957 H 1468.77 2.95472 -2.76547 0
M  V30 15958 H 1467.34 2.57412 -1.77364 0
M  V30 15959 H 1466.56 1.11011 -3.78246 0
M  V30 15960 H 1467.84 1.87529 -4.7298 0
M  V30 15961 H 1467.24 4.66469 -3.20036 0
M  V30 15962 H 1465.8 5.14787 -3.99797 0
M  V30 15963 N 1469.23 1.56605 0.176793 0
M  V30 15964 C 1470.19 1.95109 1.20271 0
M  V30 15965 C 1471.19 0.83414 1.37473 0
M  V30 15966 O 1472.38 1.10128 1.34972 0
M  V30 15967 C 1469.52 2.24112 2.56878 0
M  V30 15968 H 1470.71 2.86909 0.87312 0
M  V30 15969 H 1468.26 1.50578 0.419033 0
M  V30 15970 H 1469 1.35009 2.94861 0
M  V30 15971 H 1468.78 3.05523 2.45761 0
M  V30 15972 H 1470.27 2.54842 3.30825 0
M  V30 15973 N 1470.71 -0.445159 1.51182 0
M  V30 15974 C 1471.94 -1.21787 1.67259 0
M  V30 15975 C 1472.35 -1.85206 0.366641 0
M  V30 15976 O 1471.71 -1.70376 -0.654095 0
M  V30 15977 C 1471.76 -2.30765 2.78262 0
M  V30 15978 O 1471.48 -1.69942 4.03796 0
M  V30 15979 C 1472.98 -3.21186 3.05539 0
M  V30 15980 H 1470.2 -0.367364 0.561502 0
M  V30 15981 H 1472.75 -0.528415 1.97555 0
M  V30 15982 H 1470.9 -2.9544 2.50587 0
M  V30 15983 H 1471.32 -2.41905 4.65384 0
M  V30 15984 H 1472.79 -3.93805 3.8681 0
M  V30 15985 H 1473.27 -3.81487 2.17634 0
M  V30 15986 H 1473.87 -2.62221 3.34844 0
M  V30 15987 N 1472.19 -1.41197 -0.700089 0
M  V30 15988 C 1473.43 -1.4152 -1.46095 0
M  V30 15989 C 1473.79 -0.0221135 -1.92387 0
M  V30 15990 O 1473.08 0.951201 -1.66321 0
M  V30 15991 C 1473.28 -2.35259 -2.6905 0
M  V30 15992 C 1473.1 -3.83544 -2.34785 0
M  V30 15993 C 1471.87 -4.52258 -2.25369 0
M  V30 15994 C 1474.07 -4.74637 -1.9805 0
M  V30 15995 N 1472.05 -5.85695 -1.83942 0
M  V30 15996 C 1473.43 -5.96989 -1.67346 0
M  V30 15997 C 1475.48 -4.62326 -1.84821 0
M  V30 15998 C 1474.18 -7.08401 -1.24742 0
M  V30 15999 C 1476.21 -5.73696 -1.43621 0
M  V30 16000 C 1475.57 -6.95143 -1.13825 0
M  V30 16001 H 1471.67 -0.573085 -0.53207 0
M  V30 16002 H 1474.25 -1.77032 -0.810413 0
M  V30 16003 H 1472.43 -2.01849 -3.3183 0
M  V30 16004 H 1474.16 -2.26333 -3.35493 0
M  V30 16005 H 1470.91 -4.06137 -2.43618 0
M  V30 16006 H 1471.34 -6.56403 -1.65722 0
M  V30 16007 H 1475.98 -3.68934 -2.06513 0
M  V30 16008 H 1473.7 -8.01663 -1.01794 0
M  V30 16009 H 1477.28 -5.66172 -1.33941 0
M  V30 16010 H 1476.16 -7.79856 -0.824257 0
M  V30 16011 N 1473.67 0.933891 -1.2695 0
M  V30 16012 C 1474.91 1.67539 -1.1231 0
M  V30 16013 C 1475.23 1.92765 0.331788 0
M  V30 16014 O 1476.43 2.6481 0.598983 0
M  V30 16015 C 1474.89 3.01722 -1.96194 0
M  V30 16016 C 1474.5 2.84216 -3.46302 0
M  V30 16017 C 1476.24 3.79513 -1.90185 0
M  V30 16018 C 1474.15 4.13916 -4.22407 0
M  V30 16019 H 1473.08 0.62839 -0.416704 0
M  V30 16020 H 1475.73 1.03801 -1.5132 0
M  V30 16021 H 1474.11 3.66482 -1.50023 0
M  V30 16022 H 1475.29 2.28261 -4.00292 0
M  V30 16023 H 1473.6 2.1986 -3.53625 0
M  V30 16024 H 1476.2 4.75615 -2.44325 0
M  V30 16025 H 1476.54 4.07019 -0.874129 0
M  V30 16026 H 1477.07 3.21539 -2.34217 0
M  V30 16027 H 1473.81 3.91591 -5.25677 0
M  V30 16028 H 1473.33 4.69558 -3.73196 0
M  V30 16029 H 1475.01 4.82322 -4.31248 0
M  V30 16030 N 1475.14 1.08871 1.13951 0
M  V30 16031 C 1476.55 0.841552 1.66658 0
M  V30 16032 C 1476.91 -0.630932 1.85779 0
M  V30 16033 O 1476.03 -1.48673 1.57243 0
M  V30 16034 C 1476.63 1.52109 3.02735 0
M  V30 16035 C 1475.18 1.32105 3.52456 0
M  V30 16036 C 1474.33 1.58084 2.27826 0
M  V30 16037 H 1477.28 1.24865 0.97951 0
M  V30 16038 H 1477.3 0.950978 3.68425 0
M  V30 16039 H 1476.82 2.59276 2.88786 0
M  V30 16040 H 1474.92 0.270294 3.71618 0
M  V30 16041 H 1475.03 2.05197 4.32933 0
M  V30 16042 H 1473.39 1.00264 2.34135 0
M  V30 16043 H 1474.18 2.66467 2.16449 0
M  V30 16044 N 1476.62 -1.31073 0.875073 0
M  V30 16045 C 1477.53 -2.3215 0.338196 0
M  V30 16046 C 1478.55 -1.64928 -0.554504 0
M  V30 16047 O 1479.72 -1.96308 -0.449998 0
M  V30 16048 C 1476.79 -3.43804 -0.447163 0
M  V30 16049 C 1475.85 -4.26674 0.474106 0
M  V30 16050 C 1475.08 -5.32997 -0.273867 0
M  V30 16051 O 1475.31 -5.50288 -1.50129 0
M  V30 16052 O 1474.24 -6.00756 0.370913 0
M  V30 16053 H 1478.07 -2.80002 1.17612 0
M  V30 16054 H 1475.65 -1.35064 0.6386 0
M  V30 16055 H 1477.53 -4.11847 -0.892199 0
M  V30 16056 H 1476.21 -2.98105 -1.26155 0
M  V30 16057 H 1475.11 -3.61366 0.967748 0
M  V30 16058 H 1476.45 -4.75952 1.25423 0
M  V30 16059 N 1478.1 -0.635022 -1.4424 0
M  V30 16060 C 1479.35 -0.149809 -2.02848 0
M  V30 16061 C 1479.7 1.21619 -1.49086 0
M  V30 16062 O 1478.99 1.79619 -0.666909 0
M  V30 16063 C 1479.19 -0.081191 -3.57308 0
M  V30 16064 C 1479.02 -1.439 -4.26055 0
M  V30 16065 C 1477.79 -2.02677 -4.62872 0
M  V30 16066 C 1479.99 -2.37365 -4.56248 0
M  V30 16067 N 1477.97 -3.31652 -5.16605 0
M  V30 16068 C 1479.34 -3.50957 -5.11106 0
M  V30 16069 C 1481.39 -2.36395 -4.38203 0
M  V30 16070 C 1480.1 -4.63781 -5.49818 0
M  V30 16071 C 1482.12 -3.48286 -4.77965 0
M  V30 16072 C 1481.48 -4.60603 -5.3294 0
M  V30 16073 H 1477.58 -0.0988293 -0.77573 0
M  V30 16074 H 1480.17 -0.839365 -1.75678 0
M  V30 16075 H 1478.34 0.577656 -3.8408 0
M  V30 16076 H 1480.07 0.41321 -4.02585 0
M  V30 16077 H 1476.83 -1.55579 -4.47316 0
M  V30 16078 H 1477.25 -3.97602 -5.47943 0
M  V30 16079 H 1481.89 -1.50807 -3.9499 0
M  V30 16080 H 1479.61 -5.50074 -5.91983 0
M  V30 16081 H 1483.2 -3.48716 -4.65713 0
M  V30 16082 H 1482.08 -5.45751 -5.63139 0
M  V30 16083 N 1479.58 1.53054 -0.375806 0
M  V30 16084 C 1480.49 2.29772 0.47349 0
M  V30 16085 C 1481.5 1.36144 1.08355 0
M  V30 16086 O 1482.68 1.69208 1.09228 0
M  V30 16087 C 1479.75 3.07964 1.59245 0
M  V30 16088 C 1478.81 4.17277 1.00888 0
M  V30 16089 C 1478.04 4.91731 2.07451 0
M  V30 16090 O 1478.26 4.66143 3.28736 0
M  V30 16091 O 1477.2 5.77413 1.69936 0
M  V30 16092 H 1481.02 3.03324 -0.151105 0
M  V30 16093 H 1478.61 1.48744 -0.139895 0
M  V30 16094 H 1480.49 3.56759 2.24279 0
M  V30 16095 H 1479.16 2.37239 2.20226 0
M  V30 16096 H 1478.07 3.7271 0.322167 0
M  V30 16097 H 1479.4 4.90198 0.443483 0
M  V30 16098 N 1481.06 0.105248 1.57248 0
M  V30 16099 C 1482.3 -0.556054 1.94716 0
M  V30 16100 C 1482.63 -1.67557 0.987669 0
M  V30 16101 O 1481.89 -1.95698 0.00905706 0
M  V30 16102 C 1482.19 -1.14178 3.38671 0
M  V30 16103 C 1481.85 -0.145022 4.50667 0
M  V30 16104 C 1480.51 0.129099 4.81027 0
M  V30 16105 C 1482.87 0.535015 5.18447 0
M  V30 16106 C 1480.19 1.08978 5.7649 0
M  V30 16107 C 1482.55 1.48423 6.14942 0
M  V30 16108 C 1481.21 1.76648 6.43702 0
M  V30 16109 H 1480.48 -0.203475 0.712516 0
M  V30 16110 H 1483.13 0.183237 1.90621 0
M  V30 16111 H 1481.43 -1.95754 3.39393 0
M  V30 16112 H 1483.13 -1.66132 3.64967 0
M  V30 16113 H 1479.72 -0.36886 4.2701 0
M  V30 16114 H 1483.9 0.336391 4.95159 0
M  V30 16115 H 1479.16 1.31535 5.97083 0
M  V30 16116 H 1483.33 2.01693 6.66553 0
M  V30 16117 H 1480.96 2.51245 7.17482 0
M  V30 16118 N 1482.53 -1.56697 -0.168486 0
M  V30 16119 C 1483.78 -1.82424 -0.885965 0
M  V30 16120 C 1484.11 -0.683543 -1.81773 0
M  V30 16121 O 1483.39 0.314319 -1.91943 0
M  V30 16122 C 1483.67 -3.18553 -1.67917 0
M  V30 16123 C 1483.52 -4.43154 -0.770343 0
M  V30 16124 C 1484.84 -3.51654 -2.64627 0
M  V30 16125 H 1481.96 -0.663594 -0.320644 0
M  V30 16126 H 1484.6 -1.89391 -0.15205 0
M  V30 16127 H 1482.75 -3.12745 -2.30484 0
M  V30 16128 H 1484.43 -4.61032 -0.157328 0
M  V30 16129 H 1482.67 -4.33729 -0.0785653 0
M  V30 16130 H 1483.34 -5.34961 -1.36092 0
M  V30 16131 H 1485.82 -3.57934 -2.12185 0
M  V30 16132 H 1484.69 -4.47975 -3.17191 0
M  V30 16133 H 1484.95 -2.76503 -3.44961 0
M  V30 16134 N 1484.01 0.437135 -1.51416 0
M  V30 16135 C 1484.96 1.55124 -1.73319 0
M  V30 16136 C 1485.95 1.58437 -0.599511 0
M  V30 16137 O 1487.16 1.62179 -0.780896 0
M  V30 16138 H 1483.54 0.515368 -0.547632 0
M  V30 16139 H 1485.51 1.33824 -2.66709 0
M  V30 16140 C 1484.26 2.92778 -1.87554 0
M  V30 16141 H 1483.58 2.9096 -2.74194 0
M  V30 16142 H 1485.02 3.70097 -2.06891 0
M  V30 16143 C 1483.48 3.30854 -0.635408 0
M  V30 16144 O 1484.01 4.01152 0.20983 0
M  V30 16145 N 1482.21 2.86618 -0.47944 0
M  V30 16146 H 1481.76 2.29582 -1.16834 0
M  V30 16147 H 1481.72 3.12456 0.349078 0
M  V30 16148 N 1485.49 1.41566 0.692592 0
M  V30 16149 C 1486.72 1.44445 1.48132 0
M  V30 16150 C 1487.13 0.0505867 1.88732 0
M  V30 16151 O 1486.49 -0.930779 1.5698 0
M  V30 16152 C 1486.54 2.35582 2.74196 0
M  V30 16153 O 1486.26 3.69545 2.35305 0
M  V30 16154 C 1487.76 2.47296 3.67912 0
M  V30 16155 H 1484.98 0.491877 0.456396 0
M  V30 16156 H 1487.53 1.85884 0.852499 0
M  V30 16157 H 1485.68 1.97445 3.33308 0
M  V30 16158 H 1486.1 4.1818 3.16584 0
M  V30 16159 H 1487.57 3.15225 4.53141 0
M  V30 16160 H 1488.05 1.50517 4.12603 0
M  V30 16161 H 1488.65 2.86082 3.14702 0
M  V30 16162 N 1486.97 -0.927146 1.27443 0
M  V30 16163 C 1488.38 -1.48984 1.1252 0
M  V30 16164 C 1488.73 -1.94051 -0.289602 0
M  V30 16165 O 1487.86 -1.8123 -1.18257 0
M  V30 16166 C 1488.45 -2.70765 2.03646 0
M  V30 16167 C 1487.01 -3.23256 1.92827 0
M  V30 16168 C 1486.16 -1.95991 1.9617 0
M  V30 16169 H 1489.11 -0.741196 1.40328 0
M  V30 16170 H 1489.13 -3.45567 1.5926 0
M  V30 16171 H 1488.64 -2.37933 3.0661 0
M  V30 16172 H 1486.74 -3.60845 0.928516 0
M  V30 16173 H 1486.85 -3.89413 2.79096 0
M  V30 16174 H 1485.22 -2.12508 1.40402 0
M  V30 16175 H 1486 -1.65473 3.00788 0
M  V30 16176 N 1488.45 -1.09474 -1.13372 0
M  V30 16177 C 1489.86 -0.850378 -1.66209 0
M  V30 16178 C 1490.21 0.621071 -1.86111 0
M  V30 16179 O 1489.33 1.47837 -1.58029 0
M  V30 16180 C 1489.93 -1.53713 -3.01924 0
M  V30 16181 C 1488.49 -1.33972 -3.5175 0
M  V30 16182 C 1487.63 -1.5929 -2.26985 0
M  V30 16183 H 1490.59 -1.25383 -0.972874 0
M  V30 16184 H 1490.61 -0.970503 -3.67915 0
M  V30 16185 H 1490.12 -2.60804 -2.87407 0
M  V30 16186 H 1488.22 -0.289998 -3.7147 0
M  V30 16187 H 1488.33 -2.0749 -4.31839 0
M  V30 16188 H 1486.7 -1.01505 -2.336 0
M  V30 16189 H 1487.48 -2.67611 -2.15033 0
M  V30 16190 N 1489.92 1.30607 -0.882012 0
M  V30 16191 C 1490.85 2.30666 -0.362706 0
M  V30 16192 C 1491.84 1.60865 0.552861 0
M  V30 16193 O 1493.02 1.88493 0.467339 0
M  V30 16194 C 1490.15 3.44675 0.42622 0
M  V30 16195 C 1489.1 4.26152 -0.397322 0
M  V30 16196 C 1488.43 5.32185 0.518027 0
M  V30 16197 C 1489.73 4.95955 -1.63785 0
M  V30 16198 H 1491.42 2.74351 -1.19883 0
M  V30 16199 H 1488.97 1.31895 -0.577912 0
M  V30 16200 H 1490.92 4.13734 0.80013 0
M  V30 16201 H 1489.65 2.99787 1.29597 0
M  V30 16202 H 1488.31 3.58776 -0.753332 0
M  V30 16203 H 1487.95 4.83545 1.3854 0
M  V30 16204 H 1487.65 5.87593 -0.0291802 0
M  V30 16205 H 1489.18 6.04101 0.888518 0
M  V30 16206 H 1490.59 5.57547 -1.3347 0
M  V30 16207 H 1488.99 5.61215 -2.12504 0
M  V30 16208 H 1490.06 4.22252 -2.38394 0
M  V30 16209 N 1491.4 0.642663 1.43901 0
M  V30 16210 C 1492.65 0.152003 2.0223 0
M  V30 16211 C 1492.98 -1.22711 1.50518 0
M  V30 16212 O 1492.26 -1.817 0.693937 0
M  V30 16213 C 1492.54 0.151278 3.59782 0
M  V30 16214 C 1492.39 1.56356 4.2175 0
M  V30 16215 C 1493.71 -0.518016 4.37041 0
M  V30 16216 H 1490.83 0.0567094 0.734815 0
M  V30 16217 H 1493.47 0.821337 1.7133 0
M  V30 16218 H 1491.62 -0.418679 3.86237 0
M  V30 16219 H 1493.29 2.18329 4.06362 0
M  V30 16220 H 1491.54 2.11401 3.78803 0
M  V30 16221 H 1492.21 1.51499 5.30803 0
M  V30 16222 H 1494.68 -0.0331947 4.16087 0
M  V30 16223 H 1493.56 -0.487754 5.46729 0
M  V30 16224 H 1493.82 -1.59036 4.12504 0
M  V30 16225 N 1492.88 -1.52852 0.383918 0
M  V30 16226 C 1493.83 -2.26294 -0.453826 0
M  V30 16227 C 1494.8 -1.27688 -1.0623 0
M  V30 16228 O 1495.98 -1.56507 -1.09134 0
M  V30 16229 C 1493.12 -3.06907 -1.57803 0
M  V30 16230 C 1492.24 -4.20434 -0.992943 0
M  V30 16231 C 1491.37 -4.88453 -2.08776 0
M  V30 16232 C 1490.41 -5.93981 -1.47828 0
M  V30 16233 N 1489.55 -6.55617 -2.51218 0
M  V30 16234 H 1494.39 -2.97462 0.178927 0
M  V30 16235 H 1491.92 -1.46759 0.100066 0
M  V30 16236 H 1493.88 -3.51933 -2.24052 0
M  V30 16237 H 1492.51 -2.37959 -2.18118 0
M  V30 16238 H 1491.56 -3.79762 -0.22021 0
M  V30 16239 H 1492.88 -4.96211 -0.507504 0
M  V30 16240 H 1492.03 -5.36755 -2.82806 0
M  V30 16241 H 1490.77 -4.12187 -2.60678 0
M  V30 16242 H 1489.77 -5.45023 -0.723202 0
M  V30 16243 H 1491 -6.72176 -0.967278 0
M  V30 16244 H 1488.95 -5.82195 -3.02299 0
M  V30 16245 H 1488.86 -7.26991 -2.07414 0
M  V30 16246 H 1490.13 -7.08564 -3.24895 0
M  V30 16247 N 1494.36 -0.113586 -1.5719 0
M  V30 16248 C 1495.29 0.835363 -2.18046 0
M  V30 16249 C 1496.27 1.28114 -1.11897 0
M  V30 16250 O 1497.46 1.34472 -1.40111 0
M  V30 16251 C 1494.59 2.08759 -2.77556 0
M  V30 16252 C 1493.54 1.77979 -3.8924 0
M  V30 16253 C 1492.87 3.10185 -4.35533 0
M  V30 16254 C 1494.17 1.05231 -5.11589 0
M  V30 16255 H 1495.86 0.328275 -2.97595 0
M  V30 16256 H 1493.41 0.156456 -1.43148 0
M  V30 16257 H 1495.36 2.75597 -3.18785 0
M  V30 16258 H 1494.08 2.61783 -1.95288 0
M  V30 16259 H 1492.74 1.13532 -3.48577 0
M  V30 16260 H 1492.39 3.61133 -3.50131 0
M  V30 16261 H 1492.09 2.90367 -5.10843 0
M  V30 16262 H 1493.61 3.78151 -4.7941 0
M  V30 16263 H 1495.03 1.62213 -5.49872 0
M  V30 16264 H 1493.42 0.955269 -5.92448 0
M  V30 16265 H 1494.49 0.038137 -4.84885 0
M  V30 16266 N 1495.84 1.56784 0.160173 0
M  V30 16267 C 1497.08 1.83782 0.871526 0
M  V30 16268 C 1497.44 0.695726 1.79381 0
M  V30 16269 O 1496.73 -0.307168 1.89122 0
M  V30 16270 C 1496.93 3.14703 1.69402 0
M  V30 16271 C 1496.75 4.41538 0.852869 0
M  V30 16272 C 1495.52 5.0258 0.523604 0
M  V30 16273 C 1497.72 5.13952 0.189264 0
M  V30 16274 N 1495.7 6.12999 -0.332518 0
M  V30 16275 C 1497.08 6.17752 -0.527548 0
M  V30 16276 C 1499.13 4.97782 0.108577 0
M  V30 16277 C 1497.83 7.07133 -1.31741 0
M  V30 16278 C 1499.86 5.87615 -0.667985 0
M  V30 16279 C 1499.22 6.90887 -1.37312 0
M  V30 16280 H 1495.32 0.723336 0.297169 0
M  V30 16281 H 1497.9 1.94212 0.137749 0
M  V30 16282 H 1496.08 3.05445 2.39913 0
M  V30 16283 H 1497.81 3.29657 2.34752 0
M  V30 16284 H 1494.56 4.65794 0.85631 0
M  V30 16285 H 1494.99 6.72819 -0.751215 0
M  V30 16286 H 1499.63 4.17937 0.639385 0
M  V30 16287 H 1497.35 7.86414 -1.85952 0
M  V30 16288 H 1500.93 5.77174 -0.732234 0
M  V30 16289 H 1499.81 7.59198 -1.96438 0
M  V30 16290 N 1497.32 -0.429099 1.51646 0
M  V30 16291 C 1498.55 -1.19832 1.68297 0
M  V30 16292 C 1498.95 -1.85275 0.383378 0
M  V30 16293 O 1498.3 -1.71862 -0.648771 0
M  V30 16294 C 1498.36 -2.31803 2.74786 0
M  V30 16295 C 1498.02 -1.8666 4.17141 0
M  V30 16296 C 1499.02 -1.36544 5.01649 0
M  V30 16297 C 1496.7 -1.94101 4.63282 0
M  V30 16298 C 1498.7 -0.944655 6.30361 0
M  V30 16299 C 1496.39 -1.51634 5.91988 0
M  V30 16300 C 1497.38 -1.01899 6.75356 0
M  V30 16301 O 1497.07 -0.600375 8.01655 0
M  V30 16302 H 1496.8 -0.366924 0.567752 0
M  V30 16303 H 1499.36 -0.513643 1.98874 0
M  V30 16304 H 1497.59 -3.03573 2.39542 0
M  V30 16305 H 1499.28 -2.93639 2.80234 0
M  V30 16306 H 1500.04 -1.30184 4.67201 0
M  V30 16307 H 1495.92 -2.31758 3.98509 0
M  V30 16308 H 1499.47 -0.555763 6.95383 0
M  V30 16309 H 1495.36 -1.57667 6.25948 0
M  V30 16310 H 1496.13 -0.725485 8.15278 0
M  V30 16311 N 1498.79 -1.41931 -0.685074 0
M  V30 16312 C 1499.73 -1.40545 -1.81052 0
M  V30 16313 C 1500.74 -0.306024 -1.59898 0
M  V30 16314 O 1501.93 -0.568444 -1.69207 0
M  V30 16315 C 1499.03 -1.17194 -3.17992 0
M  V30 16316 C 1498.2 -2.39376 -3.66084 0
M  V30 16317 C 1497.26 -2.11725 -4.81725 0
M  V30 16318 O 1496.29 -2.84847 -4.92799 0
M  V30 16319 N 1497.49 -1.11399 -5.69711 0
M  V30 16320 H 1500.25 -2.37549 -1.8273 0
M  V30 16321 H 1497.81 -1.36679 -0.86779 0
M  V30 16322 H 1499.81 -0.966307 -3.92994 0
M  V30 16323 H 1498.38 -0.287499 -3.11275 0
M  V30 16324 H 1497.6 -2.75575 -2.81873 0
M  V30 16325 H 1498.88 -3.2076 -3.94956 0
M  V30 16326 H 1498.28 -0.509008 -5.63405 0
M  V30 16327 H 1496.84 -0.968239 -6.44568 0
M  V30 16328 N 1500.27 0.920374 -1.27933 0
M  V30 16329 C 1501.2 2.03882 -1.13817 0
M  V30 16330 C 1502.18 1.70058 -0.0376853 0
M  V30 16331 O 1503.37 1.93023 -0.213492 0
M  V30 16332 C 1500.5 3.38142 -0.792296 0
M  V30 16333 C 1499.45 3.86104 -1.84683 0
M  V30 16334 C 1498.78 5.17253 -1.35474 0
M  V30 16335 C 1500.08 4.0869 -3.25223 0
M  V30 16336 H 1501.77 2.15949 -2.07379 0
M  V30 16337 H 1499.32 1.03764 -0.998454 0
M  V30 16338 H 1501.27 4.15872 -0.680337 0
M  V30 16339 H 1499.99 3.26109 0.179029 0
M  V30 16340 H 1498.65 3.10573 -1.94782 0
M  V30 16341 H 1498.3 5.01618 -0.372666 0
M  V30 16342 H 1498 5.50314 -2.05982 0
M  V30 16343 H 1499.53 5.97545 -1.25587 0
M  V30 16344 H 1500.94 4.76965 -3.18083 0
M  V30 16345 H 1499.34 4.5307 -3.93507 0
M  V30 16346 H 1500.41 3.13729 -3.69733 0
M  V30 16347 N 1501.75 1.10074 1.1279 0
M  V30 16348 C 1502.66 0.758458 2.22001 0
M  V30 16349 C 1503.68 -0.242438 1.72303 0
M  V30 16350 O 1504.85 -0.0821223 2.01233 0
M  V30 16351 C 1501.92 0.191326 3.46172 0
M  V30 16352 C 1500.98 1.24902 4.10729 0
M  V30 16353 C 1500.21 0.708857 5.28972 0
M  V30 16354 O 1500.43 -0.465993 5.68493 0
M  V30 16355 O 1499.37 1.46703 5.83748 0
M  V30 16356 H 1503.19 1.66997 2.53665 0
M  V30 16357 H 1500.78 0.875604 1.21052 0
M  V30 16358 H 1502.66 -0.121292 4.21225 0
M  V30 16359 H 1501.34 -0.693094 3.16193 0
M  V30 16360 H 1500.24 1.61444 3.37471 0
M  V30 16361 H 1501.58 2.10632 4.44854 0
M  V30 16362 N 1503.23 -1.30138 0.888926 0
M  V30 16363 C 1504.17 -2.28023 0.356923 0
M  V30 16364 C 1505.14 -1.56551 -0.555066 0
M  V30 16365 O 1506.33 -1.84595 -0.482633 0
M  V30 16366 C 1503.47 -3.42546 -0.419056 0
M  V30 16367 C 1502.58 -4.28827 0.5226 0
M  V30 16368 C 1501.72 -5.30517 -0.269366 0
M  V30 16369 C 1500.76 -6.08449 0.667507 0
M  V30 16370 N 1499.89 -7.02043 -0.08938 0
M  V30 16371 H 1504.73 -2.72912 1.19678 0
M  V30 16372 H 1502.27 -1.34239 0.60152 0
M  V30 16373 H 1504.23 -4.07707 -0.884911 0
M  V30 16374 H 1502.86 -2.98716 -1.22346 0
M  V30 16375 H 1501.91 -3.63938 1.10695 0
M  V30 16376 H 1503.22 -4.83136 1.24018 0
M  V30 16377 H 1502.38 -6.01444 -0.796901 0
M  V30 16378 H 1501.12 -4.76911 -1.02014 0
M  V30 16379 H 1500.12 -5.36396 1.20664 0
M  V30 16380 H 1501.35 -6.64143 1.41744 0
M  V30 16381 H 1499.29 -6.50822 -0.822622 0
M  V30 16382 H 1499.21 -7.53859 0.568499 0
M  V30 16383 H 1500.48 -7.77206 -0.597529 0
M  V30 16384 N 1504.71 -0.650285 -1.43559 0
M  V30 16385 C 1505.62 0.0438076 -2.34559 0
M  V30 16386 C 1506.63 0.815316 -1.53716 0
M  V30 16387 O 1507.81 0.76323 -1.86378 0
M  V30 16388 C 1504.87 1.00028 -3.31957 0
M  V30 16389 C 1503.93 0.226027 -4.28705 0
M  V30 16390 C 1503.17 1.13694 -5.21449 0
M  V30 16391 O 1503.39 2.37614 -5.18551 0
M  V30 16392 O 1502.32 0.610924 -5.98792 0
M  V30 16393 H 1506.15 -0.705152 -2.954 0
M  V30 16394 H 1503.73 -0.410471 -1.43651 0
M  V30 16395 H 1505.62 1.55004 -3.91857 0
M  V30 16396 H 1504.29 1.72952 -2.73623 0
M  V30 16397 H 1503.2 -0.367244 -3.72293 0
M  V30 16398 H 1504.53 -0.463582 -4.90012 0
M  V30 16399 N 1506.18 1.52647 -0.392018 0
M  V30 16400 C 1507.59 1.86522 0.0814091 0
M  V30 16401 C 1507.95 1.31158 1.45918 0
M  V30 16402 O 1507.07 0.644007 2.06595 0
M  V30 16403 C 1507.67 3.38448 0.1545 0
M  V30 16404 C 1506.22 3.72025 0.572227 0
M  V30 16405 C 1505.37 2.7604 -0.264093 0
M  V30 16406 H 1508.32 1.46517 -0.609785 0
M  V30 16407 H 1508.34 3.67846 0.973109 0
M  V30 16408 H 1507.86 3.78713 -0.848396 0
M  V30 16409 H 1505.96 3.37329 1.58239 0
M  V30 16410 H 1506.07 4.77973 0.328491 0
M  V30 16411 H 1504.43 2.53254 0.271042 0
M  V30 16412 H 1505.22 3.19143 -1.26502 0
M  V30 16413 N 1507.66 0.121921 1.57128 0
M  V30 16414 C 1508.91 -0.535201 1.9447 0
M  V30 16415 C 1509.22 -1.67644 1.00772 0
M  V30 16416 O 1510.43 -2.39651 1.27592 0
M  V30 16417 C 1508.89 -1.00346 3.45628 0
M  V30 16418 C 1508.49 0.109473 4.47866 0
M  V30 16419 C 1510.24 -1.63179 3.91884 0
M  V30 16420 C 1508.15 -0.375651 5.90206 0
M  V30 16421 H 1507.08 -0.203702 0.725962 0
M  V30 16422 H 1509.73 0.202243 1.82382 0
M  V30 16423 H 1508.11 -1.79541 3.5296 0
M  V30 16424 H 1509.28 0.885815 4.52206 0
M  V30 16425 H 1507.6 0.644642 4.1138 0
M  V30 16426 H 1510.19 -2.00594 4.95647 0
M  V30 16427 H 1510.54 -2.5113 3.32023 0
M  V30 16428 H 1511.07 -0.905197 3.87364 0
M  V30 16429 H 1507.81 0.46788 6.53828 0
M  V30 16430 H 1507.33 -1.11841 5.89281 0
M  V30 16431 H 1509.01 -0.835921 6.41577 0
M  V30 16432 N 1509.14 -1.56867 -0.151857 0
M  V30 16433 C 1510.39 -1.82273 -0.863689 0
M  V30 16434 C 1510.7 -0.702377 -1.82554 0
M  V30 16435 O 1511.91 -0.841903 -2.58117 0
M  V30 16436 C 1510.36 -3.23046 -1.58649 0
M  V30 16437 C 1509.97 -4.43003 -0.667292 0
M  V30 16438 C 1511.72 -3.57729 -2.28539 0
M  V30 16439 C 1509.62 -5.74798 -1.39144 0
M  V30 16440 H 1508.55 -0.679753 -0.326269 0
M  V30 16441 H 1511.2 -1.8313 -0.116454 0
M  V30 16442 H 1509.59 -3.16561 -2.37918 0
M  V30 16443 H 1510.76 -4.60712 0.0898254 0
M  V30 16444 H 1509.08 -4.16329 -0.0770521 0
M  V30 16445 H 1511.67 -4.53451 -2.83348 0
M  V30 16446 H 1512.02 -2.8355 -3.04803 0
M  V30 16447 H 1512.55 -3.65853 -1.56194 0
M  V30 16448 H 1509.29 -6.52059 -0.670747 0
M  V30 16449 H 1508.81 -5.61032 -2.12139 0
M  V30 16450 H 1510.49 -6.17429 -1.93367 0
M  V30 16451 N 1510.62 0.421051 -1.51871 0
M  V30 16452 C 1511.87 1.16677 -1.65018 0
M  V30 16453 C 1512.19 1.91329 -0.376596 0
M  V30 16454 O 1511.46 1.86221 0.608146 0
M  V30 16455 H 1510.04 0.433698 -0.608206 0
M  V30 16456 H 1512.7 0.48115 -1.88868 0
M  V30 16457 H 1511.8 1.88742 -2.48562 0
M  V30 16458 N 1512.1 1.42293 0.677538 0
M  V30 16459 C 1513.06 1.45258 1.77293 0
M  V30 16460 C 1514.06 0.340554 1.57152 0
M  V30 16461 O 1515.25 0.601259 1.63495 0
M  V30 16462 C 1512.38 1.28156 3.15894 0
M  V30 16463 H 1513.57 2.42787 1.76052 0
M  V30 16464 H 1511.13 1.287 0.886908 0
M  V30 16465 H 1511.86 0.315381 3.22763 0
M  V30 16466 H 1511.65 2.08744 3.31916 0
M  V30 16467 H 1513.14 1.33107 3.95818 0
M  V30 16468 N 1513.57 -0.913576 1.28419 0
M  V30 16469 C 1514.48 -2.04922 1.14211 0
M  V30 16470 C 1515.5 -1.73865 0.0686424 0
M  V30 16471 O 1516.68 -1.99473 0.277968 0
M  V30 16472 C 1513.74 -3.37214 0.805445 0
M  V30 16473 C 1512.8 -3.81879 1.96129 0
M  V30 16474 C 1512.04 -5.07858 1.6406 0
M  V30 16475 O 1512.26 -5.67693 0.555032 0
M  V30 16476 O 1511.19 -5.4824 2.48428 0
M  V30 16477 H 1515.02 -2.19827 2.09547 0
M  V30 16478 H 1512.6 -1.03501 1.0774 0
M  V30 16479 H 1514.49 -4.16639 0.631648 0
M  V30 16480 H 1513.16 -3.23484 -0.118254 0
M  V30 16481 H 1512.07 -3.03281 2.19024 0
M  V30 16482 H 1513.4 -4.00173 2.8657 0
M  V30 16483 N 1515.05 -1.1067 -1.12204 0
M  V30 16484 C 1516.28 -0.872867 -1.87586 0
M  V30 16485 C 1516.7 0.57682 -1.79773 0
M  V30 16486 O 1516.05 1.39782 -1.17334 0
M  V30 16487 C 1516.1 -1.31572 -3.36706 0
M  V30 16488 O 1515.82 -2.70856 -3.44338 0
M  V30 16489 C 1517.33 -1.11613 -4.29019 0
M  V30 16490 H 1514.55 -0.313132 -0.593455 0
M  V30 16491 H 1517.09 -1.47199 -1.4196 0
M  V30 16492 H 1515.24 -0.760212 -3.79868 0
M  V30 16493 H 1515.66 -2.89854 -4.37132 0
M  V30 16494 H 1517.13 -1.4751 -5.31925 0
M  V30 16495 H 1517.61 -0.0549698 -4.39166 0
M  V30 16496 H 1518.22 -1.65822 -3.91642 0
M  V30 16497 N 1516.53 1.29665 -0.895815 0
M  V30 16498 C 1517.78 1.95716 -0.519752 0
M  V30 16499 C 1518.11 1.7065 0.933212 0
M  V30 16500 O 1517.36 1.01014 1.67615 0
M  V30 16501 C 1517.66 3.49355 -0.754025 0
M  V30 16502 C 1517.33 3.94491 -2.18375 0
M  V30 16503 C 1515.99 4.06526 -2.57468 0
M  V30 16504 C 1518.34 4.17874 -3.11498 0
M  V30 16505 C 1515.67 4.39311 -3.88874 0
M  V30 16506 C 1518.02 4.52132 -4.42447 0
M  V30 16507 C 1516.68 4.62376 -4.81419 0
M  V30 16508 H 1515.95 0.716176 -0.190191 0
M  V30 16509 H 1518.6 1.54333 -1.13373 0
M  V30 16510 H 1516.91 3.91758 -0.0570932 0
M  V30 16511 H 1518.6 3.98551 -0.442493 0
M  V30 16512 H 1515.19 3.85638 -1.87033 0
M  V30 16513 H 1519.38 4.08046 -2.8251 0
M  V30 16514 H 1514.63 4.45444 -4.18795 0
M  V30 16515 H 1518.81 4.69175 -5.14634 0
M  V30 16516 H 1516.43 4.87535 -5.83278 0
M  V30 16517 N 1518.01 0.657889 1.43212 0
M  V30 16518 C 1519.24 0.18081 2.05807 0
M  V30 16519 C 1519.65 -1.16057 1.49423 0
M  V30 16520 O 1518.99 -1.72849 0.622002 0
M  V30 16521 C 1519.05 0.0202357 3.59494 0
M  V30 16522 C 1518.72 1.28765 4.38484 0
M  V30 16523 C 1519.71 2.21742 4.70241 0
M  V30 16524 C 1517.4 1.53053 4.78414 0
M  V30 16525 C 1519.39 3.37297 5.40842 0
M  V30 16526 C 1517.08 2.68901 5.48758 0
M  V30 16527 C 1518.08 3.60847 5.79895 0
M  V30 16528 O 1517.76 4.74671 6.48801 0
M  V30 16529 H 1517.5 0.0893945 0.670063 0
M  V30 16530 H 1520.05 0.900125 1.84626 0
M  V30 16531 H 1518.28 -0.754496 3.79268 0
M  V30 16532 H 1519.97 -0.414799 4.03775 0
M  V30 16533 H 1520.74 2.04221 4.39908 0
M  V30 16534 H 1516.61 0.823643 4.53583 0
M  V30 16535 H 1520.16 4.09085 5.65062 0
M  V30 16536 H 1516.06 2.86354 5.78508 0
M  V30 16537 H 1516.82 4.73996 6.67285 0
M  V30 16538 N 1519.49 -1.52437 0.400108 0
M  V30 16539 C 1520.73 -2.0201 -0.17887 0
M  V30 16540 C 1521.07 -1.2856 -1.45554 0
M  V30 16541 O 1520.34 -0.389236 -1.90565 0
M  V30 16542 C 1520.62 -3.57453 -0.435784 0
M  V30 16543 C 1520.48 -4.41562 0.85693 0
M  V30 16544 C 1521.8 -4.228 -1.2218 0
M  V30 16545 H 1518.91 -0.734256 -0.063535 0
M  V30 16546 H 1521.56 -1.82406 0.531801 0
M  V30 16547 H 1519.71 -3.74288 -1.04117 0
M  V30 16548 H 1521.38 -4.36456 1.49344 0
M  V30 16549 H 1519.62 -4.08138 1.46989 0
M  V30 16550 H 1520.29 -5.48374 0.631675 0
M  V30 16551 H 1522.77 -4.10009 -0.709359 0
M  V30 16552 H 1521.64 -5.3152 -1.37031 0
M  V30 16553 H 1521.91 -3.81153 -2.23998 0
M  V30 16554 N 1520.96 -0.130252 -1.57061 0
M  V30 16555 C 1522.24 0.569171 -1.87136 0
M  V30 16556 C 1522.62 1.84078 -1.03337 0
M  V30 16557 O 1521.97 2.28208 -0.11543 0
M  V30 16558 C 1522.18 0.850782 -3.38471 0
M  V30 16559 C 1523.53 1.19892 -4.07322 0
M  V30 16560 O 1524.55 0.940682 -3.43554 0
M  V30 16561 O 1523.41 1.6841 -5.19904 0
M  V30 16562 H 1520.5 0.288433 -0.775071 0
M  V30 16563 H 1523.05 -0.165603 -1.6889 0
M  V30 16564 H 1521.82 -0.0498562 -3.91268 0
M  V30 16565 H 1521.45 1.64032 -3.62187 0
M  V30 16566 N 1522.44 1.56945 0.143535 0
M  V30 16567 C 1523.69 1.83176 0.853873 0
M  V30 16568 C 1524.01 0.71168 1.81549 0
M  V30 16569 O 1523.28 -0.266391 1.9408 0
M  V30 16570 H 1521.86 0.675785 0.318313 0
M  V30 16571 H 1524.52 1.9442 0.136712 0
M  V30 16572 H 1523.62 2.7823 1.41402 0
M  V30 16573 N 1523.92 -0.412991 1.52093 0
M  V30 16574 C 1524.88 -1.48555 1.7454 0
M  V30 16575 C 1525.88 -1.48563 0.615283 0
M  V30 16576 O 1527.07 -1.50155 0.883119 0
M  V30 16577 C 1524.21 -2.87984 1.82423 0
M  V30 16578 H 1525.4 -1.29945 2.70285 0
M  V30 16579 H 1522.95 -0.643241 1.4245 0
M  V30 16580 H 1523.69 -3.11969 0.885777 0
M  V30 16581 H 1523.47 -2.89381 2.64577 0
M  V30 16582 H 1524.96 -3.65745 2.01545 0
M  V30 16583 N 1525.4 -1.4265 -0.669982 0
M  V30 16584 C 1526.36 -1.46196 -1.7652 0
M  V30 16585 C 1527.36 -0.348884 -1.5697 0
M  V30 16586 O 1528.55 -0.609921 -1.63174 0
M  V30 16587 C 1525.68 -1.29829 -3.1521 0
M  V30 16588 H 1526.88 -2.43718 -1.74762 0
M  V30 16589 H 1524.43 -1.29168 -0.88007 0
M  V30 16590 H 1525.17 -0.332493 -3.22591 0
M  V30 16591 H 1524.95 -2.10501 -3.30804 0
M  V30 16592 H 1526.44 -1.35205 -3.95107 0
M  V30 16593 N 1526.88 0.906753 -1.28902 0
M  V30 16594 C 1527.83 2.03141 -1.13299 0
M  V30 16595 C 1528.82 1.69325 -0.0504114 0
M  V30 16596 O 1530.03 1.78774 -0.209696 0
M  V30 16597 H 1526.4 0.665709 -0.349766 0
M  V30 16598 H 1528.37 2.13441 -2.08531 0
M  V30 16599 C 1527.12 3.37918 -0.818935 0
M  V30 16600 H 1526.44 3.64437 -1.64395 0
M  V30 16601 H 1527.88 4.17318 -0.749753 0
M  V30 16602 C 1526.34 3.33498 0.477582 0
M  V30 16603 O 1526.87 3.7241 1.50578 0
M  V30 16604 N 1525.08 2.86594 0.480862 0
M  V30 16605 H 1524.63 2.55124 -0.356308 0
M  V30 16606 H 1524.58 2.84019 1.34835 0
M  V30 16607 N 1528.36 1.11264 1.11616 0
M  V30 16608 C 1529.77 0.846176 1.35322 0
M  V30 16609 C 1529.97 -0.530043 1.94404 0
M  V30 16610 O 1529.03 -1.28122 2.1758 0
M  V30 16611 C 1530.34 1.9528 2.28662 0
M  V30 16612 C 1531.89 1.98225 2.42231 0
M  V30 16613 C 1532.36 3.08086 3.38891 0
M  V30 16614 N 1533.85 3.07448 3.46453 0
M  V30 16615 C 1534.59 3.89094 4.21181 0
M  V30 16616 N 1534.09 4.80698 4.989 0
M  V30 16617 N 1535.88 3.77279 4.16674 0
M  V30 16618 H 1528.03 1.99958 0.716284 0
M  V30 16619 H 1530.29 0.869439 0.377862 0
M  V30 16620 H 1530 2.94381 1.92439 0
M  V30 16621 H 1529.87 1.84739 3.28864 0
M  V30 16622 H 1532.26 0.997517 2.77729 0
M  V30 16623 H 1532.34 2.12842 1.41887 0
M  V30 16624 H 1531.98 4.06784 3.0412 0
M  V30 16625 H 1531.91 2.90709 4.39085 0
M  V30 16626 H 1534.41 2.41077 2.91016 0
M  V30 16627 H 1534.72 5.39535 5.53282 0
M  V30 16628 H 1533.06 4.84721 4.98067 0
M  V30 16629 H 1536.25 3.05059 3.55044 0
M  V30 16630 H 1536.43 4.41142 4.74655 0
M  V30 16631 N 1529.83 -1.29188 0.902679 0
M  V30 16632 C 1530.74 -2.3138 0.387363 0
M  V30 16633 C 1531.76 -1.66067 -0.519396 0
M  V30 16634 O 1532.94 -1.97219 -0.408257 0
M  V30 16635 C 1530 -3.44675 -0.374137 0
M  V30 16636 C 1529.06 -4.25572 0.564503 0
M  V30 16637 C 1528.29 -5.33458 -0.160748 0
M  V30 16638 O 1528.52 -5.53349 -1.38423 0
M  V30 16639 O 1527.45 -5.99834 0.498259 0
M  V30 16640 H 1531.28 -2.77444 1.23525 0
M  V30 16641 H 1528.86 -1.33679 0.667106 0
M  V30 16642 H 1530.74 -4.13647 -0.80464 0
M  V30 16643 H 1529.42 -3.00714 -1.19804 0
M  V30 16644 H 1528.33 -3.59232 1.04418 0
M  V30 16645 H 1529.66 -4.73184 1.3549 0
M  V30 16646 N 1531.31 -0.665475 -1.42861 0
M  V30 16647 C 1532.54 -0.192 -2.06007 0
M  V30 16648 C 1532.95 1.1472 -1.49949 0
M  V30 16649 O 1532.31 1.71074 -0.635599 0
M  V30 16650 C 1532.36 -0.108189 -3.61338 0
M  V30 16651 O 1532.08 -1.39446 -4.15315 0
M  V30 16652 C 1533.58 0.3899 -4.41582 0
M  V30 16653 H 1530.8 -0.0955812 -0.664158 0
M  V30 16654 H 1533.35 -0.909582 -1.83158 0
M  V30 16655 H 1531.5 0.560024 -3.83331 0
M  V30 16656 H 1531.92 -1.26168 -5.09099 0
M  V30 16657 H 1533.39 0.39747 -5.50567 0
M  V30 16658 H 1533.87 1.42348 -4.15492 0
M  V30 16659 H 1534.47 -0.246248 -4.24587 0
M  V30 16660 N 1532.79 1.52222 -0.408187 0
M  V30 16661 C 1533.74 2.26988 0.417767 0
M  V30 16662 C 1534.71 1.29362 1.04185 0
M  V30 16663 O 1535.89 1.58223 1.06631 0
M  V30 16664 C 1533.03 3.09379 1.52901 0
M  V30 16665 C 1532.14 4.2196 0.92593 0
M  V30 16666 C 1531.28 4.91712 2.00979 0
M  V30 16667 C 1530.32 5.96258 1.3836 0
M  V30 16668 N 1529.46 6.59531 2.40756 0
M  V30 16669 H 1534.3 2.9714 -0.226228 0
M  V30 16670 H 1531.83 1.46581 -0.123402 0
M  V30 16671 H 1533.79 3.55452 2.18425 0
M  V30 16672 H 1532.42 2.41399 2.14304 0
M  V30 16673 H 1531.47 3.80064 0.159765 0
M  V30 16674 H 1532.78 4.96956 0.428497 0
M  V30 16675 H 1531.94 5.41186 2.74231 0
M  V30 16676 H 1530.68 4.16282 2.54087 0
M  V30 16677 H 1529.68 5.46104 0.636402 0
M  V30 16678 H 1530.91 6.7363 0.860218 0
M  V30 16679 H 1528.85 5.86931 2.92999 0
M  V30 16680 H 1528.77 7.30198 1.95822 0
M  V30 16681 H 1530.04 7.13643 3.13581 0
M  V30 16682 N 1534.27 0.138579 1.5699 0
M  V30 16683 C 1535.2 -0.800568 2.19347 0
M  V30 16684 C 1536.18 -1.26318 1.13921 0
M  V30 16685 O 1537.36 -1.32226 1.42232 0
M  V30 16686 C 1534.49 -2.04317 2.80842 0
M  V30 16687 C 1533.45 -1.71764 3.92022 0
M  V30 16688 C 1532.77 -3.03217 4.40413 0
M  V30 16689 C 1534.07 -0.970789 5.13199 0
M  V30 16690 H 1535.77 -0.280888 2.98079 0
M  V30 16691 H 1533.31 -0.133663 1.43378 0
M  V30 16692 H 1535.27 -2.70491 3.2313 0
M  V30 16693 H 1533.99 -2.58643 1.99428 0
M  V30 16694 H 1532.65 -1.07972 3.50339 0
M  V30 16695 H 1532.3 -3.55517 3.55832 0
M  V30 16696 H 1532 -2.82203 5.15398 0
M  V30 16697 H 1533.52 -3.70477 4.85365 0
M  V30 16698 H 1534.94 -1.53445 5.52384 0
M  V30 16699 H 1533.33 -0.860895 5.93893 0
M  V30 16700 H 1534.4 0.0390088 4.84884 0
M  V30 16701 N 1535.75 -1.57019 -0.13521 0
M  V30 16702 C 1536.99 -1.83626 -0.844147 0
M  V30 16703 C 1537.31 -0.721298 -1.81169 0
M  V30 16704 O 1536.58 0.256095 -1.94219 0
M  V30 16705 H 1535.16 -0.677464 -0.314725 0
M  V30 16706 H 1537.83 -1.9449 -0.126399 0
M  V30 16707 H 1536.92 -2.78976 -1.39925 0
M  V30 16708 N 1537.22 0.404919 -1.52309 0
M  V30 16709 C 1538.17 1.49363 -1.75953 0
M  V30 16710 C 1539.14 1.54802 -0.60212 0
M  V30 16711 O 1540.33 1.71308 -0.840128 0
M  V30 16712 C 1537.47 2.86767 -1.91987 0
M  V30 16713 C 1536.58 2.90603 -3.19646 0
M  V30 16714 C 1535.71 4.19333 -3.26088 0
M  V30 16715 C 1534.75 4.17161 -4.47932 0
M  V30 16716 N 1533.89 5.37469 -4.51743 0
M  V30 16717 H 1538.73 1.28503 -2.6887 0
M  V30 16718 H 1536.27 0.623684 -1.33224 0
M  V30 16719 H 1538.23 3.66536 -1.99267 0
M  V30 16720 H 1536.86 3.06112 -1.02447 0
M  V30 16721 H 1535.91 2.033 -3.21517 0
M  V30 16722 H 1537.22 2.84864 -4.09456 0
M  V30 16723 H 1536.37 5.07497 -3.32463 0
M  V30 16724 H 1535.11 4.27774 -2.34224 0
M  V30 16725 H 1534.12 3.27386 -4.417 0
M  V30 16726 H 1535.34 4.10356 -5.41096 0
M  V30 16727 H 1533.29 5.46569 -3.62764 0
M  V30 16728 H 1533.21 5.3374 -5.35404 0
M  V30 16729 H 1534.47 6.27575 -4.62353 0
M  V30 16730 N 1538.7 1.43003 0.662408 0
M  V30 16731 C 1539.67 1.4713 1.75743 0
M  V30 16732 C 1540.67 0.357203 1.56782 0
M  V30 16733 O 1541.86 0.618566 1.62848 0
M  V30 16734 C 1538.99 1.31499 3.14517 0
M  V30 16735 H 1540.18 2.44641 1.73467 0
M  V30 16736 H 1537.73 1.29633 0.873208 0
M  V30 16737 H 1538.47 0.349596 3.2241 0
M  V30 16738 H 1538.25 2.12253 3.29683 0
M  V30 16739 H 1539.74 1.37298 3.94384 0
M  V30 16740 N 1540.18 -0.899904 1.29381 0
M  V30 16741 C 1541.43 -1.64712 1.17109 0
M  V30 16742 C 1541.75 -1.93011 -0.277772 0
M  V30 16743 O 1541.02 -1.55604 -1.19013 0
M  V30 16744 H 1539.6 -0.610532 0.430418 0
M  V30 16745 H 1542.26 -1.07905 1.62304 0
M  V30 16746 H 1541.36 -2.60362 1.72098 0
M  V30 16747 N 1541.66 -1.11854 -1.11024 0
M  V30 16748 C 1542.89 -0.891419 -1.86379 0
M  V30 16749 C 1543.3 0.562516 -1.80644 0
M  V30 16750 O 1542.64 1.40037 -1.18893 0
M  V30 16751 C 1542.7 -1.28029 -3.3593 0
M  V30 16752 C 1542.37 -2.74427 -3.65429 0
M  V30 16753 C 1543.36 -3.72636 -3.62545 0
M  V30 16754 C 1541.05 -3.11182 -3.94298 0
M  V30 16755 C 1543.04 -5.05615 -3.88113 0
M  V30 16756 C 1540.73 -4.44345 -4.19524 0
M  V30 16757 C 1541.73 -5.41371 -4.16421 0
M  V30 16758 O 1541.41 -6.72135 -4.41009 0
M  V30 16759 H 1541.15 -0.318813 -0.596099 0
M  V30 16760 H 1543.7 -1.49069 -1.41307 0
M  V30 16761 H 1541.93 -0.624186 -3.81629 0
M  V30 16762 H 1543.62 -1.02827 -3.92659 0
M  V30 16763 H 1544.39 -3.45586 -3.40287 0
M  V30 16764 H 1540.26 -2.36274 -3.95848 0
M  V30 16765 H 1543.81 -5.81338 -3.85606 0
M  V30 16766 H 1539.71 -4.71127 -4.41259 0
M  V30 16767 H 1540.47 -6.77989 -4.58555 0
M  V30 16768 N 1543.14 1.28707 -0.909517 0
M  V30 16769 C 1544.38 1.95443 -0.541281 0
M  V30 16770 C 1544.72 1.71457 0.911934 0
M  V30 16771 O 1543.99 1.03312 1.64794 0
M  V30 16772 C 1544.27 3.50019 -0.846097 0
M  V30 16773 C 1544.13 3.83423 -2.35173 0
M  V30 16774 C 1545.45 4.3879 -0.339328 0
M  V30 16775 H 1542.56 0.709869 -0.198128 0
M  V30 16776 H 1545.21 1.52151 -1.13799 0
M  V30 16777 H 1543.36 3.87025 -0.338262 0
M  V30 16778 H 1545.03 3.5631 -2.92986 0
M  V30 16779 H 1543.27 3.30618 -2.80846 0
M  V30 16780 H 1543.94 4.91348 -2.51557 0
M  V30 16781 H 1546.42 4.08832 -0.774312 0
M  V30 16782 H 1545.29 5.45809 -0.581722 0
M  V30 16783 H 1545.56 4.35514 0.760244 0
M  V30 16784 N 1544.61 0.673042 1.42506 0
M  V30 16785 C 1545.84 0.202922 2.05902 0
M  V30 16786 C 1546.26 -1.13923 1.50556 0
M  V30 16787 O 1545.61 -1.70735 0.644662 0
M  V30 16788 C 1545.67 0.12735 3.61276 0
M  V30 16789 O 1545.39 1.41646 4.1457 0
M  V30 16790 C 1546.89 -0.366477 4.41783 0
M  V30 16791 H 1544.11 0.0991021 0.663641 0
M  V30 16792 H 1546.65 0.919282 1.82673 0
M  V30 16793 H 1544.81 -0.539687 3.83622 0
M  V30 16794 H 1545.22 1.28866 5.08423 0
M  V30 16795 H 1546.69 -0.368267 5.5077 0
M  V30 16796 H 1547.17 -1.40142 4.16241 0
M  V30 16797 H 1547.78 0.268761 4.2445 0
M  V30 16798 N 1546.09 -1.52004 0.416254 0
M  V30 16799 C 1547.04 -2.28771 -0.420331 0
M  V30 16800 C 1548.03 -1.33751 -1.03957 0
M  V30 16801 O 1549.24 -1.51181 -0.976951 0
M  V30 16802 H 1545.62 -0.735991 -0.15434 0
M  V30 16803 H 1547.59 -2.97366 0.248255 0
M  V30 16804 C 1546.34 -3.12675 -1.52085 0
M  V30 16805 H 1545.66 -3.85665 -1.0537 0
M  V30 16806 H 1547.1 -3.69482 -2.07989 0
M  V30 16807 C 1545.56 -2.26692 -2.49224 0
M  V30 16808 O 1546.09 -1.91205 -3.53276 0
M  V30 16809 N 1544.29 -1.90322 -2.19604 0
M  V30 16810 H 1543.84 -2.1938 -1.35019 0
M  V30 16811 H 1543.8 -1.33086 -2.84843 0
M  V30 16812 N 1547.57 -0.146903 -1.56914 0
M  V30 16813 C 1548.52 0.792821 -2.16756 0
M  V30 16814 C 1549.49 1.2442 -1.1004 0
M  V30 16815 O 1550.67 1.31674 -1.38081 0
M  V30 16816 C 1547.81 2.02659 -2.79327 0
M  V30 16817 C 1546.93 1.62102 -4.00433 0
M  V30 16818 C 1546.06 2.80658 -4.51004 0
M  V30 16819 C 1545.1 2.36474 -5.64576 0
M  V30 16820 N 1544.24 3.48038 -6.09766 0
M  V30 16821 H 1549.08 0.275708 -2.96722 0
M  V30 16822 H 1546.61 0.124374 -1.46573 0
M  V30 16823 H 1548.57 2.74986 -3.13749 0
M  V30 16824 H 1547.2 2.51781 -2.02005 0
M  V30 16825 H 1546.25 0.795407 -3.71991 0
M  V30 16826 H 1547.57 1.25652 -4.82714 0
M  V30 16827 H 1546.72 3.61175 -4.87481 0
M  V30 16828 H 1545.46 3.20353 -3.6773 0
M  V30 16829 H 1544.46 1.54397 -5.27676 0
M  V30 16830 H 1545.69 1.97865 -6.49635 0
M  V30 16831 H 1543.63 3.87354 -5.29427 0
M  V30 16832 H 1543.55 3.15602 -6.86972 0
M  V30 16833 H 1544.82 4.28912 -6.50887 0
M  V30 16834 N 1549.05 1.57088 0.126881 0
M  V30 16835 C 1550.3 1.84071 0.834397 0
M  V30 16836 C 1550.62 0.730896 1.80784 0
M  V30 16837 O 1549.89 -0.245791 1.94352 0
M  V30 16838 H 1548.47 0.679123 0.311128 0
M  V30 16839 H 1551.13 1.94554 0.116083 0
M  V30 16840 H 1550.23 2.79714 1.38443 0
M  V30 16841 N 1550.53 -0.396836 1.52522 0
M  V30 16842 C 1551.94 -0.736347 1.41598 0
M  V30 16843 C 1552.14 -1.944 0.530191 0
M  V30 16844 O 1551.2 -2.525 0.000649033 0
M  V30 16845 C 1552.51 -0.978775 2.84325 0
M  V30 16846 C 1554.06 -1.08073 2.9375 0
M  V30 16847 C 1554.53 -1.35584 4.37471 0
M  V30 16848 N 1556.03 -1.42423 4.40761 0
M  V30 16849 C 1556.76 -1.6536 5.49039 0
M  V30 16850 N 1556.26 -1.85819 6.67415 0
M  V30 16851 N 1558.05 -1.67475 5.36571 0
M  V30 16852 H 1550.2 0.397925 2.08639 0
M  V30 16853 H 1552.46 0.115803 0.9409 0
M  V30 16854 H 1552.17 -0.16362 3.51319 0
M  V30 16855 H 1552.04 -1.8956 3.26109 0
M  V30 16856 H 1554.43 -1.88646 2.26928 0
M  V30 16857 H 1554.51 -0.141996 2.55406 0
M  V30 16858 H 1554.16 -0.555238 5.04856 0
M  V30 16859 H 1554.09 -2.3073 4.73362 0
M  V30 16860 H 1556.58 -1.28352 3.55435 0
M  V30 16861 H 1556.89 -2.02806 7.45714 0
M  V30 16862 H 1555.23 -1.83059 6.70458 0
M  V30 16863 H 1558.43 -1.51038 4.43064 0
M  V30 16864 H 1558.6 -1.85011 6.21027 0
M  V30 16865 N 1552.01 -1.43353 -0.654814 0
M  V30 16866 C 1552.94 -1.44353 -1.7803 0
M  V30 16867 C 1553.95 -0.339872 -1.59213 0
M  V30 16868 O 1555.14 -0.604207 -1.67963 0
M  V30 16869 C 1552.24 -1.23913 -3.15434 0
M  V30 16870 C 1551.41 -2.47088 -3.60924 0
M  V30 16871 C 1550.47 -2.21896 -4.77126 0
M  V30 16872 O 1549.5 -2.95236 -4.86646 0
M  V30 16873 N 1550.7 -1.23459 -5.6722 0
M  V30 16874 H 1553.46 -2.41372 -1.77651 0
M  V30 16875 H 1551.03 -1.38488 -0.838603 0
M  V30 16876 H 1553.02 -1.04945 -3.90856 0
M  V30 16877 H 1551.59 -0.35346 -3.10595 0
M  V30 16878 H 1550.81 -2.81492 -2.75964 0
M  V30 16879 H 1552.1 -3.29066 -3.88064 0
M  V30 16880 H 1551.49 -0.6284 -5.62199 0
M  V30 16881 H 1550.05 -1.10474 -6.4237 0
M  V30 16882 N 1553.48 0.89303 -1.29857 0
M  V30 16883 C 1554.43 1.9979 -1.15554 0
M  V30 16884 C 1555.4 1.66033 -0.0471157 0
M  V30 16885 O 1556.59 1.89575 -0.215846 0
M  V30 16886 C 1553.73 3.34595 -0.844993 0
M  V30 16887 C 1552.84 3.81093 -2.03451 0
M  V30 16888 C 1551.97 5.04506 -1.66275 0
M  V30 16889 C 1551.01 5.4339 -2.8177 0
M  V30 16890 N 1550.15 6.57987 -2.44945 0
M  V30 16891 H 1554.99 2.11355 -2.10079 0
M  V30 16892 H 1552.53 1.03497 -1.04531 0
M  V30 16893 H 1554.48 4.12175 -0.645598 0
M  V30 16894 H 1553.11 3.22738 0.0633626 0
M  V30 16895 H 1552.17 2.99491 -2.34541 0
M  V30 16896 H 1553.48 4.05855 -2.8997 0
M  V30 16897 H 1552.63 5.89688 -1.42664 0
M  V30 16898 H 1551.37 4.81597 -0.769144 0
M  V30 16899 H 1550.38 4.56738 -3.06056 0
M  V30 16900 H 1551.6 5.68276 -3.71805 0
M  V30 16901 H 1549.55 6.36669 -1.58079 0
M  V30 16902 H 1549.46 6.82579 -3.24996 0
M  V30 16903 H 1550.73 7.46421 -2.24669 0
M  V30 16904 N 1554.96 1.12442 1.10429 0
M  V30 16905 C 1556.21 0.881062 1.82661 0
M  V30 16906 C 1556.54 -0.591636 1.84968 0
M  V30 16907 O 1555.82 -1.43734 1.31037 0
M  V30 16908 C 1556.1 1.45658 3.29326 0
M  V30 16909 C 1555.95 2.99766 3.35352 0
M  V30 16910 C 1557.27 1.1162 4.2571 0
M  V30 16911 H 1554.39 0.321516 0.663172 0
M  V30 16912 H 1557.03 1.39102 1.29424 0
M  V30 16913 H 1555.18 1.02286 3.74793 0
M  V30 16914 H 1556.85 3.51818 2.98365 0
M  V30 16915 H 1555.1 3.35292 2.75249 0
M  V30 16916 H 1555.77 3.35128 4.38627 0
M  V30 16917 H 1558.24 1.49081 3.88477 0
M  V30 16918 H 1557.12 1.54552 5.26692 0
M  V30 16919 H 1557.38 0.0284093 4.42091 0
M  V30 16920 N 1556.44 -1.28223 0.91633 0
M  V30 16921 C 1557.69 -1.95153 0.551639 0
M  V30 16922 C 1558.02 -1.71938 -0.902829 0
M  V30 16923 O 1557.29 -1.04184 -1.64243 0
M  V30 16924 C 1557.58 -3.49565 0.864647 0
M  V30 16925 C 1557.43 -3.82171 2.37203 0
M  V30 16926 C 1558.75 -4.38604 0.362593 0
M  V30 16927 H 1555.87 -0.708808 0.20189 0
M  V30 16928 H 1558.51 -1.51545 1.14604 0
M  V30 16929 H 1556.66 -3.8684 0.358782 0
M  V30 16930 H 1558.33 -3.54751 2.94872 0
M  V30 16931 H 1556.57 -3.29124 2.82595 0
M  V30 16932 H 1557.25 -4.90007 2.54159 0
M  V30 16933 H 1559.72 -4.08416 0.795983 0
M  V30 16934 H 1558.6 -5.45493 0.61066 0
M  V30 16935 H 1558.86 -4.35911 -0.737137 0
M  V30 16936 N 1557.92 -0.68059 -1.42147 0
M  V30 16937 C 1559.14 -0.212293 -2.06311 0
M  V30 16938 C 1559.57 1.12402 -1.50822 0
M  V30 16939 O 1558.93 1.70037 -0.629051 0
M  V30 16940 C 1558.97 -0.164156 -3.60226 0
M  V30 16941 O 1558.08 0.865582 -4.03214 0
M  V30 16942 H 1557.42 -0.107451 -0.655248 0
M  V30 16943 H 1559.95 -0.931233 -1.82179 0
M  V30 16944 H 1559.96 0.0100422 -4.07999 0
M  V30 16945 H 1558.63 -1.13952 -3.99985 0
M  V30 16946 H 1557.21 0.661955 -3.66978 0
M  V30 16947 N 1559.4 1.51781 -0.424309 0
M  V30 16948 C 1560.33 2.30313 0.384462 0
M  V30 16949 C 1561.31 1.35166 1.03268 0
M  V30 16950 O 1562.49 1.64081 1.0388 0
M  V30 16951 C 1559.62 3.13566 1.49311 0
M  V30 16952 C 1558.58 4.16884 0.969096 0
M  V30 16953 C 1557.9 4.88576 2.17251 0
M  V30 16954 C 1559.2 5.22298 0.0125613 0
M  V30 16955 H 1560.9 2.98172 -0.270871 0
M  V30 16956 H 1558.44 1.43396 -0.131712 0
M  V30 16957 H 1560.39 3.67279 2.06602 0
M  V30 16958 H 1559.12 2.43504 2.17655 0
M  V30 16959 H 1557.78 3.64203 0.418494 0
M  V30 16960 H 1557.43 4.15029 2.84183 0
M  V30 16961 H 1557.13 5.58432 1.82833 0
M  V30 16962 H 1558.65 5.45107 2.75119 0
M  V30 16963 H 1560.06 5.71161 0.494744 0
M  V30 16964 H 1558.46 5.99606 -0.243544 0
M  V30 16965 H 1559.53 4.75935 -0.92813 0
M  V30 16966 N 1560.87 0.155222 1.56834 0
M  V30 16967 C 1562.1 -0.500542 2.00754 0
M  V30 16968 C 1562.52 -1.57878 1.03538 0
M  V30 16969 O 1561.87 -1.82469 0.0336651 0
M  V30 16970 C 1561.92 -1.09366 3.4456 0
M  V30 16971 O 1561.65 -0.0584788 4.38061 0
M  V30 16972 C 1563.15 -1.82923 4.038 0
M  V30 16973 H 1560.37 -0.129589 0.658368 0
M  V30 16974 H 1562.91 0.252223 2.02939 0
M  V30 16975 H 1561.07 -1.797 3.43201 0
M  V30 16976 H 1561.48 -0.494125 5.22167 0
M  V30 16977 H 1562.95 -2.19703 5.06394 0
M  V30 16978 H 1563.43 -2.71823 3.44976 0
M  V30 16979 H 1564.04 -1.17268 4.08813 0
M  V30 16980 N 1562.35 -1.57153 -0.118549 0
M  V30 16981 C 1563.63 -1.75846 -0.856587 0
M  V30 16982 C 1564.01 -0.730801 -1.98047 0
M  V30 16983 O 1563.36 0.245156 -2.27181 0
M  V30 16984 C 1563.57 -3.20864 -1.37286 0
M  V30 16985 C 1564.91 -3.83378 -1.82501 0
M  V30 16986 O 1565.94 -3.24469 -1.46964 0
M  V30 16987 O 1564.8 -4.86922 -2.48132 0
M  V30 16988 H 1561.89 -0.72002 -0.406817 0
M  V30 16989 H 1564.44 -1.69392 -0.102254 0
M  V30 16990 H 1563.21 -3.87177 -0.566531 0
M  V30 16991 H 1562.83 -3.31858 -2.18988 0
M  V30 16992 N 1563.83 0.388742 -1.5273 0
M  V30 16993 C 1565.06 1.15495 -1.71664 0
M  V30 16994 C 1565.47 1.83717 -0.435127 0
M  V30 16995 O 1564.83 1.72686 0.590411 0
M  V30 16996 C 1564.88 2.20279 -2.86635 0
M  V30 16997 O 1564.6 1.54838 -4.09825 0
M  V30 16998 C 1566.1 3.09625 -3.1725 0
M  V30 16999 H 1563.32 0.346271 -0.57475 0
M  V30 17000 H 1565.87 0.454729 -1.9938 0
M  V30 17001 H 1564.02 2.85936 -2.61379 0
M  V30 17002 H 1564.44 2.24466 -4.74042 0
M  V30 17003 H 1565.91 3.79177 -4.01159 0
M  V30 17004 H 1566.39 3.73147 -2.31643 0
M  V30 17005 H 1566.99 2.49612 -3.44345 0
M  V30 17006 N 1565.31 1.43698 0.647203 0
M  V30 17007 C 1566.54 1.49085 1.43462 0
M  V30 17008 C 1566.95 0.110605 1.88476 0
M  V30 17009 O 1566.31 -0.880365 1.59862 0
M  V30 17010 C 1566.36 2.44186 2.66562 0
M  V30 17011 O 1566.08 3.76844 2.23429 0
M  V30 17012 C 1567.58 2.58876 3.59858 0
M  V30 17013 H 1564.8 0.506148 0.440517 0
M  V30 17014 H 1567.34 1.88502 0.792931 0
M  V30 17015 H 1565.5 2.07949 3.26858 0
M  V30 17016 H 1565.91 4.2804 3.0312 0
M  V30 17017 H 1567.39 3.29482 4.42883 0
M  V30 17018 H 1567.86 1.63567 4.07606 0
M  V30 17019 H 1568.47 2.95949 3.05441 0
M  V30 17020 N 1566.79 -0.886131 1.30328 0
M  V30 17021 C 1567.73 -2.01312 1.16516 0
M  V30 17022 C 1568.73 -1.69223 0.0773431 0
M  V30 17023 O 1569.93 -1.78418 0.238111 0
M  V30 17024 H 1566.31 -0.66006 0.360312 0
M  V30 17025 H 1568.28 -2.10097 2.11901 0
M  V30 17026 C 1567.03 -3.36573 0.872592 0
M  V30 17027 H 1566.35 -3.61775 1.70172 0
M  V30 17028 H 1567.79 -4.16073 0.816049 0
M  V30 17029 C 1566.25 -3.34215 -0.424465 0
M  V30 17030 O 1566.78 -3.74758 -1.44634 0
M  V30 17031 N 1564.99 -2.87323 -0.435207 0
M  V30 17032 H 1564.53 -2.54525 0.396851 0
M  V30 17033 H 1564.49 -2.86128 -1.303 0
M  V30 17034 N 1568.26 -1.13026 -1.09832 0
M  V30 17035 C 1569.2 -0.761606 -2.16176 0
M  V30 17036 C 1570.21 0.214709 -1.61378 0
M  V30 17037 O 1571.4 -0.00487178 -1.78499 0
M  V30 17038 C 1568.5 -0.107513 -3.38729 0
M  V30 17039 C 1567.67 -1.11487 -4.22953 0
M  V30 17040 C 1566.73 -0.487243 -5.23939 0
M  V30 17041 O 1565.76 -1.14605 -5.57543 0
M  V30 17042 N 1566.96 0.742571 -5.75731 0
M  V30 17043 H 1569.72 -1.67669 -2.48409 0
M  V30 17044 H 1567.28 -1.0227 -1.25509 0
M  V30 17045 H 1569.28 0.324507 -4.03397 0
M  V30 17046 H 1567.85 0.710438 -3.0442 0
M  V30 17047 H 1567.07 -1.72432 -3.54487 0
M  V30 17048 H 1568.35 -1.79584 -4.76053 0
M  V30 17049 H 1567.75 1.29667 -5.50639 0
M  V30 17050 H 1566.31 1.11731 -6.42152 0
M  V30 17051 N 1569.74 1.27735 -0.923117 0
M  V30 17052 C 1570.69 2.26997 -0.417254 0
M  V30 17053 C 1571.66 1.57968 0.513364 0
M  V30 17054 O 1572.84 1.8581 0.433521 0
M  V30 17055 C 1569.98 3.43537 0.328089 0
M  V30 17056 C 1569.1 4.27291 -0.636112 0
M  V30 17057 C 1568.23 5.31044 0.128614 0
M  V30 17058 C 1567.27 6.06466 -0.828592 0
M  V30 17059 N 1566.41 7.02033 -0.0967858 0
M  V30 17060 H 1571.25 2.69643 -1.26872 0
M  V30 17061 H 1568.79 1.32597 -0.6369 0
M  V30 17062 H 1570.74 4.0991 0.776504 0
M  V30 17063 H 1569.37 3.01855 1.14383 0
M  V30 17064 H 1568.43 3.60875 -1.20306 0
M  V30 17065 H 1569.74 4.79679 -1.36784 0
M  V30 17066 H 1568.89 6.03345 0.637159 0
M  V30 17067 H 1567.63 4.79448 0.893341 0
M  V30 17068 H 1566.64 5.33008 -1.34843 0
M  V30 17069 H 1567.86 6.60151 -1.59303 0
M  V30 17070 H 1565.81 6.52774 0.649779 0
M  V30 17071 H 1565.72 7.52087 -0.768171 0
M  V30 17072 H 1566.99 7.78517 0.391257 0
M  V30 17073 N 1571.22 0.688118 1.41784 0
M  V30 17074 C 1572.45 0.22475 2.05676 0
M  V30 17075 C 1572.86 -1.1232 1.51755 0
M  V30 17076 O 1572.22 -1.70041 0.662735 0
M  V30 17077 C 1572.27 0.165661 3.6112 0
M  V30 17078 O 1571.99 1.46035 4.13044 0
M  V30 17079 C 1573.49 -0.319599 4.42146 0
M  V30 17080 H 1570.71 0.106135 0.662553 0
M  V30 17081 H 1573.26 0.938605 1.81688 0
M  V30 17082 H 1571.41 -0.498968 3.84173 0
M  V30 17083 H 1571.83 1.34252 5.07027 0
M  V30 17084 H 1573.3 -0.30983 5.5113 0
M  V30 17085 H 1573.78 -1.3572 4.17704 0
M  V30 17086 H 1574.38 0.313764 4.24141 0
M  V30 17087 N 1572.7 -1.51554 0.432352 0
M  V30 17088 C 1573.61 -2.31371 -0.387885 0
M  V30 17089 C 1574.62 -1.40072 -1.03227 0
M  V30 17090 O 1575.8 -1.73145 -1.02873 0
M  V30 17091 C 1572.87 -3.13662 -1.47705 0
M  V30 17092 C 1571.93 -4.20734 -0.853315 0
M  V30 17093 C 1571.16 -4.99092 -1.89058 0
M  V30 17094 O 1571.38 -4.78022 -3.11209 0
M  V30 17095 O 1570.32 -5.83322 -1.48389 0
M  V30 17096 H 1574.14 -3.02554 0.263578 0
M  V30 17097 H 1571.73 -1.48122 0.195004 0
M  V30 17098 H 1573.61 -3.64837 -2.10884 0
M  V30 17099 H 1572.28 -2.45249 -2.11269 0
M  V30 17100 H 1571.19 -3.73649 -0.183616 0
M  V30 17101 H 1572.52 -4.91506 -0.261244 0
M  V30 17102 N 1574.18 -0.163538 -1.56749 0
M  V30 17103 C 1575.11 0.765571 -2.20593 0
M  V30 17104 C 1576.09 1.24489 -1.15916 0
M  V30 17105 O 1577.27 1.29946 -1.44318 0
M  V30 17106 C 1574.4 1.99823 -2.84057 0
M  V30 17107 C 1573.36 1.65506 -3.94705 0
M  V30 17108 C 1572.68 2.96172 -4.45181 0
M  V30 17109 C 1573.98 0.88902 -5.14678 0
M  V30 17110 H 1575.68 0.233431 -2.98489 0
M  V30 17111 H 1573.22 0.110836 -1.43573 0
M  V30 17112 H 1575.18 2.65316 -3.27392 0
M  V30 17113 H 1573.9 2.55437 -2.03517 0
M  V30 17114 H 1572.56 1.02384 -3.52013 0
M  V30 17115 H 1572.21 3.49811 -3.61443 0
M  V30 17116 H 1571.91 2.73968 -5.19823 0
M  V30 17117 H 1573.43 3.62708 -4.91198 0
M  V30 17118 H 1574.84 1.44637 -5.54755 0
M  V30 17119 H 1573.24 0.766302 -5.95187 0
M  V30 17120 H 1574.31 -0.116145 -4.84761 0
M  V30 17121 N 1575.65 1.57214 0.110213 0
M  V30 17122 C 1576.59 1.97641 1.16064 0
M  V30 17123 C 1577.6 0.876886 1.37166 0
M  V30 17124 O 1578.79 1.15512 1.36086 0
M  V30 17125 C 1575.89 2.2671 2.51904 0
M  V30 17126 C 1575.06 3.58015 2.51285 0
M  V30 17127 C 1574.12 3.75195 3.68938 0
M  V30 17128 O 1573.15 4.47214 3.5212 0
M  V30 17129 N 1574.35 3.14627 4.87842 0
M  V30 17130 H 1577.11 2.88358 0.816679 0
M  V30 17131 H 1574.67 1.59108 0.299383 0
M  V30 17132 H 1576.67 2.35411 3.29187 0
M  V30 17133 H 1575.24 1.42076 2.78448 0
M  V30 17134 H 1574.46 3.60422 1.59655 0
M  V30 17135 H 1575.74 4.44303 2.47936 0
M  V30 17136 H 1575.14 2.56101 5.0441 0
M  V30 17137 H 1573.7 3.28836 5.6277 0
M  V30 17138 N 1577.13 -0.380637 1.52934 0
M  V30 17139 C 1578.1 -1.44819 1.77652 0
M  V30 17140 C 1579.1 -1.47224 0.646657 0
M  V30 17141 O 1580.29 -1.48248 0.91477 0
M  V30 17142 C 1577.42 -2.8405 1.8849 0
M  V30 17143 H 1578.61 -1.24183 2.72981 0
M  V30 17144 H 1576.16 -0.61288 1.43783 0
M  V30 17145 H 1576.9 -3.1002 0.951751 0
M  V30 17146 H 1576.68 -2.83704 2.70655 0
M  V30 17147 H 1578.17 -3.61388 2.09257 0
M  V30 17148 N 1578.61 -1.44039 -0.639573 0
M  V30 17149 C 1579.86 -1.4566 -1.39521 0
M  V30 17150 C 1580.17 -0.0897878 -1.95394 0
M  V30 17151 O 1581.38 0.0165074 -2.71495 0
M  V30 17152 C 1579.83 -2.56395 -2.52566 0
M  V30 17153 C 1579.44 -3.99245 -2.03243 0
M  V30 17154 C 1581.19 -2.67226 -3.29834 0
M  V30 17155 C 1579.09 -5.01419 -3.1358 0
M  V30 17156 H 1578.02 -0.541894 -0.524277 0
M  V30 17157 H 1580.67 -1.70076 -0.688941 0
M  V30 17158 H 1579.06 -2.25204 -3.25729 0
M  V30 17159 H 1580.23 -4.39963 -1.37002 0
M  V30 17160 H 1578.55 -3.9258 -1.38816 0
M  V30 17161 H 1581.14 -3.40736 -4.12072 0
M  V30 17162 H 1581.49 -1.72756 -3.78763 0
M  V30 17163 H 1582.02 -2.97786 -2.63758 0
M  V30 17164 H 1578.76 -5.97489 -2.69605 0
M  V30 17165 H 1578.28 -4.65301 -3.7849 0
M  V30 17166 H 1579.96 -5.2474 -3.78493 0
M  V30 17167 N 1580.09 0.879207 -1.30796 0
M  V30 17168 C 1581.32 1.66208 -1.22713 0
M  V30 17169 C 1581.73 1.88014 0.211506 0
M  V30 17170 O 1581.07 1.43183 1.15084 0
M  V30 17171 C 1581.13 3.05733 -1.89123 0
M  V30 17172 C 1580.8 3.07075 -3.38458 0
M  V30 17173 C 1581.79 2.85709 -4.34358 0
M  V30 17174 C 1579.48 3.28489 -3.8 0
M  V30 17175 C 1581.47 2.85722 -5.69773 0
M  V30 17176 C 1579.16 3.28131 -5.15532 0
M  V30 17177 C 1580.16 3.06773 -6.10229 0
M  V30 17178 O 1579.84 3.06243 -7.43283 0
M  V30 17179 H 1579.58 0.525224 -0.425577 0
M  V30 17180 H 1582.13 1.10636 -1.73057 0
M  V30 17181 H 1580.36 3.62993 -1.33316 0
M  V30 17182 H 1582.05 3.66199 -1.7508 0
M  V30 17183 H 1582.82 2.68956 -4.03593 0
M  V30 17184 H 1578.69 3.44147 -3.06731 0
M  V30 17185 H 1582.24 2.6897 -6.43662 0
M  V30 17186 H 1578.14 3.44422 -5.45934 0
M  V30 17187 H 1578.9 3.22369 -7.52343 0
M  V30 17188 N 1581.57 1.13606 1.09231 0
M  V30 17189 C 1582.5 0.837908 2.17948 0
M  V30 17190 C 1583.48 -0.203575 1.68877 0
M  V30 17191 O 1584.66 -0.0620702 1.94101 0
M  V30 17192 C 1581.79 0.305342 3.45955 0
M  V30 17193 C 1580.75 1.2813 4.08371 0
M  V30 17194 C 1580.07 0.608412 5.31227 0
M  V30 17195 C 1581.37 2.64055 4.50636 0
M  V30 17196 H 1583.07 1.747 2.43147 0
M  V30 17197 H 1580.61 0.84141 1.1686 0
M  V30 17198 H 1582.57 0.0844116 4.21315 0
M  V30 17199 H 1581.29 -0.639144 3.20285 0
M  V30 17200 H 1579.95 1.48826 3.35032 0
M  V30 17201 H 1579.6 -0.341613 5.01839 0
M  V30 17202 H 1579.3 1.25956 5.73942 0
M  V30 17203 H 1580.82 0.396809 6.09309 0
M  V30 17204 H 1582.24 2.47316 5.17212 0
M  V30 17205 H 1580.63 3.25364 5.0424 0
M  V30 17206 H 1581.7 3.21566 3.62937 0
M  V30 17207 N 1583.05 -1.27244 0.929878 0
M  V30 17208 C 1584.01 -2.25028 0.435315 0
M  V30 17209 C 1585.01 -1.54453 -0.447332 0
M  V30 17210 O 1586.2 -1.72424 -0.248105 0
M  V30 17211 C 1583.33 -3.38843 -0.373933 0
M  V30 17212 H 1584.52 -2.70293 1.2993 0
M  V30 17213 H 1582.08 -1.39204 0.710771 0
M  V30 17214 H 1582.81 -2.98963 -1.25664 0
M  V30 17215 H 1582.6 -3.91244 0.258946 0
M  V30 17216 H 1584.09 -4.11516 -0.710255 0
M  V30 17217 N 1584.52 -0.695628 -1.41417 0
M  V30 17218 C 1585.45 -0.0447013 -2.33457 0
M  V30 17219 C 1586.43 0.767104 -1.51821 0
M  V30 17220 O 1587.62 0.720066 -1.80357 0
M  V30 17221 C 1584.75 0.892353 -3.3564 0
M  V30 17222 C 1583.7 0.187638 -4.27588 0
M  V30 17223 C 1583.03 1.23906 -5.20146 0
M  V30 17224 C 1584.33 -0.946093 -5.1366 0
M  V30 17225 H 1586.02 -0.81343 -2.88138 0
M  V30 17226 H 1583.57 -0.392614 -1.38544 0
M  V30 17227 H 1585.52 1.35696 -3.98954 0
M  V30 17228 H 1584.25 1.69275 -2.79309 0
M  V30 17229 H 1582.91 -0.256942 -3.65698 0
M  V30 17230 H 1582.55 2.03198 -4.6013 0
M  V30 17231 H 1582.25 0.772536 -5.82499 0
M  V30 17232 H 1583.78 1.70417 -5.86336 0
M  V30 17233 H 1585.19 -0.561764 -5.70541 0
M  V30 17234 H 1583.59 -1.33971 -5.84954 0
M  V30 17235 H 1584.66 -1.78573 -4.50821 0
M  V30 17236 N 1586 1.51322 -0.440383 0
M  V30 17237 C 1586.93 2.25587 0.40537 0
M  V30 17238 C 1587.95 1.29721 0.983686 0
M  V30 17239 O 1589.14 1.55453 0.877308 0
M  V30 17240 C 1586.24 2.99848 1.57938 0
M  V30 17241 C 1585.41 4.22834 1.11939 0
M  V30 17242 C 1584.47 4.79649 2.16387 0
M  V30 17243 O 1583.49 5.41405 1.75697 0
M  V30 17244 N 1584.7 4.63948 3.48902 0
M  V30 17245 H 1587.46 2.98807 -0.231143 0
M  V30 17246 H 1585.02 1.59642 -0.26944 0
M  V30 17247 H 1587.01 3.34743 2.2744 0
M  V30 17248 H 1585.58 2.29619 2.12117 0
M  V30 17249 H 1584.8 3.93398 0.251323 0
M  V30 17250 H 1586.09 5.02637 0.7895 0
M  V30 17251 H 1585.49 4.14764 3.84691 0
M  V30 17252 H 1584.05 5.03196 4.14291 0
M  V30 17253 N 1587.48 0.171848 1.5666 0
M  V30 17254 C 1588.76 -0.519355 1.88579 0
M  V30 17255 C 1589.14 -1.81273 1.08182 0
M  V30 17256 O 1588.48 -2.27822 0.175895 0
M  V30 17257 C 1588.69 -0.760743 3.40608 0
M  V30 17258 C 1590.04 -1.09051 4.10357 0
M  V30 17259 O 1591.07 -0.849264 3.45928 0
M  V30 17260 O 1589.93 -1.54566 5.24187 0
M  V30 17261 H 1587.02 -0.267782 0.782446 0
M  V30 17262 H 1589.57 0.210323 1.68392 0
M  V30 17263 H 1588.34 0.153577 3.90999 0
M  V30 17264 H 1587.96 -1.54372 3.66408 0
M  V30 17265 N 1588.96 -1.5727 -0.101874 0
M  V30 17266 C 1590.18 -1.90319 -0.824215 0
M  V30 17267 C 1590.61 -0.765469 -1.7182 0
M  V30 17268 O 1589.97 0.283275 -1.79073 0
M  V30 17269 C 1590.01 -3.22201 -1.61922 0
M  V30 17270 O 1589.12 -3.09313 -2.72762 0
M  V30 17271 H 1588.46 -0.624042 -0.226864 0
M  V30 17272 H 1590.99 -2.04447 -0.0791314 0
M  V30 17273 H 1591 -3.55343 -2.00487 0
M  V30 17274 H 1589.67 -4.04596 -0.963078 0
M  V30 17275 H 1588.25 -2.87672 -2.37274 0
M  V30 17276 N 1590.44 0.372521 -1.53134 0
M  V30 17277 C 1591.68 1.11368 -1.68646 0
M  V30 17278 C 1592 1.90034 -0.437275 0
M  V30 17279 O 1591.27 1.88062 0.548593 0
M  V30 17280 H 1589.85 0.414129 -0.621696 0
M  V30 17281 H 1592.52 0.42082 -1.90303 0
M  V30 17282 H 1591.61 1.80738 -2.54441 0
M  V30 17283 N 1591.91 1.44376 0.631925 0
M  V30 17284 C 1592.84 1.54005 1.75512 0
M  V30 17285 C 1593.82 0.393126 1.65495 0
M  V30 17286 O 1595.01 0.613143 1.84267 0
M  V30 17287 C 1592.14 1.48313 3.14039 0
M  V30 17288 C 1591.09 2.61474 3.38844 0
M  V30 17289 C 1590.42 2.40834 4.77392 0
M  V30 17290 C 1591.72 4.03627 3.31485 0
M  V30 17291 H 1593.41 2.48019 1.6771 0
M  V30 17292 H 1590.96 1.19368 0.80543 0
M  V30 17293 H 1592.91 1.5365 3.9239 0
M  V30 17294 H 1591.64 0.508152 3.22623 0
M  V30 17295 H 1590.3 2.55525 2.62874 0
M  V30 17296 H 1589.94 1.4153 4.82678 0
M  V30 17297 H 1589.64 3.16703 4.94947 0
M  V30 17298 H 1591.17 2.47988 5.57974 0
M  V30 17299 H 1592.58 4.1095 3.99741 0
M  V30 17300 H 1590.98 4.79694 3.60574 0
M  V30 17301 H 1592.05 4.27255 2.29307 0
M  V30 17302 N 1593.39 -0.872258 1.31261 0
M  V30 17303 C 1594.3 -2.01185 1.20673 0
M  V30 17304 C 1595.32 -1.73558 0.123921 0
M  V30 17305 O 1596.49 -1.98487 0.341288 0
M  V30 17306 C 1593.56 -3.34481 0.91232 0
M  V30 17307 C 1592.62 -3.75446 2.08179 0
M  V30 17308 C 1591.85 -5.02382 1.80134 0
M  V30 17309 O 1592.08 -5.6564 0.735358 0
M  V30 17310 O 1591.01 -5.40059 2.65744 0
M  V30 17311 H 1594.84 -2.13049 2.16434 0
M  V30 17312 H 1592.42 -1.00021 1.10978 0
M  V30 17313 H 1594.3 -4.14419 0.763879 0
M  V30 17314 H 1592.98 -3.23696 -0.0152802 0
M  V30 17315 H 1591.88 -2.96159 2.28562 0
M  V30 17316 H 1593.22 -3.90853 2.99156 0
M  V30 17317 N 1594.87 -1.14184 -1.08627 0
M  V30 17318 C 1596.12 -0.91001 -1.81236 0
M  V30 17319 C 1596.45 0.562134 -1.85886 0
M  V30 17320 O 1595.72 1.41631 -1.33307 0
M  V30 17321 C 1596.01 -1.50879 -3.26967 0
M  V30 17322 C 1595.86 -3.05063 -3.3054 0
M  V30 17323 C 1597.18 -1.18379 -4.2388 0
M  V30 17324 H 1594.3 -0.332025 -0.657973 0
M  V30 17325 H 1596.94 -1.41144 -1.27194 0
M  V30 17326 H 1595.09 -1.08236 -3.73118 0
M  V30 17327 H 1596.76 -3.5652 -2.9273 0
M  V30 17328 H 1595 -3.39628 -2.6988 0
M  V30 17329 H 1595.68 -3.42064 -4.33239 0
M  V30 17330 H 1598.15 -1.55242 -3.86056 0
M  V30 17331 H 1597.03 -1.62911 -5.24167 0
M  V30 17332 H 1597.29 -0.0987385 -4.4199 0
M  V30 17333 N 1596.35 1.26749 -0.936613 0
M  V30 17334 C 1597.3 2.28528 -0.433328 0
M  V30 17335 C 1598.29 1.62248 0.487012 0
M  V30 17336 O 1599.5 1.76245 0.36573 0
M  V30 17337 H 1595.87 0.742106 -0.121583 0
M  V30 17338 H 1597.84 2.68382 -1.30436 0
M  V30 17339 C 1596.59 3.46485 0.290366 0
M  V30 17340 H 1595.91 3.97706 -0.408649 0
M  V30 17341 H 1597.35 4.19635 0.606807 0
M  V30 17342 C 1595.81 3.01339 1.50654 0
M  V30 17343 O 1596.34 3.05781 2.60501 0
M  V30 17344 N 1594.55 2.56732 1.3615 0
M  V30 17345 H 1594.1 2.53317 0.467788 0
M  V30 17346 H 1594.05 2.26888 2.17645 0
M  V30 17347 N 1597.83 0.703118 1.41046 0
M  V30 17348 C 1599.08 0.234346 2.00334 0
M  V30 17349 C 1599.39 -1.17524 1.56357 0
M  V30 17350 O 1600.59 -1.74188 2.08257 0
M  V30 17351 C 1599.05 0.368067 3.58013 0
M  V30 17352 C 1598.66 1.7835 4.10969 0
M  V30 17353 C 1600.4 -0.0405456 4.24481 0
M  V30 17354 C 1598.31 1.86848 5.61108 0
M  V30 17355 H 1597.24 0.0838583 0.749322 0
M  V30 17356 H 1599.89 0.872407 1.61435 0
M  V30 17357 H 1598.27 -0.338371 3.94552 0
M  V30 17358 H 1599.45 2.51931 3.85833 0
M  V30 17359 H 1597.76 2.14246 3.57054 0
M  V30 17360 H 1600.36 0.00239803 5.347 0
M  V30 17361 H 1600.7 -1.08049 4.02034 0
M  V30 17362 H 1601.23 0.615887 3.93003 0
M  V30 17363 H 1597.97 2.8892 5.88392 0
M  V30 17364 H 1597.49 1.17662 5.88146 0
M  V30 17365 H 1599.17 1.63484 6.26005 0
M  V30 17366 N 1599.3 -1.51086 0.448402 0
M  V30 17367 C 1600.55 -2.02476 -0.114511 0
M  V30 17368 C 1600.88 -1.33126 -1.4139 0
M  V30 17369 O 1600.16 -0.449665 -1.89231 0
M  V30 17370 C 1600.44 -3.58659 -0.321842 0
M  V30 17371 C 1600.29 -4.38612 0.996975 0
M  V30 17372 C 1601.61 -4.26473 -1.08667 0
M  V30 17373 H 1598.73 -0.735906 -0.0401431 0
M  V30 17374 H 1601.37 -1.80622 0.589563 0
M  V30 17375 H 1599.52 -3.77411 -0.92157 0
M  V30 17376 H 1601.2 -4.31484 1.63154 0
M  V30 17377 H 1599.44 -4.03255 1.599 0
M  V30 17378 H 1600.11 -5.46087 0.805817 0
M  V30 17379 H 1602.59 -4.12058 -0.578559 0
M  V30 17380 H 1601.46 -5.35611 -1.20051 0
M  V30 17381 H 1601.72 -3.88086 -2.11758 0
M  V30 17382 N 1600.78 -0.180154 -1.56567 0
M  V30 17383 C 1602.01 0.46854 -2.01525 0
M  V30 17384 C 1602.43 1.56211 -1.06036 0
M  V30 17385 O 1601.78 1.82392 -0.06269 0
M  V30 17386 C 1601.83 1.0387 -3.46256 0
M  V30 17387 O 1601.55 -0.0112203 -4.38099 0
M  V30 17388 C 1603.06 1.76475 -4.06659 0
M  V30 17389 H 1600.28 0.119098 -0.660346 0
M  V30 17390 H 1602.82 -0.284477 -2.02512 0
M  V30 17391 H 1600.97 1.74217 -3.46016 0
M  V30 17392 H 1601.39 0.41099 -5.22887 0
M  V30 17393 H 1602.86 2.11618 -5.09825 0
M  V30 17394 H 1603.34 2.66301 -3.49257 0
M  V30 17395 H 1603.95 1.10749 -4.10627 0
M  V30 17396 N 1602.26 1.57322 0.0935319 0
M  V30 17397 C 1603.54 1.77187 0.828503 0
M  V30 17398 C 1603.92 0.762216 1.96859 0
M  V30 17399 O 1603.27 -0.208982 2.27542 0
M  V30 17400 C 1603.48 3.23007 1.32163 0
M  V30 17401 C 1604.82 3.86233 1.76379 0
M  V30 17402 O 1605.85 3.26766 1.41783 0
M  V30 17403 O 1604.71 4.90808 2.40354 0
M  V30 17404 H 1601.8 0.726401 0.395311 0
M  V30 17405 H 1604.35 1.69533 0.0752924 0
M  V30 17406 H 1603.12 3.88029 0.504863 0
M  V30 17407 H 1602.74 3.353 2.13681 0
M  V30 17408 N 1603.74 -0.364395 1.53329 0
M  V30 17409 C 1604.96 -1.13196 1.73786 0
M  V30 17410 C 1605.39 -1.82231 0.466224 0
M  V30 17411 O 1604.75 -1.71778 -0.579817 0
M  V30 17412 C 1604.79 -2.13704 2.90453 0
M  V30 17413 O 1603.9 -3.20808 2.59144 0
M  V30 17414 H 1603.24 -0.328387 0.577112 0
M  V30 17415 H 1605.77 -0.421157 2.00218 0
M  V30 17416 H 1605.78 -2.57285 3.16652 0
M  V30 17417 H 1604.45 -1.6285 3.82691 0
M  V30 17418 H 1603.03 -2.82192 2.43767 0
M  V30 17419 N 1605.22 -1.44709 -0.62426 0
M  V30 17420 C 1606.15 -1.48097 -1.74928 0
M  V30 17421 C 1607.16 -0.373567 -1.58456 0
M  V30 17422 O 1608.35 -0.639699 -1.66644 0
M  V30 17423 C 1605.45 -1.30576 -3.12735 0
M  V30 17424 C 1604.62 -2.54688 -3.55602 0
M  V30 17425 C 1603.68 -2.31966 -4.72311 0
M  V30 17426 O 1602.71 -3.05492 -4.80274 0
M  V30 17427 N 1603.91 -1.35463 -5.64473 0
M  V30 17428 H 1606.68 -2.45086 -1.72491 0
M  V30 17429 H 1604.24 -1.40236 -0.809039 0
M  V30 17430 H 1606.23 -1.13212 -3.88542 0
M  V30 17431 H 1604.8 -0.419262 -3.09776 0
M  V30 17432 H 1604.02 -2.87282 -2.69931 0
M  V30 17433 H 1605.31 -3.37223 -3.80996 0
M  V30 17434 H 1604.7 -0.747509 -5.60739 0
M  V30 17435 H 1603.26 -1.24075 -6.39882 0
M  V30 17436 N 1606.69 0.865285 -1.31722 0
M  V30 17437 C 1607.92 1.64897 -1.24469 0
M  V30 17438 C 1608.33 1.88228 0.191553 0
M  V30 17439 O 1607.68 1.44396 1.13559 0
M  V30 17440 C 1607.74 3.0371 -1.92355 0
M  V30 17441 C 1607.4 3.03468 -3.41696 0
M  V30 17442 C 1608.4 2.81086 -4.37364 0
M  V30 17443 C 1606.08 3.2444 -3.83463 0
M  V30 17444 C 1608.08 2.79663 -5.72772 0
M  V30 17445 C 1605.76 3.22645 -5.18983 0
M  V30 17446 C 1606.76 3.00284 -6.13448 0
M  V30 17447 O 1606.45 2.98342 -7.4649 0
M  V30 17448 H 1606.18 0.520681 -0.431124 0
M  V30 17449 H 1608.74 1.08795 -1.74221 0
M  V30 17450 H 1606.97 3.61558 -1.37159 0
M  V30 17451 H 1608.66 3.64321 -1.78955 0
M  V30 17452 H 1609.42 2.6466 -4.06423 0
M  V30 17453 H 1605.3 3.40874 -3.10364 0
M  V30 17454 H 1608.84 2.62128 -6.46479 0
M  V30 17455 H 1604.74 3.38612 -5.49556 0
M  V30 17456 H 1605.51 3.14371 -7.5572 0
M  V30 17457 N 1608.17 1.14759 1.0802 0
M  V30 17458 C 1609.14 0.840859 2.13219 0
M  V30 17459 C 1610.14 -0.156309 1.60038 0
M  V30 17460 O 1611.33 0.0725143 1.74049 0
M  V30 17461 C 1608.46 0.254208 3.39951 0
M  V30 17462 H 1609.65 1.77323 2.4186 0
M  V30 17463 H 1607.2 0.954146 1.23797 0
M  V30 17464 H 1607.94 -0.686692 3.16946 0
M  V30 17465 H 1607.72 0.972499 3.79848 0
M  V30 17466 H 1609.21 0.0569551 4.17561 0
M  V30 17467 N 1609.65 -1.26251 0.943322 0
M  V30 17468 C 1610.58 -2.28673 0.472347 0
M  V30 17469 C 1611.56 -1.63319 -0.475481 0
M  V30 17470 O 1612.75 -1.90508 -0.376875 0
M  V30 17471 C 1609.88 -3.46316 -0.261286 0
M  V30 17472 C 1608.83 -4.23771 0.600192 0
M  V30 17473 C 1608.16 -5.3405 -0.263525 0
M  V30 17474 C 1609.46 -4.87576 1.87262 0
M  V30 17475 H 1611.15 -2.68319 1.32836 0
M  V30 17476 H 1608.7 -1.28987 0.640182 0
M  V30 17477 H 1610.65 -4.1708 -0.601821 0
M  V30 17478 H 1609.37 -3.05629 -1.15146 0
M  V30 17479 H 1608.03 -3.54774 0.923651 0
M  V30 17480 H 1607.68 -4.89604 -1.15312 0
M  V30 17481 H 1607.38 -5.86784 0.309495 0
M  V30 17482 H 1608.9 -6.07652 -0.599281 0
M  V30 17483 H 1610.32 -5.50544 1.59919 0
M  V30 17484 H 1608.72 -5.50437 2.39038 0
M  V30 17485 H 1609.79 -4.10397 2.58268 0
M  V30 17486 N 1611.13 -0.710588 -1.40671 0
M  V30 17487 C 1612.38 -0.247459 -2.00579 0
M  V30 17488 C 1612.7 1.16179 -1.56612 0
M  V30 17489 O 1611.97 1.7867 -0.803358 0
M  V30 17490 H 1610.55 -0.0884992 -0.741739 0
M  V30 17491 H 1613.21 -0.915103 -1.72081 0
M  V30 17492 H 1612.31 -0.276631 -3.10872 0
M  V30 17493 N 1612.61 1.50847 -0.456408 0
M  V30 17494 C 1613.86 2.01425 0.105223 0
M  V30 17495 C 1614.17 1.34413 1.421 0
M  V30 17496 O 1615.38 1.76066 2.06671 0
M  V30 17497 C 1613.83 3.59112 0.238051 0
M  V30 17498 C 1613.44 4.35073 -1.06842 0
M  V30 17499 C 1615.18 4.17778 0.752428 0
M  V30 17500 C 1613.09 5.84509 -0.900194 0
M  V30 17501 H 1612.02 0.752767 0.0430992 0
M  V30 17502 H 1614.67 1.73788 -0.589075 0
M  V30 17503 H 1613.05 3.83275 0.995795 0
M  V30 17504 H 1614.23 4.22645 -1.83598 0
M  V30 17505 H 1612.54 3.87948 -1.51278 0
M  V30 17506 H 1615.14 5.27155 0.895088 0
M  V30 17507 H 1615.48 3.78195 1.73994 0
M  V30 17508 H 1616.02 3.97765 0.052476 0
M  V30 17509 H 1612.75 6.28538 -1.86064 0
M  V30 17510 H 1612.27 5.99551 -0.172767 0
M  V30 17511 H 1613.95 6.44564 -0.560943 0
M  V30 17512 N 1614.09 0.188454 1.56469 0
M  V30 17513 C 1615.33 -0.452238 1.96565 0
M  V30 17514 C 1615.65 -1.63219 1.07792 0
M  V30 17515 O 1616.85 -2.34024 1.37641 0
M  V30 17516 C 1615.31 -0.855966 3.49573 0
M  V30 17517 C 1614.92 0.299329 4.46999 0
M  V30 17518 C 1616.66 -1.46411 3.98452 0
M  V30 17519 C 1614.57 -0.124987 5.91268 0
M  V30 17520 H 1613.5 -0.172729 0.733949 0
M  V30 17521 H 1616.15 0.279415 1.8136 0
M  V30 17522 H 1614.53 -1.64409 3.60258 0
M  V30 17523 H 1615.71 1.07681 4.48042 0
M  V30 17524 H 1614.02 0.818542 4.08275 0
M  V30 17525 H 1616.62 -1.79392 5.03709 0
M  V30 17526 H 1616.96 -2.36822 3.42376 0
M  V30 17527 H 1617.49 -0.740088 3.90855 0
M  V30 17528 H 1614.23 0.744769 6.51255 0
M  V30 17529 H 1613.75 -0.86747 5.93494 0
M  V30 17530 H 1615.43 -0.563054 6.44545 0
M  V30 17531 N 1615.56 -1.5737 -0.0851874 0
M  V30 17532 C 1616.5 -1.99462 -1.12905 0
M  V30 17533 C 1617.51 -0.898597 -1.35754 0
M  V30 17534 O 1618.7 -1.17662 -1.34231 0
M  V30 17535 C 1615.8 -2.30689 -2.48266 0
M  V30 17536 C 1614.97 -3.61967 -2.45557 0
M  V30 17537 C 1614.03 -3.81017 -3.62922 0
M  V30 17538 O 1613.06 -4.52759 -3.44961 0
M  V30 17539 N 1614.26 -3.22348 -4.82775 0
M  V30 17540 H 1617.02 -2.89621 -0.7707 0
M  V30 17541 H 1614.58 -1.59564 -0.274033 0
M  V30 17542 H 1616.58 -2.40618 -3.254 0
M  V30 17543 H 1615.15 -1.46488 -2.76152 0
M  V30 17544 H 1614.37 -3.62916 -1.539 0
M  V30 17545 H 1615.65 -4.48191 -2.40836 0
M  V30 17546 H 1615.05 -2.64093 -5.00271 0
M  V30 17547 H 1613.61 -3.37747 -5.57468 0
M  V30 17548 N 1617.04 0.356258 -1.53521 0
M  V30 17549 C 1618 1.41975 -1.79933 0
M  V30 17550 C 1619 1.46177 -0.669997 0
M  V30 17551 O 1620.19 1.46774 -0.938239 0
M  V30 17552 C 1617.33 2.81015 -1.92985 0
M  V30 17553 H 1618.52 1.19824 -2.74922 0
M  V30 17554 H 1616.07 0.589928 -1.4474 0
M  V30 17555 H 1616.81 3.08466 -1.00095 0
M  V30 17556 H 1616.59 2.79363 -2.75135 0
M  V30 17557 H 1618.08 3.58013 -2.1498 0
M  V30 17558 N 1618.52 1.45038 0.616577 0
M  V30 17559 C 1619.45 1.49023 1.7414 0
M  V30 17560 C 1620.46 0.381965 1.58256 0
M  V30 17561 O 1621.65 0.648527 1.66302 0
M  V30 17562 C 1618.75 1.32233 3.12038 0
M  V30 17563 C 1617.93 2.5657 3.54246 0
M  V30 17564 C 1616.99 2.34468 4.71075 0
M  V30 17565 O 1616.01 3.08035 4.78647 0
M  V30 17566 N 1617.21 1.38454 5.63747 0
M  V30 17567 H 1619.98 2.45997 1.71189 0
M  V30 17568 H 1617.54 1.40663 0.80159 0
M  V30 17569 H 1619.53 1.15271 3.87936 0
M  V30 17570 H 1618.1 0.435685 3.09549 0
M  V30 17571 H 1617.32 2.88709 2.68404 0
M  V30 17572 H 1618.61 3.39239 3.79203 0
M  V30 17573 H 1618.01 0.777236 5.60335 0
M  V30 17574 H 1616.56 1.27467 6.39215 0
M  V30 17575 N 1620 -0.858287 1.32179 0
M  V30 17576 C 1621.41 -1.4281 1.20259 0
M  V30 17577 C 1621.76 -1.95313 -0.186332 0
M  V30 17578 O 1620.88 -1.87244 -1.08484 0
M  V30 17579 C 1621.48 -2.59589 2.17713 0
M  V30 17580 C 1620.04 -3.1258 2.09691 0
M  V30 17581 C 1619.19 -1.85317 2.06283 0
M  V30 17582 H 1622.14 -0.665769 1.4406 0
M  V30 17583 H 1622.16 -3.36639 1.77354 0
M  V30 17584 H 1621.67 -2.21346 3.18791 0
M  V30 17585 H 1619.77 -3.55416 1.11849 0
M  V30 17586 H 1619.88 -3.74071 2.99346 0
M  V30 17587 H 1618.25 -2.04766 1.51469 0
M  V30 17588 H 1619.03 -1.49296 3.09137 0
M  V30 17589 N 1621.48 -1.1533 -1.07409 0
M  V30 17590 C 1622.75 -0.838341 -1.76724 0
M  V30 17591 C 1623.13 0.666169 -2.00313 0
M  V30 17592 O 1622.48 1.61033 -1.62113 0
M  V30 17593 C 1622.69 -1.64846 -3.07615 0
M  V30 17594 C 1624.04 -1.85429 -3.8197 0
M  V30 17595 O 1625.06 -1.61617 -3.17424 0
M  V30 17596 O 1623.92 -2.25305 -4.97896 0
M  V30 17597 H 1621.02 -0.308242 -0.767408 0
M  V30 17598 H 1623.56 -1.25905 -1.1378 0
M  V30 17599 H 1622.33 -2.66995 -2.86058 0
M  V30 17600 H 1621.96 -1.22405 -3.78289 0
M  V30 17601 N 1622.95 1.25748 -0.950004 0
M  V30 17602 C 1624.37 1.45599 -0.653697 0
M  V30 17603 C 1624.57 1.85357 0.790245 0
M  V30 17604 O 1623.63 1.98071 1.56601 0
M  V30 17605 C 1624.94 2.5316 -1.62267 0
M  V30 17606 C 1626.49 2.67004 -1.63334 0
M  V30 17607 C 1626.96 3.77745 -2.58984 0
M  V30 17608 N 1628.45 3.8515 -2.57321 0
M  V30 17609 C 1629.19 4.70315 -3.28011 0
M  V30 17610 N 1628.68 5.59802 -4.08159 0
M  V30 17611 N 1630.48 4.64239 -3.16921 0
M  V30 17612 H 1622.63 0.982321 -1.88319 0
M  V30 17613 H 1624.89 0.492917 -0.809776 0
M  V30 17614 H 1624.6 2.30792 -2.65382 0
M  V30 17615 H 1624.47 3.50988 -1.38158 0
M  V30 17616 H 1626.86 2.88739 -0.609388 0
M  V30 17617 H 1626.94 1.69591 -1.915 0
M  V30 17618 H 1626.58 3.56761 -3.61502 0
M  V30 17619 H 1626.51 4.74633 -2.28103 0
M  V30 17620 H 1629 3.21178 -1.99131 0
M  V30 17621 H 1629.32 6.21701 -4.59029 0
M  V30 17622 H 1627.66 5.59525 -4.12258 0
M  V30 17623 H 1630.85 3.93335 -2.53782 0
M  V30 17624 H 1631.03 5.30389 -3.72279 0
M  V30 17625 N 1624.43 0.718038 1.40292 0
M  V30 17626 C 1625.66 0.266918 2.05675 0
M  V30 17627 C 1626.08 -1.08364 1.53749 0
M  V30 17628 O 1625.44 -1.6831 0.673912 0
M  V30 17629 C 1625.49 0.259606 3.59664 0
M  V30 17630 O 1624.59 -0.758372 4.05367 0
M  V30 17631 H 1623.93 0.124786 0.652169 0
M  V30 17632 H 1626.46 0.979207 1.79646 0
M  V30 17633 H 1626.47 0.098135 4.07882 0
M  V30 17634 H 1625.15 1.24517 3.96823 0
M  V30 17635 H 1623.72 -0.564425 3.68604 0
M  V30 17636 N 1625.91 -1.50602 0.464402 0
M  V30 17637 C 1626.82 -2.32142 -0.338721 0
M  V30 17638 C 1627.84 -1.4223 -1.00233 0
M  V30 17639 O 1629.01 -1.75288 -0.99177 0
M  V30 17640 C 1626.08 -3.16725 -1.41019 0
M  V30 17641 C 1625.14 -4.22449 -0.76388 0
M  V30 17642 C 1624.37 -5.0299 -1.78429 0
M  V30 17643 O 1624.59 -4.84516 -3.00999 0
M  V30 17644 O 1623.53 -5.86338 -1.35982 0
M  V30 17645 H 1627.35 -3.01927 0.327695 0
M  V30 17646 H 1624.94 -1.47675 0.226379 0
M  V30 17647 H 1626.82 -3.69228 -2.03097 0
M  V30 17648 H 1625.5 -2.49675 -2.06019 0
M  V30 17649 H 1624.4 -3.73955 -0.104318 0
M  V30 17650 H 1625.74 -4.9195 -0.156929 0
M  V30 17651 N 1627.39 -0.19675 -1.56367 0
M  V30 17652 C 1628.61 0.450245 -2.02454 0
M  V30 17653 C 1629.04 1.54287 -1.07597 0
M  V30 17654 O 1628.4 1.81202 -0.0597529 0
M  V30 17655 C 1628.44 0.982087 -3.46969 0
M  V30 17656 O 1627.55 2.09489 -3.5523 0
M  V30 17657 H 1626.89 0.105022 -0.655642 0
M  V30 17658 H 1629.42 -0.308112 -2.02267 0
M  V30 17659 H 1629.43 1.29826 -3.86793 0
M  V30 17660 H 1628.1 0.18224 -4.15501 0
M  V30 17661 H 1626.68 1.78723 -3.27281 0
M  V30 17662 N 1628.87 1.57413 0.0768405 0
M  V30 17663 C 1629.78 2.06688 1.10983 0
M  V30 17664 C 1630.79 0.995392 1.42716 0
M  V30 17665 O 1631.97 1.30977 1.52994 0
M  V30 17666 C 1629.03 2.49676 2.40546 0
M  V30 17667 C 1628.09 3.71101 2.1583 0
M  V30 17668 C 1627.33 4.1203 3.39216 0
M  V30 17669 O 1627.55 3.52877 4.48145 0
M  V30 17670 O 1626.48 5.04856 3.27726 0
M  V30 17671 H 1630.31 2.95012 0.721242 0
M  V30 17672 H 1627.9 1.46546 0.290624 0
M  V30 17673 H 1629.78 2.77871 3.16805 0
M  V30 17674 H 1628.45 1.64484 2.78795 0
M  V30 17675 H 1627.36 3.47996 1.37293 0
M  V30 17676 H 1628.69 4.5713 1.82465 0
M  V30 17677 N 1630.34 -0.348112 1.53707 0
M  V30 17678 C 1631.27 -1.43296 1.8436 0
M  V30 17679 C 1632.26 -1.55102 0.698376 0
M  V30 17680 O 1633.44 -1.69385 0.949864 0
M  V30 17681 C 1630.57 -2.80407 2.04912 0
M  V30 17682 C 1629.52 -2.83412 3.20721 0
M  V30 17683 C 1628.85 -4.23365 3.26597 0
M  V30 17684 C 1630.15 -2.49358 4.58931 0
M  V30 17685 H 1631.84 -1.17892 2.75212 0
M  V30 17686 H 1629.39 -0.565692 1.32423 0
M  V30 17687 H 1631.34 -3.56343 2.24939 0
M  V30 17688 H 1630.07 -3.07236 1.10786 0
M  V30 17689 H 1628.73 -2.09929 3.00542 0
M  V30 17690 H 1628.37 -4.47297 2.30076 0
M  V30 17691 H 1628.07 -4.26287 4.04417 0
M  V30 17692 H 1629.6 -5.01149 3.4883 0
M  V30 17693 H 1631.01 -3.15006 4.79003 0
M  V30 17694 H 1629.41 -2.6357 5.3912 0
M  V30 17695 H 1630.48 -1.44557 4.62851 0
M  V30 17696 N 1631.82 -1.45363 -0.608876 0
M  V30 17697 C 1633.07 -1.49534 -1.36995 0
M  V30 17698 C 1633.4 -0.136087 -1.93723 0
M  V30 17699 O 1632.68 0.849276 -1.74979 0
M  V30 17700 C 1632.96 -2.57348 -2.51881 0
M  V30 17701 C 1632.81 -4.02712 -2.00358 0
M  V30 17702 C 1634.13 -2.61459 -3.54016 0
M  V30 17703 H 1631.25 -0.544419 -0.496767 0
M  V30 17704 H 1633.89 -1.77165 -0.686473 0
M  V30 17705 H 1632.04 -2.33917 -3.10185 0
M  V30 17706 H 1633.71 -4.37348 -1.46713 0
M  V30 17707 H 1631.96 -4.1343 -1.31369 0
M  V30 17708 H 1632.63 -4.73834 -2.8317 0
M  V30 17709 H 1635.1 -2.8245 -3.0555 0
M  V30 17710 H 1633.98 -3.38761 -4.31894 0
M  V30 17711 H 1634.24 -1.66499 -4.09549 0
M  V30 17712 N 1633.3 0.851265 -1.32632 0
M  V30 17713 C 1634.53 1.64328 -1.26535 0
M  V30 17714 C 1634.95 1.87392 0.163086 0
M  V30 17715 O 1634.31 1.42913 1.1156 0
M  V30 17716 C 1634.36 2.97781 -2.03369 0
M  V30 17717 O 1633.46 3.8849 -1.38381 0
M  V30 17718 H 1632.8 0.500864 -0.435926 0
M  V30 17719 H 1635.33 1.06 -1.75001 0
M  V30 17720 H 1635.34 3.47576 -2.1367 0
M  V30 17721 H 1634.02 2.80316 -3.07239 0
M  V30 17722 H 1632.59 3.4696 -1.36649 0
M  V30 17723 N 1634.78 1.15898 1.06796 0
M  V30 17724 C 1635.71 0.818654 2.14081 0
M  V30 17725 C 1636.72 -0.171847 1.6189 0
M  V30 17726 O 1637.91 0.052196 1.78424 0
M  V30 17727 C 1635.01 0.197283 3.38325 0
M  V30 17728 C 1634.19 1.22662 4.19849 0
M  V30 17729 C 1633.24 0.625985 5.22463 0
M  V30 17730 O 1632.27 1.29347 5.54309 0
M  V30 17731 N 1633.47 -0.589665 5.77497 0
M  V30 17732 H 1636.24 1.74196 2.43877 0
M  V30 17733 H 1633.8 1.05562 1.22753 0
M  V30 17734 H 1635.79 -0.217439 4.04115 0
M  V30 17735 H 1634.36 -0.629476 3.06197 0
M  V30 17736 H 1633.58 1.8177 3.49791 0
M  V30 17737 H 1634.87 1.92143 4.71125 0
M  V30 17738 H 1634.27 -1.15022 5.53883 0
M  V30 17739 H 1632.82 -0.946667 6.44889 0
M  V30 17740 N 1636.26 -1.25243 0.956659 0
M  V30 17741 C 1637.51 -1.92312 0.608196 0
M  V30 17742 C 1637.82 -1.75726 -0.859058 0
M  V30 17743 O 1639.02 -2.37386 -1.31757 0
M  V30 17744 C 1637.48 -3.44634 1.03708 0
M  V30 17745 C 1637.09 -3.69927 2.52702 0
M  V30 17746 C 1638.83 -4.17619 0.761242 0
M  V30 17747 C 1636.74 -5.15765 2.8938 0
M  V30 17748 H 1635.67 -0.720033 0.22376 0
M  V30 17749 H 1638.32 -1.42071 1.16138 0
M  V30 17750 H 1636.7 -3.93848 0.412287 0
M  V30 17751 H 1637.88 -3.31357 3.20217 0
M  V30 17752 H 1636.19 -3.10207 2.77778 0
M  V30 17753 H 1638.79 -5.25047 1.01141 0
M  V30 17754 H 1639.13 -4.152 -0.302375 0
M  V30 17755 H 1639.66 -3.74319 1.34648 0
M  V30 17756 H 1636.4 -5.23296 3.94767 0
M  V30 17757 H 1635.92 -5.55374 2.26539 0
M  V30 17758 H 1637.6 -5.83905 2.78683 0
M  V30 17759 N 1637.73 -0.725468 -1.3991 0
M  V30 17760 C 1638.98 -0.266188 -1.99936 0
M  V30 17761 C 1639.3 1.15022 -1.58207 0
M  V30 17762 O 1640.5 1.70853 -2.11001 0
M  V30 17763 C 1638.96 -0.424978 -3.57382 0
M  V30 17764 C 1638.57 -1.84866 -4.08079 0
M  V30 17765 C 1640.31 -0.0269907 -4.24491 0
M  V30 17766 C 1638.22 -1.95751 -5.58064 0
M  V30 17767 H 1637.15 -0.0957688 -0.747893 0
M  V30 17768 H 1639.8 -0.89798 -1.60027 0
M  V30 17769 H 1638.18 0.275558 -3.9504 0
M  V30 17770 H 1639.35 -2.58037 -3.81776 0
M  V30 17771 H 1637.67 -2.199 -3.536 0
M  V30 17772 H 1640.27 -0.0874638 -5.34628 0
M  V30 17773 H 1640.61 1.01639 -4.03702 0
M  V30 17774 H 1641.14 -0.678332 -3.91974 0
M  V30 17775 H 1637.88 -2.98244 -5.83721 0
M  V30 17776 H 1637.4 -1.27004 -5.862 0
M  V30 17777 H 1639.08 -1.73422 -6.23325 0
M  V30 17778 N 1639.21 1.50354 -0.472382 0
M  V30 17779 C 1640.12 2.32318 0.326405 0
M  V30 17780 C 1641.14 1.4276 0.994771 0
M  V30 17781 O 1642.31 1.75811 0.98246 0
M  V30 17782 C 1639.38 3.17468 1.39337 0
M  V30 17783 C 1638.44 4.22848 0.741465 0
M  V30 17784 C 1637.67 5.03929 1.75759 0
M  V30 17785 O 1637.9 4.86105 2.98425 0
M  V30 17786 O 1636.83 5.87051 1.32871 0
M  V30 17787 H 1640.66 3.01749 -0.343702 0
M  V30 17788 H 1638.24 1.47553 -0.234207 0
M  V30 17789 H 1640.12 3.703 2.01136 0
M  V30 17790 H 1638.8 2.50764 2.04692 0
M  V30 17791 H 1637.71 3.74005 0.0844848 0
M  V30 17792 H 1639.04 4.92026 0.130838 0
M  V30 17793 N 1640.69 0.205039 1.56261 0
M  V30 17794 C 1641.62 -0.743854 2.16794 0
M  V30 17795 C 1642.64 -1.16959 1.13245 0
M  V30 17796 O 1643.83 -1.1036 1.40296 0
M  V30 17797 C 1640.93 -2.01717 2.7233 0
M  V30 17798 C 1640.1 -1.74965 4.00882 0
M  V30 17799 C 1639.16 -2.86841 4.41145 0
M  V30 17800 O 1638.18 -2.5602 5.08372 0
M  V30 17801 N 1639.39 -4.15425 4.05466 0
M  V30 17802 H 1642.15 -0.226145 2.98846 0
M  V30 17803 H 1639.71 0.0234276 1.61883 0
M  V30 17804 H 1641.7 -2.7572 2.96244 0
M  V30 17805 H 1640.27 -2.44582 1.94675 0
M  V30 17806 H 1639.49 -0.846903 3.84995 0
M  V30 17807 H 1640.78 -1.54501 4.84775 0
M  V30 17808 H 1640.18 -4.43314 3.5141 0
M  V30 17809 H 1638.74 -4.86023 4.3431 0
M  V30 17810 N 1642.17 -1.57451 -0.0684915 0
M  V30 17811 C 1643.1 -2.06954 -1.0813 0
M  V30 17812 C 1644.08 -0.963716 -1.40166 0
M  V30 17813 O 1645.27 -1.23664 -1.49736 0
M  V30 17814 C 1642.4 -2.51622 -2.39381 0
M  V30 17815 C 1641.35 -3.66111 -2.2169 0
M  V30 17816 C 1640.68 -3.96846 -3.58354 0
M  V30 17817 C 1641.98 -4.96036 -1.63541 0
M  V30 17818 H 1643.67 -2.91822 -0.66936 0
M  V30 17819 H 1641.22 -1.40387 -0.320533 0
M  V30 17820 H 1643.17 -2.84867 -3.1053 0
M  V30 17821 H 1641.89 -1.63788 -2.82562 0
M  V30 17822 H 1640.55 -3.33155 -1.52982 0
M  V30 17823 H 1640.2 -3.06137 -3.9911 0
M  V30 17824 H 1639.9 -4.73939 -3.47354 0
M  V30 17825 H 1641.42 -4.3259 -4.30927 0
M  V30 17826 H 1642.84 -5.27491 -2.24559 0
M  V30 17827 H 1641.23 -5.77474 -1.63228 0
M  V30 17828 H 1642.3 -4.81208 -0.597199 0
M  V30 17829 N 1643.65 0.339955 -1.5389 0
M  V30 17830 C 1644.9 1.07723 -1.70524 0
M  V30 17831 C 1645.21 1.89693 -0.477058 0
M  V30 17832 O 1646.42 2.66387 -0.524424 0
M  V30 17833 C 1644.87 1.96455 -3.01551 0
M  V30 17834 C 1644.48 1.19675 -4.3172 0
M  V30 17835 C 1646.22 2.70019 -3.27552 0
M  V30 17836 C 1644.13 2.07458 -5.53819 0
M  V30 17837 H 1643.06 0.405877 -0.635437 0
M  V30 17838 H 1645.71 0.336489 -1.80388 0
M  V30 17839 H 1644.09 2.74364 -2.85553 0
M  V30 17840 H 1645.27 0.466526 -4.58432 0
M  V30 17841 H 1643.58 0.578651 -4.1236 0
M  V30 17842 H 1646.18 3.35973 -4.15964 0
M  V30 17843 H 1646.52 3.36779 -2.44716 0
M  V30 17844 H 1647.06 1.99182 -3.44342 0
M  V30 17845 H 1643.79 1.45234 -6.39208 0
M  V30 17846 H 1643.31 2.7826 -5.31349 0
M  V30 17847 H 1644.99 2.66428 -5.89598 0
M  V30 17848 N 1645.13 1.45684 0.601159 0
M  V30 17849 C 1646.07 1.54846 1.71147 0
M  V30 17850 C 1647.04 0.393914 1.61361 0
M  V30 17851 O 1648.23 0.608222 1.80846 0
M  V30 17852 C 1645.37 1.52723 3.09467 0
M  V30 17853 C 1644.48 2.78776 3.30012 0
M  V30 17854 C 1643.62 2.68281 4.58474 0
M  V30 17855 C 1642.65 3.89358 4.72299 0
M  V30 17856 N 1641.79 3.77359 5.92068 0
M  V30 17857 H 1646.63 2.49696 1.62653 0
M  V30 17858 H 1644.17 1.23894 0.793006 0
M  V30 17859 H 1646.13 1.49479 3.89502 0
M  V30 17860 H 1644.76 0.614189 3.16903 0
M  V30 17861 H 1643.81 2.9208 2.43708 0
M  V30 17862 H 1645.12 3.68563 3.36099 0
M  V30 17863 H 1644.27 2.63039 5.46713 0
M  V30 17864 H 1643.01 1.76103 4.54795 0
M  V30 17865 H 1642.02 3.94952 3.82482 0
M  V30 17866 H 1643.24 4.82609 4.77771 0
M  V30 17867 H 1641.19 2.87955 5.89422 0
M  V30 17868 H 1641.11 4.60786 5.99343 0
M  V30 17869 H 1642.37 3.76061 6.82787 0
M  V30 17870 N 1646.6 -0.84422 1.33082 0
M  V30 17871 C 1647.55 -1.95363 1.2289 0
M  V30 17872 C 1648.52 -1.65744 0.108705 0
M  V30 17873 O 1649.71 -1.88643 0.286057 0
M  V30 17874 C 1646.85 -3.31228 0.968594 0
M  V30 17875 C 1645.96 -3.73279 2.17455 0
M  V30 17876 C 1645.09 -4.97987 1.84885 0
M  V30 17877 C 1644.13 -5.32558 3.01743 0
M  V30 17878 N 1643.27 -6.48442 2.69197 0
M  V30 17879 H 1648.11 -2.03412 2.17778 0
M  V30 17880 H 1645.65 -0.995461 1.083 0
M  V30 17881 H 1647.6 -4.09494 0.798129 0
M  V30 17882 H 1646.23 -3.22751 0.0564631 0
M  V30 17883 H 1645.29 -2.9058 2.45494 0
M  V30 17884 H 1646.6 -3.94814 3.04834 0
M  V30 17885 H 1645.75 -5.83987 1.64451 0
M  V30 17886 H 1644.49 -4.7841 0.947356 0
M  V30 17887 H 1643.5 -4.45064 3.22797 0
M  V30 17888 H 1644.72 -5.54085 3.9264 0
M  V30 17889 H 1642.67 -6.30363 1.816 0
M  V30 17890 H 1642.58 -6.70046 3.50106 0
M  V30 17891 H 1643.85 -7.37568 2.52217 0
M  V30 17892 N 1648.08 -1.16463 -1.0618 0
M  V30 17893 C 1648.99 -0.886601 -2.17202 0
M  V30 17894 C 1650.01 0.141568 -1.73423 0
M  V30 17895 O 1651.18 -0.0353417 -2.01369 0
M  V30 17896 C 1648.25 -0.392829 -3.44467 0
M  V30 17897 C 1647.31 -1.48636 -4.02748 0
M  V30 17898 C 1646.54 -1.01606 -5.23939 0
M  V30 17899 O 1646.77 0.133753 -5.70243 0
M  V30 17900 O 1645.7 -1.80487 -5.74202 0
M  V30 17901 H 1649.53 -1.81502 -2.43497 0
M  V30 17902 H 1647.11 -0.944691 -1.15741 0
M  V30 17903 H 1648.99 -0.124501 -4.21216 0
M  V30 17904 H 1647.67 0.507566 -3.19696 0
M  V30 17905 H 1646.57 -1.80845 -3.27484 0
M  V30 17906 H 1647.91 -2.3621 -4.31817 0
M  V30 17907 N 1649.56 1.24734 -0.963288 0
M  V30 17908 C 1650.51 2.25555 -0.48926 0
M  V30 17909 C 1651.48 1.59521 0.462848 0
M  V30 17910 O 1652.66 1.87095 0.374188 0
M  V30 17911 C 1649.8 3.44407 0.218629 0
M  V30 17912 C 1648.91 4.25051 -0.77173 0
M  V30 17913 C 1648.05 5.31185 -0.0403986 0
M  V30 17914 C 1647.09 6.03523 -1.02112 0
M  V30 17915 N 1646.23 7.0137 -0.320083 0
M  V30 17916 H 1651.07 2.6547 -1.35386 0
M  V30 17917 H 1648.6 1.30504 -0.678762 0
M  V30 17918 H 1650.56 4.12173 0.645701 0
M  V30 17919 H 1649.19 3.05341 1.04722 0
M  V30 17920 H 1648.24 3.56865 -1.31726 0
M  V30 17921 H 1649.55 4.75084 -1.51976 0
M  V30 17922 H 1648.71 6.05067 0.444886 0
M  V30 17923 H 1647.45 4.82048 0.740356 0
M  V30 17924 H 1646.45 5.28448 -1.51732 0
M  V30 17925 H 1647.68 6.54749 -1.80224 0
M  V30 17926 H 1645.62 6.54511 0.441775 0
M  V30 17927 H 1645.54 7.49263 -1.00705 0
M  V30 17928 H 1646.81 7.79368 0.143379 0
M  V30 17929 N 1651.04 0.732878 1.39523 0
M  V30 17930 C 1652.28 0.280305 2.00854 0
M  V30 17931 C 1652.62 -1.12891 1.58017 0
M  V30 17932 O 1651.89 -1.76919 0.808086 0
M  V30 17933 C 1652.17 0.37978 3.58092 0
M  V30 17934 C 1652.03 1.82861 4.10953 0
M  V30 17935 C 1653.35 -0.239026 4.3945 0
M  V30 17936 H 1650.47 0.103326 0.729721 0
M  V30 17937 H 1653.11 0.928634 1.6576 0
M  V30 17938 H 1651.26 -0.172198 3.88118 0
M  V30 17939 H 1652.93 2.4373 3.91655 0
M  V30 17940 H 1651.17 2.35064 3.64592 0
M  V30 17941 H 1651.84 1.84949 5.20094 0
M  V30 17942 H 1654.32 0.231488 4.15456 0
M  V30 17943 H 1653.2 -0.139068 5.48724 0
M  V30 17944 H 1653.46 -1.32481 4.21783 0
M  V30 17945 N 1652.52 -1.50101 0.480349 0
M  V30 17946 C 1653.75 -2.06486 -0.0687482 0
M  V30 17947 C 1654.15 -1.34334 -1.33233 0
M  V30 17948 O 1653.5 -0.408976 -1.7909 0
M  V30 17949 C 1653.56 -3.57114 -0.413522 0
M  V30 17950 C 1653.22 -4.50814 0.749361 0
M  V30 17951 C 1654.22 -4.93554 1.63404 0
M  V30 17952 C 1651.9 -4.93382 0.942313 0
M  V30 17953 C 1653.9 -5.77577 2.696 0
M  V30 17954 C 1651.59 -5.77186 2.00748 0
M  V30 17955 C 1652.58 -6.19185 2.88268 0
M  V30 17956 O 1652.27 -7.01317 3.92949 0
M  V30 17957 H 1652 -0.675954 0.00792111 0
M  V30 17958 H 1654.56 -1.94135 0.670863 0
M  V30 17959 H 1652.79 -3.67399 -1.20645 0
M  V30 17960 H 1654.48 -3.95824 -0.89879 0
M  V30 17961 H 1655.24 -4.61329 1.4967 0
M  V30 17962 H 1651.12 -4.60206 0.270534 0
M  V30 17963 H 1654.67 -6.10279 3.37942 0
M  V30 17964 H 1650.56 -6.08824 2.14486 0
M  V30 17965 H 1651.33 -7.19585 3.9005 0
M  V30 17966 N 1653.99 -0.213323 -1.5615 0
M  V30 17967 C 1654.92 0.695003 -2.22917 0
M  V30 17968 C 1655.9 1.20738 -1.19818 0
M  V30 17969 O 1657.09 1.25289 -1.48379 0
M  V30 17970 C 1654.22 1.90685 -2.9027 0
M  V30 17971 C 1653.17 1.52865 -3.9977 0
M  V30 17972 C 1652.5 2.81859 -4.54378 0
M  V30 17973 C 1653.8 0.724829 -5.17246 0
M  V30 17974 H 1655.49 0.138351 -2.9908 0
M  V30 17975 H 1653.04 0.0651029 -1.43853 0
M  V30 17976 H 1654.99 2.54766 -3.35667 0
M  V30 17977 H 1653.72 2.48833 -2.11541 0
M  V30 17978 H 1652.38 0.911336 -3.55092 0
M  V30 17979 H 1652.02 3.38135 -3.72389 0
M  V30 17980 H 1651.72 2.57291 -5.28275 0
M  V30 17981 H 1653.25 3.46897 -5.02489 0
M  V30 17982 H 1654.66 1.26915 -5.59076 0
M  V30 17983 H 1653.06 0.57656 -5.97324 0
M  V30 17984 H 1654.13 -0.270309 -4.84146 0
M  V30 17985 N 1655.47 1.57485 0.0601405 0
M  V30 17986 C 1656.44 2.03493 1.05467 0
M  V30 17987 C 1657.44 0.933816 1.30907 0
M  V30 17988 O 1658.63 1.19837 1.26431 0
M  V30 17989 C 1655.76 2.42549 2.39547 0
M  V30 17990 H 1656.95 2.92595 0.657893 0
M  V30 17991 H 1654.5 1.53272 0.306183 0
M  V30 17992 H 1655.24 1.56509 2.84034 0
M  V30 17993 H 1655.02 3.22911 2.22421 0
M  V30 17994 H 1656.51 2.7868 3.1101 0
M  V30 17995 N 1656.95 -0.331789 1.54068 0
M  V30 17996 C 1658.2 -1.06854 1.73072 0
M  V30 17997 C 1658.55 -1.85949 0.494034 0
M  V30 17998 O 1657.84 -1.84591 -0.513489 0
M  V30 17999 C 1658.04 -2.03015 2.94142 0
M  V30 18000 C 1657.87 -1.33374 4.29467 0
M  V30 18001 C 1656.64 -1.07367 4.93762 0
M  V30 18002 C 1658.84 -0.753877 5.08745 0
M  V30 18003 N 1656.82 -0.344298 6.12934 0
M  V30 18004 C 1658.19 -0.155685 6.19805 0
M  V30 18005 C 1660.24 -0.655879 4.93561 0
M  V30 18006 C 1658.95 0.530985 7.17337 0
M  V30 18007 C 1660.97 0.0170729 5.91398 0
M  V30 18008 C 1660.33 0.604244 7.01804 0
M  V30 18009 H 1656.43 -0.374988 0.686227 0
M  V30 18010 H 1659.02 -0.350703 1.91515 0
M  V30 18011 H 1657.19 -2.72078 2.77178 0
M  V30 18012 H 1658.92 -2.69615 3.01811 0
M  V30 18013 H 1655.68 -1.36386 4.53537 0
M  V30 18014 H 1656.1 0.00600404 6.77 0
M  V30 18015 H 1660.74 -1.09557 4.08359 0
M  V30 18016 H 1658.46 0.982531 8.02105 0
M  V30 18017 H 1662.05 0.0924259 5.81727 0
M  V30 18018 H 1660.93 1.11671 7.76208 0
M  V30 18019 N 1658.43 -1.46001 -0.593424 0
M  V30 18020 C 1659.67 -1.50978 -1.35401 0
M  V30 18021 C 1660.01 -0.156626 -1.93567 0
M  V30 18022 O 1659.28 0.83067 -1.7587 0
M  V30 18023 C 1659.57 -2.60005 -2.49137 0
M  V30 18024 C 1659.42 -4.04814 -1.96075 0
M  V30 18025 C 1660.74 -2.65199 -3.51223 0
M  V30 18026 H 1657.86 -0.549657 -0.490965 0
M  V30 18027 H 1660.5 -1.77883 -0.667644 0
M  V30 18028 H 1658.65 -2.37194 -3.07687 0
M  V30 18029 H 1660.32 -4.38879 -1.42066 0
M  V30 18030 H 1658.56 -4.148 -1.26976 0
M  V30 18031 H 1659.23 -4.76811 -2.78128 0
M  V30 18032 H 1661.71 -2.85675 -3.02537 0
M  V30 18033 H 1660.59 -3.43323 -4.28276 0
M  V30 18034 H 1660.85 -1.70833 -4.0776 0
M  V30 18035 N 1659.91 0.83715 -1.33527 0
M  V30 18036 C 1661.32 1.40878 -1.22516 0
M  V30 18037 C 1661.67 1.95585 0.155236 0
M  V30 18038 O 1660.79 1.88946 1.05491 0
M  V30 18039 C 1661.39 2.56093 -2.21815 0
M  V30 18040 C 1659.95 3.09205 -2.14638 0
M  V30 18041 C 1659.09 1.82012 -2.09205 0
M  V30 18042 H 1662.05 0.642766 -1.45101 0
M  V30 18043 H 1662.07 3.33775 -1.82687 0
M  V30 18044 H 1661.58 2.16246 -3.22272 0
M  V30 18045 H 1659.68 3.53592 -1.17489 0
M  V30 18046 H 1659.79 3.69261 -3.05259 0
M  V30 18047 H 1658.16 2.02331 -1.54707 0
M  V30 18048 H 1658.94 1.44359 -3.11473 0
M  V30 18049 N 1661.38 1.17024 1.05561 0
M  V30 18050 C 1662.35 0.885897 2.11387 0
M  V30 18051 C 1663.35 -0.122327 1.60334 0
M  V30 18052 O 1664.54 0.109416 1.73856 0
M  V30 18053 C 1661.67 0.32626 3.39335 0
M  V30 18054 H 1662.86 1.82414 2.38045 0
M  V30 18055 H 1660.42 0.980191 1.21745 0
M  V30 18056 H 1661.15 -0.619308 3.18332 0
M  V30 18057 H 1660.94 1.05285 3.777 0
M  V30 18058 H 1662.43 0.145513 4.17346 0
M  V30 18059 N 1662.86 -1.24221 0.969889 0
M  V30 18060 C 1663.81 -2.23043 0.472854 0
M  V30 18061 C 1664.8 -1.54585 -0.446344 0
M  V30 18062 O 1665.99 -1.74821 -0.27691 0
M  V30 18063 C 1663.12 -3.42504 -0.233578 0
M  V30 18064 C 1662.2 -4.18206 0.704577 0
M  V30 18065 N 1662.59 -4.71037 1.84276 0
M  V30 18066 C 1660.89 -4.43007 0.515795 0
M  V30 18067 C 1661.59 -5.28525 2.42974 0
M  V30 18068 N 1660.57 -5.15849 1.71467 0
M  V30 18069 H 1664.37 -2.6151 1.34126 0
M  V30 18070 H 1661.89 -1.39632 0.829251 0
M  V30 18071 H 1663.88 -4.12459 -0.606891 0
M  V30 18072 H 1662.54 -3.05557 -1.0984 0
M  V30 18073 H 1663.55 -4.67705 2.22424 0
M  V30 18074 H 1660.23 -4.16385 -0.304885 0
M  V30 18075 H 1661.62 -5.8009 3.39035 0
M  V30 18076 N 1664.34 -0.740267 -1.39132 0
M  V30 18077 C 1665.29 -0.103744 -2.30567 0
M  V30 18078 C 1666.26 0.724026 -1.49489 0
M  V30 18079 O 1667.44 0.682904 -1.7816 0
M  V30 18080 C 1664.58 0.793587 -3.35851 0
M  V30 18081 C 1663.7 -0.0473671 -4.31974 0
M  V30 18082 C 1662.83 0.851726 -5.24327 0
M  V30 18083 C 1661.87 0.00633633 -6.121 0
M  V30 18084 N 1661.01 0.861652 -6.96793 0
M  V30 18085 H 1665.85 -0.889087 -2.84428 0
M  V30 18086 H 1663.38 -0.450093 -1.40045 0
M  V30 18087 H 1665.34 1.32834 -3.95488 0
M  V30 18088 H 1663.97 1.54485 -2.83433 0
M  V30 18089 H 1663.02 -0.699601 -3.73911 0
M  V30 18090 H 1664.34 -0.700806 -4.93852 0
M  V30 18091 H 1663.49 1.45413 -5.89016 0
M  V30 18092 H 1662.23 1.53893 -4.62783 0
M  V30 18093 H 1661.23 -0.608833 -5.46419 0
M  V30 18094 H 1662.46 -0.677731 -6.7571 0
M  V30 18095 H 1660.4 1.53405 -6.37811 0
M  V30 18096 H 1660.32 0.264812 -7.55536 0
M  V30 18097 H 1661.59 1.44945 -7.65905 0
M  V30 18098 N 1665.82 1.49844 -0.488302 0
M  V30 18099 C 1667.07 2.02009 0.0605782 0
M  V30 18100 C 1667.39 1.37114 1.38653 0
M  V30 18101 O 1666.66 0.522182 1.88812 0
M  V30 18102 H 1665.24 0.746569 0.0253773 0
M  V30 18103 H 1667.9 1.84 -0.64265 0
M  V30 18104 H 1667 3.11461 0.199542 0
M  V30 18105 N 1667.3 0.221601 1.56034 0
M  V30 18106 C 1668.55 -0.410442 1.9748 0
M  V30 18107 C 1668.86 -1.60895 1.1123 0
M  V30 18108 O 1670.06 -2.31052 1.42574 0
M  V30 18109 C 1668.52 -0.781624 3.5131 0
M  V30 18110 C 1668.13 0.394077 4.46263 0
M  V30 18111 C 1669.87 -1.37927 4.01468 0
M  V30 18112 C 1667.78 0.000458181 5.914 0
M  V30 18113 H 1666.71 -0.157122 0.737447 0
M  V30 18114 H 1669.36 0.317821 1.80727 0
M  V30 18115 H 1667.74 -1.56731 3.63664 0
M  V30 18116 H 1668.92 1.17161 4.45657 0
M  V30 18117 H 1667.23 0.904959 4.06447 0
M  V30 18118 H 1669.83 -1.68667 5.07401 0
M  V30 18119 H 1670.17 -2.29507 3.47322 0
M  V30 18120 H 1670.7 -0.657015 3.92337 0
M  V30 18121 H 1667.44 0.882743 6.49529 0
M  V30 18122 H 1666.96 -0.741386 5.952 0
M  V30 18123 H 1668.64 -0.42621 6.45595 0
M  V30 18124 N 1668.77 -1.57515 -0.0517878 0
M  V30 18125 C 1670.02 -1.87843 -0.745624 0
M  V30 18126 C 1670.34 -0.816318 -1.77091 0
M  V30 18127 O 1669.61 0.152784 -1.95303 0
M  V30 18128 H 1668.19 -0.693194 -0.278372 0
M  V30 18129 H 1670.86 -1.94886 -0.0231267 0
M  V30 18130 H 1669.95 -2.86001 -1.2494 0
M  V30 18131 N 1670.25 0.323614 -1.54242 0
M  V30 18132 C 1671.5 1.05947 -1.72104 0
M  V30 18133 C 1671.82 1.88547 -0.497512 0
M  V30 18134 O 1671.09 1.89712 0.488485 0
M  V30 18135 H 1669.67 0.394141 -0.634557 0
M  V30 18136 H 1672.33 0.360063 -1.91545 0
M  V30 18137 H 1671.43 1.72552 -2.60062 0
M  V30 18138 N 1671.73 1.46313 0.585673 0
M  V30 18139 C 1672.68 1.57018 1.71604 0
M  V30 18140 C 1673.67 0.438838 1.63617 0
M  V30 18141 O 1674.88 0.615597 1.69146 0
M  V30 18142 H 1671.25 0.493616 0.567316 0
M  V30 18143 H 1673.23 2.52065 1.59706 0
M  V30 18144 C 1671.97 1.57482 3.09992 0
M  V30 18145 H 1671.3 2.43872 3.16806 0
M  V30 18146 H 1672.74 1.69027 3.88852 0
M  V30 18147 C 1671.2 0.302944 3.35535 0
M  V30 18148 O 1671.73 -0.608066 3.97071 0
M  V30 18149 N 1669.93 0.191781 2.89966 0
M  V30 18150 H 1669.48 0.934025 2.4007 0
M  V30 18151 H 1669.44 -0.658341 3.0743 0
M  V30 18152 N 1673.21 -0.830057 1.33969 0
M  V30 18153 C 1674.12 -1.97244 1.27012 0
M  V30 18154 C 1675.14 -1.73076 0.179075 0
M  V30 18155 O 1676.31 -1.97301 0.404262 0
M  V30 18156 C 1673.38 -3.31409 1.01827 0
M  V30 18157 C 1672.44 -3.68633 2.20018 0
M  V30 18158 C 1671.67 -4.96397 1.96025 0
M  V30 18159 O 1671.89 -5.63014 0.91494 0
M  V30 18160 O 1670.83 -5.31331 2.82791 0
M  V30 18161 H 1674.65 -2.06056 2.23103 0
M  V30 18162 H 1672.24 -0.964399 1.14104 0
M  V30 18163 H 1674.12 -4.11779 0.895337 0
M  V30 18164 H 1672.8 -3.23581 0.0877091 0
M  V30 18165 H 1671.7 -2.88738 2.37869 0
M  V30 18166 H 1673.04 -3.81138 3.11439 0
M  V30 18167 N 1674.69 -1.17582 -1.04939 0
M  V30 18168 C 1675.62 -0.852608 -2.12752 0
M  V30 18169 C 1676.63 0.14607 -1.62143 0
M  V30 18170 O 1677.82 -0.0805751 -1.78318 0
M  V30 18171 C 1674.92 -0.251083 -3.37969 0
M  V30 18172 C 1674.09 -1.29325 -4.17844 0
M  V30 18173 C 1673.15 -0.709025 -5.21401 0
M  V30 18174 O 1672.18 -1.38149 -5.52181 0
M  V30 18175 N 1673.38 0.497716 -5.78362 0
M  V30 18176 H 1676.15 -1.78054 -2.41074 0
M  V30 18177 H 1673.71 -1.07502 -1.21058 0
M  V30 18178 H 1675.7 0.15312 -4.0441 0
M  V30 18179 H 1674.27 0.580684 -3.07159 0
M  V30 18180 H 1673.49 -1.87311 -3.46855 0
M  V30 18181 H 1674.78 -1.99614 -4.68008 0
M  V30 18182 H 1674.18 1.06196 -5.55643 0
M  V30 18183 H 1672.73 0.843951 -6.46313 0
M  V30 18184 N 1676.17 1.23705 -0.976463 0
M  V30 18185 C 1677.41 1.92299 -0.64412 0
M  V30 18186 C 1677.74 1.7605 0.819767 0
M  V30 18187 O 1677.02 1.11902 1.59086 0
M  V30 18188 C 1677.3 3.45042 -1.03044 0
M  V30 18189 C 1677.16 3.70418 -2.55167 0
M  V30 18190 C 1678.47 4.36374 -0.571444 0
M  V30 18191 H 1675.59 0.698369 -0.235478 0
M  V30 18192 H 1678.24 1.45904 -1.21704 0
M  V30 18193 H 1676.39 3.84687 -0.54294 0
M  V30 18194 H 1678.06 3.40278 -3.11462 0
M  V30 18195 H 1676.3 3.15266 -2.97976 0
M  V30 18196 H 1676.97 4.77323 -2.77248 0
M  V30 18197 H 1679.45 4.04153 -0.989936 0
M  V30 18198 H 1678.32 5.41958 -0.870226 0
M  V30 18199 H 1678.58 4.38932 0.528318 0
M  V30 18200 N 1677.64 0.747635 1.38738 0
M  V30 18201 C 1678.92 0.226908 1.94279 0
M  V30 18202 C 1679.3 -1.27373 1.68343 0
M  V30 18203 O 1678.65 -2.04538 1.01865 0
M  V30 18204 C 1678.86 0.574164 3.44245 0
M  V30 18205 C 1680.21 0.530498 4.21273 0
M  V30 18206 O 1681.23 0.512102 3.525 0
M  V30 18207 O 1680.09 0.536171 5.43863 0
M  V30 18208 H 1677.18 0.0456834 0.825737 0
M  V30 18209 H 1679.73 0.827353 1.48165 0
M  V30 18210 H 1678.5 1.6108 3.56607 0
M  V30 18211 H 1678.12 -0.0545964 3.97563 0
M  V30 18212 N 1679.12 -1.49583 0.496242 0
M  V30 18213 C 1680.07 -2.29037 -0.284716 0
M  V30 18214 C 1681.04 -1.35217 -0.964661 0
M  V30 18215 O 1682.22 -1.64171 -0.972244 0
M  V30 18216 C 1679.36 -3.17767 -1.34603 0
M  V30 18217 C 1678.48 -4.26641 -0.67834 0
M  V30 18218 C 1677.61 -5.02594 -1.71969 0
M  V30 18219 C 1676.65 -6.0331 -1.03361 0
M  V30 18220 N 1675.79 -6.72446 -2.01894 0
M  V30 18221 H 1680.63 -2.95316 0.399084 0
M  V30 18222 H 1678.16 -1.45613 0.208653 0
M  V30 18223 H 1680.12 -3.67583 -1.97329 0
M  V30 18224 H 1678.75 -2.53483 -1.99866 0
M  V30 18225 H 1677.8 -3.80349 0.0620953 0
M  V30 18226 H 1679.12 -4.98609 -0.138028 0
M  V30 18227 H 1678.27 -5.56254 -2.42212 0
M  V30 18228 H 1677.01 -4.30388 -2.29385 0
M  V30 18229 H 1676.01 -5.48886 -0.316925 0
M  V30 18230 H 1677.24 -6.77499 -0.466009 0
M  V30 18231 H 1675.19 -6.03015 -2.58281 0
M  V30 18232 H 1675.1 -7.40373 -1.52916 0
M  V30 18233 H 1676.37 -7.30712 -2.7144 0
M  V30 18234 N 1680.6 -0.229873 -1.55915 0
M  V30 18235 C 1681.53 0.671321 -2.23642 0
M  V30 18236 C 1682.51 1.19461 -1.21091 0
M  V30 18237 O 1683.7 1.23708 -1.49699 0
M  V30 18238 C 1680.83 1.87595 -2.92276 0
M  V30 18239 C 1679.78 1.48616 -4.01369 0
M  V30 18240 C 1679.11 2.77024 -4.57342 0
M  V30 18241 C 1680.41 0.669928 -5.17986 0
M  V30 18242 H 1682.1 0.106622 -2.9921 0
M  V30 18243 H 1679.65 0.0498418 -1.43914 0
M  V30 18244 H 1681.6 2.51191 -3.3835 0
M  V30 18245 H 1680.32 2.46576 -2.14168 0
M  V30 18246 H 1678.98 0.873623 -3.56038 0
M  V30 18247 H 1678.63 3.34166 -3.75955 0
M  V30 18248 H 1678.33 2.51674 -5.30975 0
M  V30 18249 H 1679.85 3.41548 -5.0614 0
M  V30 18250 H 1681.27 1.20978 -5.6039 0
M  V30 18251 H 1679.66 0.513174 -5.97902 0
M  V30 18252 H 1680.73 -0.321644 -4.83832 0
M  V30 18253 N 1682.08 1.5754 0.0434337 0
M  V30 18254 C 1683.32 1.88887 0.7382 0
M  V30 18255 C 1683.66 0.825827 1.75766 0
M  V30 18256 O 1682.93 -0.160797 1.93834 0
M  V30 18257 C 1683.21 3.30889 1.42072 0
M  V30 18258 C 1683.07 4.47874 0.415754 0
M  V30 18259 C 1684.39 3.71571 2.35846 0
M  V30 18260 H 1681.51 0.686975 0.266897 0
M  V30 18261 H 1684.15 1.9 0.00106957 0
M  V30 18262 H 1682.3 3.30071 2.04903 0
M  V30 18263 H 1683.97 4.60824 -0.209529 0
M  V30 18264 H 1682.21 4.32982 -0.266346 0
M  V30 18265 H 1682.88 5.44084 0.931509 0
M  V30 18266 H 1685.36 3.73663 1.83071 0
M  V30 18267 H 1684.24 4.71763 2.80589 0
M  V30 18268 H 1684.5 3.03041 3.21898 0
M  V30 18269 N 1683.56 -0.31543 1.54411 0
M  V30 18270 C 1684.78 -1.0761 1.77299 0
M  V30 18271 C 1685.21 -1.80655 0.523963 0
M  V30 18272 O 1684.56 -1.73536 -0.524874 0
M  V30 18273 C 1684.61 -2.04355 2.97105 0
M  V30 18274 O 1683.72 -3.12401 2.69219 0
M  V30 18275 H 1683.06 -0.30986 0.587267 0
M  V30 18276 H 1685.59 -0.357246 2.01457 0
M  V30 18277 H 1685.6 -2.47081 3.24677 0
M  V30 18278 H 1684.27 -1.50592 3.87679 0
M  V30 18279 H 1682.85 -2.74294 2.52621 0
M  V30 18280 N 1685.03 -1.46622 -0.577906 0
M  V30 18281 C 1686 -1.57126 -1.66865 0
M  V30 18282 C 1687 -0.448004 -1.54433 0
M  V30 18283 O 1688.19 -0.712459 -1.58964 0
M  V30 18284 C 1685.32 -1.49612 -3.06315 0
M  V30 18285 H 1686.51 -2.54338 -1.58909 0
M  V30 18286 H 1684.07 -1.34504 -0.796142 0
M  V30 18287 H 1684.8 -0.536976 -3.19823 0
M  V30 18288 H 1684.59 -2.31113 -3.16748 0
M  V30 18289 H 1686.08 -1.60058 -3.85709 0
M  V30 18290 N 1686.51 0.822941 -1.34408 0
M  V30 18291 C 1687.76 1.57604 -1.26513 0
M  V30 18292 C 1688.08 1.94303 0.164769 0
M  V30 18293 O 1687.35 1.62278 1.09738 0
M  V30 18294 H 1685.93 0.584399 -0.465282 0
M  V30 18295 H 1688.59 0.982582 -1.68319 0
M  V30 18296 H 1687.69 2.49886 -1.86986 0
M  V30 18297 N 1687.99 1.18137 1.04314 0
M  V30 18298 C 1689.24 0.969582 1.76867 0
M  V30 18299 C 1689.55 -0.501982 1.89049 0
M  V30 18300 O 1690.76 -0.832218 2.58431 0
M  V30 18301 C 1689.21 1.68571 3.17981 0
M  V30 18302 C 1688.82 3.19641 3.13901 0
M  V30 18303 C 1690.57 1.55664 3.94929 0
M  V30 18304 C 1688.47 3.83904 4.49858 0
M  V30 18305 H 1687.4 0.359141 0.662973 0
M  V30 18306 H 1690.05 1.41484 1.16852 0
M  V30 18307 H 1688.44 1.16821 3.78377 0
M  V30 18308 H 1689.61 3.78395 2.62971 0
M  V30 18309 H 1687.93 3.32661 2.50451 0
M  V30 18310 H 1690.52 2.01039 4.95467 0
M  V30 18311 H 1690.87 0.508522 4.13182 0
M  V30 18312 H 1691.4 2.0468 3.41103 0
M  V30 18313 H 1688.14 4.88751 4.36809 0
M  V30 18314 H 1687.66 3.29937 5.00901 0
M  V30 18315 H 1689.34 3.86623 5.18779 0
M  V30 18316 N 1689.47 -1.23186 0.98301 0
M  V30 18317 C 1690.88 -1.43814 0.69207 0
M  V30 18318 C 1691.08 -1.87387 -0.740823 0
M  V30 18319 O 1690.14 -2.02154 -1.51295 0
M  V30 18320 C 1691.45 -2.48769 1.68922 0
M  V30 18321 C 1693 -2.62579 1.70356 0
M  V30 18322 C 1693.48 -3.70746 2.68908 0
M  V30 18323 N 1694.97 -3.78192 2.67442 0
M  V30 18324 C 1695.7 -4.61453 3.40366 0
M  V30 18325 N 1695.2 -5.48784 4.22857 0
M  V30 18326 N 1696.99 -4.55673 3.29118 0
M  V30 18327 H 1689.14 -0.932046 1.90858 0
M  V30 18328 H 1691.41 -0.471274 0.82256 0
M  V30 18329 H 1691.11 -2.23675 2.71408 0
M  V30 18330 H 1690.99 -3.47201 1.47415 0
M  V30 18331 H 1693.37 -2.87022 0.685728 0
M  V30 18332 H 1693.45 -1.64454 1.9593 0
M  V30 18333 H 1693.1 -3.47051 3.70834 0
M  V30 18334 H 1693.03 -4.68418 2.40607 0
M  V30 18335 H 1695.52 -3.15785 2.07577 0
M  V30 18336 H 1695.83 -6.09312 4.75351 0
M  V30 18337 H 1694.18 -5.48398 4.26948 0
M  V30 18338 H 1697.37 -3.86468 2.64122 0
M  V30 18339 H 1697.54 -5.20332 3.8621 0
M  V30 18340 N 1690.95 -0.754982 -1.38339 0
M  V30 18341 C 1691.89 -0.128193 -2.30444 0
M  V30 18342 C 1692.86 0.70813 -1.50249 0
M  V30 18343 O 1694.05 0.663969 -1.78875 0
M  V30 18344 C 1691.19 0.757921 -3.36674 0
M  V30 18345 C 1690.3 -0.093181 -4.31899 0
M  V30 18346 C 1689.44 0.796067 -5.25201 0
M  V30 18347 C 1688.48 -0.0585854 -6.12072 0
M  V30 18348 N 1687.61 0.7877 -6.97667 0
M  V30 18349 H 1692.45 -0.919204 -2.83469 0
M  V30 18350 H 1689.99 -0.464921 -1.3956 0
M  V30 18351 H 1691.95 1.28632 -3.96875 0
M  V30 18352 H 1690.58 1.5147 -2.85055 0
M  V30 18353 H 1689.63 -0.73922 -3.73148 0
M  V30 18354 H 1690.94 -0.753146 -4.93081 0
M  V30 18355 H 1690.1 1.39158 -5.90525 0
M  V30 18356 H 1688.83 1.48976 -4.64389 0
M  V30 18357 H 1687.84 -0.666754 -5.45742 0
M  V30 18358 H 1689.06 -0.749361 -6.74953 0
M  V30 18359 H 1687.01 1.46632 -6.39402 0
M  V30 18360 H 1686.93 0.184662 -7.55774 0
M  V30 18361 H 1688.2 1.36814 -7.674 0
M  V30 18362 N 1692.42 1.49318 -0.504168 0
M  V30 18363 C 1693.67 2.02762 0.0392846 0
M  V30 18364 C 1694 1.38282 1.36352 0
M  V30 18365 O 1693.28 0.519587 1.87431 0
M  V30 18366 C 1693.56 3.59606 0.188507 0
M  V30 18367 C 1693.41 4.3461 -1.15908 0
M  V30 18368 C 1694.73 4.30213 0.927641 0
M  V30 18369 H 1691.85 0.736889 0.0128028 0
M  V30 18370 H 1694.49 1.78309 -0.656193 0
M  V30 18371 H 1692.64 3.80572 0.780861 0
M  V30 18372 H 1694.32 4.25132 -1.79055 0
M  V30 18373 H 1692.56 3.97043 -1.74756 0
M  V30 18374 H 1693.23 5.4272 -1.00794 0
M  V30 18375 H 1695.71 4.13922 0.425228 0
M  V30 18376 H 1694.58 5.39697 1.0009 0
M  V30 18377 H 1694.84 3.95678 1.97209 0
M  V30 18378 N 1693.9 0.238138 1.5579 0
M  V30 18379 C 1694.83 -0.659451 2.23994 0
M  V30 18380 C 1695.81 -1.18817 1.21723 0
M  V30 18381 O 1697 -1.22913 1.50353 0
M  V30 18382 C 1694.13 -1.86043 2.93267 0
M  V30 18383 C 1693.08 -1.46485 4.02152 0
M  V30 18384 C 1692.41 -2.74595 4.58805 0
M  V30 18385 C 1693.71 -0.642448 5.18334 0
M  V30 18386 H 1695.4 -0.0907522 2.99262 0
M  V30 18387 H 1692.95 -0.042209 1.43938 0
M  V30 18388 H 1694.9 -2.49393 3.39678 0
M  V30 18389 H 1693.63 -2.45436 2.15473 0
M  V30 18390 H 1692.28 -0.854729 3.56497 0
M  V30 18391 H 1691.93 -3.32168 3.77721 0
M  V30 18392 H 1691.63 -2.48854 5.32302 0
M  V30 18393 H 1693.16 -3.38859 5.07944 0
M  V30 18394 H 1694.57 -1.18005 5.61024 0
M  V30 18395 H 1692.97 -0.481458 5.98166 0
M  V30 18396 H 1694.04 0.347298 4.83655 0
M  V30 18397 N 1695.38 -1.57561 -0.0350783 0
M  V30 18398 C 1696.63 -1.88996 -0.727095 0
M  V30 18399 C 1696.96 -0.834671 -1.7568 0
M  V30 18400 O 1696.21 0.165098 -1.95002 0
M  V30 18401 C 1696.51 -3.27169 -1.43858 0
M  V30 18402 C 1696.18 -4.47589 -0.545421 0
M  V30 18403 C 1694.84 -4.80268 -0.2994 0
M  V30 18404 C 1697.19 -5.21151 0.0716124 0
M  V30 18405 C 1694.52 -5.839 0.57253 0
M  V30 18406 C 1696.87 -6.25709 0.931209 0
M  V30 18407 C 1695.53 -6.56866 1.18675 0
M  V30 18408 H 1694.8 -0.691586 -0.266063 0
M  V30 18409 H 1697.45 -1.91496 0.0129076 0
M  V30 18410 H 1695.76 -3.2063 -2.25175 0
M  V30 18411 H 1697.45 -3.48738 -1.97946 0
M  V30 18412 H 1694.04 -4.22034 -0.747323 0
M  V30 18413 H 1698.23 -4.96188 -0.105504 0
M  V30 18414 H 1693.48 -6.06418 0.778882 0
M  V30 18415 H 1697.66 -6.81855 1.41587 0
M  V30 18416 H 1695.28 -7.3699 1.86412 0
M  V30 18417 N 1696.86 0.307236 -1.54576 0
M  V30 18418 C 1697.79 1.38357 -1.88095 0
M  V30 18419 C 1698.77 1.53196 -0.739253 0
M  V30 18420 O 1699.95 1.66807 -0.99444 0
M  V30 18421 C 1697.08 2.74876 -2.12274 0
M  V30 18422 C 1696.04 2.74809 -3.28122 0
M  V30 18423 C 1695.36 4.14557 -3.37707 0
M  V30 18424 C 1696.66 2.37103 -4.65381 0
M  V30 18425 H 1698.36 1.10554 -2.78241 0
M  V30 18426 H 1695.9 0.530383 -1.33877 0
M  V30 18427 H 1697.86 3.50254 -2.34308 0
M  V30 18428 H 1696.58 3.04191 -1.18893 0
M  V30 18429 H 1695.24 2.01887 -3.06002 0
M  V30 18430 H 1694.89 4.41039 -2.41854 0
M  V30 18431 H 1694.59 4.15415 -4.15577 0
M  V30 18432 H 1696.11 4.91724 -3.61994 0
M  V30 18433 H 1697.53 3.02196 -4.87186 0
M  V30 18434 H 1695.92 2.49184 -5.45919 0
M  V30 18435 H 1696.99 1.32235 -4.66521 0
M  V30 18436 N 1698.34 1.46926 0.570122 0
M  V30 18437 C 1699.61 1.43365 1.33063 0
M  V30 18438 C 1699.99 0.123738 2.10737 0
M  V30 18439 O 1699.34 -0.894766 2.10253 0
M  V30 18440 C 1699.55 2.67122 2.24604 0
M  V30 18441 C 1700.9 3.13798 2.86035 0
M  V30 18442 O 1701.92 2.67759 2.34912 0
M  V30 18443 O 1700.78 3.93801 3.78923 0
M  V30 18444 H 1697.88 0.570726 0.598499 0
M  V30 18445 H 1700.42 1.5911 0.590095 0
M  V30 18446 H 1699.19 3.54005 1.66722 0
M  V30 18447 H 1698.82 2.53899 3.05976 0
M  V30 18448 N 1699.82 -0.815801 1.34842 0
M  V30 18449 C 1701.06 -1.5693 1.27347 0
M  V30 18450 C 1701.38 -1.94387 -0.154462 0
M  V30 18451 O 1700.65 -1.62858 -1.08876 0
M  V30 18452 H 1699.23 -0.581923 0.468374 0
M  V30 18453 H 1701.9 -0.973642 1.68838 0
M  V30 18454 H 1700.99 -2.4889 1.88308 0
M  V30 18455 N 1701.29 -1.18689 -1.03686 0
M  V30 18456 C 1702.54 -0.978948 -1.7635 0
M  V30 18457 C 1702.86 0.49195 -1.89312 0
M  V30 18458 O 1704.06 0.818501 -2.58868 0
M  V30 18459 C 1702.52 -1.70255 -3.17083 0
M  V30 18460 C 1702.13 -3.21301 -3.12201 0
M  V30 18461 C 1703.87 -1.57756 -3.94098 0
M  V30 18462 C 1701.78 -3.86284 -4.47815 0
M  V30 18463 H 1700.71 -0.362652 -0.661059 0
M  V30 18464 H 1703.36 -1.42102 -1.161 0
M  V30 18465 H 1701.74 -1.18826 -3.77752 0
M  V30 18466 H 1702.91 -3.79785 -2.6096 0
M  V30 18467 H 1701.23 -3.33984 -2.48684 0
M  V30 18468 H 1703.83 -2.03664 -4.94394 0
M  V30 18469 H 1704.17 -0.530427 -4.12907 0
M  V30 18470 H 1704.7 -2.06486 -3.40012 0
M  V30 18471 H 1701.44 -4.91061 -4.34211 0
M  V30 18472 H 1700.96 -3.32589 -4.99144 0
M  V30 18473 H 1702.64 -3.89369 -5.16721 0
M  V30 18474 N 1702.77 1.22662 -0.989529 0
M  V30 18475 C 1704.05 1.86816 -0.579566 0
M  V30 18476 C 1704.43 1.88858 0.943188 0
M  V30 18477 O 1703.78 1.37668 1.82372 0
M  V30 18478 C 1703.99 3.27863 -1.19612 0
M  V30 18479 C 1705.33 4.04384 -1.29454 0
M  V30 18480 O 1706.36 3.37116 -1.15026 0
M  V30 18481 O 1705.22 5.24789 -1.52508 0
M  V30 18482 H 1702.31 0.803332 -0.196434 0
M  V30 18483 H 1704.86 1.30467 -1.08519 0
M  V30 18484 H 1703.63 3.20993 -2.23784 0
M  V30 18485 H 1703.25 3.91813 -0.675875 0
M  V30 18486 N 1704.25 0.762308 1.37937 0
M  V30 18487 C 1705.2 0.140412 2.30372 0
M  V30 18488 C 1706.17 -0.700152 1.50622 0
M  V30 18489 O 1707.35 -0.654474 1.79224 0
M  V30 18490 C 1704.49 -0.740056 3.37071 0
M  V30 18491 C 1703.6 0.116084 4.31844 0
M  V30 18492 C 1702.74 -0.768203 5.25616 0
M  V30 18493 C 1701.78 0.0910442 6.12032 0
M  V30 18494 N 1700.92 -0.75069 6.98075 0
M  V30 18495 H 1705.76 0.934224 2.82977 0
M  V30 18496 H 1703.29 0.472316 1.39311 0
M  V30 18497 H 1705.25 -1.26525 3.97551 0
M  V30 18498 H 1703.88 -1.49956 2.85855 0
M  V30 18499 H 1702.93 0.758999 3.72751 0
M  V30 18500 H 1704.24 0.779285 4.92675 0
M  V30 18501 H 1703.4 -1.36024 5.91255 0
M  V30 18502 H 1702.14 -1.46511 4.65173 0
M  V30 18503 H 1701.14 0.695687 5.45381 0
M  V30 18504 H 1702.37 0.785145 6.74546 0
M  V30 18505 H 1700.31 -1.43239 6.40171 0
M  V30 18506 H 1700.23 -0.144579 7.55862 0
M  V30 18507 H 1701.5 -1.32742 7.68114 0
M  V30 18508 N 1705.73 -1.49049 0.51208 0
M  V30 18509 C 1706.69 -2.27838 -0.249491 0
M  V30 18510 C 1707.69 -1.34321 -0.884004 0
M  V30 18511 O 1708.88 -1.57379 -0.74682 0
M  V30 18512 C 1706.01 -3.12637 -1.35908 0
M  V30 18513 H 1707.21 -2.96625 0.442029 0
M  V30 18514 H 1704.76 -1.53996 0.267406 0
M  V30 18515 H 1705.49 -2.48441 -2.0844 0
M  V30 18516 H 1705.28 -3.81408 -0.909427 0
M  V30 18517 H 1706.77 -3.72117 -1.89523 0
M  V30 18518 N 1707.21 -0.246397 -1.55662 0
M  V30 18519 C 1708.14 0.686113 -2.1869 0
M  V30 18520 C 1709.15 1.13915 -1.16306 0
M  V30 18521 O 1710.34 1.06601 -1.43173 0
M  V30 18522 C 1707.44 1.94426 -2.77582 0
M  V30 18523 C 1706.61 1.64275 -4.0538 0
M  V30 18524 C 1705.67 2.75044 -4.48595 0
M  V30 18525 O 1704.7 2.42451 -5.14982 0
M  V30 18526 N 1705.9 4.04528 -4.16338 0
M  V30 18527 H 1708.66 0.146832 -2.9934 0
M  V30 18528 H 1706.23 -0.0663398 -1.61764 0
M  V30 18529 H 1708.22 2.67768 -3.0345 0
M  V30 18530 H 1706.79 2.39334 -2.01091 0
M  V30 18531 H 1706.01 0.744531 -3.87105 0
M  V30 18532 H 1707.3 1.41594 -4.88701 0
M  V30 18533 H 1706.69 4.33841 -3.6304 0
M  V30 18534 H 1705.25 4.74337 -4.47043 0
M  V30 18535 N 1708.68 1.57577 0.026722 0
M  V30 18536 C 1709.59 2.10114 1.04351 0
M  V30 18537 C 1710.61 1.04029 1.39477 0
M  V30 18538 O 1711.79 1.35778 1.48749 0
M  V30 18539 C 1708.85 2.57203 2.32481 0
M  V30 18540 C 1707.91 3.77779 2.03915 0
M  V30 18541 C 1707.14 4.22613 3.25936 0
M  V30 18542 O 1707.37 3.66955 4.36692 0
M  V30 18543 O 1706.3 5.15026 3.11499 0
M  V30 18544 H 1710.13 2.97157 0.627021 0
M  V30 18545 H 1707.71 1.47396 0.243855 0
M  V30 18546 H 1709.59 2.87809 3.07805 0
M  V30 18547 H 1708.27 1.7327 2.73421 0
M  V30 18548 H 1707.18 3.52188 1.26152 0
M  V30 18549 H 1708.51 4.62703 1.67829 0
M  V30 18550 N 1710.16 -0.299034 1.54737 0
M  V30 18551 C 1711.07 -1.39141 1.88884 0
M  V30 18552 C 1712.09 -1.55377 0.783203 0
M  V30 18553 O 1713.26 -1.70003 1.07985 0
M  V30 18554 C 1710.33 -2.73487 2.13087 0
M  V30 18555 C 1709.39 -2.66219 3.36788 0
M  V30 18556 C 1708.62 -3.94158 3.59827 0
M  V30 18557 O 1708.85 -4.9361 2.85841 0
M  V30 18558 O 1707.78 -3.95933 4.53344 0
M  V30 18559 H 1711.61 -1.13184 2.81821 0
M  V30 18560 H 1709.19 -0.495271 1.40952 0
M  V30 18561 H 1711.07 -3.5297 2.30195 0
M  V30 18562 H 1709.75 -2.99283 1.23335 0
M  V30 18563 H 1708.65 -1.85201 3.25041 0
M  V30 18564 H 1709.99 -2.45376 4.26675 0
M  V30 18565 N 1711.64 -1.47227 -0.562322 0
M  V30 18566 C 1712.59 -1.55739 -1.66521 0
M  V30 18567 C 1713.57 -0.416678 -1.55411 0
M  V30 18568 O 1714.77 -0.666302 -1.6398 0
M  V30 18569 C 1711.89 -1.5699 -3.05302 0
M  V30 18570 C 1710.98 -2.76427 -3.21634 0
M  V30 18571 N 1711.37 -4.01172 -3.0805 0
M  V30 18572 C 1709.67 -2.73081 -3.52623 0
M  V30 18573 C 1710.37 -4.81132 -3.26936 0
M  V30 18574 N 1709.35 -4.13362 -3.53034 0
M  V30 18575 H 1713.15 -2.49965 -1.5458 0
M  V30 18576 H 1710.66 -1.4315 -0.766937 0
M  V30 18577 H 1712.66 -1.61178 -3.84483 0
M  V30 18578 H 1711.32 -0.638563 -3.18359 0
M  V30 18579 H 1712.33 -4.3211 -2.85485 0
M  V30 18580 H 1709.01 -1.89062 -3.72239 0
M  V30 18581 H 1710.4 -5.9002 -3.21444 0
M  V30 18582 N 1713.12 0.808639 -1.35273 0
M  V30 18583 C 1714.03 1.95198 -1.30134 0
M  V30 18584 C 1715.04 1.72769 -0.206587 0
M  V30 18585 O 1716.22 1.96633 -0.4356 0
M  V30 18586 C 1713.28 3.29747 -1.07087 0
M  V30 18587 C 1712.35 3.65086 -2.25855 0
M  V30 18588 C 1711.58 4.93215 -2.03898 0
M  V30 18589 O 1711.8 5.61487 -1.00439 0
M  V30 18590 O 1710.74 5.26765 -2.91208 0
M  V30 18591 H 1714.56 2.0248 -2.26353 0
M  V30 18592 H 1712.15 0.946124 -1.15624 0
M  V30 18593 H 1714.03 4.10302 -0.960734 0
M  V30 18594 H 1712.7 3.23401 -0.139177 0
M  V30 18595 H 1711.61 2.84917 -2.42432 0
M  V30 18596 H 1712.94 3.76135 -3.17464 0
M  V30 18597 N 1714.6 1.19237 1.03055 0
M  V30 18598 C 1715.54 0.928588 2.11296 0
M  V30 18599 C 1716.51 -0.135941 1.65543 0
M  V30 18600 O 1717.7 0.00584847 1.90799 0
M  V30 18601 C 1714.84 0.471532 3.41863 0
M  V30 18602 C 1713.95 1.60264 4.01173 0
M  V30 18603 C 1713.09 1.09729 5.19743 0
M  V30 18604 C 1712.13 2.2024 5.71105 0
M  V30 18605 N 1711.26 1.71024 6.80952 0
M  V30 18606 H 1716.1 1.85536 2.33196 0
M  V30 18607 H 1713.64 0.925029 1.14375 0
M  V30 18608 H 1715.6 0.187949 4.16776 0
M  V30 18609 H 1714.23 -0.41825 3.20079 0
M  V30 18610 H 1713.28 2.00147 3.23489 0
M  V30 18611 H 1714.59 2.43531 4.35309 0
M  V30 18612 H 1713.75 0.768832 6.01809 0
M  V30 18613 H 1712.48 0.234324 4.87137 0
M  V30 18614 H 1711.49 2.53918 4.87653 0
M  V30 18615 H 1712.71 3.06989 6.05751 0
M  V30 18616 H 1710.66 0.870334 6.50201 0
M  V30 18617 H 1710.58 2.47882 7.14206 0
M  V30 18618 H 1711.85 1.41137 7.66616 0
M  V30 18619 N 1716.07 -1.22136 0.99602 0
M  V30 18620 C 1717.3 -1.94696 0.691168 0
M  V30 18621 C 1717.71 -1.73754 -0.748749 0
M  V30 18622 O 1717.06 -1.03561 -1.51726 0
M  V30 18623 C 1717.12 -3.47498 0.921152 0
M  V30 18624 C 1716.78 -3.92179 2.34616 0
M  V30 18625 C 1717.78 -3.99603 3.32585 0
M  V30 18626 C 1715.46 -4.24741 2.68142 0
M  V30 18627 C 1717.46 -4.38968 4.62153 0
M  V30 18628 C 1715.14 -4.63785 3.97928 0
M  V30 18629 C 1716.14 -4.70867 4.94745 0
M  V30 18630 O 1715.83 -5.09026 6.22212 0
M  V30 18631 H 1715.56 -0.626231 0.25458 0
M  V30 18632 H 1718.12 -1.56152 1.33438 0
M  V30 18633 H 1716.35 -3.86069 0.220769 0
M  V30 18634 H 1718.04 -4.01274 0.61107 0
M  V30 18635 H 1718.8 -3.74634 3.08017 0
M  V30 18636 H 1714.68 -4.18431 1.93485 0
M  V30 18637 H 1718.22 -4.44411 5.37721 0
M  V30 18638 H 1714.12 -4.88207 4.22285 0
M  V30 18639 H 1714.89 -5.27089 6.26195 0
M  V30 18640 N 1717.55 -0.769612 -1.37531 0
M  V30 18641 C 1718.5 -0.128018 -2.2764 0
M  V30 18642 C 1719.49 0.67633 -1.45995 0
M  V30 18643 O 1720.68 0.539654 -1.68573 0
M  V30 18644 C 1717.81 0.751936 -3.34964 0
M  V30 18645 C 1716.89 -0.0601264 -4.24057 0
M  V30 18646 N 1717.28 -1.10468 -4.93589 0
M  V30 18647 C 1715.58 0.164189 -4.45698 0
M  V30 18648 C 1716.28 -1.59737 -5.59338 0
M  V30 18649 N 1715.26 -0.909912 -5.35931 0
M  V30 18650 H 1719.06 -0.927797 -2.78871 0
M  V30 18651 H 1716.58 -0.607165 -1.50623 0
M  V30 18652 H 1718.57 1.22733 -3.98425 0
M  V30 18653 H 1717.23 1.55049 -2.85289 0
M  V30 18654 H 1718.24 -1.48679 -4.961 0
M  V30 18655 H 1714.92 0.934815 -4.069 0
M  V30 18656 H 1716.31 -2.46835 -6.24918 0
M  V30 18657 N 1719.03 1.48775 -0.519977 0
M  V30 18658 C 1720.26 2.07394 0.0161061 0
M  V30 18659 C 1720.68 1.37532 1.28322 0
M  V30 18660 O 1720.04 0.438049 1.75928 0
M  V30 18661 C 1720.09 3.59844 0.233382 0
M  V30 18662 O 1719.19 3.91235 1.30418 0
M  V30 18663 H 1718.53 0.663094 -0.0346678 0
M  V30 18664 H 1721.06 1.91323 -0.725029 0
M  V30 18665 H 1721.07 4.05409 0.45911 0
M  V30 18666 H 1719.75 4.10098 -0.69229 0
M  V30 18667 H 1718.32 3.5746 1.0619 0
M  V30 18668 N 1720.51 0.254649 1.55529 0
M  V30 18669 C 1721.46 -0.657787 2.23105 0
M  V30 18670 C 1722.45 -1.17402 1.22119 0
M  V30 18671 O 1723.66 -1.13002 1.40109 0
M  V30 18672 H 1720.03 -0.230628 0.715762 0
M  V30 18673 H 1722 -0.0647759 2.9833 0
M  V30 18674 C 1720.75 -1.84018 2.95013 0
M  V30 18675 H 1720.07 -1.45211 3.72497 0
M  V30 18676 H 1721.51 -2.45568 3.45648 0
M  V30 18677 C 1719.97 -2.7161 1.99322 0
M  V30 18678 O 1720.5 -3.7137 1.53125 0
M  V30 18679 N 1718.71 -2.38342 1.66258 0
M  V30 18680 H 1718.26 -1.57268 2.04021 0
M  V30 18681 H 1718.21 -2.97222 1.025 0
M  V30 18682 N 1721.99 -1.57589 -0.0183649 0
M  V30 18683 C 1723.23 -1.90883 -0.702521 0
M  V30 18684 C 1723.59 -0.854403 -1.72388 0
M  V30 18685 O 1722.88 0.135648 -1.91119 0
M  V30 18686 C 1723.07 -3.28677 -1.4038 0
M  V30 18687 C 1722.9 -4.47424 -0.451873 0
M  V30 18688 C 1721.67 -5.05253 -0.0689871 0
M  V30 18689 C 1723.87 -5.13568 0.274233 0
M  V30 18690 N 1721.85 -6.07515 0.883071 0
M  V30 18691 C 1723.22 -6.10493 1.08159 0
M  V30 18692 C 1725.28 -4.96738 0.340034 0
M  V30 18693 C 1723.98 -6.924 1.94872 0
M  V30 18694 C 1726.01 -5.79215 1.19432 0
M  V30 18695 C 1725.37 -6.75718 1.98958 0
M  V30 18696 H 1721.47 -0.747153 -0.230838 0
M  V30 18697 H 1724.05 -1.94664 0.037666 0
M  V30 18698 H 1722.22 -3.25804 -2.11438 0
M  V30 18699 H 1723.96 -3.49453 -2.04119 0
M  V30 18700 H 1720.71 -4.71612 -0.433462 0
M  V30 18701 H 1721.14 -6.63323 1.35393 0
M  V30 18702 H 1725.78 -4.21997 -0.260504 0
M  V30 18703 H 1723.5 -7.66478 2.56001 0
M  V30 18704 H 1727.08 -5.68237 1.24891 0
M  V30 18705 H 1725.96 -7.38429 2.63993 0
M  V30 18706 N 1723.46 0.290824 -1.54893 0
M  V30 18707 C 1724.88 0.637054 -1.46334 0
M  V30 18708 C 1725.08 1.90285 -0.66285 0
M  V30 18709 O 1724.14 2.51896 -0.174589 0
M  V30 18710 C 1725.45 0.780585 -2.90392 0
M  V30 18711 C 1727 0.875807 -3.00497 0
M  V30 18712 C 1727.47 1.05126 -4.45772 0
M  V30 18713 N 1728.96 1.11721 -4.49525 0
M  V30 18714 C 1729.7 1.27145 -5.59126 0
M  V30 18715 N 1729.19 1.39401 -6.7863 0
M  V30 18716 N 1730.99 1.30114 -5.46833 0
M  V30 18717 H 1723.14 -0.540707 -2.05402 0
M  V30 18718 H 1725.4 -0.180344 -0.930688 0
M  V30 18719 H 1725.11 -0.0787855 -3.51612 0
M  V30 18720 H 1724.98 1.66644 -3.38392 0
M  V30 18721 H 1727.37 1.72566 -2.39385 0
M  V30 18722 H 1727.45 -0.0342844 -2.55777 0
M  V30 18723 H 1727.09 0.206135 -5.07482 0
M  V30 18724 H 1727.02 1.97573 -4.88132 0
M  V30 18725 H 1729.51 1.03562 -3.63433 0
M  V30 18726 H 1729.83 1.50953 -7.57914 0
M  V30 18727 H 1728.17 1.36438 -6.81476 0
M  V30 18728 H 1731.36 1.20157 -4.52416 0
M  V30 18729 H 1731.54 1.4179 -6.32297 0
M  V30 18730 N 1724.94 1.47523 0.554506 0
M  V30 18731 C 1725.91 1.59761 1.64345 0
M  V30 18732 C 1726.91 0.472516 1.53701 0
M  V30 18733 O 1728.1 0.737659 1.57811 0
M  V30 18734 C 1725.23 1.54467 3.03896 0
M  V30 18735 H 1726.42 2.56834 1.54842 0
M  V30 18736 H 1723.97 1.35753 0.774643 0
M  V30 18737 H 1724.71 0.587789 3.18929 0
M  V30 18738 H 1724.49 2.36123 3.13031 0
M  V30 18739 H 1725.98 1.66174 3.83113 0
M  V30 18740 N 1726.42 -0.801453 1.357 0
M  V30 18741 C 1727.35 -1.9196 1.23396 0
M  V30 18742 C 1728.33 -1.62151 0.12072 0
M  V30 18743 O 1729.52 -1.8626 0.289725 0
M  V30 18744 C 1726.64 -3.26491 0.901174 0
M  V30 18745 C 1725.69 -3.75243 2.02718 0
M  V30 18746 S 1726.52 -3.92435 3.64356 0
M  V30 18747 C 1727.68 -5.2986 3.33165 0
M  V30 18748 H 1727.91 -2.02103 2.1804 0
M  V30 18749 H 1725.44 -0.959388 1.20976 0
M  V30 18750 H 1727.4 -4.04208 0.715976 0
M  V30 18751 H 1726.06 -3.14088 -0.0272881 0
M  V30 18752 H 1725.26 -4.72694 1.7486 0
M  V30 18753 H 1724.86 -3.0454 2.17098 0
M  V30 18754 H 1727.15 -6.14029 2.86312 0
M  V30 18755 H 1728.09 -5.62715 4.29835 0
M  V30 18756 H 1728.5 -4.9639 2.68807 0
M  V30 18757 N 1727.9 -1.19782 -1.02421 0
M  V30 18758 C 1728.86 -0.941631 -2.08964 0
M  V30 18759 C 1729.86 0.0797747 -1.60602 0
M  V30 18760 O 1731.05 -0.155473 -1.73505 0
M  V30 18761 C 1728.18 -0.416114 -3.38351 0
M  V30 18762 H 1729.38 -1.88661 -2.33125 0
M  V30 18763 H 1726.93 -1.01212 -1.19104 0
M  V30 18764 H 1727.66 0.53469 -3.19862 0
M  V30 18765 H 1727.45 -1.15262 -3.74776 0
M  V30 18766 H 1728.94 -0.256114 -4.16814 0
M  V30 18767 N 1729.38 1.21606 -1.00248 0
M  V30 18768 C 1730.6 1.95149 -0.702249 0
M  V30 18769 C 1731.03 1.73429 0.728293 0
M  V30 18770 O 1730.39 1.01953 1.49917 0
M  V30 18771 C 1730.43 3.45705 -1.0257 0
M  V30 18772 O 1729.54 4.12196 -0.129575 0
M  V30 18773 H 1728.88 0.610173 -0.261888 0
M  V30 18774 H 1731.41 1.54435 -1.34205 0
M  V30 18775 H 1731.42 3.96265 -0.97151 0
M  V30 18776 H 1730.09 3.60838 -2.06806 0
M  V30 18777 H 1728.67 3.72126 -0.240074 0
M  V30 18778 N 1730.86 0.776895 1.37121 0
M  V30 18779 C 1732.13 0.268067 1.93754 0
M  V30 18780 C 1732.51 -1.23774 1.71007 0
M  V30 18781 O 1731.86 -2.02331 1.0618 0
M  V30 18782 C 1732.07 0.647054 3.42949 0
M  V30 18783 C 1733.42 0.619737 4.20053 0
M  V30 18784 O 1734.44 0.586757 3.51334 0
M  V30 18785 O 1733.3 0.651412 5.42604 0
M  V30 18786 H 1730.4 0.0631883 0.824582 0
M  V30 18787 H 1732.94 0.858594 1.46377 0
M  V30 18788 H 1731.71 1.68608 3.5311 0
M  V30 18789 H 1731.34 0.0297448 3.97589 0
M  V30 18790 N 1732.33 -1.48497 0.527859 0
M  V30 18791 C 1733.58 -2.02499 -0.00701157 0
M  V30 18792 C 1733.91 -1.40516 -1.34483 0
M  V30 18793 O 1733.16 -0.539575 -1.88115 0
M  V30 18794 C 1733.46 -3.56945 -0.180276 0
M  V30 18795 C 1733.13 -4.37703 1.08291 0
M  V30 18796 C 1731.79 -4.59489 1.42911 0
M  V30 18797 C 1734.14 -4.84495 1.92131 0
M  V30 18798 C 1731.47 -5.25313 2.61272 0
M  V30 18799 C 1733.82 -5.51623 3.09669 0
M  V30 18800 C 1732.49 -5.71648 3.44637 0
M  V30 18801 H 1731.76 -0.740996 -0.00256572 0
M  V30 18802 H 1734.4 -1.78503 0.693453 0
M  V30 18803 H 1732.71 -3.79768 -0.963491 0
M  V30 18804 H 1734.41 -3.96348 -0.609009 0
M  V30 18805 H 1731 -4.21005 0.803293 0
M  V30 18806 H 1735.18 -4.67468 1.66696 0
M  V30 18807 H 1730.44 -5.39015 2.8857 0
M  V30 18808 H 1734.61 -5.86849 3.74942 0
M  V30 18809 H 1732.24 -6.22426 4.36451 0
M  V30 18810 N 1733.81 -0.262893 -1.55392 0
M  V30 18811 C 1734.76 0.645946 -2.23451 0
M  V30 18812 C 1735.75 1.16753 -1.2274 0
M  V30 18813 O 1736.96 1.12257 -1.40706 0
M  V30 18814 H 1733.33 0.226829 -0.716975 0
M  V30 18815 H 1735.31 0.0489539 -2.9836 0
M  V30 18816 C 1734.05 1.82451 -2.95985 0
M  V30 18817 H 1733.38 1.43233 -3.73262 0
M  V30 18818 H 1734.82 2.43731 -3.46945 0
M  V30 18819 C 1733.28 2.7055 -2.0076 0
M  V30 18820 O 1733.81 3.70552 -1.55093 0
M  V30 18821 N 1732.01 2.37457 -1.67519 0
M  V30 18822 H 1731.56 1.56184 -2.04852 0
M  V30 18823 H 1731.52 2.96675 -1.04074 0
M  V30 18824 N 1735.29 1.57597 0.0100073 0
M  V30 18825 C 1736.22 2.10825 1.00375 0
M  V30 18826 C 1737.2 1.01507 1.36493 0
M  V30 18827 O 1738.39 1.29136 1.45043 0
M  V30 18828 C 1735.52 2.60334 2.29878 0
M  V30 18829 C 1734.47 3.74087 2.07949 0
M  V30 18830 C 1733.8 4.09873 3.43378 0
M  V30 18831 C 1735.1 5.01764 1.45018 0
M  V30 18832 H 1736.79 2.94105 0.560591 0
M  V30 18833 H 1734.34 1.4148 0.268208 0
M  V30 18834 H 1736.29 2.96196 2.99743 0
M  V30 18835 H 1735.01 1.74162 2.76288 0
M  V30 18836 H 1733.67 3.38603 1.40512 0
M  V30 18837 H 1733.32 3.20739 3.87473 0
M  V30 18838 H 1733.02 4.86505 3.29525 0
M  V30 18839 H 1734.54 4.48285 4.14575 0
M  V30 18840 H 1735.96 5.35462 2.04826 0
M  V30 18841 H 1734.35 5.83135 1.41683 0
M  V30 18842 H 1735.42 4.83093 0.41819 0
M  V30 18843 N 1736.77 -0.282606 1.55045 0
M  V30 18844 C 1738.18 -0.854338 1.66006 0
M  V30 18845 C 1738.53 -1.87408 0.580753 0
M  V30 18846 O 1737.65 -2.14588 -0.279449 0
M  V30 18847 C 1738.25 -1.55637 3.00936 0
M  V30 18848 C 1736.81 -2.07626 3.13956 0
M  V30 18849 C 1735.96 -0.915064 2.61767 0
M  V30 18850 H 1738.91 -0.0591711 1.5859 0
M  V30 18851 H 1738.93 -2.42289 2.93388 0
M  V30 18852 H 1738.44 -0.813942 3.79469 0
M  V30 18853 H 1736.54 -2.84859 2.40179 0
M  V30 18854 H 1736.65 -2.29816 4.20382 0
M  V30 18855 H 1735.02 -1.30577 2.18682 0
M  V30 18856 H 1735.8 -0.186298 3.42794 0
M  V30 18857 N 1738.25 -1.47815 -0.546675 0
M  V30 18858 C 1739.66 -1.48715 -1.12875 0
M  V30 18859 C 1740.01 -0.247647 -1.94631 0
M  V30 18860 O 1739.13 0.646615 -2.06514 0
M  V30 18861 C 1739.73 -2.69459 -2.05371 0
M  V30 18862 C 1738.29 -2.73285 -2.58829 0
M  V30 18863 C 1737.43 -2.4198 -1.35429 0
M  V30 18864 H 1740.38 -1.55172 -0.332746 0
M  V30 18865 H 1740.41 -2.47028 -2.89408 0
M  V30 18866 H 1739.92 -3.59656 -1.4584 0
M  V30 18867 H 1738.02 -1.87254 -3.22128 0
M  V30 18868 H 1738.13 -3.74265 -2.99103 0
M  V30 18869 H 1736.5 -1.92783 -1.66454 0
M  V30 18870 H 1737.28 -3.34397 -0.776753 0
M  V30 18871 N 1739.72 0.794246 -1.36123 0
M  V30 18872 C 1740.97 1.55421 -1.30277 0
M  V30 18873 C 1741.3 1.93834 0.119134 0
M  V30 18874 O 1740.58 1.6233 1.07141 0
M  V30 18875 C 1740.86 2.83454 -2.22094 0
M  V30 18876 C 1740.71 2.51439 -3.72959 0
M  V30 18877 C 1742.03 3.85246 -2.12776 0
M  V30 18878 H 1739.15 0.563871 -0.474572 0
M  V30 18879 H 1741.79 0.912877 -1.66633 0
M  V30 18880 H 1739.94 3.38182 -1.9122 0
M  V30 18881 H 1741.62 2.02799 -4.14331 0
M  V30 18882 H 1739.86 1.84451 -3.92632 0
M  V30 18883 H 1740.53 3.42863 -4.32608 0
M  V30 18884 H 1743.01 3.39952 -2.39942 0
M  V30 18885 H 1741.88 4.72588 -2.79198 0
M  V30 18886 H 1742.14 4.27847 -1.11353 0
M  V30 18887 N 1741.2 1.20323 1.01785 0
M  V30 18888 C 1742.45 1.01413 1.75623 0
M  V30 18889 C 1742.78 -0.452801 1.88847 0
M  V30 18890 O 1742.06 -1.33618 1.41338 0
M  V30 18891 C 1742.34 1.69686 3.17614 0
M  V30 18892 C 1742.19 3.23815 3.12192 0
M  V30 18893 C 1743.51 1.42891 4.16257 0
M  V30 18894 H 1740.63 0.369822 0.637495 0
M  V30 18895 H 1743.27 1.4832 1.18749 0
M  V30 18896 H 1741.42 1.29806 3.66173 0
M  V30 18897 H 1743.09 3.72981 2.71446 0
M  V30 18898 H 1741.34 3.54785 2.4962 0
M  V30 18899 H 1742.01 3.66741 4.12559 0
M  V30 18900 H 1744.48 1.77486 3.76348 0
M  V30 18901 H 1743.36 1.93195 5.13777 0
M  V30 18902 H 1743.62 0.356263 4.40662 0
M  V30 18903 N 1742.68 -1.21073 1.00892 0
M  V30 18904 C 1743.64 -2.21804 0.577543 0
M  V30 18905 C 1744.64 -1.56985 -0.348201 0
M  V30 18906 O 1745.83 -1.73653 -0.137947 0
M  V30 18907 C 1742.96 -3.40535 -0.157685 0
M  V30 18908 H 1744.16 -2.61483 1.46856 0
M  V30 18909 H 1741.71 -1.34402 0.79786 0
M  V30 18910 H 1742.45 -3.0635 -1.06397 0
M  V30 18911 H 1742.23 -3.88805 0.507238 0
M  V30 18912 H 1743.72 -4.152 -0.447109 0
M  V30 18913 N 1744.16 -0.784156 -1.36707 0
M  V30 18914 C 1745.11 -0.177044 -2.3012 0
M  V30 18915 C 1746.08 0.6761 -1.51717 0
M  V30 18916 O 1747.26 0.625878 -1.80243 0
M  V30 18917 C 1744.4 0.686337 -3.38206 0
M  V30 18918 C 1743.51 -0.184772 -4.31605 0
M  V30 18919 C 1742.65 0.684485 -5.26772 0
M  V30 18920 C 1741.69 -0.188402 -6.1181 0
M  V30 18921 N 1740.82 0.639537 -6.99181 0
M  V30 18922 H 1745.66 -0.979125 -2.81455 0
M  V30 18923 H 1743.2 -0.494419 -1.38542 0
M  V30 18924 H 1745.16 1.20185 -3.99514 0
M  V30 18925 H 1743.79 1.4539 -2.88204 0
M  V30 18926 H 1742.84 -0.818204 -3.71496 0
M  V30 18927 H 1744.15 -0.857567 -4.91373 0
M  V30 18928 H 1743.31 1.26601 -5.93344 0
M  V30 18929 H 1742.05 1.39092 -4.67445 0
M  V30 18930 H 1741.05 -0.782364 -5.44205 0
M  V30 18931 H 1742.28 -0.89236 -6.73212 0
M  V30 18932 H 1740.22 1.33036 -6.42369 0
M  V30 18933 H 1740.14 0.0243097 -7.55996 0
M  V30 18934 H 1741.41 1.20505 -7.70129 0
M  V30 18935 N 1745.64 1.48215 -0.535727 0
M  V30 18936 C 1746.55 2.33494 0.227577 0
M  V30 18937 C 1747.56 1.4685 0.933327 0
M  V30 18938 O 1748.74 1.7982 0.907008 0
M  V30 18939 C 1745.8 3.23092 1.25747 0
M  V30 18940 C 1744.86 4.25613 0.561454 0
M  V30 18941 C 1744.1 5.1093 1.54228 0
M  V30 18942 O 1744.32 4.98325 2.77539 0
M  V30 18943 O 1743.25 5.92158 1.07852 0
M  V30 18944 H 1747.08 3.0002 -0.471375 0
M  V30 18945 H 1744.67 1.46427 -0.296579 0
M  V30 18946 H 1746.55 3.78498 1.8525 0
M  V30 18947 H 1745.22 2.5922 1.93872 0
M  V30 18948 H 1744.13 3.74026 -0.0742194 0
M  V30 18949 H 1745.46 4.92138 -0.0779649 0
M  V30 18950 N 1747.11 0.27113 1.5525 0
M  V30 18951 C 1748.36 -0.347408 1.98686 0
M  V30 18952 C 1748.68 -1.57275 1.16292 0
M  V30 18953 O 1749.88 -2.26399 1.49853 0
M  V30 18954 C 1748.34 -0.669461 3.53619 0
M  V30 18955 C 1747.95 0.535853 4.44784 0
M  V30 18956 C 1749.69 -1.25084 4.05653 0
M  V30 18957 C 1747.6 0.188607 5.91099 0
M  V30 18958 H 1746.53 -0.133581 0.742073 0
M  V30 18959 H 1749.18 0.375157 1.79624 0
M  V30 18960 H 1747.56 -1.45082 3.68466 0
M  V30 18961 H 1748.73 1.3128 4.41704 0
M  V30 18962 H 1747.05 1.03381 4.03363 0
M  V30 18963 H 1749.65 -1.52439 5.1251 0
M  V30 18964 H 1749.99 -2.18341 3.54448 0
M  V30 18965 H 1750.52 -0.531864 3.94228 0
M  V30 18966 H 1747.26 1.08894 6.46392 0
M  V30 18967 H 1746.78 -0.551653 5.97258 0
M  V30 18968 H 1748.46 -0.220603 6.46624 0
M  V30 18969 N 1748.59 -1.576 -0.00164943 0
M  V30 18970 C 1749.84 -1.90778 -0.68786 0
M  V30 18971 C 1750.17 -0.872138 -1.73515 0
M  V30 18972 O 1749.45 0.109349 -1.94192 0
M  V30 18973 C 1749.73 -3.34539 -1.3325 0
M  V30 18974 C 1749.58 -4.48819 -0.296862 0
M  V30 18975 C 1750.9 -3.77693 -2.25911 0
M  V30 18976 H 1748.02 -0.69381 -0.24859 0
M  V30 18977 H 1750.66 -1.89936 0.0493059 0
M  V30 18978 H 1748.81 -3.35388 -1.9608 0
M  V30 18979 H 1750.48 -4.60106 0.331635 0
M  V30 18980 H 1748.73 -4.32123 0.38105 0
M  V30 18981 H 1749.4 -5.46362 -0.786927 0
M  V30 18982 H 1751.87 -3.78386 -1.73099 0
M  V30 18983 H 1750.75 -4.79037 -2.67983 0
M  V30 18984 H 1751.01 -3.11469 -3.1375 0
M  V30 18985 N 1750.07 0.274379 -1.55193 0
M  V30 18986 C 1751.03 1.32237 -1.87206 0
M  V30 18987 C 1752.03 1.4242 -0.74654 0
M  V30 18988 O 1753.22 1.41595 -1.01472 0
M  V30 18989 C 1750.36 2.7039 -2.0761 0
M  V30 18990 H 1751.55 1.05083 -2.80887 0
M  V30 18991 H 1749.1 0.512375 -1.47663 0
M  V30 18992 H 1749.84 3.02727 -1.16306 0
M  V30 18993 H 1749.62 2.64385 -2.89556 0
M  V30 18994 H 1751.11 3.46114 -2.33655 0
M  V30 18995 N 1751.55 1.48103 0.538828 0
M  V30 18996 C 1752.77 1.59568 1.32487 0
M  V30 18997 C 1753.2 0.252908 1.86392 0
M  V30 18998 O 1752.56 -0.774094 1.63944 0
M  V30 18999 C 1752.6 2.63863 2.45782 0
M  V30 19000 O 1751.71 2.20409 3.48559 0
M  V30 19001 H 1751.05 0.53538 0.392765 0
M  V30 19002 H 1753.58 1.94024 0.649299 0
M  V30 19003 H 1753.59 2.8486 2.92093 0
M  V30 19004 H 1752.26 3.61352 2.05906 0
M  V30 19005 H 1750.84 2.09588 3.08427 0
M  V30 19006 N 1753.03 -0.787016 1.36542 0
M  V30 19007 C 1754.27 -1.55817 1.3229 0
M  V30 19008 C 1754.63 -1.91759 -0.0961159 0
M  V30 19009 O 1755.83 -2.67508 -0.26322 0
M  V30 19010 C 1754.1 -2.79934 2.22198 0
M  V30 19011 S 1755.66 -3.70154 2.35651 0
M  V30 19012 H 1752.48 -0.533633 0.469847 0
M  V30 19013 H 1755.08 -0.926755 1.72138 0
M  V30 19014 H 1753.79 -2.51583 3.24244 0
M  V30 19015 H 1753.32 -3.48046 1.83378 0
M  V30 19016 H 1755.33 -4.71179 1.55579 0
M  V30 19017 N 1754.5 -1.20861 -1.01145 0
M  V30 19018 C 1755.78 -0.93084 -1.72031 0
M  V30 19019 C 1756.16 0.559051 -2.03563 0
M  V30 19020 O 1755.51 1.52214 -1.70421 0
M  V30 19021 C 1755.72 -1.8092 -2.98444 0
M  V30 19022 C 1757.07 -2.05415 -3.71604 0
M  V30 19023 O 1758.09 -1.78216 -3.08411 0
M  V30 19024 O 1756.95 -2.5138 -4.85253 0
M  V30 19025 H 1754.04 -0.348488 -0.74999 0
M  V30 19026 H 1756.59 -1.3176 -1.06946 0
M  V30 19027 H 1755.36 -2.81783 -2.71503 0
M  V30 19028 H 1754.99 -1.42285 -3.71269 0
M  V30 19029 N 1755.98 1.20536 -1.01532 0
M  V30 19030 C 1756.93 2.23277 -0.584486 0
M  V30 19031 C 1757.9 1.6134 0.394773 0
M  V30 19032 O 1759.08 1.88514 0.294498 0
M  V30 19033 C 1756.22 3.45024 0.0723574 0
M  V30 19034 C 1755.34 4.21395 -0.951314 0
M  V30 19035 C 1754.47 5.30535 -0.265656 0
M  V30 19036 C 1753.51 5.98649 -1.27617 0
M  V30 19037 N 1752.65 6.99381 -0.61727 0
M  V30 19038 H 1757.49 2.59489 -1.46524 0
M  V30 19039 H 1755.03 1.27507 -0.733502 0
M  V30 19040 H 1756.98 4.14541 0.470303 0
M  V30 19041 H 1755.61 3.09508 0.916768 0
M  V30 19042 H 1754.67 3.50957 -1.46743 0
M  V30 19043 H 1755.98 4.68211 -1.71989 0
M  V30 19044 H 1755.13 6.06409 0.187857 0
M  V30 19045 H 1753.87 4.84754 0.535237 0
M  V30 19046 H 1752.88 5.21537 -1.74008 0
M  V30 19047 H 1754.1 6.46516 -2.07832 0
M  V30 19048 H 1752.05 6.55796 0.163777 0
M  V30 19049 H 1751.96 7.44317 -1.32393 0
M  V30 19050 H 1753.23 7.79275 -0.187306 0
M  V30 19051 N 1757.46 0.791395 1.36289 0
M  V30 19052 C 1758.7 0.370134 2.01021 0
M  V30 19053 C 1759.06 -1.03918 1.61447 0
M  V30 19054 O 1760.27 -1.56163 2.18784 0
M  V30 19055 C 1758.54 0.530868 3.53435 0
M  V30 19056 S 1760.1 0.197778 4.38354 0
M  V30 19057 H 1756.91 0.141315 0.696815 0
M  V30 19058 H 1759.52 1.03032 1.66147 0
M  V30 19059 H 1758.22 1.55683 3.79725 0
M  V30 19060 H 1757.75 -0.14518 3.93132 0
M  V30 19061 H 1759.77 -0.999956 4.8602 0
M  V30 19062 N 1758.94 -1.47929 0.54358 0
M  V30 19063 C 1759.87 -2.27843 -0.249005 0
M  V30 19064 C 1760.88 -1.36189 -0.891987 0
M  V30 19065 O 1762.07 -1.61127 -0.768135 0
M  V30 19066 C 1759.17 -3.10016 -1.36906 0
M  V30 19067 C 1758.35 -4.29541 -0.82545 0
M  V30 19068 C 1757.41 -4.93416 -1.82831 0
M  V30 19069 O 1756.43 -5.52222 -1.37984 0
M  V30 19070 N 1757.63 -4.86881 -3.16113 0
M  V30 19071 H 1760.4 -2.96505 0.436436 0
M  V30 19072 H 1757.96 -1.57407 0.378774 0
M  V30 19073 H 1759.95 -3.49616 -2.0384 0
M  V30 19074 H 1758.52 -2.43686 -1.95796 0
M  V30 19075 H 1757.74 -3.94195 0.0202776 0
M  V30 19076 H 1759.03 -5.06882 -0.441368 0
M  V30 19077 H 1758.43 -4.4028 -3.55205 0
M  V30 19078 H 1756.98 -5.30541 -3.78642 0
M  V30 19079 N 1760.42 -0.27936 -1.55104 0
M  V30 19080 C 1761.35 0.599831 -2.25664 0
M  V30 19081 C 1762.33 1.15548 -1.24831 0
M  V30 19082 O 1763.51 1.18883 -1.53559 0
M  V30 19083 C 1760.64 1.78202 -2.98096 0
M  V30 19084 C 1759.6 1.35771 -4.05894 0
M  V30 19085 C 1758.92 2.62334 -4.65924 0
M  V30 19086 C 1760.22 0.504795 -5.19855 0
M  V30 19087 H 1761.92 0.0113761 -2.99398 0
M  V30 19088 H 1759.46 0.00403149 -1.43999 0
M  V30 19089 H 1761.42 2.403 -3.4617 0
M  V30 19090 H 1760.14 2.39637 -2.21905 0
M  V30 19091 H 1758.8 0.75991 -3.58638 0
M  V30 19092 H 1758.45 3.22036 -3.86396 0
M  V30 19093 H 1758.15 2.34654 -5.38713 0
M  V30 19094 H 1759.67 3.25273 -5.16749 0
M  V30 19095 H 1761.09 1.03089 -5.63955 0
M  V30 19096 H 1759.48 0.322696 -5.99232 0
M  V30 19097 H 1760.55 -0.475409 -4.82564 0
M  V30 19098 N 1761.9 1.57599 -0.0067085 0
M  V30 19099 C 1762.84 2.08842 0.982532 0
M  V30 19100 C 1763.81 0.985339 1.33717 0
M  V30 19101 O 1765 1.25818 1.43438 0
M  V30 19102 C 1762.14 2.60188 2.26708 0
M  V30 19103 C 1761.25 3.84422 1.97087 0
M  V30 19104 C 1760.39 4.24244 3.19672 0
M  V30 19105 C 1759.42 5.41297 2.85769 0
M  V30 19106 N 1758.56 5.76381 4.00911 0
M  V30 19107 H 1763.4 2.93092 0.538618 0
M  V30 19108 H 1760.94 1.44885 0.254293 0
M  V30 19109 H 1762.9 2.88038 3.01811 0
M  V30 19110 H 1761.53 1.78802 2.68756 0
M  V30 19111 H 1760.58 3.63439 1.12323 0
M  V30 19112 H 1761.89 4.6962 1.68102 0
M  V30 19113 H 1761.04 4.53413 4.03115 0
M  V30 19114 H 1759.78 3.37769 3.518 0
M  V30 19115 H 1758.79 5.11846 2.00734 0
M  V30 19116 H 1760.01 6.29454 2.54881 0
M  V30 19117 H 1757.96 4.92863 4.32923 0
M  V30 19118 H 1757.88 6.56168 3.75473 0
M  V30 19119 H 1759.14 6.10144 4.85123 0
M  V30 19120 N 1763.37 -0.266145 1.55336 0
M  V30 19121 C 1764.62 -0.994862 1.75917 0
M  V30 19122 C 1764.94 -1.8657 0.567147 0
M  V30 19123 O 1764.21 -1.91394 -0.417738 0
M  V30 19124 H 1762.79 -0.370318 0.648748 0
M  V30 19125 H 1765.45 -0.288724 1.9275 0
M  V30 19126 H 1764.55 -1.62781 2.66287 0
M  V30 19127 N 1764.85 -1.48386 -0.530967 0
M  V30 19128 C 1765.76 -1.65516 -1.66257 0
M  V30 19129 C 1766.78 -0.5377 -1.65483 0
M  V30 19130 O 1767.95 -0.808642 -1.84453 0
M  V30 19131 C 1765.02 -1.68999 -3.02722 0
M  V30 19132 C 1764.08 -2.92365 -3.14358 0
M  V30 19133 C 1763.31 -2.95672 -4.44313 0
M  V30 19134 O 1763.54 -2.07417 -5.31352 0
M  V30 19135 O 1762.47 -3.87831 -4.60294 0
M  V30 19136 H 1766.3 -2.61321 -1.54742 0
M  V30 19137 H 1763.88 -1.31776 -0.703946 0
M  V30 19138 H 1765.76 -1.73816 -3.83883 0
M  V30 19139 H 1764.44 -0.763675 -3.14563 0
M  V30 19140 H 1763.34 -2.93081 -2.32496 0
M  V30 19141 H 1764.68 -3.84378 -3.07433 0
M  V30 19142 N 1766.33 0.779763 -1.36958 0
M  V30 19143 C 1767.29 1.87439 -1.31906 0
M  V30 19144 C 1768.29 1.59222 -0.224739 0
M  V30 19145 O 1769.48 1.67453 -0.480109 0
M  V30 19146 C 1766.61 3.24419 -1.04716 0
M  V30 19147 H 1767.81 1.93333 -2.29265 0
M  V30 19148 H 1765.36 0.978634 -1.21871 0
M  V30 19149 H 1766.1 3.24205 -0.0785442 0
M  V30 19150 H 1765.88 3.4629 -1.83917 0
M  V30 19151 H 1767.37 4.04491 -1.0381 0
M  V30 19152 N 1767.81 1.21396 1.00503 0
M  V30 19153 C 1768.74 0.916483 2.08988 0
M  V30 19154 C 1769.72 -0.135972 1.6203 0
M  V30 19155 O 1770.9 -0.00701537 1.88499 0
M  V30 19156 C 1768.03 0.376122 3.36605 0
M  V30 19157 C 1767.08 1.41137 4.0247 0
M  V30 19158 S 1767.91 2.98055 4.44886 0
M  V30 19159 C 1769.06 2.45626 5.7569 0
M  V30 19160 H 1769.3 1.83517 2.33899 0
M  V30 19161 H 1766.83 1.0437 1.13782 0
M  V30 19162 H 1768.79 0.0709239 4.10439 0
M  V30 19163 H 1767.45 -0.52125 3.09745 0
M  V30 19164 H 1766.64 0.982903 4.94323 0
M  V30 19165 H 1766.24 1.66465 3.34911 0
M  V30 19166 H 1768.54 1.8611 6.51436 0
M  V30 19167 H 1769.48 3.3592 6.23348 0
M  V30 19168 H 1769.89 1.87337 5.32508 0
M  V30 19169 N 1769.29 -1.19996 1.0217 0
M  V30 19170 C 1770.24 -2.20837 0.567029 0
M  V30 19171 C 1771.22 -1.56339 -0.380377 0
M  V30 19172 O 1772.41 -1.75838 -0.202513 0
M  V30 19173 C 1769.54 -3.43187 -0.0880995 0
M  V30 19174 C 1768.63 -4.14842 0.881318 0
M  V30 19175 N 1769.02 -4.62798 2.04088 0
M  V30 19176 C 1767.32 -4.40421 0.703226 0
M  V30 19177 C 1768.02 -5.17744 2.65172 0
M  V30 19178 N 1766.99 -5.08112 1.93192 0
M  V30 19179 H 1770.79 -2.55586 1.45097 0
M  V30 19180 H 1768.31 -1.3599 0.887727 0
M  V30 19181 H 1770.31 -4.14662 -0.431407 0
M  V30 19182 H 1768.97 -3.09941 -0.967819 0
M  V30 19183 H 1769.98 -4.57851 2.42061 0
M  V30 19184 H 1766.65 -4.17304 -0.128008 0
M  V30 19185 H 1768.04 -5.65189 3.63333 0
M  V30 19186 N 1770.76 -0.798611 -1.35867 0
M  V30 19187 C 1772.01 -0.374519 -1.986 0
M  V30 19188 C 1772.33 1.05984 -1.63684 0
M  V30 19189 O 1771.6 1.73199 -0.915359 0
M  V30 19190 H 1770.18 -0.135492 -0.734609 0
M  V30 19191 H 1772.84 -1.02269 -1.65913 0
M  V30 19192 H 1771.94 -0.473773 -3.08483 0
M  V30 19193 N 1772.24 1.47639 -0.551417 0
M  V30 19194 C 1773.17 2.27972 0.236919 0
M  V30 19195 C 1774.19 1.3666 0.884752 0
M  V30 19196 O 1775.38 1.61532 0.75958 0
M  V30 19197 C 1772.48 3.10738 1.3526 0
M  V30 19198 C 1771.65 4.29972 0.802659 0
M  V30 19199 C 1770.71 4.94379 1.80212 0
M  V30 19200 O 1769.73 5.52946 1.35053 0
M  V30 19201 N 1770.94 4.8855 3.13526 0
M  V30 19202 H 1773.7 2.9627 -0.452154 0
M  V30 19203 H 1771.26 1.57204 -0.387116 0
M  V30 19204 H 1773.25 3.50692 2.01983 0
M  V30 19205 H 1771.82 2.44721 1.945 0
M  V30 19206 H 1771.04 3.94178 -0.0411825 0
M  V30 19207 H 1772.33 5.07109 0.41448 0
M  V30 19208 H 1771.73 4.42157 3.52865 0
M  V30 19209 H 1770.29 5.32541 3.75823 0
M  V30 19210 N 1773.72 0.287581 1.54954 0
M  V30 19211 C 1774.97 -0.326093 2.00161 0
M  V30 19212 C 1775.3 -1.54564 1.17574 0
M  V30 19213 O 1774.57 -1.92901 0.248859 0
M  V30 19214 C 1774.86 -0.695974 3.5331 0
M  V30 19215 C 1774.71 0.531783 4.46645 0
M  V30 19216 C 1776.03 -1.52767 4.12735 0
M  V30 19217 H 1773.15 -0.117051 0.727646 0
M  V30 19218 H 1775.79 0.39701 1.85806 0
M  V30 19219 H 1773.94 -1.31205 3.65674 0
M  V30 19220 H 1775.61 1.17032 4.46208 0
M  V30 19221 H 1773.86 1.16754 4.17793 0
M  V30 19222 H 1774.53 0.229034 5.51525 0
M  V30 19223 H 1777 -1.00724 4.03725 0
M  V30 19224 H 1775.88 -1.75527 5.20078 0
M  V30 19225 H 1776.14 -2.51267 3.63755 0
M  V30 19226 N 1775.2 -1.57593 0.0150662 0
M  V30 19227 C 1776.48 -1.82473 -0.704474 0
M  V30 19228 C 1776.86 -0.896018 -1.91141 0
M  V30 19229 O 1776.2 0.0517365 -2.28441 0
M  V30 19230 C 1776.41 -3.31345 -1.09598 0
M  V30 19231 C 1777.76 -3.97465 -1.49353 0
M  V30 19232 O 1778.79 -3.35757 -1.18936 0
M  V30 19233 O 1777.64 -5.06199 -2.05972 0
M  V30 19234 H 1774.74 -0.751908 -0.344331 0
M  V30 19235 H 1777.28 -1.69649 0.041674 0
M  V30 19236 H 1776.06 -3.90586 -0.236358 0
M  V30 19237 H 1775.68 -3.49224 -1.90075 0
M  V30 19238 N 1776.68 0.257904 -1.55475 0
M  V30 19239 C 1777.92 0.99495 -1.7855 0
M  V30 19240 C 1778.28 1.82941 -0.582809 0
M  V30 19241 O 1779.48 2.59737 -0.692104 0
M  V30 19242 C 1777.75 1.84176 -3.06291 0
M  V30 19243 S 1779.31 2.6394 -3.50544 0
M  V30 19244 H 1776.13 0.334856 -0.62721 0
M  V30 19245 H 1778.73 0.263867 -1.93711 0
M  V30 19246 H 1777.44 1.21824 -3.91902 0
M  V30 19247 H 1776.97 2.61579 -2.93837 0
M  V30 19248 H 1778.98 3.86638 -3.11008 0
M  V30 19249 N 1778.15 1.48666 0.52309 0
M  V30 19250 C 1779.38 1.60965 1.30787 0
M  V30 19251 C 1779.8 0.272663 1.86113 0
M  V30 19252 O 1779.16 -0.756662 1.64755 0
M  V30 19253 C 1779.21 2.66455 2.42969 0
M  V30 19254 O 1778.31 2.24094 3.46202 0
M  V30 19255 H 1777.66 0.539516 0.387064 0
M  V30 19256 H 1780.19 1.94702 0.628683 0
M  V30 19257 H 1780.2 2.87942 2.89056 0
M  V30 19258 H 1778.87 3.63516 2.02062 0
M  V30 19259 H 1777.45 2.12848 3.06186 0
M  V30 19260 N 1779.63 -0.772489 1.37369 0
M  V30 19261 C 1781.04 -1.34873 1.29098 0
M  V30 19262 C 1781.39 -1.96103 -0.0617433 0
M  V30 19263 O 1780.52 -1.93764 -0.963562 0
M  V30 19264 C 1781.11 -2.45218 2.33781 0
M  V30 19265 C 1779.67 -2.98612 2.29146 0
M  V30 19266 C 1778.82 -1.71823 2.17651 0
M  V30 19267 H 1781.77 -0.572805 1.48002 0
M  V30 19268 H 1781.79 -3.24679 1.98404 0
M  V30 19269 H 1781.3 -2.00624 3.32222 0
M  V30 19270 H 1779.41 -3.47583 1.34225 0
M  V30 19271 H 1779.52 -3.54276 3.22529 0
M  V30 19272 H 1777.88 -1.94719 1.64185 0
M  V30 19273 H 1778.67 -1.29334 3.18006 0
M  V30 19274 N 1781.11 -1.21927 -0.998575 0
M  V30 19275 C 1782.36 -1.03834 -1.73386 0
M  V30 19276 C 1782.68 0.428247 -1.90239 0
M  V30 19277 O 1781.95 1.30847 -1.45794 0
M  V30 19278 H 1780.53 -0.381225 -0.642399 0
M  V30 19279 H 1783.19 -1.53344 -1.20298 0
M  V30 19280 H 1782.29 -1.51155 -2.73054 0
M  V30 19281 N 1782.59 1.19452 -1.02805 0
M  V30 19282 C 1783.84 1.88439 -0.719284 0
M  V30 19283 C 1784.15 1.80435 0.755143 0
M  V30 19284 O 1785.36 2.44664 1.17693 0
M  V30 19285 C 1783.81 3.38001 -1.23625 0
M  V30 19286 C 1783.42 3.54564 -2.7384 0
M  V30 19287 C 1785.16 4.1247 -1.00343 0
M  V30 19288 C 1783.07 4.98016 -3.18958 0
M  V30 19289 H 1782 0.705762 -0.265359 0
M  V30 19290 H 1784.65 1.35058 -1.24224 0
M  V30 19291 H 1783.03 3.90774 -0.641211 0
M  V30 19292 H 1784.21 3.12124 -3.38991 0
M  V30 19293 H 1782.52 2.93484 -2.95392 0
M  V30 19294 H 1785.12 5.18257 -1.31581 0
M  V30 19295 H 1785.46 4.16257 0.0597873 0
M  V30 19296 H 1786 3.65832 -1.56243 0
M  V30 19297 H 1782.74 4.9939 -4.24605 0
M  V30 19298 H 1782.26 5.41221 -2.58534 0
M  V30 19299 H 1783.93 5.66664 -3.12252 0
M  V30 19300 N 1784.07 0.805805 1.35442 0
M  V30 19301 C 1785.31 0.395506 1.99518 0
M  V30 19302 C 1785.67 -1.02576 1.62776 0
M  V30 19303 O 1784.96 -1.7017 0.880501 0
M  V30 19304 C 1785.15 0.515335 3.53665 0
M  V30 19305 C 1784.98 1.9467 4.05381 0
M  V30 19306 C 1783.75 2.5749 4.34772 0
M  V30 19307 C 1785.95 2.91114 4.23978 0
M  V30 19308 N 1783.93 3.92044 4.72413 0
M  V30 19309 C 1785.3 4.10538 4.64606 0
M  V30 19310 C 1787.36 2.87956 4.06184 0
M  V30 19311 C 1786.06 5.27233 4.89303 0
M  V30 19312 C 1788.09 4.03854 4.32037 0
M  V30 19313 C 1787.45 5.22025 4.72937 0
M  V30 19314 H 1783.55 0.19248 0.757941 0
M  V30 19315 H 1786.13 1.04688 1.6416 0
M  V30 19316 H 1784.3 -0.106042 3.88255 0
M  V30 19317 H 1786.04 0.0796974 4.04622 0
M  V30 19318 H 1782.79 2.0885 4.25063 0
M  V30 19319 H 1783.22 4.61318 4.95494 0
M  V30 19320 H 1787.86 1.97746 3.73706 0
M  V30 19321 H 1785.58 6.18016 5.20655 0
M  V30 19322 H 1789.16 4.0279 4.19823 0
M  V30 19323 H 1788.04 6.10215 4.92552 0
M  V30 19324 N 1785.54 -1.47344 0.559239 0
M  V30 19325 C 1786.48 -2.28095 -0.224826 0
M  V30 19326 C 1787.49 -1.37127 -0.877492 0
M  V30 19327 O 1788.68 -1.61933 -0.751002 0
M  V30 19328 C 1785.78 -3.1145 -1.33611 0
M  V30 19329 C 1784.95 -4.30392 -0.779845 0
M  V30 19330 C 1784.01 -4.95327 -1.77587 0
M  V30 19331 O 1783.04 -5.53654 -1.32119 0
M  V30 19332 N 1784.24 -4.90206 -3.10931 0
M  V30 19333 H 1787 -2.96026 0.46786 0
M  V30 19334 H 1784.56 -1.56996 0.395448 0
M  V30 19335 H 1786.56 -3.51758 -2.00121 0
M  V30 19336 H 1785.13 -2.45749 -1.932 0
M  V30 19337 H 1784.35 -3.94151 0.0620861 0
M  V30 19338 H 1785.63 -5.07322 -0.387581 0
M  V30 19339 H 1785.03 -4.44022 -3.50515 0
M  V30 19340 H 1783.59 -5.34527 -3.72994 0
M  V30 19341 N 1787.02 -0.295795 -1.54799 0
M  V30 19342 C 1787.95 0.575863 -2.26288 0
M  V30 19343 C 1788.93 1.14217 -1.26049 0
M  V30 19344 O 1790.12 1.17248 -1.54812 0
M  V30 19345 C 1787.25 1.7503 -2.9997 0
M  V30 19346 C 1786.2 1.31459 -4.07311 0
M  V30 19347 C 1785.53 2.57377 -4.6868 0
M  V30 19348 C 1786.83 0.449629 -5.20361 0
M  V30 19349 H 1788.52 -0.0203797 -2.99393 0
M  V30 19350 H 1786.07 -0.0112418 -1.43996 0
M  V30 19351 H 1788.02 2.36615 -3.487 0
M  V30 19352 H 1786.75 2.3727 -2.24434 0
M  V30 19353 H 1785.4 0.721829 -3.59423 0
M  V30 19354 H 1785.05 3.1792 -3.89789 0
M  V30 19355 H 1784.75 2.28927 -5.41171 0
M  V30 19356 H 1786.28 3.19774 -5.2017 0
M  V30 19357 H 1787.69 0.971014 -5.65017 0
M  V30 19358 H 1786.09 0.259121 -5.9954 0
M  V30 19359 H 1787.16 -0.526564 -4.82032 0
M  V30 19360 N 1788.5 1.57583 -0.0234236 0
M  V30 19361 C 1789.78 1.82844 0.694787 0
M  V30 19362 C 1790.16 0.906142 1.90663 0
M  V30 19363 O 1789.51 -0.039621 2.28466 0
M  V30 19364 C 1789.72 3.31921 1.07839 0
M  V30 19365 C 1791.06 3.98252 1.47243 0
M  V30 19366 O 1792.09 3.36383 1.17154 0
M  V30 19367 O 1790.95 5.07284 2.03285 0
M  V30 19368 H 1788.04 0.753723 0.340339 0
M  V30 19369 H 1790.59 1.69624 -0.0506703 0
M  V30 19370 H 1789.36 3.90705 0.215641 0
M  V30 19371 H 1788.98 3.50227 1.8822 0
M  V30 19372 N 1789.98 -0.249655 1.5561 0
M  V30 19373 C 1791.22 -0.985467 1.79075 0
M  V30 19374 C 1791.58 -1.82629 0.592503 0
M  V30 19375 O 1792.78 -2.59366 0.705869 0
M  V30 19376 C 1791.06 -1.82549 3.07263 0
M  V30 19377 S 1792.61 -2.62078 3.51939 0
M  V30 19378 H 1789.43 -0.331525 0.628977 0
M  V30 19379 H 1792.03 -0.253591 1.93848 0
M  V30 19380 H 1790.74 -1.19744 3.92542 0
M  V30 19381 H 1790.27 -2.60017 2.9522 0
M  V30 19382 H 1792.28 -3.84983 3.13054 0
M  V30 19383 N 1791.46 -1.48941 -0.515198 0
M  V30 19384 C 1792.69 -1.61396 -1.29457 0
M  V30 19385 C 1793.1 -0.279847 -1.86714 0
M  V30 19386 O 1792.46 0.732861 -1.67139 0
M  V30 19387 C 1792.51 -2.67194 -2.43494 0
M  V30 19388 O 1792.23 -3.95429 -1.88593 0
M  V30 19389 C 1793.73 -2.90224 -3.35089 0
M  V30 19390 H 1790.95 -0.543754 -0.393157 0
M  V30 19391 H 1793.49 -1.94875 -0.619996 0
M  V30 19392 H 1791.65 -2.36532 -3.06808 0
M  V30 19393 H 1792.06 -4.53593 -2.63351 0
M  V30 19394 H 1793.54 -3.68018 -4.1142 0
M  V30 19395 H 1794.01 -1.99601 -3.91224 0
M  V30 19396 H 1794.62 -3.22247 -2.77555 0
M  V30 19397 N 1792.94 0.765193 -1.37777 0
M  V30 19398 C 1793.89 1.86902 -1.30582 0
M  V30 19399 C 1794.87 1.59746 -0.192343 0
M  V30 19400 O 1796.06 1.71764 -0.427313 0
M  V30 19401 C 1793.19 3.2446 -1.12162 0
M  V30 19402 C 1792.28 3.57546 -2.28082 0
M  V30 19403 N 1792.67 3.61769 -3.53493 0
M  V30 19404 C 1790.97 3.87748 -2.2038 0
M  V30 19405 C 1791.67 3.9179 -4.29972 0
M  V30 19406 N 1790.64 4.08025 -3.59188 0
M  V30 19407 H 1794.44 1.88428 -2.25549 0
M  V30 19408 H 1791.96 0.96197 -1.30843 0
M  V30 19409 H 1793.96 4.03437 -1.05092 0
M  V30 19410 H 1792.62 3.24194 -0.181181 0
M  V30 19411 H 1793.63 3.43813 -3.87315 0
M  V30 19412 H 1790.3 3.95266 -1.3443 0
M  V30 19413 H 1791.69 4.01777 -5.3854 0
M  V30 19414 N 1794.41 1.22455 0.992094 0
M  V30 19415 C 1795.34 1.01961 2.10063 0
M  V30 19416 C 1796.32 -0.0597186 1.69995 0
M  V30 19417 O 1797.51 0.102655 1.93928 0
M  V30 19418 C 1794.64 0.597442 3.42123 0
M  V30 19419 C 1793.59 1.62279 3.96042 0
M  V30 19420 C 1792.92 1.05644 5.2416 0
M  V30 19421 C 1794.22 3.01296 4.26635 0
M  V30 19422 H 1795.91 1.94678 2.27466 0
M  V30 19423 H 1793.46 0.937422 1.09309 0
M  V30 19424 H 1795.41 0.441175 4.19084 0
M  V30 19425 H 1794.14 -0.365401 3.24549 0
M  V30 19426 H 1792.8 1.76685 3.21213 0
M  V30 19427 H 1792.44 0.0849267 5.02928 0
M  V30 19428 H 1792.14 1.74144 5.61202 0
M  V30 19429 H 1793.67 0.911774 6.03754 0
M  V30 19430 H 1795.08 2.9026 4.94391 0
M  V30 19431 H 1793.48 3.66928 4.74852 0
M  V30 19432 H 1794.55 3.51168 3.34378 0
M  V30 19433 N 1795.89 -1.18905 1.03437 0
M  V30 19434 C 1796.8 -2.25979 0.63014 0
M  V30 19435 C 1797.82 -1.70633 -0.340668 0
M  V30 19436 O 1798.99 -2.00432 -0.197174 0
M  V30 19437 C 1796.06 -3.46699 -0.00713795 0
M  V30 19438 C 1795.12 -4.17205 1.01187 0
M  V30 19439 C 1794.35 -5.32162 0.404909 0
M  V30 19440 O 1794.58 -5.64894 -0.790638 0
M  V30 19441 O 1793.51 -5.91188 1.13048 0
M  V30 19442 H 1797.34 -2.62808 1.52203 0
M  V30 19443 H 1794.92 -1.25865 0.804878 0
M  V30 19444 H 1796.8 -4.1984 -0.362204 0
M  V30 19445 H 1795.48 -3.11707 -0.872948 0
M  V30 19446 H 1794.38 -3.46159 1.41862 0
M  V30 19447 H 1795.72 -4.56181 1.84823 0
M  V30 19448 N 1797.37 -0.812977 -1.35013 0
M  V30 19449 C 1798.62 -0.395562 -1.98191 0
M  V30 19450 C 1798.94 1.04242 -1.64799 0
M  V30 19451 O 1798.21 1.72219 -0.933678 0
M  V30 19452 H 1796.79 -0.143276 -0.733131 0
M  V30 19453 H 1799.45 -1.04023 -1.64819 0
M  V30 19454 H 1798.55 -0.506466 -3.07963 0
M  V30 19455 N 1798.85 1.47045 -0.567045 0
M  V30 19456 C 1799.79 2.30135 0.175115 0
M  V30 19457 C 1800.76 1.39665 0.899049 0
M  V30 19458 O 1801.95 1.68623 0.892809 0
M  V30 19459 C 1799.09 3.23827 1.19289 0
M  V30 19460 C 1798.2 4.29392 0.474011 0
M  V30 19461 C 1797.34 5.10226 1.47793 0
M  V30 19462 C 1796.38 6.07554 0.744584 0
M  V30 19463 N 1795.51 6.81313 1.69581 0
M  V30 19464 H 1800.35 2.93075 -0.539529 0
M  V30 19465 H 1797.89 1.44451 -0.277889 0
M  V30 19466 H 1799.85 3.76579 1.79567 0
M  V30 19467 H 1798.48 2.6273 1.87544 0
M  V30 19468 H 1797.53 3.7962 -0.243494 0
M  V30 19469 H 1798.84 4.987 -0.100022 0
M  V30 19470 H 1798 5.67176 2.15397 0
M  V30 19471 H 1796.74 4.40842 2.08589 0
M  V30 19472 H 1795.74 5.49773 0.0546832 0
M  V30 19473 H 1796.97 6.78951 0.142235 0
M  V30 19474 H 1794.91 6.14651 2.29216 0
M  V30 19475 H 1794.83 7.46826 1.17418 0
M  V30 19476 H 1796.1 7.42831 2.36268 0
M  V30 19477 N 1800.33 0.304 1.5464 0
M  V30 19478 C 1801.57 -0.304845 2.00496 0
M  V30 19479 C 1801.9 -1.53308 1.19206 0
M  V30 19480 O 1801.18 -1.92627 0.269305 0
M  V30 19481 C 1801.46 -0.658462 3.54029 0
M  V30 19482 C 1801.32 0.579125 4.46056 0
M  V30 19483 C 1802.63 -1.4838 4.14332 0
M  V30 19484 H 1799.75 -0.109327 0.728846 0
M  V30 19485 H 1802.4 0.416694 1.85374 0
M  V30 19486 H 1800.55 -1.27319 3.67045 0
M  V30 19487 H 1802.22 1.21758 4.44941 0
M  V30 19488 H 1800.46 1.21179 4.16531 0
M  V30 19489 H 1801.13 0.287518 5.51251 0
M  V30 19490 H 1803.61 -0.964367 4.04771 0
M  V30 19491 H 1802.48 -1.70001 5.21911 0
M  V30 19492 H 1802.74 -2.47394 3.66399 0
M  V30 19493 N 1801.8 -1.57568 0.0317802 0
M  V30 19494 C 1803.05 -1.91087 -0.645639 0
M  V30 19495 C 1803.37 -0.910108 -1.73137 0
M  V30 19496 O 1804.57 -1.13665 -2.46562 0
M  V30 19497 C 1803.03 -3.39317 -1.19966 0
M  V30 19498 C 1802.64 -4.47759 -0.147068 0
M  V30 19499 C 1804.38 -3.81901 -1.85343 0
M  V30 19500 C 1802.29 -5.87088 -0.712872 0
M  V30 19501 H 1801.22 -0.713112 -0.244923 0
M  V30 19502 H 1803.87 -1.83241 0.0975145 0
M  V30 19503 H 1802.25 -3.42105 -1.99451 0
M  V30 19504 H 1803.42 -4.56535 0.625518 0
M  V30 19505 H 1801.74 -4.14395 0.408109 0
M  V30 19506 H 1804.34 -4.83352 -2.28636 0
M  V30 19507 H 1804.68 -3.17104 -2.69724 0
M  V30 19508 H 1805.21 -3.81548 -1.12544 0
M  V30 19509 H 1801.95 -6.55434 0.0928582 0
M  V30 19510 H 1801.47 -5.81913 -1.45388 0
M  V30 19511 H 1803.15 -6.3574 -1.20179 0
M  V30 19512 N 1803.28 0.241399 -1.5574 0
M  V30 19513 C 1804.21 1.30255 -1.93793 0
M  V30 19514 C 1805.19 1.49923 -0.803563 0
M  V30 19515 O 1806.38 1.62439 -1.06429 0
M  V30 19516 C 1803.51 2.65625 -2.23742 0
M  V30 19517 C 1802.46 2.60645 -3.39483 0
M  V30 19518 C 1801.79 3.99861 -3.54986 0
M  V30 19519 C 1803.09 2.17151 -4.75019 0
M  V30 19520 H 1804.78 0.986532 -2.8268 0
M  V30 19521 H 1802.33 0.473125 -1.36006 0
M  V30 19522 H 1804.28 3.40001 -2.48953 0
M  V30 19523 H 1803.01 2.98874 -1.31688 0
M  V30 19524 H 1801.66 1.88727 -3.14289 0
M  V30 19525 H 1801.31 4.30385 -2.60342 0
M  V30 19526 H 1801.01 3.97415 -4.32822 0
M  V30 19527 H 1802.54 4.75928 -3.82524 0
M  V30 19528 H 1803.95 2.8126 -4.99565 0
M  V30 19529 H 1802.35 2.25805 -5.55996 0
M  V30 19530 H 1803.42 1.12329 -4.7171 0
M  V30 19531 N 1804.76 1.49212 0.507292 0
M  V30 19532 C 1806.01 1.58616 1.26368 0
M  V30 19533 C 1806.34 0.269215 1.92325 0
M  V30 19534 O 1805.61 -0.72672 1.80414 0
M  V30 19535 C 1805.9 2.74088 2.33555 0
M  V30 19536 C 1805.75 4.15557 1.7214 0
M  V30 19537 C 1807.07 2.85225 3.35164 0
M  V30 19538 H 1804.19 0.577347 0.458083 0
M  V30 19539 H 1806.83 1.81473 0.562797 0
M  V30 19540 H 1804.98 2.5473 2.93335 0
M  V30 19541 H 1806.65 4.46416 1.16236 0
M  V30 19542 H 1804.9 4.21498 1.02576 0
M  V30 19543 H 1805.57 4.92215 2.49856 0
M  V30 19544 H 1808.04 3.02828 2.85367 0
M  V30 19545 H 1806.92 3.67709 4.07531 0
M  V30 19546 H 1807.18 1.94316 3.97107 0
M  V30 19547 N 1806.24 -0.757876 1.38181 0
M  V30 19548 C 1807.2 -1.85317 1.34871 0
M  V30 19549 C 1808.2 -1.58844 0.250041 0
M  V30 19550 O 1809.39 -1.66668 0.506688 0
M  V30 19551 C 1806.52 -3.22712 1.09864 0
M  V30 19552 H 1807.72 -1.89661 2.32312 0
M  V30 19553 H 1805.27 -0.959122 1.23412 0
M  V30 19554 H 1806 -3.24039 0.130112 0
M  V30 19555 H 1805.79 -3.4332 1.89403 0
M  V30 19556 H 1807.28 -4.02789 1.10232 0
M  V30 19557 N 1807.72 -1.22979 -0.985586 0
M  V30 19558 C 1808.96 -1.06033 -1.72872 0
M  V30 19559 C 1809.3 0.402572 -1.89982 0
M  V30 19560 O 1808.57 1.29824 -1.44831 0
M  V30 19561 C 1808.85 -1.78047 -3.13004 0
M  V30 19562 C 1808.71 -3.31979 -3.03497 0
M  V30 19563 C 1810.03 -1.53877 -4.12323 0
M  V30 19564 H 1807.14 -0.386594 -0.627466 0
M  V30 19565 H 1809.79 -1.51416 -1.14775 0
M  V30 19566 H 1807.94 -1.39469 -3.62603 0
M  V30 19567 H 1809.61 -3.80047 -2.61462 0
M  V30 19568 H 1807.85 -3.61279 -2.40125 0
M  V30 19569 H 1808.52 -3.7755 -4.02691 0
M  V30 19570 H 1811 -1.87402 -3.7151 0
M  V30 19571 H 1809.87 -2.06749 -5.08474 0
M  V30 19572 H 1810.14 -0.472972 -4.39563 0
M  V30 19573 N 1809.19 1.18355 -1.04066 0
M  V30 19574 C 1810.14 2.19907 -0.60209 0
M  V30 19575 C 1811.13 1.56925 0.355457 0
M  V30 19576 O 1812.32 1.76138 0.174513 0
M  V30 19577 C 1809.45 3.43284 0.0334903 0
M  V30 19578 C 1808.54 4.13387 -0.947205 0
M  V30 19579 N 1808.93 4.59492 -2.11425 0
M  V30 19580 C 1807.22 4.39247 -0.773204 0
M  V30 19581 C 1807.93 5.1346 -2.73375 0
M  V30 19582 N 1806.9 5.04974 -2.01251 0
M  V30 19583 H 1810.7 2.53245 -1.49145 0
M  V30 19584 H 1808.22 1.3456 -0.90925 0
M  V30 19585 H 1810.21 4.15296 0.365384 0
M  V30 19586 H 1808.87 3.11441 0.918387 0
M  V30 19587 H 1809.89 4.53942 -2.49314 0
M  V30 19588 H 1806.56 4.17455 0.0616022 0
M  V30 19589 H 1807.95 5.59337 -3.72279 0
M  V30 19590 N 1810.67 0.820125 1.3458 0
M  V30 19591 C 1811.92 0.407473 1.98664 0
M  V30 19592 C 1812.25 -1.02613 1.64877 0
M  V30 19593 O 1811.53 -1.71421 0.918964 0
M  V30 19594 C 1811.81 0.606744 3.54952 0
M  V30 19595 C 1811.66 2.08626 3.98491 0
M  V30 19596 C 1812.98 0.0409321 4.40081 0
M  V30 19597 H 1810.1 0.149524 0.721673 0
M  V30 19598 H 1812.74 1.03217 1.59519 0
M  V30 19599 H 1810.89 0.0749788 3.88428 0
M  V30 19600 H 1812.56 2.68144 3.75361 0
M  V30 19601 H 1810.81 2.57774 3.48905 0
M  V30 19602 H 1811.48 2.17651 5.07279 0
M  V30 19603 H 1813.95 0.495234 4.13142 0
M  V30 19604 H 1812.83 0.210182 5.48497 0
M  V30 19605 H 1813.09 -1.05389 4.29355 0
M  V30 19606 N 1812.15 -1.46743 0.574835 0
M  V30 19607 C 1813.11 -2.28691 -0.152633 0
M  V30 19608 C 1814.11 -1.37949 -0.826238 0
M  V30 19609 O 1815.3 -1.60405 -0.679398 0
M  V30 19610 C 1812.44 -3.1812 -1.22525 0
M  V30 19611 H 1813.63 -2.94483 0.567439 0
M  V30 19612 H 1811.18 -1.52723 0.33248 0
M  V30 19613 H 1811.92 -2.57058 -1.97716 0
M  V30 19614 H 1811.7 -3.84922 -0.746841 0
M  V30 19615 H 1813.19 -3.7982 -1.7357 0
M  V30 19616 N 1813.63 -0.312197 -1.54477 0
M  V30 19617 C 1814.85 0.298829 -2.05236 0
M  V30 19618 C 1815.28 1.45881 -1.18745 0
M  V30 19619 O 1814.64 1.80259 -0.193999 0
M  V30 19620 C 1814.68 0.722008 -3.53298 0
M  V30 19621 O 1813.79 1.82562 -3.6979 0
M  V30 19622 H 1813.13 0.0560985 -0.661626 0
M  V30 19623 H 1815.66 -0.4573 -1.99424 0
M  V30 19624 H 1815.67 1.00777 -3.95358 0
M  V30 19625 H 1814.34 -0.12647 -4.15708 0
M  V30 19626 H 1812.92 1.53954 -3.39636 0
M  V30 19627 N 1815.11 1.57549 -0.040136 0
M  V30 19628 C 1816.35 1.9187 0.634838 0
M  V30 19629 C 1816.68 0.918178 1.7203 0
M  V30 19630 O 1815.95 -0.0386563 1.95862 0
M  V30 19631 H 1814.53 0.708245 0.237483 0
M  V30 19632 H 1817.19 1.9469 -0.0905369 0
M  V30 19633 H 1816.28 2.92799 1.08053 0
M  V30 19634 N 1816.58 -0.233136 1.55866 0
M  V30 19635 C 1817.81 -0.974999 1.82146 0
M  V30 19636 C 1818.22 -1.7891 0.615456 0
M  V30 19637 O 1817.57 -1.78707 -0.42537 0
M  V30 19638 C 1817.63 -1.95048 3.01988 0
M  V30 19639 C 1817.29 -1.32201 4.37461 0
M  V30 19640 C 1818.29 -0.717627 5.14923 0
M  V30 19641 C 1815.97 -1.33725 4.84173 0
M  V30 19642 C 1817.97 -0.136864 6.37253 0
M  V30 19643 C 1815.65 -0.752633 6.06448 0
M  V30 19644 C 1816.65 -0.153484 6.82828 0
M  V30 19645 O 1816.34 0.422063 8.02791 0
M  V30 19646 H 1816.07 -0.291889 0.609735 0
M  V30 19647 H 1818.63 -0.257048 2.03785 0
M  V30 19648 H 1816.86 -2.70711 2.76138 0
M  V30 19649 H 1818.55 -2.55692 3.1524 0
M  V30 19650 H 1819.31 -0.698263 4.79947 0
M  V30 19651 H 1815.19 -1.79298 4.24704 0
M  V30 19652 H 1818.73 0.331417 6.96812 0
M  V30 19653 H 1814.63 -0.769371 6.40899 0
M  V30 19654 H 1815.4 0.315258 8.17893 0
M  V30 19655 N 1818.06 -1.49479 -0.499372 0
M  V30 19656 C 1819.31 -1.58295 -1.25003 0
M  V30 19657 C 1819.63 -0.275616 -1.93648 0
M  V30 19658 O 1820.83 -0.24234 -2.70416 0
M  V30 19659 C 1819.29 -2.793 -2.26979 0
M  V30 19660 C 1818.9 -4.16799 -1.64264 0
M  V30 19661 C 1820.64 -2.97447 -3.02862 0
M  V30 19662 C 1818.55 -5.29025 -2.6436 0
M  V30 19663 H 1817.48 -0.589398 -0.470241 0
M  V30 19664 H 1820.13 -1.75868 -0.523698 0
M  V30 19665 H 1818.51 -2.55225 -3.02781 0
M  V30 19666 H 1819.68 -4.51018 -0.944432 0
M  V30 19667 H 1818 -4.04024 -1.00765 0
M  V30 19668 H 1820.6 -3.78461 -3.77719 0
M  V30 19669 H 1820.94 -2.08071 -3.60572 0
M  V30 19670 H 1821.47 -3.2157 -2.34175 0
M  V30 19671 H 1818.21 -6.20466 -2.11429 0
M  V30 19672 H 1817.73 -4.99258 -3.32417 0
M  V30 19673 H 1819.41 -5.58427 -3.26755 0
M  V30 19674 N 1819.54 0.750537 -1.38581 0
M  V30 19675 C 1820.45 1.89503 -1.38296 0
M  V30 19676 C 1821.47 1.71738 -0.279678 0
M  V30 19677 O 1822.64 1.94608 -0.518607 0
M  V30 19678 C 1819.71 3.24909 -1.20976 0
M  V30 19679 C 1818.77 3.55178 -2.41136 0
M  V30 19680 C 1818 4.84124 -2.24633 0
M  V30 19681 O 1818.23 5.56722 -1.24164 0
M  V30 19682 O 1817.16 5.1394 -3.13288 0
M  V30 19683 H 1820.99 1.92698 -2.34737 0
M  V30 19684 H 1818.57 0.896233 -1.19533 0
M  V30 19685 H 1820.45 4.05858 -1.13389 0
M  V30 19686 H 1819.13 3.22519 -0.276217 0
M  V30 19687 H 1818.03 2.74378 -2.54298 0
M  V30 19688 H 1819.37 3.62332 -3.33131 0
M  V30 19689 N 1821.02 1.235 0.979051 0
M  V30 19690 C 1821.98 1.01854 2.05325 0
M  V30 19691 C 1822.98 -0.0201133 1.60787 0
M  V30 19692 O 1824.17 0.219761 1.72808 0
M  V30 19693 C 1821.3 0.541404 3.36573 0
M  V30 19694 H 1822.5 1.97183 2.25962 0
M  V30 19695 H 1820.05 1.05563 1.15265 0
M  V30 19696 H 1820.79 -0.415607 3.21626 0
M  V30 19697 H 1820.57 1.29092 3.7024 0
M  V30 19698 H 1822.06 0.410635 4.15576 0
M  V30 19699 N 1822.5 -1.17802 1.04693 0
M  V30 19700 C 1823.41 -2.25298 0.654072 0
M  V30 19701 C 1824.42 -1.70984 -0.32255 0
M  V30 19702 O 1825.6 -2.0063 -0.175904 0
M  V30 19703 C 1822.66 -3.46687 0.0296345 0
M  V30 19704 C 1821.73 -4.16108 1.05606 0
M  V30 19705 C 1820.96 -5.31702 0.461329 0
M  V30 19706 O 1821.18 -5.65701 -0.730679 0
M  V30 19707 O 1820.12 -5.89956 1.19312 0
M  V30 19708 H 1823.94 -2.61179 1.54982 0
M  V30 19709 H 1821.53 -1.25005 0.818182 0
M  V30 19710 H 1823.41 -4.20201 -0.317654 0
M  V30 19711 H 1822.08 -3.12615 -0.839839 0
M  V30 19712 H 1820.99 -3.44635 1.45526 0
M  V30 19713 H 1822.32 -4.54195 1.89651 0
M  V30 19714 N 1823.98 -0.827251 -1.34143 0
M  V30 19715 C 1825.22 -0.418003 -1.98445 0
M  V30 19716 C 1825.55 1.01737 -1.65418 0
M  V30 19717 O 1824.83 1.70932 -0.928042 0
M  V30 19718 C 1825.11 -0.625559 -3.54625 0
M  V30 19719 C 1824.97 -2.10736 -3.97379 0
M  V30 19720 C 1826.28 -0.0642701 -4.40053 0
M  V30 19721 H 1823.4 -0.15335 -0.72087 0
M  V30 19722 H 1826.05 -1.04062 -1.58969 0
M  V30 19723 H 1824.2 -0.095577 -3.88382 0
M  V30 19724 H 1825.87 -2.70131 -3.73934 0
M  V30 19725 H 1824.11 -2.59621 -3.47533 0
M  V30 19726 H 1824.78 -2.20338 -5.06118 0
M  V30 19727 H 1827.26 -0.517137 -4.12874 0
M  V30 19728 H 1826.13 -0.239267 -5.48378 0
M  V30 19729 H 1826.39 1.0311 -4.29908 0
M  V30 19730 N 1825.45 1.46436 -0.582609 0
M  V30 19731 C 1826.7 2.01592 -0.0658642 0
M  V30 19732 C 1827.02 1.45972 1.30198 0
M  V30 19733 O 1828.22 1.92948 1.91006 0
M  V30 19734 C 1826.68 3.59837 -0.0671547 0
M  V30 19735 C 1826.29 4.24453 -1.43331 0
M  V30 19736 C 1828.03 4.22652 0.395652 0
M  V30 19737 C 1825.94 5.74777 -1.39233 0
M  V30 19738 H 1824.87 0.753712 -0.0208533 0
M  V30 19739 H 1827.52 1.6817 -0.734241 0
M  V30 19740 H 1825.9 3.90336 0.667385 0
M  V30 19741 H 1827.07 4.05564 -2.18757 0
M  V30 19742 H 1825.39 3.73732 -1.83613 0
M  V30 19743 H 1827.99 5.32844 0.445101 0
M  V30 19744 H 1828.33 3.91581 1.41316 0
M  V30 19745 H 1828.86 3.96779 -0.284821 0
M  V30 19746 H 1825.6 6.10508 -2.38664 0
M  V30 19747 H 1825.12 5.9593 -0.680268 0
M  V30 19748 H 1826.8 6.37491 -1.1052 0
M  V30 19749 N 1826.93 0.320385 1.54309 0
M  V30 19750 C 1828.34 -0.16833 1.8594 0
M  V30 19751 C 1828.69 -1.51877 1.24208 0
M  V30 19752 O 1827.82 -2.09374 0.546933 0
M  V30 19753 C 1828.41 -0.312212 3.37358 0
M  V30 19754 C 1826.97 -0.745147 3.68951 0
M  V30 19755 C 1826.12 0.135038 2.76971 0
M  V30 19756 H 1829.07 0.540773 1.49202 0
M  V30 19757 H 1829.09 -1.14364 3.62906 0
M  V30 19758 H 1828.6 0.670809 3.82259 0
M  V30 19759 H 1826.7 -1.73803 3.29581 0
M  V30 19760 H 1826.82 -0.5511 4.7592 0
M  V30 19761 H 1825.18 -0.388886 2.51714 0
M  V30 19762 H 1825.96 1.11477 3.24697 0
M  V30 19763 N 1828.41 -1.57525 0.0484906 0
M  V30 19764 C 1829.37 -2.10275 -0.911987 0
M  V30 19765 C 1830.37 -1.02178 -1.24163 0
M  V30 19766 O 1831.56 -1.28262 -1.17875 0
M  V30 19767 C 1828.69 -2.58475 -2.22269 0
M  V30 19768 H 1829.89 -2.96432 -0.454768 0
M  V30 19769 H 1827.44 -1.55017 -0.19987 0
M  V30 19770 H 1828.18 -1.75704 -2.72578 0
M  V30 19771 H 1827.96 -3.37466 -1.99648 0
M  V30 19772 H 1829.45 -2.99443 -2.91074 0
M  V30 19773 N 1829.89 0.224867 -1.55988 0
M  V30 19774 C 1830.8 1.2997 -1.95307 0
M  V30 19775 C 1831.81 1.51463 -0.856444 0
M  V30 19776 O 1832.99 1.64658 -1.15973 0
M  V30 19777 C 1830.05 2.63009 -2.25892 0
M  V30 19778 C 1829.12 2.49847 -3.49106 0
M  V30 19779 C 1828.35 3.76541 -3.78223 0
M  V30 19780 O 1828.57 4.7941 -3.09066 0
M  V30 19781 O 1827.51 3.73852 -4.71718 0
M  V30 19782 H 1831.33 0.996093 -2.869 0
M  V30 19783 H 1828.92 0.427457 -1.43154 0
M  V30 19784 H 1830.8 3.41586 -2.46774 0
M  V30 19785 H 1829.47 2.93057 -1.37474 0
M  V30 19786 H 1828.38 1.69482 -3.33507 0
M  V30 19787 H 1829.71 2.24739 -4.37896 0
M  V30 19788 N 1831.37 1.49742 0.491438 0
M  V30 19789 C 1832.59 1.63435 1.26873 0
M  V30 19790 C 1833.01 0.309516 1.86246 0
M  V30 19791 O 1832.37 -0.706178 1.68284 0
M  V30 19792 C 1832.42 2.71034 2.39213 0
M  V30 19793 O 1832.14 3.98379 1.82278 0
M  V30 19794 C 1833.64 2.95518 3.3043 0
M  V30 19795 H 1830.86 0.54994 0.384457 0
M  V30 19796 H 1833.4 1.95837 0.588914 0
M  V30 19797 H 1831.56 2.41384 3.03006 0
M  V30 19798 H 1831.97 4.57725 2.56101 0
M  V30 19799 H 1833.45 3.74517 4.05513 0
M  V30 19800 H 1833.92 2.058 3.87999 0
M  V30 19801 H 1834.53 3.26622 2.72393 0
M  V30 19802 N 1832.84 -0.743177 1.38977 0
M  V30 19803 C 1834.09 -1.49959 1.35486 0
M  V30 19804 C 1834.41 -1.94933 -0.0512044 0
M  V30 19805 O 1833.68 -1.684 -1.0009 0
M  V30 19806 H 1832.26 -0.556277 0.498562 0
M  V30 19807 H 1834.93 -0.882776 1.73762 0
M  V30 19808 H 1834.02 -2.38559 2.01237 0
M  V30 19809 N 1834.32 -1.24018 -0.972487 0
M  V30 19810 C 1835.25 -0.986185 -2.06899 0
M  V30 19811 C 1836.27 0.0426574 -1.62744 0
M  V30 19812 O 1837.46 -0.193816 -1.77445 0
M  V30 19813 C 1834.56 -0.46551 -3.35688 0
M  V30 19814 C 1833.73 -1.55637 -4.08774 0
M  V30 19815 C 1832.79 -1.03918 -5.15837 0
M  V30 19816 O 1831.81 -1.72986 -5.42277 0
M  V30 19817 N 1833.02 0.128891 -5.80357 0
M  V30 19818 H 1835.78 -1.93025 -2.29263 0
M  V30 19819 H 1833.34 -1.14983 -1.13976 0
M  V30 19820 H 1835.33 -0.104379 -4.04565 0
M  V30 19821 H 1833.9 0.384166 -3.1023 0
M  V30 19822 H 1833.12 -2.08991 -3.3424 0
M  V30 19823 H 1834.41 -2.28973 -4.54366 0
M  V30 19824 H 1833.81 0.706438 -5.61272 0
M  V30 19825 H 1832.37 0.431211 -6.50372 0
M  V30 19826 N 1835.8 1.17245 -1.05316 0
M  V30 19827 C 1836.71 2.24948 -0.666011 0
M  V30 19828 C 1837.73 1.71153 0.313478 0
M  V30 19829 O 1838.9 2.00721 0.165262 0
M  V30 19830 C 1835.97 3.46667 -0.0480198 0
M  V30 19831 C 1835.03 4.15542 -1.07812 0
M  V30 19832 C 1834.26 5.3145 -0.48952 0
M  V30 19833 O 1834.48 5.6608 0.700668 0
M  V30 19834 O 1833.42 5.89315 -1.22439 0
M  V30 19835 H 1837.24 2.60353 -1.56365 0
M  V30 19836 H 1834.83 1.24569 -0.8248 0
M  V30 19837 H 1836.71 4.20364 0.295366 0
M  V30 19838 H 1835.39 3.13056 0.823248 0
M  V30 19839 H 1834.29 3.43858 -1.47351 0
M  V30 19840 H 1835.63 4.53183 -1.92057 0
M  V30 19841 N 1837.28 0.834353 1.33702 0
M  V30 19842 C 1838.51 0.441228 2.02141 0
M  V30 19843 C 1838.92 -0.956226 1.62794 0
M  V30 19844 O 1838.28 -1.6207 0.839027 0
M  V30 19845 C 1838.33 0.547035 3.57337 0
M  V30 19846 O 1838.05 1.88942 3.95262 0
M  V30 19847 C 1839.55 0.150282 4.43045 0
M  V30 19848 H 1836.77 0.175681 0.647593 0
M  V30 19849 H 1839.32 1.12568 1.7073 0
M  V30 19850 H 1837.47 -0.0894532 3.87297 0
M  V30 19851 H 1837.88 1.87174 4.89965 0
M  V30 19852 H 1839.36 0.275374 5.51313 0
M  V30 19853 H 1839.84 -0.907361 4.29725 0
M  V30 19854 H 1840.44 0.761025 4.18436 0
M  V30 19855 N 1838.76 -1.46125 0.590367 0
M  V30 19856 C 1839.72 -2.2884 -0.128368 0
M  V30 19857 C 1840.72 -1.38818 -0.81156 0
M  V30 19858 O 1841.91 -1.61117 -0.662347 0
M  V30 19859 C 1839.04 -3.19402 -1.19144 0
M  V30 19860 H 1840.23 -2.93864 0.598641 0
M  V30 19861 H 1837.79 -1.52362 0.34866 0
M  V30 19862 H 1838.52 -2.59141 -1.94978 0
M  V30 19863 H 1838.31 -3.85692 -0.705973 0
M  V30 19864 H 1839.8 -3.8164 -1.69532 0
M  V30 19865 N 1840.23 -0.328564 -1.54137 0
M  V30 19866 C 1841.46 0.273928 -2.04776 0
M  V30 19867 C 1841.87 1.45942 -1.20406 0
M  V30 19868 O 1841.22 1.82271 -0.228693 0
M  V30 19869 C 1841.28 0.766914 -3.51225 0
M  V30 19870 C 1840.94 -0.296932 -4.56034 0
M  V30 19871 C 1841.94 -1.13468 -5.07367 0
M  V30 19872 C 1839.62 -0.446557 -5.00311 0
M  V30 19873 C 1841.62 -2.10773 -6.01543 0
M  V30 19874 C 1839.3 -1.42302 -5.94301 0
M  V30 19875 C 1840.3 -2.25207 -6.44803 0
M  V30 19876 O 1839.99 -3.21194 -7.36946 0
M  V30 19877 H 1839.72 0.0593978 -0.673385 0
M  V30 19878 H 1842.28 -0.474303 -1.99849 0
M  V30 19879 H 1840.51 1.56614 -3.53566 0
M  V30 19880 H 1842.2 1.2883 -3.84912 0
M  V30 19881 H 1842.96 -1.03009 -4.73935 0
M  V30 19882 H 1838.84 0.188865 -4.60613 0
M  V30 19883 H 1842.38 -2.75521 -6.40885 0
M  V30 19884 H 1838.28 -1.52822 -6.27149 0
M  V30 19885 H 1839.05 -3.16491 -7.54835 0
M  V30 19886 N 1841.71 1.57497 -0.0568439 0
M  V30 19887 C 1842.96 1.92914 0.615668 0
M  V30 19888 C 1843.29 0.935677 1.70515 0
M  V30 19889 O 1842.54 -0.0511255 1.95633 0
M  V30 19890 C 1842.84 3.35 1.24538 0
M  V30 19891 C 1842.51 4.50008 0.283536 0
M  V30 19892 C 1841.17 4.81196 0.0188809 0
M  V30 19893 C 1843.52 5.19847 -0.375336 0
M  V30 19894 C 1840.85 5.79569 -0.911986 0
M  V30 19895 C 1843.2 6.19215 -1.29443 0
M  V30 19896 C 1841.87 6.48829 -1.5677 0
M  V30 19897 H 1841.14 0.705922 0.225289 0
M  V30 19898 H 1843.78 1.91095 -0.124533 0
M  V30 19899 H 1842.09 3.33213 2.06098 0
M  V30 19900 H 1843.78 3.59686 1.77277 0
M  V30 19901 H 1840.37 4.25674 0.499994 0
M  V30 19902 H 1844.56 4.95959 -0.183967 0
M  V30 19903 H 1839.81 6.00846 -1.13112 0
M  V30 19904 H 1843.99 6.7244 -1.811 0
M  V30 19905 H 1841.62 7.24868 -2.29063 0
M  V30 19906 N 1843.19 -0.216591 1.56105 0
M  V30 19907 C 1844.12 -1.27155 1.95841 0
M  V30 19908 C 1845.1 -1.48626 0.827313 0
M  V30 19909 O 1846.29 -1.60725 1.09 0
M  V30 19910 C 1843.42 -2.62032 2.27939 0
M  V30 19911 C 1842.37 -2.55211 3.43586 0
M  V30 19912 C 1841.7 -3.94163 3.61303 0
M  V30 19913 C 1843 -2.09566 4.78413 0
M  V30 19914 H 1844.69 -0.941435 2.84214 0
M  V30 19915 H 1842.24 -0.451427 1.36741 0
M  V30 19916 H 1844.19 -3.35997 2.5433 0
M  V30 19917 H 1842.91 -2.96742 1.36426 0
M  V30 19918 H 1841.57 -1.83703 3.17252 0
M  V30 19919 H 1841.22 -4.26188 2.67156 0
M  V30 19920 H 1840.92 -3.90479 4.3909 0
M  V30 19921 H 1842.44 -4.69782 3.90047 0
M  V30 19922 H 1843.86 -2.73277 5.03977 0
M  V30 19923 H 1842.26 -2.16931 5.59518 0
M  V30 19924 H 1843.33 -1.0481 4.73437 0
M  V30 19925 N 1844.67 -1.5 -0.48349 0
M  V30 19926 C 1845.6 -1.70879 -1.5913 0
M  V30 19927 C 1846.58 -0.557606 -1.60701 0
M  V30 19928 O 1847.76 -0.79539 -1.77164 0
M  V30 19929 C 1844.89 -1.7915 -2.97527 0
M  V30 19930 C 1843.85 -2.94233 -3.10823 0
M  V30 19931 C 1843.17 -2.87634 -4.50745 0
M  V30 19932 C 1844.47 -4.34925 -2.89202 0
M  V30 19933 H 1846.17 -2.63632 -1.41911 0
M  V30 19934 H 1843.71 -1.26865 -0.68127 0
M  V30 19935 H 1845.67 -1.92342 -3.74943 0
M  V30 19936 H 1844.39 -0.830106 -3.15875 0
M  V30 19937 H 1843.05 -2.80672 -2.35837 0
M  V30 19938 H 1842.7 -1.89365 -4.65993 0
M  V30 19939 H 1842.4 -3.64885 -4.60579 0
M  V30 19940 H 1843.92 -3.02857 -5.30198 0
M  V30 19941 H 1845.34 -4.49076 -3.56376 0
M  V30 19942 H 1843.73 -5.13531 -3.10492 0
M  V30 19943 H 1844.8 -4.48154 -1.85165 0
M  V30 19944 N 1846.15 0.735796 -1.39369 0
M  V30 19945 C 1847.09 1.8498 -1.38025 0
M  V30 19946 C 1848.06 1.64356 -0.24007 0
M  V30 19947 O 1849.25 1.85774 -0.435058 0
M  V30 19948 C 1846.39 3.22484 -1.22874 0
M  V30 19949 C 1845.5 3.54819 -2.4643 0
M  V30 19950 C 1844.64 4.8172 -2.23873 0
M  V30 19951 C 1843.68 5.06895 -3.43108 0
M  V30 19952 N 1842.81 6.25 -3.19874 0
M  V30 19953 H 1847.65 1.85463 -2.33254 0
M  V30 19954 H 1845.19 0.906252 -1.15868 0
M  V30 19955 H 1847.15 4.01857 -1.12101 0
M  V30 19956 H 1845.78 3.21281 -0.312759 0
M  V30 19957 H 1844.83 2.70153 -2.67809 0
M  V30 19958 H 1846.14 3.69342 -3.35244 0
M  V30 19959 H 1845.3 5.69072 -2.10338 0
M  V30 19960 H 1844.03 4.69369 -1.32453 0
M  V30 19961 H 1843.04 4.18006 -3.57143 0
M  V30 19962 H 1844.26 5.21132 -4.35429 0
M  V30 19963 H 1842.21 6.13939 -2.31117 0
M  V30 19964 H 1842.13 6.40106 -4.02244 0
M  V30 19965 H 1843.4 7.15193 -3.10031 0
M  V30 19966 N 1847.63 1.24532 0.965897 0
M  V30 19967 C 1848.56 1.06393 2.07853 0
M  V30 19968 C 1849.54 -0.0236467 1.70084 0
M  V30 19969 O 1850.72 0.143767 1.93667 0
M  V30 19970 C 1847.85 0.669877 3.40778 0
M  V30 19971 C 1846.81 1.70643 3.92511 0
M  V30 19972 C 1846.13 1.16738 5.21801 0
M  V30 19973 C 1847.43 3.10278 4.20149 0
M  V30 19974 H 1849.13 1.99459 2.23285 0
M  V30 19975 H 1846.67 0.960397 1.07296 0
M  V30 19976 H 1848.62 0.52997 4.18054 0
M  V30 19977 H 1847.35 -0.296477 3.25252 0
M  V30 19978 H 1846.01 1.83458 3.17393 0
M  V30 19979 H 1845.66 0.191586 5.02635 0
M  V30 19980 H 1845.36 1.86009 5.57382 0
M  V30 19981 H 1846.88 1.03963 6.01684 0
M  V30 19982 H 1848.29 3.00681 4.88123 0
M  V30 19983 H 1846.69 3.76918 4.66962 0
M  V30 19984 H 1847.76 3.58182 3.26854 0
M  V30 19985 N 1849.1 -1.16685 1.05936 0
M  V30 19986 C 1850.07 -2.19155 0.671098 0
M  V30 19987 C 1851.07 -1.5832 -0.281305 0
M  V30 19988 O 1852.26 -1.74082 -0.0641708 0
M  V30 19989 C 1849.39 -3.40897 -0.0131101 0
M  V30 19990 H 1850.58 -2.55019 1.57815 0
M  V30 19991 H 1848.13 -1.30897 0.854147 0
M  V30 19992 H 1848.87 -3.10587 -0.933077 0
M  V30 19993 H 1848.65 -3.86304 0.671687 0
M  V30 19994 H 1850.14 -4.16722 -0.270606 0
M  V30 19995 N 1850.58 -0.841432 -1.33258 0
M  V30 19996 C 1851.83 -0.437512 -1.97307 0
M  V30 19997 C 1852.15 1.00723 -1.66973 0
M  V30 19998 O 1851.42 1.70199 -0.969998 0
M  V30 19999 H 1850 -0.158794 -0.729927 0
M  V30 20000 H 1852.66 -1.07495 -1.62575 0
M  V30 20001 H 1851.76 -0.571675 -3.0682 0
M  V30 20002 N 1852.06 1.4581 -0.598108 0
M  V30 20003 C 1853.48 1.57452 -0.260993 0
M  V30 20004 C 1853.68 1.59093 1.2366 0
M  V30 20005 O 1852.73 1.51614 2.01915 0
M  V30 20006 C 1854.04 2.86158 -0.923801 0
M  V30 20007 C 1855.59 2.99817 -0.89883 0
M  V30 20008 C 1856.07 4.3128 -1.54147 0
M  V30 20009 N 1857.56 4.38016 -1.50652 0
M  V30 20010 C 1858.29 5.38387 -1.973 0
M  V30 20011 N 1857.79 6.45347 -2.51991 0
M  V30 20012 N 1859.58 5.29684 -1.88124 0
M  V30 20013 H 1851.73 1.42988 -1.57061 0
M  V30 20014 H 1854 0.683038 -0.657391 0
M  V30 20015 H 1853.7 2.90812 -1.97791 0
M  V30 20016 H 1853.58 3.74609 -0.441318 0
M  V30 20017 H 1855.96 2.94735 0.146702 0
M  V30 20018 H 1856.04 2.12801 -1.41949 0
M  V30 20019 H 1855.69 4.3712 -2.58628 0
M  V30 20020 H 1855.62 5.17097 -0.995911 0
M  V30 20021 H 1858.11 3.61326 -1.1069 0
M  V30 20022 H 1858.42 7.18168 -2.85403 0
M  V30 20023 H 1856.77 6.46124 -2.56025 0
M  V30 20024 H 1859.96 4.45029 -1.45144 0
M  V30 20025 H 1860.13 6.0776 -2.24793 0
M  V30 20026 N 1853.54 0.336733 1.53961 0
M  V30 20027 C 1854.78 -0.254954 2.01796 0
M  V30 20028 C 1855.14 -1.4874 1.22042 0
M  V30 20029 O 1854.43 -1.8927 0.297911 0
M  V30 20030 C 1854.63 -0.628163 3.51836 0
M  V30 20031 C 1854.45 0.566566 4.46117 0
M  V30 20032 C 1853.22 1.06977 4.93846 0
M  V30 20033 C 1855.42 1.42289 4.94225 0
M  V30 20034 N 1853.4 2.22753 5.72062 0
M  V30 20035 C 1854.78 2.42765 5.70495 0
M  V30 20036 C 1856.83 1.44913 4.76345 0
M  V30 20037 C 1855.53 3.45686 6.30788 0
M  V30 20038 C 1857.56 2.46711 5.37483 0
M  V30 20039 C 1856.92 3.45913 6.13615 0
M  V30 20040 H 1853.02 -0.0567832 0.779936 0
M  V30 20041 H 1855.6 0.474756 1.88823 0
M  V30 20042 H 1853.78 -1.32699 3.65028 0
M  V30 20043 H 1855.51 -1.20245 3.86424 0
M  V30 20044 H 1852.26 0.638937 4.6927 0
M  V30 20045 H 1852.69 2.81189 6.15842 0
M  V30 20046 H 1857.33 0.695807 4.17035 0
M  V30 20047 H 1855.05 4.21917 6.89211 0
M  V30 20048 H 1858.63 2.4956 5.25558 0
M  V30 20049 H 1857.51 4.23393 6.60082 0
M  V30 20050 N 1855.02 -1.57465 0.0651956 0
M  V30 20051 C 1856.43 -1.80728 -0.468449 0
M  V30 20052 C 1856.78 -0.978581 -1.70054 0
M  V30 20053 O 1855.9 -0.199186 -2.15481 0
M  V30 20054 C 1856.5 -3.27791 -0.856641 0
M  V30 20055 C 1855.06 -3.51923 -1.33519 0
M  V30 20056 C 1854.2 -2.7548 -0.317147 0
M  V30 20057 H 1857.15 -1.5601 0.290955 0
M  V30 20058 H 1857.18 -3.39479 -1.71855 0
M  V30 20059 H 1856.69 -3.88079 0.0402823 0
M  V30 20060 H 1854.79 -2.96932 -2.25083 0
M  V30 20061 H 1854.9 -4.60624 -1.31767 0
M  V30 20062 H 1853.27 -2.4204 -0.793026 0
M  V30 20063 H 1854.05 -3.38502 0.571935 0
M  V30 20064 N 1856.49 0.20831 -1.56217 0
M  V30 20065 C 1857.74 0.932104 -1.8011 0
M  V30 20066 C 1858.07 1.83453 -0.637061 0
M  V30 20067 O 1857.35 1.91081 0.363066 0
M  V30 20068 C 1857.63 1.7597 -3.14176 0
M  V30 20069 C 1857.48 0.882874 -4.4105 0
M  V30 20070 C 1858.8 2.7349 -3.44806 0
M  V30 20071 H 1855.92 0.337428 -0.655218 0
M  V30 20072 H 1858.56 0.2002 -1.88942 0
M  V30 20073 H 1856.71 2.38369 -3.06778 0
M  V30 20074 H 1858.39 0.274607 -4.60482 0
M  V30 20075 H 1856.63 0.188921 -4.33388 0
M  V30 20076 H 1857.3 1.49662 -5.31324 0
M  V30 20077 H 1859.78 2.21225 -3.52418 0
M  V30 20078 H 1858.65 3.28489 -4.39757 0
M  V30 20079 H 1858.91 3.51887 -2.67635 0
M  V30 20080 N 1857.97 1.50255 0.475528 0
M  V30 20081 C 1859.2 1.64771 1.25132 0
M  V30 20082 C 1859.61 0.329253 1.85907 0
M  V30 20083 O 1858.97 -0.688289 1.69023 0
M  V30 20084 C 1859.02 2.73556 2.36325 0
M  V30 20085 O 1858.74 4.0029 1.78043 0
M  V30 20086 C 1860.24 2.99006 3.27277 0
M  V30 20087 H 1857.46 0.553987 0.378602 0
M  V30 20088 H 1860.01 1.9645 0.56811 0
M  V30 20089 H 1858.16 2.44584 3.00429 0
M  V30 20090 H 1858.58 4.60416 2.51232 0
M  V30 20091 H 1860.05 3.78797 4.01518 0
M  V30 20092 H 1860.53 2.09904 3.85794 0
M  V30 20093 H 1861.13 3.29493 2.68914 0
M  V30 20094 N 1859.45 -0.728395 1.39758 0
M  V30 20095 C 1860.68 -1.5176 1.40629 0
M  V30 20096 C 1861.09 -1.888 0.00253909 0
M  V30 20097 O 1860.45 -1.54561 -0.970428 0
M  V30 20098 C 1860.5 -2.80102 2.28528 0
M  V30 20099 O 1860.22 -2.44633 3.63436 0
M  V30 20100 C 1861.72 -3.74087 2.37853 0
M  V30 20101 H 1858.94 -0.468767 0.480103 0
M  V30 20102 H 1861.49 -0.89953 1.83654 0
M  V30 20103 H 1859.64 -3.38225 1.88898 0
M  V30 20104 H 1860.06 -3.27124 4.09988 0
M  V30 20105 H 1861.53 -4.61017 3.03591 0
M  V30 20106 H 1862.01 -4.163 1.39968 0
M  V30 20107 H 1862.61 -3.2188 2.7798 0
M  V30 20108 N 1860.93 -1.25042 -0.959279 0
M  V30 20109 C 1862.18 -1.08912 -1.69768 0
M  V30 20110 C 1862.49 0.370558 -1.92058 0
M  V30 20111 O 1863.7 0.652214 -2.6355 0
M  V30 20112 C 1862.15 -1.90075 -3.05613 0
M  V30 20113 C 1861.76 -3.40506 -2.91136 0
M  V30 20114 C 1863.5 -1.825 -3.83268 0
M  V30 20115 C 1861.41 -4.13982 -4.22343 0
M  V30 20116 H 1860.34 -0.403959 -0.636658 0
M  V30 20117 H 1862.99 -1.49198 -1.06828 0
M  V30 20118 H 1861.37 -1.42609 -3.6943 0
M  V30 20119 H 1862.55 -3.95612 -2.36279 0
M  V30 20120 H 1860.86 -3.49123 -2.2694 0
M  V30 20121 H 1863.46 -2.34693 -4.80441 0
M  V30 20122 H 1863.8 -0.791947 -4.08698 0
M  V30 20123 H 1864.34 -2.27691 -3.26192 0
M  V30 20124 H 1861.07 -5.17681 -4.02103 0
M  V30 20125 H 1860.59 -3.6366 -4.76982 0
M  V30 20126 H 1862.27 -4.21443 -4.90913 0
M  V30 20127 N 1862.41 1.16121 -1.06553 0
M  V30 20128 C 1863.36 2.1858 -0.6486 0
M  V30 20129 C 1864.34 1.57643 0.322091 0
M  V30 20130 O 1865.53 1.76468 0.137113 0
M  V30 20131 C 1862.66 3.43277 -0.0393328 0
M  V30 20132 C 1861.75 4.11285 -1.03468 0
M  V30 20133 N 1862.14 4.54904 -2.21124 0
M  V30 20134 C 1860.44 4.37508 -0.8662 0
M  V30 20135 C 1861.14 5.07546 -2.84205 0
M  V30 20136 N 1860.11 5.00592 -2.11917 0
M  V30 20137 H 1863.92 2.50024 -1.54483 0
M  V30 20138 H 1861.43 1.32601 -0.937587 0
M  V30 20139 H 1863.43 4.15977 0.277211 0
M  V30 20140 H 1862.09 3.13319 0.852119 0
M  V30 20141 H 1863.1 4.48551 -2.58887 0
M  V30 20142 H 1859.77 4.17491 -0.0269599 0
M  V30 20143 H 1861.16 5.51315 -3.8406 0
M  V30 20144 N 1863.88 0.848487 1.3281 0
M  V30 20145 C 1865.11 0.462643 2.01661 0
M  V30 20146 C 1865.53 -0.938906 1.63799 0
M  V30 20147 O 1864.88 -1.61171 0.85617 0
M  V30 20148 C 1864.94 0.584905 3.56737 0
M  V30 20149 O 1864.66 1.93124 3.93236 0
M  V30 20150 C 1866.16 0.197265 4.42861 0
M  V30 20151 H 1863.38 0.18254 0.645694 0
M  V30 20152 H 1865.92 1.14372 1.69527 0
M  V30 20153 H 1864.08 -0.0483701 3.8737 0
M  V30 20154 H 1864.49 1.92361 4.87952 0
M  V30 20155 H 1865.96 0.333833 5.5099 0
M  V30 20156 H 1866.44 -0.861732 4.30663 0
M  V30 20157 H 1867.05 0.805363 4.17605 0
M  V30 20158 N 1865.36 -1.4549 0.605832 0
M  V30 20159 C 1866.64 -1.95573 0.0324098 0
M  V30 20160 C 1867.02 -1.54829 -1.43496 0
M  V30 20161 O 1866.37 -0.810005 -2.13661 0
M  V30 20162 C 1866.58 -3.4825 0.228676 0
M  V30 20163 C 1867.93 -4.24461 0.108559 0
M  V30 20164 O 1868.95 -3.55846 0.158706 0
M  V30 20165 O 1867.81 -5.46499 -0.00781404 0
M  V30 20166 H 1864.9 -0.826184 -0.0367314 0
M  V30 20167 H 1867.45 -1.55664 0.675771 0
M  V30 20168 H 1866.22 -3.70869 1.24786 0
M  V30 20169 H 1865.84 -3.95045 -0.450031 0
M  V30 20170 N 1866.84 -0.344893 -1.5378 0
M  V30 20171 C 1867.79 0.526591 -2.26561 0
M  V30 20172 C 1868.78 1.10083 -1.28756 0
M  V30 20173 O 1869.99 1.04641 -1.46459 0
M  V30 20174 H 1866.36 0.188505 -0.72799 0
M  V30 20175 H 1868.33 -0.109269 -2.982 0
M  V30 20176 C 1867.08 1.66505 -3.0524 0
M  V30 20177 H 1866.41 1.23246 -3.80329 0
M  V30 20178 H 1867.85 2.24998 -3.59377 0
M  V30 20179 C 1866.31 2.59527 -2.14819 0
M  V30 20180 O 1866.84 3.6181 -1.74517 0
M  V30 20181 N 1865.04 2.28243 -1.79871 0
M  V30 20182 H 1864.59 1.45106 -2.12843 0
M  V30 20183 H 1864.55 2.90741 -1.19654 0
M  V30 20184 N 1868.32 1.57428 -0.0735454 0
M  V30 20185 C 1869.57 1.93174 0.593996 0
M  V30 20186 C 1869.89 0.954462 1.70044 0
M  V30 20187 O 1869.16 0.00289765 1.959 0
M  V30 20188 H 1867.74 0.713123 0.222407 0
M  V30 20189 H 1870.4 1.94454 -0.131813 0
M  V30 20190 H 1869.5 2.95025 1.01818 0
M  V30 20191 N 1869.8 -0.200022 1.56326 0
M  V30 20192 C 1871.02 -0.941617 1.84793 0
M  V30 20193 C 1871.45 -1.76271 0.656525 0
M  V30 20194 O 1870.8 -1.76951 -0.394703 0
M  V30 20195 C 1870.85 -1.81754 3.11445 0
M  V30 20196 O 1869.96 -2.91571 2.91651 0
M  V30 20197 H 1869.3 -0.265444 0.608634 0
M  V30 20198 H 1871.83 -0.206826 2.03552 0
M  V30 20199 H 1871.84 -2.22316 3.4211 0
M  V30 20200 H 1870.51 -1.2142 3.97781 0
M  V30 20201 H 1869.09 -2.54799 2.72271 0
M  V30 20202 N 1871.27 -1.50505 -0.467553 0
M  V30 20203 C 1872.22 -1.70158 -1.58584 0
M  V30 20204 C 1873.22 -0.567469 -1.59613 0
M  V30 20205 O 1874.42 -0.748063 -1.63719 0
M  V30 20206 H 1870.8 -0.537137 -0.526296 0
M  V30 20207 H 1872.77 -2.63959 -1.39171 0
M  V30 20208 C 1871.52 -1.81617 -2.96497 0
M  V30 20209 H 1870.84 -2.68276 -2.96425 0
M  V30 20210 H 1872.28 -1.99393 -3.74191 0
M  V30 20211 C 1870.74 -0.56862 -3.32067 0
M  V30 20212 O 1871.27 0.29061 -4.00647 0
M  V30 20213 N 1869.48 -0.421597 -2.87526 0
M  V30 20214 H 1869.02 -1.12184 -2.31889 0
M  V30 20215 H 1868.98 0.411959 -3.11689 0
M  V30 20216 N 1872.75 0.720973 -1.40142 0
M  V30 20217 C 1874 1.48078 -1.38128 0
M  V30 20218 C 1874.33 1.94491 0.0181891 0
M  V30 20219 O 1873.58 1.68119 1.00172 0
M  V30 20220 C 1873.88 2.72513 -2.31239 0
M  V30 20221 C 1873.55 2.44893 -3.78601 0
M  V30 20222 C 1872.21 2.3707 -4.1875 0
M  V30 20223 C 1874.56 2.21598 -4.71745 0
M  V30 20224 C 1871.89 2.04013 -5.50087 0
M  V30 20225 C 1874.24 1.90055 -6.03375 0
M  V30 20226 C 1872.91 1.8071 -6.42573 0
M  V30 20227 H 1872.18 0.541854 -0.505446 0
M  V30 20228 H 1874.82 0.826311 -1.72755 0
M  V30 20229 H 1873.13 3.4277 -1.89778 0
M  V30 20230 H 1874.82 3.30586 -2.26967 0
M  V30 20231 H 1871.41 2.51866 -3.46788 0
M  V30 20232 H 1875.6 2.26601 -4.41549 0
M  V30 20233 H 1870.85 1.95311 -5.79365 0
M  V30 20234 H 1875.03 1.71042 -6.75069 0
M  V30 20235 H 1872.66 1.54862 -7.44259 0
M  V30 20236 N 1874.23 1.25549 0.952634 0
M  V30 20237 C 1875.46 1.13162 1.73211 0
M  V30 20238 C 1875.87 -0.314383 1.86164 0
M  V30 20239 O 1875.23 -1.21608 1.3608 0
M  V30 20240 C 1875.28 1.78273 3.14485 0
M  V30 20241 O 1875 3.17221 3.02163 0
M  V30 20242 C 1876.5 1.71691 4.08702 0
M  V30 20243 H 1873.72 0.394613 0.542698 0
M  V30 20244 H 1876.27 1.65951 1.19502 0
M  V30 20245 H 1874.42 1.2945 3.65132 0
M  V30 20246 H 1874.84 3.49266 3.91297 0
M  V30 20247 H 1876.31 2.21906 5.05432 0
M  V30 20248 H 1876.79 0.681094 4.33887 0
M  V30 20249 H 1877.39 2.20012 3.63971 0
M  V30 20250 N 1875.71 -1.15554 1.07168 0
M  V30 20251 C 1876.93 -1.90723 0.814832 0
M  V30 20252 C 1877.36 -1.7738 -0.62594 0
M  V30 20253 O 1876.72 -1.10521 -1.43718 0
M  V30 20254 C 1876.76 -3.39137 1.22551 0
M  V30 20255 O 1875.87 -4.1074 0.369677 0
M  V30 20256 H 1875.21 -0.593866 0.297017 0
M  V30 20257 H 1877.74 -1.46348 1.42981 0
M  V30 20258 H 1877.75 -3.89926 1.20089 0
M  V30 20259 H 1876.42 -3.48167 2.27492 0
M  V30 20260 H 1875 -3.70094 0.456626 0
M  V30 20261 N 1877.19 -0.855519 -1.32358 0
M  V30 20262 C 1878.15 -0.305794 -2.27151 0
M  V30 20263 C 1879.15 0.535008 -1.51639 0
M  V30 20264 O 1880.34 0.346394 -1.70721 0
M  V30 20265 C 1877.47 0.567275 -3.36147 0
M  V30 20266 H 1878.67 -1.14245 -2.77287 0
M  V30 20267 H 1876.22 -0.629924 -1.43044 0
M  V30 20268 H 1876.95 1.42571 -2.9128 0
M  V30 20269 H 1876.74 -0.0345714 -3.92085 0
M  V30 20270 H 1878.23 0.944644 -4.06775 0
M  V30 20271 N 1878.67 1.45167 -0.61354 0
M  V30 20272 C 1879.89 2.06565 -0.117608 0
M  V30 20273 C 1880.31 1.45716 1.20051 0
M  V30 20274 O 1879.67 0.573512 1.73254 0
M  V30 20275 C 1879.72 3.61493 0.0221474 0
M  V30 20276 O 1879.44 4.20072 -1.24383 0
M  V30 20277 C 1880.94 4.39889 0.548841 0
M  V30 20278 H 1878.16 0.667172 -0.0715756 0
M  V30 20279 H 1880.7 1.86318 -0.84296 0
M  V30 20280 H 1878.86 3.81063 0.697854 0
M  V30 20281 H 1879.27 5.13317 -1.07733 0
M  V30 20282 H 1880.75 5.48776 0.595696 0
M  V30 20283 H 1881.22 4.1009 1.57234 0
M  V30 20284 H 1881.83 4.25198 -0.0930203 0
M  V30 20285 N 1880.14 0.353044 1.53595 0
M  V30 20286 C 1881.39 -0.240904 2.01364 0
M  V30 20287 C 1881.72 -1.49438 1.24023 0
M  V30 20288 O 1881 -1.91672 0.330451 0
M  V30 20289 C 1881.28 -0.545497 3.55944 0
M  V30 20290 C 1881.13 0.720742 4.43988 0
M  V30 20291 C 1882.45 -1.35124 4.18843 0
M  V30 20292 H 1879.57 -0.0860838 0.731955 0
M  V30 20293 H 1882.21 0.475459 1.83955 0
M  V30 20294 H 1880.36 -1.15578 3.7091 0
M  V30 20295 H 1882.04 1.35852 4.40842 0
M  V30 20296 H 1880.28 1.34369 4.12465 0
M  V30 20297 H 1880.95 0.462749 5.50057 0
M  V30 20298 H 1883.43 -0.835104 4.07634 0
M  V30 20299 H 1882.3 -1.53311 5.27055 0
M  V30 20300 H 1882.56 -2.35612 3.74085 0
M  V30 20301 N 1881.62 -1.57387 0.0818932 0
M  V30 20302 C 1882.57 -2.13292 -0.881772 0
M  V30 20303 C 1883.54 -1.04801 -1.28864 0
M  V30 20304 O 1884.72 -1.32519 -1.37272 0
M  V30 20305 C 1881.86 -2.70708 -2.14035 0
M  V30 20306 C 1880.98 -3.93388 -1.78522 0
M  V30 20307 C 1880.11 -4.39013 -2.99067 0
M  V30 20308 C 1879.15 -5.54315 -2.59617 0
M  V30 20309 N 1878.29 -5.94853 -3.72954 0
M  V30 20310 H 1883.13 -2.95328 -0.398167 0
M  V30 20311 H 1880.66 -1.45934 -0.184876 0
M  V30 20312 H 1882.62 -3.0211 -2.87724 0
M  V30 20313 H 1881.25 -1.91421 -2.59919 0
M  V30 20314 H 1880.3 -3.68384 -0.948546 0
M  V30 20315 H 1881.62 -4.77106 -1.45505 0
M  V30 20316 H 1880.77 -4.72129 -3.81023 0
M  V30 20317 H 1879.51 -3.54169 -3.35284 0
M  V30 20318 H 1878.51 -5.2084 -1.76084 0
M  V30 20319 H 1879.74 -6.40898 -2.24558 0
M  V30 20320 H 1877.69 -5.12957 -4.08915 0
M  V30 20321 H 1877.6 -6.73335 -3.43739 0
M  V30 20322 H 1878.87 -6.32595 -4.5546 0
M  V30 20323 N 1883.1 0.191729 -1.56429 0
M  V30 20324 C 1884.06 1.22128 -1.93952 0
M  V30 20325 C 1885.06 1.38262 -0.820984 0
M  V30 20326 O 1886.25 1.36017 -1.08835 0
M  V30 20327 C 1883.38 2.59005 -2.21651 0
M  V30 20328 H 1884.58 0.900458 -2.86063 0
M  V30 20329 H 1882.13 0.433382 -1.50172 0
M  V30 20330 H 1882.87 2.96136 -1.32189 0
M  V30 20331 H 1882.65 2.48665 -3.03164 0
M  V30 20332 H 1884.14 3.33242 -2.51674 0
M  V30 20333 N 1884.58 1.50751 0.459565 0
M  V30 20334 C 1885.54 1.69889 1.53852 0
M  V30 20335 C 1886.54 0.569308 1.50385 0
M  V30 20336 O 1887.73 0.836527 1.528 0
M  V30 20337 C 1884.86 1.73481 2.93457 0
M  V30 20338 H 1886.06 2.66162 1.38195 0
M  V30 20339 H 1883.61 1.40405 0.686741 0
M  V30 20340 H 1884.34 0.789426 3.14545 0
M  V30 20341 H 1884.13 2.55553 2.97381 0
M  V30 20342 H 1885.62 1.90202 3.7177 0
M  V30 20343 N 1886.06 -0.713531 1.40522 0
M  V30 20344 C 1887.3 -1.48585 1.40363 0
M  V30 20345 C 1887.66 -1.91999 0.00566667 0
M  V30 20346 O 1888.86 -2.68527 -0.12105 0
M  V30 20347 C 1887.13 -2.67762 2.36724 0
M  V30 20348 S 1888.69 -3.57142 2.54941 0
M  V30 20349 H 1885.51 -0.507978 0.497473 0
M  V30 20350 H 1888.11 -0.834206 1.76809 0
M  V30 20351 H 1886.81 -2.34042 3.37124 0
M  V30 20352 H 1886.35 -3.37836 2.01569 0
M  V30 20353 H 1888.36 -4.6227 1.80336 0
M  V30 20354 N 1887.53 -1.26053 -0.945962 0
M  V30 20355 C 1888.78 -1.12488 -1.69464 0
M  V30 20356 C 1889.13 0.329284 -1.89561 0
M  V30 20357 O 1888.43 1.2387 -1.46174 0
M  V30 20358 C 1888.62 -1.8222 -3.07459 0
M  V30 20359 C 1888.45 -3.34267 -3.00825 0
M  V30 20360 C 1887.22 -4.03545 -3.04104 0
M  V30 20361 C 1889.42 -4.30534 -2.81327 0
M  V30 20362 N 1887.4 -5.42302 -2.87719 0
M  V30 20363 C 1888.77 -5.56434 -2.73462 0
M  V30 20364 C 1890.83 -4.20843 -2.66074 0
M  V30 20365 C 1889.53 -6.73749 -2.51902 0
M  V30 20366 C 1891.56 -5.37861 -2.45886 0
M  V30 20367 C 1890.92 -6.62705 -2.38748 0
M  V30 20368 H 1887.02 -0.466384 -0.627702 0
M  V30 20369 H 1889.6 -1.59274 -1.11982 0
M  V30 20370 H 1887.77 -1.37916 -3.63089 0
M  V30 20371 H 1889.5 -1.6132 -3.71158 0
M  V30 20372 H 1886.26 -3.5487 -3.13631 0
M  V30 20373 H 1886.68 -6.15147 -2.82707 0
M  V30 20374 H 1891.32 -3.25061 -2.70361 0
M  V30 20375 H 1889.04 -7.69633 -2.46355 0
M  V30 20376 H 1892.63 -5.3223 -2.34996 0
M  V30 20377 H 1891.51 -7.51726 -2.23333 0
M  V30 20378 N 1889.01 1.14984 -1.07779 0
M  V30 20379 C 1890.26 1.86375 -0.81462 0
M  V30 20380 C 1890.61 1.81002 0.652385 0
M  V30 20381 O 1889.91 1.2253 1.47299 0
M  V30 20382 C 1890.1 3.34355 -1.26259 0
M  V30 20383 C 1889.93 3.54136 -2.7716 0
M  V30 20384 C 1888.7 3.69356 -3.44825 0
M  V30 20385 C 1890.9 3.51594 -3.75348 0
M  V30 20386 N 1888.88 3.77232 -4.84323 0
M  V30 20387 C 1890.25 3.65637 -5.00709 0
M  V30 20388 C 1892.3 3.34893 -3.68444 0
M  V30 20389 C 1891.01 3.64705 -6.19986 0
M  V30 20390 C 1893.03 3.35262 -4.87189 0
M  V30 20391 C 1892.4 3.49839 -6.11386 0
M  V30 20392 H 1888.49 0.698946 -0.350711 0
M  V30 20393 H 1891.08 1.37857 -1.3749 0
M  V30 20394 H 1889.25 3.81479 -0.729958 0
M  V30 20395 H 1890.98 3.93476 -0.946503 0
M  V30 20396 H 1887.74 3.70315 -2.95235 0
M  V30 20397 H 1888.16 3.84903 -5.56937 0
M  V30 20398 H 1892.8 3.22539 -2.73365 0
M  V30 20399 H 1890.52 3.75836 -7.15383 0
M  V30 20400 H 1894.11 3.23561 -4.83528 0
M  V30 20401 H 1892.99 3.50063 -7.01731 0
M  V30 20402 N 1890.49 0.862526 1.31902 0
M  V30 20403 C 1891.45 0.317836 2.26986 0
M  V30 20404 C 1892.45 -0.526959 1.5192 0
M  V30 20405 O 1893.64 -0.337336 1.70903 0
M  V30 20406 C 1890.77 -0.549441 3.36443 0
M  V30 20407 H 1891.97 1.15714 2.76677 0
M  V30 20408 H 1889.52 0.637501 1.42708 0
M  V30 20409 H 1890.26 -1.41024 2.92032 0
M  V30 20410 H 1890.04 0.0553642 3.92061 0
M  V30 20411 H 1891.53 -0.923059 4.07271 0
M  V30 20412 N 1891.97 -1.4484 0.62123 0
M  V30 20413 C 1893.22 -2.01734 0.121544 0
M  V30 20414 C 1893.54 -1.49041 -1.25745 0
M  V30 20415 O 1892.81 -0.690056 -1.83344 0
M  V30 20416 H 1891.39 -0.745822 0.0419419 0
M  V30 20417 H 1894.05 -1.77467 0.805702 0
M  V30 20418 H 1893.15 -3.11993 0.0816882 0
M  V30 20419 N 1893.45 -0.361184 -1.53405 0
M  V30 20420 C 1894.7 0.230977 -2.00373 0
M  V30 20421 C 1895.01 1.50228 -1.25264 0
M  V30 20422 O 1896.21 2.17277 -1.62798 0
M  V30 20423 C 1894.67 0.462153 -3.5692 0
M  V30 20424 C 1894.28 -0.794263 -4.40903 0
M  V30 20425 C 1896.02 1.01221 -4.12255 0
M  V30 20426 C 1893.93 -0.532914 -5.88994 0
M  V30 20427 H 1892.86 0.0900886 -0.748599 0
M  V30 20428 H 1895.51 -0.479245 -1.77131 0
M  V30 20429 H 1893.89 1.23352 -3.76298 0
M  V30 20430 H 1895.07 -1.56809 -4.33298 0
M  V30 20431 H 1893.38 -1.26722 -3.96649 0
M  V30 20432 H 1895.98 1.22299 -5.20526 0
M  V30 20433 H 1896.32 1.97304 -3.66575 0
M  V30 20434 H 1896.85 0.301113 -3.96659 0
M  V30 20435 H 1893.59 -1.46395 -6.38943 0
M  V30 20436 H 1893.11 0.202496 -5.99458 0
M  V30 20437 H 1894.79 -0.156772 -6.4681 0
M  V30 20438 N 1894.92 1.57341 -0.0902386 0
M  V30 20439 C 1895.87 2.13756 0.870448 0
M  V30 20440 C 1896.84 1.05483 1.28306 0
M  V30 20441 O 1898.03 1.33245 1.36567 0
M  V30 20442 C 1895.17 2.71839 2.12597 0
M  V30 20443 C 1894.28 3.94329 1.76433 0
M  V30 20444 C 1893.41 4.40593 2.96734 0
M  V30 20445 C 1892.45 5.55684 2.56674 0
M  V30 20446 N 1891.59 5.96822 3.69794 0
M  V30 20447 H 1896.43 2.95535 0.3825 0
M  V30 20448 H 1893.97 1.4603 0.177134 0
M  V30 20449 H 1895.93 3.03632 2.86118 0
M  V30 20450 H 1894.56 1.92797 2.589 0
M  V30 20451 H 1893.61 3.68882 0.928996 0
M  V30 20452 H 1894.92 4.77871 1.42973 0
M  V30 20453 H 1894.07 4.74143 3.78514 0
M  V30 20454 H 1892.81 3.55942 3.33401 0
M  V30 20455 H 1891.82 5.21767 1.7332 0
M  V30 20456 H 1893.04 6.4208 2.21156 0
M  V30 20457 H 1890.99 5.15118 4.06189 0
M  V30 20458 H 1890.91 6.75148 3.40163 0
M  V30 20459 H 1892.17 6.35002 4.52099 0
M  V30 20460 N 1896.4 -0.183431 1.56529 0
M  V30 20461 C 1897.33 -1.25157 1.92011 0
M  V30 20462 C 1898.35 -1.41107 0.811945 0
M  V30 20463 O 1899.54 -1.41326 1.09038 0
M  V30 20464 C 1896.64 -2.62206 2.14712 0
M  V30 20465 C 1895.81 -2.67712 3.45903 0
M  V30 20466 C 1894.87 -3.86038 3.57576 0
M  V30 20467 O 1893.89 -3.72599 4.30301 0
M  V30 20468 N 1895.1 -5.01988 2.91528 0
M  V30 20469 H 1897.86 -0.950304 2.84235 0
M  V30 20470 H 1895.42 -0.373278 1.57538 0
M  V30 20471 H 1897.41 -3.3981 2.19798 0
M  V30 20472 H 1895.98 -2.84772 1.28932 0
M  V30 20473 H 1895.2 -1.76294 3.52582 0
M  V30 20474 H 1896.49 -2.68392 4.32254 0
M  V30 20475 H 1895.89 -5.15807 2.32292 0
M  V30 20476 H 1894.45 -5.77497 3.02225 0
M  V30 20477 N 1897.88 -1.50992 -0.451564 0
M  V30 20478 C 1898.79 -1.74097 -1.5725 0
M  V30 20479 C 1899.81 -0.624663 -1.62401 0
M  V30 20480 O 1900.98 -0.90528 -1.79907 0
M  V30 20481 C 1898.05 -1.84808 -2.93338 0
M  V30 20482 C 1897.11 -3.08618 -2.98418 0
M  V30 20483 C 1896.34 -3.18808 -4.28015 0
M  V30 20484 O 1896.56 -2.35291 -5.1961 0
M  V30 20485 O 1895.5 -4.11685 -4.39089 0
M  V30 20486 H 1899.32 -2.69156 -1.40673 0
M  V30 20487 H 1896.91 -1.35322 -0.633105 0
M  V30 20488 H 1898.79 -1.9392 -3.7413 0
M  V30 20489 H 1897.47 -0.929344 -3.10072 0
M  V30 20490 H 1896.37 -3.04993 -2.16633 0
M  V30 20491 H 1897.71 -4.00133 -2.86625 0
M  V30 20492 N 1899.36 0.706069 -1.40899 0
M  V30 20493 C 1900.61 1.46604 -1.39691 0
M  V30 20494 C 1900.93 1.945 -0.00244032 0
M  V30 20495 O 1900.19 1.69172 0.983828 0
M  V30 20496 C 1900.49 2.70045 -2.34116 0
M  V30 20497 C 1900.15 2.40863 -3.81177 0
M  V30 20498 C 1898.82 2.32615 -4.21241 0
M  V30 20499 C 1901.17 2.16582 -4.74069 0
M  V30 20500 C 1898.5 1.98167 -5.5222 0
M  V30 20501 C 1900.85 1.83645 -6.05357 0
M  V30 20502 C 1899.51 1.73885 -6.44454 0
M  V30 20503 H 1898.78 0.536463 -0.511164 0
M  V30 20504 H 1901.43 0.807941 -1.73622 0
M  V30 20505 H 1899.73 3.40738 -1.93403 0
M  V30 20506 H 1901.43 3.2816 -2.3046 0
M  V30 20507 H 1898.02 2.48173 -3.49439 0
M  V30 20508 H 1902.2 2.21905 -4.43928 0
M  V30 20509 H 1897.46 1.89155 -5.81404 0
M  V30 20510 H 1901.63 1.63873 -6.76845 0
M  V30 20511 H 1899.26 1.46959 -7.4586 0
M  V30 20512 N 1900.84 1.26553 0.939264 0
M  V30 20513 C 1902.08 1.11989 1.68235 0
M  V30 20514 C 1902.41 -0.336993 1.92066 0
M  V30 20515 O 1901.68 -1.23742 1.51871 0
M  V30 20516 H 1900.26 0.41144 0.623479 0
M  V30 20517 H 1902.92 1.58909 1.12845 0
M  V30 20518 H 1902.01 1.64011 2.65531 0
M  V30 20519 N 1902.31 -1.14411 1.08387 0
M  V30 20520 C 1903.56 -1.84792 0.808372 0
M  V30 20521 C 1903.88 -1.83833 -0.668195 0
M  V30 20522 O 1905.08 -2.50001 -1.05885 0
M  V30 20523 C 1903.54 -3.31718 1.3961 0
M  V30 20524 C 1903.15 -3.41095 2.90444 0
M  V30 20525 C 1904.89 -4.07213 1.19908 0
M  V30 20526 C 1902.8 -4.82231 3.42356 0
M  V30 20527 H 1901.73 -0.692298 0.29873 0
M  V30 20528 H 1904.38 -1.28977 1.30526 0
M  V30 20529 H 1902.76 -3.8727 0.826924 0
M  V30 20530 H 1903.93 -2.95595 3.53497 0
M  V30 20531 H 1902.25 -2.79056 3.09058 0
M  V30 20532 H 1904.85 -5.11389 1.56158 0
M  V30 20533 H 1905.19 -4.16068 0.138882 0
M  V30 20534 H 1905.72 -3.57961 1.73519 0
M  V30 20535 H 1902.46 -4.78563 4.47948 0
M  V30 20536 H 1901.98 -5.2827 2.84062 0
M  V30 20537 H 1903.66 -5.5112 3.38933 0
M  V30 20538 N 1903.79 -0.869509 -1.31443 0
M  V30 20539 C 1905.2 -0.532842 -1.78935 0
M  V30 20540 C 1905.55 0.95022 -1.71654 0
M  V30 20541 O 1904.68 1.74189 -1.28402 0
M  V30 20542 C 1905.27 -0.960439 -3.24902 0
M  V30 20543 C 1903.83 -0.675436 -3.7029 0
M  V30 20544 C 1902.98 -1.15201 -2.52238 0
M  V30 20545 H 1905.93 -1.05527 -1.18531 0
M  V30 20546 H 1905.95 -0.282921 -3.79447 0
M  V30 20547 H 1905.46 -2.03986 -3.30168 0
M  V30 20548 H 1903.57 0.392647 -3.70525 0
M  V30 20549 H 1903.68 -1.25214 -4.62448 0
M  V30 20550 H 1902.04 -0.571786 -2.48199 0
M  V30 20551 H 1902.83 -2.23885 -2.60251 0
M  V30 20552 N 1905.27 1.44508 -0.628902 0
M  V30 20553 C 1906.5 2.0613 -0.139308 0
M  V30 20554 C 1906.91 1.47055 1.19044 0
M  V30 20555 O 1906.25 0.587051 1.74067 0
M  V30 20556 C 1906.31 3.59462 0.0521977 0
M  V30 20557 C 1905.98 4.4099 -1.19904 0
M  V30 20558 C 1906.97 4.74613 -2.12222 0
M  V30 20559 C 1904.66 4.81401 -1.43383 0
M  V30 20560 C 1906.65 5.47528 -3.26332 0
M  V30 20561 C 1904.34 5.54065 -2.5779 0
M  V30 20562 C 1905.34 5.87047 -3.49091 0
M  V30 20563 O 1905.03 6.58233 -4.61503 0
M  V30 20564 H 1904.76 0.671728 -0.0758762 0
M  V30 20565 H 1907.31 1.86402 -0.862745 0
M  V30 20566 H 1905.54 3.77671 0.830756 0
M  V30 20567 H 1907.23 4.02857 0.496066 0
M  V30 20568 H 1908 4.43933 -1.95316 0
M  V30 20569 H 1903.88 4.5515 -0.73209 0
M  V30 20570 H 1907.42 5.7319 -3.97617 0
M  V30 20571 H 1903.32 5.8416 -2.7464 0
M  V30 20572 H 1904.09 6.767 -4.60456 0
M  V30 20573 N 1906.75 0.369315 1.53212 0
M  V30 20574 C 1907.7 -0.490481 2.2737 0
M  V30 20575 C 1908.69 -1.08021 1.30491 0
M  V30 20576 O 1909.9 -1.02298 1.48105 0
M  V30 20577 H 1906.27 -0.176899 0.730897 0
M  V30 20578 H 1908.24 0.156696 2.97988 0
M  V30 20579 C 1906.99 -1.61628 3.0785 0
M  V30 20580 H 1906.32 -1.1718 3.82242 0
M  V30 20581 H 1907.76 -2.19252 3.62911 0
M  V30 20582 C 1906.21 -2.56077 2.18921 0
M  V30 20583 O 1906.74 -3.58988 1.80251 0
M  V30 20584 N 1904.95 -2.25352 1.83479 0
M  V30 20585 H 1904.5 -1.41701 2.15124 0
M  V30 20586 H 1904.46 -2.888 1.24264 0
M  V30 20587 N 1908.23 -1.57291 0.0985816 0
M  V30 20588 C 1909.64 -1.81681 -0.430009 0
M  V30 20589 C 1909.99 -1.01443 -1.6794 0
M  V30 20590 O 1909.11 -0.244848 -2.1501 0
M  V30 20591 C 1909.71 -3.29535 -0.786919 0
M  V30 20592 C 1908.27 -3.54676 -1.26024 0
M  V30 20593 C 1907.42 -2.76091 -0.258642 0
M  V30 20594 H 1910.37 -1.55358 0.323982 0
M  V30 20595 H 1910.39 -3.43048 -1.64616 0
M  V30 20596 H 1909.9 -3.87906 0.122591 0
M  V30 20597 H 1908 -3.01639 -2.18734 0
M  V30 20598 H 1908.11 -4.63315 -1.21967 0
M  V30 20599 H 1906.48 -2.43667 -0.741507 0
M  V30 20600 H 1907.26 -3.37213 0.643607 0
M  V30 20601 N 1909.71 0.175127 -1.56624 0
M  V30 20602 C 1910.64 1.24137 -1.92672 0
M  V30 20603 C 1911.65 1.40675 -0.819417 0
M  V30 20604 O 1912.84 1.40746 -1.09786 0
M  V30 20605 C 1909.94 2.61063 -2.161 0
M  V30 20606 C 1909.11 2.65874 -3.47318 0
M  V30 20607 C 1908.17 3.84136 -3.59619 0
M  V30 20608 O 1907.2 3.70311 -4.32271 0
M  V30 20609 N 1908.4 5.00435 -2.94186 0
M  V30 20610 H 1911.16 0.935217 -2.84735 0
M  V30 20611 H 1908.73 0.364919 -1.57734 0
M  V30 20612 H 1910.72 3.38639 -2.21597 0
M  V30 20613 H 1909.29 2.84085 -1.3044 0
M  V30 20614 H 1908.51 1.74422 -3.53512 0
M  V30 20615 H 1909.8 2.66096 -4.33671 0
M  V30 20616 H 1909.19 5.14568 -2.35024 0
M  V30 20617 H 1907.75 5.75886 -3.05284 0
M  V30 20618 N 1911.18 1.5123 0.44355 0
M  V30 20619 C 1912.41 1.67671 1.2207 0
M  V30 20620 C 1912.83 0.370934 1.84406 0
M  V30 20621 O 1912.19 -0.668265 1.68535 0
M  V30 20622 C 1912.24 2.7896 2.28503 0
M  V30 20623 O 1911.34 2.4213 3.33837 0
M  V30 20624 H 1910.68 0.559275 0.357921 0
M  V30 20625 H 1913.21 1.9776 0.524592 0
M  V30 20626 H 1913.22 3.0286 2.73386 0
M  V30 20627 H 1911.9 3.73716 1.82509 0
M  V30 20628 H 1910.48 2.28779 2.94473 0
M  V30 20629 N 1912.66 -0.698586 1.41271 0
M  V30 20630 C 1913.59 -1.82385 1.38811 0
M  V30 20631 C 1914.61 -1.60183 0.290752 0
M  V30 20632 O 1915.8 -1.69742 0.552272 0
M  V30 20633 C 1912.9 -3.19095 1.14155 0
M  V30 20634 C 1912.07 -3.68352 2.35872 0
M  V30 20635 C 1911.13 -4.83723 2.07119 0
M  V30 20636 O 1910.15 -4.95495 2.80132 0
M  V30 20637 N 1911.36 -5.70748 1.05958 0
M  V30 20638 H 1914.12 -1.84989 2.35795 0
M  V30 20639 H 1911.68 -0.880792 1.35844 0
M  V30 20640 H 1913.67 -3.93899 0.928763 0
M  V30 20641 H 1912.24 -3.11535 0.257783 0
M  V30 20642 H 1911.46 -2.8449 2.72872 0
M  V30 20643 H 1912.75 -3.97999 3.16977 0
M  V30 20644 H 1912.15 -5.63865 0.455223 0
M  V30 20645 H 1910.71 -6.45463 0.906689 0
M  V30 20646 N 1914.14 -1.27049 -0.93254 0
M  V30 20647 C 1915.39 -1.12879 -1.67639 0
M  V30 20648 C 1915.71 0.326803 -1.92242 0
M  V30 20649 O 1914.98 1.22934 -1.52525 0
M  V30 20650 H 1913.56 -0.414741 -0.621288 0
M  V30 20651 H 1916.22 -1.59505 -1.12 0
M  V30 20652 H 1915.32 -1.65417 -2.64658 0
M  V30 20653 N 1915.62 1.13835 -1.08993 0
M  V30 20654 C 1916.86 1.85284 -0.824476 0
M  V30 20655 C 1917.2 1.83062 0.648235 0
M  V30 20656 O 1916.47 1.26555 1.47696 0
M  V30 20657 C 1916.75 3.33649 -1.35463 0
M  V30 20658 C 1916.61 3.44411 -2.89312 0
M  V30 20659 C 1917.93 4.28941 -0.984768 0
M  V30 20660 H 1915.05 0.672745 -0.300971 0
M  V30 20661 H 1917.69 1.3364 -1.35057 0
M  V30 20662 H 1915.84 3.77761 -0.907128 0
M  V30 20663 H 1917.51 3.09043 -3.42477 0
M  V30 20664 H 1915.75 2.85429 -3.26669 0
M  V30 20665 H 1916.42 4.48724 -3.21481 0
M  V30 20666 H 1918.9 3.92877 -1.37064 0
M  V30 20667 H 1917.78 5.31196 -1.38283 0
M  V30 20668 H 1918.04 4.41969 0.10755 0
M  V30 20669 N 1917.1 0.876467 1.3098 0
M  V30 20670 C 1918.34 0.491367 1.96757 0
M  V30 20671 C 1918.67 -0.955274 1.6908 0
M  V30 20672 O 1917.95 -1.6737 0.990843 0
M  V30 20673 C 1918.23 0.756745 3.52059 0
M  V30 20674 C 1918.09 2.25339 3.89284 0
M  V30 20675 C 1919.4 0.227549 4.39511 0
M  V30 20676 H 1916.52 0.179998 0.714681 0
M  V30 20677 H 1919.17 1.0989 1.54997 0
M  V30 20678 H 1917.32 0.239657 3.8776 0
M  V30 20679 H 1918.99 2.83824 3.63651 0
M  V30 20680 H 1917.23 2.72341 3.37658 0
M  V30 20681 H 1917.9 2.38971 4.97591 0
M  V30 20682 H 1920.38 0.670016 4.1067 0
M  V30 20683 H 1919.25 0.442629 5.47112 0
M  V30 20684 H 1919.51 -0.870833 4.33438 0
M  V30 20685 N 1918.57 -1.44173 0.636557 0
M  V30 20686 C 1919.48 -2.34507 -0.0661877 0
M  V30 20687 C 1920.5 -1.52931 -0.829947 0
M  V30 20688 O 1921.68 -1.85641 -0.780979 0
M  V30 20689 C 1918.74 -3.30987 -1.03191 0
M  V30 20690 C 1917.8 -4.28469 -0.266924 0
M  V30 20691 C 1917.03 -5.20341 -1.18664 0
M  V30 20692 O 1917.26 -5.1626 -2.42552 0
M  V30 20693 O 1916.19 -5.98181 -0.668035 0
M  V30 20694 H 1920.02 -2.9606 0.676932 0
M  V30 20695 H 1917.6 -1.44036 0.396744 0
M  V30 20696 H 1919.48 -3.9036 -1.58736 0
M  V30 20697 H 1918.16 -2.7196 -1.75555 0
M  V30 20698 H 1917.07 -3.72627 0.331702 0
M  V30 20699 H 1918.4 -4.90432 0.416803 0
M  V30 20700 N 1920.05 -0.377435 -1.53014 0
M  V30 20701 C 1921.28 0.211512 -2.06319 0
M  V30 20702 C 1921.7 1.40713 -1.24825 0
M  V30 20703 O 1921.06 1.79274 -0.270279 0
M  V30 20704 C 1921.11 0.571512 -3.56042 0
M  V30 20705 O 1920.21 1.66713 -3.77201 0
M  V30 20706 H 1919.55 0.0279862 -0.66341 0
M  V30 20707 H 1922.08 -0.541471 -1.97305 0
M  V30 20708 H 1922.09 0.839182 -3.99277 0
M  V30 20709 H 1920.77 -0.302672 -4.14797 0
M  V30 20710 H 1919.34 1.3941 -3.4586 0
M  V30 20711 N 1921.53 1.57237 -0.106922 0
M  V30 20712 C 1922.46 2.10354 0.884666 0
M  V30 20713 C 1923.44 1.01696 1.26873 0
M  V30 20714 O 1924.63 1.29272 1.3719 0
M  V30 20715 C 1921.75 2.59029 2.18223 0
M  V30 20716 C 1920.8 3.79458 1.94715 0
M  V30 20717 S 1921.63 5.22464 1.17439 0
M  V30 20718 C 1922.79 5.74498 2.48401 0
M  V30 20719 H 1923.02 2.94132 0.432824 0
M  V30 20720 H 1920.55 1.54031 0.106612 0
M  V30 20721 H 1922.51 2.87729 2.92783 0
M  V30 20722 H 1921.17 1.75455 2.60527 0
M  V30 20723 H 1920.37 4.11624 2.9083 0
M  V30 20724 H 1919.97 3.51312 1.2828 0
M  V30 20725 H 1922.26 5.83486 3.44312 0
M  V30 20726 H 1923.2 6.72796 2.20797 0
M  V30 20727 H 1923.61 5.02494 2.57215 0
M  V30 20728 N 1923.01 -0.166818 1.56715 0
M  V30 20729 C 1923.96 -1.22576 1.97681 0
M  V30 20730 C 1924.95 -1.45578 0.866218 0
M  V30 20731 O 1926.16 -1.46105 1.05135 0
M  V30 20732 H 1922.53 -0.412144 0.629 0
M  V30 20733 H 1924.5 -0.853418 2.85936 0
M  V30 20734 C 1923.25 -2.55649 2.35667 0
M  V30 20735 H 1922.57 -2.38774 3.20666 0
M  V30 20736 H 1924.01 -3.28421 2.68171 0
M  V30 20737 C 1922.47 -3.14737 1.20177 0
M  V30 20738 O 1923 -3.98678 0.491844 0
M  V30 20739 N 1921.21 -2.73892 0.971164 0
M  V30 20740 H 1920.76 -2.05732 1.55023 0
M  V30 20741 H 1920.71 -3.13761 0.20029 0
M  V30 20742 N 1924.49 -1.51463 -0.435524 0
M  V30 20743 C 1925.43 -1.72908 -1.52877 0
M  V30 20744 C 1926.4 -0.570809 -1.55984 0
M  V30 20745 O 1927.59 -0.805443 -1.72966 0
M  V30 20746 C 1924.73 -1.8617 -2.90576 0
M  V30 20747 C 1923.84 -3.13726 -2.96985 0
M  V30 20748 C 1922.98 -3.17573 -4.25818 0
M  V30 20749 C 1922.02 -4.39437 -4.26101 0
M  V30 20750 N 1921.15 -4.40823 -5.46461 0
M  V30 20751 H 1925.99 -2.66226 -1.33894 0
M  V30 20752 H 1923.53 -1.3194 -0.650399 0
M  V30 20753 H 1925.49 -1.91841 -3.70476 0
M  V30 20754 H 1924.12 -0.962585 -3.08114 0
M  V30 20755 H 1923.17 -3.17356 -2.09737 0
M  V30 20756 H 1924.48 -4.03634 -2.93055 0
M  V30 20757 H 1923.64 -3.2217 -5.14093 0
M  V30 20758 H 1922.37 -2.25558 -4.32406 0
M  V30 20759 H 1921.38 -4.35014 -3.36219 0
M  V30 20760 H 1922.6 -5.32718 -4.21175 0
M  V30 20761 H 1920.55 -3.51679 -5.53767 0
M  V30 20762 H 1920.47 -5.24541 -5.44419 0
M  V30 20763 H 1921.74 -4.49615 -6.36763 0
M  V30 20764 N 1925.96 0.691085 -1.4164 0
M  V30 20765 C 1926.87 1.83467 -1.46209 0
M  V30 20766 C 1927.89 1.70397 -0.352267 0
M  V30 20767 O 1929.07 1.92234 -0.60068 0
M  V30 20768 C 1926.13 3.19485 -1.34648 0
M  V30 20769 C 1925.19 3.44631 -2.55984 0
M  V30 20770 C 1924.43 4.7416 -2.44964 0
M  V30 20771 O 1924.65 5.50955 -1.47664 0
M  V30 20772 O 1923.58 5.0019 -3.34804 0
M  V30 20773 H 1927.41 1.82568 -2.42698 0
M  V30 20774 H 1924.99 0.844729 -1.23226 0
M  V30 20775 H 1926.88 4.00684 -1.30501 0
M  V30 20776 H 1925.55 3.21058 -0.41276 0
M  V30 20777 H 1924.46 2.63345 -2.65707 0
M  V30 20778 H 1925.79 3.47877 -3.48199 0
M  V30 20779 N 1927.44 1.27542 0.925789 0
M  V30 20780 C 1928.37 1.12952 2.04363 0
M  V30 20781 C 1929.35 0.0304761 1.70073 0
M  V30 20782 O 1930.54 0.205307 1.93112 0
M  V30 20783 C 1927.67 0.777954 3.38475 0
M  V30 20784 C 1926.62 1.83044 3.86883 0
M  V30 20785 C 1925.95 1.3328 5.17823 0
M  V30 20786 C 1927.25 3.23488 4.10065 0
M  V30 20787 H 1928.94 2.06462 2.16827 0
M  V30 20788 H 1926.49 0.994046 1.04186 0
M  V30 20789 H 1928.44 0.662702 4.16156 0
M  V30 20790 H 1927.17 -0.192851 3.2603 0
M  V30 20791 H 1925.82 1.93463 3.11396 0
M  V30 20792 H 1925.47 0.351399 5.01771 0
M  V30 20793 H 1925.17 2.03648 5.51182 0
M  V30 20794 H 1926.7 1.23053 5.98072 0
M  V30 20795 H 1928.11 3.16058 4.7831 0
M  V30 20796 H 1926.51 3.91583 4.54734 0
M  V30 20797 H 1927.58 3.68399 3.15293 0
M  V30 20798 N 1928.92 -1.13255 1.09595 0
M  V30 20799 C 1929.87 -2.1872 0.736907 0
M  V30 20800 C 1930.84 -1.63677 -0.282692 0
M  V30 20801 O 1932.02 -1.90094 -0.163936 0
M  V30 20802 C 1929.16 -3.44703 0.165494 0
M  V30 20803 C 1928.28 -4.13841 1.23934 0
M  V30 20804 C 1927.41 -5.27445 0.630499 0
M  V30 20805 C 1926.45 -5.88435 1.68554 0
M  V30 20806 N 1925.59 -6.93468 1.09759 0
M  V30 20807 H 1930.43 -2.48779 1.64052 0
M  V30 20808 H 1927.96 -1.22152 0.819597 0
M  V30 20809 H 1929.92 -4.16796 -0.183618 0
M  V30 20810 H 1928.55 -3.15088 -0.701377 0
M  V30 20811 H 1927.6 -3.40014 1.70571 0
M  V30 20812 H 1928.92 -4.5525 2.03834 0
M  V30 20813 H 1928.07 -6.06263 0.230332 0
M  V30 20814 H 1926.81 -4.8729 -0.200028 0
M  V30 20815 H 1925.81 -5.08311 2.09523 0
M  V30 20816 H 1927.04 -6.30663 2.51876 0
M  V30 20817 H 1924.98 -6.55366 0.288376 0
M  V30 20818 H 1924.9 -7.33429 1.83353 0
M  V30 20819 H 1926.17 -7.76133 0.723688 0
M  V30 20820 N 1930.4 -0.883401 -1.30514 0
M  V30 20821 C 1931.35 -0.347254 -2.28173 0
M  V30 20822 C 1932.32 0.561698 -1.56314 0
M  V30 20823 O 1933.5 0.490454 -1.84389 0
M  V30 20824 C 1930.64 0.433573 -3.42366 0
M  V30 20825 C 1929.75 -0.504417 -4.29045 0
M  V30 20826 C 1928.89 0.291853 -5.30398 0
M  V30 20827 C 1927.93 -0.641708 -6.08727 0
M  V30 20828 N 1927.06 0.119139 -7.01999 0
M  V30 20829 H 1931.9 -1.1852 -2.73417 0
M  V30 20830 H 1929.44 -0.595824 -1.34493 0
M  V30 20831 H 1931.4 0.902186 -4.07328 0
M  V30 20832 H 1930.03 1.23611 -2.98195 0
M  V30 20833 H 1929.08 -1.09152 -3.64404 0
M  V30 20834 H 1930.39 -1.21969 -4.83658 0
M  V30 20835 H 1929.55 0.822389 -6.011 0
M  V30 20836 H 1928.29 1.04035 -4.76475 0
M  V30 20837 H 1927.29 -1.18389 -5.36902 0
M  V30 20838 H 1928.52 -1.38927 -6.64738 0
M  V30 20839 H 1926.46 0.850204 -6.50467 0
M  V30 20840 H 1926.38 -0.536537 -7.54094 0
M  V30 20841 H 1927.65 0.63047 -7.76946 0
M  V30 20842 N 1931.88 1.43833 -0.644194 0
M  V30 20843 C 1933.13 2.01132 -0.151307 0
M  V30 20844 C 1933.44 1.51363 1.23889 0
M  V30 20845 O 1934.64 2.00876 1.8265 0
M  V30 20846 C 1933.1 3.59229 -0.219714 0
M  V30 20847 C 1932.71 4.17992 -1.61204 0
M  V30 20848 C 1934.45 4.2395 0.216034 0
M  V30 20849 C 1932.36 5.68354 -1.63486 0
M  V30 20850 H 1931.29 0.752149 -0.052802 0
M  V30 20851 H 1933.94 1.64904 -0.804907 0
M  V30 20852 H 1932.32 3.92815 0.501229 0
M  V30 20853 H 1933.5 3.95921 -2.35761 0
M  V30 20854 H 1931.81 3.65608 -1.99299 0
M  V30 20855 H 1934.41 5.34253 0.218703 0
M  V30 20856 H 1934.75 3.97222 1.24581 0
M  V30 20857 H 1935.28 3.95214 -0.452852 0
M  V30 20858 H 1932.02 5.99836 -2.64343 0
M  V30 20859 H 1931.54 5.92508 -0.93241 0
M  V30 20860 H 1933.22 6.3223 -1.37458 0
M  V30 20861 N 1933.35 0.385544 1.52811 0
M  V30 20862 C 1934.6 -0.19907 2.00715 0
M  V30 20863 C 1934.92 -1.48216 1.27638 0
M  V30 20864 O 1936.12 -2.14659 1.66234 0
M  V30 20865 C 1934.58 -0.405311 3.5761 0
M  V30 20866 C 1934.19 0.864306 4.39584 0
M  V30 20867 C 1935.93 -0.946495 4.13814 0
M  V30 20868 C 1933.84 0.626551 5.88072 0
M  V30 20869 H 1932.77 -0.0781676 0.749937 0
M  V30 20870 H 1935.42 0.507365 1.76346 0
M  V30 20871 H 1933.8 -1.1735 3.78213 0
M  V30 20872 H 1934.97 1.63683 4.30749 0
M  V30 20873 H 1933.29 1.33017 3.94583 0
M  V30 20874 H 1935.89 -1.14002 5.22406 0
M  V30 20875 H 1936.23 -1.91447 3.69667 0
M  V30 20876 H 1936.76 -0.23797 3.97088 0
M  V30 20877 H 1933.5 1.56542 6.36534 0
M  V30 20878 H 1933.02 -0.107102 5.99704 0
M  V30 20879 H 1934.7 0.259654 6.46479 0
M  V30 20880 N 1934.83 -1.57178 0.115259 0
M  V30 20881 C 1936.08 -1.94681 -0.542571 0
M  V30 20882 C 1936.4 -0.999211 -1.67454 0
M  V30 20883 O 1935.67 -0.054836 -1.95823 0
M  V30 20884 H 1934.25 -0.718769 -0.203421 0
M  V30 20885 H 1936.91 -1.94036 0.183323 0
M  V30 20886 H 1936.01 -2.9762 -0.939599 0
M  V30 20887 N 1936.31 0.158505 -1.56801 0
M  V30 20888 C 1937.24 1.22086 -1.93978 0
M  V30 20889 C 1938.26 1.39798 -0.834291 0
M  V30 20890 O 1939.45 1.39573 -1.11272 0
M  V30 20891 C 1936.55 2.58757 -2.18857 0
M  V30 20892 C 1935.72 2.62175 -3.50118 0
M  V30 20893 C 1934.78 3.80301 -3.63673 0
M  V30 20894 O 1933.8 3.65706 -4.36174 0
M  V30 20895 N 1935.01 4.97286 -2.99477 0
M  V30 20896 H 1937.77 0.904964 -2.8571 0
M  V30 20897 H 1935.33 0.348168 -1.58112 0
M  V30 20898 H 1937.32 3.3627 -2.25177 0
M  V30 20899 H 1935.89 2.82685 -1.33446 0
M  V30 20900 H 1935.11 1.70662 -3.55342 0
M  V30 20901 H 1936.4 2.61481 -4.36469 0
M  V30 20902 H 1935.8 5.12046 -2.40469 0
M  V30 20903 H 1934.36 5.72616 -3.11375 0
M  V30 20904 N 1937.79 1.51692 0.427485 0
M  V30 20905 C 1939.04 1.65091 1.17782 0
M  V30 20906 C 1939.37 0.370783 1.90627 0
M  V30 20907 O 1938.64 -0.630065 1.84012 0
M  V30 20908 C 1938.93 2.86083 2.18697 0
M  V30 20909 C 1938.78 4.24098 1.4987 0
M  V30 20910 C 1940.1 3.0259 3.19573 0
M  V30 20911 H 1937.22 0.600817 0.426835 0
M  V30 20912 H 1939.86 1.84202 0.46581 0
M  V30 20913 H 1938.01 2.6992 2.79419 0
M  V30 20914 H 1939.68 4.51949 0.924093 0
M  V30 20915 H 1937.92 4.26343 0.800894 0
M  V30 20916 H 1938.6 5.04768 2.23413 0
M  V30 20917 H 1941.07 3.17529 2.68914 0
M  V30 20918 H 1939.95 3.88794 3.87467 0
M  V30 20919 H 1940.21 2.15093 3.86248 0
M  V30 20920 N 1939.27 -0.683564 1.42004 0
M  V30 20921 C 1940.68 -0.99563 1.24737 0
M  V30 20922 C 1940.88 -2.00976 0.145285 0
M  V30 20923 O 1939.94 -2.47771 -0.486376 0
M  V30 20924 C 1941.25 -1.50879 2.60108 0
M  V30 20925 C 1942.8 -1.62701 2.6739 0
M  V30 20926 C 1943.28 -2.17416 4.03106 0
M  V30 20927 N 1944.77 -2.24761 4.05015 0
M  V30 20928 C 1945.5 -2.68151 5.06836 0
M  V30 20929 N 1945 -3.11059 6.19043 0
M  V30 20930 N 1946.79 -2.67822 4.94194 0
M  V30 20931 H 1938.94 -0.011962 2.12397 0
M  V30 20932 H 1941.2 -0.0678489 0.945569 0
M  V30 20933 H 1940.91 -0.838159 3.41567 0
M  V30 20934 H 1940.78 -2.48899 2.83424 0
M  V30 20935 H 1943.17 -2.28873 1.86282 0
M  V30 20936 H 1943.25 -0.631947 2.47871 0
M  V30 20937 H 1942.9 -1.51856 4.84667 0
M  V30 20938 H 1942.83 -3.17698 4.19971 0
M  V30 20939 H 1945.32 -1.94497 3.24005 0
M  V30 20940 H 1945.63 -3.42828 6.92596 0
M  V30 20941 H 1943.98 -3.08937 6.22561 0
M  V30 20942 H 1947.17 -2.33658 4.05613 0
M  V30 20943 H 1947.34 -3.01318 5.73682 0
M  V30 20944 N 1940.75 -1.28031 -0.919012 0
M  V30 20945 C 1942.02 -1.05588 -1.64653 0
M  V30 20946 C 1942.4 0.406513 -2.07149 0
M  V30 20947 O 1941.75 1.39153 -1.81242 0
M  V30 20948 C 1941.96 -2.0256 -2.84202 0
M  V30 20949 C 1943.31 -2.32414 -3.55343 0
M  V30 20950 O 1944.33 -2.00602 -2.94342 0
M  V30 20951 O 1943.19 -2.86683 -4.65269 0
M  V30 20952 H 1940.29 -0.40316 -0.722074 0
M  V30 20953 H 1942.83 -1.3933 -0.968781 0
M  V30 20954 H 1941.6 -3.01146 -2.49853 0
M  V30 20955 H 1941.23 -1.69433 -3.59692 0
M  V30 20956 N 1942.22 1.12672 -1.10194 0
M  V30 20957 C 1943.16 2.18045 -0.706344 0
M  V30 20958 C 1944.17 1.60779 0.25571 0
M  V30 20959 O 1945.36 1.78454 0.0405568 0
M  V30 20960 C 1942.46 3.38893 -0.021273 0
M  V30 20961 C 1941.63 4.25654 -1.00687 0
M  V30 20962 C 1940.69 5.2501 -0.353745 0
M  V30 20963 O 1939.72 5.60279 -1.00378 0
M  V30 20964 N 1940.92 5.73655 0.888851 0
M  V30 20965 H 1943.68 2.52596 -1.61293 0
M  V30 20966 H 1941.24 1.28071 -0.990431 0
M  V30 20967 H 1943.24 4.0244 0.427064 0
M  V30 20968 H 1941.81 3.02513 0.787681 0
M  V30 20969 H 1941.03 3.5876 -1.63354 0
M  V30 20970 H 1942.31 4.8047 -1.67411 0
M  V30 20971 H 1941.71 5.4716 1.43638 0
M  V30 20972 H 1940.27 6.39101 1.28038 0
M  V30 20973 N 1943.7 0.89031 1.30043 0
M  V30 20974 C 1944.66 0.365912 2.2626 0
M  V30 20975 C 1945.66 -0.494616 1.53004 0
M  V30 20976 O 1946.85 -0.301009 1.7158 0
M  V30 20977 C 1943.99 -0.477952 3.37533 0
M  V30 20978 H 1945.18 1.21557 2.7416 0
M  V30 20979 H 1942.73 0.667628 1.41324 0
M  V30 20980 H 1943.47 -1.34798 2.94958 0
M  V30 20981 H 1943.25 0.138514 3.91855 0
M  V30 20982 H 1944.74 -0.836463 4.09137 0
M  V30 20983 N 1945.18 -1.43489 0.651812 0
M  V30 20984 C 1946.09 -2.34564 -0.0413115 0
M  V30 20985 C 1947.11 -1.53803 -0.81368 0
M  V30 20986 O 1948.28 -1.86459 -0.761246 0
M  V30 20987 C 1945.35 -3.32063 -0.996745 0
M  V30 20988 C 1944.41 -4.28728 -0.221464 0
M  V30 20989 C 1943.64 -5.2157 -1.13139 0
M  V30 20990 O 1943.86 -5.18804 -2.37062 0
M  V30 20991 O 1942.8 -5.98856 -0.604552 0
M  V30 20992 H 1946.62 -2.95325 0.708295 0
M  V30 20993 H 1944.21 -1.43607 0.411999 0
M  V30 20994 H 1946.09 -3.92022 -1.54586 0
M  V30 20995 H 1944.77 -2.73807 -1.7266 0
M  V30 20996 H 1943.67 -3.72254 0.371205 0
M  V30 20997 H 1945.01 -4.89962 0.468797 0
M  V30 20998 N 1946.66 -0.393643 -1.52605 0
M  V30 20999 C 1947.61 0.456438 -2.23385 0
M  V30 21000 C 1948.59 1.02612 -1.23934 0
M  V30 21001 O 1949.78 0.951501 -1.4925 0
M  V30 21002 C 1946.91 1.58088 -3.04734 0
M  V30 21003 C 1946 1.02273 -4.11584 0
M  V30 21004 N 1946.39 0.189903 -5.05443 0
M  V30 21005 C 1944.69 1.2948 -4.26792 0
M  V30 21006 C 1945.39 -0.118927 -5.81578 0
M  V30 21007 N 1944.36 0.486165 -5.41422 0
M  V30 21008 H 1948.17 -0.186343 -2.93309 0
M  V30 21009 H 1945.68 -0.203191 -1.61124 0
M  V30 21010 H 1947.68 2.20233 -3.53982 0
M  V30 21011 H 1946.34 2.22644 -2.36346 0
M  V30 21012 H 1947.35 -0.173185 -5.1761 0
M  V30 21013 H 1944.03 1.94108 -3.69633 0
M  V30 21014 H 1945.42 -0.79398 -6.67192 0
M  V30 21015 N 1948.14 1.57115 -0.123593 0
M  V30 21016 C 1949.07 2.18573 0.821462 0
M  V30 21017 C 1950.05 1.1271 1.27399 0
M  V30 21018 O 1951.23 1.40964 1.33577 0
M  V30 21019 C 1948.36 2.78879 2.06987 0
M  V30 21020 C 1947.32 3.90365 1.75497 0
M  V30 21021 C 1946.64 4.37499 3.07406 0
M  V30 21022 C 1947.94 5.12249 1.01972 0
M  V30 21023 H 1949.64 2.97798 0.309319 0
M  V30 21024 H 1947.18 1.43244 0.147338 0
M  V30 21025 H 1949.13 3.20534 2.73562 0
M  V30 21026 H 1947.86 1.96951 2.60534 0
M  V30 21027 H 1946.52 3.49293 1.1131 0
M  V30 21028 H 1946.17 3.52424 3.58896 0
M  V30 21029 H 1945.87 5.12682 2.87108 0
M  V30 21030 H 1947.39 4.81808 3.75091 0
M  V30 21031 H 1948.8 5.50894 1.58709 0
M  V30 21032 H 1947.2 5.93044 0.917526 0
M  V30 21033 H 1948.27 4.84899 0.00726173 0
M  V30 21034 N 1949.61 -0.150187 1.56883 0
M  V30 21035 C 1950.56 -1.18552 1.98025 0
M  V30 21036 C 1951.53 -1.42861 0.847353 0
M  V30 21037 O 1952.72 -1.55249 1.10917 0
M  V30 21038 C 1949.86 -2.51479 2.36331 0
M  V30 21039 C 1948.97 -2.34371 3.62897 0
M  V30 21040 C 1948.1 -3.60311 3.9032 0
M  V30 21041 C 1947.14 -3.38226 5.10166 0
M  V30 21042 N 1946.28 -4.56289 5.33615 0
M  V30 21043 H 1951.12 -0.827667 2.86276 0
M  V30 21044 H 1948.66 -0.397238 1.41635 0
M  V30 21045 H 1950.61 -3.28981 2.56568 0
M  V30 21046 H 1949.24 -2.85218 1.51164 0
M  V30 21047 H 1948.3 -1.47939 3.50454 0
M  V30 21048 H 1949.61 -2.1401 4.50556 0
M  V30 21049 H 1948.76 -4.46243 4.11038 0
M  V30 21050 H 1947.5 -3.83672 3.01076 0
M  V30 21051 H 1946.51 -2.50682 4.89324 0
M  V30 21052 H 1947.73 -3.16266 6.0096 0
M  V30 21053 H 1945.68 -4.79829 4.47325 0
M  V30 21054 H 1945.59 -4.38919 6.15537 0
M  V30 21055 H 1946.86 -5.43443 5.58829 0
M  V30 21056 N 1951.09 -1.51916 -0.419434 0
M  V30 21057 C 1952.32 -1.69302 -1.1893 0
M  V30 21058 C 1952.74 -0.398024 -1.84557 0
M  V30 21059 O 1952.09 0.625083 -1.71461 0
M  V30 21060 C 1952.14 -2.82139 -2.26009 0
M  V30 21061 O 1951.86 -4.06623 -1.63064 0
M  V30 21062 C 1953.37 -3.10947 -3.15954 0
M  V30 21063 H 1950.59 -0.567657 -0.357781 0
M  V30 21064 H 1953.13 -1.98424 -0.494807 0
M  V30 21065 H 1951.28 -2.55565 -2.91144 0
M  V30 21066 H 1951.7 -4.69423 -2.33971 0
M  V30 21067 H 1953.17 -3.93438 -3.87183 0
M  V30 21068 H 1953.65 -2.24078 -3.77738 0
M  V30 21069 H 1954.26 -3.39246 -2.56499 0
M  V30 21070 N 1952.57 0.676023 -1.42365 0
M  V30 21071 C 1953.53 1.77138 -1.45446 0
M  V30 21072 C 1954.53 1.57116 -0.342226 0
M  V30 21073 O 1955.72 1.63431 -0.602999 0
M  V30 21074 C 1952.86 3.15757 -1.28492 0
M  V30 21075 H 1954.05 1.75794 -2.42974 0
M  V30 21076 H 1951.6 0.885538 -1.28794 0
M  V30 21077 H 1952.34 3.22729 -0.318815 0
M  V30 21078 H 1952.12 3.31694 -2.09097 0
M  V30 21079 H 1953.61 3.95677 -1.33528 0
M  V30 21080 N 1954.05 1.28517 0.912209 0
M  V30 21081 C 1955.29 1.15932 1.66396 0
M  V30 21082 C 1955.63 -0.291123 1.92006 0
M  V30 21083 O 1954.9 -1.21159 1.52154 0
M  V30 21084 C 1955.19 1.95993 3.0209 0
M  V30 21085 C 1955.04 3.49109 2.83625 0
M  V30 21086 C 1956.36 1.77655 4.0265 0
M  V30 21087 H 1953.48 0.42252 0.603859 0
M  V30 21088 H 1956.12 1.5785 1.05752 0
M  V30 21089 H 1954.27 1.60372 3.53855 0
M  V30 21090 H 1955.94 3.94644 2.38859 0
M  V30 21091 H 1954.18 3.74664 2.18653 0
M  V30 21092 H 1954.85 4.00386 3.79993 0
M  V30 21093 H 1957.33 2.08743 3.59952 0
M  V30 21094 H 1956.21 2.36043 4.95555 0
M  V30 21095 H 1956.47 0.728445 4.36057 0
M  V30 21096 N 1955.53 -1.12086 1.1079 0
M  V30 21097 C 1956.46 -2.17667 0.717897 0
M  V30 21098 C 1957.47 -1.60913 -0.247179 0
M  V30 21099 O 1958.66 -1.78473 -0.0310924 0
M  V30 21100 C 1955.76 -3.38877 0.0392451 0
M  V30 21101 C 1954.93 -4.25114 1.02943 0
M  V30 21102 C 1953.99 -5.24815 0.381583 0
M  V30 21103 O 1953.02 -5.59739 1.03348 0
M  V30 21104 N 1954.22 -5.74118 -0.858416 0
M  V30 21105 H 1956.99 -2.51737 1.6263 0
M  V30 21106 H 1954.55 -1.27544 0.997209 0
M  V30 21107 H 1956.54 -4.02661 -0.405715 0
M  V30 21108 H 1955.11 -3.02927 -0.771627 0
M  V30 21109 H 1954.33 -3.57889 1.65255 0
M  V30 21110 H 1955.62 -4.79575 1.69957 0
M  V30 21111 H 1955.01 -5.47915 -1.40734 0
M  V30 21112 H 1953.57 -6.39771 -1.24647 0
M  V30 21113 N 1957 -0.897194 -1.29569 0
M  V30 21114 C 1957.94 -0.317616 -2.25979 0
M  V30 21115 C 1958.92 0.568783 -1.52327 0
M  V30 21116 O 1960.1 0.516152 -1.81296 0
M  V30 21117 C 1957.23 0.547511 -3.34245 0
M  V30 21118 C 1956.27 -0.271227 -4.25637 0
M  V30 21119 S 1957.11 -1.6674 -5.08879 0
M  V30 21120 C 1958.26 -0.809125 -6.20648 0
M  V30 21121 H 1958.49 -1.1348 -2.7479 0
M  V30 21122 H 1956.03 -0.697379 -1.37753 0
M  V30 21123 H 1957.99 1.04088 -3.97084 0
M  V30 21124 H 1956.65 1.33891 -2.84134 0
M  V30 21125 H 1955.84 0.389522 -5.02493 0
M  V30 21126 H 1955.44 -0.697651 -3.67435 0
M  V30 21127 H 1957.73 -0.0314136 -6.77493 0
M  V30 21128 H 1958.68 -1.54968 -6.90934 0
M  V30 21129 H 1959.08 -0.36462 -5.63321 0
M  V30 21130 N 1958.48 1.43142 -0.659413 0
M  V30 21131 C 1959.45 2.29192 0.0190393 0
M  V30 21132 C 1960.45 1.42532 0.744404 0
M  V30 21133 O 1961.64 1.64093 0.584722 0
M  V30 21134 C 1958.77 3.24723 1.03769 0
M  V30 21135 H 1959.96 2.90674 -0.738166 0
M  V30 21136 H 1957.51 1.50525 -0.420956 0
M  V30 21137 H 1958.25 2.68149 1.82392 0
M  V30 21138 H 1958.03 3.88621 0.52115 0
M  V30 21139 H 1959.52 3.89294 1.5113 0
M  V30 21140 N 1959.96 0.40173 1.52394 0
M  V30 21141 C 1961.21 -0.17672 2.02029 0
M  V30 21142 C 1961.54 -1.45417 1.28715 0
M  V30 21143 O 1960.81 -1.90524 0.391263 0
M  V30 21144 C 1961.1 -0.43198 3.575 0
M  V30 21145 C 1960.95 0.861628 4.4147 0
M  V30 21146 C 1962.27 -1.2173 4.2293 0
M  V30 21147 H 1959.39 -0.0627536 0.734323 0
M  V30 21148 H 1962.03 0.533742 1.82349 0
M  V30 21149 H 1960.18 -1.03719 3.74399 0
M  V30 21150 H 1961.85 1.49808 4.36297 0
M  V30 21151 H 1960.1 1.47424 4.07981 0
M  V30 21152 H 1960.77 0.637511 5.48306 0
M  V30 21153 H 1963.24 -0.704996 4.10084 0
M  V30 21154 H 1962.12 -1.36465 5.31666 0
M  V30 21155 H 1962.38 -2.23592 3.81391 0
M  V30 21156 N 1961.44 -1.57047 0.131923 0
M  V30 21157 C 1962.69 -1.95632 -0.522925 0
M  V30 21158 C 1963.01 -1.01597 -1.65856 0
M  V30 21159 O 1962.27 -0.0422719 -1.95654 0
M  V30 21160 C 1962.57 -3.4056 -1.08413 0
M  V30 21161 C 1962.23 -4.50848 -0.0685085 0
M  V30 21162 C 1960.9 -4.80738 0.210726 0
M  V30 21163 C 1963.25 -5.17464 0.622935 0
M  V30 21164 C 1960.58 -5.74557 1.18747 0
M  V30 21165 C 1962.93 -6.12334 1.58839 0
M  V30 21166 C 1961.59 -6.40611 1.87548 0
M  V30 21167 H 1960.86 -0.715867 -0.191352 0
M  V30 21168 H 1963.51 -1.90283 0.215565 0
M  V30 21169 H 1961.81 -3.42667 -1.89965 0
M  V30 21170 H 1963.51 -3.67734 -1.59914 0
M  V30 21171 H 1960.1 -4.27574 -0.29633 0
M  V30 21172 H 1964.28 -4.94516 0.420386 0
M  V30 21173 H 1959.54 -5.94765 1.4165 0
M  V30 21174 H 1963.71 -6.63034 2.12977 0
M  V30 21175 H 1961.34 -7.13114 2.63387 0
M  V30 21176 N 1962.92 0.141865 -1.5696 0
M  V30 21177 C 1964.17 0.852066 -1.82819 0
M  V30 21178 C 1964.48 1.82103 -0.713987 0
M  V30 21179 O 1965.68 2.57575 -0.858321 0
M  V30 21180 C 1964.14 1.56589 -3.24049 0
M  V30 21181 C 1963.75 0.639071 -4.43418 0
M  V30 21182 C 1965.49 2.26257 -3.59177 0
M  V30 21183 C 1963.4 1.35481 -5.75673 0
M  V30 21184 H 1962.33 0.321934 -0.681817 0
M  V30 21185 H 1964.98 0.104791 -1.83201 0
M  V30 21186 H 1963.36 2.35898 -3.1807 0
M  V30 21187 H 1964.54 -0.119159 -4.60646 0
M  V30 21188 H 1962.85 0.0505413 -4.16369 0
M  V30 21189 H 1965.45 2.80455 -4.55246 0
M  V30 21190 H 1965.79 3.02992 -2.85485 0
M  V30 21191 H 1966.32 1.53861 -3.6684 0
M  V30 21192 H 1963.06 0.629214 -6.52473 0
M  V30 21193 H 1962.58 2.08562 -5.62372 0
M  V30 21194 H 1964.26 1.89432 -6.18647 0
M  V30 21195 N 1964.39 1.52136 0.411372 0
M  V30 21196 C 1965.34 1.717 1.50011 0
M  V30 21197 C 1966.33 0.570895 1.50431 0
M  V30 21198 O 1967.52 0.827873 1.56446 0
M  V30 21199 C 1964.65 1.86904 2.87961 0
M  V30 21200 C 1963.74 3.07379 2.92197 0
M  V30 21201 N 1964.13 4.30124 2.66133 0
M  V30 21202 C 1962.42 3.07167 3.23365 0
M  V30 21203 C 1963.13 5.11579 2.76879 0
M  V30 21204 N 1962.1 4.46777 3.09663 0
M  V30 21205 H 1965.9 2.64246 1.28651 0
M  V30 21206 H 1963.42 1.50138 0.61905 0
M  V30 21207 H 1965.41 1.99036 3.6632 0
M  V30 21208 H 1964.07 0.955566 3.10321 0
M  V30 21209 H 1965.09 4.58635 2.4057 0
M  V30 21210 H 1961.76 2.25548 3.51333 0
M  V30 21211 H 1963.15 6.19362 2.60463 0
M  V30 21212 N 1965.87 -0.668464 1.42721 0
M  V30 21213 C 1966.82 -1.80311 1.46938 0
M  V30 21214 C 1967.82 -1.65861 0.344463 0
M  V30 21215 O 1969.02 -1.72392 0.517768 0
M  V30 21216 H 1965.4 -0.59464 0.460333 0
M  V30 21217 H 1967.37 -1.73872 2.4251 0
M  V30 21218 C 1966.12 -3.18498 1.3948 0
M  V30 21219 H 1965.44 -3.30246 2.25338 0
M  V30 21220 H 1966.88 -3.9789 1.46492 0
M  V30 21221 C 1965.34 -3.36719 0.110386 0
M  V30 21222 O 1965.87 -3.92939 -0.834354 0
M  V30 21223 N 1964.07 -2.90589 0.0254882 0
M  V30 21224 H 1963.62 -2.45023 0.795077 0
M  V30 21225 H 1963.58 -3.03158 -0.833236 0
M  V30 21226 N 1967.35 -1.28999 -0.905381 0
M  V30 21227 C 1968.6 -1.1664 -1.65534 0
M  V30 21228 C 1968.93 0.283294 -1.92426 0
M  V30 21229 O 1968.18 1.22166 -1.52885 0
M  V30 21230 C 1968.48 -1.91909 -3.01506 0
M  V30 21231 C 1968.15 -3.4166 -2.94243 0
M  V30 21232 C 1966.81 -3.82501 -2.91969 0
M  V30 21233 C 1969.16 -4.37112 -2.8387 0
M  V30 21234 C 1966.49 -5.1712 -2.77135 0
M  V30 21235 C 1968.84 -5.71814 -2.70576 0
M  V30 21236 C 1967.5 -6.1192 -2.66665 0
M  V30 21237 H 1966.77 -0.426816 -0.60573 0
M  V30 21238 H 1969.42 -1.5987 -1.05422 0
M  V30 21239 H 1967.73 -1.41252 -3.65452 0
M  V30 21240 H 1969.42 -1.79756 -3.58453 0
M  V30 21241 H 1966.01 -3.09194 -2.96812 0
M  V30 21242 H 1970.2 -4.06516 -2.84708 0
M  V30 21243 H 1965.45 -5.47311 -2.72508 0
M  V30 21244 H 1969.63 -6.45431 -2.61519 0
M  V30 21245 H 1967.25 -7.16182 -2.54928 0
M  V30 21246 N 1968.83 1.11497 -1.11383 0
M  V30 21247 C 1969.78 2.1752 -0.771611 0
M  V30 21248 C 1970.75 1.64106 0.256616 0
M  V30 21249 O 1971.93 1.90331 0.133672 0
M  V30 21250 C 1969.07 3.44396 -0.220313 0
M  V30 21251 C 1968.18 4.11817 -1.30503 0
M  V30 21252 C 1967.32 5.26375 -0.714331 0
M  V30 21253 C 1966.36 5.85679 -1.77894 0
M  V30 21254 N 1965.5 6.91634 -1.20778 0
M  V30 21255 H 1970.34 2.46138 -1.67989 0
M  V30 21256 H 1967.87 1.20832 -0.838927 0
M  V30 21257 H 1969.83 4.17035 0.117286 0
M  V30 21258 H 1968.46 3.16164 0.651161 0
M  V30 21259 H 1967.51 3.37258 -1.75959 0
M  V30 21260 H 1968.82 4.5195 -2.11051 0
M  V30 21261 H 1967.98 6.05819 -0.326754 0
M  V30 21262 H 1966.72 4.87546 0.12248 0
M  V30 21263 H 1965.72 5.04914 -2.17583 0
M  V30 21264 H 1966.95 6.26576 -2.61877 0
M  V30 21265 H 1964.89 6.54824 -0.392602 0
M  V30 21266 H 1964.81 7.30419 -1.94998 0
M  V30 21267 H 1966.08 7.74884 -0.847072 0
M  V30 21268 N 1970.31 0.904053 1.29092 0
M  V30 21269 C 1971.72 0.600783 1.47861 0
M  V30 21270 C 1971.92 -0.856554 1.82388 0
M  V30 21271 O 1970.98 -1.6364 1.92297 0
M  V30 21272 C 1972.29 1.53035 2.58845 0
M  V30 21273 C 1973.84 1.53602 2.72719 0
M  V30 21274 C 1974.32 2.45197 3.86836 0
M  V30 21275 N 1975.81 2.43269 3.94176 0
M  V30 21276 C 1976.54 3.10843 4.81834 0
M  V30 21277 N 1976.04 3.87712 5.74153 0
M  V30 21278 N 1977.83 2.99979 4.75362 0
M  V30 21279 H 1969.98 1.84656 1.04957 0
M  V30 21280 H 1972.24 0.791479 0.52179 0
M  V30 21281 H 1971.95 2.5689 2.4021 0
M  V30 21282 H 1971.82 1.25414 3.5574 0
M  V30 21283 H 1974.21 0.504899 2.90749 0
M  V30 21284 H 1974.29 1.85262 1.76385 0
M  V30 21285 H 1973.94 3.48406 3.69562 0
M  V30 21286 H 1973.87 2.10844 4.82548 0
M  V30 21287 H 1976.36 1.87423 3.28148 0
M  V30 21288 H 1976.67 4.36317 6.37846 0
M  V30 21289 H 1975.02 3.91818 5.74024 0
M  V30 21290 H 1978.21 2.39437 4.02228 0
M  V30 21291 H 1978.38 3.52916 5.43465 0
M  V30 21292 N 1971.79 -1.4279 0.666995 0
M  V30 21293 C 1972.73 -2.30794 -0.0161644 0
M  V30 21294 C 1973.7 -1.45527 -0.800701 0
M  V30 21295 O 1974.89 -1.74372 -0.774527 0
M  V30 21296 C 1972.03 -3.31276 -0.966974 0
M  V30 21297 C 1971.14 -4.31637 -0.177086 0
M  V30 21298 C 1970.28 -5.19195 -1.12294 0
M  V30 21299 C 1969.31 -6.1124 -0.324284 0
M  V30 21300 N 1968.45 -6.91376 -1.22244 0
M  V30 21301 H 1973.29 -2.88662 0.74014 0
M  V30 21302 H 1970.83 -1.42194 0.376738 0
M  V30 21303 H 1972.79 -3.88054 -1.53198 0
M  V30 21304 H 1971.42 -2.75025 -1.69 0
M  V30 21305 H 1970.47 -3.77041 0.504428 0
M  V30 21306 H 1971.78 -4.96826 0.443328 0
M  V30 21307 H 1970.93 -5.80667 -1.75813 0
M  V30 21308 H 1969.67 -4.54164 -1.77725 0
M  V30 21309 H 1968.68 -5.48843 0.324174 0
M  V30 21310 H 1969.9 -6.78318 0.325818 0
M  V30 21311 H 1967.85 -6.28981 -1.86329 0
M  V30 21312 H 1967.77 -7.5314 -0.656918 0
M  V30 21313 H 1969.03 -7.57342 -1.84535 0
M  V30 21314 N 1973.26 -0.409806 -1.52179 0
M  V30 21315 C 1974.51 0.16543 -2.01422 0
M  V30 21316 C 1974.83 1.45588 -1.29727 0
M  V30 21317 O 1974.1 1.9127 -0.423399 0
M  V30 21318 H 1972.68 0.0641237 -0.744243 0
M  V30 21319 H 1975.34 -0.546204 -1.8709 0
M  V30 21320 H 1974.44 0.361061 -3.10004 0
M  V30 21321 N 1974.74 1.56975 -0.14025 0
M  V30 21322 C 1975.99 1.95519 0.51153 0
M  V30 21323 C 1976.31 1.02572 1.65843 0
M  V30 21324 O 1975.58 0.0859828 1.95711 0
M  V30 21325 H 1974.16 0.721914 0.191961 0
M  V30 21326 H 1976.82 1.9372 -0.214169 0
M  V30 21327 H 1975.92 2.99078 0.892131 0
M  V30 21328 N 1976.22 -0.133539 1.57033 0
M  V30 21329 C 1977.47 -0.842358 1.83268 0
M  V30 21330 C 1977.78 -1.81722 0.723634 0
M  V30 21331 O 1978.99 -2.57117 0.871969 0
M  V30 21332 C 1977.44 -1.54868 3.24875 0
M  V30 21333 C 1977.05 -0.615546 4.43751 0
M  V30 21334 C 1978.8 -2.24349 3.60372 0
M  V30 21335 C 1976.7 -1.32426 5.76383 0
M  V30 21336 H 1975.63 -0.318314 0.683515 0
M  V30 21337 H 1978.28 -0.0950741 1.83254 0
M  V30 21338 H 1976.67 -2.34207 3.19316 0
M  V30 21339 H 1977.84 0.143586 4.60576 0
M  V30 21340 H 1976.15 -0.0284595 4.1639 0
M  V30 21341 H 1978.75 -2.78037 4.56727 0
M  V30 21342 H 1979.09 -3.01473 2.87088 0
M  V30 21343 H 1979.63 -1.51914 3.67651 0
M  V30 21344 H 1976.37 -0.594603 6.52798 0
M  V30 21345 H 1975.89 -2.05577 5.6347 0
M  V30 21346 H 1977.57 -1.86148 6.19643 0
M  V30 21347 N 1977.7 -1.52352 -0.403298 0
M  V30 21348 C 1978.95 -1.66368 -1.14744 0
M  V30 21349 C 1979.27 -0.398899 -1.90876 0
M  V30 21350 O 1978.54 0.586372 -1.86918 0
M  V30 21351 H 1977.12 -0.613226 -0.426571 0
M  V30 21352 H 1979.78 -1.89416 -0.459075 0
M  V30 21353 H 1978.87 -2.50748 -1.85828 0
M  V30 21354 N 1979.18 0.660885 -1.43074 0
M  V30 21355 C 1980.42 1.41805 -1.43999 0
M  V30 21356 C 1980.74 1.949 -0.0625341 0
M  V30 21357 O 1980.01 1.7395 0.901019 0
M  V30 21358 H 1978.59 0.526263 -0.530147 0
M  V30 21359 H 1981.26 0.779967 -1.78613 0
M  V30 21360 H 1980.35 2.2642 -2.14803 0
M  V30 21361 N 1980.65 1.29477 0.898527 0
M  V30 21362 C 1981.88 1.20232 1.68011 0
M  V30 21363 C 1982.29 -0.239393 1.87679 0
M  V30 21364 O 1981.64 -1.17197 1.41459 0
M  V30 21365 C 1981.7 1.84564 3.08507 0
M  V30 21366 C 1981.36 3.33862 3.12065 0
M  V30 21367 C 1982.36 4.30068 2.92125 0
M  V30 21368 C 1980.04 3.75082 3.34094 0
M  V30 21369 C 1982.04 5.65469 2.94149 0
M  V30 21370 C 1979.72 5.10604 3.35748 0
M  V30 21371 C 1980.72 6.05607 3.15798 0
M  V30 21372 O 1980.41 7.38655 3.17243 0
M  V30 21373 H 1980.14 0.417733 0.531484 0
M  V30 21374 H 1982.7 1.71396 1.13193 0
M  V30 21375 H 1980.93 1.27913 3.64932 0
M  V30 21376 H 1982.62 1.69625 3.68758 0
M  V30 21377 H 1983.38 3.99556 2.74918 0
M  V30 21378 H 1979.26 3.01588 3.48662 0
M  V30 21379 H 1982.8 6.39598 2.78496 0
M  V30 21380 H 1978.7 5.40761 3.52488 0
M  V30 21381 H 1979.47 7.47475 3.33502 0
M  V30 21382 N 1982.13 -1.10905 1.11972 0
M  V30 21383 C 1983.36 -1.87095 0.894991 0
M  V30 21384 C 1983.78 -1.79875 -0.550144 0
M  V30 21385 O 1983.14 -1.16517 -1.38901 0
M  V30 21386 C 1983.19 -3.33634 1.36825 0
M  V30 21387 O 1982.29 -4.08802 0.543553 0
M  V30 21388 H 1981.63 -0.580734 0.321938 0
M  V30 21389 H 1984.16 -1.40152 1.49059 0
M  V30 21390 H 1984.17 -3.84482 1.36519 0
M  V30 21391 H 1982.85 -3.38205 2.42054 0
M  V30 21392 H 1981.43 -3.67824 0.613185 0
M  V30 21393 N 1983.61 -0.910886 -1.2861 0
M  V30 21394 C 1984.57 -0.401862 -2.2565 0
M  V30 21395 C 1985.57 0.470212 -1.53771 0
M  V30 21396 O 1986.76 0.273674 -1.72037 0
M  V30 21397 C 1983.9 0.424193 -3.38251 0
M  V30 21398 H 1985.09 -1.25903 -2.72192 0
M  V30 21399 H 1982.64 -0.690027 -1.40244 0
M  V30 21400 H 1983.38 1.30088 -2.97065 0
M  V30 21401 H 1983.16 -0.200837 -3.91585 0
M  V30 21402 H 1984.65 0.771267 -4.10416 0
M  V30 21403 N 1985.09 1.42434 -0.674558 0
M  V30 21404 C 1986.34 2.01144 -0.196332 0
M  V30 21405 C 1986.66 1.53605 1.20127 0
M  V30 21406 O 1985.93 0.757627 1.80657 0
M  V30 21407 H 1984.51 0.743751 -0.0695937 0
M  V30 21408 H 1987.17 1.74354 -0.871013 0
M  V30 21409 H 1986.27 3.11475 -0.197426 0
M  V30 21410 N 1986.57 0.417871 1.51959 0
M  V30 21411 C 1987.48 -0.409946 2.3099 0
M  V30 21412 C 1988.49 -1.04559 1.39081 0
M  V30 21413 O 1989.67 -1.0452 1.72155 0
M  V30 21414 C 1986.73 -1.50691 3.12239 0
M  V30 21415 C 1985.79 -0.893424 4.199 0
M  V30 21416 C 1985.03 -1.93812 4.97265 0
M  V30 21417 O 1985.25 -3.15756 4.75031 0
M  V30 21418 O 1984.18 -1.53948 5.81879 0
M  V30 21419 H 1988.01 0.234696 3.02792 0
M  V30 21420 H 1985.6 0.180861 1.48301 0
M  V30 21421 H 1987.48 -2.14355 3.62808 0
M  V30 21422 H 1986.15 -2.136 2.43222 0
M  V30 21423 H 1985.06 -0.219262 3.73457 0
M  V30 21424 H 1986.39 -0.308133 4.91235 0
M  V30 21425 N 1988.04 -1.56898 0.148573 0
M  V30 21426 C 1989.46 -1.58241 -0.207826 0
M  V30 21427 C 1989.66 -1.16291 -1.64556 0
M  V30 21428 O 1988.72 -0.863939 -2.3726 0
M  V30 21429 C 1990.03 -3.00654 0.0523559 0
M  V30 21430 C 1991.58 -3.12998 -0.0112297 0
M  V30 21431 C 1992.05 -4.57463 0.221641 0
M  V30 21432 N 1993.54 -4.62893 0.168624 0
M  V30 21433 C 1994.28 -5.72488 0.323296 0
M  V30 21434 N 1993.77 -6.90725 0.535776 0
M  V30 21435 N 1995.57 -5.61495 0.26079 0
M  V30 21436 H 1987.72 -1.82459 1.08731 0
M  V30 21437 H 1989.98 -0.8446 0.430529 0
M  V30 21438 H 1989.69 -3.3574 1.04745 0
M  V30 21439 H 1989.56 -3.71268 -0.666346 0
M  V30 21440 H 1991.95 -2.77752 -0.996873 0
M  V30 21441 H 1992.03 -2.44868 0.739826 0
M  V30 21442 H 1991.67 -4.93413 1.20439 0
M  V30 21443 H 1991.6 -5.23722 -0.549756 0
M  V30 21444 H 1994.09 -3.77899 0.00911581 0
M  V30 21445 H 1994.41 -7.70113 0.643862 0
M  V30 21446 H 1992.75 -6.92641 0.572117 0
M  V30 21447 H 1995.94 -4.68002 0.095543 0
M  V30 21448 H 1996.12 -6.46857 0.384765 0
M  V30 21449 N 1989.52 0.125209 -1.57102 0
M  V30 21450 C 1990.77 0.832627 -1.83712 0
M  V30 21451 C 1991.08 1.81336 -0.733261 0
M  V30 21452 O 1992.29 2.56651 -0.885592 0
M  V30 21453 C 1990.75 1.53143 -3.25692 0
M  V30 21454 C 1990.35 0.592004 -4.44071 0
M  V30 21455 C 1992.1 2.22435 -3.61556 0
M  V30 21456 C 1990.01 1.29368 -5.77077 0
M  V30 21457 H 1988.94 0.314685 -0.685193 0
M  V30 21458 H 1991.59 0.0853544 -1.83301 0
M  V30 21459 H 1989.97 2.32511 -3.20554 0
M  V30 21460 H 1991.14 -0.16801 -4.60494 0
M  V30 21461 H 1989.46 0.00637692 -4.164 0
M  V30 21462 H 1992.05 2.75611 -4.58195 0
M  V30 21463 H 1992.4 2.99947 -2.88683 0
M  V30 21464 H 1992.93 1.49962 -3.68451 0
M  V30 21465 H 1989.67 0.559975 -6.53104 0
M  V30 21466 H 1989.19 2.02586 -5.64552 0
M  V30 21467 H 1990.87 1.8286 -6.20622 0
M  V30 21468 N 1991 1.52564 0.395213 0
M  V30 21469 C 1992.25 1.67552 1.14254 0
M  V30 21470 C 1992.58 0.411135 1.89798 0
M  V30 21471 O 1991.85 -0.590891 1.85307 0
M  V30 21472 C 1992.14 2.90657 2.1258 0
M  V30 21473 C 1991.99 4.27181 1.40841 0
M  V30 21474 C 1993.31 3.09301 3.13083 0
M  V30 21475 H 1990.43 0.609735 0.413995 0
M  V30 21476 H 1993.07 1.85148 0.426634 0
M  V30 21477 H 1991.22 2.75787 2.73631 0
M  V30 21478 H 1992.89 4.53808 0.82802 0
M  V30 21479 H 1991.14 4.27946 0.71028 0
M  V30 21480 H 1991.81 5.09393 2.12656 0
M  V30 21481 H 1994.28 3.23162 2.62118 0
M  V30 21482 H 1993.16 3.96925 3.79133 0
M  V30 21483 H 1993.42 2.23237 3.81599 0
M  V30 21484 N 1992.48 -0.653289 1.43422 0
M  V30 21485 C 1993.76 -1.41051 1.35513 0
M  V30 21486 C 1994.14 -2.111 0.00290798 0
M  V30 21487 O 1993.48 -2.04786 -1.01365 0
M  V30 21488 C 1993.69 -2.39526 2.53827 0
M  V30 21489 C 1995.04 -3.03528 2.96911 0
M  V30 21490 O 1996.07 -2.49854 2.53873 0
M  V30 21491 O 1994.92 -4.00843 3.71466 0
M  V30 21492 H 1992.02 -0.630186 0.535532 0
M  V30 21493 H 1994.56 -0.680203 1.55471 0
M  V30 21494 H 1993.34 -1.86712 3.43881 0
M  V30 21495 H 1992.96 -3.20007 2.35968 0
M  V30 21496 N 1993.96 -1.29952 -0.891648 0
M  V30 21497 C 1995.21 -1.17758 -1.63756 0
M  V30 21498 C 1995.52 0.268231 -1.93752 0
M  V30 21499 O 1996.72 0.511595 -2.66636 0
M  V30 21500 C 1995.18 -2.06008 -2.95108 0
M  V30 21501 C 1994.79 -3.55459 -2.72677 0
M  V30 21502 C 1996.53 -2.0256 -3.73055 0
M  V30 21503 C 1994.44 -4.35787 -3.99805 0
M  V30 21504 H 1993.37 -0.437139 -0.61435 0
M  V30 21505 H 1996.02 -1.54651 -0.987694 0
M  V30 21506 H 1994.4 -1.61991 -3.61351 0
M  V30 21507 H 1995.58 -4.0758 -2.14977 0
M  V30 21508 H 1993.89 -3.60662 -2.08115 0
M  V30 21509 H 1996.49 -2.5983 -4.67325 0
M  V30 21510 H 1996.83 -1.00748 -4.03925 0
M  V30 21511 H 1997.36 -2.44662 -3.13664 0
M  V30 21512 H 1994.1 -5.38268 -3.74096 0
M  V30 21513 H 1993.62 -3.88432 -4.57035 0
M  V30 21514 H 1995.3 -4.46872 -4.67883 0
M  V30 21515 N 1995.44 1.1031 -1.12559 0
M  V30 21516 C 1996.68 1.81665 -0.876399 0
M  V30 21517 C 1997 1.86186 0.599506 0
M  V30 21518 O 1998.2 2.53759 0.965337 0
M  V30 21519 C 1996.66 3.26308 -1.51826 0
M  V30 21520 C 1996.27 3.30081 -3.02904 0
M  V30 21521 C 1998.01 4.02482 -1.34939 0
M  V30 21522 C 1995.92 4.69192 -3.60018 0
M  V30 21523 H 1994.85 0.680734 -0.324218 0
M  V30 21524 H 1997.5 1.24044 -1.35223 0
M  V30 21525 H 1995.88 3.83934 -0.970087 0
M  V30 21526 H 1997.06 2.82272 -3.64224 0
M  V30 21527 H 1995.37 2.67393 -3.19202 0
M  V30 21528 H 1997.97 5.05241 -1.7503 0
M  V30 21529 H 1998.31 4.15266 -0.293208 0
M  V30 21530 H 1998.84 3.51274 -1.86685 0
M  V30 21531 H 1995.58 4.61608 -4.65401 0
M  V30 21532 H 1995.1 5.17363 -3.03473 0
M  V30 21533 H 1996.78 5.38161 -3.59153 0
M  V30 21534 N 1996.91 0.917694 1.28125 0
M  V30 21535 C 1997.88 0.413823 2.25433 0
M  V30 21536 C 1998.88 -0.46205 1.54019 0
M  V30 21537 O 2000.07 -0.264546 1.7218 0
M  V30 21538 C 1997.2 -0.406249 3.38471 0
M  V30 21539 H 1998.39 1.27345 2.7152 0
M  V30 21540 H 1995.94 0.697455 1.39876 0
M  V30 21541 H 1996.68 -1.28511 2.97751 0
M  V30 21542 H 1996.46 0.221601 3.91473 0
M  V30 21543 H 1997.95 -0.749491 4.10819 0
M  V30 21544 N 1998.39 -1.42074 0.682102 0
M  V30 21545 C 1999.62 -2.05769 0.216029 0
M  V30 21546 C 2000.03 -1.51278 -1.12962 0
M  V30 21547 O 1999.39 -0.655521 -1.70321 0
M  V30 21548 C 1999.44 -3.61187 0.150351 0
M  V30 21549 O 1999.16 -4.13659 1.44283 0
M  V30 21550 C 2000.66 -4.42007 -0.338339 0
M  V30 21551 H 1997.88 -0.662997 0.103326 0
M  V30 21552 H 2000.43 -1.82084 0.930895 0
M  V30 21553 H 1998.58 -3.83958 -0.515249 0
M  V30 21554 H 1999 -5.07592 1.32101 0
M  V30 21555 H 2000.47 -5.50994 -0.33319 0
M  V30 21556 H 2000.95 -4.17125 -1.37489 0
M  V30 21557 H 2001.55 -4.2427 0.295782 0
M  V30 21558 N 1999.87 -0.425924 -1.51735 0
M  V30 21559 C 2001.15 0.203721 -1.94536 0
M  V30 21560 C 2001.53 1.61124 -1.3639 0
M  V30 21561 O 2000.87 2.21871 -0.54638 0
M  V30 21562 C 2001.08 0.193041 -3.48466 0
M  V30 21563 C 2002.43 0.404204 -4.22672 0
M  V30 21564 O 2003.46 0.271662 -3.55163 0
M  V30 21565 O 2002.32 0.666926 -5.42415 0
M  V30 21566 H 1999.41 0.136115 -0.815722 0
M  V30 21567 H 2001.96 -0.48308 -1.62679 0
M  V30 21568 H 2000.73 -0.791421 -3.83213 0
M  V30 21569 H 2000.35 0.923235 -3.86733 0
M  V30 21570 N 2001.35 1.56817 -0.156891 0
M  V30 21571 C 2002.6 1.95614 0.491749 0
M  V30 21572 C 2002.91 1.04481 1.65357 0
M  V30 21573 O 2004.12 1.32898 2.36749 0
M  V30 21574 C 2002.57 3.47777 0.926222 0
M  V30 21575 C 2002.18 4.47511 -0.209209 0
M  V30 21576 C 2003.92 3.95421 1.54409 0
M  V30 21577 C 2001.83 5.90896 0.244087 0
M  V30 21578 H 2000.76 0.73032 0.187481 0
M  V30 21579 H 2003.41 1.81886 -0.242819 0
M  V30 21580 H 2001.79 3.56872 1.71634 0
M  V30 21581 H 2002.97 4.5012 -0.986326 0
M  V30 21582 H 2001.28 4.09842 -0.736118 0
M  V30 21583 H 2003.88 4.99992 1.89504 0
M  V30 21584 H 2004.22 3.37535 2.43672 0
M  V30 21585 H 2004.76 3.89284 0.818685 0
M  V30 21586 H 2001.49 6.52624 -0.613406 0
M  V30 21587 H 2001.01 5.91626 0.986869 0
M  V30 21588 H 2002.69 6.4328 0.6928 0
M  V30 21589 N 2002.83 -0.116876 1.57166 0
M  V30 21590 C 2003.76 -1.16901 1.97147 0
M  V30 21591 C 2004.77 -1.37537 0.871063 0
M  V30 21592 O 2005.96 -1.36574 1.14934 0
M  V30 21593 C 2003.06 -2.52863 2.2564 0
M  V30 21594 C 2002.23 -2.528 3.56946 0
M  V30 21595 C 2001.29 -3.70525 3.73628 0
M  V30 21596 O 2000.32 -3.54013 4.45717 0
M  V30 21597 N 2001.52 -4.89172 3.12556 0
M  V30 21598 H 2004.28 -0.828895 2.88009 0
M  V30 21599 H 2001.85 -0.306125 1.5898 0
M  V30 21600 H 2003.84 -3.30182 2.34013 0
M  V30 21601 H 2002.41 -2.79048 1.40894 0
M  V30 21602 H 2001.63 -1.61181 3.59742 0
M  V30 21603 H 2002.92 -2.49817 4.43248 0
M  V30 21604 H 2002.31 -5.05491 2.5396 0
M  V30 21605 H 2000.87 -5.64159 3.26447 0
M  V30 21606 N 2004.3 -1.52772 -0.387116 0
M  V30 21607 C 2005.53 -1.71787 -1.15312 0
M  V30 21608 C 2005.95 -0.437082 -1.83671 0
M  V30 21609 O 2005.3 0.588573 -1.72749 0
M  V30 21610 C 2005.35 -2.86869 -2.19974 0
M  V30 21611 O 2005.08 -4.0999 -1.54402 0
M  V30 21612 C 2006.58 -3.17579 -3.09287 0
M  V30 21613 H 2003.8 -0.575118 -0.345659 0
M  V30 21614 H 2006.34 -1.99428 -0.452607 0
M  V30 21615 H 2004.5 -2.61684 -2.85658 0
M  V30 21616 H 2004.91 -4.7428 -2.23961 0
M  V30 21617 H 2006.38 -4.01562 -3.7875 0
M  V30 21618 H 2006.86 -2.3204 -3.729 0
M  V30 21619 H 2007.47 -3.44611 -2.49246 0
M  V30 21620 N 2005.78 0.645673 -1.43767 0
M  V30 21621 C 2006.73 1.75828 -1.4951 0
M  V30 21622 C 2007.7 1.62496 -0.344109 0
M  V30 21623 O 2008.88 1.82631 -0.552323 0
M  V30 21624 C 2006.02 3.14017 -1.43134 0
M  V30 21625 C 2005.14 3.38428 -2.68496 0
M  V30 21626 C 2004.27 4.66507 -2.54056 0
M  V30 21627 C 2003.31 4.84049 -3.74651 0
M  V30 21628 N 2002.45 6.03392 -3.58974 0
M  V30 21629 H 2007.29 1.70254 -2.44576 0
M  V30 21630 H 2004.82 0.830729 -1.21397 0
M  V30 21631 H 2006.78 3.93915 -1.37431 0
M  V30 21632 H 2005.41 3.18642 -0.516449 0
M  V30 21633 H 2004.46 2.52574 -2.84448 0
M  V30 21634 H 2005.78 3.47274 -3.58054 0
M  V30 21635 H 2004.93 5.54543 -2.46103 0
M  V30 21636 H 2003.67 4.59996 -1.62035 0
M  V30 21637 H 2002.67 3.94447 -3.83004 0
M  V30 21638 H 2003.9 4.92385 -4.67689 0
M  V30 21639 H 2001.85 5.97998 -2.69694 0
M  V30 21640 H 2001.76 6.13229 -4.42138 0
M  V30 21641 H 2003.03 6.94029 -3.54887 0
M  V30 21642 N 2007.26 1.30423 0.884744 0
M  V30 21643 C 2008.17 1.18747 2.02327 0
M  V30 21644 C 2009.19 0.107354 1.73669 0
M  V30 21645 O 2010.36 0.322332 1.98804 0
M  V30 21646 C 2007.43 0.880361 3.35336 0
M  V30 21647 C 2006.49 2.04587 3.77416 0
M  V30 21648 C 2005.72 1.75332 5.04078 0
M  V30 21649 O 2005.94 0.68135 5.66316 0
M  V30 21650 O 2004.88 2.60579 5.4257 0
M  V30 21651 H 2008.7 2.14391 2.15105 0
M  V30 21652 H 2006.29 1.10019 1.01076 0
M  V30 21653 H 2008.17 0.7243 4.15129 0
M  V30 21654 H 2006.85 -0.0461673 3.23667 0
M  V30 21655 H 2005.75 2.25726 2.98326 0
M  V30 21656 H 2007.09 2.95413 3.9369 0
M  V30 21657 N 2008.74 -1.09711 1.13142 0
M  V30 21658 C 2009.67 -2.18301 0.828662 0
M  V30 21659 C 2010.65 -1.6879 -0.210733 0
M  V30 21660 O 2011.83 -1.94073 -0.0702977 0
M  V30 21661 C 2008.96 -3.46081 0.290674 0
M  V30 21662 C 2007.92 -4.0891 1.26398 0
M  V30 21663 C 2007.24 -5.3148 0.585887 0
M  V30 21664 C 2008.54 -4.51751 2.62142 0
M  V30 21665 H 2010.24 -2.43885 1.73668 0
M  V30 21666 H 2007.78 -1.17216 0.836449 0
M  V30 21667 H 2009.74 -4.21347 0.0665509 0
M  V30 21668 H 2008.46 -3.20011 -0.652716 0
M  V30 21669 H 2007.12 -3.3566 1.47405 0
M  V30 21670 H 2006.77 -5.01689 -0.362883 0
M  V30 21671 H 2006.47 -5.7447 1.23522 0
M  V30 21672 H 2007.99 -6.09472 0.370976 0
M  V30 21673 H 2009.41 -5.18255 2.45121 0
M  V30 21674 H 2007.8 -5.05615 3.23223 0
M  V30 21675 H 2008.87 -3.64297 3.20025 0
M  V30 21676 N 2010.22 -0.924476 -1.27637 0
M  V30 21677 C 2011.15 -0.378387 -2.26055 0
M  V30 21678 C 2012.16 0.489111 -1.55279 0
M  V30 21679 O 2013.35 0.302255 -1.75922 0
M  V30 21680 C 2010.45 0.476771 -3.3553 0
M  V30 21681 C 2009.62 -0.370688 -4.35826 0
M  V30 21682 C 2008.68 0.421299 -5.24511 0
M  V30 21683 O 2007.71 -0.16988 -5.68946 0
M  V30 21684 N 2008.91 1.72187 -5.54375 0
M  V30 21685 H 2011.68 -1.22438 -2.73549 0
M  V30 21686 H 2009.24 -0.791559 -1.4123 0
M  V30 21687 H 2011.23 1.01359 -3.91801 0
M  V30 21688 H 2009.8 1.22351 -2.87661 0
M  V30 21689 H 2009.02 -1.08882 -3.78864 0
M  V30 21690 H 2010.31 -0.950168 -4.99849 0
M  V30 21691 H 2009.7 2.22454 -5.20125 0
M  V30 21692 H 2008.26 2.20529 -6.1336 0
M  V30 21693 N 2011.69 1.41711 -0.689627 0
M  V30 21694 C 2012.64 2.30791 -0.020555 0
M  V30 21695 C 2013.61 1.46782 0.777447 0
M  V30 21696 O 2014.8 1.75582 0.746688 0
M  V30 21697 C 2011.94 3.32772 0.914149 0
M  V30 21698 C 2011.05 4.31864 0.108394 0
M  V30 21699 C 2010.18 5.20916 1.0402 0
M  V30 21700 C 2009.22 6.11679 0.227 0
M  V30 21701 N 2008.36 6.93233 1.11229 0
M  V30 21702 H 2013.2 2.87448 -0.78597 0
M  V30 21703 H 2010.74 1.41576 -0.399313 0
M  V30 21704 H 2012.7 3.90442 1.47005 0
M  V30 21705 H 2011.33 2.77679 1.64603 0
M  V30 21706 H 2010.38 3.7619 -0.564348 0
M  V30 21707 H 2011.69 4.96058 -0.522312 0
M  V30 21708 H 2010.84 5.83391 1.66553 0
M  V30 21709 H 2009.58 4.56934 1.70477 0
M  V30 21710 H 2008.59 5.48258 -0.411449 0
M  V30 21711 H 2009.81 6.77714 -0.433691 0
M  V30 21712 H 2007.76 6.31866 1.76299 0
M  V30 21713 H 2007.68 7.5409 0.537017 0
M  V30 21714 H 2008.94 7.60182 1.72463 0
M  V30 21715 N 2013.17 0.433965 1.51507 0
M  V30 21716 C 2014.1 -0.41493 2.25413 0
M  V30 21717 C 2015.12 -0.989176 1.29303 0
M  V30 21718 O 2016.31 -0.883889 1.55079 0
M  V30 21719 C 2013.41 -1.59207 2.99176 0
M  V30 21720 C 2012.58 -1.1373 4.22355 0
M  V30 21721 C 2011.64 -2.18418 4.78727 0
M  V30 21722 O 2010.66 -1.77991 5.40655 0
M  V30 21723 N 2011.87 -3.50866 4.62465 0
M  V30 21724 H 2014.63 0.218474 2.98903 0
M  V30 21725 H 2012.19 0.26267 1.59755 0
M  V30 21726 H 2014.18 -2.28857 3.33776 0
M  V30 21727 H 2012.75 -2.13089 2.28718 0
M  V30 21728 H 2011.97 -0.267997 3.93288 0
M  V30 21729 H 2013.26 -0.8108 5.02298 0
M  V30 21730 H 2012.66 -3.86446 4.1313 0
M  V30 21731 H 2011.22 -4.1642 5.01436 0
M  V30 21732 N 2014.65 -1.56732 0.165206 0
M  V30 21733 C 2015.9 -1.95872 -0.481368 0
M  V30 21734 C 2016.21 -1.05357 -1.64801 0
M  V30 21735 O 2017.42 -1.34152 -2.36041 0
M  V30 21736 C 2015.87 -3.48264 -0.907766 0
M  V30 21737 C 2015.48 -4.47394 0.232939 0
M  V30 21738 C 2017.23 -3.96235 -1.5231 0
M  V30 21739 C 2015.13 -5.91017 -0.212747 0
M  V30 21740 H 2014.06 -0.731304 -0.183605 0
M  V30 21741 H 2016.71 -1.81755 0.252461 0
M  V30 21742 H 2015.1 -3.57777 -1.69739 0
M  V30 21743 H 2016.27 -4.49591 1.01018 0
M  V30 21744 H 2014.59 -4.09446 0.757843 0
M  V30 21745 H 2017.18 -5.0099 -1.8685 0
M  V30 21746 H 2017.53 -3.38822 -2.41879 0
M  V30 21747 H 2018.06 -3.89713 -0.798029 0
M  V30 21748 H 2014.8 -6.52289 0.648008 0
M  V30 21749 H 2014.32 -5.92141 -0.955479 0
M  V30 21750 H 2016 -6.43638 -0.658675 0
M  V30 21751 N 2016.13 0.10854 -1.57226 0
M  V30 21752 C 2017.36 0.828374 -1.89593 0
M  V30 21753 C 2017.77 1.72936 -0.757543 0
M  V30 21754 O 2017.13 1.80474 0.271152 0
M  V30 21755 C 2017.18 1.65304 -3.21492 0
M  V30 21756 O 2016.9 0.788315 -4.30949 0
M  V30 21757 C 2018.4 2.47711 -3.67633 0
M  V30 21758 H 2015.62 0.237584 -0.627531 0
M  V30 21759 H 2018.17 0.0897975 -2.04303 0
M  V30 21760 H 2016.32 2.34426 -3.0842 0
M  V30 21761 H 2016.73 1.35814 -5.06611 0
M  V30 21762 H 2018.21 3.01088 -4.62655 0
M  V30 21763 H 2018.69 3.25555 -2.94806 0
M  V30 21764 H 2019.29 1.83812 -3.83527 0
M  V30 21765 N 2017.61 1.52975 0.379009 0
M  V30 21766 C 2018.55 1.78463 1.46355 0
M  V30 21767 C 2019.52 0.628308 1.53758 0
M  V30 21768 O 2020.71 0.869084 1.69858 0
M  V30 21769 C 2017.85 1.96827 2.83467 0
M  V30 21770 C 2016.96 3.24533 2.85136 0
M  V30 21771 C 2016.1 3.33158 4.13738 0
M  V30 21772 C 2015.14 4.54948 4.09498 0
M  V30 21773 N 2014.27 4.60801 5.29724 0
M  V30 21774 H 2019.11 2.71012 1.23921 0
M  V30 21775 H 2016.65 1.34263 0.600982 0
M  V30 21776 H 2018.61 2.05459 3.63101 0
M  V30 21777 H 2017.24 1.07628 3.04329 0
M  V30 21778 H 2016.29 3.24921 1.97814 0
M  V30 21779 H 2017.6 4.14232 2.77873 0
M  V30 21780 H 2016.76 3.41029 5.01781 0
M  V30 21781 H 2015.49 2.41451 4.23737 0
M  V30 21782 H 2014.5 4.47193 3.19842 0
M  V30 21783 H 2015.72 5.47983 4.01113 0
M  V30 21784 H 2013.67 3.71989 5.40333 0
M  V30 21785 H 2013.59 5.44386 5.24576 0
M  V30 21786 H 2014.86 4.72938 6.19637 0
M  V30 21787 N 2019.08 -0.63804 1.44107 0
M  V30 21788 C 2020.33 -1.39366 1.45808 0
M  V30 21789 C 2020.65 -1.95384 0.091867 0
M  V30 21790 O 2021.85 -2.71497 -0.0136182 0
M  V30 21791 C 2020.31 -2.52293 2.56663 0
M  V30 21792 C 2019.92 -2.02818 3.99461 0
M  V30 21793 C 2021.66 -3.29549 2.67577 0
M  V30 21794 C 2019.57 -3.13047 5.01753 0
M  V30 21795 H 2018.5 -0.5237 0.542452 0
M  V30 21796 H 2021.15 -0.687131 1.70149 0
M  V30 21797 H 2019.53 -3.25489 2.2555 0
M  V30 21798 H 2020.7 -1.36533 4.40108 0
M  V30 21799 H 2019.02 -1.38398 3.92728 0
M  V30 21800 H 2021.62 -4.11709 3.41174 0
M  V30 21801 H 2021.96 -3.78579 1.73159 0
M  V30 21802 H 2022.49 -2.63441 2.98066 0
M  V30 21803 H 2019.23 -2.68969 5.97776 0
M  V30 21804 H 2018.75 -3.77995 4.65704 0
M  V30 21805 H 2020.43 -3.77934 5.25142 0
M  V30 21806 N 2020.56 -1.3089 -0.877815 0
M  V30 21807 C 2021.49 -1.13694 -1.99013 0
M  V30 21808 C 2022.51 -0.0781797 -1.62612 0
M  V30 21809 O 2023.7 -0.324906 -1.75518 0
M  V30 21810 C 2020.8 -0.713232 -3.3131 0
M  V30 21811 C 2019.97 -1.8553 -3.96103 0
M  V30 21812 C 2019.03 -1.41895 -5.06707 0
M  V30 21813 O 2018.05 -2.12734 -5.27952 0
M  V30 21814 N 2019.26 -0.301958 -5.79714 0
M  V30 21815 H 2022.02 -2.09499 -2.14313 0
M  V30 21816 H 2019.58 -1.2312 -1.05133 0
M  V30 21817 H 2021.57 -0.404189 -4.02677 0
M  V30 21818 H 2020.14 0.152987 -3.12225 0
M  V30 21819 H 2019.36 -2.33208 -3.17817 0
M  V30 21820 H 2020.65 -2.62046 -4.3613 0
M  V30 21821 H 2020.05 0.288154 -5.64966 0
M  V30 21822 H 2018.61 -0.0524068 -6.51779 0
M  V30 21823 N 2022.04 1.0911 -1.13723 0
M  V30 21824 C 2022.99 2.17927 -0.813066 0
M  V30 21825 C 2023.98 1.68143 0.205993 0
M  V30 21826 O 2025.19 1.7989 0.0628131 0
M  V30 21827 H 2021.56 0.710911 -0.245171 0
M  V30 21828 H 2023.53 2.42497 -1.7389 0
M  V30 21829 C 2022.28 3.46412 -0.298989 0
M  V30 21830 H 2021.61 3.85091 -1.07447 0
M  V30 21831 H 2023.05 4.23856 -0.110638 0
M  V30 21832 C 2021.51 3.22454 0.975967 0
M  V30 21833 O 2022.04 3.45385 2.05115 0
M  V30 21834 N 2020.24 2.76039 0.908345 0
M  V30 21835 H 2019.79 2.57579 0.0332379 0
M  V30 21836 H 2019.75 2.60387 1.76199 0
M  V30 21837 N 2023.52 0.931232 1.27145 0
M  V30 21838 C 2024.77 0.573527 1.94208 0
M  V30 21839 C 2025.09 -0.885797 1.73159 0
M  V30 21840 O 2024.35 -1.64765 1.05598 0
M  V30 21841 C 2024.65 0.850081 3.47143 0
M  V30 21842 C 2024.31 2.29171 3.88319 0
M  V30 21843 C 2022.98 2.68581 3.99271 0
M  V30 21844 C 2025.33 3.22903 4.09125 0
M  V30 21845 C 2022.66 4.00841 4.2842 0
M  V30 21846 C 2025.01 4.54747 4.39759 0
M  V30 21847 C 2023.67 4.93987 4.48924 0
M  V30 21848 H 2022.94 0.209868 0.710659 0
M  V30 21849 H 2025.59 1.17586 1.51148 0
M  V30 21850 H 2023.89 0.165107 3.91452 0
M  V30 21851 H 2025.59 0.552233 3.97179 0
M  V30 21852 H 2022.18 1.97597 3.80334 0
M  V30 21853 H 2026.36 2.93656 4.001 0
M  V30 21854 H 2021.62 4.3092 4.33726 0
M  V30 21855 H 2025.79 5.27377 4.54804 0
M  V30 21856 H 2023.42 5.96501 4.71265 0
M  V30 21857 N 2025 -1.41343 0.697132 0
M  V30 21858 C 2026.41 -1.5528 0.368838 0
M  V30 21859 C 2026.61 -1.67234 -1.12406 0
M  V30 21860 O 2025.67 -1.65163 -1.90991 0
M  V30 21861 C 2026.98 -2.79114 1.11873 0
M  V30 21862 C 2028.53 -2.92913 1.10323 0
M  V30 21863 C 2029.01 -4.19637 1.83491 0
M  V30 21864 N 2030.5 -4.26598 1.80468 0
M  V30 21865 C 2031.23 -5.23516 2.33919 0
M  V30 21866 N 2030.73 -6.26455 2.95849 0
M  V30 21867 N 2032.52 -5.15467 2.24166 0
M  V30 21868 H 2024.67 -1.31829 1.66538 0
M  V30 21869 H 2026.93 -0.636129 0.702882 0
M  V30 21870 H 2026.64 -2.76496 2.17354 0
M  V30 21871 H 2026.51 -3.70679 0.69833 0
M  V30 21872 H 2028.9 -2.95046 0.0566834 0
M  V30 21873 H 2028.98 -2.02517 1.56271 0
M  V30 21874 H 2028.63 -4.18265 2.88126 0
M  V30 21875 H 2028.56 -5.09008 1.34976 0
M  V30 21876 H 2031.05 -3.52842 1.35318 0
M  V30 21877 H 2031.36 -6.96801 3.34198 0
M  V30 21878 H 2029.71 -6.26952 2.99927 0
M  V30 21879 H 2032.9 -4.33973 1.75456 0
M  V30 21880 H 2033.07 -5.90831 2.66126 0
M  V30 21881 N 2026.48 -0.441993 -1.51275 0
M  V30 21882 C 2027.72 0.123093 -2.02426 0
M  V30 21883 C 2028.05 1.41953 -1.32525 0
M  V30 21884 O 2027.33 1.8942 -0.44164 0
M  V30 21885 C 2027.61 0.337043 -3.58519 0
M  V30 21886 C 2027.47 -0.978373 -4.39031 0
M  V30 21887 C 2028.78 1.10474 -4.26009 0
M  V30 21888 H 2025.9 0.0432623 -0.735729 0
M  V30 21889 H 2028.55 -0.581901 -1.8087 0
M  V30 21890 H 2026.7 0.93756 -3.77017 0
M  V30 21891 H 2028.37 -1.61323 -4.32172 0
M  V30 21892 H 2026.61 -1.58189 -4.03929 0
M  V30 21893 H 2027.28 -0.78266 -5.46423 0
M  V30 21894 H 2029.76 0.596021 -4.11809 0
M  V30 21895 H 2028.63 1.22321 -5.35097 0
M  V30 21896 H 2028.89 2.13401 -3.87185 0
M  V30 21897 N 2027.95 1.56642 -0.173515 0
M  V30 21898 C 2029.18 2.01033 0.476387 0
M  V30 21899 C 2029.59 1.05282 1.57202 0
M  V30 21900 O 2028.93 0.0461376 1.83642 0
M  V30 21901 C 2029 3.41847 1.11269 0
M  V30 21902 C 2028.66 4.56725 0.158447 0
M  V30 21903 C 2029.66 5.16141 -0.624046 0
M  V30 21904 C 2027.34 5.02271 0.0536344 0
M  V30 21905 C 2029.34 6.19534 -1.49853 0
M  V30 21906 C 2027.02 6.05513 -0.824431 0
M  V30 21907 C 2028.02 6.64016 -1.5991 0
M  V30 21908 O 2027.71 7.65256 -2.46249 0
M  V30 21909 H 2027.44 0.66413 0.126127 0
M  V30 21910 H 2030 2.03577 -0.273033 0
M  V30 21911 H 2028.23 3.36222 1.91028 0
M  V30 21912 H 2029.91 3.70178 1.66502 0
M  V30 21913 H 2030.68 4.81834 -0.553255 0
M  V30 21914 H 2026.56 4.56446 0.646388 0
M  V30 21915 H 2030.1 6.65126 -2.10364 0
M  V30 21916 H 2026 6.39245 -0.896417 0
M  V30 21917 H 2026.77 7.82588 -2.39788 0
M  V30 21918 N 2029.43 -0.1002 1.57281 0
M  V30 21919 C 2030.66 -0.817121 1.89754 0
M  V30 21920 C 2031.07 -1.7305 0.764869 0
M  V30 21921 O 2030.41 -1.81669 -0.272384 0
M  V30 21922 C 2030.47 -1.68753 3.17432 0
M  V30 21923 C 2030.14 -0.9465 4.47091 0
M  V30 21924 C 2031.14 -0.278645 5.19153 0
M  V30 21925 C 2028.82 -0.922095 4.93764 0
M  V30 21926 C 2030.81 0.403703 6.3612 0
M  V30 21927 C 2028.5 -0.235958 6.10644 0
M  V30 21928 C 2029.5 0.425768 6.81672 0
M  V30 21929 O 2029.19 1.10091 7.96326 0
M  V30 21930 H 2028.92 -0.239163 0.632279 0
M  V30 21931 H 2031.47 -0.0834139 2.05231 0
M  V30 21932 H 2029.7 -2.46334 2.98088 0
M  V30 21933 H 2031.39 -2.28055 3.35776 0
M  V30 21934 H 2032.16 -0.288994 4.84138 0
M  V30 21935 H 2028.04 -1.4266 4.38371 0
M  V30 21936 H 2031.58 0.920777 6.91497 0
M  V30 21937 H 2027.48 -0.223438 6.45113 0
M  V30 21938 H 2028.25 1.00729 8.12278 0
M  V30 21939 N 2030.91 -1.53174 -0.370891 0
M  V30 21940 C 2032.33 -1.42828 -0.712207 0
M  V30 21941 C 2032.53 -0.563111 -1.93472 0
M  V30 21942 O 2031.58 -0.0435062 -2.52463 0
M  V30 21943 C 2032.89 -2.85945 -0.930375 0
M  V30 21944 C 2034.44 -2.95542 -1.03072 0
M  V30 21945 C 2034.92 -4.39709 -1.28139 0
M  V30 21946 N 2036.41 -4.43115 -1.34921 0
M  V30 21947 C 2037.14 -5.51766 -1.56017 0
M  V30 21948 N 2036.64 -6.70473 -1.74464 0
M  V30 21949 N 2038.43 -5.39336 -1.58344 0
M  V30 21950 H 2030.58 -2.07934 0.433281 0
M  V30 21951 H 2032.85 -0.938799 0.131756 0
M  V30 21952 H 2032.55 -3.51546 -0.103966 0
M  V30 21953 H 2032.43 -3.29279 -1.83997 0
M  V30 21954 H 2034.81 -2.30098 -1.84768 0
M  V30 21955 H 2034.89 -2.5561 -0.0986256 0
M  V30 21956 H 2034.54 -5.05726 -0.469468 0
M  V30 21957 H 2034.47 -4.7721 -2.22662 0
M  V30 21958 H 2036.96 -3.57563 -1.223 0
M  V30 21959 H 2037.27 -7.49049 -1.90119 0
M  V30 21960 H 2035.62 -6.73469 -1.71653 0
M  V30 21961 H 2038.81 -4.45563 -1.43496 0
M  V30 21962 H 2038.98 -6.24078 -1.74443 0
M  V30 21963 N 2032.39 0.630389 -1.44443 0
M  V30 21964 C 2033.66 1.38877 -1.3774 0
M  V30 21965 C 2034.04 2.11068 -0.0364918 0
M  V30 21966 O 2033.39 2.06373 0.98094 0
M  V30 21967 C 2033.6 2.35458 -2.57606 0
M  V30 21968 C 2034.95 2.98766 -3.01702 0
M  V30 21969 O 2035.97 2.45783 -2.57816 0
M  V30 21970 O 2034.83 3.94883 -3.77796 0
M  V30 21971 H 2031.93 0.621587 -0.54549 0
M  V30 21972 H 2034.47 0.655382 -1.56534 0
M  V30 21973 H 2033.25 1.81218 -3.46808 0
M  V30 21974 H 2032.87 3.16213 -2.41029 0
M  V30 21975 N 2033.87 1.31354 0.870861 0
M  V30 21976 C 2035.09 1.24082 1.66188 0
M  V30 21977 C 2035.52 -0.190886 1.87129 0
M  V30 21978 O 2034.87 -1.13669 1.41241 0
M  V30 21979 C 2034.92 1.98926 3.00767 0
M  V30 21980 O 2034.03 1.32599 3.90501 0
M  V30 21981 H 2033.37 0.428443 0.50728 0
M  V30 21982 H 2035.9 1.73408 1.08586 0
M  V30 21983 H 2035.91 2.08487 3.5071 0
M  V30 21984 H 2034.58 3.03044 2.84846 0
M  V30 21985 H 2033.16 1.31483 3.48951 0
M  V30 21986 N 2035.34 -1.08505 1.143 0
M  V30 21987 C 2036.76 -1.32937 0.883172 0
M  V30 21988 C 2036.96 -1.95791 -0.47623 0
M  V30 21989 O 2036.02 -2.2103 -1.22073 0
M  V30 21990 C 2037.33 -2.23189 2.01512 0
M  V30 21991 C 2038.88 -2.36672 2.0483 0
M  V30 21992 C 2039.35 -3.30266 3.17314 0
M  V30 21993 N 2040.84 -3.37843 3.16886 0
M  V30 21994 C 2041.58 -4.1029 4.00561 0
M  V30 21995 N 2041.07 -4.85454 4.94274 0
M  V30 21996 N 2042.87 -4.06111 3.88626 0
M  V30 21997 H 2035.02 -0.660869 2.01857 0
M  V30 21998 H 2037.28 -0.353741 0.879529 0
M  V30 21999 H 2036.99 -1.84248 2.99576 0
M  V30 22000 H 2036.86 -3.23644 1.93738 0
M  V30 22001 H 2039.25 -2.74873 1.07373 0
M  V30 22002 H 2039.33 -1.35963 2.16674 0
M  V30 22003 H 2038.97 -2.92787 4.15016 0
M  V30 22004 H 2038.9 -4.30901 3.02707 0
M  V30 22005 H 2041.39 -2.84257 2.49011 0
M  V30 22006 H 2041.71 -5.38193 5.54588 0
M  V30 22007 H 2040.05 -4.8451 4.98272 0
M  V30 22008 H 2043.24 -3.46497 3.14734 0
M  V30 22009 H 2043.42 -4.6231 4.54064 0
M  V30 22010 N 2036.82 -0.937962 -1.26649 0
M  V30 22011 C 2038.1 -0.501822 -1.89053 0
M  V30 22012 C 2038.48 1.02047 -1.84796 0
M  V30 22013 O 2037.83 1.87909 -1.3001 0
M  V30 22014 C 2038.04 -1.05952 -3.32528 0
M  V30 22015 C 2039.38 -1.12622 -4.09391 0
M  V30 22016 O 2040.41 -1.00988 -3.41584 0
M  V30 22017 O 2039.27 -1.30677 -5.30646 0
M  V30 22018 H 2036.36 -0.163048 -0.810768 0
M  V30 22019 H 2038.91 -1.03032 -1.34843 0
M  V30 22020 H 2037.68 -2.10319 -3.29972 0
M  V30 22021 H 2037.3 -0.513282 -3.94273 0
M  V30 22022 N 2038.3 1.40971 -0.704618 0
M  V30 22023 C 2039.71 1.84055 -0.313126 0
M  V30 22024 C 2040.06 1.5894 1.15033 0
M  V30 22025 O 2039.19 1.06454 1.88405 0
M  V30 22026 C 2039.78 3.34114 -0.561542 0
M  V30 22027 C 2038.34 3.75734 -0.223873 0
M  V30 22028 C 2037.49 2.64292 -0.839356 0
M  V30 22029 H 2040.44 1.30394 -0.904599 0
M  V30 22030 H 2040.46 3.80089 0.176821 0
M  V30 22031 H 2039.97 3.52362 -1.62673 0
M  V30 22032 H 2038.07 3.63084 0.836696 0
M  V30 22033 H 2038.19 4.74175 -0.685211 0
M  V30 22034 H 2036.55 2.53284 -0.268242 0
M  V30 22035 H 2037.33 2.85355 -1.9086 0
M  V30 22036 N 2039.78 0.45001 1.51039 0
M  V30 22037 C 2040.71 -0.345315 2.30933 0
M  V30 22038 C 2041.69 -1.00959 1.36899 0
M  V30 22039 O 2042.87 -1.0108 1.6582 0
M  V30 22040 C 2040 -1.43968 3.16055 0
M  V30 22041 C 2038.96 -0.898198 4.18469 0
M  V30 22042 C 2038.28 -2.08927 4.92193 0
M  V30 22043 C 2039.58 0.0760911 5.22245 0
M  V30 22044 H 2041.28 0.321441 2.97669 0
M  V30 22045 H 2038.82 0.156032 1.43152 0
M  V30 22046 H 2040.78 -2.00338 3.70732 0
M  V30 22047 H 2039.5 -2.1349 2.47163 0
M  V30 22048 H 2038.16 -0.356617 3.64861 0
M  V30 22049 H 2037.81 -2.77098 4.19792 0
M  V30 22050 H 2037.51 -1.73328 5.61454 0
M  V30 22051 H 2039.03 -2.65827 5.49698 0
M  V30 22052 H 2040.45 -0.397728 5.71919 0
M  V30 22053 H 2038.84 0.345281 5.99106 0
M  V30 22054 H 2039.91 1.00878 4.74291 0
M  V30 22055 N 2041.26 -1.56548 0.18182 0
M  V30 22056 C 2042.5 -1.98256 -0.454541 0
M  V30 22057 C 2042.86 -1.06631 -1.60148 0
M  V30 22058 O 2042.15 -0.108046 -1.91295 0
M  V30 22059 C 2042.34 -3.43837 -0.975236 0
M  V30 22060 C 2042.17 -4.49541 0.11972 0
M  V30 22061 C 2040.94 -5.02042 0.572914 0
M  V30 22062 C 2043.14 -5.05933 0.923913 0
M  V30 22063 N 2041.12 -5.91392 1.64708 0
M  V30 22064 C 2042.49 -5.91826 1.84777 0
M  V30 22065 C 2044.55 -4.88403 0.967818 0
M  V30 22066 C 2043.25 -6.62063 2.81185 0
M  V30 22067 C 2045.28 -5.5937 1.91989 0
M  V30 22068 C 2044.64 -6.44998 2.83121 0
M  V30 22069 H 2040.74 -0.770411 -0.13413 0
M  V30 22070 H 2043.32 -1.92611 0.284458 0
M  V30 22071 H 2041.49 -3.50008 -1.68372 0
M  V30 22072 H 2043.23 -3.72536 -1.5811 0
M  V30 22073 H 2039.98 -4.73299 0.168686 0
M  V30 22074 H 2040.41 -6.40772 2.18496 0
M  V30 22075 H 2045.05 -4.2189 0.277265 0
M  V30 22076 H 2042.77 -7.27783 3.51223 0
M  V30 22077 H 2046.35 -5.47788 1.9601 0
M  V30 22078 H 2045.23 -6.98946 3.55591 0
M  V30 22079 N 2042.73 0.0918577 -1.57332 0
M  V30 22080 C 2043.68 1.11121 -2.02289 0
M  V30 22081 C 2044.65 1.39617 -0.899791 0
M  V30 22082 O 2045.84 1.51025 -1.16602 0
M  V30 22083 C 2042.98 2.42534 -2.45502 0
M  V30 22084 C 2042.09 2.20741 -3.71345 0
M  V30 22085 C 2041.22 3.45576 -4.03424 0
M  V30 22086 C 2040.26 3.19059 -5.22368 0
M  V30 22087 N 2039.4 4.36169 -5.50182 0
M  V30 22088 H 2044.24 0.720847 -2.8915 0
M  V30 22089 H 2041.78 0.344398 -1.43012 0
M  V30 22090 H 2043.74 3.19232 -2.68601 0
M  V30 22091 H 2042.37 2.79411 -1.61646 0
M  V30 22092 H 2041.42 1.3483 -3.55704 0
M  V30 22093 H 2042.73 1.97141 -4.58189 0
M  V30 22094 H 2041.88 4.3068 -4.27317 0
M  V30 22095 H 2040.62 3.72234 -3.15108 0
M  V30 22096 H 2039.63 2.32349 -4.98291 0
M  V30 22097 H 2040.85 2.93744 -6.12284 0
M  V30 22098 H 2038.8 4.62896 -4.64826 0
M  V30 22099 H 2038.72 4.15771 -6.31404 0
M  V30 22100 H 2039.98 5.22328 -5.78613 0
M  V30 22101 N 2044.21 1.53368 0.362763 0
M  V30 22102 C 2045.46 1.69352 1.10292 0
M  V30 22103 C 2045.78 0.449366 1.89752 0
M  V30 22104 O 2045.05 -0.536608 1.88407 0
M  V30 22105 H 2043.63 0.62432 0.410162 0
M  V30 22106 H 2046.29 1.90567 0.408694 0
M  V30 22107 H 2045.39 2.55586 1.79115 0
M  V30 22108 N 2045.69 -0.62272 1.44776 0
M  V30 22109 C 2047.1 -1.20448 1.42651 0
M  V30 22110 C 2047.45 -1.95654 0.146211 0
M  V30 22111 O 2046.58 -2.02876 -0.753016 0
M  V30 22112 C 2047.17 -2.19091 2.58428 0
M  V30 22113 C 2045.73 -2.72675 2.59471 0
M  V30 22114 C 2044.88 -1.47816 2.34618 0
M  V30 22115 H 2047.83 -0.412901 1.53235 0
M  V30 22116 H 2047.85 -3.0185 2.31662 0
M  V30 22117 H 2047.36 -1.64325 3.51595 0
M  V30 22118 H 2045.46 -3.3142 1.70269 0
M  V30 22119 H 2045.58 -3.1814 3.58223 0
M  V30 22120 H 2043.94 -1.76243 1.83876 0
M  V30 22121 H 2044.72 -0.949408 3.29911 0
M  V30 22122 N 2047.17 -1.31814 -0.863883 0
M  V30 22123 C 2048.13 -1.19926 -1.95321 0
M  V30 22124 C 2049.13 -0.124731 -1.60316 0
M  V30 22125 O 2050.32 -0.374454 -1.70128 0
M  V30 22126 C 2047.45 -0.842234 -3.30332 0
M  V30 22127 H 2048.65 -2.16727 -2.07291 0
M  V30 22128 H 2046.2 -1.15512 -1.05293 0
M  V30 22129 H 2046.93 0.124348 -3.24062 0
M  V30 22130 H 2046.72 -1.61902 -3.57114 0
M  V30 22131 H 2048.21 -0.783125 -4.10191 0
M  V30 22132 N 2048.65 1.07897 -1.14873 0
M  V30 22133 C 2049.59 2.14955 -0.840422 0
M  V30 22134 C 2050.56 1.64839 0.204277 0
M  V30 22135 O 2051.75 1.9066 0.0730523 0
M  V30 22136 C 2048.89 3.43521 -0.329768 0
M  V30 22137 C 2048 4.07456 -1.43538 0
M  V30 22138 C 2047.14 5.23836 -0.881432 0
M  V30 22139 C 2046.18 5.79723 -1.96437 0
M  V30 22140 N 2045.31 6.87441 -1.42721 0
M  V30 22141 H 2050.15 2.40669 -1.75734 0
M  V30 22142 H 2047.69 1.18102 -0.876944 0
M  V30 22143 H 2049.65 4.17197 -0.01545 0
M  V30 22144 H 2048.28 3.18076 0.550246 0
M  V30 22145 H 2047.33 3.31489 -1.86599 0
M  V30 22146 H 2048.64 4.45007 -2.25323 0
M  V30 22147 H 2047.8 6.04473 -0.519325 0
M  V30 22148 H 2046.53 4.87689 -0.0326916 0
M  V30 22149 H 2045.54 4.97736 -2.33536 0
M  V30 22150 H 2046.76 6.17927 -2.81678 0
M  V30 22151 H 2044.71 6.53244 -0.600731 0
M  V30 22152 H 2044.63 7.23845 -2.18137 0
M  V30 22153 H 2045.9 7.71797 -1.09317 0
M  V30 22154 N 2050.12 0.944665 1.2615 0
M  V30 22155 C 2051.05 0.47478 2.28622 0
M  V30 22156 C 2052.04 -0.473742 1.6337 0
M  V30 22157 O 2053.22 -0.374847 1.90548 0
M  V30 22158 C 2050.35 -0.2576 3.46343 0
M  V30 22159 C 2049.3 0.604701 4.23707 0
M  V30 22160 C 2048.63 -0.257841 5.34078 0
M  V30 22161 C 2049.93 1.8778 4.87377 0
M  V30 22162 H 2051.62 1.33122 2.68177 0
M  V30 22163 H 2049.17 0.641555 1.28919 0
M  V30 22164 H 2051.12 -0.597382 4.17144 0
M  V30 22165 H 2049.85 -1.14821 3.05751 0
M  V30 22166 H 2048.51 0.927426 3.54675 0
M  V30 22167 H 2048.15 -1.1479 4.89727 0
M  V30 22168 H 2047.85 0.315739 5.86751 0
M  V30 22169 H 2049.38 -0.592815 6.07715 0
M  V30 22170 H 2050.79 1.60505 5.50374 0
M  V30 22171 H 2049.19 2.39623 5.50182 0
M  V30 22172 H 2050.26 2.58705 4.10122 0
M  V30 22173 N 2051.6 -1.40596 0.712085 0
M  V30 22174 C 2052.53 -2.33389 0.0719438 0
M  V30 22175 C 2053.51 -1.52706 -0.749334 0
M  V30 22176 O 2054.7 -1.81185 -0.698968 0
M  V30 22177 C 2051.83 -3.36659 -0.853122 0
M  V30 22178 C 2050.78 -4.27778 -0.137724 0
M  V30 22179 C 2050.11 -5.21556 -1.17827 0
M  V30 22180 C 2051.41 -5.12521 1.00597 0
M  V30 22181 H 2053.1 -2.87169 0.847002 0
M  V30 22182 H 2050.65 -1.38077 0.408756 0
M  V30 22183 H 2052.6 -4.00511 -1.31031 0
M  V30 22184 H 2051.33 -2.81266 -1.66004 0
M  V30 22185 H 2049.98 -3.65374 0.299603 0
M  V30 22186 H 2049.63 -4.6247 -1.97814 0
M  V30 22187 H 2049.33 -5.83361 -0.704503 0
M  V30 22188 H 2050.86 -5.88285 -1.63563 0
M  V30 22189 H 2052.27 -5.69847 0.62831 0
M  V30 22190 H 2050.67 -5.83351 1.40789 0
M  V30 22191 H 2051.74 -4.48706 1.83822 0
M  V30 22192 N 2053.08 -0.458013 -1.50798 0
M  V30 22193 C 2054.33 0.0937906 -2.03184 0
M  V30 22194 C 2054.68 1.38571 -1.33476 0
M  V30 22195 O 2053.97 1.86304 -0.447373 0
M  V30 22196 C 2054.17 0.346589 -3.55716 0
M  V30 22197 C 2054 -0.919282 -4.40204 0
M  V30 22198 C 2052.77 -1.45882 -4.83784 0
M  V30 22199 C 2054.97 -1.81113 -4.81355 0
M  V30 22200 N 2052.95 -2.67507 -5.52551 0
M  V30 22201 C 2054.32 -2.87332 -5.494 0
M  V30 22202 C 2056.37 -1.82308 -4.63323 0
M  V30 22203 C 2055.08 -3.94718 -6.01324 0
M  V30 22204 C 2057.1 -2.88642 -5.16178 0
M  V30 22205 C 2056.46 -3.9358 -5.84187 0
M  V30 22206 H 2052.56 -0.00537405 -0.781982 0
M  V30 22207 H 2055.15 -0.623303 -1.84453 0
M  V30 22208 H 2053.32 1.03272 -3.74419 0
M  V30 22209 H 2055.05 0.891577 -3.94757 0
M  V30 22210 H 2051.81 -1.00982 -4.62709 0
M  V30 22211 H 2052.23 -3.29238 -5.9155 0
M  V30 22212 H 2056.87 -1.025 -4.10187 0
M  V30 22213 H 2054.59 -4.75351 -6.53504 0
M  V30 22214 H 2058.18 -2.90534 -5.04065 0
M  V30 22215 H 2057.06 -4.74507 -6.2435 0
M  V30 22216 N 2054.56 1.56449 -0.190119 0
M  V30 22217 C 2055.51 2.1886 0.732745 0
M  V30 22218 C 2056.48 1.1343 1.21338 0
M  V30 22219 O 2057.66 1.4166 1.27817 0
M  V30 22220 C 2054.8 2.84809 1.94878 0
M  V30 22221 C 2053.91 4.04751 1.50998 0
M  V30 22222 C 2053.05 4.58572 2.68114 0
M  V30 22223 C 2052.09 5.70883 2.20815 0
M  V30 22224 N 2051.23 6.19132 3.3109 0
M  V30 22225 H 2056.07 2.97369 0.193776 0
M  V30 22226 H 2053.6 1.46861 0.0839065 0
M  V30 22227 H 2055.56 3.21213 2.66229 0
M  V30 22228 H 2054.19 2.08872 2.46115 0
M  V30 22229 H 2053.24 3.74043 0.69252 0
M  V30 22230 H 2054.55 4.85996 1.12292 0
M  V30 22231 H 2053.71 4.97256 3.47594 0
M  V30 22232 H 2052.45 3.76425 3.1009 0
M  V30 22233 H 2051.45 5.31733 1.39786 0
M  V30 22234 H 2052.68 6.54845 1.79875 0
M  V30 22235 H 2050.62 5.39908 3.72607 0
M  V30 22236 H 2050.54 6.95415 2.96538 0
M  V30 22237 H 2051.81 6.62468 4.108 0
M  V30 22238 N 2056.04 -0.0835127 1.57379 0
M  V30 22239 C 2057.29 -0.783318 1.86302 0
M  V30 22240 C 2057.61 -1.787 0.780472 0
M  V30 22241 O 2056.88 -1.94956 -0.192101 0
M  V30 22242 H 2055.46 -0.292281 0.687445 0
M  V30 22243 H 2058.12 -0.0623868 1.948 0
M  V30 22244 H 2057.21 -1.30677 2.83425 0
M  V30 22245 N 2057.52 -1.53558 -0.354624 0
M  V30 22246 C 2058.43 -1.83745 -1.4586 0
M  V30 22247 C 2059.44 -0.72668 -1.58099 0
M  V30 22248 O 2060.62 -1.01786 -1.73786 0
M  V30 22249 C 2057.68 -2.03089 -2.80991 0
M  V30 22250 C 2056.74 -3.26971 -2.78187 0
M  V30 22251 C 2055.98 -3.45383 -4.06874 0
M  V30 22252 O 2056.2 -2.6786 -5.03594 0
M  V30 22253 O 2055.13 -4.38776 -4.12019 0
M  V30 22254 H 2058.96 -2.77557 -1.23271 0
M  V30 22255 H 2056.54 -1.39075 -0.545763 0
M  V30 22256 H 2058.43 -2.17321 -3.6104 0
M  V30 22257 H 2057.1 -1.12466 -3.03534 0
M  V30 22258 H 2056.01 -3.18153 -1.96798 0
M  V30 22259 H 2057.34 -4.17552 -2.60598 0
M  V30 22260 N 2058.99 0.615033 -1.45104 0
M  V30 22261 C 2060.24 1.37152 -1.48438 0
M  V30 22262 C 2060.56 1.94602 -0.124508 0
M  V30 22263 O 2059.83 1.76728 0.845222 0
M  V30 22264 H 2058.41 0.509131 -0.546621 0
M  V30 22265 H 2061.07 0.722747 -1.81004 0
M  V30 22266 H 2060.17 2.19472 -2.21898 0
M  V30 22267 N 2060.47 1.3227 0.85688 0
M  V30 22268 C 2061.43 1.2096 1.94682 0
M  V30 22269 C 2062.43 0.133231 1.60247 0
M  V30 22270 O 2063.62 0.383471 1.69927 0
M  V30 22271 C 2060.76 0.85974 3.29881 0
M  V30 22272 H 2061.95 2.17823 2.06139 0
M  V30 22273 H 2059.5 1.16069 1.04679 0
M  V30 22274 H 2060.24 -0.107161 3.24123 0
M  V30 22275 H 2060.02 1.63794 3.5625 0
M  V30 22276 H 2061.51 0.804868 4.0977 0
M  V30 22277 N 2061.95 -1.07287 1.15444 0
M  V30 22278 C 2063.2 -1.80162 0.931099 0
M  V30 22279 C 2063.53 -1.8653 -0.540402 0
M  V30 22280 O 2062.8 -1.34951 -1.40066 0
M  V30 22281 C 2063.09 -3.25184 1.54685 0
M  V30 22282 C 2062.94 -3.26957 3.089 0
M  V30 22283 C 2064.26 -4.2247 1.23318 0
M  V30 22284 H 2061.38 -0.654053 0.339682 0
M  V30 22285 H 2064.02 -1.25539 1.42619 0
M  V30 22286 H 2062.17 -3.7183 1.12583 0
M  V30 22287 H 2063.84 -2.88549 3.59912 0
M  V30 22288 H 2062.08 -2.65898 3.42755 0
M  V30 22289 H 2062.76 -4.29218 3.47097 0
M  V30 22290 H 2065.23 -3.84218 1.59737 0
M  V30 22291 H 2064.11 -5.2223 1.69018 0
M  V30 22292 H 2064.37 -4.41844 0.150314 0
M  V30 22293 N 2063.43 -0.951342 -1.25647 0
M  V30 22294 C 2064.67 -0.605246 -1.93558 0
M  V30 22295 C 2065.01 0.85507 -1.74362 0
M  V30 22296 O 2064.28 1.61308 -1.08674 0
M  V30 22297 C 2064.56 -0.960718 -3.47048 0
M  V30 22298 C 2064.42 -2.47652 -3.75484 0
M  V30 22299 C 2065.74 -0.483409 -4.37437 0
M  V30 22300 H 2062.86 -0.22136 -0.702971 0
M  V30 22301 H 2065.5 -1.1874 -1.48327 0
M  V30 22302 H 2063.65 -0.465324 -3.85703 0
M  V30 22303 H 2065.32 -3.04543 -3.46484 0
M  V30 22304 H 2063.56 -2.91564 -3.21205 0
M  V30 22305 H 2064.23 -2.67575 -4.82812 0
M  V30 22306 H 2066.71 -0.908309 -4.06065 0
M  V30 22307 H 2065.59 -0.760858 -5.43601 0
M  V30 22308 H 2065.85 0.616645 -4.37778 0
M  V30 22309 N 2064.91 1.40216 -0.719531 0
M  V30 22310 C 2066.15 2.00047 -0.25771 0
M  V30 22311 C 2066.47 1.57718 1.15692 0
M  V30 22312 O 2067.67 2.10275 1.71746 0
M  V30 22313 C 2066.13 3.57559 -0.409824 0
M  V30 22314 C 2065.74 4.08859 -1.83134 0
M  V30 22315 C 2067.48 4.24499 -0.00899594 0
M  V30 22316 C 2065.39 5.58889 -1.93383 0
M  V30 22317 H 2064.32 0.748293 -0.0925975 0
M  V30 22318 H 2066.97 1.60406 -0.891188 0
M  V30 22319 H 2065.35 3.9492 0.292302 0
M  V30 22320 H 2066.53 3.82867 -2.56417 0
M  V30 22321 H 2064.84 3.54529 -2.18399 0
M  V30 22322 H 2067.44 5.34661 -0.0647997 0
M  V30 22323 H 2067.78 4.03267 1.0335 0
M  V30 22324 H 2068.31 3.92258 -0.66171 0
M  V30 22325 H 2065.05 5.8498 -2.95767 0
M  V30 22326 H 2064.57 5.86733 -1.24517 0
M  V30 22327 H 2066.25 6.24054 -1.70778 0
M  V30 22328 N 2066.38 0.466004 1.50553 0
M  V30 22329 C 2067.32 -0.367023 2.26242 0
M  V30 22330 C 2068.33 -0.961526 1.31372 0
M  V30 22331 O 2069.52 -0.850796 1.56919 0
M  V30 22332 C 2066.62 -1.52825 3.02486 0
M  V30 22333 C 2065.79 -1.04746 4.24673 0
M  V30 22334 C 2064.85 -2.08215 4.83253 0
M  V30 22335 O 2063.88 -1.66482 5.44309 0
M  V30 22336 N 2065.08 -3.40977 4.69803 0
M  V30 22337 H 2067.84 0.281827 2.98372 0
M  V30 22338 H 2065.4 0.296497 1.59162 0
M  V30 22339 H 2067.4 -2.21726 3.38555 0
M  V30 22340 H 2065.97 -2.08189 2.33186 0
M  V30 22341 H 2065.19 -0.184515 3.93768 0
M  V30 22342 H 2066.47 -0.704072 5.03905 0
M  V30 22343 H 2065.87 -3.77596 4.21234 0
M  V30 22344 H 2064.43 -4.0569 5.10156 0
M  V30 22345 N 2067.86 -1.56346 0.198413 0
M  V30 22346 C 2069.14 -1.89433 -0.487272 0
M  V30 22347 C 2069.52 -1.11243 -1.79411 0
M  V30 22348 O 2068.87 -0.214538 -2.27491 0
M  V30 22349 C 2069.08 -3.4185 -0.702822 0
M  V30 22350 C 2070.42 -4.12149 -1.0207 0
M  V30 22351 O 2071.45 -3.47319 -0.790427 0
M  V30 22352 O 2070.31 -5.26735 -1.45647 0
M  V30 22353 H 2067.4 -0.786878 -0.254463 0
M  V30 22354 H 2069.95 -1.6801 0.238874 0
M  V30 22355 H 2068.72 -3.90682 0.219919 0
M  V30 22356 H 2068.34 -3.68976 -1.48131 0
M  V30 22357 N 2069.34 0.0751653 -1.57421 0
M  V30 22358 C 2070.29 1.10843 -2.04491 0
M  V30 22359 C 2071.28 1.4028 -0.94962 0
M  V30 22360 O 2072.49 1.39727 -1.13474 0
M  V30 22361 H 2068.86 0.37477 -0.651959 0
M  V30 22362 H 2070.83 0.685258 -2.90425 0
M  V30 22363 C 2069.58 2.41474 -2.50171 0
M  V30 22364 H 2068.91 2.19672 -3.34042 0
M  V30 22365 H 2070.35 3.12227 -2.86863 0
M  V30 22366 C 2068.81 3.07194 -1.38323 0
M  V30 22367 O 2069.34 3.95132 -0.723447 0
M  V30 22368 N 2067.54 2.67764 -1.1292 0
M  V30 22369 H 2067.09 1.96344 -1.66754 0
M  V30 22370 H 2067.05 3.1206 -0.382881 0
M  V30 22371 N 2070.82 1.53744 0.346476 0
M  V30 22372 C 2072.04 1.75095 1.1116 0
M  V30 22373 C 2072.47 0.487459 1.81674 0
M  V30 22374 O 2071.83 -0.55973 1.72443 0
M  V30 22375 C 2071.87 2.92927 2.103 0
M  V30 22376 O 2070.98 2.62871 3.17762 0
M  V30 22377 H 2070.32 0.580905 0.321629 0
M  V30 22378 H 2072.85 2.00696 0.397762 0
M  V30 22379 H 2072.86 3.19633 2.53572 0
M  V30 22380 H 2071.53 3.84566 1.58372 0
M  V30 22381 H 2070.11 2.47043 2.79328 0
M  V30 22382 N 2072.3 -0.607329 1.45428 0
M  V30 22383 C 2073.57 -1.36669 1.39932 0
M  V30 22384 C 2073.95 -2.10984 0.0700663 0
M  V30 22385 O 2073.3 -2.07907 -0.947984 0
M  V30 22386 C 2073.51 -2.3133 2.61319 0
M  V30 22387 C 2074.86 -2.93928 3.06417 0
M  V30 22388 O 2075.88 -2.4165 2.61694 0
M  V30 22389 O 2074.74 -3.88823 3.8403 0
M  V30 22390 H 2071.84 -0.61283 0.55531 0
M  V30 22391 H 2074.38 -0.630396 1.57557 0
M  V30 22392 H 2073.15 -1.75677 3.49647 0
M  V30 22393 H 2072.78 -3.12338 2.4603 0
M  V30 22394 N 2073.77 -1.32722 -0.849853 0
M  V30 22395 C 2075.02 -1.22908 -1.59927 0
M  V30 22396 C 2075.34 0.206455 -1.94507 0
M  V30 22397 O 2076.54 0.426508 -2.68129 0
M  V30 22398 C 2075 -2.15292 -2.88405 0
M  V30 22399 C 2074.61 -3.63954 -2.6123 0
M  V30 22400 C 2076.35 -2.14325 -3.66422 0
M  V30 22401 C 2074.26 -4.48286 -3.85738 0
M  V30 22402 H 2073.19 -0.456463 -0.600132 0
M  V30 22403 H 2075.84 -1.57715 -0.937993 0
M  V30 22404 H 2074.22 -1.73406 -3.56015 0
M  V30 22405 H 2075.39 -4.14213 -2.01901 0
M  V30 22406 H 2073.71 -3.67101 -1.96535 0
M  V30 22407 H 2076.31 -2.74566 -4.58822 0
M  V30 22408 H 2076.65 -1.13547 -4.00516 0
M  V30 22409 H 2077.18 -2.54517 -3.05722 0
M  V30 22410 H 2073.92 -5.49897 -3.56782 0
M  V30 22411 H 2073.44 -4.02776 -4.44446 0
M  V30 22412 H 2075.12 -4.61531 -4.53429 0
M  V30 22413 N 2075.25 1.06673 -1.16011 0
M  V30 22414 C 2076.2 2.14051 -0.863174 0
M  V30 22415 C 2077.17 1.65046 0.186783 0
M  V30 22416 O 2078.35 1.90727 0.0528262 0
M  V30 22417 C 2075.49 3.43152 -0.366184 0
M  V30 22418 C 2074.61 4.05911 -1.47852 0
M  V30 22419 C 2073.74 5.22872 -0.936942 0
M  V30 22420 C 2072.78 5.77607 -2.02574 0
M  V30 22421 N 2071.92 6.85889 -1.50004 0
M  V30 22422 H 2076.76 2.38791 -1.78277 0
M  V30 22423 H 2074.3 1.17165 -0.889421 0
M  V30 22424 H 2076.25 4.17157 -0.0596984 0
M  V30 22425 H 2074.88 3.18641 0.516479 0
M  V30 22426 H 2073.94 3.29491 -1.90105 0
M  V30 22427 H 2075.25 4.42592 -2.3003 0
M  V30 22428 H 2074.4 6.03888 -0.583409 0
M  V30 22429 H 2073.14 4.87627 -0.0844157 0
M  V30 22430 H 2072.15 4.95231 -2.38802 0
M  V30 22431 H 2073.37 6.14905 -2.88217 0
M  V30 22432 H 2071.32 6.5257 -0.669982 0
M  V30 22433 H 2071.23 7.21491 -2.25802 0
M  V30 22434 H 2072.5 7.70594 -1.17496 0
M  V30 22435 N 2076.73 0.957992 1.25141 0
M  V30 22436 C 2077.98 0.615503 1.93234 0
M  V30 22437 C 2078.31 -0.845811 1.74813 0
M  V30 22438 O 2077.58 -1.60729 1.09528 0
M  V30 22439 C 2077.87 0.979109 3.46533 0
M  V30 22440 C 2077.72 2.4964 3.74165 0
M  V30 22441 C 2079.04 0.506601 4.37175 0
M  V30 22442 H 2076.16 0.225085 0.701787 0
M  V30 22443 H 2078.8 1.19525 1.47695 0
M  V30 22444 H 2076.95 0.485773 3.85451 0
M  V30 22445 H 2078.62 3.06376 3.44865 0
M  V30 22446 H 2076.87 2.93263 3.19655 0
M  V30 22447 H 2077.54 2.70132 4.81386 0
M  V30 22448 H 2080.01 0.929831 4.05578 0
M  V30 22449 H 2078.89 0.789676 5.4319 0
M  V30 22450 H 2079.15 -0.59342 4.38099 0
M  V30 22451 N 2078.21 -1.39832 0.726957 0
M  V30 22452 C 2079.45 -2.00971 0.271788 0
M  V30 22453 C 2079.79 -1.57537 -1.13559 0
M  V30 22454 O 2079.06 -0.800579 -1.7726 0
M  V30 22455 C 2079.35 -3.5825 0.364596 0
M  V30 22456 C 2079.2 -4.11724 1.81117 0
M  V30 22457 C 2080.52 -4.39345 -0.257652 0
M  V30 22458 H 2077.64 -0.730152 0.100232 0
M  V30 22459 H 2080.28 -1.66152 0.921599 0
M  V30 22460 H 2078.43 -3.88042 -0.18865 0
M  V30 22461 H 2080.1 -3.92684 2.42068 0
M  V30 22462 H 2078.34 -3.65585 2.33516 0
M  V30 22463 H 2079.01 -5.20873 1.82743 0
M  V30 22464 H 2081.49 -4.1555 0.213875 0
M  V30 22465 H 2080.37 -5.4866 -0.162327 0
M  V30 22466 H 2080.63 -4.21218 -1.34267 0
M  V30 22467 N 2079.69 -0.473982 -1.50304 0
M  V30 22468 C 2081.1 -0.0195635 -1.8669 0
M  V30 22469 C 2081.45 1.38613 -1.38856 0
M  V30 22470 O 2080.57 2.02811 -0.754772 0
M  V30 22471 C 2081.17 -0.0287258 -3.38788 0
M  V30 22472 C 2079.73 0.370234 -3.74575 0
M  V30 22473 C 2078.87 -0.412963 -2.74208 0
M  V30 22474 H 2081.83 -0.688116 -1.43006 0
M  V30 22475 H 2081.85 0.772789 -3.7257 0
M  V30 22476 H 2081.36 -1.05193 -3.73572 0
M  V30 22477 H 2079.46 1.39768 -3.45392 0
M  V30 22478 H 2079.57 0.0695687 -4.79049 0
M  V30 22479 H 2077.94 0.13371 -2.54349 0
M  V30 22480 H 2078.72 -1.43573 -3.11836 0
M  V30 22481 N 2081.16 1.56239 -0.206702 0
M  V30 22482 C 2082.58 1.58903 0.148953 0
M  V30 22483 C 2082.78 1.22319 1.60126 0
M  V30 22484 O 2081.84 0.951402 2.3389 0
M  V30 22485 C 2083.15 3.00253 -0.163906 0
M  V30 22486 C 2084.7 3.12824 -0.104945 0
M  V30 22487 C 2085.17 4.56326 -0.391273 0
M  V30 22488 N 2086.66 4.61948 -0.340308 0
M  V30 22489 C 2087.4 5.70894 -0.535549 0
M  V30 22490 N 2086.89 6.88261 -0.791765 0
M  V30 22491 N 2088.69 5.6014 -0.469005 0
M  V30 22492 H 2080.84 1.78298 -1.15428 0
M  V30 22493 H 2083.1 0.828039 -0.46158 0
M  V30 22494 H 2082.81 3.31621 -1.17133 0
M  V30 22495 H 2082.68 3.73485 0.528093 0
M  V30 22496 H 2085.07 2.81261 0.893101 0
M  V30 22497 H 2085.15 2.41953 -0.830197 0
M  V30 22498 H 2084.79 4.88603 -1.38669 0
M  V30 22499 H 2084.72 5.25402 0.355001 0
M  V30 22500 H 2087.21 3.77605 -0.149364 0
M  V30 22501 H 2087.53 7.67193 -0.929241 0
M  V30 22502 H 2085.87 6.90041 -0.828792 0
M  V30 22503 H 2089.06 4.67325 -0.269173 0
M  V30 22504 H 2089.24 6.44983 -0.624576 0
M  V30 22505 N 2082.64 -0.0668159 1.57458 0
M  V30 22506 C 2084.06 -0.421716 1.53928 0
M  V30 22507 C 2084.26 -1.78879 0.927602 0
M  V30 22508 O 2083.31 -2.46826 0.532256 0
M  V30 22509 C 2084.63 -0.358209 2.98559 0
M  V30 22510 C 2086.18 -0.438036 3.0992 0
M  V30 22511 C 2086.65 -0.404384 4.56211 0
M  V30 22512 N 2088.14 -0.464311 4.60867 0
M  V30 22513 C 2088.88 -0.460566 5.71547 0
M  V30 22514 N 2088.37 -0.41134 6.91578 0
M  V30 22515 N 2090.17 -0.507495 5.59804 0
M  V30 22516 H 2082.32 0.828281 1.95584 0
M  V30 22517 H 2084.58 0.311307 0.895428 0
M  V30 22518 H 2084.29 0.579727 3.46889 0
M  V30 22519 H 2084.16 -1.16651 3.58709 0
M  V30 22520 H 2086.55 -1.3664 2.6156 0
M  V30 22521 H 2086.63 0.398926 2.5267 0
M  V30 22522 H 2086.27 0.520148 5.0523 0
M  V30 22523 H 2086.2 -1.25895 5.1133 0
M  V30 22524 H 2088.69 -0.506402 3.74492 0
M  V30 22525 H 2089.01 -0.412545 7.71698 0
M  V30 22526 H 2087.35 -0.377953 6.93972 0
M  V30 22527 H 2090.54 -0.543679 4.64932 0
M  V30 22528 H 2090.71 -0.501107 6.4606 0
M  V30 22529 N 2084.12 -1.53926 -0.338317 0
M  V30 22530 C 2085.07 -1.8228 -1.41572 0
M  V30 22531 C 2086.04 -0.668853 -1.52038 0
M  V30 22532 O 2087.22 -0.913813 -1.67494 0
M  V30 22533 C 2084.36 -2.04273 -2.78148 0
M  V30 22534 C 2083.48 -3.31978 -2.76432 0
M  V30 22535 C 2082.61 -3.44011 -4.04759 0
M  V30 22536 C 2081.65 -4.65646 -3.97292 0
M  V30 22537 N 2080.79 -4.74683 -5.1732 0
M  V30 22538 H 2085.63 -2.74202 -1.16692 0
M  V30 22539 H 2083.16 -1.35809 -0.565173 0
M  V30 22540 H 2085.12 -2.15014 -3.57526 0
M  V30 22541 H 2083.75 -1.15659 -3.01368 0
M  V30 22542 H 2082.8 -3.30052 -1.89129 0
M  V30 22543 H 2084.12 -4.21454 -2.66792 0
M  V30 22544 H 2083.27 -3.54213 -4.92563 0
M  V30 22545 H 2082.01 -2.52601 -4.17186 0
M  V30 22546 H 2081.01 -4.55516 -3.07873 0
M  V30 22547 H 2082.24 -5.58425 -3.86443 0
M  V30 22548 H 2080.19 -3.86184 -5.30281 0
M  V30 22549 H 2080.1 -5.58103 -5.09958 0
M  V30 22550 H 2081.37 -4.89201 -6.0688 0
M  V30 22551 N 2085.6 0.599608 -1.45748 0
M  V30 22552 C 2086.56 1.6918 -1.54631 0
M  V30 22553 C 2087.56 1.55081 -0.425029 0
M  V30 22554 O 2088.75 1.60004 -0.688782 0
M  V30 22555 C 2085.88 3.08502 -1.45049 0
M  V30 22556 H 2087.08 1.62667 -2.51951 0
M  V30 22557 H 2084.63 0.816022 -1.33307 0
M  V30 22558 H 2085.37 3.20585 -0.489439 0
M  V30 22559 H 2085.15 3.20144 -2.26386 0
M  V30 22560 H 2086.64 3.88042 -1.54315 0
M  V30 22561 N 2087.08 1.33171 0.842803 0
M  V30 22562 C 2088.02 1.23097 1.95232 0
M  V30 22563 C 2088.99 0.110469 1.65732 0
M  V30 22564 O 2090.18 0.288065 1.88613 0
M  V30 22565 C 2087.32 0.972118 3.31125 0
M  V30 22566 C 2086.43 2.17852 3.73047 0
M  V30 22567 C 2085.57 1.85415 4.9779 0
M  V30 22568 C 2084.61 3.0231 5.32236 0
M  V30 22569 N 2083.74 2.69887 6.48156 0
M  V30 22570 H 2088.58 2.17995 2.03181 0
M  V30 22571 H 2086.12 1.08406 0.994308 0
M  V30 22572 H 2088.08 0.802486 4.09409 0
M  V30 22573 H 2086.71 0.0598977 3.22744 0
M  V30 22574 H 2085.76 2.45803 2.90318 0
M  V30 22575 H 2087.07 3.05254 3.94489 0
M  V30 22576 H 2086.23 1.65073 5.83812 0
M  V30 22577 H 2084.97 0.952447 4.78309 0
M  V30 22578 H 2083.97 3.2327 4.44721 0
M  V30 22579 H 2085.2 3.93229 5.53667 0
M  V30 22580 H 2083.14 1.82271 6.30169 0
M  V30 22581 H 2083.06 3.50818 6.69673 0
M  V30 22582 H 2084.33 2.53002 7.37299 0
M  V30 22583 N 2088.56 -1.06056 1.16576 0
M  V30 22584 C 2089.8 -1.78287 0.943219 0
M  V30 22585 C 2090.12 -1.88283 -0.529992 0
M  V30 22586 O 2091.32 -2.57167 -0.870491 0
M  V30 22587 C 2089.78 -3.20448 1.63832 0
M  V30 22588 C 2089.39 -3.18611 3.14946 0
M  V30 22589 C 2091.13 -3.97196 1.49784 0
M  V30 22590 C 2089.04 -4.55507 3.77183 0
M  V30 22591 H 2087.97 -0.668232 0.34926 0
M  V30 22592 H 2090.62 -1.1894 1.39734 0
M  V30 22593 H 2089 -3.80069 1.11191 0
M  V30 22594 H 2090.18 -2.68559 3.7445 0
M  V30 22595 H 2088.49 -2.55362 3.28906 0
M  V30 22596 H 2091.09 -4.98397 1.93661 0
M  V30 22597 H 2091.43 -4.13892 0.447129 0
M  V30 22598 H 2091.96 -3.44104 1.99594 0
M  V30 22599 H 2088.7 -4.44017 4.82213 0
M  V30 22600 H 2088.22 -5.05743 3.22465 0
M  V30 22601 H 2089.9 -5.24461 3.7888 0
M  V30 22602 N 2090.03 -0.964615 -1.24631 0
M  V30 22603 C 2091.28 -0.620429 -1.91921 0
M  V30 22604 C 2091.6 0.847851 -1.76269 0
M  V30 22605 O 2092.8 1.30243 -2.38221 0
M  V30 22606 C 2091.26 -1.059 -3.43967 0
M  V30 22607 C 2090.87 -2.55052 -3.6831 0
M  V30 22608 C 2092.61 -0.787818 -4.17126 0
M  V30 22609 C 2090.52 -2.92658 -5.13912 0
M  V30 22610 H 2089.45 -0.22834 -0.718594 0
M  V30 22611 H 2092.1 -1.17041 -1.41328 0
M  V30 22612 H 2090.48 -0.437357 -3.93577 0
M  V30 22613 H 2091.65 -3.2232 -3.29312 0
M  V30 22614 H 2089.97 -2.79748 -3.08432 0
M  V30 22615 H 2092.57 -1.04483 -5.24392 0
M  V30 22616 H 2092.91 0.275932 -4.15385 0
M  V30 22617 H 2093.44 -1.37028 -3.73454 0
M  V30 22618 H 2090.18 -3.98091 -5.20772 0
M  V30 22619 H 2089.7 -2.30071 -5.5392 0
M  V30 22620 H 2091.38 -2.82395 -5.82119 0
M  V30 22621 N 2091.51 1.39445 -0.734362 0
M  V30 22622 C 2092.93 1.54247 -0.409878 0
M  V30 22623 C 2093.13 1.70155 1.07933 0
M  V30 22624 O 2092.18 1.70169 1.86545 0
M  V30 22625 C 2093.5 2.7605 -1.19234 0
M  V30 22626 C 2095.04 2.89885 -1.1805 0
M  V30 22627 C 2095.52 4.14625 -1.94552 0
M  V30 22628 N 2097.01 4.21663 -1.91715 0
M  V30 22629 C 2097.75 5.1713 -2.47717 0
M  V30 22630 N 2097.24 6.1839 -3.12354 0
M  V30 22631 N 2099.03 5.09342 -2.37754 0
M  V30 22632 H 2091.19 1.27367 -1.69975 0
M  V30 22633 H 2093.45 0.61727 -0.719501 0
M  V30 22634 H 2093.15 2.70636 -2.24609 0
M  V30 22635 H 2093.03 3.68698 -0.796363 0
M  V30 22636 H 2095.42 2.94792 -0.13489 0
M  V30 22637 H 2095.5 1.98302 -1.61585 0
M  V30 22638 H 2095.14 4.10479 -2.99114 0
M  V30 22639 H 2095.07 5.0525 -1.48424 0
M  V30 22640 H 2097.56 3.4913 -1.44625 0
M  V30 22641 H 2097.87 6.87695 -3.52555 0
M  V30 22642 H 2096.22 6.1878 -3.16444 0
M  V30 22643 H 2099.41 4.29169 -1.86901 0
M  V30 22644 H 2099.58 5.83567 -2.81698 0
M  V30 22645 N 2092.99 0.481946 1.5005 0
M  V30 22646 C 2094.27 -0.131379 1.95158 0
M  V30 22647 C 2094.65 -1.55951 1.42276 0
M  V30 22648 O 2093.99 -2.19691 0.62835 0
M  V30 22649 C 2094.2 -0.0635771 3.48942 0
M  V30 22650 C 2095.55 -0.247054 4.23881 0
M  V30 22651 O 2096.58 -0.139659 3.55926 0
M  V30 22652 O 2095.44 -0.465153 5.44517 0
M  V30 22653 H 2092.53 -0.105746 0.820211 0
M  V30 22654 H 2095.08 0.543125 1.60774 0
M  V30 22655 H 2093.85 0.933103 3.80012 0
M  V30 22656 H 2093.47 -0.779065 3.89893 0
M  V30 22657 N 2094.47 -1.56127 0.214985 0
M  V30 22658 C 2095.7 -2.02225 -0.422919 0
M  V30 22659 C 2096.11 -1.09413 -1.54355 0
M  V30 22660 O 2095.45 -0.0948108 -1.83455 0
M  V30 22661 C 2095.51 -3.44677 -1.02166 0
M  V30 22662 C 2095.17 -4.56985 -0.0372982 0
M  V30 22663 C 2096.17 -5.14305 0.760672 0
M  V30 22664 C 2093.86 -5.02237 0.0795528 0
M  V30 22665 C 2095.85 -6.15343 1.66226 0
M  V30 22666 C 2093.54 -6.03115 0.984683 0
M  V30 22667 C 2094.54 -6.59543 1.77459 0
M  V30 22668 O 2094.22 -7.58458 2.66451 0
M  V30 22669 H 2093.96 -0.66724 -0.108474 0
M  V30 22670 H 2096.51 -2.02782 0.326912 0
M  V30 22671 H 2094.74 -3.41169 -1.82046 0
M  V30 22672 H 2096.43 -3.74463 -1.56629 0
M  V30 22673 H 2097.19 -4.80198 0.68081 0
M  V30 22674 H 2093.07 -4.57999 -0.525143 0
M  V30 22675 H 2096.62 -6.59315 2.27925 0
M  V30 22676 H 2092.51 -6.36644 1.06559 0
M  V30 22677 H 2093.28 -7.75955 2.60453 0
M  V30 22678 N 2095.95 0.0584645 -1.57492 0
M  V30 22679 C 2097.19 0.75358 -1.87525 0
M  V30 22680 C 2097.51 1.77436 -0.808803 0
M  V30 22681 O 2096.78 1.95237 0.161061 0
M  V30 22682 H 2095.36 0.281308 -0.692008 0
M  V30 22683 H 2098.03 0.0313879 -1.94875 0
M  V30 22684 H 2097.12 1.26151 -2.85469 0
M  V30 22685 N 2097.42 1.54103 0.330149 0
M  V30 22686 C 2098.37 1.83029 1.40603 0
M  V30 22687 C 2099.34 0.676907 1.51681 0
M  V30 22688 O 2100.53 0.922683 1.67007 0
M  V30 22689 C 2097.67 2.05745 2.77061 0
M  V30 22690 C 2096.78 3.3344 2.74667 0
M  V30 22691 C 2095.91 3.46152 4.02929 0
M  V30 22692 C 2094.95 4.67746 3.94817 0
M  V30 22693 N 2094.09 4.7742 5.14796 0
M  V30 22694 H 2098.93 2.74817 1.15236 0
M  V30 22695 H 2096.47 1.36107 0.557963 0
M  V30 22696 H 2098.42 2.16907 3.56381 0
M  V30 22697 H 2097.05 1.17255 3.00751 0
M  V30 22698 H 2096.11 3.3105 1.87376 0
M  V30 22699 H 2097.42 4.22863 2.64554 0
M  V30 22700 H 2096.57 3.5682 4.90678 0
M  V30 22701 H 2095.31 2.5481 4.15841 0
M  V30 22702 H 2094.32 4.57142 3.05453 0
M  V30 22703 H 2095.54 5.60467 3.83476 0
M  V30 22704 H 2093.49 3.88991 5.28225 0
M  V30 22705 H 2093.4 5.60799 5.06991 0
M  V30 22706 H 2094.67 4.92412 6.04277 0
M  V30 22707 N 2098.9 -0.59187 1.46064 0
M  V30 22708 C 2099.83 -1.71586 1.51957 0
M  V30 22709 C 2100.85 -1.57585 0.408771 0
M  V30 22710 O 2102.04 -1.65177 0.676661 0
M  V30 22711 C 2099.14 -3.09749 1.3751 0
M  V30 22712 C 2098.31 -3.49841 2.62546 0
M  V30 22713 C 2097.37 -4.67027 2.4243 0
M  V30 22714 O 2096.39 -4.7335 3.16115 0
M  V30 22715 N 2097.6 -5.61316 1.48003 0
M  V30 22716 H 2100.36 -1.66989 2.48867 0
M  V30 22717 H 2097.92 -0.7776 1.42003 0
M  V30 22718 H 2099.91 -3.85924 1.21839 0
M  V30 22719 H 2098.48 -3.08765 0.488162 0
M  V30 22720 H 2097.7 -2.63465 2.93223 0
M  V30 22721 H 2098.99 -3.7339 3.45626 0
M  V30 22722 H 2098.39 -5.58935 0.872231 0
M  V30 22723 H 2096.95 -6.36959 1.38298 0
M  V30 22724 N 2100.38 -1.33616 -0.835729 0
M  V30 22725 C 2101.31 -1.18471 -1.95038 0
M  V30 22726 C 2102.29 -0.0794148 -1.62406 0
M  V30 22727 O 2103.48 -0.242229 -1.86937 0
M  V30 22728 C 2100.6 -0.817792 -3.28679 0
M  V30 22729 C 2099.65 -1.93103 -3.80281 0
M  V30 22730 S 2100.48 -3.5425 -4.0158 0
M  V30 22731 C 2101.64 -3.19572 -5.38167 0
M  V30 22732 H 2101.87 -2.12826 -2.07587 0
M  V30 22733 H 2099.4 -1.18495 -0.989865 0
M  V30 22734 H 2101.36 -0.612875 -4.05899 0
M  V30 22735 H 2100.02 0.107213 -3.13917 0
M  V30 22736 H 2099.22 -1.62774 -4.76991 0
M  V30 22737 H 2098.82 -2.09277 -3.09966 0
M  V30 22738 H 2101.11 -2.70592 -6.21117 0
M  V30 22739 H 2102.05 -4.15375 -5.73471 0
M  V30 22740 H 2102.46 -2.56087 -5.0307 0
M  V30 22741 N 2101.86 1.05436 -1.17136 0
M  V30 22742 C 2102.82 2.11293 -0.888146 0
M  V30 22743 C 2103.82 1.60347 0.120621 0
M  V30 22744 O 2105.01 1.73844 -0.111266 0
M  V30 22745 C 2102.14 3.393 -0.329871 0
M  V30 22746 H 2103.34 2.3785 -1.82667 0
M  V30 22747 H 2100.89 1.21641 -0.981486 0
M  V30 22748 H 2101.62 3.18397 0.61592 0
M  V30 22749 H 2101.41 3.77588 -1.05687 0
M  V30 22750 H 2102.9 4.17331 -0.149954 0
M  V30 22751 N 2103.34 0.971211 1.24118 0
M  V30 22752 C 2104.58 0.633768 1.91906 0
M  V30 22753 C 2104.91 -0.834157 1.76258 0
M  V30 22754 O 2104.18 -1.59579 1.13628 0
M  V30 22755 H 2102.76 0.231413 0.710251 0
M  V30 22756 H 2105.42 1.23304 1.50938 0
M  V30 22757 H 2104.51 0.877411 2.99513 0
M  V30 22758 N 2104.81 -1.39054 0.741747 0
M  V30 22759 C 2106.09 -1.94374 0.218671 0
M  V30 22760 C 2106.47 -1.67801 -1.28086 0
M  V30 22761 O 2105.82 -1.00997 -2.04968 0
M  V30 22762 C 2106.03 -3.44485 0.559566 0
M  V30 22763 C 2107.38 -4.21494 0.512635 0
M  V30 22764 O 2108.4 -3.52713 0.497155 0
M  V30 22765 O 2107.26 -5.44086 0.513112 0
M  V30 22766 H 2104.35 -0.825923 0.0421827 0
M  V30 22767 H 2106.9 -1.48515 0.821064 0
M  V30 22768 H 2105.67 -3.57287 1.59567 0
M  V30 22769 H 2105.3 -3.97536 -0.0714489 0
M  V30 22770 N 2106.29 -0.489897 -1.49792 0
M  V30 22771 C 2107.57 0.121028 -1.95225 0
M  V30 22772 C 2107.95 1.55194 -1.43101 0
M  V30 22773 O 2107.3 2.19354 -0.639992 0
M  V30 22774 C 2107.51 0.045071 -3.48971 0
M  V30 22775 C 2108.86 0.224571 -4.24006 0
M  V30 22776 O 2109.88 0.120781 -3.55995 0
M  V30 22777 O 2108.74 0.436269 -5.44756 0
M  V30 22778 H 2105.83 0.101395 -0.820761 0
M  V30 22779 H 2108.38 -0.551643 -1.60484 0
M  V30 22780 H 2107.15 -0.953242 -3.79512 0
M  V30 22781 H 2106.77 0.758377 -3.903 0
M  V30 22782 N 2107.77 1.56011 -0.223262 0
M  V30 22783 C 2109.01 2.0025 0.409802 0
M  V30 22784 C 2109.37 1.10766 1.56827 0
M  V30 22785 O 2110.58 1.44359 2.26746 0
M  V30 22786 C 2108.85 3.47588 0.831689 0
M  V30 22787 S 2110.41 4.13848 1.45862 0
M  V30 22788 H 2107.22 0.699017 0.129988 0
M  V30 22789 H 2109.83 1.92644 -0.332951 0
M  V30 22790 H 2108.53 4.10395 -0.0211012 0
M  V30 22791 H 2108.06 3.59071 1.60721 0
M  V30 22792 H 2110.08 4.13178 2.7477 0
M  V30 22793 N 2109.25 -0.0501116 1.5752 0
M  V30 22794 C 2110.49 -0.7462 1.88573 0
M  V30 22795 C 2110.83 -1.76115 0.818369 0
M  V30 22796 O 2110.1 -1.93764 -0.169013 0
M  V30 22797 C 2110.39 -1.43474 3.30284 0
M  V30 22798 C 2110.24 -0.434736 4.47694 0
M  V30 22799 C 2111.56 -2.37419 3.70568 0
M  V30 22800 H 2108.68 -0.269807 0.685838 0
M  V30 22801 H 2111.32 -0.00912382 1.89998 0
M  V30 22802 H 2109.47 -2.06301 3.29199 0
M  V30 22803 H 2111.14 0.189992 4.60909 0
M  V30 22804 H 2109.38 0.24799 4.33091 0
M  V30 22805 H 2110.05 -0.954564 5.43684 0
M  V30 22806 H 2112.53 -1.84653 3.72884 0
M  V30 22807 H 2111.41 -2.82587 4.7057 0
M  V30 22808 H 2111.67 -3.2318 3.01674 0
M  V30 22809 N 2110.73 -1.54276 -0.321972 0
M  V30 22810 C 2111.69 -1.83051 -1.37931 0
M  V30 22811 C 2112.69 -0.702392 -1.44648 0
M  V30 22812 O 2113.88 -0.970701 -1.44648 0
M  V30 22813 C 2111.01 -1.99197 -2.76647 0
M  V30 22814 H 2112.2 -2.77523 -1.1367 0
M  V30 22815 H 2109.76 -1.46018 -0.55754 0
M  V30 22816 H 2110.49 -1.06942 -3.0616 0
M  V30 22817 H 2110.28 -2.81289 -2.73164 0
M  V30 22818 H 2111.77 -2.22902 -3.53135 0
M  V30 22819 N 2112.2 0.584116 -1.46376 0
M  V30 22820 C 2113.45 1.33973 -1.51313 0
M  V30 22821 C 2113.77 1.94294 -0.165758 0
M  V30 22822 O 2113.04 1.78481 0.807546 0
M  V30 22823 H 2111.62 0.497422 -0.557298 0
M  V30 22824 H 2114.29 0.684191 -1.82496 0
M  V30 22825 H 2113.38 2.14716 -2.26503 0
M  V30 22826 N 2113.68 1.34058 0.828631 0
M  V30 22827 C 2115.1 1.13615 1.12088 0
M  V30 22828 C 2115.3 -0.0661541 2.01391 0
M  V30 22829 O 2114.36 -0.743382 2.41309 0
M  V30 22830 C 2115.67 2.42862 1.7731 0
M  V30 22831 C 2117.22 2.48865 1.8983 0
M  V30 22832 C 2117.69 3.78099 2.58468 0
M  V30 22833 N 2119.18 3.79227 2.65972 0
M  V30 22834 C 2119.92 4.7594 3.19795 0
M  V30 22835 N 2119.41 5.83032 3.74226 0
M  V30 22836 N 2121.21 4.63402 3.18143 0
M  V30 22837 H 2113.36 2.11101 0.234506 0
M  V30 22838 H 2115.62 0.93325 0.166579 0
M  V30 22839 H 2115.33 3.30901 1.19153 0
M  V30 22840 H 2115.2 2.55776 2.77233 0
M  V30 22841 H 2117.59 1.61268 2.47137 0
M  V30 22842 H 2117.67 2.39883 0.888256 0
M  V30 22843 H 2117.31 4.66082 2.01817 0
M  V30 22844 H 2117.24 3.84361 3.59964 0
M  V30 22845 H 2119.73 3.01836 2.27384 0
M  V30 22846 H 2120.05 6.5285 4.1353 0
M  V30 22847 H 2118.39 5.86753 3.72486 0
M  V30 22848 H 2121.58 3.78889 2.74883 0
M  V30 22849 H 2121.76 5.38942 3.59786 0
M  V30 22850 N 2115.16 -1.04814 1.17694 0
M  V30 22851 C 2116.09 -2.12661 0.854872 0
M  V30 22852 C 2117.11 -1.62159 -0.144345 0
M  V30 22853 O 2118.3 -1.78309 0.0824726 0
M  V30 22854 C 2115.4 -3.37942 0.254679 0
M  V30 22855 C 2114.57 -4.17706 1.2977 0
M  V30 22856 C 2113.63 -5.21326 0.714573 0
M  V30 22857 O 2112.65 -5.52033 1.38736 0
M  V30 22858 N 2113.86 -5.78415 -0.491561 0
M  V30 22859 H 2116.62 -2.40885 1.7831 0
M  V30 22860 H 2114.18 -1.20943 1.0763 0
M  V30 22861 H 2116.17 -4.04426 -0.148817 0
M  V30 22862 H 2114.74 -3.07221 -0.577415 0
M  V30 22863 H 2113.96 -3.46655 1.8768 0
M  V30 22864 H 2115.25 -4.67796 2.00112 0
M  V30 22865 H 2114.65 -5.55756 -1.05604 0
M  V30 22866 H 2113.21 -6.46403 -0.837072 0
M  V30 22867 N 2116.64 -0.977779 -1.23601 0
M  V30 22868 C 2117.92 -0.561714 -1.87361 0
M  V30 22869 C 2118.3 0.961166 -1.87949 0
M  V30 22870 O 2117.64 1.83678 -1.35922 0
M  V30 22871 C 2117.85 -1.16478 -3.28989 0
M  V30 22872 C 2119.2 -1.2559 -4.05601 0
M  V30 22873 O 2120.23 -1.11804 -3.38199 0
M  V30 22874 O 2119.09 -1.47493 -5.2622 0
M  V30 22875 H 2116.18 -0.18876 -0.80517 0
M  V30 22876 H 2118.73 -1.07269 -1.31497 0
M  V30 22877 H 2117.5 -2.20711 -3.23114 0
M  V30 22878 H 2117.12 -0.638457 -3.9244 0
M  V30 22879 N 2118.12 1.38658 -0.749111 0
M  V30 22880 C 2119.03 2.34291 -0.120373 0
M  V30 22881 C 2120.04 1.59043 0.705796 0
M  V30 22882 O 2121.22 1.9126 0.63099 0
M  V30 22883 C 2118.28 3.38141 0.765626 0
M  V30 22884 C 2117.35 4.29236 -0.0744037 0
M  V30 22885 C 2116.58 5.28125 0.769401 0
M  V30 22886 O 2116.8 5.33902 2.0076 0
M  V30 22887 O 2115.74 6.01598 0.190576 0
M  V30 22888 H 2119.56 2.89744 -0.910056 0
M  V30 22889 H 2117.15 1.40428 -0.509948 0
M  V30 22890 H 2119.03 4.0174 1.27214 0
M  V30 22891 H 2117.7 2.8505 1.53388 0
M  V30 22892 H 2116.61 3.68812 -0.626761 0
M  V30 22893 H 2117.94 4.85569 -0.805208 0
M  V30 22894 N 2119.6 0.497834 1.49531 0
M  V30 22895 C 2120.87 -0.110673 1.95287 0
M  V30 22896 C 2121.25 -1.54433 1.43923 0
M  V30 22897 O 2120.6 -2.19012 0.651616 0
M  V30 22898 C 2120.81 -0.0265636 3.4899 0
M  V30 22899 C 2122.16 -0.202082 4.24119 0
M  V30 22900 O 2123.18 -0.1019 3.56054 0
M  V30 22901 O 2122.04 -0.407373 5.4498 0
M  V30 22902 H 2119.14 -0.0970406 0.821287 0
M  V30 22903 H 2121.68 0.560146 1.60189 0
M  V30 22904 H 2120.45 0.973355 3.79001 0
M  V30 22905 H 2120.08 -0.737668 3.90697 0
M  V30 22906 O 2121.11 -1.57129 0.37319 0
M  V30 22907 H 2121.8 -1.92902 -0.175667 0
M  V30 END ATOM
M  V30 BEGIN BOND
M  V30 END BOND
M  V30 END CTAB
M  END
$$$$
